drugbank_target|P32427 3-carboxy-cis,cis-muconate cycloisomerase (DB04272; DB04447)
 OpenBabel12092120293D

  0  0  0     0  0            999 V3000
M  V30 BEGIN CTAB
M  V30 COUNTS 6292 6343 0 0 0
M  V30 BEGIN ATOM
M  V30 1 H -0.908 1.98254 -0.117106 0
M  V30 2 N 0 1.576 0 0
M  V30 3 C 0.933 2.03868 1.02534 0
M  V30 4 C 1.911 0.928543 1.3348 0
M  V30 5 O 3.095 1.19667 1.45644 0
M  V30 6 C 0.222 2.43627 2.35294 0
M  V30 7 C -0.732 3.65373 2.2001 0
M  V30 8 S 0.101 5.13292 1.52614 0
M  V30 9 C 1.257 5.56322 2.86805 0
M  V30 10 H 1.49 2.90518 0.631377 0
M  V30 11 H -0.977 1.52953 0.210867 0
M  V30 12 H 0.981 2.67203 3.11629 0
M  V30 13 H -0.358 1.57376 2.7183 0
M  V30 14 H -1.165 3.90944 3.18086 0
M  V30 15 H -1.563 3.418 1.51819 0
M  V30 16 H 0.729 5.58782 3.83104 0
M  V30 17 H 1.672 6.56266 2.65933 0
M  V30 18 H 2.08 4.83886 2.90714 0
M  V30 19 N 1.4781 -0.272755 1.55222 0
M  V30 20 C 2.7061 -1.02255 1.79865 0
M  V30 21 C 3.1211 -1.79924 0.572088 0
M  V30 22 O 2.4781 -1.76638 -0.458842 0
M  V30 23 C 2.5291 -1.98094 3.02392 0
M  V30 24 O 2.2501 -1.23572 4.20311 0
M  V30 25 C 3.7511 -2.84884 3.39641 0
M  V30 26 H 0.9711 -0.302057 0.599168 0
M  V30 27 H 3.5151 -0.303465 2.02236 0
M  V30 28 H 1.6701 -2.65465 2.82147 0
M  V30 29 H 2.0841 -1.88172 4.89583 0
M  V30 30 H 3.5581 -3.47927 4.28545 0
M  V30 31 H 4.0351 -3.54665 2.59055 0
M  V30 32 H 4.6411 -2.23003 3.62146 0
M  V30 33 N 2.9562 -1.48159 -0.537278 0
M  V30 34 C 3.9042 -1.62573 -1.66352 0
M  V30 35 C 4.8982 -0.492366 -1.62087 0
M  V30 36 O 6.1042 -0.670847 -1.67032 0
M  V30 37 H 2.4792 -0.511992 -0.550789 0
M  V30 38 H 4.4502 -2.57176 -1.51337 0
M  V30 39 C 3.1992 -1.67583 -3.04649 0
M  V30 40 H 2.5222 -2.54151 -3.08622 0
M  V30 41 H 3.9622 -1.81713 -3.83088 0
M  V30 42 C 2.4212 -0.413039 -3.34358 0
M  V30 43 O 2.9512 0.477259 -3.98855 0
M  V30 44 N 1.1572 -0.286961 -2.8918 0
M  V30 45 H 0.7042 -1.01241 -2.36871 0
M  V30 46 H 0.6622 0.556963 -3.09427 0
M  V30 47 N 4.4343 0.785586 -1.36625 0
M  V30 48 C 5.3663 1.90711 -1.2713 0
M  V30 49 C 6.3793 1.61688 -0.189986 0
M  V30 50 O 7.5683 1.72864 -0.445014 0
M  V30 51 C 4.6683 3.25611 -0.939713 0
M  V30 52 C 3.8413 3.82385 -2.12369 0
M  V30 53 C 2.9003 4.95732 -1.76456 0
M  V30 54 O 1.9263 5.12047 -2.48589 0
M  V30 55 N 3.1283 5.76258 -0.700492 0
M  V30 56 H 5.8933 1.99376 -2.23762 0
M  V30 57 H 3.4543 0.964041 -1.30069 0
M  V30 58 H 5.4463 3.98937 -0.680554 0
M  V30 59 H 4.0163 3.12538 -0.0624074 0
M  V30 60 H 3.2363 3.01001 -2.54543 0
M  V30 61 H 4.5243 4.17047 -2.9146 0
M  V30 62 H 3.9223 5.65609 -0.101624 0
M  V30 63 H 2.4793 6.4987 -0.501165 0
M  V30 64 N 5.9124 1.20967 1.01018 0
M  V30 65 C 6.8424 0.988272 2.11555 0
M  V30 66 C 7.8234 -0.0849778 1.69888 0
M  V30 67 O 9.0084 0.0738202 1.9406 0
M  V30 68 C 6.1384 0.546528 3.42973 0
M  V30 69 C 5.0924 1.56375 3.9841 0
M  V30 70 C 4.4184 0.97842 5.25672 0
M  V30 71 C 5.7184 2.94922 4.31066 0
M  V30 72 H 7.4124 1.91276 2.30334 0
M  V30 73 H 4.9584 0.921073 1.1069 0
M  V30 74 H 6.9114 0.378839 4.19694 0
M  V30 75 H 5.6354 -0.413598 3.23971 0
M  V30 76 H 4.2944 1.71891 3.23804 0
M  V30 77 H 3.9424 0.0101688 5.02999 0
M  V30 78 H 3.6424 1.65784 5.63728 0
M  V30 79 H 5.1664 0.821939 6.05043 0
M  V30 80 H 6.5804 2.8288 4.9865 0
M  V30 81 H 4.9774 3.5983 4.80253 0
M  V30 82 H 6.0474 3.4616 3.39561 0
M  V30 83 N 7.3905 -1.2043 1.01659 0
M  V30 84 C 8.6375 -1.89797 0.705917 0
M  V30 85 C 8.9655 -1.78848 -0.764439 0
M  V30 86 O 8.2205 -1.16694 -1.57102 0
M  V30 87 C 8.5195 -3.40464 1.08714 0
M  V30 88 C 8.1855 -3.71614 2.5537 0
M  V30 89 C 6.8475 -3.79826 2.95441 0
M  V30 90 C 9.1995 -3.85915 3.50313 0
M  V30 91 C 6.5275 -3.99797 4.29394 0
M  V30 92 C 8.8795 -4.07396 4.83954 0
M  V30 93 C 7.5435 -4.13837 5.23732 0
M  V30 94 H 6.8135 -0.694518 0.258313 0
M  V30 95 H 9.4605 -1.42691 1.27717 0
M  V30 96 H 7.7655 -3.89385 0.434309 0
M  V30 97 H 9.4625 -3.92433 0.824461 0
M  V30 98 H 6.0525 -3.65822 2.23321 0
M  V30 99 H 10.2365 -3.78926 3.20513 0
M  V30 100 H 5.4925 -4.03018 4.59768 0
M  V30 101 H 9.6665 -4.17404 5.57447 0
M  V30 102 H 7.2935 -4.29064 6.27541 0
M  V30 103 N 8.8686 -0.792821 -1.36206 0
M  V30 104 C 10.1456 -0.290627 -1.93429 0
M  V30 105 C 10.5256 1.21773 -1.72437 0
M  V30 106 O 9.8736 2.0108 -1.08531 0
M  V30 107 C 10.0836 -0.686973 -3.42172 0
M  V30 108 C 11.4316 -0.668643 -4.19302 0
M  V30 109 O 12.4556 -0.627658 -3.50626 0
M  V30 110 O 11.3146 -0.714597 -5.41808 0
M  V30 111 H 8.4086 -0.0727927 -0.82379 0
M  V30 112 H 10.9546 -0.875593 -1.45367 0
M  V30 113 H 9.7266 -1.72711 -3.51122 0
M  V30 114 H 9.3496 -0.0760733 -3.97527 0
M  V30 115 N 10.3467 1.47872 -0.545128 0
M  V30 116 C 11.3097 2.28337 0.198717 0
M  V30 117 C 12.3097 1.36255 0.853888 0
M  V30 118 O 13.4997 1.59003 0.711606 0
M  V30 119 C 10.6317 3.15585 1.28915 0
M  V30 120 H 11.8247 2.95567 -0.507941 0
M  V30 121 H 9.3777 1.53362 -0.301616 0
M  V30 122 H 10.1127 2.53019 2.02859 0
M  V30 123 H 9.8977 3.83337 0.824309 0
M  V30 124 H 11.3877 3.76243 1.81194 0
M  V30 125 N 11.8248 0.280983 1.55075 0
M  V30 126 C 13.0548 -0.336804 2.03836 0
M  V30 127 C 13.4628 -1.49577 1.15859 0
M  V30 128 O 12.8058 -1.82888 0.172503 0
M  V30 129 C 12.8678 -0.874616 3.48699 0
M  V30 130 C 12.5318 0.156478 4.56732 0
M  V30 131 C 13.5288 0.978032 5.10618 0
M  V30 132 C 11.2138 0.292409 5.01448 0
M  V30 133 C 13.2078 1.92165 6.07743 0
M  V30 134 C 10.8948 1.23949 5.98398 0
M  V30 135 C 11.8928 2.05261 6.51427 0
M  V30 136 O 11.5808 2.98367 7.4648 0
M  V30 137 H 11.3128 -0.0800885 0.671239 0
M  V30 138 H 13.8668 0.412589 2.01213 0
M  V30 139 H 12.0968 -1.67418 3.4858 0
M  V30 140 H 13.7858 -1.40612 3.80766 0
M  V30 141 H 14.5518 0.883782 4.7688 0
M  V30 142 H 10.4308 -0.330498 4.59814 0
M  V30 143 H 13.9748 2.55672 6.49059 0
M  V30 144 H 9.8718 1.33454 6.31554 0
M  V30 145 H 10.6398 2.93116 7.64215 0
M  V30 146 N 13.3029 -1.57598 0.00835791 0
M  V30 147 C 14.5499 -1.90928 -0.674732 0
M  V30 148 C 14.8779 -0.88277 -1.73313 0
M  V30 149 O 14.1329 0.111294 -1.95383 0
M  V30 150 C 14.4319 -3.3101 -1.34787 0
M  V30 151 C 14.0979 -4.48922 -0.421861 0
M  V30 152 C 12.7599 -4.8091 -0.166927 0
M  V30 153 C 15.1119 -5.20755 0.215211 0
M  V30 154 C 12.4399 -5.821 0.733232 0
M  V30 155 C 14.7919 -6.22905 1.1033 0
M  V30 156 C 13.4559 -6.53346 1.36733 0
M  V30 157 H 12.7259 -0.698656 -0.246902 0
M  V30 158 H 15.3729 -1.91387 0.0656779 0
M  V30 159 H 13.6779 -3.26714 -2.16253 0
M  V30 160 H 15.3749 -3.54061 -1.8826 0
M  V30 161 H 11.9649 -4.23934 -0.630729 0
M  V30 162 H 16.1489 -4.9629 0.0312829 0
M  V30 163 H 11.4049 -6.04042 0.945712 0
M  V30 164 H 15.5789 -6.77694 1.60325 0
M  V30 165 H 13.2059 -7.31573 2.06652 0
M  V30 166 N 14.781 0.264519 -1.55364 0
M  V30 167 C 16.009 1.013 -1.80405 0
M  V30 168 C 16.424 1.79618 -0.581622 0
M  V30 169 O 15.781 1.76879 0.449468 0
M  V30 170 C 15.832 1.96487 -3.03439 0
M  V30 171 O 15.553 1.21341 -4.20961 0
M  V30 172 C 17.054 2.83079 -3.41147 0
M  V30 173 H 14.274 0.298875 -0.600762 0
M  V30 174 H 16.818 0.292736 -2.02394 0
M  V30 175 H 14.973 2.63965 -2.83551 0
M  V30 176 H 15.387 1.85573 -4.90574 0
M  V30 177 H 16.861 3.4565 -4.30384 0
M  V30 178 H 17.338 3.53286 -2.60932 0
M  V30 179 H 17.944 2.2108 -3.63323 0
M  V30 180 N 16.2591 1.48442 0.529413 0
M  V30 181 C 17.2221 1.62524 1.61612 0
M  V30 182 C 18.2221 0.498509 1.52877 0
M  V30 183 O 19.4121 0.76431 1.56537 0
M  V30 184 C 16.5441 1.59597 3.01233 0
M  V30 185 H 17.7371 2.59423 1.50465 0
M  V30 186 H 15.2901 1.37047 0.751514 0
M  V30 187 H 16.0251 0.641781 3.17886 0
M  V30 188 H 15.8101 2.41397 3.08982 0
M  V30 189 H 17.3001 1.72646 3.80241 0
M  V30 190 N 17.7372 -0.778329 1.37039 0
M  V30 191 C 19.1482 -1.35421 1.28523 0
M  V30 192 C 19.4992 -1.96075 -0.0700901 0
M  V30 193 O 18.6242 -1.93352 -0.971801 0
M  V30 194 C 19.2192 -2.46211 2.32735 0
M  V30 195 C 17.7782 -2.99585 2.27873 0
M  V30 196 C 16.9252 -1.72748 2.16918 0
M  V30 197 H 19.8762 -0.5791 1.47757 0
M  V30 198 H 19.8972 -3.2552 1.9702 0
M  V30 199 H 19.4092 -2.02036 3.31365 0
M  V30 200 H 17.5102 -3.48152 1.32745 0
M  V30 201 H 17.6232 -3.55646 3.21018 0
M  V30 202 H 15.9872 -1.95416 1.63354 0
M  V30 203 H 16.7702 -1.30686 3.17452 0
M  V30 204 N 19.2153 -1.21501 -1.00376 0
M  V30 205 C 20.1783 -0.976927 -2.07337 0
M  V30 206 C 21.1783 0.0525322 -1.60714 0
M  V30 207 O 22.3683 -0.184869 -1.73216 0
M  V30 208 C 19.5003 -0.473423 -3.37597 0
M  V30 209 H 20.6933 -1.92587 -2.29892 0
M  V30 210 H 18.2463 -1.03217 -1.17371 0
M  V30 211 H 18.9813 0.480379 -3.20722 0
M  V30 212 H 18.7663 -1.216 -3.72768 0
M  V30 213 H 20.2563 -0.32675 -4.1632 0
M  V30 214 N 20.6934 1.19889 -1.02296 0
M  V30 215 C 21.6264 2.21639 -0.543282 0
M  V30 216 C 22.6044 1.57275 0.412698 0
M  V30 217 O 23.7884 1.85568 0.331198 0
M  V30 218 C 20.9154 3.38057 0.208571 0
M  V30 219 C 19.9614 4.20751 -0.697933 0
M  V30 220 S 20.7944 4.89529 -2.17075 0
M  V30 221 C 21.9504 6.09363 -1.42923 0
M  V30 222 H 22.1834 2.61984 -1.40541 0
M  V30 223 H 19.7164 1.30041 -0.832387 0
M  V30 224 H 21.6744 4.05539 0.63624 0
M  V30 225 H 20.3354 2.96159 1.04635 0
M  V30 226 H 19.5284 5.03862 -0.117831 0
M  V30 227 H 19.1304 3.58556 -1.06366 0
M  V30 228 H 21.4224 6.73742 -0.712637 0
M  V30 229 H 22.3654 6.71845 -2.23673 0
M  V30 230 H 22.7734 5.56798 -0.929327 0
M  V30 231 N 22.1715 0.800033 1.35784 0
M  V30 232 C 23.5875 0.482977 1.52117 0
M  V30 233 C 23.7875 -0.996948 1.75109 0
M  V30 234 O 22.8435 -1.78216 1.78872 0
M  V30 235 C 24.1565 1.32264 2.70049 0
M  V30 236 C 25.7045 1.31742 2.83924 0
M  V30 237 C 26.1795 2.14106 4.04874 0
M  V30 238 N 27.6705 2.11607 4.12039 0
M  V30 239 C 28.4055 2.72099 5.04727 0
M  V30 240 N 27.9015 3.41492 6.02789 0
M  V30 241 N 29.6945 2.61776 4.97423 0
M  V30 242 H 21.8455 1.75856 1.19115 0
M  V30 243 H 24.1085 0.748122 0.582252 0
M  V30 244 H 23.8145 2.37261 2.59616 0
M  V30 245 H 23.6885 0.971303 3.6448 0
M  V30 246 H 26.0755 0.275333 2.93813 0
M  V30 247 H 26.1565 1.70859 1.9037 0
M  V30 248 H 25.8005 3.18351 3.95746 0
M  V30 249 H 25.7305 1.72353 4.97596 0
M  V30 250 H 28.2215 1.61112 3.41835 0
M  V30 251 H 28.5345 3.84953 6.70098 0
M  V30 252 H 26.8795 3.45596 6.02983 0
M  V30 253 H 30.0705 2.07157 4.19766 0
M  V30 254 H 30.2435 3.0921 5.69468 0
M  V30 255 N 23.6496 -1.47581 0.552962 0
M  V30 256 C 24.5596 -2.33743 -0.200353 0
M  V30 257 C 25.5756 -1.47928 -0.916151 0
M  V30 258 O 26.7516 -1.80865 -0.885993 0
M  V30 259 C 23.8166 -3.24536 -1.21973 0
M  V30 260 C 22.8776 -4.26238 -0.511819 0
M  V30 261 C 22.1106 -5.12693 -1.48263 0
M  V30 262 O 22.3336 -5.01525 -2.71714 0
M  V30 263 O 21.2676 -5.93375 -1.00945 0
M  V30 264 H 25.0936 -2.9945 0.506304 0
M  V30 265 H 22.6786 -1.46071 0.313622 0
M  V30 266 H 24.5606 -3.80631 -1.80827 0
M  V30 267 H 23.2356 -2.61462 -1.90839 0
M  V30 268 H 22.1426 -3.73914 0.117799 0
M  V30 269 H 23.4756 -4.92014 0.135308 0
M  V30 270 N 25.1277 -0.289203 -1.54924 0
M  V30 271 C 26.3767 0.324231 -1.99077 0
M  V30 272 C 26.6897 1.5591 -1.18117 0
M  V30 273 O 27.8957 2.24637 -1.52481 0
M  V30 274 C 26.3517 0.628209 -3.54375 0
M  V30 275 C 25.9597 -0.587647 -4.44129 0
M  V30 276 C 27.7037 1.20349 -4.07083 0
M  V30 277 C 25.6107 -0.257475 -5.90839 0
M  V30 278 H 24.5407 0.124924 -0.743579 0
M  V30 279 H 27.1917 -0.396063 -1.79175 0
M  V30 280 H 25.5737 1.40778 -3.70132 0
M  V30 281 H 26.7477 -1.36418 -4.40144 0
M  V30 282 H 25.0627 -1.08074 -4.0213 0
M  V30 283 H 27.6597 1.46456 -5.14252 0
M  V30 284 H 28.0027 2.14195 -3.56968 0
M  V30 285 H 28.5357 0.485889 -3.94821 0
M  V30 286 H 25.2747 -1.16419 -6.45079 0
M  V30 287 H 24.7947 0.482018 -5.9786 0
M  V30 288 H 26.4737 0.145238 -6.46837 0
M  V30 289 N 26.6058 1.57591 -0.0167156 0
M  V30 290 C 27.8528 1.91283 0.664597 0
M  V30 291 C 28.1808 0.891949 1.72842 0
M  V30 292 O 27.4358 -0.100931 1.9544 0
M  V30 293 C 27.7348 3.3172 1.33029 0
M  V30 294 C 27.4008 4.4914 0.398047 0
M  V30 295 C 26.0628 4.80992 0.141421 0
M  V30 296 C 28.4148 5.20634 -0.242825 0
M  V30 297 C 25.7428 5.81703 -0.764092 0
M  V30 298 C 28.0948 6.22311 -1.13632 0
M  V30 299 C 26.7588 6.52611 -1.40196 0
M  V30 300 H 26.0288 0.699956 0.243193 0
M  V30 301 H 28.6758 1.9135 -0.0758267 0
M  V30 302 H 26.9808 3.27856 2.14517 0
M  V30 303 H 28.6778 3.55055 1.86379 0
M  V30 304 H 25.2678 4.24262 0.608238 0
M  V30 305 H 29.4518 4.96267 -0.0576019 0
M  V30 306 H 24.7078 6.03532 -0.977732 0
M  V30 307 H 28.8818 6.76834 -1.63917 0
M  V30 308 H 26.5088 7.30467 -2.10529 0
M  V30 309 N 28.0839 -0.256276 1.55502 0
M  V30 310 C 29.3089 -1.00766 1.81276 0
M  V30 311 C 29.7339 -1.78524 0.59252 0
M  V30 312 O 29.0919 -1.75413 -0.45827 0
M  V30 313 C 29.1399 -1.92869 3.04687 0
M  V30 314 O 28.2439 -3.019 2.80945 0
M  V30 315 H 27.5849 -0.287224 0.598664 0
M  V30 316 H 30.1149 -0.280109 2.02674 0
M  V30 317 H 30.1249 -2.34511 3.33869 0
M  V30 318 H 28.7999 -1.35689 3.93143 0
M  V30 319 H 27.3769 -2.64454 2.62904 0
M  V30 320 N 29.562 -1.4872 -0.521534 0
M  V30 321 C 30.839 -1.4766 -1.2828 0
M  V30 322 C 31.219 -0.19292 -2.10217 0
M  V30 323 O 30.567 0.825193 -2.13079 0
M  V30 324 C 30.777 -2.74358 -2.15705 0
M  V30 325 C 32.125 -3.23028 -2.75569 0
M  V30 326 O 33.149 -2.75333 -2.25987 0
M  V30 327 O 32.008 -4.0604 -3.65778 0
M  V30 328 H 29.102 -0.590085 -0.579421 0
M  V30 329 H 31.648 -1.60963 -0.537492 0
M  V30 330 H 30.42 -3.59292 -1.54999 0
M  V30 331 H 30.043 -2.63816 -2.97467 0
M  V30 332 N 31.0401 0.771051 -1.3745 0
M  V30 333 C 32.4561 1.07171 -1.18265 0
M  V30 334 C 32.6561 2.01491 -0.019287 0
M  V30 335 O 31.7121 2.44244 0.640408 0
M  V30 336 C 33.0251 1.66854 -2.50161 0
M  V30 337 C 34.5731 1.79109 -2.56689 0
M  V30 338 C 35.0481 2.42205 -3.88717 0
M  V30 339 N 36.5391 2.49655 -3.90162 0
M  V30 340 C 37.2741 2.9933 -4.8907 0
M  V30 341 N 36.7701 3.49172 -5.98374 0
M  V30 342 N 38.5631 2.9821 -4.76474 0
M  V30 343 H 30.7141 0.144796 -2.11906 0
M  V30 344 H 32.9771 0.126863 -0.939473 0
M  V30 345 H 32.6831 1.05017 -3.35655 0
M  V30 346 H 32.5571 2.6614 -2.673 0
M  V30 347 H 34.9441 2.40077 -1.71601 0
M  V30 348 H 35.0251 0.785757 -2.43433 0
M  V30 349 H 34.6691 1.81875 -4.74219 0
M  V30 350 H 34.5991 3.43345 -3.99276 0
M  V30 351 H 37.0901 2.14383 -3.11205 0
M  V30 352 H 37.4031 3.8548 -6.69795 0
M  V30 353 H 35.7481 3.47275 -6.02018 0
M  V30 354 H 38.9391 2.58572 -3.90203 0
M  V30 355 H 39.1121 3.36613 -5.53711 0
M  V30 356 N 32.5182 1.22032 0.997298 0
M  V30 357 C 33.7662 1.04016 1.73278 0
M  V30 358 C 34.0872 -0.426255 1.90284 0
M  V30 359 O 33.3572 -1.30694 1.45931 0
M  V30 360 H 31.9372 0.381897 0.642 0
M  V30 361 H 34.5992 1.5347 1.20137 0
M  V30 362 H 33.6952 1.51441 2.72896 0
M  V30 363 N 33.9963 -1.19345 1.0293 0
M  V30 364 C 35.4123 -1.41069 0.746446 0
M  V30 365 C 35.6123 -1.90078 -0.668776 0
M  V30 366 O 34.6683 -2.0778 -1.4347 0
M  V30 367 C 35.9813 -2.42141 1.78292 0
M  V30 368 C 37.5293 -2.55887 1.80252 0
M  V30 369 C 38.0043 -3.60214 2.8286 0
M  V30 370 N 39.4953 -3.67711 2.81679 0
M  V30 371 C 40.2303 -4.48128 3.57727 0
M  V30 372 N 39.7263 -5.32248 4.43491 0
M  V30 373 N 41.5193 -4.42782 3.46267 0
M  V30 374 H 33.6703 -0.858536 1.94275 0
M  V30 375 H 35.9333 -0.439541 0.839945 0
M  V30 376 H 35.6393 -2.13155 2.79746 0
M  V30 377 H 35.5133 -3.41323 1.60557 0
M  V30 378 H 37.9003 -2.84196 0.794757 0
M  V30 379 H 37.9813 -1.56858 2.02062 0
M  V30 380 H 37.6253 -3.32647 3.83807 0
M  V30 381 H 37.5553 -4.58895 2.58307 0
M  V30 382 H 40.0463 -3.07634 2.19476 0
M  V30 383 H 40.3593 -5.90729 4.98256 0
M  V30 384 H 38.7043 -5.31707 4.47564 0
M  V30 385 H 41.8953 -3.76107 2.78677 0
M  V30 386 H 42.0683 -5.05215 4.05785 0
M  V30 387 N 35.4744 -0.807222 -1.35358 0
M  V30 388 C 36.4044 -0.232509 -2.3234 0
M  V30 389 C 37.3854 0.642386 -1.57504 0
M  V30 390 O 38.5704 0.572526 -1.85569 0
M  V30 391 C 35.7004 0.619238 -3.41735 0
M  V30 392 C 34.6544 -0.157215 -4.27711 0
M  V30 393 C 33.9804 0.816273 -5.28433 0
M  V30 394 C 35.2804 -1.35656 -5.04376 0
M  V30 395 H 36.9744 -1.04276 -2.80654 0
M  V30 396 H 34.5204 -0.50288 -1.34934 0
M  V30 397 H 36.4734 1.03137 -4.08584 0
M  V30 398 H 35.1974 1.46239 -2.92031 0
M  V30 399 H 33.8564 -0.550525 -3.62443 0
M  V30 400 H 33.5044 1.65494 -4.74996 0
M  V30 401 H 33.2044 0.301067 -5.86828 0
M  V30 402 H 34.7284 1.22659 -5.98153 0
M  V30 403 H 36.1424 -1.01927 -5.64166 0
M  V30 404 H 34.5394 -1.8063 -5.7227 0
M  V30 405 H 35.6094 -2.14288 -4.34981 0
M  V30 406 N 36.9525 1.47285 -0.560781 0
M  V30 407 C 37.8845 2.28118 0.222438 0
M  V30 408 C 38.8975 1.37219 0.876056 0
M  V30 409 O 40.0865 1.62011 0.749307 0
M  V30 410 C 37.1865 3.1159 1.33285 0
M  V30 411 C 36.3595 4.30473 0.77534 0
M  V30 412 C 35.4185 4.95513 1.77069 0
M  V30 413 O 34.4445 5.53792 1.31539 0
M  V30 414 N 35.6465 4.90531 3.10418 0
M  V30 415 H 38.4115 2.95976 -0.470958 0
M  V30 416 H 35.9725 1.56955 -0.39709 0
M  V30 417 H 37.9645 3.51967 1.99752 0
M  V30 418 H 36.5345 2.45951 1.92943 0
M  V30 419 H 35.7545 3.94144 -0.0662113 0
M  V30 420 H 37.0425 5.07362 0.382272 0
M  V30 421 H 36.4405 4.44389 3.5005 0
M  V30 422 H 34.9975 5.34917 3.72434 0
M  V30 423 N 38.4306 0.297415 1.54768 0
M  V30 424 C 39.6786 -0.312295 1.99673 0
M  V30 425 C 39.9996 -1.54686 1.18732 0
M  V30 426 O 39.2696 -1.93854 0.282382 0
M  V30 427 H 37.8496 -0.118381 0.73756 0
M  V30 428 H 40.5116 0.407915 1.90583 0
M  V30 429 H 39.6076 -0.586813 3.06534 0
M  V30 430 N 39.9087 -1.5758 0.0250728 0
M  V30 431 C 40.8417 -2.05473 -0.992777 0
M  V30 432 C 41.8197 -0.949661 -1.31986 0
M  V30 433 O 43.0037 -1.21969 -1.43722 0
M  V30 434 C 40.1307 -2.4734 -2.31389 0
M  V30 435 C 39.1767 -3.68827 -2.1417 0
M  V30 436 S 40.0097 -5.15655 -1.44429 0
M  V30 437 C 41.1657 -5.60814 -2.77918 0
M  V30 438 H 41.3987 -2.91486 -0.585078 0
M  V30 439 H 38.9317 -1.53269 -0.186507 0
M  V30 440 H 40.8897 -2.72127 -3.07339 0
M  V30 441 H 39.5507 -1.6168 -2.69292 0
M  V30 442 H 38.7437 -3.95955 -3.11826 0
M  V30 443 H 38.3457 -3.44172 -1.46362 0
M  V30 444 H 40.6377 -5.64806 -3.74166 0
M  V30 445 H 41.5807 -6.60414 -2.55459 0
M  V30 446 H 41.9887 -4.8845 -2.82979 0
M  V30 447 N 41.3868 0.248026 -1.55636 0
M  V30 448 C 42.3168 1.31079 -1.93237 0
M  V30 449 C 43.2978 1.50264 -0.797174 0
M  V30 450 O 44.4828 1.62891 -1.05737 0
M  V30 451 C 41.6128 2.66575 -2.22609 0
M  V30 452 C 40.5668 2.62087 -3.3837 0
M  V30 453 C 39.8928 4.01369 -3.53281 0
M  V30 454 C 41.1928 2.19171 -4.7409 0
M  V30 455 H 42.8868 0.998556 -2.82257 0
M  V30 456 H 40.4328 0.47891 -1.35803 0
M  V30 457 H 42.3858 3.41057 -2.47503 0
M  V30 458 H 41.1098 2.99432 -1.30414 0
M  V30 459 H 39.7688 1.90063 -3.13483 0
M  V30 460 H 39.4168 4.31489 -2.58508 0
M  V30 461 H 39.1168 3.99254 -4.31127 0
M  V30 462 H 40.6408 4.77552 -3.80495 0
M  V30 463 H 42.0548 2.83384 -4.98363 0
M  V30 464 H 40.4518 2.2817 -5.5503 0
M  V30 465 H 41.5218 1.14336 -4.71227 0
M  V30 466 N 42.8649 1.48995 0.513639 0
M  V30 467 C 44.1419 1.48338 1.27495 0
M  V30 468 C 44.5219 0.204065 2.10111 0
M  V30 469 O 43.8699 -0.813881 2.13514 0
M  V30 470 C 44.0799 2.75498 2.14247 0
M  V30 471 C 45.4279 3.24484 2.73852 0
M  V30 472 O 46.4519 2.76528 2.24523 0
M  V30 473 O 45.3109 4.07974 3.6362 0
M  V30 474 H 42.4049 0.593149 0.576284 0
M  V30 475 H 44.9509 1.61246 0.528948 0
M  V30 476 H 43.7229 3.60109 1.53092 0
M  V30 477 H 43.3459 2.6539 2.96064 0
M  V30 478 N 44.343 -0.763751 1.37857 0
M  V30 479 C 45.59 -1.52257 1.33506 0
M  V30 480 C 45.918 -1.94343 -0.078022 0
M  V30 481 O 45.173 -1.64958 -1.05297 0
M  V30 482 C 45.472 -2.79499 2.22745 0
M  V30 483 C 45.138 -2.56426 3.70886 0
M  V30 484 C 43.8 -2.49842 4.11257 0
M  V30 485 C 46.152 -2.36008 4.64704 0
M  V30 486 C 43.48 -2.20841 5.43549 0
M  V30 487 C 45.832 -2.0853 5.97242 0
M  V30 488 C 44.496 -2.00396 6.36709 0
M  V30 489 H 43.766 -0.557149 0.488534 0
M  V30 490 H 46.413 -0.879073 1.70131 0
M  V30 491 H 44.718 -3.48447 1.79142 0
M  V30 492 H 46.415 -3.37413 2.16688 0
M  V30 493 H 43.005 -2.62416 3.38874 0
M  V30 494 H 47.189 -2.40079 4.34368 0
M  V30 495 H 42.445 -2.13045 5.73081 0
M  V30 496 H 46.619 -1.91732 6.69486 0
M  V30 497 H 44.246 -1.77688 7.39142 0
M  V30 498 N 45.8211 -1.22559 -0.990812 0
M  V30 499 C 46.7311 -1.01394 -2.11557 0
M  V30 500 C 47.7471 0.0383962 -1.73958 0
M  V30 501 O 48.9231 -0.154787 -2.00804 0
M  V30 502 C 45.9881 -0.596569 -3.41529 0
M  V30 503 C 45.0491 -1.72276 -3.93217 0
M  V30 504 C 44.2821 -1.32521 -5.16985 0
M  V30 505 O 44.5051 -0.204909 -5.70032 0
M  V30 506 O 43.4391 -2.14247 -5.62478 0
M  V30 507 H 47.2651 -1.95633 -2.32296 0
M  V30 508 H 44.8501 -1.01172 -1.0993 0
M  V30 509 H 46.7321 -0.374263 -4.19735 0
M  V30 510 H 45.4071 0.316939 -3.22145 0
M  V30 511 H 44.3141 -1.99961 -3.16174 0
M  V30 512 H 45.6471 -2.61421 -4.17037 0
M  V30 513 N 47.2992 1.18797 -1.03562 0
M  V30 514 C 48.2622 2.20464 -0.626769 0
M  V30 515 C 49.2622 1.57721 0.313173 0
M  V30 516 O 50.4522 1.73917 0.0992615 0
M  V30 517 C 47.5842 3.40802 0.0818498 0
M  V30 518 H 48.7772 2.58149 -1.5264 0
M  V30 519 H 46.3302 1.32593 -0.827578 0
M  V30 520 H 47.0652 3.08642 0.995518 0
M  V30 521 H 46.8502 3.8758 -0.593652 0
M  V30 522 H 48.3402 4.16092 0.354584 0
M  V30 523 N 48.7773 0.814389 1.34928 0
M  V30 524 C 49.7403 0.235759 2.27984 0
M  V30 525 C 50.7403 -0.581412 1.49921 0
M  V30 526 O 51.9303 -0.398758 1.69575 0
M  V30 527 C 49.0623 -0.670433 3.34242 0
M  V30 528 H 50.2553 1.05659 2.80671 0
M  V30 529 H 47.8083 0.585614 1.44915 0
M  V30 530 H 48.5433 -1.51466 2.86755 0
M  V30 531 H 48.3283 -0.0860822 3.92005 0
M  V30 532 H 49.8183 -1.06935 4.03676 0
M  V30 533 N 50.2554 -1.46986 0.568584 0
M  V30 534 C 51.1854 -2.32946 -0.160753 0
M  V30 535 C 52.1664 -1.44487 -0.897631 0
M  V30 536 O 53.3514 -1.73327 -0.875867 0
M  V30 537 C 50.4814 -3.26494 -1.18403 0
M  V30 538 C 49.4354 -4.24282 -0.562895 0
M  V30 539 C 48.7614 -5.07236 -1.69163 0
M  V30 540 C 50.0614 -5.19989 0.490761 0
M  V30 541 H 51.7554 -2.94175 0.556916 0
M  V30 542 H 49.3014 -1.4146 0.26927 0
M  V30 543 H 51.2544 -3.85477 -1.70251 0
M  V30 544 H 49.9784 -2.63343 -1.93179 0
M  V30 545 H 48.6374 -3.66541 -0.0656164 0
M  V30 546 H 48.2854 -4.4048 -2.42871 0
M  V30 547 H 47.9854 -5.7345 -1.28174 0
M  V30 548 H 49.5094 -5.6908 -2.21314 0
M  V30 549 H 50.9234 -5.73271 0.0579047 0
M  V30 550 H 49.3204 -5.94469 0.820165 0
M  V30 551 H 50.3904 -4.64777 1.3824 0
M  V30 552 N 51.7335 -0.305618 -1.54608 0
M  V30 553 C 52.6965 0.555591 -2.22364 0
M  V30 554 C 53.6965 1.05768 -1.21119 0
M  V30 555 O 54.8865 0.952972 -1.45822 0
M  V30 556 C 52.0185 1.76974 -2.91364 0
M  V30 557 H 53.2115 -0.0364572 -2.99878 0
M  V30 558 H 50.7645 -0.0565007 -1.56198 0
M  V30 559 H 51.4995 2.40151 -2.17941 0
M  V30 560 H 51.2845 1.41732 -3.65588 0
M  V30 561 H 52.7745 2.38148 -3.43038 0
M  V30 562 N 53.2116 1.57565 -0.0334293 0
M  V30 563 C 54.6276 1.56297 0.322997 0
M  V30 564 C 54.8276 1.03945 1.7262 0
M  V30 565 O 53.8836 0.688109 2.42943 0
M  V30 566 C 55.1966 3.00232 0.167664 0
M  V30 567 C 56.7446 3.12078 0.240107 0
M  V30 568 C 57.2196 4.57859 0.113513 0
M  V30 569 N 58.7106 4.62887 0.170359 0
M  V30 570 C 59.4456 5.73319 0.0962517 0
M  V30 571 N 58.9416 6.92794 -0.0291881 0
M  V30 572 N 60.7346 5.61898 0.150551 0
M  V30 573 H 52.8856 1.89923 -0.950956 0
M  V30 574 H 55.1486 0.873824 -0.367608 0
M  V30 575 H 54.8546 3.42501 -0.799102 0
M  V30 576 H 54.7286 3.654 0.936083 0
M  V30 577 H 57.1156 2.69718 1.19733 0
M  V30 578 H 57.1966 2.49623 -0.558763 0
M  V30 579 H 56.8406 5.009 -0.840314 0
M  V30 580 H 56.7706 5.18299 0.931302 0
M  V30 581 H 59.2616 3.76954 0.26728 0
M  V30 582 H 59.5746 7.7276 -0.0789252 0
M  V30 583 H 57.9196 6.94971 -0.0640299 0
M  V30 584 H 61.1106 4.67448 0.246981 0
M  V30 585 H 61.2836 6.47938 0.0893365 0
M  V30 586 N 54.6897 -0.239769 1.55765 0
M  V30 587 C 55.6527 -1.28038 1.90103 0
M  V30 588 C 56.6527 -1.40723 0.778055 0
M  V30 589 O 57.8427 -1.39301 1.04599 0
M  V30 590 C 54.9747 -2.65702 2.13577 0
M  V30 591 H 56.1677 -0.988048 2.83157 0
M  V30 592 H 53.7207 -0.479382 1.48767 0
M  V30 593 H 54.4557 -3.00063 1.23015 0
M  V30 594 H 54.2407 -2.57875 2.95369 0
M  V30 595 H 55.7307 -3.40828 2.41301 0
M  V30 596 N 56.1678 -1.49265 -0.50573 0
M  V30 597 C 57.0778 -1.68312 -1.63427 0
M  V30 598 C 58.0938 -0.565682 -1.64548 0
M  V30 599 O 59.2698 -0.839801 -1.83055 0
M  V30 600 C 56.3348 -1.74107 -2.99813 0
M  V30 601 C 55.3958 -2.97653 -3.09356 0
M  V30 602 C 54.6288 -3.03163 -4.39236 0
M  V30 603 O 54.8518 -2.16396 -5.27758 0
M  V30 604 O 53.7858 -3.9558 -4.53652 0
M  V30 605 H 57.6118 -2.63907 -1.50289 0
M  V30 606 H 55.1968 -1.32951 -0.681502 0
M  V30 607 H 57.0788 -1.803 -3.80881 0
M  V30 608 H 55.7538 -0.816901 -3.13223 0
M  V30 609 H 54.6608 -2.96981 -2.27493 0
M  V30 610 H 55.9938 -3.89535 -3.00871 0
M  V30 611 N 57.6459 0.756429 -1.3826 0
M  V30 612 C 58.6089 1.85176 -1.35065 0
M  V30 613 C 59.6089 1.58818 -0.251703 0
M  V30 614 O 60.7989 1.66615 -0.508433 0
M  V30 615 C 57.9309 3.22596 -1.10201 0
M  V30 616 H 59.1239 1.89417 -2.3251 0
M  V30 617 H 56.6769 0.95783 -1.23512 0
M  V30 618 H 57.4119 3.24025 -0.133504 0
M  V30 619 H 57.1969 3.43122 -1.89762 0
M  V30 620 H 58.6869 4.02673 -1.10654 0
M  V30 621 N 59.124 1.23083 0.984299 0
M  V30 622 C 60.087 1.00979 2.05757 0
M  V30 623 C 61.087 -0.0269573 1.60777 0
M  V30 624 O 62.277 0.212403 1.729 0
M  V30 625 C 59.409 0.527072 3.36801 0
M  V30 626 H 60.602 1.9622 2.26799 0
M  V30 627 H 58.155 1.05072 1.15714 0
M  V30 628 H 58.89 -0.429294 3.21446 0
M  V30 629 H 58.675 1.27515 3.70786 0
M  V30 630 H 60.165 0.392942 4.15747 0
M  V30 631 N 60.6021 -1.18246 1.0419 0
M  V30 632 C 61.5651 -2.20128 0.638452 0
M  V30 633 C 62.5651 -1.57885 -0.304805 0
M  V30 634 O 63.7551 -1.73967 -0.0900369 0
M  V30 635 C 60.8871 -3.4084 -0.0637751 0
M  V30 636 H 62.0801 -2.57336 1.54007 0
M  V30 637 H 59.6331 -1.32152 0.834598 0
M  V30 638 H 60.3681 -3.09166 -0.979136 0
M  V30 639 H 60.1531 -3.8726 0.614198 0
M  V30 640 H 61.6431 -4.16274 -0.332512 0
M  V30 641 N 62.0802 -0.821533 -1.34494 0
M  V30 642 C 63.3282 -0.408139 -1.97936 0
M  V30 643 C 63.6492 1.03193 -1.65457 0
M  V30 644 O 62.9192 1.71622 -0.944595 0
M  V30 645 H 61.4992 -0.147928 -0.732206 0
M  V30 646 H 64.1612 -1.05067 -1.64155 0
M  V30 647 H 63.2572 -0.52601 -3.07635 0
M  V30 648 N 63.5583 1.46682 -0.576371 0
M  V30 649 C 64.4883 2.33028 0.148397 0
M  V30 650 C 65.4693 1.44961 0.889956 0
M  V30 651 O 66.6543 1.73789 0.866662 0
M  V30 652 C 63.7843 3.27117 1.1667 0
M  V30 653 C 62.7383 4.24575 0.540386 0
M  V30 654 C 62.0643 5.08126 1.6647 0
M  V30 655 C 63.3643 5.19722 -0.518331 0
M  V30 656 H 65.0583 2.93875 -0.572509 0
M  V30 657 H 62.6043 1.41315 -0.276768 0
M  V30 658 H 64.5573 3.86374 1.68204 0
M  V30 659 H 63.2813 2.64364 1.9178 0
M  V30 660 H 61.9403 3.66571 0.0461769 0
M  V30 661 H 61.5883 4.41762 2.40531 0
M  V30 662 H 61.2883 5.74122 1.25131 0
M  V30 663 H 62.8123 5.70246 2.18293 0
M  V30 664 H 64.2263 5.73232 -0.0883058 0
M  V30 665 H 62.6233 5.94026 -0.851679 0
M  V30 666 H 63.6933 4.64037 -1.40703 0
M  V30 667 N 65.0364 0.313813 1.54444 0
M  V30 668 C 66.2824 -0.292108 2.00685 0
M  V30 669 C 66.6154 -1.52548 1.20177 0
M  V30 670 O 65.8904 -1.92452 0.281531 0
M  V30 671 C 66.1734 -0.635968 3.5444 0
M  V30 672 C 66.0264 0.607437 4.4568 0
M  V30 673 C 67.3454 -1.45747 4.15266 0
M  V30 674 H 64.4644 -0.104697 0.729526 0
M  V30 675 H 67.1064 0.428457 1.85106 0
M  V30 676 H 65.2564 -1.24986 3.67846 0
M  V30 677 H 66.9284 1.24581 4.44159 0
M  V30 678 H 65.1714 1.23822 4.15753 0
M  V30 679 H 65.8424 0.322515 5.51057 0
M  V30 680 H 68.3184 -0.938645 4.05375 0
M  V30 681 H 67.1944 -1.66683 5.2298 0
M  V30 682 H 67.4554 -2.45063 3.67963 0
M  V30 683 N 66.5145 -1.57545 0.0417849 0
M  V30 684 C 67.9255 -1.80011 -0.495259 0
M  V30 685 C 68.2765 -0.953199 -1.71489 0
M  V30 686 O 67.4015 -0.167138 -2.15754 0
M  V30 687 C 67.9965 -3.26482 -0.905265 0
M  V30 688 C 66.5555 -3.499 -1.38734 0
M  V30 689 C 65.7025 -2.74979 -0.358056 0
M  V30 690 H 68.6535 -1.56425 0.267736 0
M  V30 691 H 68.6745 -3.36887 -1.76882 0
M  V30 692 H 68.1865 -3.88096 -0.017401 0
M  V30 693 H 66.2875 -2.93553 -2.29471 0
M  V30 694 H 66.4005 -4.58615 -1.38598 0
M  V30 695 H 64.7645 -2.40834 -0.828912 0
M  V30 696 H 65.5475 -3.39315 0.521561 0
M  V30 697 N 67.9926 0.231505 -1.5589 0
M  V30 698 C 68.9426 1.29007 -1.87993 0
M  V30 699 C 69.9266 1.42764 -0.742102 0
M  V30 700 O 71.1186 1.45747 -1.00433 0
M  V30 701 C 68.2476 2.6425 -2.1915 0
M  V30 702 C 67.3336 2.54435 -3.39299 0
M  V30 703 N 67.7246 2.14262 -4.58176 0
M  V30 704 C 66.0226 2.85416 -3.42715 0
M  V30 705 C 66.7236 2.15455 -5.40328 0
M  V30 706 N 65.6996 2.55558 -4.79783 0
M  V30 707 H 69.5016 0.970213 -2.77424 0
M  V30 708 H 67.0156 0.440097 -1.56323 0
M  V30 709 H 69.0126 3.40665 -2.40319 0
M  V30 710 H 67.6726 2.9709 -1.31025 0
M  V30 711 H 68.6836 1.85554 -4.83518 0
M  V30 712 H 65.3606 3.22693 -2.64906 0
M  V30 713 H 66.7506 1.86605 -6.45467 0
M  V30 714 N 69.4707 1.49531 0.497807 0
M  V30 715 C 70.6957 1.63159 1.28039 0
M  V30 716 C 71.1207 0.30418 1.85624 0
M  V30 717 O 70.4787 -0.728618 1.66015 0
M  V30 718 C 70.5267 2.70537 2.38416 0
M  V30 719 O 69.6307 2.29931 3.42353 0
M  V30 720 H 68.9717 0.546001 0.377861 0
M  V30 721 H 71.5017 1.9574 0.59558 0
M  V30 722 H 71.5117 2.92802 2.84132 0
M  V30 723 H 70.1867 3.6689 1.95869 0
M  V30 724 H 68.7637 2.18009 3.02533 0
M  V30 725 N 70.9488 -0.749086 1.3866 0
M  V30 726 C 71.9118 -1.84457 1.36045 0
M  V30 727 C 72.9118 -1.58682 0.260122 0
M  V30 728 O 74.1018 -1.66343 0.517261 0
M  V30 729 C 71.2338 -3.22008 1.11911 0
M  V30 730 H 72.4268 -1.88182 2.33512 0
M  V30 731 H 69.9798 -0.951266 1.24019 0
M  V30 732 H 70.7148 -3.2395 0.150686 0
M  V30 733 H 70.4998 -3.42111 1.91579 0
M  V30 734 H 71.9898 -4.0208 1.12788 0
M  V30 735 N 72.4269 -1.23603 -0.977757 0
M  V30 736 C 73.6729 -1.07129 -1.72195 0
M  V30 737 C 74.0059 0.390501 -1.90233 0
M  V30 738 O 73.2809 1.28902 -1.45653 0
M  V30 739 C 73.5639 -1.80031 -3.11867 0
M  V30 740 C 73.4169 -3.33899 -3.01383 0
M  V30 741 C 74.7359 -1.56492 -4.11337 0
M  V30 742 H 71.8549 -0.390571 -0.624999 0
M  V30 743 H 74.4969 -1.52142 -1.13811 0
M  V30 744 H 72.6469 -1.41768 -3.6171 0
M  V30 745 H 74.3189 -3.81699 -2.59043 0
M  V30 746 H 72.5619 -3.62796 -2.37827 0
M  V30 747 H 73.2329 -3.801 -4.00285 0
M  V30 748 H 75.7089 -1.89757 -3.70313 0
M  V30 749 H 74.5849 -2.09973 -5.07151 0
M  V30 750 H 74.8459 -0.500874 -4.39254 0
M  V30 751 N 73.905 1.17692 -1.04816 0
M  V30 752 C 74.868 2.19787 -0.650117 0
M  V30 753 C 75.868 1.58044 0.296427 0
M  V30 754 O 77.058 1.74012 0.0808097 0
M  V30 755 C 74.19 3.40869 0.0456987 0
M  V30 756 H 75.383 2.56516 -1.5537 0
M  V30 757 H 72.936 1.31708 -0.841594 0
M  V30 758 H 73.671 3.09681 0.962726 0
M  V30 759 H 73.456 3.86928 -0.634727 0
M  V30 760 H 74.946 4.16445 0.310432 0
M  V30 761 N 75.3831 0.828654 1.34056 0
M  V30 762 C 76.3461 0.259927 2.27721 0
M  V30 763 C 77.3461 -0.565478 1.50529 0
M  V30 764 O 78.5361 -0.38075 1.69988 0
M  V30 765 C 75.6681 -0.634944 3.34935 0
M  V30 766 H 76.8611 1.0863 2.79534 0
M  V30 767 H 74.4141 0.600951 1.44285 0
M  V30 768 H 75.1491 -1.48416 2.88346 0
M  V30 769 H 74.9341 -0.0444999 3.92075 0
M  V30 770 H 76.4241 -1.02648 4.04788 0
M  V30 771 N 76.8612 -1.46375 0.584142 0
M  V30 772 C 78.1102 -2.01585 0.0679741 0
M  V30 773 C 78.4232 -1.46109 -1.30045 0
M  V30 774 O 79.6292 -1.93148 -1.90804 0
M  V30 775 C 78.0852 -3.5983 0.0709207 0
M  V30 776 C 77.6932 -4.24303 1.43775 0
M  V30 777 C 79.4372 -4.22693 -0.391228 0
M  V30 778 C 77.3442 -5.74631 1.39834 0
M  V30 779 H 76.2742 -0.753689 0.0216421 0
M  V30 780 H 78.9252 -1.68093 0.736001 0
M  V30 781 H 77.3072 -3.90405 -0.663299 0
M  V30 782 H 78.4812 -4.05335 2.19181 0
M  V30 783 H 76.7962 -3.73539 1.84004 0
M  V30 784 H 79.3932 -5.3289 -0.439524 0
M  V30 785 H 79.7362 -3.91728 -1.40906 0
M  V30 786 H 80.2692 -3.96749 0.288974 0
M  V30 787 H 77.0082 -6.10258 2.39303 0
M  V30 788 H 76.5282 -5.95858 0.686505 0
M  V30 789 H 78.2072 -6.37375 1.11187 0
M  V30 790 N 78.3393 -0.321999 -1.54275 0
M  V30 791 C 79.2493 0.553631 -2.27974 0
M  V30 792 C 80.2653 1.13054 -1.32268 0
M  V30 793 O 81.4413 1.15084 -1.6528 0
M  V30 794 C 78.5063 1.69927 -3.02201 0
M  V30 795 C 77.5673 1.15433 -4.1349 0
M  V30 796 C 76.8003 2.24537 -4.84168 0
M  V30 797 O 77.0233 3.44852 -4.5435 0
M  V30 798 O 75.9573 1.90044 -5.7111 0
M  V30 799 H 79.7833 -0.0448345 -3.03667 0
M  V30 800 H 77.3683 -0.0877418 -1.49142 0
M  V30 801 H 79.2503 2.3663 -3.48689 0
M  V30 802 H 77.9253 2.28395 -2.29385 0
M  V30 803 H 76.8323 0.452436 -3.71354 0
M  V30 804 H 78.1653 0.614805 -4.88345 0
M  V30 805 N 79.8174 1.5752 -0.0501392 0
M  V30 806 C 80.7804 2.1037 0.909786 0
M  V30 807 C 81.7804 1.02308 1.24056 0
M  V30 808 O 82.9704 1.28385 1.17741 0
M  V30 809 C 80.1024 2.58708 2.21998 0
M  V30 810 H 81.2954 2.96479 0.451665 0
M  V30 811 H 78.8484 1.55038 0.198248 0
M  V30 812 H 79.5834 1.75989 2.72394 0
M  V30 813 H 79.3684 3.37675 1.99295 0
M  V30 814 H 80.8584 2.99747 2.9076 0
M  V30 815 N 81.2955 -0.223234 1.56011 0
M  V30 816 C 82.2585 -1.26014 1.9145 0
M  V30 817 C 83.2585 -1.3989 0.792937 0
M  V30 818 O 84.4485 -1.38184 1.0607 0
M  V30 819 C 81.5805 -2.63422 2.16383 0
M  V30 820 H 82.7735 -0.95796 2.84189 0
M  V30 821 H 80.3265 -0.463576 1.49267 0
M  V30 822 H 81.0615 -2.98741 1.2619 0
M  V30 823 H 80.8465 -2.54728 2.98088 0
M  V30 824 H 82.3365 -3.38249 2.44903 0
M  V30 825 N 82.7736 -1.49793 -0.48987 0
M  V30 826 C 84.0136 -1.61466 -1.25332 0
M  V30 827 C 84.3776 -0.299688 -1.89647 0
M  V30 828 O 85.5786 -0.291687 -2.67213 0
M  V30 829 C 83.8496 -2.74944 -2.28343 0
M  V30 830 S 85.4086 -3.06637 -3.13878 0
M  V30 831 H 82.2266 -0.569411 -0.425784 0
M  V30 832 H 84.8286 -1.875 -0.553541 0
M  V30 833 H 83.5326 -3.68994 -1.79643 0
M  V30 834 H 83.0636 -2.50938 -3.02975 0
M  V30 835 H 85.0786 -2.49015 -4.29192 0
M  V30 836 N 84.2517 0.741722 -1.39055 0
M  V30 837 C 85.1987 1.85566 -1.37237 0
M  V30 838 C 86.1687 1.64457 -0.233072 0
M  V30 839 O 87.3537 1.85957 -0.427147 0
M  V30 840 C 84.4937 3.23004 -1.215 0
M  V30 841 C 83.6067 3.55864 -2.44918 0
M  V30 842 C 82.7417 4.82669 -2.21821 0
M  V30 843 C 81.7807 5.08351 -3.40948 0
M  V30 844 N 80.9177 6.26356 -3.17211 0
M  V30 845 H 85.7577 1.86455 -2.32462 0
M  V30 846 H 83.2947 0.911176 -1.15482 0
M  V30 847 H 85.2527 4.02331 -1.10389 0
M  V30 848 H 83.8827 3.21411 -0.29908 0
M  V30 849 H 82.9347 2.7129 -2.66657 0
M  V30 850 H 84.2467 3.70765 -3.33668 0
M  V30 851 H 83.4007 5.69962 -2.07914 0
M  V30 852 H 82.1397 4.69929 -1.30454 0
M  V30 853 H 81.1447 4.19522 -3.55361 0
M  V30 854 H 82.3697 5.22981 -4.33207 0
M  V30 855 H 80.3157 6.14917 -2.28502 0
M  V30 856 H 80.2327 6.41813 -3.99515 0
M  V30 857 H 81.5007 7.16506 -3.06984 0
M  V30 858 N 85.7298 1.2412 0.971189 0
M  V30 859 C 86.6928 1.03156 2.04674 0
M  V30 860 C 87.6928 -0.00990322 1.60797 0
M  V30 861 O 88.8828 0.230729 1.72665 0
M  V30 862 C 86.0148 0.562765 3.36223 0
M  V30 863 H 87.2078 1.98614 2.24705 0
M  V30 864 H 84.7608 1.06293 1.14593 0
M  V30 865 H 85.4958 -0.395176 3.21883 0
M  V30 866 H 85.2808 1.31441 3.69413 0
M  V30 867 H 86.7708 0.437015 4.15307 0
M  V30 868 N 87.2079 -1.17134 1.05439 0
M  V30 869 C 88.1179 -2.24878 0.668365 0
M  V30 870 C 89.1339 -1.71186 -0.311687 0
M  V30 871 O 90.3099 -2.00738 -0.163161 0
M  V30 872 C 87.3749 -3.46662 0.051648 0
M  V30 873 C 86.4359 -4.15429 1.08246 0
M  V30 874 C 85.6689 -5.31399 0.495082 0
M  V30 875 O 85.8919 -5.66153 -0.694743 0
M  V30 876 O 84.8259 -5.89187 1.23056 0
M  V30 877 H 88.6519 -2.60189 1.56637 0
M  V30 878 H 86.2369 -1.24482 0.826104 0
M  V30 879 H 88.1189 -4.20394 -0.290966 0
M  V30 880 H 86.7939 -3.13142 -0.819971 0
M  V30 881 H 85.7009 -3.43704 1.47711 0
M  V30 882 H 87.0339 -4.52982 1.92532 0
M  V30 883 N 88.686 -0.835752 -1.33615 0
M  V30 884 C 90.102 -0.523139 -1.50783 0
M  V30 885 C 90.302 0.950171 -1.77691 0
M  V30 886 O 89.358 1.73411 -1.83534 0
M  V30 887 C 90.671 -1.39378 -2.66448 0
M  V30 888 C 92.219 -1.39223 -2.80332 0
M  V30 889 C 92.694 -2.24765 -3.99055 0
M  V30 890 N 94.185 -2.22458 -4.06284 0
M  V30 891 C 94.92 -2.85386 -4.97336 0
M  V30 892 N 94.416 -3.57354 -5.93523 0
M  V30 893 N 96.209 -2.74872 -4.90308 0
M  V30 894 H 88.36 -1.78952 -1.14411 0
M  V30 895 H 90.623 -0.763297 -0.562212 0
M  V30 896 H 90.329 -2.44061 -2.53234 0
M  V30 897 H 90.203 -1.0676 -3.61776 0
M  V30 898 H 92.59 -0.353136 -2.92979 0
M  V30 899 H 92.671 -1.75846 -1.85773 0
M  V30 900 H 92.315 -3.28732 -3.87167 0
M  V30 901 H 92.245 -1.85485 -4.92852 0
M  V30 902 H 94.736 -1.70119 -3.37443 0
M  V30 903 H 95.049 -4.02584 -6.59656 0
M  V30 904 H 93.394 -3.61461 -5.93608 0
M  V30 905 H 96.585 -2.18213 -4.14126 0
M  V30 906 H 96.758 -3.24199 -5.61069 0
M  V30 907 N 90.1641 1.46063 -0.591896 0
M  V30 908 C 91.3941 2.06418 -0.0867676 0
M  V30 909 C 91.8021 1.43975 1.22751 0
M  V30 910 O 91.1451 0.542531 1.75506 0
M  V30 911 C 91.2071 3.59213 0.143725 0
M  V30 912 C 90.8711 4.439 -1.08635 0
M  V30 913 C 91.8681 4.79864 -2.00067 0
M  V30 914 C 89.5531 4.84896 -1.31077 0
M  V30 915 C 91.5471 5.55661 -3.12282 0
M  V30 916 C 89.2341 5.6045 -2.43596 0
M  V30 917 C 90.2321 5.95747 -3.34027 0
M  V30 918 O 89.9201 6.69772 -4.4459 0
M  V30 919 H 89.6521 0.673443 -0.0587447 0
M  V30 920 H 92.2061 1.88539 -0.814994 0
M  V30 921 H 90.4361 3.75433 0.926668 0
M  V30 922 H 92.1251 4.01463 0.5985 0
M  V30 923 H 92.8911 4.48763 -1.83947 0
M  V30 924 H 88.7701 4.56867 -0.61594 0
M  V30 925 H 92.3141 5.8313 -3.82891 0
M  V30 926 H 88.2111 5.90965 -2.59674 0
M  V30 927 H 88.9791 6.88207 -4.43073 0
M  V30 928 N 91.6422 0.330177 1.54103 0
M  V30 929 C 92.9192 -0.325007 1.92881 0
M  V30 930 C 93.2992 -1.6934 1.26045 0
M  V30 931 O 92.6472 -2.24855 0.406526 0
M  V30 932 C 92.8572 -0.410634 3.46576 0
M  V30 933 C 94.2052 -0.667801 4.19316 0
M  V30 934 O 95.2292 -0.49329 3.52768 0
M  V30 935 O 94.0882 -1.00491 5.37181 0
M  V30 936 H 91.1822 -0.186873 0.80561 0
M  V30 937 H 93.7282 0.380376 1.65382 0
M  V30 938 H 92.5002 0.550164 3.87413 0
M  V30 939 H 92.1232 -1.16333 3.802 0
M  V30 940 N 93.1203 -1.57491 0.0584922 0
M  V30 941 C 94.3663 -1.93264 -0.614558 0
M  V30 942 C 94.6993 -0.937717 -1.7006 0
M  V30 943 O 93.9743 0.0351652 -1.94468 0
M  V30 944 C 94.2573 -3.3938 -1.20386 0
M  V30 945 C 94.1103 -4.49625 -0.125375 0
M  V30 946 C 95.4293 -3.86039 -2.11334 0
M  V30 947 H 92.5483 -0.702791 -0.221933 0
M  V30 948 H 95.1903 -1.8961 0.12175 0
M  V30 949 H 93.3403 -3.42626 -1.83139 0
M  V30 950 H 95.0123 -4.58506 0.506971 0
M  V30 951 H 93.2553 -4.30354 0.545672 0
M  V30 952 H 93.9263 -5.48967 -0.577861 0
M  V30 953 H 96.4023 -3.84716 -1.58534 0
M  V30 954 H 95.2783 -4.88914 -2.49507 0
M  V30 955 H 95.5393 -3.23215 -3.01636 0
M  V30 956 N 94.5984 0.214957 -1.56127 0
M  V30 957 C 95.8464 0.936518 -1.79091 0
M  V30 958 C 96.1674 1.84606 -0.628148 0
M  V30 959 O 95.4374 1.92664 0.35462 0
M  V30 960 H 94.0174 0.3488 -0.660566 0
M  V30 961 H 96.6794 0.22523 -1.93594 0
M  V30 962 H 95.7754 1.53943 -2.71492 0
M  V30 963 N 96.0765 1.50051 0.48192 0
M  V30 964 C 97.0395 1.67584 1.5636 0
M  V30 965 C 98.0395 0.546894 1.51214 0
M  V30 966 O 99.2295 0.813725 1.54026 0
M  V30 967 C 96.3615 1.691 2.96003 0
M  V30 968 H 97.5545 2.64078 1.42136 0
M  V30 969 H 95.1075 1.39369 0.707533 0
M  V30 970 H 95.8425 0.742589 3.15684 0
M  V30 971 H 95.6275 2.51105 3.01146 0
M  V30 972 H 97.1175 1.84656 3.74556 0
M  V30 973 N 97.5546 -0.734337 1.39446 0
M  V30 974 C 98.4846 -1.86155 1.40955 0
M  V30 975 C 99.4656 -1.67898 0.272827 0
M  V30 976 O 100.651 -1.88207 0.478743 0
M  V30 977 C 97.7806 -3.23912 1.25294 0
M  V30 978 C 96.7346 -3.56808 2.36373 0
M  V30 979 C 96.0606 -4.93508 2.058 0
M  V30 980 C 97.3606 -3.59713 3.78687 0
M  V30 981 H 99.0546 -1.8515 2.35287 0
M  V30 982 H 96.6006 -0.889367 1.13253 0
M  V30 983 H 98.5536 -4.02443 1.2497 0
M  V30 984 H 97.2776 -3.25446 0.274308 0
M  V30 985 H 95.9366 -2.80606 2.35914 0
M  V30 986 H 95.5846 -4.91623 1.06374 0
M  V30 987 H 95.2846 -5.16486 2.80208 0
M  V30 988 H 96.8086 -5.74396 2.07128 0
M  V30 989 H 98.2226 -4.2832 3.81071 0
M  V30 990 H 96.6196 -3.94209 4.52459 0
M  V30 991 H 97.6896 -2.59504 4.09617 0
M  V30 992 N 99.0327 -1.24633 -0.964593 0
M  V30 993 C 99.9957 -1.0424 -2.04124 0
M  V30 994 C 100.996 0.00137563 -1.608 0
M  V30 995 O 102.186 -0.239883 -1.7254 0
M  V30 996 C 99.3177 -0.580588 -3.3592 0
M  V30 997 H 100.511 -1.99803 -2.23649 0
M  V30 998 H 98.0637 -1.06899 -1.14027 0
M  V30 999 H 98.7987 0.3781 -3.22088 0
M  V30 1000 H 98.5837 -1.33398 -3.6871 0
M  V30 1001 H 100.074 -0.459034 -4.15069 0
M  V30 1002 N 100.511 1.16574 -1.06058 0
M  V30 1003 C 101.459 2.22941 -0.663343 0
M  V30 1004 C 102.453 1.66358 0.319593 0
M  V30 1005 O 103.659 1.7905 0.184713 0
M  V30 1006 H 100.034 0.725907 -0.196376 0
M  V30 1007 H 102.005 2.53736 -1.57037 0
M  V30 1008 C 100.754 3.47642 -0.0632808 0
M  V30 1009 H 100.077 3.91493 -0.810733 0
M  V30 1010 H 101.517 4.2363 0.177177 0
M  V30 1011 C 99.9758 3.1509 1.19248 0
M  V30 1012 O 100.506 3.30673 2.28075 0
M  V30 1013 N 98.7118 2.6924 1.09353 0
M  V30 1014 H 98.2588 2.5676 0.207912 0
M  V30 1015 H 98.2168 2.47833 1.93458 0
M  V30 1016 N 101.989 0.842826 1.3317 0
M  V30 1017 C 102.952 0.284065 2.27433 0
M  V30 1018 C 103.952 -0.54948 1.5112 0
M  V30 1019 O 105.142 -0.362699 1.70382 0
M  V30 1020 C 102.274 -0.599384 3.35589 0
M  V30 1021 H 103.467 1.11589 2.78366 0
M  V30 1022 H 101.02 0.616221 1.4364 0
M  V30 1023 H 101.755 -1.45349 2.89904 0
M  V30 1024 H 101.54 -0.00291266 3.921 0
M  V30 1025 H 103.03 -0.983488 4.05854 0
M  V30 1026 N 103.467 -1.45747 0.599634 0
M  V30 1027 C 104.716 -2.01502 0.0893511 0
M  V30 1028 C 105.029 -1.4748 -1.28488 0
M  V30 1029 O 106.235 -1.95161 -1.88745 0
M  V30 1030 C 104.691 -3.59735 0.109082 0
M  V30 1031 C 104.299 -4.22754 1.48267 0
M  V30 1032 C 106.043 -4.23085 -0.346374 0
M  V30 1033 C 103.95 -5.73115 1.45921 0
M  V30 1034 H 102.88 -0.753417 0.0296347 0
M  V30 1035 H 105.531 -1.67303 0.753788 0
M  V30 1036 H 103.913 -3.91087 -0.621854 0
M  V30 1037 H 105.087 -4.02987 2.23468 0
M  V30 1038 H 103.402 -3.71567 1.87955 0
M  V30 1039 H 105.999 -5.33327 -0.38298 0
M  V30 1040 H 106.342 -3.93201 -1.36743 0
M  V30 1041 H 106.875 -3.9642 0.331038 0
M  V30 1042 H 103.614 -6.07685 2.45762 0
M  V30 1043 H 103.134 -5.95097 0.749665 0
M  V30 1044 H 104.813 -6.3616 1.17941 0
M  V30 1045 N 104.945 -0.338344 -1.53925 0
M  V30 1046 C 105.908 0.508299 -2.23493 0
M  V30 1047 C 106.908 1.03175 -1.23335 0
M  V30 1048 O 108.098 0.921826 -1.47811 0
M  V30 1049 C 105.23 1.70754 -2.95052 0
M  V30 1050 H 106.423 -0.100058 -2.99733 0
M  V30 1051 H 103.976 -0.0896198 -1.56043 0
M  V30 1052 H 104.711 2.35474 -2.22986 0
M  V30 1053 H 104.496 1.33946 -3.68512 0
M  V30 1054 H 105.986 2.30818 -3.48013 0
M  V30 1055 N 106.423 1.57458 -0.0668435 0
M  V30 1056 C 107.651 1.97624 0.612565 0
M  V30 1057 C 108.066 0.94502 1.63447 0
M  V30 1058 O 107.423 -0.0689276 1.8237 0
M  V30 1059 C 107.474 3.37869 1.28555 0
M  V30 1060 O 107.195 4.3704 0.304557 0
M  V30 1061 C 108.696 3.92882 2.05325 0
M  V30 1062 H 105.916 0.650045 0.166381 0
M  V30 1063 H 108.46 2.04035 -0.137782 0
M  V30 1064 H 106.615 3.3256 1.98702 0
M  V30 1065 H 107.029 5.18565 0.786779 0
M  V30 1066 H 108.503 4.93247 2.47812 0
M  V30 1067 H 108.98 3.29156 2.9078 0
M  V30 1068 H 109.586 4.01577 1.40056 0
M  V30 1069 N 107.901 -0.206675 1.56239 0
M  V30 1070 C 108.864 -1.23976 1.92776 0
M  V30 1071 C 109.864 -1.39041 0.807729 0
M  V30 1072 O 111.054 -1.37051 1.0753 0
M  V30 1073 C 108.186 -2.61112 2.19165 0
M  V30 1074 H 109.379 -0.927764 2.85189 0
M  V30 1075 H 106.932 -0.447718 1.4975 0
M  V30 1076 H 107.667 -2.97386 1.29352 0
M  V30 1077 H 107.452 -2.51552 3.00772 0
M  V30 1078 H 108.942 -3.35633 2.48476 0
M  V30 1079 N 109.379 -1.50304 -0.473955 0
M  V30 1080 C 110.627 -1.60832 -1.22382 0
M  V30 1081 C 110.948 -0.30939 -1.9253 0
M  V30 1082 O 110.218 0.67296 -1.83978 0
M  V30 1083 H 108.798 -0.592652 -0.454723 0
M  V30 1084 H 111.46 -1.87068 -0.546968 0
M  V30 1085 H 110.556 -2.41803 -1.97327 0
M  V30 1086 N 110.857 0.726932 -1.39834 0
M  V30 1087 C 111.805 1.86235 -1.39353 0
M  V30 1088 C 112.799 1.67144 -0.275555 0
M  V30 1089 O 114.005 1.74387 -0.44601 0
M  V30 1090 H 110.38 0.613174 -0.43534 0
M  V30 1091 H 112.351 1.83756 -2.35109 0
M  V30 1092 C 111.1 3.23995 -1.26185 0
M  V30 1093 H 110.423 3.39285 -2.11484 0
M  V30 1094 H 111.863 4.03609 -1.29907 0
M  V30 1095 C 110.322 3.36888 0.0290018 0
M  V30 1096 O 110.852 3.89152 0.99619 0
M  V30 1097 N 109.058 2.90446 0.0947437 0
M  V30 1098 H 108.605 2.48102 -0.693035 0
M  V30 1099 H 108.563 2.99451 0.957932 0
M  V30 1100 N 112.336 1.25143 0.95797 0
M  V30 1101 C 113.561 1.12521 1.74223 0
M  V30 1102 C 113.986 -0.317402 1.85403 0
M  V30 1103 O 113.344 -1.2299 1.33204 0
M  V30 1104 C 113.392 1.78062 3.1357 0
M  V30 1105 O 112.496 1.058 3.98598 0
M  V30 1106 H 111.837 0.39304 0.535178 0
M  V30 1107 H 114.367 1.65641 1.201 0
M  V30 1108 H 114.377 1.84213 3.64046 0
M  V30 1109 H 113.052 2.83021 3.04749 0
M  V30 1110 H 111.629 1.07506 3.57067 0
M  V30 1111 N 113.814 -1.1601 1.06675 0
M  V30 1112 C 114.777 -2.18724 0.685001 0
M  V30 1113 C 115.777 -1.58496 -0.271246 0
M  V30 1114 O 116.967 -1.74119 -0.0531156 0
M  V30 1115 C 114.099 -3.40899 0.00853648 0
M  V30 1116 H 115.292 -2.54011 1.59431 0
M  V30 1117 H 112.845 -1.30352 0.862441 0
M  V30 1118 H 113.58 -3.11173 -0.913337 0
M  V30 1119 H 113.365 -3.8587 0.696204 0
M  V30 1120 H 114.855 -4.16886 -0.24414 0
M  V30 1121 N 115.292 -0.849877 -1.32721 0
M  V30 1122 C 116.541 -0.447175 -1.96681 0
M  V30 1123 C 116.854 1.00135 -1.68025 0
M  V30 1124 O 118.06 1.50926 -2.25685 0
M  V30 1125 C 116.516 -0.7487 -3.52026 0
M  V30 1126 C 116.124 -2.21264 -3.89546 0
M  V30 1127 C 117.868 -0.413487 -4.22481 0
M  V30 1128 C 115.775 -2.45763 -5.37917 0
M  V30 1129 H 114.705 -0.163486 -0.736063 0
M  V30 1130 H 117.356 -1.03999 -1.51183 0
M  V30 1131 H 115.738 -0.0853727 -3.95908 0
M  V30 1132 H 116.912 -2.91736 -3.56689 0
M  V30 1133 H 115.227 -2.5119 -3.32103 0
M  V30 1134 H 117.824 -0.574017 -5.3161 0
M  V30 1135 H 118.167 0.644492 -4.11281 0
M  V30 1136 H 118.7 -1.03251 -3.84167 0
M  V30 1137 H 115.439 -3.50168 -5.54132 0
M  V30 1138 H 114.959 -1.79864 -5.72197 0
M  V30 1139 H 116.638 -2.29471 -6.0494 0
M  V30 1140 N 116.77 1.45427 -0.607355 0
M  V30 1141 C 118.181 1.85756 -0.187535 0
M  V30 1142 C 118.532 1.5077 1.25551 0
M  V30 1143 O 117.657 0.93427 1.95193 0
M  V30 1144 C 118.252 3.37154 -0.333572 0
M  V30 1145 C 116.811 3.76387 0.0315542 0
M  V30 1146 C 115.958 2.69377 -0.658117 0
M  V30 1147 H 118.909 1.36231 -0.81405 0
M  V30 1148 H 118.93 3.78014 0.43428 0
M  V30 1149 H 118.442 3.62586 -1.38393 0
M  V30 1150 H 116.543 3.56571 1.0811 0
M  V30 1151 H 116.656 4.77731 -0.361935 0
M  V30 1152 H 115.02 2.5452 -0.0957873 0
M  V30 1153 H 115.803 2.97646 -1.7106 0
M  V30 1154 N 118.248 0.346503 1.53744 0
M  V30 1155 C 119.178 -0.501193 2.28058 0
M  V30 1156 C 120.159 -1.10014 1.29734 0
M  V30 1157 O 121.344 -1.12097 1.58581 0
M  V30 1158 C 118.474 -1.65078 3.05559 0
M  V30 1159 C 117.428 -1.18003 4.11411 0
M  V30 1160 C 116.754 -2.41837 4.76884 0
M  V30 1161 C 118.054 -0.278394 5.21558 0
M  V30 1162 H 119.748 0.11875 2.99164 0
M  V30 1163 H 117.294 0.0585531 1.43881 0
M  V30 1164 H 119.247 -2.25028 3.56287 0
M  V30 1165 H 117.971 -2.29767 2.32109 0
M  V30 1166 H 116.63 -0.603331 3.61601 0
M  V30 1167 H 116.278 -3.0494 4.00026 0
M  V30 1168 H 115.978 -2.1102 5.48402 0
M  V30 1169 H 117.502 -3.02508 5.30397 0
M  V30 1170 H 118.916 -0.784823 5.67903 0
M  V30 1171 H 117.313 -0.0619707 6.00068 0
M  V30 1172 H 118.383 0.684677 4.80042 0
M  V30 1173 N 119.726 -1.57421 0.075193 0
M  V30 1174 C 120.972 -1.93905 -0.594025 0
M  V30 1175 C 121.305 -0.955701 -1.69056 0
M  V30 1176 O 120.58 0.0145373 -1.94495 0
M  V30 1177 C 120.863 -3.40638 -1.1678 0
M  V30 1178 C 120.716 -4.49733 -0.0776792 0
M  V30 1179 C 122.035 -3.88259 -2.07228 0
M  V30 1180 H 119.154 -0.705105 -0.214466 0
M  V30 1181 H 121.796 -1.8947 0.141854 0
M  V30 1182 H 119.946 -3.44549 -1.79494 0
M  V30 1183 H 121.618 -4.57942 0.555573 0
M  V30 1184 H 119.861 -4.29751 0.591286 0
M  V30 1185 H 120.532 -5.49549 -0.519603 0
M  V30 1186 H 123.008 -3.86376 -1.54445 0
M  V30 1187 H 121.884 -4.91533 -2.44308 0
M  V30 1188 H 122.145 -3.26396 -2.98191 0
M  V30 1189 N 121.204 0.198386 -1.56346 0
M  V30 1190 C 122.151 1.24589 -1.94284 0
M  V30 1191 C 123.121 1.454 -0.802997 0
M  V30 1192 O 124.306 1.58588 -1.06087 0
M  V30 1193 C 121.446 2.58631 -2.28482 0
M  V30 1194 C 120.559 2.45426 -3.55514 0
M  V30 1195 C 119.694 3.7215 -3.79049 0
M  V30 1196 C 118.733 3.53763 -4.99518 0
M  V30 1197 N 117.87 4.72491 -5.19323 0
M  V30 1198 H 122.71 0.915356 -2.83593 0
M  V30 1199 H 120.247 0.440629 -1.40346 0
M  V30 1200 H 122.205 3.3672 -2.46324 0
M  V30 1201 H 120.835 2.89734 -1.42317 0
M  V30 1202 H 119.887 1.58652 -3.45737 0
M  V30 1203 H 121.199 2.27772 -4.43758 0
M  V30 1204 H 120.353 4.58679 -3.97113 0
M  V30 1205 H 119.092 3.92754 -2.89129 0
M  V30 1206 H 118.097 2.65619 -4.8138 0
M  V30 1207 H 119.322 3.34607 -5.90944 0
M  V30 1208 H 117.268 4.93365 -4.3235 0
M  V30 1209 H 117.185 4.5765 -6.01741 0
M  V30 1210 H 118.453 5.6038 -5.41843 0
M  V30 1211 N 122.682 1.50554 0.465978 0
M  V30 1212 C 123.645 1.69233 1.54574 0
M  V30 1213 C 124.645 0.562901 1.50626 0
M  V30 1214 O 125.835 0.830016 1.53155 0
M  V30 1215 C 122.967 1.7223 2.94193 0
M  V30 1216 H 124.16 2.65571 1.39327 0
M  V30 1217 H 121.713 1.40111 0.692711 0
M  V30 1218 H 122.448 0.77603 3.14878 0
M  V30 1219 H 122.233 2.54285 2.98466 0
M  V30 1220 H 123.723 1.88618 3.72576 0
M  V30 1221 N 124.16 -0.719506 1.40217 0
M  V30 1222 C 125.09 -1.8465 1.42922 0
M  V30 1223 C 126.071 -1.67599 0.29062 0
M  V30 1224 O 127.256 -1.87688 0.498677 0
M  V30 1225 C 124.386 -3.22565 1.28722 0
M  V30 1226 C 123.34 -3.54281 2.40144 0
M  V30 1227 C 122.666 -4.91298 2.11023 0
M  V30 1228 C 123.966 -3.55676 3.82481 0
M  V30 1229 H 125.66 -1.82644 2.37237 0
M  V30 1230 H 123.206 -0.877305 1.1419 0
M  V30 1231 H 125.159 -4.01095 1.29232 0
M  V30 1232 H 123.883 -3.25137 0.308811 0
M  V30 1233 H 122.542 -2.78088 2.38877 0
M  V30 1234 H 122.19 -4.90468 1.11582 0
M  V30 1235 H 121.89 -5.13485 2.8567 0
M  V30 1236 H 123.414 -5.72166 2.13209 0
M  V30 1237 H 124.828 -4.24254 3.85592 0
M  V30 1238 H 123.225 -3.89388 4.56614 0
M  V30 1239 H 124.295 -2.55144 4.12346 0
M  V30 1240 N 125.638 -1.25649 -0.95132 0
M  V30 1241 C 126.886 -1.10375 -1.69298 0
M  V30 1242 C 127.207 0.355339 -1.91735 0
M  V30 1243 O 126.477 1.25188 -1.50681 0
M  V30 1244 H 125.057 -0.405461 -0.627384 0
M  V30 1245 H 127.719 -1.57823 -1.14358 0
M  V30 1246 H 126.815 -1.61465 -2.67087 0
M  V30 1247 N 127.117 1.15442 -1.07289 0
M  V30 1248 C 128.064 2.20161 -0.692653 0
M  V30 1249 C 129.034 1.63073 0.31564 0
M  V30 1250 O 130.219 1.89725 0.202235 0
M  V30 1251 C 127.359 3.44967 -0.0959509 0
M  V30 1252 C 126.472 4.16256 -1.15564 0
M  V30 1253 C 125.607 5.28609 -0.524011 0
M  V30 1254 C 124.646 5.91715 -1.56653 0
M  V30 1255 N 123.783 6.9554 -0.957531 0
M  V30 1256 H 128.623 2.52037 -1.59002 0
M  V30 1257 H 126.16 1.2378 -0.794798 0
M  V30 1258 H 128.118 4.16341 0.267628 0
M  V30 1259 H 126.748 3.1361 0.764772 0
M  V30 1260 H 125.8 3.43385 -1.6368 0
M  V30 1261 H 127.112 4.59268 -1.94613 0
M  V30 1262 H 126.266 6.06604 -0.108032 0
M  V30 1263 H 125.005 4.86787 0.29825 0
M  V30 1264 H 124.01 5.12433 -1.9923 0
M  V30 1265 H 125.235 6.35614 -2.39107 0
M  V30 1266 H 123.181 6.55814 -0.156162 0
M  V30 1267 H 123.098 7.36977 -1.68526 0
M  V30 1268 H 124.366 7.77435 -0.567032 0
M  V30 1269 N 128.595 0.856903 1.32268 0
M  V30 1270 C 129.841 0.462069 1.97466 0
M  V30 1271 C 130.174 -0.980298 1.67642 0
M  V30 1272 O 129.449 -1.68824 0.965858 0
M  V30 1273 C 129.732 0.704336 3.53145 0
M  V30 1274 C 129.585 2.19529 3.9259 0
M  V30 1275 C 130.904 0.1622 4.39801 0
M  V30 1276 H 128.023 0.169357 0.717278 0
M  V30 1277 H 130.665 1.07574 1.56614 0
M  V30 1278 H 128.815 0.181999 3.88073 0
M  V30 1279 H 130.487 2.78387 3.67829 0
M  V30 1280 H 128.73 2.67292 3.41668 0
M  V30 1281 H 129.401 2.31549 5.01088 0
M  V30 1282 H 131.877 0.608905 4.11621 0
M  V30 1283 H 130.753 0.361265 5.4771 0
M  V30 1284 H 131.014 -0.935158 4.32096 0
M  V30 1285 N 130.073 -1.45103 0.615059 0
M  V30 1286 C 131.322 -2.01396 0.110718 0
M  V30 1287 C 131.635 -1.48834 -1.26916 0
M  V30 1288 O 132.841 -1.97152 -1.86664 0
M  V30 1289 C 131.297 -3.59599 0.14723 0
M  V30 1290 C 130.905 -4.21158 1.52743 0
M  V30 1291 C 132.649 -4.23428 -0.30148 0
M  V30 1292 C 130.556 -5.71535 1.51992 0
M  V30 1293 H 129.486 -0.753061 0.0376241 0
M  V30 1294 H 132.137 -1.66494 0.77149 0
M  V30 1295 H 130.519 -3.91724 -0.580339 0
M  V30 1296 H 131.693 -4.00594 2.2773 0
M  V30 1297 H 130.008 -3.69552 1.91886 0
M  V30 1298 H 132.605 -5.33703 -0.326392 0
M  V30 1299 H 132.948 -3.94629 -1.32565 0
M  V30 1300 H 133.481 -3.96047 0.373065 0
M  V30 1301 H 130.22 -6.05044 2.52193 0
M  V30 1302 H 129.74 -5.94268 0.81274 0
M  V30 1303 H 131.419 -6.34873 1.24681 0
M  V30 1304 N 131.551 -0.354651 -1.53558 0
M  V30 1305 C 132.514 0.484566 -2.24019 0
M  V30 1306 C 133.514 1.01861 -1.24422 0
M  V30 1307 O 134.704 0.906097 -1.4878 0
M  V30 1308 C 131.836 1.67615 -2.96847 0
M  V30 1309 H 133.029 -0.131843 -2.9961 0
M  V30 1310 H 130.582 -0.106165 -1.55939 0
M  V30 1311 H 131.317 2.33095 -2.25471 0
M  V30 1312 H 131.102 1.30029 -3.69912 0
M  V30 1313 H 132.592 2.27114 -3.50441 0
M  V30 1314 N 133.029 1.57378 -0.0835403 0
M  V30 1315 C 134.254 1.98682 0.594987 0
M  V30 1316 C 134.679 0.961969 1.61641 0
M  V30 1317 O 134.037 -0.0709989 1.81161 0
M  V30 1318 C 134.085 3.38988 1.2296 0
M  V30 1319 O 133.189 3.39208 2.34546 0
M  V30 1320 H 132.53 0.646368 0.152002 0
M  V30 1321 H 135.06 2.03961 -0.161533 0
M  V30 1322 H 135.07 3.76431 1.57366 0
M  V30 1323 H 133.745 4.13107 0.481228 0
M  V30 1324 H 132.322 3.13548 2.01846 0
M  V30 1325 N 134.507 -0.190092 1.56449 0
M  V30 1326 C 135.755 -0.907908 1.80559 0
M  V30 1327 C 136.076 -1.83583 0.657438 0
M  V30 1328 O 135.346 -1.93203 -0.323924 0
M  V30 1329 H 133.926 -0.338247 0.666032 0
M  V30 1330 H 136.588 -0.194403 1.93928 0
M  V30 1331 H 135.684 -1.49604 2.73907 0
M  V30 1332 N 135.985 -1.50799 -0.457987 0
M  V30 1333 C 137.231 -1.62683 -1.21088 0
M  V30 1334 C 137.564 -0.332268 -1.91336 0
M  V30 1335 O 136.839 0.667043 -1.82704 0
M  V30 1336 C 137.122 -2.81615 -2.24422 0
M  V30 1337 C 136.975 -4.20989 -1.58392 0
M  V30 1338 C 138.294 -2.96085 -3.2561 0
M  V30 1339 H 135.413 -0.592087 -0.438864 0
M  V30 1340 H 138.055 -1.83225 -0.50286 0
M  V30 1341 H 136.205 -2.64231 -2.84806 0
M  V30 1342 H 137.877 -4.49994 -1.01504 0
M  V30 1343 H 136.12 -4.24641 -0.886704 0
M  V30 1344 H 136.791 -5.0016 -2.33547 0
M  V30 1345 H 139.267 -3.12042 -2.75262 0
M  V30 1346 H 138.143 -3.80902 -3.95228 0
M  V30 1347 H 138.404 -2.0726 -3.90507 0
M  V30 1348 N 137.463 0.71206 -1.40597 0
M  V30 1349 C 138.874 1.29135 -1.34837 0
M  V30 1350 C 139.225 1.96186 -0.0235395 0
M  V30 1351 O 138.35 1.97768 0.878444 0
M  V30 1352 C 138.945 2.34827 -2.44217 0
M  V30 1353 C 137.504 2.88371 -2.41907 0
M  V30 1354 C 136.651 1.62202 -2.24913 0
M  V30 1355 H 139.602 0.507944 -1.50352 0
M  V30 1356 H 139.623 3.15749 -2.12327 0
M  V30 1357 H 139.135 1.85996 -3.40627 0
M  V30 1358 H 137.236 3.41422 -1.49204 0
M  V30 1359 H 137.349 3.39925 -3.37621 0
M  V30 1360 H 135.713 1.874 -1.72492 0
M  V30 1361 H 136.496 1.15391 -3.23326 0
M  V30 1362 N 138.941 1.26152 0.944643 0
M  V30 1363 C 139.851 1.09176 2.07648 0
M  V30 1364 C 140.867 0.0261935 1.7398 0
M  V30 1365 O 142.043 0.229208 2.00091 0
M  V30 1366 C 139.108 0.722915 3.39079 0
M  V30 1367 C 138.169 1.86752 3.86552 0
M  V30 1368 C 137.402 1.51617 5.11711 0
M  V30 1369 O 137.625 0.416331 5.68879 0
M  V30 1370 O 136.559 2.34975 5.54139 0
M  V30 1371 H 140.385 2.0412 2.24875 0
M  V30 1372 H 137.97 1.05182 1.061 0
M  V30 1373 H 139.852 0.529787 4.18056 0
M  V30 1374 H 138.527 -0.197159 3.23099 0
M  V30 1375 H 137.434 2.11558 3.08535 0
M  V30 1376 H 138.767 2.76719 4.07047 0
M  V30 1377 N 140.419 -1.14872 1.07899 0
M  V30 1378 C 141.382 -2.17986 0.708161 0
M  V30 1379 C 142.382 -1.58775 -0.25442 0
M  V30 1380 O 143.572 -1.74166 -0.034645 0
M  V30 1381 C 140.704 -3.40871 0.0446929 0
M  V30 1382 H 141.897 -2.52306 1.62116 0
M  V30 1383 H 139.45 -1.2943 0.876218 0
M  V30 1384 H 140.185 -3.12124 -0.880281 0
M  V30 1385 H 139.97 -3.8511 0.737091 0
M  V30 1386 H 141.46 -4.17121 -0.19991 0
M  V30 1387 N 141.898 -0.863906 -1.31812 0
M  V30 1388 C 142.808 -0.318461 -2.32428 0
M  V30 1389 C 143.824 0.568496 -1.64451 0
M  V30 1390 O 145 0.46666 -1.95919 0
M  V30 1391 C 142.065 0.476355 -3.43412 0
M  V30 1392 C 141.126 -0.43784 -4.27061 0
M  V30 1393 C 140.359 0.319138 -5.32745 0
M  V30 1394 O 140.582 1.54799 -5.48993 0
M  V30 1395 O 139.516 -0.319861 -6.01049 0
M  V30 1396 H 143.342 -1.15229 -2.80991 0
M  V30 1397 H 140.927 -0.627103 -1.35602 0
M  V30 1398 H 142.809 0.927156 -4.11074 0
M  V30 1399 H 141.484 1.28683 -2.97022 0
M  V30 1400 H 140.391 -0.937013 -3.62175 0
M  V30 1401 H 141.724 -1.21375 -4.77 0
M  V30 1402 N 143.376 1.44774 -0.622745 0
M  V30 1403 C 144.792 1.56986 -0.287652 0
M  V30 1404 C 144.992 1.61167 1.20944 0
M  V30 1405 O 144.048 1.55015 1.99315 0
M  V30 1406 C 145.361 2.84551 -0.972188 0
M  V30 1407 C 146.909 2.9825 -0.949536 0
M  V30 1408 C 147.384 4.28605 -1.61437 0
M  V30 1409 N 148.875 4.35399 -1.58057 0
M  V30 1410 C 149.61 5.34964 -2.064 0
M  V30 1411 N 149.106 6.40981 -2.62897 0
M  V30 1412 N 150.899 5.26419 -1.97078 0
M  V30 1413 H 143.05 1.40304 -1.59463 0
M  V30 1414 H 145.313 0.671794 -0.668878 0
M  V30 1415 H 145.019 2.87417 -2.02693 0
M  V30 1416 H 144.893 3.73807 -0.504771 0
M  V30 1417 H 147.28 2.94941 0.0967067 0
M  V30 1418 H 147.361 2.10364 -1.45536 0
M  V30 1419 H 147.005 4.32672 -2.66002 0
M  V30 1420 H 146.935 5.15334 -1.08344 0
M  V30 1421 H 149.426 3.59397 -1.16801 0
M  V30 1422 H 149.739 7.13225 -2.97539 0
M  V30 1423 H 148.084 6.4169 -2.66943 0
M  V30 1424 H 151.275 4.42504 -1.52669 0
M  V30 1425 H 151.448 6.03861 -2.35066 0
M  V30 1426 N 144.854 0.36279 1.53368 0
M  V30 1427 C 146.084 -0.228281 2.05335 0
M  V30 1428 C 146.492 -1.43226 1.23625 0
M  V30 1429 O 145.835 -1.81717 0.269206 0
M  V30 1430 C 145.897 -0.688549 3.52845 0
M  V30 1431 C 145.561 0.398362 4.5526 0
M  V30 1432 C 146.558 1.24732 5.04716 0
M  V30 1433 C 144.243 0.557805 4.99193 0
M  V30 1434 C 146.237 2.2411 5.96702 0
M  V30 1435 C 143.924 1.55495 5.90986 0
M  V30 1436 C 144.922 2.39503 6.39631 0
M  V30 1437 O 144.61 3.37517 7.29615 0
M  V30 1438 H 144.342 -0.044395 0.674541 0
M  V30 1439 H 146.896 0.518668 1.98744 0
M  V30 1440 H 145.126 -1.48706 3.56964 0
M  V30 1441 H 146.815 -1.20231 3.87685 0
M  V30 1442 H 147.581 1.13532 4.71525 0
M  V30 1443 H 143.46 -0.0862959 4.60919 0
M  V30 1444 H 147.004 2.89718 6.34594 0
M  V30 1445 H 142.901 1.66744 6.23592 0
M  V30 1446 H 143.669 3.33213 7.47604 0
M  V30 1447 N 146.332 -1.57332 0.0918853 0
M  V30 1448 C 147.578 -1.94524 -0.573425 0
M  V30 1449 C 147.911 -0.973578 -1.68033 0
M  V30 1450 O 147.186 -0.00609226 -1.94499 0
M  V30 1451 C 147.469 -3.41858 -1.13161 0
M  V30 1452 C 147.322 -4.4979 -0.0299747 0
M  V30 1453 C 148.641 -3.90435 -2.03098 0
M  V30 1454 H 145.76 -0.70734 -0.206975 0
M  V30 1455 H 148.402 -1.89309 0.161942 0
M  V30 1456 H 146.552 -3.46433 -1.7583 0
M  V30 1457 H 148.224 -4.57327 0.604112 0
M  V30 1458 H 146.467 -4.291 0.636833 0
M  V30 1459 H 147.138 -5.50069 -0.461287 0
M  V30 1460 H 149.614 -3.87992 -1.50338 0
M  V30 1461 H 148.49 -4.94097 -2.39081 0
M  V30 1462 H 148.751 -3.29541 -2.94712 0
M  V30 1463 N 147.81 0.181792 -1.56548 0
M  V30 1464 C 148.76 1.22961 -1.92002 0
M  V30 1465 C 149.744 1.40331 -0.787146 0
M  V30 1466 O 150.936 1.42478 -1.05019 0
M  V30 1467 C 148.065 2.57144 -2.27446 0
M  V30 1468 C 147.151 2.43512 -3.47222 0
M  V30 1469 N 147.542 1.99577 -4.64761 0
M  V30 1470 C 145.84 2.74368 -3.51622 0
M  V30 1471 C 146.541 1.98156 -5.46909 0
M  V30 1472 N 145.517 2.40164 -4.8767 0
M  V30 1473 H 149.319 0.881462 -2.8037 0
M  V30 1474 H 146.833 0.390141 -1.57644 0
M  V30 1475 H 148.83 3.32847 -2.51035 0
M  V30 1476 H 147.49 2.92771 -1.40411 0
M  V30 1477 H 148.501 1.70078 -4.89177 0
M  V30 1478 H 145.178 3.14102 -2.75038 0
M  V30 1479 H 146.568 1.65975 -6.51077 0
M  V30 1480 N 149.288 1.51039 0.449983 0
M  V30 1481 C 150.218 1.74379 1.55288 0
M  V30 1482 C 151.199 0.593236 1.5942 0
M  V30 1483 O 152.384 0.834625 1.7535 0
M  V30 1484 C 149.514 1.85728 2.93466 0
M  V30 1485 C 148.468 3.01078 3.04197 0
M  V30 1486 C 147.794 2.97595 4.44231 0
M  V30 1487 C 149.094 4.41254 2.7945 0
M  V30 1488 H 150.788 2.66725 1.36008 0
M  V30 1489 H 148.334 1.2835 0.652864 0
M  V30 1490 H 150.287 2.0064 3.70569 0
M  V30 1491 H 149.011 0.900207 3.13949 0
M  V30 1492 H 147.67 2.85851 2.29531 0
M  V30 1493 H 147.318 1.99691 4.61663 0
M  V30 1494 H 147.018 3.75046 4.52343 0
M  V30 1495 H 148.542 3.14583 5.23326 0
M  V30 1496 H 149.956 4.56897 3.46292 0
M  V30 1497 H 148.353 5.20315 2.98985 0
M  V30 1498 H 149.423 4.52164 1.75144 0
M  V30 1499 N 150.766 -0.704594 1.40972 0
M  V30 1500 C 152.014 -1.46169 1.39568 0
M  V30 1501 C 152.335 -1.95 0.00253745 0
M  V30 1502 O 151.605 -1.71095 -0.954114 0
M  V30 1503 H 150.185 -0.542326 0.513704 0
M  V30 1504 H 152.847 -0.834553 1.76128 0
M  V30 1505 H 151.943 -2.32922 2.07735 0
M  V30 1506 N 152.244 -1.26651 -0.937939 0
M  V30 1507 C 153.207 -1.08546 -2.01867 0
M  V30 1508 C 154.207 -0.0327327 -1.60767 0
M  V30 1509 O 155.397 -0.276427 -1.71993 0
M  V30 1510 C 152.529 -0.651711 -3.34613 0
M  V30 1511 H 153.722 -2.04502 -2.1936 0
M  V30 1512 H 151.275 -1.09294 -1.11734 0
M  V30 1513 H 152.01 0.309696 -3.22818 0
M  V30 1514 H 151.795 -1.41189 -3.65798 0
M  V30 1515 H 153.285 -0.546973 -4.14002 0
M  V30 1516 N 153.722 1.14298 -1.08507 0
M  V30 1517 C 154.95 1.89219 -0.836876 0
M  V30 1518 C 155.365 1.78638 0.611054 0
M  V30 1519 O 154.722 1.14643 1.41998 0
M  V30 1520 C 154.773 3.39158 -1.25116 0
M  V30 1521 O 154.494 3.49449 -2.64229 0
M  V30 1522 C 155.995 4.31073 -1.03398 0
M  V30 1523 H 153.215 0.599328 -0.301739 0
M  V30 1524 H 155.759 1.44746 -1.44461 0
M  V30 1525 H 153.914 3.81251 -0.687514 0
M  V30 1526 H 154.328 4.42589 -2.81452 0
M  V30 1527 H 155.802 5.34646 -1.37323 0
M  V30 1528 H 156.279 4.3919 0.0289259 0
M  V30 1529 H 156.885 3.94738 -1.58311 0
M  V30 1530 N 155.201 0.870884 1.31352 0
M  V30 1531 C 156.426 0.495957 2.01383 0
M  V30 1532 C 156.851 -0.904324 1.64935 0
M  V30 1533 O 156.209 -1.59687 0.858466 0
M  V30 1534 C 156.257 0.661433 3.54482 0
M  V30 1535 O 155.361 -0.298851 4.11316 0
M  V30 1536 H 154.702 0.197158 0.634054 0
M  V30 1537 H 157.232 1.17455 1.67527 0
M  V30 1538 H 157.242 0.555072 4.04207 0
M  V30 1539 H 155.917 1.68246 3.8035 0
M  V30 1540 H 154.494 -0.147368 3.72609 0
M  V30 1541 N 156.679 -1.44442 0.630414 0
M  V30 1542 C 157.611 -2.2892 -0.113347 0
M  V30 1543 C 158.624 -1.41243 -0.80959 0
M  V30 1544 O 159.813 -1.65402 -0.671156 0
M  V30 1545 C 156.913 -3.17594 -1.18266 0
M  V30 1546 C 156.086 -4.33682 -0.569073 0
M  V30 1547 C 155.145 -5.03397 -1.53226 0
M  V30 1548 O 154.171 -5.59438 -1.04967 0
M  V30 1549 N 155.373 -5.04783 -2.86661 0
M  V30 1550 H 158.138 -2.93392 0.611636 0
M  V30 1551 H 155.699 -1.54881 0.471523 0
M  V30 1552 H 157.691 -3.61097 -1.82732 0
M  V30 1553 H 156.261 -2.54876 -1.80988 0
M  V30 1554 H 155.481 -3.9338 0.254187 0
M  V30 1555 H 156.769 -5.08608 -0.139767 0
M  V30 1556 H 156.167 -4.60584 -3.28449 0
M  V30 1557 H 154.724 -5.52077 -3.46489 0
M  V30 1558 N 158.157 -0.370918 -1.53173 0
M  V30 1559 C 159.434 0.273754 -1.93675 0
M  V30 1560 C 159.814 1.65938 -1.3049 0
M  V30 1561 O 159.162 2.23698 -0.465999 0
M  V30 1562 C 159.372 0.318602 -3.47543 0
M  V30 1563 C 160.72 0.556392 -4.20939 0
M  V30 1564 O 161.744 0.399587 -3.53952 0
M  V30 1565 O 160.603 0.862133 -5.39657 0
M  V30 1566 H 157.697 0.165448 -0.810281 0
M  V30 1567 H 160.243 -0.42409 -1.64315 0
M  V30 1568 H 159.015 -0.652687 -3.85818 0
M  V30 1569 H 158.638 1.06212 -3.83151 0
M  V30 1570 N 159.635 1.57281 -0.100228 0
M  V30 1571 C 160.598 2.13158 0.842398 0
M  V30 1572 C 161.598 1.06202 1.20738 0
M  V30 1573 O 162.788 1.32066 1.13597 0
M  V30 1574 C 159.92 2.65639 2.13655 0
M  V30 1575 H 161.113 2.97766 0.357114 0
M  V30 1576 H 158.666 1.5559 0.148823 0
M  V30 1577 H 159.401 1.84566 2.66657 0
M  V30 1578 H 159.186 3.43844 1.88451 0
M  V30 1579 H 160.676 3.08846 2.81077 0
M  V30 1580 N 161.113 -0.173488 1.56642 0
M  V30 1581 C 162.046 -1.24353 1.91342 0
M  V30 1582 C 163.024 -1.4289 0.775965 0
M  V30 1583 O 164.208 -1.57932 1.02907 0
M  V30 1584 C 161.335 -2.60683 2.16245 0
M  V30 1585 C 160.381 -2.58894 3.38934 0
M  V30 1586 S 161.214 -2.0819 4.93373 0
M  V30 1587 C 162.37 -3.46302 5.21369 0
M  V30 1588 H 162.603 -0.947345 2.81803 0
M  V30 1589 H 160.136 -0.377958 1.49703 0
M  V30 1590 H 162.094 -3.39149 2.31275 0
M  V30 1591 H 160.755 -2.87502 1.26496 0
M  V30 1592 H 159.948 -3.59188 3.53553 0
M  V30 1593 H 159.55 -1.88522 3.2301 0
M  V30 1594 H 161.842 -4.42287 5.13214 0
M  V30 1595 H 162.785 -3.3656 6.23003 0
M  V30 1596 H 163.193 -3.42214 4.48943 0
M  V30 1597 N 162.591 -1.51276 -0.441967 0
M  V30 1598 C 163.868 -1.54252 -1.20273 0
M  V30 1599 C 164.248 -0.30408 -2.08898 0
M  V30 1600 O 163.596 0.711084 -2.17154 0
M  V30 1601 C 163.806 -2.85406 -2.00859 0
M  V30 1602 C 165.154 -3.37181 -2.58059 0
M  V30 1603 O 166.178 -2.86925 -2.11074 0
M  V30 1604 O 165.037 -4.24858 -3.43741 0
M  V30 1605 H 162.131 -0.619969 -0.547328 0
M  V30 1606 H 164.677 -1.63586 -0.451413 0
M  V30 1607 H 163.449 -3.67003 -1.35736 0
M  V30 1608 H 163.072 -2.79213 -2.83065 0
M  V30 1609 N 164.069 0.697108 -1.41344 0
M  V30 1610 C 165.297 1.48593 -1.43972 0
M  V30 1611 C 165.712 1.88747 -0.0445612 0
M  V30 1612 O 165.069 1.56682 0.935785 0
M  V30 1613 C 165.12 2.74946 -2.34706 0
M  V30 1614 O 164.841 2.36484 -3.68791 0
M  V30 1615 C 166.342 3.687 -2.46121 0
M  V30 1616 H 163.562 0.457964 -0.490418 0
M  V30 1617 H 166.106 0.858429 -1.8561 0
M  V30 1618 H 164.261 3.33937 -1.9638 0
M  V30 1619 H 164.675 3.17918 -4.17167 0
M  V30 1620 H 166.149 4.54145 -3.13777 0
M  V30 1621 H 166.626 4.13081 -1.49199 0
M  V30 1622 H 167.232 3.15613 -2.85076 0
M  V30 1623 N 165.547 1.27147 0.931209 0
M  V30 1624 C 166.795 1.13055 1.6752 0
M  V30 1625 C 167.116 -0.324791 1.92276 0
M  V30 1626 O 166.386 -1.22775 1.52654 0
M  V30 1627 H 164.966 0.415391 0.620854 0
M  V30 1628 H 167.628 1.59623 1.11833 0
M  V30 1629 H 166.724 1.65694 2.64485 0
M  V30 1630 N 167.025 -1.13721 1.09112 0
M  V30 1631 C 167.955 -2.21148 0.749385 0
M  V30 1632 C 168.936 -1.6792 -0.271475 0
M  V30 1633 O 170.121 -1.93693 -0.140251 0
M  V30 1634 C 167.251 -3.46905 0.165659 0
M  V30 1635 C 166.205 -4.13203 1.11567 0
M  V30 1636 C 165.531 -5.33248 0.393809 0
M  V30 1637 C 166.831 -4.60912 2.45678 0
M  V30 1638 H 168.525 -2.4999 1.64758 0
M  V30 1639 H 166.071 -1.20156 0.793626 0
M  V30 1640 H 168.024 -4.21313 -0.085466 0
M  V30 1641 H 166.748 -3.17449 -0.767714 0
M  V30 1642 H 165.407 -3.40758 1.35202 0
M  V30 1643 H 165.055 -5.00054 -0.543599 0
M  V30 1644 H 164.755 -5.78552 1.02721 0
M  V30 1645 H 166.279 -6.10413 0.150908 0
M  V30 1646 H 167.693 -5.26759 2.26269 0
M  V30 1647 H 166.09 -5.16944 3.04776 0
M  V30 1648 H 167.16 -3.75603 3.06677 0
M  V30 1649 N 168.503 -0.877838 -1.30888 0
M  V30 1650 C 169.749 -0.493426 -1.96706 0
M  V30 1651 C 170.082 0.953504 -1.6918 0
M  V30 1652 O 169.357 1.67266 -0.992594 0
M  V30 1653 C 169.64 -0.760429 -3.51979 0
M  V30 1654 C 169.493 -2.25747 -3.89048 0
M  V30 1655 C 170.812 -0.232148 -4.39487 0
M  V30 1656 H 167.931 -0.180746 -0.714493 0
M  V30 1657 H 170.573 -1.10052 -1.54882 0
M  V30 1658 H 168.723 -0.243715 -3.87735 0
M  V30 1659 H 170.395 -2.84204 -3.63354 0
M  V30 1660 H 168.638 -2.72694 -3.37373 0
M  V30 1661 H 169.309 -2.39491 -4.97341 0
M  V30 1662 H 171.785 -0.674314 -4.106 0
M  V30 1663 H 170.661 -0.448355 -5.47066 0
M  V30 1664 H 170.922 0.866297 -4.33529 0
M  V30 1665 N 169.982 1.44106 -0.638065 0
M  V30 1666 C 170.912 2.33448 0.0494287 0
M  V30 1667 C 171.893 1.48606 0.827672 0
M  V30 1668 O 173.078 1.77308 0.792173 0
M  V30 1669 C 170.208 3.31771 1.02691 0
M  V30 1670 C 169.162 4.26485 0.359823 0
M  V30 1671 C 168.488 5.14729 1.44769 0
M  V30 1672 C 169.788 5.17056 -0.738296 0
M  V30 1673 H 171.482 2.91183 -0.696636 0
M  V30 1674 H 169.028 1.40014 -0.336456 0
M  V30 1675 H 170.981 3.93161 1.51666 0
M  V30 1676 H 169.705 2.7226 1.80395 0
M  V30 1677 H 168.364 3.66437 -0.10934 0
M  V30 1678 H 168.012 4.51566 2.21578 0
M  V30 1679 H 167.712 5.78913 1.00668 0
M  V30 1680 H 169.236 5.78991 1.93911 0
M  V30 1681 H 170.65 5.72342 -0.331354 0
M  V30 1682 H 169.047 5.89879 -1.10286 0
M  V30 1683 H 170.117 4.57652 -1.60258 0
M  V30 1684 N 171.46 0.379036 1.52974 0
M  V30 1685 C 172.392 -0.495963 2.2377 0
M  V30 1686 C 173.405 -1.03517 1.25651 0
M  V30 1687 O 174.594 -0.939249 1.51791 0
M  V30 1688 C 171.694 -1.69894 2.93239 0
M  V30 1689 C 170.867 -1.2889 4.17979 0
M  V30 1690 C 169.926 -2.35543 4.70538 0
M  V30 1691 O 168.952 -1.97375 5.33883 0
M  V30 1692 N 170.154 -3.67318 4.49508 0
M  V30 1693 H 172.919 0.110523 2.99496 0
M  V30 1694 H 170.48 0.204878 1.60598 0
M  V30 1695 H 172.472 -2.40747 3.25304 0
M  V30 1696 H 171.042 -2.212 2.20883 0
M  V30 1697 H 170.262 -0.409676 3.92065 0
M  V30 1698 H 171.55 -0.991443 4.99047 0
M  V30 1699 H 170.948 -4.01095 3.98923 0
M  V30 1700 H 169.505 -4.34235 4.8609 0
M  V30 1701 N 172.938 -1.57226 0.108567 0
M  V30 1702 C 173.868 -2.17778 -0.84232 0
M  V30 1703 C 174.849 -1.11487 -1.2847 0
M  V30 1704 O 176.034 -1.39681 -1.34918 0
M  V30 1705 C 173.164 -2.76888 -2.09644 0
M  V30 1706 C 172.118 -3.88669 -1.79221 0
M  V30 1707 C 171.444 -4.34541 -3.11574 0
M  V30 1708 C 172.744 -5.11251 -1.06864 0
M  V30 1709 H 174.438 -2.97489 -0.337774 0
M  V30 1710 H 171.984 -1.43097 -0.161025 0
M  V30 1711 H 173.937 -3.17904 -2.76614 0
M  V30 1712 H 172.661 -1.94451 -2.62405 0
M  V30 1713 H 171.32 -3.48213 -1.14644 0
M  V30 1714 H 170.968 -3.48977 -3.62249 0
M  V30 1715 H 170.668 -5.09914 -2.91996 0
M  V30 1716 H 172.192 -4.782 -3.7968 0
M  V30 1717 H 173.606 -5.49352 -1.63968 0
M  V30 1718 H 172.003 -5.9214 -0.974178 0
M  V30 1719 H 173.073 -4.8487 -0.0536168 0
M  V30 1720 N 174.416 0.165178 -1.56732 0
M  V30 1721 C 175.832 0.517174 -1.50988 0
M  V30 1722 C 176.032 1.84331 -0.813894 0
M  V30 1723 O 175.088 2.49672 -0.37682 0
M  V30 1724 C 176.401 0.544261 -2.95733 0
M  V30 1725 C 177.949 0.631039 -3.06573 0
M  V30 1726 C 178.424 0.68896 -4.52788 0
M  V30 1727 N 179.915 0.751683 -4.5706 0
M  V30 1728 C 180.65 0.817177 -5.67547 0
M  V30 1729 N 180.146 0.843129 -6.8765 0
M  V30 1730 N 181.939 0.856668 -5.55534 0
M  V30 1731 H 174.09 -0.704318 -2.00382 0
M  V30 1732 H 176.353 -0.254687 -0.913148 0
M  V30 1733 H 176.059 -0.361607 -3.49836 0
M  V30 1734 H 175.933 1.3886 -3.5071 0
M  V30 1735 H 178.32 1.52733 -2.52501 0
M  V30 1736 H 178.401 -0.240095 -2.54671 0
M  V30 1737 H 178.045 -0.2031 -5.07494 0
M  V30 1738 H 177.975 1.57633 -5.02454 0
M  V30 1739 H 180.466 0.739661 -3.70591 0
M  V30 1740 H 180.779 0.894448 -7.67606 0
M  V30 1741 H 179.124 0.811304 -6.90248 0
M  V30 1742 H 182.315 0.833437 -4.60621 0
M  V30 1743 H 182.488 0.904247 -6.4166 0
M  V30 1744 N 175.894 1.51508 0.433938 0
M  V30 1745 C 177.171 1.54888 1.19453 0
M  V30 1746 C 177.551 0.315154 2.08734 0
M  V30 1747 O 176.899 -0.699558 2.17528 0
M  V30 1748 C 177.109 2.86467 1.99342 0
M  V30 1749 C 178.457 3.38545 2.56267 0
M  V30 1750 O 179.481 2.88041 2.0955 0
M  V30 1751 O 178.34 4.26675 3.41483 0
M  V30 1752 H 175.434 0.622863 0.544032 0
M  V30 1753 H 177.98 1.63823 0.442732 0
M  V30 1754 H 176.752 3.67718 1.33788 0
M  V30 1755 H 176.375 2.8071 2.8158 0
M  V30 1756 N 177.372 -0.689602 1.41712 0
M  V30 1757 C 178.335 -1.78521 1.43746 0
M  V30 1758 C 179.335 -1.57436 0.327191 0
M  V30 1759 O 180.525 -1.64 0.587348 0
M  V30 1760 C 177.657 -3.16971 1.25467 0
M  V30 1761 H 178.85 -1.78108 2.41283 0
M  V30 1762 H 176.403 -0.89781 1.27942 0
M  V30 1763 H 177.138 -3.23019 0.287948 0
M  V30 1764 H 176.923 -3.33678 2.05917 0
M  V30 1765 H 178.413 -3.96935 1.2974 0
M  V30 1766 N 178.85 -1.27639 -0.924453 0
M  V30 1767 C 179.78 -1.13166 -2.04244 0
M  V30 1768 C 180.761 -0.032256 -1.70069 0
M  V30 1769 O 181.946 -0.207328 -1.9309 0
M  V30 1770 C 179.076 -0.781496 -3.38393 0
M  V30 1771 C 178.03 -1.83449 -3.86692 0
M  V30 1772 C 177.356 -1.33822 -5.17683 0
M  V30 1773 C 178.656 -3.23917 -4.09726 0
M  V30 1774 H 180.35 -2.06689 -2.1661 0
M  V30 1775 H 177.896 -0.995136 -1.04082 0
M  V30 1776 H 179.849 -0.667057 -4.16087 0
M  V30 1777 H 178.573 0.189439 -3.2605 0
M  V30 1778 H 177.232 -1.93789 -3.11193 0
M  V30 1779 H 176.88 -0.35665 -5.01734 0
M  V30 1780 H 176.58 -2.04224 -5.50968 0
M  V30 1781 H 178.104 -1.23679 -5.97943 0
M  V30 1782 H 179.518 -3.16559 -4.77978 0
M  V30 1783 H 177.915 -3.92059 -4.54324 0
M  V30 1784 H 178.985 -3.68729 -3.14908 0
M  V30 1785 N 180.328 1.1314 -1.09713 0
M  V30 1786 C 181.605 1.80762 -0.747302 0
M  V30 1787 C 181.985 1.96663 0.767265 0
M  V30 1788 O 181.333 1.53706 1.69076 0
M  V30 1789 C 181.543 3.15606 -1.48975 0
M  V30 1790 C 182.891 3.90914 -1.65746 0
M  V30 1791 O 183.915 3.25239 -1.45251 0
M  V30 1792 O 182.774 5.08718 -1.9967 0
M  V30 1793 H 179.868 0.782103 -0.268782 0
M  V30 1794 H 182.414 1.20041 -1.19951 0
M  V30 1795 H 181.186 2.99278 -2.52088 0
M  V30 1796 H 180.809 3.84029 -1.02991 0
M  V30 1797 N 181.806 0.884767 1.30421 0
M  V30 1798 C 182.736 0.367574 2.30589 0
M  V30 1799 C 183.717 -0.549464 1.60981 0
M  V30 1800 O 184.902 -0.46336 1.88591 0
M  V30 1801 C 182.032 -0.418944 3.44764 0
M  V30 1802 C 180.986 0.406316 4.26067 0
M  V30 1803 C 180.312 -0.506793 5.32293 0
M  V30 1804 C 181.612 1.64832 4.95608 0
M  V30 1805 H 183.306 1.20462 2.74097 0
M  V30 1806 H 180.852 0.580695 1.31772 0
M  V30 1807 H 182.805 -0.791395 4.13902 0
M  V30 1808 H 181.529 -1.28964 3.0006 0
M  V30 1809 H 180.188 0.760903 3.58617 0
M  V30 1810 H 179.836 -1.37519 4.83836 0
M  V30 1811 H 179.536 0.0415828 5.87585 0
M  V30 1812 H 181.06 -0.875764 6.04287 0
M  V30 1813 H 182.474 1.34646 5.57264 0
M  V30 1814 H 180.871 2.13688 5.60765 0
M  V30 1815 H 181.941 2.39284 4.21748 0
M  V30 1816 N 183.284 -1.43765 0.645699 0
M  V30 1817 C 184.533 -2.01116 0.153412 0
M  V30 1818 C 184.846 -1.51493 -1.23731 0
M  V30 1819 O 186.052 -2.01067 -1.8244 0
M  V30 1820 C 184.508 -3.59206 0.223473 0
M  V30 1821 C 184.116 -4.17823 1.61642 0
M  V30 1822 C 185.86 -4.23972 -0.211597 0
M  V30 1823 C 183.767 -5.68183 1.64081 0
M  V30 1824 H 182.697 -0.752093 0.0535891 0
M  V30 1825 H 185.348 -1.6482 0.806633 0
M  V30 1826 H 183.73 -3.92867 -0.497118 0
M  V30 1827 H 184.904 -3.95674 2.36176 0
M  V30 1828 H 183.219 -3.65399 1.99681 0
M  V30 1829 H 185.816 -5.34275 -0.213112 0
M  V30 1830 H 186.159 -3.97352 -1.24165 0
M  V30 1831 H 186.692 -3.95166 0.456988 0
M  V30 1832 H 183.431 -5.99559 2.64971 0
M  V30 1833 H 182.951 -5.9241 0.938611 0
M  V30 1834 H 184.63 -6.32085 1.3812 0
M  V30 1835 N 184.763 -0.387143 -1.52771 0
M  V30 1836 C 185.673 0.456442 -2.30117 0
M  V30 1837 C 186.689 1.07342 -1.36944 0
M  V30 1838 O 187.865 1.07971 -1.70013 0
M  V30 1839 C 184.93 1.56957 -3.09136 0
M  V30 1840 C 183.991 0.977916 -4.18014 0
M  V30 1841 C 183.224 2.038 -4.93256 0
M  V30 1842 O 183.447 3.25271 -4.68567 0
M  V30 1843 O 182.381 1.6565 -5.78657 0
M  V30 1844 H 186.207 -0.17359 -3.03203 0
M  V30 1845 H 183.792 -0.150919 -1.48636 0
M  V30 1846 H 185.674 2.21628 -3.58412 0
M  V30 1847 H 184.349 2.18461 -2.38865 0
M  V30 1848 H 183.256 0.294525 -3.72939 0
M  V30 1849 H 184.589 0.407128 -4.90513 0
M  V30 1850 N 186.241 1.57166 -0.116904 0
M  V30 1851 C 187.204 2.14039 0.819742 0
M  V30 1852 C 188.204 1.07477 1.19605 0
M  V30 1853 O 189.394 1.33263 1.1219 0
M  V30 1854 C 186.526 2.67891 2.10826 0
M  V30 1855 H 187.719 2.98128 0.325511 0
M  V30 1856 H 185.272 1.55739 0.132312 0
M  V30 1857 H 186.007 1.87384 2.64685 0
M  V30 1858 H 185.792 3.45823 1.84793 0
M  V30 1859 H 187.282 3.11809 2.77785 0
M  V30 1860 N 187.719 -0.156864 1.56817 0
M  V30 1861 C 188.996 -0.899244 1.73704 0
M  V30 1862 C 189.376 -1.99771 0.682254 0
M  V30 1863 O 188.724 -2.26515 -0.300522 0
M  V30 1864 C 188.934 -1.45075 3.17418 0
M  V30 1865 C 190.282 -1.91802 3.7881 0
M  V30 1866 O 191.306 -1.54838 3.20786 0
M  V30 1867 O 190.165 -2.5994 4.80722 0
M  V30 1868 H 187.259 -0.424267 0.709878 0
M  V30 1869 H 189.805 -0.143561 1.69092 0
M  V30 1870 H 188.577 -0.660846 3.85679 0
M  V30 1871 H 188.2 -2.27021 3.26416 0
M  V30 1872 N 189.197 -1.51736 -0.425897 0
M  V30 1873 C 190.127 -1.76827 -1.52494 0
M  V30 1874 C 191.108 -0.618524 -1.58456 0
M  V30 1875 O 192.293 -0.862416 -1.74 0
M  V30 1876 C 189.423 -1.90374 -2.90474 0
M  V30 1877 C 188.377 -3.0588 -2.99369 0
M  V30 1878 C 187.703 -3.04625 -4.3944 0
M  V30 1879 C 189.003 -4.45644 -2.72394 0
M  V30 1880 H 190.697 -2.68855 -1.31748 0
M  V30 1881 H 188.243 -1.29372 -0.632362 0
M  V30 1882 H 190.196 -2.0651 -3.6733 0
M  V30 1883 H 188.92 -0.95004 -3.12477 0
M  V30 1884 H 187.579 -2.89467 -2.24954 0
M  V30 1885 H 187.227 -2.0701 -4.58428 0
M  V30 1886 H 186.927 -3.82195 -4.46319 0
M  V30 1887 H 188.451 -3.22869 -5.18255 0
M  V30 1888 H 189.865 -4.62348 -3.38979 0
M  V30 1889 H 188.262 -5.25006 -2.9067 0
M  V30 1890 H 189.332 -4.54893 -1.67929 0
M  V30 1891 N 190.675 0.682077 -1.42076 0
M  V30 1892 C 191.923 1.4393 -1.41876 0
M  V30 1893 C 192.244 1.94971 -0.0335599 0
M  V30 1894 O 191.514 1.72591 0.926773 0
M  V30 1895 H 190.094 0.534085 -0.522267 0
M  V30 1896 H 192.756 0.806427 -1.77434 0
M  V30 1897 H 191.852 2.29588 -2.11414 0
M  V30 1898 N 192.153 1.28127 0.917671 0
M  V30 1899 C 193.1 1.11717 2.0196 0
M  V30 1900 C 194.07 0.0153929 1.66093 0
M  V30 1901 O 195.255 0.179596 1.89953 0
M  V30 1902 C 192.395 0.780927 3.36148 0
M  V30 1903 C 191.508 1.96135 3.84909 0
M  V30 1904 C 190.643 1.56609 5.0759 0
M  V30 1905 C 189.682 2.71339 5.48673 0
M  V30 1906 N 188.819 2.32332 6.62545 0
M  V30 1907 H 193.659 2.06003 2.15329 0
M  V30 1908 H 191.196 1.02535 1.05475 0
M  V30 1909 H 193.154 0.56675 4.13333 0
M  V30 1910 H 191.784 -0.124998 3.22558 0
M  V30 1911 H 190.836 2.28777 3.03916 0
M  V30 1912 H 192.148 2.82165 4.1132 0
M  V30 1913 H 191.302 1.31374 5.92305 0
M  V30 1914 H 190.041 0.677014 4.82978 0
M  V30 1915 H 189.046 2.97276 4.62501 0
M  V30 1916 H 190.271 3.60882 5.75274 0
M  V30 1917 H 188.217 1.45889 6.39572 0
M  V30 1918 H 188.134 3.11899 6.88662 0
M  V30 1919 H 189.402 2.10371 7.50576 0
M  V30 1920 N 193.631 -1.12557 1.10312 0
M  V30 1921 C 194.561 -2.20341 0.772798 0
M  V30 1922 C 195.542 -1.68198 -0.25365 0
M  V30 1923 O 196.727 -1.93831 -0.119699 0
M  V30 1924 C 193.857 -3.46709 0.202443 0
M  V30 1925 C 192.811 -4.11996 1.15943 0
M  V30 1926 C 192.137 -5.328 0.450345 0
M  V30 1927 C 193.437 -4.5828 2.50552 0
M  V30 1928 H 195.131 -2.48229 1.674 0
M  V30 1929 H 192.677 -1.19308 0.806326 0
M  V30 1930 H 194.63 -4.2138 -0.0407752 0
M  V30 1931 H 193.354 -3.18245 -0.734001 0
M  V30 1932 H 192.013 -3.39305 1.38808 0
M  V30 1933 H 191.661 -5.00602 -0.490531 0
M  V30 1934 H 191.361 -5.7743 1.08851 0
M  V30 1935 H 192.885 -6.10219 0.215642 0
M  V30 1936 H 194.299 -5.2433 2.31843 0
M  V30 1937 H 192.696 -5.13683 3.10242 0
M  V30 1938 H 193.766 -3.72329 3.10643 0
M  V30 1939 N 195.109 -0.891671 -1.2995 0
M  V30 1940 C 196.072 -0.36828 -2.26222 0
M  V30 1941 C 197.072 0.493014 -1.53056 0
M  V30 1942 O 198.262 0.299213 -1.71611 0
M  V30 1943 C 195.394 0.47442 -3.37583 0
M  V30 1944 H 196.587 -1.21844 -2.74033 0
M  V30 1945 H 194.14 -0.669107 -1.41254 0
M  V30 1946 H 194.875 1.34489 -2.95099 0
M  V30 1947 H 194.66 -0.142615 -3.91841 0
M  V30 1948 H 196.15 0.83218 -4.09224 0
M  V30 1949 N 196.587 1.43421 -0.653314 0
M  V30 1950 C 197.864 1.95361 -0.0966581 0
M  V30 1951 C 198.244 1.59461 1.38331 0
M  V30 1952 O 197.592 0.879777 2.10884 0
M  V30 1953 C 197.802 3.47311 -0.342988 0
M  V30 1954 C 199.15 4.23875 -0.24798 0
M  V30 1955 O 200.174 3.55133 -0.275553 0
M  V30 1956 O 199.033 5.4623 -0.171771 0
M  V30 1957 H 196.127 0.826945 0.00956291 0
M  V30 1958 H 198.673 1.5336 -0.726558 0
M  V30 1959 H 197.445 3.66569 -1.36906 0
M  V30 1960 H 197.068 3.9631 0.319975 0
M  V30 1961 N 198.065 0.39524 1.52563 0
M  V30 1962 C 199.293 -0.184943 2.06072 0
M  V30 1963 C 199.708 -1.40021 1.26647 0
M  V30 1964 O 199.065 -1.79767 0.314672 0
M  V30 1965 C 199.116 -0.549179 3.57304 0
M  V30 1966 O 198.837 0.617813 4.33722 0
M  V30 1967 C 200.338 -1.18459 4.2718 0
M  V30 1968 H 197.558 -0.0265025 0.670476 0
M  V30 1969 H 200.102 0.562184 1.96621 0
M  V30 1970 H 198.257 -1.2462 3.66809 0
M  V30 1971 H 198.671 0.317091 5.23541 0
M  V30 1972 H 200.145 -1.38976 5.34219 0
M  V30 1973 H 200.622 -2.15368 3.82771 0
M  V30 1974 H 201.228 -0.528163 4.22008 0
M  V30 1975 N 199.544 -1.57102 0.125237 0
M  V30 1976 C 200.474 -2.18659 -0.819174 0
M  V30 1977 C 201.455 -1.12843 -1.27281 0
M  V30 1978 O 202.64 -1.41104 -1.33429 0
M  V30 1979 C 199.77 -2.79096 -2.06695 0
M  V30 1980 C 198.724 -3.90548 -1.75088 0
M  V30 1981 C 198.05 -4.37821 -3.06948 0
M  V30 1982 C 199.35 -5.12356 -1.01435 0
M  V30 1983 H 201.044 -2.9783 -0.306202 0
M  V30 1984 H 198.59 -1.4326 -0.145839 0
M  V30 1985 H 200.543 -3.2082 -2.73226 0
M  V30 1986 H 199.267 -1.97223 -2.60328 0
M  V30 1987 H 197.926 -3.49409 -1.10944 0
M  V30 1988 H 197.574 -3.52799 -3.58527 0
M  V30 1989 H 197.274 -5.12982 -2.86571 0
M  V30 1990 H 198.798 -4.822 -3.74587 0
M  V30 1991 H 200.212 -5.5106 -1.58132 0
M  V30 1992 H 198.609 -5.9314 -0.911319 0
M  V30 1993 H 199.679 -4.849 -0.00218681 0
M  V30 1994 N 201.022 0.148545 -1.56898 0
M  V30 1995 C 202.247 0.880385 -1.87787 0
M  V30 1996 C 202.672 1.74018 -0.714093 0
M  V30 1997 O 202.03 1.78153 0.336343 0
M  V30 1998 C 202.078 1.71422 -3.17249 0
M  V30 1999 O 201.182 2.8183 -3.01074 0
M  V30 2000 H 200.523 0.245301 -0.617028 0
M  V30 2001 H 203.053 0.139826 -2.04122 0
M  V30 2002 H 203.063 2.10954 -3.49231 0
M  V30 2003 H 201.738 1.08284 -4.01556 0
M  V30 2004 H 200.315 2.45715 -2.80497 0
M  V30 2005 N 202.5 1.5196 0.417844 0
M  V30 2006 C 203.432 1.70895 1.52733 0
M  V30 2007 C 204.445 0.589405 1.51756 0
M  V30 2008 O 205.634 0.864312 1.56179 0
M  V30 2009 C 202.734 1.72627 2.91639 0
M  V30 2010 C 201.907 3.01479 3.16905 0
M  V30 2011 C 200.966 2.95139 4.35637 0
M  V30 2012 O 199.992 3.69059 4.3334 0
M  V30 2013 N 201.194 2.12328 5.40275 0
M  V30 2014 H 203.959 2.66612 1.36888 0
M  V30 2015 H 201.52 1.50089 0.607037 0
M  V30 2016 H 203.512 1.65928 3.6912 0
M  V30 2017 H 202.082 0.844216 3.00985 0
M  V30 2018 H 201.302 3.21895 2.27546 0
M  V30 2019 H 202.59 3.86736 3.30625 0
M  V30 2020 H 201.988 1.51685 5.44985 0
M  V30 2021 H 200.545 2.11494 6.16534 0
M  V30 2022 N 203.978 -0.674533 1.42435 0
M  V30 2023 C 204.91 -1.80005 1.41883 0
M  V30 2024 C 205.923 -1.59667 0.31787 0
M  V30 2025 O 207.112 -1.68781 0.580973 0
M  V30 2026 C 204.212 -3.17114 1.19549 0
M  V30 2027 C 203.385 -3.64299 2.42084 0
M  V30 2028 C 202.444 -4.80142 2.15291 0
M  V30 2029 O 201.47 -4.90673 2.88493 0
M  V30 2030 N 202.672 -5.68869 1.1562 0
M  V30 2031 H 205.437 -1.80964 2.38898 0
M  V30 2032 H 202.998 -0.857633 1.37318 0
M  V30 2033 H 204.99 -3.92267 0.995417 0
M  V30 2034 H 203.56 -3.11053 0.310569 0
M  V30 2035 H 202.78 -2.79822 2.77657 0
M  V30 2036 H 204.068 -3.92567 3.23679 0
M  V30 2037 H 203.466 -5.63012 0.550765 0
M  V30 2038 H 202.023 -6.43833 1.016 0
M  V30 2039 N 205.456 -1.28612 -0.910864 0
M  V30 2040 C 206.419 -1.12803 -1.9952 0
M  V30 2041 C 207.419 -0.0668264 -1.60661 0
M  V30 2042 O 208.609 -0.312847 -1.71368 0
M  V30 2043 C 205.741 -0.72254 -3.33155 0
M  V30 2044 H 206.934 -2.09109 -2.14973 0
M  V30 2045 H 204.487 -1.11639 -1.09391 0
M  V30 2046 H 205.222 0.241152 -3.23402 0
M  V30 2047 H 205.007 -1.48916 -3.62721 0
M  V30 2048 H 206.497 -0.634666 -4.12749 0
M  V30 2049 N 206.934 1.1197 -1.10907 0
M  V30 2050 C 207.864 2.19928 -0.784473 0
M  V30 2051 C 208.845 1.6833 0.244726 0
M  V30 2052 O 210.03 1.93892 0.109418 0
M  V30 2053 C 207.16 3.46597 -0.220827 0
M  V30 2054 C 206.114 4.11376 -1.18127 0
M  V30 2055 C 205.44 5.32554 -0.478594 0
M  V30 2056 C 206.74 4.56945 -2.52979 0
M  V30 2057 H 208.434 2.47337 -1.68715 0
M  V30 2058 H 205.98 1.18879 -0.812642 0
M  V30 2059 H 207.933 4.21396 0.0184278 0
M  V30 2060 H 206.657 3.1863 0.717113 0
M  V30 2061 H 205.316 3.38564 -1.40606 0
M  V30 2062 H 204.964 5.00856 0.463976 0
M  V30 2063 H 204.664 5.76844 -1.11912 0
M  V30 2064 H 206.188 6.10096 -0.248 0
M  V30 2065 H 207.602 5.23093 -2.3462 0
M  V30 2066 H 205.999 5.1203 -3.12962 0
M  V30 2067 H 207.069 3.70676 -3.12614 0
M  V30 2068 N 208.412 0.89855 1.29475 0
M  V30 2069 C 209.359 0.373819 2.27753 0
M  V30 2070 C 210.329 -0.543444 1.56958 0
M  V30 2071 O 211.514 -0.468934 1.84948 0
M  V30 2072 C 208.654 -0.393648 3.42848 0
M  V30 2073 C 207.767 0.554379 4.28428 0
M  V30 2074 C 206.902 -0.230026 5.30702 0
M  V30 2075 C 205.941 0.712599 6.07938 0
M  V30 2076 N 205.078 -0.0373283 7.0209 0
M  V30 2077 H 209.918 1.21699 2.72017 0
M  V30 2078 H 207.455 0.611456 1.33789 0
M  V30 2079 H 209.413 -0.85466 4.08352 0
M  V30 2080 H 208.043 -1.20128 2.99615 0
M  V30 2081 H 207.095 1.13391 3.63107 0
M  V30 2082 H 208.407 1.27597 4.82204 0
M  V30 2083 H 207.561 -0.752288 6.02018 0
M  V30 2084 H 206.3 -0.984758 4.77654 0
M  V30 2085 H 205.305 1.24637 5.35486 0
M  V30 2086 H 206.53 1.46664 6.63074 0
M  V30 2087 H 204.476 -0.774348 6.51414 0
M  V30 2088 H 204.393 0.624374 7.53417 0
M  V30 2089 H 205.661 -0.539891 7.77628 0
M  V30 2090 N 209.89 -1.43072 0.660911 0
M  V30 2091 C 210.84 -2.27948 -0.04847 0
M  V30 2092 C 211.824 -1.40325 -0.787246 0
M  V30 2093 O 213.016 -1.63893 -0.668446 0
M  V30 2094 C 210.145 -3.28143 -1.00881 0
M  V30 2095 C 209.231 -4.23252 -0.268108 0
M  V30 2096 N 209.622 -5.00656 0.719528 0
M  V30 2097 C 207.92 -4.43092 -0.508493 0
M  V30 2098 C 208.621 -5.70019 1.15988 0
M  V30 2099 N 207.597 -5.41364 0.492584 0
M  V30 2100 H 211.399 -2.85213 0.709279 0
M  V30 2101 H 208.913 -1.54869 0.488822 0
M  V30 2102 H 210.91 -3.87736 -1.53188 0
M  V30 2103 H 209.57 -2.7244 -1.76654 0
M  V30 2104 H 210.581 -5.06115 1.09855 0
M  V30 2105 H 207.258 -3.98449 -1.24679 0
M  V30 2106 H 208.648 -6.4214 1.97751 0
M  V30 2107 N 211.368 -0.403325 -1.52352 0
M  V30 2108 C 212.331 0.413051 -2.25447 0
M  V30 2109 C 213.331 0.978513 -1.276 0
M  V30 2110 O 214.521 0.858305 -1.51587 0
M  V30 2111 C 211.653 1.58087 -3.02029 0
M  V30 2112 H 212.846 -0.227094 -2.99039 0
M  V30 2113 H 210.399 -0.155722 -1.55522 0
M  V30 2114 H 211.134 2.25804 -2.32772 0
M  V30 2115 H 210.919 1.18195 -3.73861 0
M  V30 2116 H 212.409 2.1585 -3.57489 0
M  V30 2117 N 212.846 1.57033 -0.133567 0
M  V30 2118 C 214.123 1.87256 0.56522 0
M  V30 2119 C 214.503 1.03726 1.83859 0
M  V30 2120 O 213.851 0.120247 2.28183 0
M  V30 2121 C 214.061 3.3865 0.843636 0
M  V30 2122 C 215.409 4.07574 1.19032 0
M  V30 2123 O 216.433 3.43752 0.933429 0
M  V30 2124 O 215.292 5.20259 1.67312 0
M  V30 2125 H 212.386 0.775678 0.286796 0
M  V30 2126 H 214.932 1.68855 -0.169168 0
M  V30 2127 H 213.704 3.91257 -0.0581149 0
M  V30 2128 H 213.327 3.62532 1.63268 0
M  V30 2129 N 214.325 -0.140222 1.56975 0
M  V30 2130 C 215.553 -0.866437 1.87884 0
M  V30 2131 C 215.968 -1.74428 0.722517 0
M  V30 2132 O 215.325 -1.79891 -0.30749 0
M  V30 2133 C 215.376 -1.71753 3.18093 0
M  V30 2134 O 215.097 -0.875056 4.29272 0
M  V30 2135 C 216.598 -2.55074 3.62563 0
M  V30 2136 H 213.818 -0.25019 0.622612 0
M  V30 2137 H 216.362 -0.130977 2.0408 0
M  V30 2138 H 214.517 -2.40598 3.03631 0
M  V30 2139 H 214.931 -1.46002 5.03769 0
M  V30 2140 H 216.405 -3.10356 4.5649 0
M  V30 2141 H 216.882 -3.31434 2.88181 0
M  V30 2142 H 217.488 -1.91509 3.79743 0
M  V30 2143 N 215.803 -1.52179 -0.40978 0
M  V30 2144 C 217.214 -1.58377 -0.988615 0
M  V30 2145 C 217.565 -0.423879 -1.91566 0
M  V30 2146 O 216.69 0.455844 -2.11544 0
M  V30 2147 C 217.285 -2.87044 -1.79976 0
M  V30 2148 C 215.844 -2.95722 -2.32863 0
M  V30 2149 C 214.991 -2.53309 -1.12828 0
M  V30 2150 H 217.942 -1.57558 -0.190039 0
M  V30 2151 H 217.963 -2.7236 -2.65707 0
M  V30 2152 H 217.475 -3.71444 -1.12478 0
M  V30 2153 H 215.576 -2.15814 -3.03735 0
M  V30 2154 H 215.689 -3.99951 -2.63773 0
M  V30 2155 H 214.053 -2.07142 -1.48204 0
M  V30 2156 H 214.836 -3.40082 -0.46897 0
M  V30 2157 N 217.281 0.66697 -1.42791 0
M  V30 2158 C 218.214 1.79177 -1.41318 0
M  V30 2159 C 219.192 1.60234 -0.276401 0
M  V30 2160 O 220.376 1.82602 -0.46785 0
M  V30 2161 C 217.503 3.16289 -1.21157 0
M  V30 2162 C 216.549 3.53964 -2.37932 0
M  V30 2163 S 217.382 3.55501 -4.00474 0
M  V30 2164 C 218.538 4.95292 -3.8267 0
M  V30 2165 H 218.771 1.80153 -2.365 0
M  V30 2166 H 216.304 0.838357 -1.29657 0
M  V30 2167 H 218.262 3.95428 -1.10212 0
M  V30 2168 H 216.923 3.1289 -0.275481 0
M  V30 2169 H 216.116 4.53646 -2.19594 0
M  V30 2170 H 215.718 2.82204 -2.45432 0
M  V30 2171 H 218.01 5.83584 -3.44145 0
M  V30 2172 H 218.953 5.18679 -4.82055 0
M  V30 2173 H 219.361 4.68179 -3.15386 0
M  V30 2174 N 218.759 1.29093 0.90403 0
M  V30 2175 C 220.005 1.16986 1.65656 0
M  V30 2176 C 220.338 -0.278925 1.92186 0
M  V30 2177 O 219.613 -1.2019 1.5292 0
M  V30 2178 C 219.896 1.97908 3.0084 0
M  V30 2179 C 219.749 3.50903 2.81403 0
M  V30 2180 C 221.068 1.80208 4.01513 0
M  V30 2181 H 218.187 0.426346 0.601164 0
M  V30 2182 H 220.829 1.58518 1.04747 0
M  V30 2183 H 218.979 1.62616 3.52829 0
M  V30 2184 H 220.651 3.96153 2.36348 0
M  V30 2185 H 218.894 3.76045 2.1627 0
M  V30 2186 H 219.565 4.02791 3.77443 0
M  V30 2187 H 222.041 2.11025 3.58619 0
M  V30 2188 H 220.917 2.39184 4.94047 0
M  V30 2189 H 221.178 0.756119 4.35586 0
M  V30 2190 N 220.237 -1.11381 1.11499 0
M  V30 2191 C 221.485 -1.8277 0.862524 0
M  V30 2192 C 221.806 -1.85097 -0.613534 0
M  V30 2193 O 221.076 -1.32198 -1.4457 0
M  V30 2194 H 219.656 -0.676823 0.316101 0
M  V30 2195 H 222.318 -1.34816 1.4075 0
M  V30 2196 H 221.414 -2.86614 1.23527 0
M  V30 2197 N 221.715 -0.905404 -1.28997 0
M  V30 2198 C 223.131 -0.60233 -1.47798 0
M  V30 2199 C 223.331 0.854645 -1.82478 0
M  V30 2200 O 222.387 1.63439 -1.92468 0
M  V30 2201 C 223.7 -1.53306 -2.58685 0
M  V30 2202 C 225.248 -1.53887 -2.72558 0
M  V30 2203 C 225.723 -2.45602 -3.86579 0
M  V30 2204 N 227.214 -2.43681 -3.93921 0
M  V30 2205 C 227.949 -3.11347 -4.81509 0
M  V30 2206 N 227.445 -3.88313 -5.73746 0
M  V30 2207 N 229.238 -3.00476 -4.75048 0
M  V30 2208 H 221.389 -1.84765 -1.04764 0
M  V30 2209 H 223.652 -0.792025 -0.520961 0
M  V30 2210 H 223.358 -2.57141 -2.39941 0
M  V30 2211 H 223.232 -1.25787 -3.55609 0
M  V30 2212 H 225.619 -0.507941 -2.90696 0
M  V30 2213 H 225.7 -1.85447 -1.76191 0
M  V30 2214 H 225.344 -3.48792 -3.69197 0
M  V30 2215 H 225.274 -2.11349 -4.82327 0
M  V30 2216 H 227.765 -1.87767 -3.27951 0
M  V30 2217 H 228.078 -4.36985 -6.37389 0
M  V30 2218 H 226.423 -3.92419 -5.73614 0
M  V30 2219 H 229.614 -2.39858 -4.01977 0
M  V30 2220 H 229.787 -3.53485 -5.43095 0
M  V30 2221 N 223.193 1.4272 -0.668489 0
M  V30 2222 C 224.421 2.05966 -0.196348 0
M  V30 2223 C 224.836 1.50191 1.14403 0
M  V30 2224 O 224.193 0.639208 1.7094 0
M  V30 2225 C 224.244 3.61314 -0.115815 0
M  V30 2226 O 223.965 4.1502 -1.40322 0
M  V30 2227 C 225.466 4.41663 0.380579 0
M  V30 2228 H 222.686 0.663954 -0.0969829 0
M  V30 2229 H 225.23 1.82966 -0.913446 0
M  V30 2230 H 223.385 3.83448 0.551931 0
M  V30 2231 H 223.799 5.08832 -1.27243 0
M  V30 2232 H 225.273 5.5065 0.385848 0
M  V30 2233 H 225.75 4.15792 1.41471 0
M  V30 2234 H 226.356 4.24534 -0.255209 0
M  V30 2235 N 224.671 0.411399 1.52136 0
M  V30 2236 C 225.917 -0.156262 2.02799 0
M  V30 2237 C 226.272 -1.42613 1.29149 0
M  V30 2238 O 225.565 -1.87592 0.389839 0
M  V30 2239 C 225.759 -0.455872 3.54481 0
M  V30 2240 C 225.588 0.783404 4.42824 0
M  V30 2241 C 224.358 1.30928 4.88043 0
M  V30 2242 C 226.556 1.66217 4.86699 0
M  V30 2243 N 224.538 2.5038 5.6052 0
M  V30 2244 C 225.909 2.70292 5.5798 0
M  V30 2245 C 227.964 1.67966 4.68713 0
M  V30 2246 C 226.667 3.7603 6.13184 0
M  V30 2247 C 228.693 2.72624 5.24815 0
M  V30 2248 C 228.055 3.7542 5.9602 0
M  V30 2249 H 224.154 -0.0186886 0.781777 0
M  V30 2250 H 226.738 0.566255 1.86284 0
M  V30 2251 H 224.909 -1.14743 3.71064 0
M  V30 2252 H 226.641 -1.01261 3.91827 0
M  V30 2253 H 223.396 0.866977 4.65597 0
M  V30 2254 H 223.82 3.10881 6.014 0
M  V30 2255 H 228.462 0.898312 4.13147 0
M  V30 2256 H 226.18 4.55019 6.6782 0
M  V30 2257 H 229.766 2.74887 5.12765 0
M  V30 2258 H 228.646 4.55073 6.38654 0
M  V30 2259 N 226.149 -1.5696 0.141893 0
M  V30 2260 C 227.079 -2.19516 -0.795936 0
M  V30 2261 C 228.06 -1.14187 -1.26077 0
M  V30 2262 O 229.245 -1.42511 -1.31925 0
M  V30 2263 C 226.375 -2.81272 -2.03723 0
M  V30 2264 C 225.329 -3.92384 -1.70936 0
M  V30 2265 C 224.655 -4.41052 -3.02287 0
M  V30 2266 C 225.955 -5.13403 -0.959954 0
M  V30 2267 H 227.649 -2.98138 -0.274596 0
M  V30 2268 H 225.195 -1.43406 -0.130636 0
M  V30 2269 H 227.148 -3.237 -2.69808 0
M  V30 2270 H 225.872 -1.99973 -2.58221 0
M  V30 2271 H 224.531 -3.50566 -1.07232 0
M  V30 2272 H 224.179 -3.56582 -3.54765 0
M  V30 2273 H 223.879 -5.15993 -2.81114 0
M  V30 2274 H 225.403 -4.86146 -3.69451 0
M  V30 2275 H 226.817 -5.52706 -1.52279 0
M  V30 2276 H 225.214 -5.94073 -0.848357 0
M  V30 2277 H 226.284 -4.84875 0.0492434 0
M  V30 2278 N 227.627 0.131896 -1.57047 0
M  V30 2279 C 228.559 1.1878 -1.9602 0
M  V30 2280 C 229.572 1.38363 -0.857875 0
M  V30 2281 O 230.761 1.37666 -1.13623 0
M  V30 2282 C 227.861 2.55008 -2.23213 0
M  V30 2283 C 227.034 2.56201 -3.54513 0
M  V30 2284 C 226.093 3.7408 -3.70069 0
M  V30 2285 O 225.119 3.58258 -4.42312 0
M  V30 2286 N 226.321 4.92137 -3.07866 0
M  V30 2287 H 229.086 0.85639 -2.87204 0
M  V30 2288 H 226.647 0.321309 -1.5868 0
M  V30 2289 H 228.639 3.32404 -2.30846 0
M  V30 2290 H 227.209 2.80382 -1.3822 0
M  V30 2291 H 226.429 1.64613 -3.58185 0
M  V30 2292 H 227.717 2.54043 -4.4084 0
M  V30 2293 H 227.115 5.07895 -2.49116 0
M  V30 2294 H 225.672 5.67254 -3.21039 0
M  V30 2295 N 229.106 1.52395 0.401703 0
M  V30 2296 C 230.056 1.72649 1.48917 0
M  V30 2297 C 231.04 0.580436 1.50066 0
M  V30 2298 O 232.232 0.83779 1.55917 0
M  V30 2299 C 229.361 1.88729 2.86769 0
M  V30 2300 C 228.447 3.09228 2.90239 0
M  V30 2301 N 228.838 4.31805 2.63396 0
M  V30 2302 C 227.136 3.09214 3.21408 0
M  V30 2303 C 227.837 5.13326 2.73625 0
M  V30 2304 N 226.813 4.48735 3.06819 0
M  V30 2305 H 230.615 2.65058 1.26971 0
M  V30 2306 H 228.129 1.50528 0.609504 0
M  V30 2307 H 230.126 2.01358 3.65049 0
M  V30 2308 H 228.786 0.975252 3.09708 0
M  V30 2309 H 229.797 4.60154 2.37653 0
M  V30 2310 H 226.474 2.27774 3.49893 0
M  V30 2311 H 227.864 6.21003 2.56524 0
M  V30 2312 N 230.584 -0.659388 1.43143 0
M  V30 2313 C 231.547 -1.75432 1.47501 0
M  V30 2314 C 232.547 -1.56707 0.360512 0
M  V30 2315 O 233.737 -1.62717 0.622002 0
M  V30 2316 C 230.869 -3.14239 1.32162 0
M  V30 2317 H 232.062 -1.7295 2.45006 0
M  V30 2318 H 229.615 -0.870469 1.29817 0
M  V30 2319 H 230.35 -3.22336 0.356401 0
M  V30 2320 H 230.135 -3.29235 2.12948 0
M  V30 2321 H 231.625 -3.94094 1.3813 0
M  V30 2322 N 232.062 -1.29571 -0.897171 0
M  V30 2323 C 233.29 -1.20583 -1.68129 0
M  V30 2324 C 233.705 0.233181 -1.87354 0
M  V30 2325 O 233.062 1.15579 -1.41236 0
M  V30 2326 C 233.113 -1.91772 -3.06441 0
M  V30 2327 O 232.834 -3.30053 -2.88091 0
M  V30 2328 C 234.335 -1.89291 -4.00854 0
M  V30 2329 H 231.555 -0.417826 -0.525036 0
M  V30 2330 H 234.099 -1.70987 -1.12177 0
M  V30 2331 H 232.254 -1.45196 -3.59161 0
M  V30 2332 H 232.668 -3.65942 -3.75748 0
M  V30 2333 H 234.142 -2.43662 -4.95311 0
M  V30 2334 H 234.619 -0.869014 -4.30517 0
M  V30 2335 H 235.225 -2.35622 -3.54066 0
M  V30 2336 N 233.54 1.10788 -1.12088 0
M  V30 2337 C 234.951 1.64181 -0.88891 0
M  V30 2338 C 235.302 1.87508 0.577498 0
M  V30 2339 O 234.427 1.61434 1.44112 0
M  V30 2340 C 235.022 2.98257 -1.60712 0
M  V30 2341 C 233.581 3.4853 -1.42139 0
M  V30 2342 C 232.728 2.23208 -1.6454 0
M  V30 2343 H 235.679 0.943368 -1.27618 0
M  V30 2344 H 235.7 3.65552 -1.05604 0
M  V30 2345 H 235.212 2.81246 -2.67436 0
M  V30 2346 H 233.313 3.70692 -0.376552 0
M  V30 2347 H 233.426 4.26882 -2.17505 0
M  V30 2348 H 231.79 2.31169 -1.06925 0
M  V30 2349 H 232.573 2.08733 -2.72554 0
M  V30 2350 N 235.018 0.912232 1.28515 0
M  V30 2351 C 236.264 0.545405 1.95328 0
M  V30 2352 C 236.597 -0.908313 1.71649 0
M  V30 2353 O 235.872 -1.64575 1.03659 0
M  V30 2354 C 236.155 0.853483 3.4984 0
M  V30 2355 C 236.008 2.35982 3.82926 0
M  V30 2356 C 237.327 0.348589 4.38717 0
M  V30 2357 H 234.446 0.199626 0.709449 0
M  V30 2358 H 237.088 1.1412 1.5191 0
M  V30 2359 H 235.238 0.34643 3.86952 0
M  V30 2360 H 236.91 2.93738 3.55691 0
M  V30 2361 H 235.153 2.81543 3.30024 0
M  V30 2362 H 235.824 2.52593 4.90816 0
M  V30 2363 H 238.3 0.78294 4.08668 0
M  V30 2364 H 237.176 0.593242 5.45685 0
M  V30 2365 H 237.437 -0.751049 4.35674 0
M  V30 2366 N 236.496 -1.42363 0.676048 0
M  V30 2367 C 237.724 -2.05859 0.207268 0
M  V30 2368 C 238.139 -1.50796 -1.13605 0
M  V30 2369 O 237.496 -0.648265 -1.70598 0
M  V30 2370 C 237.547 -3.61248 0.134975 0
M  V30 2371 O 237.268 -4.1427 1.42521 0
M  V30 2372 C 238.769 -4.41859 -0.357151 0
M  V30 2373 H 235.989 -0.663431 0.100503 0
M  V30 2374 H 238.533 -1.82479 0.923136 0
M  V30 2375 H 236.688 -3.83735 -0.531588 0
M  V30 2376 H 237.102 -5.0815 1.29939 0
M  V30 2377 H 238.576 -5.50847 -0.356641 0
M  V30 2378 H 239.053 -4.16536 -1.39264 0
M  V30 2379 H 239.659 -4.24392 0.27772 0
M  V30 2380 N 237.974 -0.419461 -1.51915 0
M  V30 2381 C 238.904 0.391813 -2.30189 0
M  V30 2382 C 239.885 1.03699 -1.34836 0
M  V30 2383 O 241.07 1.04403 -1.63748 0
M  V30 2384 C 238.2 1.50312 -3.13087 0
M  V30 2385 C 237.154 0.9824 -4.16573 0
M  V30 2386 C 236.48 2.18809 -4.8788 0
M  V30 2387 C 237.78 0.0292356 -5.22292 0
M  V30 2388 H 239.474 -0.26135 -2.98257 0
M  V30 2389 H 237.02 -0.127134 -1.43438 0
M  V30 2390 H 238.973 2.07773 -3.66617 0
M  V30 2391 H 237.697 2.18431 -2.42807 0
M  V30 2392 H 236.356 0.430119 -3.64068 0
M  V30 2393 H 236.004 2.85507 -4.14119 0
M  V30 2394 H 235.704 1.84615 -5.57845 0
M  V30 2395 H 237.228 2.76858 -5.44226 0
M  V30 2396 H 238.642 0.512976 -5.71 0
M  V30 2397 H 237.039 -0.2244 -5.9968 0
M  V30 2398 H 238.109 -0.912931 -4.76228 0
M  V30 2399 N 239.452 1.56882 -0.150215 0
M  V30 2400 C 240.7 1.9584 0.499105 0
M  V30 2401 C 241.021 1.03623 1.65188 0
M  V30 2402 O 240.291 0.0984084 1.95653 0
M  V30 2403 H 238.871 0.723119 0.187373 0
M  V30 2404 H 241.533 1.9358 -0.226466 0
M  V30 2405 H 240.629 2.99638 0.873122 0
M  V30 2406 N 240.93 -0.123565 1.57115 0
M  V30 2407 C 241.863 -1.18202 1.95201 0
M  V30 2408 C 242.841 -1.40349 0.821031 0
M  V30 2409 O 244.025 -1.54578 1.07879 0
M  V30 2410 C 241.152 -2.53671 2.24429 0
M  V30 2411 C 240.198 -2.4798 3.46999 0
M  V30 2412 S 241.031 -1.92389 4.99747 0
M  V30 2413 C 242.187 -3.2954 5.32123 0
M  V30 2414 H 242.42 -0.857212 2.84674 0
M  V30 2415 H 239.953 -0.33014 1.50829 0
M  V30 2416 H 241.911 -3.3162 2.41947 0
M  V30 2417 H 240.572 -2.83332 1.35579 0
M  V30 2418 H 239.765 -3.47758 3.64801 0
M  V30 2419 H 239.367 -1.7815 3.28844 0
M  V30 2420 H 241.659 -4.25736 5.27025 0
M  V30 2421 H 242.602 -3.16569 6.33395 0
M  V30 2422 H 243.01 -3.27758 4.59603 0
M  V30 2423 N 242.408 -1.52605 -0.393616 0
M  V30 2424 C 243.355 -1.77055 -1.48054 0
M  V30 2425 C 244.325 -0.61358 -1.54352 0
M  V30 2426 O 245.51 -0.852806 -1.70681 0
M  V30 2427 C 242.65 -1.94108 -2.85335 0
M  V30 2428 C 241.763 -3.21792 -2.88226 0
M  V30 2429 C 240.898 -3.29188 -4.16904 0
M  V30 2430 C 239.937 -4.51013 -4.13828 0
M  V30 2431 N 239.074 -4.55716 -5.34105 0
M  V30 2432 H 243.914 -2.69815 -1.26506 0
M  V30 2433 H 241.451 -1.33683 -0.61379 0
M  V30 2434 H 243.409 -2.01979 -3.65049 0
M  V30 2435 H 242.039 -1.04713 -3.05344 0
M  V30 2436 H 241.091 -3.23015 -2.00911 0
M  V30 2437 H 242.403 -4.11557 -2.8182 0
M  V30 2438 H 241.557 -3.36216 -5.05018 0
M  V30 2439 H 240.296 -2.37389 -4.26026 0
M  V30 2440 H 239.301 -4.44115 -3.24102 0
M  V30 2441 H 240.526 -5.44123 -4.06333 0
M  V30 2442 H 238.472 -3.66807 -5.43865 0
M  V30 2443 H 238.389 -5.39346 -5.29756 0
M  V30 2444 H 239.657 -4.66993 -6.2413 0
M  V30 2445 N 243.887 0.651787 -1.4349 0
M  V30 2446 C 244.817 1.77621 -1.51569 0
M  V30 2447 C 245.798 1.66022 -0.370253 0
M  V30 2448 O 246.983 1.85095 -0.587658 0
M  V30 2449 C 244.113 3.16056 -1.43966 0
M  V30 2450 C 243.067 3.4242 -2.56774 0
M  V30 2451 C 242.393 4.8067 -2.34223 0
M  V30 2452 C 243.693 3.37023 -3.99015 0
M  V30 2453 H 245.387 1.71117 -2.45681 0
M  V30 2454 H 242.933 0.821825 -1.18246 0
M  V30 2455 H 244.886 3.94472 -1.48221 0
M  V30 2456 H 243.61 3.23293 -0.463586 0
M  V30 2457 H 242.269 2.66375 -2.51873 0
M  V30 2458 H 241.917 4.84585 -1.34856 0
M  V30 2459 H 241.617 4.9927 -3.09844 0
M  V30 2460 H 243.141 5.61342 -2.40265 0
M  V30 2461 H 244.555 4.05374 -4.05395 0
M  V30 2462 H 242.952 3.67159 -4.74673 0
M  V30 2463 H 244.022 2.3518 -4.2405 0
M  V30 2464 N 245.365 1.30045 0.890287 0
M  V30 2465 C 246.328 1.15963 1.977 0
M  V30 2466 C 247.328 0.0923777 1.60534 0
M  V30 2467 O 248.518 0.340071 1.70848 0
M  V30 2468 C 245.65 0.775451 3.31963 0
M  V30 2469 H 246.843 2.12502 2.11619 0
M  V30 2470 H 244.396 1.13366 1.07601 0
M  V30 2471 H 245.131 -0.189671 3.23745 0
M  V30 2472 H 244.916 1.54668 3.60306 0
M  V30 2473 H 246.406 0.700251 4.11687 0
M  V30 2474 N 246.843 -1.10192 1.12674 0
M  V30 2475 C 248.091 -1.81845 0.881861 0
M  V30 2476 C 248.412 -1.85737 -0.593867 0
M  V30 2477 O 247.682 -1.33724 -1.4316 0
M  V30 2478 H 246.262 -0.673432 0.323261 0
M  V30 2479 H 248.924 -1.33316 1.42172 0
M  V30 2480 H 248.02 -2.85288 1.2656 0
M  V30 2481 N 248.321 -0.919034 -1.28029 0
M  V30 2482 C 249.567 -0.555757 -1.95036 0
M  V30 2483 C 249.9 0.899198 -1.72128 0
M  V30 2484 O 249.175 1.64023 -1.04531 0
M  V30 2485 C 249.458 -0.872024 -3.49382 0
M  V30 2486 C 249.311 -2.3801 -3.81669 0
M  V30 2487 C 250.63 -0.37185 -4.38526 0
M  V30 2488 H 247.749 -0.203386 -0.708381 0
M  V30 2489 H 250.391 -1.14924 -1.51303 0
M  V30 2490 H 248.541 -0.366946 -3.86763 0
M  V30 2491 H 250.213 -2.9562 -3.54128 0
M  V30 2492 H 248.456 -2.83289 -3.28526 0
M  V30 2493 H 249.127 -2.55192 -4.8947 0
M  V30 2494 H 251.603 -0.804602 -4.08247 0
M  V30 2495 H 250.479 -0.622173 -5.45362 0
M  V30 2496 H 250.74 0.727934 -4.36066 0
M  V30 2497 N 249.799 1.42003 -0.683588 0
M  V30 2498 C 250.729 2.33487 -0.024866 0
M  V30 2499 C 251.71 1.51163 0.779975 0
M  V30 2500 O 252.895 1.79739 0.735362 0
M  V30 2501 C 250.025 3.3487 0.920836 0
M  V30 2502 C 248.979 4.27414 0.223958 0
M  V30 2503 C 248.305 5.19074 1.2832 0
M  V30 2504 C 249.605 5.14445 -0.90242 0
M  V30 2505 H 251.299 2.88819 -0.788921 0
M  V30 2506 H 248.845 1.38873 -0.38083 0
M  V30 2507 H 250.798 3.97787 1.39081 0
M  V30 2508 H 249.522 2.77861 1.71642 0
M  V30 2509 H 248.181 3.65904 -0.225864 0
M  V30 2510 H 247.829 4.58387 2.071 0
M  V30 2511 H 247.529 5.81822 0.821995 0
M  V30 2512 H 249.053 5.84867 1.75392 0
M  V30 2513 H 250.467 5.70998 -0.513272 0
M  V30 2514 H 248.864 5.86072 -1.28997 0
M  V30 2515 H 249.934 4.52322 -1.74737 0
M  V30 2516 N 251.277 0.427512 1.51691 0
M  V30 2517 C 252.525 -0.141948 2.01601 0
M  V30 2518 C 252.846 -1.44067 1.31414 0
M  V30 2519 O 252.116 -1.90763 0.445658 0
M  V30 2520 H 250.696 -0.0554468 0.744939 0
M  V30 2521 H 253.358 0.567968 1.86441 0
M  V30 2522 H 252.454 -0.324913 3.10404 0
M  V30 2523 N 252.755 -1.56801 0.158532 0
M  V30 2524 C 253.718 -2.16138 -0.762705 0
M  V30 2525 C 254.718 -1.1061 -1.16713 0
M  V30 2526 O 255.908 -1.36191 -1.08617 0
M  V30 2527 C 253.04 -2.73386 -2.03649 0
M  V30 2528 H 254.233 -2.98886 -0.246354 0
M  V30 2529 H 251.786 -1.56035 -0.0909744 0
M  V30 2530 H 252.521 -1.94335 -2.59623 0
M  V30 2531 H 252.306 -3.50601 -1.75559 0
M  V30 2532 H 253.796 -3.19065 -2.6942 0
M  V30 2533 N 254.233 0.115231 -1.57178 0
M  V30 2534 C 255.163 1.1423 -2.03651 0
M  V30 2535 C 256.144 1.42967 -0.921655 0
M  V30 2536 O 257.329 1.53343 -1.19162 0
M  V30 2537 C 254.459 2.4675 -2.44401 0
M  V30 2538 C 253.413 2.32467 -3.59365 0
M  V30 2539 C 252.739 3.69984 -3.86026 0
M  V30 2540 C 254.039 1.78203 -4.90959 0
M  V30 2541 H 255.733 0.755749 -2.89705 0
M  V30 2542 H 253.279 0.362093 -1.39373 0
M  V30 2543 H 255.232 3.18854 -2.75517 0
M  V30 2544 H 253.956 2.87302 -1.55322 0
M  V30 2545 H 252.615 1.62811 -3.28463 0
M  V30 2546 H 252.263 4.08028 -2.94147 0
M  V30 2547 H 251.963 3.61279 -4.63412 0
M  V30 2548 H 253.487 4.43587 -4.19599 0
M  V30 2549 H 254.901 2.40128 -5.20587 0
M  V30 2550 H 253.298 1.8031 -5.72371 0
M  V30 2551 H 254.368 0.739876 -4.79222 0
M  V30 2552 N 255.711 1.52812 0.385517 0
M  V30 2553 C 256.939 1.71907 1.15133 0
M  V30 2554 C 257.354 0.439004 1.83625 0
M  V30 2555 O 256.711 -0.586765 1.7281 0
M  V30 2556 C 256.762 2.87099 2.19673 0
M  V30 2557 O 256.483 4.10151 1.53973 0
M  V30 2558 C 257.984 3.17902 3.08955 0
M  V30 2559 H 255.204 0.575479 0.345057 0
M  V30 2560 H 257.748 1.99476 0.45052 0
M  V30 2561 H 255.903 2.61982 2.85384 0
M  V30 2562 H 256.317 4.74514 2.23465 0
M  V30 2563 H 257.791 4.01959 3.7833 0
M  V30 2564 H 258.268 2.3243 3.72657 0
M  V30 2565 H 258.874 3.44871 2.48885 0
M  V30 2566 N 257.189 -0.644168 1.43834 0
M  V30 2567 C 258.605 -0.960875 1.27434 0
M  V30 2568 C 258.805 -2.00499 0.200618 0
M  V30 2569 O 257.861 -2.49018 -0.417906 0
M  V30 2570 C 259.174 -1.43653 2.64167 0
M  V30 2571 C 260.722 -1.55271 2.71772 0
M  V30 2572 C 261.197 -2.06224 4.08944 0
M  V30 2573 N 262.688 -2.13513 4.11055 0
M  V30 2574 C 263.423 -2.54081 5.14033 0
M  V30 2575 N 262.919 -2.9388 6.27381 0
M  V30 2576 N 264.712 -2.54101 5.01387 0
M  V30 2577 H 256.863 0.0465779 2.12349 0
M  V30 2578 H 259.126 -0.0417638 0.94708 0
M  V30 2579 H 258.832 -0.743706 3.43747 0
M  V30 2580 H 258.706 -2.40993 2.90176 0
M  V30 2581 H 261.093 -2.23653 1.92519 0
M  V30 2582 H 261.174 -0.563395 2.49519 0
M  V30 2583 H 260.818 -1.38441 4.88668 0
M  V30 2584 H 260.748 -3.06003 4.28567 0
M  V30 2585 H 263.239 -1.85493 3.29242 0
M  V30 2586 H 263.552 -3.2361 7.01781 0
M  V30 2587 H 261.897 -2.91663 6.30839 0
M  V30 2588 H 265.088 -2.22391 4.11898 0
M  V30 2589 H 265.261 -2.85394 5.81768 0
M  V30 2590 N 258.668 -1.30515 -0.883378 0
M  V30 2591 C 259.618 -1.13641 -1.9766 0
M  V30 2592 C 260.602 -0.0511314 -1.60819 0
M  V30 2593 O 261.794 -0.274623 -1.74857 0
M  V30 2594 C 258.923 -0.831976 -3.33066 0
M  V30 2595 C 258.009 -1.95759 -3.76217 0
M  V30 2596 N 258.4 -3.20313 -3.9145 0
M  V30 2597 C 256.698 -1.85431 -4.05625 0
M  V30 2598 C 257.399 -3.93856 -4.2808 0
M  V30 2599 N 256.375 -3.21919 -4.38029 0
M  V30 2600 H 260.177 -2.08106 -2.07531 0
M  V30 2601 H 257.691 -1.21877 -1.0733 0
M  V30 2602 H 259.688 -0.692102 -4.11115 0
M  V30 2603 H 258.348 0.104588 -3.24532 0
M  V30 2604 H 259.359 -3.55583 -3.76538 0
M  V30 2605 H 256.036 -0.991531 -4.05555 0
M  V30 2606 H 257.426 -5.01125 -4.47575 0
M  V30 2607 N 260.146 1.09593 -1.13257 0
M  V30 2608 C 261.562 1.33775 -0.870423 0
M  V30 2609 C 261.762 1.95327 0.494926 0
M  V30 2610 O 260.818 2.19853 1.2418 0
M  V30 2611 C 262.131 2.25106 -1.99369 0
M  V30 2612 C 263.679 2.3862 -2.02558 0
M  V30 2613 C 264.154 3.33285 -3.14142 0
M  V30 2614 N 265.645 3.40857 -3.13641 0
M  V30 2615 C 266.38 4.14101 -3.96621 0
M  V30 2616 N 265.876 4.90157 -4.8961 0
M  V30 2617 N 267.669 4.09808 -3.84726 0
M  V30 2618 H 259.82 0.680136 -2.01216 0
M  V30 2619 H 262.083 0.362133 -0.876107 0
M  V30 2620 H 261.789 1.87103 -2.97801 0
M  V30 2621 H 261.663 3.25481 -1.90635 0
M  V30 2622 H 264.05 2.75887 -1.0474 0
M  V30 2623 H 264.131 1.38028 -2.15364 0
M  V30 2624 H 263.775 2.96741 -4.12198 0
M  V30 2625 H 263.705 4.33776 -2.98574 0
M  V30 2626 H 266.196 2.86624 -2.46282 0
M  V30 2627 H 266.509 5.4347 -5.49418 0
M  V30 2628 H 264.854 4.89251 -4.93617 0
M  V30 2629 H 268.045 3.4949 -3.11408 0
M  V30 2630 H 268.218 4.66629 -4.49623 0
M  V30 2631 N 261.624 0.925811 1.2754 0
M  V30 2632 C 262.556 0.380753 2.26015 0
M  V30 2633 C 263.569 -0.487485 1.5533 0
M  V30 2634 O 264.758 -0.300413 1.75954 0
M  V30 2635 C 261.858 -0.473259 3.35579 0
M  V30 2636 C 261.031 0.375249 4.35787 0
M  V30 2637 C 260.09 -0.415809 5.24555 0
M  V30 2638 O 259.116 0.175834 5.68928 0
M  V30 2639 N 260.318 -1.71607 5.54555 0
M  V30 2640 H 263.083 1.22725 2.73421 0
M  V30 2641 H 260.644 0.793037 1.41147 0
M  V30 2642 H 262.636 -1.00949 3.91907 0
M  V30 2643 H 261.206 -1.2205 2.87789 0
M  V30 2644 H 260.426 1.09279 3.7875 0
M  V30 2645 H 261.714 0.955399 4.99749 0
M  V30 2646 H 261.112 -2.2191 5.20358 0
M  V30 2647 H 259.669 -2.19887 6.1359 0
M  V30 2648 N 263.102 -1.41638 0.69111 0
M  V30 2649 C 264.518 -1.55435 0.362224 0
M  V30 2650 C 264.718 -1.66754 -1.13117 0
M  V30 2651 O 263.774 -1.64348 -1.91692 0
M  V30 2652 C 265.087 -2.79588 1.10684 0
M  V30 2653 C 266.635 -2.9338 1.09075 0
M  V30 2654 C 267.11 -4.20414 1.81703 0
M  V30 2655 N 268.601 -4.27362 1.7865 0
M  V30 2656 C 269.336 -5.24507 2.31689 0
M  V30 2657 N 268.832 -6.27708 2.93179 0
M  V30 2658 N 270.625 -5.16416 2.2197 0
M  V30 2659 H 262.776 -1.32536 1.65976 0
M  V30 2660 H 265.039 -0.639115 0.700168 0
M  V30 2661 H 264.745 -2.77419 2.16175 0
M  V30 2662 H 264.619 -3.70973 0.682545 0
M  V30 2663 H 267.006 -2.95067 0.0441238 0
M  V30 2664 H 267.087 -2.0318 1.55407 0
M  V30 2665 H 266.731 -4.19488 2.86343 0
M  V30 2666 H 266.661 -5.09578 1.32808 0
M  V30 2667 H 269.152 -3.53415 1.33815 0
M  V30 2668 H 269.465 -6.98217 3.31229 0
M  V30 2669 H 267.81 -6.28223 2.97255 0
M  V30 2670 H 271.001 -4.34716 1.73607 0
M  V30 2671 H 271.174 -5.91958 2.63609 0
M  V30 2672 N 264.58 -0.43555 -1.51462 0
M  V30 2673 C 265.51 0.367376 -2.30592 0
M  V30 2674 C 266.491 1.02263 -1.35928 0
M  V30 2675 O 267.676 1.02661 -1.64847 0
M  V30 2676 C 264.806 1.46983 -3.14664 0
M  V30 2677 C 263.76 0.938161 -4.17591 0
M  V30 2678 C 263.086 2.13622 -4.90173 0
M  V30 2679 C 264.386 -0.0261621 -5.22293 0
M  V30 2680 H 266.08 -0.292969 -2.97963 0
M  V30 2681 H 263.626 -0.14234 -1.43295 0
M  V30 2682 H 265.579 2.03873 -3.688 0
M  V30 2683 H 264.303 2.15843 -2.4511 0
M  V30 2684 H 262.962 0.391481 -3.64504 0
M  V30 2685 H 262.61 2.81098 -4.17124 0
M  V30 2686 H 262.31 1.78688 -5.59772 0
M  V30 2687 H 263.834 2.7107 -5.47132 0
M  V30 2688 H 265.248 0.452384 -5.71512 0
M  V30 2689 H 263.645 -0.287992 -5.99409 0
M  V30 2690 H 264.715 -0.963391 -4.75233 0
M  V30 2691 N 266.058 1.56714 -0.166846 0
M  V30 2692 C 266.99 2.14914 0.796537 0
M  V30 2693 C 268.003 1.10357 1.19688 0
M  V30 2694 O 269.192 1.37561 1.13751 0
M  V30 2695 C 266.292 2.67326 2.08303 0
M  V30 2696 C 265.465 3.96493 1.84696 0
M  V30 2697 C 264.524 4.34014 2.97521 0
M  V30 2698 O 263.55 5.01973 2.6835 0
M  V30 2699 N 264.752 3.95208 4.25196 0
M  V30 2700 H 267.517 2.98205 0.299006 0
M  V30 2701 H 265.078 1.61892 0.0160839 0
M  V30 2702 H 267.07 2.89428 2.82867 0
M  V30 2703 H 265.64 1.88649 2.4926 0
M  V30 2704 H 264.86 3.82814 0.940602 0
M  V30 2705 H 266.148 4.8086 1.66285 0
M  V30 2706 H 265.546 3.40487 4.51758 0
M  V30 2707 H 264.103 4.2232 4.96477 0
M  V30 2708 N 267.536 -0.106894 1.57237 0
M  V30 2709 C 268.446 -1.14911 2.0453 0
M  V30 2710 C 269.462 -1.44592 0.96795 0
M  V30 2711 O 270.638 -1.55468 1.2803 0
M  V30 2712 C 267.703 -2.45272 2.45036 0
M  V30 2713 C 266.764 -2.22879 3.66911 0
M  V30 2714 C 265.997 -3.47024 4.05475 0
M  V30 2715 O 266.22 -4.54804 3.44252 0
M  V30 2716 O 265.154 -3.3731 4.98504 0
M  V30 2717 H 268.98 -0.777461 2.9358 0
M  V30 2718 H 266.565 -0.318563 1.45964 0
M  V30 2719 H 268.447 -3.22055 2.71769 0
M  V30 2720 H 267.122 -2.81886 1.59129 0
M  V30 2721 H 266.029 -1.43915 3.45311 0
M  V30 2722 H 267.362 -1.91163 4.53561 0
M  V30 2723 N 269.014 -1.53014 -0.377408 0
M  V30 2724 C 269.944 -1.81589 -1.46791 0
M  V30 2725 C 270.925 -0.668622 -1.56408 0
M  V30 2726 O 272.11 -0.917337 -1.71168 0
M  V30 2727 C 269.24 -1.99519 -2.8427 0
M  V30 2728 C 268.194 -3.15249 -2.89486 0
M  V30 2729 C 267.52 -3.18451 -4.29527 0
M  V30 2730 C 268.82 -4.54084 -2.58079 0
M  V30 2731 H 270.514 -2.7291 -1.23127 0
M  V30 2732 H 268.06 -1.31319 -0.590883 0
M  V30 2733 H 270.013 -2.18092 -3.60575 0
M  V30 2734 H 268.737 -1.04897 -3.09296 0
M  V30 2735 H 267.396 -2.96477 -2.15631 0
M  V30 2736 H 267.044 -2.2149 -4.5161 0
M  V30 2737 H 266.744 -3.962 -4.33934 0
M  V30 2738 H 268.268 -3.39193 -5.07721 0
M  V30 2739 H 269.682 -4.72899 -3.24098 0
M  V30 2740 H 268.079 -5.33987 -2.7382 0
M  V30 2741 H 269.149 -4.60006 -1.53372 0
M  V30 2742 N 270.492 0.636531 -1.44174 0
M  V30 2743 C 271.74 1.39343 -1.46383 0
M  V30 2744 C 272.061 1.94766 -0.0955715 0
M  V30 2745 O 271.331 1.75452 0.871395 0
M  V30 2746 H 269.911 0.517199 -0.538994 0
M  V30 2747 H 272.573 0.74957 -1.7991 0
M  V30 2748 H 271.669 2.22746 -2.18611 0
M  V30 2749 N 271.97 1.30982 0.876444 0
M  V30 2750 C 273.381 1.18277 1.44456 0
M  V30 2751 C 273.732 -0.213265 1.95037 0
M  V30 2752 O 272.857 -1.11057 1.85729 0
M  V30 2753 C 273.452 2.1411 2.62569 0
M  V30 2754 C 272.011 2.05358 3.15444 0
M  V30 2755 C 271.158 2.03706 1.88146 0
M  V30 2756 H 274.109 1.43127 0.685584 0
M  V30 2757 H 274.13 1.72692 3.39054 0
M  V30 2758 H 273.642 3.15706 2.25724 0
M  V30 2759 H 271.743 1.06934 3.56926 0
M  V30 2760 H 271.856 2.94156 3.78166 0
M  V30 2761 H 270.22 1.48629 2.06837 0
M  V30 2762 H 271.003 3.07047 1.53547 0
M  V30 2763 N 273.449 -1.08991 1.13837 0
M  V30 2764 C 274.86 -1.62746 0.914917 0
M  V30 2765 C 275.211 -1.88403 -0.547594 0
M  V30 2766 O 274.336 -1.63706 -1.41525 0
M  V30 2767 C 274.931 -2.95662 1.65437 0
M  V30 2768 C 273.49 -3.46225 1.47666 0
M  V30 2769 C 272.637 -2.20562 1.6807 0
M  V30 2770 H 275.588 -0.922946 1.29102 0
M  V30 2771 H 275.609 -3.63825 1.11407 0
M  V30 2772 H 275.121 -2.76956 2.71877 0
M  V30 2773 H 273.222 -3.70046 0.435478 0
M  V30 2774 H 273.335 -4.23368 2.24268 0
M  V30 2775 H 271.699 -2.29439 1.10589 0
M  V30 2776 H 272.482 -2.0437 2.7584 0
M  V30 2777 N 274.927 -0.932562 -1.27047 0
M  V30 2778 C 276.167 -0.582919 -1.95912 0
M  V30 2779 C 276.531 0.860629 -1.71631 0
M  V30 2780 O 277.732 1.31878 -2.34225 0
M  V30 2781 C 276.003 -0.905673 -3.45734 0
M  V30 2782 S 277.562 -0.665277 -4.33727 0
M  V30 2783 H 274.38 -0.215 -0.677714 0
M  V30 2784 H 276.982 -1.20204 -1.54179 0
M  V30 2785 H 275.686 -1.95386 -3.60905 0
M  V30 2786 H 275.217 -0.275939 -3.92431 0
M  V30 2787 H 277.232 0.474635 -4.93925 0
M  V30 2788 N 276.405 1.4127 -0.698611 0
M  V30 2789 C 277.651 2.01979 -0.239972 0
M  V30 2790 C 278.006 1.54353 1.14861 0
M  V30 2791 O 277.299 0.746218 1.76471 0
M  V30 2792 C 277.493 3.56592 -0.240192 0
M  V30 2793 C 277.322 4.19226 -1.62726 0
M  V30 2794 C 276.092 4.53389 -2.23084 0
M  V30 2795 C 278.29 4.45228 -2.57443 0
M  V30 2796 N 276.272 5.01327 -3.54323 0
M  V30 2797 C 277.643 4.94973 -3.73365 0
M  V30 2798 C 279.698 4.27243 -2.55671 0
M  V30 2799 C 278.401 5.28624 -4.878 0
M  V30 2800 C 280.427 4.61985 -3.69221 0
M  V30 2801 C 279.789 5.11904 -4.83873 0
M  V30 2802 H 275.888 0.770561 -0.133269 0
M  V30 2803 H 278.472 1.71767 -0.916748 0
M  V30 2804 H 276.643 3.86271 0.406082 0
M  V30 2805 H 278.375 4.04025 0.23356 0
M  V30 2806 H 275.13 4.39946 -1.75341 0
M  V30 2807 H 275.554 5.29697 -4.21604 0
M  V30 2808 H 280.196 3.87884 -1.68243 0
M  V30 2809 H 277.914 5.66905 -5.75885 0
M  V30 2810 H 281.5 4.49725 -3.69105 0
M  V30 2811 H 280.38 5.38282 -5.70282 0
M  V30 2812 N 277.883 0.443576 1.51229 0
M  V30 2813 C 279.123 -0.119889 2.04048 0
M  V30 2814 C 279.487 -1.39418 1.32009 0
M  V30 2815 O 280.688 -2.03829 1.75235 0
M  V30 2816 C 278.959 -0.327233 3.55899 0
M  V30 2817 S 280.518 -0.853208 4.30425 0
M  V30 2818 H 277.336 -0.028921 0.710412 0
M  V30 2819 H 279.938 0.604413 1.85922 0
M  V30 2820 H 278.642 0.606445 4.05895 0
M  V30 2821 H 278.173 -1.07844 3.7833 0
M  V30 2822 H 280.188 -2.13005 4.48155 0
M  V30 2823 N 279.361 -1.56624 0.175154 0
M  V30 2824 C 280.601 -1.98894 -0.471221 0
M  V30 2825 C 280.965 -1.05889 -1.60161 0
M  V30 2826 O 282.166 -1.37315 -2.3108 0
M  V30 2827 C 280.437 -3.44865 -0.938241 0
M  V30 2828 S 281.996 -4.09164 -1.58526 0
M  V30 2829 H 278.814 -0.694686 -0.151434 0
M  V30 2830 H 281.416 -1.93577 0.27352 0
M  V30 2831 H 280.12 -4.10265 -0.10518 0
M  V30 2832 H 279.651 -3.53956 -1.71693 0
M  V30 2833 H 281.666 -4.04528 -2.87352 0
M  V30 2834 N 280.839 0.0985539 -1.57292 0
M  V30 2835 C 282.064 0.820196 -1.90493 0
M  V30 2836 C 282.489 1.71658 -0.769094 0
M  V30 2837 O 281.847 1.79133 0.279495 0
M  V30 2838 C 281.895 1.61242 -3.22542 0
M  V30 2839 O 280.999 2.72108 -3.09888 0
M  V30 2840 H 280.34 0.225547 -0.62452 0
M  V30 2841 H 282.87 0.0748159 -2.04463 0
M  V30 2842 H 282.88 1.99737 -3.55766 0
M  V30 2843 H 281.555 0.954535 -4.04798 0
M  V30 2844 H 280.132 2.36667 -2.88172 0
M  V30 2845 N 282.317 1.53212 0.369288 0
M  V30 2846 C 283.542 1.73423 1.1375 0
M  V30 2847 C 283.967 0.460404 1.82378 0
M  V30 2848 O 283.325 -0.585298 1.71592 0
M  V30 2849 C 283.373 2.89769 2.1463 0
M  V30 2850 O 282.477 2.58119 3.21634 0
M  V30 2851 H 281.818 0.576061 0.330227 0
M  V30 2852 H 284.348 2.00083 0.427547 0
M  V30 2853 H 284.358 3.15829 2.58294 0
M  V30 2854 H 283.033 3.8217 1.64071 0
M  V30 2855 H 281.61 2.42864 2.82969 0
M  V30 2856 N 283.795 -0.628877 1.44509 0
M  V30 2857 C 285.043 -1.38565 1.4712 0
M  V30 2858 C 285.364 -1.94712 0.105899 0
M  V30 2859 O 284.634 -1.75912 -0.862079 0
M  V30 2860 H 283.214 -0.514333 0.541729 0
M  V30 2861 H 285.876 -0.740018 1.80305 0
M  V30 2862 H 284.972 -2.21583 2.19789 0
M  V30 2863 N 285.273 -1.31445 -0.869486 0
M  V30 2864 C 286.521 -1.20918 -1.61936 0
M  V30 2865 C 286.842 0.232683 -1.93607 0
M  V30 2866 O 286.112 1.15352 -1.58338 0
M  V30 2867 H 284.692 -0.44454 -0.600328 0
M  V30 2868 H 287.354 -1.64776 -1.0409 0
M  V30 2869 H 286.45 -1.78124 -2.56278 0
M  V30 2870 N 286.751 1.08385 -1.14413 0
M  V30 2871 C 287.714 2.13486 -0.834048 0
M  V30 2872 C 288.714 1.59988 0.161418 0
M  V30 2873 O 289.904 1.74071 -0.0669575 0
M  V30 2874 C 287.036 3.4003 -0.243354 0
M  V30 2875 H 288.229 2.42425 -1.7655 0
M  V30 2876 H 285.782 1.24101 -0.950189 0
M  V30 2877 H 286.517 3.16726 0.696807 0
M  V30 2878 H 286.302 3.80157 -0.960367 0
M  V30 2879 H 287.792 4.17577 -0.0436242 0
M  V30 2880 N 288.23 0.939286 1.26551 0
M  V30 2881 C 289.455 0.602008 1.98471 0
M  V30 2882 C 289.88 -0.815624 1.69497 0
M  V30 2883 O 289.238 -1.54912 0.941905 0
M  V30 2884 C 289.286 0.848407 3.50477 0
M  V30 2885 O 288.39 -0.0804009 4.12322 0
M  V30 2886 H 287.731 0.23049 0.622712 0
M  V30 2887 H 290.261 1.2617 1.61066 0
M  V30 2888 H 290.271 0.768553 4.00696 0
M  V30 2889 H 288.946 1.88171 3.70897 0
M  V30 2890 H 287.523 0.0503508 3.72866 0
M  V30 2891 N 289.708 -1.40897 0.706093 0
M  V30 2892 C 290.956 -2.00657 0.241054 0
M  V30 2893 C 291.277 -1.56241 -1.16678 0
M  V30 2894 O 290.547 -0.79765 -1.78926 0
M  V30 2895 H 289.127 -0.742018 0.0861308 0
M  V30 2896 H 291.789 -1.72372 0.909604 0
M  V30 2897 H 290.885 -3.10958 0.266705 0
M  V30 2898 N 291.186 -0.45159 -1.50991 0
M  V30 2899 C 292.411 0.110667 -2.07105 0
M  V30 2900 C 292.836 1.3446 -1.31538 0
M  V30 2901 O 292.194 1.77743 -0.357365 0
M  V30 2902 C 292.242 0.397238 -3.58405 0
M  V30 2903 O 291.346 1.48124 -3.84881 0
M  V30 2904 H 290.687 -0.00439271 -0.663985 0
M  V30 2905 H 293.217 -0.637026 -1.9443 0
M  V30 2906 H 293.227 0.64351 -4.02893 0
M  V30 2907 H 291.902 -0.504553 -4.12828 0
M  V30 2908 H 290.479 1.22381 -3.52246 0
M  V30 2909 N 292.664 1.56529 -0.183458 0
M  V30 2910 C 293.594 2.21549 0.737456 0
M  V30 2911 C 294.575 1.17489 1.23005 0
M  V30 2912 O 295.76 1.45959 1.281 0
M  V30 2913 C 292.89 2.86575 1.96194 0
M  V30 2914 C 291.844 3.96778 1.60473 0
M  V30 2915 C 291.17 4.48911 2.90487 0
M  V30 2916 C 292.47 5.15767 0.823497 0
M  V30 2917 H 294.164 2.98761 0.195453 0
M  V30 2918 H 291.71 1.43702 0.0925686 0
M  V30 2919 H 293.663 3.30739 2.61131 0
M  V30 2920 H 292.387 2.06749 2.52828 0
M  V30 2921 H 291.046 3.53286 0.978997 0
M  V30 2922 H 290.694 3.65862 3.45186 0
M  V30 2923 H 290.394 5.23265 2.67335 0
M  V30 2924 H 291.918 4.95771 3.56432 0
M  V30 2925 H 293.332 5.56549 1.37571 0
M  V30 2926 H 291.729 5.96114 0.690551 0
M  V30 2927 H 292.799 4.84574 -0.177782 0
M  V30 2928 N 294.142 -0.090211 1.57342 0
M  V30 2929 C 295.105 -1.09335 2.01441 0
M  V30 2930 C 296.105 -1.32666 0.908641 0
M  V30 2931 O 297.295 -1.28697 1.174 0
M  V30 2932 C 294.427 -2.44136 2.3793 0
M  V30 2933 H 295.62 -0.713662 2.91285 0
M  V30 2934 H 293.173 -0.335404 1.52659 0
M  V30 2935 H 293.908 -2.86972 1.51055 0
M  V30 2936 H 293.693 -2.28548 3.18603 0
M  V30 2937 H 295.183 -3.16277 2.72688 0
M  V30 2938 N 295.62 -1.53406 -0.361157 0
M  V30 2939 C 296.583 -1.79479 -1.42548 0
M  V30 2940 C 297.583 -0.665327 -1.4639 0
M  V30 2941 O 298.773 -0.933549 -1.47073 0
M  V30 2942 C 295.905 -1.92087 -2.8163 0
M  V30 2943 H 297.098 -2.74538 -1.20701 0
M  V30 2944 H 294.651 -1.4455 -0.594546 0
M  V30 2945 H 295.386 -0.991099 -3.08784 0
M  V30 2946 H 295.171 -2.74241 -2.80239 0
M  V30 2947 H 296.661 -2.13836 -3.58697 0
M  V30 2948 N 297.098 0.621204 -1.44841 0
M  V30 2949 C 298.028 1.74366 -1.55303 0
M  V30 2950 C 299.009 1.65199 -0.405385 0
M  V30 2951 O 300.194 1.83807 -0.626787 0
M  V30 2952 C 297.324 3.12931 -1.50637 0
M  V30 2953 C 296.278 3.36896 -2.63979 0
M  V30 2954 C 295.604 4.75594 -2.44366 0
M  V30 2955 C 296.904 3.28483 -4.06074 0
M  V30 2956 H 298.598 1.65867 -2.49256 0
M  V30 2957 H 296.144 0.796558 -1.19962 0
M  V30 2958 H 298.097 3.9124 -1.56555 0
M  V30 2959 H 296.821 3.22237 -0.532057 0
M  V30 2960 H 295.48 2.60972 -2.57467 0
M  V30 2961 H 295.128 4.81616 -1.45105 0
M  V30 2962 H 294.828 4.92586 -3.20364 0
M  V30 2963 H 296.352 5.5612 -2.52117 0
M  V30 2964 H 297.766 3.96684 -4.13902 0
M  V30 2965 H 296.163 3.57008 -4.82354 0
M  V30 2966 H 297.233 2.26133 -4.28943 0
M  V30 2967 N 298.576 1.31904 0.862503 0
M  V30 2968 C 299.824 1.21776 1.61292 0
M  V30 2969 C 300.145 -0.222413 1.93727 0
M  V30 2970 O 299.415 -1.1451 1.58947 0
M  V30 2971 H 297.995 0.447717 0.597962 0
M  V30 2972 H 300.657 1.65326 1.03215 0
M  V30 2973 H 299.753 1.7948 2.5533 0
M  V30 2974 N 300.054 -1.07777 1.14986 0
M  V30 2975 C 301.279 -1.84558 0.946213 0
M  V30 2976 C 301.704 -1.81323 -0.500362 0
M  V30 2977 O 301.062 -1.20301 -1.35637 0
M  V30 2978 C 301.11 -3.29736 1.45968 0
M  V30 2979 O 300.214 -4.07149 0.65601 0
M  V30 2980 H 299.555 -0.571641 0.33782 0
M  V30 2981 H 302.085 -1.35991 1.52865 0
M  V30 2982 H 302.095 -3.80574 1.47063 0
M  V30 2983 H 300.77 -3.31406 2.51283 0
M  V30 2984 H 299.347 -3.65994 0.714322 0
M  V30 2985 N 301.532 -0.945985 -1.26051 0
M  V30 2986 C 302.479 -0.45809 -2.26208 0
M  V30 2987 C 303.449 0.484816 -1.58867 0
M  V30 2988 O 304.634 0.399969 -1.86561 0
M  V30 2989 C 301.774 0.266131 -3.44072 0
M  V30 2990 C 300.887 -0.713005 -4.26075 0
M  V30 2991 C 300.022 0.0329013 -5.3119 0
M  V30 2992 C 299.061 -0.93774 -6.04874 0
M  V30 2993 N 298.198 -0.223274 -7.01745 0
M  V30 2994 H 303.038 -1.3171 -2.67313 0
M  V30 2995 H 300.575 -0.66069 -1.31428 0
M  V30 2996 H 302.533 0.702514 -4.11243 0
M  V30 2997 H 301.163 1.08925 -3.03867 0
M  V30 2998 H 300.215 -1.26789 -3.58648 0
M  V30 2999 H 301.527 -1.45406 -4.77136 0
M  V30 3000 H 300.681 0.528335 -6.04395 0
M  V30 3001 H 299.42 0.806801 -4.8098 0
M  V30 3002 H 298.425 -1.44425 -5.30492 0
M  V30 3003 H 299.65 -1.71172 -6.57173 0
M  V30 3004 H 297.596 0.532046 -6.53839 0
M  V30 3005 H 297.513 -0.90357 -7.50581 0
M  V30 3006 H 298.781 0.250907 -7.79096 0
M  V30 3007 N 303.011 1.40521 -0.713556 0
M  V30 3008 C 303.974 2.29098 -0.0684347 0
M  V30 3009 C 304.974 1.45268 0.689472 0
M  V30 3010 O 306.164 1.66205 0.521677 0
M  V30 3011 C 303.296 3.28446 0.913024 0
M  V30 3012 H 304.489 2.87645 -0.84855 0
M  V30 3013 H 302.042 1.48809 -0.47809 0
M  V30 3014 H 302.777 2.74913 1.72027 0
M  V30 3015 H 302.562 3.90327 0.372472 0
M  V30 3016 H 304.052 3.94777 1.36165 0
M  V30 3017 N 304.489 0.459591 1.5075 0
M  V30 3018 C 305.422 -0.386257 2.24907 0
M  V30 3019 C 306.4 -1.006 1.27744 0
M  V30 3020 O 307.584 -1.04416 1.56938 0
M  V30 3021 C 304.711 -1.54021 3.01654 0
M  V30 3022 C 303.757 -1.03898 4.13651 0
M  V30 3023 S 304.59 0.0370501 5.35487 0
M  V30 3024 C 305.746 -1.12105 6.15779 0
M  V30 3025 H 305.979 0.243272 2.96303 0
M  V30 3026 H 303.512 0.244339 1.52454 0
M  V30 3027 H 305.47 -2.20163 3.46466 0
M  V30 3028 H 304.131 -2.14121 2.29806 0
M  V30 3029 H 303.324 -1.90254 4.66711 0
M  V30 3030 H 302.926 -0.45545 3.71216 0
M  V30 3031 H 305.218 -2.03501 6.46215 0
M  V30 3032 H 306.161 -0.62995 7.05292 0
M  V30 3033 H 306.569 -1.36967 5.47631 0
M  V30 3034 N 305.967 -1.56429 0.191757 0
M  V30 3035 C 307.378 -1.83912 -0.321428 0
M  V30 3036 C 307.729 -1.11231 -1.61623 0
M  V30 3037 O 306.854 -0.37202 -2.13178 0
M  V30 3038 C 307.449 -3.33624 -0.589961 0
M  V30 3039 C 306.008 -3.6153 -1.04753 0
M  V30 3040 C 305.155 -2.7714 -0.0943327 0
M  V30 3041 H 308.106 -1.53161 0.415612 0
M  V30 3042 H 308.127 -3.52213 -1.43966 0
M  V30 3043 H 307.639 -3.86495 0.352588 0
M  V30 3044 H 305.74 -3.14089 -2.00447 0
M  V30 3045 H 305.853 -4.69737 -0.942549 0
M  V30 3046 H 304.217 -2.47638 -0.595589 0
M  V30 3047 H 305 -3.32799 0.842601 0
M  V30 3048 N 307.445 0.0818655 -1.57387 0
M  V30 3049 C 308.691 0.784074 -1.8703 0
M  V30 3050 C 309.024 1.77729 -0.782689 0
M  V30 3051 O 308.299 1.93384 0.208051 0
M  V30 3052 C 308.582 1.50105 -3.27323 0
M  V30 3053 C 308.435 0.524925 -4.46727 0
M  V30 3054 C 309.754 2.44843 -3.65705 0
M  V30 3055 H 306.873 0.283582 -0.680257 0
M  V30 3056 H 309.515 0.0474352 -1.89941 0
M  V30 3057 H 307.665 2.12897 -3.24972 0
M  V30 3058 H 309.337 -0.0970111 -4.61198 0
M  V30 3059 H 307.58 -0.160606 -4.33503 0
M  V30 3060 H 308.251 1.064 -5.41648 0
M  V30 3061 H 310.727 1.92135 -3.69085 0
M  V30 3062 H 309.603 2.92018 -4.64776 0
M  V30 3063 H 309.864 3.29197 -2.95096 0
M  V30 3064 N 308.923 1.53595 0.353017 0
M  V30 3065 C 309.886 1.80232 1.41594 0
M  V30 3066 C 310.886 0.673081 1.46035 0
M  V30 3067 O 312.076 0.941335 1.46576 0
M  V30 3068 C 309.208 1.93578 2.80607 0
M  V30 3069 H 310.401 2.75174 1.19244 0
M  V30 3070 H 307.954 1.44864 0.586872 0
M  V30 3071 H 308.689 1.00746 3.08254 0
M  V30 3072 H 308.474 2.75724 2.78781 0
M  V30 3073 H 309.964 2.15735 3.57558 0
M  V30 3074 N 310.401 -0.613514 1.45168 0
M  V30 3075 C 311.311 -1.75296 1.55912 0
M  V30 3076 C 312.327 -1.68244 0.443856 0
M  V30 3077 O 313.503 -1.88706 0.70371 0
M  V30 3078 C 310.568 -3.1174 1.5172 0
M  V30 3079 C 309.629 -3.30291 2.74238 0
M  V30 3080 C 308.862 -4.60226 2.70236 0
M  V30 3081 O 309.085 -5.42168 1.77229 0
M  V30 3082 O 308.019 -4.81361 3.61352 0
M  V30 3083 H 311.845 -1.69183 2.52212 0
M  V30 3084 H 309.43 -0.776886 1.27612 0
M  V30 3085 H 311.312 -3.93044 1.51968 0
M  V30 3086 H 309.987 -3.18357 0.585697 0
M  V30 3087 H 308.894 -2.48598 2.79553 0
M  V30 3088 H 310.227 -3.28547 3.66494 0
M  V30 3089 N 311.879 -1.3236 -0.855495 0
M  V30 3090 C 312.842 -1.21164 -1.94556 0
M  V30 3091 C 313.842 -0.134908 -1.60233 0
M  V30 3092 O 315.032 -0.385249 -1.69887 0
M  V30 3093 C 312.164 -0.863192 -3.29791 0
M  V30 3094 H 313.357 -2.18038 -2.05911 0
M  V30 3095 H 310.91 -1.16179 -1.04557 0
M  V30 3096 H 311.645 0.103769 -3.24134 0
M  V30 3097 H 311.43 -1.64166 -3.56078 0
M  V30 3098 H 312.92 -0.809156 -4.09686 0
M  V30 3099 N 313.357 1.07166 -1.15556 0
M  V30 3100 C 314.287 2.16403 -0.877046 0
M  V30 3101 C 315.268 1.69217 0.173111 0
M  V30 3102 O 316.453 1.94181 0.027084 0
M  V30 3103 C 313.583 3.45349 -0.367632 0
M  V30 3104 C 312.537 4.05995 -1.35468 0
M  V30 3105 C 311.863 5.30045 -0.704038 0
M  V30 3106 C 313.163 4.45804 -2.72132 0
M  V30 3107 H 314.857 2.39959 -1.79053 0
M  V30 3108 H 312.403 1.15325 -0.862331 0
M  V30 3109 H 314.356 4.21095 -0.160317 0
M  V30 3110 H 313.08 3.21385 0.581326 0
M  V30 3111 H 311.739 3.32296 -1.54839 0
M  V30 3112 H 311.387 5.02373 0.251128 0
M  V30 3113 H 311.087 5.71579 -1.36277 0
M  V30 3114 H 312.611 6.08495 -0.50654 0
M  V30 3115 H 314.025 5.12671 -2.56595 0
M  V30 3116 H 312.422 4.98296 -3.34397 0
M  V30 3117 H 313.492 3.57083 -3.28054 0
M  V30 3118 N 314.835 0.952656 1.25548 0
M  V30 3119 C 315.798 0.475794 2.24207 0
M  V30 3120 C 316.798 -0.419428 1.55234 0
M  V30 3121 O 317.988 -0.216994 1.72843 0
M  V30 3122 C 315.12 -0.312814 3.39462 0
M  V30 3123 H 316.313 1.34779 2.67908 0
M  V30 3124 H 313.866 0.735739 1.37901 0
M  V30 3125 H 314.601 -1.20257 3.01179 0
M  V30 3126 H 314.386 0.329404 3.90714 0
M  V30 3127 H 315.876 -0.635986 4.12729 0
M  V30 3128 N 316.313 -1.40141 0.720998 0
M  V30 3129 C 317.223 -2.34486 0.0731031 0
M  V30 3130 C 318.239 -1.57587 -0.737723 0
M  V30 3131 O 319.415 -1.89949 -0.669429 0
M  V30 3132 C 316.48 -3.36528 -0.833656 0
M  V30 3133 C 315.541 -4.29298 -0.0121673 0
M  V30 3134 C 314.774 -5.26466 -0.875742 0
M  V30 3135 O 314.997 -5.29745 -2.11485 0
M  V30 3136 O 313.931 -6.01092 -0.31185 0
M  V30 3137 H 317.757 -2.9152 0.851444 0
M  V30 3138 H 315.342 -1.41427 0.481527 0
M  V30 3139 H 317.224 -3.99093 -1.35289 0
M  V30 3140 H 315.899 -2.81899 -1.59105 0
M  V30 3141 H 314.806 -3.70001 0.552262 0
M  V30 3142 H 316.139 -4.87094 0.707129 0
M  V30 3143 N 317.792 -0.46758 -1.50504 0
M  V30 3144 C 318.724 0.364655 -2.26281 0
M  V30 3145 C 319.737 0.960151 -1.31472 0
M  V30 3146 O 320.926 0.849153 -1.57008 0
M  V30 3147 C 318.026 1.52509 -3.02645 0
M  V30 3148 C 317.199 1.04302 -4.24782 0
M  V30 3149 C 316.258 2.07709 -4.8347 0
M  V30 3150 O 315.284 1.65913 -5.44483 0
M  V30 3151 N 316.486 3.40485 -4.70159 0
M  V30 3152 H 319.251 -0.28495 -2.98342 0
M  V30 3153 H 316.812 -0.298163 -1.59131 0
M  V30 3154 H 318.804 2.21371 -3.38787 0
M  V30 3155 H 317.374 2.07945 -2.33404 0
M  V30 3156 H 316.594 0.180393 -3.93787 0
M  V30 3157 H 317.882 0.698798 -5.03978 0
M  V30 3158 H 317.28 3.77155 -4.21629 0
M  V30 3159 H 315.837 4.05156 -5.1058 0
M  V30 3160 N 319.27 1.56325 -0.20005 0
M  V30 3161 C 320.2 2.22318 0.713916 0
M  V30 3162 C 321.181 1.18788 1.21752 0
M  V30 3163 O 322.366 1.47309 1.26545 0
M  V30 3164 C 319.496 2.88639 1.93144 0
M  V30 3165 C 318.45 3.98457 1.56255 0
M  V30 3166 C 317.776 4.51967 2.85709 0
M  V30 3167 C 319.076 5.16612 0.768747 0
M  V30 3168 H 320.77 2.98952 0.163755 0
M  V30 3169 H 318.316 1.43792 0.0773219 0
M  V30 3170 H 320.269 3.33491 2.57608 0
M  V30 3171 H 318.993 2.09419 2.50621 0
M  V30 3172 H 317.652 3.54305 0.941471 0
M  V30 3173 H 317.3 3.69503 3.41287 0
M  V30 3174 H 317 5.26071 2.6177 0
M  V30 3175 H 318.524 4.99523 3.51154 0
M  V30 3176 H 319.938 5.57977 1.3166 0
M  V30 3177 H 318.335 5.96812 0.627286 0
M  V30 3178 H 319.405 4.84358 -0.229168 0
M  V30 3179 N 320.748 -0.0735177 1.57428 0
M  V30 3180 C 321.695 -1.08756 2.0357 0
M  V30 3181 C 322.665 -1.38559 0.916 0
M  V30 3182 O 323.85 -1.49656 1.18354 0
M  V30 3183 C 320.99 -2.39657 2.48311 0
M  V30 3184 C 320.103 -2.16399 3.73892 0
M  V30 3185 C 319.238 -3.40852 4.07423 0
M  V30 3186 C 318.277 -3.1295 5.2605 0
M  V30 3187 N 317.414 -4.29729 5.55228 0
M  V30 3188 H 322.254 -0.687104 2.8997 0
M  V30 3189 H 319.791 -0.327709 1.43403 0
M  V30 3190 H 321.749 -3.16081 2.72303 0
M  V30 3191 H 320.379 -2.77508 1.64891 0
M  V30 3192 H 319.431 -1.30676 3.57251 0
M  V30 3193 H 320.743 -1.91788 4.60455 0
M  V30 3194 H 319.897 -4.25671 4.32306 0
M  V30 3195 H 318.636 -3.68537 3.19425 0
M  V30 3196 H 317.641 -2.26526 5.00965 0
M  V30 3197 H 318.866 -2.86589 6.15665 0
M  V30 3198 H 316.812 -4.57448 4.70188 0
M  V30 3199 H 316.729 -4.08385 6.36206 0
M  V30 3200 H 317.997 -5.1555 5.84661 0
M  V30 3201 N 322.226 -1.5378 -0.344866 0
M  V30 3202 C 323.156 -1.84662 -1.42906 0
M  V30 3203 C 324.137 -0.701648 -1.54955 0
M  V30 3204 O 325.322 -0.953438 -1.69184 0
M  V30 3205 C 322.452 -2.05503 -2.79974 0
M  V30 3206 C 321.406 -3.21318 -2.82734 0
M  V30 3207 C 320.732 -3.2749 -4.22675 0
M  V30 3208 C 322.032 -4.59456 -2.48389 0
M  V30 3209 H 323.726 -2.75461 -1.17311 0
M  V30 3210 H 321.272 -1.32542 -0.562896 0
M  V30 3211 H 323.225 -2.25691 -3.55867 0
M  V30 3212 H 321.949 -1.11434 -3.07002 0
M  V30 3213 H 320.608 -3.00984 -2.09294 0
M  V30 3214 H 320.256 -2.31019 -4.4681 0
M  V30 3215 H 319.956 -4.05316 -4.25433 0
M  V30 3216 H 321.48 -3.49887 -5.00412 0
M  V30 3217 H 322.894 -4.79667 -3.13995 0
M  V30 3218 H 321.291 -5.39675 -2.62432 0
M  V30 3219 H 322.361 -4.63155 -1.4358 0
M  V30 3220 N 323.704 0.605807 -1.45491 0
M  V30 3221 C 324.929 1.39625 -1.53361 0
M  V30 3222 C 325.354 1.87351 -0.167645 0
M  V30 3223 O 324.712 1.60243 0.848051 0
M  V30 3224 C 324.76 2.57559 -2.5238 0
M  V30 3225 O 323.864 3.58248 -2.04285 0
M  V30 3226 H 323.205 0.416771 -0.516912 0
M  V30 3227 H 325.735 0.737103 -1.90861 0
M  V30 3228 H 325.745 3.0478 -2.71244 0
M  V30 3229 H 324.42 2.22171 -3.51586 0
M  V30 3230 H 322.997 3.17664 -1.95305 0
M  V30 3231 N 325.182 1.32811 0.848464 0
M  V30 3232 C 326.112 1.24882 1.97299 0
M  V30 3233 C 327.093 0.131357 1.69592 0
M  V30 3234 O 328.278 0.319553 1.91553 0
M  V30 3235 C 325.408 0.97746 3.33261 0
M  V30 3236 C 324.362 2.05682 3.75338 0
M  V30 3237 C 323.688 1.63777 5.09 0
M  V30 3238 C 324.988 3.47254 3.90144 0
M  V30 3239 H 326.682 2.18966 2.04191 0
M  V30 3240 H 324.228 1.05413 0.981029 0
M  V30 3241 H 326.181 0.908513 4.1149 0
M  V30 3242 H 324.905 0.000980011 3.266 0
M  V30 3243 H 323.564 2.11603 2.99366 0
M  V30 3244 H 323.212 0.648569 4.98801 0
M  V30 3245 H 322.912 2.36 5.38124 0
M  V30 3246 H 324.436 1.5833 5.89715 0
M  V30 3247 H 325.85 3.43888 4.58709 0
M  V30 3248 H 324.247 4.1788 4.30693 0
M  V30 3249 H 325.317 3.86462 2.92874 0
M  V30 3250 N 326.66 -1.06551 1.16123 0
M  V30 3251 C 328.071 -1.60768 0.949232 0
M  V30 3252 C 328.422 -1.89523 -0.507508 0
M  V30 3253 O 327.547 -1.66671 -1.38021 0
M  V30 3254 C 328.142 -2.92086 1.71671 0
M  V30 3255 C 326.701 -3.43015 1.54977 0
M  V30 3256 C 325.848 -2.16947 1.72711 0
M  V30 3257 H 328.799 -0.895354 1.31031 0
M  V30 3258 H 328.82 -3.6138 1.19099 0
M  V30 3259 H 328.332 -2.71127 2.7769 0
M  V30 3260 H 326.433 -3.69039 0.513873 0
M  V30 3261 H 326.546 -4.18516 2.33198 0
M  V30 3262 H 324.91 -2.27041 1.15431 0
M  V30 3263 H 325.693 -1.98473 2.80113 0
M  V30 3264 N 328.138 -0.959301 -1.25041 0
M  V30 3265 C 329.048 -0.489994 -2.29426 0
M  V30 3266 C 330.064 0.444944 -1.68215 0
M  V30 3267 O 331.24 0.320046 -1.98841 0
M  V30 3268 C 328.305 0.220309 -3.45999 0
M  V30 3269 C 327.366 -0.753418 -4.22637 0
M  V30 3270 C 326.599 -0.076918 -5.33645 0
M  V30 3271 O 326.822 1.13649 -5.58963 0
M  V30 3272 O 325.756 -0.764824 -5.97021 0
M  V30 3273 H 329.582 -1.35755 -2.71669 0
M  V30 3274 H 327.167 -0.725961 -1.30576 0
M  V30 3275 H 329.049 0.619677 -4.16819 0
M  V30 3276 H 327.724 1.06296 -3.0575 0
M  V30 3277 H 326.631 -1.20308 -3.54227 0
M  V30 3278 H 327.964 -1.56423 -4.66683 0
M  V30 3279 N 329.616 1.39756 -0.72842 0
M  V30 3280 C 330.548 2.29157 -0.0446202 0
M  V30 3281 C 331.561 1.46484 0.710367 0
M  V30 3282 O 332.75 1.69632 0.55562 0
M  V30 3283 C 329.85 3.24987 0.961071 0
M  V30 3284 C 329.023 4.36572 0.268967 0
M  V30 3285 C 328.082 5.12756 1.18184 0
M  V30 3286 O 327.108 5.6534 0.661794 0
M  V30 3287 N 328.31 5.23331 2.51206 0
M  V30 3288 H 331.075 2.88482 -0.812295 0
M  V30 3289 H 328.636 1.51265 -0.577098 0
M  V30 3290 H 330.628 3.72827 1.57423 0
M  V30 3291 H 329.198 2.66739 1.63 0
M  V30 3292 H 328.418 3.90694 -0.524574 0
M  V30 3293 H 329.706 5.08363 -0.210934 0
M  V30 3294 H 329.104 4.82116 2.9594 0
M  V30 3295 H 327.661 5.74634 3.07634 0
M  V30 3296 N 331.094 0.475555 1.50254 0
M  V30 3297 C 332.505 0.0215174 1.86688 0
M  V30 3298 C 332.856 -1.38467 1.39001 0
M  V30 3299 O 331.981 -2.02732 0.756894 0
M  V30 3300 C 332.576 0.0322715 3.38785 0
M  V30 3301 C 331.135 -0.366314 3.74613 0
M  V30 3302 C 330.282 0.415832 2.74164 0
M  V30 3303 H 333.233 0.689612 1.42934 0
M  V30 3304 H 333.254 -0.76889 3.7265 0
M  V30 3305 H 332.766 1.05584 3.73462 0
M  V30 3306 H 330.867 -1.39406 3.45538 0
M  V30 3307 H 330.98 -0.064555 4.79057 0
M  V30 3308 H 329.344 -0.131048 2.54363 0
M  V30 3309 H 330.127 1.43899 3.11686 0
M  V30 3310 N 332.573 -1.56217 0.208337 0
M  V30 3311 C 333.819 -1.98998 -0.42086 0
M  V30 3312 C 334.174 -1.09331 -1.58317 0
M  V30 3313 O 333.467 -0.140466 -1.91084 0
M  V30 3314 C 333.661 -3.45441 -0.916797 0
M  V30 3315 C 333.49 -4.49273 0.195925 0
M  V30 3316 C 332.26 -5.00998 0.657956 0
M  V30 3317 C 334.458 -5.04294 1.00956 0
M  V30 3318 N 332.44 -5.88514 1.74712 0
M  V30 3319 C 333.811 -5.88607 1.94785 0
M  V30 3320 C 335.866 -4.86692 1.05049 0
M  V30 3321 C 334.569 -6.572 2.9237 0
M  V30 3322 C 336.595 -5.56034 2.01446 0
M  V30 3323 C 335.957 -6.40105 2.94016 0
M  V30 3324 H 332.056 -0.772574 -0.121048 0
M  V30 3325 H 334.64 -1.92101 0.317075 0
M  V30 3326 H 332.811 -3.52812 -1.62413 0
M  V30 3327 H 334.543 -3.75164 -1.51771 0
M  V30 3328 H 331.298 -4.72945 0.248912 0
M  V30 3329 H 331.722 -6.36975 2.2933 0
M  V30 3330 H 336.364 -4.21359 0.348759 0
M  V30 3331 H 334.082 -7.21723 3.63512 0
M  V30 3332 H 337.668 -5.44385 2.0527 0
M  V30 3333 H 336.548 -6.92816 3.6739 0
M  V30 3334 N 334.051 0.0651679 -1.57465 0
M  V30 3335 C 335.001 1.0838 -2.00594 0
M  V30 3336 C 335.985 1.34106 -0.889071 0
M  V30 3337 O 337.177 1.34295 -1.15299 0
M  V30 3338 C 334.306 2.39565 -2.45894 0
M  V30 3339 C 333.392 2.17085 -3.64328 0
M  V30 3340 N 333.783 1.64553 -4.78285 0
M  V30 3341 C 332.081 2.4753 -3.71006 0
M  V30 3342 C 332.782 1.57042 -5.60101 0
M  V30 3343 N 331.758 2.03328 -5.04141 0
M  V30 3344 H 335.56 0.671062 -2.86136 0
M  V30 3345 H 333.074 0.27213 -1.60104 0
M  V30 3346 H 335.071 3.13308 -2.75034 0
M  V30 3347 H 333.731 2.81549 -1.61741 0
M  V30 3348 H 334.742 1.33323 -5.00445 0
M  V30 3349 H 331.419 2.92835 -2.9758 0
M  V30 3350 H 332.809 1.17223 -6.61595 0
M  V30 3351 N 335.529 1.53961 0.336706 0
M  V30 3352 C 336.757 1.75483 1.09605 0
M  V30 3353 C 337.172 0.4972 1.82136 0
M  V30 3354 O 336.529 -0.53149 1.74589 0
M  V30 3355 C 336.58 2.93943 2.10428 0
M  V30 3356 O 336.301 4.14842 1.40846 0
M  V30 3357 C 337.802 3.27571 2.98684 0
M  V30 3358 H 335.022 0.586166 0.326574 0
M  V30 3359 H 337.566 2.00808 0.38683 0
M  V30 3360 H 335.721 2.70929 2.76905 0
M  V30 3361 H 336.135 4.81383 2.08255 0
M  V30 3362 H 337.609 4.13791 3.6535 0
M  V30 3363 H 338.086 2.44168 3.65074 0
M  V30 3364 H 338.692 3.52615 2.37787 0
M  V30 3365 N 337.007 -0.598083 1.45811 0
M  V30 3366 C 337.939 -1.72231 1.51225 0
M  V30 3367 C 338.952 -1.57757 0.402059 0
M  V30 3368 O 340.141 -1.65464 0.669624 0
M  V30 3369 C 337.241 -3.10331 1.3619 0
M  V30 3370 C 336.414 -3.50955 2.61054 0
M  V30 3371 C 335.473 -4.68055 2.40439 0
M  V30 3372 O 334.499 -4.74691 3.14097 0
M  V30 3373 N 335.701 -5.61941 1.45612 0
M  V30 3374 H 338.466 -1.68046 2.48154 0
M  V30 3375 H 336.027 -0.783637 1.41671 0
M  V30 3376 H 338.019 -3.86439 1.20195 0
M  V30 3377 H 336.589 -3.0897 0.475015 0
M  V30 3378 H 335.809 -2.64711 2.92099 0
M  V30 3379 H 337.097 -3.74858 3.44034 0
M  V30 3380 H 336.495 -5.59301 0.848431 0
M  V30 3381 H 335.052 -6.37542 1.35585 0
M  V30 3382 N 338.485 -1.33259 -0.841409 0
M  V30 3383 C 339.901 -1.12538 -1.13169 0
M  V30 3384 C 340.101 0.0854037 -2.01319 0
M  V30 3385 O 339.157 0.766417 -2.40587 0
M  V30 3386 C 340.47 -2.41156 -1.79623 0
M  V30 3387 C 342.018 -2.47038 -1.922 0
M  V30 3388 C 342.493 -3.7561 -2.6207 0
M  V30 3389 N 343.984 -3.76667 -2.69585 0
M  V30 3390 C 344.719 -4.72861 -3.2433 0
M  V30 3391 N 344.215 -5.79428 -3.79783 0
M  V30 3392 N 346.008 -4.6034 -3.22558 0
M  V30 3393 H 338.159 -2.10868 -0.254676 0
M  V30 3394 H 340.422 -0.931615 -0.175493 0
M  V30 3395 H 340.128 -3.29747 -1.22311 0
M  V30 3396 H 340.002 -2.53114 -2.79666 0
M  V30 3397 H 342.389 -1.58898 -2.48667 0
M  V30 3398 H 342.47 -2.39022 -0.911148 0
M  V30 3399 H 342.114 -4.64131 -2.06263 0
M  V30 3400 H 342.044 -3.80902 -3.63622 0
M  V30 3401 H 344.535 -2.99648 -2.30259 0
M  V30 3402 H 344.848 -6.48867 -4.19752 0
M  V30 3403 H 343.193 -5.83166 -3.78078 0
M  V30 3404 H 346.384 -3.76244 -2.78492 0
M  V30 3405 H 346.557 -5.35478 -3.64921 0
M  V30 3406 N 339.963 1.05934 -1.16686 0
M  V30 3407 C 341.24 1.75643 -0.860747 0
M  V30 3408 C 341.62 2.01144 0.640641 0
M  V30 3409 O 340.968 1.64147 1.58959 0
M  V30 3410 C 341.178 3.05493 -1.68745 0
M  V30 3411 C 342.526 3.79581 -1.90271 0
M  V30 3412 O 343.55 3.15344 -1.65641 0
M  V30 3413 O 342.409 4.9499 -2.31618 0
M  V30 3414 H 339.503 0.763426 -0.317977 0
M  V30 3415 H 342.049 1.1217 -1.27342 0
M  V30 3416 H 340.821 2.8264 -2.70611 0
M  V30 3417 H 340.444 3.76702 -1.27206 0
M  V30 3418 N 341.441 0.965919 1.2453 0
M  V30 3419 C 342.857 0.67216 1.44756 0
M  V30 3420 C 343.057 -0.766609 1.86347 0
M  V30 3421 O 342.113 -1.5407 2.00047 0
M  V30 3422 C 343.426 1.65473 2.51076 0
M  V30 3423 C 344.974 1.66716 2.64905 0
M  V30 3424 C 345.449 2.63766 3.74421 0
M  V30 3425 N 346.94 2.62198 3.81846 0
M  V30 3426 C 347.675 3.33966 4.66106 0
M  V30 3427 N 347.171 4.15245 5.54566 0
M  V30 3428 N 348.964 3.22799 4.60171 0
M  V30 3429 H 341.115 1.89553 0.958293 0
M  V30 3430 H 343.378 0.815979 0.482579 0
M  V30 3431 H 343.084 2.68296 2.27399 0
M  V30 3432 H 342.958 1.4261 3.49202 0
M  V30 3433 H 345.345 0.646057 2.87941 0
M  V30 3434 H 345.426 1.93642 1.67142 0
M  V30 3435 H 345.07 3.6601 3.52135 0
M  V30 3436 H 345 2.34121 4.71694 0
M  V30 3437 H 347.491 2.032 3.18619 0
M  V30 3438 H 347.804 4.66898 6.15814 0
M  V30 3439 H 346.149 4.1934 5.54237 0
M  V30 3440 H 349.34 2.58764 3.90075 0
M  V30 3441 H 349.513 3.78994 5.25612 0
M  V30 3442 N 342.919 -1.39368 0.735821 0
M  V30 3443 C 343.849 -2.33234 0.111506 0
M  V30 3444 C 344.83 -1.53954 -0.723334 0
M  V30 3445 O 346.015 -1.82344 -0.668147 0
M  V30 3446 C 343.145 -3.38057 -0.795917 0
M  V30 3447 C 342.099 -4.2795 -0.065172 0
M  V30 3448 C 341.425 -5.23479 -1.08967 0
M  V30 3449 C 342.725 -5.10741 1.09273 0
M  V30 3450 H 344.419 -2.85692 0.895571 0
M  V30 3451 H 341.965 -1.37364 0.432109 0
M  V30 3452 H 343.918 -4.02675 -1.24221 0
M  V30 3453 H 342.642 -2.8404 -1.61211 0
M  V30 3454 H 341.301 -3.64813 0.361511 0
M  V30 3455 H 340.949 -4.65758 -1.89944 0
M  V30 3456 H 340.649 -5.84472 -0.605489 0
M  V30 3457 H 342.173 -5.90974 -1.53565 0
M  V30 3458 H 343.587 -5.68699 0.724841 0
M  V30 3459 H 341.984 -5.8088 1.50659 0
M  V30 3460 H 343.054 -4.45525 1.91404 0
M  V30 3461 N 344.397 -0.483516 -1.5 0
M  V30 3462 C 345.643 0.0672592 -2.02688 0
M  V30 3463 C 345.976 1.38247 -1.36387 0
M  V30 3464 O 345.251 1.88131 -0.493675 0
M  V30 3465 C 345.534 0.238109 -3.59312 0
M  V30 3466 C 345.387 -1.099 -4.36168 0
M  V30 3467 C 346.706 0.986916 -4.28892 0
M  V30 3468 H 343.825 0.0229696 -0.736642 0
M  V30 3469 H 346.467 -0.631527 -1.79197 0
M  V30 3470 H 344.617 0.8333 -3.79458 0
M  V30 3471 H 346.289 -1.73172 -4.27562 0
M  V30 3472 H 344.532 -1.69261 -3.99416 0
M  V30 3473 H 345.203 -0.932954 -5.44059 0
M  V30 3474 H 347.679 0.482302 -4.13295 0
M  V30 3475 H 346.555 1.07527 -5.38265 0
M  V30 3476 H 346.816 2.0265 -3.92919 0
M  V30 3477 N 345.875 1.56104 -0.216619 0
M  V30 3478 C 346.785 2.23694 0.706982 0
M  V30 3479 C 347.801 1.24295 1.21765 0
M  V30 3480 O 348.977 1.57094 1.2603 0
M  V30 3481 C 346.042 2.8998 1.90033 0
M  V30 3482 C 345.103 4.04708 1.43213 0
M  V30 3483 C 344.336 4.67824 2.56859 0
M  V30 3484 O 344.559 4.29913 3.74874 0
M  V30 3485 O 343.493 5.56905 2.28343 0
M  V30 3486 H 347.319 3.03272 0.161235 0
M  V30 3487 H 344.904 1.49394 0.0136177 0
M  V30 3488 H 346.786 3.31837 2.59735 0
M  V30 3489 H 345.461 2.13365 2.43428 0
M  V30 3490 H 344.368 3.6743 0.70327 0
M  V30 3491 H 345.701 4.83051 0.944615 0
M  V30 3492 N 347.353 -0.0568162 1.57498 0
M  V30 3493 C 348.6 -0.753104 1.87975 0
M  V30 3494 C 348.928 -1.76815 0.81035 0
M  V30 3495 O 348.183 -1.94756 -0.19199 0
M  V30 3496 C 348.482 -1.48359 3.25153 0
M  V30 3497 C 348.148 -0.60713 4.46794 0
M  V30 3498 C 346.81 -0.365642 4.79809 0
M  V30 3499 C 349.162 -0.000305978 5.212 0
M  V30 3500 C 346.49 0.491905 5.84634 0
M  V30 3501 C 348.842 0.844781 6.26934 0
M  V30 3502 C 347.506 1.096 6.58441 0
M  V30 3503 H 346.776 -0.27558 0.687849 0
M  V30 3504 H 349.423 -0.0135173 1.91495 0
M  V30 3505 H 347.728 -2.29577 3.17492 0
M  V30 3506 H 349.425 -2.02739 3.45974 0
M  V30 3507 H 346.015 -0.805487 4.20963 0
M  V30 3508 H 350.199 -0.173961 4.95995 0
M  V30 3509 H 345.455 0.695131 6.07436 0
M  V30 3510 H 349.629 1.32165 6.83744 0
M  V30 3511 H 347.256 1.76224 7.39492 0
M  V30 3512 N 348.832 -1.54138 -0.328536 0
M  V30 3513 C 349.795 -1.82462 -1.38709 0
M  V30 3514 C 350.795 -0.696229 -1.44946 0
M  V30 3515 O 351.985 -0.964535 -1.4506 0
M  V30 3516 C 349.117 -1.98018 -2.77492 0
M  V30 3517 H 350.31 -2.77037 -1.14851 0
M  V30 3518 H 347.863 -1.45779 -0.563751 0
M  V30 3519 H 348.598 -1.05637 -3.06613 0
M  V30 3520 H 348.383 -2.80124 -2.74359 0
M  V30 3521 H 349.873 -2.21396 -3.54081 0
M  V30 3522 N 350.31 0.590341 -1.46126 0
M  V30 3523 C 351.535 1.37991 -1.54833 0
M  V30 3524 C 351.96 1.87163 -0.187506 0
M  V30 3525 O 351.318 1.61133 0.831008 0
M  V30 3526 C 351.366 2.54867 -2.55098 0
M  V30 3527 O 350.47 3.56061 -2.08073 0
M  V30 3528 H 349.811 0.411265 -0.521303 0
M  V30 3529 H 352.341 0.716819 -1.91632 0
M  V30 3530 H 352.351 3.01886 -2.74461 0
M  V30 3531 H 351.026 2.18429 -3.53923 0
M  V30 3532 H 349.603 3.15574 -1.98664 0
M  V30 3533 N 351.788 1.33704 0.83433 0
M  V30 3534 C 353.034 1.25603 1.59222 0
M  V30 3535 C 353.367 -0.176659 1.93395 0
M  V30 3536 O 352.642 -1.11915 1.59076 0
M  V30 3537 C 352.925 2.13576 2.89926 0
M  V30 3538 C 352.778 3.65326 2.62406 0
M  V30 3539 C 354.097 2.01238 3.91397 0
M  V30 3540 H 351.216 0.457613 0.577719 0
M  V30 3541 H 353.858 1.63848 0.961972 0
M  V30 3542 H 352.008 1.8109 3.43713 0
M  V30 3543 H 353.68 4.08124 2.15017 0
M  V30 3544 H 351.923 3.8698 1.96033 0
M  V30 3545 H 352.594 4.22232 3.55562 0
M  V30 3546 H 355.07 2.29738 3.46929 0
M  V30 3547 H 353.946 2.65036 4.80673 0
M  V30 3548 H 354.207 0.985951 4.30966 0
M  V30 3549 N 353.266 -1.05314 1.17247 0
M  V30 3550 C 354.196 -2.1498 0.911362 0
M  V30 3551 C 355.177 -1.69471 -0.146169 0
M  V30 3552 O 356.362 -1.942 0.003812 0
M  V30 3553 C 353.492 -3.4472 0.422528 0
M  V30 3554 C 352.446 -4.03789 1.4191 0
M  V30 3555 C 351.772 -5.28858 0.788274 0
M  V30 3556 C 353.072 -4.41418 2.7919 0
M  V30 3557 H 354.766 -2.3708 1.82848 0
M  V30 3558 H 352.312 -1.13938 0.880569 0
M  V30 3559 H 354.265 -4.20787 0.227289 0
M  V30 3560 H 352.989 -3.22269 -0.530123 0
M  V30 3561 H 351.648 -3.2979 1.60106 0
M  V30 3562 H 351.296 -5.02709 -0.171173 0
M  V30 3563 H 350.996 -5.69338 1.45353 0
M  V30 3564 H 352.52 -6.07612 0.603282 0
M  V30 3565 H 353.934 -5.08524 2.64719 0
M  V30 3566 H 352.331 -4.92913 3.42282 0
M  V30 3567 H 353.401 -3.51819 3.33693 0
M  V30 3568 N 354.744 -0.972509 -1.24016 0
M  V30 3569 C 355.992 -0.635776 -1.91839 0
M  V30 3570 C 356.313 0.832312 -1.76345 0
M  V30 3571 O 355.583 1.5946 -1.13795 0
M  V30 3572 H 354.163 -0.232157 -0.710009 0
M  V30 3573 H 356.825 -1.23462 -1.50809 0
M  V30 3574 H 355.921 -0.880545 -2.99421 0
M  V30 3575 N 356.222 1.38976 -0.743202 0
M  V30 3576 C 357.152 2.33171 -0.123873 0
M  V30 3577 C 358.133 1.54336 0.71516 0
M  V30 3578 O 359.318 1.82696 0.658467 0
M  V30 3579 C 356.448 3.38474 0.777978 0
M  V30 3580 C 355.402 4.27979 0.0424758 0
M  V30 3581 C 354.728 5.2405 1.06189 0
M  V30 3582 C 356.028 5.10155 -1.1198 0
M  V30 3583 H 357.722 2.85213 -0.910709 0
M  V30 3584 H 355.268 1.37133 -0.439388 0
M  V30 3585 H 357.221 4.03328 1.22084 0
M  V30 3586 H 355.945 2.84891 1.59702 0
M  V30 3587 H 354.604 3.64616 -0.380853 0
M  V30 3588 H 354.252 4.66758 1.87472 0
M  V30 3589 H 353.952 5.84785 0.574485 0
M  V30 3590 H 355.476 5.9178 1.50428 0
M  V30 3591 H 356.89 5.68307 -0.75499 0
M  V30 3592 H 355.287 5.80073 -1.53738 0
M  V30 3593 H 356.357 4.44504 -1.93764 0
M  V30 3594 N 357.7 0.491464 1.49741 0
M  V30 3595 C 358.946 -0.0565092 2.02721 0
M  V30 3596 C 359.279 -1.37522 1.37118 0
M  V30 3597 O 358.554 -1.87866 0.503645 0
M  V30 3598 C 358.837 -0.219051 3.59433 0
M  V30 3599 C 358.69 1.12211 4.35579 0
M  V30 3600 C 360.009 -0.964157 4.29409 0
M  V30 3601 H 357.128 -0.0190627 0.736753 0
M  V30 3602 H 359.77 0.641021 1.7886 0
M  V30 3603 H 357.92 -0.813165 3.79895 0
M  V30 3604 H 359.592 1.75437 4.26637 0
M  V30 3605 H 357.835 1.71377 3.98513 0
M  V30 3606 H 358.506 0.961794 5.43556 0
M  V30 3607 H 360.982 -0.460378 4.13545 0
M  V30 3608 H 359.858 -1.04671 5.38828 0
M  V30 3609 H 360.119 -2.00563 3.93988 0
M  V30 3610 N 359.178 -1.55987 0.224894 0
M  V30 3611 C 360.141 -2.19178 -0.670348 0
M  V30 3612 C 361.141 -1.15461 -1.11917 0
M  V30 3613 O 362.331 -1.40675 -1.02743 0
M  V30 3614 C 359.463 -2.81777 -1.9187 0
M  V30 3615 H 360.656 -2.99662 -0.119364 0
M  V30 3616 H 358.209 -1.5628 -0.0247128 0
M  V30 3617 H 358.944 -2.05172 -2.51147 0
M  V30 3618 H 358.729 -3.57732 -1.60531 0
M  V30 3619 H 360.219 -3.30205 -2.55645 0
M  V30 3620 N 360.656 0.0484629 -1.57525 0
M  V30 3621 C 361.904 0.741657 -1.88 0
M  V30 3622 C 362.225 1.76918 -0.820054 0
M  V30 3623 O 361.495 1.95335 0.148661 0
M  V30 3624 H 360.075 0.276908 -0.69378 0
M  V30 3625 H 362.737 0.019013 -1.94891 0
M  V30 3626 H 361.833 1.24336 -2.86264 0
M  V30 3627 N 362.134 1.5431 0.320358 0
M  V30 3628 C 363.359 1.76954 1.08175 0
M  V30 3629 C 363.784 0.518193 1.80821 0
M  V30 3630 O 363.142 -0.530411 1.73368 0
M  V30 3631 C 363.19 2.96451 2.05303 0
M  V30 3632 O 362.294 2.68221 3.13259 0
M  V30 3633 H 361.635 0.586275 0.311733 0
M  V30 3634 H 364.165 2.01342 0.363676 0
M  V30 3635 H 364.175 3.23887 2.48116 0
M  V30 3636 H 362.85 3.87196 1.51829 0
M  V30 3637 H 361.427 2.51744 2.75099 0
M  V30 3638 N 363.613 -0.582584 1.46437 0
M  V30 3639 C 364.543 -1.70187 1.59871 0
M  V30 3640 C 365.524 -1.64066 0.449042 0
M  V30 3641 O 366.709 -1.82081 0.6753 0
M  V30 3642 C 363.839 -3.08827 1.58881 0
M  V30 3643 C 362.793 -3.29779 2.72819 0
M  V30 3644 C 362.119 -4.68947 2.5689 0
M  V30 3645 C 363.419 -3.17601 4.1464 0
M  V30 3646 H 365.113 -1.592 2.53566 0
M  V30 3647 H 362.659 -0.764472 1.22032 0
M  V30 3648 H 364.612 -3.86951 1.66873 0
M  V30 3649 H 363.336 -3.20713 0.617306 0
M  V30 3650 H 361.995 -2.54054 2.64296 0
M  V30 3651 H 361.643 -4.77599 1.57823 0
M  V30 3652 H 361.343 -4.83919 3.33312 0
M  V30 3653 H 362.867 -5.4924 2.66773 0
M  V30 3654 H 364.281 -3.8557 4.24274 0
M  V30 3655 H 362.678 -3.44094 4.9165 0
M  V30 3656 H 363.748 -2.14681 4.34788 0
M  V30 3657 N 365.091 -1.34144 -0.827227 0
M  V30 3658 C 366.339 -1.26009 -1.58007 0
M  V30 3659 C 366.66 0.170971 -1.94249 0
M  V30 3660 O 365.93 1.10256 -1.61927 0
M  V30 3661 H 364.51 -0.463414 -0.585881 0
M  V30 3662 H 367.172 -1.68005 -0.987951 0
M  V30 3663 H 366.268 -1.86187 -2.50481 0
M  V30 3664 N 366.569 1.04691 -1.17803 0
M  V30 3665 C 367.516 2.12557 -0.899343 0
M  V30 3666 C 368.486 1.65339 0.158771 0
M  V30 3667 O 369.671 1.90789 0.0204797 0
M  V30 3668 C 366.811 3.42481 -0.424315 0
M  V30 3669 C 365.924 4.03346 -1.54713 0
M  V30 3670 C 365.059 5.21208 -1.02546 0
M  V30 3671 C 364.098 5.74089 -2.12339 0
M  V30 3672 N 363.235 6.83247 -1.61612 0
M  V30 3673 H 368.075 2.35734 -1.823 0
M  V30 3674 H 365.612 1.1564 -0.909159 0
M  V30 3675 H 367.57 4.16996 -0.130421 0
M  V30 3676 H 366.2 3.19471 0.462377 0
M  V30 3677 H 365.252 3.2622 -1.95664 0
M  V30 3678 H 366.564 4.38628 -2.37501 0
M  V30 3679 H 365.718 6.02812 -0.685718 0
M  V30 3680 H 364.457 4.87414 -0.167084 0
M  V30 3681 H 363.462 4.91111 -2.47165 0
M  V30 3682 H 364.687 6.0993 -2.98601 0
M  V30 3683 H 362.633 6.5134 -0.780533 0
M  V30 3684 H 362.55 7.17559 -2.38003 0
M  V30 3685 H 363.818 7.68491 -1.30545 0
M  V30 3686 N 368.047 0.979072 1.23499 0
M  V30 3687 C 369.294 0.647219 1.91878 0
M  V30 3688 C 369.622 -0.819074 1.76413 0
M  V30 3689 O 368.877 -1.60616 1.11808 0
M  V30 3690 C 369.176 0.981932 3.43646 0
M  V30 3691 C 368.842 2.43822 3.79291 0
M  V30 3692 C 367.504 2.83622 3.88731 0
M  V30 3693 C 369.856 3.3828 3.96505 0
M  V30 3694 C 367.184 4.16897 4.12812 0
M  V30 3695 C 369.536 4.71197 4.22085 0
M  V30 3696 C 368.2 5.10758 4.29747 0
M  V30 3697 H 367.47 0.236834 0.702133 0
M  V30 3698 H 370.117 1.23268 1.46551 0
M  V30 3699 H 368.422 0.314365 3.90537 0
M  V30 3700 H 370.119 0.703395 3.94783 0
M  V30 3701 H 366.709 2.11966 3.72516 0
M  V30 3702 H 370.893 3.0871 3.88603 0
M  V30 3703 H 366.149 4.47157 4.16966 0
M  V30 3704 H 370.323 5.44348 4.34348 0
M  V30 3705 H 367.95 6.1405 4.48159 0
M  V30 3706 N 369.525 -1.3858 0.750561 0
M  V30 3707 C 370.773 -1.99789 0.30477 0
M  V30 3708 C 371.094 -1.59874 -1.11649 0
M  V30 3709 O 370.364 -0.85417 -1.76297 0
M  V30 3710 H 368.944 -0.738902 0.109694 0
M  V30 3711 H 371.606 -1.69391 0.963983 0
M  V30 3712 H 370.702 -3.09952 0.365499 0
M  V30 3713 N 371.003 -0.499398 -1.49478 0
M  V30 3714 C 372.419 -0.155261 -1.58843 0
M  V30 3715 C 372.619 1.34008 -1.50479 0
M  V30 3716 O 371.675 2.11589 -1.37791 0
M  V30 3717 C 372.988 -0.730636 -2.91689 0
M  V30 3718 C 374.536 -0.696599 -3.0515 0
M  V30 3719 C 375.011 -1.25001 -4.40612 0
M  V30 3720 N 376.502 -1.21064 -4.47099 0
M  V30 3721 C 377.237 -1.60905 -5.50361 0
M  V30 3722 N 376.733 -2.08331 -6.60735 0
M  V30 3723 N 378.526 -1.52331 -5.41065 0
M  V30 3724 H 370.677 -1.47162 -1.53158 0
M  V30 3725 H 372.94 -0.610309 -0.725415 0
M  V30 3726 H 372.646 -1.77928 -3.03372 0
M  V30 3727 H 372.52 -0.190161 -3.7672 0
M  V30 3728 H 374.907 0.343204 -2.93097 0
M  V30 3729 H 374.988 -1.2742 -2.21806 0
M  V30 3730 H 374.632 -2.28859 -4.53416 0
M  V30 3731 H 374.562 -0.64836 -5.22593 0
M  V30 3732 H 377.053 -0.863128 -3.67911 0
M  V30 3733 H 377.366 -2.36805 -7.35624 0
M  V30 3734 H 375.711 -2.12304 -6.6178 0
M  V30 3735 H 378.902 -1.151 -4.53729 0
M  V30 3736 H 379.075 -1.83704 -6.21415 0
M  V30 3737 N 372.481 1.55866 -0.233164 0
M  V30 3738 C 373.758 1.90471 0.444988 0
M  V30 3739 C 374.138 1.15209 1.7689 0
M  V30 3740 O 373.486 0.265119 2.26957 0
M  V30 3741 C 373.696 3.4333 0.626559 0
M  V30 3742 C 375.044 4.14319 0.92871 0
M  V30 3743 O 376.068 3.48993 0.712926 0
M  V30 3744 O 374.927 5.29846 1.33887 0
M  V30 3745 H 372.021 0.792347 0.236885 0
M  V30 3746 H 374.567 1.67437 -0.276211 0
M  V30 3747 H 373.339 3.90095 -0.306822 0
M  V30 3748 H 372.962 3.72181 1.39881 0
M  V30 3749 N 373.959 -0.0401083 1.57549 0
M  V30 3750 C 375.205 -0.734211 1.89043 0
M  V30 3751 C 375.538 -1.75591 0.829535 0
M  V30 3752 O 374.813 -1.93868 -0.156706 0
M  V30 3753 C 375.096 -1.41374 3.31188 0
M  V30 3754 C 374.949 -0.406299 4.47961 0
M  V30 3755 C 376.268 -2.35061 3.72068 0
M  V30 3756 H 373.387 -0.265447 0.687537 0
M  V30 3757 H 376.029 0.00294087 1.9 0
M  V30 3758 H 374.179 -2.04206 3.30503 0
M  V30 3759 H 375.851 0.219255 4.60779 0
M  V30 3760 H 374.094 0.275485 4.32924 0
M  V30 3761 H 374.765 -0.920022 5.44279 0
M  V30 3762 H 377.241 -1.82282 3.74049 0
M  V30 3763 H 376.117 -2.79593 4.72355 0
M  V30 3764 H 376.378 -3.21258 3.0372 0
M  V30 3765 N 375.437 -1.54477 -0.31217 0
M  V30 3766 C 376.662 -1.77526 -1.07235 0
M  V30 3767 C 377.087 -0.527775 -1.80544 0
M  V30 3768 O 376.445 0.52121 -1.73646 0
M  V30 3769 C 376.493 -2.97535 -2.03728 0
M  V30 3770 O 375.597 -2.69878 -3.11833 0
M  V30 3771 H 374.938 -0.58792 -0.30862 0
M  V30 3772 H 377.468 -2.01532 -0.352993 0
M  V30 3773 H 377.478 -3.25198 -2.46395 0
M  V30 3774 H 376.153 -3.87996 -1.49774 0
M  V30 3775 H 374.73 -2.53199 -2.7376 0
M  V30 3776 N 376.915 0.57481 -1.46744 0
M  V30 3777 C 377.845 1.69337 -1.60771 0
M  V30 3778 C 378.826 1.63825 -0.457736 0
M  V30 3779 O 380.011 1.8172 -0.684947 0
M  V30 3780 C 377.141 3.0798 -1.60517 0
M  V30 3781 C 376.095 3.28327 -2.74564 0
M  V30 3782 C 375.421 4.67578 -2.59373 0
M  V30 3783 C 376.721 3.15398 -4.16319 0
M  V30 3784 H 378.415 1.57853 -2.54407 0
M  V30 3785 H 375.961 0.75799 -1.22436 0
M  V30 3786 H 377.914 3.86061 -1.68923 0
M  V30 3787 H 376.638 3.20381 -0.634305 0
M  V30 3788 H 375.297 2.52649 -2.65639 0
M  V30 3789 H 374.945 4.76755 -1.60353 0
M  V30 3790 H 374.645 4.82144 -3.35873 0
M  V30 3791 H 376.169 5.47817 -2.69682 0
M  V30 3792 H 377.583 3.83315 -4.26313 0
M  V30 3793 H 375.98 3.41482 -4.93468 0
M  V30 3794 H 377.05 2.12372 -4.3592 0
M  V30 3795 N 378.394 1.34581 0.820102 0
M  V30 3796 C 379.324 1.29038 1.94606 0
M  V30 3797 C 380.305 0.1673 1.69275 0
M  V30 3798 O 381.49 0.360112 1.90832 0
M  V30 3799 C 378.62 1.04793 3.31113 0
M  V30 3800 C 377.574 2.13597 3.70891 0
M  V30 3801 C 376.9 1.74537 5.05412 0
M  V30 3802 C 378.2 3.55451 3.8269 0
M  V30 3803 H 379.894 2.23248 1.99501 0
M  V30 3804 H 377.44 1.0747 0.958449 0
M  V30 3805 H 379.393 0.995592 4.0947 0
M  V30 3806 H 378.117 0.0702565 3.26524 0
M  V30 3807 H 376.776 2.17905 2.9481 0
M  V30 3808 H 376.424 0.754226 4.97313 0
M  V30 3809 H 376.124 2.47361 5.32997 0
M  V30 3810 H 377.648 1.70803 5.86224 0
M  V30 3811 H 379.062 3.5354 4.51312 0
M  V30 3812 H 377.459 4.26922 4.21732 0
M  V30 3813 H 378.529 3.92587 2.84611 0
M  V30 3814 N 379.872 -1.04064 1.18357 0
M  V30 3815 C 380.805 -2.11618 0.854 0
M  V30 3816 C 381.783 -1.61555 -0.184043 0
M  V30 3817 O 382.967 -1.88395 -0.0630048 0
M  V30 3818 C 380.094 -3.37574 0.27597 0
M  V30 3819 C 379.14 -4.06485 1.2912 0
M  V30 3820 S 379.973 -4.53543 2.84709 0
M  V30 3821 C 381.129 -5.82732 2.28417 0
M  V30 3822 H 381.362 -2.39247 1.76488 0
M  V30 3823 H 378.895 -1.16832 1.00944 0
M  V30 3824 H 380.853 -4.10468 -0.051026 0
M  V30 3825 H 379.514 -3.0806 -0.613028 0
M  V30 3826 H 378.707 -4.97024 0.835633 0
M  V30 3827 H 378.309 -3.39708 1.56443 0
M  V30 3828 H 380.601 -6.56677 1.66677 0
M  V30 3829 H 381.544 -6.33052 3.17256 0
M  V30 3830 H 381.952 -5.37838 1.71436 0
M  V30 3831 N 381.35 -0.985608 -1.22978 0
M  V30 3832 C 382.282 -0.488154 -2.23941 0
M  V30 3833 C 383.295 0.41282 -1.57479 0
M  V30 3834 O 384.484 0.216121 -1.77187 0
M  V30 3835 C 381.584 0.312611 -3.37455 0
M  V30 3836 C 380.757 -0.582741 -4.33501 0
M  V30 3837 C 379.816 0.165064 -5.25941 0
M  V30 3838 O 378.842 -0.447077 -5.67442 0
M  V30 3839 N 380.044 1.44953 -5.62111 0
M  V30 3840 H 382.809 -1.3563 -2.67254 0
M  V30 3841 H 380.37 -0.859477 -1.37203 0
M  V30 3842 H 382.362 0.821357 -3.96277 0
M  V30 3843 H 380.932 1.0818 -2.93285 0
M  V30 3844 H 380.152 -1.27225 -3.73105 0
M  V30 3845 H 381.44 -1.19275 -4.94622 0
M  V30 3846 H 380.838 1.9683 -5.30353 0
M  V30 3847 H 379.395 1.90361 -6.23383 0
M  V30 3848 N 382.828 1.3818 -0.7579 0
M  V30 3849 C 384.056 2.04301 -0.326937 0
M  V30 3850 C 384.471 1.57163 1.0462 0
M  V30 3851 O 383.828 0.746626 1.66529 0
M  V30 3852 C 383.879 3.59846 -0.345363 0
M  V30 3853 O 383.6 4.05256 -1.66432 0
M  V30 3854 C 385.101 4.4319 0.098927 0
M  V30 3855 H 382.321 0.656443 -0.139012 0
M  V30 3856 H 384.865 1.76786 -1.02796 0
M  V30 3857 H 383.02 3.86182 0.306955 0
M  V30 3858 H 383.434 4.99709 -1.59345 0
M  V30 3859 H 384.908 5.51989 0.0348745 0
M  V30 3860 H 385.385 4.23947 1.14741 0
M  V30 3861 H 385.991 4.22051 -0.52468 0
M  V30 3862 N 384.306 0.507319 1.49211 0
M  V30 3863 C 385.216 -0.272136 2.33016 0
M  V30 3864 C 386.232 -0.961206 1.45041 0
M  V30 3865 O 387.408 -0.941191 1.78055 0
M  V30 3866 C 384.473 -1.31895 3.20631 0
M  V30 3867 C 383.534 -0.642648 4.24463 0
M  V30 3868 C 382.767 -1.63959 5.07891 0
M  V30 3869 O 382.99 -2.87007 4.92933 0
M  V30 3870 O 381.924 -1.19143 5.8999 0
M  V30 3871 H 385.75 0.413982 3.00865 0
M  V30 3872 H 383.335 0.268556 1.46966 0
M  V30 3873 H 385.217 -1.92446 3.7489 0
M  V30 3874 H 383.892 -1.98788 2.5547 0
M  V30 3875 H 382.799 0.00276252 3.741 0
M  V30 3876 H 384.132 -0.0160534 4.92197 0
M  V30 3877 N 385.784 -1.5574 0.241426 0
M  V30 3878 C 386.747 -2.19877 -0.647063 0
M  V30 3879 C 387.747 -1.16642 -1.10686 0
M  V30 3880 O 388.937 -1.41757 -1.01245 0
M  V30 3881 C 386.069 -2.83797 -1.88871 0
M  V30 3882 H 387.262 -2.99772 -0.087574 0
M  V30 3883 H 384.815 -1.56298 -0.00813574 0
M  V30 3884 H 385.55 -2.07824 -2.48957 0
M  V30 3885 H 385.335 -3.59414 -1.56728 0
M  V30 3886 H 386.825 -3.32898 -2.52129 0
M  V30 3887 N 387.262 0.0317525 -1.57568 0
M  V30 3888 C 388.51 0.721676 -1.88776 0
M  V30 3889 C 388.831 1.76039 -0.838772 0
M  V30 3890 O 388.101 1.95482 0.127935 0
M  V30 3891 H 386.681 0.269534 -0.696678 0
M  V30 3892 H 389.343 -0.00165879 -1.949 0
M  V30 3893 H 388.439 1.21293 -2.87566 0
M  V30 3894 N 388.74 1.54641 0.303973 0
M  V30 3895 C 389.65 1.88439 1.39743 0
M  V30 3896 C 390.666 0.778239 1.55626 0
M  V30 3897 O 391.842 1.07442 1.70347 0
M  V30 3898 C 388.907 2.12212 2.74166 0
M  V30 3899 C 387.968 3.35936 2.67293 0
M  V30 3900 C 387.201 3.58566 3.95305 0
M  V30 3901 O 387.424 2.84263 4.9452 0
M  V30 3902 O 386.358 4.52078 3.97378 0
M  V30 3903 H 390.184 2.81458 1.14083 0
M  V30 3904 H 387.769 1.40793 0.499768 0
M  V30 3905 H 389.651 2.29067 3.53704 0
M  V30 3906 H 388.326 1.22379 2.99675 0
M  V30 3907 H 387.233 3.24448 1.86237 0
M  V30 3908 H 388.566 4.2589 2.46736 0
M  V30 3909 N 390.218 -0.567019 1.47046 0
M  V30 3910 C 391.464 -1.32658 1.53394 0
M  V30 3911 C 391.797 -1.93254 0.19148 0
M  V30 3912 O 391.072 -1.77338 -0.798844 0
M  V30 3913 C 391.355 -2.44412 2.64452 0
M  V30 3914 C 391.208 -1.88749 4.08282 0
M  V30 3915 C 392.527 -3.46387 2.71485 0
M  V30 3916 H 389.646 -0.48098 0.558415 0
M  V30 3917 H 392.288 -0.635481 1.79058 0
M  V30 3918 H 390.438 -3.03363 2.427 0
M  V30 3919 H 392.11 -1.34134 4.41368 0
M  V30 3920 H 390.353 -1.19481 4.17021 0
M  V30 3921 H 391.024 -2.69491 4.81745 0
M  V30 3922 H 393.5 -2.9734 2.91081 0
M  V30 3923 H 392.376 -4.2202 3.50985 0
M  V30 3924 H 392.637 -4.04616 1.78153 0
M  V30 3925 N 391.696 -1.35014 -0.812953 0
M  V30 3926 C 392.943 -1.27931 -1.56971 0
M  V30 3927 C 393.271 0.148034 -1.93936 0
M  V30 3928 O 392.526 1.11175 -1.61054 0
M  V30 3929 C 392.825 -2.12524 -2.87347 0
M  V30 3930 C 392.491 -3.61401 -2.6963 0
M  V30 3931 C 391.153 -4.01983 -2.64506 0
M  V30 3932 C 393.505 -4.55894 -2.52607 0
M  V30 3933 C 390.833 -5.35235 -2.40293 0
M  V30 3934 C 393.185 -5.89336 -2.29925 0
M  V30 3935 C 391.849 -6.2907 -2.23219 0
M  V30 3936 H 391.119 -0.468131 -0.574399 0
M  V30 3937 H 393.766 -1.66851 -0.939836 0
M  V30 3938 H 392.071 -1.66463 -3.54679 0
M  V30 3939 H 393.768 -2.04383 -3.45005 0
M  V30 3940 H 390.358 -3.29193 -2.74463 0
M  V30 3941 H 394.542 -4.25431 -2.55583 0
M  V30 3942 H 389.798 -5.65028 -2.33566 0
M  V30 3943 H 393.972 -6.62139 -2.15743 0
M  V30 3944 H 391.599 -7.32256 -2.04219 0
M  V30 3945 N 393.175 1.03435 -1.18907 0
M  V30 3946 C 394.085 2.15075 -0.937015 0
M  V30 3947 C 395.101 1.73706 0.101085 0
M  V30 3948 O 396.277 2.01232 -0.0822948 0
M  V30 3949 C 393.342 3.43458 -0.473057 0
M  V30 3950 C 392.403 3.99172 -1.57989 0
M  V30 3951 C 391.636 5.21427 -1.13797 0
M  V30 3952 O 391.859 5.704 0.000725941 0
M  V30 3953 O 390.793 5.69837 -1.9383 0
M  V30 3954 H 394.619 2.39198 -1.87131 0
M  V30 3955 H 392.204 1.13506 -0.971427 0
M  V30 3956 H 394.086 4.20811 -0.222702 0
M  V30 3957 H 392.761 3.20793 0.432869 0
M  V30 3958 H 391.668 3.23178 -1.88433 0
M  V30 3959 H 393.001 4.2619 -2.46217 0
M  V30 3960 N 394.653 0.992116 1.22453 0
M  V30 3961 C 396.064 0.702776 1.72968 0
M  V30 3962 C 396.415 -0.780399 1.80012 0
M  V30 3963 O 395.54 -1.61007 1.44589 0
M  V30 3964 C 396.135 1.26903 3.14135 0
M  V30 3965 C 394.694 1.02909 3.62059 0
M  V30 3966 C 393.841 1.38969 2.39964 0
M  V30 3967 H 396.792 1.16457 1.07812 0
M  V30 3968 H 396.813 0.647223 3.74955 0
M  V30 3969 H 396.325 2.34851 3.08977 0
M  V30 3970 H 394.426 -0.0337979 3.72585 0
M  V30 3971 H 394.539 1.69191 4.48231 0
M  V30 3972 H 392.903 0.808279 2.41535 0
M  V30 3973 H 393.686 2.4792 2.37467 0
M  V30 3974 N 396.131 -1.37776 0.765217 0
M  V30 3975 C 397.356 -2.04651 0.336537 0
M  V30 3976 C 397.781 -1.57337 -1.03086 0
M  V30 3977 O 397.139 -0.730621 -1.65927 0
M  V30 3978 C 397.187 -3.58577 0.381468 0
M  V30 3979 O 396.291 -4.07706 -0.62042 0
M  V30 3980 H 395.632 -0.64756 0.146838 0
M  V30 3981 H 398.162 -1.76221 1.03959 0
M  V30 3982 H 398.172 -4.07314 0.236448 0
M  V30 3983 H 396.847 -3.9237 1.37907 0
M  V30 3984 H 395.424 -3.70306 -0.439056 0
M  V30 3985 N 397.609 -0.515225 -1.4894 0
M  V30 3986 C 398.572 0.244681 -2.2789 0
M  V30 3987 C 399.572 0.881166 -1.34507 0
M  V30 3988 O 400.762 0.743497 -1.57537 0
M  V30 3989 C 397.894 1.35247 -3.12923 0
M  V30 3990 H 399.087 -0.448289 -2.96531 0
M  V30 3991 H 396.64 -0.270656 -1.53939 0
M  V30 3992 H 397.375 2.07916 -2.48881 0
M  V30 3993 H 397.16 0.901374 -3.81599 0
M  V30 3994 H 398.65 1.88737 -3.72516 0
M  V30 3995 N 399.087 1.5561 -0.249682 0
M  V30 3996 C 400.498 1.84979 0.252949 0
M  V30 3997 C 400.849 1.17153 1.57384 0
M  V30 3998 O 399.974 0.450884 2.11651 0
M  V30 3999 C 400.569 3.35584 0.465732 0
M  V30 4000 C 399.128 3.65169 0.912624 0
M  V30 4001 C 398.275 2.77299 -0.00859085 0
M  V30 4002 H 401.226 1.51513 -0.47217 0
M  V30 4003 H 401.247 3.57313 1.30795 0
M  V30 4004 H 400.759 3.8492 -0.49579 0
M  V30 4005 H 398.86 3.21312 1.88652 0
M  V30 4006 H 398.973 4.72912 0.767559 0
M  V30 4007 H 397.337 2.49678 0.50327 0
M  V30 4008 H 398.12 3.29442 -0.965537 0
M  V30 4009 N 400.565 -0.0233959 1.57583 0
M  V30 4010 C 401.813 -0.711654 1.89156 0
M  V30 4011 C 402.134 -1.75591 0.848096 0
M  V30 4012 O 401.404 -1.95547 -0.117566 0
M  V30 4013 H 399.984 -0.265835 0.698098 0
M  V30 4014 H 402.646 0.0119948 1.94896 0
M  V30 4015 H 401.742 -1.19766 2.88206 0
M  V30 4016 N 402.043 -1.548 -0.295768 0
M  V30 4017 C 402.99 -1.86113 -1.36494 0
M  V30 4018 C 403.96 -0.7105 -1.50137 0
M  V30 4019 O 405.145 -0.959626 -1.64912 0
M  V30 4020 C 402.285 -2.11861 -2.72413 0
M  V30 4021 C 401.398 -3.39471 -2.67177 0
M  V30 4022 C 400.533 -3.55035 -3.95125 0
M  V30 4023 C 399.572 -4.76418 -3.84308 0
M  V30 4024 N 398.709 -4.8876 -5.04042 0
M  V30 4025 H 403.549 -2.77314 -1.09091 0
M  V30 4026 H 401.086 -1.37315 -0.52753 0
M  V30 4027 H 403.044 -2.24786 -3.51464 0
M  V30 4028 H 401.674 -1.2392 -2.98066 0
M  V30 4029 H 400.726 -3.35139 -1.79962 0
M  V30 4030 H 402.038 -4.28646 -2.55076 0
M  V30 4031 H 401.192 -3.67653 -4.82614 0
M  V30 4032 H 399.931 -2.64002 -4.10066 0
M  V30 4033 H 398.936 -4.63827 -2.95202 0
M  V30 4034 H 400.161 -5.68863 -3.70906 0
M  V30 4035 H 398.107 -4.00652 -5.19436 0
M  V30 4036 H 398.024 -5.71945 -4.94384 0
M  V30 4037 H 399.292 -5.0574 -5.93167 0
M  V30 4038 N 403.521 0.559213 -1.47345 0
M  V30 4039 C 404.769 1.31388 -1.53563 0
M  V30 4040 C 405.09 1.93985 -0.198678 0
M  V30 4041 O 404.36 1.79825 0.777167 0
M  V30 4042 H 402.94 0.487901 -0.565652 0
M  V30 4043 H 405.602 0.65315 -1.8363 0
M  V30 4044 H 404.698 2.10844 -2.30111 0
M  V30 4045 N 404.999 1.35443 0.805782 0
M  V30 4046 C 406.247 1.28507 1.55982 0
M  V30 4047 C 406.568 -0.140046 1.94496 0
M  V30 4048 O 405.838 -1.07666 1.63661 0
M  V30 4049 H 404.418 0.472676 0.578434 0
M  V30 4050 H 407.08 1.69555 0.961098 0
M  V30 4051 H 406.176 1.90148 2.47488 0
M  V30 4052 N 406.477 -1.02803 1.19454 0
M  V30 4053 C 407.702 -1.80378 1.02364 0
M  V30 4054 C 408.127 -1.83282 -0.423007 0
M  V30 4055 O 407.485 -1.25945 -1.30413 0
M  V30 4056 C 407.533 -3.23248 1.59821 0
M  V30 4057 O 406.637 -4.04 0.828105 0
M  V30 4058 H 405.978 -0.556799 0.361761 0
M  V30 4059 H 408.508 -1.29385 1.58495 0
M  V30 4060 H 408.518 -3.73994 1.63073 0
M  V30 4061 H 407.193 -3.2045 2.65113 0
M  V30 4062 H 405.77 -3.62635 0.86891 0
M  V30 4063 N 407.956 -0.998596 -1.21925 0
M  V30 4064 C 409.181 -0.696015 -1.95372 0
M  V30 4065 C 409.606 0.733826 -1.73195 0
M  V30 4066 O 408.964 1.50242 -1.01474 0
M  V30 4067 C 409.012 -1.01466 -3.4603 0
M  V30 4068 O 408.116 -0.116415 -4.12236 0
M  V30 4069 H 407.457 -0.259938 -0.611006 0
M  V30 4070 H 409.987 -1.33711 -1.54863 0
M  V30 4071 H 409.997 -0.958855 -3.96573 0
M  V30 4072 H 408.672 -2.05653 -3.61497 0
M  V30 4073 H 407.249 -0.228193 -3.72201 0
M  V30 4074 N 409.434 1.37368 -0.772513 0
M  V30 4075 C 410.662 2.03942 -0.348588 0
M  V30 4076 C 411.077 1.58264 1.02947 0
M  V30 4077 O 410.434 0.764246 1.65727 0
M  V30 4078 C 410.485 3.5946 -0.38351 0
M  V30 4079 O 410.206 4.03468 -1.70721 0
M  V30 4080 C 411.707 4.4327 0.0519152 0
M  V30 4081 H 408.927 0.654931 -0.145966 0
M  V30 4082 H 411.471 1.75686 -1.04665 0
M  V30 4083 H 409.626 3.86486 0.265978 0
M  V30 4084 H 410.04 4.97991 -1.64636 0
M  V30 4085 H 411.514 5.51995 -0.0236733 0
M  V30 4086 H 411.991 4.2514 1.10238 0
M  V30 4087 H 412.597 4.21471 -0.569415 0
M  V30 4088 N 410.912 0.523116 1.48665 0
M  V30 4089 C 411.845 -0.290518 2.26343 0
M  V30 4090 C 412.823 -0.950913 1.31895 0
M  V30 4091 O 414.007 -0.976662 1.61225 0
M  V30 4092 C 411.134 -1.41088 3.07915 0
M  V30 4093 C 410.18 -0.862597 4.17686 0
M  V30 4094 S 411.013 0.264135 5.34848 0
M  V30 4095 C 412.169 -0.858864 6.19979 0
M  V30 4096 H 412.402 0.368726 2.95005 0
M  V30 4097 H 409.935 0.30878 1.51281 0
M  V30 4098 H 411.893 -2.0527 3.55492 0
M  V30 4099 H 410.554 -2.04182 2.38681 0
M  V30 4100 H 409.747 -1.70287 4.74361 0
M  V30 4101 H 409.349 -0.297595 3.72814 0
M  V30 4102 H 411.641 -1.7591 6.54264 0
M  V30 4103 H 412.584 -0.330244 7.07329 0
M  V30 4104 H 412.992 -1.13617 5.52948 0
M  V30 4105 N 412.39 -1.55475 0.257931 0
M  V30 4106 C 413.801 -1.8511 -0.243135 0
M  V30 4107 C 414.152 -1.17986 -1.5676 0
M  V30 4108 O 413.277 -0.462102 -2.11409 0
M  V30 4109 C 413.872 -3.35826 -0.447929 0
M  V30 4110 C 412.431 -3.65647 -0.893245 0
M  V30 4111 C 411.578 -2.7729 0.0232965 0
M  V30 4112 H 414.529 -1.51261 0.480199 0
M  V30 4113 H 414.55 -3.58002 -1.28898 0
M  V30 4114 H 414.062 -3.84652 0.516196 0
M  V30 4115 H 412.163 -3.22308 -1.86945 0
M  V30 4116 H 412.276 -4.73312 -0.742469 0
M  V30 4117 H 410.64 -2.49942 -0.490021 0
M  V30 4118 H 411.423 -3.28926 0.982994 0
M  V30 4119 N 413.868 0.0150385 -1.57593 0
M  V30 4120 C 414.818 1.01943 -2.0394 0
M  V30 4121 C 415.802 1.31209 -0.931286 0
M  V30 4122 O 416.994 1.30559 -1.19513 0
M  V30 4123 C 414.123 2.31621 -2.53391 0
M  V30 4124 C 413.209 2.05384 -3.7105 0
M  V30 4125 N 413.6 1.49253 -4.83278 0
M  V30 4126 C 411.898 2.35601 -3.78693 0
M  V30 4127 C 412.599 1.39143 -5.64813 0
M  V30 4128 N 411.575 1.87187 -5.10355 0
M  V30 4129 H 415.377 0.57969 -2.88126 0
M  V30 4130 H 412.891 0.221056 -1.60888 0
M  V30 4131 H 414.888 3.044 -2.84862 0
M  V30 4132 H 413.548 2.76261 -1.70616 0
M  V30 4133 H 414.559 1.17334 -5.04433 0
M  V30 4134 H 411.236 2.8322 -3.06746 0
M  V30 4135 H 412.626 0.961153 -6.6499 0
M  V30 4136 N 415.346 1.54954 0.287554 0
M  V30 4137 C 416.293 1.86834 1.35505 0
M  V30 4138 C 417.263 0.718452 1.49758 0
M  V30 4139 O 418.448 0.968358 1.644 0
M  V30 4140 C 415.588 2.13303 2.71286 0
M  V30 4141 C 414.701 3.40883 2.65373 0
M  V30 4142 C 413.836 3.57125 3.93236 0
M  V30 4143 C 412.875 4.78449 3.81776 0
M  V30 4144 N 412.012 4.91426 5.01443 0
M  V30 4145 H 416.852 2.77889 1.07619 0
M  V30 4146 H 414.389 1.37593 0.520241 0
M  V30 4147 H 416.347 2.26646 3.50267 0
M  V30 4148 H 414.977 1.25499 2.97405 0
M  V30 4149 H 414.029 3.36088 1.78182 0
M  V30 4150 H 415.341 4.29993 2.52799 0
M  V30 4151 H 414.495 3.70207 4.80658 0
M  V30 4152 H 413.234 2.66173 4.0866 0
M  V30 4153 H 412.239 4.65386 2.92738 0
M  V30 4154 H 413.464 5.70822 3.67884 0
M  V30 4155 H 411.41 4.03401 5.17304 0
M  V30 4156 H 411.327 5.74559 4.91343 0
M  V30 4157 H 412.595 5.08879 5.90477 0
M  V30 4158 N 416.824 -0.551391 1.4764 0
M  V30 4159 C 418.24 -0.877887 1.33287 0
M  V30 4160 C 418.44 -1.98817 0.327721 0
M  V30 4161 O 417.496 -2.51171 -0.258695 0
M  V30 4162 C 418.809 -1.26563 2.72768 0
M  V30 4163 C 420.357 -1.37673 2.81097 0
M  V30 4164 C 420.832 -1.79799 4.21232 0
M  V30 4165 N 422.323 -1.8694 4.23802 0
M  V30 4166 C 423.058 -2.20876 5.29151 0
M  V30 4167 N 422.554 -2.53386 6.448 0
M  V30 4168 N 424.347 -2.217 5.16532 0
M  V30 4169 H 416.498 0.18153 2.11623 0
M  V30 4170 H 418.761 0.0185514 0.947818 0
M  V30 4171 H 418.467 -0.523591 3.47781 0
M  V30 4172 H 418.341 -2.22052 3.04915 0
M  V30 4173 H 420.728 -2.10956 2.06353 0
M  V30 4174 H 420.809 -0.40357 2.52596 0
M  V30 4175 H 420.453 -1.07083 4.96483 0
M  V30 4176 H 420.383 -2.78128 4.4716 0
M  V30 4177 H 422.874 -1.64179 3.40373 0
M  V30 4178 H 423.187 -2.78325 7.20941 0
M  V30 4179 H 421.532 -2.50953 6.48111 0
M  V30 4180 H 424.723 -1.95745 4.25207 0
M  V30 4181 H 424.896 -2.47818 5.98741 0
M  V30 4182 N 418.302 -1.35869 -0.798587 0
M  V30 4183 C 419.25 -1.29491 -1.93222 0
M  V30 4184 C 420.244 -0.18836 -1.6835 0
M  V30 4185 O 421.45 -0.354822 -1.76468 0
M  V30 4186 H 417.825 -0.402901 -0.63496 0
M  V30 4187 H 419.796 -2.25247 -1.9572 0
M  V30 4188 C 418.545 -1.09184 -3.30112 0
M  V30 4189 H 417.868 -1.93574 -3.49813 0
M  V30 4190 H 419.308 -1.08766 -4.09812 0
M  V30 4191 C 417.767 0.203959 -3.36282 0
M  V30 4192 O 418.297 1.19699 -3.83451 0
M  V30 4193 N 416.503 0.245488 -2.89561 0
M  V30 4194 H 416.05 -0.563223 -2.51367 0
M  V30 4195 H 416.008 1.11219 -2.94071 0
M  V30 4196 N 419.78 1.02168 -1.19998 0
M  V30 4197 C 421.191 1.57135 -1.00825 0
M  V30 4198 C 421.542 1.91276 0.436818 0
M  V30 4199 O 420.667 1.71679 1.3174 0
M  V30 4200 C 421.262 2.85514 -1.82393 0
M  V30 4201 C 419.821 3.37027 -1.67601 0
M  V30 4202 C 418.968 2.10388 -1.80644 0
M  V30 4203 H 421.919 0.846106 -1.34264 0
M  V30 4204 H 421.94 3.56711 -1.32429 0
M  V30 4205 H 421.452 2.60634 -2.87561 0
M  V30 4206 H 419.553 3.66878 -0.650485 0
M  V30 4207 H 419.666 4.09572 -2.4857 0
M  V30 4208 H 418.03 2.22601 -1.23778 0
M  V30 4209 H 418.813 1.8794 -2.87286 0
M  V30 4210 N 421.258 1.00505 1.21394 0
M  V30 4211 C 422.504 0.688793 1.90745 0
M  V30 4212 C 422.837 -0.778486 1.77914 0
M  V30 4213 O 422.112 -1.56433 1.15581 0
M  V30 4214 C 422.395 1.11063 3.42545 0
M  V30 4215 C 422.248 2.63737 3.64367 0
M  V30 4216 C 423.567 0.673059 4.34923 0
M  V30 4217 H 420.686 0.251702 0.692687 0
M  V30 4218 H 423.328 1.25074 1.43026 0
M  V30 4219 H 421.478 0.632508 3.83317 0
M  V30 4220 H 423.15 3.19313 3.32922 0
M  V30 4221 H 421.393 3.05248 3.08231 0
M  V30 4222 H 422.064 2.88305 4.70727 0
M  V30 4223 H 424.54 1.08392 4.01734 0
M  V30 4224 H 423.416 0.996383 5.39781 0
M  V30 4225 H 423.677 -0.425808 4.40045 0
M  V30 4226 N 422.737 -1.36956 0.779787 0
M  V30 4227 C 423.985 -1.99097 0.347079 0
M  V30 4228 C 424.306 -1.62206 -1.08232 0
M  V30 4229 O 423.576 -0.891373 -1.74446 0
M  V30 4230 H 422.156 -0.736409 0.125342 0
M  V30 4231 H 424.818 -1.67308 0.999696 0
M  V30 4232 H 423.914 -3.09107 0.431162 0
M  V30 4233 N 424.215 -0.530993 -1.48385 0
M  V30 4234 C 425.178 0.220497 -2.28137 0
M  V30 4235 C 426.178 0.866851 -1.35434 0
M  V30 4236 O 427.368 0.726746 -1.58316 0
M  V30 4237 C 424.5 1.31921 -3.1434 0
M  V30 4238 H 425.693 -0.479714 -2.96038 0
M  V30 4239 H 423.246 -0.286968 -1.53643 0
M  V30 4240 H 423.981 2.05264 -2.51072 0
M  V30 4241 H 423.766 0.86085 -3.82533 0
M  V30 4242 H 425.256 1.84776 -3.74497 0
M  V30 4243 N 425.693 1.55336 -0.266172 0
M  V30 4244 C 426.656 2.20878 0.612001 0
M  V30 4245 C 427.656 1.18388 1.08816 0
M  V30 4246 O 428.846 1.4335 0.989774 0
M  V30 4247 C 425.978 2.86765 1.84332 0
M  V30 4248 H 427.171 2.99873 0.0398718 0
M  V30 4249 H 424.724 1.56291 -0.0167309 0
M  V30 4250 H 425.459 2.11759 2.45619 0
M  V30 4251 H 425.244 3.61862 1.5099 0
M  V30 4252 H 426.734 3.36867 2.46801 0
M  V30 4253 N 427.171 -0.0066808 1.57599 0
M  V30 4254 C 428.417 -0.693947 1.90558 0
M  V30 4255 C 428.75 -1.73792 0.866594 0
M  V30 4256 O 428.025 -1.94156 -0.115548 0
M  V30 4257 C 428.308 -1.34317 3.34112 0
M  V30 4258 C 428.161 -0.311189 4.48722 0
M  V30 4259 C 429.48 -2.27116 3.7697 0
M  V30 4260 H 426.599 -0.250803 0.693013 0
M  V30 4261 H 429.241 0.043242 1.89951 0
M  V30 4262 H 427.391 -1.9715 3.3476 0
M  V30 4263 H 429.063 0.316944 4.6021 0
M  V30 4264 H 427.306 0.367253 4.32243 0
M  V30 4265 H 427.977 -0.804366 5.46108 0
M  V30 4266 H 430.453 -1.74306 3.77831 0
M  V30 4267 H 429.329 -2.69511 4.78179 0
M  V30 4268 H 429.59 -3.14743 3.10466 0
M  V30 4269 N 428.649 -1.55105 -0.279332 0
M  V30 4270 C 429.579 -1.90557 -1.34945 0
M  V30 4271 C 430.56 -0.766738 -1.51839 0
M  V30 4272 O 431.745 -1.02434 -1.64988 0
M  V30 4273 C 428.875 -2.17193 -2.71006 0
M  V30 4274 C 427.829 -3.33021 -2.68851 0
M  V30 4275 C 427.155 -3.45123 -4.08405 0
M  V30 4276 C 428.455 -4.69578 -2.28678 0
M  V30 4277 H 430.149 -2.80188 -1.05522 0
M  V30 4278 H 427.695 -1.34811 -0.506173 0
M  V30 4279 H 429.648 -2.40581 -3.45975 0
M  V30 4280 H 428.372 -1.24355 -3.01999 0
M  V30 4281 H 427.031 -3.0959 -1.9634 0
M  V30 4282 H 426.679 -2.49762 -4.3661 0
M  V30 4283 H 426.379 -4.22995 -4.07859 0
M  V30 4284 H 427.903 -3.70796 -4.85121 0
M  V30 4285 H 429.317 -4.92553 -2.93368 0
M  V30 4286 H 427.714 -5.5032 -2.39306 0
M  V30 4287 H 428.784 -4.68828 -1.23807 0
M  V30 4288 N 430.127 0.543554 -1.4793 0
M  V30 4289 C 431.376 1.29649 -1.54512 0
M  V30 4290 C 431.689 1.94382 -0.217973 0
M  V30 4291 O 432.895 2.71017 -0.161908 0
M  V30 4292 C 431.351 2.35175 -2.72435 0
M  V30 4293 C 430.959 1.76572 -4.11736 0
M  V30 4294 C 432.703 3.11564 -2.8832 0
M  V30 4295 C 430.61 2.79958 -5.20939 0
M  V30 4296 H 429.54 0.487541 -0.57517 0
M  V30 4297 H 432.191 0.575708 -1.74235 0
M  V30 4298 H 430.573 3.10229 -2.46118 0
M  V30 4299 H 431.747 1.07799 -4.48013 0
M  V30 4300 H 430.062 1.12722 -4.00852 0
M  V30 4301 H 432.659 3.88794 -3.67074 0
M  V30 4302 H 433.002 3.66594 -1.97268 0
M  V30 4303 H 433.535 2.43623 -3.14472 0
M  V30 4304 H 430.274 2.29766 -6.13912 0
M  V30 4305 H 429.794 3.47101 -4.89164 0
M  V30 4306 H 431.473 3.43198 -5.48474 0
M  V30 4307 N 431.605 1.3629 0.791371 0
M  V30 4308 C 432.853 1.30154 1.5461 0
M  V30 4309 C 433.174 -0.119409 1.94634 0
M  V30 4310 O 432.444 -1.05924 1.64794 0
M  V30 4311 H 431.024 0.478784 0.573389 0
M  V30 4312 H 433.686 1.70565 0.94306 0
M  V30 4313 H 432.782 1.92762 2.45457 0
M  V30 4314 N 433.083 -1.0153 1.20538 0
M  V30 4315 C 434.046 -2.0826 0.957098 0
M  V30 4316 C 435.046 -1.60657 -0.0678655 0
M  V30 4317 O 436.236 -1.73385 0.168332 0
M  V30 4318 C 433.368 -3.38033 0.441188 0
M  V30 4319 H 434.561 -2.31719 1.90384 0
M  V30 4320 H 432.114 -1.1835 1.02093 0
M  V30 4321 H 432.849 -3.20249 -0.510961 0
M  V30 4322 H 432.634 -3.73911 1.18038 0
M  V30 4323 H 434.124 -4.16613 0.287009 0
M  V30 4324 N 434.561 -1.01147 -1.20859 0
M  V30 4325 C 435.524 -0.582224 -2.21682 0
M  V30 4326 C 436.524 0.344887 -1.57058 0
M  V30 4327 O 437.714 0.134281 -1.73682 0
M  V30 4328 C 434.846 0.150496 -3.40568 0
M  V30 4329 H 436.039 -1.47408 -2.61172 0
M  V30 4330 H 433.592 -0.800695 -1.34233 0
M  V30 4331 H 434.327 1.0575 -3.06574 0
M  V30 4332 H 434.112 -0.515444 -3.88697 0
M  V30 4333 H 435.602 0.438344 -4.15293 0
M  V30 4334 N 436.039 1.36541 -0.78704 0
M  V30 4335 C 437.267 2.03561 -0.370199 0
M  V30 4336 C 437.682 1.59347 1.01263 0
M  V30 4337 O 437.039 0.781781 1.64907 0
M  V30 4338 C 437.09 3.59033 -0.421614 0
M  V30 4339 O 436.811 4.01634 -1.7499 0
M  V30 4340 C 438.312 4.433 0.00489763 0
M  V30 4341 H 435.532 0.653346 -0.152904 0
M  V30 4342 H 438.076 1.74566 -1.06522 0
M  V30 4343 H 436.231 3.86746 0.224971 0
M  V30 4344 H 436.645 4.96217 -1.69909 0
M  V30 4345 H 438.119 5.51939 -0.0822184 0
M  V30 4346 H 438.596 4.26285 1.05723 0
M  V30 4347 H 439.202 4.20843 -0.614085 0
M  V30 4348 N 437.518 0.538854 1.48102 0
M  V30 4349 C 438.934 0.19732 1.58376 0
M  V30 4350 C 439.134 -1.29971 1.5398 0
M  V30 4351 O 438.19 -2.07861 1.43352 0
M  V30 4352 C 439.503 0.807716 2.89649 0
M  V30 4353 C 441.051 0.77726 3.03196 0
M  V30 4354 C 441.526 1.36639 4.37143 0
M  V30 4355 N 443.017 1.32875 4.43732 0
M  V30 4356 C 443.752 1.7544 5.45901 0
M  V30 4357 N 443.248 2.25776 6.54979 0
M  V30 4358 N 445.041 1.66623 5.36836 0
M  V30 4359 H 437.192 1.5117 1.49202 0
M  V30 4360 H 439.455 0.629327 0.708979 0
M  V30 4361 H 439.161 1.85909 2.98548 0
M  V30 4362 H 439.035 0.289975 3.76084 0
M  V30 4363 H 441.422 -0.265374 2.93904 0
M  V30 4364 H 441.503 1.33256 2.18349 0
M  V30 4365 H 441.147 2.408 4.47189 0
M  V30 4366 H 441.077 0.786689 5.20691 0
M  V30 4367 H 443.568 0.96037 3.65493 0
M  V30 4368 H 443.881 2.56226 7.29087 0
M  V30 4369 H 442.226 2.29775 6.55918 0
M  V30 4370 H 445.417 1.27089 4.50517 0
M  V30 4371 H 445.59 2.00115 6.16326 0
M  V30 4372 N 438.996 -1.55193 0.274407 0
M  V30 4373 C 440.242 -1.99877 -0.343086 0
M  V30 4374 C 440.575 -1.16256 -1.55558 0
M  V30 4375 O 439.85 -0.232462 -1.93106 0
M  V30 4376 C 440.133 -3.52706 -0.725965 0
M  V30 4377 C 439.986 -4.47081 0.493818 0
M  V30 4378 C 441.305 -4.11422 -1.56268 0
M  V30 4379 H 438.424 -0.726625 -0.123229 0
M  V30 4380 H 441.066 -1.86136 0.38121 0
M  V30 4381 H 439.216 -3.64546 -1.34307 0
M  V30 4382 H 440.888 -4.47186 1.13237 0
M  V30 4383 H 439.131 -4.1877 1.13201 0
M  V30 4384 H 439.802 -5.51699 0.18217 0
M  V30 4385 H 442.278 -4.02855 -1.04151 0
M  V30 4386 H 441.154 -5.18568 -1.79939 0
M  V30 4387 H 441.415 -3.61607 -2.54348 0
M  V30 4388 N 440.474 -0.00167713 -1.576 0
M  V30 4389 C 441.885 0.54091 -1.78693 0
M  V30 4390 C 442.236 1.7386 -0.909247 0
M  V30 4391 O 441.361 2.16109 -0.112176 0
M  V30 4392 C 441.956 0.98806 -3.24072 0
M  V30 4393 C 440.515 1.47594 -3.46256 0
M  V30 4394 C 439.662 0.42792 -2.73978 0
M  V30 4395 H 442.613 -0.22784 -1.57056 0
M  V30 4396 H 442.634 1.85398 -3.32277 0
M  V30 4397 H 442.146 0.116164 -3.87926 0
M  V30 4398 H 440.247 2.36868 -2.87618 0
M  V30 4399 H 440.36 1.50225 -4.54939 0
M  V30 4400 H 438.724 0.889934 -2.38647 0
M  V30 4401 H 439.507 -0.435038 -3.40532 0
M  V30 4402 N 441.952 1.55251 0.271103 0
M  V30 4403 C 443.2 1.75599 1.00047 0
M  V30 4404 C 443.521 0.561188 1.8675 0
M  V30 4405 O 442.791 -0.423846 1.9126 0
M  V30 4406 H 441.371 0.647562 0.372387 0
M  V30 4407 H 444.033 1.92656 0.294876 0
M  V30 4408 H 443.129 2.65766 1.6363 0
M  V30 4409 N 443.43 -0.535701 1.48216 0
M  V30 4410 C 444.36 -1.65014 1.65204 0
M  V30 4411 C 445.341 -1.62554 0.501011 0
M  V30 4412 O 446.526 -1.7984 0.732886 0
M  V30 4413 C 443.656 -3.03616 1.68626 0
M  V30 4414 C 442.61 -3.20932 2.83172 0
M  V30 4415 C 441.936 -4.60537 2.71679 0
M  V30 4416 C 443.236 -3.04249 4.24535 0
M  V30 4417 H 444.93 -1.51053 2.58502 0
M  V30 4418 H 442.476 -0.725262 1.24402 0
M  V30 4419 H 444.429 -3.81446 1.79099 0
M  V30 4420 H 443.153 -3.18587 0.719026 0
M  V30 4421 H 441.812 -2.45517 2.72244 0
M  V30 4422 H 441.46 -4.72336 1.72937 0
M  V30 4423 H 441.16 -4.73069 3.48538 0
M  V30 4424 H 442.684 -5.40475 2.84112 0
M  V30 4425 H 444.098 -3.71877 4.36326 0
M  V30 4426 H 442.495 -3.28278 5.02348 0
M  V30 4427 H 443.565 -2.00739 4.41397 0
M  V30 4428 N 444.908 -1.36708 -0.784132 0
M  V30 4429 C 446.154 -1.31426 -1.54451 0
M  V30 4430 C 446.487 0.10476 -1.93917 0
M  V30 4431 O 445.762 1.05934 -1.6312 0
M  V30 4432 C 446.045 -2.24189 -2.818 0
M  V30 4433 C 445.898 -3.74813 -2.48667 0
M  V30 4434 C 447.217 -2.15626 -3.83658 0
M  V30 4435 H 444.336 -0.478739 -0.560337 0
M  V30 4436 H 446.978 -1.67305 -0.900498 0
M  V30 4437 H 445.128 -1.93722 -3.36755 0
M  V30 4438 H 446.8 -4.15823 -1.99722 0
M  V30 4439 H 445.043 -3.93989 -1.81535 0
M  V30 4440 H 445.714 -4.35138 -3.39646 0
M  V30 4441 H 448.19 -2.42456 -3.38163 0
M  V30 4442 H 447.066 -2.82694 -4.70506 0
M  V30 4443 H 447.327 -1.14522 -4.27009 0
M  V30 4444 N 446.386 1.0089 -1.21074 0
M  V30 4445 C 447.611 1.78727 -1.05221 0
M  V30 4446 C 448.036 1.83932 0.393795 0
M  V30 4447 O 447.394 1.28004 1.28393 0
M  V30 4448 C 447.442 3.20665 -1.64944 0
M  V30 4449 O 446.546 4.02632 -0.892273 0
M  V30 4450 H 445.887 0.550973 -0.370574 0
M  V30 4451 H 448.417 1.26847 -1.60534 0
M  V30 4452 H 448.427 3.71352 -1.69002 0
M  V30 4453 H 447.102 3.16191 -2.70177 0
M  V30 4454 H 445.679 3.61207 -0.926492 0
M  V30 4455 N 447.864 1.01787 1.20321 0
M  V30 4456 C 449.092 0.727194 1.937 0
M  V30 4457 C 449.507 -0.712305 1.74848 0
M  V30 4458 O 448.864 -1.48327 1.06327 0
M  V30 4459 C 448.915 1.05497 3.45764 0
M  V30 4460 O 448.636 2.43794 3.64 0
M  V30 4461 C 450.137 0.785534 4.36285 0
M  V30 4462 H 447.357 0.266939 0.615617 0
M  V30 4463 H 449.901 1.35939 1.52777 0
M  V30 4464 H 448.056 0.468158 3.84561 0
M  V30 4465 H 448.47 2.55656 4.57974 0
M  V30 4466 H 449.944 1.06495 5.4163 0
M  V30 4467 H 450.421 -0.280273 4.38305 0
M  V30 4468 H 451.027 1.35456 4.03152 0
M  V30 4469 N 449.342 -1.36122 0.79427 0
M  V30 4470 C 450.272 -2.32551 0.210328 0
M  V30 4471 C 451.253 -1.56884 -0.657386 0
M  V30 4472 O 452.438 -1.85014 -0.590207 0
M  V30 4473 C 449.568 -3.41128 -0.651819 0
M  V30 4474 C 448.522 -4.27842 0.116395 0
M  V30 4475 C 447.848 -5.2763 -0.86666 0
M  V30 4476 C 449.148 -5.05647 1.30837 0
M  V30 4477 H 450.842 -2.81636 1.01594 0
M  V30 4478 H 448.388 -1.35407 0.489981 0
M  V30 4479 H 450.341 -4.07581 -1.07031 0
M  V30 4480 H 449.065 -2.90622 -1.49019 0
M  V30 4481 H 447.724 -3.62952 0.515915 0
M  V30 4482 H 447.372 -4.73395 -1.70019 0
M  V30 4483 H 447.072 -5.86514 -0.35705 0
M  V30 4484 H 448.596 -5.96955 -1.28361 0
M  V30 4485 H 450.01 -5.65113 0.965393 0
M  V30 4486 H 448.407 -5.73967 1.75161 0
M  V30 4487 H 449.477 -4.37006 2.10128 0
M  V30 4488 N 450.82 -0.546701 -1.47814 0
M  V30 4489 C 452.067 -0.0187407 -2.02491 0
M  V30 4490 C 452.395 1.32685 -1.42215 0
M  V30 4491 O 451.65 1.87413 -0.563454 0
M  V30 4492 C 451.949 0.134869 -3.57145 0
M  V30 4493 C 451.615 -1.13849 -4.3629 0
M  V30 4494 C 450.277 -1.48743 -4.57634 0
M  V30 4495 C 452.629 -1.98277 -4.82012 0
M  V30 4496 C 449.957 -2.67932 -5.21948 0
M  V30 4497 C 452.309 -3.16659 -5.4764 0
M  V30 4498 C 450.973 -3.51879 -5.67219 0
M  V30 4499 H 450.243 -0.0068577 -0.740968 0
M  V30 4500 H 452.89 -0.716097 -1.77607 0
M  V30 4501 H 451.195 0.915118 -3.80963 0
M  V30 4502 H 452.892 0.558556 -3.97091 0
M  V30 4503 H 449.482 -0.856767 -4.19949 0
M  V30 4504 H 453.666 -1.72628 -4.6531 0
M  V30 4505 H 448.922 -2.95401 -5.35302 0
M  V30 4506 H 453.096 -3.82374 -5.82033 0
M  V30 4507 H 450.723 -4.44331 -6.16825 0
M  V30 4508 N 452.299 1.55045 -0.282633 0
M  V30 4509 C 453.262 2.21515 0.588539 0
M  V30 4510 C 454.262 1.19535 1.07554 0
M  V30 4511 O 455.452 1.44391 0.974514 0
M  V30 4512 C 452.584 2.88704 1.8128 0
M  V30 4513 H 453.777 2.99899 0.00806397 0
M  V30 4514 H 451.33 1.56265 -0.0333067 0
M  V30 4515 H 452.065 2.14352 2.43359 0
M  V30 4516 H 451.85 3.63443 1.47144 0
M  V30 4517 H 453.34 3.39465 2.43214 0
M  V30 4518 N 453.777 0.010035 1.57597 0
M  V30 4519 C 454.74 -0.963029 2.07986 0
M  V30 4520 C 455.74 -1.26619 0.991173 0
M  V30 4521 O 456.93 -1.2097 1.25347 0
M  V30 4522 C 454.062 -2.2851 2.52974 0
M  V30 4523 H 455.255 -0.526971 2.95234 0
M  V30 4524 H 452.808 -0.237639 1.54483 0
M  V30 4525 H 453.543 -2.76784 1.69 0
M  V30 4526 H 453.328 -2.07824 3.32493 0
M  V30 4527 H 454.818 -2.98294 2.9225 0
M  V30 4528 N 455.255 -1.55392 -0.262866 0
M  V30 4529 C 456.188 -1.8391 -1.35101 0
M  V30 4530 C 457.166 -0.692901 -1.47097 0
M  V30 4531 O 458.35 -0.936979 -1.63563 0
M  V30 4532 C 455.477 -2.00969 -2.72634 0
M  V30 4533 C 454.523 -3.23559 -2.7787 0
M  V30 4534 S 455.356 -4.80647 -2.3609 0
M  V30 4535 C 456.512 -5.00692 -3.75578 0
M  V30 4536 H 456.745 -2.75918 -1.1071 0
M  V30 4537 H 454.278 -1.47294 -0.463029 0
M  V30 4538 H 456.236 -2.11482 -3.51832 0
M  V30 4539 H 454.897 -1.09832 -2.94272 0
M  V30 4540 H 454.09 -3.32413 -3.78837 0
M  V30 4541 H 453.692 -3.11689 -2.06702 0
M  V30 4542 H 455.984 -4.87055 -4.70939 0
M  V30 4543 H 456.927 -6.02717 -3.71669 0
M  V30 4544 H 457.335 -4.28619 -3.6735 0
M  V30 4545 N 456.733 0.527833 -1.48498 0
M  V30 4546 C 458.144 1.10975 -1.50138 0
M  V30 4547 C 458.495 1.943 -0.272378 0
M  V30 4548 O 457.62 2.07319 0.620301 0
M  V30 4549 C 458.215 2.01927 -2.72049 0
M  V30 4550 C 456.774 2.55332 -2.76554 0
M  V30 4551 C 455.921 1.32341 -2.43683 0
M  V30 4552 H 458.872 0.312986 -1.55583 0
M  V30 4553 H 458.893 2.86244 -2.50689 0
M  V30 4554 H 458.405 1.41254 -3.61481 0
M  V30 4555 H 456.506 3.19721 -1.91336 0
M  V30 4556 H 456.619 2.94319 -3.78038 0
M  V30 4557 H 454.983 1.63989 -1.94884 0
M  V30 4558 H 455.766 0.734165 -3.35358 0
M  V30 4559 N 458.211 1.37122 0.776871 0
M  V30 4560 C 459.143 1.28342 1.89897 0
M  V30 4561 C 460.156 0.200277 1.61563 0
M  V30 4562 O 461.345 0.456012 1.72577 0
M  V30 4563 C 458.445 0.960427 3.25006 0
M  V30 4564 C 457.618 2.148 3.81025 0
M  V30 4565 C 456.677 1.79608 4.94598 0
M  V30 4566 O 455.703 2.51845 5.10454 0
M  V30 4567 N 456.905 0.737171 5.758 0
M  V30 4568 H 459.67 2.25027 1.97947 0
M  V30 4569 H 457.231 1.3068 0.955739 0
M  V30 4570 H 459.223 0.705942 3.98495 0
M  V30 4571 H 457.793 0.0823066 3.12492 0
M  V30 4572 H 457.013 2.56454 2.99374 0
M  V30 4573 H 458.301 2.9411 4.15183 0
M  V30 4574 H 457.699 0.137637 5.65533 0
M  V30 4575 H 456.256 0.542534 6.49538 0
M  V30 4576 N 459.689 -1.00246 1.21608 0
M  V30 4577 C 460.599 -2.12515 0.993709 0
M  V30 4578 C 461.615 -1.73913 -0.0549939 0
M  V30 4579 O 462.791 -2.00943 0.135619 0
M  V30 4580 C 459.856 -3.42083 0.563953 0
M  V30 4581 C 458.917 -3.94843 1.68516 0
M  V30 4582 C 458.15 -5.18226 1.27582 0
M  V30 4583 O 458.373 -5.70201 0.150506 0
M  V30 4584 O 457.307 -5.64497 2.0887 0
M  V30 4585 H 461.133 -2.34152 1.93407 0
M  V30 4586 H 458.718 -1.10891 1.00118 0
M  V30 4587 H 460.6 -4.20073 0.334194 0
M  V30 4588 H 459.275 -3.21828 -0.347665 0
M  V30 4589 H 458.182 -3.18068 1.96935 0
M  V30 4590 H 459.515 -4.19512 2.5743 0
M  V30 4591 N 461.167 -1.02423 -1.1978 0
M  V30 4592 C 462.117 -0.571689 -2.20716 0
M  V30 4593 C 463.101 0.377077 -1.56419 0
M  V30 4594 O 464.293 0.198801 -1.7588 0
M  V30 4595 C 461.422 0.0808555 -3.43205 0
M  V30 4596 C 460.508 -0.890073 -4.14655 0
M  V30 4597 N 460.899 -2.05065 -4.62366 0
M  V30 4598 C 459.197 -0.71252 -4.40272 0
M  V30 4599 C 459.898 -2.66264 -5.17183 0
M  V30 4600 N 458.874 -1.94264 -5.07703 0
M  V30 4601 H 462.676 -1.45636 -2.55279 0
M  V30 4602 H 460.19 -0.890596 -1.35802 0
M  V30 4603 H 462.187 0.422654 -4.14752 0
M  V30 4604 H 460.847 0.961274 -3.10144 0
M  V30 4605 H 461.858 -2.43026 -4.57339 0
M  V30 4606 H 458.535 0.119199 -4.1733 0
M  V30 4607 H 459.925 -3.64526 -5.64421 0
M  V30 4608 N 462.645 1.35699 -0.801477 0
M  V30 4609 C 463.555 2.33661 -0.209691 0
M  V30 4610 C 464.571 1.6162 0.644591 0
M  V30 4611 O 465.747 1.93529 0.557545 0
M  V30 4612 C 462.812 3.40816 0.636033 0
M  V30 4613 C 461.873 4.28639 -0.238147 0
M  V30 4614 C 461.106 5.30676 0.567307 0
M  V30 4615 O 461.329 5.41174 1.8024 0
M  V30 4616 O 460.263 6.01887 -0.0391336 0
M  V30 4617 H 464.089 2.8606 -1.01996 0
M  V30 4618 H 461.674 1.38379 -0.563164 0
M  V30 4619 H 463.556 4.06301 1.11791 0
M  V30 4620 H 462.231 2.90696 1.42399 0
M  V30 4621 H 461.138 3.66152 -0.767044 0
M  V30 4622 H 462.471 4.82143 -0.989915 0
M  V30 4623 N 464.123 0.554532 1.47522 0
M  V30 4624 C 465.539 0.214107 1.58157 0
M  V30 4625 C 465.739 -1.28331 1.55349 0
M  V30 4626 O 464.795 -2.06329 1.45549 0
M  V30 4627 C 466.108 0.838391 2.88776 0
M  V30 4628 C 467.656 0.809374 3.02354 0
M  V30 4629 C 468.131 1.41268 4.35669 0
M  V30 4630 N 469.622 1.37574 4.42298 0
M  V30 4631 C 470.357 1.8122 5.4401 0
M  V30 4632 N 469.853 2.3271 6.52547 0
M  V30 4633 N 471.646 1.72307 5.35039 0
M  V30 4634 H 463.797 1.52744 1.4759 0
M  V30 4635 H 466.06 0.636812 0.702264 0
M  V30 4636 H 465.766 1.89065 2.96559 0
M  V30 4637 H 465.64 0.329847 3.75755 0
M  V30 4638 H 468.027 -0.234187 2.94169 0
M  V30 4639 H 468.108 1.35565 2.16924 0
M  V30 4640 H 467.752 2.45529 4.4461 0
M  V30 4641 H 467.682 0.841871 5.19827 0
M  V30 4642 H 470.173 0.999081 3.64454 0
M  V30 4643 H 470.486 2.63944 7.26329 0
M  V30 4644 H 468.831 2.36719 6.53444 0
M  V30 4645 H 472.022 1.3186 4.49144 0
M  V30 4646 H 472.195 2.06641 6.14169 0
M  V30 4647 N 465.601 -1.54893 0.290851 0
M  V30 4648 C 466.826 -2.04804 -0.32712 0
M  V30 4649 C 467.251 -1.16721 -1.47506 0
M  V30 4650 O 466.609 -0.169107 -1.8051 0
M  V30 4651 C 466.657 -3.52268 -0.770689 0
M  V30 4652 O 465.761 -3.67236 -1.87647 0
M  V30 4653 H 465.102 -0.660789 -0.0652227 0
M  V30 4654 H 467.632 -2.00036 0.429739 0
M  V30 4655 H 467.642 -3.9393 -1.06223 0
M  V30 4656 H 466.317 -4.15843 0.069096 0
M  V30 4657 H 464.894 -3.37479 -1.58626 0
M  V30 4658 N 467.08 -0.0183926 -1.57589 0
M  V30 4659 C 468.01 0.965596 -2.12599 0
M  V30 4660 C 468.991 1.34641 -1.0395 0
M  V30 4661 O 470.176 1.42693 -1.31729 0
M  V30 4662 C 467.306 2.25149 -2.64434 0
M  V30 4663 C 466.26 2.01175 -3.77773 0
M  V30 4664 C 465.586 3.35937 -4.15994 0
M  V30 4665 C 466.886 1.35953 -5.04296 0
M  V30 4666 H 468.58 0.507504 -2.95067 0
M  V30 4667 H 466.126 0.242671 -1.41941 0
M  V30 4668 H 468.079 2.94357 -3.01549 0
M  V30 4669 H 466.803 2.73105 -1.79112 0
M  V30 4670 H 465.462 1.34388 -3.4108 0
M  V30 4671 H 465.11 3.81631 -3.27669 0
M  V30 4672 H 464.81 3.20705 -4.92364 0
M  V30 4673 H 466.334 4.0643 -4.55683 0
M  V30 4674 H 467.748 1.95144 -5.39065 0
M  V30 4675 H 466.145 1.31152 -5.85593 0
M  V30 4676 H 467.215 0.331071 -4.83768 0
M  V30 4677 N 468.558 1.5553 0.254621 0
M  V30 4678 C 469.806 1.7665 0.981793 0
M  V30 4679 C 470.127 0.580963 1.86145 0
M  V30 4680 O 469.397 -0.403537 1.91699 0
M  V30 4681 H 467.977 0.651475 0.365498 0
M  V30 4682 H 470.639 1.92958 0.274426 0
M  V30 4683 H 469.735 2.67486 1.60802 0
M  V30 4684 N 470.036 -0.519951 1.48776 0
M  V30 4685 C 470.966 -1.63253 1.66945 0
M  V30 4686 C 471.947 -1.62014 0.518224 0
M  V30 4687 O 473.132 -1.79053 0.751919 0
M  V30 4688 C 470.262 -3.0181 1.71836 0
M  V30 4689 C 469.216 -3.17911 2.8656 0
M  V30 4690 C 468.542 -4.5763 2.76548 0
M  V30 4691 C 469.842 -2.99729 4.27738 0
M  V30 4692 H 471.536 -1.48302 2.6009 0
M  V30 4693 H 469.082 -0.712026 1.25165 0
M  V30 4694 H 471.035 -3.79525 1.83135 0
M  V30 4695 H 469.759 -3.17806 0.752775 0
M  V30 4696 H 468.418 -2.42616 2.74833 0
M  V30 4697 H 468.066 -4.70476 1.77937 0
M  V30 4698 H 467.766 -4.69346 3.53536 0
M  V30 4699 H 469.29 -5.37431 2.89828 0
M  V30 4700 H 470.704 -3.67228 4.40246 0
M  V30 4701 H 469.101 -3.22932 5.05801 0
M  V30 4702 H 470.171 -1.96047 4.43502 0
M  V30 4703 N 471.514 -1.37532 -0.769588 0
M  V30 4704 C 472.76 -1.34063 -1.52966 0
M  V30 4705 C 473.115 0.0737942 -1.92258 0
M  V30 4706 O 472.408 1.03291 -1.61374 0
M  V30 4707 C 472.602 -2.21558 -2.8044 0
M  V30 4708 C 472.431 -3.71367 -2.53608 0
M  V30 4709 C 471.201 -4.40464 -2.47628 0
M  V30 4710 C 473.399 -4.64177 -2.21459 0
M  V30 4711 N 471.381 -5.758 -2.12902 0
M  V30 4712 C 472.752 -5.87907 -1.9689 0
M  V30 4713 C 474.807 -4.52541 -2.07633 0
M  V30 4714 C 473.51 -7.01304 -1.59892 0
M  V30 4715 C 475.536 -5.65825 -1.72034 0
M  V30 4716 C 474.898 -6.88606 -1.48327 0
M  V30 4717 H 470.997 -0.545856 -0.559969 0
M  V30 4718 H 473.581 -1.72773 -0.897634 0
M  V30 4719 H 471.752 -1.85061 -3.41478 0
M  V30 4720 H 473.484 -2.09332 -3.46356 0
M  V30 4721 H 470.239 -3.93491 -2.63556 0
M  V30 4722 H 470.663 -6.47328 -1.9823 0
M  V30 4723 H 475.305 -3.58183 -2.24643 0
M  V30 4724 H 473.023 -7.95594 -1.4162 0
M  V30 4725 H 476.609 -5.58793 -1.61991 0
M  V30 4726 H 475.489 -7.74779 -1.21189 0
M  V30 4727 N 472.992 0.995999 -1.22138 0
M  V30 4728 C 473.942 2.06988 -0.956042 0
M  V30 4729 C 474.926 1.60636 0.0921576 0
M  V30 4730 O 476.118 1.76607 -0.117958 0
M  V30 4731 C 473.247 3.39148 -0.532335 0
M  V30 4732 C 472.333 3.92142 -1.61509 0
M  V30 4733 N 472.724 4.18397 -2.84214 0
M  V30 4734 C 471.022 4.20514 -1.48606 0
M  V30 4735 C 471.723 4.61425 -3.54206 0
M  V30 4736 N 470.699 4.64934 -2.81669 0
M  V30 4737 H 474.501 2.25223 -1.88816 0
M  V30 4738 H 472.015 1.17748 -1.11845 0
M  V30 4739 H 474.012 4.15642 -0.323574 0
M  V30 4740 H 472.672 3.22314 0.392921 0
M  V30 4741 H 473.683 4.06682 -3.20671 0
M  V30 4742 H 470.36 4.12769 -0.626762 0
M  V30 4743 H 471.75 4.90387 -4.59315 0
M  V30 4744 N 474.47 1.03057 1.19235 0
M  V30 4745 C 475.433 0.617418 2.20727 0
M  V30 4746 C 476.433 -0.319856 1.57587 0
M  V30 4747 O 477.623 -0.106633 1.73873 0
M  V30 4748 C 474.755 -0.096296 3.40764 0
M  V30 4749 H 475.948 1.51544 2.58794 0
M  V30 4750 H 473.501 0.821949 1.32942 0
M  V30 4751 H 474.236 -1.00859 3.08217 0
M  V30 4752 H 474.021 0.577217 3.87828 0
M  V30 4753 H 475.511 -0.372219 4.15938 0
M  V30 4754 N 475.948 -1.35272 0.808662 0
M  V30 4755 C 476.858 -2.33546 0.222079 0
M  V30 4756 C 477.874 -1.6196 -0.636011 0
M  V30 4757 O 479.05 -1.93822 -0.547274 0
M  V30 4758 C 476.115 -3.41148 -0.61795 0
M  V30 4759 C 475.176 -4.28507 0.260875 0
M  V30 4760 C 474.409 -5.3097 -0.539156 0
M  V30 4761 O 474.632 -5.42123 -1.77367 0
M  V30 4762 O 473.566 -6.01858 0.0710526 0
M  V30 4763 H 477.392 -2.85515 1.03512 0
M  V30 4764 H 474.977 -1.38079 0.570495 0
M  V30 4765 H 476.859 -4.06889 -1.09634 0
M  V30 4766 H 475.534 -2.91447 -1.40855 0
M  V30 4767 H 474.441 -3.6574 0.786451 0
M  V30 4768 H 475.774 -4.81611 1.01547 0
M  V30 4769 N 477.426 -0.562348 -1.47226 0
M  V30 4770 C 478.672 -0.0485293 -2.03342 0
M  V30 4771 C 479.027 1.28898 -1.42839 0
M  V30 4772 O 478.32 1.82719 -0.576563 0
M  V30 4773 C 478.514 0.0969817 -3.57268 0
M  V30 4774 C 478.343 -1.22487 -4.32697 0
M  V30 4775 C 477.113 -1.79357 -4.72397 0
M  V30 4776 C 479.311 -2.14332 -4.67511 0
M  V30 4777 N 477.293 -3.05493 -5.32491 0
M  V30 4778 C 478.664 -3.25049 -5.27961 0
M  V30 4779 C 480.719 -2.14263 -4.4944 0
M  V30 4780 C 479.422 -4.35804 -5.72248 0
M  V30 4781 C 481.448 -3.24033 -4.94729 0
M  V30 4782 C 480.81 -4.3347 -5.55233 0
M  V30 4783 H 476.909 -0.0600464 -0.779691 0
M  V30 4784 H 479.493 -0.750769 -1.79643 0
M  V30 4785 H 477.664 0.768353 -3.80724 0
M  V30 4786 H 479.396 0.613333 -4.00025 0
M  V30 4787 H 476.151 -1.33093 -4.54514 0
M  V30 4788 H 476.575 -3.698 -5.67077 0
M  V30 4789 H 481.217 -1.30935 -4.02015 0
M  V30 4790 H 478.935 -5.19888 -6.18661 0
M  V30 4791 H 482.521 -3.25073 -4.82513 0
M  V30 4792 H 481.401 -5.17008 -5.89638 0
M  V30 4793 N 478.904 1.54736 -0.299062 0
M  V30 4794 C 479.814 2.27127 0.587413 0
M  V30 4795 C 480.83 1.30575 1.15005 0
M  V30 4796 O 482.006 1.63554 1.17525 0
M  V30 4797 C 479.071 2.99645 1.74395 0
M  V30 4798 C 478.132 4.11731 1.21559 0
M  V30 4799 C 477.365 4.80781 2.317 0
M  V30 4800 O 477.588 4.4918 3.51558 0
M  V30 4801 O 476.522 5.68226 1.98501 0
M  V30 4802 H 480.348 3.037 0.000250109 0
M  V30 4803 H 477.933 1.49256 -0.0655919 0
M  V30 4804 H 479.815 3.45138 2.4178 0
M  V30 4805 H 478.49 2.25969 2.31775 0
M  V30 4806 H 477.397 3.70641 0.507514 0
M  V30 4807 H 478.73 4.87379 0.687233 0
M  V30 4808 N 480.382 0.0267497 1.57577 0
M  V30 4809 C 481.61 -0.662661 1.96001 0
M  V30 4810 C 482.025 -1.65799 0.903117 0
M  V30 4811 O 481.382 -1.82135 -0.115317 0
M  V30 4812 C 481.433 -1.37112 3.34488 0
M  V30 4813 O 481.154 -0.415683 4.36123 0
M  V30 4814 C 482.655 -2.15257 3.8753 0
M  V30 4815 H 479.875 -0.18287 0.6456 0
M  V30 4816 H 482.419 0.0858116 2.0432 0
M  V30 4817 H 480.574 -2.07101 3.27395 0
M  V30 4818 H 480.988 -0.918496 5.16395 0
M  V30 4819 H 482.462 -2.60285 4.86781 0
M  V30 4820 H 482.939 -2.99063 3.21649 0
M  V30 4821 H 483.545 -1.50231 3.97883 0
M  V30 4822 N 481.861 -1.55662 -0.24637 0
M  V30 4823 C 482.791 -1.93377 -1.30873 0
M  V30 4824 C 483.772 -0.798773 -1.50179 0
M  V30 4825 O 484.957 -1.0591 -1.62778 0
M  V30 4826 C 482.087 -2.22893 -2.66338 0
M  V30 4827 C 481.041 -3.38649 -2.61727 0
M  V30 4828 C 480.367 -3.53708 -4.00992 0
M  V30 4829 C 481.667 -4.74323 -2.18666 0
M  V30 4830 H 483.361 -2.82363 -0.995552 0
M  V30 4831 H 480.907 -1.35854 -0.477464 0
M  V30 4832 H 482.86 -2.47866 -3.40794 0
M  V30 4833 H 481.584 -1.30733 -2.99293 0
M  V30 4834 H 480.243 -3.13685 -1.89729 0
M  V30 4835 H 479.891 -2.58967 -4.31214 0
M  V30 4836 H 479.591 -4.31551 -3.98795 0
M  V30 4837 H 481.115 -3.81003 -4.77147 0
M  V30 4838 H 482.529 -4.98665 -2.82854 0
M  V30 4839 H 480.926 -5.55273 -2.27579 0
M  V30 4840 H 481.996 -4.71349 -1.13834 0
M  V30 4841 N 483.339 0.512053 -1.4905 0
M  V30 4842 C 484.75 1.09376 -1.51307 0
M  V30 4843 C 485.101 1.94 -0.292971 0
M  V30 4844 O 484.226 2.07965 0.598277 0
M  V30 4845 C 484.821 1.99031 -2.74176 0
M  V30 4846 C 483.38 2.52385 -2.79247 0
M  V30 4847 C 482.527 1.29749 -2.45073 0
M  V30 4848 H 485.478 0.296467 -1.55906 0
M  V30 4849 H 485.499 2.83569 -2.53711 0
M  V30 4850 H 485.011 1.37412 -3.62959 0
M  V30 4851 H 483.112 3.17673 -1.94716 0
M  V30 4852 H 483.225 2.90293 -3.81139 0
M  V30 4853 H 481.589 1.61912 -1.96612 0
M  V30 4854 H 482.372 0.698555 -3.36118 0
M  V30 4855 N 484.817 1.37938 0.762283 0
M  V30 4856 C 486.094 1.24196 1.51112 0
M  V30 4857 C 486.474 -0.160409 2.1049 0
M  V30 4858 O 485.822 -1.16904 1.96331 0
M  V30 4859 C 486.032 2.34537 2.58445 0
M  V30 4860 C 487.38 2.7254 3.25588 0
M  V30 4861 O 488.404 2.33783 2.68745 0
M  V30 4862 O 487.263 3.39343 4.28379 0
M  V30 4863 H 484.357 0.485175 0.669727 0
M  V30 4864 H 486.903 1.49743 0.798438 0
M  V30 4865 H 485.675 3.28406 2.12756 0
M  V30 4866 H 485.298 2.10505 3.37303 0
M  V30 4867 N 486.295 -0.989507 1.22664 0
M  V30 4868 C 487.544 -1.72375 1.04737 0
M  V30 4869 C 487.857 -1.91096 -0.417316 0
M  V30 4870 O 489.063 -2.6188 -0.716334 0
M  V30 4871 C 487.519 -3.10161 1.82561 0
M  V30 4872 C 487.127 -2.99358 3.333 0
M  V30 4873 C 488.871 -3.87607 1.73093 0
M  V30 4874 C 486.778 -4.32319 4.03552 0
M  V30 4875 H 485.708 -0.646326 0.388302 0
M  V30 4876 H 488.359 -1.10437 1.46546 0
M  V30 4877 H 486.741 -3.728 1.33552 0
M  V30 4878 H 487.915 -2.45863 3.89728 0
M  V30 4879 H 486.23 -2.35392 3.43481 0
M  V30 4880 H 488.827 -4.86025 2.22899 0
M  V30 4881 H 489.17 -4.10509 0.691976 0
M  V30 4882 H 489.703 -3.31652 2.19663 0
M  V30 4883 H 486.442 -4.14616 5.07714 0
M  V30 4884 H 485.962 -4.85714 3.51911 0
M  V30 4885 H 487.641 -5.01051 4.09337 0
M  V30 4886 N 487.773 -1.03688 -1.18687 0
M  V30 4887 C 489.013 -0.746858 -1.90267 0
M  V30 4888 C 489.377 0.712075 -1.78307 0
M  V30 4889 O 490.578 1.11553 -2.44559 0
M  V30 4890 C 488.849 -1.19543 -3.36815 0
M  V30 4891 S 490.408 -1.03047 -4.26529 0
M  V30 4892 H 487.226 -0.271663 -0.657054 0
M  V30 4893 H 489.828 -1.32838 -1.43437 0
M  V30 4894 H 488.532 -2.2527 -3.43047 0
M  V30 4895 H 488.063 -0.607533 -3.88681 0
M  V30 4896 H 490.078 0.0543232 -4.9617 0
M  V30 4897 N 489.251 1.34841 -0.815825 0
M  V30 4898 C 490.491 2.00321 -0.406297 0
M  V30 4899 C 490.855 1.63293 1.00992 0
M  V30 4900 O 492.056 2.21563 1.52195 0
M  V30 4901 C 490.327 3.52421 -0.594469 0
M  V30 4902 S 491.886 4.37926 -0.276735 0
M  V30 4903 H 488.704 0.694155 -0.153848 0
M  V30 4904 H 491.306 1.64263 -1.06009 0
M  V30 4905 H 490.01 3.76858 -1.625 0
M  V30 4906 H 489.541 3.9333 0.0743157 0
M  V30 4907 H 491.556 4.87743 0.912215 0
M  V30 4908 N 490.729 0.570148 1.46925 0
M  V30 4909 C 491.659 -0.158274 2.32963 0
M  V30 4910 C 492.64 -0.896093 1.44583 0
M  V30 4911 O 493.825 -0.874022 1.7342 0
M  V30 4912 C 490.955 -1.18055 3.26619 0
M  V30 4913 C 489.909 -0.558379 4.24342 0
M  V30 4914 C 489.235 -1.68623 5.07415 0
M  V30 4915 C 490.535 0.496295 5.19937 0
M  V30 4916 H 492.229 0.560046 2.94115 0
M  V30 4917 H 489.775 0.270775 1.41431 0
M  V30 4918 H 491.728 -1.69841 3.85658 0
M  V30 4919 H 490.452 -1.92899 2.63548 0
M  V30 4920 H 489.111 -0.0617157 3.66548 0
M  V30 4921 H 488.759 -2.42402 4.40738 0
M  V30 4922 H 488.459 -1.27564 5.73586 0
M  V30 4923 H 489.983 -2.20709 5.69315 0
M  V30 4924 H 491.397 0.0640052 5.73264 0
M  V30 4925 H 489.794 0.82649 5.94381 0
M  V30 4926 H 490.864 1.38735 4.6463 0
M  V30 4927 N 492.207 -1.54576 0.307264 0
M  V30 4928 C 493.453 -2.0056 -0.300612 0
M  V30 4929 C 493.786 -1.1953 -1.53057 0
M  V30 4930 O 493.061 -0.27337 -1.92569 0
M  V30 4931 C 493.344 -3.54167 -0.650987 0
M  V30 4932 C 493.197 -4.45933 0.588539 0
M  V30 4933 C 494.516 -4.14645 -1.47506 0
M  V30 4934 H 491.635 -0.729075 -0.107788 0
M  V30 4935 H 494.277 -1.85286 0.420606 0
M  V30 4936 H 492.427 -3.67313 -1.26544 0
M  V30 4937 H 494.099 -4.44683 1.22697 0
M  V30 4938 H 492.342 -4.16274 1.22058 0
M  V30 4939 H 493.013 -5.51189 0.299153 0
M  V30 4940 H 495.489 -4.04973 -0.955821 0
M  V30 4941 H 494.365 -5.22269 -1.68899 0
M  V30 4942 H 494.626 -3.66921 -2.4662 0
M  V30 4943 N 493.685 -0.035106 -1.57561 0
M  V30 4944 C 494.91 0.655802 -1.96759 0
M  V30 4945 C 495.335 1.64523 -0.911809 0
M  V30 4946 O 494.693 1.80857 0.126673 0
M  V30 4947 C 494.741 1.33326 -3.35047 0
M  V30 4948 O 493.845 2.44866 -3.31835 0
M  V30 4949 H 493.186 0.171807 -0.641388 0
M  V30 4950 H 495.716 -0.0987369 -2.04362 0
M  V30 4951 H 495.726 1.68867 -3.71413 0
M  V30 4952 H 494.401 0.608033 -4.11431 0
M  V30 4953 H 492.978 2.11392 -3.07193 0
M  V30 4954 N 495.163 1.55791 0.238111 0
M  V30 4955 C 496.411 1.77681 0.963001 0
M  V30 4956 C 496.732 0.600674 1.85518 0
M  V30 4957 O 496.002 -0.383182 1.92116 0
M  V30 4958 H 494.582 0.655315 0.358568 0
M  V30 4959 H 497.244 1.93239 0.253945 0
M  V30 4960 H 496.34 2.69177 1.57956 0
M  V30 4961 N 496.642 -0.504142 1.49319 0
M  V30 4962 C 497.605 -1.5883 1.65244 0
M  V30 4963 C 498.605 -1.52009 0.524386 0
M  V30 4964 O 499.795 -1.55218 0.79077 0
M  V30 4965 C 496.927 -2.98481 1.64687 0
M  V30 4966 H 498.12 -1.4604 2.61939 0
M  V30 4967 H 495.673 -0.728144 1.38303 0
M  V30 4968 H 496.408 -3.16751 0.695644 0
M  V30 4969 H 496.193 -3.0484 2.46607 0
M  V30 4970 H 497.683 -3.77256 1.79075 0
M  V30 4971 N 498.12 -1.38341 -0.754957 0
M  V30 4972 C 499.05 -1.38176 -1.88227 0
M  V30 4973 C 500.031 -0.247873 -1.68284 0
M  V30 4974 O 501.216 -0.45075 -1.88896 0
M  V30 4975 C 498.346 -1.20471 -3.25736 0
M  V30 4976 C 497.3 -2.3105 -3.60278 0
M  V30 4977 C 496.626 -1.98452 -4.96509 0
M  V30 4978 C 497.926 -3.73305 -3.65295 0
M  V30 4979 H 499.62 -2.32512 -1.88622 0
M  V30 4980 H 497.166 -1.1192 -0.906082 0
M  V30 4981 H 499.119 -1.18982 -4.04254 0
M  V30 4982 H 497.843 -0.225965 -3.25817 0
M  V30 4983 H 496.502 -2.31723 -2.84078 0
M  V30 4984 H 496.15 -0.990641 -4.93148 0
M  V30 4985 H 495.85 -2.7251 -5.20588 0
M  V30 4986 H 497.374 -1.98578 -5.77407 0
M  V30 4987 H 498.788 -3.7467 -4.3393 0
M  V30 4988 H 497.185 -4.46557 -4.00883 0
M  V30 4989 H 498.255 -4.05719 -2.65556 0
M  V30 4990 N 499.598 0.982988 -1.23187 0
M  V30 4991 C 501.014 1.2487 -0.993967 0
M  V30 4992 C 501.214 1.99155 0.306498 0
M  V30 4993 O 500.27 2.30688 1.0266 0
M  V30 4994 C 501.583 2.05078 -2.19917 0
M  V30 4995 C 503.131 2.18227 -2.2438 0
M  V30 4996 C 503.606 3.01825 -3.44479 0
M  V30 4997 N 505.097 3.09411 -3.44702 0
M  V30 4998 C 505.832 3.74412 -4.34285 0
M  V30 4999 N 505.328 4.41259 -5.341 0
M  V30 5000 N 507.121 3.71273 -4.22035 0
M  V30 5001 H 499.272 0.485253 -2.06783 0
M  V30 5002 H 501.535 0.276979 -0.906635 0
M  V30 5003 H 501.241 1.57867 -3.14279 0
M  V30 5004 H 501.115 3.05829 -2.2079 0
M  V30 5005 H 503.502 2.64648 -1.30559 0
M  V30 5006 H 503.583 1.16873 -2.2754 0
M  V30 5007 H 503.227 2.56102 -4.38605 0
M  V30 5008 H 503.157 4.03342 -3.38559 0
M  V30 5009 H 505.648 2.61845 -2.7248 0
M  V30 5010 H 505.961 4.88629 -5.98717 0
M  V30 5011 H 504.306 4.39975 -5.38002 0
M  V30 5012 H 507.497 3.18217 -3.43301 0
M  V30 5013 H 507.67 4.21649 -4.92053 0
M  V30 5014 N 501.076 1.04316 1.18135 0
M  V30 5015 C 502.008 0.594444 2.21357 0
M  V30 5016 C 503.021 -0.337215 1.59269 0
M  V30 5017 O 504.21 -0.131337 1.78016 0
M  V30 5018 C 501.31 -0.151251 3.38562 0
M  V30 5019 C 500.483 0.788907 4.30227 0
M  V30 5020 C 499.542 0.0860572 5.2613 0
M  V30 5021 O 498.568 0.717302 5.64662 0
M  V30 5022 N 499.77 -1.17969 5.68387 0
M  V30 5023 H 502.535 1.48227 2.60478 0
M  V30 5024 H 500.096 0.92396 1.32946 0
M  V30 5025 H 502.088 -0.631352 3.99745 0
M  V30 5026 H 500.658 -0.940639 2.98112 0
M  V30 5027 H 499.878 1.44882 3.6661 0
M  V30 5028 H 501.166 1.42738 4.88368 0
M  V30 5029 H 500.564 -1.71302 5.3914 0
M  V30 5030 H 499.121 -1.60402 6.31755 0
M  V30 5031 N 502.554 -1.34406 0.822964 0
M  V30 5032 C 503.517 -2.2783 0.250271 0
M  V30 5033 C 504.517 -1.50288 -0.571854 0
M  V30 5034 O 505.707 -1.69825 -0.387952 0
M  V30 5035 C 502.839 -3.34663 -0.649137 0
M  V30 5036 H 504.032 -2.79992 1.07444 0
M  V30 5037 H 501.585 -1.44539 0.594829 0
M  V30 5038 H 502.32 -2.87714 -1.49637 0
M  V30 5039 H 502.105 -3.92052 -0.0611199 0
M  V30 5040 H 503.595 -4.04349 -1.04363 0
M  V30 5041 N 504.032 -0.577932 -1.46621 0
M  V30 5042 C 504.964 0.195801 -2.28362 0
M  V30 5043 C 505.977 0.859983 -1.38232 0
M  V30 5044 O 507.166 0.730349 -1.62875 0
M  V30 5045 C 504.266 1.29639 -3.13124 0
M  V30 5046 C 503.439 0.725049 -4.31349 0
M  V30 5047 C 502.498 1.71274 -4.97546 0
M  V30 5048 O 501.524 1.25067 -5.5529 0
M  V30 5049 N 502.726 3.04672 -4.94121 0
M  V30 5050 H 505.491 -0.505468 -2.95407 0
M  V30 5051 H 503.052 -0.415381 -1.56481 0
M  V30 5052 H 505.044 1.95631 -3.54275 0
M  V30 5053 H 503.614 1.90059 -2.48186 0
M  V30 5054 H 502.834 -0.112205 -3.9404 0
M  V30 5055 H 504.122 0.323034 -5.07774 0
M  V30 5056 H 503.52 3.4484 -4.48444 0
M  V30 5057 H 502.077 3.66166 -5.39227 0
M  V30 5058 N 505.51 1.54411 -0.315457 0
M  V30 5059 C 506.756 2.00716 0.289972 0
M  V30 5060 C 507.089 1.2034 1.5242 0
M  V30 5061 O 506.364 0.283579 1.92422 0
M  V30 5062 C 506.647 3.54507 0.632196 0
M  V30 5063 C 506.5 4.45615 -0.61218 0
M  V30 5064 C 507.819 4.15421 1.45305 0
M  V30 5065 H 504.938 0.729637 0.10392 0
M  V30 5066 H 507.58 1.8506 -0.430427 0
M  V30 5067 H 505.73 3.67979 1.24595 0
M  V30 5068 H 507.402 4.44026 -1.25053 0
M  V30 5069 H 505.645 4.15621 -1.24264 0
M  V30 5070 H 506.316 5.51022 -0.328379 0
M  V30 5071 H 508.792 4.05474 0.934331 0
M  V30 5072 H 507.668 5.23157 1.66127 0
M  V30 5073 H 507.929 3.68223 2.44671 0
M  V30 5074 N 506.988 0.0434614 1.5754 0
M  V30 5075 C 508.237 -0.631454 1.91561 0
M  V30 5076 C 508.55 -1.72457 0.92292 0
M  V30 5077 O 509.756 -2.45712 1.15489 0
M  V30 5078 C 508.212 -1.17447 3.40197 0
M  V30 5079 C 507.82 -0.113867 4.47855 0
M  V30 5080 C 509.564 -1.82507 3.83264 0
M  V30 5081 C 507.471 -0.669326 5.876 0
M  V30 5082 H 506.401 -0.239629 0.714908 0
M  V30 5083 H 509.052 0.111097 1.83163 0
M  V30 5084 H 507.434 -1.96909 3.43574 0
M  V30 5085 H 508.608 0.659348 4.56058 0
M  V30 5086 H 506.923 0.438821 4.14081 0
M  V30 5087 H 509.52 -2.25047 4.85034 0
M  V30 5088 H 509.863 -2.67365 3.19095 0
M  V30 5089 H 510.396 -1.09712 3.82372 0
M  V30 5090 H 507.135 0.141449 6.55347 0
M  V30 5091 H 506.655 -1.4107 5.82974 0
M  V30 5092 H 508.334 -1.15463 6.36614 0
M  V30 5093 N 508.466 -1.55915 -0.229846 0
M  V30 5094 C 509.429 -1.90914 -1.26824 0
M  V30 5095 C 510.429 -0.786999 -1.40225 0
M  V30 5096 O 511.619 -1.05484 -1.38632 0
M  V30 5097 C 508.751 -2.15264 -2.64337 0
M  V30 5098 H 509.944 -2.8378 -0.969998 0
M  V30 5099 H 507.497 -1.49069 -0.4699 0
M  V30 5100 H 508.232 -1.24923 -2.99274 0
M  V30 5101 H 508.017 -2.97005 -2.55989 0
M  V30 5102 H 509.507 -2.43467 -3.39284 0
M  V30 5103 N 509.944 0.496216 -1.49584 0
M  V30 5104 C 510.854 1.62352 -1.69349 0
M  V30 5105 C 511.87 1.64184 -0.576147 0
M  V30 5106 O 513.046 1.82517 -0.85144 0
M  V30 5107 C 510.111 2.98698 -1.76013 0
M  V30 5108 C 509.172 3.07454 -2.99617 0
M  V30 5109 C 508.405 4.37296 -3.05953 0
M  V30 5110 O 508.628 5.2637 -2.19752 0
M  V30 5111 O 507.562 4.51124 -3.9846 0
M  V30 5112 H 511.388 1.48606 -2.64859 0
M  V30 5113 H 508.973 0.673022 -1.33382 0
M  V30 5114 H 510.855 3.79725 -1.82721 0
M  V30 5115 H 509.53 3.12696 -0.836828 0
M  V30 5116 H 508.437 2.25597 -2.98424 0
M  V30 5117 H 509.77 2.98385 -3.91443 0
M  V30 5118 N 511.423 1.38739 0.74761 0
M  V30 5119 C 512.671 1.35007 1.50391 0
M  V30 5120 C 512.992 -0.0574274 1.94915 0
M  V30 5121 O 512.262 -1.00628 1.6808 0
M  V30 5122 H 510.842 0.496784 0.557866 0
M  V30 5123 H 513.504 1.73479 0.888319 0
M  V30 5124 H 512.6 2.00474 2.392 0
M  V30 5125 N 512.901 -0.976442 1.23707 0
M  V30 5126 C 514.15 -1.71254 1.06559 0
M  V30 5127 C 514.463 -1.91528 -0.397024 0
M  V30 5128 O 515.669 -2.62625 -0.688518 0
M  V30 5129 C 514.125 -3.08207 1.8584 0
M  V30 5130 C 513.733 -2.95806 3.36456 0
M  V30 5131 C 515.477 -3.85749 1.77194 0
M  V30 5132 C 513.384 -4.28015 4.08114 0
M  V30 5133 H 512.314 -0.642171 0.395136 0
M  V30 5134 H 514.965 -1.08877 1.4771 0
M  V30 5135 H 513.347 -3.71363 1.37498 0
M  V30 5136 H 514.521 -2.41716 3.92314 0
M  V30 5137 H 512.836 -2.31736 3.45959 0
M  V30 5138 H 515.433 -4.83633 2.28041 0
M  V30 5139 H 515.776 -4.09752 0.735477 0
M  V30 5140 H 516.309 -3.29303 2.23169 0
M  V30 5141 H 513.048 -4.09208 5.12083 0
M  V30 5142 H 512.568 -4.81955 3.57043 0
M  V30 5143 H 514.247 -4.96681 4.14629 0
M  V30 5144 N 514.379 -1.04941 -1.1758 0
M  V30 5145 C 515.289 -0.658826 -2.25159 0
M  V30 5146 C 516.305 0.318941 -1.71052 0
M  V30 5147 O 517.481 0.171669 -2.00667 0
M  V30 5148 C 514.546 -0.0369522 -3.4668 0
M  V30 5149 C 513.607 -1.06484 -4.15884 0
M  V30 5150 C 512.84 -0.472551 -5.31604 0
M  V30 5151 O 513.063 0.718736 -5.65854 0
M  V30 5152 O 511.997 -1.20557 -5.89703 0
M  V30 5153 H 515.823 -1.55533 -2.60851 0
M  V30 5154 H 513.408 -0.820819 -1.24832 0
M  V30 5155 H 515.29 0.308784 -4.20267 0
M  V30 5156 H 513.965 0.833238 -3.12792 0
M  V30 5157 H 512.872 -1.46253 -3.44327 0
M  V30 5158 H 514.205 -1.9061 -4.53794 0
M  V30 5159 N 515.857 1.33968 -0.830081 0
M  V30 5160 C 517.103 1.98357 -0.422191 0
M  V30 5161 C 517.436 1.65633 1.01387 0
M  V30 5162 O 516.711 0.931648 1.70735 0
M  V30 5163 C 516.994 3.54492 -0.633043 0
M  V30 5164 C 516.847 3.96934 -2.11574 0
M  V30 5165 C 518.166 4.40039 -0.0735584 0
M  V30 5166 H 515.285 0.720544 -0.154871 0
M  V30 5167 H 517.927 1.58749 -1.04397 0
M  V30 5168 H 516.077 3.88361 -0.103775 0
M  V30 5169 H 517.749 3.73363 -2.7092 0
M  V30 5170 H 515.992 3.46984 -2.60354 0
M  V30 5171 H 516.663 5.05651 -2.21406 0
M  V30 5172 H 519.139 4.12764 -0.52585 0
M  V30 5173 H 518.015 5.48327 -0.250841 0
M  V30 5174 H 518.276 4.30124 1.02202 0
M  V30 5175 N 517.335 0.585699 1.46312 0
M  V30 5176 C 518.612 0.00542031 1.95599 0
M  V30 5177 C 518.992 -1.45619 1.52834 0
M  V30 5178 O 518.34 -2.14759 0.780446 0
M  V30 5179 C 518.55 0.180601 3.48532 0
M  V30 5180 C 519.898 0.049979 4.24571 0
M  V30 5181 O 520.922 0.109589 3.56031 0
M  V30 5182 O 519.781 -0.0832226 5.46437 0
M  V30 5183 H 516.875 -0.0481281 0.825598 0
M  V30 5184 H 519.421 0.654227 1.56582 0
M  V30 5185 H 518.193 1.19657 3.72556 0
M  V30 5186 H 517.816 -0.504498 3.94386 0
M  V30 5187 N 518.813 -1.54241 0.323641 0
M  V30 5188 C 519.776 -2.22997 -0.529602 0
M  V30 5189 C 520.776 -1.22345 -1.04347 0
M  V30 5190 O 521.966 -1.46924 -0.935889 0
M  V30 5191 C 519.098 -2.93409 -1.73562 0
M  V30 5192 H 520.291 -2.99815 0.0714518 0
M  V30 5193 H 517.844 -1.56121 0.0747258 0
M  V30 5194 H 518.579 -2.20729 -2.37591 0
M  V30 5195 H 518.364 -3.67217 -1.37456 0
M  V30 5196 H 519.854 -3.45794 -2.34128 0
M  V30 5197 N 520.291 -0.0518155 -1.57515 0
M  V30 5198 C 521.254 0.907547 -2.10467 0
M  V30 5199 C 522.254 1.23947 -1.02439 0
M  V30 5200 O 523.444 1.17604 -1.2851 0
M  V30 5201 C 520.576 2.21723 -2.58944 0
M  V30 5202 H 521.769 0.44851 -2.96527 0
M  V30 5203 H 519.322 0.196598 -1.55059 0
M  V30 5204 H 520.057 2.72206 -1.76279 0
M  V30 5205 H 519.842 1.98935 -3.37886 0
M  V30 5206 H 521.332 2.90441 -3.00056 0
M  V30 5207 N 521.769 1.56035 0.221574 0
M  V30 5208 C 523.185 1.49026 0.571271 0
M  V30 5209 C 523.385 0.746912 1.87146 0
M  V30 5210 O 522.441 0.286566 2.50869 0
M  V30 5211 C 523.754 2.93579 0.650522 0
M  V30 5212 C 525.302 3.04099 0.741151 0
M  V30 5213 C 525.777 4.5001 0.851747 0
M  V30 5214 N 527.268 4.54053 0.915968 0
M  V30 5215 C 528.003 5.64232 1.02125 0
M  V30 5216 N 527.499 6.84164 1.09049 0
M  V30 5217 N 529.292 5.52084 1.05639 0
M  V30 5218 H 521.443 2.02791 -0.63162 0
M  V30 5219 H 523.706 0.921736 -0.221602 0
M  V30 5220 H 523.412 3.50912 -0.235253 0
M  V30 5221 H 523.286 3.45476 1.51413 0
M  V30 5222 H 525.673 2.4683 1.61737 0
M  V30 5223 H 525.754 2.55371 -0.148128 0
M  V30 5224 H 525.398 5.07896 -0.0200117 0
M  V30 5225 H 525.328 4.96444 1.75644 0
M  V30 5226 H 527.819 3.67683 0.872782 0
M  V30 5227 H 528.132 7.63883 1.1706 0
M  V30 5228 H 526.477 6.86875 1.05962 0
M  V30 5229 H 529.668 4.57317 0.998953 0
M  V30 5230 H 529.841 6.37983 1.13498 0
M  V30 5231 N 523.247 -0.488276 1.49845 0
M  V30 5232 C 524.18 -1.60651 1.62069 0
M  V30 5233 C 525.158 -1.5568 0.469308 0
M  V30 5234 O 526.342 -1.75553 0.686551 0
M  V30 5235 C 523.469 -2.99197 1.58741 0
M  V30 5236 C 522.515 -3.22385 2.79232 0
M  V30 5237 S 523.348 -3.04133 4.40753 0
M  V30 5238 C 524.504 -4.45052 4.4009 0
M  V30 5239 H 524.737 -1.50039 2.56662 0
M  V30 5240 H 522.27 -0.674371 1.38894 0
M  V30 5241 H 524.228 -3.79081 1.57506 0
M  V30 5242 H 522.889 -3.07213 0.654136 0
M  V30 5243 H 522.082 -4.23557 2.73159 0
M  V30 5244 H 521.684 -2.50245 2.77945 0
M  V30 5245 H 523.976 -5.37375 4.12594 0
M  V30 5246 H 524.919 -4.56172 5.41583 0
M  V30 5247 H 525.327 -4.26327 3.70008 0
M  V30 5248 N 524.725 -1.39134 -0.740242 0
M  V30 5249 C 526.141 -1.20623 -1.0451 0
M  V30 5250 C 526.341 -0.0641651 -2.01398 0
M  V30 5251 O 525.397 0.585843 -2.4561 0
M  V30 5252 C 526.71 -2.53815 -1.6124 0
M  V30 5253 C 528.258 -2.60615 -1.73346 0
M  V30 5254 C 528.733 -3.94015 -2.33486 0
M  V30 5255 N 530.224 -3.95627 -2.40902 0
M  V30 5256 C 530.959 -4.95616 -2.88361 0
M  V30 5257 N 530.455 -6.06003 -3.35756 0
M  V30 5258 N 532.248 -4.82998 -2.87523 0
M  V30 5259 H 524.399 -2.12176 -0.0975576 0
M  V30 5260 H 526.662 -0.942066 -0.105904 0
M  V30 5261 H 526.368 -3.37911 -0.975144 0
M  V30 5262 H 526.242 -2.73162 -2.6012 0
M  V30 5263 H 528.629 -1.76906 -2.36195 0
M  V30 5264 H 528.71 -2.45123 -0.731336 0
M  V30 5265 H 528.354 -4.78153 -1.71267 0
M  V30 5266 H 528.284 -4.06825 -3.34366 0
M  V30 5267 H 530.775 -3.15903 -2.07398 0
M  V30 5268 H 531.088 -6.78215 -3.70464 0
M  V30 5269 H 529.433 -6.09604 -3.33778 0
M  V30 5270 H 532.624 -3.95866 -2.49816 0
M  V30 5271 H 532.797 -5.61072 -3.24196 0
M  V30 5272 N 526.204 0.969867 -1.24223 0
M  V30 5273 C 527.62 1.23809 -1.00716 0
M  V30 5274 C 527.82 1.99469 0.285358 0
M  V30 5275 O 526.876 2.31764 1.00207 0
M  V30 5276 C 528.189 2.02734 -2.2208 0
M  V30 5277 C 529.737 2.15834 -2.26681 0
M  V30 5278 C 530.212 2.98154 -3.47661 0
M  V30 5279 N 531.703 3.05737 -3.47964 0
M  V30 5280 C 532.438 3.69785 -4.38231 0
M  V30 5281 N 531.934 4.35569 -5.3875 0
M  V30 5282 N 533.727 3.66775 -4.25949 0
M  V30 5283 H 525.878 0.463294 -2.07286 0
M  V30 5284 H 528.141 0.267348 -0.909521 0
M  V30 5285 H 527.847 1.54524 -3.15935 0
M  V30 5286 H 527.721 3.0347 -2.24021 0
M  V30 5287 H 530.108 2.63248 -1.33359 0
M  V30 5288 H 530.189 1.14453 -2.28767 0
M  V30 5289 H 529.833 2.51435 -4.41297 0
M  V30 5290 H 529.763 3.99729 -3.42818 0
M  V30 5291 H 532.254 2.58941 -2.75242 0
M  V30 5292 H 532.567 4.82251 -6.03866 0
M  V30 5293 H 530.912 4.34244 -5.42639 0
M  V30 5294 H 534.103 3.14558 -3.46657 0
M  V30 5295 H 534.276 4.16407 -4.96497 0
M  V30 5296 N 527.682 1.05563 1.17022 0
M  V30 5297 C 528.63 0.653887 2.2322 0
M  V30 5298 C 529.624 -0.326642 1.66221 0
M  V30 5299 O 530.83 -0.192301 1.7897 0
M  V30 5300 H 527.205 0.193297 0.726733 0
M  V30 5301 H 529.176 1.5596 2.54399 0
M  V30 5302 C 527.925 0.0485434 3.47666 0
M  V30 5303 H 527.248 0.79413 3.91834 0
M  V30 5304 H 528.688 -0.195133 4.23551 0
M  V30 5305 C 527.147 -1.20583 3.14581 0
M  V30 5306 O 527.677 -2.29475 3.29703 0
M  V30 5307 N 525.883 -1.10493 2.68774 0
M  V30 5308 H 525.43 -0.218795 2.56669 0
M  V30 5309 H 525.388 -1.94507 2.47011 0
M  V30 5310 N 529.16 -1.33526 0.837174 0
M  V30 5311 C 530.09 -2.31764 0.284206 0
M  V30 5312 C 531.071 -1.58896 -0.607142 0
M  V30 5313 O 532.256 -1.86798 -0.531047 0
M  V30 5314 C 529.386 -3.43029 -0.542962 0
M  V30 5315 C 528.34 -4.27255 0.252451 0
M  V30 5316 C 527.666 -5.3012 -0.69836 0
M  V30 5317 C 528.966 -5.01229 1.46858 0
M  V30 5318 H 530.66 -2.78262 1.10502 0
M  V30 5319 H 528.206 -1.3378 0.532812 0
M  V30 5320 H 530.159 -4.1078 -0.940096 0
M  V30 5321 H 528.883 -2.95216 -1.39697 0
M  V30 5322 H 527.542 -3.61127 0.631124 0
M  V30 5323 H 527.19 -4.78564 -1.54872 0
M  V30 5324 H 526.89 -5.87353 -0.170274 0
M  V30 5325 H 528.414 -6.00737 -1.09305 0
M  V30 5326 H 529.828 -5.61756 1.14469 0
M  V30 5327 H 528.225 -5.68104 1.93333 0
M  V30 5328 H 529.295 -4.301 2.23924 0
M  V30 5329 N 530.638 -0.59345 -1.46 0
M  V30 5330 C 531.915 -0.0157933 -1.95594 0
M  V30 5331 C 532.295 1.44807 -1.53604 0
M  V30 5332 O 531.643 2.14342 -0.791824 0
M  V30 5333 C 531.853 -0.199081 -3.48432 0
M  V30 5334 C 533.201 -0.0724943 -4.24538 0
M  V30 5335 O 534.225 -0.128469 -3.55968 0
M  V30 5336 O 533.084 0.0542426 -5.46473 0
M  V30 5337 H 530.178 0.043749 -0.825842 0
M  V30 5338 H 532.724 -0.662522 -1.56233 0
M  V30 5339 H 531.496 -1.21631 -3.71916 0
M  V30 5340 H 531.119 0.483576 -3.94648 0
M  V30 5341 N 532.116 1.54067 -0.331816 0
M  V30 5342 C 533.046 2.27569 0.522932 0
M  V30 5343 C 534.027 1.28679 1.11247 0
M  V30 5344 O 535.212 1.57504 1.13605 0
M  V30 5345 C 532.342 3.0397 1.67987 0
M  V30 5346 C 531.296 4.10267 1.21924 0
M  V30 5347 C 530.622 4.74555 2.46377 0
M  V30 5348 C 531.922 5.21268 0.32815 0
M  V30 5349 H 533.616 2.99264 -0.0901977 0
M  V30 5350 H 531.162 1.4393 -0.044821 0
M  V30 5351 H 533.115 3.54123 2.28418 0
M  V30 5352 H 531.839 2.29906 2.31971 0
M  V30 5353 H 530.498 3.61009 0.637809 0
M  V30 5354 H 530.146 3.97098 3.08743 0
M  V30 5355 H 529.846 5.46363 2.16243 0
M  V30 5356 H 531.37 5.27487 3.07555 0
M  V30 5357 H 532.784 5.67128 0.838978 0
M  V30 5358 H 531.181 5.99982 0.119228 0
M  V30 5359 H 532.251 4.80673 -0.638839 0
M  V30 5360 N 533.594 0.0601682 1.57485 0
M  V30 5361 C 534.822 -0.620937 1.97363 0
M  V30 5362 C 535.237 -1.63846 0.938082 0
M  V30 5363 O 534.594 -1.82339 -0.0766578 0
M  V30 5364 C 534.645 -1.29987 3.37321 0
M  V30 5365 O 534.366 -0.323081 4.36907 0
M  V30 5366 C 535.867 -2.06989 3.92008 0
M  V30 5367 H 533.087 -0.169135 0.649334 0
M  V30 5368 H 535.631 0.129132 2.04092 0
M  V30 5369 H 533.786 -2.0011 3.31715 0
M  V30 5370 H 534.2 -0.808754 5.18227 0
M  V30 5371 H 535.674 -2.49901 4.92192 0
M  V30 5372 H 536.151 -2.92173 3.2792 0
M  V30 5373 H 536.757 -1.41757 4.0098 0
M  V30 5374 N 535.072 -1.5615 -0.213296 0
M  V30 5375 C 536.004 -1.89586 -1.28802 0
M  V30 5376 C 537.017 -0.784844 -1.42633 0
M  V30 5377 O 538.206 -1.06319 -1.43383 0
M  V30 5378 C 535.306 -2.09665 -2.66259 0
M  V30 5379 C 534.479 -3.40726 -2.7427 0
M  V30 5380 C 533.538 -3.50137 -3.92798 0
M  V30 5381 O 532.564 -4.23105 -3.8075 0
M  V30 5382 N 533.766 -2.81886 -5.07465 0
M  V30 5383 H 536.531 -2.82368 -1.00442 0
M  V30 5384 H 534.092 -1.56796 -0.403302 0
M  V30 5385 H 536.084 -2.13268 -3.43946 0
M  V30 5386 H 534.654 -1.23469 -2.87183 0
M  V30 5387 H 533.874 -3.4915 -1.82997 0
M  V30 5388 H 535.162 -4.27048 -2.76599 0
M  V30 5389 H 534.56 -2.22397 -5.2015 0
M  V30 5390 H 533.117 -2.91139 -5.83165 0
M  V30 5391 N 536.55 0.480323 -1.50102 0
M  V30 5392 C 537.798 1.23063 -1.60312 0
M  V30 5393 C 538.119 1.92659 -0.301226 0
M  V30 5394 O 537.389 1.83691 0.680753 0
M  V30 5395 H 535.969 0.457231 -0.590719 0
M  V30 5396 H 538.631 0.554893 -1.86834 0
M  V30 5397 H 537.727 1.9835 -2.40964 0
M  V30 5398 N 538.028 1.39524 0.732853 0
M  V30 5399 C 538.958 1.41153 1.86005 0
M  V30 5400 C 539.939 0.274614 1.67869 0
M  V30 5401 O 541.124 0.480745 1.88155 0
M  V30 5402 C 538.254 1.25638 3.23778 0
M  V30 5403 C 537.208 2.36752 3.56556 0
M  V30 5404 C 536.534 2.06326 4.93289 0
M  V30 5405 C 537.834 3.79069 3.5931 0
M  V30 5406 H 539.528 2.35484 1.84899 0
M  V30 5407 H 537.074 1.13348 0.888162 0
M  V30 5408 H 539.027 1.25398 4.0231 0
M  V30 5409 H 537.751 0.277772 3.25417 0
M  V30 5410 H 536.41 2.36213 2.80355 0
M  V30 5411 H 536.058 1.06897 4.9151 0
M  V30 5412 H 535.758 2.80757 5.16187 0
M  V30 5413 H 537.282 2.07739 5.74175 0
M  V30 5414 H 538.696 3.81526 4.27914 0
M  V30 5415 H 537.093 4.52878 3.93728 0
M  V30 5416 H 538.163 4.09893 2.59068 0
M  V30 5417 N 539.506 -0.963266 1.24736 0
M  V30 5418 C 540.752 -1.70933 1.09131 0
M  V30 5419 C 541.085 -1.90676 -0.368273 0
M  V30 5420 O 540.36 -1.47147 -1.27193 0
M  V30 5421 C 540.643 -3.09744 1.83658 0
M  V30 5422 C 540.496 -2.97465 3.37394 0
M  V30 5423 C 541.815 -4.09483 1.61282 0
M  V30 5424 H 538.934 -0.620398 0.397838 0
M  V30 5425 H 541.576 -1.12028 1.53459 0
M  V30 5426 H 539.726 -3.60031 1.4598 0
M  V30 5427 H 541.398 -2.54571 3.84696 0
M  V30 5428 H 539.641 -2.33576 3.65547 0
M  V30 5429 H 540.312 -3.95822 3.84745 0
M  V30 5430 H 542.788 -3.68073 1.94066 0
M  V30 5431 H 541.664 -5.04666 2.15878 0
M  V30 5432 H 541.925 -4.38639 0.552102 0
M  V30 5433 N 540.985 -1.06182 -1.16461 0
M  V30 5434 C 541.915 -0.692861 -2.22984 0
M  V30 5435 C 542.896 0.314122 -1.67174 0
M  V30 5436 O 544.081 0.189499 -1.93273 0
M  V30 5437 C 541.211 -0.07732 -3.47214 0
M  V30 5438 C 540.165 -1.01015 -4.15909 0
M  V30 5439 C 539.491 -0.257973 -5.34077 0
M  V30 5440 C 540.791 -2.33868 -4.67015 0
M  V30 5441 H 542.485 -1.58343 -2.54102 0
M  V30 5442 H 540.031 -0.76279 -1.22137 0
M  V30 5443 H 541.984 0.19266 -4.20959 0
M  V30 5444 H 540.708 0.848254 -3.15392 0
M  V30 5445 H 539.367 -1.26486 -3.44088 0
M  V30 5446 H 539.015 0.670684 -4.98509 0
M  V30 5447 H 538.715 -0.879638 -5.80979 0
M  V30 5448 H 540.239 0.00448788 -6.106 0
M  V30 5449 H 541.653 -2.1279 -5.32347 0
M  V30 5450 H 540.05 -2.91522 -5.24533 0
M  V30 5451 H 541.12 -2.97019 -3.83286 0
M  V30 5452 N 542.463 1.3308 -0.844243 0
M  V30 5453 C 543.426 2.27403 -0.286485 0
M  V30 5454 C 544.426 1.51179 0.547872 0
M  V30 5455 O 545.616 1.70421 0.360886 0
M  V30 5456 C 542.748 3.35653 0.595813 0
M  V30 5457 H 543.941 2.78248 -1.11885 0
M  V30 5458 H 541.494 1.43574 -0.617749 0
M  V30 5459 H 542.229 2.90058 1.4504 0
M  V30 5460 H 542.014 3.921 -0.00125994 0
M  V30 5461 H 543.504 4.05958 0.979168 0
M  V30 5462 N 543.941 0.601185 1.45683 0
M  V30 5463 C 544.851 -0.123395 2.34275 0
M  V30 5464 C 545.867 -0.86702 1.5086 0
M  V30 5465 O 547.043 -0.826049 1.8368 0
M  V30 5466 C 544.108 -1.11237 3.2837 0
M  V30 5467 C 543.169 -0.371405 4.2769 0
M  V30 5468 C 542.402 -1.31327 5.1729 0
M  V30 5469 O 542.625 -2.55078 5.10188 0
M  V30 5470 O 541.559 -0.813811 5.96373 0
M  V30 5471 H 545.385 0.604483 2.97623 0
M  V30 5472 H 542.97 0.361477 1.44961 0
M  V30 5473 H 544.852 -1.68214 3.8637 0
M  V30 5474 H 543.527 -1.82139 2.67595 0
M  V30 5475 H 542.434 0.24067 3.73325 0
M  V30 5476 H 543.767 0.296998 4.91303 0
M  V30 5477 N 545.419 -1.53889 0.339982 0
M  V30 5478 C 546.382 -2.23547 -0.50592 0
M  V30 5479 C 547.382 -1.23445 -1.03044 0
M  V30 5480 O 548.572 -1.47909 -0.920253 0
M  V30 5481 C 545.704 -2.95234 -1.7044 0
M  V30 5482 H 546.897 -2.99722 0.103247 0
M  V30 5483 H 544.45 -1.56033 0.0912804 0
M  V30 5484 H 545.185 -2.23236 -2.35236 0
M  V30 5485 H 544.97 -3.68654 -1.33553 0
M  V30 5486 H 546.46 -3.48258 -2.30447 0
M  V30 5487 N 546.897 -0.0685191 -1.57451 0
M  V30 5488 C 548.143 0.602239 -1.93652 0
M  V30 5489 C 548.476 1.6946 -0.948526 0
M  V30 5490 O 547.751 1.94487 0.022782 0
M  V30 5491 C 548.034 1.18223 -3.4014 0
M  V30 5492 C 547.887 0.0967431 -4.49696 0
M  V30 5493 C 549.206 2.08872 -3.87377 0
M  V30 5494 H 546.325 0.217453 -0.70419 0
M  V30 5495 H 548.967 -0.133821 -1.89528 0
M  V30 5496 H 547.117 1.80953 -3.43785 0
M  V30 5497 H 548.789 -0.536155 -4.58174 0
M  V30 5498 H 547.032 -0.573063 -4.29998 0
M  V30 5499 H 547.703 0.542894 -5.49324 0
M  V30 5500 H 550.179 1.56081 -3.85717 0
M  V30 5501 H 549.055 2.46389 -4.90493 0
M  V30 5502 H 549.316 2.99572 -3.25129 0
M  V30 5503 N 548.375 1.56261 0.205012 0
M  V30 5504 C 549.6 1.84491 0.947512 0
M  V30 5505 C 550.025 0.650894 1.76479 0
M  V30 5506 O 549.383 -0.40035 1.76824 0
M  V30 5507 C 549.431 3.10863 1.82747 0
M  V30 5508 O 548.535 2.90719 2.925 0
M  V30 5509 H 547.876 0.607783 0.267386 0
M  V30 5510 H 550.406 2.03485 0.213323 0
M  V30 5511 H 550.416 3.41399 2.23407 0
M  V30 5512 H 549.091 3.97392 1.2269 0
M  V30 5513 H 547.668 2.71457 2.55667 0
M  V30 5514 N 549.853 -0.472356 1.50355 0
M  V30 5515 C 551.102 -1.2213 1.60522 0
M  V30 5516 C 551.415 -1.9312 0.310466 0
M  V30 5517 O 552.621 -2.69936 0.291029 0
M  V30 5518 C 551.077 -2.21909 2.83345 0
M  V30 5519 C 550.685 -1.56727 4.19691 0
M  V30 5520 C 552.429 -2.97453 3.02856 0
M  V30 5521 C 550.336 -2.54785 5.33703 0
M  V30 5522 H 549.266 -0.459543 0.597776 0
M  V30 5523 H 551.917 -0.491922 1.76783 0
M  V30 5524 H 550.299 -2.98133 2.60639 0
M  V30 5525 H 551.473 -0.863007 4.52646 0
M  V30 5526 H 549.788 -0.934685 4.05774 0
M  V30 5527 H 552.385 -3.70838 3.85205 0
M  V30 5528 H 552.728 -3.56764 2.14534 0
M  V30 5529 H 553.261 -2.28342 3.25737 0
M  V30 5530 H 550 -2.00214 6.24175 0
M  V30 5531 H 549.52 -3.23367 5.05167 0
M  V30 5532 H 551.199 -3.16639 5.64224 0
M  V30 5533 N 551.331 -1.39911 -0.725443 0
M  V30 5534 C 552.577 -1.37858 -1.48738 0
M  V30 5535 C 552.91 0.0224187 -1.94187 0
M  V30 5536 O 552.185 0.989204 -1.67466 0
M  V30 5537 C 552.468 -2.3594 -2.72038 0
M  V30 5538 C 552.321 -3.85023 -2.32546 0
M  V30 5539 C 553.64 -2.31704 -3.74167 0
M  V30 5540 H 550.759 -0.502074 -0.539528 0
M  V30 5541 H 553.401 -1.70974 -0.828728 0
M  V30 5542 H 551.551 -2.0783 -3.28236 0
M  V30 5543 H 553.223 -4.2392 -1.81905 0
M  V30 5544 H 551.466 -4.01334 -1.64661 0
M  V30 5545 H 552.137 -4.49152 -3.20884 0
M  V30 5546 H 554.613 -2.5658 -3.27576 0
M  V30 5547 H 553.489 -3.02395 -4.58092 0
M  V30 5548 H 553.75 -1.3253 -4.21768 0
M  V30 5549 N 552.809 0.956637 -1.25245 0
M  V30 5550 C 553.739 2.07058 -1.07931 0
M  V30 5551 C 554.72 1.70096 0.0110361 0
M  V30 5552 O 555.905 1.93555 -0.158121 0
M  V30 5553 C 553.035 3.40272 -0.695124 0
M  V30 5554 C 551.989 3.91235 -1.73549 0
M  V30 5555 C 551.315 5.20921 -1.20604 0
M  V30 5556 C 552.615 4.17837 -3.13385 0
M  V30 5557 H 554.309 2.218 -2.01109 0
M  V30 5558 H 551.855 1.06581 -0.968326 0
M  V30 5559 H 553.808 4.1765 -0.560949 0
M  V30 5560 H 552.532 3.25462 0.272355 0
M  V30 5561 H 551.191 3.16025 -1.85807 0
M  V30 5562 H 550.839 5.02479 -0.228846 0
M  V30 5563 H 550.539 5.55987 -1.90136 0
M  V30 5564 H 552.063 6.00897 -1.08421 0
M  V30 5565 H 553.477 4.8588 -3.04292 0
M  V30 5566 H 551.874 4.64154 -3.80369 0
M  V30 5567 H 552.944 3.2419 -3.60595 0
M  V30 5568 N 554.287 1.06798 1.15896 0
M  V30 5569 C 555.25 0.687328 2.18651 0
M  V30 5570 C 556.25 -0.269559 1.58524 0
M  V30 5571 O 557.44 -0.0512627 1.74125 0
M  V30 5572 C 554.572 0.0121642 3.40898 0
M  V30 5573 H 555.765 1.59701 2.53842 0
M  V30 5574 H 553.318 0.863828 1.3026 0
M  V30 5575 H 554.053 -0.910025 3.1127 0
M  V30 5576 H 553.838 0.700309 3.85795 0
M  V30 5577 H 555.328 -0.239703 4.16911 0
M  V30 5578 N 555.766 -1.3263 0.851289 0
M  V30 5579 C 557.182 -1.50162 0.5407 0
M  V30 5580 C 557.382 -1.78788 -0.929369 0
M  V30 5581 O 556.438 -1.85545 -1.71258 0
M  V30 5582 C 557.751 -2.64803 1.42478 0
M  V30 5583 C 559.299 -2.78688 1.42485 0
M  V30 5584 C 559.774 -3.96405 2.29407 0
M  V30 5585 N 561.265 -4.0366 2.27184 0
M  V30 5586 C 562 -4.93971 2.9117 0
M  V30 5587 N 561.496 -5.89313 3.64256 0
M  V30 5588 N 563.289 -4.87066 2.80576 0
M  V30 5589 H 555.44 -1.12315 1.80275 0
M  V30 5590 H 557.703 -0.553266 0.769806 0
M  V30 5591 H 557.409 -2.50368 2.46999 0
M  V30 5592 H 557.283 -3.60506 1.10974 0
M  V30 5593 H 559.67 -2.92547 0.387304 0
M  V30 5594 H 559.751 -1.83708 1.78002 0
M  V30 5595 H 559.395 -3.83304 3.33228 0
M  V30 5596 H 559.325 -4.90654 1.91224 0
M  V30 5597 H 561.816 -3.35435 1.74045 0
M  V30 5598 H 562.129 -6.54913 4.10255 0
M  V30 5599 H 560.474 -5.8935 3.68364 0
M  V30 5600 H 563.665 -4.11552 2.23031 0
M  V30 5601 H 563.838 -5.57248 3.30725 0
M  V30 5602 N 557.244 -0.608902 -1.45362 0
M  V30 5603 C 558.472 -0.111013 -2.06602 0
M  V30 5604 C 558.887 1.20516 -1.45332 0
M  V30 5605 O 558.244 1.73437 -0.567978 0
M  V30 5606 C 558.295 0.033688 -3.61484 0
M  V30 5607 O 558.016 -1.23041 -4.20467 0
M  V30 5608 C 559.517 0.562882 -4.39712 0
M  V30 5609 H 556.737 -0.0694453 -0.667397 0
M  V30 5610 H 559.281 -0.837008 -1.86586 0
M  V30 5611 H 557.436 0.710016 -3.80838 0
M  V30 5612 H 557.85 -1.06094 -5.13658 0
M  V30 5613 H 559.324 0.613213 -5.48583 0
M  V30 5614 H 559.801 1.58543 -4.09586 0
M  V30 5615 H 560.407 -0.0794454 -4.25226 0
M  V30 5616 N 558.722 1.53707 -0.348139 0
M  V30 5617 C 559.652 2.28111 0.498766 0
M  V30 5618 C 560.633 1.29851 1.09876 0
M  V30 5619 O 561.818 1.587 1.11928 0
M  V30 5620 C 558.948 3.05735 1.64753 0
M  V30 5621 C 557.902 4.11537 1.17565 0
M  V30 5622 C 557.228 4.77142 2.4133 0
M  V30 5623 C 558.528 5.21587 0.272844 0
M  V30 5624 H 560.222 2.99152 -0.121934 0
M  V30 5625 H 557.768 1.43875 -0.0600842 0
M  V30 5626 H 559.721 3.56526 2.24649 0
M  V30 5627 H 558.445 2.32354 2.2952 0
M  V30 5628 H 557.104 3.61665 0.599483 0
M  V30 5629 H 556.752 4.0035 3.04514 0
M  V30 5630 H 556.452 5.48626 2.10436 0
M  V30 5631 H 557.976 5.30719 3.01943 0
M  V30 5632 H 559.39 5.67986 0.778779 0
M  V30 5633 H 557.787 6.00074 0.0555849 0
M  V30 5634 H 558.857 4.79969 -0.689785 0
M  V30 5635 N 560.2 0.0768682 1.57412 0
M  V30 5636 C 561.448 -0.589918 1.93299 0
M  V30 5637 C 561.769 -1.69842 0.958049 0
M  V30 5638 O 561.039 -1.95899 0.00703261 0
M  V30 5639 H 559.619 -0.220901 0.713591 0
M  V30 5640 H 562.281 0.135917 1.94425 0
M  V30 5641 H 561.377 -1.01195 2.95239 0
M  V30 5642 N 561.678 -1.56367 -0.196722 0
M  V30 5643 C 563.094 -1.49916 -0.54749 0
M  V30 5644 C 563.294 -0.77659 -1.85934 0
M  V30 5645 O 562.35 -0.32644 -2.50381 0
M  V30 5646 C 563.663 -2.94577 -0.603734 0
M  V30 5647 C 565.211 -3.05239 -0.692677 0
M  V30 5648 C 565.686 -4.51308 -0.780046 0
M  V30 5649 N 567.177 -4.55453 -0.843616 0
M  V30 5650 C 567.912 -5.65786 -0.931358 0
M  V30 5651 N 567.408 -6.85812 -0.981503 0
M  V30 5652 N 569.201 -5.53695 -0.968421 0
M  V30 5653 H 561.352 -2.01761 0.663803 0
M  V30 5654 H 563.615 -0.918094 0.236238 0
M  V30 5655 H 563.321 -3.50494 0.29105 0
M  V30 5656 H 563.195 -3.47841 -1.45898 0
M  V30 5657 H 565.582 -2.49372 -1.57789 0
M  V30 5658 H 565.663 -2.55103 0.188736 0
M  V30 5659 H 565.307 -5.078 0.100811 0
M  V30 5660 H 565.237 -4.99176 -1.67724 0
M  V30 5661 H 567.728 -3.69025 -0.814176 0
M  V30 5662 H 568.041 -7.65648 -1.04892 0
M  V30 5663 H 566.386 -6.88474 -0.950208 0
M  V30 5664 H 569.577 -4.58848 -0.926072 0
M  V30 5665 H 569.75 -6.39708 -1.03334 0
M  V30 5666 N 563.156 0.464375 -1.50603 0
M  V30 5667 C 564.433 1.22549 -1.5245 0
M  V30 5668 C 564.813 2.09327 -0.273035 0
M  V30 5669 O 564.161 2.16074 0.743242 0
M  V30 5670 C 564.371 2.05074 -2.82393 0
M  V30 5671 C 565.719 2.63036 -3.33313 0
M  V30 5672 O 566.743 2.1531 -2.8376 0
M  V30 5673 O 565.602 3.5001 -4.19709 0
M  V30 5674 H 562.696 0.556471 -0.611775 0
M  V30 5675 H 565.242 0.475648 -1.62898 0
M  V30 5676 H 564.014 1.41169 -3.64948 0
M  V30 5677 H 563.637 2.87179 -2.7498 0
M  V30 5678 N 564.634 1.40294 0.718013 0
M  V30 5679 C 566.05 1.2227 1.02577 0
M  V30 5680 C 566.25 0.0961976 2.0127 0
M  V30 5681 O 565.306 -0.546695 2.46511 0
M  V30 5682 C 566.619 2.56348 1.57182 0
M  V30 5683 C 568.167 2.6334 1.69178 0
M  V30 5684 C 568.642 3.9768 2.27188 0
M  V30 5685 N 570.133 3.99409 2.34578 0
M  V30 5686 C 570.868 5.00141 2.8044 0
M  V30 5687 N 570.364 6.11268 3.26073 0
M  V30 5688 N 572.157 4.87511 2.79802 0
M  V30 5689 H 564.308 2.12304 0.0637899 0
M  V30 5690 H 566.571 0.943632 0.0909036 0
M  V30 5691 H 566.277 3.3942 0.921262 0
M  V30 5692 H 566.151 2.77266 2.55741 0
M  V30 5693 H 568.538 1.80641 2.33351 0
M  V30 5694 H 568.619 2.46255 0.692247 0
M  V30 5695 H 568.263 4.80817 1.63638 0
M  V30 5696 H 568.193 4.12093 3.27852 0
M  V30 5697 H 570.684 3.19162 2.02346 0
M  V30 5698 H 570.997 6.84023 3.59628 0
M  V30 5699 H 569.342 6.14837 3.24038 0
M  V30 5700 H 572.533 3.9979 2.43487 0
M  V30 5701 H 572.706 5.66158 3.15228 0
M  V30 5702 N 566.112 -0.949982 1.2575 0
M  V30 5703 C 567.075 -2.02894 1.06615 0
M  V30 5704 C 568.075 -1.60791 0.0173905 0
M  V30 5705 O 569.265 -1.72249 0.260003 0
M  V30 5706 C 566.397 -3.35219 0.619751 0
M  V30 5707 H 567.59 -2.21302 2.02399 0
M  V30 5708 H 565.143 -1.12772 1.08223 0
M  V30 5709 H 565.878 -3.22508 -0.340486 0
M  V30 5710 H 565.663 -3.67129 1.37692 0
M  V30 5711 H 567.153 -4.14505 0.507443 0
M  V30 5712 N 567.59 -1.07411 -1.15328 0
M  V30 5713 C 568.54 -0.664788 -2.18093 0
M  V30 5714 C 569.524 0.310395 -1.57878 0
M  V30 5715 O 570.716 0.124026 -1.76565 0
M  V30 5716 C 567.845 -0.0647822 -3.43239 0
M  V30 5717 C 566.931 -1.06514 -4.10506 0
M  V30 5718 N 567.322 -2.24491 -4.53252 0
M  V30 5719 C 565.62 -0.898613 -4.36853 0
M  V30 5720 C 566.321 -2.8796 -5.05424 0
M  V30 5721 N 565.297 -2.15622 -4.99007 0
M  V30 5722 H 569.099 -1.56333 -2.48872 0
M  V30 5723 H 566.613 -0.947393 -1.31902 0
M  V30 5724 H 568.61 0.246363 -4.16171 0
M  V30 5725 H 567.27 0.828866 -3.13943 0
M  V30 5726 H 568.281 -2.62205 -4.46619 0
M  V30 5727 H 564.958 -0.0579118 -4.1746 0
M  V30 5728 H 566.348 -3.88137 -5.48452 0
M  V30 5729 N 569.068 1.32177 -0.85831 0
M  V30 5730 C 570.018 2.26307 -0.277307 0
M  V30 5731 C 571.002 1.50123 0.578946 0
M  V30 5732 O 572.194 1.71754 0.427731 0
M  V30 5733 C 569.323 3.39181 0.530232 0
M  V30 5734 C 568.409 4.22746 -0.338613 0
M  V30 5735 N 568.8 4.85265 -1.4266 0
M  V30 5736 C 567.098 4.45813 -0.129 0
M  V30 5737 C 567.799 5.47634 -1.96142 0
M  V30 5738 N 566.775 5.28794 -1.26007 0
M  V30 5739 H 570.577 2.72173 -1.10902 0
M  V30 5740 H 568.091 1.46308 -0.704816 0
M  V30 5741 H 570.088 4.05628 0.962904 0
M  V30 5742 H 568.748 2.9486 1.35969 0
M  V30 5743 H 569.759 4.85259 -1.80953 0
M  V30 5744 H 566.436 4.12163 0.665451 0
M  V30 5745 H 567.826 6.0735 -2.8736 0
M  V30 5746 N 570.547 0.616602 1.45037 0
M  V30 5747 C 571.477 -0.0840787 2.33349 0
M  V30 5748 C 572.458 -0.849641 1.4736 0
M  V30 5749 O 573.643 -0.818407 1.76113 0
M  V30 5750 C 570.773 -1.07604 3.3021 0
M  V30 5751 C 569.727 -0.423096 4.25904 0
M  V30 5752 C 569.053 -1.52394 5.12523 0
M  V30 5753 C 570.353 0.661457 5.18095 0
M  V30 5754 H 572.047 0.653333 2.92185 0
M  V30 5755 H 569.593 0.315634 1.40498 0
M  V30 5756 H 571.546 -1.57485 3.90866 0
M  V30 5757 H 570.27 -1.84416 2.69552 0
M  V30 5758 H 568.929 0.05493 3.66559 0
M  V30 5759 H 568.577 -2.28257 4.48227 0
M  V30 5760 H 568.277 -1.09251 5.77354 0
M  V30 5761 H 569.801 -2.02485 5.76049 0
M  V30 5762 H 571.215 0.246353 5.7277 0
M  V30 5763 H 569.612 1.01517 5.91451 0
M  V30 5764 H 570.682 1.53446 4.59981 0
M  V30 5765 N 572.025 -1.5352 0.356285 0
M  V30 5766 C 572.955 -2.28372 -0.486661 0
M  V30 5767 C 573.936 -1.30432 -1.09185 0
M  V30 5768 O 575.121 -1.59291 -1.11085 0
M  V30 5769 C 572.251 -3.06604 -1.63129 0
M  V30 5770 C 571.205 -4.12154 -1.15381 0
M  V30 5771 C 570.531 -4.78415 -2.38796 0
M  V30 5772 C 571.831 -5.21724 -0.245179 0
M  V30 5773 H 573.525 -2.99083 0.137797 0
M  V30 5774 H 571.071 -1.43841 0.0677134 0
M  V30 5775 H 573.024 -3.57712 -2.22755 0
M  V30 5776 H 571.748 -2.33568 -2.28284 0
M  V30 5777 H 570.407 -3.61978 -0.580294 0
M  V30 5778 H 570.055 -4.01959 -3.02387 0
M  V30 5779 H 569.755 -5.49734 -2.07524 0
M  V30 5780 H 571.279 -5.32313 -2.99125 0
M  V30 5781 H 572.693 -5.68391 -0.748646 0
M  V30 5782 H 571.09 -6.00095 -0.0237608 0
M  V30 5783 H 572.16 -4.79596 0.715229 0
M  V30 5784 N 573.503 -0.0852151 -1.57369 0
M  V30 5785 C 574.413 0.891712 -2.16992 0
M  V30 5786 C 575.429 1.3174 -1.13669 0
M  V30 5787 O 576.605 1.38735 -1.45995 0
M  V30 5788 C 573.67 2.13635 -2.73059 0
M  V30 5789 C 572.731 1.7658 -3.91303 0
M  V30 5790 C 571.964 2.95111 -4.44686 0
M  V30 5791 O 572.187 4.09539 -3.97032 0
M  V30 5792 O 571.121 2.74149 -5.35841 0
M  V30 5793 H 574.947 0.414477 -3.00858 0
M  V30 5794 H 572.532 0.138598 -1.48756 0
M  V30 5795 H 574.414 2.86595 -3.08935 0
M  V30 5796 H 573.089 2.6043 -1.92244 0
M  V30 5797 H 571.996 1.00831 -3.60255 0
M  V30 5798 H 573.329 1.34557 -4.7345 0
M  V30 5799 N 574.981 1.5647 0.188427 0
M  V30 5800 C 575.913 1.91611 1.25769 0
M  V30 5801 C 576.926 0.807436 1.41366 0
M  V30 5802 O 578.115 1.08586 1.41673 0
M  V30 5803 C 575.215 2.13874 2.6289 0
M  V30 5804 C 574.388 3.45047 2.68815 0
M  V30 5805 C 573.447 3.56342 3.87178 0
M  V30 5806 O 572.473 4.29109 3.73971 0
M  V30 5807 N 573.675 2.89924 5.02916 0
M  V30 5808 H 576.44 2.8393 0.959373 0
M  V30 5809 H 574.001 1.57418 0.378306 0
M  V30 5810 H 575.993 2.18713 3.4051 0
M  V30 5811 H 574.563 1.28022 2.85183 0
M  V30 5812 H 573.783 3.52017 1.77419 0
M  V30 5813 H 575.071 4.31395 2.6977 0
M  V30 5814 H 574.469 2.30644 5.16546 0
M  V30 5815 H 573.026 3.0038 5.78459 0
M  V30 5816 N 576.459 -0.456382 1.50847 0
M  V30 5817 C 577.699 -1.21704 1.64218 0
M  V30 5818 C 578.063 -1.88932 0.341859 0
M  V30 5819 O 579.264 -2.66497 0.351137 0
M  V30 5820 C 577.535 -2.22162 2.79962 0
M  V30 5821 S 579.094 -3.0697 3.13552 0
M  V30 5822 H 575.912 -0.412995 0.578754 0
M  V30 5823 H 578.514 -0.511637 1.88686 0
M  V30 5824 H 577.218 -1.71379 3.72904 0
M  V30 5825 H 576.749 -2.9731 2.57624 0
M  V30 5826 H 578.764 -4.23539 2.58513 0
M  V30 5827 N 577.937 -1.40673 -0.710563 0
M  V30 5828 C 579.177 -1.40677 -1.48288 0
M  V30 5829 C 579.541 -0.0097193 -1.91998 0
M  V30 5830 O 580.742 0.115381 -2.68552 0
M  V30 5831 C 579.013 -2.37289 -2.67262 0
M  V30 5832 S 580.572 -2.55694 -3.56603 0
M  V30 5833 H 577.39 -0.498545 -0.506926 0
M  V30 5834 H 579.992 -1.76984 -0.830472 0
M  V30 5835 H 578.696 -3.37617 -2.3333 0
M  V30 5836 H 578.227 -2.02282 -3.3741 0
M  V30 5837 H 580.242 -1.81311 -4.61888 0
M  V30 5838 N 579.415 0.9433 -1.26252 0
M  V30 5839 C 580.347 2.04542 -1.03417 0
M  V30 5840 C 581.36 1.62799 0.0046911 0
M  V30 5841 O 582.549 1.76944 -0.235146 0
M  V30 5842 C 579.649 3.34511 -0.543671 0
M  V30 5843 C 578.822 4.05033 -1.65128 0
M  V30 5844 C 577.881 5.13273 -1.1592 0
M  V30 5845 O 576.907 5.38095 -1.85586 0
M  V30 5846 N 578.109 5.805 -0.00649279 0
M  V30 5847 H 580.874 2.24699 -1.98319 0
M  V30 5848 H 578.435 1.11264 -1.1761 0
M  V30 5849 H 580.427 4.04212 -0.198703 0
M  V30 5850 H 578.997 3.11042 0.311711 0
M  V30 5851 H 578.217 3.29275 -2.16729 0
M  V30 5852 H 579.505 4.48903 -2.39508 0
M  V30 5853 H 578.903 5.62767 0.575347 0
M  V30 5854 H 577.46 6.51201 0.279416 0
M  V30 5855 N 580.893 1.08022 1.14757 0
M  V30 5856 C 582.309 0.807072 1.3769 0
M  V30 5857 C 582.509 -0.585504 1.92806 0
M  V30 5858 O 581.565 -1.34301 2.13821 0
M  V30 5859 C 582.878 1.88651 2.34161 0
M  V30 5860 C 584.426 1.91206 2.47809 0
M  V30 5861 C 584.901 2.98253 3.47576 0
M  V30 5862 N 586.392 2.974 3.55117 0
M  V30 5863 C 587.127 3.76872 4.32152 0
M  V30 5864 N 586.623 4.66212 5.12463 0
M  V30 5865 N 588.416 3.6519 4.27309 0
M  V30 5866 H 580.567 1.97824 0.77326 0
M  V30 5867 H 582.83 0.85826 0.402608 0
M  V30 5868 H 582.536 2.88749 2.00791 0
M  V30 5869 H 582.41 1.75244 3.3402 0
M  V30 5870 H 584.797 0.917564 2.80472 0
M  V30 5871 H 584.878 2.08691 1.47925 0
M  V30 5872 H 584.522 3.97907 3.15646 0
M  V30 5873 H 584.452 2.78014 4.47231 0
M  V30 5874 H 586.943 2.32643 2.97801 0
M  V30 5875 H 587.256 5.23468 5.68508 0
M  V30 5876 H 585.601 4.70257 5.11745 0
M  V30 5877 H 588.792 2.94765 3.63636 0
M  V30 5878 H 588.965 4.27366 4.87095 0
M  V30 5879 N 582.371 -1.3172 0.865308 0
M  V30 5880 C 583.334 -2.26918 0.322627 0
M  V30 5881 C 584.334 -1.52031 -0.523751 0
M  V30 5882 O 585.524 -1.70973 -0.333727 0
M  V30 5883 C 582.656 -3.36558 -0.542338 0
M  V30 5884 H 583.849 -2.76432 1.16298 0
M  V30 5885 H 581.402 -1.42573 0.640512 0
M  V30 5886 H 582.137 -2.92329 -1.40407 0
M  V30 5887 H 581.922 -3.92048 0.0636395 0
M  V30 5888 H 583.412 -4.07465 -0.91446 0
M  V30 5889 N 583.85 -0.624285 -1.44708 0
M  V30 5890 C 585.096 -0.126237 -2.02407 0
M  V30 5891 C 585.428 1.24618 -1.48943 0
M  V30 5892 O 584.704 1.82569 -0.670742 0
M  V30 5893 C 584.986 -0.105449 -3.59946 0
M  V30 5894 C 584.84 -1.50972 -4.23707 0
M  V30 5895 C 586.159 0.573629 -4.36346 0
M  V30 5896 H 583.278 -0.0473472 -0.735478 0
M  V30 5897 H 585.92 -0.799452 -1.72362 0
M  V30 5898 H 584.07 0.46783 -3.85673 0
M  V30 5899 H 585.742 -2.13136 -4.0911 0
M  V30 5900 H 583.985 -2.0656 -3.81465 0
M  V30 5901 H 584.656 -1.44727 -5.32689 0
M  V30 5902 H 587.132 0.0861787 -4.16011 0
M  V30 5903 H 586.008 0.557338 -5.46063 0
M  V30 5904 H 586.269 1.64276 -4.10446 0
M  V30 5905 N 585.328 1.53329 -0.364422 0
M  V30 5906 C 586.291 2.24323 0.470292 0
M  V30 5907 C 587.291 1.25068 1.01067 0
M  V30 5908 O 588.481 1.49354 0.896605 0
M  V30 5909 C 585.613 2.97908 1.65722 0
M  V30 5910 H 586.806 2.9952 -0.150917 0
M  V30 5911 H 584.359 1.55868 -0.116092 0
M  V30 5912 H 585.094 2.2695 2.31655 0
M  V30 5913 H 584.879 3.70732 1.27671 0
M  V30 5914 H 586.369 3.5188 2.24878 0
M  V30 5915 N 586.806 0.0935595 1.57322 0
M  V30 5916 C 587.716 -0.880192 2.17462 0
M  V30 5917 C 588.732 -1.31135 1.14366 0
M  V30 5918 O 589.908 -1.37958 1.46729 0
M  V30 5919 C 586.973 -2.12184 2.74188 0
M  V30 5920 C 586.034 -1.74503 3.92234 0
M  V30 5921 C 585.267 -2.92748 4.46245 0
M  V30 5922 O 585.49 -4.07427 3.99198 0
M  V30 5923 O 584.424 -2.71303 5.37288 0
M  V30 5924 H 588.25 -0.398516 3.01074 0
M  V30 5925 H 585.835 -0.130707 1.48827 0
M  V30 5926 H 587.717 -2.84953 3.10451 0
M  V30 5927 H 586.392 -2.59407 1.93623 0
M  V30 5928 H 585.299 -0.989186 3.60785 0
M  V30 5929 H 586.632 -1.32044 4.74157 0
M  V30 5930 N 588.284 -1.56567 -0.180126 0
M  V30 5931 C 589.216 -1.92275 -1.24751 0
M  V30 5932 C 590.229 -0.814922 -1.40936 0
M  V30 5933 O 591.418 -1.09336 -1.41095 0
M  V30 5934 C 588.518 -2.15265 -2.61752 0
M  V30 5935 C 587.691 -3.46467 -2.66981 0
M  V30 5936 C 586.75 -3.58391 -3.85283 0
M  V30 5937 O 585.776 -4.31086 -3.7169 0
M  V30 5938 N 586.978 -2.92587 -5.01371 0
M  V30 5939 H 589.743 -2.84435 -0.944302 0
M  V30 5940 H 587.304 -1.57617 -0.369952 0
M  V30 5941 H 589.296 -2.20515 -3.39345 0
M  V30 5942 H 587.866 -1.29533 -2.845 0
M  V30 5943 H 587.086 -3.52953 -1.75549 0
M  V30 5944 H 588.374 -4.32819 -2.67479 0
M  V30 5945 H 587.772 -2.3338 -5.15316 0
M  V30 5946 H 586.329 -3.03444 -5.76858 0
M  V30 5947 N 589.762 0.448376 -1.51087 0
M  V30 5948 C 591.178 0.783984 -1.39017 0
M  V30 5949 C 591.378 1.96087 -0.463904 0
M  V30 5950 O 590.434 2.52357 0.0850534 0
M  V30 5951 C 591.747 1.07471 -2.80839 0
M  V30 5952 C 593.295 1.17981 -2.89913 0
M  V30 5953 C 593.77 1.50354 -4.32617 0
M  V30 5954 N 595.261 1.57301 -4.35673 0
M  V30 5955 C 595.996 1.839 -5.4311 0
M  V30 5956 N 595.492 2.08365 -6.60724 0
M  V30 5957 N 597.285 1.8559 -5.30578 0
M  V30 5958 H 589.436 -0.326881 -2.0987 0
M  V30 5959 H 591.699 -0.0838006 -0.944289 0
M  V30 5960 H 591.405 0.282768 -3.50561 0
M  V30 5961 H 591.279 2.00519 -3.19487 0
M  V30 5962 H 593.666 1.9624 -2.20395 0
M  V30 5963 H 593.747 0.228603 -2.54776 0
M  V30 5964 H 593.391 0.726273 -5.0268 0
M  V30 5965 H 593.321 2.46663 -4.65258 0
M  V30 5966 H 595.812 1.40342 -3.50874 0
M  V30 5967 H 596.125 2.27999 -7.38401 0
M  V30 5968 H 594.47 2.0571 -6.63859 0
M  V30 5969 H 597.661 1.65989 -4.37682 0
M  V30 5970 H 597.834 2.05983 -6.1439 0
M  V30 5971 N 591.24 1.41047 0.703093 0
M  V30 5972 C 592.19 1.38774 1.80903 0
M  V30 5973 C 593.174 0.263275 1.58731 0
M  V30 5974 O 594.366 0.503362 1.69692 0
M  V30 5975 C 591.495 1.26497 3.19145 0
M  V30 5976 C 590.581 2.43775 3.47037 0
M  V30 5977 N 590.972 3.69249 3.45672 0
M  V30 5978 C 589.27 2.37425 3.77552 0
M  V30 5979 C 589.971 4.46989 3.72258 0
M  V30 5980 N 588.947 3.76998 3.91629 0
M  V30 5981 H 592.749 2.33714 1.78199 0
M  V30 5982 H 590.263 1.34996 0.902762 0
M  V30 5983 H 592.26 1.2295 3.98358 0
M  V30 5984 H 590.92 0.32534 3.23066 0
M  V30 5985 H 591.931 4.02239 3.26228 0
M  V30 5986 H 588.608 1.51895 3.88888 0
M  V30 5987 H 589.998 5.55894 3.77402 0
M  V30 5988 N 592.718 -0.936591 1.26751 0
M  V30 5989 C 593.648 -2.05315 1.11212 0
M  V30 5990 C 594.629 -1.70092 0.0160262 0
M  V30 5991 O 595.814 -1.93279 0.188894 0
M  V30 5992 C 592.944 -3.39123 0.749171 0
M  V30 5993 C 591.898 -3.88425 1.79751 0
M  V30 5994 C 591.224 -5.18936 1.28876 0
M  V30 5995 C 592.524 -4.12798 3.19992 0
M  V30 5996 H 594.218 -2.18573 2.04613 0
M  V30 5997 H 591.764 -1.05027 0.985159 0
M  V30 5998 H 593.717 -4.16704 0.627323 0
M  V30 5999 H 592.441 -3.25855 -0.220543 0
M  V30 6000 H 591.1 -3.13028 1.90811 0
M  V30 6001 H 590.748 -5.02051 0.308757 0
M  V30 6002 H 590.448 -5.52892 1.98958 0
M  V30 6003 H 591.972 -5.99096 1.17967 0
M  V30 6004 H 593.386 -4.80977 3.11983 0
M  V30 6005 H 591.783 -4.58044 3.87705 0
M  V30 6006 H 592.853 -3.18412 3.65707 0
M  V30 6007 N 594.196 -1.08629 -1.14182 0
M  V30 6008 C 595.612 -0.814363 -1.3726 0
M  V30 6009 C 595.812 0.575271 -1.93114 0
M  V30 6010 O 594.868 1.33165 -2.1453 0
M  V30 6011 C 596.181 -1.8989 -2.33157 0
M  V30 6012 C 597.729 -1.92518 -2.46791 0
M  V30 6013 C 598.204 -3.00092 -3.45989 0
M  V30 6014 N 599.695 -2.99279 -3.53534 0
M  V30 6015 C 600.43 -3.79158 -4.30147 0
M  V30 6016 N 599.926 -4.68923 -5.09983 0
M  V30 6017 N 601.719 -3.67451 -4.25366 0
M  V30 6018 H 593.87 -1.98232 -0.762758 0
M  V30 6019 H 596.133 -0.860383 -0.398051 0
M  V30 6020 H 595.839 -2.89809 -1.99257 0
M  V30 6021 H 595.713 -1.77013 -3.33086 0
M  V30 6022 H 598.1 -0.932425 -2.79982 0
M  V30 6023 H 598.181 -2.09473 -1.46816 0
M  V30 6024 H 597.825 -3.99575 -3.13532 0
M  V30 6025 H 597.755 -2.80382 -4.45751 0
M  V30 6026 H 600.246 -2.3422 -2.96563 0
M  V30 6027 H 600.559 -5.26475 -5.65724 0
M  V30 6028 H 598.904 -4.72964 -5.09244 0
M  V30 6029 H 602.095 -2.9669 -3.62067 0
M  V30 6030 H 602.268 -4.29944 -4.84822 0
M  V30 6031 N 595.674 1.31259 -0.872281 0
M  V30 6032 C 596.637 2.26744 -0.334656 0
M  V30 6033 C 597.637 1.52307 0.515681 0
M  V30 6034 O 598.827 1.71148 0.324656 0
M  V30 6035 C 595.959 3.36841 0.524482 0
M  V30 6036 H 597.152 2.75812 -1.17762 0
M  V30 6037 H 594.705 1.42232 -0.648064 0
M  V30 6038 H 595.44 2.93069 1.38855 0
M  V30 6039 H 595.225 3.92009 -0.0844299 0
M  V30 6040 H 596.715 4.07944 0.892838 0
M  V30 6041 N 597.152 0.631951 1.44375 0
M  V30 6042 C 598.398 0.13697 2.02337 0
M  V30 6043 C 598.731 -1.23826 1.49602 0
M  V30 6044 O 598.006 -1.8221 0.680415 0
M  V30 6045 C 598.289 0.124536 3.59885 0
M  V30 6046 C 598.142 1.53217 4.229 0
M  V30 6047 C 599.461 -0.550481 4.36644 0
M  V30 6048 H 596.58 0.051247 0.735216 0
M  V30 6049 H 599.222 0.808581 1.71936 0
M  V30 6050 H 597.372 -0.44737 3.85916 0
M  V30 6051 H 599.044 2.15303 4.07973 0
M  V30 6052 H 597.287 2.0858 3.80364 0
M  V30 6053 H 597.958 1.4755 5.31914 0
M  V30 6054 H 600.434 -0.0641154 4.16051 0
M  V30 6055 H 599.31 -0.528371 5.46351 0
M  V30 6056 H 599.571 -1.62097 4.11311 0
M  V30 6057 N 598.631 -1.53133 0.372548 0
M  V30 6058 C 599.561 -2.28876 -0.462412 0
M  V30 6059 C 600.542 -1.31583 -1.07796 0
M  V30 6060 O 601.727 -1.60461 -1.09389 0
M  V30 6061 C 598.857 -3.08317 -1.59868 0
M  V30 6062 C 597.811 -4.13355 -1.11003 0
M  V30 6063 C 597.137 -4.8092 -2.33708 0
M  V30 6064 C 598.437 -5.21955 -0.18983 0
M  V30 6065 H 600.131 -2.9892 0.169511 0
M  V30 6066 H 597.677 -1.43761 0.0829658 0
M  V30 6067 H 599.63 -3.60055 -2.18949 0
M  V30 6068 H 598.354 -2.35976 -2.25794 0
M  V30 6069 H 597.013 -3.62573 -0.541869 0
M  V30 6070 H 596.661 -4.05144 -2.98106 0
M  V30 6071 H 596.361 -5.51904 -2.01682 0
M  V30 6072 H 597.885 -5.35455 -2.93462 0
M  V30 6073 H 599.299 -5.69153 -0.688319 0
M  V30 6074 H 597.696 -6.00087 0.0398887 0
M  V30 6075 H 598.766 -4.78811 0.766057 0
M  V30 6076 N 600.109 -0.101901 -1.5727 0
M  V30 6077 C 601.357 0.559091 -1.94213 0
M  V30 6078 C 601.678 1.68297 -0.984948 0
M  V30 6079 O 600.948 1.95863 -0.0381975 0
M  V30 6080 H 599.528 0.20952 -0.717015 0
M  V30 6081 H 602.19 -0.166831 -1.94185 0
M  V30 6082 H 601.286 0.96485 -2.96811 0
M  V30 6083 N 601.587 1.56661 0.17182 0
M  V30 6084 C 602.864 1.72838 0.915778 0
M  V30 6085 C 603.244 0.66316 2.00413 0
M  V30 6086 O 602.592 -0.322123 2.26218 0
M  V30 6087 C 602.802 3.16019 1.48097 0
M  V30 6088 C 604.15 3.76962 1.95408 0
M  V30 6089 O 605.174 3.19294 1.57892 0
M  V30 6090 O 604.033 4.78219 2.64516 0
M  V30 6091 H 601.127 0.705797 0.431021 0
M  V30 6092 H 603.673 1.68947 0.159689 0
M  V30 6093 H 602.445 3.85031 0.697618 0
M  V30 6094 H 602.068 3.24234 2.30126 0
M  V30 6095 N 603.065 -0.440357 1.51323 0
M  V30 6096 C 604.342 -1.20109 1.5438 0
M  V30 6097 C 604.722 -2.08866 0.306303 0
M  V30 6098 O 604.07 -2.1723 -0.708773 0
M  V30 6099 C 604.28 -2.00555 2.8562 0
M  V30 6100 C 605.628 -2.577 3.37455 0
M  V30 6101 O 606.652 -2.10769 2.8715 0
M  V30 6102 O 605.511 -3.43289 4.25224 0
M  V30 6103 H 602.605 -0.546668 0.620551 0
M  V30 6104 H 605.151 -0.449672 1.63634 0
M  V30 6105 H 603.923 -1.35346 3.67147 0
M  V30 6106 H 603.546 -2.82768 2.79514 0
M  V30 6107 N 604.543 -1.41418 -0.695603 0
M  V30 6108 C 605.954 -1.36335 -1.27552 0
M  V30 6109 C 606.305 -0.0464336 -1.96145 0
M  V30 6110 O 605.43 0.855304 -1.9878 0
M  V30 6111 C 606.025 -2.46941 -2.3196 0
M  V30 6112 C 604.584 -2.45256 -2.85529 0
M  V30 6113 C 603.731 -2.2679 -1.59566 0
M  V30 6114 H 606.682 -1.50934 -0.490362 0
M  V30 6115 H 606.703 -2.15997 -3.1325 0
M  V30 6116 H 606.215 -3.42775 -1.82008 0
M  V30 6117 H 604.316 -1.53179 -3.39657 0
M  V30 6118 H 604.429 -3.41565 -3.35961 0
M  V30 6119 H 602.793 -1.74667 -1.85374 0
M  V30 6120 H 603.576 -3.24651 -1.1161 0
M  V30 6121 N 606.021 0.929856 -1.27246 0
M  V30 6122 C 606.953 2.03434 -1.0558 0
M  V30 6123 C 607.966 1.62795 -0.0125762 0
M  V30 6124 O 609.155 1.76685 -0.2539 0
M  V30 6125 C 606.255 3.33915 -0.57912 0
M  V30 6126 C 605.428 4.03259 -1.69415 0
M  V30 6127 C 604.487 5.12014 -1.21357 0
M  V30 6128 O 603.513 5.36097 -1.91282 0
M  V30 6129 N 604.715 5.8046 -0.0680622 0
M  V30 6130 H 607.48 2.22583 -2.00691 0
M  V30 6131 H 605.041 1.1001 -1.18783 0
M  V30 6132 H 607.033 4.03978 -0.241563 0
M  V30 6133 H 605.603 3.11355 0.278703 0
M  V30 6134 H 604.823 3.26958 -2.20209 0
M  V30 6135 H 606.111 4.46337 -2.44255 0
M  V30 6136 H 605.509 5.63345 0.515626 0
M  V30 6137 H 604.066 6.51461 0.210332 0
M  V30 6138 N 607.499 1.09233 1.13605 0
M  V30 6139 C 608.745 0.828385 1.8511 0
M  V30 6140 C 609.078 -0.64437 1.83198 0
M  V30 6141 O 608.353 -1.47428 1.26867 0
M  V30 6142 C 608.636 1.36167 3.33363 0
M  V30 6143 C 608.489 2.90038 3.438 0
M  V30 6144 C 609.808 0.993819 4.28732 0
M  V30 6145 H 606.927 0.30239 0.672108 0
M  V30 6146 H 609.569 1.35339 1.33355 0
M  V30 6147 H 607.719 0.9151 3.77569 0
M  V30 6148 H 609.391 3.43128 3.08319 0
M  V30 6149 H 607.634 3.27271 2.84739 0
M  V30 6150 H 608.305 3.22428 4.48045 0
M  V30 6151 H 610.781 1.37893 3.92587 0
M  V30 6152 H 609.657 1.39403 5.30903 0
M  V30 6153 H 609.918 -0.0982206 4.41991 0
M  V30 6154 N 608.977 -1.30795 0.87923 0
M  V30 6155 C 610.202 -2.01063 0.508769 0
M  V30 6156 C 610.627 -1.65508 -0.893803 0
M  V30 6157 O 609.985 -0.868616 -1.59138 0
M  V30 6158 C 610.033 -3.54054 0.683991 0
M  V30 6159 O 609.137 -4.11498 -0.272654 0
M  V30 6160 H 608.478 -0.632786 0.201191 0
M  V30 6161 H 611.008 -1.66776 1.18519 0
M  V30 6162 H 611.018 -4.03845 0.580798 0
M  V30 6163 H 609.693 -3.79271 1.70665 0
M  V30 6164 H 608.27 -3.72695 -0.12364 0
M  V30 6165 N 610.455 -0.639598 -1.44038 0
M  V30 6166 C 611.418 0.0506628 -2.29144 0
M  V30 6167 C 612.418 0.764001 -1.41491 0
M  V30 6168 O 613.608 0.607309 -1.63271 0
M  V30 6169 C 610.74 1.0824 -3.2326 0
M  V30 6170 H 611.933 -0.697987 -2.91664 0
M  V30 6171 H 609.486 -0.400146 -1.51091 0
M  V30 6172 H 610.221 1.86075 -2.65606 0
M  V30 6173 H 610.006 0.574725 -3.87865 0
M  V30 6174 H 611.496 1.56487 -3.87171 0
M  V30 6175 N 611.933 1.52934 -0.380664 0
M  V30 6176 C 612.843 2.29921 0.466192 0
M  V30 6177 C 613.859 1.36488 1.07922 0
M  V30 6178 O 615.035 1.69553 1.0869 0
M  V30 6179 C 612.1 3.08468 1.58266 0
M  V30 6180 C 611.161 4.17595 0.995627 0
M  V30 6181 C 610.394 4.92387 2.05889 0
M  V30 6182 O 610.617 4.67184 3.27254 0
M  V30 6183 O 609.551 5.77949 1.68102 0
M  V30 6184 H 613.377 3.03274 -0.160735 0
M  V30 6185 H 610.962 1.48698 -0.144617 0
M  V30 6186 H 612.844 3.57469 2.23145 0
M  V30 6187 H 611.519 2.37937 2.19471 0
M  V30 6188 H 610.426 3.72811 0.310332 0
M  V30 6189 H 611.759 4.90336 0.427918 0
M  V30 6190 N 613.412 0.11024 1.57214 0
M  V30 6191 C 614.342 -0.840002 2.17867 0
M  V30 6192 C 615.323 -1.28352 1.11624 0
M  V30 6193 O 616.508 -1.3477 1.39824 0
M  V30 6194 C 613.638 -2.09349 2.77111 0
M  V30 6195 C 612.592 -1.78807 3.8886 0
M  V30 6196 C 611.918 -3.11112 4.34872 0
M  V30 6197 C 613.218 -1.0632 5.11364 0
M  V30 6198 H 614.912 -0.334608 2.97524 0
M  V30 6199 H 612.458 -0.159502 1.43114 0
M  V30 6200 H 614.411 -2.76275 3.18198 0
M  V30 6201 H 613.135 -2.62198 1.9473 0
M  V30 6202 H 611.794 -1.14273 3.48335 0
M  V30 6203 H 611.442 -3.61877 3.49362 0
M  V30 6204 H 611.142 -2.91453 5.10224 0
M  V30 6205 H 612.666 -3.79171 4.78604 0
M  V30 6206 H 614.08 -1.63383 5.49526 0
M  V30 6207 H 612.477 -0.967876 5.92243 0
M  V30 6208 H 613.547 -0.0484569 4.84876 0
M  V30 6209 N 614.89 -1.56749 -0.16351 0
M  V30 6210 C 616.115 -1.86938 -0.898264 0
M  V30 6211 C 616.54 -0.697456 -1.74692 0
M  V30 6212 O 615.898 0.353327 -1.77824 0
M  V30 6213 C 615.946 -3.15599 -1.74441 0
M  V30 6214 O 615.05 -2.98371 -2.8469 0
M  V30 6215 H 614.391 -0.614659 -0.251178 0
M  V30 6216 H 616.921 -2.03979 -0.159298 0
M  V30 6217 H 616.931 -3.47202 -2.14277 0
M  V30 6218 H 615.606 -4.00505 -1.1211 0
M  V30 6219 H 614.183 -2.7814 -2.4838 0
M  V30 6220 N 616.368 0.432326 -1.51554 0
M  V30 6221 C 617.331 1.50765 -1.72634 0
M  V30 6222 C 618.331 1.49334 -0.596314 0
M  V30 6223 O 619.521 1.51268 -0.863925 0
M  V30 6224 C 616.653 2.90284 -1.7874 0
M  V30 6225 H 617.846 1.33377 -2.68609 0
M  V30 6226 H 615.399 0.661329 -1.4162 0
M  V30 6227 H 616.134 3.13071 -0.845977 0
M  V30 6228 H 615.919 2.92727 -2.6087 0
M  V30 6229 H 617.409 3.68282 -1.96871 0
M  V30 6230 N 617.846 1.41785 0.688094 0
M  V30 6231 C 618.756 1.46596 1.83158 0
M  V30 6232 C 619.772 0.355862 1.70322 0
M  V30 6233 O 620.948 0.604737 1.92106 0
M  V30 6234 C 618.013 1.35322 3.192 0
M  V30 6235 C 617.074 2.56711 3.4409 0
M  V30 6236 C 616.307 2.45965 4.73642 0
M  V30 6237 O 616.53 1.48827 5.50642 0
M  V30 6238 O 615.464 3.35859 4.99482 0
M  V30 6239 H 619.29 2.43083 1.82056 0
M  V30 6240 H 616.875 1.23404 0.842126 0
M  V30 6241 H 618.757 1.31347 4.00407 0
M  V30 6242 H 617.432 0.419536 3.2097 0
M  V30 6243 H 616.339 2.66262 2.62784 0
M  V30 6244 H 617.672 3.48933 3.47141 0
M  V30 6245 N 619.324 -0.923095 1.27737 0
M  V30 6246 C 620.234 -2.05765 1.12685 0
M  V30 6247 C 621.25 -1.73911 0.0557197 0
M  V30 6248 O 622.426 -1.99674 0.263137 0
M  V30 6249 C 619.491 -3.37804 0.780363 0
M  V30 6250 C 618.552 -3.83326 1.93286 0
M  V30 6251 C 617.785 -5.09064 1.60281 0
M  V30 6252 O 618.008 -5.6809 0.512828 0
M  V30 6253 O 616.942 -5.50071 2.44347 0
M  V30 6254 H 620.768 -2.21378 2.07907 0
M  V30 6255 H 618.353 -1.04299 1.06968 0
M  V30 6256 H 620.235 -4.17097 0.600668 0
M  V30 6257 H 618.91 -3.23387 -0.142291 0
M  V30 6258 H 617.817 -3.049 2.16764 0
M  V30 6259 H 619.15 -4.02292 2.83588 0
M  V30 6260 N 620.802 -1.09834 -1.13024 0
M  V30 6261 C 621.732 -0.763451 -2.20666 0
M  V30 6262 C 622.713 0.260778 -1.68089 0
M  V30 6263 O 623.898 0.127915 -1.93778 0
M  V30 6264 C 621.028 -0.187744 -3.46792 0
M  V30 6265 C 619.982 -1.14196 -4.12484 0
M  V30 6266 C 619.308 -0.427755 -5.32986 0
M  V30 6267 C 620.608 -2.48607 -4.59338 0
M  V30 6268 H 622.302 -1.66347 -2.48936 0
M  V30 6269 H 619.848 -0.801261 -1.19649 0
M  V30 6270 H 621.801 0.0586375 -4.21359 0
M  V30 6271 H 620.525 0.747485 -3.17931 0
M  V30 6272 H 619.184 -1.37369 -3.3989 0
M  V30 6273 H 618.832 0.511747 -5.0039 0
M  V30 6274 H 618.532 -1.06403 -5.77886 0
M  V30 6275 H 620.056 -0.189772 -6.10305 0
M  V30 6276 H 621.47 -2.29618 -5.25308 0
M  V30 6277 H 619.867 -3.08062 -5.14993 0
M  V30 6278 H 620.937 -3.09062 -3.73642 0
M  V30 6279 N 622.28 1.30327 -0.886154 0
M  V30 6280 C 623.557 1.90922 -0.425217 0
M  V30 6281 C 623.937 1.80533 1.09413 0
M  V30 6282 O 623.285 1.2233 1.92996 0
M  V30 6283 C 623.495 3.36529 -0.924638 0
M  V30 6284 C 624.843 4.13598 -0.960305 0
M  V30 6285 O 625.867 3.45377 -0.871382 0
M  V30 6286 O 624.726 5.35482 -1.09184 0
M  V30 6287 H 621.82 0.81668 -0.130238 0
M  V30 6288 H 624.366 1.38886 -0.975132 0
M  V30 6289 H 623.138 3.38181 -1.96849 0
M  V30 6290 H 622.761 3.96021 -0.353955 0
M  V30 6291 O 623.797 0.786908 1.41032 0
M  V30 6292 H 624.488 0.356185 1.90397 0
M  V30 END ATOM
M  V30 BEGIN BOND
M  V30 END BOND
M  V30 END CTAB
M  END
$$$$
