drugbank_target|P32754 4-hydroxyphenylpyruvate dioxygenase (DB00348; DB02850)
 OpenBabel12092119323D

  0  0  0     0  0            999 V3000
M  V30 BEGIN CTAB
M  V30 COUNTS 6307 6382 0 0 0
M  V30 BEGIN ATOM
M  V30 1 H -0.908 1.98254 -0.117106 0
M  V30 2 N 0 1.576 0 0
M  V30 3 C 0.933 2.03868 1.02534 0
M  V30 4 C 1.911 0.928543 1.3348 0
M  V30 5 O 3.095 1.19667 1.45644 0
M  V30 6 C 0.222 2.43627 2.35294 0
M  V30 7 C -0.732 3.65373 2.2001 0
M  V30 8 S 0.101 5.13292 1.52614 0
M  V30 9 C 1.257 5.56322 2.86805 0
M  V30 10 H 1.49 2.90518 0.631377 0
M  V30 11 H -0.977 1.52953 0.210867 0
M  V30 12 H 0.981 2.67203 3.11629 0
M  V30 13 H -0.358 1.57376 2.7183 0
M  V30 14 H -1.165 3.90944 3.18086 0
M  V30 15 H -1.563 3.418 1.51819 0
M  V30 16 H 0.729 5.58782 3.83104 0
M  V30 17 H 1.672 6.56266 2.65933 0
M  V30 18 H 2.08 4.83886 2.90714 0
M  V30 19 N 1.4781 -0.272755 1.55222 0
M  V30 20 C 2.7061 -1.02255 1.79865 0
M  V30 21 C 3.1211 -1.79924 0.572088 0
M  V30 22 O 2.4781 -1.76638 -0.458842 0
M  V30 23 C 2.5291 -1.98094 3.02392 0
M  V30 24 O 2.2501 -1.23572 4.20311 0
M  V30 25 C 3.7511 -2.84884 3.39641 0
M  V30 26 H 0.9711 -0.302057 0.599168 0
M  V30 27 H 3.5151 -0.303465 2.02236 0
M  V30 28 H 1.6701 -2.65465 2.82147 0
M  V30 29 H 2.0841 -1.88172 4.89583 0
M  V30 30 H 3.5581 -3.47927 4.28545 0
M  V30 31 H 4.0351 -3.54665 2.59055 0
M  V30 32 H 4.6411 -2.23003 3.62146 0
M  V30 33 N 2.9562 -1.48159 -0.537278 0
M  V30 34 C 4.1842 -1.59454 -1.31841 0
M  V30 35 C 4.5992 -0.252065 -1.8711 0
M  V30 36 O 3.9562 0.757621 -1.66031 0
M  V30 37 C 4.0072 -2.63546 -2.47439 0
M  V30 38 O 3.7282 -3.92583 -1.94449 0
M  V30 39 C 5.2292 -2.85212 -3.39366 0
M  V30 40 H 2.4492 -0.53785 -0.401196 0
M  V30 41 H 4.9932 -1.93932 -0.648891 0
M  V30 42 H 3.1482 -2.31946 -3.1029 0
M  V30 43 H 3.5622 -4.49629 -2.70063 0
M  V30 44 H 5.0362 -3.61863 -4.16844 0
M  V30 45 H 5.5132 -1.93765 -3.94147 0
M  V30 46 H 6.1192 -3.18086 -2.82314 0
M  V30 47 N 4.4343 0.785586 -1.36625 0
M  V30 48 C 5.6643 1.5722 -1.34036 0
M  V30 49 C 6.0723 1.89033 0.0795062 0
M  V30 50 O 5.4153 1.50881 1.04789 0
M  V30 51 C 5.4773 2.91759 -2.10041 0
M  V30 52 C 5.1413 2.82654 -3.59104 0
M  V30 53 C 6.1383 2.54634 -4.53274 0
M  V30 54 C 3.8233 3.01111 -4.02042 0
M  V30 55 C 5.8173 2.45177 -5.88359 0
M  V30 56 C 3.5043 2.91276 -5.37216 0
M  V30 57 C 4.5023 2.63348 -6.30188 0
M  V30 58 O 4.1903 2.53514 -7.6288 0
M  V30 59 H 3.9223 0.494177 -0.461265 0
M  V30 60 H 6.4763 0.982632 -1.8037 0
M  V30 61 H 4.7063 3.52781 -1.58375 0
M  V30 62 H 6.3953 3.53059 -2.00261 0
M  V30 63 H 7.1613 2.40073 -4.21414 0
M  V30 64 H 3.0403 3.21854 -3.30047 0
M  V30 65 H 6.5843 2.23299 -6.60896 0
M  V30 66 H 2.4813 3.054 -5.68684 0
M  V30 67 H 3.2493 2.68967 -7.73045 0
M  V30 68 N 5.9124 1.20967 1.01018 0
M  V30 69 C 7.1374 1.0503 1.78839 0
M  V30 70 C 7.5624 -0.395752 1.8389 0
M  V30 71 O 6.9204 -1.28529 1.27867 0
M  V30 72 C 6.9684 1.64602 3.2084 0
M  V30 73 O 6.0724 0.887988 4.02726 0
M  V30 74 H 5.4134 0.369987 0.551367 0
M  V30 75 H 7.9434 1.60399 1.27018 0
M  V30 76 H 7.9534 1.68607 3.71532 0
M  V30 77 H 6.6284 2.69841 3.16479 0
M  V30 78 H 5.2054 0.922648 3.61305 0
M  V30 79 N 7.3905 -1.2043 1.01659 0
M  V30 80 C 8.6675 -1.8548 0.621004 0
M  V30 81 C 9.0475 -1.9091 -0.900919 0
M  V30 82 O 8.3955 -1.41694 -1.79263 0
M  V30 83 C 8.6055 -3.25119 1.2688 0
M  V30 84 C 9.9535 -4.01403 1.38423 0
M  V30 85 O 10.9775 -3.34473 1.22501 0
M  V30 86 O 9.8365 -5.21265 1.64151 0
M  V30 87 H 6.9305 -0.798761 0.214266 0
M  V30 88 H 9.4765 -1.28019 1.11396 0
M  V30 89 H 8.2485 -3.15932 2.30873 0
M  V30 90 H 7.8715 -3.90212 0.762917 0
M  V30 91 N 8.8686 -0.792821 -1.36206 0
M  V30 92 C 9.8156 -0.191653 -2.30003 0
M  V30 93 C 10.7856 0.666453 -1.52143 0
M  V30 94 O 11.9706 0.61442 -1.80636 0
M  V30 95 C 9.1106 0.664848 -3.38635 0
M  V30 96 C 8.2236 -0.212175 -4.31479 0
M  V30 97 C 7.3586 0.651022 -5.27196 0
M  V30 98 C 6.3976 -0.227247 -6.11678 0
M  V30 99 N 5.5346 0.595127 -6.99573 0
M  V30 100 H 10.3746 -0.996978 -2.80828 0
M  V30 101 H 7.9116 -0.503206 -1.38225 0
M  V30 102 H 9.8696 1.17645 -4.00269 0
M  V30 103 H 8.4996 1.43557 -2.89122 0
M  V30 104 H 7.5516 -0.841777 -3.70969 0
M  V30 105 H 8.8636 -0.888751 -4.90818 0
M  V30 106 H 8.0176 1.2283 -5.94136 0
M  V30 107 H 6.7566 1.36121 -4.68319 0
M  V30 108 H 5.7616 -0.816904 -5.43697 0
M  V30 109 H 6.9866 -0.93509 -6.72631 0
M  V30 110 H 4.9326 1.28955 -6.432 0
M  V30 111 H 4.8496 -0.0236952 -7.55996 0
M  V30 112 H 6.1176 1.15613 -7.70879 0
M  V30 113 N 10.3467 1.47872 -0.545128 0
M  V30 114 C 11.5947 2.02093 -0.016553 0
M  V30 115 C 11.9157 1.42305 1.3332 0
M  V30 116 O 11.1857 0.593853 1.86682 0
M  V30 117 H 9.7657 0.746993 -0.00313038 0
M  V30 118 H 12.4277 1.81414 -0.712397 0
M  V30 119 H 11.5237 3.11996 0.0805422 0
M  V30 120 N 11.8248 0.280983 1.55075 0
M  V30 121 C 12.7878 -0.590896 2.21452 0
M  V30 122 C 13.7878 -1.07682 1.19421 0
M  V30 123 O 14.9778 -0.97605 1.44288 0
M  V30 124 C 12.1098 -1.81587 2.88511 0
M  V30 125 H 13.3028 -0.0112554 2.99898 0
M  V30 126 H 10.8558 0.0316438 1.56268 0
M  V30 127 H 11.5908 -2.43587 2.14093 0
M  V30 128 H 11.3758 -1.4753 3.63287 0
M  V30 129 H 12.8658 -2.43575 3.39206 0
M  V30 130 N 13.3029 -1.57598 0.00835791 0
M  V30 131 C 14.2499 -2.08945 -0.980346 0
M  V30 132 C 15.2199 -0.986738 -1.33614 0
M  V30 133 O 16.4049 -1.25968 -1.43306 0
M  V30 134 C 13.5449 -2.60425 -2.26435 0
M  V30 135 C 12.6579 -3.84628 -1.96685 0
M  V30 136 C 11.7929 -4.24579 -3.19228 0
M  V30 137 C 10.8319 -5.41596 -2.85202 0
M  V30 138 N 9.9689 -5.768 -4.00307 0
M  V30 139 H 14.8089 -2.93148 -0.535551 0
M  V30 140 H 12.3459 -1.44912 -0.252776 0
M  V30 141 H 14.3039 -2.88354 -3.01509 0
M  V30 142 H 12.9339 -1.79083 -2.68568 0
M  V30 143 H 11.9859 -3.63556 -1.11942 0
M  V30 144 H 13.2979 -4.69796 -1.67611 0
M  V30 145 H 12.4519 -4.53834 -4.02641 0
M  V30 146 H 11.1909 -3.38137 -3.51447 0
M  V30 147 H 10.1959 -5.12056 -2.00198 0
M  V30 148 H 11.4209 -6.29721 -2.54222 0
M  V30 149 H 9.3669 -4.93316 -4.32407 0
M  V30 150 H 9.2839 -6.5656 -3.74786 0
M  V30 151 H 10.5519 -6.10652 -4.84484 0
M  V30 152 N 14.781 0.264519 -1.55364 0
M  V30 153 C 16.192 0.834936 -1.6699 0
M  V30 154 C 16.543 1.86718 -0.602552 0
M  V30 155 O 15.668 2.14899 0.254425 0
M  V30 156 C 16.263 1.5212 -3.02729 0
M  V30 157 C 14.822 2.03954 -3.16354 0
M  V30 158 C 13.969 0.884498 -2.62815 0
M  V30 159 H 16.92 0.0406869 -1.58648 0
M  V30 160 H 16.941 2.38853 -2.96191 0
M  V30 161 H 16.453 0.769668 -3.80392 0
M  V30 162 H 14.554 2.82041 -2.43482 0
M  V30 163 H 14.667 2.24902 -4.23032 0
M  V30 164 H 13.031 1.2802 -2.20188 0
M  V30 165 H 13.814 0.14634 -3.42988 0
M  V30 166 N 16.2591 1.48442 0.529413 0
M  V30 167 C 17.1691 1.6569 1.66084 0
M  V30 168 C 18.1851 0.539432 1.65427 0
M  V30 169 O 19.3611 0.810572 1.84368 0
M  V30 170 C 16.4261 1.69315 3.02545 0
M  V30 171 C 15.4871 2.92694 3.14052 0
M  V30 172 C 14.7201 2.96137 4.44003 0
M  V30 173 O 14.9431 2.07973 5.31134 0
M  V30 174 O 13.8771 3.88312 4.59888 0
M  V30 175 H 17.7031 2.61483 1.54469 0
M  V30 176 H 15.2881 1.3185 0.702567 0
M  V30 177 H 17.1701 1.74217 3.83701 0
M  V30 178 H 15.8451 0.766966 3.14483 0
M  V30 179 H 14.7521 2.93324 2.32189 0
M  V30 180 H 16.0851 3.84699 3.0703 0
M  V30 181 N 17.7372 -0.778329 1.37039 0
M  V30 182 C 19.1532 -1.07796 1.17695 0
M  V30 183 C 19.3532 -2.01498 0.00860115 0
M  V30 184 O 18.4092 -2.43901 -0.653352 0
M  V30 185 C 19.7222 -1.68178 2.49272 0
M  V30 186 C 21.2702 -1.80467 2.55735 0
M  V30 187 C 21.7452 -2.44263 3.87427 0
M  V30 188 N 23.2362 -2.51721 3.88833 0
M  V30 189 C 23.9712 -3.01919 4.87476 0
M  V30 190 N 23.4672 -3.5234 5.96513 0
M  V30 191 N 25.2602 -3.00733 4.74885 0
M  V30 192 H 17.4112 -0.156032 2.11826 0
M  V30 193 H 19.6742 -0.131844 0.938787 0
M  V30 194 H 19.3802 -1.06796 3.35093 0
M  V30 195 H 19.2542 -2.67554 2.65885 0
M  V30 196 H 21.6412 -2.40984 1.70325 0
M  V30 197 H 21.7222 -0.798656 2.43013 0
M  V30 198 H 21.3662 -1.84388 4.73248 0
M  V30 199 H 21.2962 -3.45458 3.9745 0
M  V30 200 H 23.7872 -2.1603 3.10063 0
M  V30 201 H 24.1002 -3.89027 6.67741 0
M  V30 202 H 22.4452 -3.50462 6.00168 0
M  V30 203 H 25.6362 -2.60638 3.88826 0
M  V30 204 H 25.8092 -3.39545 5.51918 0
M  V30 205 N 19.2153 -1.21501 -1.00376 0
M  V30 206 C 20.4633 -1.03095 -1.73827 0
M  V30 207 C 20.7843 0.436341 -1.90055 0
M  V30 208 O 20.0543 1.31466 -1.45236 0
M  V30 209 H 18.6343 -0.378487 -0.644016 0
M  V30 210 H 21.2963 -1.52831 -1.20949 0
M  V30 211 H 20.3923 -1.49991 -2.73695 0
M  V30 212 N 20.6934 1.19889 -1.02296 0
M  V30 213 C 22.1094 1.41462 -0.738954 0
M  V30 214 C 22.3094 1.89721 0.678846 0
M  V30 215 O 21.3654 2.07016 1.4457 0
M  V30 216 C 22.6784 2.43083 -1.77005 0
M  V30 217 C 24.2264 2.5684 -1.78892 0
M  V30 218 C 24.7014 3.61709 -2.80945 0
M  V30 219 N 26.1924 3.69199 -2.79725 0
M  V30 220 C 26.9274 4.50019 -3.55345 0
M  V30 221 N 26.4234 5.34592 -4.40662 0
M  V30 222 N 28.2164 4.44612 -3.43914 0
M  V30 223 H 20.3674 0.868827 -1.93817 0
M  V30 224 H 22.6304 0.44399 -0.837602 0
M  V30 225 H 22.3364 2.14636 -2.78612 0
M  V30 226 H 22.2104 3.4217 -1.58744 0
M  V30 227 H 24.5974 2.84614 -0.779674 0
M  V30 228 H 24.6784 1.57927 -2.01228 0
M  V30 229 H 24.3224 3.34678 -3.82038 0
M  V30 230 H 24.2524 4.60259 -2.5587 0
M  V30 231 H 26.7434 3.08794 -2.17842 0
M  V30 232 H 27.0564 5.93363 -4.95116 0
M  V30 233 H 25.4014 5.34073 -4.44737 0
M  V30 234 H 28.5924 3.7758 -2.76679 0
M  V30 235 H 28.7654 5.0736 -4.031 0
M  V30 236 N 22.1715 0.800033 1.35784 0
M  V30 237 C 23.4185 0.377342 1.98953 0
M  V30 238 C 23.7465 -1.05378 1.6348 0
M  V30 239 O 23.0015 -1.74459 0.886707 0
M  V30 240 C 23.3005 0.500276 3.53881 0
M  V30 241 C 22.9665 1.89375 4.09204 0
M  V30 242 C 21.6285 2.27499 4.24025 0
M  V30 243 C 23.9805 2.8057 4.39238 0
M  V30 244 C 21.3085 3.562 4.66195 0
M  V30 245 C 23.6605 4.0871 4.82844 0
M  V30 246 C 22.3245 4.46843 4.95871 0
M  V30 247 H 21.5945 0.138079 0.728021 0
M  V30 248 H 24.2415 1.01955 1.62103 0
M  V30 249 H 22.5465 -0.225405 3.91151 0
M  V30 250 H 24.2435 0.154097 4.00704 0
M  V30 251 H 20.8335 1.58753 3.98115 0
M  V30 252 H 25.0175 2.52367 4.27346 0
M  V30 253 H 20.2735 3.85602 4.74469 0
M  V30 254 H 24.4475 4.79481 5.05046 0
M  V30 255 H 22.0745 5.46623 5.28306 0
M  V30 256 N 23.6496 -1.47581 0.552962 0
M  V30 257 C 24.5796 -2.32762 -0.185451 0
M  V30 258 C 25.5606 -1.43527 -0.912905 0
M  V30 259 O 26.7456 -1.72388 -0.894201 0
M  V30 260 C 23.8756 -3.25219 -1.21859 0
M  V30 261 C 22.8296 -4.23661 -0.607864 0
M  V30 262 C 22.1556 -5.05413 -1.74533 0
M  V30 263 C 23.4556 -5.20481 0.435582 0
M  V30 264 H 25.1496 -2.94749 0.525684 0
M  V30 265 H 22.6956 -1.41738 0.254251 0
M  V30 266 H 24.6486 -3.8365 -1.7433 0
M  V30 267 H 23.3726 -2.61279 -1.95961 0
M  V30 268 H 22.0316 -3.66451 -0.104489 0
M  V30 269 H 21.6796 -4.3788 -2.47529 0
M  V30 270 H 21.3796 -5.72059 -1.34249 0
M  V30 271 H 22.9036 -5.66701 -2.27338 0
M  V30 272 H 24.3176 -5.733 -0.00290157 0
M  V30 273 H 22.7146 -5.95305 0.757067 0
M  V30 274 H 23.7846 -4.66217 1.33303 0
M  V30 275 N 25.1277 -0.289203 -1.54924 0
M  V30 276 C 26.0777 0.606939 -2.19773 0
M  V30 277 C 27.0617 1.10783 -1.16687 0
M  V30 278 O 28.2537 1.05057 -1.4245 0
M  V30 279 C 25.3827 1.78398 -2.93307 0
M  V30 280 C 24.4687 1.29961 -4.03697 0
M  V30 281 N 24.8597 0.532377 -5.0299 0
M  V30 282 C 23.1577 1.58136 -4.17024 0
M  V30 283 C 23.8587 0.275912 -5.81045 0
M  V30 284 N 22.8347 0.852365 -5.36876 0
M  V30 285 H 26.6367 0.0130779 -2.93897 0
M  V30 286 H 24.1507 -0.09341 -1.62131 0
M  V30 287 H 26.1477 2.43741 -3.38225 0
M  V30 288 H 24.8077 2.38166 -2.20697 0
M  V30 289 H 25.8187 0.17838 -5.17593 0
M  V30 290 H 22.4957 2.18738 -3.55612 0
M  V30 291 H 23.8857 -0.339502 -6.71042 0
M  V30 292 N 26.6058 1.57591 -0.0167156 0
M  V30 293 C 27.8528 1.91283 0.664597 0
M  V30 294 C 28.1808 0.891949 1.72842 0
M  V30 295 O 27.4358 -0.100931 1.9544 0
M  V30 296 C 27.7348 3.3172 1.33029 0
M  V30 297 C 27.4008 4.4914 0.398047 0
M  V30 298 C 26.0628 4.80992 0.141421 0
M  V30 299 C 28.4148 5.20634 -0.242825 0
M  V30 300 C 25.7428 5.81703 -0.764092 0
M  V30 301 C 28.0948 6.22311 -1.13632 0
M  V30 302 C 26.7588 6.52611 -1.40196 0
M  V30 303 H 26.0288 0.699956 0.243193 0
M  V30 304 H 28.6758 1.9135 -0.0758267 0
M  V30 305 H 26.9808 3.27856 2.14517 0
M  V30 306 H 28.6778 3.55055 1.86379 0
M  V30 307 H 25.2678 4.24262 0.608238 0
M  V30 308 H 29.4518 4.96267 -0.0576019 0
M  V30 309 H 24.7078 6.03532 -0.977732 0
M  V30 310 H 28.8818 6.76834 -1.63917 0
M  V30 311 H 26.5088 7.30467 -2.10529 0
M  V30 312 N 28.0839 -0.256276 1.55502 0
M  V30 313 C 29.0339 -1.31981 1.85916 0
M  V30 314 C 30.0179 -1.43927 0.719296 0
M  V30 315 O 31.2099 -1.47326 0.981019 0
M  V30 316 C 28.3389 -2.67703 2.14918 0
M  V30 317 C 27.4249 -2.59801 3.35208 0
M  V30 318 N 27.8159 -2.21524 4.54709 0
M  V30 319 C 26.1139 -2.90832 3.38131 0
M  V30 320 C 26.8149 -2.24024 5.36832 0
M  V30 321 N 25.7909 -2.63158 4.75656 0
M  V30 322 H 29.5929 -1.01423 2.75845 0
M  V30 323 H 27.1069 -0.464911 1.55603 0
M  V30 324 H 29.1039 -3.44445 2.34869 0
M  V30 325 H 27.7639 -2.99137 1.26282 0
M  V30 326 H 28.7749 -1.93223 4.80505 0
M  V30 327 H 25.4519 -3.26867 2.59739 0
M  V30 328 H 26.8419 -1.9685 6.42417 0
M  V30 329 N 29.562 -1.4872 -0.521534 0
M  V30 330 C 30.787 -1.61101 -1.30618 0
M  V30 331 C 31.212 -0.274611 -1.86085 0
M  V30 332 O 30.57 0.754937 -1.64834 0
M  V30 333 C 30.618 -2.66709 -2.4269 0
M  V30 334 O 29.722 -2.24456 -3.45967 0
M  V30 335 H 29.063 -0.539921 -0.386499 0
M  V30 336 H 31.593 -1.94767 -0.626645 0
M  V30 337 H 31.603 -2.88245 -2.88754 0
M  V30 338 H 30.278 -3.63727 -2.01682 0
M  V30 339 H 28.855 -2.13168 -3.05964 0
M  V30 340 N 31.0401 0.771051 -1.3745 0
M  V30 341 C 32.2861 1.5319 -1.32894 0
M  V30 342 C 32.6191 1.94008 0.0862511 0
M  V30 343 O 31.8941 1.64124 1.04373 0
M  V30 344 C 32.1771 2.79648 -2.26868 0
M  V30 345 C 32.0301 2.45079 -3.77169 0
M  V30 346 C 33.3491 3.81583 -2.19277 0
M  V30 347 H 30.4681 0.555744 -0.484064 0
M  V30 348 H 33.1101 0.884492 -1.68157 0
M  V30 349 H 31.2601 3.34891 -1.96926 0
M  V30 350 H 32.9321 1.95745 -4.1771 0
M  V30 351 H 31.1751 1.77767 -3.95704 0
M  V30 352 H 31.8461 3.35478 -4.38359 0
M  V30 353 H 34.3221 3.35835 -2.45671 0
M  V30 354 H 33.1981 4.67787 -2.87171 0
M  V30 355 H 33.4591 4.25897 -1.18592 0
M  V30 356 N 32.5182 1.22032 0.997298 0
M  V30 357 C 33.7462 1.06841 1.7718 0
M  V30 358 C 34.1612 -0.381325 1.84909 0
M  V30 359 O 33.5182 -1.26437 1.31605 0
M  V30 360 C 33.5692 1.66814 3.20711 0
M  V30 361 O 33.2902 3.06116 3.13408 0
M  V30 362 C 34.7912 1.56838 4.14628 0
M  V30 363 H 32.0112 0.374782 0.556578 0
M  V30 364 H 34.5552 1.61532 1.2541 0
M  V30 365 H 32.7102 1.16196 3.69564 0
M  V30 366 H 33.1242 3.34926 4.0364 0
M  V30 367 H 34.5982 2.03532 5.13107 0
M  V30 368 H 35.0752 0.524155 4.36061 0
M  V30 369 H 35.6812 2.06741 3.7167 0
M  V30 370 N 33.9963 -1.19345 1.0293 0
M  V30 371 C 35.2433 -1.89038 0.726008 0
M  V30 372 C 35.5713 -1.79649 -0.745427 0
M  V30 373 O 34.8263 -1.18354 -1.55855 0
M  V30 374 C 35.1253 -3.39292 1.12319 0
M  V30 375 C 34.7913 -3.68885 2.59297 0
M  V30 376 C 33.4533 -3.76671 2.99453 0
M  V30 377 C 35.8053 -3.82178 3.54386 0
M  V30 378 C 33.1333 -3.9522 4.33611 0
M  V30 379 C 35.4853 -4.0224 4.88248 0
M  V30 380 C 34.1493 -4.08259 5.28092 0
M  V30 381 H 33.4193 -0.691739 0.265665 0
M  V30 382 H 36.0663 -1.41328 1.29223 0
M  V30 383 H 34.3713 -3.88903 0.475584 0
M  V30 384 H 36.0683 -3.91536 0.866037 0
M  V30 385 H 32.6583 -3.63433 2.27189 0
M  V30 386 H 36.8423 -3.75505 3.24514 0
M  V30 387 H 32.0983 -3.98119 4.64016 0
M  V30 388 H 36.2723 -4.11468 5.61843 0
M  V30 389 H 33.8993 -4.22384 6.32057 0
M  V30 390 N 35.4744 -0.807222 -1.35358 0
M  V30 391 C 36.7204 -0.397594 -1.99476 0
M  V30 392 C 37.0754 1.02405 -1.62883 0
M  V30 393 O 36.3684 1.70077 -0.882282 0
M  V30 394 C 36.5624 -0.519036 -3.53611 0
M  V30 395 C 36.3914 -1.95094 -4.05177 0
M  V30 396 C 35.1614 -2.57945 -4.34503 0
M  V30 397 C 37.3594 -2.91558 -4.23673 0
M  V30 398 N 35.3414 -3.92539 -4.72003 0
M  V30 399 C 36.7124 -4.11024 -4.64176 0
M  V30 400 C 38.7674 -2.88381 -4.05883 0
M  V30 401 C 37.4704 -5.27745 -4.88751 0
M  V30 402 C 39.4964 -4.04306 -4.31614 0
M  V30 403 C 38.8584 -5.22519 -4.72391 0
M  V30 404 H 34.9574 -0.193274 -0.75774 0
M  V30 405 H 37.5414 -1.0486 -1.6405 0
M  V30 406 H 35.7124 0.101979 -3.88266 0
M  V30 407 H 37.4444 -0.0839321 -4.04613 0
M  V30 408 H 34.1994 -2.09295 -4.24844 0
M  V30 409 H 34.6234 -4.61836 -4.95011 0
M  V30 410 H 39.2654 -1.98137 -3.73499 0
M  V30 411 H 36.9834 -6.1856 -5.20008 0
M  V30 412 H 40.5694 -4.03229 -4.19402 0
M  V30 413 H 39.4494 -6.1073 -4.91913 0
M  V30 414 N 36.9525 1.47285 -0.560781 0
M  V30 415 C 38.1985 2.02764 -0.0381184 0
M  V30 416 C 38.5315 1.43384 1.30976 0
M  V30 417 O 37.8065 0.590733 1.85312 0
M  V30 418 C 38.0895 3.60064 0.0511427 0
M  V30 419 C 37.9425 4.2987 -1.32408 0
M  V30 420 C 39.2615 4.33439 0.762795 0
M  V30 421 H 36.3805 0.736841 -0.0153264 0
M  V30 422 H 39.0225 1.75675 -0.723759 0
M  V30 423 H 37.1725 3.83274 0.635065 0
M  V30 424 H 38.8445 4.17989 -1.95148 0
M  V30 425 H 37.0875 3.90085 -1.8978 0
M  V30 426 H 37.7585 5.38478 -1.21431 0
M  V30 427 H 40.2345 4.15243 0.266965 0
M  V30 428 H 39.1105 5.43124 0.794221 0
M  V30 429 H 39.3715 4.02915 1.81966 0
M  V30 430 N 38.4306 0.297415 1.54768 0
M  V30 431 C 39.6786 -0.312295 1.99673 0
M  V30 432 C 39.9996 -1.54686 1.18732 0
M  V30 433 O 39.2696 -1.93854 0.282382 0
M  V30 434 H 37.8496 -0.118381 0.73756 0
M  V30 435 H 40.5116 0.407915 1.90583 0
M  V30 436 H 39.6076 -0.586813 3.06534 0
M  V30 437 N 39.9087 -1.5758 0.0250728 0
M  V30 438 C 40.8567 -2.11125 -0.97617 0
M  V30 439 C 41.8507 -1.03689 -1.33959 0
M  V30 440 O 43.0567 -1.22128 -1.3223 0
M  V30 441 H 39.4317 -0.674468 -0.332561 0
M  V30 442 H 41.4027 -2.94194 -0.499223 0
M  V30 443 C 40.1517 -2.65017 -2.2508 0
M  V30 444 H 39.4747 -3.47333 -1.9799 0
M  V30 445 H 40.9147 -3.06133 -2.93357 0
M  V30 446 C 39.3737 -1.57574 -2.97779 0
M  V30 447 O 39.9037 -0.973203 -3.89733 0
M  V30 448 N 38.1097 -1.29716 -2.60043 0
M  V30 449 H 37.6567 -1.789 -1.85345 0
M  V30 450 H 37.6147 -0.58051 -3.08994 0
M  V30 451 N 41.3868 0.248026 -1.55636 0
M  V30 452 C 42.3498 1.29044 -1.89421 0
M  V30 453 C 43.3498 1.41134 -0.770581 0
M  V30 454 O 44.5398 1.39854 -1.03858 0
M  V30 455 C 41.6718 2.66831 -2.12165 0
M  V30 456 H 42.8648 1.00305 -2.82629 0
M  V30 457 H 40.4178 0.487265 -1.48511 0
M  V30 458 H 41.1528 3.00711 -1.21422 0
M  V30 459 H 40.9378 2.59438 -2.93997 0
M  V30 460 H 42.4278 3.42103 -2.3949 0
M  V30 461 N 42.8649 1.48995 0.513639 0
M  V30 462 C 43.8119 1.6473 1.61656 0
M  V30 463 C 44.7819 0.488984 1.58739 0
M  V30 464 O 45.9669 0.714478 1.76918 0
M  V30 465 C 43.1069 1.7082 2.99858 0
M  V30 466 C 42.2199 2.9787 3.12885 0
M  V30 467 C 41.3549 2.95017 4.41744 0
M  V30 468 C 40.3939 4.16702 4.48359 0
M  V30 469 N 39.5309 4.11832 5.68629 0
M  V30 470 H 44.3709 2.58909 1.47547 0
M  V30 471 H 41.9079 1.28382 0.71808 0
M  V30 472 H 43.8659 1.72331 3.79944 0
M  V30 473 H 42.4959 0.801181 3.12699 0
M  V30 474 H 41.5479 3.06029 2.25944 0
M  V30 475 H 42.8599 3.8786 3.13633 0
M  V30 476 H 42.0139 2.95021 5.30139 0
M  V30 477 H 40.7529 2.02784 4.43542 0
M  V30 478 H 39.7579 4.16955 3.58369 0
M  V30 479 H 40.9829 5.10113 4.48287 0
M  V30 480 H 38.9289 3.22428 5.71293 0
M  V30 481 H 38.8459 4.95543 5.7094 0
M  V30 482 H 40.1139 4.1592 6.59266 0
M  V30 483 N 44.343 -0.763751 1.37857 0
M  V30 484 C 45.275 -1.88664 1.30148 0
M  V30 485 C 46.288 -1.61365 0.215685 0
M  V30 486 O 47.477 -1.72134 0.472459 0
M  V30 487 C 44.577 -3.24075 0.991396 0
M  V30 488 C 43.75 -3.78958 2.18426 0
M  V30 489 C 42.809 -4.92862 1.8432 0
M  V30 490 O 41.835 -5.08027 2.56704 0
M  V30 491 N 43.037 -5.75071 0.792081 0
M  V30 492 H 45.802 -1.95791 2.26905 0
M  V30 493 H 43.363 -0.943226 1.31586 0
M  V30 494 H 45.355 -3.97804 0.743935 0
M  V30 495 H 43.925 -3.12399 0.112122 0
M  V30 496 H 43.145 -2.96913 2.59299 0
M  V30 497 H 44.433 -4.12357 2.98058 0
M  V30 498 H 43.831 -5.65375 0.191595 0
M  V30 499 H 42.388 -6.48991 0.60449 0
M  V30 500 N 45.8211 -1.22559 -0.990812 0
M  V30 501 C 46.7841 -0.998863 -2.0629 0
M  V30 502 C 47.7841 0.0354834 -1.60761 0
M  V30 503 O 48.9741 -0.203231 -1.7301 0
M  V30 504 C 46.1061 -0.509203 -3.37076 0
M  V30 505 H 47.2991 -1.95014 -2.27837 0
M  V30 506 H 44.8521 -1.04456 -1.16269 0
M  V30 507 H 45.5871 0.446335 -3.21214 0
M  V30 508 H 45.3721 -1.25547 -3.71457 0
M  V30 509 H 46.8621 -0.370888 -4.1595 0
M  V30 510 N 47.2992 1.18797 -1.03562 0
M  V30 511 C 48.2622 2.20464 -0.626769 0
M  V30 512 C 49.2622 1.57721 0.313173 0
M  V30 513 O 50.4522 1.73917 0.0992615 0
M  V30 514 C 47.5842 3.40802 0.0818498 0
M  V30 515 H 48.7772 2.58149 -1.5264 0
M  V30 516 H 46.3302 1.32593 -0.827578 0
M  V30 517 H 47.0652 3.08642 0.995518 0
M  V30 518 H 46.8502 3.8758 -0.593652 0
M  V30 519 H 48.3402 4.16092 0.354584 0
M  V30 520 N 48.7773 0.814389 1.34928 0
M  V30 521 C 50.0023 0.410097 2.03305 0
M  V30 522 C 50.4273 -0.973464 1.60951 0
M  V30 523 O 49.7853 -1.63185 0.789964 0
M  V30 524 C 49.8333 0.51049 3.56968 0
M  V30 525 O 48.9373 -0.473035 4.09678 0
M  V30 526 H 48.2783 0.170088 0.641846 0
M  V30 527 H 50.8083 1.10244 1.72358 0
M  V30 528 H 50.8183 0.383135 4.06197 0
M  V30 529 H 49.4933 1.51963 3.87144 0
M  V30 530 H 48.0703 -0.305272 3.71648 0
M  V30 531 N 50.2554 -1.46986 0.568584 0
M  V30 532 C 51.5024 -2.02441 0.0487986 0
M  V30 533 C 51.8304 -1.44169 -1.30559 0
M  V30 534 O 51.0854 -0.591213 -1.86556 0
M  V30 535 C 51.3844 -3.57306 -0.081836 0
M  V30 536 C 51.0504 -4.34552 1.20313 0
M  V30 537 C 49.7124 -4.55376 1.5552 0
M  V30 538 C 52.0644 -4.79016 2.05411 0
M  V30 539 C 49.3924 -5.17913 2.7565 0
M  V30 540 C 51.7444 -5.42879 3.24754 0
M  V30 541 C 50.4084 -5.61933 3.60261 0
M  V30 542 H 49.6784 -0.740785 0.0178567 0
M  V30 543 H 52.3254 -1.76525 0.742384 0
M  V30 544 H 50.6304 -3.8228 -0.858463 0
M  V30 545 H 52.3274 -3.97876 -0.499546 0
M  V30 546 H 48.9174 -4.18631 0.919014 0
M  V30 547 H 53.1014 -4.62696 1.79516 0
M  V30 548 H 48.3574 -5.30858 3.03315 0
M  V30 549 H 52.5314 -5.76293 3.90973 0
M  V30 550 H 50.1584 -6.10161 4.53439 0
M  V30 551 N 51.7335 -0.305618 -1.54608 0
M  V30 552 C 52.9635 0.304333 -2.04346 0
M  V30 553 C 53.3715 1.47715 -1.18224 0
M  V30 554 O 52.7145 1.82591 -0.201577 0
M  V30 555 C 52.7765 0.819031 -3.50046 0
M  V30 556 C 52.4405 -0.22912 -4.56425 0
M  V30 557 C 53.4375 -1.05914 -5.08997 0
M  V30 558 C 51.1225 -0.372148 -5.0092 0
M  V30 559 C 53.1165 -2.01809 -6.04609 0
M  V30 560 C 50.8035 -1.33454 -5.9635 0
M  V30 561 C 51.8015 -2.15599 -6.48079 0
M  V30 562 O 51.4895 -3.10205 -7.41639 0
M  V30 563 H 51.2215 0.0693996 -0.672428 0
M  V30 564 H 53.7755 -0.444548 -2.00532 0
M  V30 565 H 52.0055 1.61852 -3.51199 0
M  V30 566 H 53.6945 1.34537 -3.82955 0
M  V30 567 H 54.4605 -0.959538 -4.75413 0
M  V30 568 H 50.3395 0.257304 -4.60281 0
M  V30 569 H 53.8835 -2.65966 -6.44909 0
M  V30 570 H 49.7805 -1.43485 -6.29351 0
M  V30 571 H 50.5485 -3.05237 -7.59455 0
M  V30 572 N 53.2116 1.57565 -0.0334293 0
M  V30 573 C 54.4516 1.93844 0.648379 0
M  V30 574 C 54.8156 0.910387 1.69044 0
M  V30 575 O 56.0166 1.15952 2.42505 0
M  V30 576 C 54.2876 3.35017 1.24492 0
M  V30 577 S 55.8466 3.93229 1.94721 0
M  V30 578 H 52.6646 0.678231 0.213364 0
M  V30 579 H 55.2666 1.95254 -0.0981253 0
M  V30 580 H 53.9706 4.07652 0.474128 0
M  V30 581 H 53.5016 3.37061 2.02864 0
M  V30 582 H 55.5166 3.77014 3.22606 0
M  V30 583 N 54.6897 -0.239769 1.55765 0
M  V30 584 C 55.9147 -0.988373 1.82335 0
M  V30 585 C 56.3397 -1.77886 0.611421 0
M  V30 586 O 55.6977 -1.75889 -0.439639 0
M  V30 587 C 55.7457 -1.89627 3.06715 0
M  V30 588 O 54.8497 -2.98904 2.84131 0
M  V30 589 H 54.1907 -0.280858 0.601677 0
M  V30 590 H 56.7207 -0.258597 2.02959 0
M  V30 591 H 56.7307 -2.30957 3.36338 0
M  V30 592 H 55.4057 -1.31511 3.9456 0
M  V30 593 H 53.9827 -2.61651 2.65694 0
M  V30 594 N 56.1678 -1.49265 -0.50573 0
M  V30 595 C 57.1148 -1.65585 -1.6078 0
M  V30 596 C 58.0848 -0.497396 -1.58478 0
M  V30 597 O 59.2698 -0.72385 -1.76536 0
M  V30 598 C 56.4098 -1.72408 -2.98948 0
M  V30 599 C 55.5228 -2.99525 -3.11301 0
M  V30 600 C 54.6578 -2.97356 -4.40174 0
M  V30 601 C 53.6968 -4.19074 -4.46143 0
M  V30 602 N 52.8338 -4.14841 -5.66437 0
M  V30 603 H 57.6738 -2.59688 -1.46172 0
M  V30 604 H 55.2108 -1.28761 -0.711261 0
M  V30 605 H 57.1688 -1.74344 -3.79025 0
M  V30 606 H 55.7988 -0.817753 -3.1227 0
M  V30 607 H 54.8508 -3.07222 -2.24318 0
M  V30 608 H 56.1628 -3.89518 -3.11572 0
M  V30 609 H 55.3168 -2.97829 -5.28567 0
M  V30 610 H 54.0558 -2.05133 -4.42461 0
M  V30 611 H 53.0608 -4.1885 -3.56153 0
M  V30 612 H 54.2858 -5.12483 -4.45575 0
M  V30 613 H 52.2318 -3.25453 -5.69575 0
M  V30 614 H 52.1488 -4.98564 -5.68304 0
M  V30 615 H 53.4168 -4.1941 -6.57051 0
M  V30 616 N 57.6459 0.756429 -1.3826 0
M  V30 617 C 58.5789 1.87802 -1.29637 0
M  V30 618 C 59.5569 1.61667 -0.173939 0
M  V30 619 O 60.7409 1.85208 -0.350775 0
M  V30 620 C 57.8679 3.23354 -1.00797 0
M  V30 621 C 56.9139 3.68379 -2.14939 0
M  V30 622 S 57.7469 3.8025 -3.77054 0
M  V30 623 C 58.9029 5.18626 -3.50396 0
M  V30 624 H 59.1359 1.94829 -2.24564 0
M  V30 625 H 56.6689 0.919117 -1.24063 0
M  V30 626 H 58.6269 4.01637 -0.848413 0
M  V30 627 H 57.2879 3.14008 -0.0759369 0
M  V30 628 H 56.4809 4.66693 -1.90299 0
M  V30 629 H 56.0829 2.97242 -2.26988 0
M  V30 630 H 58.3749 6.04289 -3.06334 0
M  V30 631 H 59.3179 5.48286 -4.48094 0
M  V30 632 H 59.7259 4.87289 -2.84973 0
M  V30 633 N 59.124 1.23083 0.984299 0
M  V30 634 C 60.372 1.05848 1.72165 0
M  V30 635 C 60.693 -0.406049 1.90726 0
M  V30 636 O 59.963 -1.29139 1.47309 0
M  V30 637 H 58.543 0.388685 0.637913 0
M  V30 638 H 61.205 1.54736 1.18503 0
M  V30 639 H 60.301 1.54327 2.71274 0
M  V30 640 N 60.6021 -1.18246 1.0419 0
M  V30 641 C 61.8491 -1.88257 0.746017 0
M  V30 642 C 62.1771 -1.80429 -0.726331 0
M  V30 643 O 61.4321 -1.2 -1.54591 0
M  V30 644 C 61.7311 -3.38082 1.15911 0
M  V30 645 C 61.3971 -3.66114 2.63195 0
M  V30 646 C 60.0591 -3.73474 3.03432 0
M  V30 647 C 62.4111 -3.78398 3.5842 0
M  V30 648 C 59.7391 -3.90599 4.37778 0
M  V30 649 C 62.0911 -3.97039 4.92487 0
M  V30 650 C 60.7551 -4.02635 5.32392 0
M  V30 651 H 60.0251 -0.688883 0.272987 0
M  V30 652 H 62.6721 -1.3995 1.30715 0
M  V30 653 H 60.9771 -3.88377 0.516806 0
M  V30 654 H 62.6741 -3.90596 0.907516 0
M  V30 655 H 59.2641 -3.61003 2.3103 0
M  V30 656 H 63.4481 -3.72042 3.28479 0
M  V30 657 H 58.7041 -3.93175 4.68213 0
M  V30 658 H 62.8781 -4.05486 5.66175 0
M  V30 659 H 60.5051 -4.15657 6.36501 0
M  V30 660 N 62.0802 -0.821533 -1.34494 0
M  V30 661 C 62.9902 -0.244355 -2.33324 0
M  V30 662 C 64.0062 0.620527 -1.62559 0
M  V30 663 O 65.1822 0.528754 -1.94335 0
M  V30 664 C 62.2472 0.585368 -3.41723 0
M  V30 665 C 61.3082 -0.301752 -4.28238 0
M  V30 666 C 60.5412 0.488466 -5.3146 0
M  V30 667 O 60.7642 1.72186 -5.4379 0
M  V30 668 O 59.6982 -0.12848 -6.01763 0
M  V30 669 H 63.5242 -1.06231 -2.84515 0
M  V30 670 H 61.1092 -0.583645 -1.37528 0
M  V30 671 H 62.9912 1.05747 -4.07916 0
M  V30 672 H 61.6662 1.38068 -2.92778 0
M  V30 673 H 60.5732 -0.821315 -3.64973 0
M  V30 674 H 61.9062 -1.06138 -4.8062 0
M  V30 675 N 63.5583 1.46682 -0.576371 0
M  V30 676 C 64.9693 1.86112 -0.148091 0
M  V30 677 C 65.3203 1.48073 1.2872 0
M  V30 678 O 64.4453 0.892656 1.97131 0
M  V30 679 C 65.0403 3.37786 -0.261982 0
M  V30 680 C 63.5993 3.76235 0.111384 0
M  V30 681 C 62.7463 2.70713 -0.60083 0
M  V30 682 H 65.6973 1.37927 -0.78497 0
M  V30 683 H 65.7183 3.77007 0.514364 0
M  V30 684 H 65.2303 3.6544 -1.30671 0
M  V30 685 H 63.3313 3.54198 1.15649 0
M  V30 686 H 63.4443 4.78391 -0.26052 0
M  V30 687 H 61.8083 2.54666 -0.0417783 0
M  V30 688 H 62.5913 3.01208 -1.64708 0
M  V30 689 N 65.0364 0.313813 1.54444 0
M  V30 690 C 65.9664 -0.549454 2.26943 0
M  V30 691 C 66.9474 -1.12741 1.27372 0
M  V30 692 O 68.1324 -1.15436 1.56167 0
M  V30 693 C 65.2624 -1.71523 3.01989 0
M  V30 694 C 64.2164 -1.26703 4.08816 0
M  V30 695 C 63.5424 -2.51898 4.71647 0
M  V30 696 C 64.8424 -0.388962 5.2085 0
M  V30 697 H 66.5364 0.0552661 2.99349 0
M  V30 698 H 64.0824 0.0280207 1.43973 0
M  V30 699 H 66.0354 -2.32535 3.51433 0
M  V30 700 H 64.7594 -2.34639 2.27183 0
M  V30 701 H 63.4184 -0.679896 3.6024 0
M  V30 702 H 63.0664 -3.13356 3.93468 0
M  V30 703 H 62.7664 -2.22605 5.43802 0
M  V30 704 H 64.2904 -3.1369 5.23861 0
M  V30 705 H 65.7044 -0.905107 5.6611 0
M  V30 706 H 64.1014 -0.18924 5.99802 0
M  V30 707 H 65.1714 0.582699 4.81386 0
M  V30 708 N 66.5145 -1.57545 0.0417849 0
M  V30 709 C 67.4775 -2.09885 -0.92093 0
M  V30 710 C 68.4775 -1.01648 -1.24596 0
M  V30 711 O 69.6675 -1.27759 -1.1842 0
M  V30 712 C 66.7995 -2.57527 -2.23367 0
M  V30 713 H 67.9925 -2.96236 -0.467382 0
M  V30 714 H 65.5455 -1.5493 -0.206467 0
M  V30 715 H 66.2805 -1.74542 -2.73323 0
M  V30 716 H 66.0655 -3.36613 -2.01083 0
M  V30 717 H 67.5555 -2.98201 -2.92346 0
M  V30 718 N 67.9926 0.231505 -1.5589 0
M  V30 719 C 69.2226 0.973092 -1.82248 0
M  V30 720 C 69.6306 1.78845 -0.617328 0
M  V30 721 O 68.9736 1.78752 0.423499 0
M  V30 722 C 69.0356 1.94732 -3.02192 0
M  V30 723 C 68.6996 1.31743 -4.37599 0
M  V30 724 C 69.6966 0.712238 -5.14998 0
M  V30 725 C 67.3816 1.33218 -4.84312 0
M  V30 726 C 69.3756 0.130195 -6.37267 0
M  V30 727 C 67.0626 0.746286 -6.06526 0
M  V30 728 C 68.0606 0.146337 -6.82843 0
M  V30 729 O 67.7486 -0.430465 -8.02747 0
M  V30 730 H 67.4806 0.29125 -0.61004 0
M  V30 731 H 70.0346 0.254915 -2.03812 0
M  V30 732 H 68.2646 2.70422 -2.76422 0
M  V30 733 H 69.9536 2.55362 -3.15508 0
M  V30 734 H 70.7196 0.69324 -4.8002 0
M  V30 735 H 66.5986 1.78854 -4.24891 0
M  V30 736 H 70.1426 -0.33871 -6.96777 0
M  V30 737 H 66.0396 0.762663 -6.40979 0
M  V30 738 H 66.8076 -0.323818 -8.17859 0
M  V30 739 N 69.4707 1.49531 0.497807 0
M  V30 740 C 70.8867 1.36365 0.829266 0
M  V30 741 C 71.0867 0.399184 1.97506 0
M  V30 742 O 70.1427 -0.167977 2.51941 0
M  V30 743 C 71.4557 2.77153 1.16647 0
M  V30 744 C 73.0037 2.85877 1.27449 0
M  V30 745 C 73.4787 4.2744 1.64497 0
M  V30 746 N 74.9697 4.30265 1.7154 0
M  V30 747 C 75.7047 5.3677 2.01656 0
M  V30 748 N 75.2007 6.53516 2.29976 0
M  V30 749 N 76.9937 5.24189 2.02934 0
M  V30 750 H 69.1447 2.10831 -0.257703 0
M  V30 751 H 71.4077 0.946534 -0.0527091 0
M  V30 752 H 71.1137 3.49442 0.397872 0
M  V30 753 H 70.9877 3.12722 2.10915 0
M  V30 754 H 73.3747 2.13824 2.0338 0
M  V30 755 H 73.4557 2.53887 0.312244 0
M  V30 756 H 73.0997 5.00021 0.891151 0
M  V30 757 H 73.0297 4.56896 2.61827 0
M  V30 758 H 75.5207 3.4607 1.51802 0
M  V30 759 H 75.8337 7.30506 2.52153 0
M  V30 760 H 74.1787 6.56737 2.27425 0
M  V30 761 H 77.3697 4.31988 1.80289 0
M  V30 762 H 77.5427 6.07286 2.26071 0
M  V30 763 N 70.9488 -0.749086 1.3866 0
M  V30 764 C 72.1968 -1.50535 1.34847 0
M  V30 765 C 72.5178 -1.94909 -0.0595016 0
M  V30 766 O 71.7878 -1.67973 -1.00806 0
M  V30 767 H 70.3678 -0.558395 0.49619 0
M  V30 768 H 73.0298 -0.890165 1.73384 0
M  V30 769 H 72.1258 -2.39413 2.00219 0
M  V30 770 N 72.4269 -1.23603 -0.977757 0
M  V30 771 C 73.3569 -1.04401 -2.0886 0
M  V30 772 C 74.3379 0.0399052 -1.70053 0
M  V30 773 O 75.5229 -0.125246 -1.93796 0
M  V30 774 C 72.6529 -0.637269 -3.41403 0
M  V30 775 C 71.6069 -1.66883 -3.94124 0
M  V30 776 C 70.9329 -1.11745 -5.22893 0
M  V30 777 C 72.2329 -3.06247 -4.23096 0
M  V30 778 H 73.9269 -1.97316 -2.25182 0
M  V30 779 H 71.4729 -0.950096 -1.08209 0
M  V30 780 H 73.4259 -0.48998 -4.18542 0
M  V30 781 H 72.1499 0.327557 -3.24953 0
M  V30 782 H 70.8089 -1.80416 -3.19133 0
M  V30 783 H 70.4569 -0.143527 -5.02795 0
M  V30 784 H 70.1569 -1.80672 -5.59134 0
M  V30 785 H 71.6809 -0.982067 -6.02651 0
M  V30 786 H 73.0949 -2.96001 -4.90975 0
M  V30 787 H 71.4919 -3.72436 -4.70544 0
M  V30 788 H 72.5619 -3.55041 -3.30263 0
M  V30 789 N 73.905 1.17692 -1.04816 0
M  V30 790 C 74.815 2.25229 -0.65643 0
M  V30 791 C 75.831 1.71018 0.320761 0
M  V30 792 O 77.007 2.00649 0.173805 0
M  V30 793 C 74.072 3.46684 -0.0332629 0
M  V30 794 C 73.133 4.15997 -1.06042 0
M  V30 795 C 72.366 5.31654 -0.466893 0
M  V30 796 O 72.589 5.65777 0.724758 0
M  V30 797 O 71.523 5.89831 -1.1993 0
M  V30 798 H 75.349 2.61016 -1.55255 0
M  V30 799 H 72.934 1.24919 -0.81949 0
M  V30 800 H 74.816 4.20234 0.313256 0
M  V30 801 H 73.491 3.12703 0.836566 0
M  V30 802 H 72.398 3.44482 -1.45886 0
M  V30 803 H 73.731 4.53996 -1.90127 0
M  V30 804 N 75.3831 0.828654 1.34056 0
M  V30 805 C 76.6111 0.43262 2.02326 0
M  V30 806 C 77.0261 -0.963147 1.62385 0
M  V30 807 O 76.3831 -1.62425 0.832121 0
M  V30 808 C 76.4341 0.53182 3.57567 0
M  V30 809 O 76.1551 1.87258 3.96063 0
M  V30 810 C 77.6561 0.131422 4.43105 0
M  V30 811 H 74.8761 0.172923 0.648335 0
M  V30 812 H 77.4201 1.1184 1.71208 0
M  V30 813 H 75.5751 -0.105938 3.87255 0
M  V30 814 H 75.9891 1.85087 4.90758 0
M  V30 815 H 77.4631 0.251904 5.51425 0
M  V30 816 H 77.9401 -0.925645 4.29335 0
M  V30 817 H 78.5461 0.743207 4.18756 0
M  V30 818 N 76.8612 -1.46375 0.584142 0
M  V30 819 C 78.1092 -2.01978 0.0701287 0
M  V30 820 C 78.4302 -1.4579 -1.295 0
M  V30 821 O 77.7002 -0.64314 -1.85042 0
M  V30 822 H 76.2802 -0.746648 0.0229345 0
M  V30 823 H 78.9422 -1.79461 0.760245 0
M  V30 824 H 78.0382 -3.121 0.0022064 0
M  V30 825 N 78.3393 -0.321999 -1.54275 0
M  V30 826 C 79.5643 0.285791 -2.05422 0
M  V30 827 C 79.9893 1.45124 -1.19669 0
M  V30 828 O 79.3473 1.80132 -0.205441 0
M  V30 829 C 79.3953 0.69956 -3.53749 0
M  V30 830 O 78.4993 1.8021 -3.70942 0
M  V30 831 H 77.8403 0.0518962 -0.661969 0
M  V30 832 H 80.3703 -0.469954 -1.9913 0
M  V30 833 H 80.3803 0.982649 -3.9599 0
M  V30 834 H 79.0553 -0.152864 -4.15619 0
M  V30 835 H 77.6323 1.51794 -3.40607 0
M  V30 836 N 79.8174 1.5752 -0.0501392 0
M  V30 837 C 81.2334 1.56631 0.306402 0
M  V30 838 C 81.4334 1.0577 1.71508 0
M  V30 839 O 80.4894 0.713837 2.422 0
M  V30 840 C 81.8024 3.00393 0.135811 0
M  V30 841 C 83.3504 3.12315 0.206993 0
M  V30 842 C 83.8254 4.57954 0.064944 0
M  V30 843 N 85.3164 4.63041 0.121254 0
M  V30 844 C 86.0514 5.73389 0.0354381 0
M  V30 845 N 85.5474 6.92724 -0.102666 0
M  V30 846 N 87.3404 5.62026 0.090946 0
M  V30 847 H 79.4914 1.88903 -0.971046 0
M  V30 848 H 81.7544 0.869876 -0.376855 0
M  V30 849 H 81.4604 3.41635 -0.835384 0
M  V30 850 H 81.3344 3.66373 0.897275 0
M  V30 851 H 83.7214 2.70973 1.16866 0
M  V30 852 H 83.8024 2.49016 -0.585208 0
M  V30 853 H 83.4464 4.99981 -0.893394 0
M  V30 854 H 83.3764 5.19258 0.876277 0
M  V30 855 H 85.8674 3.77216 0.227284 0
M  V30 856 H 86.1804 7.72633 -0.160882 0
M  V30 857 H 84.5254 6.94864 -0.137737 0
M  V30 858 H 87.7164 4.67684 0.197388 0
M  V30 859 H 87.8894 6.47997 0.0206089 0
M  V30 860 N 81.2955 -0.223234 1.56011 0
M  V30 861 C 82.2055 -1.29766 1.95443 0
M  V30 862 C 83.2215 -1.51373 0.858028 0
M  V30 863 O 84.3975 -1.64536 1.16146 0
M  V30 864 C 81.4625 -2.62772 2.26167 0
M  V30 865 C 80.5235 -2.49482 3.49367 0
M  V30 866 C 79.7565 -3.76145 3.78616 0
M  V30 867 O 79.9795 -4.79087 3.09568 0
M  V30 868 O 78.9135 -3.73358 4.72109 0
M  V30 869 H 82.7395 -0.99309 2.87004 0
M  V30 870 H 80.3245 -0.425958 1.43199 0
M  V30 871 H 82.2065 -3.41327 2.47131 0
M  V30 872 H 80.8815 -2.92913 1.37781 0
M  V30 873 H 79.7885 -1.69133 3.33684 0
M  V30 874 H 81.1215 -2.2428 4.38131 0
M  V30 875 N 82.7736 -1.49793 -0.48987 0
M  V30 876 C 84.0196 -1.60078 -1.24511 0
M  V30 877 C 84.3526 -0.291608 -1.91998 0
M  V30 878 O 83.6276 0.705647 -1.81248 0
M  V30 879 C 83.9106 -2.76791 -2.30345 0
M  V30 880 C 83.7636 -4.17535 -1.67286 0
M  V30 881 C 85.0826 -2.89111 -3.31817 0
M  V30 882 H 82.2016 -0.582645 -0.451324 0
M  V30 883 H 84.8436 -1.82117 -0.541612 0
M  V30 884 H 82.9936 -2.5813 -2.90346 0
M  V30 885 H 84.6656 -4.4774 -1.11026 0
M  V30 886 H 82.9086 -4.22665 -0.976577 0
M  V30 887 H 83.5796 -4.95094 -2.44103 0
M  V30 888 H 86.0556 -3.06133 -2.81819 0
M  V30 889 H 84.9316 -3.72433 -4.03219 0
M  V30 890 H 85.1926 -1.9893 -3.94815 0
M  V30 891 N 84.2517 0.741722 -1.39055 0
M  V30 892 C 85.4977 1.50336 -1.36113 0
M  V30 893 C 85.8307 1.94148 0.0450796 0
M  V30 894 O 85.1057 1.66301 1.00868 0
M  V30 895 C 85.3887 2.74773 -2.32749 0
M  V30 896 C 85.2417 2.37023 -3.82283 0
M  V30 897 C 86.5607 3.76846 -2.27322 0
M  V30 898 H 83.6797 0.545351 -0.495743 0
M  V30 899 H 86.3217 0.848624 -1.69995 0
M  V30 900 H 84.4717 3.30639 -2.03986 0
M  V30 901 H 86.1437 1.8684 -4.21768 0
M  V30 902 H 84.3867 1.69334 -3.99385 0
M  V30 903 H 85.0577 3.26104 -4.45376 0
M  V30 904 H 87.5337 3.30548 -2.5274 0
M  V30 905 H 86.4097 4.6159 -2.97028 0
M  V30 906 H 86.6707 4.23286 -1.27599 0
M  V30 907 N 85.7298 1.2412 0.971189 0
M  V30 908 C 86.9548 1.10667 1.75407 0
M  V30 909 C 87.3798 -0.337048 1.85056 0
M  V30 910 O 86.7378 -1.24396 1.31892 0
M  V30 911 C 86.7858 1.74726 3.15441 0
M  V30 912 O 85.8898 1.01566 3.99697 0
M  V30 913 H 85.2308 0.387341 0.539317 0
M  V30 914 H 87.7608 1.64358 1.2185 0
M  V30 915 H 87.7708 1.80341 3.6598 0
M  V30 916 H 86.4458 2.79773 3.07734 0
M  V30 917 H 85.0228 1.03713 3.58187 0
M  V30 918 N 87.2079 -1.17134 1.05439 0
M  V30 919 C 88.1579 -2.1919 0.627675 0
M  V30 920 C 89.1419 -1.57328 -0.337147 0
M  V30 921 O 90.3339 -1.76329 -0.153976 0
M  V30 922 C 87.4629 -3.43299 0.00651435 0
M  V30 923 C 86.5489 -4.12255 0.995312 0
M  V30 924 N 86.9399 -4.56997 2.16765 0
M  V30 925 C 85.2379 -4.38316 0.824336 0
M  V30 926 C 85.9389 -5.10239 2.7934 0
M  V30 927 N 84.9149 -5.02595 2.07122 0
M  V30 928 H 88.7169 -2.5149 1.52086 0
M  V30 929 H 86.2309 -1.33491 0.924868 0
M  V30 930 H 88.2279 -4.15693 -0.316965 0
M  V30 931 H 86.8879 -3.1249 -0.882033 0
M  V30 932 H 87.8989 -4.51006 2.54587 0
M  V30 933 H 84.5759 -4.17498 -0.0129526 0
M  V30 934 H 85.9659 -5.54961 3.78772 0
M  V30 935 N 88.686 -0.835752 -1.33615 0
M  V30 936 C 89.932 -0.430596 -1.98176 0
M  V30 937 C 90.265 1.00684 -1.66061 0
M  V30 938 O 89.54 1.70339 -0.938877 0
M  V30 939 C 89.823 -0.648065 -3.5422 0
M  V30 940 C 89.676 -2.13255 -3.96033 0
M  V30 941 C 90.995 -0.0922113 -4.40003 0
M  V30 942 H 88.114 -0.157924 -0.719881 0
M  V30 943 H 90.756 -1.05069 -1.58305 0
M  V30 944 H 88.906 -0.120237 -3.88314 0
M  V30 945 H 90.578 -2.725 -3.72211 0
M  V30 946 H 88.821 -2.61823 -3.45878 0
M  V30 947 H 89.492 -2.23547 -5.04708 0
M  V30 948 H 91.968 -0.543343 -4.12537 0
M  V30 949 H 90.844 -0.274083 -5.48215 0
M  V30 950 H 91.105 1.00378 -4.30554 0
M  V30 951 N 90.1641 1.46063 -0.591896 0
M  V30 952 C 91.4131 2.01547 -0.0786637 0
M  V30 953 C 91.7261 1.46796 1.29268 0
M  V30 954 O 92.9321 1.94157 1.89777 0
M  V30 955 C 91.3881 3.59787 -0.0900024 0
M  V30 956 C 90.9961 4.23534 -1.46023 0
M  V30 957 C 92.7401 4.22895 0.368806 0
M  V30 958 C 90.6471 5.73881 -1.4288 0
M  V30 959 H 89.5771 0.753564 -0.0256388 0
M  V30 960 H 92.2281 1.677 -0.744905 0
M  V30 961 H 90.6101 3.90752 0.642586 0
M  V30 962 H 91.7841 4.04167 -2.21328 0
M  V30 963 H 90.0991 3.72558 -1.85982 0
M  V30 964 H 92.6961 5.33116 0.411258 0
M  V30 965 H 93.0391 3.9247 1.38827 0
M  V30 966 H 93.5721 3.9659 -0.31001 0
M  V30 967 H 90.3111 6.0898 -2.42536 0
M  V30 968 H 89.8311 5.95486 -0.718095 0
M  V30 969 H 91.5101 6.36776 -1.14565 0
M  V30 970 N 91.6422 0.330177 1.54103 0
M  V30 971 C 92.5892 -0.532762 2.24567 0
M  V30 972 C 93.5592 -1.10635 1.23892 0
M  V30 973 O 94.7442 -1.14546 1.5259 0
M  V30 974 C 91.8842 -1.6845 3.01195 0
M  V30 975 C 90.9972 -1.13951 4.167 0
M  V30 976 C 90.1322 -2.25746 4.80845 0
M  V30 977 C 89.1712 -1.6853 5.88442 0
M  V30 978 N 88.3082 -2.74014 6.46421 0
M  V30 979 H 93.1482 0.0746905 2.97906 0
M  V30 980 H 90.6852 0.048632 1.4702 0
M  V30 981 H 92.6432 -2.36234 3.43874 0
M  V30 982 H 91.2732 -2.26314 2.30178 0
M  V30 983 H 90.3252 -0.35301 3.78758 0
M  V30 984 H 91.6372 -0.680892 4.94131 0
M  V30 985 H 90.7912 -3.01422 5.26526 0
M  V30 986 H 89.5302 -2.74947 4.0281 0
M  V30 987 H 88.5352 -0.913543 5.42157 0
M  V30 988 H 89.7602 -1.20198 6.68378 0
M  V30 989 H 87.7062 -3.22494 5.71256 0
M  V30 990 H 87.6232 -2.32735 7.19285 0
M  V30 991 H 88.8912 -3.49499 6.96757 0
M  V30 992 N 93.1203 -1.57491 0.0584922 0
M  V30 993 C 94.0523 -2.08916 -0.942694 0
M  V30 994 C 95.0653 -1.0185 -1.27006 0
M  V30 995 O 96.2543 -1.29398 -1.22957 0
M  V30 996 C 93.3543 -2.52341 -2.26224 0
M  V30 997 C 92.5273 -3.82827 -2.1157 0
M  V30 998 C 91.5863 -4.12487 -3.26712 0
M  V30 999 O 90.6123 -4.82295 -3.02292 0
M  V30 1000 N 91.8143 -3.64978 -4.5141 0
M  V30 1001 H 94.5793 -2.95437 -0.503722 0
M  V30 1002 H 92.1403 -1.61397 -0.12757 0
M  V30 1003 H 94.1323 -2.69254 -3.02133 0
M  V30 1004 H 92.7023 -1.7103 -2.61663 0
M  V30 1005 H 91.9223 -3.75425 -1.20208 0
M  V30 1006 H 93.2103 -4.68263 -1.99015 0
M  V30 1007 H 92.6083 -3.08558 -4.7414 0
M  V30 1008 H 91.1653 -3.87115 -5.2439 0
M  V30 1009 N 94.5984 0.214957 -1.56127 0
M  V30 1010 C 95.8464 0.936518 -1.79091 0
M  V30 1011 C 96.1674 1.84606 -0.628148 0
M  V30 1012 O 95.4374 1.92664 0.35462 0
M  V30 1013 H 94.0174 0.3488 -0.660566 0
M  V30 1014 H 96.6794 0.22523 -1.93594 0
M  V30 1015 H 95.7754 1.53943 -2.71492 0
M  V30 1016 N 96.0765 1.50051 0.48192 0
M  V30 1017 C 97.0235 1.68122 1.58125 0
M  V30 1018 C 97.9935 0.522545 1.57666 0
M  V30 1019 O 99.1785 0.751844 1.75362 0
M  V30 1020 C 96.3185 1.77142 2.96167 0
M  V30 1021 C 95.4315 3.0444 3.06497 0
M  V30 1022 C 94.5665 3.04321 4.35387 0
M  V30 1023 C 93.6055 4.26118 4.3942 0
M  V30 1024 N 92.7425 4.238 5.59766 0
M  V30 1025 H 97.5825 2.6198 1.42022 0
M  V30 1026 H 95.1195 1.29877 0.690687 0
M  V30 1027 H 97.0775 1.80352 3.76203 0
M  V30 1028 H 95.7075 0.867329 3.1093 0
M  V30 1029 H 94.7595 3.10752 2.19402 0
M  V30 1030 H 96.0715 3.94426 3.05336 0
M  V30 1031 H 95.2255 3.062 5.23762 0
M  V30 1032 H 93.9645 2.12147 4.39141 0
M  V30 1033 H 92.9695 4.24463 3.49444 0
M  V30 1034 H 94.1945 5.19507 4.37366 0
M  V30 1035 H 92.1405 3.34474 5.64326 0
M  V30 1036 H 92.0575 5.07542 5.60301 0
M  V30 1037 H 93.3255 4.2981 6.50295 0
M  V30 1038 N 97.5546 -0.734337 1.39446 0
M  V30 1039 C 98.8036 -1.48937 1.36017 0
M  V30 1040 C 99.1166 -1.95557 -0.0409005 0
M  V30 1041 O 100.323 -2.70779 -0.19778 0
M  V30 1042 C 98.7786 -2.69125 2.38955 0
M  V30 1043 C 98.3866 -2.29452 3.8478 0
M  V30 1044 C 100.131 -3.46944 2.44603 0
M  V30 1045 C 98.0376 -3.46366 4.79358 0
M  V30 1046 H 96.9676 -0.559296 0.505672 0
M  V30 1047 H 99.6186 -0.800983 1.65095 0
M  V30 1048 H 98.0006 -3.40041 2.02948 0
M  V30 1049 H 99.1746 -1.66077 4.29831 0
M  V30 1050 H 97.4896 -1.64723 3.82433 0
M  V30 1051 H 100.087 -4.33907 3.12456 0
M  V30 1052 H 100.43 -3.89454 1.47076 0
M  V30 1053 H 100.963 -2.83056 2.79507 0
M  V30 1054 H 97.7016 -3.08905 5.78151 0
M  V30 1055 H 97.2216 -4.08719 4.38986 0
M  V30 1056 H 98.9006 -4.12691 4.98292 0
M  V30 1057 N 99.0327 -1.24633 -0.964593 0
M  V30 1058 C 100.279 -1.08949 -1.71049 0
M  V30 1059 C 100.612 0.370302 -1.90637 0
M  V30 1060 O 99.8867 1.27349 -1.47011 0
M  V30 1061 C 100.17 -1.83329 -3.0994 0
M  V30 1062 C 100.023 -3.37077 -2.97824 0
M  V30 1063 C 101.342 -1.60846 -4.09654 0
M  V30 1064 H 98.4607 -0.397178 -0.620821 0
M  V30 1065 H 101.103 -1.5334 -1.12191 0
M  V30 1066 H 99.2527 -1.45597 -3.60186 0
M  V30 1067 H 100.925 -3.84425 -2.5498 0
M  V30 1068 H 99.1677 -3.65298 -2.33965 0
M  V30 1069 H 99.8387 -3.84324 -3.96231 0
M  V30 1070 H 102.315 -1.93674 -3.68279 0
M  V30 1071 H 101.191 -2.1534 -5.04896 0
M  V30 1072 H 101.452 -0.547434 -4.38698 0
M  V30 1073 N 100.511 1.16574 -1.06058 0
M  V30 1074 C 101.758 1.87047 -0.775873 0
M  V30 1075 C 102.086 1.81562 0.697534 0
M  V30 1076 O 101.341 1.22445 1.52662 0
M  V30 1077 C 101.64 3.36195 -1.21275 0
M  V30 1078 C 101.306 3.6188 -2.68986 0
M  V30 1079 C 99.9678 3.68599 -3.09335 0
M  V30 1080 C 102.32 3.72648 -3.64394 0
M  V30 1081 C 99.6478 3.83584 -4.43937 0
M  V30 1082 C 102 3.89154 -4.98741 0
M  V30 1083 C 100.664 3.94114 -5.3873 0
M  V30 1084 H 99.9338 0.684452 -0.283912 0
M  V30 1085 H 102.581 1.37853 -1.32925 0
M  V30 1086 H 100.886 3.87505 -0.578528 0
M  V30 1087 H 102.583 3.89103 -0.969542 0
M  V30 1088 H 99.1728 3.57281 -2.36744 0
M  V30 1089 H 103.357 3.66769 -3.34356 0
M  V30 1090 H 98.6128 3.85677 -4.74409 0
M  V30 1091 H 102.787 3.96427 -5.72554 0
M  V30 1092 H 100.414 4.05478 -6.43033 0
M  V30 1093 N 101.989 0.842826 1.3317 0
M  V30 1094 C 103.235 0.441099 1.97945 0
M  V30 1095 C 103.568 -0.998024 1.66593 0
M  V30 1096 O 102.843 -1.69839 0.947898 0
M  V30 1097 C 103.126 0.666841 3.53872 0
M  V30 1098 C 102.979 2.15352 3.94897 0
M  V30 1099 C 104.298 0.115544 4.39948 0
M  V30 1100 H 101.417 0.161739 0.719034 0
M  V30 1101 H 104.059 1.05907 1.57746 0
M  V30 1102 H 102.209 0.140828 3.88245 0
M  V30 1103 H 103.881 2.7447 3.70761 0
M  V30 1104 H 102.124 2.63653 3.44484 0
M  V30 1105 H 102.795 2.26221 5.03516 0
M  V30 1106 H 105.271 0.565213 4.12243 0
M  V30 1107 H 104.147 0.303152 5.48062 0
M  V30 1108 H 104.408 -0.980935 4.3108 0
M  V30 1109 N 103.467 -1.45747 0.599634 0
M  V30 1110 C 104.397 -2.33235 -0.111306 0
M  V30 1111 C 105.378 -1.46359 -0.866781 0
M  V30 1112 O 106.563 -1.75146 -0.838904 0
M  V30 1113 C 103.693 -3.28932 -1.11451 0
M  V30 1114 C 102.647 -4.25381 -0.472772 0
M  V30 1115 C 101.973 -5.1071 -1.58365 0
M  V30 1116 C 103.273 -5.18831 0.600948 0
M  V30 1117 H 104.967 -2.92927 0.61919 0
M  V30 1118 H 102.513 -1.40857 0.299215 0
M  V30 1119 H 104.466 -3.89002 -1.62036 0
M  V30 1120 H 103.19 -2.67381 -1.8755 0
M  V30 1121 H 101.849 -3.66598 0.0121472 0
M  V30 1122 H 101.497 -4.45533 -2.33473 0
M  V30 1123 H 101.197 -5.7604 -1.15982 0
M  V30 1124 H 102.721 -5.73647 -2.09194 0
M  V30 1125 H 104.135 -5.73019 0.179491 0
M  V30 1126 H 102.532 -5.92595 0.946076 0
M  V30 1127 H 103.602 -4.6174 1.48068 0
M  V30 1128 N 104.945 -0.338344 -1.53925 0
M  V30 1129 C 106.17 0.263987 -2.05713 0
M  V30 1130 C 106.595 1.43847 -1.21201 0
M  V30 1131 O 105.953 1.79904 -0.224535 0
M  V30 1132 C 106.001 0.662 -3.54471 0
M  V30 1133 O 105.105 1.76265 -3.72833 0
M  V30 1134 H 104.446 0.0448722 -0.662482 0
M  V30 1135 H 106.976 -0.491048 -1.9862 0
M  V30 1136 H 106.986 0.940594 -3.9701 0
M  V30 1137 H 105.661 -0.196937 -4.15433 0
M  V30 1138 H 104.238 1.48173 -3.42198 0
M  V30 1139 N 106.423 1.57458 -0.0668435 0
M  V30 1140 C 107.648 1.9804 0.616027 0
M  V30 1141 C 108.073 0.944771 1.62652 0
M  V30 1142 O 107.431 -0.0902094 1.81075 0
M  V30 1143 C 107.479 3.37665 1.26549 0
M  V30 1144 O 106.583 3.36701 2.38131 0
M  V30 1145 H 105.924 0.644719 0.158849 0
M  V30 1146 H 108.454 2.04121 -0.139891 0
M  V30 1147 H 108.464 3.7474 1.6135 0
M  V30 1148 H 107.139 4.12573 0.525016 0
M  V30 1149 H 105.716 3.1139 2.0516 0
M  V30 1150 N 107.901 -0.206675 1.56239 0
M  V30 1151 C 108.864 -1.23976 1.92776 0
M  V30 1152 C 109.864 -1.39041 0.807729 0
M  V30 1153 O 111.054 -1.37051 1.0753 0
M  V30 1154 C 108.186 -2.61112 2.19165 0
M  V30 1155 H 109.379 -0.927764 2.85189 0
M  V30 1156 H 106.932 -0.447718 1.4975 0
M  V30 1157 H 107.667 -2.97386 1.29352 0
M  V30 1158 H 107.452 -2.51552 3.00772 0
M  V30 1159 H 108.942 -3.35633 2.48476 0
M  V30 1160 N 109.379 -1.50304 -0.473955 0
M  V30 1161 C 110.309 -1.71886 -1.58042 0
M  V30 1162 C 111.29 -0.567799 -1.60344 0
M  V30 1163 O 112.475 -0.806623 -1.76656 0
M  V30 1164 C 109.605 -1.81036 -2.96384 0
M  V30 1165 C 108.559 -2.962 -3.08949 0
M  V30 1166 C 107.885 -2.9049 -4.48909 0
M  V30 1167 C 109.185 -4.36752 -2.86434 0
M  V30 1168 H 110.879 -2.64527 -1.40234 0
M  V30 1169 H 108.425 -1.27295 -0.673201 0
M  V30 1170 H 110.378 -1.94719 -3.73714 0
M  V30 1171 H 109.102 -0.850147 -3.15341 0
M  V30 1172 H 107.761 -2.82164 -2.3405 0
M  V30 1173 H 107.409 -1.92321 -4.64781 0
M  V30 1174 H 107.109 -3.67802 -4.58253 0
M  V30 1175 H 108.633 -3.06218 -5.28264 0
M  V30 1176 H 110.047 -4.5133 -3.53517 0
M  V30 1177 H 108.444 -5.15493 -3.07225 0
M  V30 1178 H 109.514 -4.49321 -1.82316 0
M  V30 1179 N 110.857 0.726932 -1.39834 0
M  V30 1180 C 111.805 1.86235 -1.39353 0
M  V30 1181 C 112.799 1.67144 -0.275555 0
M  V30 1182 O 114.005 1.74387 -0.44601 0
M  V30 1183 H 110.38 0.613174 -0.43534 0
M  V30 1184 H 112.351 1.83756 -2.35109 0
M  V30 1185 C 111.1 3.23995 -1.26185 0
M  V30 1186 H 110.423 3.39285 -2.11484 0
M  V30 1187 H 111.863 4.03609 -1.29907 0
M  V30 1188 C 110.322 3.36888 0.0290018 0
M  V30 1189 O 110.852 3.89152 0.99619 0
M  V30 1190 N 109.058 2.90446 0.0947437 0
M  V30 1191 H 108.605 2.48102 -0.693035 0
M  V30 1192 H 108.563 2.99451 0.957932 0
M  V30 1193 N 112.336 1.25143 0.95797 0
M  V30 1194 C 113.747 1.08851 1.51685 0
M  V30 1195 C 114.098 -0.33687 1.93286 0
M  V30 1196 O 113.223 -1.22644 1.7829 0
M  V30 1197 C 113.818 1.96978 2.75654 0
M  V30 1198 C 112.377 1.84881 3.27866 0
M  V30 1199 C 111.524 1.91329 2.0072 0
M  V30 1200 H 114.475 1.38478 0.77522 0
M  V30 1201 H 114.496 1.5078 3.4935 0
M  V30 1202 H 114.008 3.00712 2.45345 0
M  V30 1203 H 112.109 0.840182 3.63004 0
M  V30 1204 H 112.222 2.6951 3.96107 0
M  V30 1205 H 110.586 1.35174 2.15871 0
M  V30 1206 H 111.369 2.96661 1.72764 0
M  V30 1207 N 113.814 -1.1601 1.06675 0
M  V30 1208 C 115.06 -1.87145 0.796766 0
M  V30 1209 C 115.415 -1.8037 -0.669658 0
M  V30 1210 O 114.708 -1.21116 -1.48463 0
M  V30 1211 C 114.902 -3.35547 1.23057 0
M  V30 1212 C 114.731 -3.56769 2.73762 0
M  V30 1213 C 113.501 -3.72635 3.41279 0
M  V30 1214 C 115.699 -3.55166 3.7197 0
M  V30 1215 N 113.681 -3.81845 4.80695 0
M  V30 1216 C 115.052 -3.70406 4.97191 0
M  V30 1217 C 117.107 -3.384 3.65226 0
M  V30 1218 C 115.81 -3.70615 6.16471 0
M  V30 1219 C 117.836 -3.39904 4.83962 0
M  V30 1220 C 117.198 -3.55667 6.08013 0
M  V30 1221 H 113.297 -0.702267 0.344014 0
M  V30 1222 H 115.881 -1.39165 1.36166 0
M  V30 1223 H 114.052 -3.82159 0.693456 0
M  V30 1224 H 115.784 -3.94363 0.908844 0
M  V30 1225 H 112.539 -3.73121 2.91681 0
M  V30 1226 H 112.963 -3.90209 5.53232 0
M  V30 1227 H 117.605 -3.25138 2.70269 0
M  V30 1228 H 115.323 -3.82658 7.11757 0
M  V30 1229 H 118.909 -3.28169 4.80413 0
M  V30 1230 H 117.789 -3.56755 6.98352 0
M  V30 1231 N 115.292 -0.849877 -1.32721 0
M  V30 1232 C 116.24 -0.279745 -2.30912 0
M  V30 1233 C 117.234 0.594278 -1.58634 0
M  V30 1234 O 118.44 0.482613 -1.73409 0
M  V30 1235 H 114.815 -0.0717521 -0.748569 0
M  V30 1236 H 116.786 -1.12222 -2.76494 0
M  V30 1237 C 115.535 0.521108 -3.43773 0
M  V30 1238 H 114.858 -0.142141 -3.99547 0
M  V30 1239 H 116.298 0.885693 -4.14646 0
M  V30 1240 C 114.757 1.70442 -2.90605 0
M  V30 1241 O 115.287 2.8034 -2.87702 0
M  V30 1242 N 113.493 1.52991 -2.47067 0
M  V30 1243 H 113.04 0.635914 -2.49628 0
M  V30 1244 H 112.998 2.32311 -2.11847 0
M  V30 1245 N 116.77 1.45427 -0.607355 0
M  V30 1246 C 117.717 2.3053 0.111625 0
M  V30 1247 C 118.687 1.4209 0.860216 0
M  V30 1248 O 119.872 1.71019 0.845998 0
M  V30 1249 C 117.012 3.26992 1.10319 0
M  V30 1250 C 116.125 4.30535 0.355493 0
M  V30 1251 C 115.26 5.14105 1.33676 0
M  V30 1252 C 114.299 6.09376 0.576862 0
M  V30 1253 N 113.436 6.85727 1.5074 0
M  V30 1254 H 118.276 2.91477 -0.620093 0
M  V30 1255 H 115.813 1.43631 -0.317594 0
M  V30 1256 H 117.771 3.81385 1.6912 0
M  V30 1257 H 116.401 2.67799 1.80232 0
M  V30 1258 H 115.453 3.78805 -0.348023 0
M  V30 1259 H 116.765 4.98235 -0.237423 0
M  V30 1260 H 115.919 5.72897 1.99684 0
M  V30 1261 H 114.658 4.46423 1.9636 0
M  V30 1262 H 113.663 5.49715 -0.0968519 0
M  V30 1263 H 114.888 6.79085 -0.0449341 0
M  V30 1264 H 112.834 6.20735 2.12189 0
M  V30 1265 H 112.751 7.49778 0.967913 0
M  V30 1266 H 114.019 7.4906 2.15706 0
M  V30 1267 N 118.248 0.346503 1.53744 0
M  V30 1268 C 119.158 -0.517293 2.28826 0
M  V30 1269 C 120.174 -1.10935 1.3405 0
M  V30 1270 O 121.35 -1.1244 1.6709 0
M  V30 1271 C 118.415 -1.65098 3.04866 0
M  V30 1272 C 117.476 -1.0884 4.15274 0
M  V30 1273 C 116.709 -2.16806 4.87679 0
M  V30 1274 O 116.932 -3.3758 4.59778 0
M  V30 1275 O 115.866 -1.80934 5.74061 0
M  V30 1276 H 119.692 0.0931396 3.03557 0
M  V30 1277 H 117.277 0.111458 1.48984 0
M  V30 1278 H 119.159 -2.31053 3.5241 0
M  V30 1279 H 117.834 -2.24717 2.32989 0
M  V30 1280 H 116.741 -0.3933 3.72027 0
M  V30 1281 H 118.074 -0.537036 4.89261 0
M  V30 1282 N 119.726 -1.57421 0.075193 0
M  V30 1283 C 120.659 -2.08528 -0.926904 0
M  V30 1284 C 121.637 -0.991171 -1.28898 0
M  V30 1285 O 122.821 -1.26479 -1.39769 0
M  V30 1286 C 119.948 -2.54576 -2.23402 0
M  V30 1287 C 118.994 -3.75454 -2.02327 0
M  V30 1288 S 119.827 -5.19989 -1.27951 0
M  V30 1289 C 120.983 -5.69372 -2.59935 0
M  V30 1290 H 121.216 -2.932 -0.492048 0
M  V30 1291 H 118.749 -1.53785 -0.137651 0
M  V30 1292 H 120.707 -2.81767 -2.98526 0
M  V30 1293 H 119.368 -1.70166 -2.64012 0
M  V30 1294 H 118.561 -4.05675 -2.99071 0
M  V30 1295 H 118.163 -3.48654 -1.35339 0
M  V30 1296 H 120.455 -5.76424 -3.56008 0
M  V30 1297 H 121.398 -6.68207 -2.34319 0
M  V30 1298 H 121.806 -4.97205 -2.67296 0
M  V30 1299 N 121.204 0.198386 -1.56346 0
M  V30 1300 C 122.452 0.91747 -1.80075 0
M  V30 1301 C 122.773 1.83929 -0.647692 0
M  V30 1302 O 122.043 1.93029 0.334166 0
M  V30 1303 H 120.623 0.341774 -0.664228 0
M  V30 1304 H 123.285 0.204684 -1.93822 0
M  V30 1305 H 122.381 1.51055 -2.7311 0
M  V30 1306 N 122.682 1.50554 0.465978 0
M  V30 1307 C 123.959 1.5232 1.22712 0
M  V30 1308 C 124.339 0.270807 2.09356 0
M  V30 1309 O 123.687 -0.745541 2.15995 0
M  V30 1310 C 123.897 2.82175 2.05374 0
M  V30 1311 C 125.245 3.33033 2.6339 0
M  V30 1312 O 126.269 2.83531 2.15612 0
M  V30 1313 O 125.128 4.19336 3.50456 0
M  V30 1314 H 122.222 0.611183 0.557122 0
M  V30 1315 H 124.768 1.62847 0.477381 0
M  V30 1316 H 123.54 3.64797 1.41558 0
M  V30 1317 H 123.163 2.74675 2.87471 0
M  V30 1318 N 124.16 -0.719506 1.40217 0
M  V30 1319 C 125.11 -1.8251 1.36653 0
M  V30 1320 C 126.094 -1.59028 0.244732 0
M  V30 1321 O 127.286 -1.70268 0.483524 0
M  V30 1322 C 124.415 -3.20599 1.22763 0
M  V30 1323 C 123.501 -3.49858 2.39708 0
M  V30 1324 N 123.892 -3.49957 3.6519 0
M  V30 1325 C 122.19 -3.80297 2.33002 0
M  V30 1326 C 122.891 -3.77449 4.42614 0
M  V30 1327 N 121.867 -3.96002 3.72402 0
M  V30 1328 H 125.669 -1.80914 2.31619 0
M  V30 1329 H 123.183 -0.918455 1.33933 0
M  V30 1330 H 125.18 -3.99766 1.18292 0
M  V30 1331 H 123.84 -3.23424 0.287614 0
M  V30 1332 H 124.851 -3.309 3.98404 0
M  V30 1333 H 121.528 -3.90635 1.47346 0
M  V30 1334 H 122.918 -3.83863 5.51451 0
M  V30 1335 N 125.638 -1.25649 -0.95132 0
M  V30 1336 C 126.568 -1.08808 -2.06599 0
M  V30 1337 C 127.549 0.00382547 -1.701 0
M  V30 1338 O 128.734 -0.166325 -1.93486 0
M  V30 1339 C 125.864 -0.709542 -3.39975 0
M  V30 1340 C 124.818 -1.75206 -3.90496 0
M  V30 1341 C 124.144 -1.22811 -5.20405 0
M  V30 1342 C 125.444 -3.15153 -4.16504 0
M  V30 1343 H 127.138 -2.02048 -2.20946 0
M  V30 1344 H 124.684 -0.972835 -1.06169 0
M  V30 1345 H 126.637 -0.578649 -4.17408 0
M  V30 1346 H 125.361 0.258556 -3.25575 0
M  V30 1347 H 124.02 -1.87145 -3.15234 0
M  V30 1348 H 123.668 -0.250145 -5.02378 0
M  V30 1349 H 123.368 -1.92492 -5.55176 0
M  V30 1350 H 124.892 -1.10968 -6.00432 0
M  V30 1351 H 126.306 -3.06349 -4.84586 0
M  V30 1352 H 124.703 -3.82333 -4.62538 0
M  V30 1353 H 125.773 -3.61966 -3.22658 0
M  V30 1354 N 127.117 1.15442 -1.07289 0
M  V30 1355 C 128.363 1.86489 -0.796846 0
M  V30 1356 C 128.696 1.82078 0.675371 0
M  V30 1357 O 127.971 1.24346 1.4956 0
M  V30 1358 C 128.254 3.35626 -1.30489 0
M  V30 1359 C 128.107 3.48673 -2.84161 0
M  V30 1360 C 129.426 4.30357 -0.920907 0
M  V30 1361 H 126.545 0.677144 -0.290939 0
M  V30 1362 H 129.187 1.35633 -1.33056 0
M  V30 1363 H 127.337 3.79068 -0.850883 0
M  V30 1364 H 129.009 3.14099 -3.37846 0
M  V30 1365 H 127.252 2.90253 -3.22391 0
M  V30 1366 H 127.923 4.53453 -3.14777 0
M  V30 1367 H 130.399 3.94871 -1.3121 0
M  V30 1368 H 129.275 5.33193 -1.30372 0
M  V30 1369 H 129.536 4.4176 0.173226 0
M  V30 1370 N 128.595 0.856903 1.32268 0
M  V30 1371 C 129.542 0.301172 2.28827 0
M  V30 1372 C 130.512 -0.593104 1.5515 0
M  V30 1373 O 131.697 -0.527537 1.83362 0
M  V30 1374 C 128.837 -0.502523 3.41422 0
M  V30 1375 C 127.95 0.417797 4.29975 0
M  V30 1376 C 127.085 -0.398749 5.29701 0
M  V30 1377 C 126.124 0.518827 6.09897 0
M  V30 1378 N 125.261 -0.260674 7.01616 0
M  V30 1379 H 130.101 1.12983 2.75751 0
M  V30 1380 H 127.638 0.568582 1.35667 0
M  V30 1381 H 129.596 -0.984141 4.05426 0
M  V30 1382 H 128.226 -1.29599 2.95642 0
M  V30 1383 H 127.278 1.01781 3.66531 0
M  V30 1384 H 128.59 1.12191 4.86019 0
M  V30 1385 H 127.744 -0.943435 5.9932 0
M  V30 1386 H 126.483 -1.13622 4.7428 0
M  V30 1387 H 125.488 1.07538 5.39181 0
M  V30 1388 H 126.713 1.25495 6.67404 0
M  V30 1389 H 124.659 -0.981198 6.4862 0
M  V30 1390 H 124.576 0.384364 7.55022 0
M  V30 1391 H 125.844 -0.787014 7.75517 0
M  V30 1392 N 130.073 -1.45103 0.615059 0
M  V30 1393 C 131.023 -2.27679 -0.120966 0
M  V30 1394 C 132.007 -1.3775 -0.831491 0
M  V30 1395 O 133.199 -1.61683 -0.720249 0
M  V30 1396 C 130.328 -3.24767 -1.1127 0
M  V30 1397 C 129.414 -4.22184 -0.402627 0
M  V30 1398 N 129.805 -5.02692 0.559884 0
M  V30 1399 C 128.103 -4.4125 -0.649202 0
M  V30 1400 C 128.804 -5.73421 0.977942 0
M  V30 1401 N 127.78 -5.42657 0.320104 0
M  V30 1402 H 131.582 -2.87325 0.618181 0
M  V30 1403 H 129.096 -1.56345 0.439304 0
M  V30 1404 H 131.093 -3.82666 -1.65446 0
M  V30 1405 H 129.753 -2.66682 -1.85232 0
M  V30 1406 H 130.764 -5.09354 0.936976 0
M  V30 1407 H 127.441 -3.9428 -1.37293 0
M  V30 1408 H 128.831 -6.48107 1.77222 0
M  V30 1409 N 131.551 -0.354651 -1.53558 0
M  V30 1410 C 132.799 0.237972 -2.00694 0
M  V30 1411 C 133.12 1.50173 -1.24391 0
M  V30 1412 O 132.39 1.92673 -0.354135 0
M  V30 1413 H 130.97 0.0909256 -0.741446 0
M  V30 1414 H 133.632 -0.478368 -1.88938 0
M  V30 1415 H 132.728 0.47264 -3.085 0
M  V30 1416 N 133.029 1.57378 -0.0835403 0
M  V30 1417 C 134.306 1.85363 0.624507 0
M  V30 1418 C 134.686 0.978239 1.87066 0
M  V30 1419 O 134.034 0.0475908 2.2845 0
M  V30 1420 C 134.244 3.35795 0.950947 0
M  V30 1421 C 135.592 4.03581 1.31939 0
M  V30 1422 O 136.616 3.40609 1.04232 0
M  V30 1423 O 135.475 5.14672 1.83779 0
M  V30 1424 H 132.569 0.766162 0.311329 0
M  V30 1425 H 135.115 1.69307 -0.115362 0
M  V30 1426 H 133.887 3.91244 0.0663899 0
M  V30 1427 H 133.51 3.57154 1.74719 0
M  V30 1428 N 134.507 -0.190092 1.56449 0
M  V30 1429 C 135.755 -0.907908 1.80559 0
M  V30 1430 C 136.076 -1.83583 0.657438 0
M  V30 1431 O 135.346 -1.93203 -0.323924 0
M  V30 1432 H 133.926 -0.338247 0.666032 0
M  V30 1433 H 136.588 -0.194403 1.93928 0
M  V30 1434 H 135.684 -1.49604 2.73907 0
M  V30 1435 N 135.985 -1.50799 -0.457987 0
M  V30 1436 C 137.231 -1.62683 -1.21088 0
M  V30 1437 C 137.564 -0.332268 -1.91336 0
M  V30 1438 O 136.839 0.667043 -1.82704 0
M  V30 1439 C 137.122 -2.81615 -2.24422 0
M  V30 1440 C 136.975 -4.20989 -1.58392 0
M  V30 1441 C 138.294 -2.96085 -3.2561 0
M  V30 1442 H 135.413 -0.592087 -0.438864 0
M  V30 1443 H 138.055 -1.83225 -0.50286 0
M  V30 1444 H 136.205 -2.64231 -2.84806 0
M  V30 1445 H 137.877 -4.49994 -1.01504 0
M  V30 1446 H 136.12 -4.24641 -0.886704 0
M  V30 1447 H 136.791 -5.0016 -2.33547 0
M  V30 1448 H 139.267 -3.12042 -2.75262 0
M  V30 1449 H 138.143 -3.80902 -3.95228 0
M  V30 1450 H 138.404 -2.0726 -3.90507 0
M  V30 1451 N 137.463 0.71206 -1.40597 0
M  V30 1452 C 138.41 1.82613 -1.41142 0
M  V30 1453 C 139.38 1.63925 -0.267903 0
M  V30 1454 O 140.565 1.85009 -0.466495 0
M  V30 1455 C 137.705 3.20354 -1.28324 0
M  V30 1456 C 136.818 3.50589 -2.52411 0
M  V30 1457 C 135.953 4.77855 -2.32009 0
M  V30 1458 C 134.992 5.01005 -3.51654 0
M  V30 1459 N 134.129 6.19487 -3.30425 0
M  V30 1460 H 138.969 1.81482 -2.36365 0
M  V30 1461 H 136.506 0.886475 -1.17388 0
M  V30 1462 H 138.464 3.99899 -1.18899 0
M  V30 1463 H 137.094 3.20705 -0.367189 0
M  V30 1464 H 136.146 2.65573 -2.72351 0
M  V30 1465 H 137.458 3.63604 -3.41458 0
M  V30 1466 H 136.612 5.65424 -2.19956 0
M  V30 1467 H 135.351 4.67056 -1.40392 0
M  V30 1468 H 134.356 4.1189 -3.64179 0
M  V30 1469 H 135.581 5.13674 -4.44202 0
M  V30 1470 H 133.527 6.09932 -2.41494 0
M  V30 1471 H 133.444 6.33194 -4.13039 0
M  V30 1472 H 134.712 7.09834 -3.22113 0
M  V30 1473 N 138.941 1.26152 0.944643 0
M  V30 1474 C 140.218 1.02247 1.66748 0
M  V30 1475 C 140.598 -0.448202 2.06287 0
M  V30 1476 O 139.946 -1.42779 1.78399 0
M  V30 1477 C 140.156 1.96788 2.88228 0
M  V30 1478 C 141.504 2.25201 3.59958 0
M  V30 1479 O 142.528 1.94626 2.98327 0
M  V30 1480 O 141.387 2.77242 4.70956 0
M  V30 1481 H 138.481 0.388517 0.730057 0
M  V30 1482 H 141.027 1.37348 0.99668 0
M  V30 1483 H 139.799 2.96047 2.55875 0
M  V30 1484 H 139.422 1.62145 3.63035 0
M  V30 1485 N 140.419 -1.14872 1.07899 0
M  V30 1486 C 141.668 -1.85135 0.800499 0
M  V30 1487 C 141.981 -1.83547 -0.676014 0
M  V30 1488 O 143.187 -2.49548 -1.06948 0
M  V30 1489 C 141.643 -3.3231 1.38197 0
M  V30 1490 C 141.251 -3.42329 2.8899 0
M  V30 1491 C 142.995 -4.0772 1.18174 0
M  V30 1492 C 140.902 -4.83684 3.403 0
M  V30 1493 H 139.832 -0.693563 0.29578 0
M  V30 1494 H 142.483 -1.29532 1.29976 0
M  V30 1495 H 140.865 -3.87618 0.810431 0
M  V30 1496 H 142.039 -2.97097 3.52236 0
M  V30 1497 H 140.354 -2.80369 3.07867 0
M  V30 1498 H 142.951 -5.12049 1.5398 0
M  V30 1499 H 143.294 -4.16124 0.12117 0
M  V30 1500 H 143.827 -3.58696 1.71994 0
M  V30 1501 H 140.566 -4.80465 4.45907 0
M  V30 1502 H 140.086 -5.29474 2.81811 0
M  V30 1503 H 141.765 -5.52558 3.36584 0
M  V30 1504 N 141.898 -0.863906 -1.31812 0
M  V30 1505 C 142.861 -0.320212 -2.26952 0
M  V30 1506 C 143.861 0.525369 -1.51975 0
M  V30 1507 O 145.051 0.335547 -1.70938 0
M  V30 1508 C 142.183 0.545919 -3.365 0
M  V30 1509 H 143.376 -1.16004 -2.76556 0
M  V30 1510 H 140.929 -0.638995 -1.42641 0
M  V30 1511 H 141.664 1.40718 -2.92179 0
M  V30 1512 H 141.449 -0.0594674 -3.92055 0
M  V30 1513 H 142.939 0.918796 -4.07367 0
M  V30 1514 N 143.376 1.44774 -0.622745 0
M  V30 1515 C 144.623 2.02121 -0.1239 0
M  V30 1516 C 144.951 1.48915 1.25118 0
M  V30 1517 O 144.206 0.660045 1.84233 0
M  V30 1518 C 144.505 3.57364 -0.0508323 0
M  V30 1519 C 144.171 4.29787 -1.36358 0
M  V30 1520 C 142.833 4.4929 -1.72314 0
M  V30 1521 C 145.185 4.71062 -2.23048 0
M  V30 1522 C 142.513 5.07325 -2.94682 0
M  V30 1523 C 144.865 5.30452 -3.44679 0
M  V30 1524 C 143.529 5.48175 -3.80868 0
M  V30 1525 H 142.799 0.739612 -0.0453381 0
M  V30 1526 H 145.446 1.73648 -0.807389 0
M  V30 1527 H 143.751 3.85202 0.715991 0
M  V30 1528 H 145.448 3.99456 0.351533 0
M  V30 1529 H 142.038 4.14932 -1.07375 0
M  V30 1530 H 146.222 4.55715 -1.96565 0
M  V30 1531 H 141.478 5.19235 -3.22809 0
M  V30 1532 H 145.652 5.61385 -4.12092 0
M  V30 1533 H 143.279 5.92912 -4.75773 0
M  V30 1534 N 144.854 0.36279 1.53368 0
M  V30 1535 C 145.764 -0.492994 2.29362 0
M  V30 1536 C 146.78 -1.09507 1.35219 0
M  V30 1537 O 147.956 -1.10662 1.68273 0
M  V30 1538 C 145.021 -1.61855 3.066 0
M  V30 1539 C 144.082 -1.04429 4.16405 0
M  V30 1540 C 143.315 -2.11621 4.89951 0
M  V30 1541 O 143.538 -3.32684 4.63333 0
M  V30 1542 O 142.472 -1.74835 5.75948 0
M  V30 1543 H 146.298 0.125331 3.03441 0
M  V30 1544 H 143.883 0.127253 1.48857 0
M  V30 1545 H 145.765 -2.27302 3.54841 0
M  V30 1546 H 144.44 -2.22233 2.3536 0
M  V30 1547 H 143.347 -0.353819 3.72423 0
M  V30 1548 H 144.68 -0.485113 4.89804 0
M  V30 1549 N 146.332 -1.57332 0.0918853 0
M  V30 1550 C 147.578 -1.94524 -0.573425 0
M  V30 1551 C 147.911 -0.973578 -1.68033 0
M  V30 1552 O 147.186 -0.00609226 -1.94499 0
M  V30 1553 C 147.469 -3.41858 -1.13161 0
M  V30 1554 C 147.322 -4.4979 -0.0299747 0
M  V30 1555 C 148.641 -3.90435 -2.03098 0
M  V30 1556 H 145.76 -0.70734 -0.206975 0
M  V30 1557 H 148.402 -1.89309 0.161942 0
M  V30 1558 H 146.552 -3.46433 -1.7583 0
M  V30 1559 H 148.224 -4.57327 0.604112 0
M  V30 1560 H 146.467 -4.291 0.636833 0
M  V30 1561 H 147.138 -5.50069 -0.461287 0
M  V30 1562 H 149.614 -3.87992 -1.50338 0
M  V30 1563 H 148.49 -4.94097 -2.39081 0
M  V30 1564 H 148.751 -3.29541 -2.94712 0
M  V30 1565 N 147.81 0.181792 -1.56548 0
M  V30 1566 C 148.72 1.24538 -1.98815 0
M  V30 1567 C 149.736 1.49045 -0.897861 0
M  V30 1568 O 150.912 1.61399 -1.20467 0
M  V30 1569 C 147.977 2.56683 -2.33055 0
M  V30 1570 C 147.038 2.40131 -3.55859 0
M  V30 1571 C 146.271 3.65975 -3.88456 0
M  V30 1572 O 146.494 4.70711 -3.22161 0
M  V30 1573 O 145.428 3.6071 -4.81842 0
M  V30 1574 H 149.254 0.916647 -2.89536 0
M  V30 1575 H 146.839 0.387842 -1.44278 0
M  V30 1576 H 148.721 3.34655 -2.56094 0
M  V30 1577 H 147.396 2.89157 -1.45498 0
M  V30 1578 H 146.303 1.60226 -3.38051 0
M  V30 1579 H 147.636 2.12585 -4.43924 0
M  V30 1580 N 149.288 1.51039 0.449983 0
M  V30 1581 C 150.565 1.53612 1.21089 0
M  V30 1582 C 150.945 0.292997 2.09057 0
M  V30 1583 O 150.293 -0.72259 2.16774 0
M  V30 1584 C 150.503 2.84337 2.0237 0
M  V30 1585 C 151.851 3.35807 2.59843 0
M  V30 1586 O 152.875 2.85802 2.12593 0
M  V30 1587 O 151.734 4.23029 3.45989 0
M  V30 1588 H 148.828 0.617057 0.550608 0
M  V30 1589 H 151.374 1.63344 0.460082 0
M  V30 1590 H 150.146 3.66278 1.37681 0
M  V30 1591 H 149.769 2.77708 2.84542 0
M  V30 1592 N 150.766 -0.704594 1.40972 0
M  V30 1593 C 152.006 -1.47691 1.41304 0
M  V30 1594 C 152.37 -1.91992 0.0178582 0
M  V30 1595 O 153.571 -2.68599 -0.103996 0
M  V30 1596 C 151.842 -2.66254 2.38419 0
M  V30 1597 S 153.401 -3.55516 2.57204 0
M  V30 1598 H 150.219 -0.504808 0.500689 0
M  V30 1599 H 152.821 -0.822962 1.77335 0
M  V30 1600 H 151.525 -2.31897 3.38603 0
M  V30 1601 H 151.056 -3.3655 2.03711 0
M  V30 1602 H 153.071 -4.61115 1.83268 0
M  V30 1603 N 152.244 -1.26651 -0.937939 0
M  V30 1604 C 153.521 -1.0313 -1.66204 0
M  V30 1605 C 153.901 0.437256 -2.06522 0
M  V30 1606 O 153.249 1.41831 -1.79154 0
M  V30 1607 C 153.459 -1.98314 -2.87181 0
M  V30 1608 C 154.807 -2.27107 -3.58758 0
M  V30 1609 O 155.831 -1.96205 -2.97291 0
M  V30 1610 O 154.69 -2.79736 -4.69479 0
M  V30 1611 H 151.784 -0.392384 -0.727986 0
M  V30 1612 H 154.33 -1.37874 -0.989382 0
M  V30 1613 H 153.102 -2.97399 -2.54302 0
M  V30 1614 H 152.725 -1.64068 -3.6217 0
M  V30 1615 N 153.722 1.14298 -1.08507 0
M  V30 1616 C 154.952 1.88945 -0.835663 0
M  V30 1617 C 155.36 1.78894 0.615928 0
M  V30 1618 O 154.703 1.1468 1.43506 0
M  V30 1619 C 154.765 3.39585 -1.17994 0
M  V30 1620 C 154.429 3.7342 -2.63451 0
M  V30 1621 C 155.426 3.73454 -3.61702 0
M  V30 1622 C 153.111 4.03368 -2.99332 0
M  V30 1623 C 155.105 4.02961 -4.93864 0
M  V30 1624 C 152.792 4.32538 -4.31687 0
M  V30 1625 C 153.79 4.32318 -5.28763 0
M  V30 1626 O 153.478 4.6078 -6.58739 0
M  V30 1627 H 153.21 0.605307 -0.300965 0
M  V30 1628 H 155.764 1.45673 -1.44806 0
M  V30 1629 H 153.994 3.83315 -0.51055 0
M  V30 1630 H 155.683 3.9554 -0.911182 0
M  V30 1631 H 156.449 3.50403 -3.35325 0
M  V30 1632 H 152.328 4.02692 -2.24411 0
M  V30 1633 H 155.872 4.02704 -5.69627 0
M  V30 1634 H 151.769 4.55059 -4.57812 0
M  V30 1635 H 152.537 4.78492 -6.64069 0
M  V30 1636 N 155.201 0.870884 1.31352 0
M  V30 1637 C 156.45 0.478408 1.95944 0
M  V30 1638 C 156.763 -0.974493 1.69597 0
M  V30 1639 O 157.969 -1.47316 2.28058 0
M  V30 1640 C 156.425 0.804609 3.50791 0
M  V30 1641 C 156.033 2.27433 3.85977 0
M  V30 1642 C 157.777 0.480648 4.2177 0
M  V30 1643 C 155.684 2.5429 5.33939 0
M  V30 1644 H 154.614 0.175175 0.733369 0
M  V30 1645 H 157.265 1.06391 1.4951 0
M  V30 1646 H 155.647 0.148347 3.95722 0
M  V30 1647 H 156.821 2.97373 3.52002 0
M  V30 1648 H 155.136 2.56442 3.28065 0
M  V30 1649 H 157.733 0.658519 5.30629 0
M  V30 1650 H 158.076 -0.578979 4.12254 0
M  V30 1651 H 158.609 1.09349 3.82476 0
M  V30 1652 H 155.348 3.58939 5.48491 0
M  V30 1653 H 154.868 1.88945 5.69263 0
M  V30 1654 H 156.547 2.39066 6.01212 0
M  V30 1655 N 156.679 -1.44442 0.630414 0
M  V30 1656 C 157.925 -2.02351 0.134816 0
M  V30 1657 C 158.258 -1.4947 -1.23986 0
M  V30 1658 O 157.533 -0.678475 -1.82283 0
M  V30 1659 C 157.816 -3.59898 0.120707 0
M  V30 1660 C 157.669 -4.23063 1.52767 0
M  V30 1661 C 158.988 -4.36585 -0.555127 0
M  V30 1662 H 156.107 -0.73527 0.0504646 0
M  V30 1663 H 158.749 -1.72022 0.806751 0
M  V30 1664 H 156.899 -3.85868 -0.451477 0
M  V30 1665 H 158.571 -4.08202 2.14869 0
M  V30 1666 H 156.814 -3.80586 2.08175 0
M  V30 1667 H 157.485 -5.32071 1.46984 0
M  V30 1668 H 159.961 -4.16044 -0.0685429 0
M  V30 1669 H 158.837 -5.46294 -0.534185 0
M  V30 1670 H 159.098 -4.11138 -1.62535 0
M  V30 1671 N 158.157 -0.370918 -1.53173 0
M  V30 1672 C 159.089 0.507823 -2.23503 0
M  V30 1673 C 160.102 1.04182 -1.251 0
M  V30 1674 O 161.291 0.947286 -1.5129 0
M  V30 1675 C 158.391 1.71447 -2.92334 0
M  V30 1676 C 157.564 1.31105 -4.17289 0
M  V30 1677 C 156.623 2.38035 -4.69282 0
M  V30 1678 O 155.649 2.00204 -5.32829 0
M  V30 1679 N 156.851 3.69697 -4.47554 0
M  V30 1680 H 159.616 -0.0946382 -2.99551 0
M  V30 1681 H 157.177 -0.196358 -1.60705 0
M  V30 1682 H 159.169 2.42469 -3.24023 0
M  V30 1683 H 157.739 2.22368 -2.19707 0
M  V30 1684 H 156.959 0.430462 -3.91843 0
M  V30 1685 H 158.247 1.0179 -4.98514 0
M  V30 1686 H 157.645 4.03205 -3.9679 0
M  V30 1687 H 156.202 4.36807 -4.8378 0
M  V30 1688 N 159.635 1.57281 -0.100228 0
M  V30 1689 C 160.582 2.14305 0.856858 0
M  V30 1690 C 161.552 1.06296 1.27634 0
M  V30 1691 O 162.737 1.34109 1.35718 0
M  V30 1692 C 159.877 2.73184 2.10866 0
M  V30 1693 C 158.99 3.95442 1.73925 0
M  V30 1694 C 158.125 4.42468 2.93931 0
M  V30 1695 C 157.164 5.57303 2.5314 0
M  V30 1696 N 156.301 5.99158 3.65997 0
M  V30 1697 H 161.141 2.95772 0.363726 0
M  V30 1698 H 158.678 1.46139 0.167858 0
M  V30 1699 H 160.636 3.05442 2.84185 0
M  V30 1700 H 159.266 1.94437 2.57671 0
M  V30 1701 H 158.318 3.69464 0.905554 0
M  V30 1702 H 159.63 4.78769 1.39935 0
M  V30 1703 H 158.784 4.76537 3.75496 0
M  V30 1704 H 157.523 3.58052 3.31134 0
M  V30 1705 H 156.528 5.22857 1.70003 0
M  V30 1706 H 157.753 6.43471 2.17075 0
M  V30 1707 H 155.699 5.17687 4.02909 0
M  V30 1708 H 155.616 6.77295 3.35869 0
M  V30 1709 H 156.884 6.3786 4.48057 0
M  V30 1710 N 161.113 -0.173488 1.56642 0
M  V30 1711 C 162.076 -1.19859 1.95362 0
M  V30 1712 C 163.076 -1.37296 0.83704 0
M  V30 1713 O 164.266 -1.34739 1.10413 0
M  V30 1714 C 161.398 -2.56405 2.24654 0
M  V30 1715 H 162.591 -0.867062 2.87092 0
M  V30 1716 H 160.144 -0.415853 1.50666 0
M  V30 1717 H 160.879 -2.94576 1.35631 0
M  V30 1718 H 160.664 -2.45115 3.06041 0
M  V30 1719 H 162.154 -3.30287 2.5554 0
M  V30 1720 N 162.591 -1.51276 -0.441967 0
M  V30 1721 C 164.007 -1.39349 -0.778083 0
M  V30 1722 C 164.207 -0.472212 -1.95889 0
M  V30 1723 O 163.263 0.0743551 -2.5239 0
M  V30 1724 C 164.576 -2.81292 -1.0628 0
M  V30 1725 C 166.124 -2.9041 -1.16751 0
M  V30 1726 C 166.599 -4.33251 -1.48519 0
M  V30 1727 N 168.09 -4.36336 -1.55453 0
M  V30 1728 C 168.825 -5.43885 -1.81596 0
M  V30 1729 N 168.321 -6.61601 -2.05562 0
M  V30 1730 N 170.114 -5.3136 -1.8334 0
M  V30 1731 H 162.265 -2.09729 0.335774 0
M  V30 1732 H 164.528 -0.943925 0.0878028 0
M  V30 1733 H 164.234 -3.50678 -0.267905 0
M  V30 1734 H 164.108 -3.20334 -1.99163 0
M  V30 1735 H 166.495 -2.21225 -1.95304 0
M  V30 1736 H 166.576 -2.54871 -0.217801 0
M  V30 1737 H 166.22 -5.02984 -0.704958 0
M  V30 1738 H 166.15 -4.66299 -2.44689 0
M  V30 1739 H 168.641 -3.51466 -1.38853 0
M  V30 1740 H 168.954 -7.39361 -2.24867 0
M  V30 1741 H 167.299 -6.64725 -2.02894 0
M  V30 1742 H 170.49 -4.38382 -1.64132 0
M  V30 1743 H 170.663 -6.15258 -2.03377 0
M  V30 1744 N 164.069 0.697108 -1.41344 0
M  V30 1745 C 164.979 1.84088 -1.45427 0
M  V30 1746 C 165.995 1.70545 -0.34501 0
M  V30 1747 O 167.171 1.92488 -0.592492 0
M  V30 1748 C 164.236 3.20056 -1.33286 0
M  V30 1749 C 163.297 3.45718 -2.54514 0
M  V30 1750 C 162.53 4.75199 -2.42944 0
M  V30 1751 O 162.753 5.51579 -1.45318 0
M  V30 1752 O 161.687 5.0161 -3.32672 0
M  V30 1753 H 165.513 1.836 -2.41919 0
M  V30 1754 H 163.098 0.849966 -1.22866 0
M  V30 1755 H 164.98 4.01236 -1.28794 0
M  V30 1756 H 163.655 3.2123 -0.39909 0
M  V30 1757 H 162.562 2.64474 -2.64583 0
M  V30 1758 H 163.895 3.49356 -3.46715 0
M  V30 1759 N 165.547 1.27147 0.931209 0
M  V30 1760 C 166.963 1.04475 1.20653 0
M  V30 1761 C 167.163 -0.223885 2.00252 0
M  V30 1762 O 166.219 -0.930332 2.34736 0
M  V30 1763 C 167.532 2.28209 1.95809 0
M  V30 1764 C 169.08 2.33211 2.08762 0
M  V30 1765 C 169.555 3.56665 2.87323 0
M  V30 1766 N 171.046 3.57201 2.94892 0
M  V30 1767 C 171.781 4.49395 3.56134 0
M  V30 1768 N 171.277 5.51889 4.18796 0
M  V30 1769 N 173.07 4.37026 3.53504 0
M  V30 1770 H 165.221 2.08612 0.399333 0
M  V30 1771 H 167.484 0.917312 0.239253 0
M  V30 1772 H 167.19 3.20538 1.44736 0
M  V30 1773 H 167.064 2.33247 2.96438 0
M  V30 1774 H 169.451 1.41391 2.59023 0
M  V30 1775 H 169.532 2.32178 1.07364 0
M  V30 1776 H 169.176 4.4882 2.37746 0
M  V30 1777 H 169.106 3.54948 3.88998 0
M  V30 1778 H 171.597 2.83074 2.50354 0
M  V30 1779 H 171.91 6.18409 4.63454 0
M  V30 1780 H 170.255 5.55735 4.17353 0
M  V30 1781 H 173.446 3.56166 3.03749 0
M  V30 1782 H 173.619 5.09067 4.00942 0
M  V30 1783 N 167.025 -1.13721 1.09112 0
M  V30 1784 C 168.273 -1.84559 0.823562 0
M  V30 1785 C 168.594 -1.83754 -0.652658 0
M  V30 1786 O 167.864 -1.29102 -1.47342 0
M  V30 1787 H 166.444 -0.683376 0.301673 0
M  V30 1788 H 169.106 -1.37771 1.37859 0
M  V30 1789 H 168.202 -2.8917 1.17419 0
M  V30 1790 N 168.503 -0.877838 -1.30888 0
M  V30 1791 C 169.466 -0.344265 -2.266 0
M  V30 1792 C 170.466 0.50922 -1.52524 0
M  V30 1793 O 171.656 0.317398 -1.71284 0
M  V30 1794 C 168.788 0.510198 -3.37061 0
M  V30 1795 H 169.981 -1.1893 -2.7531 0
M  V30 1796 H 167.534 -0.654088 -1.41956 0
M  V30 1797 H 168.269 1.37612 -2.93655 0
M  V30 1798 H 168.054 -0.101047 -3.9197 0
M  V30 1799 H 169.544 0.875537 -4.08319 0
M  V30 1800 N 169.982 1.44106 -0.638065 0
M  V30 1801 C 170.929 2.30715 0.062701 0
M  V30 1802 C 171.899 1.43882 0.829883 0
M  V30 1803 O 173.084 1.72775 0.809532 0
M  V30 1804 C 170.224 3.29258 1.03358 0
M  V30 1805 C 169.337 4.31192 0.26409 0
M  V30 1806 C 168.472 5.16825 1.22741 0
M  V30 1807 C 167.511 6.10462 0.447475 0
M  V30 1808 N 166.648 6.8877 1.36161 0
M  V30 1809 H 171.488 2.90096 -0.681781 0
M  V30 1810 H 169.025 1.42925 -0.347988 0
M  V30 1811 H 170.983 3.84886 1.60992 0
M  V30 1812 H 169.613 2.71562 1.74511 0
M  V30 1813 H 168.665 3.77981 -0.428295 0
M  V30 1814 H 169.977 4.97619 -0.343052 0
M  V30 1815 H 169.131 5.77004 1.87487 0
M  V30 1816 H 167.87 4.50488 1.86847 0
M  V30 1817 H 166.875 5.49386 -0.213433 0
M  V30 1818 H 168.1 6.78837 -0.188968 0
M  V30 1819 H 166.046 6.25096 1.98975 0
M  V30 1820 H 165.963 7.51663 0.808656 0
M  V30 1821 H 167.231 7.53467 1.99769 0
M  V30 1822 N 171.46 0.379036 1.52974 0
M  V30 1823 C 172.709 -0.207612 2.00629 0
M  V30 1824 C 173.022 -1.48758 1.27006 0
M  V30 1825 O 174.228 -2.15365 1.65318 0
M  V30 1826 C 172.684 -0.42053 3.57435 0
M  V30 1827 C 172.292 0.845587 4.39948 0
M  V30 1828 C 174.036 -0.964102 4.13407 0
M  V30 1829 C 171.943 0.601513 5.88333 0
M  V30 1830 H 170.873 -0.0813591 0.749598 0
M  V30 1831 H 173.524 0.499853 1.76561 0
M  V30 1832 H 171.906 -1.18959 3.7771 0
M  V30 1833 H 173.08 1.61848 4.31442 0
M  V30 1834 H 171.395 1.31336 3.95145 0
M  V30 1835 H 173.992 -1.16225 5.21916 0
M  V30 1836 H 174.335 -1.93019 3.68849 0
M  V30 1837 H 174.868 -0.25487 3.96983 0
M  V30 1838 H 171.607 1.53831 6.37194 0
M  V30 1839 H 171.127 -0.132628 5.99653 0
M  V30 1840 H 172.806 0.232134 6.46583 0
M  V30 1841 N 172.938 -1.57226 0.108567 0
M  V30 1842 C 173.871 -2.10447 -0.882464 0
M  V30 1843 C 174.849 -1.01829 -1.26766 0
M  V30 1844 O 176.033 -1.29415 -1.37054 0
M  V30 1845 C 173.16 -2.59258 -2.17952 0
M  V30 1846 C 172.206 -3.79662 -1.94318 0
M  V30 1847 S 173.039 -5.22586 -1.16892 0
M  V30 1848 C 174.195 -5.74758 -2.47799 0
M  V30 1849 H 174.428 -2.94178 -0.429745 0
M  V30 1850 H 171.961 -1.54043 -0.105 0
M  V30 1851 H 173.919 -2.88036 -2.92482 0
M  V30 1852 H 172.58 -1.75728 -2.60343 0
M  V30 1853 H 171.773 -4.11928 -2.90399 0
M  V30 1854 H 171.375 -3.51446 -1.27913 0
M  V30 1855 H 173.667 -5.83846 -3.43701 0
M  V30 1856 H 174.61 -6.73027 -2.20093 0
M  V30 1857 H 175.018 -5.02763 -2.56689 0
M  V30 1858 N 174.416 0.165178 -1.56732 0
M  V30 1859 C 175.832 0.517174 -1.50988 0
M  V30 1860 C 176.032 1.84331 -0.813894 0
M  V30 1861 O 175.088 2.49672 -0.37682 0
M  V30 1862 C 176.401 0.544261 -2.95733 0
M  V30 1863 C 177.949 0.631039 -3.06573 0
M  V30 1864 C 178.424 0.68896 -4.52788 0
M  V30 1865 N 179.915 0.751683 -4.5706 0
M  V30 1866 C 180.65 0.817177 -5.67547 0
M  V30 1867 N 180.146 0.843129 -6.8765 0
M  V30 1868 N 181.939 0.856668 -5.55534 0
M  V30 1869 H 174.09 -0.704318 -2.00382 0
M  V30 1870 H 176.353 -0.254687 -0.913148 0
M  V30 1871 H 176.059 -0.361607 -3.49836 0
M  V30 1872 H 175.933 1.3886 -3.5071 0
M  V30 1873 H 178.32 1.52733 -2.52501 0
M  V30 1874 H 178.401 -0.240095 -2.54671 0
M  V30 1875 H 178.045 -0.2031 -5.07494 0
M  V30 1876 H 177.975 1.57633 -5.02454 0
M  V30 1877 H 180.466 0.739661 -3.70591 0
M  V30 1878 H 180.779 0.894448 -7.67606 0
M  V30 1879 H 179.124 0.811304 -6.90248 0
M  V30 1880 H 182.315 0.833437 -4.60621 0
M  V30 1881 H 182.488 0.904247 -6.4166 0
M  V30 1882 N 175.894 1.51508 0.433938 0
M  V30 1883 C 176.804 1.75917 1.5521 0
M  V30 1884 C 177.82 0.643545 1.61662 0
M  V30 1885 O 178.996 0.926183 1.7884 0
M  V30 1886 C 176.061 1.88213 2.91164 0
M  V30 1887 C 175.122 3.12074 2.94802 0
M  V30 1888 C 174.355 3.23774 4.24271 0
M  V30 1889 O 174.578 2.4133 5.16833 0
M  V30 1890 O 173.512 4.16774 4.34262 0
M  V30 1891 H 177.338 2.70777 1.37527 0
M  V30 1892 H 174.923 1.36051 0.617293 0
M  V30 1893 H 176.805 1.98267 3.71845 0
M  V30 1894 H 175.48 0.965413 3.08968 0
M  V30 1895 H 174.387 3.07497 2.13065 0
M  V30 1896 H 175.72 4.03446 2.81943 0
M  V30 1897 N 177.372 -0.689602 1.41712 0
M  V30 1898 C 178.783 -1.26973 1.36875 0
M  V30 1899 C 179.134 -1.96124 0.054748 0
M  V30 1900 O 178.259 -1.99141 -0.84687 0
M  V30 1901 C 178.854 -2.30912 2.47922 0
M  V30 1902 C 177.413 -2.84486 2.46464 0
M  V30 1903 C 176.56 -1.58603 2.27465 0
M  V30 1904 H 179.511 -0.48396 1.51141 0
M  V30 1905 H 179.532 -3.12331 2.17323 0
M  V30 1906 H 179.044 -1.80554 3.43543 0
M  V30 1907 H 177.145 -3.39005 1.54617 0
M  V30 1908 H 177.258 -3.34511 3.42986 0
M  V30 1909 H 175.622 -1.84632 1.75451 0
M  V30 1910 H 176.405 -1.10233 3.25121 0
M  V30 1911 N 178.85 -1.27639 -0.924453 0
M  V30 1912 C 180.096 -1.15345 -1.67532 0
M  V30 1913 C 180.451 0.297096 -1.90092 0
M  V30 1914 O 179.744 1.21374 -1.48253 0
M  V30 1915 C 179.938 -1.87407 -3.04325 0
M  V30 1916 C 179.767 -3.3932 -2.95114 0
M  V30 1917 C 178.537 -4.08644 -2.97218 0
M  V30 1918 C 180.735 -4.35242 -2.73987 0
M  V30 1919 N 178.717 -5.47102 -2.78482 0
M  V30 1920 C 180.088 -5.6099 -2.63988 0
M  V30 1921 C 182.143 -4.25294 -2.589 0
M  V30 1922 C 180.846 -6.77924 -2.40442 0
M  V30 1923 C 182.872 -5.41952 -2.36731 0
M  V30 1924 C 182.234 -6.66658 -2.27478 0
M  V30 1925 H 178.333 -0.47696 -0.619704 0
M  V30 1926 H 180.917 -1.6115 -1.09265 0
M  V30 1927 H 179.088 -1.44053 -3.60699 0
M  V30 1928 H 180.82 -1.6759 -3.68369 0
M  V30 1929 H 177.575 -3.60136 -3.07569 0
M  V30 1930 H 177.999 -6.19852 -2.72236 0
M  V30 1931 H 182.641 -3.29598 -2.64811 0
M  V30 1932 H 180.359 -7.73699 -2.3327 0
M  V30 1933 H 183.945 -5.36137 -2.25938 0
M  V30 1934 H 182.825 -7.55405 -2.10555 0
M  V30 1935 N 180.328 1.1314 -1.09713 0
M  V30 1936 C 181.574 1.84757 -0.836224 0
M  V30 1937 C 181.907 1.8347 0.636598 0
M  V30 1938 O 181.182 1.27491 1.46889 0
M  V30 1939 C 181.465 3.32782 -1.37578 0
M  V30 1940 C 181.318 3.42567 -2.91493 0
M  V30 1941 C 182.637 4.28307 -1.01198 0
M  V30 1942 H 179.756 0.67082 -0.305236 0
M  V30 1943 H 182.398 1.3278 -1.35903 0
M  V30 1944 H 180.548 3.77177 -0.931097 0
M  V30 1945 H 182.22 3.06862 -3.44432 0
M  V30 1946 H 180.463 2.83349 -3.28475 0
M  V30 1947 H 181.134 4.46674 -3.24324 0
M  V30 1948 H 183.61 3.91999 -1.39556 0
M  V30 1949 H 182.486 5.30307 -1.41653 0
M  V30 1950 H 182.747 4.42029 0.0794833 0
M  V30 1951 N 181.806 0.884767 1.30421 0
M  V30 1952 C 182.716 0.355398 2.31892 0
M  V30 1953 C 183.732 -0.542261 1.65335 0
M  V30 1954 O 184.908 -0.435432 1.96637 0
M  V30 1955 C 181.973 -0.421661 3.44126 0
M  V30 1956 C 181.034 0.505727 4.26311 0
M  V30 1957 C 180.267 -0.234343 5.33185 0
M  V30 1958 O 180.49 -1.46045 5.51386 0
M  V30 1959 O 179.424 0.415443 6.00465 0
M  V30 1960 H 183.25 1.19685 2.79122 0
M  V30 1961 H 180.835 0.648596 1.34587 0
M  V30 1962 H 182.717 -0.861641 4.12497 0
M  V30 1963 H 181.392 -1.23942 2.99032 0
M  V30 1964 H 180.299 0.994513 3.60639 0
M  V30 1965 H 181.632 1.28948 4.75009 0
M  V30 1966 N 183.284 -1.43765 0.645699 0
M  V30 1967 C 184.216 -2.29027 -0.0890605 0
M  V30 1968 C 185.229 -1.42093 -0.794563 0
M  V30 1969 O 186.418 -1.66104 -0.653575 0
M  V30 1970 C 183.518 -3.18831 -1.14891 0
M  V30 1971 C 182.691 -4.34261 -0.523043 0
M  V30 1972 C 181.75 -5.04994 -1.47878 0
M  V30 1973 O 180.776 -5.6052 -0.990277 0
M  V30 1974 N 181.978 -5.07795 -2.81291 0
M  V30 1975 H 184.743 -2.92727 0.64272 0
M  V30 1976 H 182.304 -1.54373 0.487924 0
M  V30 1977 H 184.296 -3.63015 -1.78892 0
M  V30 1978 H 182.866 -2.56782 -1.78275 0
M  V30 1979 H 182.086 -3.93088 0.295896 0
M  V30 1980 H 183.374 -5.08728 -0.0858147 0
M  V30 1981 H 182.772 -4.64042 -3.23546 0
M  V30 1982 H 181.329 -5.55721 -3.40614 0
M  V30 1983 N 184.763 -0.387143 -1.52771 0
M  V30 1984 C 186.04 0.253197 -1.93954 0
M  V30 1985 C 186.42 1.64545 -1.32243 0
M  V30 1986 O 185.768 2.23191 -0.489699 0
M  V30 1987 C 185.978 0.281722 -3.47861 0
M  V30 1988 C 187.326 0.511715 -4.21505 0
M  V30 1989 O 188.35 0.362023 -3.54356 0
M  V30 1990 O 187.209 0.804847 -5.40541 0
M  V30 1991 H 184.303 0.156845 -0.811991 0
M  V30 1992 H 186.849 -0.441494 -1.63856 0
M  V30 1993 H 185.621 -0.693571 -3.85104 0
M  V30 1994 H 185.244 1.02142 -3.84256 0
M  V30 1995 N 186.241 1.57166 -0.116904 0
M  V30 1996 C 187.188 2.15202 0.83408 0
M  V30 1997 C 188.158 1.07644 1.26499 0
M  V30 1998 O 189.343 1.35541 1.34288 0
M  V30 1999 C 186.483 2.75405 2.07957 0
M  V30 2000 C 185.596 3.97264 1.69721 0
M  V30 2001 C 184.731 4.45561 2.89221 0
M  V30 2002 C 183.77 5.59956 2.47215 0
M  V30 2003 N 182.907 6.03006 3.59622 0
M  V30 2004 H 187.747 2.96141 0.332335 0
M  V30 2005 H 185.284 1.46309 0.152349 0
M  V30 2006 H 187.242 3.08439 2.80929 0
M  V30 2007 H 185.872 1.97159 2.55594 0
M  V30 2008 H 184.924 3.70404 0.866316 0
M  V30 2009 H 186.236 4.80226 1.34849 0
M  V30 2010 H 185.39 4.80493 3.7042 0
M  V30 2011 H 184.129 3.61544 3.27318 0
M  V30 2012 H 183.134 5.2463 1.64448 0
M  V30 2013 H 184.359 6.45738 2.10238 0
M  V30 2014 H 182.305 5.21931 3.97396 0
M  V30 2015 H 182.222 6.80819 3.28667 0
M  V30 2016 H 183.49 6.42576 4.41267 0
M  V30 2017 N 187.719 -0.156864 1.56817 0
M  V30 2018 C 188.966 -0.871125 1.82805 0
M  V30 2019 C 189.294 -1.81611 0.696262 0
M  V30 2020 O 188.549 -1.93141 -0.315459 0
M  V30 2021 C 188.848 -1.68737 3.1506 0
M  V30 2022 C 188.514 -0.890045 4.42028 0
M  V30 2023 C 187.176 -0.670042 4.76512 0
M  V30 2024 C 189.528 -0.331769 5.20143 0
M  V30 2025 C 186.856 0.119104 5.86579 0
M  V30 2026 C 189.208 0.444365 6.31037 0
M  V30 2027 C 187.872 0.675035 6.64078 0
M  V30 2028 H 187.142 -0.318767 0.668931 0
M  V30 2029 H 189.789 -0.135274 1.91022 0
M  V30 2030 H 188.094 -2.49304 3.0225 0
M  V30 2031 H 189.791 -2.24331 3.3238 0
M  V30 2032 H 186.381 -1.07157 4.14988 0
M  V30 2033 H 190.565 -0.489043 4.93885 0
M  V30 2034 H 185.821 0.307417 6.10627 0
M  V30 2035 H 189.995 0.884139 6.90765 0
M  V30 2036 H 187.622 1.28839 7.49203 0
M  V30 2037 N 189.197 -1.51736 -0.425897 0
M  V30 2038 C 190.445 -1.64644 -1.17204 0
M  V30 2039 C 190.766 -0.370486 -1.91448 0
M  V30 2040 O 190.036 0.614088 -1.86026 0
M  V30 2041 H 188.616 -0.606819 -0.435638 0
M  V30 2042 H 191.278 -1.88713 -0.487177 0
M  V30 2043 H 190.374 -2.47958 -1.89534 0
M  V30 2044 N 190.675 0.682077 -1.42076 0
M  V30 2045 C 191.622 1.79578 -1.44984 0
M  V30 2046 C 192.592 1.6332 -0.302614 0
M  V30 2047 O 193.777 1.83978 -0.505633 0
M  V30 2048 C 190.917 3.1756 -1.35091 0
M  V30 2049 C 190.03 3.45156 -2.59791 0
M  V30 2050 C 189.165 4.72826 -2.42093 0
M  V30 2051 C 188.204 4.93433 -3.62202 0
M  V30 2052 N 187.341 6.12338 -3.43491 0
M  V30 2053 H 192.181 1.76427 -2.40161 0
M  V30 2054 H 189.718 0.861376 -1.19242 0
M  V30 2055 H 191.676 3.97287 -1.27354 0
M  V30 2056 H 190.306 3.19854 -0.435133 0
M  V30 2057 H 189.358 2.59736 -2.77923 0
M  V30 2058 H 190.67 3.5628 -3.49094 0
M  V30 2059 H 189.824 5.60631 -2.319 0
M  V30 2060 H 188.563 4.63973 -1.50268 0
M  V30 2061 H 187.568 4.04073 -3.72834 0
M  V30 2062 H 188.793 5.04136 -4.54998 0
M  V30 2063 H 186.739 6.04672 -2.54377 0
M  V30 2064 H 186.656 6.2429 -4.26377 0
M  V30 2065 H 187.924 7.02841 -3.37097 0
M  V30 2066 N 192.153 1.28127 0.917671 0
M  V30 2067 C 193.399 1.15223 1.66888 0
M  V30 2068 C 193.732 -0.299293 1.9188 0
M  V30 2069 O 193.007 -1.21805 1.51637 0
M  V30 2070 C 193.29 1.94706 3.02922 0
M  V30 2071 C 193.143 3.47898 2.85109 0
M  V30 2072 C 194.462 1.75939 4.03402 0
M  V30 2073 H 191.581 0.419946 0.605652 0
M  V30 2074 H 194.223 1.57398 1.06423 0
M  V30 2075 H 192.373 1.58864 3.54534 0
M  V30 2076 H 194.045 3.93624 2.40537 0
M  V30 2077 H 192.288 3.7373 2.20246 0
M  V30 2078 H 192.959 3.98765 3.81694 0
M  V30 2079 H 195.435 2.07209 3.60837 0
M  V30 2080 H 194.311 2.33931 4.96556 0
M  V30 2081 H 194.572 0.709877 4.36364 0
M  V30 2082 N 193.631 -1.12557 1.10312 0
M  V30 2083 C 194.578 -2.18247 0.750781 0
M  V30 2084 C 195.548 -1.63853 -0.272293 0
M  V30 2085 O 196.733 -1.90195 -0.151862 0
M  V30 2086 C 193.873 -3.44591 0.187379 0
M  V30 2087 C 192.986 -4.13046 1.2656 0
M  V30 2088 C 192.121 -5.27034 0.663978 0
M  V30 2089 C 191.16 -5.87353 1.72287 0
M  V30 2090 N 190.297 -6.92757 1.1416 0
M  V30 2091 H 195.137 -2.47732 1.65628 0
M  V30 2092 H 192.674 -1.21629 0.827337 0
M  V30 2093 H 194.632 -4.16904 -0.157148 0
M  V30 2094 H 193.262 -3.15527 -0.681355 0
M  V30 2095 H 192.314 -3.38924 1.72727 0
M  V30 2096 H 193.626 -4.53947 2.06721 0
M  V30 2097 H 192.78 -6.06104 0.268824 0
M  V30 2098 H 191.519 -4.87407 -0.169082 0
M  V30 2099 H 190.524 -5.06971 2.12746 0
M  V30 2100 H 191.749 -6.29051 2.55875 0
M  V30 2101 H 189.695 -6.5517 0.329984 0
M  V30 2102 H 189.612 -7.3225 1.88007 0
M  V30 2103 H 190.88 -7.75658 0.772956 0
M  V30 2104 N 195.109 -0.891671 -1.2995 0
M  V30 2105 C 196.356 -0.513501 -1.95881 0
M  V30 2106 C 196.684 0.938655 -1.70351 0
M  V30 2107 O 195.939 1.67936 -1.00478 0
M  V30 2108 C 196.238 -0.742868 -3.49594 0
M  V30 2109 C 195.904 -2.17114 -3.95186 0
M  V30 2110 C 194.566 -2.56169 -4.07346 0
M  V30 2111 C 196.918 -3.10162 -4.18866 0
M  V30 2112 C 194.246 -3.87469 -4.4055 0
M  V30 2113 C 196.598 -4.41001 -4.53542 0
M  V30 2114 C 195.262 -4.79941 -4.63911 0
M  V30 2115 H 194.532 -0.187903 -0.71678 0
M  V30 2116 H 197.179 -1.1288 -1.54694 0
M  V30 2117 H 195.484 -0.044586 -3.91775 0
M  V30 2118 H 197.181 -0.429767 -3.9869 0
M  V30 2119 H 193.771 -1.85801 -3.86233 0
M  V30 2120 H 197.955 -2.81206 -4.08946 0
M  V30 2121 H 193.211 -4.17371 -4.46779 0
M  V30 2122 H 197.385 -5.13133 -4.70815 0
M  V30 2123 H 195.012 -5.81719 -4.89395 0
M  V30 2124 N 196.587 1.43421 -0.653314 0
M  V30 2125 C 197.55 2.29182 0.0287951 0
M  V30 2126 C 198.55 1.42213 0.750465 0
M  V30 2127 O 199.74 1.63843 0.591701 0
M  V30 2128 C 196.872 3.24278 1.05151 0
M  V30 2129 H 198.065 2.90985 -0.725786 0
M  V30 2130 H 195.618 1.50702 -0.414545 0
M  V30 2131 H 196.353 2.6737 1.83532 0
M  V30 2132 H 196.138 3.88396 0.537687 0
M  V30 2133 H 197.628 3.88647 1.52786 0
M  V30 2134 N 198.065 0.39524 1.52563 0
M  V30 2135 C 199.311 -0.185318 2.01952 0
M  V30 2136 C 199.644 -1.45964 1.28095 0
M  V30 2137 O 198.919 -1.90689 0.38315 0
M  V30 2138 C 199.202 -0.447193 3.57312 0
M  V30 2139 C 199.055 0.842828 4.41833 0
M  V30 2140 C 200.374 -1.23529 4.22408 0
M  V30 2141 H 197.493 -0.0658788 0.73405 0
M  V30 2142 H 200.135 0.525975 1.82575 0
M  V30 2143 H 198.285 -1.05312 3.73954 0
M  V30 2144 H 199.957 1.4795 4.36931 0
M  V30 2145 H 198.2 1.45686 4.08605 0
M  V30 2146 H 198.871 0.614165 5.48573 0
M  V30 2147 H 201.347 -0.722445 4.0978 0
M  V30 2148 H 200.223 -1.38727 5.3108 0
M  V30 2149 H 200.484 -2.25213 3.80436 0
M  V30 2150 N 199.544 -1.57102 0.125237 0
M  V30 2151 C 200.474 -2.18659 -0.819174 0
M  V30 2152 C 201.455 -1.12843 -1.27281 0
M  V30 2153 O 202.64 -1.41104 -1.33429 0
M  V30 2154 C 199.77 -2.79096 -2.06695 0
M  V30 2155 C 198.724 -3.90548 -1.75088 0
M  V30 2156 C 198.05 -4.37821 -3.06948 0
M  V30 2157 C 199.35 -5.12356 -1.01435 0
M  V30 2158 H 201.044 -2.9783 -0.306202 0
M  V30 2159 H 198.59 -1.4326 -0.145839 0
M  V30 2160 H 200.543 -3.2082 -2.73226 0
M  V30 2161 H 199.267 -1.97223 -2.60328 0
M  V30 2162 H 197.926 -3.49409 -1.10944 0
M  V30 2163 H 197.574 -3.52799 -3.58527 0
M  V30 2164 H 197.274 -5.12982 -2.86571 0
M  V30 2165 H 198.798 -4.822 -3.74587 0
M  V30 2166 H 200.212 -5.5106 -1.58132 0
M  V30 2167 H 198.609 -5.9314 -0.911319 0
M  V30 2168 H 199.679 -4.849 -0.00218681 0
M  V30 2169 N 201.022 0.148545 -1.56898 0
M  V30 2170 C 201.954 1.20852 -1.9475 0
M  V30 2171 C 202.967 1.39265 -0.843152 0
M  V30 2172 O 204.156 1.38864 -1.12156 0
M  V30 2173 C 201.256 2.57362 -2.20495 0
M  V30 2174 C 200.429 2.59947 -3.51776 0
M  V30 2175 C 199.488 3.77984 -3.6608 0
M  V30 2176 O 198.514 3.62929 -4.38487 0
M  V30 2177 N 199.716 4.95375 -3.02629 0
M  V30 2178 H 202.481 0.886804 -2.86279 0
M  V30 2179 H 200.042 0.338121 -1.5833 0
M  V30 2180 H 202.034 3.34833 -2.27307 0
M  V30 2181 H 200.604 2.81832 -1.35238 0
M  V30 2182 H 199.824 1.68403 -3.56419 0
M  V30 2183 H 201.112 2.58704 -4.38121 0
M  V30 2184 H 200.51 5.10509 -2.43715 0
M  V30 2185 H 199.067 5.70627 -3.15004 0
M  V30 2186 N 202.5 1.5196 0.417844 0
M  V30 2187 C 203.728 1.69426 1.18753 0
M  V30 2188 C 204.143 0.399955 1.84515 0
M  V30 2189 O 203.5 -0.623288 1.71527 0
M  V30 2190 C 203.551 2.82375 2.25714 0
M  V30 2191 O 203.272 4.06793 1.62638 0
M  V30 2192 C 204.773 3.11277 3.15628 0
M  V30 2193 H 201.993 0.568031 0.357186 0
M  V30 2194 H 204.537 1.98475 0.49273 0
M  V30 2195 H 202.692 2.5587 2.90877 0
M  V30 2196 H 203.106 4.69667 2.3348 0
M  V30 2197 H 204.58 3.93843 3.86771 0
M  V30 2198 H 205.057 2.24473 3.77503 0
M  V30 2199 H 205.663 3.39515 2.56144 0
M  V30 2200 N 203.978 -0.674533 1.42435 0
M  V30 2201 C 205.208 -1.46071 1.46105 0
M  V30 2202 C 205.616 -1.89067 0.0709605 0
M  V30 2203 O 204.959 -1.58731 -0.924677 0
M  V30 2204 C 205.021 -2.74145 2.32561 0
M  V30 2205 C 204.685 -2.53224 3.8043 0
M  V30 2206 C 205.682 -2.17809 4.72075 0
M  V30 2207 C 203.367 -2.6821 4.24698 0
M  V30 2208 C 205.361 -1.97648 6.05982 0
M  V30 2209 C 203.048 -2.47665 5.58664 0
M  V30 2210 C 204.046 -2.12437 6.49122 0
M  V30 2211 O 203.734 -1.9209 7.80613 0
M  V30 2212 H 203.466 -0.455959 0.499076 0
M  V30 2213 H 206.02 -0.836193 1.87609 0
M  V30 2214 H 204.25 -3.3908 1.85908 0
M  V30 2215 H 205.939 -3.36028 2.27683 0
M  V30 2216 H 206.705 -2.05826 4.39159 0
M  V30 2217 H 202.584 -2.94609 3.54579 0
M  V30 2218 H 206.128 -1.70075 6.7655 0
M  V30 2219 H 202.025 -2.59244 5.91154 0
M  V30 2220 H 202.793 -2.06686 7.91974 0
M  V30 2221 N 205.456 -1.28612 -0.910864 0
M  V30 2222 C 206.704 -1.15705 -1.65701 0
M  V30 2223 C 207.025 0.29416 -1.92769 0
M  V30 2224 O 206.295 1.20331 -1.54588 0
M  V30 2225 H 204.875 -0.425216 -0.614167 0
M  V30 2226 H 207.537 -1.61381 -1.0928 0
M  V30 2227 H 206.633 -1.6988 -2.61815 0
M  V30 2228 N 206.934 1.1197 -1.10907 0
M  V30 2229 C 208.211 1.79959 -0.766432 0
M  V30 2230 C 208.591 1.97466 0.746363 0
M  V30 2231 O 207.939 1.55491 1.67436 0
M  V30 2232 C 208.149 3.14009 -1.52314 0
M  V30 2233 C 209.497 3.89134 -1.69883 0
M  V30 2234 O 210.521 3.2368 -1.48692 0
M  V30 2235 O 209.38 5.06572 -2.05054 0
M  V30 2236 H 206.474 0.779208 -0.277062 0
M  V30 2237 H 209.02 1.18762 -1.21217 0
M  V30 2238 H 207.792 2.96587 -2.55249 0
M  V30 2239 H 207.415 3.82915 -1.07059 0
M  V30 2240 N 208.412 0.89855 1.29475 0
M  V30 2241 C 209.64 0.539261 1.99749 0
M  V30 2242 C 210.055 -0.875716 1.67262 0
M  V30 2243 O 209.412 -1.57786 0.917049 0
M  V30 2244 C 209.463 0.72061 3.54245 0
M  V30 2245 O 209.184 2.07989 3.8558 0
M  V30 2246 C 210.685 0.366118 4.41786 0
M  V30 2247 H 207.905 0.207047 0.638258 0
M  V30 2248 H 210.449 1.20758 1.65039 0
M  V30 2249 H 208.604 0.0994862 3.87272 0
M  V30 2250 H 209.018 2.10841 4.80257 0
M  V30 2251 H 210.492 0.543848 5.49314 0
M  V30 2252 H 210.969 -0.696763 4.33638 0
M  V30 2253 H 211.575 0.964135 4.14228 0
M  V30 2254 N 209.89 -1.43072 0.660911 0
M  V30 2255 C 211.118 -2.06067 0.185422 0
M  V30 2256 C 211.533 -1.49582 -1.15198 0
M  V30 2257 O 210.89 -0.630134 -1.71276 0
M  V30 2258 C 210.941 -3.61371 0.0966523 0
M  V30 2259 O 210.662 -4.15758 1.38119 0
M  V30 2260 C 212.163 -4.41455 -0.403996 0
M  V30 2261 H 209.383 -0.664459 0.0934604 0
M  V30 2262 H 211.927 -1.83447 0.90373 0
M  V30 2263 H 210.082 -3.8315 -0.572259 0
M  V30 2264 H 210.496 -5.09499 1.24542 0
M  V30 2265 H 211.97 -5.50437 -0.415045 0
M  V30 2266 H 212.447 -4.15036 -1.43674 0
M  V30 2267 H 213.053 -4.24663 0.232691 0
M  V30 2268 N 211.368 -0.403325 -1.52352 0
M  V30 2269 C 212.318 0.442244 -2.2367 0
M  V30 2270 C 213.302 1.01823 -1.24583 0
M  V30 2271 O 214.494 0.942005 -1.49851 0
M  V30 2272 C 211.623 1.5615 -3.05732 0
M  V30 2273 C 210.709 0.996575 -4.12225 0
M  V30 2274 N 211.1 0.157804 -5.05554 0
M  V30 2275 C 209.398 1.26767 -4.27605 0
M  V30 2276 C 210.099 -0.155853 -5.81491 0
M  V30 2277 N 209.075 0.451775 -5.41719 0
M  V30 2278 H 212.877 -0.204964 -2.93184 0
M  V30 2279 H 210.391 -0.213418 -1.60992 0
M  V30 2280 H 212.388 2.17981 -3.55373 0
M  V30 2281 H 211.048 2.21139 -2.37755 0
M  V30 2282 H 212.059 -0.206049 -5.1749 0
M  V30 2283 H 208.736 1.91757 -3.70858 0
M  V30 2284 H 210.126 -0.836329 -6.66675 0
M  V30 2285 N 212.846 1.57033 -0.133567 0
M  V30 2286 C 214.074 2.00044 0.528195 0
M  V30 2287 C 214.489 1.01349 1.59291 0
M  V30 2288 O 213.846 0.00848369 1.82498 0
M  V30 2289 C 213.897 3.43018 1.1411 0
M  V30 2290 O 213.618 4.37939 0.11892 0
M  V30 2291 C 215.119 4.01237 1.88477 0
M  V30 2292 H 212.339 0.656517 0.138661 0
M  V30 2293 H 214.883 2.03267 -0.224196 0
M  V30 2294 H 213.038 3.40688 1.84418 0
M  V30 2295 H 213.452 5.21436 0.56613 0
M  V30 2296 H 214.926 5.03314 2.26669 0
M  V30 2297 H 215.403 3.41193 2.76558 0
M  V30 2298 H 216.009 4.07156 1.22898 0
M  V30 2299 N 214.325 -0.140222 1.56975 0
M  V30 2300 C 215.255 -1.17456 2.01808 0
M  V30 2301 C 216.236 -1.44415 0.898794 0
M  V30 2302 O 217.421 -1.5522 1.16707 0
M  V30 2303 C 214.551 -2.50607 2.40444 0
M  V30 2304 C 213.505 -2.38155 3.55621 0
M  V30 2305 C 212.831 -3.76078 3.80091 0
M  V30 2306 C 214.131 -1.85991 4.88062 0
M  V30 2307 H 215.825 -0.801743 2.88466 0
M  V30 2308 H 213.371 -0.38422 1.38779 0
M  V30 2309 H 215.324 -3.23197 2.7041 0
M  V30 2310 H 214.048 -2.89737 1.50732 0
M  V30 2311 H 212.707 -1.68016 3.25832 0
M  V30 2312 H 212.355 -4.12656 2.87618 0
M  V30 2313 H 212.055 -3.68606 4.57606 0
M  V30 2314 H 213.579 -4.50206 4.12488 0
M  V30 2315 H 214.993 -2.4838 5.16701 0
M  V30 2316 H 213.39 -1.89393 5.6943 0
M  V30 2317 H 214.46 -0.816023 4.77984 0
M  V30 2318 N 215.803 -1.52179 -0.40978 0
M  V30 2319 C 217.049 -1.66453 -1.15851 0
M  V30 2320 C 217.382 -0.392972 -1.90182 0
M  V30 2321 O 216.657 0.608579 -1.84734 0
M  V30 2322 C 216.94 -2.88612 -2.15349 0
M  V30 2323 C 216.793 -4.25815 -1.44918 0
M  V30 2324 C 218.112 -3.06294 -3.16026 0
M  V30 2325 H 215.231 -0.60575 -0.419805 0
M  V30 2326 H 217.873 -1.84732 -0.444314 0
M  V30 2327 H 216.023 -2.73158 -2.76255 0
M  V30 2328 H 217.695 -4.52995 -0.871365 0
M  V30 2329 H 215.938 -4.27247 -0.751159 0
M  V30 2330 H 216.609 -5.07337 -2.17516 0
M  V30 2331 H 219.085 -3.20641 -2.65195 0
M  V30 2332 H 217.961 -3.93283 -3.8291 0
M  V30 2333 H 218.222 -2.19579 -3.83715 0
M  V30 2334 N 217.281 0.66697 -1.42791 0
M  V30 2335 C 218.191 1.80962 -1.49299 0
M  V30 2336 C 219.207 1.69775 -0.381108 0
M  V30 2337 O 220.383 1.91188 -0.633188 0
M  V30 2338 C 217.448 3.17156 -1.40045 0
M  V30 2339 C 216.509 3.40242 -2.6179 0
M  V30 2340 C 215.742 4.69939 -2.52969 0
M  V30 2341 O 215.965 5.48372 -1.56985 0
M  V30 2342 O 214.899 4.94441 -3.43237 0
M  V30 2343 H 218.725 1.78427 -2.45759 0
M  V30 2344 H 216.31 0.823713 -1.24641 0
M  V30 2345 H 218.192 3.98413 -1.37276 0
M  V30 2346 H 216.867 3.20312 -0.467138 0
M  V30 2347 H 215.774 2.58802 -2.70134 0
M  V30 2348 H 217.107 3.41923 -3.54047 0
M  V30 2349 N 218.759 1.29093 0.90403 0
M  V30 2350 C 219.706 1.13853 2.00764 0
M  V30 2351 C 220.676 0.0330084 1.66067 0
M  V30 2352 O 221.861 0.199733 1.89752 0
M  V30 2353 C 219.001 0.816537 3.35301 0
M  V30 2354 C 218.114 2.00206 3.82807 0
M  V30 2355 C 217.249 1.61983 5.059 0
M  V30 2356 C 216.288 2.77143 5.45764 0
M  V30 2357 N 215.425 2.39346 6.60044 0
M  V30 2358 H 220.265 2.08276 2.13132 0
M  V30 2359 H 217.802 1.03648 1.04381 0
M  V30 2360 H 219.76 0.610557 4.12708 0
M  V30 2361 H 218.39 -0.090779 3.22672 0
M  V30 2362 H 217.442 2.31988 3.01473 0
M  V30 2363 H 218.754 2.86512 4.08304 0
M  V30 2364 H 217.908 1.37649 5.90879 0
M  V30 2365 H 216.647 0.728202 4.82233 0
M  V30 2366 H 215.652 3.02165 4.59322 0
M  V30 2367 H 216.877 3.66964 5.71414 0
M  V30 2368 H 214.823 1.52665 6.37989 0
M  V30 2369 H 214.74 3.19185 6.85315 0
M  V30 2370 H 216.008 2.1832 7.48303 0
M  V30 2371 N 220.237 -1.11381 1.11499 0
M  V30 2372 C 221.17 -2.16621 0.71769 0
M  V30 2373 C 222.148 -1.60058 -0.286413 0
M  V30 2374 O 223.332 -1.87613 -0.182689 0
M  V30 2375 C 220.459 -3.38646 0.0607265 0
M  V30 2376 C 219.505 -4.13874 1.03008 0
M  V30 2377 S 220.338 -4.70731 2.55289 0
M  V30 2378 C 221.494 -5.96079 1.90895 0
M  V30 2379 H 221.727 -2.49987 1.60915 0
M  V30 2380 H 219.26 -1.23015 0.933092 0
M  V30 2381 H 221.218 -4.09313 -0.311965 0
M  V30 2382 H 219.879 -3.03537 -0.807702 0
M  V30 2383 H 219.072 -5.01333 0.517853 0
M  V30 2384 H 218.674 -3.4897 1.34522 0
M  V30 2385 H 220.966 -6.65948 1.24577 0
M  V30 2386 H 221.909 -6.51946 2.76354 0
M  V30 2387 H 222.317 -5.47652 1.36885 0
M  V30 2388 N 221.715 -0.905404 -1.28997 0
M  V30 2389 C 222.663 -0.377431 -2.29517 0
M  V30 2390 C 223.657 0.526461 -1.61012 0
M  V30 2391 O 224.863 0.40863 -1.753 0
M  V30 2392 H 221.238 -0.103437 -0.744852 0
M  V30 2393 H 223.209 -1.23848 -2.71485 0
M  V30 2394 C 221.958 0.374833 -3.45674 0
M  V30 2395 H 221.281 -0.311474 -3.98585 0
M  V30 2396 H 222.721 0.70903 -4.1803 0
M  V30 2397 C 221.18 1.57963 -2.97572 0
M  V30 2398 O 221.71 2.67886 -2.99333 0
M  V30 2399 N 219.916 1.42375 -2.53333 0
M  V30 2400 H 219.463 0.529466 -2.521 0
M  V30 2401 H 219.421 2.23117 -2.21509 0
M  V30 2402 N 223.193 1.4272 -0.668489 0
M  V30 2403 C 224.423 2.05668 -0.196063 0
M  V30 2404 C 224.831 1.5028 1.14946 0
M  V30 2405 O 224.174 0.6348 1.72383 0
M  V30 2406 C 224.236 3.59469 -0.0468879 0
M  V30 2407 C 223.9 4.37518 -1.32012 0
M  V30 2408 C 224.897 4.68584 -2.25222 0
M  V30 2409 C 222.582 4.77266 -1.56596 0
M  V30 2410 C 224.576 5.38326 -3.41297 0
M  V30 2411 C 222.263 5.4675 -2.72962 0
M  V30 2412 C 223.261 5.77204 -3.65137 0
M  V30 2413 O 222.949 6.45264 -4.79468 0
M  V30 2414 H 222.681 0.669382 -0.0943599 0
M  V30 2415 H 225.235 1.83954 -0.913788 0
M  V30 2416 H 223.465 3.79817 0.726357 0
M  V30 2417 H 225.154 4.04071 0.384852 0
M  V30 2418 H 225.92 4.38382 -2.07477 0
M  V30 2419 H 221.799 4.52959 -0.857249 0
M  V30 2420 H 225.343 5.62014 -4.13263 0
M  V30 2421 H 221.24 5.76369 -2.90635 0
M  V30 2422 H 222.008 6.63753 -4.78931 0
M  V30 2423 N 224.671 0.411399 1.52136 0
M  V30 2424 C 225.92 -0.165009 2.01024 0
M  V30 2425 C 226.233 -1.4603 1.30133 0
M  V30 2426 O 227.439 -2.1181 1.69849 0
M  V30 2427 C 225.895 -0.344618 3.58246 0
M  V30 2428 C 225.503 0.938716 4.38055 0
M  V30 2429 C 227.247 -0.876195 4.15359 0
M  V30 2430 C 225.154 0.726172 5.86925 0
M  V30 2431 H 224.084 -0.0654407 0.751155 0
M  V30 2432 H 226.735 0.537192 1.75461 0
M  V30 2433 H 225.117 -1.10921 3.80148 0
M  V30 2434 H 226.291 1.70963 4.27912 0
M  V30 2435 H 224.606 1.39688 3.92271 0
M  V30 2436 H 227.203 -1.05128 5.24263 0
M  V30 2437 H 227.546 -1.85152 3.7286 0
M  V30 2438 H 228.079 -0.170607 3.97434 0
M  V30 2439 H 224.818 1.67312 6.33788 0
M  V30 2440 H 224.338 -0.00540283 5.998 0
M  V30 2441 H 226.017 0.369231 6.45946 0
M  V30 2442 N 226.149 -1.5696 0.141893 0
M  V30 2443 C 227.397 -1.95573 -0.509484 0
M  V30 2444 C 227.718 -1.02746 -1.65736 0
M  V30 2445 O 226.988 -0.0880311 -1.95702 0
M  V30 2446 H 225.568 -0.722115 -0.191205 0
M  V30 2447 H 228.23 -1.93697 0.216196 0
M  V30 2448 H 227.326 -2.99171 -0.889 0
M  V30 2449 N 227.627 0.131896 -1.57047 0
M  V30 2450 C 228.559 1.1878 -1.9602 0
M  V30 2451 C 229.572 1.38363 -0.857875 0
M  V30 2452 O 230.761 1.37666 -1.13623 0
M  V30 2453 C 227.861 2.55008 -2.23213 0
M  V30 2454 C 227.034 2.56201 -3.54513 0
M  V30 2455 C 226.093 3.7408 -3.70069 0
M  V30 2456 O 225.119 3.58258 -4.42312 0
M  V30 2457 N 226.321 4.92137 -3.07866 0
M  V30 2458 H 229.086 0.85639 -2.87204 0
M  V30 2459 H 226.647 0.321309 -1.5868 0
M  V30 2460 H 228.639 3.32404 -2.30846 0
M  V30 2461 H 227.209 2.80382 -1.3822 0
M  V30 2462 H 226.429 1.64613 -3.58185 0
M  V30 2463 H 227.717 2.54043 -4.4084 0
M  V30 2464 H 227.115 5.07895 -2.49116 0
M  V30 2465 H 225.672 5.67254 -3.21039 0
M  V30 2466 N 229.106 1.52395 0.401703 0
M  V30 2467 C 230.353 1.66817 1.14796 0
M  V30 2468 C 230.681 0.401772 1.90305 0
M  V30 2469 O 229.936 -0.615487 1.85769 0
M  V30 2470 C 230.235 2.84578 2.16217 0
M  V30 2471 C 229.901 4.22513 1.5746 0
M  V30 2472 C 228.563 4.60029 1.41161 0
M  V30 2473 C 230.915 5.0844 1.14622 0
M  V30 2474 C 228.243 5.81144 0.80552 0
M  V30 2475 C 230.595 6.30167 0.55428 0
M  V30 2476 C 229.259 6.66426 0.378482 0
M  V30 2477 H 228.529 0.610428 0.420069 0
M  V30 2478 H 231.176 1.86512 0.434212 0
M  V30 2479 H 229.481 2.59248 2.93764 0
M  V30 2480 H 231.178 2.92933 2.73845 0
M  V30 2481 H 227.768 3.92953 1.71132 0
M  V30 2482 H 231.952 4.80034 1.26021 0
M  V30 2483 H 227.208 6.07855 0.657399 0
M  V30 2484 H 231.382 6.96071 0.213983 0
M  V30 2485 H 229.009 7.60143 -0.0932606 0
M  V30 2486 N 230.584 -0.659388 1.43143 0
M  V30 2487 C 231.514 -1.78422 1.50625 0
M  V30 2488 C 232.495 -1.66216 0.361443 0
M  V30 2489 O 233.68 -1.85404 0.577834 0
M  V30 2490 C 230.81 -3.16815 1.42287 0
M  V30 2491 C 229.764 -3.43777 2.54954 0
M  V30 2492 C 229.09 -4.81905 2.31671 0
M  V30 2493 C 230.39 -3.39134 3.97222 0
M  V30 2494 H 232.084 -1.72417 2.44771 0
M  V30 2495 H 229.63 -0.828084 1.17808 0
M  V30 2496 H 231.583 -3.95253 1.46127 0
M  V30 2497 H 230.307 -3.23534 0.446435 0
M  V30 2498 H 228.966 -2.67707 2.50457 0
M  V30 2499 H 228.614 -4.85294 1.32284 0
M  V30 2500 H 228.314 -5.00906 3.07192 0
M  V30 2501 H 229.838 -5.62609 2.37284 0
M  V30 2502 H 231.252 -4.07518 4.03239 0
M  V30 2503 H 229.649 -3.69671 4.72719 0
M  V30 2504 H 230.719 -2.37426 4.22797 0
M  V30 2505 N 232.062 -1.29571 -0.897171 0
M  V30 2506 C 233.473 -1.15964 -1.46319 0
M  V30 2507 C 233.824 0.244267 -1.94674 0
M  V30 2508 O 232.949 1.13998 -1.83939 0
M  V30 2509 C 233.544 -2.09906 -2.65942 0
M  V30 2510 C 232.103 -2.00314 -3.18671 0
M  V30 2511 C 231.25 -2.00687 -1.91363 0
M  V30 2512 H 234.201 -1.42019 -0.708268 0
M  V30 2513 H 234.222 -1.67276 -3.41759 0
M  V30 2514 H 233.734 -3.12075 -2.30718 0
M  V30 2515 H 231.835 -1.01242 -3.58582 0
M  V30 2516 H 231.948 -2.88102 -3.82798 0
M  V30 2517 H 230.312 -1.45319 -2.09175 0
M  V30 2518 H 231.095 -3.04566 -1.58413 0
M  V30 2519 N 233.54 1.10788 -1.12088 0
M  V30 2520 C 234.788 1.8231 -0.872205 0
M  V30 2521 C 235.109 1.85419 0.603709 0
M  V30 2522 O 234.379 1.32963 1.43867 0
M  V30 2523 H 232.959 0.675137 -0.319686 0
M  V30 2524 H 235.621 1.34068 -1.41463 0
M  V30 2525 H 234.717 2.85955 -1.25045 0
M  V30 2526 N 235.018 0.912232 1.28515 0
M  V30 2527 C 236.248 0.559604 1.98877 0
M  V30 2528 C 236.656 -0.863113 1.68366 0
M  V30 2529 O 235.999 -1.58304 0.931969 0
M  V30 2530 C 236.061 0.68703 3.52874 0
M  V30 2531 C 235.725 2.07901 4.06972 0
M  V30 2532 C 236.722 3.05157 4.20922 0
M  V30 2533 C 234.407 2.39178 4.417 0
M  V30 2534 C 236.401 4.31806 4.68852 0
M  V30 2535 C 234.088 3.66068 4.89324 0
M  V30 2536 C 235.086 4.62195 5.02856 0
M  V30 2537 O 234.774 5.86829 5.49442 0
M  V30 2538 H 234.506 0.212191 0.641834 0
M  V30 2539 H 237.06 1.22712 1.64715 0
M  V30 2540 H 235.29 -0.0375486 3.86682 0
M  V30 2541 H 236.979 0.341727 4.04459 0
M  V30 2542 H 237.745 2.82311 3.94367 0
M  V30 2543 H 233.624 1.65109 4.30418 0
M  V30 2544 H 237.168 5.06842 4.79329 0
M  V30 2545 H 233.065 3.88739 5.15318 0
M  V30 2546 H 233.833 5.89597 5.6773 0
M  V30 2547 N 236.496 -1.42363 0.676048 0
M  V30 2548 C 237.406 -2.346 -0.00153389 0
M  V30 2549 C 238.422 -1.5516 -0.787485 0
M  V30 2550 O 239.598 -1.87723 -0.729521 0
M  V30 2551 C 236.663 -3.33705 -0.940298 0
M  V30 2552 C 235.724 -4.29042 -0.148739 0
M  V30 2553 C 234.957 -5.23413 -1.04279 0
M  V30 2554 O 235.18 -5.22749 -2.28232 0
M  V30 2555 O 234.114 -5.99795 -0.502925 0
M  V30 2556 H 237.94 -2.94082 0.758268 0
M  V30 2557 H 235.525 -1.42888 0.436289 0
M  V30 2558 H 237.407 -3.94586 -1.47917 0
M  V30 2559 H 236.082 -2.76695 -1.67993 0
M  V30 2560 H 234.989 -3.71571 0.43427 0
M  V30 2561 H 236.322 -4.89097 0.551805 0
M  V30 2562 N 237.974 -0.419461 -1.51915 0
M  V30 2563 C 238.937 0.389116 -2.25873 0
M  V30 2564 C 239.937 0.964924 -1.28631 0
M  V30 2565 O 241.127 0.842179 -1.52489 0
M  V30 2566 C 238.259 1.54874 -3.03689 0
M  V30 2567 H 239.452 -0.258799 -2.98781 0
M  V30 2568 H 237.005 -0.172209 -1.55348 0
M  V30 2569 H 237.74 2.23323 -2.35154 0
M  V30 2570 H 237.525 1.14223 -3.75094 0
M  V30 2571 H 239.015 2.12046 -3.59759 0
M  V30 2572 N 239.452 1.56882 -0.150215 0
M  V30 2573 C 240.863 1.82995 0.370076 0
M  V30 2574 C 241.214 1.06907 1.64515 0
M  V30 2575 O 240.339 0.315369 2.1409 0
M  V30 2576 C 240.934 3.31942 0.678208 0
M  V30 2577 C 239.493 3.58625 1.14301 0
M  V30 2578 C 238.64 2.76792 0.167778 0
M  V30 2579 H 241.591 1.54209 -0.374858 0
M  V30 2580 H 241.612 3.48272 1.53254 0
M  V30 2581 H 241.124 3.87294 -0.249991 0
M  V30 2582 H 239.225 3.08664 2.08704 0
M  V30 2583 H 239.338 4.67073 1.06676 0
M  V30 2584 H 237.702 2.45972 0.661037 0
M  V30 2585 H 238.485 3.34916 -0.754069 0
M  V30 2586 N 240.93 -0.123565 1.57115 0
M  V30 2587 C 241.893 -1.13583 1.99076 0
M  V30 2588 C 242.893 -1.34564 0.880296 0
M  V30 2589 O 244.083 -1.31158 1.14644 0
M  V30 2590 C 241.215 -2.49128 2.32698 0
M  V30 2591 H 242.408 -0.775287 2.89706 0
M  V30 2592 H 239.961 -0.36771 1.51913 0
M  V30 2593 H 240.696 -2.90111 1.44934 0
M  V30 2594 H 240.481 -2.35255 3.13684 0
M  V30 2595 H 241.971 -3.2199 2.65918 0
M  V30 2596 N 242.408 -1.52605 -0.393616 0
M  V30 2597 C 243.655 -1.67424 -1.1391 0
M  V30 2598 C 243.983 -0.411859 -1.90089 0
M  V30 2599 O 243.238 0.605626 -1.86093 0
M  V30 2600 C 243.537 -2.85721 -2.14705 0
M  V30 2601 C 243.203 -4.23342 -1.55218 0
M  V30 2602 C 241.865 -4.60771 -1.3872 0
M  V30 2603 C 244.217 -5.09041 -1.11924 0
M  V30 2604 C 241.545 -5.81563 -0.774689 0
M  V30 2605 C 243.897 -6.30452 -0.520853 0
M  V30 2606 C 242.561 -6.66617 -0.343134 0
M  V30 2607 H 241.831 -0.612648 -0.416826 0
M  V30 2608 H 244.478 -1.8674 -0.424315 0
M  V30 2609 H 242.783 -2.60803 -2.92385 0
M  V30 2610 H 244.48 -2.94382 -2.72288 0
M  V30 2611 H 241.07 -3.93855 -1.69045 0
M  V30 2612 H 245.254 -4.80695 -1.23473 0
M  V30 2613 H 240.51 -6.08196 -0.625154 0
M  V30 2614 H 244.684 -6.96175 -0.177065 0
M  V30 2615 H 242.311 -7.60083 0.133571 0
M  V30 2616 N 243.887 0.651787 -1.4349 0
M  V30 2617 C 244.82 1.77668 -1.43211 0
M  V30 2618 C 245.798 1.59931 -0.29338 0
M  V30 2619 O 246.982 1.82095 -0.487191 0
M  V30 2620 C 244.109 3.14986 -1.24505 0
M  V30 2621 C 243.155 3.51421 -2.41673 0
M  V30 2622 S 243.988 3.51234 -4.04222 0
M  V30 2623 C 245.144 4.91206 -3.87902 0
M  V30 2624 H 245.377 1.77635 -2.38397 0
M  V30 2625 H 242.91 0.824558 -1.30539 0
M  V30 2626 H 244.868 3.94237 -1.144 0
M  V30 2627 H 243.529 3.1258 -0.308651 0
M  V30 2628 H 242.722 4.51291 -2.24393 0
M  V30 2629 H 242.324 2.79585 -2.48411 0
M  V30 2630 H 244.616 5.79902 -3.50315 0
M  V30 2631 H 245.559 5.13537 -4.8753 0
M  V30 2632 H 245.967 4.64808 -3.20334 0
M  V30 2633 N 245.365 1.30045 0.890287 0
M  V30 2634 C 246.642 1.09227 1.62262 0
M  V30 2635 C 247.022 -0.360305 2.08002 0
M  V30 2636 O 246.37 -1.35084 1.84295 0
M  V30 2637 C 246.58 2.08835 2.79623 0
M  V30 2638 C 247.928 2.40266 3.50082 0
M  V30 2639 O 248.952 2.07104 2.89804 0
M  V30 2640 O 247.811 2.96967 4.58773 0
M  V30 2641 H 244.905 0.419132 0.712922 0
M  V30 2642 H 247.451 1.41451 0.937529 0
M  V30 2643 H 246.223 3.06633 2.43089 0
M  V30 2644 H 245.846 1.77397 3.55832 0
M  V30 2645 N 246.843 -1.10192 1.12674 0
M  V30 2646 C 248.254 -1.63707 0.897604 0
M  V30 2647 C 248.605 -1.87812 -0.567546 0
M  V30 2648 O 247.73 -1.62196 -1.43253 0
M  V30 2649 C 248.325 -2.974 1.62292 0
M  V30 2650 C 246.884 -3.47772 1.43986 0
M  V30 2651 C 246.031 -2.22332 1.65722 0
M  V30 2652 H 248.982 -0.936587 1.28116 0
M  V30 2653 H 249.003 -3.64986 1.07541 0
M  V30 2654 H 248.515 -2.79824 2.68924 0
M  V30 2655 H 246.616 -3.70487 0.396206 0
M  V30 2656 H 246.729 -4.25723 2.19765 0
M  V30 2657 H 245.093 -2.30599 1.08149 0
M  V30 2658 H 245.876 -2.07285 2.73657 0
M  V30 2659 N 248.321 -0.919034 -1.28029 0
M  V30 2660 C 249.251 -0.428581 -2.29533 0
M  V30 2661 C 250.232 0.50659 -1.62381 0
M  V30 2662 O 251.417 0.413195 -1.89753 0
M  V30 2663 C 248.547 0.327388 -3.45753 0
M  V30 2664 C 247.501 -0.519137 -4.2484 0
M  V30 2665 C 246.827 0.365486 -5.33449 0
M  V30 2666 C 248.127 -1.77914 -4.91064 0
M  V30 2667 H 249.821 -1.27687 -2.70807 0
M  V30 2668 H 247.367 -0.615428 -1.30186 0
M  V30 2669 H 249.32 0.681378 -4.15855 0
M  V30 2670 H 248.044 1.20963 -3.03374 0
M  V30 2671 H 246.703 -0.855717 -3.56473 0
M  V30 2672 H 246.351 1.24642 -4.87312 0
M  V30 2673 H 246.051 -0.197356 -5.87268 0
M  V30 2674 H 247.575 0.715241 -6.06396 0
M  V30 2675 H 248.989 -1.49374 -5.53498 0
M  V30 2676 H 247.386 -2.2848 -5.54903 0
M  V30 2677 H 248.456 -2.50382 -4.15255 0
M  V30 2678 N 249.799 1.42003 -0.683588 0
M  V30 2679 C 250.729 2.33487 -0.024866 0
M  V30 2680 C 251.71 1.51163 0.779975 0
M  V30 2681 O 252.895 1.79739 0.735362 0
M  V30 2682 C 250.025 3.3487 0.920836 0
M  V30 2683 C 248.979 4.27414 0.223958 0
M  V30 2684 C 248.305 5.19074 1.2832 0
M  V30 2685 C 249.605 5.14445 -0.90242 0
M  V30 2686 H 251.299 2.88819 -0.788921 0
M  V30 2687 H 248.845 1.38873 -0.38083 0
M  V30 2688 H 250.798 3.97787 1.39081 0
M  V30 2689 H 249.522 2.77861 1.71642 0
M  V30 2690 H 248.181 3.65904 -0.225864 0
M  V30 2691 H 247.829 4.58387 2.071 0
M  V30 2692 H 247.529 5.81822 0.821995 0
M  V30 2693 H 249.053 5.84867 1.75392 0
M  V30 2694 H 250.467 5.70998 -0.513272 0
M  V30 2695 H 248.864 5.86072 -1.28997 0
M  V30 2696 H 249.934 4.52322 -1.74737 0
M  V30 2697 N 251.277 0.427512 1.51691 0
M  V30 2698 C 252.688 -0.0378867 1.86662 0
M  V30 2699 C 253.039 -1.42819 1.34525 0
M  V30 2700 O 252.164 -2.05037 0.692014 0
M  V30 2701 C 252.759 -0.0755266 3.38716 0
M  V30 2702 C 251.318 -0.485309 3.73258 0
M  V30 2703 C 250.465 0.328399 2.75349 0
M  V30 2704 H 253.416 0.64379 1.45055 0
M  V30 2705 H 253.437 -0.887056 3.70016 0
M  V30 2706 H 252.949 0.936487 3.76632 0
M  V30 2707 H 251.05 -1.50329 3.40928 0
M  V30 2708 H 251.163 -0.21693 4.78609 0
M  V30 2709 H 249.527 -0.211905 2.53817 0
M  V30 2710 H 250.31 1.3391 3.16106 0
M  V30 2711 N 252.755 -1.56801 0.158532 0
M  V30 2712 C 253.702 -2.17337 -0.776729 0
M  V30 2713 C 254.672 -1.1096 -1.23601 0
M  V30 2714 O 255.857 -1.39054 -1.30647 0
M  V30 2715 C 252.997 -2.80822 -2.00582 0
M  V30 2716 C 252.11 -4.01624 -1.59129 0
M  V30 2717 C 251.245 -4.53072 -2.77306 0
M  V30 2718 C 250.284 -5.66314 -2.32282 0
M  V30 2719 N 249.421 -6.12329 -3.43508 0
M  V30 2720 H 254.261 -2.96918 -0.253701 0
M  V30 2721 H 251.798 -1.46661 -0.113504 0
M  V30 2722 H 253.756 -3.15779 -2.72652 0
M  V30 2723 H 252.386 -2.03866 -2.50277 0
M  V30 2724 H 251.438 -3.72571 -0.767806 0
M  V30 2725 H 252.75 -4.83633 -1.2207 0
M  V30 2726 H 251.904 -4.90145 -3.57551 0
M  V30 2727 H 250.643 -3.70095 -3.17617 0
M  V30 2728 H 249.648 -5.28806 -1.5048 0
M  V30 2729 H 250.873 -6.51085 -1.93043 0
M  V30 2730 H 248.819 -5.32284 -3.83418 0
M  V30 2731 H 248.736 -6.89293 -3.105 0
M  V30 2732 H 250.004 -6.5405 -4.24075 0
M  V30 2733 N 254.233 0.115231 -1.57178 0
M  V30 2734 C 255.163 1.1423 -2.03651 0
M  V30 2735 C 256.144 1.42967 -0.921655 0
M  V30 2736 O 257.329 1.53343 -1.19162 0
M  V30 2737 C 254.459 2.4675 -2.44401 0
M  V30 2738 C 253.413 2.32467 -3.59365 0
M  V30 2739 C 252.739 3.69984 -3.86026 0
M  V30 2740 C 254.039 1.78203 -4.90959 0
M  V30 2741 H 255.733 0.755749 -2.89705 0
M  V30 2742 H 253.279 0.362093 -1.39373 0
M  V30 2743 H 255.232 3.18854 -2.75517 0
M  V30 2744 H 253.956 2.87302 -1.55322 0
M  V30 2745 H 252.615 1.62811 -3.28463 0
M  V30 2746 H 252.263 4.08028 -2.94147 0
M  V30 2747 H 251.963 3.61279 -4.63412 0
M  V30 2748 H 253.487 4.43587 -4.19599 0
M  V30 2749 H 254.901 2.40128 -5.20587 0
M  V30 2750 H 253.298 1.8031 -5.72371 0
M  V30 2751 H 254.368 0.739876 -4.79222 0
M  V30 2752 N 255.711 1.52812 0.385517 0
M  V30 2753 C 257.122 1.5993 0.963293 0
M  V30 2754 C 257.473 0.454302 1.90868 0
M  V30 2755 O 256.598 -0.422132 2.12243 0
M  V30 2756 C 257.193 2.89871 1.75387 0
M  V30 2757 C 255.752 2.99389 2.28129 0
M  V30 2758 C 254.899 2.55071 1.08783 0
M  V30 2759 H 257.85 1.5784 0.164948 0
M  V30 2760 H 257.871 2.76553 2.61341 0
M  V30 2761 H 257.383 3.73186 1.06554 0
M  V30 2762 H 255.484 2.20619 3.00263 0
M  V30 2763 H 255.597 4.04096 2.57377 0
M  V30 2764 H 253.961 2.09473 1.4489 0
M  V30 2765 H 254.744 3.40785 0.414807 0
M  V30 2766 N 257.189 -0.644168 1.43834 0
M  V30 2767 C 258.136 -1.75671 1.49694 0
M  V30 2768 C 259.106 -1.6246 0.345809 0
M  V30 2769 O 260.291 -1.82573 0.554234 0
M  V30 2770 C 257.431 -3.13867 1.43463 0
M  V30 2771 C 256.544 -3.38147 2.6885 0
M  V30 2772 C 255.679 -4.66241 2.54544 0
M  V30 2773 C 254.718 -4.83657 3.75157 0
M  V30 2774 N 253.855 -6.03016 3.59605 0
M  V30 2775 H 258.695 -1.69998 2.44754 0
M  V30 2776 H 256.232 -0.829458 1.21484 0
M  V30 2777 H 258.19 -3.9377 1.37843 0
M  V30 2778 H 256.82 -3.18588 0.519783 0
M  V30 2779 H 255.872 -2.52276 2.84712 0
M  V30 2780 H 257.184 -3.46899 3.58417 0
M  V30 2781 H 256.338 -5.54285 2.46683 0
M  V30 2782 H 255.077 -4.59826 1.62516 0
M  V30 2783 H 254.082 -3.94046 3.83416 0
M  V30 2784 H 255.307 -4.91896 4.68204 0
M  V30 2785 H 253.253 -5.97715 2.7032 0
M  V30 2786 H 253.17 -6.12766 4.42779 0
M  V30 2787 H 254.438 -6.93657 3.55613 0
M  V30 2788 N 258.668 -1.30515 -0.883378 0
M  V30 2789 C 259.908 -1.20716 -1.64946 0
M  V30 2790 C 260.272 0.234072 -1.90568 0
M  V30 2791 O 261.473 0.455335 -2.64915 0
M  V30 2792 C 259.744 -2.01444 -2.9522 0
M  V30 2793 S 261.303 -2.0836 -3.86175 0
M  V30 2794 H 258.121 -0.430165 -0.566109 0
M  V30 2795 H 260.723 -1.65011 -1.04841 0
M  V30 2796 H 259.427 -3.05268 -2.74298 0
M  V30 2797 H 258.958 -1.57817 -3.60357 0
M  V30 2798 H 260.973 -1.21215 -4.81167 0
M  V30 2799 N 260.146 1.09593 -1.13257 0
M  V30 2800 C 261.371 1.8604 -0.916732 0
M  V30 2801 C 261.796 1.80504 0.529146 0
M  V30 2802 O 261.154 1.18127 1.37534 0
M  V30 2803 C 261.202 3.32017 -1.40703 0
M  V30 2804 O 260.306 4.08141 -0.591153 0
M  V30 2805 H 259.647 0.576943 -0.328683 0
M  V30 2806 H 262.177 1.38405 -1.50682 0
M  V30 2807 H 262.187 3.82865 -1.4099 0
M  V30 2808 H 260.862 3.35361 -2.45979 0
M  V30 2809 H 259.439 3.67084 -0.656005 0
M  V30 2810 N 261.624 0.925811 1.2754 0
M  V30 2811 C 262.554 0.440748 2.29303 0
M  V30 2812 C 263.535 -0.497971 1.62648 0
M  V30 2813 O 264.72 -0.403126 1.8997 0
M  V30 2814 C 261.85 -0.309048 3.45922 0
M  V30 2815 C 260.804 0.54166 4.24559 0
M  V30 2816 C 260.13 -0.337191 5.33636 0
M  V30 2817 C 261.43 1.80516 4.90114 0
M  V30 2818 H 263.124 1.29121 2.70126 0
M  V30 2819 H 260.67 0.622323 1.29858 0
M  V30 2820 H 262.623 -0.659315 4.1621 0
M  V30 2821 H 261.347 -1.19352 3.04011 0
M  V30 2822 H 260.006 0.874609 3.56014 0
M  V30 2823 H 259.654 -1.22056 4.87966 0
M  V30 2824 H 259.354 0.228497 5.87156 0
M  V30 2825 H 260.878 -0.683072 6.06767 0
M  V30 2826 H 262.292 1.52307 5.52698 0
M  V30 2827 H 260.689 2.3142 5.53683 0
M  V30 2828 H 261.759 2.52581 4.13921 0
M  V30 2829 N 263.102 -1.41638 0.69111 0
M  V30 2830 C 264.012 -2.34588 0.0233487 0
M  V30 2831 C 265.028 -1.55987 -0.770984 0
M  V30 2832 O 266.204 -1.88486 -0.709569 0
M  V30 2833 C 263.269 -3.34684 -0.904851 0
M  V30 2834 C 262.33 -4.29176 -0.103225 0
M  V30 2835 C 261.563 -5.2449 -0.987216 0
M  V30 2836 O 261.786 -5.2514 -2.22674 0
M  V30 2837 O 260.72 -6.00295 -0.439281 0
M  V30 2838 H 264.546 -2.93261 0.789416 0
M  V30 2839 H 262.131 -1.42417 0.45142 0
M  V30 2840 H 264.013 -3.96133 -1.43724 0
M  V30 2841 H 262.688 -2.78461 -1.65049 0
M  V30 2842 H 261.595 -3.71089 0.473655 0
M  V30 2843 H 262.928 -4.88484 0.60365 0
M  V30 2844 N 264.58 -0.43555 -1.51462 0
M  V30 2845 C 265.513 0.421989 -2.24264 0
M  V30 2846 C 266.491 1.02619 -1.26127 0
M  V30 2847 O 267.675 1.069 -1.55257 0
M  V30 2848 C 264.802 1.588 -2.99166 0
M  V30 2849 C 263.848 1.10465 -4.11946 0
M  V30 2850 S 264.681 0.048146 -5.35478 0
M  V30 2851 C 265.837 1.21887 -6.13917 0
M  V30 2852 H 266.07 -0.196102 -2.96653 0
M  V30 2853 H 263.603 -0.220054 -1.52824 0
M  V30 2854 H 265.561 2.25647 -3.42919 0
M  V30 2855 H 264.222 2.1775 -2.26371 0
M  V30 2856 H 263.415 1.97654 -4.63626 0
M  V30 2857 H 263.017 0.51445 -3.70445 0
M  V30 2858 H 265.309 2.13756 -6.42895 0
M  V30 2859 H 266.252 0.742076 -7.04201 0
M  V30 2860 H 266.66 1.45663 -5.45383 0
M  V30 2861 N 266.058 1.56714 -0.166846 0
M  V30 2862 C 267.307 1.95922 0.479318 0
M  V30 2863 C 267.62 1.05529 1.6469 0
M  V30 2864 O 268.826 1.34399 2.35901 0
M  V30 2865 C 267.282 3.48359 0.90412 0
M  V30 2866 C 266.89 4.47369 -0.237621 0
M  V30 2867 C 268.634 3.96394 1.51896 0
M  V30 2868 C 266.541 5.91039 0.206561 0
M  V30 2869 H 265.471 0.731495 0.18284 0
M  V30 2870 H 268.122 1.81728 -0.254363 0
M  V30 2871 H 266.504 3.57955 1.69365 0
M  V30 2872 H 267.678 4.49485 -1.01489 0
M  V30 2873 H 265.993 4.09366 -0.762128 0
M  V30 2874 H 268.59 5.01186 1.86325 0
M  V30 2875 H 268.933 3.39075 2.41524 0
M  V30 2876 H 269.466 3.89796 0.79395 0
M  V30 2877 H 266.205 6.52221 -0.654834 0
M  V30 2878 H 265.725 5.9224 0.949282 0
M  V30 2879 H 267.404 6.43707 0.651939 0
M  V30 2880 N 267.536 -0.106894 1.57237 0
M  V30 2881 C 268.813 -0.843526 1.76477 0
M  V30 2882 C 269.193 -1.97499 0.745464 0
M  V30 2883 O 268.541 -2.27357 -0.228306 0
M  V30 2884 C 268.751 -1.34903 3.21873 0
M  V30 2885 C 270.099 -1.79654 3.8472 0
M  V30 2886 O 271.123 -1.44554 3.2555 0
M  V30 2887 O 269.982 -2.44515 4.88748 0
M  V30 2888 H 267.076 -0.401468 0.723016 0
M  V30 2889 H 269.622 -0.0896927 1.69463 0
M  V30 2890 H 268.394 -0.53781 3.87586 0
M  V30 2891 H 268.017 -2.16522 3.33473 0
M  V30 2892 N 269.014 -1.53014 -0.377408 0
M  V30 2893 C 269.964 -1.74996 -1.46152 0
M  V30 2894 C 270.948 -0.604236 -1.49123 0
M  V30 2895 O 272.14 -0.862489 -1.54564 0
M  V30 2896 C 269.269 -1.93267 -2.8373 0
M  V30 2897 C 268.355 -3.13807 -2.85283 0
M  V30 2898 N 268.746 -4.35941 -2.56493 0
M  V30 2899 C 267.044 -3.14288 -3.16448 0
M  V30 2900 C 267.745 -5.17615 -2.65424 0
M  V30 2901 N 266.721 -4.53559 -2.99641 0
M  V30 2902 H 270.523 -2.67044 -1.22738 0
M  V30 2903 H 268.037 -1.51479 -0.585479 0
M  V30 2904 H 270.034 -2.0714 -3.61799 0
M  V30 2905 H 268.694 -1.0244 -3.08117 0
M  V30 2906 H 269.705 -4.63876 -2.30302 0
M  V30 2907 H 266.382 -2.33312 -3.46225 0
M  V30 2908 H 267.772 -6.25006 -2.46612 0
M  V30 2909 N 270.492 0.636531 -1.44174 0
M  V30 2910 C 271.741 1.39213 -1.45954 0
M  V30 2911 C 272.054 1.95374 -0.0939119 0
M  V30 2912 O 273.26 2.71498 0.0107767 0
M  V30 2913 C 271.716 2.52025 -2.56927 0
M  V30 2914 C 271.324 2.024 -3.99673 0
M  V30 2915 C 273.068 3.29269 -2.67922 0
M  V30 2916 C 270.975 3.12521 -5.0208 0
M  V30 2917 H 269.905 0.523132 -0.542999 0
M  V30 2918 H 272.556 0.685349 -1.70221 0
M  V30 2919 H 270.938 3.25253 -2.25891 0
M  V30 2920 H 272.112 1.36073 -4.40251 0
M  V30 2921 H 270.427 1.37987 -3.92872 0
M  V30 2922 H 273.024 4.11352 -3.41605 0
M  V30 2923 H 273.367 3.78397 -1.73555 0
M  V30 2924 H 273.9 2.63129 -2.98342 0
M  V30 2925 H 270.639 2.68343 -5.98057 0
M  V30 2926 H 270.159 3.77507 -4.66099 0
M  V30 2927 H 271.838 3.77385 -5.25538 0
M  V30 2928 N 271.97 1.30982 0.876444 0
M  V30 2929 C 273.216 1.20474 1.63138 0
M  V30 2930 C 273.549 -0.238096 1.92735 0
M  V30 2931 O 272.824 -1.1692 1.55435 0
M  V30 2932 C 273.107 2.04244 2.96574 0
M  V30 2933 C 272.96 3.56793 2.73896 0
M  V30 2934 C 274.279 1.88684 3.97601 0
M  V30 2935 H 271.398 0.439001 0.591985 0
M  V30 2936 H 274.04 1.60704 1.01361 0
M  V30 2937 H 272.19 1.70063 3.493 0
M  V30 2938 H 273.862 4.01077 2.27892 0
M  V30 2939 H 272.105 3.80548 2.08245 0
M  V30 2940 H 272.776 4.10706 3.68815 0
M  V30 2941 H 275.252 2.18584 3.54062 0
M  V30 2942 H 274.128 2.4961 4.88862 0
M  V30 2943 H 274.389 0.848343 4.33884 0
M  V30 2944 N 273.449 -1.08991 1.13837 0
M  V30 2945 C 274.697 -1.80899 0.901098 0
M  V30 2946 C 275.018 -1.86356 -0.574134 0
M  V30 2947 O 274.288 -1.35235 -1.41733 0
M  V30 2948 H 272.868 -0.669966 0.330386 0
M  V30 2949 H 275.53 -1.318 1.43578 0
M  V30 2950 H 274.626 -2.83929 1.29578 0
M  V30 2951 N 274.927 -0.932562 -1.27047 0
M  V30 2952 C 275.875 -0.42603 -2.28665 0
M  V30 2953 C 276.869 0.49219 -1.62092 0
M  V30 2954 O 278.075 0.371355 -1.76128 0
M  V30 2955 H 274.45 -0.119213 -0.742491 0
M  V30 2956 H 276.421 -1.29579 -2.68797 0
M  V30 2957 C 275.17 0.301426 -3.46391 0
M  V30 2958 H 274.493 -0.39595 -3.97834 0
M  V30 2959 H 275.933 0.6202 -4.1944 0
M  V30 2960 C 274.392 1.51616 -3.00856 0
M  V30 2961 O 274.922 2.61476 -3.04948 0
M  V30 2962 N 273.128 1.36969 -2.56296 0
M  V30 2963 H 272.675 0.475873 -2.53166 0
M  V30 2964 H 272.633 2.18368 -2.26192 0
M  V30 2965 N 276.405 1.4127 -0.698611 0
M  V30 2966 C 277.337 2.292 0.00399731 0
M  V30 2967 C 278.35 1.44944 0.741279 0
M  V30 2968 O 279.539 1.68416 0.591477 0
M  V30 2969 C 276.639 3.22875 1.02979 0
M  V30 2970 C 275.812 4.35904 0.36151 0
M  V30 2971 C 274.871 5.10134 1.29033 0
M  V30 2972 O 273.897 5.63809 0.781562 0
M  V30 2973 N 275.099 5.17885 2.6225 0
M  V30 2974 H 277.864 2.9014 -0.750921 0
M  V30 2975 H 275.425 1.52455 -0.544882 0
M  V30 2976 H 277.417 3.69404 1.65296 0
M  V30 2977 H 275.987 2.63221 1.68622 0
M  V30 2978 H 275.207 3.91719 -0.441584 0
M  V30 2979 H 276.495 5.08696 -0.103055 0
M  V30 2980 H 275.893 4.7573 3.061 0
M  V30 2981 H 274.45 5.6798 3.19754 0
M  V30 2982 N 277.883 0.443576 1.51229 0
M  V30 2983 C 279.294 -0.0180867 1.86691 0
M  V30 2984 C 279.645 -1.41384 1.36033 0
M  V30 2985 O 278.77 -2.04291 0.713722 0
M  V30 2986 C 279.365 -0.039597 3.38777 0
M  V30 2987 C 277.924 -0.445692 3.73752 0
M  V30 2988 C 277.071 0.357584 2.74985 0
M  V30 2989 H 280.022 0.659138 1.44364 0
M  V30 2990 H 280.043 -0.847761 3.70936 0
M  V30 2991 H 279.555 0.976382 3.75617 0
M  V30 2992 H 277.656 -1.46704 3.42503 0
M  V30 2993 H 277.769 -0.166155 4.78812 0
M  V30 2994 H 276.133 -0.184973 2.54027 0
M  V30 2995 H 276.916 1.37256 3.14668 0
M  V30 2996 N 279.361 -1.56624 0.175154 0
M  V30 2997 C 280.638 -1.88688 -0.515373 0
M  V30 2998 C 281.018 -1.08564 -1.81044 0
M  V30 2999 O 280.366 -0.180703 -2.27784 0
M  V30 3000 C 280.576 -3.40768 -0.753552 0
M  V30 3001 C 281.924 -4.10587 -1.08184 0
M  V30 3002 O 282.948 -3.46106 -0.841961 0
M  V30 3003 O 281.807 -5.24512 -1.53459 0
M  V30 3004 H 278.901 -0.78301 -0.26613 0
M  V30 3005 H 281.447 -1.68347 0.213877 0
M  V30 3006 H 280.219 -3.90965 0.161829 0
M  V30 3007 H 279.842 -3.66733 -1.53598 0
M  V30 3008 N 280.839 0.0985539 -1.57292 0
M  V30 3009 C 281.771 1.14595 -1.98496 0
M  V30 3010 C 282.784 1.36512 -0.887031 0
M  V30 3011 O 283.973 1.35225 -1.16518 0
M  V30 3012 C 281.073 2.50216 -2.28572 0
M  V30 3013 C 280.246 2.48624 -3.59868 0
M  V30 3014 C 279.305 3.66146 -3.7792 0
M  V30 3015 O 278.331 3.48795 -4.49812 0
M  V30 3016 N 279.533 4.85496 -3.18235 0
M  V30 3017 H 282.298 0.795277 -2.88956 0
M  V30 3018 H 279.859 0.287579 -1.59325 0
M  V30 3019 H 281.851 3.27432 -2.37845 0
M  V30 3020 H 280.421 2.77387 -1.44136 0
M  V30 3021 H 279.641 1.56978 -3.61596 0
M  V30 3022 H 280.929 2.44635 -4.46129 0
M  V30 3023 H 280.327 5.02497 -2.59833 0
M  V30 3024 H 278.884 5.60317 -3.32999 0
M  V30 3025 N 282.317 1.53212 0.369288 0
M  V30 3026 C 283.227 1.82342 1.47609 0
M  V30 3027 C 284.243 0.711532 1.58787 0
M  V30 3028 O 285.419 1.0012 1.74751 0
M  V30 3029 C 282.484 2.00393 2.8292 0
M  V30 3030 C 281.545 3.24297 2.81301 0
M  V30 3031 C 280.778 3.41478 4.10157 0
M  V30 3032 O 281.001 2.63033 5.06132 0
M  V30 3033 O 279.935 4.34817 4.16194 0
M  V30 3034 H 283.761 2.76366 1.25918 0
M  V30 3035 H 281.346 1.38547 0.559034 0
M  V30 3036 H 283.228 2.13859 3.63101 0
M  V30 3037 H 281.903 1.09559 3.04596 0
M  V30 3038 H 280.81 3.16257 1.99831 0
M  V30 3039 H 282.143 4.15041 2.64578 0
M  V30 3040 N 283.795 -0.628877 1.44509 0
M  V30 3041 C 284.728 -1.75367 1.46019 0
M  V30 3042 C 285.706 -1.59444 0.318787 0
M  V30 3043 O 286.89 -1.81297 0.516099 0
M  V30 3044 C 284.017 -3.12965 1.29501 0
M  V30 3045 C 283.063 -3.47532 2.47233 0
M  V30 3046 S 283.896 -3.44758 4.09758 0
M  V30 3047 C 285.052 -4.84973 3.95667 0
M  V30 3048 H 285.285 -1.7382 2.41193 0
M  V30 3049 H 282.818 -0.803686 1.31834 0
M  V30 3050 H 284.776 -3.92367 1.20658 0
M  V30 3051 H 283.437 -3.12049 0.358341 0
M  V30 3052 H 282.63 -4.47664 2.31544 0
M  V30 3053 H 282.232 -2.75598 2.52828 0
M  V30 3054 H 284.524 -5.74255 3.59496 0
M  V30 3055 H 285.467 -5.05716 4.95638 0
M  V30 3056 H 285.875 -4.59653 3.27688 0
M  V30 3057 N 285.273 -1.31445 -0.869486 0
M  V30 3058 C 286.519 -1.21337 -1.62496 0
M  V30 3059 C 286.852 0.227872 -1.92858 0
M  V30 3060 O 286.127 1.16094 -1.56053 0
M  V30 3061 C 286.41 -2.05814 -2.95487 0
M  V30 3062 C 286.263 -3.5824 -2.72 0
M  V30 3063 C 287.582 -1.9079 -3.96594 0
M  V30 3064 H 284.701 -0.442135 -0.589649 0
M  V30 3065 H 287.343 -1.6124 -1.00507 0
M  V30 3066 H 285.493 -1.71913 -3.48394 0
M  V30 3067 H 287.165 -4.0228 -2.25762 0
M  V30 3068 H 285.408 -3.81647 -2.06224 0
M  V30 3069 H 286.079 -4.12657 -3.66631 0
M  V30 3070 H 288.555 -2.20459 -3.52898 0
M  V30 3071 H 287.431 -2.52199 -4.87531 0
M  V30 3072 H 287.692 -0.871341 -4.33428 0
M  V30 3073 N 286.751 1.08385 -1.14413 0
M  V30 3074 C 287.976 1.85057 -0.936413 0
M  V30 3075 C 288.401 1.81055 0.509971 0
M  V30 3076 O 287.759 1.1958 1.36273 0
M  V30 3077 C 287.807 3.30505 -1.44217 0
M  V30 3078 O 286.911 4.07491 -0.634409 0
M  V30 3079 H 286.252 0.573425 -0.334784 0
M  V30 3080 H 288.782 1.36799 -1.52142 0
M  V30 3081 H 288.792 3.81348 -1.45043 0
M  V30 3082 H 287.467 3.32734 -2.49522 0
M  V30 3083 H 286.044 3.66368 -0.694902 0
M  V30 3084 N 288.23 0.939286 1.26551 0
M  V30 3085 C 289.193 0.451987 2.24699 0
M  V30 3086 C 290.193 -0.435869 1.5478 0
M  V30 3087 O 291.383 -0.235314 1.72603 0
M  V30 3088 C 288.515 -0.348801 3.39111 0
M  V30 3089 H 289.708 1.3193 2.69322 0
M  V30 3090 H 287.261 0.721072 1.38673 0
M  V30 3091 H 287.996 -1.23444 2.99887 0
M  V30 3092 H 287.781 0.287945 3.91041 0
M  V30 3093 H 289.271 -0.679726 4.12031 0
M  V30 3094 N 289.708 -1.40897 0.706093 0
M  V30 3095 C 290.933 -2.05895 0.249435 0
M  V30 3096 C 291.358 -1.52823 -1.09666 0
M  V30 3097 O 290.716 -0.659589 -1.68876 0
M  V30 3098 C 290.764 -3.59872 0.22904 0
M  V30 3099 O 289.868 -4.04708 -0.792784 0
M  V30 3100 H 289.209 -0.653206 0.119241 0
M  V30 3101 H 291.739 -1.80471 0.96391 0
M  V30 3102 H 291.749 -4.07951 0.0634791 0
M  V30 3103 H 290.424 -3.97866 1.21141 0
M  V30 3104 H 289.001 -3.68111 -0.59572 0
M  V30 3105 N 291.186 -0.45159 -1.50991 0
M  V30 3106 C 292.096 0.358431 -2.31846 0
M  V30 3107 C 293.112 1.01438 -1.41373 0
M  V30 3108 O 294.288 1.00663 -1.74439 0
M  V30 3109 C 291.353 1.43704 -3.15515 0
M  V30 3110 C 290.414 0.799742 -4.21785 0
M  V30 3111 C 289.647 1.82696 -5.01456 0
M  V30 3112 O 289.87 3.05105 -4.81941 0
M  V30 3113 O 288.804 1.40958 -5.85162 0
M  V30 3114 H 292.63 -0.302032 -3.02194 0
M  V30 3115 H 290.215 -0.213825 -1.47862 0
M  V30 3116 H 292.097 2.06227 -3.67489 0
M  V30 3117 H 290.772 2.08133 -2.47916 0
M  V30 3118 H 289.679 0.136084 -3.73852 0
M  V30 3119 H 291.012 0.198718 -4.91799 0
M  V30 3120 N 292.664 1.56529 -0.183458 0
M  V30 3121 C 293.91 1.98304 0.452466 0
M  V30 3122 C 294.265 1.06799 1.60037 0
M  V30 3123 O 293.558 0.110049 1.91284 0
M  V30 3124 C 293.752 3.43939 0.971637 0
M  V30 3125 C 293.581 4.49528 -0.124425 0
M  V30 3126 C 292.351 5.01981 -0.578168 0
M  V30 3127 C 294.549 5.05836 -0.929207 0
M  V30 3128 N 292.531 5.91219 -1.65327 0
M  V30 3129 C 293.902 5.91632 -1.85396 0
M  V30 3130 C 295.957 4.88302 -0.972929 0
M  V30 3131 C 294.66 6.61768 -2.81878 0
M  V30 3132 C 296.686 5.59168 -1.92574 0
M  V30 3133 C 296.048 6.44701 -2.83795 0
M  V30 3134 H 292.147 0.770551 0.133324 0
M  V30 3135 H 294.731 1.92581 -0.286473 0
M  V30 3136 H 292.902 3.50184 1.68006 0
M  V30 3137 H 294.634 3.72702 1.5772 0
M  V30 3138 H 291.389 4.73282 -0.173639 0
M  V30 3139 H 291.813 6.40543 -2.19167 0
M  V30 3140 H 296.455 4.21861 -0.28168 0
M  V30 3141 H 294.173 7.27415 -3.51984 0
M  V30 3142 H 297.759 5.47582 -1.96583 0
M  V30 3143 H 296.639 6.98573 -3.56322 0
M  V30 3144 N 294.142 -0.090211 1.57342 0
M  V30 3145 C 295.372 -0.805055 1.90269 0
M  V30 3146 C 295.78 -1.72561 0.775842 0
M  V30 3147 O 295.123 -1.81839 -0.260843 0
M  V30 3148 C 295.185 -1.66734 3.18497 0
M  V30 3149 C 294.849 -0.918092 4.47683 0
M  V30 3150 C 295.846 -0.245674 5.19319 0
M  V30 3151 C 293.531 -0.890724 4.94339 0
M  V30 3152 C 295.525 0.444088 6.35851 0
M  V30 3153 C 293.212 -0.197179 6.10782 0
M  V30 3154 C 294.21 0.469044 6.81388 0
M  V30 3155 O 293.898 1.15146 7.95611 0
M  V30 3156 H 293.63 -0.235143 0.633785 0
M  V30 3157 H 296.184 -0.0703805 2.05279 0
M  V30 3158 H 294.414 -2.44437 2.99646 0
M  V30 3159 H 296.103 -2.25919 3.37217 0
M  V30 3160 H 296.869 -0.258246 4.84312 0
M  V30 3161 H 292.748 -1.39873 4.39268 0
M  V30 3162 H 296.292 0.964667 6.90898 0
M  V30 3163 H 292.189 -0.18247 6.45242 0
M  V30 3164 H 292.957 1.05885 8.11622 0
M  V30 3165 N 295.62 -1.53406 -0.361157 0
M  V30 3166 C 296.55 -1.83136 -1.44857 0
M  V30 3167 C 297.531 -0.685174 -1.5569 0
M  V30 3168 O 298.716 -0.93544 -1.70186 0
M  V30 3169 C 295.846 -2.02522 -2.82138 0
M  V30 3170 C 294.8 -3.18302 -2.86126 0
M  V30 3171 C 294.126 -3.22989 -4.26125 0
M  V30 3172 C 295.426 -4.56796 -2.53248 0
M  V30 3173 H 297.12 -2.74201 -1.20226 0
M  V30 3174 H 294.666 -1.31938 -0.576922 0
M  V30 3175 H 296.619 -2.21904 -3.58241 0
M  V30 3176 H 295.343 -1.08172 -3.08166 0
M  V30 3177 H 294.002 -2.98747 -2.12475 0
M  V30 3178 H 293.65 -2.26267 -4.49235 0
M  V30 3179 H 293.35 -4.00781 -4.29708 0
M  V30 3180 H 294.874 -3.44559 -5.04094 0
M  V30 3181 H 296.288 -4.7631 -3.19064 0
M  V30 3182 H 294.685 -5.36862 -2.68141 0
M  V30 3183 H 295.755 -4.61606 -1.48484 0
M  V30 3184 N 297.098 0.621204 -1.44841 0
M  V30 3185 C 298.045 1.73267 -1.5247 0
M  V30 3186 C 299.015 1.6189 -0.371611 0
M  V30 3187 O 300.2 1.81668 -0.58321 0
M  V30 3188 C 297.34 3.11545 -1.48438 0
M  V30 3189 C 296.453 3.33827 -2.74196 0
M  V30 3190 C 295.588 4.62133 -2.61929 0
M  V30 3191 C 294.627 4.77627 -3.82804 0
M  V30 3192 N 293.764 5.97219 -3.69153 0
M  V30 3193 H 298.604 1.66082 -2.47428 0
M  V30 3194 H 296.141 0.810026 -1.22788 0
M  V30 3195 H 298.099 3.91528 -1.4409 0
M  V30 3196 H 296.729 3.1772 -0.570402 0
M  V30 3197 H 295.781 2.47715 -2.88689 0
M  V30 3198 H 297.093 3.41153 -3.6389 0
M  V30 3199 H 296.247 5.50291 -2.5547 0
M  V30 3200 H 294.986 4.57182 -1.69811 0
M  V30 3201 H 293.991 3.87896 -3.89637 0
M  V30 3202 H 295.216 4.84385 -4.75971 0
M  V30 3203 H 293.162 5.93339 -2.79794 0
M  V30 3204 H 293.079 6.05644 -4.52472 0
M  V30 3205 H 294.347 6.87912 -3.66603 0
M  V30 3206 N 298.576 1.31904 0.862503 0
M  V30 3207 C 299.524 1.20125 1.9918 0
M  V30 3208 C 300.518 0.107824 1.69056 0
M  V30 3209 O 301.724 0.270223 1.7796 0
M  V30 3210 H 298.099 0.372148 0.65346 0
M  V30 3211 H 300.07 2.15652 2.06244 0
M  V30 3212 C 298.819 0.933099 3.34946 0
M  V30 3213 H 298.142 1.76664 3.5865 0
M  V30 3214 H 299.582 0.890892 4.14535 0
M  V30 3215 C 298.041 -0.364172 3.34926 0
M  V30 3216 O 298.571 -1.37858 3.77304 0
M  V30 3217 N 296.777 -0.383362 2.8806 0
M  V30 3218 H 296.324 0.442651 2.53768 0
M  V30 3219 H 296.282 -1.25123 2.8843 0
M  V30 3220 N 300.054 -1.07777 1.14986 0
M  V30 3221 C 300.984 -2.16865 0.865557 0
M  V30 3222 C 301.965 -1.69123 -0.182083 0
M  V30 3223 O 303.15 -1.94164 -0.0373815 0
M  V30 3224 C 300.28 -3.45539 0.349313 0
M  V30 3225 C 299.234 -4.06708 1.33313 0
M  V30 3226 C 298.56 -5.30411 0.675918 0
M  V30 3227 C 299.86 -4.47241 2.69764 0
M  V30 3228 H 301.554 -2.40905 1.77778 0
M  V30 3229 H 299.1 -1.15781 0.856203 0
M  V30 3230 H 301.053 -4.21174 0.137983 0
M  V30 3231 H 299.777 -3.21072 -0.598362 0
M  V30 3232 H 298.436 -3.33112 1.53075 0
M  V30 3233 H 298.084 -5.02232 -0.277767 0
M  V30 3234 H 297.784 -5.72293 1.33244 0
M  V30 3235 H 299.308 -6.08755 0.474262 0
M  V30 3236 H 300.722 -5.14025 2.53873 0
M  V30 3237 H 299.119 -5.00062 3.3175 0
M  V30 3238 H 300.189 -3.58818 3.26156 0
M  V30 3239 N 301.532 -0.945985 -1.26051 0
M  V30 3240 C 302.464 -0.416662 -2.25381 0
M  V30 3241 C 303.477 0.462712 -1.56086 0
M  V30 3242 O 304.666 0.272383 -1.7641 0
M  V30 3243 C 301.766 0.419812 -3.3629 0
M  V30 3244 C 300.939 -0.444531 -4.35135 0
M  V30 3245 C 299.998 0.332305 -5.2515 0
M  V30 3246 O 299.024 -0.266324 -5.68577 0
M  V30 3247 N 300.226 1.62763 -5.57215 0
M  V30 3248 H 302.991 -1.27059 -2.71433 0
M  V30 3249 H 300.552 -0.815392 -1.39868 0
M  V30 3250 H 302.544 0.947013 -3.93464 0
M  V30 3251 H 301.114 1.17456 -2.89694 0
M  V30 3252 H 300.334 -1.15291 -3.76964 0
M  V30 3253 H 301.622 -1.03478 -4.98166 0
M  V30 3254 H 301.02 2.13603 -5.23823 0
M  V30 3255 H 299.577 2.10097 -6.17011 0
M  V30 3256 N 303.011 1.40521 -0.713556 0
M  V30 3257 C 304.258 2.00923 -0.25219 0
M  V30 3258 C 304.586 1.56571 1.15395 0
M  V30 3259 O 303.841 0.775874 1.79663 0
M  V30 3260 C 304.14 3.56317 -0.278 0
M  V30 3261 C 303.806 4.20246 -1.63415 0
M  V30 3262 C 302.468 4.37422 -2.00538 0
M  V30 3263 C 304.82 4.55923 -2.52554 0
M  V30 3264 C 302.148 4.87558 -3.2635 0
M  V30 3265 C 304.5 5.07458 -3.77716 0
M  V30 3266 C 303.164 5.22843 -4.14959 0
M  V30 3267 H 302.434 0.735231 -0.0922829 0
M  V30 3268 H 305.081 1.68161 -0.916188 0
M  V30 3269 H 303.386 3.88976 0.469567 0
M  V30 3270 H 305.083 4.00883 0.0967819 0
M  V30 3271 H 301.673 4.07263 -1.33546 0
M  V30 3272 H 305.857 4.42291 -2.25149 0
M  V30 3273 H 301.113 4.97654 -3.55176 0
M  V30 3274 H 305.287 5.34041 -4.4696 0
M  V30 3275 H 302.914 5.61454 -5.12516 0
M  V30 3276 N 304.489 0.459591 1.5075 0
M  V30 3277 C 305.439 -0.358926 2.25157 0
M  V30 3278 C 306.423 -0.971285 1.28276 0
M  V30 3279 O 307.615 -0.885739 1.53244 0
M  V30 3280 C 304.744 -1.44695 3.11317 0
M  V30 3281 C 303.83 -0.842894 4.15639 0
M  V30 3282 N 304.221 0.0299373 5.05791 0
M  V30 3283 C 302.519 -1.10809 4.32015 0
M  V30 3284 C 303.22 0.371563 5.80512 0
M  V30 3285 N 302.196 -0.250409 5.43023 0
M  V30 3286 H 305.998 0.313636 2.92222 0
M  V30 3287 H 303.512 0.273021 1.60089 0
M  V30 3288 H 305.509 -2.04641 3.63218 0
M  V30 3289 H 304.169 -2.12162 2.45799 0
M  V30 3290 H 305.18 0.39797 5.16369 0
M  V30 3291 H 301.857 -1.7786 3.77719 0
M  V30 3292 H 303.247 1.08319 6.63111 0
M  V30 3293 N 305.967 -1.56429 0.191757 0
M  V30 3294 C 307.383 -1.58754 -0.164137 0
M  V30 3295 C 307.583 -1.20782 -1.61288 0
M  V30 3296 O 306.639 -0.928999 -2.34789 0
M  V30 3297 C 307.952 -3.00396 0.135195 0
M  V30 3298 C 309.5 -3.1291 0.0750351 0
M  V30 3299 C 309.975 -4.56679 0.347632 0
M  V30 3300 N 311.466 -4.62252 0.296131 0
M  V30 3301 C 312.201 -5.71379 0.480948 0
M  V30 3302 N 311.697 -6.88986 0.725933 0
M  V30 3303 N 313.49 -5.60563 0.415435 0
M  V30 3304 H 305.641 -1.79393 1.13718 0
M  V30 3305 H 307.904 -0.832414 0.453643 0
M  V30 3306 H 307.61 -3.32726 1.13958 0
M  V30 3307 H 307.484 -3.72963 -0.563773 0
M  V30 3308 H 309.871 -2.80394 -0.919948 0
M  V30 3309 H 309.952 -2.42736 0.807029 0
M  V30 3310 H 309.596 -4.89907 1.33992 0
M  V30 3311 H 309.526 -5.25039 -0.405212 0
M  V30 3312 H 312.017 -3.7773 0.113259 0
M  V30 3313 H 312.33 -7.68046 0.855857 0
M  V30 3314 H 310.675 -6.90801 0.762788 0
M  V30 3315 H 313.866 -4.67561 0.224486 0
M  V30 3316 H 314.039 -6.45551 0.562889 0
M  V30 3317 N 307.445 0.0818655 -1.57387 0
M  V30 3318 C 308.692 0.782914 -1.86753 0
M  V30 3319 C 309.02 1.78082 -0.782118 0
M  V30 3320 O 308.275 1.94426 0.22295 0
M  V30 3321 C 308.574 1.53513 -3.22752 0
M  V30 3322 C 308.24 0.678134 -4.45771 0
M  V30 3323 C 306.902 0.441929 -4.79166 0
M  V30 3324 C 309.254 0.0832243 -5.21134 0
M  V30 3325 C 306.582 -0.398833 -5.85343 0
M  V30 3326 C 308.934 -0.744935 -6.28199 0
M  V30 3327 C 307.598 -0.991107 -6.60101 0
M  V30 3328 H 306.868 0.286489 -0.683378 0
M  V30 3329 H 309.515 0.0439808 -1.91449 0
M  V30 3330 H 307.82 2.34599 -3.138 0
M  V30 3331 H 309.517 2.08218 -3.42705 0
M  V30 3332 H 306.107 0.872357 -4.19628 0
M  V30 3333 H 310.291 0.252847 -4.95655 0
M  V30 3334 H 305.547 -0.598405 -6.08465 0
M  V30 3335 H 309.721 -1.21271 -6.8576 0
M  V30 3336 H 307.348 -1.64437 -7.42202 0
M  V30 3337 N 308.923 1.53595 0.353017 0
M  V30 3338 C 310.169 1.71581 1.09232 0
M  V30 3339 C 310.524 0.468328 1.86613 0
M  V30 3340 O 309.817 -0.538911 1.83865 0
M  V30 3341 C 310.011 2.91313 2.07054 0
M  V30 3342 C 309.84 4.27585 1.39287 0
M  V30 3343 C 308.61 4.92233 1.1417 0
M  V30 3344 C 310.808 5.07656 0.824005 0
M  V30 3345 N 308.79 6.124 0.428841 0
M  V30 3346 C 310.161 6.19531 0.241195 0
M  V30 3347 C 312.216 4.92609 0.723922 0
M  V30 3348 C 310.919 7.18002 -0.431952 0
M  V30 3349 C 312.945 5.91365 0.0645334 0
M  V30 3350 C 312.307 7.02571 -0.507347 0
M  V30 3351 H 308.406 0.680987 0.384422 0
M  V30 3352 H 310.99 1.91013 0.377096 0
M  V30 3353 H 309.161 2.73398 2.75877 0
M  V30 3354 H 310.893 2.98062 2.73753 0
M  V30 3355 H 307.648 4.51612 1.42631 0
M  V30 3356 H 308.072 6.76944 0.0874131 0
M  V30 3357 H 312.714 4.06808 1.15181 0
M  V30 3358 H 310.432 8.03384 -0.871758 0
M  V30 3359 H 314.018 5.81799 -0.0121469 0
M  V30 3360 H 312.898 7.77675 -1.0095 0
M  V30 3361 N 310.401 -0.613514 1.45168 0
M  V30 3362 C 311.626 -1.40437 1.52618 0
M  V30 3363 C 312.051 -1.87438 0.157707 0
M  V30 3364 O 311.409 -1.59791 -0.856537 0
M  V30 3365 C 311.457 -2.58894 2.51011 0
M  V30 3366 O 310.561 -3.59326 2.02382 0
M  V30 3367 H 309.902 -0.419506 0.514695 0
M  V30 3368 H 312.432 -0.747215 1.90467 0
M  V30 3369 H 312.442 -3.06214 2.69624 0
M  V30 3370 H 311.117 -2.24032 3.50403 0
M  V30 3371 H 309.694 -3.18695 1.93618 0
M  V30 3372 N 311.879 -1.3236 -0.855495 0
M  V30 3373 C 313.125 -1.23054 -1.612 0
M  V30 3374 C 313.458 0.207404 -1.93089 0
M  V30 3375 O 312.733 1.14432 -1.57275 0
M  V30 3376 C 313.016 -2.08937 -2.93287 0
M  V30 3377 C 312.869 -3.61105 -2.68185 0
M  V30 3378 C 314.188 -1.94986 -3.94549 0
M  V30 3379 H 311.307 -0.448364 -0.584926 0
M  V30 3380 H 313.949 -1.62297 -0.987917 0
M  V30 3381 H 312.099 -1.75599 -3.46551 0
M  V30 3382 H 313.771 -4.04652 -2.21483 0
M  V30 3383 H 312.014 -3.83813 -2.02164 0
M  V30 3384 H 312.685 -4.16522 -3.62234 0
M  V30 3385 H 315.161 -2.24189 -3.5054 0
M  V30 3386 H 314.037 -2.57356 -4.84829 0
M  V30 3387 H 314.298 -0.917263 -4.3248 0
M  V30 3388 N 313.357 1.07166 -1.15556 0
M  V30 3389 C 314.634 1.76546 -0.842069 0
M  V30 3390 C 315.014 2.00453 0.661939 0
M  V30 3391 O 314.362 1.62452 1.60691 0
M  V30 3392 C 314.572 3.07266 -1.65495 0
M  V30 3393 C 315.92 3.81578 -1.86234 0
M  V30 3394 O 316.944 3.17083 -1.62287 0
M  V30 3395 O 315.803 4.97419 -2.26355 0
M  V30 3396 H 312.897 0.766756 -0.309862 0
M  V30 3397 H 315.443 1.13514 -1.26145 0
M  V30 3398 H 314.215 2.85494 -2.67598 0
M  V30 3399 H 313.838 3.7803 -1.23203 0
M  V30 3400 N 314.835 0.952656 1.25548 0
M  V30 3401 C 316.112 0.523818 1.88456 0
M  V30 3402 C 316.492 -0.998871 1.85973 0
M  V30 3403 O 315.84 -1.86381 1.3219 0
M  V30 3404 C 316.05 1.0982 3.31271 0
M  V30 3405 C 317.398 1.17385 4.08051 0
M  V30 3406 O 318.422 1.04961 3.40384 0
M  V30 3407 O 317.281 1.36852 5.29088 0
M  V30 3408 H 314.375 0.172485 0.808813 0
M  V30 3409 H 316.921 1.04596 1.33633 0
M  V30 3410 H 315.693 2.1415 3.27499 0
M  V30 3411 H 315.316 0.559191 3.93648 0
M  V30 3412 N 316.313 -1.40141 0.720998 0
M  V30 3413 C 317.541 -2.05096 0.272656 0
M  V30 3414 C 317.956 -1.54334 -1.0875 0
M  V30 3415 O 317.313 -0.702211 -1.6845 0
M  V30 3416 C 317.364 -3.60636 0.249835 0
M  V30 3417 O 317.085 -4.09526 1.55629 0
M  V30 3418 C 318.586 -4.42772 -0.216396 0
M  V30 3419 H 315.806 -0.659897 0.121558 0
M  V30 3420 H 318.35 -1.79449 0.980723 0
M  V30 3421 H 316.505 -3.85232 -0.409237 0
M  V30 3422 H 316.919 -5.03758 1.4604 0
M  V30 3423 H 318.393 -5.51702 -0.181212 0
M  V30 3424 H 318.87 -4.20756 -1.25941 0
M  V30 3425 H 319.476 -4.23294 0.412596 0
M  V30 3426 N 317.792 -0.46758 -1.50504 0
M  V30 3427 C 318.724 0.364655 -2.26281 0
M  V30 3428 C 319.737 0.960151 -1.31472 0
M  V30 3429 O 320.926 0.849153 -1.57008 0
M  V30 3430 C 318.026 1.52509 -3.02645 0
M  V30 3431 C 317.199 1.04302 -4.24782 0
M  V30 3432 C 316.258 2.07709 -4.8347 0
M  V30 3433 O 315.284 1.65913 -5.44483 0
M  V30 3434 N 316.486 3.40485 -4.70159 0
M  V30 3435 H 319.251 -0.28495 -2.98342 0
M  V30 3436 H 316.812 -0.298163 -1.59131 0
M  V30 3437 H 318.804 2.21371 -3.38787 0
M  V30 3438 H 317.374 2.07945 -2.33404 0
M  V30 3439 H 316.594 0.180393 -3.93787 0
M  V30 3440 H 317.882 0.698798 -5.03978 0
M  V30 3441 H 317.28 3.77155 -4.21629 0
M  V30 3442 H 315.837 4.05156 -5.1058 0
M  V30 3443 N 319.27 1.56325 -0.20005 0
M  V30 3444 C 320.516 1.98012 0.438059 0
M  V30 3445 C 320.849 1.08702 1.60927 0
M  V30 3446 O 320.124 0.140064 1.93995 0
M  V30 3447 C 320.407 3.48841 0.893419 0
M  V30 3448 C 320.26 4.48928 -0.279947 0
M  V30 3449 C 321.579 4.03498 1.75719 0
M  V30 3450 H 318.698 0.719918 0.157757 0
M  V30 3451 H 321.34 1.87743 -0.291968 0
M  V30 3452 H 319.49 3.57723 1.51547 0
M  V30 3453 H 321.162 4.52079 -0.91772 0
M  V30 3454 H 319.405 4.23694 -0.930919 0
M  V30 3455 H 320.076 5.5194 0.0812601 0
M  V30 3456 H 322.552 3.97427 1.23253 0
M  V30 3457 H 321.428 5.09393 2.04476 0
M  V30 3458 H 321.689 3.4906 2.71311 0
M  V30 3459 N 320.748 -0.0735177 1.57428 0
M  V30 3460 C 321.698 -1.09442 2.00016 0
M  V30 3461 C 322.682 -1.34575 0.881947 0
M  V30 3462 O 323.874 -1.34905 1.14585 0
M  V30 3463 C 321.003 -2.40865 2.4462 0
M  V30 3464 C 320.089 -2.19014 3.63172 0
M  V30 3465 N 320.48 -1.67087 4.77405 0
M  V30 3466 C 318.778 -2.49494 3.69688 0
M  V30 3467 C 319.479 -1.6001 5.5926 0
M  V30 3468 N 318.455 -2.05999 5.03056 0
M  V30 3469 H 322.257 -0.686227 2.85776 0
M  V30 3470 H 319.771 -0.280617 1.59957 0
M  V30 3471 H 321.768 -3.14763 2.73368 0
M  V30 3472 H 320.428 -2.82403 1.60246 0
M  V30 3473 H 321.439 -1.35975 4.99731 0
M  V30 3474 H 318.116 -2.94409 2.96023 0
M  V30 3475 H 319.506 -1.2073 6.60964 0
M  V30 3476 N 322.226 -1.5378 -0.344866 0
M  V30 3477 C 323.454 -1.74899 -1.10534 0
M  V30 3478 C 323.869 -0.487534 -1.82397 0
M  V30 3479 O 323.226 0.540741 -1.74305 0
M  V30 3480 C 323.277 -2.92822 -2.11984 0
M  V30 3481 O 322.998 -4.14089 -1.43044 0
M  V30 3482 C 324.499 -3.25982 -3.00417 0
M  V30 3483 H 321.719 -0.584426 -0.329678 0
M  V30 3484 H 324.263 -2.006 -0.397474 0
M  V30 3485 H 322.418 -2.69457 -2.78338 0
M  V30 3486 H 322.832 -4.80272 -2.10805 0
M  V30 3487 H 324.306 -4.11848 -3.67539 0
M  V30 3488 H 324.783 -2.42228 -3.66363 0
M  V30 3489 H 325.389 -3.51349 -2.39654 0
M  V30 3490 N 323.704 0.605807 -1.45491 0
M  V30 3491 C 324.614 1.74466 -1.56839 0
M  V30 3492 C 325.63 1.68006 -0.452772 0
M  V30 3493 O 326.806 1.8833 -0.713708 0
M  V30 3494 C 323.871 3.10931 -1.53371 0
M  V30 3495 C 322.932 3.28832 -2.75986 0
M  V30 3496 C 322.165 4.58787 -2.72673 0
M  V30 3497 O 322.388 5.4122 -1.80102 0
M  V30 3498 O 321.322 4.79438 -3.63899 0
M  V30 3499 H 325.148 1.67843 -2.53106 0
M  V30 3500 H 322.733 0.770108 -1.28022 0
M  V30 3501 H 324.615 3.92233 -1.54051 0
M  V30 3502 H 323.29 3.18042 -0.602572 0
M  V30 3503 H 322.197 2.47112 -2.80867 0
M  V30 3504 H 323.53 3.26599 -3.68231 0
M  V30 3505 N 325.182 1.32811 0.848464 0
M  V30 3506 C 326.412 1.26556 1.63301 0
M  V30 3507 C 326.82 -0.1676 1.88456 0
M  V30 3508 O 326.163 -1.11713 1.45828 0
M  V30 3509 C 326.225 1.96202 3.01239 0
M  V30 3510 C 325.889 3.45528 2.99098 0
M  V30 3511 C 326.886 4.40903 2.75501 0
M  V30 3512 C 324.571 3.87558 3.19537 0
M  V30 3513 C 326.565 5.76282 2.72356 0
M  V30 3514 C 324.252 5.23044 3.16019 0
M  V30 3515 C 325.25 6.17217 2.92458 0
M  V30 3516 O 324.938 7.50223 2.88825 0
M  V30 3517 H 324.67 0.43771 0.515156 0
M  V30 3518 H 327.224 1.7559 1.0657 0
M  V30 3519 H 325.454 1.41746 3.59785 0
M  V30 3520 H 327.143 1.83573 3.62016 0
M  V30 3521 H 327.909 4.09756 2.5947 0
M  V30 3522 H 323.788 3.14674 3.369 0
M  V30 3523 H 327.332 6.4976 2.53886 0
M  V30 3524 H 323.229 5.53818 3.31596 0
M  V30 3525 H 323.997 7.59657 3.04735 0
M  V30 3526 N 326.66 -1.06551 1.16123 0
M  V30 3527 C 327.885 -1.83544 0.965735 0
M  V30 3528 C 328.31 -1.81843 -0.481102 0
M  V30 3529 O 327.668 -1.21732 -1.34354 0
M  V30 3530 C 327.716 -3.28169 1.49457 0
M  V30 3531 O 326.82 -4.0643 0.699157 0
M  V30 3532 H 326.161 -0.568026 0.343864 0
M  V30 3533 H 328.691 -1.34362 1.54299 0
M  V30 3534 H 328.701 -3.78992 1.51092 0
M  V30 3535 H 327.376 -3.28722 2.54784 0
M  V30 3536 H 325.953 -3.65216 0.7531 0
M  V30 3537 N 328.138 -0.959301 -1.25041 0
M  V30 3538 C 329.363 -0.633507 -1.97488 0
M  V30 3539 C 329.788 0.788555 -1.70773 0
M  V30 3540 O 329.146 1.53394 -0.966431 0
M  V30 3541 C 329.194 -0.904057 -3.49083 0
M  V30 3542 O 328.298 0.0147939 -4.12397 0
M  V30 3543 H 327.639 -0.240368 -0.618966 0
M  V30 3544 H 330.169 -1.28717 -1.59038 0
M  V30 3545 H 330.179 -0.832203 -3.99423 0
M  V30 3546 H 328.854 -1.94048 -3.67856 0
M  V30 3547 H 327.431 -0.109664 -3.72739 0
M  V30 3548 N 329.616 1.39756 -0.72842 0
M  V30 3549 C 330.546 2.33289 -0.0991354 0
M  V30 3550 C 331.527 1.53568 0.731489 0
M  V30 3551 O 332.712 1.81987 0.677807 0
M  V30 3552 C 329.842 3.3763 0.813834 0
M  V30 3553 C 328.796 4.2791 0.0878663 0
M  V30 3554 C 328.122 5.22894 1.11741 0
M  V30 3555 C 329.422 5.11314 -1.06563 0
M  V30 3556 H 331.116 2.86163 -0.880408 0
M  V30 3557 H 328.662 1.37591 -0.424819 0
M  V30 3558 H 330.615 4.0201 1.26355 0
M  V30 3559 H 329.339 2.83181 1.62715 0
M  V30 3560 H 327.998 3.65 -0.342159 0
M  V30 3561 H 327.646 4.64744 1.92412 0
M  V30 3562 H 327.346 5.84143 0.636477 0
M  V30 3563 H 328.87 5.90151 1.56697 0
M  V30 3564 H 330.284 5.69076 -0.694671 0
M  V30 3565 H 328.681 5.81671 -1.47577 0
M  V30 3566 H 329.751 4.46534 -1.89038 0
M  V30 3567 N 331.094 0.475555 1.50254 0
M  V30 3568 C 332.51 0.12997 1.5907 0
M  V30 3569 C 332.71 -1.36385 1.48328 0
M  V30 3570 O 331.766 -2.13754 1.34407 0
M  V30 3571 C 333.079 0.684139 2.92814 0
M  V30 3572 C 334.627 0.647965 3.0622 0
M  V30 3573 C 335.102 1.17975 4.42545 0
M  V30 3574 N 336.593 1.13936 4.48969 0
M  V30 3575 C 337.328 1.52129 5.52851 0
M  V30 3576 N 336.824 1.97793 6.63965 0
M  V30 3577 N 338.617 1.43704 5.4342 0
M  V30 3578 H 330.768 1.44706 1.55479 0
M  V30 3579 H 333.031 0.598691 0.735033 0
M  V30 3580 H 332.737 1.73079 3.06164 0
M  V30 3581 H 332.611 0.130204 3.76975 0
M  V30 3582 H 334.998 -0.38979 2.92514 0
M  V30 3583 H 335.079 1.23876 2.23805 0
M  V30 3584 H 334.723 2.21616 4.57 0
M  V30 3585 H 334.653 0.565138 5.23559 0
M  V30 3586 H 337.144 0.804488 3.69238 0
M  V30 3587 H 337.457 2.25072 7.39299 0
M  V30 3588 H 335.802 2.01749 6.65073 0
M  V30 3589 H 338.993 1.07867 4.55502 0
M  V30 3590 H 339.166 1.73794 6.24259 0
M  V30 3591 N 332.573 -1.56217 0.208337 0
M  V30 3592 C 333.798 -2.02782 -0.435222 0
M  V30 3593 C 334.223 -1.08738 -1.53485 0
M  V30 3594 O 333.581 -0.0731855 -1.81152 0
M  V30 3595 C 333.629 -3.47687 -0.956335 0
M  V30 3596 O 332.733 -3.56773 -2.06849 0
M  V30 3597 H 332.074 -0.656403 -0.100158 0
M  V30 3598 H 334.604 -2.02033 0.3231 0
M  V30 3599 H 334.614 -3.87745 -1.26955 0
M  V30 3600 H 333.289 -4.15624 -0.15143 0
M  V30 3601 H 331.866 -3.28597 -1.76292 0
M  V30 3602 N 334.051 0.0651679 -1.57465 0
M  V30 3603 C 335.3 0.761916 -1.86756 0
M  V30 3604 C 335.613 1.78406 -0.801925 0
M  V30 3605 O 336.819 2.53084 -0.982885 0
M  V30 3606 C 335.275 1.40603 -3.31299 0
M  V30 3607 C 334.883 0.422115 -4.46007 0
M  V30 3608 C 336.627 2.08476 -3.69781 0
M  V30 3609 C 334.534 1.07252 -5.81593 0
M  V30 3610 H 333.464 0.288308 -0.696702 0
M  V30 3611 H 336.115 0.015344 -1.83494 0
M  V30 3612 H 334.497 2.20109 -3.29193 0
M  V30 3613 H 335.671 -0.343613 -4.59517 0
M  V30 3614 H 333.986 -0.152527 -4.16121 0
M  V30 3615 H 336.583 2.57925 -4.68379 0
M  V30 3616 H 336.926 2.88712 -2.99919 0
M  V30 3617 H 337.459 1.35792 -3.73905 0
M  V30 3618 H 334.198 0.310342 -6.54765 0
M  V30 3619 H 333.718 1.80895 -5.71872 0
M  V30 3620 H 335.397 1.59043 -6.27148 0
M  V30 3621 N 335.529 1.53961 0.336706 0
M  V30 3622 C 336.775 1.7179 1.07777 0
M  V30 3623 C 337.108 0.483263 1.88091 0
M  V30 3624 O 336.383 -0.519747 1.87427 0
M  V30 3625 C 336.666 2.98558 2.01334 0
M  V30 3626 C 336.519 4.32245 1.24437 0
M  V30 3627 C 337.838 3.21023 3.01052 0
M  V30 3628 H 334.957 0.625089 0.390426 0
M  V30 3629 H 337.599 1.86641 0.35567 0
M  V30 3630 H 335.749 2.86028 2.62908 0
M  V30 3631 H 337.421 4.56637 0.654243 0
M  V30 3632 H 335.664 4.30344 0.546458 0
M  V30 3633 H 336.335 5.17137 1.93063 0
M  V30 3634 H 338.811 3.32929 2.49595 0
M  V30 3635 H 337.687 4.11104 3.6371 0
M  V30 3636 H 337.948 2.37637 3.72802 0
M  V30 3637 N 337.007 -0.598083 1.45811 0
M  V30 3638 C 338.253 -1.35882 1.50545 0
M  V30 3639 C 338.586 -1.93616 0.150445 0
M  V30 3640 O 337.861 -1.75604 -0.83628 0
M  V30 3641 C 338.144 -2.49966 2.59208 0
M  V30 3642 C 337.997 -1.97367 4.04186 0
M  V30 3643 C 339.316 -3.52068 2.64076 0
M  V30 3644 H 336.435 -0.492717 0.548087 0
M  V30 3645 H 339.077 -0.673319 1.77669 0
M  V30 3646 H 337.227 -3.08443 2.3621 0
M  V30 3647 H 338.899 -1.43466 4.38423 0
M  V30 3648 H 337.142 -1.283 4.14393 0
M  V30 3649 H 337.813 -2.79649 4.75921 0
M  V30 3650 H 340.289 -3.03448 2.84708 0
M  V30 3651 H 339.165 -4.2937 3.41954 0
M  V30 3652 H 339.426 -4.08304 1.69531 0
M  V30 3653 N 338.485 -1.33259 -0.841409 0
M  V30 3654 C 339.448 -1.23221 -1.9326 0
M  V30 3655 C 340.448 -0.151895 -1.60081 0
M  V30 3656 O 341.638 -0.403246 -1.69468 0
M  V30 3657 C 338.77 -0.898123 -3.28856 0
M  V30 3658 H 339.963 -2.2021 -2.03587 0
M  V30 3659 H 337.516 -1.17281 -1.03319 0
M  V30 3660 H 338.251 0.0693841 -3.24226 0
M  V30 3661 H 338.036 -1.67934 -3.54317 0
M  V30 3662 H 339.526 -0.852563 -4.08805 0
M  V30 3663 N 339.963 1.05934 -1.16686 0
M  V30 3664 C 340.911 2.15603 -0.872817 0
M  V30 3665 C 341.905 1.68647 0.159576 0
M  V30 3666 O 343.111 1.79995 0.0132125 0
M  V30 3667 H 339.486 0.703885 -0.264671 0
M  V30 3668 H 341.457 2.37613 -1.80507 0
M  V30 3669 C 340.206 3.45457 -0.394344 0
M  V30 3670 H 339.529 3.81984 -1.18019 0
M  V30 3671 H 340.969 4.2339 -0.227408 0
M  V30 3672 C 339.428 3.25021 0.88673 0
M  V30 3673 O 339.958 3.50906 1.95519 0
M  V30 3674 N 338.164 2.78437 0.831925 0
M  V30 3675 H 337.711 2.57572 -0.0377619 0
M  V30 3676 H 337.669 2.65144 1.68956 0
M  V30 3677 N 341.441 0.965919 1.2453 0
M  V30 3678 C 342.671 0.643451 1.96324 0
M  V30 3679 C 343.079 -0.790927 1.71875 0
M  V30 3680 O 342.422 -1.54208 0.998273 0
M  V30 3681 C 342.484 0.836078 3.49643 0
M  V30 3682 C 342.148 2.24975 3.97788 0
M  V30 3683 C 343.145 3.22735 4.07601 0
M  V30 3684 C 340.83 2.57697 4.31158 0
M  V30 3685 C 342.824 4.51303 4.50116 0
M  V30 3686 C 340.511 3.86492 4.73357 0
M  V30 3687 C 341.509 4.83107 4.828 0
M  V30 3688 O 341.197 6.09605 5.24058 0
M  V30 3689 H 340.929 0.239223 0.632257 0
M  V30 3690 H 343.483 1.29587 1.59362 0
M  V30 3691 H 341.713 0.12649 3.86493 0
M  V30 3692 H 343.402 0.512965 4.02646 0
M  V30 3693 H 344.168 2.98783 3.82039 0
M  V30 3694 H 340.047 1.83216 4.23028 0
M  V30 3695 H 343.591 5.26716 4.57401 0
M  V30 3696 H 339.488 4.10245 4.98366 0
M  V30 3697 H 340.256 6.13146 5.42213 0
M  V30 3698 N 342.919 -1.39368 0.735821 0
M  V30 3699 C 343.829 -2.34395 0.0979693 0
M  V30 3700 C 344.845 -1.58361 -0.720968 0
M  V30 3701 O 346.021 -1.90648 -0.649245 0
M  V30 3702 C 343.086 -3.37393 -0.797916 0
M  V30 3703 C 342.147 -4.29287 0.0333662 0
M  V30 3704 C 341.38 -5.27365 -0.819854 0
M  V30 3705 O 341.603 -5.31959 -2.05855 0
M  V30 3706 O 340.537 -6.01389 -0.248079 0
M  V30 3707 H 344.363 -2.90601 0.882315 0
M  V30 3708 H 341.948 -1.40909 0.4965 0
M  V30 3709 H 343.83 -4.00505 -1.31048 0
M  V30 3710 H 342.505 -2.83571 -1.56106 0
M  V30 3711 H 341.412 -3.69395 0.591475 0
M  V30 3712 H 342.745 -4.86317 0.758752 0
M  V30 3713 N 344.397 -0.483516 -1.5 0
M  V30 3714 C 345.307 0.309172 -2.32554 0
M  V30 3715 C 346.323 0.984159 -1.43493 0
M  V30 3716 O 347.499 0.969399 -1.76535 0
M  V30 3717 C 344.564 1.36979 -3.18493 0
M  V30 3718 C 343.625 0.710095 -4.23387 0
M  V30 3719 C 342.858 1.72018 -5.05218 0
M  V30 3720 O 343.081 2.94813 -4.88305 0
M  V30 3721 O 342.015 1.28515 -5.8802 0
M  V30 3722 H 345.841 -0.366064 -3.01486 0
M  V30 3723 H 343.426 -0.24514 -1.47375 0
M  V30 3724 H 345.308 1.98385 -3.71781 0
M  V30 3725 H 343.983 2.02828 -2.52275 0
M  V30 3726 H 342.89 0.0567539 -3.74057 0
M  V30 3727 H 344.223 0.0943557 -4.9211 0
M  V30 3728 N 345.875 1.56104 -0.216619 0
M  V30 3729 C 347.1 2.0301 0.424462 0
M  V30 3730 C 347.525 1.0955 1.52907 0
M  V30 3731 O 346.883 0.0827914 1.81111 0
M  V30 3732 C 346.931 3.4819 0.937883 0
M  V30 3733 O 346.035 3.57865 2.04955 0
M  V30 3734 H 345.376 0.656925 0.0966755 0
M  V30 3735 H 347.906 2.01859 -0.33381 0
M  V30 3736 H 347.916 3.88413 1.24897 0
M  V30 3737 H 346.591 4.15699 0.129387 0
M  V30 3738 H 345.168 3.29527 1.74546 0
M  V30 3739 N 347.353 -0.0568162 1.57498 0
M  V30 3740 C 348.602 -0.752001 1.87157 0
M  V30 3741 C 348.915 -1.77978 0.811375 0
M  V30 3742 O 350.121 -2.52559 0.996293 0
M  V30 3743 C 348.577 -1.38844 3.3204 0
M  V30 3744 C 348.185 -0.398456 4.46225 0
M  V30 3745 C 349.929 -2.06512 3.70882 0
M  V30 3746 C 347.836 -1.04166 5.82154 0
M  V30 3747 H 346.766 -0.28461 0.698222 0
M  V30 3748 H 349.417 -0.00561272 1.83499 0
M  V30 3749 H 347.799 -2.1836 3.30356 0
M  V30 3750 H 348.973 0.367977 4.59328 0
M  V30 3751 H 347.288 0.174592 4.16034 0
M  V30 3752 H 349.885 -2.55437 4.6974 0
M  V30 3753 H 350.228 -2.87117 3.01445 0
M  V30 3754 H 350.761 -1.33808 3.7462 0
M  V30 3755 H 347.5 -0.275614 6.5492 0
M  V30 3756 H 347.02 -1.7786 5.72823 0
M  V30 3757 H 348.699 -1.55715 6.27982 0
M  V30 3758 N 348.832 -1.54138 -0.328536 0
M  V30 3759 C 349.779 -1.83176 -1.40411 0
M  V30 3760 C 350.749 -0.678494 -1.5161 0
M  V30 3761 O 351.934 -0.92443 -1.6691 0
M  V30 3762 C 349.074 -2.06035 -2.76846 0
M  V30 3763 C 348.187 -3.33727 -2.74318 0
M  V30 3764 C 347.322 -3.46574 -4.02567 0
M  V30 3765 C 346.361 -4.68159 -3.94327 0
M  V30 3766 N 345.498 -4.77959 -5.14296 0
M  V30 3767 H 350.338 -2.74938 -1.14948 0
M  V30 3768 H 347.875 -1.36166 -0.556538 0
M  V30 3769 H 349.833 -2.1728 -3.56153 0
M  V30 3770 H 348.463 -1.1757 -3.00628 0
M  V30 3771 H 347.515 -3.31246 -1.8703 0
M  V30 3772 H 348.827 -4.23139 -2.64111 0
M  V30 3773 H 347.981 -3.57333 -4.90304 0
M  V30 3774 H 346.72 -2.55245 -4.15574 0
M  V30 3775 H 345.725 -4.57461 -3.04974 0
M  V30 3776 H 346.95 -5.60868 -3.82889 0
M  V30 3777 H 344.896 -3.89544 -5.27818 0
M  V30 3778 H 344.813 -5.6133 -5.06404 0
M  V30 3779 H 346.081 -4.93044 -6.03761 0
M  V30 3780 N 350.31 0.590341 -1.46126 0
M  V30 3781 C 351.243 1.71434 -1.50617 0
M  V30 3782 C 352.221 1.58543 -0.360948 0
M  V30 3783 O 353.405 1.79865 -0.563985 0
M  V30 3784 C 350.532 3.09422 -1.37753 0
M  V30 3785 C 349.578 3.40854 -2.5636 0
M  V30 3786 S 350.411 3.33773 -4.18755 0
M  V30 3787 C 351.567 4.74312 -4.08386 0
M  V30 3788 H 351.8 1.67364 -2.45717 0
M  V30 3789 H 349.333 0.76845 -1.33919 0
M  V30 3790 H 351.291 3.8903 -1.31018 0
M  V30 3791 H 349.952 3.10989 -0.440949 0
M  V30 3792 H 349.145 4.41368 -2.43332 0
M  V30 3793 H 348.747 2.68798 -2.60046 0
M  V30 3794 H 351.039 5.64522 -3.74595 0
M  V30 3795 H 351.982 4.92397 -5.08872 0
M  V30 3796 H 352.39 4.50803 -3.3976 0
M  V30 3797 N 351.788 1.33704 0.83433 0
M  V30 3798 C 353.199 1.22813 1.4062 0
M  V30 3799 C 353.55 -0.151107 1.95617 0
M  V30 3800 O 352.675 -1.05092 1.89168 0
M  V30 3801 C 353.27 2.22355 2.55624 0
M  V30 3802 C 351.829 2.1529 3.08751 0
M  V30 3803 C 350.976 2.09589 1.8157 0
M  V30 3804 H 353.927 1.45236 0.639702 0
M  V30 3805 H 353.948 1.83391 3.33389 0
M  V30 3806 H 353.46 3.22728 2.15566 0
M  V30 3807 H 351.561 1.18235 3.53343 0
M  V30 3808 H 351.674 3.06038 3.68616 0
M  V30 3809 H 350.038 1.55134 2.02004 0
M  V30 3810 H 350.821 3.11777 1.43701 0
M  V30 3811 N 353.266 -1.05314 1.17247 0
M  V30 3812 C 354.515 -1.77685 0.954521 0
M  V30 3813 C 354.828 -1.88616 -0.518025 0
M  V30 3814 O 356.034 -2.57714 -0.854144 0
M  V30 3815 C 354.49 -3.19402 1.65863 0
M  V30 3816 C 354.098 -3.16605 3.16963 0
M  V30 3817 C 355.842 -3.96237 1.52303 0
M  V30 3818 C 353.749 -4.53103 3.80068 0
M  V30 3819 H 352.679 -0.666 0.353496 0
M  V30 3820 H 355.33 -1.1805 1.40486 0
M  V30 3821 H 353.712 -3.79355 1.13602 0
M  V30 3822 H 354.886 -2.66176 3.76148 0
M  V30 3823 H 353.201 -2.53268 3.30521 0
M  V30 3824 H 355.798 -4.97157 1.96822 0
M  V30 3825 H 356.141 -4.136 0.473401 0
M  V30 3826 H 356.674 -3.42829 2.01775 0
M  V30 3827 H 353.413 -4.40946 4.85023 0
M  V30 3828 H 352.933 -5.03686 3.2567 0
M  V30 3829 H 354.612 -5.22045 3.82202 0
M  V30 3830 N 354.744 -0.972509 -1.24016 0
M  V30 3831 C 355.692 -0.498562 -2.27194 0
M  V30 3832 C 356.686 0.440372 -1.63576 0
M  V30 3833 O 357.892 0.315133 -1.7722 0
M  V30 3834 H 354.267 -0.142775 -0.738322 0
M  V30 3835 H 356.238 -1.38065 -2.64539 0
M  V30 3836 C 354.987 0.191072 -3.47175 0
M  V30 3837 H 354.31 -0.522318 -3.96373 0
M  V30 3838 H 355.75 0.486445 -4.212 0
M  V30 3839 C 354.209 1.41967 -3.05527 0
M  V30 3840 O 354.739 2.51642 -3.13112 0
M  V30 3841 N 352.945 1.28746 -2.60524 0
M  V30 3842 H 352.492 0.395089 -2.54552 0
M  V30 3843 H 352.45 2.11061 -2.33025 0
M  V30 3844 N 356.222 1.38976 -0.743202 0
M  V30 3845 C 357.132 2.3434 -0.110399 0
M  V30 3846 C 358.148 1.58741 0.712559 0
M  V30 3847 O 359.324 1.9099 0.639125 0
M  V30 3848 C 356.389 3.37812 0.780012 0
M  V30 3849 C 355.45 4.29263 -0.0561319 0
M  V30 3850 C 354.683 5.27793 0.791875 0
M  V30 3851 O 354.906 5.33043 2.03031 0
M  V30 3852 O 353.84 6.01512 0.216183 0
M  V30 3853 H 357.666 2.90129 -0.897714 0
M  V30 3854 H 355.251 1.40643 -0.503966 0
M  V30 3855 H 357.133 4.01194 1.28923 0
M  V30 3856 H 355.808 2.84395 1.546 0
M  V30 3857 H 354.715 3.69076 -0.611056 0
M  V30 3858 H 356.048 4.85907 -0.784531 0
M  V30 3859 N 357.7 0.491464 1.49741 0
M  V30 3860 C 359.111 0.0413169 1.86654 0
M  V30 3861 C 359.462 -1.36985 1.40462 0
M  V30 3862 O 358.587 -2.01917 0.778354 0
M  V30 3863 C 359.182 0.0682023 3.38731 0
M  V30 3864 C 357.741 -0.32656 3.74981 0
M  V30 3865 C 356.888 0.444888 2.73708 0
M  V30 3866 H 359.839 0.704733 1.42194 0
M  V30 3867 H 359.86 -0.729322 3.73445 0
M  V30 3868 H 359.372 1.09539 3.72321 0
M  V30 3869 H 357.473 -1.35734 3.46997 0
M  V30 3870 H 357.586 -0.013741 4.79098 0
M  V30 3871 H 355.95 -0.104062 2.54487 0
M  V30 3872 H 356.733 1.47197 3.10142 0
M  V30 3873 N 359.178 -1.55987 0.224894 0
M  V30 3874 C 360.141 -2.19178 -0.670348 0
M  V30 3875 C 361.141 -1.15461 -1.11917 0
M  V30 3876 O 362.331 -1.40675 -1.02743 0
M  V30 3877 C 359.463 -2.81777 -1.9187 0
M  V30 3878 H 360.656 -2.99662 -0.119364 0
M  V30 3879 H 358.209 -1.5628 -0.0247128 0
M  V30 3880 H 358.944 -2.05172 -2.51147 0
M  V30 3881 H 358.729 -3.57732 -1.60531 0
M  V30 3882 H 360.219 -3.30205 -2.55645 0
M  V30 3883 N 360.656 0.0484629 -1.57525 0
M  V30 3884 C 362.067 0.597486 -1.76881 0
M  V30 3885 C 362.418 1.76664 -0.853475 0
M  V30 3886 O 361.543 2.16357 -0.0433656 0
M  V30 3887 C 362.138 1.09066 -3.20765 0
M  V30 3888 C 360.697 1.58535 -3.41385 0
M  V30 3889 C 359.844 0.514868 -2.72478 0
M  V30 3890 H 362.795 -0.177758 -1.57701 0
M  V30 3891 H 362.816 1.95875 -3.2621 0
M  V30 3892 H 362.328 0.239521 -3.8736 0
M  V30 3893 H 360.429 2.45898 -2.79937 0
M  V30 3894 H 360.542 1.64622 -4.49929 0
M  V30 3895 H 358.906 0.965407 -2.35695 0
M  V30 3896 H 359.689 -0.32648 -3.41744 0
M  V30 3897 N 362.134 1.5431 0.320358 0
M  V30 3898 C 363.382 1.72327 1.05583 0
M  V30 3899 C 363.703 0.50149 1.88441 0
M  V30 3900 O 362.973 -0.48448 1.89815 0
M  V30 3901 H 361.553 0.635387 0.3928 0
M  V30 3902 H 364.215 1.91621 0.356019 0
M  V30 3903 H 363.311 2.60426 1.72003 0
M  V30 3904 N 363.613 -0.582584 1.46437 0
M  V30 3905 C 364.56 -1.69164 1.5701 0
M  V30 3906 C 365.53 -1.60847 0.414403 0
M  V30 3907 O 366.715 -1.80058 0.631171 0
M  V30 3908 C 363.855 -3.075 1.56646 0
M  V30 3909 C 362.968 -3.2644 2.82951 0
M  V30 3910 C 362.103 -4.55026 2.7409 0
M  V30 3911 C 361.142 -4.6731 3.95333 0
M  V30 3912 N 360.279 -5.87221 3.84858 0
M  V30 3913 H 365.119 -1.59464 2.51744 0
M  V30 3914 H 362.656 -0.777186 1.24893 0
M  V30 3915 H 364.614 -3.8757 1.5442 0
M  V30 3916 H 363.244 -3.16096 0.654439 0
M  V30 3917 H 362.296 -2.39974 2.95155 0
M  V30 3918 H 363.608 -3.31385 3.72808 0
M  V30 3919 H 362.762 -5.43324 2.6997 0
M  V30 3920 H 361.501 -4.52519 1.81873 0
M  V30 3921 H 360.506 -3.77429 3.99784 0
M  V30 3922 H 361.731 -4.71595 4.88646 0
M  V30 3923 H 359.677 -5.85712 2.95427 0
M  V30 3924 H 359.594 -5.93435 4.6837 0
M  V30 3925 H 360.862 -6.7795 3.84713 0
M  V30 3926 N 365.091 -1.34144 -0.827227 0
M  V30 3927 C 366.038 -1.25364 -1.93785 0
M  V30 3928 C 367.008 -0.129774 -1.65592 0
M  V30 3929 O 368.193 -0.310024 -1.88264 0
M  V30 3930 C 365.333 -1.01064 -3.2997 0
M  V30 3931 C 364.446 -2.22185 -3.70484 0
M  V30 3932 C 363.581 -1.91203 -4.95595 0
M  V30 3933 C 362.62 -3.08491 -5.28677 0
M  V30 3934 N 361.757 -2.77421 -6.44967 0
M  V30 3935 H 366.597 -2.20347 -2.00627 0
M  V30 3936 H 364.134 -1.09558 -0.981608 0
M  V30 3937 H 366.092 -0.850139 -4.08446 0
M  V30 3938 H 364.722 -0.0975026 -3.22653 0
M  V30 3939 H 363.774 -2.4917 -2.87434 0
M  V30 3940 H 365.086 -3.0983 -3.90905 0
M  V30 3941 H 364.24 -1.71864 -5.81848 0
M  V30 3942 H 362.979 -1.00812 -4.77167 0
M  V30 3943 H 361.984 -3.28431 -4.40923 0
M  V30 3944 H 363.209 -3.99655 -5.49047 0
M  V30 3945 H 361.155 -1.89601 -6.28003 0
M  V30 3946 H 361.072 -3.58598 -6.6554 0
M  V30 3947 H 362.34 -2.61577 -7.34301 0
M  V30 3948 N 366.569 1.04691 -1.17803 0
M  V30 3949 C 367.516 2.12557 -0.899343 0
M  V30 3950 C 368.486 1.65339 0.158771 0
M  V30 3951 O 369.671 1.90789 0.0204797 0
M  V30 3952 C 366.811 3.42481 -0.424315 0
M  V30 3953 C 365.924 4.03346 -1.54713 0
M  V30 3954 C 365.059 5.21208 -1.02546 0
M  V30 3955 C 364.098 5.74089 -2.12339 0
M  V30 3956 N 363.235 6.83247 -1.61612 0
M  V30 3957 H 368.075 2.35734 -1.823 0
M  V30 3958 H 365.612 1.1564 -0.909159 0
M  V30 3959 H 367.57 4.16996 -0.130421 0
M  V30 3960 H 366.2 3.19471 0.462377 0
M  V30 3961 H 365.252 3.2622 -1.95664 0
M  V30 3962 H 366.564 4.38628 -2.37501 0
M  V30 3963 H 365.718 6.02812 -0.685718 0
M  V30 3964 H 364.457 4.87414 -0.167084 0
M  V30 3965 H 363.462 4.91111 -2.47165 0
M  V30 3966 H 364.687 6.0993 -2.98601 0
M  V30 3967 H 362.633 6.5134 -0.780533 0
M  V30 3968 H 362.55 7.17559 -2.38003 0
M  V30 3969 H 363.818 7.68491 -1.30545 0
M  V30 3970 N 368.047 0.979072 1.23499 0
M  V30 3971 C 369.272 0.664845 1.96455 0
M  V30 3972 C 369.697 -0.761287 1.72006 0
M  V30 3973 O 369.055 -1.51837 0.990713 0
M  V30 3974 C 369.103 0.959479 3.47601 0
M  V30 3975 O 368.207 0.0508168 4.12369 0
M  V30 3976 H 367.548 0.250185 0.615064 0
M  V30 3977 H 370.078 1.31231 1.5697 0
M  V30 3978 H 370.088 0.895642 3.98048 0
M  V30 3979 H 368.763 1.99876 3.64723 0
M  V30 3980 H 367.34 0.16895 3.72517 0
M  V30 3981 N 369.525 -1.3858 0.750561 0
M  V30 3982 C 370.457 -2.29057 0.0810714 0
M  V30 3983 C 371.47 -1.47596 -0.686973 0
M  V30 3984 O 372.659 -1.70495 -0.528563 0
M  V30 3985 C 369.759 -3.26475 -0.909247 0
M  V30 3986 C 368.932 -4.36945 -0.199478 0
M  V30 3987 C 367.991 -5.14572 -1.10011 0
M  V30 3988 O 367.017 -5.66321 -0.57177 0
M  V30 3989 N 368.219 -5.27262 -2.42849 0
M  V30 3990 H 370.984 -2.87153 0.858087 0
M  V30 3991 H 368.545 -1.50328 0.60109 0
M  V30 3992 H 370.537 -3.75285 -1.51471 0
M  V30 3993 H 369.107 -2.69298 -1.58736 0
M  V30 3994 H 368.327 -3.8981 0.586664 0
M  V30 3995 H 369.615 -5.07963 0.291783 0
M  V30 3996 H 369.013 -4.86763 -2.88233 0
M  V30 3997 H 367.57 -5.79456 -2.98453 0
M  V30 3998 N 371.003 -0.499398 -1.49478 0
M  V30 3999 C 372.252 0.0475259 -2.01644 0
M  V30 4000 C 372.565 1.38195 -1.38425 0
M  V30 4001 O 373.771 2.01547 -1.8191 0
M  V30 4002 C 372.227 0.135164 -3.59646 0
M  V30 4003 C 371.835 -1.19252 -4.31837 0
M  V30 4004 C 373.579 0.632538 -4.19761 0
M  V30 4005 C 371.486 -1.06713 -5.81693 0
M  V30 4006 H 370.416 0.0215349 -0.753692 0
M  V30 4007 H 373.067 -0.638577 -1.7203 0
M  V30 4008 H 371.449 0.885681 -3.85969 0
M  V30 4009 H 372.623 -1.9562 -4.17216 0
M  V30 4010 H 370.938 -1.62321 -3.83459 0
M  V30 4011 H 373.535 0.743833 -5.29501 0
M  V30 4012 H 373.878 1.63098 -3.83021 0
M  V30 4013 H 374.411 -0.0613987 -3.97753 0
M  V30 4014 H 371.15 -2.03979 -6.22955 0
M  V30 4015 H 370.67 -0.344307 -5.98811 0
M  V30 4016 H 372.349 -0.745208 -6.42694 0
M  V30 4017 N 372.481 1.55866 -0.233164 0
M  V30 4018 C 373.413 2.18099 0.704668 0
M  V30 4019 C 374.426 1.15334 1.14899 0
M  V30 4020 O 375.615 1.42262 1.07814 0
M  V30 4021 C 372.715 2.7592 1.96777 0
M  V30 4022 C 371.888 4.03969 1.67713 0
M  V30 4023 C 370.947 4.46242 2.78845 0
M  V30 4024 O 369.973 5.12903 2.46818 0
M  V30 4025 N 371.175 4.12886 4.08051 0
M  V30 4026 H 373.94 2.99205 0.172258 0
M  V30 4027 H 371.501 1.61815 -0.0525945 0
M  V30 4028 H 373.493 3.01165 2.70337 0
M  V30 4029 H 372.063 1.99051 2.41034 0
M  V30 4030 H 371.283 3.86459 0.777391 0
M  V30 4031 H 372.571 4.8748 1.4574 0
M  V30 4032 H 371.969 3.59342 4.3691 0
M  V30 4033 H 370.526 4.42997 4.78118 0
M  V30 4034 N 373.959 -0.0401083 1.57549 0
M  V30 4035 C 374.869 -1.06133 2.0922 0
M  V30 4036 C 375.885 -1.40356 1.0284 0
M  V30 4037 O 377.061 -1.49897 1.34509 0
M  V30 4038 C 374.126 -2.34658 2.55218 0
M  V30 4039 C 373.187 -2.07117 3.76033 0
M  V30 4040 C 372.42 -3.29514 4.19829 0
M  V30 4041 O 372.643 -4.39794 3.63232 0
M  V30 4042 O 371.577 -3.15863 5.12362 0
M  V30 4043 H 375.403 -0.652244 2.96613 0
M  V30 4044 H 372.988 -0.256368 1.47184 0
M  V30 4045 H 374.87 -3.10239 2.85184 0
M  V30 4046 H 373.545 -2.74883 1.70941 0
M  V30 4047 H 372.452 -1.29139 3.51104 0
M  V30 4048 H 373.785 -1.71754 4.61261 0
M  V30 4049 N 375.437 -1.54477 -0.31217 0
M  V30 4050 C 376.667 -1.76948 -1.06645 0
M  V30 4051 C 377.075 -0.523593 -1.81811 0
M  V30 4052 O 376.418 0.51578 -1.76311 0
M  V30 4053 C 376.48 -2.91668 -2.10166 0
M  V30 4054 C 376.144 -4.30165 -1.54296 0
M  V30 4055 C 377.141 -5.10603 -0.978793 0
M  V30 4056 C 374.826 -4.76738 -1.58196 0
M  V30 4057 C 376.82 -6.3573 -0.461048 0
M  V30 4058 C 374.507 -6.01831 -1.06034 0
M  V30 4059 C 375.505 -6.81161 -0.500844 0
M  V30 4060 O 375.193 -8.03899 0.0128958 0
M  V30 4061 H 374.925 -0.594088 -0.322546 0
M  V30 4062 H 377.479 -2.02213 -0.360441 0
M  V30 4063 H 375.709 -2.62001 -2.84416 0
M  V30 4064 H 377.398 -3.01817 -2.71406 0
M  V30 4065 H 378.164 -4.75771 -0.941651 0
M  V30 4066 H 374.043 -4.15027 -2.00683 0
M  V30 4067 H 377.587 -6.97596 -0.0236894 0
M  V30 4068 H 373.484 -6.36152 -1.09459 0
M  V30 4069 H 374.252 -8.18437 -0.101457 0
M  V30 4070 N 376.915 0.57481 -1.46744 0
M  V30 4071 C 378.161 1.3347 -1.52688 0
M  V30 4072 C 378.494 1.93353 -0.181229 0
M  V30 4073 O 377.769 1.76912 0.808237 0
M  V30 4074 C 378.052 2.45811 -2.63152 0
M  V30 4075 C 377.905 1.90912 -4.07275 0
M  V30 4076 C 379.224 3.47822 -2.69644 0
M  V30 4077 H 376.343 0.483935 -0.555856 0
M  V30 4078 H 378.985 0.644968 -1.78718 0
M  V30 4079 H 377.135 3.04646 -2.41088 0
M  V30 4080 H 378.807 1.36473 -4.4065 0
M  V30 4081 H 377.05 1.21691 -4.16382 0
M  V30 4082 H 377.721 2.72042 -4.80309 0
M  V30 4083 H 380.197 2.9888 -2.895 0
M  V30 4084 H 379.073 4.23876 -3.48742 0
M  V30 4085 H 379.334 4.05555 -1.76005 0
M  V30 4086 N 378.394 1.34581 0.820102 0
M  V30 4087 C 379.671 1.17675 1.56244 0
M  V30 4088 C 380.051 -0.249541 2.0962 0
M  V30 4089 O 379.399 -1.25125 1.91196 0
M  V30 4090 C 379.609 2.23364 2.6816 0
M  V30 4091 C 380.957 2.58485 3.36854 0
M  V30 4092 O 381.981 2.22175 2.78418 0
M  V30 4093 O 380.84 3.20868 4.42386 0
M  V30 4094 H 377.934 0.456333 0.689702 0
M  V30 4095 H 380.48 1.46222 0.861231 0
M  V30 4096 H 379.252 3.19087 2.26493 0
M  V30 4097 H 378.875 1.96009 3.45928 0
M  V30 4098 N 379.872 -1.04064 1.18357 0
M  V30 4099 C 381.102 -1.80654 1.00238 0
M  V30 4100 C 381.51 -1.83713 -0.452362 0
M  V30 4101 O 380.853 -1.27135 -1.32599 0
M  V30 4102 C 380.915 -3.27582 1.48088 0
M  V30 4103 C 380.579 -3.48184 2.96002 0
M  V30 4104 C 381.576 -3.39372 3.93856 0
M  V30 4105 C 379.261 -3.7478 3.34433 0
M  V30 4106 C 381.255 -3.5686 5.28138 0
M  V30 4107 C 378.942 -3.91915 4.68877 0
M  V30 4108 C 379.94 -3.82956 5.65539 0
M  V30 4109 O 379.628 -3.996 6.97549 0
M  V30 4110 H 379.36 -0.575751 0.354241 0
M  V30 4111 H 381.914 -1.32044 1.57333 0
M  V30 4112 H 380.144 -3.77161 0.853588 0
M  V30 4113 H 381.833 -3.8573 1.2636 0
M  V30 4114 H 382.599 -3.18789 3.65511 0
M  V30 4115 H 378.478 -3.80852 2.59756 0
M  V30 4116 H 382.022 -3.49783 6.03571 0
M  V30 4117 H 377.919 -4.11992 4.96923 0
M  V30 4118 H 378.687 -4.1676 7.04452 0
M  V30 4119 N 381.35 -0.985608 -1.22978 0
M  V30 4120 C 382.298 -0.522631 -2.26652 0
M  V30 4121 C 383.292 0.422998 -1.64034 0
M  V30 4122 O 384.498 0.296319 -1.77544 0
M  V30 4123 H 380.873 -0.150597 -0.736766 0
M  V30 4124 H 382.844 -1.40863 -2.63059 0
M  V30 4125 C 381.593 0.154238 -3.47358 0
M  V30 4126 H 380.916 -0.564329 -3.95797 0
M  V30 4127 H 382.356 0.441744 -4.21693 0
M  V30 4128 C 380.815 1.38719 -3.07016 0
M  V30 4129 O 381.345 2.48307 -3.15764 0
M  V30 4130 N 379.551 1.25975 -2.61875 0
M  V30 4131 H 379.098 0.368068 -2.54957 0
M  V30 4132 H 379.056 2.08578 -2.3525 0
M  V30 4133 N 382.828 1.3818 -0.7579 0
M  V30 4134 C 384.076 1.99624 -0.315361 0
M  V30 4135 C 384.397 1.60464 1.10799 0
M  V30 4136 O 383.667 0.863507 1.75842 0
M  V30 4137 H 382.247 0.73831 -0.113611 0
M  V30 4138 H 384.909 1.68878 -0.972952 0
M  V30 4139 H 384.005 3.09754 -0.381931 0
M  V30 4140 N 384.306 0.507319 1.49211 0
M  V30 4141 C 385.554 -0.0348839 2.0207 0
M  V30 4142 C 385.875 -1.36898 1.38866 0
M  V30 4143 O 385.145 -1.88133 0.546151 0
M  V30 4144 H 383.725 -0.0158812 0.746831 0
M  V30 4145 H 386.387 0.665998 1.83168 0
M  V30 4146 H 385.483 -0.159917 3.1169 0
M  V30 4147 N 385.784 -1.5574 0.241426 0
M  V30 4148 C 386.747 -2.19877 -0.647063 0
M  V30 4149 C 387.747 -1.16642 -1.10686 0
M  V30 4150 O 388.937 -1.41757 -1.01245 0
M  V30 4151 C 386.069 -2.83797 -1.88871 0
M  V30 4152 H 387.262 -2.99772 -0.087574 0
M  V30 4153 H 384.815 -1.56298 -0.00813574 0
M  V30 4154 H 385.55 -2.07824 -2.48957 0
M  V30 4155 H 385.335 -3.59414 -1.56728 0
M  V30 4156 H 386.825 -3.32898 -2.52129 0
M  V30 4157 N 387.262 0.0317525 -1.57568 0
M  V30 4158 C 388.51 0.721676 -1.88776 0
M  V30 4159 C 388.831 1.76039 -0.838772 0
M  V30 4160 O 388.101 1.95482 0.127935 0
M  V30 4161 H 386.681 0.269534 -0.696678 0
M  V30 4162 H 389.343 -0.00165879 -1.949 0
M  V30 4163 H 388.439 1.21293 -2.87566 0
M  V30 4164 N 388.74 1.54641 0.303973 0
M  V30 4165 C 389.986 1.74038 1.04109 0
M  V30 4166 C 390.319 0.523051 1.87024 0
M  V30 4167 O 389.594 -0.479874 1.88487 0
M  V30 4168 C 389.877 3.02761 1.94955 0
M  V30 4169 C 389.73 4.34787 1.1524 0
M  V30 4170 C 391.049 3.27336 2.94175 0
M  V30 4171 H 388.168 0.63323 0.377079 0
M  V30 4172 H 390.81 1.87354 0.316001 0
M  V30 4173 H 388.96 2.9154 2.56782 0
M  V30 4174 H 390.632 4.57922 0.557236 0
M  V30 4175 H 388.875 4.31407 0.455053 0
M  V30 4176 H 389.546 5.21116 1.8205 0
M  V30 4177 H 392.022 3.38148 2.42477 0
M  V30 4178 H 390.898 4.18726 3.54908 0
M  V30 4179 H 391.159 2.45491 3.67677 0
M  V30 4180 N 390.218 -0.567019 1.47046 0
M  V30 4181 C 391.15 -1.68985 1.54844 0
M  V30 4182 C 392.163 -1.56869 0.435431 0
M  V30 4183 O 393.352 -1.64006 0.70457 0
M  V30 4184 C 390.452 -3.07373 1.42742 0
M  V30 4185 C 389.625 -3.45339 2.6844 0
M  V30 4186 C 388.684 -4.62849 2.50314 0
M  V30 4187 O 387.71 -4.67922 3.24095 0
M  V30 4188 N 388.912 -5.58726 1.57499 0
M  V30 4189 H 391.677 -1.62745 2.51663 0
M  V30 4190 H 389.238 -0.753411 1.43302 0
M  V30 4191 H 391.23 -3.83803 1.28365 0
M  V30 4192 H 389.8 -3.07893 0.540445 0
M  V30 4193 H 389.02 -2.58455 2.97648 0
M  V30 4194 H 390.308 -3.67476 3.51907 0
M  V30 4195 H 389.706 -5.57376 0.966876 0
M  V30 4196 H 388.263 -6.34523 1.49078 0
M  V30 4197 N 391.696 -1.35014 -0.812953 0
M  V30 4198 C 392.646 -1.23959 -1.91359 0
M  V30 4199 C 393.63 -0.136306 -1.60322 0
M  V30 4200 O 394.822 -0.366925 -1.73155 0
M  V30 4201 C 391.951 -1.00736 -3.28188 0
M  V30 4202 C 391.037 -2.15426 -3.65311 0
M  V30 4203 N 391.428 -3.40612 -3.73921 0
M  V30 4204 C 389.726 -2.06672 -3.95225 0
M  V30 4205 C 390.427 -4.15994 -4.06601 0
M  V30 4206 N 389.403 -3.44685 -4.20349 0
M  V30 4207 H 393.205 -2.18815 -1.96208 0
M  V30 4208 H 390.719 -1.27395 -1.00718 0
M  V30 4209 H 392.716 -0.909052 -4.06868 0
M  V30 4210 H 391.376 -0.067586 -3.2463 0
M  V30 4211 H 392.387 -3.75043 -3.5716 0
M  V30 4212 H 389.064 -1.20511 -3.99729 0
M  V30 4213 H 390.454 -5.24145 -4.20382 0
M  V30 4214 N 393.175 1.03435 -1.18907 0
M  V30 4215 C 394.424 1.76143 -0.982669 0
M  V30 4216 C 394.737 1.89416 0.487953 0
M  V30 4217 O 395.943 2.59041 0.813036 0
M  V30 4218 C 394.399 3.16722 -1.70924 0
M  V30 4219 C 394.007 3.11522 -3.21959 0
M  V30 4220 C 395.751 3.93764 -1.58588 0
M  V30 4221 C 393.658 4.46999 -3.87228 0
M  V30 4222 H 392.588 0.660292 -0.364047 0
M  V30 4223 H 395.239 1.158 -1.42347 0
M  V30 4224 H 393.621 3.775 -1.19623 0
M  V30 4225 H 394.795 2.60158 -3.80335 0
M  V30 4226 H 393.11 2.47978 -3.34508 0
M  V30 4227 H 395.707 4.93963 -2.04707 0
M  V30 4228 H 396.05 4.12794 -0.539142 0
M  V30 4229 H 396.583 3.39576 -2.07203 0
M  V30 4230 H 393.322 4.33174 -4.91976 0
M  V30 4231 H 392.842 4.98441 -3.33642 0
M  V30 4232 H 394.521 5.15898 -3.90459 0
M  V30 4233 N 394.653 0.992116 1.22453 0
M  V30 4234 C 395.616 0.546883 2.2258 0
M  V30 4235 C 396.616 -0.369829 1.56489 0
M  V30 4236 O 397.806 -0.161896 1.73446 0
M  V30 4237 C 394.938 -0.204659 3.40285 0
M  V30 4238 H 396.131 1.43234 2.63484 0
M  V30 4239 H 393.684 0.779239 1.3549 0
M  V30 4240 H 394.419 -1.10614 3.04853 0
M  V30 4241 H 394.204 0.45354 3.89468 0
M  V30 4242 H 395.694 -0.504358 4.14543 0
M  V30 4243 N 396.131 -1.37776 0.765217 0
M  V30 4244 C 397.061 -2.32945 0.160953 0
M  V30 4245 C 398.042 -1.55454 -0.690516 0
M  V30 4246 O 399.227 -1.83721 -0.629318 0
M  V30 4247 C 396.357 -3.39669 -0.724031 0
M  V30 4248 C 395.311 -4.27992 0.0256173 0
M  V30 4249 C 394.637 -5.25673 -0.978383 0
M  V30 4250 C 395.937 -5.08309 1.20082 0
M  V30 4251 H 397.631 -2.83728 0.955969 0
M  V30 4252 H 395.177 -1.36416 0.461149 0
M  V30 4253 H 397.13 -4.05219 -1.15652 0
M  V30 4254 H 395.854 -2.87396 -1.5515 0
M  V30 4255 H 394.513 -3.63964 0.438812 0
M  V30 4256 H 394.161 -4.69682 -1.80022 0
M  V30 4257 H 393.861 -5.85625 -0.481378 0
M  V30 4258 H 395.385 -5.94098 -1.40995 0
M  V30 4259 H 396.799 -5.67034 0.845307 0
M  V30 4260 H 395.196 -5.77554 1.62947 0
M  V30 4261 H 396.266 -4.41365 2.00811 0
M  V30 4262 N 397.609 -0.515225 -1.4894 0
M  V30 4263 C 398.556 0.255567 -2.29381 0
M  V30 4264 C 399.526 0.947387 -1.36432 0
M  V30 4265 O 400.711 0.951288 -1.65394 0
M  V30 4266 C 397.851 1.30551 -3.19453 0
M  V30 4267 C 396.964 0.624029 -4.27469 0
M  V30 4268 C 396.099 1.65563 -5.0474 0
M  V30 4269 C 395.138 0.956802 -6.04576 0
M  V30 4270 N 394.275 1.93326 -6.74959 0
M  V30 4271 H 399.115 -0.436607 -2.94784 0
M  V30 4272 H 396.652 -0.227154 -1.45336 0
M  V30 4273 H 398.61 1.92639 -3.70062 0
M  V30 4274 H 397.24 1.96626 -2.56004 0
M  V30 4275 H 396.292 -0.110459 -3.8024 0
M  V30 4276 H 397.604 0.0746092 -4.98744 0
M  V30 4277 H 396.758 2.35119 -5.59289 0
M  V30 4278 H 395.497 2.23893 -4.3327 0
M  V30 4279 H 394.502 0.247097 -5.49244 0
M  V30 4280 H 395.727 0.379814 -6.78037 0
M  V30 4281 H 393.673 2.50591 -6.06251 0
M  V30 4282 H 393.59 1.43489 -7.42258 0
M  V30 4283 H 394.858 2.62126 -7.34105 0
M  V30 4284 N 399.087 1.5561 -0.249682 0
M  V30 4285 C 400.315 2.03411 0.378352 0
M  V30 4286 C 400.73 1.12886 1.51335 0
M  V30 4287 O 400.087 0.143833 1.81932 0
M  V30 4288 C 400.138 3.50537 0.88351 0
M  V30 4289 O 399.859 4.37614 -0.20626 0
M  V30 4290 C 401.36 4.14113 1.58195 0
M  V30 4291 H 398.58 0.664994 0.08958 0
M  V30 4292 H 401.124 2.01044 -0.374357 0
M  V30 4293 H 399.279 3.5343 1.58639 0
M  V30 4294 H 399.693 5.24199 0.177782 0
M  V30 4295 H 401.167 5.18741 1.8871 0
M  V30 4296 H 401.644 3.60767 2.50487 0
M  V30 4297 H 402.25 4.15151 0.923573 0
M  V30 4298 N 400.565 -0.0233959 1.57583 0
M  V30 4299 C 401.475 -1.03907 2.10334 0
M  V30 4300 C 402.491 -1.39257 1.04323 0
M  V30 4301 O 403.667 -1.48462 1.36091 0
M  V30 4302 C 400.732 -2.31938 2.57693 0
M  V30 4303 C 399.793 -2.03117 3.78209 0
M  V30 4304 C 399.026 -3.25043 4.233 0
M  V30 4305 O 399.249 -4.35916 3.67876 0
M  V30 4306 O 398.183 -3.10411 5.15683 0
M  V30 4307 H 402.009 -0.620748 2.97288 0
M  V30 4308 H 399.594 -0.240743 1.47448 0
M  V30 4309 H 401.476 -3.07196 2.88458 0
M  V30 4310 H 400.151 -2.73055 1.73847 0
M  V30 4311 H 399.058 -1.25408 3.52454 0
M  V30 4312 H 400.391 -1.66852 4.63056 0
M  V30 4313 N 402.043 -1.548 -0.295768 0
M  V30 4314 C 403.32 -1.65014 -1.05023 0
M  V30 4315 C 403.7 -0.501805 -2.05049 0
M  V30 4316 O 403.048 0.500869 -2.22943 0
M  V30 4317 C 403.258 -3.03252 -1.72741 0
M  V30 4318 C 404.606 -3.60242 -2.24746 0
M  V30 4319 O 405.63 -3.05737 -1.82765 0
M  V30 4320 O 404.489 -4.55687 -3.01681 0
M  V30 4321 H 401.583 -0.669314 -0.485744 0
M  V30 4322 H 404.129 -1.67144 -0.293438 0
M  V30 4323 H 402.901 -3.7827 -1.00138 0
M  V30 4324 H 402.524 -3.04922 -2.55163 0
M  V30 4325 N 403.521 0.559213 -1.47345 0
M  V30 4326 C 404.77 1.31281 -1.53128 0
M  V30 4327 C 405.083 1.94602 -0.197344 0
M  V30 4328 O 406.289 2.71173 -0.133154 0
M  V30 4329 C 404.745 2.38051 -2.69925 0
M  V30 4330 C 404.353 1.8093 -4.0984 0
M  V30 4331 C 406.097 3.14604 -2.84999 0
M  V30 4332 C 404.004 2.85468 -5.1794 0
M  V30 4333 H 402.934 0.493614 -0.569966 0
M  V30 4334 H 405.585 0.594155 -1.73615 0
M  V30 4335 H 403.967 3.12822 -2.42814 0
M  V30 4336 H 405.141 1.12544 -4.46845 0
M  V30 4337 H 403.456 1.16967 -3.99634 0
M  V30 4338 H 406.053 3.92666 -3.62929 0
M  V30 4339 H 406.396 3.68665 -1.93369 0
M  V30 4340 H 406.929 2.46945 -3.1187 0
M  V30 4341 H 403.668 2.36264 -6.1144 0
M  V30 4342 H 403.188 3.52269 -4.85455 0
M  V30 4343 H 404.867 3.48996 -5.44803 0
M  V30 4344 N 404.999 1.35443 0.805782 0
M  V30 4345 C 406.248 1.28097 1.55801 0
M  V30 4346 C 406.561 -0.142428 1.95081 0
M  V30 4347 O 407.767 -0.33817 2.69386 0
M  V30 4348 C 406.223 2.24653 2.81174 0
M  V30 4349 C 405.831 3.72342 2.49129 0
M  V30 4350 C 407.575 2.2625 3.59181 0
M  V30 4351 C 405.482 4.60719 3.70799 0
M  V30 4352 H 404.412 0.475937 0.584808 0
M  V30 4353 H 407.063 1.60712 0.885661 0
M  V30 4354 H 405.445 1.85011 3.50124 0
M  V30 4355 H 406.619 4.20624 1.88181 0
M  V30 4356 H 404.934 3.73361 1.84366 0
M  V30 4357 H 407.531 2.89495 4.49552 0
M  V30 4358 H 407.874 1.26647 3.96568 0
M  V30 4359 H 408.407 2.64426 2.97193 0
M  V30 4360 H 405.146 5.61324 3.3852 0
M  V30 4361 H 404.666 4.17163 4.3097 0
M  V30 4362 H 406.345 4.76182 4.38018 0
M  V30 4363 N 406.477 -1.02803 1.19454 0
M  V30 4364 C 407.705 -1.79841 1.02297 0
M  V30 4365 C 408.12 -1.83879 -0.428259 0
M  V30 4366 O 407.477 -1.28345 -1.29745 0
M  V30 4367 C 407.528 -3.24852 1.58598 0
M  V30 4368 O 407.249 -3.21097 2.98041 0
M  V30 4369 C 408.75 -4.18485 1.46236 0
M  V30 4370 H 405.97 -0.565936 0.360496 0
M  V30 4371 H 408.514 -1.2948 1.58288 0
M  V30 4372 H 406.669 -3.72401 1.06753 0
M  V30 4373 H 407.083 -4.12033 3.24545 0
M  V30 4374 H 408.557 -5.18121 1.90407 0
M  V30 4375 H 409.034 -4.37254 0.41301 0
M  V30 4376 H 409.64 -3.76811 1.97215 0
M  V30 4377 N 407.956 -0.998596 -1.21925 0
M  V30 4378 C 408.919 -0.558679 -2.22287 0
M  V30 4379 C 409.919 0.361525 -1.56683 0
M  V30 4380 O 411.109 0.152695 -1.73529 0
M  V30 4381 C 408.241 0.18661 -3.40389 0
M  V30 4382 H 409.434 -1.4463 -2.62721 0
M  V30 4383 H 406.987 -0.786413 -1.35075 0
M  V30 4384 H 407.722 1.08996 -3.05435 0
M  V30 4385 H 407.507 -0.474188 -3.89222 0
M  V30 4386 H 408.997 0.482367 -4.14805 0
M  V30 4387 N 409.434 1.37368 -0.772513 0
M  V30 4388 C 410.683 1.98918 -0.333861 0
M  V30 4389 C 410.996 1.62017 1.09589 0
M  V30 4390 O 412.202 2.16676 1.63596 0
M  V30 4391 C 410.658 3.55735 -0.545971 0
M  V30 4392 C 410.266 4.01573 -1.98603 0
M  V30 4393 C 412.01 4.24156 -0.170979 0
M  V30 4394 C 409.917 5.51102 -2.1457 0
M  V30 4395 H 408.847 0.744214 -0.121085 0
M  V30 4396 H 411.498 1.56888 -0.95175 0
M  V30 4397 H 409.88 3.95748 0.141387 0
M  V30 4398 H 411.054 3.72803 -2.7084 0
M  V30 4399 H 409.369 3.45937 -2.31769 0
M  V30 4400 H 411.966 5.34024 -0.26878 0
M  V30 4401 H 412.309 4.06917 0.878855 0
M  V30 4402 H 412.842 3.89447 -0.810914 0
M  V30 4403 H 409.581 5.73268 -3.17875 0
M  V30 4404 H 409.101 5.81554 -1.46817 0
M  V30 4405 H 410.78 6.17083 -1.94468 0
M  V30 4406 N 410.912 0.523116 1.48665 0
M  V30 4407 C 412.328 0.180511 1.58576 0
M  V30 4408 C 412.528 -1.31597 1.52592 0
M  V30 4409 O 411.584 -2.0937 1.4114 0
M  V30 4410 C 412.897 0.776949 2.90489 0
M  V30 4411 C 414.445 0.745058 3.04003 0
M  V30 4412 C 414.92 1.31995 4.38567 0
M  V30 4413 N 416.411 1.28162 4.45117 0
M  V30 4414 C 417.146 1.6964 5.47731 0
M  V30 4415 N 416.642 2.18816 6.57337 0
M  V30 4416 N 418.435 1.6092 5.38573 0
M  V30 4417 H 410.586 1.4958 1.50797 0
M  V30 4418 H 412.849 0.621772 0.715614 0
M  V30 4419 H 412.555 1.82732 3.00503 0
M  V30 4420 H 412.429 0.25007 3.7637 0
M  V30 4421 H 414.816 -0.296532 2.93606 0
M  V30 4422 H 414.897 1.30933 2.1975 0
M  V30 4423 H 414.541 2.36043 4.49718 0
M  V30 4424 H 414.471 0.731418 5.21496 0
M  V30 4425 H 416.962 0.92155 3.66491 0
M  V30 4426 H 417.275 2.48478 7.31764 0
M  V30 4427 H 415.62 2.22805 6.58318 0
M  V30 4428 H 418.811 1.22304 4.5184 0
M  V30 4429 H 418.984 1.93567 6.18414 0
M  V30 4430 N 412.39 -1.55475 0.257931 0
M  V30 4431 C 413.34 -2.18506 -0.651094 0
M  V30 4432 C 414.324 -1.14431 -1.13112 0
M  V30 4433 O 415.516 -1.40305 -1.07905 0
M  V30 4434 C 412.645 -2.89653 -1.84272 0
M  V30 4435 C 411.731 -4.00996 -1.38068 0
M  V30 4436 N 412.122 -5.01816 -0.633609 0
M  V30 4437 C 410.42 -4.13753 -1.66506 0
M  V30 4438 C 411.121 -5.80371 -0.392922 0
M  V30 4439 N 410.097 -5.3505 -0.960359 0
M  V30 4440 H 413.899 -2.93811 -0.0722883 0
M  V30 4441 H 411.413 -1.62286 0.0607256 0
M  V30 4442 H 413.41 -3.33245 -2.50506 0
M  V30 4443 H 412.07 -2.15854 -2.42564 0
M  V30 4444 H 413.081 -5.17128 -0.282626 0
M  V30 4445 H 409.758 -3.51133 -2.25858 0
M  V30 4446 H 411.148 -6.7159 0.204235 0
M  V30 4447 N 413.868 0.0150385 -1.57593 0
M  V30 4448 C 414.798 1.01047 -2.10503 0
M  V30 4449 C 415.779 1.36816 -1.01071 0
M  V30 4450 O 416.964 1.45455 -1.28672 0
M  V30 4451 C 414.094 2.30708 -2.59598 0
M  V30 4452 C 413.048 2.09142 -3.73421 0
M  V30 4453 C 412.374 3.44685 -4.08774 0
M  V30 4454 C 413.674 1.46619 -5.01298 0
M  V30 4455 H 415.368 0.569978 -2.93925 0
M  V30 4456 H 412.914 0.272724 -1.41394 0
M  V30 4457 H 414.867 3.00687 -2.95238 0
M  V30 4458 H 413.591 2.76843 -1.73279 0
M  V30 4459 H 412.25 1.41592 -3.38153 0
M  V30 4460 H 411.898 3.88495 -3.195 0
M  V30 4461 H 411.598 3.31077 -4.8545 0
M  V30 4462 H 413.122 4.16004 -4.4696 0
M  V30 4463 H 414.536 2.06535 -5.34805 0
M  V30 4464 H 412.933 1.43544 -5.82679 0
M  V30 4465 H 414.003 0.433611 -4.82957 0
M  V30 4466 N 415.346 1.54954 0.287554 0
M  V30 4467 C 416.762 1.46469 0.633964 0
M  V30 4468 C 416.962 0.666865 1.90145 0
M  V30 4469 O 416.018 0.179906 2.51858 0
M  V30 4470 C 417.331 2.90556 0.774454 0
M  V30 4471 C 418.879 3.00681 0.869462 0
M  V30 4472 C 419.354 4.45993 1.04184 0
M  V30 4473 N 420.845 4.4976 1.10772 0
M  V30 4474 C 421.58 5.59393 1.25964 0
M  V30 4475 N 421.076 6.78923 1.37968 0
M  V30 4476 N 422.869 5.47107 1.28959 0
M  V30 4477 H 415.02 2.05288 -0.545041 0
M  V30 4478 H 417.283 0.930305 -0.182308 0
M  V30 4479 H 416.989 3.51594 -0.086207 0
M  V30 4480 H 416.863 3.38743 1.6593 0
M  V30 4481 H 419.25 2.39749 1.7206 0
M  V30 4482 H 419.331 2.55769 -0.0396831 0
M  V30 4483 H 418.975 5.07524 0.195422 0
M  V30 4484 H 418.905 4.88548 1.96542 0
M  V30 4485 H 421.396 3.63651 1.02794 0
M  V30 4486 H 421.709 7.58231 1.49353 0
M  V30 4487 H 420.054 6.81763 1.34999 0
M  V30 4488 H 423.245 4.52668 1.19202 0
M  V30 4489 H 423.418 6.32595 1.40455 0
M  V30 4490 N 416.824 -0.551391 1.4764 0
M  V30 4491 C 417.734 -1.68525 1.63207 0
M  V30 4492 C 418.75 -1.6621 0.514815 0
M  V30 4493 O 419.926 -1.85551 0.783113 0
M  V30 4494 C 416.991 -3.05025 1.64805 0
M  V30 4495 C 416.052 -3.18362 2.88 0
M  V30 4496 C 415.285 -4.4835 2.89513 0
M  V30 4497 O 415.508 -5.34163 2.00065 0
M  V30 4498 O 414.442 -4.65602 3.81443 0
M  V30 4499 H 418.268 -1.58333 2.59161 0
M  V30 4500 H 415.853 -0.722063 1.30792 0
M  V30 4501 H 417.735 -3.86245 1.68502 0
M  V30 4502 H 416.41 -3.15587 0.720197 0
M  V30 4503 H 415.317 -2.36518 2.89845 0
M  V30 4504 H 416.65 -3.12707 3.80099 0
M  V30 4505 N 418.302 -1.35869 -0.798587 0
M  V30 4506 C 419.718 -1.16082 -1.09532 0
M  V30 4507 C 419.918 0.0213124 -2.01489 0
M  V30 4508 O 418.974 0.689488 -2.42904 0
M  V30 4509 C 420.287 -2.46748 -1.7186 0
M  V30 4510 C 421.835 -2.53028 -1.84244 0
M  V30 4511 C 422.31 -3.83758 -2.49988 0
M  V30 4512 N 423.801 -3.85053 -2.57465 0
M  V30 4513 C 424.536 -4.8294 -3.09122 0
M  V30 4514 N 424.032 -5.91217 -3.61157 0
M  V30 4515 N 425.825 -4.70369 -3.0775 0
M  V30 4516 H 417.976 -2.11571 -0.187461 0
M  V30 4517 H 420.239 -0.936726 -0.145765 0
M  V30 4518 H 419.945 -3.33471 -1.11759 0
M  V30 4519 H 419.819 -2.61883 -2.71472 0
M  V30 4520 H 422.206 -1.66729 -2.43486 0
M  V30 4521 H 422.287 -2.418 -0.834643 0
M  V30 4522 H 421.931 -4.70459 -1.91393 0
M  V30 4523 H 421.861 -3.92278 -3.5132 0
M  V30 4524 H 424.352 -3.06822 -2.20609 0
M  V30 4525 H 424.665 -6.61892 -3.98896 0
M  V30 4526 H 423.01 -5.94899 -3.59333 0
M  V30 4527 H 426.201 -3.84914 -2.66381 0
M  V30 4528 H 426.374 -5.46816 -3.47701 0
M  V30 4529 N 419.78 1.02168 -1.19998 0
M  V30 4530 C 421.028 1.75338 -1.00504 0
M  V30 4531 C 421.349 1.89387 0.464506 0
M  V30 4532 O 420.619 1.43268 1.33608 0
M  V30 4533 H 419.199 0.649564 -0.368885 0
M  V30 4534 H 421.861 1.23205 -1.51018 0
M  V30 4535 H 420.957 2.75892 -1.45912 0
M  V30 4536 N 421.258 1.00505 1.21394 0
M  V30 4537 C 422.188 0.585684 2.26035 0
M  V30 4538 C 423.169 -0.393525 1.65485 0
M  V30 4539 O 424.354 -0.281497 1.92149 0
M  V30 4540 C 421.484 -0.0884283 3.47187 0
M  V30 4541 C 420.438 0.810567 4.20254 0
M  V30 4542 C 419.764 0.00286382 5.347 0
M  V30 4543 C 421.064 2.1132 4.77641 0
M  V30 4544 H 422.758 1.46039 2.61368 0
M  V30 4545 H 420.304 0.703648 1.25638 0
M  V30 4546 H 422.257 -0.393286 4.19561 0
M  V30 4547 H 420.981 -0.997766 3.10986 0
M  V30 4548 H 419.64 1.09925 3.49731 0
M  V30 4549 H 419.288 -0.907765 4.94741 0
M  V30 4550 H 418.988 0.601444 5.84514 0
M  V30 4551 H 420.512 -0.295808 6.09883 0
M  V30 4552 H 421.926 1.87148 5.41893 0
M  V30 4553 H 420.323 2.66164 5.37845 0
M  V30 4554 H 421.393 2.78393 3.9702 0
M  V30 4555 N 422.737 -1.36956 0.779787 0
M  V30 4556 C 423.647 -2.33965 0.172491 0
M  V30 4557 C 424.663 -1.60574 -0.670222 0
M  V30 4558 O 425.839 -1.92617 -0.588263 0
M  V30 4559 C 422.904 -3.39761 -0.690173 0
M  V30 4560 C 421.965 -4.28964 0.169924 0
M  V30 4561 C 421.198 -5.29707 -0.651662 0
M  V30 4562 O 421.421 -5.38238 -1.88827 0
M  V30 4563 O 420.355 -6.01873 -0.0566264 0
M  V30 4564 H 424.181 -2.87647 0.974321 0
M  V30 4565 H 421.766 -1.39258 0.541078 0
M  V30 4566 H 423.648 -4.04471 -1.1824 0
M  V30 4567 H 422.323 -2.88394 -1.47006 0
M  V30 4568 H 421.23 -3.67326 0.708696 0
M  V30 4569 H 422.563 -4.83656 0.913085 0
M  V30 4570 N 424.215 -0.530993 -1.48385 0
M  V30 4571 C 425.462 0.0027373 -2.025 0
M  V30 4572 C 425.79 1.34186 -1.40799 0
M  V30 4573 O 425.045 1.88 -0.543544 0
M  V30 4574 C 425.344 0.172742 -3.56982 0
M  V30 4575 C 425.01 -1.09215 -4.37473 0
M  V30 4576 C 423.672 -1.43881 -4.59186 0
M  V30 4577 C 426.024 -1.93153 -4.84088 0
M  V30 4578 C 423.352 -2.62381 -5.2476 0
M  V30 4579 C 425.704 -3.10833 -5.50968 0
M  V30 4580 C 424.368 -3.45843 -5.70919 0
M  V30 4581 H 423.638 0.00100165 -0.740999 0
M  V30 4582 H 426.285 -0.697219 -1.78357 0
M  V30 4583 H 424.59 0.955473 -3.79971 0
M  V30 4584 H 426.287 0.600642 -3.96476 0
M  V30 4585 H 422.877 -0.812177 -4.20834 0
M  V30 4586 H 427.061 -1.67683 -4.67115 0
M  V30 4587 H 422.317 -2.89707 -5.38405 0
M  V30 4588 H 426.491 -3.7618 -5.86056 0
M  V30 4589 H 424.118 -4.37764 -6.21503 0
M  V30 4590 N 425.693 1.55336 -0.266172 0
M  V30 4591 C 426.623 2.25146 0.618981 0
M  V30 4592 C 427.604 1.23845 1.16604 0
M  V30 4593 O 428.789 1.52544 1.20183 0
M  V30 4594 C 425.919 2.96572 1.80728 0
M  V30 4595 C 424.873 4.04726 1.39215 0
M  V30 4596 C 424.199 4.63678 2.66283 0
M  V30 4597 C 425.499 5.19407 0.548942 0
M  V30 4598 H 427.193 2.99377 0.0368116 0
M  V30 4599 H 424.739 1.43991 0.0162651 0
M  V30 4600 H 426.692 3.44116 2.43232 0
M  V30 4601 H 425.416 2.19861 2.41514 0
M  V30 4602 H 424.075 3.57979 0.790351 0
M  V30 4603 H 423.723 3.83646 3.25308 0
M  V30 4604 H 423.423 5.367 2.39222 0
M  V30 4605 H 424.947 5.13967 3.29651 0
M  V30 4606 H 426.361 5.63059 1.07876 0
M  V30 4607 H 424.758 5.98936 0.373593 0
M  V30 4608 H 425.828 4.8295 -0.434394 0
M  V30 4609 N 427.171 -0.0066808 1.57599 0
M  V30 4610 C 428.396 -0.707738 1.94951 0
M  V30 4611 C 428.821 -1.66882 0.867868 0
M  V30 4612 O 428.179 -1.80457 -0.17458 0
M  V30 4613 C 428.227 -1.42162 3.31394 0
M  V30 4614 O 427.331 -2.53578 3.25226 0
M  V30 4615 H 426.672 -0.188752 0.636607 0
M  V30 4616 H 429.202 0.0445193 2.04552 0
M  V30 4617 H 429.212 -1.78655 3.66806 0
M  V30 4618 H 427.887 -0.716903 4.09675 0
M  V30 4619 H 426.464 -2.19463 3.01481 0
M  V30 4620 N 428.649 -1.55105 -0.279332 0
M  V30 4621 C 429.895 -1.75672 -1.01327 0
M  V30 4622 C 430.228 -0.552739 -1.86168 0
M  V30 4623 O 429.503 0.449827 -1.89227 0
M  V30 4624 C 429.786 -3.05825 -1.90114 0
M  V30 4625 C 429.639 -4.36565 -1.08309 0
M  V30 4626 C 430.958 -3.31975 -2.8893 0
M  V30 4627 H 428.077 -0.639149 -0.366957 0
M  V30 4628 H 430.719 -1.87833 -0.286154 0
M  V30 4629 H 428.869 -2.95588 -2.52111 0
M  V30 4630 H 430.541 -4.58751 -0.484314 0
M  V30 4631 H 428.784 -4.32076 -0.386362 0
M  V30 4632 H 429.455 -5.23946 -1.73737 0
M  V30 4633 H 431.931 -3.41963 -2.37067 0
M  V30 4634 H 430.807 -4.2432 -3.48201 0
M  V30 4635 H 431.068 -2.51309 -3.63725 0
M  V30 4636 N 430.127 0.543554 -1.4793 0
M  V30 4637 C 431.538 1.12561 -1.48953 0
M  V30 4638 C 431.889 1.94578 -0.251754 0
M  V30 4639 O 431.014 2.0665 0.642255 0
M  V30 4640 C 431.609 2.04801 -2.69892 0
M  V30 4641 C 430.168 2.58251 -2.73831 0
M  V30 4642 C 429.315 1.34918 -2.42265 0
M  V30 4643 H 432.266 0.32947 -1.55242 0
M  V30 4644 H 432.287 2.88886 -2.47639 0
M  V30 4645 H 431.799 1.4508 -3.59963 0
M  V30 4646 H 429.9 3.21732 -1.87934 0
M  V30 4647 H 430.013 2.98312 -3.74895 0
M  V30 4648 H 428.377 1.66046 -1.93134 0
M  V30 4649 H 429.16 0.769693 -3.3456 0
M  V30 4650 N 431.605 1.3629 0.791371 0
M  V30 4651 C 432.83 1.33726 1.58531 0
M  V30 4652 C 433.255 -0.0794933 1.87932 0
M  V30 4653 O 432.613 -1.05087 1.47738 0
M  V30 4654 C 432.661 2.16425 2.88431 0
M  V30 4655 O 431.765 1.5554 3.81944 0
M  V30 4656 H 431.106 0.457793 0.480959 0
M  V30 4657 H 433.636 1.79547 0.981031 0
M  V30 4658 H 433.646 2.28933 3.37718 0
M  V30 4659 H 432.321 3.19415 2.66359 0
M  V30 4660 H 430.898 1.51961 3.40532 0
M  V30 4661 N 433.083 -1.0153 1.20538 0
M  V30 4662 C 434.311 -1.78746 1.04199 0
M  V30 4663 C 434.726 -1.84323 -0.408733 0
M  V30 4664 O 434.083 -1.29714 -1.28377 0
M  V30 4665 C 434.134 -3.23152 1.62035 0
M  V30 4666 O 433.855 -3.17918 3.0143 0
M  V30 4667 C 435.356 -4.16911 1.50666 0
M  V30 4668 H 432.576 -0.56208 0.366479 0
M  V30 4669 H 435.12 -1.27794 1.59653 0
M  V30 4670 H 433.275 -3.71248 1.10697 0
M  V30 4671 H 433.689 -4.08567 3.28897 0
M  V30 4672 H 435.163 -5.16072 1.95892 0
M  V30 4673 H 435.64 -4.36791 0.459363 0
M  V30 4674 H 436.246 -3.74698 2.01201 0
M  V30 4675 N 434.561 -1.01147 -1.20859 0
M  V30 4676 C 435.791 -0.715872 -1.93801 0
M  V30 4677 C 436.199 0.726592 -1.74692 0
M  V30 4678 O 435.542 1.50397 -1.05482 0
M  V30 4679 C 435.604 -0.965269 -3.46299 0
M  V30 4680 C 435.268 -2.39584 -3.89164 0
M  V30 4681 C 436.265 -3.3764 -3.95342 0
M  V30 4682 C 433.95 -2.73522 -4.21297 0
M  V30 4683 C 435.944 -4.67698 -4.33056 0
M  V30 4684 C 433.631 -4.03794 -4.58687 0
M  V30 4685 C 434.629 -5.00693 -4.64538 0
M  V30 4686 O 434.317 -6.28635 -5.01072 0
M  V30 4687 H 434.049 -0.262524 -0.622942 0
M  V30 4688 H 436.603 -1.35413 -1.54443 0
M  V30 4689 H 434.833 -0.269847 -3.85757 0
M  V30 4690 H 436.522 -0.662051 -4.00464 0
M  V30 4691 H 437.288 -3.12757 -3.70686 0
M  V30 4692 H 433.167 -1.9879 -4.15937 0
M  V30 4693 H 436.711 -5.4333 -4.37537 0
M  V30 4694 H 432.608 -4.28459 -4.82797 0
M  V30 4695 H 433.376 -6.32847 -5.19083 0
M  V30 4696 N 436.039 1.36541 -0.78704 0
M  V30 4697 C 437.269 2.03266 -0.369662 0
M  V30 4698 C 437.677 1.59481 1.01796 0
M  V30 4699 O 437.02 0.778612 1.66383 0
M  V30 4700 C 437.082 3.57779 -0.351371 0
M  V30 4701 C 436.746 4.24756 -1.68617 0
M  V30 4702 C 437.743 4.47811 -2.64124 0
M  V30 4703 C 435.428 4.62277 -1.96481 0
M  V30 4704 C 437.422 5.07464 -3.85693 0
M  V30 4705 C 435.109 5.21649 -3.18317 0
M  V30 4706 C 436.107 5.44182 -4.12741 0
M  V30 4707 O 435.795 6.02307 -5.32429 0
M  V30 4708 H 435.527 0.658977 -0.150751 0
M  V30 4709 H 438.081 1.75548 -1.0664 0
M  V30 4710 H 436.311 3.84606 0.401847 0
M  V30 4711 H 438 4.05879 0.0410147 0
M  V30 4712 H 438.766 4.19221 -2.43883 0
M  V30 4713 H 434.645 4.44065 -1.23805 0
M  V30 4714 H 438.189 5.24968 -4.59407 0
M  V30 4715 H 434.086 5.49664 -3.38437 0
M  V30 4716 H 434.854 6.20775 -5.33461 0
M  V30 4717 N 437.518 0.538854 1.48102 0
M  V30 4718 C 438.465 -0.219042 2.29758 0
M  V30 4719 C 439.435 -0.925562 1.37922 0
M  V30 4720 O 440.62 -0.924855 1.66886 0
M  V30 4721 C 437.76 -1.25452 3.2149 0
M  V30 4722 C 436.873 -0.555943 4.28408 0
M  V30 4723 C 436.008 -1.57512 5.0731 0
M  V30 4724 C 435.047 -0.860498 6.06021 0
M  V30 4725 N 434.184 -1.82564 6.77949 0
M  V30 4726 H 439.024 0.483449 2.94052 0
M  V30 4727 H 436.561 0.250247 1.44956 0
M  V30 4728 H 438.519 -1.86727 3.7308 0
M  V30 4729 H 437.149 -1.92528 2.591 0
M  V30 4730 H 436.201 0.170938 3.80016 0
M  V30 4731 H 437.513 0.00474616 4.988 0
M  V30 4732 H 436.667 -2.26191 5.62959 0
M  V30 4733 H 435.406 -2.16972 4.36778 0
M  V30 4734 H 434.411 -0.159686 5.49568 0
M  V30 4735 H 435.636 -0.271897 6.78555 0
M  V30 4736 H 433.582 -2.40915 6.10161 0
M  V30 4737 H 433.499 -1.31662 7.44447 0
M  V30 4738 H 434.767 -2.50414 7.38182 0
M  V30 4739 N 438.996 -1.55193 0.274407 0
M  V30 4740 C 439.928 -2.1989 -0.646595 0
M  V30 4741 C 440.941 -1.1834 -1.11801 0
M  V30 4742 O 442.13 -1.4507 -1.04004 0
M  V30 4743 C 439.23 -2.8104 -1.89393 0
M  V30 4744 C 438.403 -4.08274 -1.56943 0
M  V30 4745 C 437.462 -4.53478 -2.66916 0
M  V30 4746 O 436.488 -5.19267 -2.33132 0
M  V30 4747 N 437.69 -4.2356 -3.9696 0
M  V30 4748 H 440.455 -2.99556 -0.0928686 0
M  V30 4749 H 438.016 -1.61618 0.0954783 0
M  V30 4750 H 440.008 -3.08226 -2.62257 0
M  V30 4751 H 438.578 -2.05372 -2.35672 0
M  V30 4752 H 437.798 -3.88384 -0.674655 0
M  V30 4753 H 439.086 -4.91173 -1.32764 0
M  V30 4754 H 438.484 -3.70799 -4.27229 0
M  V30 4755 H 437.041 -4.55518 -4.66205 0
M  V30 4756 N 440.474 -0.00167713 -1.576 0
M  V30 4757 C 441.404 0.988091 -2.11563 0
M  V30 4758 C 442.385 1.35736 -1.02517 0
M  V30 4759 O 443.57 1.44082 -1.30208 0
M  V30 4760 C 440.7 2.27941 -2.62031 0
M  V30 4761 C 439.654 2.0517 -3.75619 0
M  V30 4762 C 438.98 3.4033 -4.12407 0
M  V30 4763 C 440.28 1.41294 -5.02825 0
M  V30 4764 H 441.974 0.538771 -2.94513 0
M  V30 4765 H 439.52 0.257712 -1.41675 0
M  V30 4766 H 441.473 2.97539 -2.9841 0
M  V30 4767 H 440.197 2.74989 -1.76205 0
M  V30 4768 H 438.856 1.37998 -3.39635 0
M  V30 4769 H 438.504 3.85085 -3.23603 0
M  V30 4770 H 438.204 3.25909 -4.88935 0
M  V30 4771 H 439.728 4.1124 -4.51347 0
M  V30 4772 H 441.142 2.00851 -5.36965 0
M  V30 4773 H 439.539 1.37356 -5.84169 0
M  V30 4774 H 440.609 0.382362 -4.8339 0
M  V30 4775 N 441.952 1.55251 0.271103 0
M  V30 4776 C 443.368 1.47133 0.618393 0
M  V30 4777 C 443.568 0.686994 1.89427 0
M  V30 4778 O 442.624 0.206609 2.51653 0
M  V30 4779 C 443.937 2.91361 0.743593 0
M  V30 4780 C 445.485 3.01587 0.837522 0
M  V30 4781 C 445.96 4.47073 0.994483 0
M  V30 4782 N 447.451 4.50909 1.05996 0
M  V30 4783 C 448.186 5.60698 1.20024 0
M  V30 4784 N 447.682 6.80348 1.30759 0
M  V30 4785 N 449.475 5.48444 1.23149 0
M  V30 4786 H 441.626 2.04698 -0.566784 0
M  V30 4787 H 443.889 0.928319 -0.192165 0
M  V30 4788 H 443.595 3.51483 -0.123493 0
M  V30 4789 H 443.469 3.40484 1.62328 0
M  V30 4790 H 445.856 2.4156 1.69507 0
M  V30 4791 H 445.937 2.55713 -0.0668086 0
M  V30 4792 H 445.581 5.07703 0.141582 0
M  V30 4793 H 445.511 4.90605 1.91349 0
M  V30 4794 H 448.002 3.6472 0.989316 0
M  V30 4795 H 448.315 7.59772 1.41303 0
M  V30 4796 H 446.66 6.83156 1.27761 0
M  V30 4797 H 449.851 4.53907 1.14394 0
M  V30 4798 H 450.024 6.34049 1.33738 0
M  V30 4799 N 443.43 -0.535701 1.48216 0
M  V30 4800 C 444.34 -1.66785 1.64985 0
M  V30 4801 C 445.356 -1.65654 0.532414 0
M  V30 4802 O 446.532 -1.8471 0.80275 0
M  V30 4803 C 443.597 -3.0326 1.68031 0
M  V30 4804 C 442.658 -3.1529 2.9136 0
M  V30 4805 C 441.891 -4.45255 2.94252 0
M  V30 4806 O 442.114 -5.32011 2.05719 0
M  V30 4807 O 441.048 -4.6153 3.86359 0
M  V30 4808 H 444.874 -1.55576 2.60825 0
M  V30 4809 H 442.459 -0.70815 1.31551 0
M  V30 4810 H 444.341 -3.84436 1.72589 0
M  V30 4811 H 443.016 -3.14805 0.753628 0
M  V30 4812 H 441.923 -2.3343 2.92337 0
M  V30 4813 H 443.256 -3.08658 3.83394 0
M  V30 4814 N 444.908 -1.36708 -0.784132 0
M  V30 4815 C 445.855 -1.31466 -1.89698 0
M  V30 4816 C 446.825 -0.18239 -1.65096 0
M  V30 4817 O 448.01 -0.369762 -1.87183 0
M  V30 4818 C 445.15 -1.1151 -3.26588 0
M  V30 4819 C 444.263 -2.33859 -3.63227 0
M  V30 4820 C 443.398 -2.06873 -4.89262 0
M  V30 4821 C 442.437 -3.25154 -5.18595 0
M  V30 4822 N 441.574 -2.978 -6.35814 0
M  V30 4823 H 446.414 -2.26619 -1.93515 0
M  V30 4824 H 443.951 -1.12625 -0.946256 0
M  V30 4825 H 445.909 -0.979653 -4.05535 0
M  V30 4826 H 444.539 -0.200103 -3.22179 0
M  V30 4827 H 443.591 -2.58188 -2.79362 0
M  V30 4828 H 444.903 -3.22109 -3.8085 0
M  V30 4829 H 444.057 -1.90289 -5.76086 0
M  V30 4830 H 442.796 -1.15942 -4.73718 0
M  V30 4831 H 441.801 -3.42292 -4.30251 0
M  V30 4832 H 443.026 -4.1692 -5.36055 0
M  V30 4833 H 440.972 -2.09485 -6.21653 0
M  V30 4834 H 440.889 -3.7959 -6.53794 0
M  V30 4835 H 442.157 -2.84805 -7.25607 0
M  V30 4836 N 446.386 1.0089 -1.21074 0
M  V30 4837 C 447.316 2.1145 -0.990523 0
M  V30 4838 C 448.297 1.69897 0.0831699 0
M  V30 4839 O 449.482 1.94052 -0.0758853 0
M  V30 4840 C 446.612 3.42914 -0.550177 0
M  V30 4841 C 445.566 3.98244 -1.56799 0
M  V30 4842 C 444.892 5.25568 -0.984013 0
M  V30 4843 C 446.192 4.30752 -2.95381 0
M  V30 4844 H 447.886 2.3013 -1.91521 0
M  V30 4845 H 445.432 1.10592 -0.92225 0
M  V30 4846 H 447.385 4.19653 -0.383305 0
M  V30 4847 H 446.109 3.24014 0.41015 0
M  V30 4848 H 444.768 3.23621 -1.72236 0
M  V30 4849 H 444.416 5.02998 -0.0155216 0
M  V30 4850 H 444.116 5.63551 -1.66384 0
M  V30 4851 H 445.64 6.04955 -0.828378 0
M  V30 4852 H 447.054 4.98349 -2.8341 0
M  V30 4853 H 445.451 4.79869 -3.60341 0
M  V30 4854 H 446.521 3.39192 -3.46521 0
M  V30 4855 N 447.864 1.01787 1.20321 0
M  V30 4856 C 448.811 0.589197 2.23153 0
M  V30 4857 C 449.781 -0.391367 1.61423 0
M  V30 4858 O 450.966 -0.290518 1.88575 0
M  V30 4859 C 448.106 -0.0650747 3.45039 0
M  V30 4860 C 447.219 0.960207 4.21194 0
M  V30 4861 C 446.354 0.276854 5.30478 0
M  V30 4862 C 445.393 1.2888 5.98378 0
M  V30 4863 N 444.53 0.632031 6.99249 0
M  V30 4864 H 449.37 1.47071 2.59179 0
M  V30 4865 H 446.907 0.736192 1.27352 0
M  V30 4866 H 448.865 -0.461552 4.14639 0
M  V30 4867 H 447.495 -0.910233 3.09701 0
M  V30 4868 H 446.547 1.47484 3.50646 0
M  V30 4869 H 447.859 1.72977 4.67847 0
M  V30 4870 H 447.013 -0.175056 6.06447 0
M  V30 4871 H 445.752 -0.525004 4.84866 0
M  V30 4872 H 444.757 1.75109 5.21169 0
M  V30 4873 H 445.982 2.09196 6.46076 0
M  V30 4874 H 443.928 -0.149935 6.55829 0
M  V30 4875 H 443.845 1.33964 7.44036 0
M  V30 4876 H 445.113 0.203755 7.79234 0
M  V30 4877 N 449.342 -1.36122 0.79427 0
M  V30 4878 C 450.57 -2.03362 0.380989 0
M  V30 4879 C 450.985 -1.59881 -1.00416 0
M  V30 4880 O 450.342 -0.790515 -1.6449 0
M  V30 4881 C 450.393 -3.58804 0.440649 0
M  V30 4882 O 450.114 -4.007 1.77118 0
M  V30 4883 C 451.615 -4.43296 0.0186117 0
M  V30 4884 H 448.835 -0.652526 0.156367 0
M  V30 4885 H 451.379 -1.73998 1.07447 0
M  V30 4886 H 449.534 -3.8686 -0.204458 0
M  V30 4887 H 449.948 -4.95309 1.72538 0
M  V30 4888 H 451.422 -5.51887 0.111488 0
M  V30 4889 H 451.899 -4.2684 -1.03461 0
M  V30 4890 H 452.505 -4.20512 0.636395 0
M  V30 4891 N 450.82 -0.546701 -1.47814 0
M  V30 4892 C 451.783 0.196287 -2.28358 0
M  V30 4893 C 452.783 0.852437 -1.36346 0
M  V30 4894 O 453.973 0.709913 -1.59078 0
M  V30 4895 C 451.105 1.28579 -3.15722 0
M  V30 4896 H 452.298 -0.511086 -2.95513 0
M  V30 4897 H 449.851 -0.303248 -1.5333 0
M  V30 4898 H 450.586 2.0259 -2.53235 0
M  V30 4899 H 450.371 0.820229 -3.83425 0
M  V30 4900 H 451.861 1.80793 -3.76435 0
M  V30 4901 N 452.299 1.55045 -0.282633 0
M  V30 4902 C 453.246 2.22822 0.601566 0
M  V30 4903 C 454.216 1.20431 1.14392 0
M  V30 4904 O 455.401 1.48996 1.19184 0
M  V30 4905 C 452.541 2.95873 1.77632 0
M  V30 4906 C 451.654 4.12999 1.26711 0
M  V30 4907 C 450.789 4.73676 2.40426 0
M  V30 4908 C 449.828 5.82981 1.86545 0
M  V30 4909 N 448.965 6.3769 2.93762 0
M  V30 4910 H 453.805 2.97995 0.0169528 0
M  V30 4911 H 451.342 1.471 -0.00339964 0
M  V30 4912 H 453.3 3.36447 2.46697 0
M  V30 4913 H 451.93 2.2311 2.33285 0
M  V30 4914 H 450.982 3.77494 0.469314 0
M  V30 4915 H 452.294 4.91803 0.832518 0
M  V30 4916 H 451.448 5.17008 3.17471 0
M  V30 4917 H 450.187 3.94164 2.87203 0
M  V30 4918 H 449.192 5.39092 1.07983 0
M  V30 4919 H 450.417 6.64366 1.40694 0
M  V30 4920 H 448.363 5.61069 3.39908 0
M  V30 4921 H 448.28 7.11788 2.54744 0
M  V30 4922 H 449.548 6.8568 3.7076 0
M  V30 4923 N 453.777 0.010035 1.57597 0
M  V30 4924 C 455.026 -0.671945 1.90178 0
M  V30 4925 C 455.339 -1.74376 0.886131 0
M  V30 4926 O 456.545 -2.48107 1.10252 0
M  V30 4927 C 455.001 -1.24636 3.3763 0
M  V30 4928 C 454.609 -0.208838 4.47513 0
M  V30 4929 C 456.353 -1.90595 3.79307 0
M  V30 4930 C 454.26 -0.793814 5.86048 0
M  V30 4931 H 453.19 -0.25474 0.709665 0
M  V30 4932 H 455.841 0.0722206 1.83358 0
M  V30 4933 H 454.223 -2.04152 3.3932 0
M  V30 4934 H 455.397 0.562463 4.57354 0
M  V30 4935 H 453.712 0.350889 4.14919 0
M  V30 4936 H 456.309 -2.35284 4.80151 0
M  V30 4937 H 456.652 -2.74074 3.13352 0
M  V30 4938 H 457.185 -1.17798 3.79958 0
M  V30 4939 H 453.924 0.00240855 6.555 0
M  V30 4940 H 453.444 -1.53404 5.79851 0
M  V30 4941 H 455.123 -1.2894 6.34022 0
M  V30 4942 N 455.255 -1.55392 -0.262866 0
M  V30 4943 C 456.202 -1.88966 -1.32516 0
M  V30 4944 C 457.172 -0.742187 -1.48596 0
M  V30 4945 O 458.357 -0.99439 -1.62839 0
M  V30 4946 C 455.497 -2.17592 -2.67858 0
M  V30 4947 C 454.61 -3.45061 -2.59917 0
M  V30 4948 C 453.745 -3.63336 -3.87505 0
M  V30 4949 C 452.784 -4.84462 -3.74116 0
M  V30 4950 N 451.921 -4.99342 -4.93561 0
M  V30 4951 H 456.761 -2.79566 -1.03184 0
M  V30 4952 H 454.298 -1.38404 -0.498285 0
M  V30 4953 H 456.256 -2.3219 -3.46617 0
M  V30 4954 H 454.886 -1.30215 -2.95371 0
M  V30 4955 H 453.938 -3.38881 -1.72812 0
M  V30 4956 H 455.25 -4.3396 -2.45926 0
M  V30 4957 H 454.404 -3.77807 -4.74707 0
M  V30 4958 H 453.143 -2.72641 -4.04374 0
M  V30 4959 H 452.148 -4.69985 -2.85297 0
M  V30 4960 H 453.373 -5.76603 -3.58757 0
M  V30 4961 H 451.319 -4.1158 -5.10821 0
M  V30 4962 H 451.236 -5.82303 -4.82141 0
M  V30 4963 H 452.504 -5.18208 -5.82306 0
M  V30 4964 N 456.733 0.527833 -1.48498 0
M  V30 4965 C 457.979 1.28545 -1.56857 0
M  V30 4966 C 458.312 1.92678 -0.242651 0
M  V30 4967 O 457.587 1.79394 0.751545 0
M  V30 4968 C 457.87 2.37314 -2.70839 0
M  V30 4969 C 457.723 1.77858 -4.13142 0
M  V30 4970 C 459.042 3.39068 -2.80573 0
M  V30 4971 H 456.161 0.466006 -0.570971 0
M  V30 4972 H 458.803 0.587784 -1.8068 0
M  V30 4973 H 456.953 2.96821 -2.50658 0
M  V30 4974 H 458.625 1.22385 -4.44769 0
M  V30 4975 H 456.868 1.08383 -4.20042 0
M  V30 4976 H 457.539 2.56624 -4.88721 0
M  V30 4977 H 460.015 2.89518 -2.98862 0
M  V30 4978 H 458.891 4.12566 -3.6205 0
M  V30 4979 H 459.152 3.9975 -1.88818 0
M  V30 4980 N 458.211 1.37122 0.776871 0
M  V30 4981 C 459.158 1.3247 1.88998 0
M  V30 4982 C 460.128 0.191143 1.64997 0
M  V30 4983 O 461.313 0.379683 1.86984 0
M  V30 4984 C 458.453 1.13241 3.25992 0
M  V30 4985 C 457.566 2.35782 3.61982 0
M  V30 4986 C 456.701 2.09465 4.88158 0
M  V30 4987 C 455.74 3.279 5.16864 0
M  V30 4988 N 454.877 3.01167 6.34226 0
M  V30 4989 H 459.717 2.27642 1.9231 0
M  V30 4990 H 457.254 1.13125 0.94027 0
M  V30 4991 H 459.212 1.00115 4.0501 0
M  V30 4992 H 457.842 0.217186 3.22069 0
M  V30 4993 H 456.894 2.59666 2.77989 0
M  V30 4994 H 458.206 3.24125 3.79137 0
M  V30 4995 H 457.36 1.93341 5.75069 0
M  V30 4996 H 456.099 1.18452 4.73097 0
M  V30 4997 H 455.104 3.44569 4.2843 0
M  V30 4998 H 456.329 4.19757 5.33836 0
M  V30 4999 H 454.275 2.12779 6.20533 0
M  V30 5000 H 454.192 3.83052 6.51772 0
M  V30 5001 H 455.46 2.88649 7.24087 0
M  V30 5002 N 459.689 -1.00246 1.21608 0
M  V30 5003 C 460.599 -2.12515 0.993709 0
M  V30 5004 C 461.615 -1.73913 -0.0549939 0
M  V30 5005 O 462.791 -2.00943 0.135619 0
M  V30 5006 C 459.856 -3.42083 0.563953 0
M  V30 5007 C 458.917 -3.94843 1.68516 0
M  V30 5008 C 458.15 -5.18226 1.27582 0
M  V30 5009 O 458.373 -5.70201 0.150506 0
M  V30 5010 O 457.307 -5.64497 2.0887 0
M  V30 5011 H 461.133 -2.34152 1.93407 0
M  V30 5012 H 458.718 -1.10891 1.00118 0
M  V30 5013 H 460.6 -4.20073 0.334194 0
M  V30 5014 H 459.275 -3.21828 -0.347665 0
M  V30 5015 H 458.182 -3.18068 1.96935 0
M  V30 5016 H 459.515 -4.19512 2.5743 0
M  V30 5017 N 461.167 -1.02423 -1.1978 0
M  V30 5018 C 462.115 -0.594474 -2.24875 0
M  V30 5019 C 463.109 0.370598 -1.65296 0
M  V30 5020 O 464.315 0.239684 -1.78397 0
M  V30 5021 H 460.69 -0.173961 -0.731602 0
M  V30 5022 H 462.661 -1.4916 -2.58445 0
M  V30 5023 C 461.41 0.0436512 -3.47673 0
M  V30 5024 H 460.733 -0.689963 -3.93801 0
M  V30 5025 H 462.173 0.307362 -4.22884 0
M  V30 5026 C 460.632 1.28881 -3.11274 0
M  V30 5027 O 461.162 2.38135 -3.23503 0
M  V30 5028 N 459.368 1.1758 -2.6575 0
M  V30 5029 H 458.915 0.286769 -2.55999 0
M  V30 5030 H 458.873 2.00988 -2.41767 0
M  V30 5031 N 462.645 1.35699 -0.801477 0
M  V30 5032 C 463.894 1.98165 -0.375979 0
M  V30 5033 C 464.207 1.64306 1.06127 0
M  V30 5034 O 465.413 2.20097 1.58964 0
M  V30 5035 C 463.869 3.54497 -0.621305 0
M  V30 5036 C 463.477 3.9727 -2.07076 0
M  V30 5037 C 465.221 4.23697 -0.26091 0
M  V30 5038 C 463.128 5.46427 -2.26211 0
M  V30 5039 H 462.058 0.741478 -0.136844 0
M  V30 5040 H 464.709 1.54834 -0.984814 0
M  V30 5041 H 463.091 3.95958 0.0574112 0
M  V30 5042 H 464.265 3.66974 -2.78687 0
M  V30 5043 H 462.58 3.40943 -2.39054 0
M  V30 5044 H 465.177 5.33334 -0.381994 0
M  V30 5045 H 465.52 4.0869 0.792344 0
M  V30 5046 H 466.053 3.87639 -0.893339 0
M  V30 5047 H 462.792 5.66396 -3.29963 0
M  V30 5048 H 462.312 5.78309 -1.59119 0
M  V30 5049 H 463.991 6.12819 -2.07513 0
M  V30 5050 N 464.123 0.554532 1.47522 0
M  V30 5051 C 465.4 -0.0360704 1.95567 0
M  V30 5052 C 465.78 -1.48828 1.49711 0
M  V30 5053 O 465.128 -2.16366 0.734717 0
M  V30 5054 C 465.338 0.106631 3.48837 0
M  V30 5055 C 466.686 -0.0400899 4.24581 0
M  V30 5056 O 467.71 0.0340453 3.56184 0
M  V30 5057 O 466.569 -0.199111 5.46137 0
M  V30 5058 H 463.663 -0.0656294 0.824392 0
M  V30 5059 H 466.209 0.620867 1.57935 0
M  V30 5060 H 464.981 1.11727 3.7501 0
M  V30 5061 H 464.604 -0.58804 3.93227 0
M  V30 5062 N 465.601 -1.54893 0.290851 0
M  V30 5063 C 466.564 -2.21824 -0.576784 0
M  V30 5064 C 467.564 -1.20104 -1.06919 0
M  V30 5065 O 468.754 -1.44906 -0.966843 0
M  V30 5066 C 465.886 -2.89662 -1.79747 0
M  V30 5067 H 467.079 -2.99899 0.00784051 0
M  V30 5068 H 464.632 -1.56245 0.0415934 0
M  V30 5069 H 465.367 -2.15639 -2.42219 0
M  V30 5070 H 465.152 -3.64219 -1.45214 0
M  V30 5071 H 466.642 -3.4075 -2.4141 0
M  V30 5072 N 467.08 -0.0183926 -1.57589 0
M  V30 5073 C 468.01 0.965596 -2.12599 0
M  V30 5074 C 468.991 1.34641 -1.0395 0
M  V30 5075 O 470.176 1.42693 -1.31729 0
M  V30 5076 C 467.306 2.25149 -2.64434 0
M  V30 5077 C 466.26 2.01175 -3.77773 0
M  V30 5078 C 465.586 3.35937 -4.15994 0
M  V30 5079 C 466.886 1.35953 -5.04296 0
M  V30 5080 H 468.58 0.507504 -2.95067 0
M  V30 5081 H 466.126 0.242671 -1.41941 0
M  V30 5082 H 468.079 2.94357 -3.01549 0
M  V30 5083 H 466.803 2.73105 -1.79112 0
M  V30 5084 H 465.462 1.34388 -3.4108 0
M  V30 5085 H 465.11 3.81631 -3.27669 0
M  V30 5086 H 464.81 3.20705 -4.92364 0
M  V30 5087 H 466.334 4.0643 -4.55683 0
M  V30 5088 H 467.748 1.95144 -5.39065 0
M  V30 5089 H 466.145 1.31152 -5.85593 0
M  V30 5090 H 467.215 0.331071 -4.83768 0
M  V30 5091 N 468.558 1.5553 0.254621 0
M  V30 5092 C 469.468 1.92789 1.33677 0
M  V30 5093 C 470.484 0.827356 1.53071 0
M  V30 5094 O 471.66 1.12807 1.66843 0
M  V30 5095 C 468.725 2.20827 2.67275 0
M  V30 5096 C 467.786 3.4427 2.5647 0
M  V30 5097 C 467.019 3.70961 3.83697 0
M  V30 5098 O 467.242 2.99852 4.85227 0
M  V30 5099 O 466.176 4.64491 3.82794 0
M  V30 5100 H 470.002 2.84945 1.05071 0
M  V30 5101 H 467.587 1.42312 0.454723 0
M  V30 5102 H 469.469 2.40204 3.46237 0
M  V30 5103 H 468.144 1.31851 2.9563 0
M  V30 5104 H 467.051 3.30209 1.75821 0
M  V30 5105 H 468.384 4.33524 2.33062 0
M  V30 5106 N 470.036 -0.519951 1.48776 0
M  V30 5107 C 470.946 -1.65025 1.66745 0
M  V30 5108 C 471.962 -1.6508 0.549954 0
M  V30 5109 O 473.138 -1.83848 0.822295 0
M  V30 5110 C 470.203 -3.0146 1.71238 0
M  V30 5111 C 469.264 -3.12182 2.94688 0
M  V30 5112 C 468.497 -4.42109 2.98958 0
M  V30 5113 O 468.72 -5.29799 2.1135 0
M  V30 5114 O 467.654 -4.57406 3.91233 0
M  V30 5115 H 471.48 -1.52801 2.62461 0
M  V30 5116 H 469.065 -0.694157 1.32294 0
M  V30 5117 H 470.947 -3.82584 1.76657 0
M  V30 5118 H 469.622 -3.13988 0.786975 0
M  V30 5119 H 468.529 -2.30316 2.94797 0
M  V30 5120 H 469.862 -3.04574 3.86646 0
M  V30 5121 N 471.514 -1.37532 -0.769588 0
M  V30 5122 C 472.444 -1.36172 -1.89682 0
M  V30 5123 C 473.425 -0.23001 -1.68538 0
M  V30 5124 O 474.61 -0.43069 -1.89364 0
M  V30 5125 C 471.74 -1.1701 -3.26995 0
M  V30 5126 C 470.694 -2.27216 -3.62708 0
M  V30 5127 C 470.02 -1.93174 -4.98586 0
M  V30 5128 C 471.32 -3.6941 -3.69234 0
M  V30 5129 H 473.014 -2.30499 -1.91078 0
M  V30 5130 H 470.56 -1.10953 -0.917902 0
M  V30 5131 H 472.513 -1.14688 -4.05493 0
M  V30 5132 H 471.237 -0.191395 -3.26039 0
M  V30 5133 H 469.896 -2.28697 -2.86519 0
M  V30 5134 H 469.544 -0.938281 -4.94171 0
M  V30 5135 H 469.244 -2.66973 -5.23449 0
M  V30 5136 H 470.768 -1.92443 -5.79481 0
M  V30 5137 H 472.182 -3.70047 -4.37879 0
M  V30 5138 H 470.579 -4.4228 -4.05597 0
M  V30 5139 H 471.649 -4.0288 -2.69844 0
M  V30 5140 N 472.992 0.995999 -1.22138 0
M  V30 5141 C 473.939 2.08551 -0.988687 0
M  V30 5142 C 474.909 1.65864 0.0885021 0
M  V30 5143 O 476.094 1.90704 -0.0604589 0
M  V30 5144 C 473.234 3.40374 -0.569191 0
M  V30 5145 C 472.347 3.96421 -1.71681 0
M  V30 5146 C 471.482 5.1639 -1.2456 0
M  V30 5147 C 470.521 5.64567 -2.36497 0
M  V30 5148 N 469.658 6.75777 -1.90445 0
M  V30 5149 H 474.498 2.2779 -1.92135 0
M  V30 5150 H 472.035 1.1168 -0.957388 0
M  V30 5151 H 473.993 4.16068 -0.307166 0
M  V30 5152 H 472.623 3.21145 0.326462 0
M  V30 5153 H 471.675 3.17628 -2.09324 0
M  V30 5154 H 472.987 4.2816 -2.55891 0
M  V30 5155 H 472.141 5.99362 -0.940774 0
M  V30 5156 H 470.88 4.86266 -0.373662 0
M  V30 5157 H 469.885 4.80185 -2.67772 0
M  V30 5158 H 471.11 5.96716 -3.24202 0
M  V30 5159 H 469.056 6.47443 -1.05609 0
M  V30 5160 H 468.973 7.06818 -2.68223 0
M  V30 5161 H 470.241 7.62262 -1.63022 0
M  V30 5162 N 474.47 1.03057 1.19235 0
M  V30 5163 C 475.719 0.72326 1.88287 0
M  V30 5164 C 476.032 -0.751333 1.80594 0
M  V30 5165 O 477.238 -1.17176 2.44912 0
M  V30 5166 C 475.694 1.24338 3.3774 0
M  V30 5167 C 475.302 2.74587 3.53986 0
M  V30 5168 C 477.046 1.01213 4.12257 0
M  V30 5169 C 474.953 3.20009 4.97341 0
M  V30 5170 H 473.883 0.266848 0.705201 0
M  V30 5171 H 476.534 1.24509 1.34795 0
M  V30 5172 H 474.916 0.649457 3.90638 0
M  V30 5173 H 476.09 3.39649 3.11408 0
M  V30 5174 H 474.405 2.9601 2.9286 0
M  V30 5175 H 477.002 1.32675 5.17978 0
M  V30 5176 H 477.345 -0.051001 4.16269 0
M  V30 5177 H 477.878 1.57014 3.65501 0
M  V30 5178 H 474.617 4.25659 4.98493 0
M  V30 5179 H 474.137 2.59676 5.40674 0
M  V30 5180 H 475.816 3.13447 5.66003 0
M  V30 5181 N 475.948 -1.35272 0.808662 0
M  V30 5182 C 476.878 -2.32315 0.234981 0
M  V30 5183 C 477.859 -1.57572 -0.64071 0
M  V30 5184 O 479.044 -1.8563 -0.570551 0
M  V30 5185 C 476.174 -3.41801 -0.615601 0
M  V30 5186 C 475.128 -4.27694 0.161767 0
M  V30 5187 C 474.454 -5.28519 -0.810649 0
M  V30 5188 C 475.754 -5.04231 1.36193 0
M  V30 5189 H 477.448 -2.80543 1.04575 0
M  V30 5190 H 474.994 -1.3488 0.504315 0
M  V30 5191 H 476.947 -4.08693 -1.02702 0
M  V30 5192 H 475.671 -2.92186 -1.45928 0
M  V30 5193 H 474.33 -3.62384 0.554382 0
M  V30 5194 H 473.978 -4.75171 -1.64988 0
M  V30 5195 H 473.678 -5.8686 -0.294822 0
M  V30 5196 H 475.202 -5.98283 -1.22023 0
M  V30 5197 H 476.616 -5.64058 1.02528 0
M  V30 5198 H 475.013 -5.72077 1.81239 0
M  V30 5199 H 476.083 -4.34753 2.14751 0
M  V30 5200 N 477.426 -0.562348 -1.47226 0
M  V30 5201 C 478.672 -0.0402761 -2.0276 0
M  V30 5202 C 479.005 1.30823 -1.43523 0
M  V30 5203 O 478.28 1.85249 -0.592705 0
M  V30 5204 C 478.563 0.047311 -3.60069 0
M  V30 5205 C 478.416 -1.32865 -4.29729 0
M  V30 5206 C 479.735 0.758182 -4.3352 0
M  V30 5207 H 476.854 -0.0161105 -0.736824 0
M  V30 5208 H 479.496 -0.725628 -1.75598 0
M  V30 5209 H 477.646 0.630986 -3.83342 0
M  V30 5210 H 479.318 -1.95593 -4.17781 0
M  V30 5211 H 477.561 -1.90195 -3.89882 0
M  V30 5212 H 478.232 -1.22004 -5.38349 0
M  V30 5213 H 480.708 0.262546 -4.15271 0
M  V30 5214 H 479.584 0.78844 -5.43208 0
M  V30 5215 H 479.845 1.81537 -4.03109 0
M  V30 5216 N 478.904 1.54736 -0.299062 0
M  V30 5217 C 480.181 1.92187 0.363802 0
M  V30 5218 C 480.561 1.22607 1.71845 0
M  V30 5219 O 479.909 0.361141 2.25628 0
M  V30 5220 C 480.119 3.45678 0.480377 0
M  V30 5221 C 481.467 4.17885 0.752147 0
M  V30 5222 O 482.491 3.51702 0.564264 0
M  V30 5223 O 481.35 5.35048 1.11294 0
M  V30 5224 H 478.444 0.801681 0.203066 0
M  V30 5225 H 480.99 1.66115 -0.346978 0
M  V30 5226 H 479.762 3.88443 -0.471999 0
M  V30 5227 H 479.385 3.77779 1.2397 0
M  V30 5228 N 480.382 0.0267497 1.57577 0
M  V30 5229 C 481.612 -0.6617 1.95717 0
M  V30 5230 C 482.02 -1.66331 0.901706 0
M  V30 5231 O 481.363 -1.83273 -0.125241 0
M  V30 5232 C 481.425 -1.42649 3.29987 0
M  V30 5233 C 481.089 -0.583482 4.5326 0
M  V30 5234 C 482.086 0.140221 5.19711 0
M  V30 5235 C 479.771 -0.521581 4.99585 0
M  V30 5236 C 481.765 0.914523 6.30805 0
M  V30 5237 C 479.452 0.256428 6.10562 0
M  V30 5238 C 480.45 0.973189 6.76031 0
M  V30 5239 O 480.138 1.73845 7.84878 0
M  V30 5240 H 479.87 -0.187483 0.649481 0
M  V30 5241 H 482.424 0.0820847 2.05236 0
M  V30 5242 H 480.654 -2.21536 3.16952 0
M  V30 5243 H 482.343 -2.00282 3.53047 0
M  V30 5244 H 483.109 0.101716 4.84893 0
M  V30 5245 H 478.988 -1.06904 4.48433 0
M  V30 5246 H 482.532 1.4745 6.81839 0
M  V30 5247 H 478.429 0.296657 6.44818 0
M  V30 5248 H 479.197 1.65797 8.01532 0
M  V30 5249 N 481.861 -1.55662 -0.24637 0
M  V30 5250 C 483.138 -1.68272 -0.997198 0
M  V30 5251 C 483.518 -0.566785 -2.03349 0
M  V30 5252 O 482.866 0.429688 -2.24424 0
M  V30 5253 C 483.076 -3.08594 -1.63006 0
M  V30 5254 C 484.424 -3.6721 -2.13171 0
M  V30 5255 O 485.448 -3.11397 -1.72946 0
M  V30 5256 O 484.307 -4.65054 -2.87031 0
M  V30 5257 H 481.401 -0.684429 -0.464205 0
M  V30 5258 H 483.947 -1.67993 -0.240114 0
M  V30 5259 H 482.719 -3.81264 -0.880527 0
M  V30 5260 H 482.342 -3.12886 -2.45333 0
M  V30 5261 N 483.339 0.512053 -1.4905 0
M  V30 5262 C 484.249 1.64139 -1.67617 0
M  V30 5263 C 485.265 1.64786 -0.558701 0
M  V30 5264 O 486.441 1.8341 -0.832034 0
M  V30 5265 C 483.506 3.00548 -1.72835 0
M  V30 5266 C 482.567 3.10615 -2.96339 0
M  V30 5267 C 481.8 4.40517 -3.01298 0
M  V30 5268 O 482.023 5.28671 -2.14157 0
M  V30 5269 O 480.957 4.55325 -3.93653 0
M  V30 5270 H 484.783 1.51407 -2.63267 0
M  V30 5271 H 482.368 0.687131 -1.32661 0
M  V30 5272 H 484.25 3.81641 -1.78683 0
M  V30 5273 H 482.925 3.13566 -0.803616 0
M  V30 5274 H 481.832 2.2875 -2.96014 0
M  V30 5275 H 483.165 3.0252 -3.88256 0
M  V30 5276 N 484.817 1.37938 0.762283 0
M  V30 5277 C 485.764 1.34467 1.87583 0
M  V30 5278 C 486.734 0.208633 1.64785 0
M  V30 5279 O 487.919 0.399494 1.86571 0
M  V30 5280 C 485.059 1.16692 3.24772 0
M  V30 5281 C 484.172 2.39608 3.59461 0
M  V30 5282 C 483.307 2.14631 4.85908 0
M  V30 5283 C 482.346 3.33364 5.13357 0
M  V30 5284 N 481.483 3.07877 6.30996 0
M  V30 5285 H 486.323 2.29669 1.89885 0
M  V30 5286 H 483.86 1.14116 0.928219 0
M  V30 5287 H 485.818 1.04405 4.03925 0
M  V30 5288 H 484.448 0.251333 3.2182 0
M  V30 5289 H 483.5 2.626 2.75219 0
M  V30 5290 H 484.812 3.28128 3.75678 0
M  V30 5291 H 483.966 1.99429 5.72986 0
M  V30 5292 H 482.705 1.23463 4.71814 0
M  V30 5293 H 481.71 3.49094 4.24751 0
M  V30 5294 H 482.935 4.25395 5.29354 0
M  V30 5295 H 480.881 2.19348 6.18241 0
M  V30 5296 H 480.798 3.89944 6.47673 0
M  V30 5297 H 482.066 2.96313 7.20985 0
M  V30 5298 N 486.295 -0.989507 1.22664 0
M  V30 5299 C 487.543 -1.72612 1.05117 0
M  V30 5300 C 487.864 -1.90552 -0.414131 0
M  V30 5301 O 487.134 -1.4676 -1.29762 0
M  V30 5302 H 485.714 -0.639555 0.385977 0
M  V30 5303 H 488.376 -1.19158 1.54232 0
M  V30 5304 H 487.472 -2.71926 1.53175 0
M  V30 5305 N 487.773 -1.03688 -1.18687 0
M  V30 5306 C 489.003 -0.756819 -1.92239 0
M  V30 5307 C 489.411 0.689374 -1.76194 0
M  V30 5308 O 488.754 1.48126 -1.08648 0
M  V30 5309 C 488.816 -1.03851 -3.44173 0
M  V30 5310 C 488.48 -2.47785 -3.83994 0
M  V30 5311 C 489.477 -3.4595 -3.88091 0
M  V30 5312 C 487.162 -2.82397 -4.154 0
M  V30 5313 C 489.156 -4.76779 -4.23038 0
M  V30 5314 C 486.843 -4.13433 -4.50018 0
M  V30 5315 C 487.841 -5.10434 -4.53813 0
M  V30 5316 O 487.529 -6.39122 -4.87625 0
M  V30 5317 H 487.261 -0.275678 -0.617234 0
M  V30 5318 H 489.815 -1.38658 -1.51536 0
M  V30 5319 H 488.045 -0.351612 -3.85098 0
M  V30 5320 H 489.734 -0.746846 -3.9897 0
M  V30 5321 H 490.5 -3.20549 -3.63969 0
M  V30 5322 H 486.379 -2.07568 -4.11627 0
M  V30 5323 H 489.923 -5.52488 -4.25914 0
M  V30 5324 H 485.82 -4.38604 -4.736 0
M  V30 5325 H 486.588 -6.43715 -5.05542 0
M  V30 5326 N 489.251 1.34841 -0.815825 0
M  V30 5327 C 490.181 2.32187 -0.247298 0
M  V30 5328 C 491.162 1.5791 0.632344 0
M  V30 5329 O 492.347 1.8593 0.560698 0
M  V30 5330 C 489.477 3.42122 0.597466 0
M  V30 5331 C 488.431 4.27602 -0.184446 0
M  V30 5332 C 487.757 5.28942 0.782609 0
M  V30 5333 C 489.057 5.03502 -1.38865 0
M  V30 5334 H 490.751 2.79985 -1.06061 0
M  V30 5335 H 488.297 1.34611 -0.511461 0
M  V30 5336 H 490.25 4.09232 1.00533 0
M  V30 5337 H 488.974 2.92956 1.44376 0
M  V30 5338 H 487.633 3.62085 -0.573592 0
M  V30 5339 H 487.281 4.7604 1.62466 0
M  V30 5340 H 486.981 5.87008 0.263695 0
M  V30 5341 H 488.505 5.98922 1.18848 0
M  V30 5342 H 489.919 5.63506 -1.05518 0
M  V30 5343 H 488.316 5.71108 -1.8427 0
M  V30 5344 H 489.386 4.33608 -2.17054 0
M  V30 5345 N 490.729 0.570148 1.46925 0
M  V30 5346 C 491.659 -0.158274 2.32963 0
M  V30 5347 C 492.64 -0.896093 1.44583 0
M  V30 5348 O 493.825 -0.874022 1.7342 0
M  V30 5349 C 490.955 -1.18055 3.26619 0
M  V30 5350 C 489.909 -0.558379 4.24342 0
M  V30 5351 C 489.235 -1.68623 5.07415 0
M  V30 5352 C 490.535 0.496295 5.19937 0
M  V30 5353 H 492.229 0.560046 2.94115 0
M  V30 5354 H 489.775 0.270775 1.41431 0
M  V30 5355 H 491.728 -1.69841 3.85658 0
M  V30 5356 H 490.452 -1.92899 2.63548 0
M  V30 5357 H 489.111 -0.0617157 3.66548 0
M  V30 5358 H 488.759 -2.42402 4.40738 0
M  V30 5359 H 488.459 -1.27564 5.73586 0
M  V30 5360 H 489.983 -2.20709 5.69315 0
M  V30 5361 H 491.397 0.0640052 5.73264 0
M  V30 5362 H 489.794 0.82649 5.94381 0
M  V30 5363 H 490.864 1.38735 4.6463 0
M  V30 5364 N 492.207 -1.54576 0.307264 0
M  V30 5365 C 493.139 -2.21212 -0.599807 0
M  V30 5366 C 494.152 -1.20685 -1.09266 0
M  V30 5367 O 495.341 -1.47244 -1.00903 0
M  V30 5368 C 492.441 -2.84994 -1.83389 0
M  V30 5369 C 491.614 -4.11511 -1.48248 0
M  V30 5370 C 490.673 -4.59038 -2.57237 0
M  V30 5371 O 489.699 -5.24095 -2.22065 0
M  V30 5372 N 490.901 -4.31884 -3.87887 0
M  V30 5373 H 493.666 -2.99686 -0.0293075 0
M  V30 5374 H 491.227 -1.61379 0.129738 0
M  V30 5375 H 493.219 -3.1372 -2.5566 0
M  V30 5376 H 491.789 -2.10324 -2.31263 0
M  V30 5377 H 491.009 -3.89728 -0.592122 0
M  V30 5378 H 492.297 -4.93879 -1.22316 0
M  V30 5379 H 491.695 -3.79778 -4.19268 0
M  V30 5380 H 490.252 -4.65304 -4.56438 0
M  V30 5381 N 493.685 -0.035106 -1.57561 0
M  V30 5382 C 494.934 0.641604 -1.91223 0
M  V30 5383 C 495.247 1.72944 -0.913761 0
M  V30 5384 O 496.453 2.46321 -1.14185 0
M  V30 5385 C 494.909 1.19249 -3.3957 0
M  V30 5386 C 494.517 0.137616 -4.47789 0
M  V30 5387 C 496.261 1.84537 -3.82291 0
M  V30 5388 C 494.168 0.700478 -5.87237 0
M  V30 5389 H 493.098 0.243417 -0.713627 0
M  V30 5390 H 495.749 -0.101382 -1.8322 0
M  V30 5391 H 494.131 1.98728 -3.42525 0
M  V30 5392 H 495.305 -0.635153 -4.56402 0
M  V30 5393 H 493.62 -0.416855 -4.14308 0
M  V30 5394 H 496.217 2.27616 -4.83834 0
M  V30 5395 H 496.56 2.69054 -3.17672 0
M  V30 5396 H 497.093 1.11739 -3.81784 0
M  V30 5397 H 493.832 -0.106693 -6.55413 0
M  V30 5398 H 493.352 1.4416 -5.82218 0
M  V30 5399 H 495.031 1.18837 -6.35993 0
M  V30 5400 N 495.163 1.55791 0.238111 0
M  V30 5401 C 496.41 1.78033 0.964907 0
M  V30 5402 C 496.738 0.600984 1.84982 0
M  V30 5403 O 495.993 -0.41536 1.91241 0
M  V30 5404 C 496.292 3.05869 1.84875 0
M  V30 5405 C 495.958 4.36808 1.11846 0
M  V30 5406 C 494.62 4.72388 0.916662 0
M  V30 5407 C 496.972 5.17717 0.60151 0
M  V30 5408 C 494.3 5.86406 0.185756 0
M  V30 5409 C 496.652 6.32494 -0.115972 0
M  V30 5410 C 495.316 6.66688 -0.329168 0
M  V30 5411 H 494.586 0.651469 0.353085 0
M  V30 5412 H 497.233 1.90061 0.234318 0
M  V30 5413 H 495.538 2.88891 2.64668 0
M  V30 5414 H 497.235 3.20278 2.41294 0
M  V30 5415 H 493.825 4.08862 1.28569 0
M  V30 5416 H 498.009 4.90678 0.744932 0
M  V30 5417 H 493.265 6.11399 0.0101886 0
M  V30 5418 H 497.439 6.94425 -0.524127 0
M  V30 5419 H 495.066 7.54884 -0.897474 0
M  V30 5420 N 496.642 -0.504142 1.49319 0
M  V30 5421 C 497.87 -1.28256 1.62351 0
M  V30 5422 C 498.285 -1.86502 0.293682 0
M  V30 5423 O 497.642 -1.67678 -0.720449 0
M  V30 5424 C 497.693 -2.41507 2.68992 0
M  V30 5425 O 497.414 -1.85656 3.96817 0
M  V30 5426 C 498.915 -3.32929 2.927 0
M  V30 5427 H 496.135 -0.389115 0.546654 0
M  V30 5428 H 498.679 -0.605531 1.95329 0
M  V30 5429 H 496.834 -3.05046 2.38801 0
M  V30 5430 H 497.248 -2.59981 4.55533 0
M  V30 5431 H 498.722 -4.0868 3.71058 0
M  V30 5432 H 499.199 -3.89733 2.02496 0
M  V30 5433 H 499.805 -2.75158 3.24296 0
M  V30 5434 N 498.12 -1.38341 -0.754957 0
M  V30 5435 C 499.067 -1.3546 -1.86867 0
M  V30 5436 C 500.037 -0.217369 -1.64672 0
M  V30 5437 O 501.222 -0.409383 -1.86356 0
M  V30 5438 C 498.362 -1.18413 -3.24149 0
M  V30 5439 C 497.475 -2.41511 -3.58185 0
M  V30 5440 C 496.61 -2.17205 -4.84763 0
M  V30 5441 C 495.649 -3.36081 -5.11582 0
M  V30 5442 N 494.786 -3.11219 -6.29354 0
M  V30 5443 H 499.626 -2.30672 -1.88664 0
M  V30 5444 H 497.163 -1.14607 -0.922154 0
M  V30 5445 H 499.121 -1.06545 -4.03366 0
M  V30 5446 H 497.751 -0.268397 -3.21682 0
M  V30 5447 H 496.803 -2.64056 -2.73822 0
M  V30 5448 H 498.115 -3.30115 -3.73932 0
M  V30 5449 H 497.269 -2.02465 -5.7192 0
M  V30 5450 H 496.008 -1.25964 -4.71152 0
M  V30 5451 H 495.013 -3.51341 -4.22894 0
M  V30 5452 H 496.238 -4.28196 -5.27091 0
M  V30 5453 H 494.184 -2.22624 -6.17069 0
M  V30 5454 H 494.101 -3.93373 -6.45596 0
M  V30 5455 H 495.369 -3.00132 -7.19403 0
M  V30 5456 N 499.598 0.982988 -1.23187 0
M  V30 5457 C 501.009 1.53847 -1.05773 0
M  V30 5458 C 501.36 1.92568 0.375744 0
M  V30 5459 O 500.485 1.75783 1.26211 0
M  V30 5460 C 501.08 2.79567 -1.91384 0
M  V30 5461 C 499.639 3.31524 -1.78238 0
M  V30 5462 C 498.786 2.04534 -1.87246 0
M  V30 5463 H 501.737 0.802962 -1.36888 0
M  V30 5464 H 501.758 3.52317 -1.43711 0
M  V30 5465 H 501.27 2.51353 -2.95708 0
M  V30 5466 H 499.371 3.64623 -0.766875 0
M  V30 5467 H 499.484 4.01457 -2.61475 0
M  V30 5468 H 497.848 2.1855 -1.30797 0
M  V30 5469 H 498.631 1.78706 -2.9312 0
M  V30 5470 N 501.076 1.04316 1.18135 0
M  V30 5471 C 502.322 0.749128 1.88457 0
M  V30 5472 C 502.655 -0.72149 1.803 0
M  V30 5473 O 501.93 -1.52676 1.205 0
M  V30 5474 C 502.213 1.21905 3.38838 0
M  V30 5475 C 502.066 2.75195 3.55792 0
M  V30 5476 C 503.385 0.811085 4.32561 0
M  V30 5477 H 500.504 0.273611 0.684329 0
M  V30 5478 H 503.146 1.29561 1.38975 0
M  V30 5479 H 501.296 0.754137 3.8111 0
M  V30 5480 H 502.968 3.29743 3.22595 0
M  V30 5481 H 501.211 3.14899 2.98364 0
M  V30 5482 H 501.882 3.03135 4.61317 0
M  V30 5483 H 504.358 1.21118 3.98082 0
M  V30 5484 H 503.234 1.16761 5.36338 0
M  V30 5485 H 503.495 -0.285596 4.41177 0
M  V30 5486 N 502.554 -1.34406 0.822964 0
M  V30 5487 C 503.486 -2.28305 0.202375 0
M  V30 5488 C 504.499 -1.5103 -0.60777 0
M  V30 5489 O 505.688 -1.73057 -0.437444 0
M  V30 5490 C 502.788 -3.30836 -0.734911 0
M  V30 5491 C 501.961 -4.37388 0.0324177 0
M  V30 5492 C 501.02 -5.1968 -0.825803 0
M  V30 5493 O 500.046 -5.68556 -0.270771 0
M  V30 5494 N 501.248 -5.39393 -2.14558 0
M  V30 5495 H 504.013 -2.82201 1.00909 0
M  V30 5496 H 501.574 -1.4693 0.67993 0
M  V30 5497 H 503.566 -3.82786 -1.31365 0
M  V30 5498 H 502.136 -2.77334 -1.44238 0
M  V30 5499 H 501.356 -3.86152 0.792469 0
M  V30 5500 H 502.644 -5.05702 0.560633 0
M  V30 5501 H 502.042 -5.01357 -2.62025 0
M  V30 5502 H 500.599 -5.94461 -2.67318 0
M  V30 5503 N 504.032 -0.577932 -1.46621 0
M  V30 5504 C 505.309 0.00495287 -1.95599 0
M  V30 5505 C 505.689 1.46428 -1.5206 0
M  V30 5506 O 505.037 2.1517 -0.769046 0
M  V30 5507 C 505.247 -0.162114 -3.48623 0
M  V30 5508 C 506.595 -0.0274623 -4.24591 0
M  V30 5509 O 507.619 -0.0907067 -3.56084 0
M  V30 5510 O 506.478 0.1122 -5.46385 0
M  V30 5511 H 503.572 0.0525057 -0.825332 0
M  V30 5512 H 506.118 -0.645914 -1.56927 0
M  V30 5513 H 504.89 -1.17679 -3.73185 0
M  V30 5514 H 504.513 0.525407 -3.94113 0
M  V30 5515 N 505.51 1.54411 -0.315457 0
M  V30 5516 C 506.926 1.59556 0.037464 0
M  V30 5517 C 507.126 1.33217 1.5118 0
M  V30 5518 O 506.182 1.11264 2.26664 0
M  V30 5519 C 507.495 2.98372 -0.373477 0
M  V30 5520 C 509.043 3.11324 -0.323452 0
M  V30 5521 C 509.518 4.52472 -0.709433 0
M  V30 5522 N 511.009 4.58437 -0.662524 0
M  V30 5523 C 511.744 5.65751 -0.933474 0
M  V30 5524 N 511.24 6.81039 -1.27114 0
M  V30 5525 N 513.033 5.55489 -0.859573 0
M  V30 5526 H 505.184 1.6979 -1.27614 0
M  V30 5527 H 507.447 0.793732 -0.518356 0
M  V30 5528 H 507.153 3.22618 -1.40037 0
M  V30 5529 H 507.027 3.76264 0.265615 0
M  V30 5530 H 509.414 2.86818 0.694223 0
M  V30 5531 H 509.495 2.35555 -0.997367 0
M  V30 5532 H 509.139 4.7771 -1.72498 0
M  V30 5533 H 509.069 5.26598 -0.0132923 0
M  V30 5534 H 511.56 3.75636 -0.413065 0
M  V30 5535 H 511.873 7.58816 -1.46348 0
M  V30 5536 H 510.218 6.82555 -1.30932 0
M  V30 5537 H 513.409 4.64299 -0.595324 0
M  V30 5538 H 513.582 6.39036 -1.0741 0
M  V30 5539 N 506.988 0.0434614 1.5754 0
M  V30 5540 C 508.399 -0.493343 1.80064 0
M  V30 5541 C 508.75 -1.71388 0.955023 0
M  V30 5542 O 507.875 -2.15736 0.169434 0
M  V30 5543 C 508.47 -0.90179 3.26578 0
M  V30 5544 C 507.029 -1.38362 3.50047 0
M  V30 5545 C 506.176 -0.355129 2.75017 0
M  V30 5546 H 509.127 0.2694 1.56397 0
M  V30 5547 H 509.148 -1.76523 3.37075 0
M  V30 5548 H 508.66 -0.013271 3.88098 0
M  V30 5549 H 506.761 -2.29159 2.93798 0
M  V30 5550 H 506.874 -1.3811 4.58762 0
M  V30 5551 H 505.238 -0.826348 2.40922 0
M  V30 5552 H 506.021 0.525172 3.39259 0
M  V30 5553 N 508.466 -1.55915 -0.229846 0
M  V30 5554 C 509.694 -1.82617 -0.972562 0
M  V30 5555 C 510.109 -0.621488 -1.78278 0
M  V30 5556 O 509.466 0.409956 -1.77836 0
M  V30 5557 C 509.517 -3.0774 -1.89679 0
M  V30 5558 O 509.238 -4.23559 -1.11934 0
M  V30 5559 C 510.739 -3.47368 -2.75409 0
M  V30 5560 H 507.959 -0.60727 -0.285419 0
M  V30 5561 H 510.503 -2.02996 -0.247579 0
M  V30 5562 H 508.658 -2.89361 -2.57583 0
M  V30 5563 H 509.072 -4.94586 -1.74599 0
M  V30 5564 H 510.546 -4.37977 -3.35977 0
M  V30 5565 H 511.023 -2.68737 -3.47386 0
M  V30 5566 H 511.629 -3.68158 -2.12931 0
M  V30 5567 N 509.944 0.496216 -1.49584 0
M  V30 5568 C 510.874 1.60576 -1.69521 0
M  V30 5569 C 511.855 1.61169 -0.543933 0
M  V30 5570 O 513.04 1.77834 -0.78031 0
M  V30 5571 C 510.17 2.99038 -1.76616 0
M  V30 5572 C 509.124 3.13312 -2.91581 0
M  V30 5573 C 508.45 4.53172 -2.83794 0
M  V30 5574 C 509.75 2.92886 -4.32452 0
M  V30 5575 H 511.444 1.44146 -2.62416 0
M  V30 5576 H 508.99 0.692024 -1.26282 0
M  V30 5577 H 510.943 3.76564 -1.8915 0
M  V30 5578 H 509.667 3.16568 -0.80324 0
M  V30 5579 H 508.326 2.38213 -2.78658 0
M  V30 5580 H 507.974 4.67585 -1.854 0
M  V30 5581 H 507.674 4.63662 -3.60958 0
M  V30 5582 H 509.198 5.32752 -2.98342 0
M  V30 5583 H 510.612 3.60178 -4.46032 0
M  V30 5584 H 509.009 3.14844 -5.10875 0
M  V30 5585 H 510.079 1.88966 -4.46565 0
M  V30 5586 N 511.423 1.38739 0.74761 0
M  V30 5587 C 512.67 1.35274 1.50689 0
M  V30 5588 C 512.998 -0.0553359 1.94421 0
M  V30 5589 O 512.253 -1.03365 1.66175 0
M  V30 5590 C 512.552 2.25992 2.7688 0
M  V30 5591 C 512.218 3.73854 2.5208 0
M  V30 5592 C 510.88 4.14145 2.45025 0
M  V30 5593 C 513.232 4.67427 2.30568 0
M  V30 5594 C 510.56 5.4609 2.14483 0
M  V30 5595 C 512.912 5.99635 2.01545 0
M  V30 5596 C 511.576 6.39004 1.92951 0
M  V30 5597 H 510.846 0.495003 0.55141 0
M  V30 5598 H 513.493 1.71145 0.859158 0
M  V30 5599 H 511.798 1.83196 3.46333 0
M  V30 5600 H 513.495 2.20611 3.34861 0
M  V30 5601 H 510.085 3.41913 2.58444 0
M  V30 5602 H 514.269 4.3714 2.34994 0
M  V30 5603 H 509.525 5.75528 2.06342 0
M  V30 5604 H 513.699 6.71678 1.83906 0
M  V30 5605 H 511.326 7.41165 1.6905 0
M  V30 5606 N 512.901 -0.976442 1.23707 0
M  V30 5607 C 513.831 -2.08749 1.04624 0
M  V30 5608 C 514.812 -1.70057 -0.0380956 0
M  V30 5609 O 515.997 -1.93782 0.127308 0
M  V30 5610 C 513.127 -3.41335 0.640902 0
M  V30 5611 C 512.081 -3.93947 1.67302 0
M  V30 5612 C 511.407 -5.22774 1.12301 0
M  V30 5613 C 512.707 -4.22769 3.06697 0
M  V30 5614 H 514.401 -2.24972 1.97555 0
M  V30 5615 H 511.947 -1.08108 0.951247 0
M  V30 5616 H 513.9 -4.18489 0.494434 0
M  V30 5617 H 512.624 -3.24988 -0.324099 0
M  V30 5618 H 511.283 -3.18941 1.80755 0
M  V30 5619 H 510.931 -5.0278 0.148877 0
M  V30 5620 H 510.631 -5.58942 1.81267 0
M  V30 5621 H 512.155 -6.02546 0.988479 0
M  V30 5622 H 513.569 -4.90659 2.96524 0
M  V30 5623 H 511.966 -4.70147 3.72937 0
M  V30 5624 H 513.036 -3.29885 3.55392 0
M  V30 5625 N 514.379 -1.04941 -1.1758 0
M  V30 5626 C 515.289 -0.658826 -2.25159 0
M  V30 5627 C 516.305 0.318941 -1.71052 0
M  V30 5628 O 517.481 0.171669 -2.00667 0
M  V30 5629 C 514.546 -0.0369522 -3.4668 0
M  V30 5630 C 513.607 -1.06484 -4.15884 0
M  V30 5631 C 512.84 -0.472551 -5.31604 0
M  V30 5632 O 513.063 0.718736 -5.65854 0
M  V30 5633 O 511.997 -1.20557 -5.89703 0
M  V30 5634 H 515.823 -1.55533 -2.60851 0
M  V30 5635 H 513.408 -0.820819 -1.24832 0
M  V30 5636 H 515.29 0.308784 -4.20267 0
M  V30 5637 H 513.965 0.833238 -3.12792 0
M  V30 5638 H 512.872 -1.46253 -3.44327 0
M  V30 5639 H 514.205 -1.9061 -4.53794 0
M  V30 5640 N 515.857 1.33968 -0.830081 0
M  V30 5641 C 517.103 1.98357 -0.422191 0
M  V30 5642 C 517.436 1.65633 1.01387 0
M  V30 5643 O 516.711 0.931648 1.70735 0
M  V30 5644 C 516.994 3.54492 -0.633043 0
M  V30 5645 C 516.847 3.96934 -2.11574 0
M  V30 5646 C 518.166 4.40039 -0.0735584 0
M  V30 5647 H 515.285 0.720544 -0.154871 0
M  V30 5648 H 517.927 1.58749 -1.04397 0
M  V30 5649 H 516.077 3.88361 -0.103775 0
M  V30 5650 H 517.749 3.73363 -2.7092 0
M  V30 5651 H 515.992 3.46984 -2.60354 0
M  V30 5652 H 516.663 5.05651 -2.21406 0
M  V30 5653 H 519.139 4.12764 -0.52585 0
M  V30 5654 H 518.015 5.48327 -0.250841 0
M  V30 5655 H 518.276 4.30124 1.02202 0
M  V30 5656 N 517.335 0.585699 1.46312 0
M  V30 5657 C 518.584 0.0701192 2.01578 0
M  V30 5658 C 518.897 -1.29889 1.46247 0
M  V30 5659 O 520.103 -1.90598 1.93351 0
M  V30 5660 C 518.559 0.0747499 3.59822 0
M  V30 5661 C 518.167 1.44226 4.24149 0
M  V30 5662 C 519.911 -0.38673 4.22735 0
M  V30 5663 C 517.818 1.40446 5.74481 0
M  V30 5664 H 516.748 0.0224441 0.753666 0
M  V30 5665 H 519.399 0.737789 1.68015 0
M  V30 5666 H 517.781 -0.659144 3.90476 0
M  V30 5667 H 518.955 2.19612 4.05101 0
M  V30 5668 H 517.27 1.84401 3.73343 0
M  V30 5669 H 519.867 -0.433853 5.32937 0
M  V30 5670 H 520.21 -1.40489 3.91878 0
M  V30 5671 H 520.743 0.293195 3.96718 0
M  V30 5672 H 517.482 2.39952 6.10003 0
M  V30 5673 H 517.002 0.692845 5.95785 0
M  V30 5674 H 518.681 1.11865 6.37256 0
M  V30 5675 N 518.813 -1.54241 0.323641 0
M  V30 5676 C 519.745 -2.21836 -0.576311 0
M  V30 5677 C 520.758 -1.21837 -1.07979 0
M  V30 5678 O 521.947 -1.48306 -0.99336 0
M  V30 5679 C 519.047 -2.86923 -1.80356 0
M  V30 5680 C 518.22 -4.1306 -1.43875 0
M  V30 5681 C 517.279 -4.6174 -2.52353 0
M  V30 5682 O 516.305 -5.26421 -2.16494 0
M  V30 5683 N 517.507 -4.35974 -3.83284 0
M  V30 5684 H 520.272 -2.997 0.00247987 0
M  V30 5685 H 517.833 -1.61233 0.146848 0
M  V30 5686 H 519.825 -3.16414 -2.52318 0
M  V30 5687 H 518.395 -2.12765 -2.29019 0
M  V30 5688 H 517.615 -3.90334 -0.550752 0
M  V30 5689 H 518.903 -4.95148 -1.17071 0
M  V30 5690 H 518.301 -3.84203 -4.15216 0
M  V30 5691 H 516.858 -4.70119 -4.51477 0
M  V30 5692 N 520.291 -0.0518155 -1.57515 0
M  V30 5693 C 521.707 0.304735 -1.56664 0
M  V30 5694 C 521.907 1.71395 -1.05953 0
M  V30 5695 O 520.963 2.42123 -0.716414 0
M  V30 5696 C 522.276 0.132614 -3.00407 0
M  V30 5697 C 523.824 0.20367 -3.12337 0
M  V30 5698 C 524.299 0.0600706 -4.57961 0
M  V30 5699 N 525.79 0.116326 -4.63054 0
M  V30 5700 C 526.525 0.0293363 -5.73392 0
M  V30 5701 N 526.021 -0.110038 -6.92713 0
M  V30 5702 N 527.814 0.0849651 -5.62036 0
M  V30 5703 H 519.965 -0.973056 -1.888 0
M  V30 5704 H 522.228 -0.377781 -0.869474 0
M  V30 5705 H 521.934 -0.839019 -3.41546 0
M  V30 5706 H 521.808 0.893376 -3.66468 0
M  V30 5707 H 524.195 1.16578 -2.71097 0
M  V30 5708 H 524.276 -0.587857 -2.48954 0
M  V30 5709 H 523.92 -0.898715 -4.99886 0
M  V30 5710 H 523.85 0.87075 -5.19351 0
M  V30 5711 H 526.341 0.22327 -3.7724 0
M  V30 5712 H 526.654 -0.169104 -7.72615 0
M  V30 5713 H 524.999 -0.145132 -6.94848 0
M  V30 5714 H 528.19 0.192411 -4.67704 0
M  V30 5715 H 528.363 0.0137131 -6.47999 0
M  V30 5716 N 521.769 1.56035 0.221574 0
M  V30 5717 C 522.719 1.8881 1.27807 0
M  V30 5718 C 523.703 0.751177 1.42289 0
M  V30 5719 O 524.895 1.01359 1.45104 0
M  V30 5720 C 522.024 2.20828 2.6285 0
M  V30 5721 C 521.11 3.40912 2.52269 0
M  V30 5722 N 521.501 4.59531 2.1134 0
M  V30 5723 C 519.799 3.44526 2.83228 0
M  V30 5724 C 520.5 5.41689 2.1201 0
M  V30 5725 N 519.476 4.814 2.52497 0
M  V30 5726 H 523.278 2.78036 0.952529 0
M  V30 5727 H 520.792 1.566 0.430134 0
M  V30 5728 H 522.789 2.42483 3.39127 0
M  V30 5729 H 521.449 1.32914 2.9625 0
M  V30 5730 H 522.46 4.8469 1.82472 0
M  V30 5731 H 519.137 2.66956 3.21 0
M  V30 5732 H 520.527 6.46643 1.82491 0
M  V30 5733 N 523.247 -0.488276 1.49845 0
M  V30 5734 C 524.195 -1.60917 1.67954 0
M  V30 5735 C 525.189 -1.6038 0.54539 0
M  V30 5736 O 526.395 -1.64736 0.7254 0
M  V30 5737 H 522.77 -0.533658 0.529824 0
M  V30 5738 H 524.741 -1.428 2.62013 0
M  V30 5739 C 523.49 -2.98975 1.77509 0
M  V30 5740 H 522.813 -3.00099 2.6416 0
M  V30 5741 H 524.253 -3.76906 1.9421 0
M  V30 5742 C 522.712 -3.3282 0.522745 0
M  V30 5743 O 523.242 -4.00208 -0.345866 0
M  V30 5744 N 521.448 -2.8808 0.381882 0
M  V30 5745 H 520.995 -2.33415 1.08974 0
M  V30 5746 H 520.953 -3.11091 -0.454929 0
M  V30 5747 N 524.725 -1.39134 -0.740242 0
M  V30 5748 C 525.675 -1.33928 -1.84519 0
M  V30 5749 C 526.659 -0.221097 -1.59374 0
M  V30 5750 O 527.851 -0.458195 -1.70967 0
M  V30 5751 C 524.98 -1.17991 -3.22387 0
M  V30 5752 C 524.066 -2.34488 -3.53378 0
M  V30 5753 N 524.457 -3.59954 -3.5534 0
M  V30 5754 C 522.755 -2.27331 -3.83714 0
M  V30 5755 C 523.456 -4.36962 -3.83978 0
M  V30 5756 N 522.432 -3.66482 -4.01487 0
M  V30 5757 H 526.234 -2.28907 -1.84333 0
M  V30 5758 H 523.748 -1.32555 -0.938237 0
M  V30 5759 H 525.745 -1.12345 -4.01478 0
M  V30 5760 H 524.405 -0.23957 -3.23815 0
M  V30 5761 H 525.416 -3.93448 -3.36778 0
M  V30 5762 H 522.093 -1.41531 -3.92779 0
M  V30 5763 H 523.483 -5.45692 -3.92008 0
M  V30 5764 N 526.204 0.969867 -1.24223 0
M  V30 5765 C 527.136 2.0669 -0.99055 0
M  V30 5766 C 528.149 1.62753 0.0392222 0
M  V30 5767 O 529.338 1.77403 -0.197561 0
M  V30 5768 C 526.438 3.35589 -0.472594 0
M  V30 5769 C 525.611 4.08444 -1.56499 0
M  V30 5770 C 524.67 5.15616 -1.05007 0
M  V30 5771 O 523.696 5.41911 -1.7413 0
M  V30 5772 N 524.898 5.80383 0.116641 0
M  V30 5773 H 527.663 2.28855 -1.93508 0
M  V30 5774 H 525.224 1.13733 -1.15223 0
M  V30 5775 H 527.216 4.04542 -0.112919 0
M  V30 5776 H 525.786 3.10311 0.377617 0
M  V30 5777 H 525.006 3.33798 -2.09696 0
M  V30 5778 H 526.294 4.53882 -2.29932 0
M  V30 5779 H 525.692 5.6142 0.694589 0
M  V30 5780 H 524.249 6.50462 0.417483 0
M  V30 5781 N 527.682 1.05563 1.17022 0
M  V30 5782 C 528.93 0.76642 1.87004 0
M  V30 5783 C 529.251 -0.708854 1.8166 0
M  V30 5784 O 528.521 -1.51242 1.2451 0
M  V30 5785 H 527.101 0.280516 0.692329 0
M  V30 5786 H 529.763 1.33557 1.41945 0
M  V30 5787 H 528.859 1.08472 2.92644 0
M  V30 5788 N 529.16 -1.33526 0.837174 0
M  V30 5789 C 530.407 -1.97837 0.432064 0
M  V30 5790 C 530.735 -1.66324 -1.00829 0
M  V30 5791 O 529.99 -0.93448 -1.71948 0
M  V30 5792 C 530.289 -3.52367 0.597675 0
M  V30 5793 C 529.955 -4.03826 2.00587 0
M  V30 5794 C 528.617 -4.1759 2.39106 0
M  V30 5795 C 530.969 -4.31333 2.92576 0
M  V30 5796 C 528.297 -4.56195 3.68921 0
M  V30 5797 C 530.649 -4.7139 4.2187 0
M  V30 5798 C 529.313 -4.8336 4.60347 0
M  V30 5799 H 528.583 -0.723937 0.158104 0
M  V30 5800 H 531.23 -1.5923 1.06387 0
M  V30 5801 H 529.535 -3.91624 -0.117452 0
M  V30 5802 H 531.232 -4.00126 0.26454 0
M  V30 5803 H 527.822 -3.93586 1.69671 0
M  V30 5804 H 532.006 -4.20224 2.64056 0
M  V30 5805 H 527.262 -4.63655 3.9854 0
M  V30 5806 H 531.436 -4.91631 4.93226 0
M  V30 5807 H 529.063 -5.1303 5.60985 0
M  V30 5808 N 530.638 -0.59345 -1.46 0
M  V30 5809 C 531.886 -0.082988 -2.0193 0
M  V30 5810 C 532.207 1.28569 -1.46612 0
M  V30 5811 O 531.477 1.84629 -0.654909 0
M  V30 5812 H 530.057 -0.0276882 -0.746487 0
M  V30 5813 H 532.719 -0.771657 -1.78973 0
M  V30 5814 H 531.815 -0.022079 -3.12092 0
M  V30 5815 N 532.116 1.54067 -0.331816 0
M  V30 5816 C 533.079 2.23275 0.517768 0
M  V30 5817 C 534.079 1.22897 1.03697 0
M  V30 5818 O 535.269 1.47419 0.928084 0
M  V30 5819 C 532.401 2.94326 1.72004 0
M  V30 5820 H 533.594 2.99773 -0.0873507 0
M  V30 5821 H 531.147 1.56079 -0.0830042 0
M  V30 5822 H 531.882 2.21986 2.36417 0
M  V30 5823 H 531.667 3.67941 1.35507 0
M  V30 5824 H 533.157 3.47031 2.32291 0
M  V30 5825 N 533.594 0.0601682 1.57485 0
M  V30 5826 C 534.842 -0.610386 1.92662 0
M  V30 5827 C 535.163 -1.70849 0.939981 0
M  V30 5828 O 534.433 -1.95895 -0.0137455 0
M  V30 5829 H 533.013 -0.228457 0.711208 0
M  V30 5830 H 535.675 0.115288 1.94559 0
M  V30 5831 H 534.771 -1.0432 2.94149 0
M  V30 5832 N 535.072 -1.5615 -0.213296 0
M  V30 5833 C 536.02 -1.93953 -1.28394 0
M  V30 5834 C 537.014 -0.822592 -1.48087 0
M  V30 5835 O 538.22 -1.00748 -1.49164 0
M  V30 5836 H 534.595 -0.61648 -0.430646 0
M  V30 5837 H 536.566 -2.83275 -0.937977 0
M  V30 5838 C 535.315 -2.27969 -2.62537 0
M  V30 5839 H 534.638 -3.13432 -2.48194 0
M  V30 5840 H 536.078 -2.58297 -3.36242 0
M  V30 5841 C 534.537 -1.10775 -3.18167 0
M  V30 5842 O 535.067 -0.373201 -3.99963 0
M  V30 5843 N 533.273 -0.889377 -2.76656 0
M  V30 5844 H 532.82 -1.48843 -2.10246 0
M  V30 5845 H 532.778 -0.107 -3.14218 0
M  V30 5846 N 536.55 0.480323 -1.50102 0
M  V30 5847 C 537.797 1.23307 -1.60629 0
M  V30 5848 C 538.125 1.92135 -0.302375 0
M  V30 5849 O 537.38 1.82321 0.711154 0
M  V30 5850 C 537.679 2.30708 -2.72963 0
M  V30 5851 C 537.345 1.79195 -4.13763 0
M  V30 5852 C 536.007 1.64867 -4.52076 0
M  V30 5853 C 538.359 1.40878 -5.018 0
M  V30 5854 C 535.687 1.10631 -5.76175 0
M  V30 5855 C 538.039 0.880872 -6.26437 0
M  V30 5856 C 536.703 0.724146 -6.6356 0
M  V30 5857 H 535.973 0.451211 -0.587784 0
M  V30 5858 H 538.62 0.53051 -1.84005 0
M  V30 5859 H 536.925 3.06834 -2.43639 0
M  V30 5860 H 538.622 2.88692 -2.78313 0
M  V30 5861 H 535.212 1.91313 -3.83533 0
M  V30 5862 H 539.396 1.50786 -4.7284 0
M  V30 5863 H 534.652 0.972263 -6.0362 0
M  V30 5864 H 538.826 0.575269 -6.9402 0
M  V30 5865 H 536.453 0.301722 -7.59601 0
M  V30 5866 N 538.028 1.39524 0.732853 0
M  V30 5867 C 538.976 1.38563 1.86824 0
M  V30 5868 C 539.97 0.268467 1.67259 0
M  V30 5869 O 541.176 0.438613 1.74574 0
M  V30 5870 H 537.551 0.432737 0.615014 0
M  V30 5871 H 539.522 2.34328 1.84751 0
M  V30 5872 C 538.271 1.2481 3.24527 0
M  V30 5873 H 537.594 2.10044 3.40179 0
M  V30 5874 H 539.034 1.28194 4.04156 0
M  V30 5875 C 537.493 -0.0432825 3.36872 0
M  V30 5876 O 538.023 -1.01268 3.88726 0
M  V30 5877 N 536.229 -0.107055 2.90403 0
M  V30 5878 H 535.776 0.682512 2.48394 0
M  V30 5879 H 535.734 -0.970618 2.99042 0
M  V30 5880 N 539.506 -0.963266 1.24736 0
M  V30 5881 C 540.731 -1.74699 1.11781 0
M  V30 5882 C 541.156 -1.85267 -0.325258 0
M  V30 5883 O 540.514 -1.32681 -1.23553 0
M  V30 5884 C 540.562 -3.14322 1.76731 0
M  V30 5885 O 539.666 -3.99043 1.04109 0
M  V30 5886 H 539.007 -0.53684 0.390767 0
M  V30 5887 H 541.537 -1.20801 1.65131 0
M  V30 5888 H 541.547 -3.64824 1.82668 0
M  V30 5889 H 540.222 -3.05946 2.81726 0
M  V30 5890 H 538.799 -3.5752 1.05991 0
M  V30 5891 N 540.985 -1.06182 -1.16461 0
M  V30 5892 C 541.915 -0.692861 -2.22984 0
M  V30 5893 C 542.896 0.314122 -1.67174 0
M  V30 5894 O 544.081 0.189499 -1.93273 0
M  V30 5895 C 541.211 -0.07732 -3.47214 0
M  V30 5896 C 540.165 -1.01015 -4.15909 0
M  V30 5897 C 539.491 -0.257973 -5.34077 0
M  V30 5898 C 540.791 -2.33868 -4.67015 0
M  V30 5899 H 542.485 -1.58343 -2.54102 0
M  V30 5900 H 540.031 -0.76279 -1.22137 0
M  V30 5901 H 541.984 0.19266 -4.20959 0
M  V30 5902 H 540.708 0.848254 -3.15392 0
M  V30 5903 H 539.367 -1.26486 -3.44088 0
M  V30 5904 H 539.015 0.670684 -4.98509 0
M  V30 5905 H 538.715 -0.879638 -5.80979 0
M  V30 5906 H 540.239 0.00448788 -6.106 0
M  V30 5907 H 541.653 -2.1279 -5.32347 0
M  V30 5908 H 540.05 -2.91522 -5.24533 0
M  V30 5909 H 541.12 -2.97019 -3.83286 0
M  V30 5910 N 542.463 1.3308 -0.844243 0
M  V30 5911 C 543.71 1.97605 -0.44255 0
M  V30 5912 C 544.038 1.66856 0.999458 0
M  V30 5913 O 543.293 0.943586 1.7145 0
M  V30 5914 C 543.592 3.52045 -0.616354 0
M  V30 5915 C 543.258 4.02757 -2.02726 0
M  V30 5916 C 541.92 4.16316 -2.41317 0
M  V30 5917 C 544.272 4.29776 -2.9486 0
M  V30 5918 C 541.6 4.54232 -3.71335 0
M  V30 5919 C 543.952 4.69146 -4.24364 0
M  V30 5920 C 542.616 4.80911 -4.62904 0
M  V30 5921 H 541.886 0.723088 -0.161941 0
M  V30 5922 H 544.533 1.58663 -1.0723 0
M  V30 5923 H 542.838 3.91681 0.0966812 0
M  V30 5924 H 544.535 3.99981 -0.285756 0
M  V30 5925 H 541.125 3.9268 -1.71756 0
M  V30 5926 H 545.309 4.18818 -2.6628 0
M  V30 5927 H 540.565 4.61535 -4.00993 0
M  V30 5928 H 544.739 4.89008 -4.95827 0
M  V30 5929 H 542.366 5.10048 -5.63698 0
M  V30 5930 N 543.941 0.601185 1.45683 0
M  V30 5931 C 544.888 -0.121396 2.30481 0
M  V30 5932 C 545.858 -0.866232 1.41724 0
M  V30 5933 O 547.043 -0.85324 1.70659 0
M  V30 5934 C 544.183 -1.11704 3.26521 0
M  V30 5935 C 543.296 -0.373741 4.3038 0
M  V30 5936 C 542.431 -1.35854 5.13534 0
M  V30 5937 C 541.47 -0.602689 6.09126 0
M  V30 5938 N 540.607 -1.53645 6.85082 0
M  V30 5939 H 545.447 0.607732 2.91737 0
M  V30 5940 H 542.984 0.311502 1.43764 0
M  V30 5941 H 544.942 -1.70735 3.80664 0
M  V30 5942 H 543.572 -1.81366 2.67032 0
M  V30 5943 H 542.624 0.331962 3.78949 0
M  V30 5944 H 543.936 0.2163 4.98331 0
M  V30 5945 H 543.09 -2.02111 5.72046 0
M  V30 5946 H 541.829 -1.98251 4.45587 0
M  V30 5947 H 540.834 0.0735482 5.49751 0
M  V30 5948 H 542.059 0.0161467 6.79098 0
M  V30 5949 H 540.005 -2.14819 6.1983 0
M  V30 5950 H 539.922 -0.999688 7.49361 0
M  V30 5951 H 541.19 -2.1888 7.48139 0
M  V30 5952 N 545.419 -1.53889 0.339982 0
M  V30 5953 C 546.382 -2.23547 -0.50592 0
M  V30 5954 C 547.382 -1.23445 -1.03044 0
M  V30 5955 O 548.572 -1.47909 -0.920253 0
M  V30 5956 C 545.704 -2.95234 -1.7044 0
M  V30 5957 H 546.897 -2.99722 0.103247 0
M  V30 5958 H 544.45 -1.56033 0.0912804 0
M  V30 5959 H 545.185 -2.23236 -2.35236 0
M  V30 5960 H 544.97 -3.68654 -1.33553 0
M  V30 5961 H 546.46 -3.48258 -2.30447 0
M  V30 5962 N 546.897 -0.0685191 -1.57451 0
M  V30 5963 C 548.144 0.601348 -1.93365 0
M  V30 5964 C 548.472 1.69816 -0.948294 0
M  V30 5965 O 547.727 1.95666 0.0366199 0
M  V30 5966 C 548.026 1.22051 -3.35914 0
M  V30 5967 C 547.692 0.250165 -4.50205 0
M  V30 5968 C 546.354 -0.0167954 -4.81197 0
M  V30 5969 C 548.706 -0.413867 -5.19554 0
M  V30 5970 C 546.034 -0.95493 -5.78876 0
M  V30 5971 C 548.386 -1.3403 -6.18238 0
M  V30 5972 C 547.05 -1.61576 -6.47649 0
M  V30 5973 H 546.32 0.220049 -0.707573 0
M  V30 5974 H 548.967 -0.138697 -1.90997 0
M  V30 5975 H 547.272 2.03622 -3.34732 0
M  V30 5976 H 548.969 1.74605 -3.6099 0
M  V30 5977 H 545.559 0.468421 -4.26033 0
M  V30 5978 H 549.743 -0.220733 -4.95809 0
M  V30 5979 H 544.999 -1.17563 -5.99991 0
M  V30 5980 H 549.173 -1.86081 -6.71079 0
M  V30 5981 H 546.8 -2.34431 -7.2315 0
M  V30 5982 N 548.375 1.56261 0.205012 0
M  V30 5983 C 549.285 1.96944 1.27476 0
M  V30 5984 C 550.301 0.875636 1.50362 0
M  V30 5985 O 551.477 1.18058 1.6317 0
M  V30 5986 C 548.542 2.29219 2.60115 0
M  V30 5987 C 547.603 3.52255 2.45387 0
M  V30 5988 C 546.836 3.8298 3.71701 0
M  V30 5989 O 547.059 3.15138 4.75441 0
M  V30 5990 O 545.993 4.76435 3.67823 0
M  V30 5991 H 549.819 2.88144 0.959527 0
M  V30 5992 H 547.404 1.43686 0.409217 0
M  V30 5993 H 549.286 2.51098 3.3842 0
M  V30 5994 H 547.961 1.4119 2.91285 0
M  V30 5995 H 546.868 3.35635 1.65227 0
M  V30 5996 H 548.201 4.40719 2.19152 0
M  V30 5997 N 549.853 -0.472356 1.50355 0
M  V30 5998 C 550.763 -1.59637 1.7191 0
M  V30 5999 C 551.779 -1.63247 0.602195 0
M  V30 6000 O 552.955 -1.81139 0.880369 0
M  V30 6001 C 550.02 -2.9586 1.80742 0
M  V30 6002 C 549.081 -3.02649 3.04471 0
M  V30 6003 C 548.314 -4.32374 3.12872 0
M  V30 6004 O 548.537 -5.22807 2.28099 0
M  V30 6005 O 547.471 -4.44728 4.05587 0
M  V30 6006 H 551.297 -1.44373 2.67189 0
M  V30 6007 H 548.882 -0.651717 1.34436 0
M  V30 6008 H 550.764 -3.7677 1.88739 0
M  V30 6009 H 549.439 -3.11325 0.88647 0
M  V30 6010 H 548.346 -2.20821 3.01975 0
M  V30 6011 H 549.679 -2.92119 3.9614 0
M  V30 6012 N 551.331 -1.39911 -0.725443 0
M  V30 6013 C 552.241 -1.41688 -1.8698 0
M  V30 6014 C 553.257 -0.310579 -1.71206 0
M  V30 6015 O 554.433 -0.55359 -1.93642 0
M  V30 6016 C 551.498 -1.26811 -3.22676 0
M  V30 6017 C 550.559 -2.47497 -3.50776 0
M  V30 6018 C 549.792 -2.3332 -4.79997 0
M  V30 6019 O 550.015 -1.34175 -5.54394 0
M  V30 6020 O 548.949 -3.22498 -5.08211 0
M  V30 6021 H 552.775 -2.38171 -1.88436 0
M  V30 6022 H 550.36 -1.21128 -0.874548 0
M  V30 6023 H 552.242 -1.20684 -4.03749 0
M  V30 6024 H 550.917 -0.334289 -3.21969 0
M  V30 6025 H 549.824 -2.59201 -2.69751 0
M  V30 6026 H 551.157 -3.39606 -3.5627 0
M  V30 6027 N 552.809 0.956637 -1.25245 0
M  V30 6028 C 553.741 2.05628 -1.01242 0
M  V30 6029 C 554.754 1.62785 0.0219579 0
M  V30 6030 O 555.943 1.77184 -0.216365 0
M  V30 6031 C 553.043 3.35069 -0.508161 0
M  V30 6032 C 552.216 4.06761 -1.60823 0
M  V30 6033 C 551.275 5.14473 -1.1047 0
M  V30 6034 O 550.301 5.40033 -1.79868 0
M  V30 6035 N 551.503 5.80474 0.0550773 0
M  V30 6036 H 554.268 2.2679 -1.95925 0
M  V30 6037 H 551.829 1.12505 -1.16423 0
M  V30 6038 H 553.821 4.044 -0.155819 0
M  V30 6039 H 552.391 3.10694 0.344683 0
M  V30 6040 H 551.611 3.31555 -2.13224 0
M  V30 6041 H 552.899 4.51418 -2.34733 0
M  V30 6042 H 552.297 5.62125 0.635004 0
M  V30 6043 H 550.854 6.50868 0.348469 0
M  V30 6044 N 554.287 1.06798 1.15896 0
M  V30 6045 C 555.235 0.677525 2.22514 0
M  V30 6046 C 556.229 -0.308994 1.66558 0
M  V30 6047 O 557.435 -0.173308 1.79164 0
M  V30 6048 H 553.81 0.200994 0.724642 0
M  V30 6049 H 555.781 1.5865 2.52731 0
M  V30 6050 C 554.53 0.0854153 3.47595 0
M  V30 6051 H 553.853 0.835645 3.90969 0
M  V30 6052 H 555.293 -0.150199 4.23734 0
M  V30 6053 C 553.752 -1.1724 3.15843 0
M  V30 6054 O 554.282 -2.25965 3.32119 0
M  V30 6055 N 552.488 -1.07636 2.69931 0
M  V30 6056 H 552.035 -0.191559 2.56887 0
M  V30 6057 H 551.993 -1.91876 2.4906 0
M  V30 6058 N 555.766 -1.3263 0.851289 0
M  V30 6059 C 556.696 -2.31449 0.308771 0
M  V30 6060 C 557.677 -1.59531 -0.590255 0
M  V30 6061 O 558.862 -1.87351 -0.511205 0
M  V30 6062 C 555.992 -3.43586 -0.506548 0
M  V30 6063 C 554.946 -4.26963 0.297753 0
M  V30 6064 C 554.272 -5.30831 -0.642094 0
M  V30 6065 C 555.572 -4.99643 1.52166 0
M  V30 6066 H 557.266 -2.77074 1.13447 0
M  V30 6067 H 554.812 -1.33207 0.546971 0
M  V30 6068 H 556.765 -4.11754 -0.896474 0
M  V30 6069 H 555.489 -2.96681 -1.36558 0
M  V30 6070 H 554.148 -3.60437 0.669391 0
M  V30 6071 H 553.796 -4.8018 -1.49788 0
M  V30 6072 H 553.496 -5.87501 -0.107968 0
M  V30 6073 H 555.02 -6.01862 -1.02927 0
M  V30 6074 H 556.434 -5.6051 1.20421 0
M  V30 6075 H 554.831 -5.66022 1.99347 0
M  V30 6076 H 555.901 -4.27701 2.28474 0
M  V30 6077 N 557.244 -0.608902 -1.45362 0
M  V30 6078 C 558.66 -0.272659 -1.57254 0
M  V30 6079 C 558.86 1.22477 -1.60005 0
M  V30 6080 O 557.916 2.00785 -1.53106 0
M  V30 6081 C 559.229 -0.944991 -2.85465 0
M  V30 6082 C 560.777 -0.921033 -2.99142 0
M  V30 6083 C 561.252 -1.5734 -4.30126 0
M  V30 6084 N 562.743 -1.53895 -4.36887 0
M  V30 6085 C 563.478 -2.01286 -5.36909 0
M  V30 6086 N 562.974 -2.56768 -6.43461 0
M  V30 6087 N 564.767 -1.92046 -5.28275 0
M  V30 6088 H 556.918 -1.58117 -1.4182 0
M  V30 6089 H 559.181 -0.662437 -0.678146 0
M  V30 6090 H 558.887 -1.99941 -2.89338 0
M  V30 6091 H 558.761 -0.469079 -3.74272 0
M  V30 6092 H 561.148 0.124846 -2.94836 0
M  V30 6093 H 561.229 -1.43522 -2.11743 0
M  V30 6094 H 560.873 -2.61862 -4.35191 0
M  V30 6095 H 560.803 -1.03422 -5.16344 0
M  V30 6096 H 563.294 -1.13366 -3.60495 0
M  V30 6097 H 563.607 -2.9072 -7.16032 0
M  V30 6098 H 561.952 -2.60808 -6.44208 0
M  V30 6099 H 565.143 -1.48439 -4.43941 0
M  V30 6100 H 565.316 -2.29293 -6.06077 0
M  V30 6101 N 558.722 1.53707 -0.348139 0
M  V30 6102 C 559.97 2.00591 0.246478 0
M  V30 6103 C 560.291 1.23753 1.50699 0
M  V30 6104 O 559.561 0.345964 1.92821 0
M  V30 6105 H 558.141 0.741053 0.0940679 0
M  V30 6106 H 560.803 1.89139 -0.470354 0
M  V30 6107 H 559.899 3.08297 0.485714 0
M  V30 6108 N 560.2 0.0768682 1.57412 0
M  V30 6109 C 561.148 -0.906229 2.1422 0
M  V30 6110 C 562.142 -1.30477 1.08037 0
M  V30 6111 O 563.348 -1.28143 1.2641 0
M  V30 6112 H 559.723 -0.310207 0.685037 0
M  V30 6113 H 561.694 -0.402228 2.95677 0
M  V30 6114 C 560.443 -2.16245 2.72274 0
M  V30 6115 H 559.766 -1.86463 3.53655 0
M  V30 6116 H 561.206 -2.83134 3.15613 0
M  V30 6117 C 559.665 -2.92437 1.67279 0
M  V30 6118 O 560.195 -3.86322 1.10081 0
M  V30 6119 N 558.401 -2.55637 1.38195 0
M  V30 6120 H 557.948 -1.79363 1.84897 0
M  V30 6121 H 557.906 -3.06919 0.681787 0
M  V30 6122 N 561.678 -1.56367 -0.196722 0
M  V30 6123 C 562.608 -1.97442 -1.24655 0
M  V30 6124 C 563.589 -0.846147 -1.47561 0
M  V30 6125 O 564.774 -1.11035 -1.59326 0
M  V30 6126 C 561.904 -2.31253 -2.59112 0
M  V30 6127 C 560.858 -3.46804 -2.50821 0
M  V30 6128 C 560.184 -3.66286 -3.89536 0
M  V30 6129 C 561.484 -4.8104 -2.03465 0
M  V30 6130 H 563.178 -2.85388 -0.905216 0
M  V30 6131 H 560.724 -1.37304 -0.434002 0
M  V30 6132 H 562.677 -2.58583 -3.32736 0
M  V30 6133 H 561.401 -1.40188 -2.94983 0
M  V30 6134 H 560.06 -3.19563 -1.79653 0
M  V30 6135 H 559.708 -2.72555 -4.22756 0
M  V30 6136 H 559.408 -4.4402 -3.84864 0
M  V30 6137 H 560.932 -3.9599 -4.64784 0
M  V30 6138 H 562.346 -5.07411 -2.66846 0
M  V30 6139 H 560.743 -5.62232 -2.09798 0
M  V30 6140 H 561.813 -4.74732 -0.98781 0
M  V30 6141 N 563.156 0.464375 -1.50603 0
M  V30 6142 C 564.384 1.23907 -1.65695 0
M  V30 6143 C 564.799 1.85658 -0.343027 0
M  V30 6144 O 564.156 1.69529 0.675739 0
M  V30 6145 C 564.207 2.3429 -2.75301 0
M  V30 6146 O 563.928 1.7507 -4.01599 0
M  V30 6147 C 565.429 3.25051 -3.01424 0
M  V30 6148 H 562.649 0.374485 -0.556778 0
M  V30 6149 H 565.193 0.55353 -1.96866 0
M  V30 6150 H 563.348 2.98607 -2.46804 0
M  V30 6151 H 563.762 2.47812 -4.62266 0
M  V30 6152 H 565.236 3.98699 -3.81763 0
M  V30 6153 H 565.713 3.84227 -2.12758 0
M  V30 6154 H 566.319 2.66463 -3.31477 0
M  V30 6155 N 564.634 1.40294 0.718013 0
M  V30 6156 C 565.582 1.40536 1.85344 0
M  V30 6157 C 566.576 0.286192 1.66965 0
M  V30 6158 O 567.782 0.457105 1.74099 0
M  V30 6159 H 564.157 0.439236 0.61039 0
M  V30 6160 H 566.128 2.36275 1.82255 0
M  V30 6161 C 564.877 1.28245 3.23185 0
M  V30 6162 H 564.2 2.1364 3.37932 0
M  V30 6163 H 565.64 1.32474 4.02774 0
M  V30 6164 C 564.099 -0.0075503 3.36899 0
M  V30 6165 O 564.629 -0.971391 3.89778 0
M  V30 6166 N 562.835 -0.0762479 2.905 0
M  V30 6167 H 562.382 0.708819 2.47656 0
M  V30 6168 H 562.34 -0.938846 3.00055 0
M  V30 6169 N 566.112 -0.949982 1.2575 0
M  V30 6170 C 567.045 -2.047 1.00862 0
M  V30 6171 C 568.023 -1.62475 -0.0636982 0
M  V30 6172 O 569.207 -1.88343 0.0769153 0
M  V30 6173 C 566.334 -3.34597 0.525613 0
M  V30 6174 C 565.38 -3.95788 1.58916 0
M  V30 6175 S 566.213 -4.31175 3.17567 0
M  V30 6176 C 567.369 -5.64183 2.71013 0
M  V30 6177 H 567.602 -2.25497 1.93749 0
M  V30 6178 H 565.135 -1.09022 1.09332 0
M  V30 6179 H 567.093 -4.09716 0.25359 0
M  V30 6180 H 565.754 -3.11758 -0.382828 0
M  V30 6181 H 564.947 -4.89457 1.20201 0
M  V30 6182 H 564.549 -3.27168 1.81211 0
M  V30 6183 H 566.841 -6.42504 2.14928 0
M  V30 6184 H 567.784 -6.07774 3.6334 0
M  V30 6185 H 568.192 -5.2364 2.1086 0
M  V30 6186 N 567.59 -1.07411 -1.15328 0
M  V30 6187 C 568.5 -0.706438 -2.23711 0
M  V30 6188 C 569.516 0.282586 -1.7169 0
M  V30 6189 O 570.692 0.129066 -2.00986 0
M  V30 6190 C 567.757 -0.11048 -3.46524 0
M  V30 6191 C 566.818 -1.15282 -4.13532 0
M  V30 6192 C 566.051 -0.585205 -5.30482 0
M  V30 6193 O 566.274 0.598549 -5.67251 0
M  V30 6194 O 565.208 -1.33039 -5.87013 0
M  V30 6195 H 569.034 -1.61031 -2.57493 0
M  V30 6196 H 566.619 -0.847113 -1.23062 0
M  V30 6197 H 568.501 0.21957 -4.20828 0
M  V30 6198 H 567.176 0.766703 -3.14489 0
M  V30 6199 H 566.083 -1.53523 -3.41147 0
M  V30 6200 H 567.416 -2.00192 -4.49649 0
M  V30 6201 N 569.068 1.32177 -0.85831 0
M  V30 6202 C 570.296 2.01313 -0.477582 0
M  V30 6203 C 570.711 1.6449 0.926736 0
M  V30 6204 O 570.068 0.868096 1.60531 0
M  V30 6205 C 570.119 3.56293 -0.611337 0
M  V30 6206 O 569.84 3.91794 -1.96034 0
M  V30 6207 C 571.341 4.42702 -0.230093 0
M  V30 6208 H 568.561 0.644323 -0.187322 0
M  V30 6209 H 571.105 1.68674 -1.15626 0
M  V30 6210 H 569.26 3.87395 0.0196494 0
M  V30 6211 H 569.674 4.86513 -1.95973 0
M  V30 6212 H 571.148 5.50727 -0.374674 0
M  V30 6213 H 571.625 4.3129 0.829779 0
M  V30 6214 H 572.231 4.16997 -0.836302 0
M  V30 6215 N 570.547 0.616602 1.45037 0
M  V30 6216 C 571.495 -0.109318 2.32343 0
M  V30 6217 C 572.489 -0.850543 1.465 0
M  V30 6218 O 573.695 -0.765088 1.62931 0
M  V30 6219 H 570.07 -0.0541091 0.750051 0
M  V30 6220 H 572.041 0.645326 2.91338 0
M  V30 6221 C 570.79 -1.0872 3.30266 0
M  V30 6222 H 570.113 -0.526267 3.96321 0
M  V30 6223 H 571.553 -1.56489 3.94065 0
M  V30 6224 C 570.012 -2.16525 2.58105 0
M  V30 6225 O 570.542 -3.244 2.36913 0
M  V30 6226 N 568.748 -1.92057 2.18088 0
M  V30 6227 H 568.295 -1.04337 2.35524 0
M  V30 6228 H 568.253 -2.64391 1.70131 0
M  V30 6229 N 572.025 -1.5352 0.356285 0
M  V30 6230 C 573.273 -2.00719 -0.235837 0
M  V30 6231 C 573.594 -1.24551 -1.5004 0
M  V30 6232 O 572.864 -0.356185 -1.92635 0
M  V30 6233 H 571.444 -0.741542 -0.0901366 0
M  V30 6234 H 574.106 -1.88887 0.480378 0
M  V30 6235 H 573.202 -3.08551 -0.469357 0
M  V30 6236 N 573.503 -0.0852151 -1.57369 0
M  V30 6237 C 574.749 0.581666 -1.94279 0
M  V30 6238 C 575.082 1.68444 -0.966446 0
M  V30 6239 O 574.357 1.945 0.00215277 0
M  V30 6240 C 574.64 1.14609 -3.41375 0
M  V30 6241 C 574.493 0.0490414 -4.49773 0
M  V30 6242 C 575.812 2.04751 -3.8957 0
M  V30 6243 H 572.931 0.209972 -0.706456 0
M  V30 6244 H 575.573 -0.153915 -1.89376 0
M  V30 6245 H 573.723 1.77297 -3.45685 0
M  V30 6246 H 575.395 -0.584721 -4.57579 0
M  V30 6247 H 573.638 -0.618638 -4.29366 0
M  V30 6248 H 574.309 0.484601 -5.49869 0
M  V30 6249 H 576.785 1.51981 -3.87351 0
M  V30 6250 H 575.661 2.41173 -4.93079 0
M  V30 6251 H 575.922 2.96107 -3.28288 0
M  V30 6252 N 574.981 1.5647 0.188427 0
M  V30 6253 C 576.227 1.81281 0.909124 0
M  V30 6254 C 576.56 0.66034 1.82628 0
M  V30 6255 O 575.835 -0.338737 1.91528 0
M  V30 6256 C 576.118 3.16388 1.7196 0
M  V30 6257 C 575.971 4.42137 0.826714 0
M  V30 6258 C 577.29 3.48256 2.69083 0
M  V30 6259 H 574.409 0.659457 0.329068 0
M  V30 6260 H 577.051 1.89182 0.176156 0
M  V30 6261 H 575.201 3.09784 2.34448 0
M  V30 6262 H 576.873 4.60794 0.216025 0
M  V30 6263 H 575.116 4.33594 0.133792 0
M  V30 6264 H 575.787 5.33184 1.42893 0
M  V30 6265 H 578.263 3.55203 2.16726 0
M  V30 6266 H 577.139 4.43899 3.2287 0
M  V30 6267 H 577.4 2.72088 3.48455 0
M  V30 6268 N 576.459 -0.456382 1.50847 0
M  V30 6269 C 577.87 -1.03685 1.55262 0
M  V30 6270 C 578.221 -1.92779 0.364771 0
M  V30 6271 O 577.346 -2.10043 -0.52068 0
M  V30 6272 C 577.941 -1.88718 2.81374 0
M  V30 6273 C 576.5 -2.41847 2.88422 0
M  V30 6274 C 575.647 -1.20564 2.49719 0
M  V30 6275 H 578.598 -0.238399 1.56899 0
M  V30 6276 H 578.619 -2.73957 2.6406 0
M  V30 6277 H 578.131 -1.23847 3.67809 0
M  V30 6278 H 576.232 -3.10228 2.06372 0
M  V30 6279 H 576.345 -2.75947 3.9165 0
M  V30 6280 H 574.709 -1.54504 2.02486 0
M  V30 6281 H 575.492 -0.573326 3.38479 0
M  V30 6282 N 577.937 -1.40673 -0.710563 0
M  V30 6283 C 579.185 -1.38947 -1.46759 0
M  V30 6284 C 579.506 0.00572879 -1.94999 0
M  V30 6285 O 578.776 0.961358 -1.70689 0
M  V30 6286 H 577.356 -0.5114 -0.544499 0
M  V30 6287 H 580.018 -1.75773 -0.842012 0
M  V30 6288 H 579.114 -2.06745 -2.33801 0
M  V30 6289 N 579.415 0.9433 -1.26252 0
M  V30 6290 C 580.348 2.04162 -1.01946 0
M  V30 6291 C 581.326 1.62507 0.0550808 0
M  V30 6292 O 582.51 1.883 -0.0869025 0
M  V30 6293 C 579.637 3.34313 -0.54335 0
M  V30 6294 C 578.683 3.94939 -1.61013 0
M  V30 6295 S 579.516 4.29484 -3.19849 0
M  V30 6296 C 580.672 5.62738 -2.74001 0
M  V30 6297 H 580.905 2.24466 -1.94942 0
M  V30 6298 H 578.438 1.08441 -1.09909 0
M  V30 6299 H 580.396 4.09576 -0.275315 0
M  V30 6300 H 579.057 3.11957 0.36629 0
M  V30 6301 H 578.25 4.88812 -1.22795 0
M  V30 6302 H 577.852 3.26202 -1.82943 0
M  V30 6303 H 580.144 6.41356 -2.18333 0
M  V30 6304 H 581.087 6.05839 -3.66558 0
M  V30 6305 H 581.495 5.22514 -2.13634 0
M  V30 6306 O 580.932 1.20358 1.07685 0
M  V30 6307 H 581.623 0.957266 1.68393 0
M  V30 END ATOM
M  V30 BEGIN BOND
M  V30 END BOND
M  V30 END CTAB
M  END
$$$$
