drugbank_target|P32745 Somatostatin receptor type 3 (DB06663; DB09099; DB13985; DB15494)
 OpenBabel12092120343D

  0  0  0     0  0            999 V3000
M  V30 BEGIN CTAB
M  V30 COUNTS 6496 6577 0 0 0
M  V30 BEGIN ATOM
M  V30 1 H -0.908 1.98254 -0.117106 0
M  V30 2 N 0 1.576 0 0
M  V30 3 C 0.933 2.03868 1.02534 0
M  V30 4 C 1.911 0.928543 1.3348 0
M  V30 5 O 3.095 1.19667 1.45644 0
M  V30 6 C 0.222 2.43627 2.35294 0
M  V30 7 C -0.732 3.65373 2.2001 0
M  V30 8 S 0.101 5.13292 1.52614 0
M  V30 9 C 1.257 5.56322 2.86805 0
M  V30 10 H 1.49 2.90518 0.631377 0
M  V30 11 H -0.977 1.52953 0.210867 0
M  V30 12 H 0.981 2.67203 3.11629 0
M  V30 13 H -0.358 1.57376 2.7183 0
M  V30 14 H -1.165 3.90944 3.18086 0
M  V30 15 H -1.563 3.418 1.51819 0
M  V30 16 H 0.729 5.58782 3.83104 0
M  V30 17 H 1.672 6.56266 2.65933 0
M  V30 18 H 2.08 4.83886 2.90714 0
M  V30 19 N 1.4781 -0.272755 1.55222 0
M  V30 20 C 2.7551 -1.02562 1.66555 0
M  V30 21 C 3.1351 -2.04282 0.532189 0
M  V30 22 O 2.4831 -2.23662 -0.467717 0
M  V30 23 C 2.6931 -1.6822 3.05782 0
M  V30 24 C 4.0411 -2.19373 3.63539 0
M  V30 25 O 5.0651 -1.78206 3.08417 0
M  V30 26 O 3.9241 -2.94883 4.60115 0
M  V30 27 H 1.0181 -0.475755 0.676451 0
M  V30 28 H 3.5641 -0.268593 1.67561 0
M  V30 29 H 2.3361 -0.945112 3.79715 0
M  V30 30 H 1.9591 -2.50609 3.08676 0
M  V30 31 N 2.9562 -1.48159 -0.537278 0
M  V30 32 C 3.8892 -1.567 -1.65893 0
M  V30 33 C 4.8672 -0.41787 -1.57139 0
M  V30 34 O 6.0512 -0.628461 -1.77715 0
M  V30 35 C 3.1782 -1.48818 -3.04255 0
M  V30 36 C 2.2242 -2.68482 -3.31391 0
M  V30 37 S 3.0572 -4.30516 -3.1846 0
M  V30 38 C 4.2132 -4.2522 -4.59281 0
M  V30 39 H 4.4462 -2.5159 -1.58397 0
M  V30 40 H 1.9792 -1.36602 -0.719672 0
M  V30 41 H 3.9372 -1.44958 -3.84054 0
M  V30 42 H 2.5982 -0.552777 -3.09198 0
M  V30 43 H 1.7912 -2.59085 -4.32309 0
M  V30 44 H 1.3932 -2.69567 -2.59248 0
M  V30 45 H 3.6852 -3.94703 -5.5065 0
M  V30 46 H 4.6282 -5.26292 -4.73732 0
M  V30 47 H 5.0362 -3.55791 -4.38261 0
M  V30 48 N 4.4343 0.785586 -1.36625 0
M  V30 49 C 5.3643 1.91259 -1.33949 0
M  V30 50 C 6.3453 1.68795 -0.210325 0
M  V30 51 O 7.5303 1.89854 -0.408561 0
M  V30 52 C 4.6603 3.28339 -1.13186 0
M  V30 53 C 3.6143 3.65335 -2.22967 0
M  V30 54 C 2.9403 5.00806 -1.87342 0
M  V30 55 C 4.2403 3.7352 -3.65075 0
M  V30 56 H 5.9343 1.93755 -2.28253 0
M  V30 57 H 3.4803 0.930788 -1.09874 0
M  V30 58 H 5.4333 4.06804 -1.09948 0
M  V30 59 H 4.1573 3.2624 -0.153332 0
M  V30 60 H 2.8163 2.89169 -2.25337 0
M  V30 61 H 2.4643 4.95233 -0.880545 0
M  V30 62 H 2.1643 5.26529 -2.60846 0
M  V30 63 H 3.6883 5.81687 -1.85667 0
M  V30 64 H 5.1023 4.42168 -3.64911 0
M  V30 65 H 3.4993 4.10731 -4.37516 0
M  V30 66 H 4.5693 2.74527 -3.99703 0
M  V30 67 N 5.9124 1.20967 1.01018 0
M  V30 68 C 6.8624 0.93182 2.08089 0
M  V30 69 C 7.8464 -0.110898 1.60517 0
M  V30 70 O 9.0384 0.0973392 1.76732 0
M  V30 71 C 6.1674 0.492719 3.39746 0
M  V30 72 C 5.2534 1.56922 3.94 0
M  V30 73 N 5.6444 2.79312 4.21686 0
M  V30 74 C 3.9424 1.43688 4.2222 0
M  V30 75 C 4.6434 3.48797 4.65527 0
M  V30 76 N 3.6194 2.76224 4.68189 0
M  V30 77 H 7.4214 1.86175 2.27412 0
M  V30 78 H 4.9354 1.10463 1.19045 0
M  V30 79 H 6.9324 0.275044 4.15992 0
M  V30 80 H 5.5924 -0.430509 3.21833 0
M  V30 81 H 6.6034 3.15903 4.10397 0
M  V30 82 H 3.2804 0.578548 4.13472 0
M  V30 83 H 4.6704 4.53561 4.95714 0
M  V30 84 N 7.3905 -1.2043 1.01659 0
M  V30 85 C 8.8015 -1.71517 0.737482 0
M  V30 86 C 9.1525 -1.81547 -0.743973 0
M  V30 87 O 8.2775 -1.47803 -1.58061 0
M  V30 88 C 8.8725 -3.11515 1.33206 0
M  V30 89 C 7.4315 -3.59912 1.10183 0
M  V30 90 C 6.5785 -2.37116 1.43776 0
M  V30 91 H 9.5295 -1.05444 1.18606 0
M  V30 92 H 9.5505 -3.73575 0.722636 0
M  V30 93 H 9.0625 -3.04182 2.41028 0
M  V30 94 H 7.1635 -3.72577 0.0412756 0
M  V30 95 H 7.2765 -4.44731 1.78188 0
M  V30 96 H 5.6405 -2.39857 0.856778 0
M  V30 97 H 6.4235 -2.32424 2.52654 0
M  V30 98 N 8.8686 -0.792821 -1.36206 0
M  V30 99 C 10.0936 -0.377701 -2.03932 0
M  V30 100 C 10.5186 0.998947 -1.59382 0
M  V30 101 O 9.8766 1.64421 -0.763903 0
M  V30 102 C 9.9246 -0.453635 -3.57735 0
M  V30 103 O 9.0286 0.538151 -4.08874 0
M  V30 104 H 8.3696 -0.159855 -0.644471 0
M  V30 105 H 10.8996 -1.07488 -1.7409 0
M  V30 106 H 10.9096 -0.318464 -4.06755 0
M  V30 107 H 9.5846 -1.45784 -3.89512 0
M  V30 108 H 8.1616 0.364359 -3.71116 0
M  V30 109 N 10.3467 1.47872 -0.545128 0
M  V30 110 C 11.5717 2.07391 -0.0190611 0
M  V30 111 C 11.9967 1.39688 1.25971 0
M  V30 112 O 11.3547 0.467816 1.7516 0
M  V30 113 C 11.4027 3.60188 0.172335 0
M  V30 114 O 10.5067 3.9339 1.23766 0
M  V30 115 H 9.8477 0.662411 -0.0459059 0
M  V30 116 H 12.3777 1.90066 -0.757365 0
M  V30 117 H 12.3877 4.06129 0.390305 0
M  V30 118 H 11.0627 4.08865 -0.761725 0
M  V30 119 H 9.6397 3.5921 1.00114 0
M  V30 120 N 11.8248 0.280983 1.55075 0
M  V30 121 C 13.0708 -0.33461 2.00021 0
M  V30 122 C 13.4038 -1.55063 1.16915 0
M  V30 123 O 12.6788 -1.93006 0.240646 0
M  V30 124 C 12.9618 -0.711007 3.53011 0
M  V30 125 C 12.8148 0.512766 4.46868 0
M  V30 126 C 14.1338 -1.54522 4.12081 0
M  V30 127 H 11.2528 -0.120147 0.727141 0
M  V30 128 H 13.8948 0.389097 1.85973 0
M  V30 129 H 12.0448 -1.32761 3.65112 0
M  V30 130 H 13.7168 1.15131 4.46702 0
M  V30 131 H 11.9598 1.14975 4.18286 0
M  V30 132 H 12.6308 0.205556 5.51617 0
M  V30 133 H 15.1068 -1.02442 4.03293 0
M  V30 134 H 13.9828 -1.77739 5.19327 0
M  V30 135 H 14.2438 -2.52813 3.62682 0
M  V30 136 N 13.3029 -1.57598 0.00835791 0
M  V30 137 C 14.5279 -1.95617 -0.689103 0
M  V30 138 C 14.9529 -0.883753 -1.66046 0
M  V30 139 O 14.3109 0.157352 -1.80616 0
M  V30 140 C 14.3589 -3.32736 -1.38994 0
M  V30 141 O 13.4629 -3.27631 -2.50463 0
M  V30 142 H 12.8039 -0.638379 -0.182668 0
M  V30 143 H 15.3339 -2.045 0.064036 0
M  V30 144 H 15.3439 -3.68494 -1.75147 0
M  V30 145 H 14.0189 -4.1034 -0.677778 0
M  V30 146 H 12.5959 -3.03561 -2.16576 0
M  V30 147 N 14.781 0.264519 -1.55364 0
M  V30 148 C 16.009 1.013 -1.80405 0
M  V30 149 C 16.424 1.79618 -0.581622 0
M  V30 150 O 15.781 1.76879 0.449468 0
M  V30 151 C 15.832 1.96487 -3.03439 0
M  V30 152 O 15.553 1.21341 -4.20961 0
M  V30 153 C 17.054 2.83079 -3.41147 0
M  V30 154 H 14.274 0.298875 -0.600762 0
M  V30 155 H 16.818 0.292736 -2.02394 0
M  V30 156 H 14.973 2.63965 -2.83551 0
M  V30 157 H 15.387 1.85573 -4.90574 0
M  V30 158 H 16.861 3.4565 -4.30384 0
M  V30 159 H 17.338 3.53286 -2.60932 0
M  V30 160 H 17.944 2.2108 -3.63323 0
M  V30 161 N 16.2591 1.48442 0.529413 0
M  V30 162 C 17.4871 1.60151 1.30994 0
M  V30 163 C 17.9021 0.261985 1.86973 0
M  V30 164 O 17.2591 -0.748805 1.66431 0
M  V30 165 C 17.3101 2.64854 2.46038 0
M  V30 166 O 17.0311 3.93608 1.92365 0
M  V30 167 C 18.5321 2.87007 3.37849 0
M  V30 168 H 15.7521 0.539971 0.398338 0
M  V30 169 H 18.2961 1.94273 0.638597 0
M  V30 170 H 16.4511 2.33589 3.09055 0
M  V30 171 H 16.8651 4.51055 2.67675 0
M  V30 172 H 18.3391 3.64068 4.14919 0
M  V30 173 H 18.8161 1.95852 3.93114 0
M  V30 174 H 19.4221 3.19579 2.80623 0
M  V30 175 N 17.7372 -0.778329 1.37039 0
M  V30 176 C 18.9622 -1.57248 1.35233 0
M  V30 177 C 19.3872 -1.87999 -0.0615568 0
M  V30 178 O 18.7452 -1.48734 -1.03672 0
M  V30 179 C 18.7932 -2.86353 2.19167 0
M  V30 180 O 17.8972 -3.80442 1.59178 0
M  V30 181 H 17.2382 -0.476569 0.462362 0
M  V30 182 H 19.7682 -0.963853 1.80474 0
M  V30 183 H 19.7782 -3.35519 2.32145 0
M  V30 184 H 18.4532 -2.63299 3.21942 0
M  V30 185 H 17.0302 -3.39067 1.55203 0
M  V30 186 N 19.2153 -1.21501 -1.00376 0
M  V30 187 C 20.1253 -0.991447 -2.12621 0
M  V30 188 C 21.1413 0.0568446 -1.73907 0
M  V30 189 O 22.3173 -0.13348 -2.00957 0
M  V30 190 C 19.3823 -0.560312 -3.42142 0
M  V30 191 C 18.4433 -1.68096 -3.95022 0
M  V30 192 C 17.6763 -1.2703 -5.18362 0
M  V30 193 O 17.8993 -0.144438 -5.70217 0
M  V30 194 O 16.8333 -2.08269 -5.64719 0
M  V30 195 H 20.6593 -1.93158 -2.34358 0
M  V30 196 H 18.2443 -0.999999 -1.10997 0
M  V30 197 H 20.1263 -0.329724 -4.20108 0
M  V30 198 H 18.8013 0.351089 -3.2179 0
M  V30 199 H 17.7083 -1.96597 -3.18278 0
M  V30 200 H 19.0413 -2.56983 -4.19786 0
M  V30 201 N 20.6934 1.19889 -1.02296 0
M  V30 202 C 22.1044 1.71124 -0.746568 0
M  V30 203 C 22.4554 1.81939 0.734335 0
M  V30 204 O 21.5804 1.48639 1.57275 0
M  V30 205 C 22.1754 3.10804 -1.34857 0
M  V30 206 C 20.7344 3.59323 -1.1209 0
M  V30 207 C 19.8814 2.3635 -1.45031 0
M  V30 208 H 22.8324 1.04813 -1.19163 0
M  V30 209 H 22.8534 3.73186 -0.742437 0
M  V30 210 H 22.3654 3.029 -2.42638 0
M  V30 211 H 20.4664 3.7255 -0.0610337 0
M  V30 212 H 20.5794 4.4378 -1.80544 0
M  V30 213 H 18.9434 2.39399 -0.869487 0
M  V30 214 H 19.7264 2.31081 -2.53883 0
M  V30 215 N 22.1715 0.800033 1.35784 0
M  V30 216 C 23.0815 0.207204 2.33683 0
M  V30 217 C 24.0975 -0.64631 1.61551 0
M  V30 218 O 25.2735 -0.559604 1.93469 0
M  V30 219 C 22.3385 -0.639659 3.40748 0
M  V30 220 C 21.3995 0.233585 4.28664 0
M  V30 221 C 20.6325 -0.572954 5.30616 0
M  V30 222 O 20.8555 -1.80816 5.40982 0
M  V30 223 O 19.7895 0.0327285 6.01891 0
M  V30 224 H 23.6155 1.01692 2.86169 0
M  V30 225 H 21.2005 0.561691 1.38439 0
M  V30 226 H 23.0825 -1.12223 4.06182 0
M  V30 227 H 21.7575 -1.42708 2.90544 0
M  V30 228 H 20.6645 0.763147 3.66233 0
M  V30 229 H 21.9975 0.984784 4.82248 0
M  V30 230 N 23.6496 -1.47581 0.552962 0
M  V30 231 C 24.5976 -2.31648 -0.21023 0
M  V30 232 C 25.5916 -1.42663 -0.913432 0
M  V30 233 O 26.7976 -1.5945 -0.835201 0
M  V30 234 H 23.1726 -0.746989 -0.0866676 0
M  V30 235 H 25.1436 -2.93869 0.518051 0
M  V30 236 C 23.8926 -3.25226 -1.22976 0
M  V30 237 H 23.2156 -3.93658 -0.698077 0
M  V30 238 H 24.6556 -3.86889 -1.73473 0
M  V30 239 C 23.1146 -2.48448 -2.27542 0
M  V30 240 O 23.6446 -2.22585 -3.34393 0
M  V30 241 N 21.8506 -2.09532 -2.01357 0
M  V30 242 H 21.3976 -2.30765 -1.14478 0
M  V30 243 H 21.3556 -1.58476 -2.71538 0
M  V30 244 N 25.1277 -0.289203 -1.54924 0
M  V30 245 C 26.0907 0.579144 -2.21762 0
M  V30 246 C 27.0907 1.07047 -1.1999 0
M  V30 247 O 28.2807 0.968384 -1.44803 0
M  V30 248 C 25.4127 1.80055 -2.8947 0
M  V30 249 H 26.6057 -0.00464908 -2.999 0
M  V30 250 H 24.1587 -0.0399306 -1.56249 0
M  V30 251 H 24.8937 2.42449 -2.15381 0
M  V30 252 H 24.6787 1.45602 -3.64064 0
M  V30 253 H 26.1687 2.41773 -3.40493 0
M  V30 254 N 26.6058 1.57591 -0.0167156 0
M  V30 255 C 27.8308 1.9598 0.67872 0
M  V30 256 C 28.2558 0.892546 1.65575 0
M  V30 257 O 27.6138 -0.147772 1.80697 0
M  V30 258 C 27.6618 3.33468 1.37227 0
M  V30 259 O 26.7658 3.28954 2.48722 0
M  V30 260 H 26.1068 0.639339 0.17928 0
M  V30 261 H 28.6368 2.04463 -0.0748802 0
M  V30 262 H 28.6468 3.69417 1.7319 0
M  V30 263 H 27.3218 4.10694 0.656007 0
M  V30 264 H 25.8988 3.04705 2.14963 0
M  V30 265 N 28.0839 -0.256276 1.55502 0
M  V30 266 C 29.3089 -1.00766 1.81276 0
M  V30 267 C 29.7339 -1.78524 0.59252 0
M  V30 268 O 29.0919 -1.75413 -0.45827 0
M  V30 269 C 29.1399 -1.92869 3.04687 0
M  V30 270 O 28.2439 -3.019 2.80945 0
M  V30 271 H 27.5849 -0.287224 0.598664 0
M  V30 272 H 30.1149 -0.280109 2.02674 0
M  V30 273 H 30.1249 -2.34511 3.33869 0
M  V30 274 H 28.7999 -1.35689 3.93143 0
M  V30 275 H 27.3769 -2.64454 2.62904 0
M  V30 276 N 29.562 -1.4872 -0.521534 0
M  V30 277 C 30.525 -1.63379 -1.60748 0
M  V30 278 C 31.525 -0.50661 -1.52611 0
M  V30 279 O 32.715 -0.772601 -1.5613 0
M  V30 280 C 29.847 -1.61192 -3.00383 0
M  V30 281 H 31.04 -2.60217 -1.49087 0
M  V30 282 H 28.593 -1.37444 -0.744235 0
M  V30 283 H 29.328 -0.65863 -3.17541 0
M  V30 284 H 29.113 -2.43032 -3.07698 0
M  V30 285 H 30.603 -1.7466 -3.7932 0
M  V30 286 N 31.0401 0.771051 -1.3745 0
M  V30 287 C 32.2861 1.53109 -1.339 0
M  V30 288 C 32.6411 1.9225 0.0758401 0
M  V30 289 O 31.9341 1.61264 1.03463 0
M  V30 290 C 32.1281 2.80676 -2.2126 0
M  V30 291 C 31.9571 2.54003 -3.71096 0
M  V30 292 C 30.7271 2.48097 -4.402 0
M  V30 293 C 32.9251 2.21953 -4.63941 0
M  V30 294 N 30.9071 2.13515 -5.75573 0
M  V30 295 C 32.2781 1.97516 -5.87697 0
M  V30 296 C 34.3331 2.08114 -4.5232 0
M  V30 297 C 33.0361 1.60638 -7.01133 0
M  V30 298 C 35.0621 1.72636 -5.65642 0
M  V30 299 C 34.4241 1.4906 -6.88448 0
M  V30 300 H 30.5231 0.56055 -0.54526 0
M  V30 301 H 33.1071 0.899472 -1.72678 0
M  V30 302 H 31.2781 3.41674 -1.84698 0
M  V30 303 H 33.0101 3.46578 -2.08963 0
M  V30 304 H 29.7651 2.63974 -3.93211 0
M  V30 305 H 30.1891 1.98919 -6.47117 0
M  V30 306 H 34.8311 2.25024 -3.57944 0
M  V30 307 H 32.5491 1.42467 -7.95443 0
M  V30 308 H 36.1351 1.62586 -5.58621 0
M  V30 309 H 35.0151 1.22014 -7.7465 0
M  V30 310 N 32.5182 1.22032 0.997298 0
M  V30 311 C 33.9292 1.0397 1.55071 0
M  V30 312 C 34.2802 -0.398192 1.92117 0
M  V30 313 O 33.4052 -1.28254 1.74298 0
M  V30 314 C 34.0002 1.88109 2.81781 0
M  V30 315 C 32.5592 1.74357 3.33581 0
M  V30 316 C 31.7062 1.84846 2.06706 0
M  V30 317 H 34.6572 1.35941 0.818883 0
M  V30 318 H 34.6782 1.39589 3.53971 0
M  V30 319 H 34.1902 2.92754 2.54787 0
M  V30 320 H 32.2912 0.72427 3.65493 0
M  V30 321 H 32.4042 2.56772 4.04481 0
M  V30 322 H 30.7682 1.28238 2.20062 0
M  V30 323 H 31.5512 2.91014 1.82114 0
M  V30 324 N 33.9963 -1.19345 1.0293 0
M  V30 325 C 35.4073 -1.70725 0.755633 0
M  V30 326 C 35.7583 -1.82326 -0.724676 0
M  V30 327 O 34.8833 -1.49471 -1.56484 0
M  V30 328 C 35.4783 -3.10084 1.36503 0
M  V30 329 C 34.0373 -3.58723 1.13994 0
M  V30 330 C 33.1843 -2.35577 1.46283 0
M  V30 331 H 36.1353 -1.0418 1.19718 0
M  V30 332 H 36.1563 -3.72787 0.762217 0
M  V30 333 H 35.6683 -3.01609 2.44241 0
M  V30 334 H 33.7693 -3.72512 0.0807901 0
M  V30 335 H 33.8823 -4.42816 1.82894 0
M  V30 336 H 32.2463 -2.38935 0.88217 0
M  V30 337 H 33.0293 -2.29731 2.55105 0
M  V30 338 N 35.4744 -0.807222 -1.35358 0
M  V30 339 C 36.7514 -0.311126 -1.9311 0
M  V30 340 C 37.1314 1.19937 -1.73719 0
M  V30 341 O 36.4794 1.99918 -1.10657 0
M  V30 342 C 36.6894 -0.723226 -3.41424 0
M  V30 343 C 38.0374 -0.713078 -4.18569 0
M  V30 344 O 39.0614 -0.664811 -3.49941 0
M  V30 345 O 37.9204 -0.772022 -5.41019 0
M  V30 346 H 35.0144 -0.081526 -0.822972 0
M  V30 347 H 37.5604 -0.890962 -1.4443 0
M  V30 348 H 36.3324 -1.76426 -3.4927 0
M  V30 349 H 35.9554 -0.118232 -3.97424 0
M  V30 350 N 36.9525 1.47285 -0.560781 0
M  V30 351 C 37.9155 2.28535 0.174488 0
M  V30 352 C 38.9155 1.37153 0.839388 0
M  V30 353 O 40.1055 1.59748 0.694702 0
M  V30 354 C 37.2375 3.16934 1.25561 0
M  V30 355 H 38.4305 2.95012 -0.539262 0
M  V30 356 H 35.9835 1.53034 -0.317865 0
M  V30 357 H 36.7185 2.55157 2.00164 0
M  V30 358 H 36.5035 3.8419 0.783604 0
M  V30 359 H 37.9935 3.78143 1.77193 0
M  V30 360 N 38.4306 0.297415 1.54768 0
M  V30 361 C 39.6586 -0.315623 2.04478 0
M  V30 362 C 40.0736 -1.47792 1.17486 0
M  V30 363 O 39.4306 -1.81404 0.19971 0
M  V30 364 C 39.4816 -0.7753 3.53088 0
M  V30 365 O 39.2026 0.340732 4.36773 0
M  V30 366 C 40.7036 -1.45386 4.18781 0
M  V30 367 H 37.9236 -0.0690887 0.667434 0
M  V30 368 H 40.4676 0.436003 1.99798 0
M  V30 369 H 38.6226 -1.47696 3.58141 0
M  V30 370 H 39.0366 -0.0165035 5.24497 0
M  V30 371 H 40.5106 -1.72669 5.24299 0
M  V30 372 H 40.9876 -2.39275 3.68299 0
M  V30 373 H 41.5936 -0.795475 4.17795 0
M  V30 374 N 39.9087 -1.5758 0.0250728 0
M  V30 375 C 40.8387 -2.13007 -0.956575 0
M  V30 376 C 41.8197 -1.0452 -1.342 0
M  V30 377 O 43.0047 -1.32332 -1.42133 0
M  V30 378 C 40.1347 -2.65386 -2.24026 0
M  V30 379 C 39.0887 -3.78623 -1.99571 0
M  V30 380 C 38.4147 -4.17414 -3.3417 0
M  V30 381 C 39.7147 -5.04867 -1.33814 0
M  V30 382 H 41.4087 -2.9528 -0.494991 0
M  V30 383 H 38.9547 -1.42042 -0.236651 0
M  V30 384 H 40.9077 -3.02794 -2.93076 0
M  V30 385 H 39.6317 -1.80268 -2.72343 0
M  V30 386 H 38.2907 -3.41646 -1.32941 0
M  V30 387 H 37.9387 -3.29284 -3.80238 0
M  V30 388 H 37.6387 -4.93719 -3.18615 0
M  V30 389 H 39.1627 -4.57402 -4.04495 0
M  V30 390 H 40.5767 -5.39888 -1.92857 0
M  V30 391 H 38.9737 -5.86144 -1.28669 0
M  V30 392 H 40.0437 -4.83904 -0.310561 0
M  V30 393 N 41.3868 0.248026 -1.55636 0
M  V30 394 C 42.6348 0.974295 -1.77065 0
M  V30 395 C 42.9558 1.85897 -0.588849 0
M  V30 396 O 42.2258 1.91868 0.395407 0
M  V30 397 H 40.8058 0.362733 -0.653019 0
M  V30 398 H 43.4678 0.266244 -1.93073 0
M  V30 399 H 42.5638 1.59667 -2.68166 0
M  V30 400 N 42.8649 1.48995 0.513639 0
M  V30 401 C 43.8129 1.65199 1.63744 0
M  V30 402 C 44.8069 0.51809 1.61283 0
M  V30 403 O 46.0129 0.697335 1.65943 0
M  V30 404 H 42.3879 0.52069 0.542574 0
M  V30 405 H 44.3589 2.59552 1.47226 0
M  V30 406 C 43.1079 1.72409 3.01945 0
M  V30 407 H 42.4309 2.59029 3.04539 0
M  V30 408 H 43.8709 1.87785 3.80148 0
M  V30 409 C 42.3299 0.46618 3.33659 0
M  V30 410 O 42.8599 -0.413744 3.99564 0
M  V30 411 N 41.0659 0.332931 2.88687 0
M  V30 412 H 40.6129 1.04996 2.35231 0
M  V30 413 H 40.5709 -0.507665 3.10274 0
M  V30 414 N 44.343 -0.763751 1.37857 0
M  V30 415 C 45.589 -1.52483 1.33704 0
M  V30 416 C 45.922 -1.94051 -0.0759612 0
M  V30 417 O 45.197 -1.64675 -1.03501 0
M  V30 418 C 45.48 -2.78441 2.28348 0
M  V30 419 C 45.333 -2.43075 3.78463 0
M  V30 420 C 46.652 -3.80415 2.21298 0
M  V30 421 H 43.771 -0.553169 0.487005 0
M  V30 422 H 46.413 -0.875562 1.68624 0
M  V30 423 H 44.563 -3.33842 1.987 0
M  V30 424 H 46.235 -1.93527 4.18742 0
M  V30 425 H 44.478 -1.75666 3.96641 0
M  V30 426 H 45.149 -3.33149 4.40132 0
M  V30 427 H 47.625 -3.34527 2.47449 0
M  V30 428 H 46.501 -4.66257 2.89647 0
M  V30 429 H 46.762 -4.25262 1.20849 0
M  V30 430 N 45.8211 -1.22559 -0.990812 0
M  V30 431 C 47.0461 -1.07862 -1.77145 0
M  V30 432 C 47.4711 0.366447 -1.84496 0
M  V30 433 O 46.8291 1.26478 -1.29896 0
M  V30 434 C 46.8771 -1.69686 -3.18181 0
M  V30 435 O 45.9811 -0.951946 -4.01263 0
M  V30 436 H 45.3221 -0.378712 -0.545411 0
M  V30 437 H 47.8521 -1.62399 -1.2445 0
M  V30 438 H 47.8621 -1.74496 -3.68802 0
M  V30 439 H 46.5371 -2.74841 -3.12146 0
M  V30 440 H 45.1141 -0.980011 -3.59792 0
M  V30 441 N 47.2992 1.18797 -1.03562 0
M  V30 442 C 48.2622 2.20464 -0.626769 0
M  V30 443 C 49.2622 1.57721 0.313173 0
M  V30 444 O 50.4522 1.73917 0.0992615 0
M  V30 445 C 47.5842 3.40802 0.0818498 0
M  V30 446 H 48.7772 2.58149 -1.5264 0
M  V30 447 H 46.3302 1.32593 -0.827578 0
M  V30 448 H 47.0652 3.08642 0.995518 0
M  V30 449 H 46.8502 3.8758 -0.593652 0
M  V30 450 H 48.3402 4.16092 0.354584 0
M  V30 451 N 48.7773 0.814389 1.34928 0
M  V30 452 C 50.0253 0.397636 1.9815 0
M  V30 453 C 50.3463 -1.04069 1.64908 0
M  V30 454 O 49.6163 -1.72121 0.93548 0
M  V30 455 H 48.1963 0.144043 0.732981 0
M  V30 456 H 50.8583 1.04195 1.6471 0
M  V30 457 H 49.9543 0.509688 3.0791 0
M  V30 458 N 50.2554 -1.46986 0.568584 0
M  V30 459 C 51.6664 -1.86188 0.138219 0
M  V30 460 C 52.0174 -1.47388 -1.29504 0
M  V30 461 O 51.1424 -0.88219 -1.97602 0
M  V30 462 C 51.7374 -3.3792 0.244065 0
M  V30 463 C 50.2964 -3.76171 -0.131335 0
M  V30 464 C 49.4434 -2.71027 0.586465 0
M  V30 465 H 52.3944 -1.38342 0.777645 0
M  V30 466 H 52.4154 -3.76729 -0.534351 0
M  V30 467 H 51.9274 -3.66128 1.28731 0
M  V30 468 H 50.0284 -3.5358 -1.17526 0
M  V30 469 H 50.1414 -4.78523 0.235146 0
M  V30 470 H 48.5054 -2.54684 0.0282722 0
M  V30 471 H 49.2884 -3.02077 1.63109 0
M  V30 472 N 51.7335 -0.305618 -1.54608 0
M  V30 473 C 52.9585 0.307562 -2.05107 0
M  V30 474 C 53.3835 1.46385 -1.18123 0
M  V30 475 O 52.7415 1.8034 -0.186324 0
M  V30 476 C 52.7895 0.73704 -3.52987 0
M  V30 477 O 51.8935 1.84134 -3.6901 0
M  V30 478 H 51.2345 0.0589143 -0.661381 0
M  V30 479 H 53.7645 -0.448807 -1.99617 0
M  V30 480 H 53.7745 1.02459 -3.94925 0
M  V30 481 H 52.4495 -0.108773 -4.15758 0
M  V30 482 H 51.0265 1.55398 -3.38978 0
M  V30 483 N 53.2116 1.57565 -0.0334293 0
M  V30 484 C 54.6226 1.79746 0.504798 0
M  V30 485 C 54.9736 0.944091 1.71992 0
M  V30 486 O 54.0986 0.155694 2.15839 0
M  V30 487 C 54.6936 3.25997 0.922567 0
M  V30 488 C 53.2526 3.49159 1.40588 0
M  V30 489 C 52.3996 2.74785 0.372633 0
M  V30 490 H 55.3506 1.56565 -0.259436 0
M  V30 491 H 55.3716 3.35945 1.78666 0
M  V30 492 H 54.8836 3.88081 0.0379825 0
M  V30 493 H 52.9846 2.92332 2.31025 0
M  V30 494 H 53.0976 4.57873 1.41028 0
M  V30 495 H 51.4616 2.40391 0.841672 0
M  V30 496 H 52.2446 3.39587 -0.503559 0
M  V30 497 N 54.6897 -0.239769 1.55765 0
M  V30 498 C 55.6527 -1.28038 1.90103 0
M  V30 499 C 56.6527 -1.40723 0.778055 0
M  V30 500 O 57.8427 -1.39301 1.04599 0
M  V30 501 C 54.9747 -2.65702 2.13577 0
M  V30 502 H 56.1677 -0.988048 2.83157 0
M  V30 503 H 53.7207 -0.479382 1.48767 0
M  V30 504 H 54.4557 -3.00063 1.23015 0
M  V30 505 H 54.2407 -2.57875 2.95369 0
M  V30 506 H 55.7307 -3.40828 2.41301 0
M  V30 507 N 56.1678 -1.49265 -0.50573 0
M  V30 508 C 57.4158 -1.582 -1.25766 0
M  V30 509 C 57.7368 -0.268482 -1.93143 0
M  V30 510 O 57.0068 0.711833 -1.8251 0
M  V30 511 H 55.5868 -0.582873 -0.467191 0
M  V30 512 H 58.2488 -1.85865 -0.586525 0
M  V30 513 H 57.3448 -2.37563 -2.02412 0
M  V30 514 N 57.6459 0.756429 -1.3826 0
M  V30 515 C 58.5759 1.88374 -1.37976 0
M  V30 516 C 59.5569 1.68311 -0.246082 0
M  V30 517 O 60.7419 1.88944 -0.44874 0
M  V30 518 C 57.8719 3.25864 -1.20125 0
M  V30 519 C 56.8259 3.60523 -2.30666 0
M  V30 520 C 56.1519 4.9672 -1.97923 0
M  V30 521 C 57.4519 3.65692 -3.72916 0
M  V30 522 H 59.1459 1.88869 -2.32312 0
M  V30 523 H 56.6919 0.907272 -1.11824 0
M  V30 524 H 58.6449 4.0438 -1.18552 0
M  V30 525 H 57.3689 3.25841 -0.222498 0
M  V30 526 H 56.0279 2.84324 -2.3142 0
M  V30 527 H 55.6759 4.93253 -0.985393 0
M  V30 528 H 55.3759 5.20878 -2.71955 0
M  V30 529 H 56.8999 5.77618 -1.97964 0
M  V30 530 H 58.3139 4.34328 -3.74208 0
M  V30 531 H 56.7109 4.01358 -4.4613 0
M  V30 532 H 57.7809 2.65987 -4.05436 0
M  V30 533 N 59.124 1.23083 0.984299 0
M  V30 534 C 60.087 1.00979 2.05757 0
M  V30 535 C 61.087 -0.0269573 1.60777 0
M  V30 536 O 62.277 0.212403 1.729 0
M  V30 537 C 59.409 0.527072 3.36801 0
M  V30 538 H 60.602 1.9622 2.26799 0
M  V30 539 H 58.155 1.05072 1.15714 0
M  V30 540 H 58.89 -0.429294 3.21446 0
M  V30 541 H 58.675 1.27515 3.70786 0
M  V30 542 H 60.165 0.392942 4.15747 0
M  V30 543 N 60.6021 -1.18246 1.0419 0
M  V30 544 C 61.8481 -1.88536 0.747122 0
M  V30 545 C 62.1811 -1.80223 -0.723409 0
M  V30 546 O 61.4561 -1.20337 -1.52804 0
M  V30 547 C 61.7391 -3.38968 1.21544 0
M  V30 548 C 61.5921 -3.56084 2.74816 0
M  V30 549 C 62.9111 -4.32648 0.806482 0
M  V30 550 H 60.0301 -0.684619 0.272883 0
M  V30 551 H 62.6721 -1.39113 1.29413 0
M  V30 552 H 60.8221 -3.8119 0.750081 0
M  V30 553 H 62.4941 -3.22946 3.29399 0
M  V30 554 H 60.7371 -2.98699 3.14582 0
M  V30 555 H 61.4081 -4.61639 3.02644 0
M  V30 556 H 63.8841 -3.98211 1.20695 0
M  V30 557 H 62.7601 -5.36462 1.1619 0
M  V30 558 H 63.0211 -4.41146 -0.29029 0
M  V30 559 N 62.0802 -0.821533 -1.34494 0
M  V30 560 C 63.3052 -0.420873 -2.03085 0
M  V30 561 C 63.7302 0.964915 -1.61465 0
M  V30 562 O 63.0882 1.62763 -0.798607 0
M  V30 563 C 63.1362 -0.529414 -3.56693 0
M  V30 564 O 62.2402 0.451302 -4.09923 0
M  V30 565 H 61.5812 -0.173489 -0.640935 0
M  V30 566 H 64.1112 -1.11157 -1.71771 0
M  V30 567 H 64.1212 -0.404671 -4.05988 0
M  V30 568 H 62.7962 -1.54014 -3.86332 0
M  V30 569 H 61.3732 0.285558 -3.71805 0
M  V30 570 N 63.5583 1.46682 -0.576371 0
M  V30 571 C 64.8063 2.02013 -0.0594163 0
M  V30 572 C 65.1273 1.45101 1.30271 0
M  V30 573 O 64.3973 0.633317 1.8538 0
M  V30 574 H 62.9773 0.746759 -0.0189745 0
M  V30 575 H 65.6393 1.79862 -0.750717 0
M  V30 576 H 64.7353 3.12097 0.014345 0
M  V30 577 N 65.0364 0.313813 1.54444 0
M  V30 578 C 66.2824 -0.292108 2.00685 0
M  V30 579 C 66.6154 -1.52548 1.20177 0
M  V30 580 O 65.8904 -1.92452 0.281531 0
M  V30 581 C 66.1734 -0.635968 3.5444 0
M  V30 582 C 66.0264 0.607437 4.4568 0
M  V30 583 C 67.3454 -1.45747 4.15266 0
M  V30 584 H 64.4644 -0.104697 0.729526 0
M  V30 585 H 67.1064 0.428457 1.85106 0
M  V30 586 H 65.2564 -1.24986 3.67846 0
M  V30 587 H 66.9284 1.24581 4.44159 0
M  V30 588 H 65.1714 1.23822 4.15753 0
M  V30 589 H 65.8424 0.322515 5.51057 0
M  V30 590 H 68.3184 -0.938645 4.05375 0
M  V30 591 H 67.1944 -1.66683 5.2298 0
M  V30 592 H 67.4554 -2.45063 3.67963 0
M  V30 593 N 66.5145 -1.57545 0.0417849 0
M  V30 594 C 67.4445 -2.14009 -0.933929 0
M  V30 595 C 68.4255 -1.05938 -1.33083 0
M  V30 596 O 69.6105 -1.33833 -1.40721 0
M  V30 597 C 66.7405 -2.67747 -2.21199 0
M  V30 598 C 65.6945 -3.80718 -1.95544 0
M  V30 599 C 65.0205 -4.20935 -3.29724 0
M  V30 600 C 66.3205 -5.06258 -1.28452 0
M  V30 601 H 68.0145 -2.95788 -0.463645 0
M  V30 602 H 65.5605 -1.42285 -0.221573 0
M  V30 603 H 67.5135 -3.05886 -2.89848 0
M  V30 604 H 66.2375 -1.83147 -2.70416 0
M  V30 605 H 64.8965 -3.43037 -1.2931 0
M  V30 606 H 64.5445 -3.33298 -3.76724 0
M  V30 607 H 64.2445 -4.9707 -3.13361 0
M  V30 608 H 65.7685 -4.61666 -3.9962 0
M  V30 609 H 67.1825 -5.41903 -1.8712 0
M  V30 610 H 65.5795 -5.87475 -1.22445 0
M  V30 611 H 66.6495 -4.84207 -0.259219 0
M  V30 612 N 67.9926 0.231505 -1.5589 0
M  V30 613 C 69.2416 0.955346 -1.7764 0
M  V30 614 C 69.5546 1.85893 -0.608546 0
M  V30 615 O 70.7606 2.62067 -0.70943 0
M  V30 616 C 69.2166 1.74886 -3.14552 0
M  V30 617 C 68.8246 0.891915 -4.39032 0
M  V30 618 C 70.5686 2.46452 -3.45633 0
M  V30 619 C 68.4756 1.68221 -5.66971 0
M  V30 620 H 67.4056 0.360446 -0.662265 0
M  V30 621 H 70.0566 0.209516 -1.823 0
M  V30 622 H 68.4386 2.53723 -3.04041 0
M  V30 623 H 69.6126 0.144793 -4.60572 0
M  V30 624 H 67.9276 0.288863 -4.15397 0
M  V30 625 H 70.5246 3.06061 -4.38441 0
M  V30 626 H 70.8676 3.18841 -2.67668 0
M  V30 627 H 71.4006 1.74613 -3.57428 0
M  V30 628 H 68.1396 1.00178 -6.478 0
M  V30 629 H 67.6596 2.4042 -5.49507 0
M  V30 630 H 69.3386 2.24544 -6.06786 0
M  V30 631 N 69.4707 1.49531 0.497807 0
M  V30 632 C 70.8817 1.52344 1.07927 0
M  V30 633 C 71.2327 0.311469 1.93712 0
M  V30 634 O 70.3577 -0.578405 2.08527 0
M  V30 635 C 70.9527 2.76062 1.96405 0
M  V30 636 C 69.5117 2.81643 2.49709 0
M  V30 637 C 68.6587 2.46299 1.27404 0
M  V30 638 H 71.6097 1.56182 0.281576 0
M  V30 639 H 71.6307 2.56405 2.81135 0
M  V30 640 H 71.1427 3.64254 1.33943 0
M  V30 641 H 69.2437 1.97739 3.15801 0
M  V30 642 H 69.3567 3.83891 2.86643 0
M  V30 643 H 67.7207 1.98148 1.60029 0
M  V30 644 H 68.5037 3.36769 0.66645 0
M  V30 645 N 70.9488 -0.749086 1.3866 0
M  V30 646 C 71.8788 -1.8764 1.38973 0
M  V30 647 C 72.8598 -1.68178 0.255004 0
M  V30 648 O 74.0448 -1.88704 0.458754 0
M  V30 649 C 71.1748 -3.25222 1.21851 0
M  V30 650 C 70.1288 -3.59295 2.32575 0
M  V30 651 C 69.4548 -4.95663 2.00555 0
M  V30 652 C 70.7548 -3.63709 3.7485 0
M  V30 653 H 72.4488 -1.87635 2.3331 0
M  V30 654 H 69.9948 -0.901329 1.12303 0
M  V30 655 H 71.9478 -4.03746 1.20695 0
M  V30 656 H 70.6718 -3.25719 0.239775 0
M  V30 657 H 69.3308 -2.83093 2.32925 0
M  V30 658 H 68.9788 -4.92724 1.01154 0
M  V30 659 H 68.6788 -5.19429 2.74714 0
M  V30 660 H 70.2028 -5.7656 2.01024 0
M  V30 661 H 71.6168 -4.32338 3.76506 0
M  V30 662 H 70.0138 -3.98986 4.48252 0
M  V30 663 H 71.0838 -2.63834 4.06841 0
M  V30 664 N 72.4269 -1.23603 -0.977757 0
M  V30 665 C 73.6729 -1.07129 -1.72195 0
M  V30 666 C 74.0059 0.390501 -1.90233 0
M  V30 667 O 73.2809 1.28902 -1.45653 0
M  V30 668 C 73.5639 -1.80031 -3.11867 0
M  V30 669 C 73.4169 -3.33899 -3.01383 0
M  V30 670 C 74.7359 -1.56492 -4.11337 0
M  V30 671 H 71.8549 -0.390571 -0.624999 0
M  V30 672 H 74.4969 -1.52142 -1.13811 0
M  V30 673 H 72.6469 -1.41768 -3.6171 0
M  V30 674 H 74.3189 -3.81699 -2.59043 0
M  V30 675 H 72.5619 -3.62796 -2.37827 0
M  V30 676 H 73.2329 -3.801 -4.00285 0
M  V30 677 H 75.7089 -1.89757 -3.70313 0
M  V30 678 H 74.5849 -2.09973 -5.07151 0
M  V30 679 H 74.8459 -0.500874 -4.39254 0
M  V30 680 N 73.905 1.17692 -1.04816 0
M  V30 681 C 75.135 1.91508 -0.775128 0
M  V30 682 C 75.543 1.76844 0.67253 0
M  V30 683 O 74.886 1.10057 1.47082 0
M  V30 684 C 74.948 3.43167 -1.0713 0
M  V30 685 C 74.612 3.81612 -2.51438 0
M  V30 686 C 75.609 3.84772 -3.49638 0
M  V30 687 C 73.294 4.12687 -2.86348 0
M  V30 688 C 75.288 4.18469 -4.80794 0
M  V30 689 C 72.975 4.46053 -4.17708 0
M  V30 690 C 73.973 4.48921 -5.14741 0
M  V30 691 O 73.661 4.81504 -6.43746 0
M  V30 692 H 73.393 0.614575 -0.281555 0
M  V30 693 H 75.947 1.50206 -1.40098 0
M  V30 694 H 74.177 3.84745 -0.388342 0
M  V30 695 H 75.866 3.98239 -0.784883 0
M  V30 696 H 76.632 3.60893 -3.24008 0
M  V30 697 H 72.511 4.09627 -2.11486 0
M  V30 698 H 76.055 4.20623 -5.56527 0
M  V30 699 H 71.952 4.69393 -4.43103 0
M  V30 700 H 72.72 4.99377 -6.4851 0
M  V30 701 N 75.3831 0.828654 1.34056 0
M  V30 702 C 76.3131 0.269443 2.3194 0
M  V30 703 C 77.2941 -0.617247 1.58506 0
M  V30 704 O 78.4791 -0.542931 1.86456 0
M  V30 705 C 75.6091 -0.564793 3.42677 0
M  V30 706 C 74.5631 0.225241 4.27407 0
M  V30 707 C 73.8891 -0.7321 5.29664 0
M  V30 708 C 75.1891 1.43663 5.02154 0
M  V30 709 H 76.8831 1.08728 2.7896 0
M  V30 710 H 74.4291 0.524283 1.34117 0
M  V30 711 H 76.3821 -0.966233 4.10173 0
M  V30 712 H 75.1061 -1.41574 2.9432 0
M  V30 713 H 73.7651 0.608117 3.61521 0
M  V30 714 H 73.4131 -1.57916 4.77568 0
M  V30 715 H 73.1131 -0.20767 5.87233 0
M  V30 716 H 74.6371 -1.13128 6.00029 0
M  V30 717 H 76.0511 1.1089 5.62473 0
M  V30 718 H 74.4481 1.89711 5.69324 0
M  V30 719 H 75.5181 2.21181 4.31517 0
M  V30 720 N 76.8612 -1.46375 0.584142 0
M  V30 721 C 78.1072 -2.02678 0.0703716 0
M  V30 722 C 78.4402 -1.4545 -1.28678 0
M  V30 723 O 77.7152 -0.62014 -1.84349 0
M  V30 724 C 77.9982 -3.60099 0.00614674 0
M  V30 725 C 77.8512 -4.27709 1.3923 0
M  V30 726 C 79.1702 -4.34598 -0.693742 0
M  V30 727 H 76.2892 -0.736504 0.027047 0
M  V30 728 H 78.9312 -1.74501 0.751615 0
M  V30 729 H 77.0812 -3.84236 -0.574009 0
M  V30 730 H 78.7532 -4.14832 2.01773 0
M  V30 731 H 76.9962 -3.87016 1.95962 0
M  V30 732 H 77.6672 -5.36478 1.29982 0
M  V30 733 H 80.1432 -4.15615 -0.200869 0
M  V30 734 H 79.0192 -5.44318 -0.707714 0
M  V30 735 H 79.2802 -4.05759 -1.75533 0
M  V30 736 N 78.3393 -0.321999 -1.54275 0
M  V30 737 C 79.5853 0.281461 -2.00837 0
M  V30 738 C 79.9183 1.51909 -1.20985 0
M  V30 739 O 79.1933 1.923 -0.291733 0
M  V30 740 C 79.4763 0.617162 -3.54772 0
M  V30 741 C 79.3293 -0.631064 -4.45351 0
M  V30 742 C 80.6483 1.43542 -4.16033 0
M  V30 743 H 77.7673 0.100826 -0.730071 0
M  V30 744 H 80.4093 -0.438268 -1.84876 0
M  V30 745 H 78.5593 1.23034 -3.68504 0
M  V30 746 H 80.2313 -1.26934 -4.43492 0
M  V30 747 H 78.4743 -1.26025 -4.15091 0
M  V30 748 H 79.1453 -0.351735 -5.50878 0
M  V30 749 H 81.6213 0.917134 -4.05867 0
M  V30 750 H 80.4973 1.63907 -5.23856 0
M  V30 751 H 80.7583 2.43108 -3.69257 0
M  V30 752 N 79.8174 1.5752 -0.0501392 0
M  V30 753 C 81.0574 1.94521 0.627783 0
M  V30 754 C 81.4214 0.928265 1.68069 0
M  V30 755 O 82.6224 1.18517 2.41261 0
M  V30 756 C 80.8934 3.36319 1.20932 0
M  V30 757 S 82.4524 3.95272 1.90539 0
M  V30 758 H 79.2704 0.680456 0.206158 0
M  V30 759 H 81.8724 1.95139 -0.118829 0
M  V30 760 H 80.5764 4.08132 0.430865 0
M  V30 761 H 80.1074 3.39193 1.99277 0
M  V30 762 H 82.1224 3.80415 3.18589 0
M  V30 763 N 81.2955 -0.223234 1.56011 0
M  V30 764 C 82.5415 -0.949279 1.79211 0
M  V30 765 C 82.8745 -1.84054 0.619494 0
M  V30 766 O 82.1495 -1.90726 -0.381317 0
M  V30 767 C 82.4325 -1.78965 3.12479 0
M  V30 768 C 82.2855 -0.924997 4.40186 0
M  V30 769 C 83.6045 -2.76774 3.42175 0
M  V30 770 H 80.7235 -0.343676 0.651963 0
M  V30 771 H 83.3655 -0.218253 1.88742 0
M  V30 772 H 81.5155 -2.41291 3.04485 0
M  V30 773 H 83.1875 -0.318615 4.60198 0
M  V30 774 H 81.4305 -0.230344 4.33188 0
M  V30 775 H 82.1015 -1.54735 5.29869 0
M  V30 776 H 84.5775 -2.24584 3.50287 0
M  V30 777 H 83.4535 -3.32678 4.36597 0
M  V30 778 H 83.7145 -3.54429 2.64258 0
M  V30 779 N 82.7736 -1.49793 -0.48987 0
M  V30 780 C 84.0196 -1.60078 -1.24511 0
M  V30 781 C 84.3526 -0.291608 -1.91998 0
M  V30 782 O 83.6276 0.705647 -1.81248 0
M  V30 783 C 83.9106 -2.76791 -2.30345 0
M  V30 784 C 83.7636 -4.17535 -1.67286 0
M  V30 785 C 85.0826 -2.89111 -3.31817 0
M  V30 786 H 82.2016 -0.582645 -0.451324 0
M  V30 787 H 84.8436 -1.82117 -0.541612 0
M  V30 788 H 82.9936 -2.5813 -2.90346 0
M  V30 789 H 84.6656 -4.4774 -1.11026 0
M  V30 790 H 82.9086 -4.22665 -0.976577 0
M  V30 791 H 83.5796 -4.95094 -2.44103 0
M  V30 792 H 86.0556 -3.06133 -2.81819 0
M  V30 793 H 84.9316 -3.72433 -4.03219 0
M  V30 794 H 85.1926 -1.9893 -3.94815 0
M  V30 795 N 84.2517 0.741722 -1.39055 0
M  V30 796 C 85.4997 1.49818 -1.35643 0
M  V30 797 C 85.8207 1.94938 0.0491642 0
M  V30 798 O 85.0907 1.68505 0.999141 0
M  V30 799 H 83.6707 0.555755 -0.499144 0
M  V30 800 H 86.3327 0.880957 -1.73854 0
M  V30 801 H 85.4287 2.38348 -2.01486 0
M  V30 802 N 85.7298 1.2412 0.971189 0
M  V30 803 C 86.6598 1.05508 2.08304 0
M  V30 804 C 87.6408 -0.0308864 1.70072 0
M  V30 805 O 88.8258 0.135521 1.93727 0
M  V30 806 C 85.9558 0.655365 3.4106 0
M  V30 807 C 84.9098 1.68971 3.93234 0
M  V30 808 C 84.2358 1.14516 5.22293 0
M  V30 809 C 85.5358 3.08487 4.21465 0
M  V30 810 H 87.2298 1.98507 2.24132 0
M  V30 811 H 84.7758 0.955821 1.07704 0
M  V30 812 H 86.7288 0.51217 4.18276 0
M  V30 813 H 85.4528 -0.31032 3.25122 0
M  V30 814 H 84.1118 1.82106 3.18171 0
M  V30 815 H 83.7598 0.170189 5.02712 0
M  V30 816 H 83.4598 1.83635 5.58168 0
M  V30 817 H 84.9838 1.01401 6.02121 0
M  V30 818 H 86.3978 2.98601 4.89398 0
M  V30 819 H 84.7948 3.74926 4.68562 0
M  V30 820 H 85.8648 3.56787 3.28376 0
M  V30 821 N 87.2079 -1.17134 1.05439 0
M  V30 822 C 88.1379 -2.2342 0.678649 0
M  V30 823 C 89.1189 -1.66971 -0.32476 0
M  V30 824 O 90.3039 -1.93149 -0.201802 0
M  V30 825 C 87.4339 -3.47256 0.0552099 0
M  V30 826 C 86.3879 -4.16543 0.98365 0
M  V30 827 C 85.7139 -5.34231 0.223961 0
M  V30 828 C 87.0139 -4.68495 2.3089 0
M  V30 829 H 88.7079 -2.55105 1.56722 0
M  V30 830 H 86.2539 -1.2262 0.754998 0
M  V30 831 H 88.2069 -4.20828 -0.21946 0
M  V30 832 H 86.9309 -3.14846 -0.868319 0
M  V30 833 H 85.5899 -3.44887 1.24293 0
M  V30 834 H 85.2379 -4.98071 -0.702412 0
M  V30 835 H 84.9379 -5.81527 0.842627 0
M  V30 836 H 86.4619 -6.10585 -0.0433671 0
M  V30 837 H 87.8759 -5.33691 2.09396 0
M  V30 838 H 86.2729 -5.26379 2.88176 0
M  V30 839 H 87.3429 -3.85169 2.94572 0
M  V30 840 N 88.686 -0.835752 -1.33615 0
M  V30 841 C 89.934 -0.429109 -1.97492 0
M  V30 842 C 90.255 1.01433 -1.66543 0
M  V30 843 O 89.525 1.70611 -0.962744 0
M  V30 844 H 88.105 -0.155686 -0.730596 0
M  V30 845 H 90.767 -1.06802 -1.63031 0
M  V30 846 H 89.863 -0.55861 -3.0706 0
M  V30 847 N 90.1641 1.46063 -0.591896 0
M  V30 848 C 91.1121 2.32124 0.148739 0
M  V30 849 C 92.1061 1.45035 0.875286 0
M  V30 850 O 93.3121 1.61609 0.792632 0
M  V30 851 H 89.6871 0.749024 0.066832 0
M  V30 852 H 91.6581 2.92392 -0.595783 0
M  V30 853 C 90.4071 3.28373 1.1431 0
M  V30 854 H 89.7301 3.95371 0.59346 0
M  V30 855 H 91.1701 3.91352 1.63155 0
M  V30 856 C 89.6291 2.54393 2.20875 0
M  V30 857 O 90.1591 2.31373 3.28374 0
M  V30 858 N 88.3651 2.14797 1.95731 0
M  V30 859 H 87.9121 2.33719 1.08319 0
M  V30 860 H 87.8701 1.65619 2.67241 0
M  V30 861 N 91.6422 0.330177 1.54103 0
M  V30 862 C 92.8672 -0.274893 2.0557 0
M  V30 863 C 93.2922 -1.44487 1.20437 0
M  V30 864 O 92.6502 -1.80021 0.214991 0
M  V30 865 C 92.6982 -0.68079 3.54115 0
M  V30 866 O 91.8022 -1.7824 3.71893 0
M  V30 867 H 91.1432 -0.0483849 0.662235 0
M  V30 868 H 93.6732 0.480508 1.98878 0
M  V30 869 H 93.6832 -0.961635 3.96505 0
M  V30 870 H 92.3582 0.174903 4.15532 0
M  V30 871 H 90.9352 -1.49985 3.41407 0
M  V30 872 N 93.1203 -1.57491 0.0584922 0
M  V30 873 C 94.0503 -2.14988 -0.911178 0
M  V30 874 C 95.0313 -1.07343 -1.31952 0
M  V30 875 O 96.2163 -1.35318 -1.39294 0
M  V30 876 C 93.3463 -2.70078 -2.18347 0
M  V30 877 C 92.3003 -3.82771 -1.91495 0
M  V30 878 C 91.6263 -4.24408 -3.25241 0
M  V30 879 C 92.9263 -5.07592 -1.23075 0
M  V30 880 H 94.6203 -2.96263 -0.432246 0
M  V30 881 H 92.1663 -1.42512 -0.206469 0
M  V30 882 H 94.1193 -3.08943 -2.86587 0
M  V30 883 H 92.8433 -1.86005 -2.68458 0
M  V30 884 H 91.5023 -3.44389 -1.25664 0
M  V30 885 H 91.1503 -3.37275 -3.73168 0
M  V30 886 H 90.8503 -5.00366 -3.08071 0
M  V30 887 H 92.3743 -4.65879 -3.94701 0
M  V30 888 H 93.7883 -5.43857 -1.81362 0
M  V30 889 H 92.1853 -5.88741 -1.16207 0
M  V30 890 H 93.2553 -4.84454 -0.207847 0
M  V30 891 N 94.5984 0.214957 -1.56127 0
M  V30 892 C 95.8444 0.939762 -1.79712 0
M  V30 893 C 96.1774 1.83723 -0.629247 0
M  V30 894 O 95.4524 1.90925 0.371197 0
M  V30 895 C 95.7354 1.77306 -3.13424 0
M  V30 896 C 95.5884 0.90164 -4.40671 0
M  V30 897 C 96.9074 2.74956 -3.43638 0
M  V30 898 H 94.0264 0.340214 -0.653776 0
M  V30 899 H 96.6684 0.20824 -1.88855 0
M  V30 900 H 94.8184 2.39673 -3.0576 0
M  V30 901 H 96.4904 0.294206 -4.60361 0
M  V30 902 H 94.7334 0.207368 -4.33304 0
M  V30 903 H 95.4044 1.51923 -5.30682 0
M  V30 904 H 97.8804 2.22724 -3.51473 0
M  V30 905 H 96.7564 3.30358 -4.38355 0
M  V30 906 H 97.0174 3.53023 -2.66134 0
M  V30 907 N 96.0765 1.50051 0.48192 0
M  V30 908 C 97.3255 1.59741 1.23149 0
M  V30 909 C 97.6385 0.298163 1.93314 0
M  V30 910 O 98.8445 0.273835 2.70116 0
M  V30 911 C 97.3005 2.81926 2.23708 0
M  V30 912 C 96.9085 4.18685 1.59396 0
M  V30 913 C 98.6525 3.00956 2.99375 0
M  V30 914 C 96.5595 5.3207 2.58178 0
M  V30 915 H 95.4895 0.594838 0.46334 0
M  V30 916 H 98.1405 1.76467 0.503169 0
M  V30 917 H 96.5225 2.58736 2.99786 0
M  V30 918 H 97.6965 4.52088 0.891811 0
M  V30 919 H 96.0115 4.05171 0.960503 0
M  V30 920 H 98.6085 3.82836 3.73283 0
M  V30 921 H 98.9515 2.12258 3.58123 0
M  V30 922 H 99.4845 3.24277 2.30411 0
M  V30 923 H 96.2235 6.22888 2.04184 0
M  V30 924 H 95.7435 5.03098 3.26577 0
M  V30 925 H 97.4225 5.62196 3.20225 0
M  V30 926 N 97.5546 -0.734337 1.39446 0
M  V30 927 C 98.7846 -1.52137 1.39778 0
M  V30 928 C 99.1926 -1.89198 -0.00929312 0
M  V30 929 O 98.5356 -1.54666 -0.991168 0
M  V30 930 C 98.5976 -2.83762 2.20724 0
M  V30 931 C 98.2616 -2.69131 3.69347 0
M  V30 932 C 99.2586 -2.37635 4.62413 0
M  V30 933 C 96.9436 -2.85982 4.1294 0
M  V30 934 C 98.9376 -2.23172 5.97054 0
M  V30 935 C 96.6246 -2.71137 5.47657 0
M  V30 936 C 97.6226 -2.39777 6.39528 0
M  V30 937 O 97.3106 -2.25026 7.71763 0
M  V30 938 H 97.0426 -0.476717 0.479288 0
M  V30 939 H 99.5966 -0.915012 1.83893 0
M  V30 940 H 97.8266 -3.4666 1.71359 0
M  V30 941 H 99.5156 -3.45383 2.13226 0
M  V30 942 H 100.282 -2.24267 4.30034 0
M  V30 943 H 96.1606 -3.09383 3.41765 0
M  V30 944 H 99.7046 -1.98617 6.68728 0
M  V30 945 H 95.6016 -2.84083 5.79626 0
M  V30 946 H 96.3696 -2.40091 7.82495 0
M  V30 947 N 99.0327 -1.24633 -0.964593 0
M  V30 948 C 100.279 -1.08949 -1.71049 0
M  V30 949 C 100.612 0.370302 -1.90637 0
M  V30 950 O 99.8867 1.27349 -1.47011 0
M  V30 951 C 100.17 -1.83329 -3.0994 0
M  V30 952 C 100.023 -3.37077 -2.97824 0
M  V30 953 C 101.342 -1.60846 -4.09654 0
M  V30 954 H 98.4607 -0.397178 -0.620821 0
M  V30 955 H 101.103 -1.5334 -1.12191 0
M  V30 956 H 99.2527 -1.45597 -3.60186 0
M  V30 957 H 100.925 -3.84425 -2.5498 0
M  V30 958 H 99.1677 -3.65298 -2.33965 0
M  V30 959 H 99.8387 -3.84324 -3.96231 0
M  V30 960 H 102.315 -1.93674 -3.68279 0
M  V30 961 H 101.191 -2.1534 -5.04896 0
M  V30 962 H 101.452 -0.547434 -4.38698 0
M  V30 963 N 100.511 1.16574 -1.06058 0
M  V30 964 C 101.757 1.87324 -0.777022 0
M  V30 965 C 102.09 1.81351 0.694645 0
M  V30 966 O 101.365 1.22753 1.50871 0
M  V30 967 C 101.648 3.36991 -1.26922 0
M  V30 968 C 101.501 3.51667 -2.80447 0
M  V30 969 C 102.82 4.3131 -0.87521 0
M  V30 970 H 99.9388 0.680191 -0.28374 0
M  V30 971 H 102.581 1.37036 -1.3161 0
M  V30 972 H 100.731 3.79949 -0.81063 0
M  V30 973 H 102.403 3.17664 -3.34495 0
M  V30 974 H 100.646 2.93656 -3.19294 0
M  V30 975 H 101.317 4.56766 -3.0995 0
M  V30 976 H 103.793 3.9624 -1.27014 0
M  V30 977 H 102.669 5.34545 -1.2471 0
M  V30 978 H 102.93 4.41552 0.220071 0
M  V30 979 N 101.989 0.842826 1.3317 0
M  V30 980 C 102.919 0.294028 2.31641 0
M  V30 981 C 103.9 -0.600401 1.59151 0
M  V30 982 O 105.085 -0.523124 1.87022 0
M  V30 983 C 102.215 -0.528416 3.43257 0
M  V30 984 C 101.169 0.27056 4.27144 0
M  V30 985 C 100.495 -0.675881 5.30411 0
M  V30 986 C 101.795 1.48981 5.00602 0
M  V30 987 H 103.489 1.11681 2.77791 0
M  V30 988 H 101.035 0.538478 1.33553 0
M  V30 989 H 102.988 -0.922674 4.11175 0
M  V30 990 H 101.712 -1.38445 2.95805 0
M  V30 991 H 100.371 0.646427 3.60856 0
M  V30 992 H 100.019 -1.52842 4.79216 0
M  V30 993 H 99.7189 -0.145374 5.8742 0
M  V30 994 H 101.243 -1.06757 6.01195 0
M  V30 995 H 102.657 1.16849 5.61266 0
M  V30 996 H 101.054 1.95739 5.6728 0
M  V30 997 H 102.124 2.25746 4.29147 0
M  V30 998 N 103.467 -1.45747 0.599634 0
M  V30 999 C 104.883 -1.57424 0.26264 0
M  V30 1000 C 105.083 -1.59222 -1.23493 0
M  V30 1001 O 104.139 -1.51825 -2.01756 0
M  V30 1002 C 105.452 -2.86061 0.926795 0
M  V30 1003 C 107 -2.99722 0.901967 0
M  V30 1004 C 107.475 -4.31119 1.54598 0
M  V30 1005 N 108.966 -4.37858 1.5111 0
M  V30 1006 C 109.701 -5.3818 1.97863 0
M  V30 1007 N 109.197 -6.45083 2.52666 0
M  V30 1008 N 110.99 -5.29487 1.88679 0
M  V30 1009 H 103.141 -1.42823 1.57211 0
M  V30 1010 H 105.404 -0.68235 0.658105 0
M  V30 1011 H 105.11 -2.90605 1.98095 0
M  V30 1012 H 104.984 -3.74563 0.445238 0
M  V30 1013 H 107.371 -2.9475 -0.143617 0
M  V30 1014 H 107.452 -2.12652 1.42171 0
M  V30 1015 H 107.096 -4.36849 2.59085 0
M  V30 1016 H 107.026 -5.16992 1.00132 0
M  V30 1017 H 109.517 -3.61209 1.11068 0
M  V30 1018 H 109.83 -7.17869 2.86155 0
M  V30 1019 H 108.175 -6.45856 2.56701 0
M  V30 1020 H 111.366 -4.44877 1.4561 0
M  V30 1021 H 111.539 -6.07524 2.25429 0
M  V30 1022 N 104.945 -0.338344 -1.53925 0
M  V30 1023 C 105.895 0.536712 -2.21593 0
M  V30 1024 C 106.879 1.07015 -1.20153 0
M  V30 1025 O 108.071 1.00471 -1.45721 0
M  V30 1026 C 105.2 1.68977 -2.98834 0
M  V30 1027 C 104.286 1.17052 -4.07627 0
M  V30 1028 N 104.677 0.372085 -5.0443 0
M  V30 1029 C 102.975 1.44789 -4.21844 0
M  V30 1030 C 103.676 0.0909171 -5.81629 0
M  V30 1031 N 102.652 0.681131 -5.39316 0
M  V30 1032 H 106.454 -0.0804298 -2.9379 0
M  V30 1033 H 103.968 -0.144943 -1.61752 0
M  V30 1034 H 105.965 2.32857 -3.45808 0
M  V30 1035 H 104.625 2.31024 -2.28162 0
M  V30 1036 H 105.636 0.0136217 -5.17898 0
M  V30 1037 H 102.313 2.07313 -3.62391 0
M  V30 1038 H 103.703 -0.552817 -6.69622 0
M  V30 1039 N 106.423 1.57458 -0.0668435 0
M  V30 1040 C 107.651 1.97624 0.612565 0
M  V30 1041 C 108.066 0.94502 1.63447 0
M  V30 1042 O 107.423 -0.0689276 1.8237 0
M  V30 1043 C 107.474 3.37869 1.28555 0
M  V30 1044 O 107.195 4.3704 0.304557 0
M  V30 1045 C 108.696 3.92882 2.05325 0
M  V30 1046 H 105.916 0.650045 0.166381 0
M  V30 1047 H 108.46 2.04035 -0.137782 0
M  V30 1048 H 106.615 3.3256 1.98702 0
M  V30 1049 H 107.029 5.18565 0.786779 0
M  V30 1050 H 108.503 4.93247 2.47812 0
M  V30 1051 H 108.98 3.29156 2.9078 0
M  V30 1052 H 109.586 4.01577 1.40056 0
M  V30 1053 N 107.901 -0.206675 1.56239 0
M  V30 1054 C 108.864 -1.23976 1.92776 0
M  V30 1055 C 109.864 -1.39041 0.807729 0
M  V30 1056 O 111.054 -1.37051 1.0753 0
M  V30 1057 C 108.186 -2.61112 2.19165 0
M  V30 1058 H 109.379 -0.927764 2.85189 0
M  V30 1059 H 106.932 -0.447718 1.4975 0
M  V30 1060 H 107.667 -2.97386 1.29352 0
M  V30 1061 H 107.452 -2.51552 3.00772 0
M  V30 1062 H 108.942 -3.35633 2.48476 0
M  V30 1063 N 109.379 -1.50304 -0.473955 0
M  V30 1064 C 110.604 -1.65175 -1.25427 0
M  V30 1065 C 111.029 -0.333673 -1.85117 0
M  V30 1066 O 110.387 0.702114 -1.67153 0
M  V30 1067 C 110.435 -2.74295 -2.34082 0
M  V30 1068 O 109.539 -2.35349 -3.38651 0
M  V30 1069 H 108.88 -0.551944 -0.369126 0
M  V30 1070 H 111.41 -1.96662 -0.564364 0
M  V30 1071 H 111.42 -2.97285 -2.79438 0
M  V30 1072 H 110.095 -3.69959 -1.90008 0
M  V30 1073 H 108.672 -2.22794 -2.99027 0
M  V30 1074 N 110.857 0.726932 -1.39834 0
M  V30 1075 C 112.268 1.30558 -1.3346 0
M  V30 1076 C 112.619 1.962 -0.00273003 0
M  V30 1077 O 111.744 1.96826 0.899371 0
M  V30 1078 C 112.339 2.37404 -2.41713 0
M  V30 1079 C 110.898 2.90921 -2.38835 0
M  V30 1080 C 110.045 1.64578 -2.2318 0
M  V30 1081 H 112.996 0.523862 -1.49804 0
M  V30 1082 H 113.017 3.17984 -2.08966 0
M  V30 1083 H 112.529 1.89599 -3.38635 0
M  V30 1084 H 110.63 3.42985 -1.45575 0
M  V30 1085 H 110.743 3.43487 -3.33997 0
M  V30 1086 H 109.107 1.89219 -1.70494 0
M  V30 1087 H 109.89 1.18814 -3.22084 0
M  V30 1088 N 112.336 1.25143 0.95797 0
M  V30 1089 C 113.561 1.12521 1.74223 0
M  V30 1090 C 113.986 -0.317402 1.85403 0
M  V30 1091 O 113.344 -1.2299 1.33204 0
M  V30 1092 C 113.392 1.78062 3.1357 0
M  V30 1093 O 112.496 1.058 3.98598 0
M  V30 1094 H 111.837 0.39304 0.535178 0
M  V30 1095 H 114.367 1.65641 1.201 0
M  V30 1096 H 114.377 1.84213 3.64046 0
M  V30 1097 H 113.052 2.83021 3.04749 0
M  V30 1098 H 111.629 1.07506 3.57067 0
M  V30 1099 N 113.814 -1.1601 1.06675 0
M  V30 1100 C 115.06 -1.86909 0.786945 0
M  V30 1101 C 115.393 -1.81717 -0.685018 0
M  V30 1102 O 114.668 -1.23551 -1.50218 0
M  V30 1103 C 114.951 -3.36313 1.28707 0
M  V30 1104 C 114.804 -3.50175 2.82308 0
M  V30 1105 C 116.123 -4.3084 0.898071 0
M  V30 1106 H 113.242 -0.678677 0.287343 0
M  V30 1107 H 115.884 -1.36336 1.32334 0
M  V30 1108 H 114.034 -3.79513 0.830768 0
M  V30 1109 H 115.706 -3.15886 3.36175 0
M  V30 1110 H 113.949 -2.91959 3.20847 0
M  V30 1111 H 114.62 -4.55116 3.12368 0
M  V30 1112 H 117.096 -3.95561 1.29114 0
M  V30 1113 H 115.972 -5.33876 1.27543 0
M  V30 1114 H 116.233 -4.41662 -0.196651 0
M  V30 1115 N 115.292 -0.849877 -1.32721 0
M  V30 1116 C 116.52 -0.464754 -2.01613 0
M  V30 1117 C 116.935 0.937191 -1.63897 0
M  V30 1118 O 116.292 1.61081 -0.857856 0
M  V30 1119 C 116.343 -0.588638 -3.56675 0
M  V30 1120 O 116.064 -1.93535 -3.93034 0
M  V30 1121 C 117.565 -0.2019 -4.4284 0
M  V30 1122 H 114.785 -0.183215 -0.645502 0
M  V30 1123 H 117.329 -1.1455 -1.69407 0
M  V30 1124 H 115.484 0.0443159 -3.87375 0
M  V30 1125 H 115.898 -1.92871 -4.87751 0
M  V30 1126 H 117.372 -0.339599 -5.50954 0
M  V30 1127 H 117.849 0.857224 -4.30753 0
M  V30 1128 H 118.455 -0.809733 -4.17521 0
M  V30 1129 N 116.77 1.45427 -0.607355 0
M  V30 1130 C 117.718 2.32269 0.12411 0
M  V30 1131 C 118.712 1.45955 0.859854 0
M  V30 1132 O 119.918 1.6244 0.775447 0
M  V30 1133 H 116.293 0.749691 0.0588839 0
M  V30 1134 H 118.264 2.91743 -0.626762 0
M  V30 1135 C 117.013 3.29567 1.1082 0
M  V30 1136 H 116.336 3.95978 0.551492 0
M  V30 1137 H 117.776 3.93061 1.58995 0
M  V30 1138 C 116.235 2.56722 2.18164 0
M  V30 1139 O 116.765 2.34842 3.25902 0
M  V30 1140 N 114.971 2.16861 1.93442 0
M  V30 1141 H 114.518 2.34855 1.05834 0
M  V30 1142 H 114.476 1.68444 2.65469 0
M  V30 1143 N 118.248 0.346503 1.53744 0
M  V30 1144 C 119.494 -0.249473 2.0126 0
M  V30 1145 C 119.827 -1.49965 1.23386 0
M  V30 1146 O 119.102 -1.91811 0.32229 0
M  V30 1147 C 119.385 -0.560643 3.55709 0
M  V30 1148 C 119.238 0.701836 4.44291 0
M  V30 1149 C 120.557 -1.36905 4.18264 0
M  V30 1150 H 117.676 -0.0891987 0.731582 0
M  V30 1151 H 120.318 0.467624 1.84156 0
M  V30 1152 H 118.468 -1.17156 3.70414 0
M  V30 1153 H 120.14 1.33974 4.41417 0
M  V30 1154 H 118.383 1.32612 4.13033 0
M  V30 1155 H 119.054 0.43933 5.50249 0
M  V30 1156 H 121.53 -0.852448 4.07275 0
M  V30 1157 H 120.406 -1.55553 5.26398 0
M  V30 1158 H 120.667 -2.37203 3.73078 0
M  V30 1159 N 119.726 -1.57421 0.075193 0
M  V30 1160 C 120.956 -1.97659 -0.601203 0
M  V30 1161 C 121.364 -0.952427 -1.63479 0
M  V30 1162 O 120.707 0.0688241 -1.83571 0
M  V30 1163 C 120.769 -3.34218 -1.32434 0
M  V30 1164 C 120.433 -4.5484 -0.443826 0
M  V30 1165 C 121.43 -5.19034 0.299969 0
M  V30 1166 C 119.115 -5.00952 -0.367709 0
M  V30 1167 C 121.109 -6.27695 1.10807 0
M  V30 1168 C 118.796 -6.09484 0.444058 0
M  V30 1169 C 119.794 -6.72719 1.18061 0
M  V30 1170 O 119.482 -7.79161 1.97898 0
M  V30 1171 H 119.214 -0.65494 -0.167422 0
M  V30 1172 H 121.768 -2.04886 0.145157 0
M  V30 1173 H 119.998 -3.23615 -2.11685 0
M  V30 1174 H 121.687 -3.59038 -1.89331 0
M  V30 1175 H 122.453 -4.84351 0.250776 0
M  V30 1176 H 118.332 -4.51509 -0.930638 0
M  V30 1177 H 121.876 -6.76982 1.68347 0
M  V30 1178 H 117.773 -6.43601 0.494803 0
M  V30 1179 H 118.541 -7.96055 1.90367 0
M  V30 1180 N 121.204 0.198386 -1.56346 0
M  V30 1181 C 122.453 0.917451 -1.79627 0
M  V30 1182 C 122.766 1.8456 -0.64784 0
M  V30 1183 O 123.972 2.60504 -0.764859 0
M  V30 1184 C 122.428 1.68175 -3.18191 0
M  V30 1185 C 122.036 0.798589 -4.40825 0
M  V30 1186 C 123.78 2.39065 -3.50782 0
M  V30 1187 C 121.687 1.56157 -5.70411 0
M  V30 1188 H 120.617 0.346317 -0.669762 0
M  V30 1189 H 123.268 0.170801 -1.82703 0
M  V30 1190 H 121.65 2.47216 -3.09354 0
M  V30 1191 H 122.824 0.0470665 -4.60776 0
M  V30 1192 H 121.139 0.200686 -4.15916 0
M  V30 1193 H 123.736 2.96692 -4.44835 0
M  V30 1194 H 124.079 3.13091 -2.74371 0
M  V30 1195 H 124.612 1.66993 -3.61052 0
M  V30 1196 H 121.351 0.864142 -6.49779 0
M  V30 1197 H 120.871 2.2871 -5.54483 0
M  V30 1198 H 122.55 2.11622 -6.11412 0
M  V30 1199 N 122.682 1.50554 0.465978 0
M  V30 1200 C 123.612 1.72722 1.57128 0
M  V30 1201 C 124.593 0.576294 1.6004 0
M  V30 1202 O 125.778 0.81598 1.76225 0
M  V30 1203 C 122.908 1.82605 2.95419 0
M  V30 1204 C 121.862 2.97835 3.07373 0
M  V30 1205 C 121.188 2.92867 4.47363 0
M  V30 1206 C 122.488 4.38265 2.84114 0
M  V30 1207 H 124.182 2.65267 1.38829 0
M  V30 1208 H 121.728 1.2765 0.666441 0
M  V30 1209 H 123.681 1.96698 3.72677 0
M  V30 1210 H 122.405 0.866858 3.14886 0
M  V30 1211 H 121.064 2.83401 2.3255 0
M  V30 1212 H 120.712 1.94783 4.63755 0
M  V30 1213 H 120.412 3.70227 4.56296 0
M  V30 1214 H 121.936 3.09015 5.26633 0
M  V30 1215 H 123.35 4.53198 3.51118 0
M  V30 1216 H 121.747 5.17115 3.04487 0
M  V30 1217 H 122.817 4.50281 1.7993 0
M  V30 1218 N 124.16 -0.719506 1.40217 0
M  V30 1219 C 125.108 -1.85493 1.40339 0
M  V30 1220 C 126.102 -1.66995 0.284415 0
M  V30 1221 O 127.308 -1.74148 0.455252 0
M  V30 1222 H 123.683 -0.610857 0.438586 0
M  V30 1223 H 125.654 -1.82506 2.36081 0
M  V30 1224 C 124.403 -3.23321 1.27901 0
M  V30 1225 H 123.726 -3.38159 2.1328 0
M  V30 1226 H 125.166 -4.02914 1.32045 0
M  V30 1227 C 123.625 -3.36898 -0.0111355 0
M  V30 1228 O 124.155 -3.89674 -0.975538 0
M  V30 1229 N 122.361 -2.90492 -0.0793393 0
M  V30 1230 H 121.908 -2.47731 0.706183 0
M  V30 1231 H 121.866 -2.99955 -0.942038 0
M  V30 1232 N 125.638 -1.25649 -0.95132 0
M  V30 1233 C 126.568 -1.08808 -2.06599 0
M  V30 1234 C 127.549 0.00382547 -1.701 0
M  V30 1235 O 128.734 -0.166325 -1.93486 0
M  V30 1236 C 125.864 -0.709542 -3.39975 0
M  V30 1237 C 124.818 -1.75206 -3.90496 0
M  V30 1238 C 124.144 -1.22811 -5.20405 0
M  V30 1239 C 125.444 -3.15153 -4.16504 0
M  V30 1240 H 127.138 -2.02048 -2.20946 0
M  V30 1241 H 124.684 -0.972835 -1.06169 0
M  V30 1242 H 126.637 -0.578649 -4.17408 0
M  V30 1243 H 125.361 0.258556 -3.25575 0
M  V30 1244 H 124.02 -1.87145 -3.15234 0
M  V30 1245 H 123.668 -0.250145 -5.02378 0
M  V30 1246 H 123.368 -1.92492 -5.55176 0
M  V30 1247 H 124.892 -1.10968 -6.00432 0
M  V30 1248 H 126.306 -3.06349 -4.84586 0
M  V30 1249 H 124.703 -3.82333 -4.62538 0
M  V30 1250 H 125.773 -3.61966 -3.22658 0
M  V30 1251 N 127.117 1.15442 -1.07289 0
M  V30 1252 C 128.08 2.18358 -0.696591 0
M  V30 1253 C 129.08 1.58637 0.262837 0
M  V30 1254 O 130.27 1.74145 0.0438809 0
M  V30 1255 C 127.402 3.4089 -0.0266151 0
M  V30 1256 H 128.595 2.53162 -1.60776 0
M  V30 1257 H 126.148 1.29893 -0.869342 0
M  V30 1258 H 126.883 3.11653 0.896822 0
M  V30 1259 H 126.668 3.85495 -0.716657 0
M  V30 1260 H 128.158 4.17009 0.222028 0
M  V30 1261 N 128.595 0.856903 1.32268 0
M  V30 1262 C 129.525 0.31858 2.31316 0
M  V30 1263 C 130.506 -0.583487 1.59779 0
M  V30 1264 O 131.691 -0.503259 1.87566 0
M  V30 1265 C 128.821 -0.491979 3.43798 0
M  V30 1266 C 127.775 0.315849 4.26833 0
M  V30 1267 C 127.101 -0.619586 5.31098 0
M  V30 1268 C 128.401 1.54282 4.98993 0
M  V30 1269 H 130.095 1.14621 2.76591 0
M  V30 1270 H 127.641 0.552613 1.32974 0
M  V30 1271 H 129.594 -0.879012 4.1213 0
M  V30 1272 H 128.318 -1.35299 2.97257 0
M  V30 1273 H 126.977 0.684664 3.6015 0
M  V30 1274 H 126.625 -1.47751 4.8081 0
M  V30 1275 H 126.325 -0.0830621 5.87541 0
M  V30 1276 H 127.849 -1.00375 6.02293 0
M  V30 1277 H 129.263 1.22796 5.59995 0
M  V30 1278 H 127.66 2.01745 5.65172 0
M  V30 1279 H 128.73 2.30285 4.26728 0
M  V30 1280 N 130.073 -1.45103 0.615059 0
M  V30 1281 C 131.036 -2.29025 -0.0895485 0
M  V30 1282 C 132.036 -1.40174 -0.787906 0
M  V30 1283 O 133.226 -1.62217 -0.634933 0
M  V30 1284 C 130.358 -3.21376 -1.13711 0
M  V30 1285 H 131.551 -2.92807 0.648382 0
M  V30 1286 H 129.104 -1.51749 0.374444 0
M  V30 1287 H 129.839 -2.6241 -1.90556 0
M  V30 1288 H 129.624 -3.86834 -0.640475 0
M  V30 1289 H 131.114 -3.84459 -1.63036 0
M  V30 1290 N 131.551 -0.354651 -1.53558 0
M  V30 1291 C 132.828 0.294281 -1.93374 0
M  V30 1292 C 133.208 1.67313 -1.28723 0
M  V30 1293 O 132.556 2.24179 -0.442247 0
M  V30 1294 C 132.766 0.355445 -3.47185 0
M  V30 1295 C 134.114 0.601007 -4.20325 0
M  V30 1296 O 135.138 0.437106 -3.53508 0
M  V30 1297 O 133.997 0.919322 -5.38712 0
M  V30 1298 H 131.091 0.174033 -0.808481 0
M  V30 1299 H 133.637 -0.406638 -1.64756 0
M  V30 1300 H 132.409 -0.611729 -3.86489 0
M  V30 1301 H 132.032 1.1027 -3.82003 0
M  V30 1302 N 133.029 1.57378 -0.0835403 0
M  V30 1303 C 133.939 2.16897 0.894021 0
M  V30 1304 C 134.955 1.13528 1.31861 0
M  V30 1305 O 136.131 1.45848 1.3889 0
M  V30 1306 C 133.196 2.72831 2.13925 0
M  V30 1307 C 132.257 3.91115 1.76997 0
M  V30 1308 C 131.49 4.44371 2.95584 0
M  V30 1309 O 131.713 3.96596 4.09961 0
M  V30 1310 O 130.647 5.35549 2.74719 0
M  V30 1311 H 134.473 3.00814 0.417679 0
M  V30 1312 H 132.058 1.48741 0.140181 0
M  V30 1313 H 133.94 3.0863 2.86924 0
M  V30 1314 H 132.615 1.91967 2.60635 0
M  V30 1315 H 131.522 3.60148 1.01214 0
M  V30 1316 H 132.855 4.73307 1.3506 0
M  V30 1317 N 134.507 -0.190092 1.56449 0
M  V30 1318 C 135.437 -1.23816 1.97969 0
M  V30 1319 C 136.418 -1.47201 0.852395 0
M  V30 1320 O 137.603 -1.58854 1.1171 0
M  V30 1321 C 134.733 -2.5813 2.3235 0
M  V30 1322 C 133.687 -2.49348 3.47864 0
M  V30 1323 C 133.013 -3.8798 3.67934 0
M  V30 1324 C 134.313 -2.01424 4.81898 0
M  V30 1325 H 136.007 -0.89311 2.85769 0
M  V30 1326 H 133.553 -0.428177 1.37487 0
M  V30 1327 H 135.506 -3.31637 2.59991 0
M  V30 1328 H 134.23 -2.94386 1.41438 0
M  V30 1329 H 132.889 -1.78297 3.20321 0
M  V30 1330 H 132.537 -4.21597 2.74344 0
M  V30 1331 H 132.237 -3.82978 4.45648 0
M  V30 1332 H 133.761 -4.63101 3.97957 0
M  V30 1333 H 135.175 -2.64693 5.08538 0
M  V30 1334 H 133.572 -2.07413 5.63116 0
M  V30 1335 H 134.642 -0.967677 4.75146 0
M  V30 1336 N 135.985 -1.50799 -0.457987 0
M  V30 1337 C 137.232 -1.62442 -1.20908 0
M  V30 1338 C 137.56 -0.330865 -1.91665 0
M  V30 1339 O 136.815 0.68401 -1.83357 0
M  V30 1340 C 137.114 -2.76358 -2.2663 0
M  V30 1341 C 136.78 -4.16378 -1.73033 0
M  V30 1342 C 135.442 -4.54473 -1.58138 0
M  V30 1343 C 137.794 -5.03836 -1.33413 0
M  V30 1344 C 135.122 -5.77754 -1.02065 0
M  V30 1345 C 137.474 -6.27676 -0.78778 0
M  V30 1346 C 136.138 -6.64562 -0.625561 0
M  V30 1347 H 135.408 -0.594417 -0.442435 0
M  V30 1348 H 138.055 -1.84772 -0.503136 0
M  V30 1349 H 136.36 -2.48167 -3.03184 0
M  V30 1350 H 138.057 -2.82568 -2.84528 0
M  V30 1351 H 134.647 -3.86331 -1.85598 0
M  V30 1352 H 138.831 -4.75026 -1.4375 0
M  V30 1353 H 134.087 -6.04997 -0.882547 0
M  V30 1354 H 138.261 -6.94797 -0.472177 0
M  V30 1355 H 135.888 -7.59965 -0.188926 0
M  V30 1356 N 137.463 0.71206 -1.40597 0
M  V30 1357 C 138.396 1.83582 -1.35546 0
M  V30 1358 C 139.374 1.61032 -0.225284 0
M  V30 1359 O 140.558 1.83998 -0.409519 0
M  V30 1360 C 137.685 3.19983 -1.11034 0
M  V30 1361 C 136.731 3.61355 -2.2655 0
M  V30 1362 S 137.564 3.68062 -3.88961 0
M  V30 1363 C 138.72 5.07216 -3.66719 0
M  V30 1364 H 138.953 1.87586 -2.30648 0
M  V30 1365 H 136.486 0.879182 -1.26924 0
M  V30 1366 H 138.444 3.98734 -0.975761 0
M  V30 1367 H 137.105 3.13608 -0.175798 0
M  V30 1368 H 136.298 4.60403 -2.0505 0
M  V30 1369 H 135.9 2.8987 -2.36329 0
M  V30 1370 H 138.192 5.94238 -3.25404 0
M  V30 1371 H 139.135 5.33753 -4.6531 0
M  V30 1372 H 139.543 4.77976 -3.00332 0
M  V30 1373 N 138.941 1.26152 0.944643 0
M  V30 1374 C 139.871 1.09902 2.06019 0
M  V30 1375 C 140.852 0.00519538 1.70099 0
M  V30 1376 O 142.037 0.176583 1.93396 0
M  V30 1377 C 139.167 0.727562 3.39594 0
M  V30 1378 C 138.121 1.77274 3.89561 0
M  V30 1379 C 137.447 1.25569 5.19747 0
M  V30 1380 C 138.747 3.17357 4.14827 0
M  V30 1381 H 140.441 2.03217 2.19871 0
M  V30 1382 H 137.987 0.978452 1.05652 0
M  V30 1383 H 139.94 0.600777 4.17095 0
M  V30 1384 H 138.664 -0.241287 3.25707 0
M  V30 1385 H 137.323 1.88814 3.14237 0
M  V30 1386 H 136.971 0.276783 5.02238 0
M  V30 1387 H 136.671 1.95433 5.54148 0
M  V30 1388 H 138.195 1.1415 5.99835 0
M  V30 1389 H 139.609 3.08914 4.82954 0
M  V30 1390 H 138.006 3.84781 4.60504 0
M  V30 1391 H 139.076 3.63673 3.20734 0
M  V30 1392 N 140.419 -1.14872 1.07899 0
M  V30 1393 C 141.667 -1.85422 0.803941 0
M  V30 1394 C 141.988 -1.83051 -0.67211 0
M  V30 1395 O 141.258 -1.27532 -1.48703 0
M  V30 1396 H 139.838 -0.686537 0.294408 0
M  V30 1397 H 142.5 -1.39226 1.3639 0
M  V30 1398 H 141.596 -2.90399 1.14346 0
M  V30 1399 N 141.898 -0.863906 -1.31812 0
M  V30 1400 C 142.828 -0.330843 -2.31144 0
M  V30 1401 C 143.809 0.575005 -1.60087 0
M  V30 1402 O 144.994 0.493304 -1.8783 0
M  V30 1403 C 142.124 0.47374 -3.44054 0
M  V30 1404 C 141.078 -0.338481 -4.26659 0
M  V30 1405 C 140.404 0.591412 -5.31419 0
M  V30 1406 C 141.704 -1.56926 -4.98168 0
M  V30 1407 H 143.398 -1.16086 -2.75979 0
M  V30 1408 H 140.944 -0.559657 -1.32679 0
M  V30 1409 H 142.897 0.857143 -4.12591 0
M  V30 1410 H 141.621 1.33721 -2.9797 0
M  V30 1411 H 140.28 -0.703754 -3.59782 0
M  V30 1412 H 139.928 1.45199 -4.81587 0
M  V30 1413 H 139.628 0.0519022 -5.87577 0
M  V30 1414 H 141.152 0.97179 -6.02817 0
M  V30 1415 H 142.566 -1.25764 -5.59336 0
M  V30 1416 H 140.963 -2.04739 -5.64094 0
M  V30 1417 H 142.033 -2.32544 -4.25501 0
M  V30 1418 N 143.376 1.44774 -0.622745 0
M  V30 1419 C 144.787 1.85546 -0.207226 0
M  V30 1420 C 145.138 1.52093 1.23944 0
M  V30 1421 O 144.263 0.95492 1.94191 0
M  V30 1422 C 144.858 3.36781 -0.369313 0
M  V30 1423 C 143.417 3.76399 -0.00836847 0
M  V30 1424 C 142.564 2.68664 -0.686651 0
M  V30 1425 H 145.515 1.3536 -0.828454 0
M  V30 1426 H 145.536 3.78453 0.394162 0
M  V30 1427 H 145.048 3.61098 -1.42231 0
M  V30 1428 H 143.149 3.57698 1.04322 0
M  V30 1429 H 143.262 4.7732 -0.412584 0
M  V30 1430 H 141.626 2.54404 -0.122777 0
M  V30 1431 H 142.409 2.95815 -1.74208 0
M  V30 1432 N 144.854 0.36279 1.53368 0
M  V30 1433 C 146.101 -0.227776 2.01215 0
M  V30 1434 C 146.429 -1.49003 1.25014 0
M  V30 1435 O 145.684 -1.92876 0.331236 0
M  V30 1436 C 145.983 -0.568417 3.52851 0
M  V30 1437 C 145.649 0.59918 4.46901 0
M  V30 1438 C 144.311 0.919559 4.72332 0
M  V30 1439 C 146.663 1.38156 5.02556 0
M  V30 1440 C 143.991 2.02434 5.5067 0
M  V30 1441 C 146.343 2.47674 5.821 0
M  V30 1442 C 145.007 2.8025 6.05819 0
M  V30 1443 H 144.277 -0.083349 0.736297 0
M  V30 1444 H 146.924 0.494677 1.85001 0
M  V30 1445 H 145.229 -1.37185 3.66998 0
M  V30 1446 H 146.926 -1.03756 3.87344 0
M  V30 1447 H 143.516 0.339437 4.27254 0
M  V30 1448 H 147.7 1.14729 4.82857 0
M  V30 1449 H 142.956 2.28075 5.67267 0
M  V30 1450 H 147.13 3.08716 6.24234 0
M  V30 1451 H 144.757 3.65979 6.66306 0
M  V30 1452 N 146.332 -1.57332 0.0918853 0
M  V30 1453 C 147.262 -2.16872 -0.865371 0
M  V30 1454 C 148.243 -1.10118 -1.29646 0
M  V30 1455 O 149.428 -1.38242 -1.36392 0
M  V30 1456 C 146.558 -2.74649 -2.12569 0
M  V30 1457 C 145.512 -3.86747 -1.83333 0
M  V30 1458 C 144.838 -4.31212 -3.16166 0
M  V30 1459 C 146.138 -5.10089 -1.1228 0
M  V30 1460 H 147.832 -2.97114 -0.369307 0
M  V30 1461 H 145.378 -1.42918 -0.176194 0
M  V30 1462 H 147.331 -3.14952 -2.7997 0
M  V30 1463 H 146.055 -1.91657 -2.64452 0
M  V30 1464 H 144.714 -3.46978 -1.18331 0
M  V30 1465 H 144.362 -3.45115 -3.6593 0
M  V30 1466 H 144.062 -5.06788 -2.97388 0
M  V30 1467 H 145.586 -4.74146 -3.84731 0
M  V30 1468 H 147 -5.47582 -1.69785 0
M  V30 1469 H 145.397 -5.91073 -1.03693 0
M  V30 1470 H 146.467 -4.84786 -0.105041 0
M  V30 1471 N 147.81 0.181792 -1.56548 0
M  V30 1472 C 148.773 1.20894 -1.94724 0
M  V30 1473 C 149.773 1.37738 -0.829747 0
M  V30 1474 O 150.963 1.35323 -1.09697 0
M  V30 1475 C 148.095 2.57593 -2.23291 0
M  V30 1476 H 149.288 0.882275 -2.86629 0
M  V30 1477 H 146.841 0.423838 -1.50444 0
M  V30 1478 H 147.576 2.95291 -1.34067 0
M  V30 1479 H 147.361 2.46735 -3.04736 0
M  V30 1480 H 148.851 3.31637 -2.53785 0
M  V30 1481 N 149.288 1.51039 0.449983 0
M  V30 1482 C 150.251 1.70863 1.5277 0
M  V30 1483 C 151.251 0.578846 1.5002 0
M  V30 1484 O 152.441 0.846213 1.52266 0
M  V30 1485 C 149.573 1.75341 2.9235 0
M  V30 1486 H 150.766 2.67034 1.36502 0
M  V30 1487 H 148.319 1.40838 0.677812 0
M  V30 1488 H 149.054 0.809383 3.14037 0
M  V30 1489 H 148.839 2.57436 2.95752 0
M  V30 1490 H 150.329 1.92559 3.70555 0
M  V30 1491 N 150.766 -0.704594 1.40972 0
M  V30 1492 C 151.698 -1.82974 1.38033 0
M  V30 1493 C 152.711 -1.60305 0.283931 0
M  V30 1494 O 153.9 -1.69975 0.545042 0
M  V30 1495 C 151 -3.19578 1.12795 0
M  V30 1496 C 150.173 -3.69352 2.34302 0
M  V30 1497 C 149.232 -4.84601 2.05058 0
M  V30 1498 O 148.258 -4.96682 2.7802 0
M  V30 1499 N 149.46 -5.71194 1.03528 0
M  V30 1500 H 152.225 -1.85991 2.35005 0
M  V30 1501 H 149.786 -0.886567 1.35468 0
M  V30 1502 H 151.778 -3.9429 0.911987 0
M  V30 1503 H 150.348 -3.11642 0.24452 0
M  V30 1504 H 149.568 -2.85649 2.71659 0
M  V30 1505 H 150.856 -3.99345 3.1528 0
M  V30 1506 H 150.254 -5.64054 0.431217 0
M  V30 1507 H 148.811 -6.45843 0.879205 0
M  V30 1508 N 152.244 -1.26651 -0.937939 0
M  V30 1509 C 153.192 -1.08308 -2.05845 0
M  V30 1510 C 154.186 -0.0090757 -1.69398 0
M  V30 1511 O 155.392 -0.166007 -1.79233 0
M  V30 1512 H 151.767 -0.333416 -0.674046 0
M  V30 1513 H 153.738 -2.03261 -2.18467 0
M  V30 1514 C 152.487 -0.736229 -3.39816 0
M  V30 1515 H 151.81 -1.55453 -3.6834 0
M  V30 1516 H 153.25 -0.64769 -4.19024 0
M  V30 1517 C 151.709 0.558824 -3.32233 0
M  V30 1518 O 152.239 1.59621 -3.68624 0
M  V30 1519 N 150.445 0.550657 -2.85335 0
M  V30 1520 H 149.992 -0.293943 -2.55917 0
M  V30 1521 H 149.95 1.41726 -2.80644 0
M  V30 1522 N 153.722 1.14298 -1.08507 0
M  V30 1523 C 154.685 2.17607 -0.719711 0
M  V30 1524 C 155.685 1.58907 0.245997 0
M  V30 1525 O 156.875 1.74181 0.0254081 0
M  V30 1526 C 154.007 3.40842 -0.0627695 0
M  V30 1527 H 155.2 2.51443 -1.63452 0
M  V30 1528 H 152.753 1.28963 -0.88307 0
M  V30 1529 H 153.488 3.12587 0.863716 0
M  V30 1530 H 153.273 3.84713 -0.757504 0
M  V30 1531 H 154.763 4.17221 0.177786 0
M  V30 1532 N 155.201 0.870884 1.31352 0
M  V30 1533 C 156.131 0.343096 2.30966 0
M  V30 1534 C 157.112 -0.566507 1.60389 0
M  V30 1535 O 158.297 -0.483336 1.88089 0
M  V30 1536 C 155.427 -0.455487 3.443 0
M  V30 1537 C 154.381 0.361103 4.26474 0
M  V30 1538 C 153.707 -0.563221 5.31725 0
M  V30 1539 C 155.007 1.59566 4.97329 0
M  V30 1540 H 156.701 1.17548 2.75359 0
M  V30 1541 H 154.247 0.566686 1.32381 0
M  V30 1542 H 156.2 -0.83525 4.13039 0
M  V30 1543 H 154.924 -1.32139 2.98675 0
M  V30 1544 H 153.583 0.722825 3.59403 0
M  V30 1545 H 153.231 -1.42643 4.82351 0
M  V30 1546 H 152.931 -0.0207409 5.87596 0
M  V30 1547 H 154.455 -0.939808 6.03324 0
M  V30 1548 H 155.869 1.28728 5.58661 0
M  V30 1549 H 154.266 2.07728 5.63 0
M  V30 1550 H 155.336 2.34798 4.24262 0
M  V30 1551 N 156.679 -1.44442 0.630414 0
M  V30 1552 C 157.904 -2.06927 0.139944 0
M  V30 1553 C 158.329 -1.46795 -1.17613 0
M  V30 1554 O 157.687 -0.569144 -1.72135 0
M  V30 1555 C 157.735 -3.6058 0.0379581 0
M  V30 1556 O 156.839 -3.99937 -1.0062 0
M  V30 1557 H 156.18 -0.658608 0.0844483 0
M  V30 1558 H 158.71 -1.85327 0.866891 0
M  V30 1559 H 158.72 -4.07714 -0.152856 0
M  V30 1560 H 157.395 -4.03728 0.998809 0
M  V30 1561 H 155.972 -3.64436 -0.79001 0
M  V30 1562 N 158.157 -0.370918 -1.53173 0
M  V30 1563 C 159.387 0.217389 -2.05453 0
M  V30 1564 C 159.795 1.42568 -1.24382 0
M  V30 1565 O 159.138 1.81571 -0.278839 0
M  V30 1566 C 159.2 0.669827 -3.53205 0
M  V30 1567 C 158.864 -0.4225 -4.55043 0
M  V30 1568 C 159.861 -1.27407 -5.04047 0
M  V30 1569 C 157.546 -0.58427 -4.9889 0
M  V30 1570 C 159.54 -2.27271 -5.95505 0
M  V30 1571 C 157.227 -1.58627 -5.90153 0
M  V30 1572 C 158.225 -2.42892 -6.38351 0
M  V30 1573 O 157.913 -3.41382 -7.27814 0
M  V30 1574 H 157.645 0.0408171 -0.674767 0
M  V30 1575 H 160.199 -0.5292 -1.98466 0
M  V30 1576 H 158.429 1.4681 -3.57748 0
M  V30 1577 H 160.118 1.18173 -3.88317 0
M  V30 1578 H 160.884 -1.16031 -4.70916 0
M  V30 1579 H 156.763 0.061851 -4.60959 0
M  V30 1580 H 160.307 -2.93079 -6.33049 0
M  V30 1581 H 156.204 -1.70048 -6.22699 0
M  V30 1582 H 156.972 -3.37173 -7.45826 0
M  V30 1583 N 159.635 1.57281 -0.100228 0
M  V30 1584 C 160.881 1.95626 0.556946 0
M  V30 1585 C 161.236 0.981655 1.65473 0
M  V30 1586 O 160.529 0.00849847 1.91598 0
M  V30 1587 C 160.723 3.38305 1.15259 0
M  V30 1588 C 160.552 4.49555 0.114035 0
M  V30 1589 C 159.322 5.0434 -0.311266 0
M  V30 1590 C 161.52 5.10051 -0.659768 0
M  V30 1591 N 159.502 5.99152 -1.33755 0
M  V30 1592 C 160.873 6.00628 -1.53774 0
M  V30 1593 C 162.928 4.92772 -0.712723 0
M  V30 1594 C 161.631 6.7578 -2.46403 0
M  V30 1595 C 163.657 5.6859 -1.62663 0
M  V30 1596 C 163.019 6.58838 -2.49222 0
M  V30 1597 H 159.118 0.7624 0.173982 0
M  V30 1598 H 161.702 1.93829 -0.183988 0
M  V30 1599 H 159.873 3.40786 1.86332 0
M  V30 1600 H 161.605 3.63817 1.77254 0
M  V30 1601 H 158.36 4.73537 0.0774812 0
M  V30 1602 H 158.784 6.5126 -1.84905 0
M  V30 1603 H 163.426 4.22761 -0.0576648 0
M  V30 1604 H 161.144 7.4505 -3.12931 0
M  V30 1605 H 164.73 5.57233 -1.67281 0
M  V30 1606 H 163.61 7.16479 -3.18791 0
M  V30 1607 N 161.113 -0.173488 1.56642 0
M  V30 1608 C 162.524 -0.736155 1.71574 0
M  V30 1609 C 162.875 -1.82888 0.710389 0
M  V30 1610 O 162 -2.16017 -0.1287 0
M  V30 1611 C 162.595 -1.34211 3.11083 0
M  V30 1612 C 161.154 -1.85162 3.27707 0
M  V30 1613 C 160.301 -0.729765 2.67525 0
M  V30 1614 H 163.252 0.0518786 1.58615 0
M  V30 1615 H 163.273 -2.21178 3.09613 0
M  V30 1616 H 162.785 -0.546579 3.84232 0
M  V30 1617 H 160.886 -2.67366 2.59512 0
M  V30 1618 H 160.999 -1.99855 4.35425 0
M  V30 1619 H 159.363 -1.14965 2.27278 0
M  V30 1620 H 160.146 0.0538806 3.43258 0
M  V30 1621 N 162.591 -1.51276 -0.441967 0
M  V30 1622 C 163.838 -1.63715 -1.19179 0
M  V30 1623 C 164.166 -0.351175 -1.91303 0
M  V30 1624 O 163.421 0.664524 -1.84072 0
M  V30 1625 C 163.72 -2.78746 -2.23686 0
M  V30 1626 C 163.386 -4.18189 -1.68607 0
M  V30 1627 C 162.048 -4.56125 -1.53308 0
M  V30 1628 C 164.4 -5.05222 -1.28062 0
M  V30 1629 C 161.728 -5.78804 -0.959317 0
M  V30 1630 C 164.08 -6.28476 -0.721162 0
M  V30 1631 C 162.744 -6.65188 -0.55504 0
M  V30 1632 H 162.014 -0.599076 -0.436106 0
M  V30 1633 H 164.661 -1.85296 -0.48351 0
M  V30 1634 H 162.966 -2.51369 -3.00535 0
M  V30 1635 H 164.663 -2.8557 -2.81515 0
M  V30 1636 H 161.253 -3.88277 -1.8149 0
M  V30 1637 H 165.437 -4.76524 -1.38704 0
M  V30 1638 H 160.693 -6.05899 -0.81833 0
M  V30 1639 H 164.867 -6.95259 -0.398458 0
M  V30 1640 H 162.494 -7.60123 -0.108311 0
M  V30 1641 N 164.069 0.697108 -1.41344 0
M  V30 1642 C 165.317 1.45426 -1.40341 0
M  V30 1643 C 165.638 1.94996 -0.0128787 0
M  V30 1644 O 164.908 1.71599 0.945027 0
M  V30 1645 H 163.488 0.539594 -0.516573 0
M  V30 1646 H 166.15 0.825201 -1.76569 0
M  V30 1647 H 165.246 2.31817 -2.08967 0
M  V30 1648 N 165.547 1.27147 0.931209 0
M  V30 1649 C 166.772 1.16191 1.71797 0
M  V30 1650 C 167.197 -0.278004 1.86034 0
M  V30 1651 O 166.555 -1.20137 1.35782 0
M  V30 1652 C 166.603 1.84673 3.09723 0
M  V30 1653 O 165.707 1.14231 3.96264 0
M  V30 1654 H 165.048 0.404303 0.526721 0
M  V30 1655 H 167.578 1.68152 1.1656 0
M  V30 1656 H 167.588 1.91893 3.60057 0
M  V30 1657 H 166.263 2.89421 2.98677 0
M  V30 1658 H 164.84 1.15056 3.54706 0
M  V30 1659 N 167.025 -1.13721 1.09112 0
M  V30 1660 C 167.955 -2.21148 0.749385 0
M  V30 1661 C 168.936 -1.6792 -0.271475 0
M  V30 1662 O 170.121 -1.93693 -0.140251 0
M  V30 1663 C 167.251 -3.46905 0.165659 0
M  V30 1664 C 166.205 -4.13203 1.11567 0
M  V30 1665 C 165.531 -5.33248 0.393809 0
M  V30 1666 C 166.831 -4.60912 2.45678 0
M  V30 1667 H 168.525 -2.4999 1.64758 0
M  V30 1668 H 166.071 -1.20156 0.793626 0
M  V30 1669 H 168.024 -4.21313 -0.085466 0
M  V30 1670 H 166.748 -3.17449 -0.767714 0
M  V30 1671 H 165.407 -3.40758 1.35202 0
M  V30 1672 H 165.055 -5.00054 -0.543599 0
M  V30 1673 H 164.755 -5.78552 1.02721 0
M  V30 1674 H 166.279 -6.10413 0.150908 0
M  V30 1675 H 167.693 -5.26759 2.26269 0
M  V30 1676 H 166.09 -5.16944 3.04776 0
M  V30 1677 H 167.16 -3.75603 3.06677 0
M  V30 1678 N 168.503 -0.877838 -1.30888 0
M  V30 1679 C 169.436 -0.283995 -2.26426 0
M  V30 1680 C 170.414 0.591361 -1.51465 0
M  V30 1681 O 171.598 0.54304 -1.80509 0
M  V30 1682 C 168.725 0.597129 -3.33395 0
M  V30 1683 C 167.771 -0.207937 -4.25993 0
M  V30 1684 S 168.604 -1.59158 -5.11301 0
M  V30 1685 C 169.76 -0.716791 -6.21782 0
M  V30 1686 H 169.993 -1.09383 -2.76446 0
M  V30 1687 H 167.526 -0.676828 -1.38775 0
M  V30 1688 H 169.484 1.09978 -3.95493 0
M  V30 1689 H 168.145 1.38099 -2.82113 0
M  V30 1690 H 167.338 0.464163 -5.01858 0
M  V30 1691 H 166.94 -0.642963 -3.68432 0
M  V30 1692 H 169.232 0.0692833 -6.77465 0
M  V30 1693 H 170.175 -1.44682 -6.93161 0
M  V30 1694 H 170.583 -0.280855 -5.63801 0
M  V30 1695 N 169.982 1.44106 -0.638065 0
M  V30 1696 C 171.222 2.03858 -0.148733 0
M  V30 1697 C 171.586 1.49153 1.20903 0
M  V30 1698 O 172.787 2.00452 1.79088 0
M  V30 1699 C 171.058 3.57117 -0.142314 0
M  V30 1700 S 172.617 4.37897 0.281385 0
M  V30 1701 H 169.435 0.708069 -0.0644912 0
M  V30 1702 H 172.037 1.7639 -0.843009 0
M  V30 1703 H 170.741 3.94436 -1.13349 0
M  V30 1704 H 170.272 3.89205 0.572988 0
M  V30 1705 H 172.287 4.72218 1.52395 0
M  V30 1706 N 171.46 0.379036 1.52974 0
M  V30 1707 C 172.876 0.0285448 1.59574 0
M  V30 1708 C 173.076 -1.45542 1.39355 0
M  V30 1709 O 172.132 -2.2187 1.20541 0
M  V30 1710 C 173.445 0.496535 2.96572 0
M  V30 1711 C 174.993 0.451909 3.0972 0
M  V30 1712 C 175.468 0.895924 4.49152 0
M  V30 1713 N 176.959 0.851522 4.55306 0
M  V30 1714 C 177.694 1.16661 5.61407 0
M  V30 1715 N 177.19 1.55166 6.752 0
M  V30 1716 N 178.983 1.08853 5.51459 0
M  V30 1717 H 171.134 1.34525 1.64367 0
M  V30 1718 H 173.397 0.550733 0.771619 0
M  V30 1719 H 173.103 1.53258 3.16552 0
M  V30 1720 H 172.977 -0.109802 3.7704 0
M  V30 1721 H 175.364 -0.575029 2.89443 0
M  V30 1722 H 175.445 1.09392 2.3123 0
M  V30 1723 H 175.089 1.92104 4.70168 0
M  V30 1724 H 175.019 0.23103 5.26093 0
M  V30 1725 H 177.51 0.568038 3.73606 0
M  V30 1726 H 177.823 1.776 7.52116 0
M  V30 1727 H 176.168 1.59044 6.76557 0
M  V30 1728 H 179.359 0.786803 4.6144 0
M  V30 1729 H 179.532 1.33742 6.34048 0
M  V30 1730 N 172.938 -1.57226 0.108567 0
M  V30 1731 C 173.868 -2.17778 -0.84232 0
M  V30 1732 C 174.849 -1.11487 -1.2847 0
M  V30 1733 O 176.034 -1.39681 -1.34918 0
M  V30 1734 C 173.164 -2.76888 -2.09644 0
M  V30 1735 C 172.118 -3.88669 -1.79221 0
M  V30 1736 C 171.444 -4.34541 -3.11574 0
M  V30 1737 C 172.744 -5.11251 -1.06864 0
M  V30 1738 H 174.438 -2.97489 -0.337774 0
M  V30 1739 H 171.984 -1.43097 -0.161025 0
M  V30 1740 H 173.937 -3.17904 -2.76614 0
M  V30 1741 H 172.661 -1.94451 -2.62405 0
M  V30 1742 H 171.32 -3.48213 -1.14644 0
M  V30 1743 H 170.968 -3.48977 -3.62249 0
M  V30 1744 H 170.668 -5.09914 -2.91996 0
M  V30 1745 H 172.192 -4.782 -3.7968 0
M  V30 1746 H 173.606 -5.49352 -1.63968 0
M  V30 1747 H 172.003 -5.9214 -0.974178 0
M  V30 1748 H 173.073 -4.8487 -0.0536168 0
M  V30 1749 N 174.416 0.165178 -1.56732 0
M  V30 1750 C 175.662 0.882112 -1.82611 0
M  V30 1751 C 175.995 1.81628 -0.687378 0
M  V30 1752 O 175.27 1.92009 0.310267 0
M  V30 1753 C 175.553 1.67245 -3.18906 0
M  V30 1754 C 175.406 0.760987 -4.43316 0
M  V30 1755 C 176.725 2.63884 -3.52212 0
M  V30 1756 H 173.844 0.319242 -0.664269 0
M  V30 1757 H 176.486 0.148052 -1.89422 0
M  V30 1758 H 174.636 2.29824 -3.1323 0
M  V30 1759 H 176.308 0.147596 -4.61064 0
M  V30 1760 H 174.551 0.0694102 -4.33744 0
M  V30 1761 H 175.222 1.34962 -5.35247 0
M  V30 1762 H 177.698 2.11429 -3.58381 0
M  V30 1763 H 176.574 3.16245 -4.48643 0
M  V30 1764 H 176.835 3.44377 -2.77231 0
M  V30 1765 N 175.894 1.51508 0.433938 0
M  V30 1766 C 176.827 1.67756 1.54704 0
M  V30 1767 C 177.805 0.525127 1.53887 0
M  V30 1768 O 178.989 0.749393 1.72963 0
M  V30 1769 C 176.116 1.69424 2.9328 0
M  V30 1770 C 175.162 2.90673 3.12108 0
M  V30 1771 S 175.995 4.51431 2.88046 0
M  V30 1772 C 177.151 4.55849 4.28897 0
M  V30 1773 H 177.384 2.61904 1.40689 0
M  V30 1774 H 174.917 1.41235 0.62386 0
M  V30 1775 H 176.875 1.7107 3.73156 0
M  V30 1776 H 175.536 0.764464 3.04655 0
M  V30 1777 H 174.729 2.88251 4.13434 0
M  V30 1778 H 174.331 2.86786 2.40062 0
M  V30 1779 H 176.623 4.31699 5.22152 0
M  V30 1780 H 177.566 5.57676 4.36351 0
M  V30 1781 H 177.974 3.85137 4.12711 0
M  V30 1782 N 177.372 -0.689602 1.41712 0
M  V30 1783 C 178.335 -1.78521 1.43746 0
M  V30 1784 C 179.335 -1.57436 0.327191 0
M  V30 1785 O 180.525 -1.64 0.587348 0
M  V30 1786 C 177.657 -3.16971 1.25467 0
M  V30 1787 H 178.85 -1.78108 2.41283 0
M  V30 1788 H 176.403 -0.89781 1.27942 0
M  V30 1789 H 177.138 -3.23019 0.287948 0
M  V30 1790 H 176.923 -3.33678 2.05917 0
M  V30 1791 H 178.413 -3.96935 1.2974 0
M  V30 1792 N 178.85 -1.27639 -0.924453 0
M  V30 1793 C 180.096 -1.14336 -1.67497 0
M  V30 1794 C 180.429 0.309465 -1.91718 0
M  V30 1795 O 179.704 1.22608 -1.50989 0
M  V30 1796 C 179.987 -1.93096 -3.0395 0
M  V30 1797 C 179.84 -3.46381 -2.8695 0
M  V30 1798 C 181.159 -1.73798 -4.0433 0
M  V30 1799 H 178.278 -0.416728 -0.607871 0
M  V30 1800 H 180.92 -1.56832 -1.07256 0
M  V30 1801 H 179.07 -1.56982 -3.55372 0
M  V30 1802 H 180.742 -3.92343 -2.42621 0
M  V30 1803 H 178.985 -3.72557 -2.22225 0
M  V30 1804 H 179.656 -3.96735 -3.83804 0
M  V30 1805 H 182.132 -2.05293 -3.61931 0
M  V30 1806 H 181.008 -2.31294 -4.97789 0
M  V30 1807 H 181.269 -0.686725 -4.36734 0
M  V30 1808 N 180.328 1.1314 -1.09713 0
M  V30 1809 C 181.605 1.80762 -0.747302 0
M  V30 1810 C 181.985 1.96663 0.767265 0
M  V30 1811 O 181.333 1.53706 1.69076 0
M  V30 1812 C 181.543 3.15606 -1.48975 0
M  V30 1813 C 182.891 3.90914 -1.65746 0
M  V30 1814 O 183.915 3.25239 -1.45251 0
M  V30 1815 O 182.774 5.08718 -1.9967 0
M  V30 1816 H 179.868 0.782103 -0.268782 0
M  V30 1817 H 182.414 1.20041 -1.19951 0
M  V30 1818 H 181.186 2.99278 -2.52088 0
M  V30 1819 H 180.809 3.84029 -1.02991 0
M  V30 1820 N 181.806 0.884767 1.30421 0
M  V30 1821 C 183.054 0.502112 1.95763 0
M  V30 1822 C 183.375 -0.951815 1.70192 0
M  V30 1823 O 182.645 -1.6692 1.0254 0
M  V30 1824 H 181.225 0.182694 0.724315 0
M  V30 1825 H 183.887 1.1278 1.58955 0
M  V30 1826 H 182.983 0.672188 3.04775 0
M  V30 1827 N 183.284 -1.43765 0.645699 0
M  V30 1828 C 184.533 -2.01116 0.153412 0
M  V30 1829 C 184.846 -1.51493 -1.23731 0
M  V30 1830 O 186.052 -2.01067 -1.8244 0
M  V30 1831 C 184.508 -3.59206 0.223473 0
M  V30 1832 C 184.116 -4.17823 1.61642 0
M  V30 1833 C 185.86 -4.23972 -0.211597 0
M  V30 1834 C 183.767 -5.68183 1.64081 0
M  V30 1835 H 182.697 -0.752093 0.0535891 0
M  V30 1836 H 185.348 -1.6482 0.806633 0
M  V30 1837 H 183.73 -3.92867 -0.497118 0
M  V30 1838 H 184.904 -3.95674 2.36176 0
M  V30 1839 H 183.219 -3.65399 1.99681 0
M  V30 1840 H 185.816 -5.34275 -0.213112 0
M  V30 1841 H 186.159 -3.97352 -1.24165 0
M  V30 1842 H 186.692 -3.95166 0.456988 0
M  V30 1843 H 183.431 -5.99559 2.64971 0
M  V30 1844 H 182.951 -5.9241 0.938611 0
M  V30 1845 H 184.63 -6.32085 1.3812 0
M  V30 1846 N 184.763 -0.387143 -1.52771 0
M  V30 1847 C 185.711 0.463953 -2.27926 0
M  V30 1848 C 186.705 1.06493 -1.31741 0
M  V30 1849 O 187.911 1.00565 -1.49287 0
M  V30 1850 H 184.286 0.16837 -0.732909 0
M  V30 1851 H 186.257 -0.19141 -2.97785 0
M  V30 1852 C 185.006 1.5803 -3.09713 0
M  V30 1853 H 184.329 1.12718 -3.83581 0
M  V30 1854 H 185.769 2.15008 -3.65442 0
M  V30 1855 C 184.228 2.53509 -2.2189 0
M  V30 1856 O 184.758 3.56863 -1.84422 0
M  V30 1857 N 182.964 2.23199 -1.86093 0
M  V30 1858 H 182.511 1.39185 -2.16761 0
M  V30 1859 H 182.469 2.87333 -1.27621 0
M  V30 1860 N 186.241 1.57166 -0.116904 0
M  V30 1861 C 187.173 2.12271 0.864507 0
M  V30 1862 C 188.186 1.06494 1.23138 0
M  V30 1863 O 189.375 1.33873 1.18069 0
M  V30 1864 C 186.475 2.60564 2.16702 0
M  V30 1865 C 185.648 3.90416 1.97216 0
M  V30 1866 C 184.707 4.24329 3.11178 0
M  V30 1867 O 183.733 4.93182 2.84184 0
M  V30 1868 N 184.935 3.8148 4.37554 0
M  V30 1869 H 187.7 2.97102 0.393726 0
M  V30 1870 H 185.261 1.61759 0.0675805 0
M  V30 1871 H 187.253 2.80282 2.91932 0
M  V30 1872 H 185.823 1.80623 2.55135 0
M  V30 1873 H 185.043 3.79627 1.06192 0
M  V30 1874 H 186.331 4.75327 1.81499 0
M  V30 1875 H 185.729 3.25943 4.62361 0
M  V30 1876 H 184.286 4.06311 5.09661 0
M  V30 1877 N 187.719 -0.156864 1.56817 0
M  V30 1878 C 188.966 -0.871125 1.82805 0
M  V30 1879 C 189.294 -1.81611 0.696262 0
M  V30 1880 O 188.549 -1.93141 -0.315459 0
M  V30 1881 C 188.848 -1.68737 3.1506 0
M  V30 1882 C 188.514 -0.890045 4.42028 0
M  V30 1883 C 187.176 -0.670042 4.76512 0
M  V30 1884 C 189.528 -0.331769 5.20143 0
M  V30 1885 C 186.856 0.119104 5.86579 0
M  V30 1886 C 189.208 0.444365 6.31037 0
M  V30 1887 C 187.872 0.675035 6.64078 0
M  V30 1888 H 187.142 -0.318767 0.668931 0
M  V30 1889 H 189.789 -0.135274 1.91022 0
M  V30 1890 H 188.094 -2.49304 3.0225 0
M  V30 1891 H 189.791 -2.24331 3.3238 0
M  V30 1892 H 186.381 -1.07157 4.14988 0
M  V30 1893 H 190.565 -0.489043 4.93885 0
M  V30 1894 H 185.821 0.307417 6.10627 0
M  V30 1895 H 189.995 0.884139 6.90765 0
M  V30 1896 H 187.622 1.28839 7.49203 0
M  V30 1897 N 189.197 -1.51736 -0.425897 0
M  V30 1898 C 190.425 -1.68794 -1.1965 0
M  V30 1899 C 190.84 -0.390164 -1.84725 0
M  V30 1900 O 190.197 0.632376 -1.71194 0
M  V30 1901 C 190.248 -2.81174 -2.27208 0
M  V30 1902 O 189.969 -4.05925 -1.64793 0
M  V30 1903 C 191.47 -3.09599 -3.17275 0
M  V30 1904 H 188.69 -0.566128 -0.360194 0
M  V30 1905 H 191.234 -1.98211 -0.503249 0
M  V30 1906 H 189.389 -2.54324 -2.9223 0
M  V30 1907 H 189.803 -4.68423 -2.35967 0
M  V30 1908 H 191.277 -3.91786 -3.88854 0
M  V30 1909 H 191.754 -2.22468 -3.78688 0
M  V30 1910 H 192.36 -3.38151 -2.57941 0
M  V30 1911 N 190.675 0.682077 -1.42076 0
M  V30 1912 C 191.9 1.47558 -1.45744 0
M  V30 1913 C 192.325 1.87977 -0.0680981 0
M  V30 1914 O 191.683 1.55522 0.9318 0
M  V30 1915 C 191.731 2.70575 -2.38373 0
M  V30 1916 O 190.835 3.68573 -1.85007 0
M  V30 1917 H 190.176 0.443585 -0.494093 0
M  V30 1918 H 192.706 0.837238 -1.86686 0
M  V30 1919 H 192.716 3.18729 -2.54707 0
M  V30 1920 H 191.391 2.40495 -3.39315 0
M  V30 1921 H 189.968 3.2757 -1.78192 0
M  V30 1922 N 192.153 1.28127 0.917671 0
M  V30 1923 C 193.402 1.14432 1.66097 0
M  V30 1924 C 193.715 -0.307247 1.93172 0
M  V30 1925 O 194.921 -0.565259 2.65551 0
M  V30 1926 C 193.377 2.00015 2.99202 0
M  V30 1927 C 192.985 3.49889 2.79789 0
M  V30 1928 C 194.729 1.94996 3.77064 0
M  V30 1929 C 192.636 4.27636 4.08511 0
M  V30 1930 H 191.566 0.424662 0.62304 0
M  V30 1931 H 194.217 1.52628 1.01868 0
M  V30 1932 H 192.599 1.54672 3.64544 0
M  V30 1933 H 193.773 4.03162 2.23152 0
M  V30 1934 H 192.088 3.56392 2.15345 0
M  V30 1935 H 194.685 2.50354 4.72469 0
M  V30 1936 H 195.028 0.925819 4.05875 0
M  V30 1937 H 195.561 2.38287 3.18534 0
M  V30 1938 H 192.3 5.30615 3.84874 0
M  V30 1939 H 191.82 3.79137 4.64774 0
M  V30 1940 H 193.499 4.37346 4.76799 0
M  V30 1941 N 193.631 -1.12557 1.10312 0
M  V30 1942 C 194.878 -1.84038 0.844759 0
M  V30 1943 C 195.206 -1.84026 -0.629668 0
M  V30 1944 O 194.461 -1.28026 -1.48013 0
M  V30 1945 C 194.76 -3.31462 1.33669 0
M  V30 1946 C 194.426 -3.51647 2.82232 0
M  V30 1947 C 193.088 -3.56864 3.22802 0
M  V30 1948 C 195.44 -3.58867 3.77974 0
M  V30 1949 C 192.768 -3.66844 4.57867 0
M  V30 1950 C 195.12 -3.70375 5.1284 0
M  V30 1951 C 193.784 -3.73848 5.52986 0
M  V30 1952 H 193.054 -0.673444 0.309119 0
M  V30 1953 H 195.701 -1.32824 1.37949 0
M  V30 1954 H 194.006 -3.85091 0.721949 0
M  V30 1955 H 195.703 -3.85236 1.11329 0
M  V30 1956 H 192.293 -3.48249 2.49842 0
M  V30 1957 H 196.477 -3.54107 3.47738 0
M  V30 1958 H 191.733 -3.67804 4.88396 0
M  V30 1959 H 195.907 -3.74904 5.86873 0
M  V30 1960 H 193.534 -3.81333 6.57639 0
M  V30 1961 N 195.109 -0.891671 -1.2995 0
M  V30 1962 C 196.349 -0.520296 -1.97667 0
M  V30 1963 C 196.713 0.914797 -1.68806 0
M  V30 1964 O 197.914 1.39263 -2.29911 0
M  V30 1965 C 196.185 -0.795222 -3.48441 0
M  V30 1966 S 197.744 -0.526953 -4.35624 0
M  V30 1967 H 194.562 -0.19333 -0.684211 0
M  V30 1968 H 197.164 -1.15238 -1.57926 0
M  V30 1969 H 195.868 -1.83805 -3.66938 0
M  V30 1970 H 195.399 -0.15095 -3.9311 0
M  V30 1971 H 197.414 0.631533 -4.92165 0
M  V30 1972 N 196.587 1.43421 -0.653314 0
M  V30 1973 C 197.517 2.33487 0.0246656 0
M  V30 1974 C 198.498 1.49475 0.811863 0
M  V30 1975 O 199.683 1.78139 0.773322 0
M  V30 1976 C 196.813 3.32841 0.99166 0
M  V30 1977 C 195.767 4.26842 0.314568 0
M  V30 1978 C 195.093 5.16236 1.39302 0
M  V30 1979 C 196.393 5.16243 -0.793095 0
M  V30 1980 H 198.087 2.90427 -0.727481 0
M  V30 1981 H 195.633 1.39649 -0.351287 0
M  V30 1982 H 197.586 3.94747 1.47487 0
M  V30 1983 H 196.31 2.74158 1.77497 0
M  V30 1984 H 194.969 3.663 -0.148199 0
M  V30 1985 H 194.617 4.53891 2.16776 0
M  V30 1986 H 194.317 5.79948 0.945223 0
M  V30 1987 H 195.841 5.81015 1.87759 0
M  V30 1988 H 197.255 5.71958 -0.392039 0
M  V30 1989 H 195.652 5.88676 -1.16536 0
M  V30 1990 H 196.722 4.55927 -1.65103 0
M  V30 1991 N 198.065 0.39524 1.52563 0
M  V30 1992 C 199.293 -0.184943 2.06072 0
M  V30 1993 C 199.708 -1.40021 1.26647 0
M  V30 1994 O 199.065 -1.79767 0.314672 0
M  V30 1995 C 199.116 -0.549179 3.57304 0
M  V30 1996 O 198.837 0.617813 4.33722 0
M  V30 1997 C 200.338 -1.18459 4.2718 0
M  V30 1998 H 197.558 -0.0265025 0.670476 0
M  V30 1999 H 200.102 0.562184 1.96621 0
M  V30 2000 H 198.257 -1.2462 3.66809 0
M  V30 2001 H 198.671 0.317091 5.23541 0
M  V30 2002 H 200.145 -1.38976 5.34219 0
M  V30 2003 H 200.622 -2.15368 3.82771 0
M  V30 2004 H 201.228 -0.528163 4.22008 0
M  V30 2005 N 199.544 -1.57102 0.125237 0
M  V30 2006 C 200.79 -1.95697 -0.532035 0
M  V30 2007 C 201.123 -1.009 -1.6593 0
M  V30 2008 O 200.398 -0.047347 -1.94442 0
M  V30 2009 C 200.681 -3.44181 -1.05884 0
M  V30 2010 C 200.534 -4.49752 0.0654392 0
M  V30 2011 C 201.853 -3.94655 -1.9477 0
M  V30 2012 H 198.972 -0.711571 -0.191925 0
M  V30 2013 H 201.614 -1.88923 0.20206 0
M  V30 2014 H 199.764 -3.50085 -1.68442 0
M  V30 2015 H 201.436 -4.55943 0.700982 0
M  V30 2016 H 199.679 -4.27653 0.727709 0
M  V30 2017 H 200.35 -5.50924 -0.344505 0
M  V30 2018 H 202.826 -3.91094 -1.42074 0
M  V30 2019 H 201.702 -4.99057 -2.28546 0
M  V30 2020 H 201.963 -3.35718 -2.87656 0
M  V30 2021 N 201.022 0.148545 -1.56898 0
M  V30 2022 C 201.955 1.21293 -1.93296 0
M  V30 2023 C 202.933 1.41637 -0.798599 0
M  V30 2024 O 204.117 1.56275 -1.05406 0
M  V30 2025 C 201.244 2.5721 -2.20365 0
M  V30 2026 C 200.29 2.53469 -3.4301 0
M  V30 2027 S 201.123 2.00315 -4.96623 0
M  V30 2028 C 202.279 3.37964 -5.26812 0
M  V30 2029 H 202.512 0.902393 -2.83274 0
M  V30 2030 H 200.045 0.354094 -1.50285 0
M  V30 2031 H 202.003 3.35427 -2.36641 0
M  V30 2032 H 200.664 2.85454 -1.31054 0
M  V30 2033 H 199.857 3.53518 -3.59223 0
M  V30 2034 H 199.459 1.83359 -3.25968 0
M  V30 2035 H 201.751 4.34066 -5.20185 0
M  V30 2036 H 202.694 3.26606 -6.28279 0
M  V30 2037 H 203.102 3.35028 -4.54331 0
M  V30 2038 N 202.5 1.5196 0.417844 0
M  V30 2039 C 203.725 1.69717 1.1921 0
M  V30 2040 C 204.15 0.402148 1.83751 0
M  V30 2041 O 203.508 -0.639593 1.69643 0
M  V30 2042 C 203.556 2.82794 2.2374 0
M  V30 2043 O 202.66 2.47756 3.29683 0
M  V30 2044 H 202.001 0.565263 0.348387 0
M  V30 2045 H 204.531 1.98621 0.490985 0
M  V30 2046 H 204.541 3.07452 2.68212 0
M  V30 2047 H 203.216 3.76756 1.76146 0
M  V30 2048 H 201.793 2.33739 2.90552 0
M  V30 2049 N 203.978 -0.674533 1.42435 0
M  V30 2050 C 205.224 -1.43671 1.43131 0
M  V30 2051 C 205.557 -1.94142 0.0476021 0
M  V30 2052 O 204.832 -1.70924 -0.928188 0
M  V30 2053 C 205.115 -2.63355 2.45594 0
M  V30 2054 C 204.968 -2.18514 3.93156 0
M  V30 2055 C 206.287 -3.65571 2.45043 0
M  V30 2056 H 203.406 -0.521077 0.521198 0
M  V30 2057 H 206.048 -0.766551 1.7385 0
M  V30 2058 H 204.198 -3.2053 2.19528 0
M  V30 2059 H 205.87 -1.66504 4.30202 0
M  V30 2060 H 204.113 -1.50086 4.07009 0
M  V30 2061 H 204.784 -3.04484 4.60428 0
M  V30 2062 H 207.26 -3.18113 2.68223 0
M  V30 2063 H 206.136 -4.46893 3.18713 0
M  V30 2064 H 206.397 -4.16716 1.47649 0
M  V30 2065 N 205.456 -1.28612 -0.910864 0
M  V30 2066 C 206.733 -1.06632 -1.63979 0
M  V30 2067 C 207.113 0.393351 -2.07403 0
M  V30 2068 O 206.461 1.37999 -1.82122 0
M  V30 2069 C 206.671 -2.0436 -2.8291 0
M  V30 2070 C 208.019 -2.34666 -3.5386 0
M  V30 2071 O 209.043 -2.02467 -2.93062 0
M  V30 2072 O 207.902 -2.89631 -4.63439 0
M  V30 2073 H 204.996 -0.407737 -0.7195 0
M  V30 2074 H 207.542 -1.39942 -0.959914 0
M  V30 2075 H 206.314 -3.02727 -2.47936 0
M  V30 2076 H 205.937 -1.71714 -3.58609 0
M  V30 2077 N 206.934 1.1197 -1.10907 0
M  V30 2078 C 208.35 1.35591 -0.841852 0
M  V30 2079 C 208.55 1.94233 0.536246 0
M  V30 2080 O 207.606 2.1717 1.28816 0
M  V30 2081 C 208.919 2.29284 -1.94549 0
M  V30 2082 C 210.467 2.42862 -1.97451 0
M  V30 2083 C 210.942 3.39873 -3.07002 0
M  V30 2084 N 212.433 3.47433 -3.06341 0
M  V30 2085 C 213.168 4.22421 -3.87748 0
M  V30 2086 N 212.664 5.00432 -4.79103 0
M  V30 2087 N 214.457 4.17876 -3.75946 0
M  V30 2088 H 206.608 0.722664 -1.99728 0
M  V30 2089 H 208.871 0.380635 -0.868229 0
M  V30 2090 H 208.577 1.93378 -2.93765 0
M  V30 2091 H 208.451 3.29452 -1.83688 0
M  V30 2092 H 210.838 2.78046 -0.988645 0
M  V30 2093 H 210.919 1.42566 -2.12388 0
M  V30 2094 H 210.563 3.05417 -4.05811 0
M  V30 2095 H 210.493 4.40011 -2.89306 0
M  V30 2096 H 212.984 2.91784 -2.40147 0
M  V30 2097 H 213.297 5.55002 -5.37766 0
M  V30 2098 H 211.642 4.99612 -4.83128 0
M  V30 2099 H 214.833 3.56016 -3.03924 0
M  V30 2100 H 215.006 4.76061 -4.39624 0
M  V30 2101 N 208.412 0.89855 1.29475 0
M  V30 2102 C 209.642 0.538479 1.99459 0
M  V30 2103 C 210.05 -0.880922 1.67441 0
M  V30 2104 O 209.393 -1.59283 0.915127 0
M  V30 2105 C 209.455 0.649564 3.53583 0
M  V30 2106 C 209.119 2.03573 4.09154 0
M  V30 2107 C 210.116 3.00675 4.24135 0
M  V30 2108 C 207.801 2.3448 4.44212 0
M  V30 2109 C 209.795 4.26809 4.73405 0
M  V30 2110 C 207.482 3.60857 4.93179 0
M  V30 2111 C 208.48 4.56836 5.0773 0
M  V30 2112 O 208.168 5.80969 5.55635 0
M  V30 2113 H 207.9 0.205372 0.644048 0
M  V30 2114 H 210.454 1.20958 1.66007 0
M  V30 2115 H 208.684 -0.0785592 3.8662 0
M  V30 2116 H 210.373 0.29881 4.04799 0
M  V30 2117 H 211.139 2.78112 3.97339 0
M  V30 2118 H 207.018 1.60534 4.32145 0
M  V30 2119 H 210.562 5.0173 4.84678 0
M  V30 2120 H 206.459 3.83251 5.19412 0
M  V30 2121 H 207.227 5.83542 5.73952 0
M  V30 2122 N 209.89 -1.43072 0.660911 0
M  V30 2123 C 210.82 -2.33497 -0.0122829 0
M  V30 2124 C 211.801 -1.49903 -0.803925 0
M  V30 2125 O 212.986 -1.78546 -0.763864 0
M  V30 2126 C 210.116 -3.33363 -0.973994 0
M  V30 2127 C 209.07 -4.27003 -0.291928 0
M  V30 2128 C 208.396 -5.16967 -1.36562 0
M  V30 2129 C 209.696 -5.15816 0.820462 0
M  V30 2130 H 211.39 -2.90038 0.742873 0
M  V30 2131 H 208.936 -1.39461 0.358688 0
M  V30 2132 H 210.889 -3.95524 -1.45392 0
M  V30 2133 H 209.613 -2.75095 -1.7604 0
M  V30 2134 H 208.272 -3.66217 0.167623 0
M  V30 2135 H 207.92 -4.55034 -2.14366 0
M  V30 2136 H 207.62 -5.80441 -0.914454 0
M  V30 2137 H 209.144 -5.82003 -1.84675 0
M  V30 2138 H 210.558 -5.71742 0.422366 0
M  V30 2139 H 208.955 -5.8805 1.19656 0
M  V30 2140 H 210.025 -4.55045 1.67518 0
M  V30 2141 N 211.368 -0.403325 -1.52352 0
M  V30 2142 C 212.331 0.413051 -2.25447 0
M  V30 2143 C 213.331 0.978513 -1.276 0
M  V30 2144 O 214.521 0.858305 -1.51587 0
M  V30 2145 C 211.653 1.58087 -3.02029 0
M  V30 2146 H 212.846 -0.227094 -2.99039 0
M  V30 2147 H 210.399 -0.155722 -1.55522 0
M  V30 2148 H 211.134 2.25804 -2.32772 0
M  V30 2149 H 210.919 1.18195 -3.73861 0
M  V30 2150 H 212.409 2.1585 -3.57489 0
M  V30 2151 N 212.846 1.57033 -0.133567 0
M  V30 2152 C 214.092 1.95976 0.521649 0
M  V30 2153 C 214.425 1.01779 1.65393 0
M  V30 2154 O 213.7 0.0576581 1.94415 0
M  V30 2155 C 213.983 3.44738 1.04057 0
M  V30 2156 C 213.836 4.49711 -0.0892897 0
M  V30 2157 C 215.155 3.95682 1.92675 0
M  V30 2158 H 212.274 0.712579 0.188149 0
M  V30 2159 H 214.916 1.88813 -0.212076 0
M  V30 2160 H 213.066 3.50973 1.66583 0
M  V30 2161 H 214.738 4.55565 -0.725152 0
M  V30 2162 H 212.981 4.27261 -0.750378 0
M  V30 2163 H 213.652 5.51099 0.315284 0
M  V30 2164 H 216.128 3.91841 1.39998 0
M  V30 2165 H 215.004 5.00262 2.25897 0
M  V30 2166 H 215.265 3.37239 2.85872 0
M  V30 2167 N 214.325 -0.140222 1.56975 0
M  V30 2168 C 215.571 -0.852949 1.83991 0
M  V30 2169 C 215.904 -1.80512 0.716187 0
M  V30 2170 O 215.179 -1.92479 -0.279681 0
M  V30 2171 C 215.462 -1.6215 3.21527 0
M  V30 2172 C 215.315 -0.690363 4.4447 0
M  V30 2173 C 216.634 -2.58247 3.56366 0
M  V30 2174 H 213.753 -0.308634 0.669264 0
M  V30 2175 H 216.395 -0.117898 1.89634 0
M  V30 2176 H 214.545 -2.24812 3.16847 0
M  V30 2177 H 216.217 -0.0742264 4.6124 0
M  V30 2178 H 214.46 -0.000396433 4.338 0
M  V30 2179 H 215.131 -1.2643 5.37326 0
M  V30 2180 H 217.607 -2.05701 3.61699 0
M  V30 2181 H 216.483 -3.09067 4.53617 0
M  V30 2182 H 216.744 -3.39923 2.82674 0
M  V30 2183 N 215.803 -1.52179 -0.40978 0
M  V30 2184 C 216.753 -1.71857 -1.49831 0
M  V30 2185 C 217.737 -0.572469 -1.50372 0
M  V30 2186 O 218.929 -0.829509 -1.56359 0
M  V30 2187 C 216.058 -1.87206 -2.87765 0
M  V30 2188 C 215.144 -3.07685 -2.91875 0
M  V30 2189 N 215.535 -4.30403 -2.65683 0
M  V30 2190 C 213.833 -3.07505 -3.23043 0
M  V30 2191 C 214.534 -5.11868 -2.76344 0
M  V30 2192 N 213.51 -4.47101 -3.09195 0
M  V30 2193 H 217.312 -2.64381 -1.28375 0
M  V30 2194 H 214.826 -1.50203 -0.617479 0
M  V30 2195 H 216.823 -1.99419 -3.66111 0
M  V30 2196 H 215.483 -0.958814 -3.10221 0
M  V30 2197 H 216.494 -4.58887 -2.4009 0
M  V30 2198 H 213.171 -2.25915 -3.51096 0
M  V30 2199 H 214.561 -6.19634 -2.59814 0
M  V30 2200 N 217.281 0.66697 -1.42791 0
M  V30 2201 C 218.692 1.2478 -1.38877 0
M  V30 2202 C 219.043 1.96012 -0.0859426 0
M  V30 2203 O 218.168 2.00463 0.815081 0
M  V30 2204 C 218.763 2.26938 -2.51564 0
M  V30 2205 C 217.322 2.80529 -2.50959 0
M  V30 2206 C 216.469 1.54965 -2.29959 0
M  V30 2207 H 219.42 0.459853 -1.51892 0
M  V30 2208 H 219.441 3.08834 -2.22265 0
M  V30 2209 H 218.953 1.75065 -3.46372 0
M  V30 2210 H 217.054 3.36502 -1.59991 0
M  V30 2211 H 217.167 3.29012 -3.48265 0
M  V30 2212 H 215.531 1.81817 -1.78366 0
M  V30 2213 H 216.314 1.05047 -3.26833 0
M  V30 2214 N 218.759 1.29093 0.90403 0
M  V30 2215 C 219.987 1.19689 1.68766 0
M  V30 2216 C 220.402 -0.243113 1.87228 0
M  V30 2217 O 219.759 -1.16326 1.40621 0
M  V30 2218 C 219.81 1.90144 3.07453 0
M  V30 2219 O 219.531 3.2852 2.89838 0
M  V30 2220 C 221.032 1.87162 4.01852 0
M  V30 2221 H 218.252 0.415035 0.527244 0
M  V30 2222 H 220.796 1.7039 1.13082 0
M  V30 2223 H 218.951 1.43289 3.59926 0
M  V30 2224 H 219.365 3.63944 3.77684 0
M  V30 2225 H 220.839 2.41032 4.96596 0
M  V30 2226 H 221.316 0.84617 4.30972 0
M  V30 2227 H 221.922 2.33741 3.5531 0
M  V30 2228 N 220.237 -1.11381 1.11499 0
M  V30 2229 C 221.653 -1.35143 0.849031 0
M  V30 2230 C 221.853 -1.94515 -0.525938 0
M  V30 2231 O 220.909 -2.1785 -1.27662 0
M  V30 2232 C 222.222 -2.28249 1.95762 0
M  V30 2233 C 223.77 -2.41812 1.98736 0
M  V30 2234 C 224.245 -3.3824 3.088 0
M  V30 2235 N 225.736 -3.45803 3.08179 0
M  V30 2236 C 226.471 -4.20358 3.89982 0
M  V30 2237 N 225.967 -4.97884 4.8175 0
M  V30 2238 N 227.76 -4.15877 3.78157 0
M  V30 2239 H 219.911 -0.712062 2.00109 0
M  V30 2240 H 222.174 -0.376025 0.870235 0
M  V30 2241 H 221.88 -1.91817 2.94787 0
M  V30 2242 H 221.754 -3.28473 1.85433 0
M  V30 2243 H 224.141 -2.77518 1.00338 0
M  V30 2244 H 224.222 -1.41437 2.13141 0
M  V30 2245 H 223.866 -3.03261 4.07425 0
M  V30 2246 H 223.796 -4.38471 2.91635 0
M  V30 2247 H 226.287 -2.90506 2.41691 0
M  V30 2248 H 226.6 -5.52142 5.40702 0
M  V30 2249 H 224.945 -4.97043 4.85771 0
M  V30 2250 H 228.136 -3.544 3.05808 0
M  V30 2251 H 228.309 -4.73723 4.42143 0
M  V30 2252 N 221.715 -0.905404 -1.28997 0
M  V30 2253 C 222.94 -0.549175 -1.99997 0
M  V30 2254 C 223.365 0.860276 -1.67275 0
M  V30 2255 O 222.723 1.57355 -0.900502 0
M  V30 2256 C 222.771 -0.755185 -3.52604 0
M  V30 2257 O 221.875 0.189692 -4.11964 0
M  V30 2258 H 221.216 -0.213899 -0.628604 0
M  V30 2259 H 223.746 -1.21856 -1.64354 0
M  V30 2260 H 223.756 -0.662045 -4.02593 0
M  V30 2261 H 222.431 -1.78271 -3.75755 0
M  V30 2262 H 221.008 0.0485257 -3.72868 0
M  V30 2263 N 223.193 1.4272 -0.668489 0
M  V30 2264 C 224.156 2.292 0.00448567 0
M  V30 2265 C 225.156 1.43001 0.735339 0
M  V30 2266 O 226.346 1.64461 0.57429 0
M  V30 2267 C 223.478 3.25375 1.01705 0
M  V30 2268 H 224.671 2.90199 -0.756608 0
M  V30 2269 H 222.224 1.50254 -0.430506 0
M  V30 2270 H 222.959 2.69301 1.80686 0
M  V30 2271 H 222.744 3.88944 0.496463 0
M  V30 2272 H 224.234 3.90245 1.48655 0
M  V30 2273 N 224.671 0.411399 1.52136 0
M  V30 2274 C 226.087 0.0623865 1.59478 0
M  V30 2275 C 226.287 -1.42554 1.4241 0
M  V30 2276 O 225.343 -2.19263 1.2522 0
M  V30 2277 C 226.656 0.559331 2.95452 0
M  V30 2278 C 228.204 0.517503 3.08692 0
M  V30 2279 C 228.679 0.990994 4.4715 0
M  V30 2280 N 230.17 0.947908 4.53397 0
M  V30 2281 C 230.905 1.28544 5.58806 0
M  V30 2282 N 230.401 1.69454 6.71757 0
M  V30 2283 N 232.194 1.20526 5.49026 0
M  V30 2284 H 224.345 1.37982 1.61477 0
M  V30 2285 H 226.608 0.566977 0.759764 0
M  V30 2286 H 226.314 1.59938 3.1323 0
M  V30 2287 H 226.188 -0.0298014 3.77188 0
M  V30 2288 H 228.575 -0.513505 2.90598 0
M  V30 2289 H 228.656 1.14272 2.28857 0
M  V30 2290 H 228.3 2.02034 4.65988 0
M  V30 2291 H 228.23 0.34257 5.25485 0
M  V30 2292 H 230.721 0.647157 3.72317 0
M  V30 2293 H 231.034 1.93513 7.48179 0
M  V30 2294 H 229.379 1.73359 6.73032 0
M  V30 2295 H 232.57 0.884505 4.59667 0
M  V30 2296 H 232.743 1.47161 6.31069 0
M  V30 2297 N 226.149 -1.5696 0.141893 0
M  V30 2298 C 227.395 -1.97034 -0.504884 0
M  V30 2299 C 227.75 -1.02518 -1.62812 0
M  V30 2300 O 227.043 -0.0592943 -1.91508 0
M  V30 2301 C 227.237 -3.41242 -1.06249 0
M  V30 2302 C 227.066 -4.497 0.00519653 0
M  V30 2303 C 225.836 -5.03338 0.444873 0
M  V30 2304 C 228.034 -5.08122 0.794767 0
M  V30 2305 N 226.016 -5.95395 1.49593 0
M  V30 2306 C 227.387 -5.96339 1.69645 0
M  V30 2307 C 229.442 -4.9071 0.843122 0
M  V30 2308 C 228.145 -6.69009 2.64233 0
M  V30 2309 C 230.171 -5.64077 1.77681 0
M  V30 2310 C 229.533 -6.51999 2.66603 0
M  V30 2311 H 225.632 -0.766745 -0.153707 0
M  V30 2312 H 228.216 -1.93273 0.235313 0
M  V30 2313 H 226.387 -3.45606 -1.77231 0
M  V30 2314 H 228.119 -3.68389 -1.67546 0
M  V30 2315 H 224.874 -4.73576 0.0480959 0
M  V30 2316 H 225.298 -6.46128 2.02107 0
M  V30 2317 H 229.94 -4.22459 0.169732 0
M  V30 2318 H 227.658 -7.36492 3.32575 0
M  V30 2319 H 231.244 -5.52602 1.81996 0
M  V30 2320 H 230.124 -7.07775 3.37675 0
M  V30 2321 N 227.627 0.131896 -1.57047 0
M  V30 2322 C 229.043 0.485031 -1.52051 0
M  V30 2323 C 229.243 1.82563 -0.85281 0
M  V30 2324 O 228.299 2.48817 -0.429694 0
M  V30 2325 C 229.612 0.481409 -2.96821 0
M  V30 2326 C 231.16 0.565868 -3.07842 0
M  V30 2327 C 231.635 0.592762 -4.54148 0
M  V30 2328 N 233.126 0.654564 -4.58552 0
M  V30 2329 C 233.861 0.696608 -5.69153 0
M  V30 2330 N 233.357 0.697078 -6.89284 0
M  V30 2331 N 235.15 0.738639 -5.57226 0
M  V30 2332 H 227.301 -0.746664 -1.98843 0
M  V30 2333 H 229.564 -0.273999 -0.90754 0
M  V30 2334 H 229.27 -0.435731 -3.4899 0
M  V30 2335 H 229.144 1.3139 -3.53577 0
M  V30 2336 H 231.531 1.47343 -2.55684 0
M  V30 2337 H 231.612 -0.29406 -2.54104 0
M  V30 2338 H 231.256 -0.310701 -5.06949 0
M  V30 2339 H 231.186 1.46939 -5.05684 0
M  V30 2340 H 233.677 0.660887 -3.72076 0
M  V30 2341 H 233.99 0.731426 -7.69331 0
M  V30 2342 H 232.335 0.66471 -6.91814 0
M  V30 2343 H 235.526 0.735545 -4.62285 0
M  V30 2344 H 235.699 0.767938 -6.43434 0
M  V30 2345 N 229.106 1.52395 0.401703 0
M  V30 2346 C 230.334 1.70676 1.16949 0
M  V30 2347 C 230.749 0.419503 1.8408 0
M  V30 2348 O 230.106 -0.605061 1.72178 0
M  V30 2349 C 230.157 2.84753 2.22706 0
M  V30 2350 O 229.878 4.08495 1.58314 0
M  V30 2351 C 231.379 3.14608 3.12309 0
M  V30 2352 H 228.599 0.571787 0.351142 0
M  V30 2353 H 231.143 1.98987 0.471652 0
M  V30 2354 H 229.298 2.58941 2.88147 0
M  V30 2355 H 229.712 4.72117 2.28485 0
M  V30 2356 H 231.186 3.97923 3.82572 0
M  V30 2357 H 231.663 2.28464 3.75101 0
M  V30 2358 H 232.269 3.42212 2.52529 0
M  V30 2359 N 230.584 -0.659388 1.43143 0
M  V30 2360 C 231.547 -1.75432 1.47501 0
M  V30 2361 C 232.547 -1.56707 0.360512 0
M  V30 2362 O 233.737 -1.62717 0.622002 0
M  V30 2363 C 230.869 -3.14239 1.32162 0
M  V30 2364 H 232.062 -1.7295 2.45006 0
M  V30 2365 H 229.615 -0.870469 1.29817 0
M  V30 2366 H 230.35 -3.22336 0.356401 0
M  V30 2367 H 230.135 -3.29235 2.12948 0
M  V30 2368 H 231.625 -3.94094 1.3813 0
M  V30 2369 N 232.062 -1.29571 -0.897171 0
M  V30 2370 C 233.473 -1.15964 -1.46319 0
M  V30 2371 C 233.824 0.244267 -1.94674 0
M  V30 2372 O 232.949 1.13998 -1.83939 0
M  V30 2373 C 233.544 -2.09906 -2.65942 0
M  V30 2374 C 232.103 -2.00314 -3.18671 0
M  V30 2375 C 231.25 -2.00687 -1.91363 0
M  V30 2376 H 234.201 -1.42019 -0.708268 0
M  V30 2377 H 234.222 -1.67276 -3.41759 0
M  V30 2378 H 233.734 -3.12075 -2.30718 0
M  V30 2379 H 231.835 -1.01242 -3.58582 0
M  V30 2380 H 231.948 -2.88102 -3.82798 0
M  V30 2381 H 230.312 -1.45319 -2.09175 0
M  V30 2382 H 231.095 -3.04566 -1.58413 0
M  V30 2383 N 233.54 1.10788 -1.12088 0
M  V30 2384 C 234.786 1.82942 -0.875226 0
M  V30 2385 C 235.119 1.84779 0.597538 0
M  V30 2386 O 234.394 1.30578 1.44152 0
M  V30 2387 C 234.677 3.29789 -1.44606 0
M  V30 2388 C 234.53 3.36307 -2.98693 0
M  V30 2389 C 235.849 4.26064 -1.10261 0
M  V30 2390 H 232.968 0.664195 -0.319397 0
M  V30 2391 H 235.61 1.29867 -1.38689 0
M  V30 2392 H 233.76 3.75118 -1.01089 0
M  V30 2393 H 235.432 2.99487 -3.50864 0
M  V30 2394 H 233.675 2.76318 -3.34411 0
M  V30 2395 H 234.346 4.39694 -3.33726 0
M  V30 2396 H 236.822 3.88951 -1.4784 0
M  V30 2397 H 235.698 5.27183 -1.52869 0
M  V30 2398 H 235.959 4.42098 -0.0142953 0
M  V30 2399 N 235.018 0.912232 1.28515 0
M  V30 2400 C 235.981 0.404223 2.25607 0
M  V30 2401 C 236.981 -0.468602 1.53821 0
M  V30 2402 O 238.171 -0.271873 1.72065 0
M  V30 2403 C 235.303 -0.420653 3.38295 0
M  V30 2404 H 236.496 1.26188 2.7206 0
M  V30 2405 H 234.049 0.691495 1.40171 0
M  V30 2406 H 234.784 -1.29777 2.97201 0
M  V30 2407 H 234.569 0.204935 3.91564 0
M  V30 2408 H 236.059 -0.766971 4.10496 0
M  V30 2409 N 236.496 -1.42363 0.676048 0
M  V30 2410 C 237.912 -1.55811 0.345718 0
M  V30 2411 C 238.112 -1.65544 -1.14879 0
M  V30 2412 O 237.168 -1.62306 -1.93424 0
M  V30 2413 C 238.481 -2.80746 1.07713 0
M  V30 2414 C 240.029 -2.9452 1.05958 0
M  V30 2415 C 240.504 -4.22318 1.77233 0
M  V30 2416 N 241.995 -4.29233 1.74108 0
M  V30 2417 C 242.73 -5.26935 2.26113 0
M  V30 2418 N 242.226 -6.30783 2.86505 0
M  V30 2419 N 244.019 -5.18741 2.1648 0
M  V30 2420 H 236.17 -1.34289 1.6456 0
M  V30 2421 H 238.433 -0.646506 0.69335 0
M  V30 2422 H 238.139 -2.79696 2.13221 0
M  V30 2423 H 238.013 -3.71676 0.64316 0
M  V30 2424 H 240.4 -2.95097 0.0128255 0
M  V30 2425 H 240.481 -2.04817 1.53244 0
M  V30 2426 H 240.125 -4.22502 2.81877 0
M  V30 2427 H 240.055 -5.10958 1.27396 0
M  V30 2428 H 242.546 -3.54814 1.30059 0
M  V30 2429 H 242.859 -7.01691 3.23805 0
M  V30 2430 H 241.204 -6.31341 2.90575 0
M  V30 2431 H 244.395 -4.36533 1.68987 0
M  V30 2432 H 244.568 -5.94721 2.57316 0
M  V30 2433 N 237.974 -0.419461 -1.51915 0
M  V30 2434 C 239.202 0.152136 -2.0634 0
M  V30 2435 C 239.617 1.37988 -1.28859 0
M  V30 2436 O 238.974 1.79243 -0.343232 0
M  V30 2437 C 239.025 0.492266 -3.58133 0
M  V30 2438 O 238.746 -0.686736 -4.32684 0
M  V30 2439 C 240.247 1.11648 -4.2901 0
M  V30 2440 H 237.467 0.0158325 -0.670813 0
M  V30 2441 H 240.011 -0.593394 -1.95702 0
M  V30 2442 H 238.166 1.18769 -3.68745 0
M  V30 2443 H 238.58 -0.400341 -5.2297 0
M  V30 2444 H 240.054 1.3046 -5.36362 0
M  V30 2445 H 240.531 2.09251 -3.86148 0
M  V30 2446 H 241.137 0.460958 -4.22795 0
M  V30 2447 N 239.452 1.56882 -0.150215 0
M  V30 2448 C 240.698 1.96518 0.500834 0
M  V30 2449 C 241.031 1.03527 1.64304 0
M  V30 2450 O 240.306 0.0782751 1.94342 0
M  V30 2451 C 240.589 3.45822 1.00395 0
M  V30 2452 C 240.442 4.49591 -0.136983 0
M  V30 2453 C 241.761 3.97704 1.88467 0
M  V30 2454 H 238.88 0.714535 0.18058 0
M  V30 2455 H 241.522 1.88577 -0.232091 0
M  V30 2456 H 239.672 3.5272 1.62851 0
M  V30 2457 H 241.344 4.5477 -0.77343 0
M  V30 2458 H 239.587 4.26441 -0.795652 0
M  V30 2459 H 240.258 5.51402 0.256815 0
M  V30 2460 H 242.734 3.93304 1.35834 0
M  V30 2461 H 241.61 5.0263 2.20578 0
M  V30 2462 H 241.871 3.40252 2.82279 0
M  V30 2463 N 240.93 -0.123565 1.57115 0
M  V30 2464 C 242.155 -0.850398 1.89164 0
M  V30 2465 C 242.58 -1.7286 0.741688 0
M  V30 2466 O 241.938 -1.78665 -0.307958 0
M  V30 2467 C 241.986 -1.66353 3.19936 0
M  V30 2468 O 241.09 -2.77004 3.0552 0
M  V30 2469 H 240.431 -0.235454 0.620852 0
M  V30 2470 H 242.961 -0.107335 2.04318 0
M  V30 2471 H 242.971 -2.05372 3.52543 0
M  V30 2472 H 241.646 -1.01881 4.03228 0
M  V30 2473 H 240.223 -2.41221 2.84371 0
M  V30 2474 N 242.408 -1.52605 -0.393616 0
M  V30 2475 C 243.371 -1.76415 -1.46323 0
M  V30 2476 C 244.371 -0.634126 -1.47768 0
M  V30 2477 O 245.561 -0.902142 -1.4902 0
M  V30 2478 C 242.693 -1.8607 -2.85641 0
M  V30 2479 H 243.886 -2.71916 -1.26498 0
M  V30 2480 H 241.439 -1.43257 -0.625073 0
M  V30 2481 H 242.174 -0.925378 -3.10817 0
M  V30 2482 H 241.959 -2.68235 -2.85993 0
M  V30 2483 H 243.449 -2.06179 -3.63153 0
M  V30 2484 N 243.887 0.651787 -1.4349 0
M  V30 2485 C 244.85 1.74647 -1.48429 0
M  V30 2486 C 245.85 1.56513 -0.368817 0
M  V30 2487 O 247.04 1.62385 -0.630623 0
M  V30 2488 C 244.172 3.13533 -1.33827 0
M  V30 2489 H 245.365 1.71649 -2.4592 0
M  V30 2490 H 242.918 0.863573 -1.30277 0
M  V30 2491 H 243.653 3.22142 -0.37349 0
M  V30 2492 H 243.438 3.28101 -2.14691 0
M  V30 2493 H 244.928 3.93356 -1.40218 0
M  V30 2494 N 245.365 1.30045 0.890287 0
M  V30 2495 C 246.611 1.18737 1.64406 0
M  V30 2496 C 246.944 -0.258525 1.92472 0
M  V30 2497 O 246.219 -1.18562 1.54186 0
M  V30 2498 C 246.502 2.01087 2.98724 0
M  V30 2499 C 246.355 3.53867 2.77665 0
M  V30 2500 C 247.674 1.84457 3.9958 0
M  V30 2501 H 244.793 0.432698 0.596608 0
M  V30 2502 H 247.435 1.5962 1.0306 0
M  V30 2503 H 245.585 1.66349 3.51084 0
M  V30 2504 H 247.257 3.98637 2.32133 0
M  V30 2505 H 245.5 3.78318 2.12269 0
M  V30 2506 H 246.171 4.06772 3.7315 0
M  V30 2507 H 248.647 2.14817 3.56361 0
M  V30 2508 H 247.523 2.44411 4.91482 0
M  V30 2509 H 247.784 0.802276 4.3476 0
M  V30 2510 N 246.843 -1.10192 1.12674 0
M  V30 2511 C 248.089 -1.82658 0.894847 0
M  V30 2512 C 248.444 -1.83666 -0.573107 0
M  V30 2513 O 247.737 -1.28816 -1.41835 0
M  V30 2514 C 247.931 -3.28552 1.4067 0
M  V30 2515 C 247.76 -3.41756 2.92289 0
M  V30 2516 C 246.53 -3.54021 3.60551 0
M  V30 2517 C 248.728 -3.34949 3.90274 0
M  V30 2518 N 246.71 -3.55827 5.0026 0
M  V30 2519 C 248.081 -3.43531 5.16127 0
M  V30 2520 C 250.136 -3.18565 3.8265 0
M  V30 2521 C 248.839 -3.37416 6.3525 0
M  V30 2522 C 250.865 -3.13772 5.01299 0
M  V30 2523 C 250.227 -3.22938 6.26012 0
M  V30 2524 H 246.326 -0.683044 0.380756 0
M  V30 2525 H 248.91 -1.31752 1.43351 0
M  V30 2526 H 247.081 -3.77946 0.895055 0
M  V30 2527 H 248.813 -3.88991 1.11661 0
M  V30 2528 H 245.568 -3.57135 3.1105 0
M  V30 2529 H 245.992 -3.60335 5.73138 0
M  V30 2530 H 250.634 -3.10354 2.87124 0
M  V30 2531 H 248.352 -3.44391 7.3104 0
M  V30 2532 H 251.938 -3.02242 4.97133 0
M  V30 2533 H 250.818 -3.19235 7.16281 0
M  V30 2534 N 248.321 -0.919034 -1.28029 0
M  V30 2535 C 249.567 -0.555757 -1.95036 0
M  V30 2536 C 249.9 0.899198 -1.72128 0
M  V30 2537 O 249.175 1.64023 -1.04531 0
M  V30 2538 C 249.458 -0.872024 -3.49382 0
M  V30 2539 C 249.311 -2.3801 -3.81669 0
M  V30 2540 C 250.63 -0.37185 -4.38526 0
M  V30 2541 H 247.749 -0.203386 -0.708381 0
M  V30 2542 H 250.391 -1.14924 -1.51303 0
M  V30 2543 H 248.541 -0.366946 -3.86763 0
M  V30 2544 H 250.213 -2.9562 -3.54128 0
M  V30 2545 H 248.456 -2.83289 -3.28526 0
M  V30 2546 H 249.127 -2.55192 -4.8947 0
M  V30 2547 H 251.603 -0.804602 -4.08247 0
M  V30 2548 H 250.479 -0.622173 -5.45362 0
M  V30 2549 H 250.74 0.727934 -4.36066 0
M  V30 2550 N 249.799 1.42003 -0.683588 0
M  V30 2551 C 250.762 2.29191 -0.0198243 0
M  V30 2552 C 251.762 1.43773 0.72013 0
M  V30 2553 O 252.952 1.65061 0.556815 0
M  V30 2554 C 250.084 3.26435 0.982487 0
M  V30 2555 H 251.277 2.8938 -0.787345 0
M  V30 2556 H 248.83 1.49789 -0.446418 0
M  V30 2557 H 249.565 2.71203 1.77819 0
M  V30 2558 H 249.35 3.89449 0.455182 0
M  V30 2559 H 250.84 3.918 1.44508 0
M  V30 2560 N 251.277 0.427512 1.51691 0
M  V30 2561 C 252.502 -0.143601 2.06902 0
M  V30 2562 C 252.927 -1.36536 1.29382 0
M  V30 2563 O 252.285 -1.78289 0.329043 0
M  V30 2564 C 252.333 -0.454207 3.57728 0
M  V30 2565 O 251.437 -1.54228 3.82475 0
M  V30 2566 H 250.778 -0.00617128 0.663971 0
M  V30 2567 H 253.308 0.606014 1.95419 0
M  V30 2568 H 253.318 -0.707525 4.01818 0
M  V30 2569 H 251.993 0.438812 4.13579 0
M  V30 2570 H 250.57 -1.2797 3.50254 0
M  V30 2571 N 252.755 -1.56801 0.158532 0
M  V30 2572 C 253.718 -2.16138 -0.762705 0
M  V30 2573 C 254.718 -1.1061 -1.16713 0
M  V30 2574 O 255.908 -1.36191 -1.08617 0
M  V30 2575 C 253.04 -2.73386 -2.03649 0
M  V30 2576 H 254.233 -2.98886 -0.246354 0
M  V30 2577 H 251.786 -1.56035 -0.0909744 0
M  V30 2578 H 252.521 -1.94335 -2.59623 0
M  V30 2579 H 252.306 -3.50601 -1.75559 0
M  V30 2580 H 253.796 -3.19065 -2.6942 0
M  V30 2581 N 254.233 0.115231 -1.57178 0
M  V30 2582 C 255.479 0.82357 -1.85325 0
M  V30 2583 C 255.812 1.79349 -0.744814 0
M  V30 2584 O 255.087 1.92899 0.249024 0
M  V30 2585 C 255.37 1.57014 -3.24066 0
M  V30 2586 C 255.223 0.619565 -4.45513 0
M  V30 2587 C 256.542 2.52545 -3.60429 0
M  V30 2588 H 253.661 0.297948 -0.674089 0
M  V30 2589 H 256.303 0.0877138 -1.89797 0
M  V30 2590 H 254.453 2.19742 -3.20383 0
M  V30 2591 H 256.125 0.000837639 -4.613 0
M  V30 2592 H 254.368 -0.0686174 -4.33746 0
M  V30 2593 H 255.039 1.17866 -5.3927 0
M  V30 2594 H 257.515 1.9992 -3.64926 0
M  V30 2595 H 256.391 3.01811 -4.58477 0
M  V30 2596 H 256.652 3.35383 -2.88047 0
M  V30 2597 N 255.711 1.52812 0.385517 0
M  V30 2598 C 256.957 1.68275 1.13188 0
M  V30 2599 C 257.29 0.423179 1.89533 0
M  V30 2600 O 256.565 -0.579113 1.85679 0
M  V30 2601 C 256.848 2.92001 2.1073 0
M  V30 2602 C 256.701 4.28067 1.38125 0
M  V30 2603 C 258.02 3.11283 3.11113 0
M  V30 2604 H 255.139 0.612352 0.410115 0
M  V30 2605 H 257.781 1.85415 0.414869 0
M  V30 2606 H 255.931 2.77519 2.71874 0
M  V30 2607 H 257.603 4.54324 0.799187 0
M  V30 2608 H 255.846 4.28388 0.683092 0
M  V30 2609 H 256.517 5.10733 2.09417 0
M  V30 2610 H 258.993 3.2482 2.6006 0
M  V30 2611 H 257.869 3.99325 3.76605 0
M  V30 2612 H 258.13 2.25656 3.80173 0
M  V30 2613 N 257.189 -0.644168 1.43834 0
M  V30 2614 C 258.435 -1.40603 1.46146 0
M  V30 2615 C 258.768 -1.93997 0.0887717 0
M  V30 2616 O 258.043 -1.72854 -0.891724 0
M  V30 2617 C 258.326 -2.58086 2.51124 0
M  V30 2618 C 258.179 -2.10126 3.97702 0
M  V30 2619 C 259.498 -3.60291 2.52742 0
M  V30 2620 H 256.617 -0.509905 0.532134 0
M  V30 2621 H 259.259 -0.729502 1.75437 0
M  V30 2622 H 257.409 -3.15801 2.26278 0
M  V30 2623 H 259.081 -1.57342 4.33637 0
M  V30 2624 H 257.324 -1.41419 4.10101 0
M  V30 2625 H 257.995 -2.94649 4.66783 0
M  V30 2626 H 260.471 -3.12352 2.7491 0
M  V30 2627 H 259.347 -4.40032 3.28121 0
M  V30 2628 H 259.608 -4.1349 1.56455 0
M  V30 2629 N 258.668 -1.30515 -0.883378 0
M  V30 2630 C 259.598 -1.19607 -2.00541 0
M  V30 2631 C 260.579 -0.086346 -1.69881 0
M  V30 2632 O 261.764 -0.268654 -1.92333 0
M  V30 2633 C 258.894 -0.888758 -3.35736 0
M  V30 2634 C 257.848 -1.95659 -3.8066 0
M  V30 2635 C 257.174 -1.50224 -5.13164 0
M  V30 2636 C 258.474 -3.36788 -3.99213 0
M  V30 2637 H 260.168 -2.13476 -2.09925 0
M  V30 2638 H 257.714 -1.02775 -1.00863 0
M  V30 2639 H 259.667 -0.799094 -4.13754 0
M  V30 2640 H 258.391 0.0856125 -3.26488 0
M  V30 2641 H 257.05 -2.03591 -3.04871 0
M  V30 2642 H 256.698 -0.516092 -5.00345 0
M  V30 2643 H 256.398 -2.2165 -5.44192 0
M  V30 2644 H 257.922 -1.42639 -5.93706 0
M  V30 2645 H 259.336 -3.31605 -4.67665 0
M  V30 2646 H 257.733 -4.06314 -4.41621 0
M  V30 2647 H 258.803 -3.78561 -3.03017 0
M  V30 2648 N 260.146 1.09593 -1.13257 0
M  V30 2649 C 261.557 1.63229 -0.906274 0
M  V30 2650 C 261.908 1.8811 0.557578 0
M  V30 2651 O 261.033 1.62953 1.42391 0
M  V30 2652 C 261.628 2.96535 -1.63867 0
M  V30 2653 C 260.187 3.47003 -1.45828 0
M  V30 2654 C 259.334 2.2145 -1.66898 0
M  V30 2655 H 262.285 0.92978 -1.28611 0
M  V30 2656 H 262.306 3.64411 -1.09476 0
M  V30 2657 H 261.818 2.78394 -2.70404 0
M  V30 2658 H 259.919 3.70272 -0.415848 0
M  V30 2659 H 260.032 4.24551 -2.2202 0
M  V30 2660 H 258.396 2.30022 -1.09371 0
M  V30 2661 H 259.179 2.0583 -2.74752 0
M  V30 2662 N 261.624 0.925811 1.2754 0
M  V30 2663 C 262.87 0.566092 1.94739 0
M  V30 2664 C 263.203 -0.890057 1.72603 0
M  V30 2665 O 262.478 -1.63467 1.05399 0
M  V30 2666 C 262.761 0.89054 3.48915 0
M  V30 2667 C 262.614 2.4003 3.80402 0
M  V30 2668 C 263.933 0.395101 4.38323 0
M  V30 2669 H 261.052 0.20714 0.707292 0
M  V30 2670 H 263.694 1.15725 1.50691 0
M  V30 2671 H 261.844 0.387452 3.86563 0
M  V30 2672 H 263.516 2.97494 3.52555 0
M  V30 2673 H 261.759 2.85028 3.2702 0
M  V30 2674 H 262.43 2.57785 4.8811 0
M  V30 2675 H 264.906 0.826241 4.07814 0
M  V30 2676 H 263.782 0.651086 5.45025 0
M  V30 2677 H 264.043 -0.704798 4.36446 0
M  V30 2678 N 263.102 -1.41638 0.69111 0
M  V30 2679 C 264.348 -2.01598 0.220519 0
M  V30 2680 C 264.681 -1.54594 -1.17535 0
M  V30 2681 O 263.956 -0.755177 -1.79241 0
M  V30 2682 C 264.239 -3.59062 0.273243 0
M  V30 2683 C 264.092 -4.16203 1.70573 0
M  V30 2684 C 265.411 -4.38546 -0.369457 0
M  V30 2685 H 262.53 -0.732468 0.0816045 0
M  V30 2686 H 265.172 -1.68445 0.878986 0
M  V30 2687 H 263.322 -3.87435 -0.287411 0
M  V30 2688 H 264.994 -3.98722 2.31989 0
M  V30 2689 H 263.237 -3.71414 2.2413 0
M  V30 2690 H 263.908 -5.25358 1.69419 0
M  V30 2691 H 266.384 -4.1596 0.107977 0
M  V30 2692 H 265.26 -5.48069 -0.302002 0
M  V30 2693 H 265.521 -4.17662 -1.44951 0
M  V30 2694 N 264.58 -0.43555 -1.51462 0
M  V30 2695 C 265.826 0.131709 -2.02372 0
M  V30 2696 C 266.159 1.42516 -1.3192 0
M  V30 2697 O 265.434 1.89606 -0.433573 0
M  V30 2698 C 265.717 0.352301 -3.58373 0
M  V30 2699 C 265.57 -0.959676 -4.39443 0
M  V30 2700 C 266.889 1.12286 -4.25535 0
M  V30 2701 H 264.008 0.0463936 -0.735538 0
M  V30 2702 H 266.65 -0.574197 -1.81116 0
M  V30 2703 H 264.8 0.9536 -3.76615 0
M  V30 2704 H 266.472 -1.59482 -4.32855 0
M  V30 2705 H 264.715 -1.56468 -4.04599 0
M  V30 2706 H 265.386 -0.759394 -5.46752 0
M  V30 2707 H 267.862 0.613545 -4.11552 0
M  V30 2708 H 266.738 1.24598 -5.34571 0
M  V30 2709 H 266.999 2.15048 -3.86273 0
M  V30 2710 N 266.058 1.56714 -0.166846 0
M  V30 2711 C 267.305 1.96747 0.479252 0
M  V30 2712 C 267.633 1.05263 1.63554 0
M  V30 2713 O 266.888 0.0858098 1.95512 0
M  V30 2714 C 267.187 3.42889 1.00806 0
M  V30 2715 C 266.853 4.50889 -0.0318574 0
M  V30 2716 C 265.515 4.8015 -0.317675 0
M  V30 2717 C 267.867 5.15949 -0.737956 0
M  V30 2718 C 265.195 5.71772 -1.31506 0
M  V30 2719 C 267.547 6.08647 -1.72429 0
M  V30 2720 C 266.211 6.36277 -2.0176 0
M  V30 2721 H 265.481 0.719949 0.175371 0
M  V30 2722 H 268.128 1.89756 -0.257864 0
M  V30 2723 H 266.433 3.4681 1.82291 0
M  V30 2724 H 268.13 3.71203 1.51689 0
M  V30 2725 H 264.72 4.28128 0.201088 0
M  V30 2726 H 268.904 4.93458 -0.530351 0
M  V30 2727 H 264.16 5.91465 -1.54853 0
M  V30 2728 H 268.334 6.58129 -2.27682 0
M  V30 2729 H 265.961 7.07075 -2.79194 0
M  V30 2730 N 267.536 -0.106894 1.57237 0
M  V30 2731 C 268.761 -0.830287 1.90055 0
M  V30 2732 C 269.186 -1.72064 0.75998 0
M  V30 2733 O 268.544 -1.78982 -0.288991 0
M  V30 2734 C 268.592 -1.6295 3.21683 0
M  V30 2735 O 267.696 -2.73748 3.08441 0
M  V30 2736 H 267.037 -0.228855 0.623315 0
M  V30 2737 H 269.567 -0.085658 2.04421 0
M  V30 2738 H 269.577 -2.01621 3.54701 0
M  V30 2739 H 268.252 -0.975989 4.04286 0
M  V30 2740 H 266.829 -2.38192 2.86913 0
M  V30 2741 N 269.014 -1.53014 -0.377408 0
M  V30 2742 C 270.262 -1.6829 -1.11906 0
M  V30 2743 C 270.583 -0.431206 -1.90173 0
M  V30 2744 O 269.853 0.554595 -1.87886 0
M  V30 2745 H 268.433 -0.620371 -0.416112 0
M  V30 2746 H 271.095 -1.90167 -0.426893 0
M  V30 2747 H 270.191 -2.53862 -1.8155 0
M  V30 2748 N 270.492 0.636531 -1.44174 0
M  V30 2749 C 271.738 1.39826 -1.4689 0
M  V30 2750 C 272.071 1.93947 -0.0990585 0
M  V30 2751 O 271.346 1.73325 0.882544 0
M  V30 2752 C 271.629 2.56751 -2.5249 0
M  V30 2753 C 271.482 2.08014 -3.98811 0
M  V30 2754 C 272.801 3.58946 -2.54649 0
M  V30 2755 H 269.92 0.507075 -0.53483 0
M  V30 2756 H 272.562 0.720188 -1.75822 0
M  V30 2757 H 270.712 3.14597 -2.2795 0
M  V30 2758 H 272.384 1.5504 -4.34466 0
M  V30 2759 H 270.627 1.39242 -4.10846 0
M  V30 2760 H 271.298 2.92169 -4.68339 0
M  V30 2761 H 273.774 3.1089 -2.76563 0
M  V30 2762 H 272.65 4.38286 -3.3045 0
M  V30 2763 H 272.911 4.12655 -1.58646 0
M  V30 2764 N 271.97 1.30982 0.876444 0
M  V30 2765 C 273.381 1.18277 1.44456 0
M  V30 2766 C 273.732 -0.213265 1.95037 0
M  V30 2767 O 272.857 -1.11057 1.85729 0
M  V30 2768 C 273.452 2.1411 2.62569 0
M  V30 2769 C 272.011 2.05358 3.15444 0
M  V30 2770 C 271.158 2.03706 1.88146 0
M  V30 2771 H 274.109 1.43127 0.685584 0
M  V30 2772 H 274.13 1.72692 3.39054 0
M  V30 2773 H 273.642 3.15706 2.25724 0
M  V30 2774 H 271.743 1.06934 3.56926 0
M  V30 2775 H 271.856 2.94156 3.78166 0
M  V30 2776 H 270.22 1.48629 2.06837 0
M  V30 2777 H 271.003 3.07047 1.53547 0
M  V30 2778 N 273.449 -1.08991 1.13837 0
M  V30 2779 C 274.865 -1.33312 0.877506 0
M  V30 2780 C 275.065 -1.95587 -0.48456 0
M  V30 2781 O 274.121 -2.20509 -1.23013 0
M  V30 2782 C 275.434 -2.24045 2.0056 0
M  V30 2783 C 276.982 -2.37542 2.03821 0
M  V30 2784 C 277.457 -3.31614 3.15905 0
M  V30 2785 N 278.948 -3.39189 3.15445 0
M  V30 2786 C 279.683 -4.11992 3.98811 0
M  V30 2787 N 279.179 -4.87553 4.92203 0
M  V30 2788 N 280.972 -4.07762 3.86894 0
M  V30 2789 H 273.123 -0.669456 2.01574 0
M  V30 2790 H 275.386 -0.357482 0.878015 0
M  V30 2791 H 275.092 -1.85521 2.98789 0
M  V30 2792 H 274.966 -3.24466 1.92359 0
M  V30 2793 H 277.353 -2.75327 1.06202 0
M  V30 2794 H 277.434 -1.36884 2.16093 0
M  V30 2795 H 277.078 -2.94551 4.13766 0
M  V30 2796 H 277.008 -4.32186 3.0087 0
M  V30 2797 H 279.499 -2.85314 2.47799 0
M  V30 2798 H 279.812 -5.40549 5.52292 0
M  V30 2799 H 278.157 -4.86627 4.96205 0
M  V30 2800 H 281.348 -3.47833 3.13257 0
M  V30 2801 H 281.521 -4.64238 4.52092 0
M  V30 2802 N 274.927 -0.932562 -1.27047 0
M  V30 2803 C 276.175 -0.574422 -1.93765 0
M  V30 2804 C 276.496 0.887993 -1.73608 0
M  V30 2805 O 275.766 1.62999 -1.08665 0
M  V30 2806 H 274.346 -0.209451 -0.717035 0
M  V30 2807 H 277.008 -1.18601 -1.5466 0
M  V30 2808 H 276.104 -0.784841 -3.02071 0
M  V30 2809 N 276.405 1.4127 -0.698611 0
M  V30 2810 C 277.338 2.28195 0.0153898 0
M  V30 2811 C 278.316 1.42402 0.784883 0
M  V30 2812 O 279.5 1.71828 0.775067 0
M  V30 2813 C 276.627 3.22685 1.02918 0
M  V30 2814 C 275.673 4.25041 0.352501 0
M  V30 2815 S 276.506 5.27757 -0.907322 0
M  V30 2816 C 277.662 6.25812 0.104796 0
M  V30 2817 H 277.895 2.88403 -0.721858 0
M  V30 2818 H 275.428 1.46452 -0.488996 0
M  V30 2819 H 277.386 3.77655 1.60893 0
M  V30 2820 H 276.047 2.61566 1.73902 0
M  V30 2821 H 275.24 4.91437 1.11828 0
M  V30 2822 H 274.842 3.73682 -0.154254 0
M  V30 2823 H 277.134 6.70705 0.957103 0
M  V30 2824 H 278.077 7.06149 -0.525323 0
M  V30 2825 H 278.485 5.62615 0.460931 0
M  V30 2826 N 277.883 0.443576 1.51229 0
M  V30 2827 C 279.108 -0.121648 2.07043 0
M  V30 2828 C 279.533 -1.35156 1.30823 0
M  V30 2829 O 278.891 -1.7793 0.347934 0
M  V30 2830 C 278.939 -0.41624 3.5819 0
M  V30 2831 O 278.043 -1.50163 3.8409 0
M  V30 2832 H 277.384 0.000871367 0.663999 0
M  V30 2833 H 279.914 0.626706 1.94765 0
M  V30 2834 H 279.924 -0.664867 4.02546 0
M  V30 2835 H 278.599 0.482653 4.1309 0
M  V30 2836 H 277.176 -1.24248 3.51592 0
M  V30 2837 N 279.361 -1.56624 0.175154 0
M  V30 2838 C 280.589 -2.01374 -0.474971 0
M  V30 2839 C 281.004 -1.05537 -1.56548 0
M  V30 2840 O 280.361 -0.0568668 -1.82411 0
M  V30 2841 C 280.412 -3.45923 -1.04975 0
M  V30 2842 O 280.133 -4.381 -0.00276605 0
M  V30 2843 C 281.634 -4.06093 -1.77773 0
M  V30 2844 H 278.854 -0.659962 -0.121206 0
M  V30 2845 H 281.398 -2.02601 0.27801 0
M  V30 2846 H 279.553 -3.45458 -1.75321 0
M  V30 2847 H 279.967 -5.22753 -0.427681 0
M  V30 2848 H 281.441 -5.09147 -2.13245 0
M  V30 2849 H 281.918 -3.48405 -2.67414 0
M  V30 2850 H 282.524 -4.10272 -1.12059 0
M  V30 2851 N 280.839 0.0985539 -1.57292 0
M  V30 2852 C 282.079 0.808332 -1.87737 0
M  V30 2853 C 282.443 1.7607 -0.76572 0
M  V30 2854 O 283.644 2.51358 -0.952499 0
M  V30 2855 C 281.915 1.52093 -3.23423 0
M  V30 2856 S 283.474 2.26947 -3.75554 0
M  V30 2857 H 280.292 0.269377 -0.657995 0
M  V30 2858 H 282.894 0.0656269 -1.9539 0
M  V30 2859 H 281.598 0.81363 -4.02254 0
M  V30 2860 H 281.129 2.30361 -3.189 0
M  V30 2861 H 283.144 3.53027 -3.48692 0
M  V30 2862 N 282.317 1.53212 0.369288 0
M  V30 2863 C 283.267 1.75769 1.45222 0
M  V30 2864 C 284.251 0.612136 1.48801 0
M  V30 2865 O 285.443 0.870674 1.54105 0
M  V30 2866 C 282.572 1.94769 2.82701 0
M  V30 2867 C 281.658 3.15315 2.83615 0
M  V30 2868 N 282.049 4.37295 2.54178 0
M  V30 2869 C 280.347 3.15962 3.14776 0
M  V30 2870 C 281.048 5.19015 2.62675 0
M  V30 2871 N 280.024 4.55142 2.97232 0
M  V30 2872 H 283.826 2.67691 1.2132 0
M  V30 2873 H 281.34 1.51787 0.577438 0
M  V30 2874 H 283.337 2.09056 3.60696 0
M  V30 2875 H 281.997 1.04073 3.07569 0
M  V30 2876 H 283.008 4.65091 2.27839 0
M  V30 2877 H 279.685 2.35144 3.44983 0
M  V30 2878 H 281.075 6.26305 2.43294 0
M  V30 2879 N 283.795 -0.628877 1.44509 0
M  V30 2880 C 284.728 -1.75367 1.46019 0
M  V30 2881 C 285.706 -1.59444 0.318787 0
M  V30 2882 O 286.89 -1.81297 0.516099 0
M  V30 2883 C 284.017 -3.12965 1.29501 0
M  V30 2884 C 283.063 -3.47532 2.47233 0
M  V30 2885 S 283.896 -3.44758 4.09758 0
M  V30 2886 C 285.052 -4.84973 3.95667 0
M  V30 2887 H 285.285 -1.7382 2.41193 0
M  V30 2888 H 282.818 -0.803686 1.31834 0
M  V30 2889 H 284.776 -3.92367 1.20658 0
M  V30 2890 H 283.437 -3.12049 0.358341 0
M  V30 2891 H 282.63 -4.47664 2.31544 0
M  V30 2892 H 282.232 -2.75598 2.52828 0
M  V30 2893 H 284.524 -5.74255 3.59496 0
M  V30 2894 H 285.467 -5.05716 4.95638 0
M  V30 2895 H 285.875 -4.59653 3.27688 0
M  V30 2896 N 285.273 -1.31445 -0.869486 0
M  V30 2897 C 286.205 -1.14955 -1.98287 0
M  V30 2898 C 287.218 -0.0885037 -1.62559 0
M  V30 2899 O 288.407 -0.336044 -1.75308 0
M  V30 2900 C 285.507 -0.734255 -3.3085 0
M  V30 2901 C 284.68 -1.88042 -3.94917 0
M  V30 2902 C 283.739 -1.4511 -5.05796 0
M  V30 2903 O 282.765 -2.16082 -5.2659 0
M  V30 2904 N 283.967 -0.338763 -5.79511 0
M  V30 2905 H 286.732 -2.10856 -2.12979 0
M  V30 2906 H 284.293 -1.23786 -1.04349 0
M  V30 2907 H 286.285 -0.42975 -4.02412 0
M  V30 2908 H 284.855 0.133158 -3.12316 0
M  V30 2909 H 284.075 -2.35222 -3.1633 0
M  V30 2910 H 285.363 -2.6481 -4.34457 0
M  V30 2911 H 284.761 0.252274 -5.65137 0
M  V30 2912 H 283.318 -0.0937925 -6.51733 0
M  V30 2913 N 286.751 1.08385 -1.14413 0
M  V30 2914 C 287.997 1.81212 -0.923793 0
M  V30 2915 C 288.352 1.84555 0.543814 0
M  V30 2916 O 287.645 1.31056 1.39767 0
M  V30 2917 C 287.839 3.26273 -1.45879 0
M  V30 2918 C 287.668 3.37063 -2.97689 0
M  V30 2919 C 286.438 3.4824 -3.66138 0
M  V30 2920 C 288.636 3.28698 -3.95553 0
M  V30 2921 N 286.618 3.47824 -5.05858 0
M  V30 2922 C 287.989 3.35276 -5.21527 0
M  V30 2923 C 290.044 3.12437 -3.8767 0
M  V30 2924 C 288.747 3.27267 -6.40538 0
M  V30 2925 C 290.773 3.05757 -5.06228 0
M  V30 2926 C 290.135 3.12938 -6.3107 0
M  V30 2927 H 286.234 0.6769 -0.391574 0
M  V30 2928 H 288.818 1.29455 -1.45429 0
M  V30 2929 H 286.989 3.76474 -0.95507 0
M  V30 2930 H 288.721 3.87165 -1.17835 0
M  V30 2931 H 285.476 3.52141 -3.16692 0
M  V30 2932 H 285.9 3.51171 -5.78798 0
M  V30 2933 H 290.542 3.05747 -2.92025 0
M  V30 2934 H 288.26 3.32718 -7.36427 0
M  V30 2935 H 291.846 2.94295 -5.01878 0
M  V30 2936 H 290.726 3.078 -7.21269 0
M  V30 2937 N 288.23 0.939286 1.26551 0
M  V30 2938 C 289.641 0.628782 1.75793 0
M  V30 2939 C 289.992 -0.856046 1.7654 0
M  V30 2940 O 289.117 -1.66994 1.3763 0
M  V30 2941 C 289.712 1.13465 3.19235 0
M  V30 2942 C 288.271 0.874601 3.66098 0
M  V30 2943 C 287.418 1.28667 2.45642 0
M  V30 2944 H 290.369 1.1178 1.12654 0
M  V30 2945 H 290.39 0.487609 3.77363 0
M  V30 2946 H 289.902 2.21535 3.1866 0
M  V30 2947 H 288.003 -0.191793 3.72106 0
M  V30 2948 H 288.116 1.50028 4.55004 0
M  V30 2949 H 286.48 0.705109 2.44745 0
M  V30 2950 H 287.263 2.37625 2.47769 0
M  V30 2951 N 289.708 -1.40897 0.706093 0
M  V30 2952 C 290.618 -2.3455 0.0482286 0
M  V30 2953 C 291.634 -1.56796 -0.754396 0
M  V30 2954 O 292.81 -1.89228 -0.689538 0
M  V30 2955 C 289.875 -3.35625 -0.869303 0
M  V30 2956 C 288.936 -4.29261 -0.0576994 0
M  V30 2957 C 288.169 -5.25508 -0.931531 0
M  V30 2958 O 288.392 -5.27472 -2.17092 0
M  V30 2959 O 287.326 -6.00727 -0.375587 0
M  V30 2960 H 291.152 -2.92407 0.820476 0
M  V30 2961 H 288.737 -1.4193 0.4665 0
M  V30 2962 H 290.619 -3.97635 -1.39514 0
M  V30 2963 H 289.294 -2.80196 -1.62086 0
M  V30 2964 H 288.201 -3.70566 0.512988 0
M  V30 2965 H 289.534 -4.87817 0.655426 0
M  V30 2966 N 291.186 -0.45159 -1.50991 0
M  V30 2967 C 292.597 0.00818571 -1.86698 0
M  V30 2968 C 292.948 1.40661 -1.3678 0
M  V30 2969 O 292.073 2.0391 -0.724546 0
M  V30 2970 C 292.668 0.0216303 -3.38793 0
M  V30 2971 C 291.227 0.425865 -3.73983 0
M  V30 2972 C 290.374 -0.372163 -2.74791 0
M  V30 2973 H 293.325 -0.666785 -1.44013 0
M  V30 2974 H 293.346 0.828078 -3.7138 0
M  V30 2975 H 292.858 -0.996288 -3.75094 0
M  V30 2976 H 290.959 1.44886 -3.43277 0
M  V30 2977 H 291.072 0.140761 -4.78893 0
M  V30 2978 H 289.436 0.171498 -2.54122 0
M  V30 2979 H 290.219 -1.38922 -3.13935 0
M  V30 2980 N 292.664 1.56529 -0.183458 0
M  V30 2981 C 293.627 2.17324 0.728223 0
M  V30 2982 C 294.627 1.12453 1.14939 0
M  V30 2983 O 295.817 1.37902 1.06437 0
M  V30 2984 C 292.949 2.76591 1.99274 0
M  V30 2985 H 294.142 2.99241 0.198772 0
M  V30 2986 H 291.695 1.5616 0.0661391 0
M  V30 2987 H 292.43 1.98441 2.56499 0
M  V30 2988 H 292.215 3.5335 1.69959 0
M  V30 2989 H 293.705 3.23311 2.6431 0
M  V30 2990 N 294.142 -0.090211 1.57342 0
M  V30 2991 C 295.105 -1.09335 2.01441 0
M  V30 2992 C 296.105 -1.32666 0.908641 0
M  V30 2993 O 297.295 -1.28697 1.174 0
M  V30 2994 C 294.427 -2.44136 2.3793 0
M  V30 2995 H 295.62 -0.713662 2.91285 0
M  V30 2996 H 293.173 -0.335404 1.52659 0
M  V30 2997 H 293.908 -2.86972 1.51055 0
M  V30 2998 H 293.693 -2.28548 3.18603 0
M  V30 2999 H 295.183 -3.16277 2.72688 0
M  V30 3000 N 295.62 -1.53406 -0.361157 0
M  V30 3001 C 296.583 -1.79479 -1.42548 0
M  V30 3002 C 297.583 -0.665327 -1.4639 0
M  V30 3003 O 298.773 -0.933549 -1.47073 0
M  V30 3004 C 295.905 -1.92087 -2.8163 0
M  V30 3005 H 297.098 -2.74538 -1.20701 0
M  V30 3006 H 294.651 -1.4455 -0.594546 0
M  V30 3007 H 295.386 -0.991099 -3.08784 0
M  V30 3008 H 295.171 -2.74241 -2.80239 0
M  V30 3009 H 296.661 -2.13836 -3.58697 0
M  V30 3010 N 297.098 0.621204 -1.44841 0
M  V30 3011 C 298.344 1.38073 -1.49357 0
M  V30 3012 C 298.699 1.91973 -0.128115 0
M  V30 3013 O 297.992 1.71311 0.858087 0
M  V30 3014 C 298.186 2.55675 -2.4973 0
M  V30 3015 C 298.015 2.13289 -3.95901 0
M  V30 3016 C 296.785 2.001 -4.63991 0
M  V30 3017 C 298.983 1.7159 -4.84831 0
M  V30 3018 N 296.965 1.51381 -5.94943 0
M  V30 3019 C 298.336 1.34188 -6.05304 0
M  V30 3020 C 300.391 1.59059 -4.7181 0
M  V30 3021 C 299.094 0.855085 -7.14199 0
M  V30 3022 C 301.12 1.11784 -5.8074 0
M  V30 3023 C 300.482 0.753385 -7.0036 0
M  V30 3024 H 296.581 0.499675 -0.601539 0
M  V30 3025 H 299.165 0.711609 -1.8123 0
M  V30 3026 H 297.336 3.20201 -2.19832 0
M  V30 3027 H 299.068 3.22509 -2.4448 0
M  V30 3028 H 295.823 2.20863 -4.18947 0
M  V30 3029 H 296.247 1.29293 -6.64539 0
M  V30 3030 H 300.889 1.85865 -3.79755 0
M  V30 3031 H 298.607 0.574552 -8.06055 0
M  V30 3032 H 302.193 1.02533 -5.72694 0
M  V30 3033 H 301.073 0.393183 -7.83214 0
M  V30 3034 N 298.576 1.31904 0.862503 0
M  V30 3035 C 299.992 1.10724 1.14945 0
M  V30 3036 C 300.192 -0.117421 2.01158 0
M  V30 3037 O 299.248 -0.804595 2.39338 0
M  V30 3038 C 300.561 2.38267 1.83437 0
M  V30 3039 C 302.109 2.43949 1.96106 0
M  V30 3040 C 302.584 3.71394 2.68013 0
M  V30 3041 N 304.075 3.72331 2.75543 0
M  V30 3042 C 304.81 4.67641 3.31812 0
M  V30 3043 N 304.306 5.73313 3.88953 0
M  V30 3044 N 306.099 4.5515 3.29841 0
M  V30 3045 H 298.25 2.10436 0.288191 0
M  V30 3046 H 300.513 0.928705 0.190292 0
M  V30 3047 H 300.219 3.27759 1.27542 0
M  V30 3048 H 300.093 2.48633 2.83657 0
M  V30 3049 H 302.48 1.54922 2.51164 0
M  V30 3050 H 302.561 2.37543 0.949059 0
M  V30 3051 H 302.205 4.60791 2.13621 0
M  V30 3052 H 302.135 3.75069 3.69636 0
M  V30 3053 H 304.626 2.95947 2.34997 0
M  V30 3054 H 304.939 6.42107 4.30022 0
M  V30 3055 H 303.284 5.77077 3.87308 0
M  V30 3056 H 306.475 3.71766 2.84443 0
M  V30 3057 H 306.648 5.29604 3.73394 0
M  V30 3058 N 300.054 -1.07777 1.14986 0
M  V30 3059 C 301.017 -2.13041 0.845358 0
M  V30 3060 C 302.017 -1.60071 -0.152931 0
M  V30 3061 O 303.207 -1.74033 0.0761879 0
M  V30 3062 C 300.339 -3.39896 0.261383 0
M  V30 3063 H 301.532 -2.41485 1.77834 0
M  V30 3064 H 299.085 -1.23595 0.956757 0
M  V30 3065 H 299.82 -3.17091 -0.68 0
M  V30 3066 H 299.605 -3.79642 0.980514 0
M  V30 3067 H 301.095 -4.17548 0.0657687 0
M  V30 3068 N 301.532 -0.945985 -1.26051 0
M  V30 3069 C 302.78 -0.594941 -1.93145 0
M  V30 3070 C 303.101 0.86953 -1.7454 0
M  V30 3071 O 302.371 1.61838 -1.10387 0
M  V30 3072 H 300.951 -0.217044 -0.714773 0
M  V30 3073 H 303.613 -1.20235 -1.53393 0
M  V30 3074 H 302.709 -0.816835 -3.01221 0
M  V30 3075 N 303.011 1.40521 -0.713556 0
M  V30 3076 C 304.258 2.00923 -0.25219 0
M  V30 3077 C 304.586 1.56571 1.15395 0
M  V30 3078 O 303.841 0.775874 1.79663 0
M  V30 3079 C 304.14 3.56317 -0.278 0
M  V30 3080 C 303.806 4.20246 -1.63415 0
M  V30 3081 C 302.468 4.37422 -2.00538 0
M  V30 3082 C 304.82 4.55923 -2.52554 0
M  V30 3083 C 302.148 4.87558 -3.2635 0
M  V30 3084 C 304.5 5.07458 -3.77716 0
M  V30 3085 C 303.164 5.22843 -4.14959 0
M  V30 3086 H 302.434 0.735231 -0.0922829 0
M  V30 3087 H 305.081 1.68161 -0.916188 0
M  V30 3088 H 303.386 3.88976 0.469567 0
M  V30 3089 H 305.083 4.00883 0.0967819 0
M  V30 3090 H 301.673 4.07263 -1.33546 0
M  V30 3091 H 305.857 4.42291 -2.25149 0
M  V30 3092 H 301.113 4.97654 -3.55176 0
M  V30 3093 H 305.287 5.34041 -4.4696 0
M  V30 3094 H 302.914 5.61454 -5.12516 0
M  V30 3095 N 304.489 0.459591 1.5075 0
M  V30 3096 C 305.738 -0.100971 2.01447 0
M  V30 3097 C 306.051 -1.41816 1.34713 0
M  V30 3098 O 307.257 -2.06299 1.76502 0
M  V30 3099 C 305.713 -0.23047 3.59161 0
M  V30 3100 C 305.321 1.0776 4.34847 0
M  V30 3101 C 307.065 -0.743608 4.17936 0
M  V30 3102 C 304.972 0.91253 5.84317 0
M  V30 3103 H 303.902 -0.0415102 0.752856 0
M  V30 3104 H 306.553 0.592742 1.73663 0
M  V30 3105 H 304.935 -0.987703 3.83485 0
M  V30 3106 H 306.109 1.8449 4.22256 0
M  V30 3107 H 304.424 1.52097 3.87628 0
M  V30 3108 H 307.021 -0.883959 5.27343 0
M  V30 3109 H 307.364 -1.73196 3.78562 0
M  V30 3110 H 307.897 -0.04408 3.97776 0
M  V30 3111 H 304.636 1.87391 6.28144 0
M  V30 3112 H 304.156 0.185422 5.99513 0
M  V30 3113 H 305.835 0.574547 6.44444 0
M  V30 3114 N 305.967 -1.56429 0.191757 0
M  V30 3115 C 307.216 -1.9666 -0.448088 0
M  V30 3116 C 307.529 -1.08136 -1.62991 0
M  V30 3117 O 308.735 -1.38135 -2.33733 0
M  V30 3118 C 307.191 -3.49753 -0.848585 0
M  V30 3119 C 306.799 -4.46935 0.308764 0
M  V30 3120 C 308.543 -3.9876 -1.4557 0
M  V30 3121 C 306.45 -5.91293 -0.112506 0
M  V30 3122 H 305.38 -0.734312 -0.171179 0
M  V30 3123 H 308.031 -1.81301 0.283242 0
M  V30 3124 H 306.413 -3.60604 -1.63649 0
M  V30 3125 H 307.587 -4.47813 1.08627 0
M  V30 3126 H 305.902 -4.08102 0.827158 0
M  V30 3127 H 308.499 -5.04086 -1.78328 0
M  V30 3128 H 308.842 -3.42875 -2.36099 0
M  V30 3129 H 309.375 -3.9101 -0.731836 0
M  V30 3130 H 306.114 -6.51097 0.758514 0
M  V30 3131 H 305.634 -5.93676 -0.854941 0
M  V30 3132 H 307.313 -6.44663 -0.549448 0
M  V30 3133 N 307.445 0.0818655 -1.57387 0
M  V30 3134 C 308.675 0.794954 -1.90694 0
M  V30 3135 C 309.083 1.72147 -0.784982 0
M  V30 3136 O 308.426 1.81974 0.251196 0
M  V30 3137 C 308.488 1.65042 -3.19376 0
M  V30 3138 C 308.152 0.894337 -4.48164 0
M  V30 3139 C 309.149 0.21813 -5.19442 0
M  V30 3140 C 306.834 0.864495 -4.94805 0
M  V30 3141 C 308.828 -0.477802 -6.35607 0
M  V30 3142 C 306.515 0.164785 -6.10878 0
M  V30 3143 C 307.513 -0.505173 -6.81129 0
M  V30 3144 O 307.201 -1.19363 -7.94989 0
M  V30 3145 H 306.933 0.231779 -0.635023 0
M  V30 3146 H 309.487 0.059493 -2.05314 0
M  V30 3147 H 307.717 2.42844 -3.00938 0
M  V30 3148 H 309.406 2.24127 -3.38411 0
M  V30 3149 H 310.172 0.232558 -4.84442 0
M  V30 3150 H 306.051 1.37542 -4.40004 0
M  V30 3151 H 309.595 -1.00129 -6.90377 0
M  V30 3152 H 305.492 0.148249 -6.4533 0
M  V30 3153 H 306.26 -1.10188 -8.11049 0
M  V30 3154 N 308.923 1.53595 0.353017 0
M  V30 3155 C 310.151 1.74311 1.1146 0
M  V30 3156 C 310.566 0.477854 1.82653 0
M  V30 3157 O 309.923 -0.549977 1.74016 0
M  V30 3158 C 309.974 2.91694 2.13534 0
M  V30 3159 O 309.695 4.13325 1.45238 0
M  V30 3160 C 311.196 3.24384 3.02142 0
M  V30 3161 H 308.416 0.582669 0.332773 0
M  V30 3162 H 310.96 2.00386 0.408107 0
M  V30 3163 H 309.115 2.67977 2.79763 0
M  V30 3164 H 309.529 4.79148 2.13349 0
M  V30 3165 H 311.003 4.09893 3.69718 0
M  V30 3166 H 311.48 2.40282 3.67643 0
M  V30 3167 H 312.086 3.50073 2.41514 0
M  V30 3168 N 310.401 -0.613514 1.45168 0
M  V30 3169 C 311.364 -1.7065 1.53007 0
M  V30 3170 C 312.364 -1.5548 0.410184 0
M  V30 3171 O 313.554 -1.60656 0.673455 0
M  V30 3172 C 310.686 -3.09875 1.42093 0
M  V30 3173 H 311.879 -1.65068 2.50385 0
M  V30 3174 H 309.432 -0.828728 1.32521 0
M  V30 3175 H 310.167 -3.21039 0.458769 0
M  V30 3176 H 309.952 -3.22293 2.23315 0
M  V30 3177 H 311.442 -3.895 1.50598 0
M  V30 3178 N 311.879 -1.3236 -0.855495 0
M  V30 3179 C 312.842 -1.21164 -1.94556 0
M  V30 3180 C 313.842 -0.134908 -1.60233 0
M  V30 3181 O 315.032 -0.385249 -1.69887 0
M  V30 3182 C 312.164 -0.863192 -3.29791 0
M  V30 3183 H 313.357 -2.18038 -2.05911 0
M  V30 3184 H 310.91 -1.16179 -1.04557 0
M  V30 3185 H 311.645 0.103769 -3.24134 0
M  V30 3186 H 311.43 -1.64166 -3.56078 0
M  V30 3187 H 312.92 -0.809156 -4.09686 0
M  V30 3188 N 313.357 1.07166 -1.15556 0
M  V30 3189 C 314.287 2.16403 -0.877046 0
M  V30 3190 C 315.268 1.69217 0.173111 0
M  V30 3191 O 316.453 1.94181 0.027084 0
M  V30 3192 C 313.583 3.45349 -0.367632 0
M  V30 3193 C 312.537 4.05995 -1.35468 0
M  V30 3194 C 311.863 5.30045 -0.704038 0
M  V30 3195 C 313.163 4.45804 -2.72132 0
M  V30 3196 H 314.857 2.39959 -1.79053 0
M  V30 3197 H 312.403 1.15325 -0.862331 0
M  V30 3198 H 314.356 4.21095 -0.160317 0
M  V30 3199 H 313.08 3.21385 0.581326 0
M  V30 3200 H 311.739 3.32296 -1.54839 0
M  V30 3201 H 311.387 5.02373 0.251128 0
M  V30 3202 H 311.087 5.71579 -1.36277 0
M  V30 3203 H 312.611 6.08495 -0.50654 0
M  V30 3204 H 314.025 5.12671 -2.56595 0
M  V30 3205 H 312.422 4.98296 -3.34397 0
M  V30 3206 H 313.492 3.57083 -3.28054 0
M  V30 3207 N 314.835 0.952656 1.25548 0
M  V30 3208 C 316.083 0.605176 1.92826 0
M  V30 3209 C 316.404 -0.860261 1.74999 0
M  V30 3210 O 315.674 -1.6125 1.11244 0
M  V30 3211 H 314.254 0.220832 0.713612 0
M  V30 3212 H 316.916 1.21047 1.52754 0
M  V30 3213 H 316.012 0.832798 3.00784 0
M  V30 3214 N 316.313 -1.40141 0.720998 0
M  V30 3215 C 317.56 -2.00787 0.262842 0
M  V30 3216 C 317.888 -1.5718 -1.14563 0
M  V30 3217 O 317.143 -0.785391 -1.79249 0
M  V30 3218 C 317.442 -3.56165 0.296892 0
M  V30 3219 C 317.108 -4.19373 1.65641 0
M  V30 3220 C 315.77 -4.36352 2.02855 0
M  V30 3221 C 318.122 -4.54578 2.54968 0
M  V30 3222 C 315.45 -4.8582 3.28931 0
M  V30 3223 C 317.802 -5.05447 3.80402 0
M  V30 3224 C 316.466 -5.20635 4.17726 0
M  V30 3225 H 315.736 -0.734731 0.0961807 0
M  V30 3226 H 318.383 -1.67673 0.925093 0
M  V30 3227 H 316.688 -3.8922 -0.448932 0
M  V30 3228 H 318.385 -4.00929 -0.0755208 0
M  V30 3229 H 314.975 -4.06549 1.35704 0
M  V30 3230 H 319.159 -4.41091 2.27491 0
M  V30 3231 H 314.415 -4.95764 3.57811 0
M  V30 3232 H 318.589 -5.31663 4.49786 0
M  V30 3233 H 316.216 -5.58728 5.15487 0
M  V30 3234 N 317.792 -0.46758 -1.50504 0
M  V30 3235 C 319.039 0.0886219 -2.02306 0
M  V30 3236 C 319.367 1.40037 -1.34981 0
M  V30 3237 O 318.622 1.90136 -0.463318 0
M  V30 3238 C 318.921 0.323995 -3.55928 0
M  V30 3239 C 318.587 -0.905618 -4.41712 0
M  V30 3240 C 317.249 -1.24275 -4.64875 0
M  V30 3241 C 319.601 -1.72448 -4.91845 0
M  V30 3242 C 316.929 -2.39888 -5.35417 0
M  V30 3243 C 319.281 -2.87185 -5.63656 0
M  V30 3244 C 317.945 -3.21317 -5.85074 0
M  V30 3245 H 317.215 0.0324291 -0.74029 0
M  V30 3246 H 319.862 -0.620945 -1.81153 0
M  V30 3247 H 318.167 1.11577 -3.75577 0
M  V30 3248 H 319.864 0.76826 -3.93572 0
M  V30 3249 H 316.454 -0.632956 -4.239 0
M  V30 3250 H 320.638 -1.4772 -4.73806 0
M  V30 3251 H 315.894 -2.66611 -5.50208 0
M  V30 3252 H 320.068 -3.50985 -6.01484 0
M  V30 3253 H 317.695 -4.1101 -6.39511 0
M  V30 3254 N 319.27 1.56325 -0.20005 0
M  V30 3255 C 320.518 1.97329 0.436547 0
M  V30 3256 C 320.839 1.08826 1.61808 0
M  V30 3257 O 320.109 0.160604 1.95241 0
M  V30 3258 H 318.689 0.728714 0.164272 0
M  V30 3259 H 321.351 1.92761 -0.287937 0
M  V30 3260 H 320.447 3.02264 0.777353 0
M  V30 3261 N 320.748 -0.0735177 1.57428 0
M  V30 3262 C 322.159 -0.625551 1.75908 0
M  V30 3263 C 322.51 -1.78 0.825261 0
M  V30 3264 O 321.635 -2.16398 0.00893964 0
M  V30 3265 C 322.23 -1.14155 3.18989 0
M  V30 3266 C 320.789 -1.63946 3.38819 0
M  V30 3267 C 319.936 -0.558151 2.71625 0
M  V30 3268 H 322.887 0.152647 1.57964 0
M  V30 3269 H 322.908 -2.0104 3.23053 0
M  V30 3270 H 322.42 -0.301116 3.8693 0
M  V30 3271 H 320.521 -2.50321 2.7599 0
M  V30 3272 H 320.634 -1.71759 4.47253 0
M  V30 3273 H 318.998 -1.00278 2.34129 0
M  V30 3274 H 319.781 0.272071 3.4222 0
M  V30 3275 N 322.226 -1.5378 -0.344866 0
M  V30 3276 C 323.156 -1.84662 -1.42906 0
M  V30 3277 C 324.137 -0.701648 -1.54955 0
M  V30 3278 O 325.322 -0.953438 -1.69184 0
M  V30 3279 C 322.452 -2.05503 -2.79974 0
M  V30 3280 C 321.406 -3.21318 -2.82734 0
M  V30 3281 C 320.732 -3.2749 -4.22675 0
M  V30 3282 C 322.032 -4.59456 -2.48389 0
M  V30 3283 H 323.726 -2.75461 -1.17311 0
M  V30 3284 H 321.272 -1.32542 -0.562896 0
M  V30 3285 H 323.225 -2.25691 -3.55867 0
M  V30 3286 H 321.949 -1.11434 -3.07002 0
M  V30 3287 H 320.608 -3.00984 -2.09294 0
M  V30 3288 H 320.256 -2.31019 -4.4681 0
M  V30 3289 H 319.956 -4.05316 -4.25433 0
M  V30 3290 H 321.48 -3.49887 -5.00412 0
M  V30 3291 H 322.894 -4.79667 -3.13995 0
M  V30 3292 H 321.291 -5.39675 -2.62432 0
M  V30 3293 H 322.361 -4.63155 -1.4358 0
M  V30 3294 N 323.704 0.605807 -1.45491 0
M  V30 3295 C 324.634 1.72709 -1.57143 0
M  V30 3296 C 325.615 1.6476 -0.422884 0
M  V30 3297 O 326.8 1.83132 -0.646247 0
M  V30 3298 C 323.93 3.11316 -1.53948 0
M  V30 3299 C 322.884 3.34077 -2.67537 0
M  V30 3300 C 322.21 4.72975 -2.49397 0
M  V30 3301 C 323.51 3.24158 -4.09535 0
M  V30 3302 H 325.204 1.63214 -2.51001 0
M  V30 3303 H 322.75 0.78379 -1.208 0
M  V30 3304 H 324.703 3.89557 -1.60696 0
M  V30 3305 H 323.427 3.21655 -0.566205 0
M  V30 3306 H 322.086 2.58227 -2.6022 0
M  V30 3307 H 321.734 4.8005 -1.50205 0
M  V30 3308 H 321.434 4.8916 -3.25571 0
M  V30 3309 H 322.958 5.53414 -2.58002 0
M  V30 3310 H 324.372 3.92271 -4.18086 0
M  V30 3311 H 322.769 3.51872 -4.86113 0
M  V30 3312 H 323.839 2.2157 -4.31317 0
M  V30 3313 N 325.182 1.32811 0.848464 0
M  V30 3314 C 326.428 1.23907 1.60546 0
M  V30 3315 C 326.761 -0.197161 1.93197 0
M  V30 3316 O 326.036 -1.13596 1.5788 0
M  V30 3317 C 326.319 2.10489 2.92175 0
M  V30 3318 C 326.172 3.62522 2.66266 0
M  V30 3319 C 327.491 1.97075 3.93509 0
M  V30 3320 H 324.61 0.451459 0.58254 0
M  V30 3321 H 327.252 1.62818 0.979296 0
M  V30 3322 H 325.402 1.77434 3.45614 0
M  V30 3323 H 327.074 4.05821 2.19334 0
M  V30 3324 H 325.317 3.84879 2.00126 0
M  V30 3325 H 325.988 4.18437 3.6002 0
M  V30 3326 H 328.464 2.26045 3.49346 0
M  V30 3327 H 327.34 2.59923 4.83457 0
M  V30 3328 H 327.601 0.940186 4.31987 0
M  V30 3329 N 326.66 -1.06551 1.16123 0
M  V30 3330 C 327.909 -1.78687 0.935622 0
M  V30 3331 C 328.222 -1.88056 -0.538001 0
M  V30 3332 O 329.428 -2.56794 -0.88143 0
M  V30 3333 C 327.884 -3.21143 1.62466 0
M  V30 3334 C 327.492 -3.19949 3.13587 0
M  V30 3335 C 329.236 -3.9783 1.48092 0
M  V30 3336 C 327.143 -4.57108 3.75241 0
M  V30 3337 H 326.073 -0.669712 0.346412 0
M  V30 3338 H 328.724 -1.19534 1.39226 0
M  V30 3339 H 327.106 -3.80539 1.09572 0
M  V30 3340 H 328.28 -2.70151 3.73303 0
M  V30 3341 H 326.595 -2.5676 3.27816 0
M  V30 3342 H 329.192 -4.99217 1.91538 0
M  V30 3343 H 329.535 -4.14078 0.429507 0
M  V30 3344 H 330.068 -3.4495 1.98127 0
M  V30 3345 H 326.807 -4.46065 4.80319 0
M  V30 3346 H 326.327 -5.07111 3.20309 0
M  V30 3347 H 328.006 -5.26069 3.76644 0
M  V30 3348 N 328.138 -0.959301 -1.25041 0
M  V30 3349 C 329.378 -0.624343 -1.94631 0
M  V30 3350 C 329.742 0.82403 -1.73418 0
M  V30 3351 O 330.943 1.26881 -2.3697 0
M  V30 3352 C 329.214 -0.978805 -3.43736 0
M  V30 3353 S 330.773 -0.757127 -4.32219 0
M  V30 3354 H 327.591 -0.229327 -0.673001 0
M  V30 3355 H 330.193 -1.23447 -1.51595 0
M  V30 3356 H 328.897 -2.02997 -3.56679 0
M  V30 3357 H 328.428 -0.359117 -3.91757 0
M  V30 3358 H 330.443 0.369759 -4.9482 0
M  V30 3359 N 329.616 1.39756 -0.72842 0
M  V30 3360 C 330.546 2.33289 -0.0991354 0
M  V30 3361 C 331.527 1.53568 0.731489 0
M  V30 3362 O 332.712 1.81987 0.677807 0
M  V30 3363 C 329.842 3.3763 0.813834 0
M  V30 3364 C 328.796 4.2791 0.0878663 0
M  V30 3365 C 328.122 5.22894 1.11741 0
M  V30 3366 C 329.422 5.11314 -1.06563 0
M  V30 3367 H 331.116 2.86163 -0.880408 0
M  V30 3368 H 328.662 1.37591 -0.424819 0
M  V30 3369 H 330.615 4.0201 1.26355 0
M  V30 3370 H 329.339 2.83181 1.62715 0
M  V30 3371 H 327.998 3.65 -0.342159 0
M  V30 3372 H 327.646 4.64744 1.92412 0
M  V30 3373 H 327.346 5.84143 0.636477 0
M  V30 3374 H 328.87 5.90151 1.56697 0
M  V30 3375 H 330.284 5.69076 -0.694671 0
M  V30 3376 H 328.681 5.81671 -1.47577 0
M  V30 3377 H 329.751 4.46534 -1.89038 0
M  V30 3378 N 331.094 0.475555 1.50254 0
M  V30 3379 C 332.334 -0.0765802 2.04256 0
M  V30 3380 C 332.698 -1.36587 1.34937 0
M  V30 3381 O 333.899 -2.00066 1.79519 0
M  V30 3382 C 332.17 -0.251668 3.56513 0
M  V30 3383 S 333.729 -0.761716 4.32138 0
M  V30 3384 H 330.547 -0.0138456 0.710865 0
M  V30 3385 H 333.149 0.643714 1.84598 0
M  V30 3386 H 331.853 0.692404 4.04517 0
M  V30 3387 H 331.384 -0.997946 3.80532 0
M  V30 3388 H 333.399 -2.03451 4.52573 0
M  V30 3389 N 332.573 -1.56217 0.208337 0
M  V30 3390 C 333.803 -2.02043 -0.431523 0
M  V30 3391 C 334.211 -1.08755 -1.54819 0
M  V30 3392 O 333.554 -0.0870009 -1.83494 0
M  V30 3393 C 333.616 -3.44239 -1.03633 0
M  V30 3394 C 333.28 -4.56965 -0.0567502 0
M  V30 3395 C 334.277 -5.14624 0.738773 0
M  V30 3396 C 331.962 -5.02266 0.0581736 0
M  V30 3397 C 333.956 -6.16045 1.63605 0
M  V30 3398 C 331.643 -6.03528 0.959001 0
M  V30 3399 C 332.641 -6.60293 1.7465 0
M  V30 3400 O 332.329 -7.59586 2.6322 0
M  V30 3401 H 332.061 -0.666772 -0.111313 0
M  V30 3402 H 334.615 -2.02919 0.318277 0
M  V30 3403 H 332.845 -3.40391 -1.83497 0
M  V30 3404 H 334.534 -3.73793 -1.58221 0
M  V30 3405 H 335.3 -4.80483 0.660364 0
M  V30 3406 H 331.179 -4.57771 -0.544633 0
M  V30 3407 H 334.723 -6.60279 2.25116 0
M  V30 3408 H 330.62 -6.37092 1.03848 0
M  V30 3409 H 331.388 -7.77057 2.57148 0
M  V30 3410 N 334.051 0.0651679 -1.57465 0
M  V30 3411 C 334.981 1.07693 -2.07182 0
M  V30 3412 C 335.962 1.39962 -0.966673 0
M  V30 3413 O 337.147 1.49475 -1.2398 0
M  V30 3414 C 334.277 2.3885 -2.52127 0
M  V30 3415 C 333.231 2.20917 -3.66579 0
M  V30 3416 C 332.557 3.57515 -3.97601 0
M  V30 3417 C 333.857 1.62493 -4.9638 0
M  V30 3418 H 335.551 0.663199 -2.91962 0
M  V30 3419 H 333.097 0.317569 -1.40455 0
M  V30 3420 H 335.05 3.09928 -2.85522 0
M  V30 3421 H 333.774 2.82215 -1.64384 0
M  V30 3422 H 332.433 1.52279 -3.33477 0
M  V30 3423 H 332.081 3.98463 -3.06979 0
M  V30 3424 H 331.781 3.46353 -4.74672 0
M  V30 3425 H 333.305 4.30013 -4.33499 0
M  V30 3426 H 334.719 2.23445 -5.27963 0
M  V30 3427 H 333.116 1.62009 -5.77818 0
M  V30 3428 H 334.186 0.587041 -4.81333 0
M  V30 3429 N 335.529 1.53961 0.336706 0
M  V30 3430 C 336.459 1.85417 1.41925 0
M  V30 3431 C 337.44 0.709856 1.5458 0
M  V30 3432 O 338.625 0.962396 1.68676 0
M  V30 3433 C 335.755 2.06985 2.78881 0
M  V30 3434 C 334.709 3.22813 2.81026 0
M  V30 3435 C 334.035 3.29727 4.20932 0
M  V30 3436 C 335.335 4.60767 2.45949 0
M  V30 3437 H 337.029 2.76079 1.15848 0
M  V30 3438 H 334.575 1.32839 0.555859 0
M  V30 3439 H 336.528 2.27575 3.54665 0
M  V30 3440 H 335.252 1.13061 3.06406 0
M  V30 3441 H 333.911 3.0209 2.07695 0
M  V30 3442 H 333.559 2.33385 4.45579 0
M  V30 3443 H 333.259 4.07566 4.23277 0
M  V30 3444 H 334.783 3.52536 4.98549 0
M  V30 3445 H 336.197 4.81325 3.11446 0
M  V30 3446 H 334.594 5.4106 2.59566 0
M  V30 3447 H 335.664 4.6391 1.41122 0
M  V30 3448 N 337.007 -0.598083 1.45811 0
M  V30 3449 C 338.256 -1.35295 1.49594 0
M  V30 3450 C 338.569 -1.95057 0.145679 0
M  V30 3451 O 339.775 -2.71431 0.0612099 0
M  V30 3452 C 338.231 -2.45124 2.63519 0
M  V30 3453 C 337.839 -1.91732 4.04899 0
M  V30 3454 C 339.583 -3.2205 2.76558 0
M  V30 3455 C 337.49 -2.991 5.1019 0
M  V30 3456 H 336.42 -0.508552 0.556679 0
M  V30 3457 H 339.071 -0.639977 1.71978 0
M  V30 3458 H 337.453 -3.19149 2.34435 0
M  V30 3459 H 338.627 -1.24352 4.43704 0
M  V30 3460 H 336.942 -1.27522 3.96393 0
M  V30 3461 H 339.539 -4.0215 3.52391 0
M  V30 3462 H 339.882 -3.73663 1.83526 0
M  V30 3463 H 340.415 -2.55127 3.05213 0
M  V30 3464 H 337.154 -2.52393 6.04961 0
M  V30 3465 H 336.674 -3.65017 4.75944 0
M  V30 3466 H 338.353 -3.63318 5.35359 0
M  V30 3467 N 338.485 -1.33259 -0.841409 0
M  V30 3468 C 339.731 -1.24757 -1.59886 0
M  V30 3469 C 340.064 0.186913 -1.93298 0
M  V30 3470 O 339.339 1.12757 -1.5848 0
M  V30 3471 C 339.622 -2.12036 -2.91055 0
M  V30 3472 C 339.475 -3.63929 -2.6434 0
M  V30 3473 C 340.794 -1.9916 -3.92458 0
M  V30 3474 H 337.913 -0.454542 -0.580138 0
M  V30 3475 H 340.555 -1.63335 -0.970647 0
M  V30 3476 H 338.705 -1.79265 -3.44669 0
M  V30 3477 H 340.377 -4.06978 -2.17178 0
M  V30 3478 H 338.62 -3.85935 -1.98082 0
M  V30 3479 H 339.291 -4.20341 -3.57796 0
M  V30 3480 H 341.767 -2.27895 -3.48143 0
M  V30 3481 H 340.643 -2.62484 -4.82072 0
M  V30 3482 H 340.904 -0.963082 -4.31482 0
M  V30 3483 N 339.963 1.05934 -1.16686 0
M  V30 3484 C 341.209 1.79065 -0.95203 0
M  V30 3485 C 341.542 1.87147 0.518629 0
M  V30 3486 O 340.817 1.36574 1.38484 0
M  V30 3487 C 341.1 3.23359 -1.58464 0
M  V30 3488 C 340.953 3.23336 -3.12689 0
M  V30 3489 C 342.272 4.21004 -1.28232 0
M  V30 3490 H 339.391 0.65005 -0.34728 0
M  V30 3491 H 342.033 1.23868 -1.44072 0
M  V30 3492 H 340.183 3.70493 -1.16908 0
M  V30 3493 H 341.855 2.84336 -3.6325 0
M  V30 3494 H 340.098 2.61886 -3.4583 0
M  V30 3495 H 340.769 4.25144 -3.52075 0
M  V30 3496 H 343.245 3.8233 -1.64203 0
M  V30 3497 H 342.121 5.20225 -1.75092 0
M  V30 3498 H 342.382 4.41639 -0.201791 0
M  V30 3499 N 341.441 0.965919 1.2453 0
M  V30 3500 C 342.388 0.49402 2.25451 0
M  V30 3501 C 343.358 -0.45948 1.59618 0
M  V30 3502 O 344.543 -0.370238 1.87173 0
M  V30 3503 C 341.683 -0.211359 3.44452 0
M  V30 3504 C 340.796 0.7807 4.24887 0
M  V30 3505 C 339.931 0.0516105 5.31175 0
M  V30 3506 C 338.97 1.03385 6.03306 0
M  V30 3507 N 338.107 0.334887 7.01301 0
M  V30 3508 H 342.947 1.35946 2.65184 0
M  V30 3509 H 340.484 0.681515 1.3036 0
M  V30 3510 H 342.442 -0.637 4.12308 0
M  V30 3511 H 341.072 -1.04077 3.05562 0
M  V30 3512 H 340.124 1.32479 3.56586 0
M  V30 3513 H 341.436 1.52978 4.74762 0
M  V30 3514 H 340.59 -0.432114 6.05159 0
M  V30 3515 H 339.329 -0.730179 4.82203 0
M  V30 3516 H 338.334 1.52847 5.28127 0
M  V30 3517 H 339.559 1.81606 6.54367 0
M  V30 3518 H 337.505 -0.427959 6.54603 0
M  V30 3519 H 337.422 1.02287 7.49048 0
M  V30 3520 H 338.69 -0.126928 7.79397 0
M  V30 3521 N 342.919 -1.39368 0.735821 0
M  V30 3522 C 344.165 -2.00794 0.284544 0
M  V30 3523 C 344.498 -1.58255 -1.12557 0
M  V30 3524 O 343.773 -0.811819 -1.76748 0
M  V30 3525 C 344.056 -3.58011 0.387337 0
M  V30 3526 C 343.909 -4.10566 1.83728 0
M  V30 3527 C 345.228 -4.395 -0.22975 0
M  V30 3528 H 342.347 -0.729501 0.104866 0
M  V30 3529 H 344.989 -1.65564 0.93213 0
M  V30 3530 H 343.139 -3.88154 -0.164006 0
M  V30 3531 H 344.811 -3.91139 2.44556 0
M  V30 3532 H 343.054 -3.64095 2.35833 0
M  V30 3533 H 343.725 -5.19702 1.86047 0
M  V30 3534 H 346.201 -4.15406 0.240257 0
M  V30 3535 H 345.077 -5.48752 -0.127485 0
M  V30 3536 H 345.338 -4.22062 -1.3159 0
M  V30 3537 N 344.397 -0.483516 -1.5 0
M  V30 3538 C 345.813 -0.138404 -1.58999 0
M  V30 3539 C 346.013 1.35597 -1.4905 0
M  V30 3540 O 345.069 2.13039 -1.35539 0
M  V30 3541 C 346.382 -0.699658 -2.92447 0
M  V30 3542 C 347.93 -0.664195 -3.05872 0
M  V30 3543 C 348.405 -1.20321 -4.41913 0
M  V30 3544 N 349.896 -1.16315 -4.48358 0
M  V30 3545 C 350.631 -1.55058 -5.52037 0
M  V30 3546 N 350.127 -2.01311 -6.62907 0
M  V30 3547 N 351.92 -1.46584 -5.42651 0
M  V30 3548 H 344.071 -1.45529 -1.5471 0
M  V30 3549 H 346.334 -0.60258 -0.731848 0
M  V30 3550 H 346.04 -1.747 -3.05242 0
M  V30 3551 H 345.914 -0.150194 -3.76901 0
M  V30 3552 H 348.301 0.374272 -2.92717 0
M  V30 3553 H 348.382 -1.25061 -2.23144 0
M  V30 3554 H 348.026 -2.24037 -4.55818 0
M  V30 3555 H 347.956 -0.592896 -5.23252 0
M  V30 3556 H 350.447 -0.824058 -3.68806 0
M  V30 3557 H 350.76 -2.2899 -7.38095 0
M  V30 3558 H 349.105 -2.05273 -6.63994 0
M  V30 3559 H 352.296 -1.10281 -4.54924 0
M  V30 3560 H 352.469 -1.77103 -6.23329 0
M  V30 3561 N 345.875 1.56104 -0.216619 0
M  V30 3562 C 347.1 2.0301 0.424462 0
M  V30 3563 C 347.525 1.0955 1.52907 0
M  V30 3564 O 346.883 0.0827914 1.81111 0
M  V30 3565 C 346.931 3.4819 0.937883 0
M  V30 3566 O 346.035 3.57865 2.04955 0
M  V30 3567 H 345.376 0.656925 0.0966755 0
M  V30 3568 H 347.906 2.01859 -0.33381 0
M  V30 3569 H 347.916 3.88413 1.24897 0
M  V30 3570 H 346.591 4.15699 0.129387 0
M  V30 3571 H 345.168 3.29527 1.74546 0
M  V30 3572 N 347.353 -0.0568162 1.57498 0
M  V30 3573 C 348.316 -1.05038 2.03715 0
M  V30 3574 C 349.316 -1.30709 0.936577 0
M  V30 3575 O 350.506 -1.26178 1.20103 0
M  V30 3576 C 347.638 -2.39034 2.43055 0
M  V30 3577 H 348.831 -0.651715 2.92733 0
M  V30 3578 H 346.384 -0.302947 1.53336 0
M  V30 3579 H 347.119 -2.83703 1.57108 0
M  V30 3580 H 346.904 -2.21739 3.2338 0
M  V30 3581 H 348.394 -3.10421 2.79336 0
M  V30 3582 N 348.832 -1.54138 -0.328536 0
M  V30 3583 C 350.08 -1.71765 -1.06496 0
M  V30 3584 C 350.401 -0.49149 -1.88704 0
M  V30 3585 O 349.671 0.494539 -1.89555 0
M  V30 3586 H 348.251 -0.633295 -0.396164 0
M  V30 3587 H 350.913 -1.91429 -0.366176 0
M  V30 3588 H 350.009 -2.5951 -1.73381 0
M  V30 3589 N 350.31 0.590341 -1.46126 0
M  V30 3590 C 351.726 0.912917 -1.30912 0
M  V30 3591 C 351.926 1.99616 -0.274893 0
M  V30 3592 O 350.982 2.50397 0.325197 0
M  V30 3593 C 352.295 1.3375 -2.69317 0
M  V30 3594 C 353.843 1.45077 -2.77348 0
M  V30 3595 C 354.318 1.90904 -4.16317 0
M  V30 3596 N 355.809 1.9811 -4.18696 0
M  V30 3597 C 356.544 2.34828 -5.23109 0
M  V30 3598 N 356.04 2.70393 -6.37856 0
M  V30 3599 N 357.833 2.35317 -5.10473 0
M  V30 3600 H 349.984 -0.125358 -2.1203 0
M  V30 3601 H 352.247 0.00658481 -0.947977 0
M  V30 3602 H 351.953 0.615614 -3.4627 0
M  V30 3603 H 351.827 2.30058 -2.9892 0
M  V30 3604 H 354.214 2.16353 -2.00687 0
M  V30 3605 H 354.295 0.4704 -2.51438 0
M  V30 3606 H 353.939 1.20209 -4.9347 0
M  V30 3607 H 353.869 2.89886 -4.39629 0
M  V30 3608 H 356.36 1.73146 -3.359 0
M  V30 3609 H 356.673 2.97341 -7.13308 0
M  V30 3610 H 355.018 2.68048 -6.41229 0
M  V30 3611 H 358.209 2.0695 -4.19868 0
M  V30 3612 H 358.382 2.63605 -5.9196 0
M  V30 3613 N 351.788 1.33704 0.83433 0
M  V30 3614 C 353.204 1.13137 1.12571 0
M  V30 3615 C 353.404 -0.0747261 2.01361 0
M  V30 3616 O 352.46 -0.753647 2.4099 0
M  V30 3617 C 353.773 2.42105 1.78342 0
M  V30 3618 C 355.321 2.48054 1.90888 0
M  V30 3619 C 355.796 3.76995 2.60075 0
M  V30 3620 N 357.287 3.78092 2.67584 0
M  V30 3621 C 358.022 4.74574 3.21818 0
M  V30 3622 N 357.518 5.81434 3.76705 0
M  V30 3623 N 359.311 4.62044 3.20112 0
M  V30 3624 H 351.462 2.11 0.243489 0
M  V30 3625 H 353.725 0.932532 0.17055 0
M  V30 3626 H 353.431 3.30391 1.20561 0
M  V30 3627 H 353.305 2.54594 2.7832 0
M  V30 3628 H 355.692 1.60215 2.47821 0
M  V30 3629 H 355.773 2.39502 0.898459 0
M  V30 3630 H 355.417 4.65219 2.03799 0
M  V30 3631 H 355.347 3.82825 3.61597 0
M  V30 3632 H 357.838 3.00865 2.28667 0
M  V30 3633 H 358.151 6.51084 4.16305 0
M  V30 3634 H 356.496 5.85163 3.7498 0
M  V30 3635 H 359.687 3.77716 2.76493 0
M  V30 3636 H 359.86 5.37406 3.62076 0
M  V30 3637 N 353.266 -1.05314 1.17247 0
M  V30 3638 C 354.512 -1.78557 0.961513 0
M  V30 3639 C 354.845 -1.87419 -0.508697 0
M  V30 3640 O 354.12 -1.37307 -1.37757 0
M  V30 3641 C 354.403 -3.22514 1.60176 0
M  V30 3642 C 354.256 -3.21673 3.14399 0
M  V30 3643 C 355.575 -4.20318 1.30463 0
M  V30 3644 H 352.694 -0.6482 0.350723 0
M  V30 3645 H 355.336 -1.23102 1.44727 0
M  V30 3646 H 353.486 -3.69867 1.18871 0
M  V30 3647 H 355.158 -2.82405 3.64753 0
M  V30 3648 H 353.401 -2.60048 3.47214 0
M  V30 3649 H 354.072 -4.23271 3.54324 0
M  V30 3650 H 356.548 -3.81454 1.66229 0
M  V30 3651 H 355.424 -5.19289 1.77848 0
M  V30 3652 H 355.685 -4.41526 0.22521 0
M  V30 3653 N 354.744 -0.972509 -1.24016 0
M  V30 3654 C 355.99 -0.647583 -1.92816 0
M  V30 3655 C 356.345 0.809015 -1.74564 0
M  V30 3656 O 355.638 1.57502 -1.09103 0
M  V30 3657 C 355.832 -0.963694 -3.44162 0
M  V30 3658 C 355.661 -2.44947 -3.77135 0
M  V30 3659 C 354.431 -3.11012 -3.98246 0
M  V30 3660 C 356.629 -3.42978 -3.83237 0
M  V30 3661 N 354.611 -4.49277 -4.18358 0
M  V30 3662 C 355.982 -4.66619 -4.08248 0
M  V30 3663 C 358.037 -3.37569 -3.65994 0
M  V30 3664 C 356.74 -5.85516 -4.17808 0
M  V30 3665 C 358.766 -4.55822 -3.76802 0
M  V30 3666 C 358.128 -5.78256 -4.02243 0
M  V30 3667 H 354.227 -0.287894 -0.727077 0
M  V30 3668 H 356.811 -1.24835 -1.49413 0
M  V30 3669 H 354.982 -0.391692 -3.8642 0
M  V30 3670 H 356.714 -0.596849 -4.00275 0
M  V30 3671 H 353.469 -2.61529 -3.94841 0
M  V30 3672 H 353.893 -5.20935 -4.32384 0
M  V30 3673 H 358.535 -2.43945 -3.45327 0
M  V30 3674 H 356.253 -6.79564 -4.37285 0
M  V30 3675 H 359.839 -4.53204 -3.64825 0
M  V30 3676 H 358.719 -6.68231 -4.10411 0
M  V30 3677 N 356.222 1.38976 -0.743202 0
M  V30 3678 C 357.185 2.28901 -0.117014 0
M  V30 3679 C 358.185 1.46698 0.658503 0
M  V30 3680 O 359.375 1.67274 0.486305 0
M  V30 3681 C 356.507 3.30309 0.84315 0
M  V30 3682 H 357.7 2.8578 -0.909373 0
M  V30 3683 H 355.253 1.47761 -0.509547 0
M  V30 3684 H 355.988 2.785 1.66157 0
M  V30 3685 H 355.773 3.91029 0.289594 0
M  V30 3686 H 357.263 3.97577 1.2776 0
M  V30 3687 N 357.7 0.491464 1.49741 0
M  V30 3688 C 359.111 0.0413169 1.86654 0
M  V30 3689 C 359.462 -1.36985 1.40462 0
M  V30 3690 O 358.587 -2.01917 0.778354 0
M  V30 3691 C 359.182 0.0682023 3.38731 0
M  V30 3692 C 357.741 -0.32656 3.74981 0
M  V30 3693 C 356.888 0.444888 2.73708 0
M  V30 3694 H 359.839 0.704733 1.42194 0
M  V30 3695 H 359.86 -0.729322 3.73445 0
M  V30 3696 H 359.372 1.09539 3.72321 0
M  V30 3697 H 357.473 -1.35734 3.46997 0
M  V30 3698 H 357.586 -0.013741 4.79098 0
M  V30 3699 H 355.95 -0.104062 2.54487 0
M  V30 3700 H 356.733 1.47197 3.10142 0
M  V30 3701 N 359.178 -1.55987 0.224894 0
M  V30 3702 C 360.403 -2.03232 -0.41369 0
M  V30 3703 C 360.828 -1.10359 -1.52323 0
M  V30 3704 O 360.186 -0.092395 -1.81064 0
M  V30 3705 C 360.234 -3.48682 -0.919405 0
M  V30 3706 O 359.338 -3.58947 -2.03054 0
M  V30 3707 H 358.679 -0.657428 -0.0931903 0
M  V30 3708 H 361.209 -2.01679 0.34451 0
M  V30 3709 H 361.219 -3.8907 -1.22835 0
M  V30 3710 H 359.894 -4.15761 -0.107339 0
M  V30 3711 H 358.471 -3.30448 -1.72796 0
M  V30 3712 N 360.656 0.0484629 -1.57525 0
M  V30 3713 C 361.896 0.748196 -1.90214 0
M  V30 3714 C 362.26 1.73545 -0.821347 0
M  V30 3715 O 363.461 2.48201 -1.03198 0
M  V30 3716 C 361.732 1.41727 -3.28098 0
M  V30 3717 S 363.291 2.14884 -3.82584 0
M  V30 3718 H 360.109 0.248307 -0.666232 0
M  V30 3719 H 362.711 0.00343188 -1.955 0
M  V30 3720 H 361.415 0.685244 -4.04639 0
M  V30 3721 H 360.946 2.20099 -3.26068 0
M  V30 3722 H 362.961 3.41755 -3.59747 0
M  V30 3723 N 362.134 1.5431 0.320358 0
M  V30 3724 C 363.066 1.80262 1.41556 0
M  V30 3725 C 364.079 0.684723 1.477 0
M  V30 3726 O 365.268 0.961886 1.50366 0
M  V30 3727 C 362.368 1.90825 2.8007 0
M  V30 3728 C 361.541 3.21023 2.97091 0
M  V30 3729 C 360.6 3.22247 4.15985 0
M  V30 3730 O 359.626 3.95871 4.08992 0
M  V30 3731 N 360.828 2.46258 5.25678 0
M  V30 3732 H 363.593 2.74778 1.19655 0
M  V30 3733 H 361.154 1.53646 0.510358 0
M  V30 3734 H 363.146 1.89067 3.57821 0
M  V30 3735 H 361.716 1.03392 2.95006 0
M  V30 3736 H 360.936 3.35715 2.06614 0
M  V30 3737 H 362.224 4.0698 3.05361 0
M  V30 3738 H 361.622 1.86037 5.34235 0
M  V30 3739 H 360.179 2.50275 6.01835 0
M  V30 3740 N 363.613 -0.582584 1.46437 0
M  V30 3741 C 365.029 -0.905962 1.31394 0
M  V30 3742 C 365.229 -1.99468 0.285476 0
M  V30 3743 O 364.285 -2.50566 -0.311914 0
M  V30 3744 C 365.598 -1.3232 2.70022 0
M  V30 3745 C 367.146 -1.43604 2.78113 0
M  V30 3746 C 367.621 -1.88694 4.17323 0
M  V30 3747 N 369.112 -1.95887 4.19741 0
M  V30 3748 C 369.847 -2.32051 5.24347 0
M  V30 3749 N 369.343 -2.67006 6.39281 0
M  V30 3750 N 371.136 -2.32606 5.11713 0
M  V30 3751 H 363.287 0.1366 2.1196 0
M  V30 3752 H 365.55 -0.00155736 0.947999 0
M  V30 3753 H 365.256 -0.597242 3.46592 0
M  V30 3754 H 365.13 -2.28469 3.00136 0
M  V30 3755 H 367.517 -2.15286 2.01832 0
M  V30 3756 H 367.598 -0.457059 2.51684 0
M  V30 3757 H 367.242 -1.1759 4.941 0
M  V30 3758 H 367.172 -2.8755 4.4116 0
M  V30 3759 H 369.663 -1.71362 3.36814 0
M  V30 3760 H 369.976 -2.93554 7.14875 0
M  V30 3761 H 368.321 -2.64644 6.42642 0
M  V30 3762 H 371.512 -2.04721 4.2096 0
M  V30 3763 H 371.685 -2.60462 5.93349 0
M  V30 3764 N 365.091 -1.34144 -0.827227 0
M  V30 3765 C 366.507 -1.13732 -1.11969 0
M  V30 3766 C 366.707 0.0640463 -2.01398 0
M  V30 3767 O 365.763 0.740856 -2.41387 0
M  V30 3768 C 367.076 -2.43047 -1.77055 0
M  V30 3769 C 368.624 -2.49063 -1.89569 0
M  V30 3770 C 369.099 -3.78369 -2.58072 0
M  V30 3771 N 370.59 -3.79505 -2.65575 0
M  V30 3772 C 371.325 -4.76274 -3.19297 0
M  V30 3773 N 370.821 -5.83424 -3.73616 0
M  V30 3774 N 372.614 -4.63735 -3.17658 0
M  V30 3775 H 364.765 -2.11126 -0.232296 0
M  V30 3776 H 367.028 -0.933424 -0.165602 0
M  V30 3777 H 366.734 -3.31025 -1.18807 0
M  V30 3778 H 366.608 -2.56066 -2.76966 0
M  V30 3779 H 368.995 -1.61527 -2.46968 0
M  V30 3780 H 369.076 -2.39975 -0.885745 0
M  V30 3781 H 368.72 -4.66293 -2.01329 0
M  V30 3782 H 368.65 -3.84737 -3.59562 0
M  V30 3783 H 371.141 -3.02074 -2.27068 0
M  V30 3784 H 371.454 -6.53282 -4.12846 0
M  V30 3785 H 369.799 -5.87143 -3.71871 0
M  V30 3786 H 372.99 -3.79177 -2.74486 0
M  V30 3787 H 373.163 -5.39318 -3.59221 0
M  V30 3788 N 366.569 1.04691 -1.17803 0
M  V30 3789 C 367.985 1.29963 -0.926379 0
M  V30 3790 C 368.185 1.97251 0.411635 0
M  V30 3791 O 367.241 2.24922 1.14744 0
M  V30 3792 C 368.554 2.16447 -2.08737 0
M  V30 3793 C 370.102 2.29814 -2.12496 0
M  V30 3794 C 370.577 3.19661 -3.27995 0
M  V30 3795 N 372.068 3.27247 -3.27816 0
M  V30 3796 C 372.803 3.96906 -4.13827 0
M  V30 3797 N 372.299 4.6895 -5.09959 0
M  V30 3798 N 374.092 3.93122 -4.01761 0
M  V30 3799 H 366.243 0.594182 -2.0392 0
M  V30 3800 H 368.506 0.324649 -0.890678 0
M  V30 3801 H 368.212 1.74304 -3.05469 0
M  V30 3802 H 368.086 3.17103 -2.04268 0
M  V30 3803 H 370.473 2.71196 -1.16347 0
M  V30 3804 H 370.554 1.2877 -2.21025 0
M  V30 3805 H 370.198 2.78991 -4.24413 0
M  V30 3806 H 370.128 4.20722 -3.16703 0
M  V30 3807 H 372.619 2.75921 -2.58217 0
M  V30 3808 H 372.932 5.19679 -5.71974 0
M  V30 3809 H 371.277 4.67875 -5.13924 0
M  V30 3810 H 374.468 3.35967 -3.2595 0
M  V30 3811 H 374.641 4.47139 -4.6901 0
M  V30 3812 N 368.047 0.979072 1.23499 0
M  V30 3813 C 369.463 0.687475 1.44034 0
M  V30 3814 C 369.663 -0.746801 1.8715 0
M  V30 3815 O 368.719 -1.51939 2.0167 0
M  V30 3816 C 370.032 1.68127 2.49307 0
M  V30 3817 C 371.58 1.69516 2.63122 0
M  V30 3818 C 372.055 2.67723 3.71603 0
M  V30 3819 N 373.546 2.66233 3.79044 0
M  V30 3820 C 374.281 3.38891 4.62537 0
M  V30 3821 N 373.777 4.21103 5.50131 0
M  V30 3822 N 375.57 3.27661 4.56721 0
M  V30 3823 H 367.721 1.90559 0.938135 0
M  V30 3824 H 369.984 0.821051 0.473897 0
M  V30 3825 H 369.69 2.70693 2.2454 0
M  V30 3826 H 369.564 1.46306 3.4767 0
M  V30 3827 H 371.951 0.676561 2.8724 0
M  V30 3828 H 372.032 1.95404 1.65079 0
M  V30 3829 H 371.676 3.69724 3.48233 0
M  V30 3830 H 371.606 2.39111 4.69184 0
M  V30 3831 H 374.097 2.06568 3.16446 0
M  V30 3832 H 374.41 4.73403 6.10827 0
M  V30 3833 H 372.755 4.25195 5.49759 0
M  V30 3834 H 375.946 2.62887 3.87309 0
M  V30 3835 H 376.119 3.84547 5.21562 0
M  V30 3836 N 369.525 -1.3858 0.750561 0
M  V30 3837 C 370.75 -2.04997 0.314812 0
M  V30 3838 C 371.175 -1.56235 -1.04749 0
M  V30 3839 O 370.533 -0.712981 -1.66692 0
M  V30 3840 C 370.581 -3.58961 0.343415 0
M  V30 3841 O 369.685 -4.07025 -0.663628 0
M  V30 3842 H 369.026 -0.649081 0.139962 0
M  V30 3843 H 371.556 -1.77313 1.02084 0
M  V30 3844 H 371.566 -4.07542 0.193233 0
M  V30 3845 H 370.241 -3.93811 1.33738 0
M  V30 3846 H 368.818 -3.6982 -0.478307 0
M  V30 3847 N 371.003 -0.499398 -1.49478 0
M  V30 3848 C 371.913 0.284489 -2.32869 0
M  V30 3849 C 372.929 0.968885 -1.44529 0
M  V30 3850 O 374.105 0.95062 -1.77553 0
M  V30 3851 C 371.17 1.33594 -3.19928 0
M  V30 3852 C 370.231 0.665149 -4.24116 0
M  V30 3853 C 369.464 1.6665 -5.07014 0
M  V30 3854 O 369.687 2.89618 -4.91404 0
M  V30 3855 O 368.621 1.22271 -5.8935 0
M  V30 3856 H 372.447 -0.39802 -3.01081 0
M  V30 3857 H 370.032 -0.260758 -1.47107 0
M  V30 3858 H 371.914 1.94431 -3.73864 0
M  V30 3859 H 370.589 2.0014 -2.54412 0
M  V30 3860 H 369.496 0.0170769 -3.74096 0
M  V30 3861 H 370.829 0.0421555 -4.92182 0
M  V30 3862 N 372.481 1.55866 -0.233164 0
M  V30 3863 C 373.897 1.59133 0.121988 0
M  V30 3864 C 374.097 1.25016 1.58029 0
M  V30 3865 O 373.153 0.990922 2.32243 0
M  V30 3866 C 374.466 2.99932 -0.214792 0
M  V30 3867 C 376.014 3.12601 -0.157971 0
M  V30 3868 C 376.489 4.55597 -0.46859 0
M  V30 3869 N 377.98 4.61305 -0.418585 0
M  V30 3870 C 378.715 5.69903 -0.63227 0
M  V30 3871 N 378.211 6.86819 -0.90835 0
M  V30 3872 N 380.004 5.59264 -0.563913 0
M  V30 3873 H 372.155 1.76315 -1.18434 0
M  V30 3874 H 374.418 0.820093 -0.475553 0
M  V30 3875 H 374.124 3.29588 -1.22739 0
M  V30 3876 H 373.998 3.74327 0.464691 0
M  V30 3877 H 376.385 2.82735 0.845283 0
M  V30 3878 H 376.466 2.40511 -0.871102 0
M  V30 3879 H 376.11 4.86182 -1.46934 0
M  V30 3880 H 376.04 5.25928 0.265865 0
M  V30 3881 H 378.531 3.77297 -0.213368 0
M  V30 3882 H 378.844 7.65507 -1.05919 0
M  V30 3883 H 377.189 6.88536 -0.945673 0
M  V30 3884 H 380.38 4.66802 -0.348372 0
M  V30 3885 H 380.553 6.43831 -0.733847 0
M  V30 3886 N 373.959 -0.0401083 1.57549 0
M  V30 3887 C 375.375 -0.395556 1.54621 0
M  V30 3888 C 375.575 -1.77281 0.957799 0
M  V30 3889 O 374.631 -2.45888 0.574031 0
M  V30 3890 C 375.944 -0.307535 2.99123 0
M  V30 3891 C 377.492 -0.385425 3.10618 0
M  V30 3892 C 377.967 -0.326973 4.56831 0
M  V30 3893 N 379.458 -0.386102 4.61588 0
M  V30 3894 C 380.193 -0.363591 5.72246 0
M  V30 3895 N 379.689 -0.29402 6.92176 0
M  V30 3896 N 381.482 -0.412503 5.60584 0
M  V30 3897 H 373.633 0.861325 1.94152 0
M  V30 3898 H 375.896 0.326445 0.890021 0
M  V30 3899 H 375.602 0.638461 3.45856 0
M  V30 3900 H 375.476 -1.10552 3.60636 0
M  V30 3901 H 377.863 -1.32185 2.63839 0
M  V30 3902 H 377.944 0.44171 2.51957 0
M  V30 3903 H 377.588 0.605738 5.04275 0
M  V30 3904 H 377.518 -1.17207 5.13391 0
M  V30 3905 H 380.009 -0.442832 3.75296 0
M  V30 3906 H 380.322 -0.28164 7.72287 0
M  V30 3907 H 378.667 -0.260232 6.94513 0
M  V30 3908 H 381.858 -0.464769 4.65787 0
M  V30 3909 H 382.031 -0.391492 6.46816 0
M  V30 3910 N 375.437 -1.54477 -0.31217 0
M  V30 3911 C 376.683 -1.73483 -1.0503 0
M  V30 3912 C 377.016 -0.513125 -1.87298 0
M  V30 3913 O 376.291 0.489864 -1.8823 0
M  V30 3914 C 376.574 -3.01723 -1.96558 0
M  V30 3915 C 376.427 -4.3417 -1.17545 0
M  V30 3916 C 377.746 -3.25772 -2.95907 0
M  V30 3917 H 374.865 -0.631222 -0.380432 0
M  V30 3918 H 377.507 -1.87184 -0.325932 0
M  V30 3919 H 375.657 -2.90174 -2.58324 0
M  V30 3920 H 377.329 -4.5762 -0.581513 0
M  V30 3921 H 375.572 -4.31159 -0.477925 0
M  V30 3922 H 376.243 -5.20143 -1.84811 0
M  V30 3923 H 378.719 -3.36857 -2.44267 0
M  V30 3924 H 377.595 -4.16838 -3.57123 0
M  V30 3925 H 377.856 -2.43537 -3.68974 0
M  V30 3926 N 376.915 0.57481 -1.46744 0
M  V30 3927 C 378.143 1.35856 -1.56047 0
M  V30 3928 C 378.558 1.87691 -0.204365 0
M  V30 3929 O 377.915 1.64049 0.79963 0
M  V30 3930 C 377.966 2.54066 -2.57163 0
M  V30 3931 O 377.687 2.04377 -3.87507 0
M  V30 3932 C 379.188 3.46514 -2.76483 0
M  V30 3933 H 376.408 0.414754 -0.527466 0
M  V30 3934 H 378.952 0.698035 -1.92218 0
M  V30 3935 H 377.107 3.16092 -2.23974 0
M  V30 3936 H 377.521 2.81419 -4.4261 0
M  V30 3937 H 378.995 4.25919 -3.51137 0
M  V30 3938 H 379.472 3.98951 -1.83671 0
M  V30 3939 H 380.078 2.90318 -3.10799 0
M  V30 3940 N 378.394 1.34581 0.820102 0
M  V30 3941 C 379.81 1.14325 1.11364 0
M  V30 3942 C 380.01 -0.0533648 2.01429 0
M  V30 3943 O 379.066 -0.728044 2.41776 0
M  V30 3944 C 380.379 2.43983 1.75764 0
M  V30 3945 C 381.927 2.50065 1.88246 0
M  V30 3946 C 382.402 3.79732 2.56061 0
M  V30 3947 N 383.893 3.80908 2.63558 0
M  V30 3948 C 384.628 4.77961 3.16766 0
M  V30 3949 N 384.124 5.85397 3.70517 0
M  V30 3950 N 385.917 4.65413 3.15194 0
M  V30 3951 H 378.068 2.11246 0.221096 0
M  V30 3952 H 380.331 0.934289 0.160649 0
M  V30 3953 H 380.037 3.31651 1.1705 0
M  V30 3954 H 379.911 2.57531 2.75604 0
M  V30 3955 H 382.298 1.62834 2.46108 0
M  V30 3956 H 382.379 2.40442 0.873006 0
M  V30 3957 H 382.023 4.67354 1.98853 0
M  V30 3958 H 381.953 3.86639 3.57516 0
M  V30 3959 H 384.444 3.03274 2.25463 0
M  V30 3960 H 384.757 6.55463 4.09376 0
M  V30 3961 H 383.102 5.89107 3.68752 0
M  V30 3962 H 386.293 3.80627 2.72471 0
M  V30 3963 H 386.466 5.41216 3.56356 0
M  V30 3964 N 379.872 -1.04064 1.18357 0
M  V30 3965 C 380.805 -2.11618 0.854 0
M  V30 3966 C 381.783 -1.61555 -0.184043 0
M  V30 3967 O 382.967 -1.88395 -0.0630048 0
M  V30 3968 C 380.094 -3.37574 0.27597 0
M  V30 3969 C 379.14 -4.06485 1.2912 0
M  V30 3970 S 379.973 -4.53543 2.84709 0
M  V30 3971 C 381.129 -5.82732 2.28417 0
M  V30 3972 H 381.362 -2.39247 1.76488 0
M  V30 3973 H 378.895 -1.16832 1.00944 0
M  V30 3974 H 380.853 -4.10468 -0.051026 0
M  V30 3975 H 379.514 -3.0806 -0.613028 0
M  V30 3976 H 378.707 -4.97024 0.835633 0
M  V30 3977 H 378.309 -3.39708 1.56443 0
M  V30 3978 H 380.601 -6.56677 1.66677 0
M  V30 3979 H 381.544 -6.33052 3.17256 0
M  V30 3980 H 381.952 -5.37838 1.71436 0
M  V30 3981 N 381.35 -0.985608 -1.22978 0
M  V30 3982 C 382.596 -0.65836 -1.91816 0
M  V30 3983 C 382.929 0.806692 -1.76653 0
M  V30 3984 O 382.204 1.58252 -1.13078 0
M  V30 3985 C 382.487 -1.056 -3.44268 0
M  V30 3986 C 382.34 -2.57906 -3.68516 0
M  V30 3987 C 383.659 -0.603781 -4.35939 0
M  V30 3988 H 380.778 -0.24065 -0.696604 0
M  V30 3989 H 383.42 -1.22783 -1.44998 0
M  V30 3990 H 381.57 -0.571445 -3.84274 0
M  V30 3991 H 383.242 -3.13976 -3.3796 0
M  V30 3992 H 381.485 -3.00305 -3.13048 0
M  V30 3993 H 382.156 -2.80779 -4.75255 0
M  V30 3994 H 384.632 -1.01987 -4.03408 0
M  V30 3995 H 383.508 -0.910383 -5.41298 0
M  V30 3996 H 383.769 0.495761 -4.39312 0
M  V30 3997 N 382.828 1.3818 -0.7579 0
M  V30 3998 C 384.074 2.00316 -0.316453 0
M  V30 3999 C 384.407 1.60026 1.10025 0
M  V30 4000 O 383.682 0.839835 1.75434 0
M  V30 4001 C 383.965 3.57349 -0.444245 0
M  V30 4002 C 383.818 4.07591 -1.90236 0
M  V30 4003 C 385.137 4.3981 0.1598 0
M  V30 4004 H 382.256 0.727741 -0.116459 0
M  V30 4005 H 384.898 1.6406 -0.958352 0
M  V30 4006 H 383.048 3.88365 0.102233 0
M  V30 4007 H 384.72 3.87199 -2.50748 0
M  V30 4008 H 382.963 3.60297 -2.41595 0
M  V30 4009 H 383.634 5.16677 -1.94291 0
M  V30 4010 H 386.11 4.14971 -0.306314 0
M  V30 4011 H 384.986 5.48885 0.0401675 0
M  V30 4012 H 385.247 4.24102 1.24859 0
M  V30 4013 N 384.306 0.507319 1.49211 0
M  V30 4014 C 385.269 -0.256763 2.27757 0
M  V30 4015 C 386.269 -0.888287 1.34038 0
M  V30 4016 O 387.459 -0.751841 1.5714 0
M  V30 4017 C 384.591 -1.36905 3.12202 0
M  V30 4018 H 385.784 0.432557 2.96764 0
M  V30 4019 H 383.337 0.262488 1.5408 0
M  V30 4020 H 384.072 -2.09233 2.47775 0
M  V30 4021 H 383.857 -0.921599 3.81115 0
M  V30 4022 H 385.347 -1.9071 3.7151 0
M  V30 4023 N 385.784 -1.5574 0.241426 0
M  V30 4024 C 387.03 -1.99104 -0.385406 0
M  V30 4025 C 387.363 -1.1293 -1.57988 0
M  V30 4026 O 386.638 -0.191449 -1.93555 0
M  V30 4027 C 386.921 -3.51087 -0.800616 0
M  V30 4028 C 386.774 -4.48028 0.398874 0
M  V30 4029 C 388.093 -4.08015 -1.64959 0
M  V30 4030 H 385.212 -0.723848 -0.138614 0
M  V30 4031 H 387.854 -1.86903 0.341642 0
M  V30 4032 H 386.004 -3.61615 -1.4201 0
M  V30 4033 H 387.676 -4.49487 1.03726 0
M  V30 4034 H 385.919 -4.21077 1.04293 0
M  V30 4035 H 386.59 -5.51962 0.0651056 0
M  V30 4036 H 389.066 -4.00555 -1.12672 0
M  V30 4037 H 387.942 -5.14635 -1.90898 0
M  V30 4038 H 388.203 -3.56131 -2.61961 0
M  V30 4039 N 387.262 0.0317525 -1.57568 0
M  V30 4040 C 388.508 0.724175 -1.8943 0
M  V30 4041 C 388.841 1.75149 -0.838836 0
M  V30 4042 O 388.116 1.93948 0.146422 0
M  V30 4043 C 388.399 1.39615 -3.31933 0
M  V30 4044 C 388.252 0.382537 -4.4817 0
M  V30 4045 C 389.571 2.33084 -3.73309 0
M  V30 4046 H 386.69 0.261797 -0.688935 0
M  V30 4047 H 389.332 -0.013017 -1.89996 0
M  V30 4048 H 387.482 2.02451 -3.31581 0
M  V30 4049 H 389.154 -0.243689 -4.60656 0
M  V30 4050 H 387.397 -0.29844 -4.32772 0
M  V30 4051 H 388.068 0.891145 -5.44759 0
M  V30 4052 H 390.544 1.80295 -3.7501 0
M  V30 4053 H 389.42 2.77084 -4.73831 0
M  V30 4054 H 389.681 3.19643 -3.05419 0
M  V30 4055 N 388.74 1.54641 0.303973 0
M  V30 4056 C 389.703 1.84646 1.35789 0
M  V30 4057 C 390.703 0.7192 1.4382 0
M  V30 4058 O 391.893 0.987491 1.43507 0
M  V30 4059 C 389.025 2.02407 2.74307 0
M  V30 4060 H 390.218 2.78829 1.10429 0
M  V30 4061 H 387.771 1.46658 0.540487 0
M  V30 4062 H 388.506 1.10502 3.04893 0
M  V30 4063 H 388.291 2.84453 2.69868 0
M  V30 4064 H 389.781 2.27002 3.50514 0
M  V30 4065 N 390.218 -0.567019 1.47046 0
M  V30 4066 C 391.148 -1.68482 1.61667 0
M  V30 4067 C 392.129 -1.6358 0.466418 0
M  V30 4068 O 393.314 -1.81354 0.694574 0
M  V30 4069 C 390.444 -3.07124 1.62148 0
M  V30 4070 C 389.398 -3.26867 2.76301 0
M  V30 4071 C 388.724 -4.66196 2.61849 0
M  V30 4072 C 390.024 -3.13186 4.17986 0
M  V30 4073 H 391.718 -1.56502 2.5524 0
M  V30 4074 H 389.264 -0.751486 1.22836 0
M  V30 4075 H 391.217 -3.8516 1.70968 0
M  V30 4076 H 389.941 -3.2004 0.651287 0
M  V30 4077 H 388.6 -2.51237 2.66975 0
M  V30 4078 H 388.248 -4.75898 1.62879 0
M  V30 4079 H 387.948 -4.80356 3.38425 0
M  V30 4080 H 389.472 -5.46379 2.72584 0
M  V30 4081 H 390.886 -3.81049 4.2834 0
M  V30 4082 H 389.283 -3.3886 4.95272 0
M  V30 4083 H 390.353 -2.10057 4.3704 0
M  V30 4084 N 391.696 -1.35014 -0.812953 0
M  V30 4085 C 392.943 -1.27931 -1.56971 0
M  V30 4086 C 393.271 0.148034 -1.93936 0
M  V30 4087 O 392.526 1.11175 -1.61054 0
M  V30 4088 C 392.825 -2.12524 -2.87347 0
M  V30 4089 C 392.491 -3.61401 -2.6963 0
M  V30 4090 C 391.153 -4.01983 -2.64506 0
M  V30 4091 C 393.505 -4.55894 -2.52607 0
M  V30 4092 C 390.833 -5.35235 -2.40293 0
M  V30 4093 C 393.185 -5.89336 -2.29925 0
M  V30 4094 C 391.849 -6.2907 -2.23219 0
M  V30 4095 H 391.119 -0.468131 -0.574399 0
M  V30 4096 H 393.766 -1.66851 -0.939836 0
M  V30 4097 H 392.071 -1.66463 -3.54679 0
M  V30 4098 H 393.768 -2.04383 -3.45005 0
M  V30 4099 H 390.358 -3.29193 -2.74463 0
M  V30 4100 H 394.542 -4.25431 -2.55583 0
M  V30 4101 H 389.798 -5.65028 -2.33566 0
M  V30 4102 H 393.972 -6.62139 -2.15743 0
M  V30 4103 H 391.599 -7.32256 -2.04219 0
M  V30 4104 N 393.175 1.03435 -1.18907 0
M  V30 4105 C 394.421 1.77005 -0.989798 0
M  V30 4106 C 394.754 1.88205 0.478816 0
M  V30 4107 O 394.029 1.39481 1.35556 0
M  V30 4108 C 394.312 3.19925 -1.65287 0
M  V30 4109 C 394.165 3.1663 -3.19477 0
M  V30 4110 C 395.484 4.18189 -1.37134 0
M  V30 4111 H 392.603 0.642538 -0.360991 0
M  V30 4112 H 395.245 1.20784 -1.46667 0
M  V30 4113 H 393.395 3.67929 -1.24741 0
M  V30 4114 H 395.067 2.76567 -3.692 0
M  V30 4115 H 393.31 2.54491 -3.51307 0
M  V30 4116 H 393.981 4.1758 -3.61013 0
M  V30 4117 H 396.457 3.78761 -1.72276 0
M  V30 4118 H 395.333 5.16394 -1.86087 0
M  V30 4119 H 395.594 4.41112 -0.295424 0
M  V30 4120 N 394.653 0.992116 1.22453 0
M  V30 4121 C 395.583 0.561677 2.26644 0
M  V30 4122 C 396.564 -0.411055 1.65059 0
M  V30 4123 O 397.749 -0.301861 1.9184 0
M  V30 4124 C 394.879 -0.125247 3.47074 0
M  V30 4125 C 393.833 0.765948 4.21091 0
M  V30 4126 C 393.159 -0.0538484 5.34673 0
M  V30 4127 C 394.459 2.06242 4.79856 0
M  V30 4128 H 396.153 1.43259 2.62902 0
M  V30 4129 H 393.699 0.690283 1.26377 0
M  V30 4130 H 395.652 -0.437764 4.1912 0
M  V30 4131 H 394.376 -1.03069 3.0991 0
M  V30 4132 H 393.035 1.0621 3.50878 0
M  V30 4133 H 392.683 -0.960188 4.9375 0
M  V30 4134 H 392.383 0.539415 5.85119 0
M  V30 4135 H 393.907 -0.360477 6.09535 0
M  V30 4136 H 395.321 1.8139 5.43848 0
M  V30 4137 H 393.718 2.60444 5.40638 0
M  V30 4138 H 394.788 2.74167 3.99951 0
M  V30 4139 N 396.131 -1.37776 0.765217 0
M  V30 4140 C 397.371 -2.01691 0.331669 0
M  V30 4141 C 397.735 -1.59432 -1.06983 0
M  V30 4142 O 398.936 -2.15761 -1.60314 0
M  V30 4143 C 397.207 -3.54385 0.463261 0
M  V30 4144 S 398.766 -4.38652 0.114011 0
M  V30 4145 H 395.584 -0.699387 0.127979 0
M  V30 4146 H 398.186 -1.68084 0.998396 0
M  V30 4147 H 396.89 -3.82629 1.48401 0
M  V30 4148 H 396.421 -3.92783 -0.220246 0
M  V30 4149 H 398.436 -4.84021 -1.09261 0
M  V30 4150 N 397.609 -0.515225 -1.4894 0
M  V30 4151 C 398.855 0.016187 -2.03394 0
M  V30 4152 C 399.21 1.33377 -1.38666 0
M  V30 4153 O 398.503 1.84461 -0.518141 0
M  V30 4154 C 398.697 0.210595 -3.56779 0
M  V30 4155 C 398.526 -1.08659 -4.36375 0
M  V30 4156 C 397.296 -1.64237 -4.77864 0
M  V30 4157 C 399.494 -1.9935 -4.74093 0
M  V30 4158 N 397.476 -2.88398 -5.41941 0
M  V30 4159 C 398.847 -3.08088 -5.38035 0
M  V30 4160 C 400.902 -1.99856 -4.56029 0
M  V30 4161 C 399.605 -4.17377 -5.85823 0
M  V30 4162 C 401.631 -3.08129 -5.04787 0
M  V30 4163 C 400.993 -4.15586 -5.68742 0
M  V30 4164 H 397.092 -0.0352107 -0.781207 0
M  V30 4165 H 399.676 -0.693237 -1.8194 0
M  V30 4166 H 397.847 0.889088 -3.78087 0
M  V30 4167 H 399.579 0.740287 -3.97872 0
M  V30 4168 H 396.334 -1.18566 -4.58518 0
M  V30 4169 H 396.758 -3.51572 -5.78555 0
M  V30 4170 H 401.4 -1.18079 -4.05977 0
M  V30 4171 H 399.118 -4.99943 -6.34888 0
M  V30 4172 H 402.704 -3.09557 -4.92611 0
M  V30 4173 H 401.584 -4.97987 -6.05787 0
M  V30 4174 N 399.087 1.5561 -0.249682 0
M  V30 4175 C 400.02 2.17537 0.689408 0
M  V30 4176 C 400.998 1.12829 1.17083 0
M  V30 4177 O 402.182 1.41229 1.24846 0
M  V30 4178 C 399.309 2.77828 1.93725 0
M  V30 4179 C 398.355 3.95615 1.59346 0
M  V30 4180 S 399.188 5.30988 0.69367 0
M  V30 4181 C 400.344 5.94734 1.95046 0
M  V30 4182 H 400.577 2.96852 0.163142 0
M  V30 4183 H 398.11 1.54362 -0.0341166 0
M  V30 4184 H 400.068 3.13199 2.65361 0
M  V30 4185 H 398.729 1.98454 2.43465 0
M  V30 4186 H 397.922 4.364 2.52132 0
M  V30 4187 H 397.524 3.61535 0.957512 0
M  V30 4188 H 399.816 6.12419 2.89739 0
M  V30 4189 H 400.759 6.90109 1.58604 0
M  V30 4190 H 401.167 5.23832 2.10381 0
M  V30 4191 N 400.565 -0.0233959 1.57583 0
M  V30 4192 C 401.976 -0.56927 1.77809 0
M  V30 4193 C 402.327 -1.75284 0.881472 0
M  V30 4194 O 401.452 -2.1626 0.0777805 0
M  V30 4195 C 402.047 -1.03949 3.22459 0
M  V30 4196 C 400.606 -1.53084 3.43864 0
M  V30 4197 C 399.753 -0.471454 2.73263 0
M  V30 4198 H 402.704 0.202825 1.57399 0
M  V30 4199 H 402.725 -1.90661 3.29285 0
M  V30 4200 H 402.237 -0.177865 3.87692 0
M  V30 4201 H 400.338 -2.41414 2.83814 0
M  V30 4202 H 400.451 -1.57443 4.52491 0
M  V30 4203 H 398.815 -0.927788 2.37201 0
M  V30 4204 H 399.598 0.380808 3.41181 0
M  V30 4205 N 402.043 -1.548 -0.295768 0
M  V30 4206 C 403.29 -1.74329 -1.03032 0
M  V30 4207 C 403.618 -0.531915 -1.87085 0
M  V30 4208 O 402.873 0.486052 -1.89568 0
M  V30 4209 C 403.172 -2.98797 -1.961 0
M  V30 4210 C 402.838 -4.32356 -1.2798 0
M  V30 4211 C 401.5 -4.68661 -1.09135 0
M  V30 4212 C 403.852 -5.15128 -0.793243 0
M  V30 4213 C 401.18 -5.85312 -0.403269 0
M  V30 4214 C 403.532 -6.32488 -0.118854 0
M  V30 4215 C 402.196 -6.6745 0.0815043 0
M  V30 4216 H 401.466 -0.637916 -0.37702 0
M  V30 4217 H 404.113 -1.8906 -0.304696 0
M  V30 4218 H 402.418 -2.78869 -2.75207 0
M  V30 4219 H 404.115 -3.11102 -2.53015 0
M  V30 4220 H 400.705 -4.03808 -1.43655 0
M  V30 4221 H 404.889 -4.87575 -0.92653 0
M  V30 4222 H 400.145 -6.1094 -0.237098 0
M  V30 4223 H 404.319 -6.95892 0.266035 0
M  V30 4224 H 401.946 -7.57695 0.616685 0
M  V30 4225 N 403.521 0.559213 -1.47345 0
M  V30 4226 C 404.751 1.33999 -1.57251 0
M  V30 4227 C 405.159 1.87905 -0.220978 0
M  V30 4228 O 404.502 1.65577 0.795617 0
M  V30 4229 C 404.564 2.54798 -2.53611 0
M  V30 4230 C 404.228 2.22192 -3.99349 0
M  V30 4231 C 405.225 1.79607 -4.87891 0
M  V30 4232 C 402.91 2.33613 -4.44669 0
M  V30 4233 C 404.904 1.48868 -6.19772 0
M  V30 4234 C 402.591 2.02487 -5.76578 0
M  V30 4235 C 403.589 1.60183 -6.63951 0
M  V30 4236 O 403.277 1.29451 -7.93409 0
M  V30 4237 H 403.009 0.414858 -0.533731 0
M  V30 4238 H 405.563 0.684465 -1.9366 0
M  V30 4239 H 403.793 3.23235 -2.12265 0
M  V30 4240 H 405.482 3.16873 -2.53666 0
M  V30 4241 H 406.248 1.70278 -4.54126 0
M  V30 4242 H 402.127 2.65501 -3.76869 0
M  V30 4243 H 405.671 1.15775 -6.87926 0
M  V30 4244 H 401.568 2.11448 -6.09885 0
M  V30 4245 H 402.336 1.43098 -8.05894 0
M  V30 4246 N 404.999 1.35443 0.805782 0
M  V30 4247 C 406.245 1.28952 1.56522 0
M  V30 4248 C 406.578 -0.135597 1.93726 0
M  V30 4249 O 405.853 -1.08516 1.61414 0
M  V30 4250 C 406.136 2.19678 2.85331 0
M  V30 4251 C 405.989 3.7081 2.54598 0
M  V30 4252 C 407.308 2.09495 3.8704 0
M  V30 4253 H 404.427 0.469764 0.567883 0
M  V30 4254 H 407.069 1.65851 0.927001 0
M  V30 4255 H 405.219 1.8834 3.39795 0
M  V30 4256 H 406.891 4.12593 2.06312 0
M  V30 4257 H 405.134 3.91051 1.8778 0
M  V30 4258 H 405.805 4.29679 3.46525 0
M  V30 4259 H 408.281 2.37045 3.41978 0
M  V30 4260 H 407.157 2.75173 4.74943 0
M  V30 4261 H 407.418 1.07714 4.28777 0
M  V30 4262 N 406.477 -1.02803 1.19454 0
M  V30 4263 C 407.407 -2.12999 0.956758 0
M  V30 4264 C 408.388 -1.69743 -0.110188 0
M  V30 4265 O 409.573 -1.94148 0.0450038 0
M  V30 4266 C 406.703 -3.43746 0.495553 0
M  V30 4267 C 405.657 -4.00688 1.50443 0
M  V30 4268 C 404.983 -5.27067 0.900275 0
M  V30 4269 C 406.283 -4.35397 2.8849 0
M  V30 4270 H 407.977 -2.33148 1.87836 0
M  V30 4271 H 405.523 -1.12045 0.904539 0
M  V30 4272 H 407.476 -4.2021 0.316493 0
M  V30 4273 H 406.2 -3.23321 -0.461646 0
M  V30 4274 H 404.859 -3.2632 1.67065 0
M  V30 4275 H 404.507 -5.02959 -0.064503 0
M  V30 4276 H 404.207 -5.66127 1.57397 0
M  V30 4277 H 405.731 -6.06196 0.73203 0
M  V30 4278 H 407.145 -5.02795 2.75446 0
M  V30 4279 H 405.542 -4.85541 3.52661 0
M  V30 4280 H 406.612 -3.44662 3.41081 0
M  V30 4281 N 407.956 -0.998596 -1.21925 0
M  V30 4282 C 408.904 -0.546641 -2.26085 0
M  V30 4283 C 409.898 0.405576 -1.64473 0
M  V30 4284 O 411.104 0.277471 -1.77849 0
M  V30 4285 H 407.479 -0.158403 -0.735127 0
M  V30 4286 H 409.45 -1.43645 -2.61551 0
M  V30 4287 C 408.199 0.117388 -3.47502 0
M  V30 4288 H 407.522 -0.606277 -3.95176 0
M  V30 4289 H 408.962 0.396993 -4.22137 0
M  V30 4290 C 407.421 1.35455 -3.0847 0
M  V30 4291 O 407.951 2.44944 -3.18379 0
M  V30 4292 N 406.157 1.23191 -2.63196 0
M  V30 4293 H 405.704 0.341006 -2.55333 0
M  V30 4294 H 405.662 2.06071 -2.37449 0
M  V30 4295 N 409.434 1.37368 -0.772513 0
M  V30 4296 C 410.683 1.98918 -0.333861 0
M  V30 4297 C 410.996 1.62017 1.09589 0
M  V30 4298 O 412.202 2.16676 1.63596 0
M  V30 4299 C 410.658 3.55735 -0.545971 0
M  V30 4300 C 410.266 4.01573 -1.98603 0
M  V30 4301 C 412.01 4.24156 -0.170979 0
M  V30 4302 C 409.917 5.51102 -2.1457 0
M  V30 4303 H 408.847 0.744214 -0.121085 0
M  V30 4304 H 411.498 1.56888 -0.95175 0
M  V30 4305 H 409.88 3.95748 0.141387 0
M  V30 4306 H 411.054 3.72803 -2.7084 0
M  V30 4307 H 409.369 3.45937 -2.31769 0
M  V30 4308 H 411.966 5.34024 -0.26878 0
M  V30 4309 H 412.309 4.06917 0.878855 0
M  V30 4310 H 412.842 3.89447 -0.810914 0
M  V30 4311 H 409.581 5.73268 -3.17875 0
M  V30 4312 H 409.101 5.81554 -1.46817 0
M  V30 4313 H 410.78 6.17083 -1.94468 0
M  V30 4314 N 410.912 0.523116 1.48665 0
M  V30 4315 C 412.158 -0.0134963 2.02796 0
M  V30 4316 C 412.491 -1.34582 1.40004 0
M  V30 4317 O 411.766 -1.86756 0.543381 0
M  V30 4318 C 412.049 -0.14276 3.59817 0
M  V30 4319 C 411.902 1.21425 4.331 0
M  V30 4320 C 413.221 -0.872856 4.31357 0
M  V30 4321 H 410.34 -0.00343074 0.736992 0
M  V30 4322 H 412.982 0.678816 1.7746 0
M  V30 4323 H 411.132 -0.732401 3.81534 0
M  V30 4324 H 412.804 1.84447 4.2282 0
M  V30 4325 H 411.047 1.79791 3.94788 0
M  V30 4326 H 411.718 1.07687 5.41394 0
M  V30 4327 H 414.194 -0.372555 4.14429 0
M  V30 4328 H 413.07 -0.932185 5.40927 0
M  V30 4329 H 413.331 -1.92161 3.98154 0
M  V30 4330 N 412.39 -1.55475 0.257931 0
M  V30 4331 C 413.338 -2.23244 -0.653076 0
M  V30 4332 C 414.332 -1.22366 -1.17144 0
M  V30 4333 O 415.538 -1.40347 -1.12706 0
M  V30 4334 H 411.913 -0.716247 -0.229117 0
M  V30 4335 H 413.884 -2.98343 -0.0584788 0
M  V30 4336 C 412.633 -2.95401 -1.83395 0
M  V30 4337 H 411.956 -3.72802 -1.44424 0
M  V30 4338 H 413.396 -3.46165 -2.44838 0
M  V30 4339 C 411.855 -1.99895 -2.71189 0
M  V30 4340 O 412.385 -1.53909 -3.71046 0
M  V30 4341 N 410.591 -1.6676 -2.3799 0
M  V30 4342 H 410.138 -2.04352 -1.56837 0
M  V30 4343 H 410.096 -1.03127 -2.97005 0
M  V30 4344 N 413.868 0.0150385 -1.57593 0
M  V30 4345 C 415.114 0.704043 -1.90187 0
M  V30 4346 C 415.447 1.74249 -0.857366 0
M  V30 4347 O 414.722 1.94092 0.125843 0
M  V30 4348 C 415.005 1.36087 -3.33395 0
M  V30 4349 C 414.858 0.334981 -4.48551 0
M  V30 4350 C 416.177 2.29112 -3.7576 0
M  V30 4351 H 413.296 0.254475 -0.691673 0
M  V30 4352 H 415.938 -0.0331678 -1.89971 0
M  V30 4353 H 414.088 1.98922 -3.3371 0
M  V30 4354 H 415.76 -0.292534 -4.60372 0
M  V30 4355 H 414.003 -0.344325 -4.32431 0
M  V30 4356 H 414.674 0.833316 -5.45674 0
M  V30 4357 H 417.15 1.76308 -3.76902 0
M  V30 4358 H 416.026 2.72043 -4.76743 0
M  V30 4359 H 416.287 3.16385 -3.08793 0
M  V30 4360 N 415.346 1.54954 0.287554 0
M  V30 4361 C 416.592 1.75132 1.02257 0
M  V30 4362 C 416.925 0.542858 1.86458 0
M  V30 4363 O 416.2 -0.459856 1.88986 0
M  V30 4364 C 416.483 3.04812 1.91733 0
M  V30 4365 C 416.336 4.35985 1.10622 0
M  V30 4366 C 417.655 3.30438 2.90687 0
M  V30 4367 H 414.774 0.637194 0.370341 0
M  V30 4368 H 417.416 1.87678 0.296111 0
M  V30 4369 H 415.566 2.94247 2.53675 0
M  V30 4370 H 417.238 4.58487 0.508636 0
M  V30 4371 H 415.481 4.31865 0.409271 0
M  V30 4372 H 416.152 5.23017 1.76513 0
M  V30 4373 H 418.628 3.40701 2.38877 0
M  V30 4374 H 417.504 4.22467 3.50447 0
M  V30 4375 H 417.765 2.49377 3.65053 0
M  V30 4376 N 416.824 -0.551391 1.4764 0
M  V30 4377 C 418.064 -1.31901 1.56145 0
M  V30 4378 C 418.428 -1.90724 0.221013 0
M  V30 4379 O 419.629 -2.6819 0.180945 0
M  V30 4380 C 417.9 -2.39517 2.65267 0
M  V30 4381 S 419.459 -3.26289 2.93395 0
M  V30 4382 H 416.277 -0.448965 0.551318 0
M  V30 4383 H 418.879 -0.630599 1.85051 0
M  V30 4384 H 417.583 -1.94747 3.6125 0
M  V30 4385 H 417.114 -3.13092 2.38195 0
M  V30 4386 H 419.129 -4.39122 2.31055 0
M  V30 4387 N 418.302 -1.35869 -0.798587 0
M  V30 4388 C 419.713 -1.26498 -1.37314 0
M  V30 4389 C 420.064 0.0991899 -1.95949 0
M  V30 4390 O 419.189 1.0004 -1.91888 0
M  V30 4391 C 419.784 -2.29054 -2.49639 0
M  V30 4392 C 418.343 -2.234 -3.02935 0
M  V30 4393 C 417.49 -2.14329 -1.75949 0
M  V30 4394 H 420.441 -1.46881 -0.600971 0
M  V30 4395 H 420.462 -1.92166 -3.28409 0
M  V30 4396 H 419.974 -3.2833 -2.06933 0
M  V30 4397 H 418.075 -1.27562 -3.50084 0
M  V30 4398 H 418.188 -3.15703 -3.60372 0
M  V30 4399 H 416.552 -1.60435 -1.9782 0
M  V30 4400 H 417.335 -3.15477 -1.35384 0
M  V30 4401 N 419.78 1.02168 -1.19998 0
M  V30 4402 C 420.71 2.12488 -0.96804 0
M  V30 4403 C 421.691 1.69799 0.101185 0
M  V30 4404 O 422.876 1.94121 -0.0552993 0
M  V30 4405 C 420.006 3.43479 -0.513776 0
M  V30 4406 C 418.96 3.99884 -1.52566 0
M  V30 4407 C 418.286 5.26582 -0.928214 0
M  V30 4408 C 419.586 4.33861 -2.90795 0
M  V30 4409 H 421.28 2.32149 -1.89069 0
M  V30 4410 H 418.826 1.11564 -0.910468 0
M  V30 4411 H 420.779 4.20036 -0.338774 0
M  V30 4412 H 419.503 3.23561 0.444493 0
M  V30 4413 H 418.162 3.25429 -1.68794 0
M  V30 4414 H 417.81 5.02986 0.0378289 0
M  V30 4415 H 417.51 5.65284 -1.60397 0
M  V30 4416 H 419.034 6.05799 -0.764167 0
M  V30 4417 H 420.448 5.01327 -2.78109 0
M  V30 4418 H 418.845 4.83664 -3.55231 0
M  V30 4419 H 419.915 3.42848 -3.42904 0
M  V30 4420 N 421.258 1.00505 1.21394 0
M  V30 4421 C 422.669 0.721082 1.72213 0
M  V30 4422 C 423.02 -0.761263 1.80829 0
M  V30 4423 O 422.145 -1.59464 1.46288 0
M  V30 4424 C 422.74 1.30228 3.12772 0
M  V30 4425 C 421.299 1.06743 3.60947 0
M  V30 4426 C 420.446 1.41507 2.38477 0
M  V30 4427 H 423.397 1.17594 1.06571 0
M  V30 4428 H 423.418 0.686955 3.74247 0
M  V30 4429 H 422.93 2.38115 3.06468 0
M  V30 4430 H 421.031 0.00572162 3.726 0
M  V30 4431 H 421.144 1.73936 4.46411 0
M  V30 4432 H 419.508 0.833852 2.40664 0
M  V30 4433 H 420.291 2.50424 2.34824 0
M  V30 4434 N 422.737 -1.36956 0.779787 0
M  V30 4435 C 423.647 -2.33965 0.172491 0
M  V30 4436 C 424.663 -1.60574 -0.670222 0
M  V30 4437 O 425.839 -1.92617 -0.588263 0
M  V30 4438 C 422.904 -3.39761 -0.690173 0
M  V30 4439 C 421.965 -4.28964 0.169924 0
M  V30 4440 C 421.198 -5.29707 -0.651662 0
M  V30 4441 O 421.421 -5.38238 -1.88827 0
M  V30 4442 O 420.355 -6.01873 -0.0566264 0
M  V30 4443 H 424.181 -2.87647 0.974321 0
M  V30 4444 H 421.766 -1.39258 0.541078 0
M  V30 4445 H 423.648 -4.04471 -1.1824 0
M  V30 4446 H 422.323 -2.88394 -1.47006 0
M  V30 4447 H 421.23 -3.67326 0.708696 0
M  V30 4448 H 422.563 -4.83656 0.913085 0
M  V30 4449 N 424.215 -0.530993 -1.48385 0
M  V30 4450 C 425.125 0.23503 -2.3342 0
M  V30 4451 C 426.141 0.93801 -1.46552 0
M  V30 4452 O 427.317 0.912745 -1.7953 0
M  V30 4453 C 424.382 1.26778 -3.22689 0
M  V30 4454 C 423.443 0.575038 -4.25431 0
M  V30 4455 C 422.676 1.55858 -5.10435 0
M  V30 4456 O 422.899 2.79129 -4.97437 0
M  V30 4457 O 421.833 1.09742 -5.91811 0
M  V30 4458 H 425.659 -0.461794 -3.00169 0
M  V30 4459 H 423.244 -0.291903 -1.46521 0
M  V30 4460 H 425.126 1.86457 -3.77904 0
M  V30 4461 H 423.801 1.94699 -2.586 0
M  V30 4462 H 422.708 -0.0622782 -3.74048 0
M  V30 4463 H 424.041 -0.062253 -4.92161 0
M  V30 4464 N 425.693 1.55336 -0.266172 0
M  V30 4465 C 427.104 1.85236 0.233315 0
M  V30 4466 C 427.455 1.18816 1.56132 0
M  V30 4467 O 426.58 0.473307 2.11161 0
M  V30 4468 C 427.175 3.36059 0.430113 0
M  V30 4469 C 425.734 3.66116 0.873842 0
M  V30 4470 C 424.881 2.77274 -0.0380016 0
M  V30 4471 H 427.832 1.51004 -0.488214 0
M  V30 4472 H 427.853 3.58681 1.26998 0
M  V30 4473 H 427.365 3.84373 -0.536588 0
M  V30 4474 H 425.466 3.23295 1.85233 0
M  V30 4475 H 425.579 4.73699 0.717358 0
M  V30 4476 H 423.943 2.50198 0.476759 0
M  V30 4477 H 424.726 3.284 -1.00042 0
M  V30 4478 N 427.171 -0.0066808 1.57599 0
M  V30 4479 C 428.134 -0.985035 2.06953 0
M  V30 4480 C 429.134 -1.27663 0.977687 0
M  V30 4481 O 430.324 -1.22293 1.24057 0
M  V30 4482 C 427.456 -2.3118 2.50536 0
M  V30 4483 H 428.649 -0.558255 2.94658 0
M  V30 4484 H 426.202 -0.254011 1.54222 0
M  V30 4485 H 426.937 -2.78561 1.66054 0
M  V30 4486 H 426.722 -2.11338 3.3027 0
M  V30 4487 H 428.212 -3.01377 2.8907 0
M  V30 4488 N 428.649 -1.55105 -0.279332 0
M  V30 4489 C 429.896 -1.75412 -1.01177 0
M  V30 4490 C 430.224 -0.551728 -1.86511 0
M  V30 4491 O 429.479 0.465919 -1.90073 0
M  V30 4492 C 429.778 -3.0086 -1.92919 0
M  V30 4493 C 429.444 -4.33689 -1.23387 0
M  V30 4494 C 428.106 -4.69792 -1.04159 0
M  V30 4495 C 430.458 -5.15941 -0.738562 0
M  V30 4496 C 427.786 -5.85707 -0.341166 0
M  V30 4497 C 430.138 -6.32579 -0.0517636 0
M  V30 4498 C 428.802 -6.67326 0.152292 0
M  V30 4499 H 428.072 -0.641879 -0.370233 0
M  V30 4500 H 430.719 -1.89373 -0.284627 0
M  V30 4501 H 429.024 -2.81773 -2.72234 0
M  V30 4502 H 430.721 -3.13768 -2.49701 0
M  V30 4503 H 427.311 -4.05309 -1.39364 0
M  V30 4504 H 431.495 -4.8853 -0.874764 0
M  V30 4505 H 426.751 -6.11157 -0.172287 0
M  V30 4506 H 430.925 -6.9557 0.339828 0
M  V30 4507 H 428.552 -7.56998 0.697014 0
M  V30 4508 N 430.127 0.543554 -1.4793 0
M  V30 4509 C 431.374 1.30008 -1.55255 0
M  V30 4510 C 431.702 1.93245 -0.220612 0
M  V30 4511 O 430.957 1.79141 0.787843 0
M  V30 4512 C 431.256 2.42078 -2.62932 0
M  V30 4513 C 430.922 1.96583 -4.0579 0
M  V30 4514 C 429.584 1.83893 -4.44676 0
M  V30 4515 C 431.936 1.62034 -4.95373 0
M  V30 4516 C 429.264 1.34969 -5.70964 0
M  V30 4517 C 431.616 1.14577 -6.22137 0
M  V30 4518 C 430.28 1.00493 -6.59892 0
M  V30 4519 H 429.55 0.475735 -0.568117 0
M  V30 4520 H 432.197 0.608075 -1.81589 0
M  V30 4521 H 430.502 3.16892 -2.30406 0
M  V30 4522 H 432.199 3.00236 -2.65818 0
M  V30 4523 H 428.789 2.07407 -3.75074 0
M  V30 4524 H 432.973 1.70705 -4.66019 0
M  V30 4525 H 428.229 1.2274 -5.98953 0
M  V30 4526 H 432.403 0.869109 -6.90955 0
M  V30 4527 H 430.03 0.623624 -7.57638 0
M  V30 4528 N 431.605 1.3629 0.791371 0
M  V30 4529 C 432.853 1.30154 1.5461 0
M  V30 4530 C 433.174 -0.119409 1.94634 0
M  V30 4531 O 432.444 -1.05924 1.64794 0
M  V30 4532 H 431.024 0.478784 0.573389 0
M  V30 4533 H 433.686 1.70565 0.94306 0
M  V30 4534 H 432.782 1.92762 2.45457 0
M  V30 4535 N 433.083 -1.0153 1.20538 0
M  V30 4536 C 434.013 -2.11972 0.979295 0
M  V30 4537 C 434.994 -1.6985 -0.0921787 0
M  V30 4538 O 436.179 -1.94089 0.0655932 0
M  V30 4539 C 433.309 -3.43201 0.531984 0
M  V30 4540 C 432.263 -3.9907 1.54685 0
M  V30 4541 C 431.589 -5.26082 0.956127 0
M  V30 4542 C 432.889 -4.32313 2.93092 0
M  V30 4543 H 434.583 -2.31143 1.90298 0
M  V30 4544 H 432.129 -1.11079 0.916372 0
M  V30 4545 H 434.082 -4.1985 0.361044 0
M  V30 4546 H 432.806 -3.23792 -0.427327 0
M  V30 4547 H 431.465 -3.2453 1.70517 0
M  V30 4548 H 431.113 -5.02999 -0.0111538 0
M  V30 4549 H 430.813 -5.64426 1.63393 0
M  V30 4550 H 432.337 -6.05386 0.796284 0
M  V30 4551 H 433.751 -4.99845 2.80763 0
M  V30 4552 H 432.148 -4.81774 3.57791 0
M  V30 4553 H 433.218 -3.41025 3.44717 0
M  V30 4554 N 434.561 -1.01147 -1.20859 0
M  V30 4555 C 435.791 -0.715872 -1.93801 0
M  V30 4556 C 436.199 0.726592 -1.74692 0
M  V30 4557 O 435.542 1.50397 -1.05482 0
M  V30 4558 C 435.604 -0.965269 -3.46299 0
M  V30 4559 C 435.268 -2.39584 -3.89164 0
M  V30 4560 C 436.265 -3.3764 -3.95342 0
M  V30 4561 C 433.95 -2.73522 -4.21297 0
M  V30 4562 C 435.944 -4.67698 -4.33056 0
M  V30 4563 C 433.631 -4.03794 -4.58687 0
M  V30 4564 C 434.629 -5.00693 -4.64538 0
M  V30 4565 O 434.317 -6.28635 -5.01072 0
M  V30 4566 H 434.049 -0.262524 -0.622942 0
M  V30 4567 H 436.603 -1.35413 -1.54443 0
M  V30 4568 H 434.833 -0.269847 -3.85757 0
M  V30 4569 H 436.522 -0.662051 -4.00464 0
M  V30 4570 H 437.288 -3.12757 -3.70686 0
M  V30 4571 H 433.167 -1.9879 -4.15937 0
M  V30 4572 H 436.711 -5.4333 -4.37537 0
M  V30 4573 H 432.608 -4.28459 -4.82797 0
M  V30 4574 H 433.376 -6.32847 -5.19083 0
M  V30 4575 N 436.039 1.36541 -0.78704 0
M  V30 4576 C 437.286 1.99304 -0.358341 0
M  V30 4577 C 437.614 1.62467 1.06933 0
M  V30 4578 O 436.869 0.870019 1.75297 0
M  V30 4579 C 437.168 3.54343 -0.466485 0
M  V30 4580 C 436.834 4.10993 -1.85461 0
M  V30 4581 C 435.496 4.26177 -2.23443 0
M  V30 4582 C 437.848 4.41895 -2.76366 0
M  V30 4583 C 435.176 4.69573 -3.51736 0
M  V30 4584 C 437.528 4.86722 -4.04084 0
M  V30 4585 C 436.192 5.00112 -4.42091 0
M  V30 4586 H 435.462 0.729306 -0.131126 0
M  V30 4587 H 438.109 1.63068 -1.00404 0
M  V30 4588 H 436.414 3.90918 0.262719 0
M  V30 4589 H 438.111 4.00833 -0.115854 0
M  V30 4590 H 434.701 3.99612 -1.54946 0
M  V30 4591 H 438.885 4.29735 -2.48277 0
M  V30 4592 H 434.141 4.78127 -3.81057 0
M  V30 4593 H 438.315 5.09598 -4.7464 0
M  V30 4594 H 435.942 5.33498 -5.41557 0
M  V30 4595 N 437.518 0.538854 1.48102 0
M  V30 4596 C 438.448 -0.207654 2.32575 0
M  V30 4597 C 439.429 -0.926559 1.4265 0
M  V30 4598 O 440.614 -0.91061 1.71527 0
M  V30 4599 C 437.744 -1.24957 3.24042 0
M  V30 4600 C 436.698 -0.648263 4.23062 0
M  V30 4601 C 436.024 -1.79348 5.03725 0
M  V30 4602 C 437.324 0.385897 5.20872 0
M  V30 4603 H 439.018 0.497534 2.95237 0
M  V30 4604 H 436.564 0.240715 1.41974 0
M  V30 4605 H 438.517 -1.77983 3.81969 0
M  V30 4606 H 437.241 -1.98446 2.59397 0
M  V30 4607 H 435.9 -0.139452 3.66335 0
M  V30 4608 H 435.548 -2.51696 4.35498 0
M  V30 4609 H 435.248 -1.39702 5.70751 0
M  V30 4610 H 436.772 -2.32735 5.64506 0
M  V30 4611 H 438.186 -0.057607 5.73271 0
M  V30 4612 H 436.583 0.700227 5.96001 0
M  V30 4613 H 437.653 1.28848 4.67468 0
M  V30 4614 N 438.996 -1.55193 0.274407 0
M  V30 4615 C 440.242 -1.99877 -0.343086 0
M  V30 4616 C 440.575 -1.16256 -1.55558 0
M  V30 4617 O 439.85 -0.232462 -1.93106 0
M  V30 4618 C 440.133 -3.52706 -0.725965 0
M  V30 4619 C 439.986 -4.47081 0.493818 0
M  V30 4620 C 441.305 -4.11422 -1.56268 0
M  V30 4621 H 438.424 -0.726625 -0.123229 0
M  V30 4622 H 441.066 -1.86136 0.38121 0
M  V30 4623 H 439.216 -3.64546 -1.34307 0
M  V30 4624 H 440.888 -4.47186 1.13237 0
M  V30 4625 H 439.131 -4.1877 1.13201 0
M  V30 4626 H 439.802 -5.51699 0.18217 0
M  V30 4627 H 442.278 -4.02855 -1.04151 0
M  V30 4628 H 441.154 -5.18568 -1.79939 0
M  V30 4629 H 441.415 -3.61607 -2.54348 0
M  V30 4630 N 440.474 -0.00167713 -1.576 0
M  V30 4631 C 441.72 0.683832 -1.90923 0
M  V30 4632 C 442.053 1.7333 -0.875799 0
M  V30 4633 O 441.328 1.94215 0.10525 0
M  V30 4634 C 441.611 1.32543 -3.3482 0
M  V30 4635 C 441.464 0.287387 -4.48881 0
M  V30 4636 C 442.783 2.25114 -3.78169 0
M  V30 4637 H 439.902 0.247125 -0.694333 0
M  V30 4638 H 442.544 -0.0533149 -1.89925 0
M  V30 4639 H 440.694 1.95372 -3.35801 0
M  V30 4640 H 442.366 -0.341346 -4.60035 0
M  V30 4641 H 440.609 -0.39017 -4.32042 0
M  V30 4642 H 441.28 0.775393 -5.46527 0
M  V30 4643 H 443.756 1.723 -3.7875 0
M  V30 4644 H 442.632 2.66971 -4.79602 0
M  V30 4645 H 442.893 3.13092 -3.12131 0
M  V30 4646 N 441.952 1.55251 0.271103 0
M  V30 4647 C 442.915 1.87484 1.31842 0
M  V30 4648 C 443.915 0.749545 1.42262 0
M  V30 4649 O 445.105 1.01771 1.4138 0
M  V30 4650 C 442.237 2.0818 2.69951 0
M  V30 4651 H 443.43 2.81108 1.0449 0
M  V30 4652 H 440.983 1.47771 0.509258 0
M  V30 4653 H 441.718 1.16944 3.02481 0
M  V30 4654 H 441.503 2.90114 2.63774 0
M  V30 4655 H 442.993 2.34385 3.4562 0
M  V30 4656 N 443.43 -0.535701 1.48216 0
M  V30 4657 C 444.36 -1.65014 1.65204 0
M  V30 4658 C 445.341 -1.62554 0.501011 0
M  V30 4659 O 446.526 -1.7984 0.732886 0
M  V30 4660 C 443.656 -3.03616 1.68626 0
M  V30 4661 C 442.61 -3.20932 2.83172 0
M  V30 4662 C 441.936 -4.60537 2.71679 0
M  V30 4663 C 443.236 -3.04249 4.24535 0
M  V30 4664 H 444.93 -1.51053 2.58502 0
M  V30 4665 H 442.476 -0.725262 1.24402 0
M  V30 4666 H 444.429 -3.81446 1.79099 0
M  V30 4667 H 443.153 -3.18587 0.719026 0
M  V30 4668 H 441.812 -2.45517 2.72244 0
M  V30 4669 H 441.46 -4.72336 1.72937 0
M  V30 4670 H 441.16 -4.73069 3.48538 0
M  V30 4671 H 442.684 -5.40475 2.84112 0
M  V30 4672 H 444.098 -3.71877 4.36326 0
M  V30 4673 H 442.495 -3.28278 5.02348 0
M  V30 4674 H 443.565 -2.00739 4.41397 0
M  V30 4675 N 444.908 -1.36708 -0.784132 0
M  V30 4676 C 446.319 -1.27947 -1.35965 0
M  V30 4677 C 446.67 0.0784013 -1.96043 0
M  V30 4678 O 445.795 0.979989 -1.92938 0
M  V30 4679 C 446.39 -2.31689 -2.47195 0
M  V30 4680 C 444.949 -2.26601 -3.00548 0
M  V30 4681 C 444.096 -2.16184 -1.73666 0
M  V30 4682 H 447.047 -1.4751 -0.585358 0
M  V30 4683 H 447.068 -1.95638 -3.26352 0
M  V30 4684 H 446.58 -3.30506 -2.03439 0
M  V30 4685 H 444.681 -1.31268 -3.48711 0
M  V30 4686 H 444.794 -3.19508 -3.57004 0
M  V30 4687 H 443.158 -1.62524 -1.96107 0
M  V30 4688 H 443.941 -3.16896 -1.32031 0
M  V30 4689 N 446.386 1.0089 -1.21074 0
M  V30 4690 C 447.616 1.77933 -1.04993 0
M  V30 4691 C 448.024 1.84847 0.403495 0
M  V30 4692 O 447.367 1.30606 1.29181 0
M  V30 4693 C 447.429 3.23541 -1.56722 0
M  V30 4694 C 447.093 3.40214 -3.05129 0
M  V30 4695 C 448.09 3.2881 -4.02716 0
M  V30 4696 C 445.775 3.65781 -3.44252 0
M  V30 4697 C 447.769 3.42732 -5.37414 0
M  V30 4698 C 445.456 3.79346 -4.79103 0
M  V30 4699 C 446.454 3.67827 -5.75493 0
M  V30 4700 O 446.142 3.80965 -7.07899 0
M  V30 4701 H 445.874 0.566157 -0.369381 0
M  V30 4702 H 448.428 1.27826 -1.60779 0
M  V30 4703 H 446.658 3.74766 -0.953285 0
M  V30 4704 H 448.347 3.82245 -1.36543 0
M  V30 4705 H 449.113 3.08986 -3.73835 0
M  V30 4706 H 444.992 3.73831 -2.69762 0
M  V30 4707 H 448.536 3.33658 -6.12632 0
M  V30 4708 H 444.433 3.98672 -5.07672 0
M  V30 4709 H 445.201 3.97937 -7.15254 0
M  V30 4710 N 447.864 1.01787 1.20321 0
M  V30 4711 C 448.827 0.593972 2.2137 0
M  V30 4712 C 449.827 -0.336553 1.57239 0
M  V30 4713 O 451.017 -0.125069 1.7375 0
M  V30 4714 C 448.149 -0.132433 3.40643 0
M  V30 4715 H 449.342 1.48791 2.60387 0
M  V30 4716 H 446.895 0.807803 1.33807 0
M  V30 4717 H 447.63 -1.04123 3.0713 0
M  V30 4718 H 447.415 0.53605 3.88418 0
M  V30 4719 H 448.905 -0.416314 4.1552 0
M  V30 4720 N 449.342 -1.36122 0.79427 0
M  V30 4721 C 450.29 -2.31871 0.184023 0
M  V30 4722 C 451.284 -1.56041 -0.659365 0
M  V30 4723 O 452.49 -1.71266 -0.553906 0
M  V30 4724 H 448.865 -0.750896 0.0407373 0
M  V30 4725 H 450.836 -2.80898 1.00693 0
M  V30 4726 C 449.585 -3.41324 -0.662813 0
M  V30 4727 H 448.908 -3.99793 -0.0231944 0
M  V30 4728 H 450.348 -4.10629 -1.05639 0
M  V30 4729 C 448.807 -2.83308 -1.82313 0
M  V30 4730 O 449.337 -2.75863 -2.91997 0
M  V30 4731 N 447.543 -2.40529 -1.63077 0
M  V30 4732 H 447.09 -2.46785 -0.738591 0
M  V30 4733 H 447.048 -2.02059 -2.40872 0
M  V30 4734 N 450.82 -0.546701 -1.47814 0
M  V30 4735 C 452.045 -0.021268 -2.07389 0
M  V30 4736 C 452.47 1.25822 -1.39822 0
M  V30 4737 O 451.828 1.75111 -0.46968 0
M  V30 4738 C 451.876 0.168502 -3.60206 0
M  V30 4739 O 450.98 1.23347 -3.93522 0
M  V30 4740 H 450.321 -0.0466108 -0.662362 0
M  V30 4741 H 452.851 -0.759387 -1.89985 0
M  V30 4742 H 452.861 0.385982 -4.0617 0
M  V30 4743 H 451.536 -0.766075 -4.08784 0
M  V30 4744 H 450.113 0.997319 -3.59316 0
M  V30 4745 N 452.299 1.55045 -0.282633 0
M  V30 4746 C 453.539 2.01668 0.333088 0
M  V30 4747 C 453.903 1.1667 1.52486 0
M  V30 4748 O 455.104 1.52907 2.21072 0
M  V30 4749 C 453.375 3.50509 0.698442 0
M  V30 4750 S 454.934 4.19112 1.29963 0
M  V30 4751 H 451.752 0.703468 0.103219 0
M  V30 4752 H 454.354 1.91233 -0.406222 0
M  V30 4753 H 453.058 4.10015 -0.177693 0
M  V30 4754 H 452.589 3.64943 1.46902 0
M  V30 4755 H 454.604 4.23362 2.58803 0
M  V30 4756 N 453.777 0.010035 1.57597 0
M  V30 4757 C 454.74 -0.963029 2.07986 0
M  V30 4758 C 455.74 -1.26619 0.991173 0
M  V30 4759 O 456.93 -1.2097 1.25347 0
M  V30 4760 C 454.062 -2.2851 2.52974 0
M  V30 4761 H 455.255 -0.526971 2.95234 0
M  V30 4762 H 452.808 -0.237639 1.54483 0
M  V30 4763 H 453.543 -2.76784 1.69 0
M  V30 4764 H 453.328 -2.07824 3.32493 0
M  V30 4765 H 454.818 -2.98294 2.9225 0
M  V30 4766 N 455.255 -1.55392 -0.262866 0
M  V30 4767 C 456.203 -1.8977 -1.345 0
M  V30 4768 C 457.197 -0.775063 -1.50629 0
M  V30 4769 O 458.403 -0.959519 -1.52293 0
M  V30 4770 H 454.778 -0.602467 -0.450041 0
M  V30 4771 H 456.749 -2.80147 -1.02762 0
M  V30 4772 C 455.498 -2.19501 -2.69657 0
M  V30 4773 H 454.821 -3.05378 -2.5804 0
M  V30 4774 H 456.261 -2.47469 -3.44289 0
M  V30 4775 C 454.72 -1.00597 -3.21531 0
M  V30 4776 O 455.25 -0.245768 -4.00947 0
M  V30 4777 N 453.456 -0.800911 -2.79345 0
M  V30 4778 H 453.003 -1.42079 -2.14875 0
M  V30 4779 H 452.961 -0.00697996 -3.14399 0
M  V30 4780 N 456.733 0.527833 -1.48498 0
M  V30 4781 C 458.144 1.10975 -1.50138 0
M  V30 4782 C 458.495 1.943 -0.272378 0
M  V30 4783 O 457.62 2.07319 0.620301 0
M  V30 4784 C 458.215 2.01927 -2.72049 0
M  V30 4785 C 456.774 2.55332 -2.76554 0
M  V30 4786 C 455.921 1.32341 -2.43683 0
M  V30 4787 H 458.872 0.312986 -1.55583 0
M  V30 4788 H 458.893 2.86244 -2.50689 0
M  V30 4789 H 458.405 1.41254 -3.61481 0
M  V30 4790 H 456.506 3.19721 -1.91336 0
M  V30 4791 H 456.619 2.94319 -3.78038 0
M  V30 4792 H 454.983 1.63989 -1.94884 0
M  V30 4793 H 455.766 0.734165 -3.35358 0
M  V30 4794 N 458.211 1.37122 0.776871 0
M  V30 4795 C 459.46 1.31373 1.53049 0
M  V30 4796 C 459.773 -0.101016 1.95339 0
M  V30 4797 O 460.979 -0.280953 2.70042 0
M  V30 4798 C 459.435 2.30567 2.76346 0
M  V30 4799 C 459.043 3.77543 2.41175 0
M  V30 4800 C 460.787 2.33818 3.54301 0
M  V30 4801 C 458.694 4.68481 3.60943 0
M  V30 4802 H 457.624 0.488234 0.574581 0
M  V30 4803 H 460.275 1.62554 0.851372 0
M  V30 4804 H 458.657 1.92396 3.46121 0
M  V30 4805 H 459.831 4.24521 1.79216 0
M  V30 4806 H 458.146 3.77187 1.76405 0
M  V30 4807 H 460.743 2.98965 4.4331 0
M  V30 4808 H 461.086 1.3503 3.93793 0
M  V30 4809 H 461.619 2.7067 2.91518 0
M  V30 4810 H 458.358 5.68378 3.26537 0
M  V30 4811 H 457.878 4.2621 4.22025 0
M  V30 4812 H 459.557 4.85366 4.27819 0
M  V30 4813 N 459.689 -1.00246 1.21608 0
M  V30 4814 C 460.619 -2.10921 1.00172 0
M  V30 4815 C 461.6 -1.69938 -0.0741587 0
M  V30 4816 O 462.785 -1.94009 0.0861753 0
M  V30 4817 C 459.915 -3.42618 0.568355 0
M  V30 4818 C 458.869 -3.97407 1.58909 0
M  V30 4819 C 458.195 -5.25038 1.01187 0
M  V30 4820 C 459.495 -4.2918 2.97661 0
M  V30 4821 H 461.189 -2.29112 1.92739 0
M  V30 4822 H 458.735 -1.10101 0.928102 0
M  V30 4823 H 460.688 -4.19444 0.405555 0
M  V30 4824 H 459.412 -3.24227 -0.392961 0
M  V30 4825 H 458.071 -3.22703 1.73949 0
M  V30 4826 H 457.719 -5.02982 0.0421965 0
M  V30 4827 H 457.419 -5.62661 1.6937 0
M  V30 4828 H 458.943 -6.04507 0.860448 0
M  V30 4829 H 460.357 -4.96839 2.86049 0
M  V30 4830 H 458.754 -4.77952 3.6288 0
M  V30 4831 H 459.824 -3.3735 3.48315 0
M  V30 4832 N 461.167 -1.02423 -1.1978 0
M  V30 4833 C 462.397 -0.736387 -1.93031 0
M  V30 4834 C 462.805 0.708023 -1.75453 0
M  V30 4835 O 462.148 1.4927 -1.07071 0
M  V30 4836 C 462.21 -1.00194 -3.45255 0
M  V30 4837 C 461.874 -2.43698 -3.86601 0
M  V30 4838 C 462.871 -3.41814 -3.91738 0
M  V30 4839 C 460.556 -2.77975 -4.18372 0
M  V30 4840 C 462.55 -4.72265 -4.28071 0
M  V30 4841 C 460.237 -4.08636 -4.54378 0
M  V30 4842 C 461.235 -5.05592 -4.59201 0
M  V30 4843 O 460.923 -6.33914 -4.94376 0
M  V30 4844 H 460.655 -0.269116 -0.620123 0
M  V30 4845 H 463.209 -1.37043 -1.52998 0
M  V30 4846 H 461.439 -0.310747 -3.85449 0
M  V30 4847 H 463.128 -0.704488 -3.9974 0
M  V30 4848 H 463.894 -3.16671 -3.67348 0
M  V30 4849 H 459.773 -2.0319 -4.13805 0
M  V30 4850 H 463.317 -5.4794 -4.3175 0
M  V30 4851 H 459.214 -4.33556 -4.78226 0
M  V30 4852 H 459.982 -6.38317 -5.12341 0
M  V30 4853 N 462.645 1.35699 -0.801477 0
M  V30 4854 C 463.893 1.9852 -0.37871 0
M  V30 4855 C 464.214 1.63907 1.05638 0
M  V30 4856 O 463.484 0.919013 1.73006 0
M  V30 4857 H 462.064 0.734322 -0.137042 0
M  V30 4858 H 464.726 1.65697 -1.02619 0
M  V30 4859 H 463.822 3.08382 -0.480284 0
M  V30 4860 N 464.123 0.554532 1.47522 0
M  V30 4861 C 465.37 0.029479 2.02479 0
M  V30 4862 C 465.698 -1.31929 1.42916 0
M  V30 4863 O 464.953 -1.87112 0.573385 0
M  V30 4864 C 465.252 -0.115927 3.57212 0
M  V30 4865 C 464.918 1.16161 4.3568 0
M  V30 4866 C 463.58 1.51168 4.56839 0
M  V30 4867 C 465.932 2.0083 4.80954 0
M  V30 4868 C 463.26 2.70696 5.2052 0
M  V30 4869 C 465.612 3.19559 5.45953 0
M  V30 4870 C 464.276 3.54882 5.65345 0
M  V30 4871 H 463.546 0.0107871 0.740921 0
M  V30 4872 H 466.193 0.725506 1.77225 0
M  V30 4873 H 464.498 -0.894902 3.81443 0
M  V30 4874 H 466.195 -0.53749 3.97381 0
M  V30 4875 H 462.785 0.879026 4.19489 0
M  V30 4876 H 466.969 1.75093 4.64388 0
M  V30 4877 H 462.225 2.98236 5.33728 0
M  V30 4878 H 466.399 3.85456 5.79997 0
M  V30 4879 H 464.026 4.47596 6.1446 0
M  V30 4880 N 465.601 -1.54893 0.290851 0
M  V30 4881 C 466.531 -2.26103 -0.583084 0
M  V30 4882 C 467.512 -1.25684 -1.14619 0
M  V30 4883 O 468.697 -1.54436 -1.17741 0
M  V30 4884 C 465.827 -2.99409 -1.75987 0
M  V30 4885 C 464.781 -4.0689 -1.32758 0
M  V30 4886 C 464.107 -4.67856 -2.58872 0
M  V30 4887 C 465.407 -5.20215 -0.46624 0
M  V30 4888 H 467.101 -2.99398 0.0108214 0
M  V30 4889 H 464.647 -1.43998 0.00664468 0
M  V30 4890 H 466.6 -3.47943 -2.37727 0
M  V30 4891 H 465.324 -2.23675 -2.37985 0
M  V30 4892 H 463.983 -3.59191 -0.733299 0
M  V30 4893 H 463.631 -3.88772 -3.19163 0
M  V30 4894 H 463.331 -5.40438 -2.30653 0
M  V30 4895 H 464.855 -5.19147 -3.21433 0
M  V30 4896 H 466.269 -5.64704 -0.989047 0
M  V30 4897 H 464.666 -5.99455 -0.27826 0
M  V30 4898 H 465.736 -4.82198 0.511173 0
M  V30 4899 N 467.08 -0.0183926 -1.57589 0
M  V30 4900 C 468.305 0.676634 -1.96052 0
M  V30 4901 C 468.73 1.6548 -0.894307 0
M  V30 4902 O 468.088 1.80712 0.145849 0
M  V30 4903 C 468.136 1.36872 -3.33614 0
M  V30 4904 O 467.24 2.48372 -3.29219 0
M  V30 4905 H 466.581 0.1786 -0.63953 0
M  V30 4906 H 469.111 -0.077056 -2.04455 0
M  V30 4907 H 469.121 1.72797 -3.69601 0
M  V30 4908 H 467.796 0.651636 -4.10763 0
M  V30 4909 H 466.373 2.14639 -3.04934 0
M  V30 4910 N 468.558 1.5553 0.254621 0
M  V30 4911 C 469.788 1.80784 1.00004 0
M  V30 4912 C 470.196 0.59071 1.79742 0
M  V30 4913 O 469.539 -0.449988 1.78103 0
M  V30 4914 C 469.601 2.99268 1.99196 0
M  V30 4915 C 469.265 4.35595 1.38224 0
M  V30 4916 C 470.262 5.13884 0.788611 0
M  V30 4917 C 467.947 4.82281 1.40393 0
M  V30 4918 C 469.941 6.37004 0.224783 0
M  V30 4919 C 467.628 6.05351 0.836243 0
M  V30 4920 C 468.626 6.82551 0.24769 0
M  V30 4921 O 468.314 8.03297 -0.311249 0
M  V30 4922 H 468.046 0.60565 0.300274 0
M  V30 4923 H 470.6 2.03411 0.285143 0
M  V30 4924 H 468.83 2.72377 2.74496 0
M  V30 4925 H 470.519 3.11682 2.60018 0
M  V30 4926 H 471.285 4.78938 0.764423 0
M  V30 4927 H 467.164 4.22189 1.85142 0
M  V30 4928 H 470.708 6.97203 -0.235235 0
M  V30 4929 H 466.605 6.39776 0.857733 0
M  V30 4930 H 467.373 8.1825 -0.20237 0
M  V30 4931 N 470.036 -0.519951 1.48776 0
M  V30 4932 C 471.452 -0.849418 1.35119 0
M  V30 4933 C 471.652 -1.98077 0.36982 0
M  V30 4934 O 470.708 -2.51664 -0.205359 0
M  V30 4935 C 472.021 -1.20748 2.75391 0
M  V30 4936 C 473.569 -1.31679 2.83954 0
M  V30 4937 C 474.044 -1.70824 4.24951 0
M  V30 4938 N 475.535 -1.77908 4.27672 0
M  V30 4939 C 476.27 -2.09603 5.33717 0
M  V30 4940 N 475.766 -2.39652 6.5003 0
M  V30 4941 N 477.559 -2.10694 5.21119 0
M  V30 4942 H 469.71 0.226377 2.1119 0
M  V30 4943 H 471.973 0.0386519 0.947212 0
M  V30 4944 H 471.679 -0.449703 3.48813 0
M  V30 4945 H 471.553 -2.15534 3.09556 0
M  V30 4946 H 473.94 -2.06532 2.10781 0
M  V30 4947 H 474.021 -0.3499 2.53396 0
M  V30 4948 H 473.665 -0.965282 4.98643 0
M  V30 4949 H 473.595 -2.6858 4.52959 0
M  V30 4950 H 476.086 -1.56923 3.43779 0
M  V30 4951 H 476.399 -2.6297 7.26682 0
M  V30 4952 H 474.744 -2.37149 6.53288 0
M  V30 4953 H 477.935 -1.86682 4.29264 0
M  V30 4954 H 478.108 -2.35062 6.03863 0
M  V30 4955 N 471.514 -1.37532 -0.769588 0
M  V30 4956 C 472.761 -1.3286 -1.52822 0
M  V30 4957 C 473.089 0.0862597 -1.94309 0
M  V30 4958 O 472.344 1.05995 -1.6451 0
M  V30 4959 C 472.643 -2.21558 -2.8044 0
M  V30 4960 C 472.309 -3.69796 -2.57996 0
M  V30 4961 C 470.971 -4.10194 -2.51583 0
M  V30 4962 C 473.323 -4.63699 -2.37976 0
M  V30 4963 C 470.651 -5.42608 -2.23144 0
M  V30 4964 C 473.003 -5.96353 -2.1106 0
M  V30 4965 C 471.667 -6.35853 -2.03093 0
M  V30 4966 H 470.937 -0.486168 -0.559215 0
M  V30 4967 H 473.584 -1.69757 -0.886277 0
M  V30 4968 H 471.889 -1.77663 -3.49204 0
M  V30 4969 H 473.586 -2.15256 -3.38328 0
M  V30 4970 H 470.176 -3.37759 -2.63851 0
M  V30 4971 H 474.36 -4.33346 -2.41919 0
M  V30 4972 H 469.616 -5.72173 -2.15472 0
M  V30 4973 H 473.79 -6.68667 -1.94568 0
M  V30 4974 H 471.417 -7.38382 -1.8082 0
M  V30 4975 N 472.992 0.995999 -1.22138 0
M  V30 4976 C 473.939 2.08551 -0.988687 0
M  V30 4977 C 474.909 1.65864 0.0885021 0
M  V30 4978 O 476.094 1.90704 -0.0604589 0
M  V30 4979 C 473.234 3.40374 -0.569191 0
M  V30 4980 C 472.347 3.96421 -1.71681 0
M  V30 4981 C 471.482 5.1639 -1.2456 0
M  V30 4982 C 470.521 5.64567 -2.36497 0
M  V30 4983 N 469.658 6.75777 -1.90445 0
M  V30 4984 H 474.498 2.2779 -1.92135 0
M  V30 4985 H 472.035 1.1168 -0.957388 0
M  V30 4986 H 473.993 4.16068 -0.307166 0
M  V30 4987 H 472.623 3.21145 0.326462 0
M  V30 4988 H 471.675 3.17628 -2.09324 0
M  V30 4989 H 472.987 4.2816 -2.55891 0
M  V30 4990 H 472.141 5.99362 -0.940774 0
M  V30 4991 H 470.88 4.86266 -0.373662 0
M  V30 4992 H 469.885 4.80185 -2.67772 0
M  V30 4993 H 471.11 5.96716 -3.24202 0
M  V30 4994 H 469.056 6.47443 -1.05609 0
M  V30 4995 H 468.973 7.06818 -2.68223 0
M  V30 4996 H 470.241 7.62262 -1.63022 0
M  V30 4997 N 474.47 1.03057 1.19235 0
M  V30 4998 C 475.402 0.570932 2.21975 0
M  V30 4999 C 476.415 -0.354088 1.58903 0
M  V30 5000 O 477.604 -0.150211 1.77867 0
M  V30 5001 C 474.704 -0.187152 3.38383 0
M  V30 5002 C 473.877 0.743231 4.31039 0
M  V30 5003 C 472.936 0.0302493 5.26191 0
M  V30 5004 O 471.962 0.657371 5.65391 0
M  V30 5005 N 473.164 -1.23991 5.67104 0
M  V30 5006 H 475.929 1.45456 2.62036 0
M  V30 5007 H 473.49 0.909807 1.33918 0
M  V30 5008 H 475.482 -0.673715 3.99053 0
M  V30 5009 H 474.052 -0.972205 2.97098 0
M  V30 5010 H 473.272 1.40985 3.68126 0
M  V30 5011 H 474.56 1.3755 4.89854 0
M  V30 5012 H 473.958 -1.77011 5.37293 0
M  V30 5013 H 472.515 -1.67093 6.30018 0
M  V30 5014 N 475.948 -1.35272 0.808662 0
M  V30 5015 C 477.196 -1.98316 0.389233 0
M  V30 5016 C 477.517 -1.64465 -1.04767 0
M  V30 5017 O 476.787 -0.928175 -1.72516 0
M  V30 5018 H 475.367 -0.733585 0.140935 0
M  V30 5019 H 478.029 -1.6515 1.03496 0
M  V30 5020 H 477.125 -3.08123 0.496631 0
M  V30 5021 N 477.426 -0.562348 -1.47226 0
M  V30 5022 C 478.673 -0.0402165 -2.0246 0
M  V30 5023 C 479.001 1.31169 -1.43614 0
M  V30 5024 O 478.256 1.86805 -0.5833 0
M  V30 5025 C 478.555 0.0969817 -3.57268 0
M  V30 5026 C 478.221 -1.1847 -4.35058 0
M  V30 5027 C 476.883 -1.53588 -4.56031 0
M  V30 5028 C 479.235 -2.03378 -4.79882 0
M  V30 5029 C 476.563 -2.73452 -5.19077 0
M  V30 5030 C 478.915 -3.2245 -5.44251 0
M  V30 5031 C 477.579 -3.57876 -5.63455 0
M  V30 5032 H 476.849 -0.0147163 -0.740854 0
M  V30 5033 H 479.496 -0.734895 -1.76838 0
M  V30 5034 H 477.801 0.87466 -3.81912 0
M  V30 5035 H 479.498 0.516408 -3.97661 0
M  V30 5036 H 476.088 -0.90126 -4.19017 0
M  V30 5037 H 480.272 -1.77553 -4.63453 0
M  V30 5038 H 475.528 -3.01062 -5.32139 0
M  V30 5039 H 479.702 -3.88526 -5.77945 0
M  V30 5040 H 477.329 -4.50849 -6.12078 0
M  V30 5041 N 478.904 1.54736 -0.299062 0
M  V30 5042 C 480.32 1.59507 0.0543849 0
M  V30 5043 C 480.52 1.31606 1.52585 0
M  V30 5044 O 479.576 1.08853 2.27832 0
M  V30 5045 C 480.889 2.98751 -0.34181 0
M  V30 5046 C 482.437 3.1165 -0.290414 0
M  V30 5047 C 482.912 4.53199 -0.661402 0
M  V30 5048 N 484.403 4.59114 -0.613863 0
M  V30 5049 C 485.138 5.66709 -0.873417 0
M  V30 5050 N 484.634 6.82349 -1.19884 0
M  V30 5051 N 486.427 5.56369 -0.800608 0
M  V30 5052 H 478.578 1.71133 -1.25806 0
M  V30 5053 H 480.841 0.799186 -0.509908 0
M  V30 5054 H 480.547 3.24085 -1.36608 0
M  V30 5055 H 480.421 3.75961 0.305508 0
M  V30 5056 H 482.808 2.86066 0.724605 0
M  V30 5057 H 482.889 2.366 -0.972327 0
M  V30 5058 H 482.533 4.79513 -1.67422 0
M  V30 5059 H 482.463 5.26583 0.0425612 0
M  V30 5060 H 484.954 3.76053 -0.3732 0
M  V30 5061 H 485.267 7.60326 -1.38291 0
M  V30 5062 H 483.612 6.83906 -1.23685 0
M  V30 5063 H 486.803 4.64904 -0.546045 0
M  V30 5064 H 486.976 6.40139 -1.00626 0
M  V30 5065 N 480.382 0.0267497 1.57577 0
M  V30 5066 C 481.798 -0.32962 1.56159 0
M  V30 5067 C 481.998 -1.73059 1.03213 0
M  V30 5068 O 481.054 -2.43233 0.677804 0
M  V30 5069 C 482.367 -0.18039 3.00158 0
M  V30 5070 C 483.915 -0.253334 3.11973 0
M  V30 5071 C 484.39 -0.132921 4.57807 0
M  V30 5072 N 485.881 -0.189979 4.6281 0
M  V30 5073 C 486.616 -0.120554 5.73273 0
M  V30 5074 N 486.112 -0.000180315 6.928 0
M  V30 5075 N 487.905 -0.174369 5.61829 0
M  V30 5076 H 480.056 0.942896 1.90324 0
M  V30 5077 H 482.319 0.3639 0.875375 0
M  V30 5078 H 482.025 0.784576 3.42837 0
M  V30 5079 H 481.899 -0.951565 3.65 0
M  V30 5080 H 484.286 -1.20876 2.69208 0
M  V30 5081 H 484.367 0.548177 2.49857 0
M  V30 5082 H 484.011 0.819073 5.01252 0
M  V30 5083 H 483.941 -0.953264 5.179 0
M  V30 5084 H 486.432 -0.283257 3.76837 0
M  V30 5085 H 486.745 0.0461666 7.72786 0
M  V30 5086 H 485.09 0.034569 6.94991 0
M  V30 5087 H 488.281 -0.266794 4.67339 0
M  V30 5088 H 488.454 -0.116802 6.47895 0
M  V30 5089 N 481.861 -1.55662 -0.24637 0
M  V30 5090 C 483.107 -1.77782 -0.975779 0
M  V30 5091 C 483.44 -0.592103 -1.84953 0
M  V30 5092 O 482.715 0.409588 -1.90138 0
M  V30 5093 C 482.998 -3.09788 -1.83584 0
M  V30 5094 C 482.851 -4.38764 -0.990241 0
M  V30 5095 C 484.17 -3.38029 -2.81823 0
M  V30 5096 H 481.289 -0.646789 -0.353317 0
M  V30 5097 H 483.931 -1.88398 -0.246248 0
M  V30 5098 H 482.081 -3.00869 -2.45784 0
M  V30 5099 H 483.753 -4.59675 -0.386897 0
M  V30 5100 H 481.996 -4.32798 -0.294626 0
M  V30 5101 H 482.667 -5.27514 -1.62584 0
M  V30 5102 H 485.143 -3.46915 -2.2976 0
M  V30 5103 H 484.019 -4.3161 -3.39122 0
M  V30 5104 H 484.28 -2.58968 -3.58313 0
M  V30 5105 N 483.339 0.512053 -1.4905 0
M  V30 5106 C 484.269 1.62365 -1.67809 0
M  V30 5107 C 485.25 1.61737 -0.526809 0
M  V30 5108 O 486.435 1.78651 -0.761404 0
M  V30 5109 C 483.565 3.00895 -1.73435 0
M  V30 5110 C 482.519 3.16387 -2.88242 0
M  V30 5111 C 481.845 4.56157 -2.78971 0
M  V30 5112 C 483.145 2.97457 -4.29321 0
M  V30 5113 H 484.839 1.46921 -2.60873 0
M  V30 5114 H 482.385 0.705379 -1.2554 0
M  V30 5115 H 484.338 3.78549 -1.85145 0
M  V30 5116 H 483.062 3.17403 -0.769619 0
M  V30 5117 H 481.721 2.41155 -2.76116 0
M  V30 5118 H 481.369 4.69525 -1.8043 0
M  V30 5119 H 481.069 4.67465 -3.5602 0
M  V30 5120 H 482.593 5.35886 -2.92675 0
M  V30 5121 H 484.007 3.64888 -4.42187 0
M  V30 5122 H 482.404 3.20245 -5.07507 0
M  V30 5123 H 483.474 1.93692 -4.44535 0
M  V30 5124 N 484.817 1.37938 0.762283 0
M  V30 5125 C 485.747 1.37176 1.88958 0
M  V30 5126 C 486.728 0.238945 1.68413 0
M  V30 5127 O 487.913 0.440726 1.89133 0
M  V30 5128 C 485.043 1.18742 3.2637 0
M  V30 5129 C 483.997 2.29136 3.61498 0
M  V30 5130 C 483.323 1.95816 4.97554 0
M  V30 5131 C 484.623 3.71363 3.6727 0
M  V30 5132 H 486.317 2.31509 1.89853 0
M  V30 5133 H 483.863 1.11438 0.912005 0
M  V30 5134 H 485.816 1.16837 4.04879 0
M  V30 5135 H 484.54 0.208683 3.25933 0
M  V30 5136 H 483.199 2.30213 2.85303 0
M  V30 5137 H 482.847 0.964475 4.93667 0
M  V30 5138 H 482.547 2.69745 5.22026 0
M  V30 5139 H 484.071 1.95513 5.78452 0
M  V30 5140 H 485.485 3.72364 4.35911 0
M  V30 5141 H 483.882 4.44425 4.03245 0
M  V30 5142 H 484.952 4.04305 2.67704 0
M  V30 5143 N 486.295 -0.989507 1.22664 0
M  V30 5144 C 487.711 -1.25395 0.987331 0
M  V30 5145 C 487.911 -1.9899 -0.317056 0
M  V30 5146 O 486.967 -2.30141 -1.03882 0
M  V30 5147 C 488.28 -2.06242 2.18826 0
M  V30 5148 C 489.828 -2.19413 2.23219 0
M  V30 5149 C 490.303 -3.03648 3.42873 0
M  V30 5150 N 491.794 -3.11234 3.43056 0
M  V30 5151 C 492.529 -3.7671 4.32293 0
M  V30 5152 N 492.025 -4.44085 5.31752 0
M  V30 5153 N 493.818 -3.73505 4.2006 0
M  V30 5154 H 485.969 -0.496212 2.06522 0
M  V30 5155 H 488.232 -0.281784 0.905153 0
M  V30 5156 H 487.938 -1.59531 3.13437 0
M  V30 5157 H 487.812 -3.06996 2.19165 0
M  V30 5158 H 490.199 -2.65336 1.29154 0
M  V30 5159 H 490.28 -1.18078 2.26917 0
M  V30 5160 H 489.924 -2.58424 4.37241 0
M  V30 5161 H 489.854 -4.05132 3.36416 0
M  V30 5162 H 492.345 -2.63287 2.71088 0
M  V30 5163 H 492.658 -4.91797 5.96117 0
M  V30 5164 H 491.003 -4.42822 5.35662 0
M  V30 5165 H 494.194 -3.20033 3.41609 0
M  V30 5166 H 494.367 -4.24253 4.8981 0
M  V30 5167 N 487.773 -1.03688 -1.18687 0
M  V30 5168 C 489.184 -0.766488 -1.70241 0
M  V30 5169 C 489.535 0.713052 -1.82784 0
M  V30 5170 O 488.66 1.55529 -1.50465 0
M  V30 5171 C 489.255 -1.38475 -3.09209 0
M  V30 5172 C 487.814 -1.16276 -3.5799 0
M  V30 5173 C 486.961 -1.4778 -2.34641 0
M  V30 5174 H 489.912 -1.20378 -1.03415 0
M  V30 5175 H 489.933 -0.785939 -3.72295 0
M  V30 5176 H 489.445 -2.46157 -3.00048 0
M  V30 5177 H 487.546 -0.104508 -3.72453 0
M  V30 5178 H 487.659 -1.8571 -4.41643 0
M  V30 5179 H 486.023 -0.897366 -2.38368 0
M  V30 5180 H 486.806 -2.56562 -2.28102 0
M  V30 5181 N 489.251 1.34841 -0.815825 0
M  V30 5182 C 490.476 2.03261 -0.41226 0
M  V30 5183 C 490.901 1.61055 0.971751 0
M  V30 5184 O 490.259 0.7917 1.63101 0
M  V30 5185 C 490.307 3.56914 -0.514289 0
M  V30 5186 O 489.411 4.09728 0.468675 0
M  V30 5187 H 488.752 0.641664 -0.170771 0
M  V30 5188 H 491.282 1.72241 -1.10427 0
M  V30 5189 H 491.292 4.06156 -0.387457 0
M  V30 5190 H 489.967 3.86982 -1.52375 0
M  V30 5191 H 488.544 3.71681 0.301316 0
M  V30 5192 N 490.729 0.570148 1.46925 0
M  V30 5193 C 492.145 0.23087 1.57921 0
M  V30 5194 C 492.345 -1.26676 1.56702 0
M  V30 5195 O 491.401 -2.04774 1.47729 0
M  V30 5196 C 492.714 0.868973 2.8787 0
M  V30 5197 C 494.262 0.841397 3.01479 0
M  V30 5198 C 494.737 1.45881 4.34146 0
M  V30 5199 N 496.228 1.42258 4.40814 0
M  V30 5200 C 496.963 1.8698 5.42057 0
M  V30 5201 N 496.459 2.39618 6.50042 0
M  V30 5202 N 498.252 1.77972 5.33181 0
M  V30 5203 H 490.403 1.54301 1.45962 0
M  V30 5204 H 492.666 0.644224 0.69547 0
M  V30 5205 H 492.372 1.922 2.94537 0
M  V30 5206 H 492.246 0.369682 3.75384 0
M  V30 5207 H 494.633 -0.202973 2.94401 0
M  V30 5208 H 494.714 1.37858 2.15474 0
M  V30 5209 H 494.358 2.50231 4.4198 0
M  V30 5210 H 494.288 0.896958 5.18905 0
M  V30 5211 H 496.779 1.03768 3.63374 0
M  V30 5212 H 497.092 2.71633 7.23488 0
M  V30 5213 H 495.437 2.43636 6.50897 0
M  V30 5214 H 498.628 1.36617 4.4772 0
M  V30 5215 H 498.801 2.13143 6.11943 0
M  V30 5216 N 492.207 -1.54576 0.307264 0
M  V30 5217 C 493.623 -1.59534 -0.0459251 0
M  V30 5218 C 493.823 -1.32414 -1.51884 0
M  V30 5219 O 492.879 -1.1006 -2.27251 0
M  V30 5220 C 494.192 -2.98566 0.357649 0
M  V30 5221 C 495.74 -3.11491 0.306937 0
M  V30 5222 C 496.215 -4.52842 0.685427 0
M  V30 5223 N 497.706 -4.58782 0.638203 0
M  V30 5224 C 498.441 -5.66238 0.903458 0
M  V30 5225 N 497.937 -6.81703 1.23501 0
M  V30 5226 N 499.73 -5.55937 0.830102 0
M  V30 5227 H 491.881 -1.70464 1.26712 0
M  V30 5228 H 494.144 -0.79647 0.514139 0
M  V30 5229 H 493.85 -3.23356 1.38325 0
M  V30 5230 H 493.724 -3.76117 -0.285565 0
M  V30 5231 H 496.111 -2.86446 -0.709424 0
M  V30 5232 H 496.192 -2.36081 0.984861 0
M  V30 5233 H 495.836 -4.78618 1.69963 0
M  V30 5234 H 495.766 -5.26598 -0.0146346 0
M  V30 5235 H 498.257 -3.75849 0.393138 0
M  V30 5236 H 498.57 -7.59582 1.42322 0
M  V30 5237 H 496.915 -6.8324 1.27311 0
M  V30 5238 H 500.106 -4.64608 0.570693 0
M  V30 5239 H 500.279 -6.39597 1.04019 0
M  V30 5240 N 493.685 -0.035106 -1.57561 0
M  V30 5241 C 494.931 0.64318 -1.92331 0
M  V30 5242 C 495.264 1.71434 -0.912368 0
M  V30 5243 O 494.539 1.94395 0.0640303 0
M  V30 5244 C 494.822 1.25411 -3.37556 0
M  V30 5245 C 494.675 0.192109 -4.4939 0
M  V30 5246 C 495.994 2.17041 -3.82859 0
M  V30 5247 H 493.113 0.232341 -0.699419 0
M  V30 5248 H 495.755 -0.0935889 -1.89769 0
M  V30 5249 H 493.905 1.88205 -3.39869 0
M  V30 5250 H 495.577 -0.438849 -4.59208 0
M  V30 5251 H 493.82 -0.481725 -4.31117 0
M  V30 5252 H 494.491 0.659292 -5.48049 0
M  V30 5253 H 496.967 1.64228 -3.8232 0
M  V30 5254 H 495.843 2.56738 -4.85157 0
M  V30 5255 H 496.104 3.06401 -3.18702 0
M  V30 5256 N 495.163 1.55791 0.238111 0
M  V30 5257 C 496.579 1.48411 0.587045 0
M  V30 5258 C 496.779 0.72702 1.87927 0
M  V30 5259 O 495.835 0.259942 2.51158 0
M  V30 5260 C 497.148 2.92873 0.681623 0
M  V30 5261 C 498.696 3.03295 0.773363 0
M  V30 5262 C 499.171 4.49082 0.899428 0
M  V30 5263 N 500.662 4.53056 0.964075 0
M  V30 5264 C 501.397 5.63117 1.08104 0
M  V30 5265 N 500.893 6.82969 1.16299 0
M  V30 5266 N 502.686 5.50933 1.11488 0
M  V30 5267 H 494.837 2.0345 -0.610076 0
M  V30 5268 H 497.1 0.924034 -0.211813 0
M  V30 5269 H 496.806 3.51142 -0.19802 0
M  V30 5270 H 496.68 3.43851 1.55069 0
M  V30 5271 H 499.067 2.45101 1.64346 0
M  V30 5272 H 499.148 2.55513 -0.121034 0
M  V30 5273 H 498.792 5.07889 0.0338586 0
M  V30 5274 H 498.722 4.94553 1.809 0
M  V30 5275 H 501.213 3.66737 0.91173 0
M  V30 5276 H 501.526 7.62598 1.25155 0
M  V30 5277 H 499.871 6.85712 1.13241 0
M  V30 5278 H 503.062 4.56231 1.0474 0
M  V30 5279 H 503.235 6.36743 1.20259 0
M  V30 5280 N 496.642 -0.504142 1.49319 0
M  V30 5281 C 497.867 -1.28729 1.62615 0
M  V30 5282 C 498.292 -1.85752 0.296309 0
M  V30 5283 O 497.65 -1.65704 -0.735649 0
M  V30 5284 C 497.698 -2.39561 2.69524 0
M  V30 5285 O 496.802 -3.43324 2.28478 0
M  V30 5286 H 496.143 -0.380172 0.544395 0
M  V30 5287 H 498.673 -0.603872 1.95485 0
M  V30 5288 H 498.683 -2.8537 2.91595 0
M  V30 5289 H 497.358 -1.97423 3.66056 0
M  V30 5290 H 495.935 -3.03455 2.16725 0
M  V30 5291 N 498.12 -1.38341 -0.754957 0
M  V30 5292 C 499.052 -1.31347 -1.87831 0
M  V30 5293 C 500.065 -0.225955 -1.61224 0
M  V30 5294 O 501.254 -0.48341 -1.7183 0
M  V30 5295 C 498.354 -1.01201 -3.23437 0
M  V30 5296 C 497.527 -2.20834 -3.77559 0
M  V30 5297 C 496.586 -1.87454 -4.91678 0
M  V30 5298 O 495.612 -2.59934 -5.06382 0
M  V30 5299 N 496.814 -0.828682 -5.74555 0
M  V30 5300 H 499.579 -2.28147 -1.94342 0
M  V30 5301 H 497.14 -1.32184 -0.934828 0
M  V30 5302 H 499.132 -0.769249 -3.97322 0
M  V30 5303 H 497.702 -0.132011 -3.12321 0
M  V30 5304 H 496.922 -2.61184 -2.95256 0
M  V30 5305 H 498.21 -3.00678 -4.10451 0
M  V30 5306 H 497.608 -0.227591 -5.65242 0
M  V30 5307 H 496.165 -0.645802 -6.48593 0
M  V30 5308 N 499.598 0.982988 -1.23187 0
M  V30 5309 C 500.508 2.10907 -1.02739 0
M  V30 5310 C 501.524 1.73979 0.0273188 0
M  V30 5311 O 502.7 2.00702 -0.16757 0
M  V30 5312 C 499.765 3.41142 -0.618304 0
M  V30 5313 C 498.826 3.92112 -1.74777 0
M  V30 5314 C 498.059 5.16131 -1.3581 0
M  V30 5315 O 498.282 5.6989 -0.241201 0
M  V30 5316 O 497.216 5.61103 -2.17824 0
M  V30 5317 H 501.042 2.31046 -1.97108 0
M  V30 5318 H 498.627 1.09284 -1.01869 0
M  V30 5319 H 500.509 4.19488 -0.400982 0
M  V30 5320 H 499.184 3.2234 0.296421 0
M  V30 5321 H 498.091 3.14895 -2.0197 0
M  V30 5322 H 499.424 4.15364 -2.64071 0
M  V30 5323 N 501.076 1.04316 1.18135 0
M  V30 5324 C 502.487 0.775505 1.69832 0
M  V30 5325 C 502.838 -0.703348 1.8316 0
M  V30 5326 O 501.963 -1.54729 1.51287 0
M  V30 5327 C 502.558 1.40112 3.0847 0
M  V30 5328 C 501.117 1.18172 3.57368 0
M  V30 5329 C 500.264 1.49022 2.33854 0
M  V30 5330 H 503.215 1.20925 1.02775 0
M  V30 5331 H 503.236 0.805672 3.71873 0
M  V30 5332 H 502.748 2.47744 2.98738 0
M  V30 5333 H 500.849 0.124258 3.72393 0
M  V30 5334 H 500.962 1.8805 4.40652 0
M  V30 5335 H 499.326 0.909995 2.37889 0
M  V30 5336 H 500.109 2.57768 2.26738 0
M  V30 5337 N 502.554 -1.34406 0.822964 0
M  V30 5338 C 503.782 -2.02508 0.424039 0
M  V30 5339 C 504.197 -1.61975 -0.970022 0
M  V30 5340 O 503.554 -0.825228 -1.62777 0
M  V30 5341 C 503.605 -3.57789 0.516657 0
M  V30 5342 O 503.326 -3.96853 1.85577 0
M  V30 5343 C 504.827 -4.43157 0.112637 0
M  V30 5344 H 502.047 -0.649063 0.170173 0
M  V30 5345 H 504.591 -1.7168 1.11113 0
M  V30 5346 H 502.746 -3.87207 -0.122353 0
M  V30 5347 H 503.16 -4.91538 1.83005 0
M  V30 5348 H 504.634 -5.51527 0.228526 0
M  V30 5349 H 505.111 -4.28939 -0.943837 0
M  V30 5350 H 505.717 -4.19067 0.725449 0
M  V30 5351 N 504.032 -0.577932 -1.46621 0
M  V30 5352 C 505.278 -0.0617793 -2.02706 0
M  V30 5353 C 505.611 1.29294 -1.44903 0
M  V30 5354 O 504.886 1.8461 -0.61232 0
M  V30 5355 C 505.169 0.00911824 -3.60099 0
M  V30 5356 C 505.022 -1.37416 -4.28295 0
M  V30 5357 C 506.341 0.712159 -4.343 0
M  V30 5358 H 503.46 -0.0239246 -0.736612 0
M  V30 5359 H 506.102 -0.744211 -1.74818 0
M  V30 5360 H 504.252 0.590292 -3.83989 0
M  V30 5361 H 505.924 -2.00013 -4.15683 0
M  V30 5362 H 504.167 -1.94319 -3.87843 0
M  V30 5363 H 504.838 -1.27707 -5.37024 0
M  V30 5364 H 507.314 0.218486 -4.15526 0
M  V30 5365 H 506.19 0.730782 -5.44014 0
M  V30 5366 H 506.451 1.77251 -4.05012 0
M  V30 5367 N 505.51 1.54411 -0.315457 0
M  V30 5368 C 506.758 2.00023 0.288971 0
M  V30 5369 C 507.079 1.20529 1.5329 0
M  V30 5370 O 506.349 0.304986 1.93511 0
M  V30 5371 H 504.929 0.738891 0.109766 0
M  V30 5372 H 507.591 1.90094 -0.430129 0
M  V30 5373 H 506.687 3.07198 0.550999 0
M  V30 5374 N 506.988 0.0434614 1.5754 0
M  V30 5375 C 508.399 -0.493343 1.80064 0
M  V30 5376 C 508.75 -1.71388 0.955023 0
M  V30 5377 O 507.875 -2.15736 0.169434 0
M  V30 5378 C 508.47 -0.90179 3.26578 0
M  V30 5379 C 507.029 -1.38362 3.50047 0
M  V30 5380 C 506.176 -0.355129 2.75017 0
M  V30 5381 H 509.127 0.2694 1.56397 0
M  V30 5382 H 509.148 -1.76523 3.37075 0
M  V30 5383 H 508.66 -0.013271 3.88098 0
M  V30 5384 H 506.761 -2.29159 2.93798 0
M  V30 5385 H 506.874 -1.3811 4.58762 0
M  V30 5386 H 505.238 -0.826348 2.40922 0
M  V30 5387 H 506.021 0.525172 3.39259 0
M  V30 5388 N 508.466 -1.55915 -0.229846 0
M  V30 5389 C 509.877 -1.68809 -0.797531 0
M  V30 5390 C 510.228 -0.643995 -1.8533 0
M  V30 5391 O 509.353 0.206492 -2.15413 0
M  V30 5392 C 509.948 -3.06043 -1.45338 0
M  V30 5393 C 508.507 -3.20819 -1.96856 0
M  V30 5394 C 507.654 -2.6472 -0.825736 0
M  V30 5395 H 510.605 -1.58699 -0.00533733 0
M  V30 5396 H 510.626 -3.01438 -2.32196 0
M  V30 5397 H 510.138 -3.82012 -0.684743 0
M  V30 5398 H 508.239 -2.49704 -2.76548 0
M  V30 5399 H 508.352 -4.27937 -2.15423 0
M  V30 5400 H 506.716 -2.22985 -1.23084 0
M  V30 5401 H 507.499 -3.43229 -0.0699019 0
M  V30 5402 N 509.944 0.496216 -1.49584 0
M  V30 5403 C 510.854 1.62352 -1.69349 0
M  V30 5404 C 511.87 1.64184 -0.576147 0
M  V30 5405 O 513.046 1.82517 -0.85144 0
M  V30 5406 C 510.111 2.98698 -1.76013 0
M  V30 5407 C 509.172 3.07454 -2.99617 0
M  V30 5408 C 508.405 4.37296 -3.05953 0
M  V30 5409 O 508.628 5.2637 -2.19752 0
M  V30 5410 O 507.562 4.51124 -3.9846 0
M  V30 5411 H 511.388 1.48606 -2.64859 0
M  V30 5412 H 508.973 0.673022 -1.33382 0
M  V30 5413 H 510.855 3.79725 -1.82721 0
M  V30 5414 H 509.53 3.12696 -0.836828 0
M  V30 5415 H 508.437 2.25597 -2.98424 0
M  V30 5416 H 509.77 2.98385 -3.91443 0
M  V30 5417 N 511.423 1.38739 0.74761 0
M  V30 5418 C 512.37 1.36449 1.86146 0
M  V30 5419 C 513.34 0.226098 1.64554 0
M  V30 5420 O 514.525 0.41926 1.86137 0
M  V30 5421 C 511.665 1.2013 3.23516 0
M  V30 5422 C 510.778 2.43407 3.56899 0
M  V30 5423 C 509.913 2.19773 4.83605 0
M  V30 5424 C 508.952 3.3879 5.09792 0
M  V30 5425 N 508.089 3.14553 6.27695 0
M  V30 5426 H 512.929 2.3167 1.87438 0
M  V30 5427 H 510.466 1.15094 0.916063 0
M  V30 5428 H 512.424 1.08683 4.02795 0
M  V30 5429 H 511.054 0.285453 3.21535 0
M  V30 5430 H 510.106 2.65504 2.72418 0
M  V30 5431 H 511.418 3.32094 3.72176 0
M  V30 5432 H 510.572 2.05496 5.70838 0
M  V30 5433 H 509.311 1.28461 4.70478 0
M  V30 5434 H 508.316 3.53579 4.21025 0
M  V30 5435 H 509.541 4.30986 5.24812 0
M  V30 5436 H 507.487 2.25893 6.1588 0
M  V30 5437 H 507.404 3.96791 6.435 0
M  V30 5438 H 508.672 3.03943 7.17801 0
M  V30 5439 N 512.901 -0.976442 1.23707 0
M  V30 5440 C 514.129 -1.75341 1.09833 0
M  V30 5441 C 514.544 -1.8553 -0.349885 0
M  V30 5442 O 513.901 -1.33732 -1.24185 0
M  V30 5443 C 513.952 -3.17833 1.72233 0
M  V30 5444 O 513.673 -3.08167 3.11391 0
M  V30 5445 C 515.174 -4.11906 1.63853 0
M  V30 5446 H 512.394 -0.550137 0.384175 0
M  V30 5447 H 514.938 -1.2265 1.63638 0
M  V30 5448 H 513.093 -3.67538 1.22452 0
M  V30 5449 H 513.507 -3.97897 3.41729 0
M  V30 5450 H 514.981 -5.09579 2.12211 0
M  V30 5451 H 515.458 -4.35109 0.598092 0
M  V30 5452 H 516.064 -3.68107 2.13019 0
M  V30 5453 N 514.379 -1.04941 -1.1758 0
M  V30 5454 C 515.289 -0.658826 -2.25159 0
M  V30 5455 C 516.305 0.318941 -1.71052 0
M  V30 5456 O 517.481 0.171669 -2.00667 0
M  V30 5457 C 514.546 -0.0369522 -3.4668 0
M  V30 5458 C 513.607 -1.06484 -4.15884 0
M  V30 5459 C 512.84 -0.472551 -5.31604 0
M  V30 5460 O 513.063 0.718736 -5.65854 0
M  V30 5461 O 511.997 -1.20557 -5.89703 0
M  V30 5462 H 515.823 -1.55533 -2.60851 0
M  V30 5463 H 513.408 -0.820819 -1.24832 0
M  V30 5464 H 515.29 0.308784 -4.20267 0
M  V30 5465 H 513.965 0.833238 -3.12792 0
M  V30 5466 H 512.872 -1.46253 -3.44327 0
M  V30 5467 H 514.205 -1.9061 -4.53794 0
M  V30 5468 N 515.857 1.33968 -0.830081 0
M  V30 5469 C 516.767 2.33164 -0.259207 0
M  V30 5470 C 517.783 1.62951 0.610164 0
M  V30 5471 O 518.959 1.94668 0.516369 0
M  V30 5472 C 516.024 3.42088 0.563598 0
M  V30 5473 C 515.085 4.28037 -0.329014 0
M  V30 5474 C 514.318 5.3176 0.454616 0
M  V30 5475 O 514.541 5.44876 1.6872 0
M  V30 5476 O 513.475 6.01669 -0.166794 0
M  V30 5477 H 517.301 2.83832 -1.08041 0
M  V30 5478 H 514.886 1.37154 -0.59239 0
M  V30 5479 H 516.768 4.08581 1.03147 0
M  V30 5480 H 515.443 2.93651 1.36201 0
M  V30 5481 H 514.35 3.64443 -0.844538 0
M  V30 5482 H 515.683 4.79934 -1.09196 0
M  V30 5483 N 517.335 0.585699 1.46312 0
M  V30 5484 C 518.245 -0.148236 2.34131 0
M  V30 5485 C 519.261 -0.882972 1.49932 0
M  V30 5486 O 520.437 -0.845484 1.82794 0
M  V30 5487 C 517.502 -1.14714 3.27172 0
M  V30 5488 C 516.563 -0.416746 4.27272 0
M  V30 5489 C 515.796 -1.36806 5.15868 0
M  V30 5490 O 516.019 -2.60475 5.07454 0
M  V30 5491 O 514.953 -0.877018 5.95476 0
M  V30 5492 H 518.779 0.572882 2.98248 0
M  V30 5493 H 516.364 0.346082 1.45336 0
M  V30 5494 H 518.246 -1.72303 3.84564 0
M  V30 5495 H 516.921 -1.84967 2.65648 0
M  V30 5496 H 515.828 0.201061 3.73559 0
M  V30 5497 H 517.161 0.244872 4.9159 0
M  V30 5498 N 518.813 -1.54241 0.323641 0
M  V30 5499 C 520.09 -1.92741 -0.333181 0
M  V30 5500 C 520.47 -1.25326 -1.69872 0
M  V30 5501 O 519.818 -0.396991 -2.25025 0
M  V30 5502 C 520.028 -3.46399 -0.425322 0
M  V30 5503 C 521.376 -4.19029 -0.68557 0
M  V30 5504 O 522.4 -3.52555 -0.50824 0
M  V30 5505 O 521.259 -5.36751 -1.02767 0
M  V30 5506 H 518.353 -0.804811 -0.190286 0
M  V30 5507 H 520.899 -1.65542 0.373361 0
M  V30 5508 H 519.671 -3.87643 0.533737 0
M  V30 5509 H 519.294 -3.79704 -1.17944 0
M  V30 5510 N 520.291 -0.0518155 -1.57515 0
M  V30 5511 C 521.201 0.937539 -2.15052 0
M  V30 5512 C 522.217 1.34121 -1.10849 0
M  V30 5513 O 523.393 1.418 -1.4302 0
M  V30 5514 C 520.458 2.19379 -2.68466 0
M  V30 5515 C 519.519 1.84841 -3.87469 0
M  V30 5516 C 518.752 3.04477 -4.38326 0
M  V30 5517 O 518.975 4.17868 -3.88256 0
M  V30 5518 O 517.909 2.85453 -5.29906 0
M  V30 5519 H 521.735 0.478201 -2.99912 0
M  V30 5520 H 519.32 0.17012 -1.48428 0
M  V30 5521 H 521.202 2.93084 -3.02787 0
M  V30 5522 H 519.877 2.64449 -1.86677 0
M  V30 5523 H 518.784 1.08449 -3.58036 0
M  V30 5524 H 520.117 1.44569 -4.7049 0
M  V30 5525 N 521.769 1.56035 0.221574 0
M  V30 5526 C 522.679 1.95581 1.29558 0
M  V30 5527 C 523.695 0.859639 1.51282 0
M  V30 5528 O 524.871 1.16321 1.64413 0
M  V30 5529 C 521.936 2.26447 2.62531 0
M  V30 5530 C 520.997 3.49632 2.4911 0
M  V30 5531 C 520.23 3.79017 3.75742 0
M  V30 5532 O 520.453 3.10077 4.78757 0
M  V30 5533 O 519.387 4.72507 3.72855 0
M  V30 5534 H 523.213 2.8711 0.990035 0
M  V30 5535 H 520.798 1.43244 0.424434 0
M  V30 5536 H 522.68 2.47494 3.41064 0
M  V30 5537 H 521.355 1.38092 2.92766 0
M  V30 5538 H 520.262 3.33864 1.68777 0
M  V30 5539 H 521.595 4.3837 2.23814 0
M  V30 5540 N 523.247 -0.488276 1.49845 0
M  V30 5541 C 524.157 -1.61451 1.70207 0
M  V30 5542 C 525.173 -1.63877 0.584846 0
M  V30 5543 O 526.349 -1.82063 0.861107 0
M  V30 5544 C 523.414 -2.9776 1.77594 0
M  V30 5545 C 522.475 -3.05861 3.01243 0
M  V30 5546 C 521.708 -4.35668 3.08268 0
M  V30 5547 O 521.931 -5.25197 2.22541 0
M  V30 5548 O 520.865 -4.49005 4.00847 0
M  V30 5549 H 524.691 -1.47199 2.65643 0
M  V30 5550 H 522.276 -0.665939 1.33737 0
M  V30 5551 H 524.158 -3.7875 1.84732 0
M  V30 5552 H 522.833 -3.12248 0.8534 0
M  V30 5553 H 521.74 -2.24012 2.99616 0
M  V30 5554 H 523.073 -2.96304 3.9302 0
M  V30 5555 N 524.725 -1.39134 -0.740242 0
M  V30 5556 C 525.635 -1.39697 -1.88473 0
M  V30 5557 C 526.651 -0.292403 -1.71526 0
M  V30 5558 O 527.827 -0.533021 -1.94219 0
M  V30 5559 C 524.892 -1.23382 -3.24003 0
M  V30 5560 C 523.953 -2.43763 -3.53381 0
M  V30 5561 C 523.186 -2.28216 -4.82445 0
M  V30 5562 O 523.409 -1.28288 -5.55786 0
M  V30 5563 O 522.343 -3.1709 -5.11603 0
M  V30 5564 H 526.169 -2.36159 -1.90952 0
M  V30 5565 H 523.754 -1.20194 -0.887346 0
M  V30 5566 H 525.636 -1.16395 -4.05006 0
M  V30 5567 H 524.311 -0.300121 -3.22306 0
M  V30 5568 H 523.218 -2.56325 -2.72485 0
M  V30 5569 H 524.551 -3.35808 -3.59852 0
M  V30 5570 N 526.204 0.969867 -1.24223 0
M  V30 5571 C 527.481 1.68774 -0.988664 0
M  V30 5572 C 527.861 2.05342 0.489673 0
M  V30 5573 O 527.209 1.75486 1.46345 0
M  V30 5574 C 527.419 2.92135 -1.90941 0
M  V30 5575 C 528.767 3.64422 -2.17903 0
M  V30 5576 O 529.791 3.02188 -1.88576 0
M  V30 5577 O 528.65 4.76446 -2.67697 0
M  V30 5578 H 525.744 0.737736 -0.37373 0
M  V30 5579 H 528.29 1.02415 -1.35312 0
M  V30 5580 H 527.062 2.61788 -2.90831 0
M  V30 5581 H 526.685 3.66228 -1.54798 0
M  V30 5582 N 527.682 1.05563 1.17022 0
M  V30 5583 C 528.93 0.76642 1.87004 0
M  V30 5584 C 529.251 -0.708854 1.8166 0
M  V30 5585 O 528.521 -1.51242 1.2451 0
M  V30 5586 H 527.101 0.280516 0.692329 0
M  V30 5587 H 529.763 1.33557 1.41945 0
M  V30 5588 H 528.859 1.08472 2.92644 0
M  V30 5589 N 529.16 -1.33526 0.837174 0
M  V30 5590 C 530.07 -2.33023 0.271568 0
M  V30 5591 C 531.086 -1.63272 -0.601514 0
M  V30 5592 O 532.262 -1.94939 -0.506038 0
M  V30 5593 C 529.327 -3.42382 -0.545448 0
M  V30 5594 C 528.388 -4.27857 0.351709 0
M  V30 5595 C 527.621 -5.31994 -0.426409 0
M  V30 5596 O 527.844 -5.45763 -1.65828 0
M  V30 5597 O 526.778 -6.01572 0.1987 0
M  V30 5598 H 530.604 -2.83256 1.09545 0
M  V30 5599 H 528.189 -1.36837 0.599655 0
M  V30 5600 H 530.071 -4.09122 -1.00979 0
M  V30 5601 H 528.746 -2.94369 -1.34641 0
M  V30 5602 H 527.653 -3.6399 0.863853 0
M  V30 5603 H 528.986 -4.79349 1.1174 0
M  V30 5604 N 530.638 -0.59345 -1.46 0
M  V30 5605 C 531.548 0.135817 -2.34207 0
M  V30 5606 C 532.564 0.875008 -1.50398 0
M  V30 5607 O 533.74 0.835778 -1.83239 0
M  V30 5608 C 530.805 1.12977 -3.27776 0
M  V30 5609 C 529.866 0.394081 -4.27487 0
M  V30 5610 C 529.099 1.34068 -5.16586 0
M  V30 5611 O 529.322 2.5778 -5.08828 0
M  V30 5612 O 528.256 0.845426 -5.95933 0
M  V30 5613 H 532.082 -0.588691 -2.9794 0
M  V30 5614 H 529.667 -0.353784 -1.45151 0
M  V30 5615 H 531.549 1.70261 -3.85473 0
M  V30 5616 H 530.224 1.83556 -2.66625 0
M  V30 5617 H 529.131 -0.220869 -3.73447 0
M  V30 5618 H 530.464 -0.270939 -4.91454 0
M  V30 5619 N 532.116 1.54067 -0.331816 0
M  V30 5620 C 533.341 2.05599 0.272705 0
M  V30 5621 C 533.766 1.2059 1.44359 0
M  V30 5622 O 533.124 0.216907 1.79998 0
M  V30 5623 C 533.172 3.54188 0.677021 0
M  V30 5624 O 532.276 3.72082 1.77844 0
M  V30 5625 H 531.617 0.662286 0.0476801 0
M  V30 5626 H 534.147 1.98826 -0.482624 0
M  V30 5627 H 534.157 3.96608 0.957415 0
M  V30 5628 H 532.832 4.15513 -0.179325 0
M  V30 5629 H 531.409 3.41566 1.49622 0
M  V30 5630 N 533.594 0.0601682 1.57485 0
M  V30 5631 C 535.01 -0.296422 1.56823 0
M  V30 5632 C 535.21 -1.70831 1.0686 0
M  V30 5633 O 534.266 -2.4174 0.729245 0
M  V30 5634 C 535.579 -0.116681 3.00474 0
M  V30 5635 C 537.127 -0.187103 3.1244 0
M  V30 5636 C 537.602 -0.035783 4.57986 0
M  V30 5637 N 539.093 -0.0917676 4.63109 0
M  V30 5638 C 539.828 0.00107251 5.734 0
M  V30 5639 N 539.324 0.146773 6.92645 0
M  V30 5640 N 541.117 -0.0551577 5.62073 0
M  V30 5641 H 533.268 0.983055 1.88281 0
M  V30 5642 H 535.531 0.382386 0.867459 0
M  V30 5643 H 535.237 0.85712 3.41096 0
M  V30 5644 H 535.111 -0.873929 3.66936 0
M  V30 5645 H 537.498 -1.15138 2.71712 0
M  V30 5646 H 537.579 0.601052 2.48638 0
M  V30 5647 H 537.223 0.925212 4.99402 0
M  V30 5648 H 537.153 -0.843196 5.19806 0
M  V30 5649 H 539.644 -0.203261 3.77353 0
M  V30 5650 H 539.957 0.210076 7.72514 0
M  V30 5651 H 538.302 0.181979 6.94762 0
M  V30 5652 H 541.493 -0.167605 4.678 0
M  V30 5653 H 541.666 0.020652 6.47997 0
M  V30 5654 N 535.072 -1.5615 -0.213296 0
M  V30 5655 C 535.982 -1.96265 -1.28519 0
M  V30 5656 C 536.998 -0.86765 -1.50824 0
M  V30 5657 O 538.174 -1.17191 -1.63793 0
M  V30 5658 C 535.239 -2.27836 -2.61327 0
M  V30 5659 C 534.3 -3.50949 -2.47252 0
M  V30 5660 C 533.533 -3.81004 -3.73727 0
M  V30 5661 O 533.756 -3.12612 -4.77106 0
M  V30 5662 O 532.69 -4.74477 -3.70344 0
M  V30 5663 H 536.516 -2.87631 -0.974795 0
M  V30 5664 H 534.101 -1.43467 -0.416832 0
M  V30 5665 H 535.983 -2.49299 -3.39747 0
M  V30 5666 H 534.658 -1.39643 -2.9203 0
M  V30 5667 H 533.565 -3.34754 -1.67004 0
M  V30 5668 H 534.898 -4.39551 -2.21486 0
M  V30 5669 N 536.55 0.480323 -1.50102 0
M  V30 5670 C 537.798 1.23063 -1.60312 0
M  V30 5671 C 538.119 1.92659 -0.301226 0
M  V30 5672 O 537.389 1.83691 0.680753 0
M  V30 5673 H 535.969 0.457231 -0.590719 0
M  V30 5674 H 538.631 0.554893 -1.86834 0
M  V30 5675 H 537.727 1.9835 -2.40964 0
M  V30 5676 N 538.028 1.39524 0.732853 0
M  V30 5677 C 539.276 1.36594 1.48951 0
M  V30 5678 C 539.597 -0.0367507 1.94965 0
M  V30 5679 O 538.867 -0.988391 1.69138 0
M  V30 5680 H 537.447 0.502673 0.552566 0
M  V30 5681 H 540.109 1.74411 0.869869 0
M  V30 5682 H 539.205 2.03 2.3706 0
M  V30 5683 N 539.506 -0.963266 1.24736 0
M  V30 5684 C 540.453 -2.05857 1.04363 0
M  V30 5685 C 541.423 -1.6604 -0.0444951 0
M  V30 5686 O 542.608 -1.90477 0.110999 0
M  V30 5687 C 539.748 -3.38745 0.659235 0
M  V30 5688 C 538.861 -3.9173 1.82131 0
M  V30 5689 C 537.996 -5.12906 1.38208 0
M  V30 5690 C 537.035 -5.58098 2.51382 0
M  V30 5691 N 536.172 -6.7049 2.08295 0
M  V30 5692 H 541.012 -2.22616 1.98107 0
M  V30 5693 H 538.549 -1.09103 0.986661 0
M  V30 5694 H 540.507 -4.15107 0.417371 0
M  V30 5695 H 539.137 -3.21898 -0.241201 0
M  V30 5696 H 538.189 -3.11966 2.17672 0
M  V30 5697 H 539.501 -4.21225 2.67153 0
M  V30 5698 H 538.655 -5.96657 1.09935 0
M  V30 5699 H 537.394 -4.85105 0.502456 0
M  V30 5700 H 536.399 -4.72917 2.80409 0
M  V30 5701 H 537.624 -5.87911 3.39909 0
M  V30 5702 H 535.57 -6.44416 1.22737 0
M  V30 5703 H 535.487 -6.99458 2.86869 0
M  V30 5704 H 536.755 -7.57672 1.83175 0
M  V30 5705 N 540.985 -1.06182 -1.16461 0
M  V30 5706 C 542.233 -0.776326 -1.86595 0
M  V30 5707 C 542.554 0.69921 -1.82033 0
M  V30 5708 O 541.824 1.50579 -1.2531 0
M  V30 5709 H 540.404 -0.284184 -0.690832 0
M  V30 5710 H 543.066 -1.34308 -1.41235 0
M  V30 5711 H 542.162 -1.10022 -2.92064 0
M  V30 5712 N 542.463 1.3308 -0.844243 0
M  V30 5713 C 543.41 2.29104 -0.279323 0
M  V30 5714 C 544.38 1.54577 0.607882 0
M  V30 5715 O 545.565 1.8285 0.545009 0
M  V30 5716 C 542.705 3.40927 0.53508 0
M  V30 5717 C 541.818 4.30354 -0.376749 0
M  V30 5718 C 540.953 5.29297 0.449276 0
M  V30 5719 C 539.992 6.10365 -0.460606 0
M  V30 5720 N 539.129 7.01335 0.327612 0
M  V30 5721 H 543.969 2.76817 -1.10346 0
M  V30 5722 H 541.506 1.36203 -0.555611 0
M  V30 5723 H 543.464 4.04469 1.02278 0
M  V30 5724 H 542.094 2.94391 1.32414 0
M  V30 5725 H 541.146 3.67485 -0.982791 0
M  V30 5726 H 542.458 4.87067 -1.07549 0
M  V30 5727 H 541.612 5.98392 1.00058 0
M  V30 5728 H 540.351 4.73174 1.18143 0
M  V30 5729 H 539.356 5.40182 -1.02388 0
M  V30 5730 H 540.581 6.68571 -1.1912 0
M  V30 5731 H 538.527 6.47655 1.04305 0
M  V30 5732 H 538.444 7.55355 -0.3123 0
M  V30 5733 H 539.712 7.74731 0.86098 0
M  V30 5734 N 543.941 0.601185 1.45683 0
M  V30 5735 C 544.851 -0.123395 2.34275 0
M  V30 5736 C 545.867 -0.86702 1.5086 0
M  V30 5737 O 547.043 -0.826049 1.8368 0
M  V30 5738 C 544.108 -1.11237 3.2837 0
M  V30 5739 C 543.169 -0.371405 4.2769 0
M  V30 5740 C 542.402 -1.31327 5.1729 0
M  V30 5741 O 542.625 -2.55078 5.10188 0
M  V30 5742 O 541.559 -0.813811 5.96373 0
M  V30 5743 H 545.385 0.604483 2.97623 0
M  V30 5744 H 542.97 0.361477 1.44961 0
M  V30 5745 H 544.852 -1.68214 3.8637 0
M  V30 5746 H 543.527 -1.82139 2.67595 0
M  V30 5747 H 542.434 0.24067 3.73325 0
M  V30 5748 H 543.767 0.296998 4.91303 0
M  V30 5749 N 545.419 -1.53889 0.339982 0
M  V30 5750 C 546.352 -2.21187 -0.561405 0
M  V30 5751 C 547.33 -1.19463 -1.10306 0
M  V30 5752 O 548.514 -1.48268 -1.164 0
M  V30 5753 C 545.641 -2.8865 -1.77198 0
M  V30 5754 C 544.687 -4.04232 -1.3601 0
M  V30 5755 S 545.52 -5.34129 -0.382909 0
M  V30 5756 C 546.676 -6.05094 -1.60039 0
M  V30 5757 H 546.909 -2.97298 0.0102092 0
M  V30 5758 H 544.442 -1.53901 0.124056 0
M  V30 5759 H 546.4 -3.28138 -2.4665 0
M  V30 5760 H 545.061 -2.12311 -2.3148 0
M  V30 5761 H 544.254 -4.50358 -2.2626 0
M  V30 5762 H 543.856 -3.66503 -0.745098 0
M  V30 5763 H 546.148 -6.2827 -2.53541 0
M  V30 5764 H 547.091 -6.98182 -1.18099 0
M  V30 5765 H 547.499 -5.35207 -1.79483 0
M  V30 5766 N 546.897 -0.0685191 -1.57451 0
M  V30 5767 C 547.845 0.917577 -2.13736 0
M  V30 5768 C 548.839 1.31049 -1.07344 0
M  V30 5769 O 550.045 1.28811 -1.25728 0
M  V30 5770 H 546.42 0.313835 -0.683382 0
M  V30 5771 H 548.391 0.417903 -2.95459 0
M  V30 5772 C 547.14 2.17686 -2.71123 0
M  V30 5773 H 546.463 1.88336 -3.52661 0
M  V30 5774 H 547.903 2.84803 -3.14107 0
M  V30 5775 C 546.362 2.9332 -1.65726 0
M  V30 5776 O 546.892 3.86901 -1.08031 0
M  V30 5777 N 545.098 2.56367 -1.36837 0
M  V30 5778 H 544.645 1.80341 -1.83943 0
M  V30 5779 H 544.603 3.07276 -0.665501 0
M  V30 5780 N 548.375 1.56261 0.205012 0
M  V30 5781 C 549.623 1.79684 0.925096 0
M  V30 5782 C 549.944 0.63989 1.84202 0
M  V30 5783 O 549.214 -0.342345 1.92885 0
M  V30 5784 H 547.794 0.662774 0.344587 0
M  V30 5785 H 550.456 1.93734 0.212899 0
M  V30 5786 H 549.552 2.72467 1.52211 0
M  V30 5787 N 549.853 -0.472356 1.50355 0
M  V30 5788 C 551.269 -0.806001 1.37753 0
M  V30 5789 C 551.469 -1.968 0.432649 0
M  V30 5790 O 550.525 -2.52189 -0.12519 0
M  V30 5791 C 551.838 -1.11926 2.79093 0
M  V30 5792 C 553.386 -1.22579 2.87999 0
M  V30 5793 C 553.861 -1.57218 4.3017 0
M  V30 5794 N 555.352 -1.64212 4.33115 0
M  V30 5795 C 556.087 -1.92517 5.40116 0
M  V30 5796 N 555.583 -2.1885 6.57325 0
M  V30 5797 N 557.376 -1.94008 5.27558 0
M  V30 5798 H 549.527 0.293451 2.10363 0
M  V30 5799 H 551.79 0.0687672 0.945503 0
M  V30 5800 H 551.496 -0.338504 3.50067 0
M  V30 5801 H 551.37 -2.05577 3.16256 0
M  V30 5802 H 553.757 -1.99722 2.17245 0
M  V30 5803 H 553.838 -0.269107 2.54381 0
M  V30 5804 H 553.482 -0.806154 5.01461 0
M  V30 5805 H 553.412 -2.54034 4.61275 0
M  V30 5806 H 555.903 -1.45906 3.48597 0
M  V30 5807 H 556.216 -2.39718 7.3468 0
M  V30 5808 H 554.561 -2.16245 6.60502 0
M  V30 5809 H 557.752 -1.72931 4.34986 0
M  V30 5810 H 557.925 -2.15731 6.11035 0
M  V30 5811 N 551.331 -1.39911 -0.725443 0
M  V30 5812 C 552.577 -1.37858 -1.48738 0
M  V30 5813 C 552.91 0.0224187 -1.94187 0
M  V30 5814 O 552.185 0.989204 -1.67466 0
M  V30 5815 C 552.468 -2.3594 -2.72038 0
M  V30 5816 C 552.321 -3.85023 -2.32546 0
M  V30 5817 C 553.64 -2.31704 -3.74167 0
M  V30 5818 H 550.759 -0.502074 -0.539528 0
M  V30 5819 H 553.401 -1.70974 -0.828728 0
M  V30 5820 H 551.551 -2.0783 -3.28236 0
M  V30 5821 H 553.223 -4.2392 -1.81905 0
M  V30 5822 H 551.466 -4.01334 -1.64661 0
M  V30 5823 H 552.137 -4.49152 -3.20884 0
M  V30 5824 H 554.613 -2.5658 -3.27576 0
M  V30 5825 H 553.489 -3.02395 -4.58092 0
M  V30 5826 H 553.75 -1.3253 -4.21768 0
M  V30 5827 N 552.809 0.956637 -1.25245 0
M  V30 5828 C 554.034 1.74104 -1.12706 0
M  V30 5829 C 554.459 1.85436 0.315429 0
M  V30 5830 O 553.817 1.33334 1.22848 0
M  V30 5831 C 553.865 3.1338 -1.78396 0
M  V30 5832 O 552.969 3.98485 -1.06224 0
M  V30 5833 H 552.31 0.53476 -0.393609 0
M  V30 5834 H 554.84 1.19924 -1.65769 0
M  V30 5835 H 554.85 3.6385 -1.846 0
M  V30 5836 H 553.525 3.04448 -2.83345 0
M  V30 5837 H 552.102 3.56952 -1.07886 0
M  V30 5838 N 554.287 1.06798 1.15896 0
M  V30 5839 C 555.219 0.641263 2.20046 0
M  V30 5840 C 556.232 -0.303355 1.59949 0
M  V30 5841 O 557.421 -0.0935478 1.78255 0
M  V30 5842 C 554.521 -0.0794029 3.38807 0
M  V30 5843 C 553.694 0.879986 4.28457 0
M  V30 5844 C 552.753 0.197638 5.25829 0
M  V30 5845 O 551.779 0.836913 5.63014 0
M  V30 5846 N 552.981 -1.05886 5.70761 0
M  V30 5847 H 555.746 1.53718 2.57276 0
M  V30 5848 H 553.307 0.951951 1.30956 0
M  V30 5849 H 555.299 -0.546418 4.00994 0
M  V30 5850 H 553.869 -0.877193 3.0004 0
M  V30 5851 H 553.089 1.52625 3.63454 0
M  V30 5852 H 554.377 1.53065 4.8523 0
M  V30 5853 H 553.775 -1.59828 5.42652 0
M  V30 5854 H 552.332 -1.46965 6.35015 0
M  V30 5855 N 555.766 -1.3263 0.851289 0
M  V30 5856 C 557.015 -1.96633 0.449267 0
M  V30 5857 C 557.328 -1.68131 -0.999562 0
M  V30 5858 O 558.534 -2.25845 -1.50685 0
M  V30 5859 C 556.99 -3.51946 0.752446 0
M  V30 5860 C 556.598 -3.89311 2.21678 0
M  V30 5861 C 558.342 -4.22437 0.417983 0
M  V30 5862 C 556.249 -5.37655 2.46336 0
M  V30 5863 H 555.179 -0.735888 0.164269 0
M  V30 5864 H 557.83 -1.51073 1.0416 0
M  V30 5865 H 556.212 -3.95899 0.0895858 0
M  V30 5866 H 557.386 -3.56378 2.92115 0
M  V30 5867 H 555.701 -3.31836 2.51543 0
M  V30 5868 H 558.298 -5.31549 0.579674 0
M  V30 5869 H 558.641 -4.11349 -0.640115 0
M  V30 5870 H 559.174 -3.84057 1.03659 0
M  V30 5871 H 555.913 -5.5376 3.50757 0
M  V30 5872 H 555.433 -5.72005 1.80473 0
M  V30 5873 H 557.112 -6.04695 2.30115 0
M  V30 5874 N 557.244 -0.608902 -1.45362 0
M  V30 5875 C 558.472 -0.111013 -2.06602 0
M  V30 5876 C 558.887 1.20516 -1.45332 0
M  V30 5877 O 558.244 1.73437 -0.567978 0
M  V30 5878 C 558.295 0.033688 -3.61484 0
M  V30 5879 O 558.016 -1.23041 -4.20467 0
M  V30 5880 C 559.517 0.562882 -4.39712 0
M  V30 5881 H 556.737 -0.0694453 -0.667397 0
M  V30 5882 H 559.281 -0.837008 -1.86586 0
M  V30 5883 H 557.436 0.710016 -3.80838 0
M  V30 5884 H 557.85 -1.06094 -5.13658 0
M  V30 5885 H 559.324 0.613213 -5.48583 0
M  V30 5886 H 559.801 1.58543 -4.09586 0
M  V30 5887 H 560.407 -0.0794454 -4.25226 0
M  V30 5888 N 558.722 1.53707 -0.348139 0
M  V30 5889 C 559.654 2.22725 0.540946 0
M  V30 5890 C 560.667 1.2354 1.06027 0
M  V30 5891 O 561.856 1.49867 0.96964 0
M  V30 5892 C 558.956 2.89756 1.75768 0
M  V30 5893 C 558.129 4.15297 1.37285 0
M  V30 5894 C 557.188 4.65697 2.44976 0
M  V30 5895 O 556.214 5.29798 2.08092 0
M  V30 5896 N 557.416 4.42017 3.763 0
M  V30 5897 H 560.181 2.99658 -0.0501592 0
M  V30 5898 H 557.742 1.60979 -0.17248 0
M  V30 5899 H 559.734 3.20388 2.47252 0
M  V30 5900 H 558.304 2.16382 2.25605 0
M  V30 5901 H 557.524 3.9116 0.488584 0
M  V30 5902 H 558.812 4.96948 1.09179 0
M  V30 5903 H 558.21 3.9076 4.09051 0
M  V30 5904 H 556.767 4.77242 4.4394 0
M  V30 5905 N 560.2 0.0768682 1.57412 0
M  V30 5906 C 561.611 -0.455037 1.8107 0
M  V30 5907 C 561.962 -1.69323 0.991162 0
M  V30 5908 O 561.087 -2.15328 0.215156 0
M  V30 5909 C 561.682 -0.832316 3.28417 0
M  V30 5910 C 560.241 -1.30906 3.52903 0
M  V30 5911 C 559.388 -0.296714 2.75708 0
M  V30 5912 H 562.339 0.302514 1.5579 0
M  V30 5913 H 562.36 -1.69333 3.40744 0
M  V30 5914 H 561.872 0.0690532 3.88039 0
M  V30 5915 H 559.973 -2.22875 2.98592 0
M  V30 5916 H 560.086 -1.28348 4.61588 0
M  V30 5917 H 558.45 -0.775059 2.42621 0
M  V30 5918 H 559.233 0.597015 3.38069 0
M  V30 5919 N 561.678 -1.56367 -0.196722 0
M  V30 5920 C 562.926 -1.80172 -0.915554 0
M  V30 5921 C 563.247 -0.649649 -1.8386 0
M  V30 5922 O 562.517 0.332111 -1.93064 0
M  V30 5923 H 561.097 -0.664592 -0.341067 0
M  V30 5924 H 563.759 -1.93844 -0.202622 0
M  V30 5925 H 562.855 -2.7327 -1.50764 0
M  V30 5926 N 563.156 0.464375 -1.50603 0
M  V30 5927 C 564.384 1.23907 -1.65695 0
M  V30 5928 C 564.799 1.85658 -0.343027 0
M  V30 5929 O 564.156 1.69529 0.675739 0
M  V30 5930 C 564.207 2.3429 -2.75301 0
M  V30 5931 O 563.928 1.7507 -4.01599 0
M  V30 5932 C 565.429 3.25051 -3.01424 0
M  V30 5933 H 562.649 0.374485 -0.556778 0
M  V30 5934 H 565.193 0.55353 -1.96866 0
M  V30 5935 H 563.348 2.98607 -2.46804 0
M  V30 5936 H 563.762 2.47812 -4.62266 0
M  V30 5937 H 565.236 3.98699 -3.81763 0
M  V30 5938 H 565.713 3.84227 -2.12758 0
M  V30 5939 H 566.319 2.66463 -3.31477 0
M  V30 5940 N 564.634 1.40294 0.718013 0
M  V30 5941 C 565.859 1.41941 1.5122 0
M  V30 5942 C 566.284 0.0202371 1.88089 0
M  V30 5943 O 565.642 -0.971078 1.53101 0
M  V30 5944 C 565.69 2.3141 2.76554 0
M  V30 5945 O 564.794 1.75567 3.73162 0
M  V30 5946 H 564.135 0.482644 0.456016 0
M  V30 5947 H 566.665 1.84494 0.884478 0
M  V30 5948 H 566.675 2.46513 3.25108 0
M  V30 5949 H 565.35 3.33085 2.49053 0
M  V30 5950 H 563.927 1.69798 3.31999 0
M  V30 5951 N 566.112 -0.949982 1.2575 0
M  V30 5952 C 567.36 -1.6918 1.10555 0
M  V30 5953 C 567.681 -1.91773 -0.353298 0
M  V30 5954 O 566.951 -1.50814 -1.25027 0
M  V30 5955 H 565.531 -0.626952 0.406129 0
M  V30 5956 H 568.193 -1.1419 1.57945 0
M  V30 5957 H 567.289 -2.66915 1.61749 0
M  V30 5958 N 567.59 -1.07411 -1.15328 0
M  V30 5959 C 568.522 -0.652924 -2.19703 0
M  V30 5960 C 569.535 0.294869 -1.60107 0
M  V30 5961 O 570.724 0.0840932 -1.78302 0
M  V30 5962 C 567.824 0.061434 -3.38844 0
M  V30 5963 C 566.997 -0.902696 -4.27984 0
M  V30 5964 C 566.056 -0.225521 -5.25717 0
M  V30 5965 O 565.082 -0.86676 -5.62562 0
M  V30 5966 N 566.284 1.02858 -5.71315 0
M  V30 5967 H 569.049 -1.55081 -2.56457 0
M  V30 5968 H 566.61 -0.958883 -1.30449 0
M  V30 5969 H 568.602 0.525145 -4.01278 0
M  V30 5970 H 567.172 0.861269 -3.00501 0
M  V30 5971 H 566.392 -1.54551 -3.6264 0
M  V30 5972 H 567.68 -1.55636 -4.84412 0
M  V30 5973 H 567.078 1.56948 -5.43492 0
M  V30 5974 H 565.635 1.43596 -6.35786 0
M  V30 5975 N 569.068 1.32177 -0.85831 0
M  V30 5976 C 569.978 2.32561 -0.308606 0
M  V30 5977 C 570.994 1.64209 0.575462 0
M  V30 5978 O 572.17 1.95719 0.474961 0
M  V30 5979 C 569.235 3.43207 0.490909 0
M  V30 5980 C 568.296 4.27243 -0.419733 0
M  V30 5981 C 567.529 5.32605 0.341719 0
M  V30 5982 O 567.752 5.48332 1.57125 0
M  V30 5983 O 566.686 6.0118 -0.294379 0
M  V30 5984 H 570.512 2.81477 -1.14037 0
M  V30 5985 H 568.097 1.35866 -0.621349 0
M  V30 5986 H 569.979 4.10677 0.944574 0
M  V30 5987 H 568.654 2.96474 1.29941 0
M  V30 5988 H 567.561 3.62569 -0.921652 0
M  V30 5989 H 568.894 4.7751 -1.19352 0
M  V30 5990 N 570.547 0.616602 1.45037 0
M  V30 5991 C 571.963 0.280994 1.57107 0
M  V30 5992 C 572.163 -1.21627 1.60653 0
M  V30 5993 O 571.219 -1.9997 1.54169 0
M  V30 5994 C 572.532 0.960116 2.8496 0
M  V30 5995 C 574.08 0.936884 2.98649 0
M  V30 5996 C 574.555 1.59619 4.29285 0
M  V30 5997 N 576.046 1.5621 4.36065 0
M  V30 5998 C 576.781 2.04131 5.35834 0
M  V30 5999 N 576.277 2.60177 6.4209 0
M  V30 6000 N 578.07 1.94845 5.27249 0
M  V30 6001 H 570.221 1.58867 1.40979 0
M  V30 6002 H 572.484 0.666024 0.674623 0
M  V30 6003 H 572.19 2.01473 2.88273 0
M  V30 6004 H 572.064 0.488921 3.74018 0
M  V30 6005 H 574.451 -0.109209 2.94898 0
M  V30 6006 H 574.532 1.44643 2.10979 0
M  V30 6007 H 574.176 2.64166 4.33796 0
M  V30 6008 H 574.106 1.06159 5.15789 0
M  V30 6009 H 576.597 1.15276 3.59889 0
M  V30 6010 H 576.91 2.94513 7.1448 0
M  V30 6011 H 575.255 2.64221 6.42816 0
M  V30 6012 H 578.446 1.50792 4.43147 0
M  V30 6013 H 578.619 2.32504 6.04852 0
M  V30 6014 N 572.025 -1.5352 0.356285 0
M  V30 6015 C 573.436 -1.86282 -0.12492 0
M  V30 6016 C 573.787 -1.27717 -1.48939 0
M  V30 6017 O 572.912 -0.595614 -2.08042 0
M  V30 6018 C 573.507 -3.37995 -0.23345 0
M  V30 6019 C 572.066 -3.70588 -0.658899 0
M  V30 6020 C 571.213 -2.76581 0.199596 0
M  V30 6021 H 574.164 -1.47901 0.575423 0
M  V30 6022 H 574.185 -3.65475 -1.0587 0
M  V30 6023 H 573.697 -3.8059 0.759776 0
M  V30 6024 H 571.798 -3.33544 -1.66069 0
M  V30 6025 H 571.911 -4.77076 -0.439957 0
M  V30 6026 H 570.275 -2.52552 -0.330076 0
M  V30 6027 H 571.058 -3.22008 1.19019 0
M  V30 6028 N 573.503 -0.0852151 -1.57369 0
M  V30 6029 C 574.914 0.445428 -1.81309 0
M  V30 6030 C 575.265 1.68795 -1.00013 0
M  V30 6031 O 574.39 2.15211 -0.226573 0
M  V30 6032 C 574.985 0.814887 -3.28854 0
M  V30 6033 C 573.544 1.29032 -3.53592 0
M  V30 6034 C 572.691 0.282089 -2.75861 0
M  V30 6035 H 575.642 -0.310771 -1.55627 0
M  V30 6036 H 575.663 1.67524 -3.41637 0
M  V30 6037 H 575.175 -0.0896309 -3.87996 0
M  V30 6038 H 573.276 2.21289 -2.9977 0
M  V30 6039 H 573.389 1.25898 -4.62262 0
M  V30 6040 H 571.753 0.762182 -2.43029 0
M  V30 6041 H 572.536 -0.614936 -3.37748 0
M  V30 6042 N 574.981 1.5647 0.188427 0
M  V30 6043 C 576.206 1.85486 0.927891 0
M  V30 6044 C 576.631 0.669575 1.75779 0
M  V30 6045 O 575.989 -0.381573 1.77239 0
M  V30 6046 C 576.037 3.12784 1.7944 0
M  V30 6047 O 575.141 2.93805 2.894 0
M  V30 6048 H 574.482 0.610585 0.260925 0
M  V30 6049 H 577.012 2.037 0.191729 0
M  V30 6050 H 577.022 3.43749 2.19774 0
M  V30 6051 H 575.697 3.98671 1.18468 0
M  V30 6052 H 574.274 2.74153 2.52774 0
M  V30 6053 N 576.459 -0.456382 1.50847 0
M  V30 6054 C 577.875 -0.791345 1.386 0
M  V30 6055 C 578.075 -1.9633 0.453498 0
M  V30 6056 O 577.131 -2.52308 -0.0984353 0
M  V30 6057 C 578.444 -1.08959 2.80265 0
M  V30 6058 C 579.992 -1.19517 2.89283 0
M  V30 6059 C 580.467 -1.52647 4.31814 0
M  V30 6060 N 581.958 -1.59609 4.34832 0
M  V30 6061 C 582.693 -1.86777 5.42127 0
M  V30 6062 N 582.189 -2.11866 6.59609 0
M  V30 6063 N 583.982 -1.88402 5.29586 0
M  V30 6064 H 576.133 0.315746 2.1004 0
M  V30 6065 H 578.396 0.0787916 0.94472 0
M  V30 6066 H 578.102 -0.301355 3.50407 0
M  V30 6067 H 577.976 -2.02211 3.18419 0
M  V30 6068 H 580.363 -1.97406 2.19351 0
M  V30 6069 H 580.444 -0.242111 2.54652 0
M  V30 6070 H 580.088 -0.752922 5.02288 0
M  V30 6071 H 580.018 -2.49127 4.63943 0
M  V30 6072 H 582.509 -1.42201 3.50125 0
M  V30 6073 H 582.822 -2.31912 7.37182 0
M  V30 6074 H 581.167 -2.09228 6.62758 0
M  V30 6075 H 584.358 -1.68307 4.36795 0
M  V30 6076 H 584.531 -2.09238 6.13289 0
M  V30 6077 N 577.937 -1.40673 -0.710563 0
M  V30 6078 C 579.183 -1.39428 -1.47267 0
M  V30 6079 C 579.516 0.00182129 -1.942 0
M  V30 6080 O 578.791 0.971387 -1.68506 0
M  V30 6081 C 579.074 -2.38812 -2.6952 0
M  V30 6082 C 578.927 -3.87467 -2.28449 0
M  V30 6083 C 580.246 -2.3566 -3.71689 0
M  V30 6084 H 577.365 -0.507768 -0.534173 0
M  V30 6085 H 580.007 -1.71843 -0.810547 0
M  V30 6086 H 578.157 -2.113 -3.26013 0
M  V30 6087 H 579.829 -4.25825 -1.77399 0
M  V30 6088 H 578.072 -4.03058 -1.60395 0
M  V30 6089 H 578.743 -4.5253 -3.16103 0
M  V30 6090 H 581.219 -2.6004 -3.24836 0
M  V30 6091 H 580.095 -3.07237 -4.54859 0
M  V30 6092 H 580.356 -1.36996 -4.20339 0
M  V30 6093 N 579.415 0.9433 -1.26252 0
M  V30 6094 C 580.378 2.02326 -1.07689 0
M  V30 6095 C 581.378 1.60779 -0.0259174 0
M  V30 6096 O 582.568 1.72108 -0.269134 0
M  V30 6097 C 579.7 3.34886 -0.63752 0
M  V30 6098 H 580.893 2.20225 -2.0357 0
M  V30 6099 H 578.446 1.12197 -1.08819 0
M  V30 6100 H 579.181 3.22684 0.323377 0
M  V30 6101 H 578.966 3.66393 -1.39637 0
M  V30 6102 H 580.456 4.14231 -0.529418 0
M  V30 6103 N 580.893 1.08022 1.14757 0
M  V30 6104 C 582.118 0.82895 1.90114 0
M  V30 6105 C 582.543 -0.612772 1.77839 0
M  V30 6106 O 581.901 -1.42895 1.11583 0
M  V30 6107 C 581.949 1.25062 3.38219 0
M  V30 6108 O 581.053 0.400119 4.10454 0
M  V30 6109 H 580.394 0.301412 0.591648 0
M  V30 6110 H 582.924 1.44062 1.45284 0
M  V30 6111 H 582.934 1.22977 3.89025 0
M  V30 6112 H 581.609 2.30067 3.46471 0
M  V30 6113 H 580.186 0.484052 3.69745 0
M  V30 6114 N 582.371 -1.3172 0.865308 0
M  V30 6115 C 583.318 -2.2863 0.315736 0
M  V30 6116 C 584.288 -1.55524 -0.583213 0
M  V30 6117 O 585.473 -1.83694 -0.51585 0
M  V30 6118 C 582.613 -3.41735 -0.480773 0
M  V30 6119 C 581.726 -4.297 0.445167 0
M  V30 6120 C 580.861 -5.29944 -0.365012 0
M  V30 6121 C 579.9 -6.09554 0.557651 0
M  V30 6122 N 579.037 -7.01768 -0.215994 0
M  V30 6123 H 583.877 -2.75026 1.14736 0
M  V30 6124 H 581.414 -1.35302 0.577209 0
M  V30 6125 H 583.372 -4.06045 -0.958306 0
M  V30 6126 H 582.002 -2.96461 -1.27714 0
M  V30 6127 H 581.054 -3.65875 1.04113 0
M  V30 6128 H 582.366 -4.85295 1.15284 0
M  V30 6129 H 581.52 -5.99908 -0.905255 0
M  V30 6130 H 580.259 -4.74994 -1.106 0
M  V30 6131 H 579.264 -5.38485 1.10969 0
M  V30 6132 H 580.489 -6.66591 1.29742 0
M  V30 6133 H 578.435 -6.49232 -0.939878 0
M  V30 6134 H 578.352 -7.54762 0.432431 0
M  V30 6135 H 579.62 -7.76002 -0.737618 0
M  V30 6136 N 583.85 -0.624285 -1.44708 0
M  V30 6137 C 584.76 0.0861083 -2.34442 0
M  V30 6138 C 585.776 0.84291 -1.5222 0
M  V30 6139 O 586.952 0.796723 -1.84971 0
M  V30 6140 C 584.017 1.05999 -3.30099 0
M  V30 6141 C 583.077 0.303316 -4.28227 0
M  V30 6142 C 582.311 1.23081 -5.19314 0
M  V30 6143 O 582.534 2.46929 -5.14181 0
M  V30 6144 O 581.468 0.71883 -5.97592 0
M  V30 6145 H 585.293 -0.651756 -2.96624 0
M  V30 6146 H 582.879 -0.384493 -1.44368 0
M  V30 6147 H 584.76 1.62046 -3.88997 0
M  V30 6148 H 583.436 1.77859 -2.70459 0
M  V30 6149 H 582.343 -0.300033 -3.72895 0
M  V30 6150 H 583.676 -0.375123 -4.90768 0
M  V30 6151 N 585.328 1.53329 -0.364422 0
M  V30 6152 C 586.26 2.23286 0.517293 0
M  V30 6153 C 587.273 1.24657 1.04711 0
M  V30 6154 O 588.462 1.50887 0.95369 0
M  V30 6155 C 585.562 2.91604 1.72685 0
M  V30 6156 C 584.735 4.1673 1.32873 0
M  V30 6157 C 583.794 4.68269 2.40022 0
M  V30 6158 O 582.82 5.31976 2.02461 0
M  V30 6159 N 584.022 4.45983 3.7159 0
M  V30 6160 H 586.787 2.99588 -0.0819391 0
M  V30 6161 H 584.348 1.60787 -0.189544 0
M  V30 6162 H 586.34 3.22992 2.4384 0
M  V30 6163 H 584.91 2.18763 2.23297 0
M  V30 6164 H 584.13 3.91657 0.447069 0
M  V30 6165 H 585.418 4.98078 1.03902 0
M  V30 6166 H 584.816 3.95077 4.04883 0
M  V30 6167 H 583.373 4.81924 4.38854 0
M  V30 6168 N 586.806 0.0935595 1.57322 0
M  V30 6169 C 587.738 -0.895923 2.10964 0
M  V30 6170 C 588.751 -1.24705 1.04654 0
M  V30 6171 O 589.94 -1.20044 1.32105 0
M  V30 6172 C 587.04 -2.20546 2.57318 0
M  V30 6173 C 586.213 -2.0299 3.87445 0
M  V30 6174 C 585.272 -3.17443 4.19662 0
M  V30 6175 O 584.298 -2.91474 4.88909 0
M  V30 6176 N 585.5 -4.43168 3.74943 0
M  V30 6177 H 588.265 -0.437788 2.96485 0
M  V30 6178 H 585.826 -0.0915863 1.61641 0
M  V30 6179 H 587.818 -2.9606 2.75917 0
M  V30 6180 H 586.388 -2.57789 1.76816 0
M  V30 6181 H 585.608 -1.11815 3.78009 0
M  V30 6182 H 586.896 -1.88535 4.7258 0
M  V30 6183 H 586.294 -4.67149 3.19043 0
M  V30 6184 H 584.851 -5.15637 3.987 0
M  V30 6185 N 588.284 -1.56567 -0.180126 0
M  V30 6186 C 589.214 -1.98753 -1.22553 0
M  V30 6187 C 590.195 -0.86175 -1.46656 0
M  V30 6188 O 591.38 -1.12719 -1.58139 0
M  V30 6189 C 588.51 -2.33988 -2.56645 0
M  V30 6190 C 587.464 -3.49445 -2.47128 0
M  V30 6191 C 586.79 -3.70397 -3.8563 0
M  V30 6192 C 588.09 -4.83171 -1.98352 0
M  V30 6193 H 589.784 -2.86332 -0.874896 0
M  V30 6194 H 587.33 -1.37757 -0.419414 0
M  V30 6195 H 589.283 -2.62097 -3.29974 0
M  V30 6196 H 588.007 -1.43309 -2.93479 0
M  V30 6197 H 586.666 -3.2145 -1.76254 0
M  V30 6198 H 586.314 -2.77023 -4.19842 0
M  V30 6199 H 586.014 -4.48077 -3.80132 0
M  V30 6200 H 587.538 -4.00897 -4.60558 0
M  V30 6201 H 588.952 -5.10213 -2.61449 0
M  V30 6202 H 587.349 -5.64425 -2.03823 0
M  V30 6203 H 588.419 -4.75753 -0.937402 0
M  V30 6204 N 589.762 0.448376 -1.51087 0
M  V30 6205 C 590.692 1.55102 -1.74544 0
M  V30 6206 C 591.673 1.59357 -0.594932 0
M  V30 6207 O 592.858 1.75261 -0.836491 0
M  V30 6208 C 589.988 2.93268 -1.86041 0
M  V30 6209 C 588.942 3.03877 -3.01402 0
M  V30 6210 C 588.268 4.43914 -2.98068 0
M  V30 6211 C 589.568 2.7898 -4.41551 0
M  V30 6212 H 591.262 1.35724 -2.66869 0
M  V30 6213 H 588.808 0.651498 -1.28419 0
M  V30 6214 H 590.761 3.70356 -2.01034 0
M  V30 6215 H 589.485 3.13853 -0.903548 0
M  V30 6216 H 588.144 2.29227 -2.86096 0
M  V30 6217 H 587.792 4.6145 -2.00182 0
M  V30 6218 H 587.492 4.51944 -3.75527 0
M  V30 6219 H 589.016 5.22991 -3.1514 0
M  V30 6220 H 590.43 3.45805 -4.57265 0
M  V30 6221 H 588.827 2.98431 -5.20633 0
M  V30 6222 H 589.897 1.74663 -4.5235 0
M  V30 6223 N 591.24 1.41047 0.703093 0
M  V30 6224 C 592.651 1.35657 1.28274 0
M  V30 6225 C 593.002 0.0360309 1.96167 0
M  V30 6226 O 592.127 -0.865833 1.98324 0
M  V30 6227 C 592.722 2.45707 2.33267 0
M  V30 6228 C 591.281 2.43738 2.86825 0
M  V30 6229 C 590.428 2.25941 1.60767 0
M  V30 6230 H 593.379 1.50672 0.49836 0
M  V30 6231 H 593.4 2.14333 3.14391 0
M  V30 6232 H 592.912 3.41805 1.83824 0
M  V30 6233 H 591.013 1.51375 3.40465 0
M  V30 6234 H 591.126 3.39779 3.37768 0
M  V30 6235 H 589.49 1.73681 1.86298 0
M  V30 6236 H 590.273 3.24054 1.1333 0
M  V30 6237 N 592.718 -0.936591 1.26751 0
M  V30 6238 C 593.65 -2.03991 1.045 0
M  V30 6239 C 594.663 -1.628 0.00394261 0
M  V30 6240 O 595.852 -1.76817 0.244526 0
M  V30 6241 C 592.952 -3.34218 0.561403 0
M  V30 6242 C 592.125 -4.04151 1.67274 0
M  V30 6243 C 591.184 -5.12651 1.1864 0
M  V30 6244 O 590.21 -5.37104 1.88437 0
M  V30 6245 N 591.412 -5.80488 0.037278 0
M  V30 6246 H 594.177 -2.23644 1.99508 0
M  V30 6247 H 591.738 -1.10638 1.18198 0
M  V30 6248 H 593.73 -4.04101 0.220136 0
M  V30 6249 H 592.3 -3.11203 -0.295211 0
M  V30 6250 H 591.52 -3.28121 2.18472 0
M  V30 6251 H 592.808 -4.47626 2.41885 0
M  V30 6252 H 592.206 -5.63064 -0.545494 0
M  V30 6253 H 590.763 -6.5134 -0.244877 0
M  V30 6254 N 594.196 -1.08629 -1.14182 0
M  V30 6255 C 595.106 -0.730126 -2.22949 0
M  V30 6256 C 596.122 0.26436 -1.7198 0
M  V30 6257 O 597.298 0.107742 -2.01112 0
M  V30 6258 C 594.363 -0.147227 -3.46387 0
M  V30 6259 C 593.424 -1.19662 -4.12286 0
M  V30 6260 C 592.657 -0.641437 -5.29831 0
M  V30 6261 O 592.88 0.538351 -5.67854 0
M  V30 6262 O 591.814 -1.39257 -5.85569 0
M  V30 6263 H 595.64 -1.63753 -2.55771 0
M  V30 6264 H 593.225 -0.860118 -1.22157 0
M  V30 6265 H 595.107 0.174923 -4.21037 0
M  V30 6266 H 593.782 0.733304 -3.15285 0
M  V30 6267 H 592.689 -1.57133 -3.395 0
M  V30 6268 H 594.022 -2.0495 -4.475 0
M  V30 6269 N 595.674 1.31259 -0.872281 0
M  V30 6270 C 596.637 2.26744 -0.334656 0
M  V30 6271 C 597.637 1.52307 0.515681 0
M  V30 6272 O 598.827 1.71148 0.324656 0
M  V30 6273 C 595.959 3.36841 0.524482 0
M  V30 6274 H 597.152 2.75812 -1.17762 0
M  V30 6275 H 594.705 1.42232 -0.648064 0
M  V30 6276 H 595.44 2.93069 1.38855 0
M  V30 6277 H 595.225 3.92009 -0.0844299 0
M  V30 6278 H 596.715 4.07944 0.892838 0
M  V30 6279 N 597.152 0.631951 1.44375 0
M  V30 6280 C 598.377 0.142146 2.06912 0
M  V30 6281 C 598.802 -1.17456 1.4692 0
M  V30 6282 O 598.16 -1.72074 0.570975 0
M  V30 6283 C 598.208 0.0417952 3.60576 0
M  V30 6284 O 597.312 -1.00194 4.00044 0
M  V30 6285 H 596.653 0.0851491 0.658518 0
M  V30 6286 H 599.183 0.868863 1.85235 0
M  V30 6287 H 599.193 -0.148517 4.0773 0
M  V30 6288 H 597.868 1.0031 4.03622 0
M  V30 6289 H 596.445 -0.786131 3.64519 0
M  V30 6290 N 598.631 -1.53133 0.372548 0
M  V30 6291 C 599.859 -2.05774 -0.215515 0
M  V30 6292 C 600.274 -1.24555 -1.41886 0
M  V30 6293 O 599.631 -0.287951 -1.80214 0
M  V30 6294 C 599.682 -3.5645 -0.602161 0
M  V30 6295 O 599.403 -4.34591 0.553359 0
M  V30 6296 C 600.904 -4.25374 -1.24787 0
M  V30 6297 H 598.124 -0.670009 -0.0364529 0
M  V30 6298 H 600.668 -1.97434 0.532934 0
M  V30 6299 H 598.823 -3.64918 -1.30052 0
M  V30 6300 H 599.237 -5.23954 0.239336 0
M  V30 6301 H 600.711 -5.32097 -1.46891 0
M  V30 6302 H 601.188 -3.79531 -2.21026 0
M  V30 6303 H 601.794 -4.21177 -0.590752 0
M  V30 6304 N 600.109 -0.101901 -1.5727 0
M  V30 6305 C 601.357 0.559091 -1.94213 0
M  V30 6306 C 601.678 1.68297 -0.984948 0
M  V30 6307 O 600.948 1.95863 -0.0381975 0
M  V30 6308 H 599.528 0.20952 -0.717015 0
M  V30 6309 H 602.19 -0.166831 -1.94185 0
M  V30 6310 H 601.286 0.96485 -2.96811 0
M  V30 6311 N 601.587 1.56661 0.17182 0
M  V30 6312 C 602.497 1.99604 1.2327 0
M  V30 6313 C 603.513 0.907333 1.4847 0
M  V30 6314 O 604.689 1.21492 1.60629 0
M  V30 6315 C 601.754 2.34685 2.55194 0
M  V30 6316 C 600.815 3.57381 2.3786 0
M  V30 6317 C 600.048 3.90779 3.63494 0
M  V30 6318 O 600.271 3.25152 4.6865 0
M  V30 6319 O 599.205 4.84129 3.57634 0
M  V30 6320 H 603.031 2.90114 0.898192 0
M  V30 6321 H 600.616 1.44522 0.378647 0
M  V30 6322 H 602.498 2.5822 3.33017 0
M  V30 6323 H 601.173 1.47336 2.88225 0
M  V30 6324 H 600.08 3.39064 1.5807 0
M  V30 6325 H 601.413 4.45268 2.09754 0
M  V30 6326 N 603.065 -0.440357 1.51323 0
M  V30 6327 C 604.012 -1.53429 1.72419 0
M  V30 6328 C 604.982 -1.56165 0.565826 0
M  V30 6329 O 606.167 -1.73222 0.799917 0
M  V30 6330 C 603.307 -2.91169 1.85242 0
M  V30 6331 C 602.42 -2.97985 3.12777 0
M  V30 6332 C 601.555 -4.26829 3.16212 0
M  V30 6333 C 600.594 -4.27501 4.38074 0
M  V30 6334 N 599.731 -5.47866 4.39076 0
M  V30 6335 H 604.571 -1.34743 2.65797 0
M  V30 6336 H 602.108 -0.654608 1.31732 0
M  V30 6337 H 604.066 -3.71087 1.90658 0
M  V30 6338 H 602.696 -3.0842 0.952744 0
M  V30 6339 H 601.748 -2.10749 3.16685 0
M  V30 6340 H 603.06 -2.94342 4.02696 0
M  V30 6341 H 602.214 -5.15118 3.20527 0
M  V30 6342 H 600.953 -4.33124 2.24176 0
M  V30 6343 H 599.958 -3.37606 4.33938 0
M  V30 6344 H 601.183 -4.22873 5.31371 0
M  V30 6345 H 599.129 -5.54887 3.49909 0
M  V30 6346 H 599.046 -5.46091 5.22801 0
M  V30 6347 H 600.314 -6.38195 4.4758 0
M  V30 6348 N 604.543 -1.41418 -0.695603 0
M  V30 6349 C 605.768 -1.44329 -1.48942 0
M  V30 6350 C 606.193 -0.0501579 -1.88033 0
M  V30 6351 O 605.551 0.946598 -1.54626 0
M  V30 6352 C 605.599 -2.3578 -2.72837 0
M  V30 6353 O 604.703 -1.81482 -3.70322 0
M  V30 6354 H 604.044 -0.489838 -0.44828 0
M  V30 6355 H 606.574 -1.85878 -0.855014 0
M  V30 6356 H 606.584 -2.51654 -3.21145 0
M  V30 6357 H 605.259 -3.37005 -2.43722 0
M  V30 6358 H 603.836 -1.75058 -3.29255 0
M  V30 6359 N 606.021 0.929856 -1.27246 0
M  V30 6360 C 607.246 1.71674 -1.16374 0
M  V30 6361 C 607.671 1.86064 0.276024 0
M  V30 6362 O 607.029 1.3591 1.19992 0
M  V30 6363 C 607.077 3.09526 -1.85003 0
M  V30 6364 O 606.181 3.96142 -1.14653 0
M  V30 6365 H 605.522 0.52629 -0.404863 0
M  V30 6366 H 608.052 1.16381 -1.68276 0
M  V30 6367 H 608.062 3.59852 -1.92276 0
M  V30 6368 H 606.737 2.98369 -2.89739 0
M  V30 6369 H 605.314 3.54584 -1.15433 0
M  V30 6370 N 607.499 1.09233 1.13605 0
M  V30 6371 C 608.727 0.848908 1.88683 0
M  V30 6372 C 609.142 -0.599667 1.79024 0
M  V30 6373 O 608.499 -1.41265 1.15544 0
M  V30 6374 C 608.55 1.27273 3.38355 0
M  V30 6375 O 608.271 2.66449 3.47759 0
M  V30 6376 C 609.772 1.0614 4.30406 0
M  V30 6377 H 606.992 0.305549 0.597395 0
M  V30 6378 H 609.536 1.4538 1.43823 0
M  V30 6379 H 607.691 0.711776 3.80805 0
M  V30 6380 H 608.105 2.84264 4.40788 0
M  V30 6381 H 609.579 1.40725 5.33761 0
M  V30 6382 H 610.056 -0.000960332 4.392 0
M  V30 6383 H 610.662 1.60821 3.93722 0
M  V30 6384 N 608.977 -1.30795 0.87923 0
M  V30 6385 C 609.91 -2.26396 0.286404 0
M  V30 6386 C 610.888 -1.51528 -0.589748 0
M  V30 6387 O 612.072 -1.80566 -0.541119 0
M  V30 6388 C 609.199 -3.33458 -0.593581 0
M  V30 6389 C 608.245 -4.2597 0.21247 0
M  V30 6390 S 609.078 -5.11132 1.59702 0
M  V30 6391 C 610.234 -6.21705 0.723408 0
M  V30 6392 H 610.467 -2.7633 1.09677 0
M  V30 6393 H 608 -1.38703 0.678305 0
M  V30 6394 H 609.958 -3.9561 -1.09557 0
M  V30 6395 H 608.619 -2.82259 -1.37799 0
M  V30 6396 H 607.812 -5.01907 -0.458822 0
M  V30 6397 H 607.414 -3.68363 0.646883 0
M  V30 6398 H 609.706 -6.77472 -0.0620739 0
M  V30 6399 H 610.649 -6.93007 1.4542 0
M  V30 6400 H 611.057 -5.63771 0.286855 0
M  V30 6401 N 610.455 -0.639598 -1.44038 0
M  V30 6402 C 611.871 -0.305953 -1.5664 0
M  V30 6403 C 612.071 1.19055 -1.62567 0
M  V30 6404 O 611.127 1.97492 -1.57331 0
M  V30 6405 C 612.44 -1.00533 -2.83397 0
M  V30 6406 C 613.988 -0.984278 -2.97121 0
M  V30 6407 C 614.463 -1.66428 -4.26691 0
M  V30 6408 N 615.954 -1.63127 -4.33525 0
M  V30 6409 C 616.689 -2.12629 -5.32519 0
M  V30 6410 N 616.185 -2.70359 -6.3787 0
M  V30 6411 N 617.978 -2.03208 -5.24083 0
M  V30 6412 H 610.129 -1.6109 -1.38434 0
M  V30 6413 H 612.392 -0.676672 -0.663942 0
M  V30 6414 H 612.098 -2.06034 -2.85032 0
M  V30 6415 H 611.972 -0.548362 -3.73193 0
M  V30 6416 H 614.359 0.0622792 -2.95034 0
M  V30 6417 H 614.44 -1.47981 -2.08651 0
M  V30 6418 H 614.084 -2.71034 -4.29538 0
M  V30 6419 H 614.014 -1.14351 -5.14034 0
M  V30 6420 H 616.505 -1.20987 -3.58009 0
M  V30 6421 H 616.818 -3.05842 -7.09704 0
M  V30 6422 H 615.163 -2.74414 -6.38531 0
M  V30 6423 H 618.354 -1.57823 -4.40692 0
M  V30 6424 H 618.527 -2.42097 -6.01077 0
M  V30 6425 N 611.933 1.52934 -0.380664 0
M  V30 6426 C 613.182 2.00651 0.205477 0
M  V30 6427 C 613.495 1.27164 1.48623 0
M  V30 6428 O 614.701 1.65547 2.15189 0
M  V30 6429 C 613.157 3.57479 0.416726 0
M  V30 6430 C 612.765 4.39857 -0.850268 0
M  V30 6431 C 614.509 4.13509 0.959702 0
M  V30 6432 C 612.416 5.88269 -0.607773 0
M  V30 6433 H 611.346 0.749684 0.0805614 0
M  V30 6434 H 613.997 1.76508 -0.501732 0
M  V30 6435 H 612.379 3.77836 1.18557 0
M  V30 6436 H 613.553 4.31269 -1.62307 0
M  V30 6437 H 611.868 3.95005 -1.31756 0
M  V30 6438 H 614.465 5.22039 1.15669 0
M  V30 6439 H 614.808 3.69054 1.92626 0
M  V30 6440 H 615.341 3.9701 0.250645 0
M  V30 6441 H 612.08 6.3703 -1.54509 0
M  V30 6442 H 611.6 5.99667 0.126247 0
M  V30 6443 H 613.279 6.46558 -0.239014 0
M  V30 6444 N 613.412 0.11024 1.57214 0
M  V30 6445 C 614.637 -0.561179 1.99664 0
M  V30 6446 C 615.062 -1.59985 0.989266 0
M  V30 6447 O 614.42 -1.81255 -0.0402399 0
M  V30 6448 C 614.468 -1.17189 3.41027 0
M  V30 6449 O 613.572 -2.28755 3.4314 0
M  V30 6450 H 612.913 -0.14101 0.648855 0
M  V30 6451 H 615.443 0.196128 2.03658 0
M  V30 6452 H 615.453 -1.50954 3.79047 0
M  V30 6453 H 614.128 -0.411041 4.13864 0
M  V30 6454 H 612.705 -1.96495 3.16929 0
M  V30 6455 N 614.89 -1.56749 -0.16351 0
M  V30 6456 C 616.12 -1.86307 -0.892936 0
M  V30 6457 C 616.528 -0.6945 -1.75992 0
M  V30 6458 O 615.871 0.345384 -1.80424 0
M  V30 6459 C 615.933 -3.10372 -1.81409 0
M  V30 6460 C 615.597 -4.42913 -1.12593 0
M  V30 6461 C 616.594 -5.17608 -0.487661 0
M  V30 6462 C 614.279 -4.89646 -1.12035 0
M  V30 6463 C 616.273 -6.3723 0.14699 0
M  V30 6464 C 613.96 -6.09197 -0.481883 0
M  V30 6465 C 614.958 -6.82834 0.150678 0
M  V30 6466 O 614.646 -8.00116 0.779065 0
M  V30 6467 H 614.378 -0.622126 -0.264452 0
M  V30 6468 H 616.932 -2.04728 -0.166063 0
M  V30 6469 H 615.162 -2.87917 -2.58148 0
M  V30 6470 H 616.851 -3.26312 -2.41403 0
M  V30 6471 H 617.617 -4.8258 -0.483888 0
M  V30 6472 H 613.496 -4.32265 -1.60212 0
M  V30 6473 H 617.04 -6.94646 0.641325 0
M  V30 6474 H 612.937 -6.43688 -0.483266 0
M  V30 6475 H 613.705 -8.15678 0.679089 0
M  V30 6476 N 616.368 0.432326 -1.51554 0
M  V30 6477 C 617.298 1.53242 -1.76179 0
M  V30 6478 C 618.279 1.58717 -0.611801 0
M  V30 6479 O 619.464 1.74364 -0.855033 0
M  V30 6480 C 616.594 2.91278 -1.89141 0
M  V30 6481 C 615.548 3.00663 -3.04608 0
M  V30 6482 C 614.874 4.40728 -3.02759 0
M  V30 6483 C 616.174 2.74281 -4.44485 0
M  V30 6484 H 617.868 1.32886 -2.68294 0
M  V30 6485 H 615.414 0.637841 -1.29103 0
M  V30 6486 H 617.367 3.68203 -2.04951 0
M  V30 6487 H 616.091 3.12877 -0.936785 0
M  V30 6488 H 614.75 2.26179 -2.88511 0
M  V30 6489 H 614.398 4.59301 -2.05065 0
M  V30 6490 H 614.098 4.47936 -3.80299 0
M  V30 6491 H 615.622 5.19619 -3.20669 0
M  V30 6492 H 617.036 3.40936 -4.60907 0
M  V30 6493 H 615.433 2.92893 -5.23769 0
M  V30 6494 H 616.503 1.69856 -4.54177 0
M  V30 6495 O 617.885 1.50798 0.578109 0
M  V30 6496 H 618.576 1.4938 1.2331 0
M  V30 END ATOM
M  V30 BEGIN BOND
M  V30 END BOND
M  V30 END CTAB
M  END
$$$$
