drugbank_target|P32722 Porin D (DB04233)
 OpenBabel12092120443D

  0  0  0     0  0            999 V3000
M  V30 BEGIN CTAB
M  V30 COUNTS 6651 6730 0 0 0
M  V30 BEGIN ATOM
M  V30 1 H -0.908 1.98254 -0.117106 0
M  V30 2 N 0 1.576 0 0
M  V30 3 C 0.933 2.03868 1.02534 0
M  V30 4 C 1.911 0.928543 1.3348 0
M  V30 5 O 3.095 1.19667 1.45644 0
M  V30 6 C 0.222 2.43627 2.35294 0
M  V30 7 C -0.732 3.65373 2.2001 0
M  V30 8 S 0.101 5.13292 1.52614 0
M  V30 9 C 1.257 5.56322 2.86805 0
M  V30 10 H 1.49 2.90518 0.631377 0
M  V30 11 H -0.977 1.52953 0.210867 0
M  V30 12 H 0.981 2.67203 3.11629 0
M  V30 13 H -0.358 1.57376 2.7183 0
M  V30 14 H -1.165 3.90944 3.18086 0
M  V30 15 H -1.563 3.418 1.51819 0
M  V30 16 H 0.729 5.58782 3.83104 0
M  V30 17 H 1.672 6.56266 2.65933 0
M  V30 18 H 2.08 4.83886 2.90714 0
M  V30 19 N 1.4781 -0.272755 1.55222 0
M  V30 20 C 2.4251 -1.33716 1.88119 0
M  V30 21 C 3.3951 -1.49066 0.73271 0
M  V30 22 O 4.5801 -1.63469 0.984002 0
M  V30 23 C 1.7201 -2.69238 2.15882 0
M  V30 24 C 0.8331 -2.62108 3.43399 0
M  V30 25 C -0.0319 -3.89811 3.60861 0
M  V30 26 C -0.9929 -3.77193 4.8207 0
M  V30 27 N -1.8559 -4.9673 4.96189 0
M  V30 28 H 2.9841 -1.04962 2.78903 0
M  V30 29 H 0.5211 -0.507088 1.38083 0
M  V30 30 H 2.4791 -3.48089 2.29978 0
M  V30 31 H 1.1091 -2.96194 1.28331 0
M  V30 32 H 0.1611 -1.74967 3.37773 0
M  V30 33 H 1.4731 -2.48685 4.32386 0
M  V30 34 H 0.6271 -4.77103 3.74777 0
M  V30 35 H -0.6339 -4.06102 2.7006 0
M  V30 36 H -1.6289 -2.88284 4.68159 0
M  V30 37 H -0.4039 -3.62421 5.74307 0
M  V30 38 H -2.4579 -5.13431 4.08319 0
M  V30 39 H -2.5409 -4.85839 5.79221 0
M  V30 40 H -1.2729 -5.85594 5.1449 0
M  V30 41 N 2.9562 -1.48159 -0.537278 0
M  V30 42 C 4.2022 -1.56035 -1.29541 0
M  V30 43 C 4.5352 -0.230377 -1.92829 0
M  V30 44 O 3.8102 0.762952 -1.78911 0
M  V30 45 C 4.0932 -2.69323 -2.39034 0
M  V30 46 C 3.9462 -4.12002 -1.80485 0
M  V30 47 C 5.2652 -2.78408 -3.40847 0
M  V30 48 H 2.3842 -0.567992 -0.469632 0
M  V30 49 H 5.0262 -1.80302 -0.599277 0
M  V30 50 H 3.1762 -2.48763 -2.98412 0
M  V30 51 H 4.8482 -4.43981 -1.25215 0
M  V30 52 H 3.0912 -4.19344 -1.11055 0
M  V30 53 H 3.7622 -4.87077 -2.59731 0
M  V30 54 H 6.2382 -2.97012 -2.91416 0
M  V30 55 H 5.1142 -3.59416 -4.14863 0
M  V30 56 H 5.3752 -1.86269 -4.00944 0
M  V30 57 N 4.4343 0.785586 -1.36625 0
M  V30 58 C 5.3673 1.90509 -1.25625 0
M  V30 59 C 6.3453 1.62 -0.139607 0
M  V30 60 O 7.5293 1.8591 -0.31141 0
M  V30 61 C 4.6563 3.25419 -0.939158 0
M  V30 62 C 3.7023 3.72856 -2.07077 0
M  V30 63 S 4.5353 3.88162 -3.68904 0
M  V30 64 C 5.6913 5.25942 -3.39317 0
M  V30 65 H 5.9243 1.99549 -2.20381 0
M  V30 66 H 3.4573 0.945226 -1.22085 0
M  V30 67 H 5.4153 4.03346 -0.763029 0
M  V30 68 H 4.0763 3.14099 -0.00931402 0
M  V30 69 H 3.2693 4.70624 -1.80357 0
M  V30 70 H 2.8713 3.01989 -2.20632 0
M  V30 71 H 5.1633 6.10651 -2.93447 0
M  V30 72 H 6.1063 5.57668 -4.36363 0
M  V30 73 H 6.5143 4.93224 -2.74573 0
M  V30 74 N 5.9124 1.20967 1.01018 0
M  V30 75 C 6.8594 0.964281 2.09691 0
M  V30 76 C 7.8294 -0.107853 1.65749 0
M  V30 77 O 9.0144 0.0381987 1.90762 0
M  V30 78 C 6.1544 0.52943 3.41015 0
M  V30 79 C 5.2674 1.67043 3.98398 0
M  V30 80 C 4.4024 1.18525 5.17808 0
M  V30 81 C 3.4414 2.29892 5.67288 0
M  V30 82 N 2.5784 1.82546 6.77954 0
M  V30 83 H 7.4184 1.89463 2.30017 0
M  V30 84 H 4.9554 0.944289 1.1279 0
M  V30 85 H 6.9134 0.258588 4.16398 0
M  V30 86 H 5.5434 -0.363919 3.20742 0
M  V30 87 H 4.5954 2.05603 3.20049 0
M  V30 88 H 5.9074 2.50877 4.31117 0
M  V30 89 H 5.0614 0.870762 6.00419 0
M  V30 90 H 3.8004 0.316887 4.86669 0
M  V30 91 H 2.8054 2.6215 4.83278 0
M  V30 92 H 4.0304 3.17216 6.00459 0
M  V30 93 H 1.9764 0.980454 6.48632 0
M  V30 94 H 1.8934 2.59956 7.09901 0
M  V30 95 H 3.1614 1.54115 7.64113 0
M  V30 96 N 7.3905 -1.2043 1.01659 0
M  V30 97 C 8.6365 -1.90356 0.716674 0
M  V30 98 C 8.9915 -1.77367 -0.745557 0
M  V30 99 O 8.2845 -1.1471 -1.53467 0
M  V30 100 C 8.4785 -3.40464 1.08714 0
M  V30 101 C 8.3075 -3.6806 2.58384 0
M  V30 102 C 7.0775 -3.86775 3.25167 0
M  V30 103 C 9.2755 -3.70623 3.56572 0
M  V30 104 N 7.2575 -4.01889 4.64067 0
M  V30 105 C 8.6285 -3.91161 4.81034 0
M  V30 106 C 10.6835 -3.53586 3.50544 0
M  V30 107 C 9.3865 -3.96428 6.00198 0
M  V30 108 C 11.4125 -3.60125 4.6911 0
M  V30 109 C 10.7745 -3.81135 5.92381 0
M  V30 110 H 6.8735 -0.716226 0.313918 0
M  V30 111 H 9.4575 -1.44815 1.30141 0
M  V30 112 H 7.6285 -3.84757 0.530745 0
M  V30 113 H 9.3605 -3.97863 0.740763 0
M  V30 114 H 6.1155 -3.85156 2.75594 0
M  V30 115 H 6.5395 -4.13323 5.36184 0
M  V30 116 H 11.1815 -3.36308 2.56235 0
M  V30 117 H 8.8995 -4.12502 6.94887 0
M  V30 118 H 12.4855 -3.4825 4.66062 0
M  V30 119 H 11.3655 -3.86054 6.82592 0
M  V30 120 N 8.8686 -0.792821 -1.36206 0
M  V30 121 C 10.0936 -0.377701 -2.03932 0
M  V30 122 C 10.5186 0.998947 -1.59382 0
M  V30 123 O 9.8766 1.64421 -0.763903 0
M  V30 124 C 9.9246 -0.453635 -3.57735 0
M  V30 125 O 9.0286 0.538151 -4.08874 0
M  V30 126 H 8.3696 -0.159855 -0.644471 0
M  V30 127 H 10.8996 -1.07488 -1.7409 0
M  V30 128 H 10.9096 -0.318464 -4.06755 0
M  V30 129 H 9.5846 -1.45784 -3.89512 0
M  V30 130 H 8.1616 0.364359 -3.71116 0
M  V30 131 N 10.3467 1.47872 -0.545128 0
M  V30 132 C 11.3097 2.28337 0.198717 0
M  V30 133 C 12.3097 1.36255 0.853888 0
M  V30 134 O 13.4997 1.59003 0.711606 0
M  V30 135 C 10.6317 3.15585 1.28915 0
M  V30 136 H 11.8247 2.95567 -0.507941 0
M  V30 137 H 9.3777 1.53362 -0.301616 0
M  V30 138 H 10.1127 2.53019 2.02859 0
M  V30 139 H 9.8977 3.83337 0.824309 0
M  V30 140 H 11.3877 3.76243 1.81194 0
M  V30 141 N 11.8248 0.280983 1.55075 0
M  V30 142 C 13.0738 -0.334784 1.98902 0
M  V30 143 C 13.3868 -1.56534 1.17288 0
M  V30 144 O 14.5928 -2.25443 1.51287 0
M  V30 145 C 13.0488 -0.646994 3.54037 0
M  V30 146 C 12.6568 0.564085 4.44435 0
M  V30 147 C 14.4008 -1.22506 4.06439 0
M  V30 148 C 12.3078 0.226137 5.90967 0
M  V30 149 H 11.2378 -0.128866 0.742906 0
M  V30 150 H 13.8888 0.386556 1.79382 0
M  V30 151 H 12.2708 -1.42739 3.6938 0
M  V30 152 H 13.4448 1.34082 4.40861 0
M  V30 153 H 11.7598 1.0594 4.02698 0
M  V30 154 H 14.3568 -1.49182 5.13468 0
M  V30 155 H 14.6998 -2.16085 3.55827 0
M  V30 156 H 15.2328 -0.50682 3.94558 0
M  V30 157 H 11.9718 1.12996 6.45687 0
M  V30 158 H 11.4918 -0.513717 5.97596 0
M  V30 159 H 13.1708 -0.179539 6.46751 0
M  V30 160 N 13.3029 -1.57598 0.00835791 0
M  V30 161 C 14.2659 -2.07884 -0.965242 0
M  V30 162 C 15.2659 -0.989825 -1.26725 0
M  V30 163 O 16.4559 -1.25218 -1.21104 0
M  V30 164 C 13.5879 -2.52731 -2.28779 0
M  V30 165 H 14.7809 -2.95178 -0.530112 0
M  V30 166 H 12.3339 -1.54458 -0.239283 0
M  V30 167 H 13.0689 -1.68705 -2.76964 0
M  V30 168 H 12.8539 -3.32272 -2.08177 0
M  V30 169 H 14.3439 -2.91933 -2.98605 0
M  V30 170 N 14.781 0.264519 -1.55364 0
M  V30 171 C 15.711 1.33121 -1.91836 0
M  V30 172 C 16.692 1.51101 -0.781192 0
M  V30 173 O 17.877 1.64003 -1.04003 0
M  V30 174 C 15.007 2.68921 -2.19769 0
M  V30 175 C 13.961 2.65661 -3.35571 0
M  V30 176 C 13.287 4.05093 -3.49004 0
M  V30 177 C 14.587 2.24187 -4.71739 0
M  V30 178 H 16.281 1.02844 -2.81182 0
M  V30 179 H 13.827 0.493286 -1.35287 0
M  V30 180 H 15.78 3.43663 -2.43872 0
M  V30 181 H 14.504 3.00799 -1.27231 0
M  V30 182 H 13.163 1.93377 -3.1145 0
M  V30 183 H 12.811 4.34206 -2.53917 0
M  V30 184 H 12.511 4.03804 -4.26868 0
M  V30 185 H 14.035 4.81561 -3.75408 0
M  V30 186 H 15.449 2.88654 -4.9533 0
M  V30 187 H 13.846 2.34044 -5.52579 0
M  V30 188 H 14.916 1.19327 -4.69988 0
M  V30 189 N 16.2591 1.48442 0.529413 0
M  V30 190 C 17.2221 1.62524 1.61612 0
M  V30 191 C 18.2221 0.498509 1.52877 0
M  V30 192 O 19.4121 0.76431 1.56537 0
M  V30 193 C 16.5441 1.59597 3.01233 0
M  V30 194 H 17.7371 2.59423 1.50465 0
M  V30 195 H 15.2901 1.37047 0.751514 0
M  V30 196 H 16.0251 0.641781 3.17886 0
M  V30 197 H 15.8101 2.41397 3.08982 0
M  V30 198 H 17.3001 1.72646 3.80241 0
M  V30 199 N 17.7372 -0.778329 1.37039 0
M  V30 200 C 18.9832 -1.53892 1.32079 0
M  V30 201 C 19.3162 -1.9396 -0.0965386 0
M  V30 202 O 18.5912 -1.63568 -1.05242 0
M  V30 203 C 18.8742 -2.80847 2.25382 0
M  V30 204 C 18.7272 -2.47076 3.75864 0
M  V30 205 C 20.0462 -3.82741 2.1725 0
M  V30 206 H 17.1652 -0.558303 0.48111 0
M  V30 207 H 19.8072 -0.893397 1.67685 0
M  V30 208 H 17.9572 -3.35931 1.95148 0
M  V30 209 H 19.6292 -1.97957 4.16666 0
M  V30 210 H 17.8722 -1.79863 3.94755 0
M  V30 211 H 18.5432 -3.37798 4.36574 0
M  V30 212 H 21.0192 -3.37133 2.43887 0
M  V30 213 H 19.8952 -4.69303 2.84686 0
M  V30 214 H 20.1562 -4.2652 1.16331 0
M  V30 215 N 19.2153 -1.21501 -1.00376 0
M  V30 216 C 20.4403 -1.05977 -1.78279 0
M  V30 217 C 20.8653 0.385994 -1.84097 0
M  V30 218 O 20.2233 1.27849 -1.28547 0
M  V30 219 C 20.2713 -1.66302 -3.19963 0
M  V30 220 O 19.3753 -0.909333 -4.0225 0
M  V30 221 H 18.7163 -0.372906 -0.549397 0
M  V30 222 H 21.2463 -1.6107 -1.26165 0
M  V30 223 H 21.2563 -1.70574 -3.70632 0
M  V30 224 H 19.9313 -2.71515 -3.15043 0
M  V30 225 H 18.5083 -0.941795 -3.60811 0
M  V30 226 N 20.6934 1.19889 -1.02296 0
M  V30 227 C 21.6564 2.21116 -0.603351 0
M  V30 228 C 22.6564 1.5738 0.329884 0
M  V30 229 O 23.8464 1.73802 0.117702 0
M  V30 230 C 20.9784 3.40696 0.117992 0
M  V30 231 H 22.1714 2.59754 -1.49893 0
M  V30 232 H 19.7244 1.33463 -0.813468 0
M  V30 233 H 20.4594 3.07569 1.0282 0
M  V30 234 H 20.2444 3.88188 -0.552511 0
M  V30 235 H 21.7344 4.15692 0.398696 0
M  V30 236 N 22.1715 0.800033 1.35784 0
M  V30 237 C 23.4195 0.376597 1.9856 0
M  V30 238 C 23.7405 -1.05812 1.63795 0
M  V30 239 O 23.0105 -1.73103 0.917171 0
M  V30 240 H 21.5905 0.136261 0.734467 0
M  V30 241 H 24.2525 1.02442 1.65806 0
M  V30 242 H 23.3485 0.477002 3.08433 0
M  V30 243 N 23.6496 -1.47581 0.552962 0
M  V30 244 C 24.8746 -2.07378 0.0300593 0
M  V30 245 C 25.2996 -1.40355 -1.25229 0
M  V30 246 O 24.6576 -0.477099 -1.7491 0
M  V30 247 C 24.7056 -3.60274 -0.153231 0
M  V30 248 O 23.8096 -3.94041 -1.21678 0
M  V30 249 H 23.1506 -0.662158 0.0494182 0
M  V30 250 H 25.6806 -1.89662 0.767434 0
M  V30 251 H 25.6906 -4.0633 -0.368761 0
M  V30 252 H 24.3656 -4.08455 0.783397 0
M  V30 253 H 22.9426 -3.59735 -0.982079 0
M  V30 254 N 25.1277 -0.289203 -1.54924 0
M  V30 255 C 26.3557 0.326463 -2.04308 0
M  V30 256 C 26.7707 1.48413 -1.16701 0
M  V30 257 O 26.1277 1.81507 -0.190087 0
M  V30 258 C 26.1787 0.794014 -3.52672 0
M  V30 259 O 25.8997 -0.317564 -4.36948 0
M  V30 260 C 27.4007 1.47605 -4.18004 0
M  V30 261 H 24.6207 0.0726272 -0.667058 0
M  V30 262 H 27.1647 -0.425401 -2.00026 0
M  V30 263 H 25.3197 1.49593 -3.57352 0
M  V30 264 H 25.7337 0.0443186 -5.24481 0
M  V30 265 H 27.2077 1.75447 -5.23376 0
M  V30 266 H 27.6847 2.41224 -3.67025 0
M  V30 267 H 28.2907 0.81762 -4.17367 0
M  V30 268 N 26.6058 1.57591 -0.0167156 0
M  V30 269 C 27.5378 2.06343 0.997753 0
M  V30 270 C 28.5508 0.984469 1.29661 0
M  V30 271 O 29.7398 1.26093 1.26344 0
M  V30 272 C 26.8398 2.46255 2.32834 0
M  V30 273 C 26.0128 3.77083 2.21646 0
M  V30 274 C 25.0718 4.0368 3.37534 0
M  V30 275 O 24.0978 4.7411 3.14973 0
M  V30 276 N 25.2998 3.52881 4.60929 0
M  V30 277 H 28.0648 2.93997 0.581875 0
M  V30 278 H 25.6258 1.61002 0.170316 0
M  V30 279 H 27.6178 2.61149 3.09166 0
M  V30 280 H 26.1878 1.64032 2.66106 0
M  V30 281 H 25.4078 3.72106 1.30119 0
M  V30 282 H 26.6958 4.62822 2.11361 0
M  V30 283 H 26.0938 2.95878 4.82154 0
M  V30 284 H 24.6508 3.73076 5.34469 0
M  V30 285 N 28.0839 -0.256276 1.55502 0
M  V30 286 C 29.3309 -0.985619 1.76895 0
M  V30 287 C 29.6589 -1.85671 0.579355 0
M  V30 288 O 28.9139 -1.90744 -0.437651 0
M  V30 289 C 29.2129 -1.88432 3.03691 0
M  V30 290 C 28.8789 -1.16936 4.35473 0
M  V30 291 C 27.5409 -0.97173 4.71286 0
M  V30 292 C 29.8929 -0.661889 5.1698 0
M  V30 293 C 27.2209 -0.254179 5.86149 0
M  V30 294 C 29.5729 0.042149 6.32586 0
M  V30 295 C 28.2369 0.25134 6.67027 0
M  V30 296 H 27.5069 -0.360663 0.647304 0
M  V30 297 H 30.1539 -0.256483 1.89775 0
M  V30 298 H 28.4589 -2.68021 2.85783 0
M  V30 299 H 30.1559 -2.45015 3.1744 0
M  V30 300 H 26.7459 -1.33332 4.07333 0
M  V30 301 H 30.9299 -0.802145 4.89775 0
M  V30 302 H 26.1859 -0.0815408 6.11346 0
M  V30 303 H 30.3599 0.443049 6.94989 0
M  V30 304 H 27.9869 0.809314 7.5588 0
M  V30 305 N 29.562 -1.4872 -0.521534 0
M  V30 306 C 30.525 -1.63379 -1.60748 0
M  V30 307 C 31.525 -0.50661 -1.52611 0
M  V30 308 O 32.715 -0.772601 -1.5613 0
M  V30 309 C 29.847 -1.61192 -3.00383 0
M  V30 310 H 31.04 -2.60217 -1.49087 0
M  V30 311 H 28.593 -1.37444 -0.744235 0
M  V30 312 H 29.328 -0.65863 -3.17541 0
M  V30 313 H 29.113 -2.43032 -3.07698 0
M  V30 314 H 30.603 -1.7466 -3.7932 0
M  V30 315 N 31.0401 0.771051 -1.3745 0
M  V30 316 C 32.2861 1.5319 -1.32894 0
M  V30 317 C 32.6191 1.94008 0.0862511 0
M  V30 318 O 31.8941 1.64124 1.04373 0
M  V30 319 C 32.1771 2.79648 -2.26868 0
M  V30 320 C 32.0301 2.45079 -3.77169 0
M  V30 321 C 33.3491 3.81583 -2.19277 0
M  V30 322 H 30.4681 0.555744 -0.484064 0
M  V30 323 H 33.1101 0.884492 -1.68157 0
M  V30 324 H 31.2601 3.34891 -1.96926 0
M  V30 325 H 32.9321 1.95745 -4.1771 0
M  V30 326 H 31.1751 1.77767 -3.95704 0
M  V30 327 H 31.8461 3.35478 -4.38359 0
M  V30 328 H 34.3221 3.35835 -2.45671 0
M  V30 329 H 33.1981 4.67787 -2.87171 0
M  V30 330 H 33.4591 4.25897 -1.18592 0
M  V30 331 N 32.5182 1.22032 0.997298 0
M  V30 332 C 33.4812 0.987909 2.06816 0
M  V30 333 C 34.4812 -0.0440084 1.6074 0
M  V30 334 O 35.6712 0.194053 1.73116 0
M  V30 335 C 32.8032 0.49132 3.37341 0
M  V30 336 H 33.9962 1.93803 2.28868 0
M  V30 337 H 31.5492 1.03838 1.16822 0
M  V30 338 H 32.2842 -0.463364 3.20973 0
M  V30 339 H 32.0692 1.23575 3.72118 0
M  V30 340 H 33.5592 0.348824 4.16141 0
M  V30 341 N 33.9963 -1.19345 1.0293 0
M  V30 342 C 35.2733 -1.84811 0.640642 0
M  V30 343 C 35.6533 -1.91855 -0.88062 0
M  V30 344 O 35.0013 -1.43587 -1.7775 0
M  V30 345 C 35.2113 -3.23755 1.30321 0
M  V30 346 C 36.5593 -3.99912 1.42673 0
M  V30 347 O 37.5833 -3.33155 1.26041 0
M  V30 348 O 36.4423 -5.19494 1.6967 0
M  V30 349 H 33.5363 -0.796443 0.222726 0
M  V30 350 H 36.0823 -1.26831 1.12748 0
M  V30 351 H 34.8543 -3.13466 2.34211 0
M  V30 352 H 34.4773 -3.89381 0.804261 0
M  V30 353 N 35.4744 -0.807222 -1.35358 0
M  V30 354 C 36.4374 -0.223665 -2.28106 0
M  V30 355 C 37.4374 0.589354 -1.4961 0
M  V30 356 O 38.6274 0.407745 -1.69361 0
M  V30 357 C 35.7594 0.688149 -3.33882 0
M  V30 358 H 36.9524 -1.04169 -2.81227 0
M  V30 359 H 34.5054 -0.577921 -1.45223 0
M  V30 360 H 35.2404 1.52984 -2.85948 0
M  V30 361 H 35.0254 0.10687 -3.91954 0
M  V30 362 H 36.5154 1.09075 -4.03104 0
M  V30 363 N 36.9525 1.47285 -0.560781 0
M  V30 364 C 38.1995 2.02464 -0.038062 0
M  V30 365 C 38.5275 1.43474 1.31322 0
M  V30 366 O 37.7825 0.581311 1.86867 0
M  V30 367 C 38.0815 3.57258 0.100784 0
M  V30 368 C 37.7475 4.35184 -1.18007 0
M  V30 369 C 36.4095 4.56194 -1.53103 0
M  V30 370 C 38.7615 4.80098 -2.02867 0
M  V30 371 C 36.0895 5.19367 -2.729 0
M  V30 372 C 38.4415 5.44593 -3.21871 0
M  V30 373 C 37.1055 5.63835 -3.57276 0
M  V30 374 H 36.3755 0.740869 -0.0139279 0
M  V30 375 H 39.0225 1.76916 -0.733012 0
M  V30 376 H 37.3275 3.81819 0.878724 0
M  V30 377 H 39.0245 3.97606 0.520639 0
M  V30 378 H 35.6145 4.19113 -0.8968 0
M  V30 379 H 39.7985 4.63642 -1.7706 0
M  V30 380 H 35.0545 5.32459 -3.00496 0
M  V30 381 H 39.2285 5.78358 -3.87911 0
M  V30 382 H 36.8555 6.12557 -4.50197 0
M  V30 383 N 38.4306 0.297415 1.54768 0
M  V30 384 C 39.6766 -0.313376 2.00364 0
M  V30 385 C 40.0096 -1.53815 1.18553 0
M  V30 386 O 39.2846 -1.92739 0.261103 0
M  V30 387 C 39.5676 -0.673525 3.53745 0
M  V30 388 C 39.4206 0.560133 4.46299 0
M  V30 389 C 40.7396 -1.50143 4.13697 0
M  V30 390 H 37.8586 -0.112428 0.728374 0
M  V30 391 H 40.5006 0.4088 1.8555 0
M  V30 392 H 38.6506 -1.28881 3.665 0
M  V30 393 H 40.3226 1.19863 4.45455 0
M  V30 394 H 38.5656 1.19405 4.17043 0
M  V30 395 H 39.2366 0.26405 5.51368 0
M  V30 396 H 41.7126 -0.981588 4.04356 0
M  V30 397 H 40.5886 -1.72221 5.21182 0
M  V30 398 H 40.8496 -2.48952 3.65343 0
M  V30 399 N 39.9087 -1.5758 0.0250728 0
M  V30 400 C 41.1337 -1.96337 -0.668317 0
M  V30 401 C 41.5587 -0.901314 -1.651 0
M  V30 402 O 40.9167 0.138187 -1.80773 0
M  V30 403 C 40.9647 -3.34191 -1.35457 0
M  V30 404 O 40.0687 -3.30269 -2.46974 0
M  V30 405 H 39.4097 -0.640281 -0.175887 0
M  V30 406 H 41.9397 -2.0442 0.0857224 0
M  V30 407 H 41.9497 -3.70331 -1.71228 0
M  V30 408 H 40.6247 -4.11036 -0.634218 0
M  V30 409 H 39.2017 -3.05841 -2.13344 0
M  V30 410 N 41.3868 0.248026 -1.55636 0
M  V30 411 C 42.6638 0.998988 -1.68165 0
M  V30 412 C 43.0438 2.03409 -0.564621 0
M  V30 413 O 42.3918 2.24378 0.432076 0
M  V30 414 C 42.6018 1.63334 -3.0842 0
M  V30 415 C 43.9498 2.13562 -3.66983 0
M  V30 416 O 44.9738 1.73277 -3.11213 0
M  V30 417 O 43.8328 2.87526 -4.64749 0
M  V30 418 H 40.9268 0.464933 -0.683935 0
M  V30 419 H 43.4728 0.241902 -1.67967 0
M  V30 420 H 42.2448 0.884583 -3.8117 0
M  V30 421 H 41.8678 2.45666 -3.12624 0
M  V30 422 N 42.8649 1.48995 0.513639 0
M  V30 423 C 43.7969 1.60836 1.63293 0
M  V30 424 C 44.8099 0.491701 1.55197 0
M  V30 425 O 45.9989 0.763238 1.6136 0
M  V30 426 C 43.0989 1.53731 3.02027 0
M  V30 427 C 42.2719 2.80715 3.35437 0
M  V30 428 C 41.3309 2.66837 4.53525 0
M  V30 429 O 40.3569 3.40753 4.55934 0
M  V30 430 N 41.5589 1.77539 5.52684 0
M  V30 431 H 44.3239 2.57366 1.53566 0
M  V30 432 H 41.8849 1.45925 0.701259 0
M  V30 433 H 43.8769 1.42118 3.78926 0
M  V30 434 H 42.4469 0.651092 3.05744 0
M  V30 435 H 41.6669 3.06772 2.47557 0
M  V30 436 H 42.9549 3.64927 3.54551 0
M  V30 437 H 42.3529 1.16719 5.53528 0
M  V30 438 H 40.9099 1.71856 6.28736 0
M  V30 439 N 44.343 -0.763751 1.37857 0
M  V30 440 C 45.306 -1.85889 1.34081 0
M  V30 441 C 46.306 -1.58949 0.243277 0
M  V30 442 O 47.496 -1.66882 0.499589 0
M  V30 443 C 44.628 -3.23176 1.08489 0
M  V30 444 H 45.821 -1.90648 2.31502 0
M  V30 445 H 43.374 -0.964367 1.23003 0
M  V30 446 H 44.109 -3.24091 0.116318 0
M  V30 447 H 43.894 -3.44124 1.8794 0
M  V30 448 H 45.384 -4.03254 1.08517 0
M  V30 449 N 45.8211 -1.22559 -0.990812 0
M  V30 450 C 46.7311 -1.01394 -2.11557 0
M  V30 451 C 47.7471 0.0383962 -1.73958 0
M  V30 452 O 48.9231 -0.154787 -2.00804 0
M  V30 453 C 45.9881 -0.596569 -3.41529 0
M  V30 454 C 45.0491 -1.72276 -3.93217 0
M  V30 455 C 44.2821 -1.32521 -5.16985 0
M  V30 456 O 44.5051 -0.204909 -5.70032 0
M  V30 457 O 43.4391 -2.14247 -5.62478 0
M  V30 458 H 47.2651 -1.95633 -2.32296 0
M  V30 459 H 44.8501 -1.01172 -1.0993 0
M  V30 460 H 46.7321 -0.374263 -4.19735 0
M  V30 461 H 45.4071 0.316939 -3.22145 0
M  V30 462 H 44.3141 -1.99961 -3.16174 0
M  V30 463 H 45.6471 -2.61421 -4.17037 0
M  V30 464 N 47.2992 1.18797 -1.03562 0
M  V30 465 C 48.2622 2.20464 -0.626769 0
M  V30 466 C 49.2622 1.57721 0.313173 0
M  V30 467 O 50.4522 1.73917 0.0992615 0
M  V30 468 C 47.5842 3.40802 0.0818498 0
M  V30 469 H 48.7772 2.58149 -1.5264 0
M  V30 470 H 46.3302 1.32593 -0.827578 0
M  V30 471 H 47.0652 3.08642 0.995518 0
M  V30 472 H 46.8502 3.8758 -0.593652 0
M  V30 473 H 48.3402 4.16092 0.354584 0
M  V30 474 N 48.7773 0.814389 1.34928 0
M  V30 475 C 49.7243 0.22822 2.29669 0
M  V30 476 C 50.6943 -0.642164 1.53184 0
M  V30 477 O 51.8793 -0.585605 1.81591 0
M  V30 478 C 49.0193 -0.61089 3.3965 0
M  V30 479 C 48.1323 0.280792 4.31086 0
M  V30 480 C 47.2673 -0.567067 5.28165 0
M  V30 481 C 46.3063 0.324531 6.11239 0
M  V30 482 N 45.4433 -0.483756 7.00431 0
M  V30 483 H 50.2833 1.04153 2.79206 0
M  V30 484 H 47.8203 0.525133 1.37407 0
M  V30 485 H 49.7783 -1.11263 4.0209 0
M  V30 486 H 48.4083 -1.38939 2.91369 0
M  V30 487 H 47.4603 0.900688 3.69583 0
M  V30 488 H 48.7723 0.966723 4.89342 0
M  V30 489 H 47.9263 -1.13363 5.96015 0
M  V30 490 H 46.6653 -1.28654 4.70425 0
M  V30 491 H 45.6703 0.903298 5.42329 0
M  V30 492 H 46.8953 1.04198 6.71059 0
M  V30 493 H 44.8413 -1.18706 6.45171 0
M  V30 494 H 44.7583 0.143965 7.55863 0
M  V30 495 H 46.0263 -1.03334 7.7262 0
M  V30 496 N 50.2554 -1.46986 0.568584 0
M  V30 497 C 51.5034 -2.02041 0.0487022 0
M  V30 498 C 51.8244 -1.44408 -1.31039 0
M  V30 499 O 51.0944 -0.623477 -1.85714 0
M  V30 500 H 49.6744 -0.746849 0.015014 0
M  V30 501 H 52.3364 -1.80257 0.741168 0
M  V30 502 H 51.4324 -3.12085 -0.0308961 0
M  V30 503 N 51.7335 -0.305618 -1.54608 0
M  V30 504 C 52.9805 0.302298 -2.00231 0
M  V30 505 C 53.3085 1.5354 -1.19398 0
M  V30 506 O 52.5635 1.93973 -0.259423 0
M  V30 507 C 52.8625 0.698983 -3.50498 0
M  V30 508 C 52.5285 -0.432903 -4.48817 0
M  V30 509 C 51.1905 -0.743622 -4.75419 0
M  V30 510 C 53.5425 -1.19409 -5.07337 0
M  V30 511 C 50.8705 -1.81857 -5.57804 0
M  V30 512 C 53.2225 -2.25899 -5.90891 0
M  V30 513 C 51.8865 -2.57572 -6.15803 0
M  V30 514 H 51.1565 0.110619 -0.732697 0
M  V30 515 H 53.8035 -0.425674 -1.86709 0
M  V30 516 H 52.1085 1.50711 -3.61654 0
M  V30 517 H 53.8055 1.1806 -3.83227 0
M  V30 518 H 50.3955 -0.18063 -4.28219 0
M  V30 519 H 54.5795 -0.967295 -4.86782 0
M  V30 520 H 49.8355 -2.06864 -5.75341 0
M  V30 521 H 54.0095 -2.85335 -6.35261 0
M  V30 522 H 51.6365 -3.40998 -6.7943 0
M  V30 523 N 53.2116 1.57565 -0.0334293 0
M  V30 524 C 54.4606 1.91155 0.643639 0
M  V30 525 C 54.7736 0.91192 1.73042 0
M  V30 526 O 55.9796 1.13923 2.46442 0
M  V30 527 C 54.4356 3.39443 1.1961 0
M  V30 528 C 54.0436 4.47774 0.142381 0
M  V30 529 C 55.7876 3.82094 1.84944 0
M  V30 530 C 53.6946 5.87162 0.706727 0
M  V30 531 H 52.6246 0.713368 0.244176 0
M  V30 532 H 55.2756 1.8323 -0.0994323 0
M  V30 533 H 53.6576 3.42313 1.99092 0
M  V30 534 H 54.8316 4.56469 -0.630296 0
M  V30 535 H 53.1466 4.14352 -0.412446 0
M  V30 536 H 55.7436 4.83591 2.2813 0
M  V30 537 H 56.0866 3.17386 2.69392 0
M  V30 538 H 56.6196 3.81665 1.12145 0
M  V30 539 H 53.3586 6.55424 -0.0997178 0
M  V30 540 H 52.8786 5.82064 1.44779 0
M  V30 541 H 54.5576 6.35866 1.19514 0
M  V30 542 N 54.6897 -0.239769 1.55765 0
M  V30 543 C 55.5997 -1.31831 1.94056 0
M  V30 544 C 56.6157 -1.52275 0.841925 0
M  V30 545 O 57.7917 -1.65759 1.14394 0
M  V30 546 C 54.8567 -2.65156 2.23368 0
M  V30 547 C 53.9177 -2.53173 3.46701 0
M  V30 548 C 53.1507 -3.8014 3.74606 0
M  V30 549 O 53.3737 -4.82343 3.04469 0
M  V30 550 O 52.3077 -3.78344 4.68123 0
M  V30 551 H 56.1337 -1.02347 2.85935 0
M  V30 552 H 53.7187 -0.441123 1.42739 0
M  V30 553 H 55.6007 -3.43929 2.43497 0
M  V30 554 H 54.2757 -2.94358 1.34666 0
M  V30 555 H 53.1827 -1.72662 3.31871 0
M  V30 556 H 54.5157 -2.28915 4.35728 0
M  V30 557 N 56.1678 -1.49265 -0.50573 0
M  V30 558 C 57.4448 -1.49012 -1.26707 0
M  V30 559 C 57.8248 -0.215205 -2.1 0
M  V30 560 O 57.1728 0.802547 -2.13943 0
M  V30 561 C 57.3828 -2.7663 -2.12783 0
M  V30 562 C 58.7308 -3.25932 -2.72127 0
M  V30 563 O 59.7548 -2.77715 -2.23054 0
M  V30 564 O 58.6138 -4.09897 -3.61451 0
M  V30 565 H 55.7078 -0.596197 -0.57313 0
M  V30 566 H 58.2538 -1.61524 -0.52039 0
M  V30 567 H 57.0258 -3.60916 -1.5118 0
M  V30 568 H 56.6488 -2.66956 -2.94653 0
M  V30 569 N 57.6459 0.756429 -1.3826 0
M  V30 570 C 58.8709 1.55077 -1.37717 0
M  V30 571 C 59.2959 1.88073 0.03164 0
M  V30 572 O 58.6539 1.50364 1.01293 0
M  V30 573 C 58.7019 2.8283 -2.23695 0
M  V30 574 O 57.8059 3.77862 -1.6521 0
M  V30 575 H 57.1469 0.469152 -0.469885 0
M  V30 576 H 59.6769 0.935019 -1.81985 0
M  V30 577 H 59.6869 3.31783 -2.37453 0
M  V30 578 H 58.3619 2.58144 -3.2609 0
M  V30 579 H 56.9389 3.36555 -1.60578 0
M  V30 580 N 59.124 1.23083 0.984299 0
M  V30 581 C 60.349 1.088 1.76571 0
M  V30 582 C 60.774 -0.356657 1.84688 0
M  V30 583 O 60.132 -1.25788 1.30565 0
M  V30 584 C 60.18 1.71371 3.17277 0
M  V30 585 O 59.284 0.973213 4.00752 0
M  V30 586 H 58.625 0.381599 0.543395 0
M  V30 587 H 61.155 1.63057 1.23587 0
M  V30 588 H 61.165 1.76449 3.67872 0
M  V30 589 H 59.84 2.76493 3.10684 0
M  V30 590 H 58.417 0.999078 3.59267 0
M  V30 591 N 60.6021 -1.18246 1.0419 0
M  V30 592 C 61.5321 -2.24127 0.654914 0
M  V30 593 C 62.5131 -1.66617 -0.342451 0
M  V30 594 O 63.6981 -1.92924 -0.222277 0
M  V30 595 C 60.8281 -3.47295 0.0183757 0
M  V30 596 C 59.7821 -4.17563 0.939414 0
M  V30 597 C 59.1081 -5.34438 0.167286 0
M  V30 598 C 60.4081 -4.70917 2.25908 0
M  V30 599 H 62.1021 -2.56753 1.54007 0
M  V30 600 H 59.6481 -1.23414 0.74195 0
M  V30 601 H 61.6011 -4.20572 -0.264082 0
M  V30 602 H 60.3251 -3.13907 -0.901664 0
M  V30 603 H 58.9841 -3.46186 1.20628 0
M  V30 604 H 58.6321 -4.97298 -0.7552 0
M  V30 605 H 58.3321 -5.82388 0.780901 0
M  V30 606 H 59.8561 -6.10504 -0.108125 0
M  V30 607 H 61.2701 -5.35882 2.03724 0
M  V30 608 H 59.6671 -5.29406 2.82577 0
M  V30 609 H 60.7371 -3.88272 2.9047 0
M  V30 610 N 62.0802 -0.821533 -1.34494 0
M  V30 611 C 63.3572 -0.33159 -1.92769 0
M  V30 612 C 63.7372 1.18088 -1.74981 0
M  V30 613 O 63.0852 1.98733 -1.12772 0
M  V30 614 C 63.2952 -0.759398 -3.40638 0
M  V30 615 C 64.6432 -0.757433 -4.1779 0
M  V30 616 O 65.6672 -0.70189 -3.49216 0
M  V30 617 O 64.5262 -0.829361 -5.4017 0
M  V30 618 H 61.6202 -0.0902502 -0.822061 0
M  V30 619 H 64.1662 -0.906231 -1.43477 0
M  V30 620 H 62.9382 -1.8012 -3.47379 0
M  V30 621 H 62.5612 -0.160378 -3.97276 0
M  V30 622 N 63.5583 1.46682 -0.576371 0
M  V30 623 C 64.4883 2.33028 0.148397 0
M  V30 624 C 65.4693 1.44961 0.889956 0
M  V30 625 O 66.6543 1.73789 0.866662 0
M  V30 626 C 63.7843 3.27117 1.1667 0
M  V30 627 C 62.7383 4.24575 0.540386 0
M  V30 628 C 62.0643 5.08126 1.6647 0
M  V30 629 C 63.3643 5.19722 -0.518331 0
M  V30 630 H 65.0583 2.93875 -0.572509 0
M  V30 631 H 62.6043 1.41315 -0.276768 0
M  V30 632 H 64.5573 3.86374 1.68204 0
M  V30 633 H 63.2813 2.64364 1.9178 0
M  V30 634 H 61.9403 3.66571 0.0461769 0
M  V30 635 H 61.5883 4.41762 2.40531 0
M  V30 636 H 61.2883 5.74122 1.25131 0
M  V30 637 H 62.8123 5.70246 2.18293 0
M  V30 638 H 64.2263 5.73232 -0.0883058 0
M  V30 639 H 62.6233 5.94026 -0.851679 0
M  V30 640 H 63.6933 4.64037 -1.40703 0
M  V30 641 N 65.0364 0.313813 1.54444 0
M  V30 642 C 65.9664 -0.549454 2.26943 0
M  V30 643 C 66.9474 -1.12741 1.27372 0
M  V30 644 O 68.1324 -1.15436 1.56167 0
M  V30 645 C 65.2624 -1.71523 3.01989 0
M  V30 646 C 64.2164 -1.26703 4.08816 0
M  V30 647 C 63.5424 -2.51898 4.71647 0
M  V30 648 C 64.8424 -0.388962 5.2085 0
M  V30 649 H 66.5364 0.0552661 2.99349 0
M  V30 650 H 64.0824 0.0280207 1.43973 0
M  V30 651 H 66.0354 -2.32535 3.51433 0
M  V30 652 H 64.7594 -2.34639 2.27183 0
M  V30 653 H 63.4184 -0.679896 3.6024 0
M  V30 654 H 63.0664 -3.13356 3.93468 0
M  V30 655 H 62.7664 -2.22605 5.43802 0
M  V30 656 H 64.2904 -3.1369 5.23861 0
M  V30 657 H 65.7044 -0.905107 5.6611 0
M  V30 658 H 64.1014 -0.18924 5.99802 0
M  V30 659 H 65.1714 0.582699 4.81386 0
M  V30 660 N 66.5145 -1.57545 0.0417849 0
M  V30 661 C 67.4445 -2.14009 -0.933929 0
M  V30 662 C 68.4255 -1.05938 -1.33083 0
M  V30 663 O 69.6105 -1.33833 -1.40721 0
M  V30 664 C 66.7405 -2.67747 -2.21199 0
M  V30 665 C 65.6945 -3.80718 -1.95544 0
M  V30 666 C 65.0205 -4.20935 -3.29724 0
M  V30 667 C 66.3205 -5.06258 -1.28452 0
M  V30 668 H 68.0145 -2.95788 -0.463645 0
M  V30 669 H 65.5605 -1.42285 -0.221573 0
M  V30 670 H 67.5135 -3.05886 -2.89848 0
M  V30 671 H 66.2375 -1.83147 -2.70416 0
M  V30 672 H 64.8965 -3.43037 -1.2931 0
M  V30 673 H 64.5445 -3.33298 -3.76724 0
M  V30 674 H 64.2445 -4.9707 -3.13361 0
M  V30 675 H 65.7685 -4.61666 -3.9962 0
M  V30 676 H 67.1825 -5.41903 -1.8712 0
M  V30 677 H 65.5795 -5.87475 -1.22445 0
M  V30 678 H 66.6495 -4.84207 -0.259219 0
M  V30 679 N 67.9926 0.231505 -1.5589 0
M  V30 680 C 69.4086 0.580748 -1.48659 0
M  V30 681 C 69.6086 1.87617 -0.73498 0
M  V30 682 O 68.6646 2.51046 -0.270586 0
M  V30 683 C 69.9776 0.669202 -2.93159 0
M  V30 684 C 71.5256 0.760499 -3.03621 0
M  V30 685 C 72.0006 0.880383 -4.49459 0
M  V30 686 N 73.4916 0.944861 -4.53461 0
M  V30 687 C 74.2266 1.05716 -5.63571 0
M  V30 688 N 73.7226 1.13403 -6.83456 0
M  V30 689 N 75.5156 1.09152 -5.514 0
M  V30 690 H 67.6666 -0.618695 -2.03189 0
M  V30 691 H 69.9296 -0.215728 -0.923128 0
M  V30 692 H 69.6356 -0.212904 -3.51055 0
M  V30 693 H 69.5096 1.5361 -3.44505 0
M  V30 694 H 71.8966 1.63305 -2.45796 0
M  V30 695 H 71.9776 -0.131864 -2.5546 0
M  V30 696 H 71.6216 0.0123284 -5.07899 0
M  V30 697 H 71.5516 1.78802 -4.95316 0
M  V30 698 H 74.0426 0.896176 -3.6712 0
M  V30 699 H 74.3556 1.21921 -7.63122 0
M  V30 700 H 72.7006 1.10333 -6.86186 0
M  V30 701 H 75.8916 1.02805 -4.56671 0
M  V30 702 H 76.0646 1.17558 -6.37247 0
M  V30 703 N 69.4707 1.49531 0.497807 0
M  V30 704 C 70.4187 1.66926 1.61983 0
M  V30 705 C 71.4127 0.535167 1.60724 0
M  V30 706 O 72.6187 0.714896 1.65195 0
M  V30 707 H 68.9937 0.526415 0.537021 0
M  V30 708 H 70.9647 2.61098 1.44465 0
M  V30 709 C 69.7137 1.75602 3.00099 0
M  V30 710 H 69.0367 2.62244 3.01775 0
M  V30 711 H 70.4767 1.91807 3.78135 0
M  V30 712 C 68.9357 0.501543 3.33146 0
M  V30 713 O 69.4657 -0.371342 3.9998 0
M  V30 714 N 67.6717 0.363531 2.88317 0
M  V30 715 H 67.2187 1.07485 2.34104 0
M  V30 716 H 67.1767 -0.474728 3.10795 0
M  V30 717 N 70.9488 -0.749086 1.3866 0
M  V30 718 C 72.1788 -1.53611 1.38157 0
M  V30 719 C 72.5868 -1.89177 -0.0293595 0
M  V30 720 O 71.9298 -1.53606 -1.00752 0
M  V30 721 C 71.9918 -2.86087 2.17702 0
M  V30 722 C 71.6558 -2.73034 3.66472 0
M  V30 723 C 72.6528 -2.42526 4.59866 0
M  V30 724 C 70.3378 -2.90345 4.09884 0
M  V30 725 C 72.3318 -2.29492 5.94653 0
M  V30 726 C 70.0188 -2.7693 5.4475 0
M  V30 727 C 71.0168 -2.46547 6.36949 0
M  V30 728 O 70.7048 -2.33199 7.69333 0
M  V30 729 H 70.4368 -0.481773 0.474205 0
M  V30 730 H 72.9908 -0.934465 1.82912 0
M  V30 731 H 71.2208 -3.48458 1.67672 0
M  V30 732 H 72.9098 -3.47625 2.09551 0
M  V30 733 H 73.6758 -2.28816 4.27631 0
M  V30 734 H 69.5548 -3.1299 3.38464 0
M  V30 735 H 73.0988 -2.05698 6.66584 0
M  V30 736 H 68.9958 -2.90215 5.76581 0
M  V30 737 H 69.7638 -2.48376 7.79905 0
M  V30 738 N 72.4269 -1.23603 -0.977757 0
M  V30 739 C 73.6569 -1.09487 -1.75203 0
M  V30 740 C 74.0649 0.356321 -1.85814 0
M  V30 741 O 73.4079 1.25816 -1.33851 0
M  V30 742 C 73.4699 -1.64905 -3.19447 0
M  V30 743 C 73.1339 -3.13688 -3.32338 0
M  V30 744 C 74.1309 -4.10953 -3.18455 0
M  V30 745 C 71.8159 -3.53449 -3.56902 0
M  V30 746 C 73.8099 -5.45962 -3.28944 0
M  V30 747 C 71.4969 -4.88602 -3.6703 0
M  V30 748 C 72.4949 -5.84668 -3.53062 0
M  V30 749 O 72.1829 -7.17365 -3.62826 0
M  V30 750 H 71.9149 -0.38367 -0.556573 0
M  V30 751 H 74.4689 -1.6398 -1.23693 0
M  V30 752 H 72.6989 -1.04835 -3.72218 0
M  V30 753 H 74.3879 -1.46226 -3.78646 0
M  V30 754 H 75.1539 -3.81577 -2.99372 0
M  V30 755 H 71.0329 -2.79188 -3.66844 0
M  V30 756 H 74.5769 -6.20925 -3.17958 0
M  V30 757 H 70.4739 -5.17653 -3.85623 0
M  V30 758 H 71.2419 -7.2515 -3.79605 0
M  V30 759 N 73.905 1.17692 -1.04816 0
M  V30 760 C 75.152 1.87859 -0.75599 0
M  V30 761 C 75.48 1.80812 0.716752 0
M  V30 762 O 74.735 1.20819 1.53952 0
M  V30 763 C 75.034 3.37462 -1.17703 0
M  V30 764 C 74.7 3.64713 -2.65133 0
M  V30 765 C 73.362 3.71859 -3.05408 0
M  V30 766 C 75.714 3.76492 -3.60421 0
M  V30 767 C 73.042 3.88271 -4.39843 0
M  V30 768 C 75.394 3.94421 -4.94585 0
M  V30 769 C 74.058 3.99806 -5.3452 0
M  V30 770 H 73.328 0.687425 -0.276636 0
M  V30 771 H 75.975 1.39255 -1.31455 0
M  V30 772 H 74.28 3.88097 -0.537395 0
M  V30 773 H 75.977 3.90109 -0.928218 0
M  V30 774 H 72.567 3.59772 -2.32942 0
M  V30 775 H 76.751 3.70295 -3.30447 0
M  V30 776 H 72.007 3.90687 -4.70291 0
M  V30 777 H 76.181 4.02477 -5.68318 0
M  V30 778 H 73.808 4.12276 -6.38696 0
M  V30 779 N 75.3831 0.828654 1.34056 0
M  V30 780 C 76.3311 0.242973 2.31327 0
M  V30 781 C 77.3251 -0.61944 1.57668 0
M  V30 782 O 78.5311 -0.51014 1.7262 0
M  V30 783 H 74.9061 0.059834 0.749616 0
M  V30 784 H 76.8771 1.07809 2.78244 0
M  V30 785 C 75.6261 -0.575733 3.429 0
M  V30 786 H 74.9491 0.0785582 3.99723 0
M  V30 787 H 76.3891 -0.951547 4.13185 0
M  V30 788 C 74.8481 -1.75044 2.87856 0
M  V30 789 O 75.3781 -2.84882 2.83205 0
M  V30 790 N 73.5841 -1.56903 2.44602 0
M  V30 791 H 73.1311 -0.675547 2.48584 0
M  V30 792 H 73.0891 -2.35652 2.08124 0
M  V30 793 N 76.8612 -1.46375 0.584142 0
M  V30 794 C 78.2772 -1.57694 0.245929 0
M  V30 795 C 78.4772 -1.57903 -1.25175 0
M  V30 796 O 77.5332 -1.49676 -2.03355 0
M  V30 797 C 78.8462 -2.87028 0.896402 0
M  V30 798 C 80.3942 -3.00662 0.870127 0
M  V30 799 C 80.8692 -4.32734 1.50017 0
M  V30 800 N 82.3602 -4.39436 1.46458 0
M  V30 801 C 83.0952 -5.40248 1.92144 0
M  V30 802 N 82.5912 -6.47726 2.4581 0
M  V30 803 N 84.3842 -5.31459 1.83052 0
M  V30 804 H 76.5352 -1.44483 1.55687 0
M  V30 805 H 78.7982 -0.689291 0.650831 0
M  V30 806 H 78.5042 -2.9269 1.95002 0
M  V30 807 H 78.3782 -3.75014 0.405486 0
M  V30 808 H 80.7652 -2.94581 -0.174871 0
M  V30 809 H 80.8462 -2.14148 1.39908 0
M  V30 810 H 80.4902 -4.39573 2.54437 0
M  V30 811 H 80.4202 -5.18025 0.946432 0
M  V30 812 H 82.9112 -3.62367 1.07231 0
M  V30 813 H 83.2242 -7.20863 2.78525 0
M  V30 814 H 81.5692 -6.48542 2.49836 0
M  V30 815 H 84.7602 -4.46396 1.40883 0
M  V30 816 H 84.9332 -6.09881 2.18973 0
M  V30 817 N 78.3393 -0.321999 -1.54275 0
M  V30 818 C 79.6163 0.335232 -1.92706 0
M  V30 819 C 79.9963 1.70006 -1.25145 0
M  V30 820 O 79.3443 2.25067 -0.394596 0
M  V30 821 C 79.5543 0.429008 -3.46353 0
M  V30 822 C 80.9023 0.690029 -4.18956 0
M  V30 823 O 81.9263 0.511992 -3.52501 0
M  V30 824 O 80.7853 1.03338 -5.36641 0
M  V30 825 H 77.8793 0.191143 -0.804608 0
M  V30 826 H 80.4253 -0.3716 -1.65581 0
M  V30 827 H 79.1973 -0.529611 -3.87699 0
M  V30 828 H 78.8203 1.18348 -3.79578 0
M  V30 829 N 79.8174 1.5752 -0.0501392 0
M  V30 830 C 81.0654 1.9227 0.622642 0
M  V30 831 C 81.3864 0.929083 1.71444 0
M  V30 832 O 80.6564 -0.0262186 1.95882 0
M  V30 833 H 79.2364 0.709739 0.232981 0
M  V30 834 H 81.8984 1.94628 -0.102898 0
M  V30 835 H 80.9944 2.93479 1.06191 0
M  V30 836 N 81.2955 -0.223234 1.56011 0
M  V30 837 C 82.2425 -1.27664 1.92277 0
M  V30 838 C 83.2125 -1.46659 0.779763 0
M  V30 839 O 84.3975 -1.60256 1.03551 0
M  V30 840 C 81.5375 -2.62234 2.24338 0
M  V30 841 C 80.6505 -2.51051 3.51564 0
M  V30 842 C 79.7855 -3.78133 3.7308 0
M  V30 843 C 78.8245 -3.61665 4.93827 0
M  V30 844 N 77.9615 -4.80693 5.11741 0
M  V30 845 H 82.8015 -0.960358 2.82101 0
M  V30 846 H 80.3385 -0.462901 1.39627 0
M  V30 847 H 82.2965 -3.40596 2.40936 0
M  V30 848 H 80.9265 -2.91961 1.3769 0
M  V30 849 H 79.9785 -1.64132 3.43169 0
M  V30 850 H 81.2905 -2.34803 4.40079 0
M  V30 851 H 80.4445 -4.64938 3.89766 0
M  V30 852 H 79.1835 -3.97304 2.82844 0
M  V30 853 H 78.1885 -2.73244 4.77093 0
M  V30 854 H 79.4135 -3.43966 5.85546 0
M  V30 855 H 77.3595 -5.00181 4.24446 0
M  V30 856 H 77.2765 -4.67165 5.94384 0
M  V30 857 H 78.5445 -5.6893 5.3286 0
M  V30 858 N 82.7736 -1.49793 -0.48987 0
M  V30 859 C 83.9986 -1.63836 -1.27172 0
M  V30 860 C 84.4236 -0.31402 -1.8546 0
M  V30 861 O 83.7816 0.719803 -1.66399 0
M  V30 862 C 83.8296 -2.71797 -2.36978 0
M  V30 863 O 82.9336 -2.31744 -3.41128 0
M  V30 864 H 82.2746 -0.547997 -0.37496 0
M  V30 865 H 84.8046 -1.96053 -0.585191 0
M  V30 866 H 84.8146 -2.94305 -2.82575 0
M  V30 867 H 83.4896 -3.67923 -1.93921 0
M  V30 868 H 82.0666 -2.1961 -3.01373 0
M  V30 869 N 84.2517 0.741722 -1.39055 0
M  V30 870 C 85.4997 1.49818 -1.35643 0
M  V30 871 C 85.8207 1.94938 0.0491642 0
M  V30 872 O 85.0907 1.68505 0.999141 0
M  V30 873 H 83.6707 0.555755 -0.499144 0
M  V30 874 H 86.3327 0.880957 -1.73854 0
M  V30 875 H 85.4287 2.38348 -2.01486 0
M  V30 876 N 85.7298 1.2412 0.971189 0
M  V30 877 C 86.9548 1.10667 1.75407 0
M  V30 878 C 87.3798 -0.337048 1.85056 0
M  V30 879 O 86.7378 -1.24396 1.31892 0
M  V30 880 C 86.7858 1.74726 3.15441 0
M  V30 881 O 85.8898 1.01566 3.99697 0
M  V30 882 H 85.2308 0.387341 0.539317 0
M  V30 883 H 87.7608 1.64358 1.2185 0
M  V30 884 H 87.7708 1.80341 3.6598 0
M  V30 885 H 86.4458 2.79773 3.07734 0
M  V30 886 H 85.0228 1.03713 3.58187 0
M  V30 887 N 87.2079 -1.17134 1.05439 0
M  V30 888 C 88.4559 -1.87085 0.764429 0
M  V30 889 C 88.7769 -1.81584 -0.710787 0
M  V30 890 O 88.0469 -1.24349 -1.51374 0
M  V30 891 H 86.6269 -0.692627 0.279779 0
M  V30 892 H 89.2889 -1.42087 1.33406 0
M  V30 893 H 88.3849 -2.92759 1.0816 0
M  V30 894 N 88.686 -0.835752 -1.33615 0
M  V30 895 C 89.963 -0.352017 -1.92406 0
M  V30 896 C 90.343 1.16225 -1.76224 0
M  V30 897 O 89.691 1.97526 -1.14873 0
M  V30 898 C 89.901 -0.795485 -3.39813 0
M  V30 899 C 91.249 -0.801703 -4.16963 0
M  V30 900 O 92.273 -0.738889 -3.48452 0
M  V30 901 O 91.132 -0.886607 -5.3926 0
M  V30 902 H 88.226 -0.0989641 -0.821057 0
M  V30 903 H 90.772 -0.921397 -1.42507 0
M  V30 904 H 89.544 -1.83795 -3.45449 0
M  V30 905 H 89.167 -0.202505 -3.97084 0
M  V30 906 N 90.1641 1.46063 -0.591896 0
M  V30 907 C 91.5801 1.57561 -0.254288 0
M  V30 908 C 91.7801 1.58565 1.24336 0
M  V30 909 O 90.8361 1.50753 2.02558 0
M  V30 910 C 92.1491 2.86549 -0.911611 0
M  V30 911 C 93.6971 3.00197 -0.886059 0
M  V30 912 C 94.1721 4.31933 -1.5231 0
M  V30 913 N 95.6631 4.38654 -1.48786 0
M  V30 914 C 96.3981 5.39222 -1.95006 0
M  V30 915 N 95.8941 6.46414 -2.49241 0
M  V30 916 N 97.6871 5.3048 -1.85868 0
M  V30 917 H 89.8381 1.43655 -1.56451 0
M  V30 918 H 92.1011 0.68583 -0.654478 0
M  V30 919 H 91.8071 2.91651 -1.96551 0
M  V30 920 H 91.6811 3.74794 -0.425368 0
M  V30 921 H 94.0681 2.9467 0.159246 0
M  V30 922 H 94.1491 2.13403 -1.41041 0
M  V30 923 H 93.7931 4.38217 -2.56765 0
M  V30 924 H 93.7231 5.17516 -0.973891 0
M  V30 925 H 96.2141 3.61793 -1.09151 0
M  V30 926 H 96.5271 7.19376 -2.82344 0
M  V30 927 H 94.8721 6.47208 -2.53272 0
M  V30 928 H 98.0631 4.45643 -1.43248 0
M  V30 929 H 98.2361 6.08711 -2.22204 0
M  V30 930 N 91.6422 0.330177 1.54103 0
M  V30 931 C 92.8882 -0.270806 2.00984 0
M  V30 932 C 93.2212 -1.51265 1.21789 0
M  V30 933 O 92.4962 -1.92142 0.301927 0
M  V30 934 C 92.7792 -0.598339 3.55094 0
M  V30 935 C 92.6322 0.654674 4.4501 0
M  V30 936 C 93.9512 -1.41334 4.16789 0
M  V30 937 H 91.0702 -0.0969531 0.730595 0
M  V30 938 H 93.7122 0.448066 1.84641 0
M  V30 939 H 91.8622 -1.21078 3.69151 0
M  V30 940 H 93.5342 1.29285 4.42813 0
M  V30 941 H 91.7772 1.28224 4.14416 0
M  V30 942 H 92.4482 0.380944 5.50684 0
M  V30 943 H 94.9242 -0.895597 4.06347 0
M  V30 944 H 93.8002 -1.61127 5.24718 0
M  V30 945 H 94.0612 -2.41146 3.70541 0
M  V30 946 N 93.1203 -1.57491 0.0584922 0
M  V30 947 C 94.3973 -1.84346 -0.653918 0
M  V30 948 C 94.7773 -0.948355 -1.88599 0
M  V30 949 O 94.1253 -0.0112403 -2.28497 0
M  V30 950 C 94.3353 -3.34239 -1.00425 0
M  V30 951 C 95.6833 -4.01431 -1.38342 0
M  V30 952 O 96.7073 -3.38907 -1.09637 0
M  V30 953 O 95.5663 -5.11683 -1.91943 0
M  V30 954 H 92.6603 -0.761112 -0.323478 0
M  V30 955 H 95.2063 -1.6947 0.0884125 0
M  V30 956 H 93.9783 -3.91089 -0.128625 0
M  V30 957 H 93.6013 -3.54329 -1.80378 0
M  V30 958 N 94.5984 0.214957 -1.56127 0
M  V30 959 C 95.8444 0.935325 -1.80619 0
M  V30 960 C 96.1994 1.81706 -0.632507 0
M  V30 961 O 95.4924 1.87931 0.373182 0
M  V30 962 C 95.6864 1.80314 -3.0858 0
M  V30 963 C 95.5154 1.00691 -4.38282 0
M  V30 964 C 94.2854 0.699211 -5.00439 0
M  V30 965 C 96.4834 0.369057 -5.12974 0
M  V30 966 N 94.4654 -0.117734 -6.13787 0
M  V30 967 C 95.8364 -0.310981 -6.1922 0
M  V30 968 C 97.8914 0.282759 -4.97096 0
M  V30 969 C 96.5944 -1.06907 -7.11311 0
M  V30 970 C 98.6204 -0.461881 -5.89594 0
M  V30 971 C 97.9824 -1.13044 -6.9527 0
M  V30 972 H 94.0814 0.322307 -0.71249 0
M  V30 973 H 96.6654 0.205649 -1.93611 0
M  V30 974 H 94.8364 2.50458 -2.96859 0
M  V30 975 H 96.5684 2.46148 -3.21237 0
M  V30 976 H 93.3234 1.01884 -4.62511 0
M  V30 977 H 93.7474 -0.515235 -6.75037 0
M  V30 978 H 98.3894 0.785292 -4.15443 0
M  V30 979 H 96.1074 -1.5831 -7.92442 0
M  V30 980 H 99.6934 -0.529746 -5.79383 0
M  V30 981 H 98.5734 -1.69742 -7.65609 0
M  V30 982 N 96.0765 1.50051 0.48192 0
M  V30 983 C 97.3045 1.64237 1.25832 0
M  V30 984 C 97.7195 0.321336 1.86045 0
M  V30 985 O 97.0765 -0.695478 1.68729 0
M  V30 986 C 97.1275 2.72548 2.37487 0
M  V30 987 O 96.8485 3.99529 1.79745 0
M  V30 988 C 98.3495 2.9761 3.28547 0
M  V30 989 H 95.5695 0.55237 0.380957 0
M  V30 990 H 98.1135 1.96207 0.576467 0
M  V30 991 H 96.2685 2.43303 3.01467 0
M  V30 992 H 96.6825 4.59342 2.5319 0
M  V30 993 H 98.1565 3.77084 4.03127 0
M  V30 994 H 98.6335 2.0826 3.86684 0
M  V30 995 H 99.2395 3.28345 2.70314 0
M  V30 996 N 97.5546 -0.734337 1.39446 0
M  V30 997 C 98.4866 -1.85861 1.34121 0
M  V30 998 C 99.4996 -1.60871 0.249864 0
M  V30 999 O 100.689 -1.71093 0.508865 0
M  V30 1000 C 97.7886 -3.21899 1.05991 0
M  V30 1001 C 96.9616 -3.74239 2.26415 0
M  V30 1002 C 96.0206 -4.88841 1.94733 0
M  V30 1003 O 95.0466 -5.02468 2.67422 0
M  V30 1004 N 96.2486 -5.73261 0.913884 0
M  V30 1005 H 99.0136 -1.90934 2.31007 0
M  V30 1006 H 96.5746 -0.915102 1.33557 0
M  V30 1007 H 98.5666 -3.96136 0.828147 0
M  V30 1008 H 97.1366 -3.12091 0.178361 0
M  V30 1009 H 96.3566 -2.91347 2.65539 0
M  V30 1010 H 97.6446 -4.05942 3.06738 0
M  V30 1011 H 97.0426 -5.64842 0.311476 0
M  V30 1012 H 95.5996 -6.47563 0.742015 0
M  V30 1013 N 99.0327 -1.24633 -0.964593 0
M  V30 1014 C 100.281 -1.08573 -1.70459 0
M  V30 1015 C 100.602 0.375655 -1.91347 0
M  V30 1016 O 99.8717 1.26779 -1.49345 0
M  V30 1017 H 98.4517 -0.398784 -0.631649 0
M  V30 1018 H 101.114 -1.56601 -1.16026 0
M  V30 1019 H 100.21 -1.58623 -2.68785 0
M  V30 1020 N 100.511 1.16574 -1.06058 0
M  V30 1021 C 101.758 1.87047 -0.775873 0
M  V30 1022 C 102.086 1.81562 0.697534 0
M  V30 1023 O 101.341 1.22445 1.52662 0
M  V30 1024 C 101.64 3.36195 -1.21275 0
M  V30 1025 C 101.306 3.6188 -2.68986 0
M  V30 1026 C 99.9678 3.68599 -3.09335 0
M  V30 1027 C 102.32 3.72648 -3.64394 0
M  V30 1028 C 99.6478 3.83584 -4.43937 0
M  V30 1029 C 102 3.89154 -4.98741 0
M  V30 1030 C 100.664 3.94114 -5.3873 0
M  V30 1031 H 99.9338 0.684452 -0.283912 0
M  V30 1032 H 102.581 1.37853 -1.32925 0
M  V30 1033 H 100.886 3.87505 -0.578528 0
M  V30 1034 H 102.583 3.89103 -0.969542 0
M  V30 1035 H 99.1728 3.57281 -2.36744 0
M  V30 1036 H 103.357 3.66769 -3.34356 0
M  V30 1037 H 98.6128 3.85677 -4.74409 0
M  V30 1038 H 102.787 3.96427 -5.72554 0
M  V30 1039 H 100.414 4.05478 -6.43033 0
M  V30 1040 N 101.989 0.842826 1.3317 0
M  V30 1041 C 102.919 0.294028 2.31641 0
M  V30 1042 C 103.9 -0.600401 1.59151 0
M  V30 1043 O 105.085 -0.523124 1.87022 0
M  V30 1044 C 102.215 -0.528416 3.43257 0
M  V30 1045 C 101.169 0.27056 4.27144 0
M  V30 1046 C 100.495 -0.675881 5.30411 0
M  V30 1047 C 101.795 1.48981 5.00602 0
M  V30 1048 H 103.489 1.11681 2.77791 0
M  V30 1049 H 101.035 0.538478 1.33553 0
M  V30 1050 H 102.988 -0.922674 4.11175 0
M  V30 1051 H 101.712 -1.38445 2.95805 0
M  V30 1052 H 100.371 0.646427 3.60856 0
M  V30 1053 H 100.019 -1.52842 4.79216 0
M  V30 1054 H 99.7189 -0.145374 5.8742 0
M  V30 1055 H 101.243 -1.06757 6.01195 0
M  V30 1056 H 102.657 1.16849 5.61266 0
M  V30 1057 H 101.054 1.95739 5.6728 0
M  V30 1058 H 102.124 2.25746 4.29147 0
M  V30 1059 N 103.467 -1.45747 0.599634 0
M  V30 1060 C 104.695 -2.06668 0.0978551 0
M  V30 1061 C 105.11 -1.44562 -1.21439 0
M  V30 1062 O 104.467 -0.556923 -1.73795 0
M  V30 1063 C 104.518 -3.61456 -0.0567044 0
M  V30 1064 O 104.239 -4.21242 1.20361 0
M  V30 1065 C 105.74 -4.39345 -0.590869 0
M  V30 1066 H 102.96 -0.667825 0.0651943 0
M  V30 1067 H 105.504 -1.87115 0.82511 0
M  V30 1068 H 103.659 -3.80378 -0.734251 0
M  V30 1069 H 104.073 -5.14323 1.02821 0
M  V30 1070 H 105.547 -5.48182 -0.648131 0
M  V30 1071 H 106.024 -4.08568 -1.61147 0
M  V30 1072 H 106.63 -4.25268 0.0523679 0
M  V30 1073 N 104.945 -0.338344 -1.53925 0
M  V30 1074 C 106.173 0.261298 -2.05243 0
M  V30 1075 C 106.588 1.44625 -1.21363 0
M  V30 1076 O 105.945 1.80811 -0.247736 0
M  V30 1077 C 105.996 0.681412 -3.5502 0
M  V30 1078 O 105.717 -0.456414 -4.35716 0
M  V30 1079 C 107.218 1.34232 -4.22489 0
M  V30 1080 H 104.438 0.0513685 -0.669031 0
M  V30 1081 H 106.982 -0.488822 -1.98572 0
M  V30 1082 H 105.137 1.38148 -3.61931 0
M  V30 1083 H 105.551 -0.122564 -5.24357 0
M  V30 1084 H 107.025 1.58708 -5.28693 0
M  V30 1085 H 107.502 2.29426 -3.74514 0
M  V30 1086 H 108.108 0.684424 -4.19757 0
M  V30 1087 N 106.423 1.57458 -0.0668435 0
M  V30 1088 C 107.653 1.97337 0.611677 0
M  V30 1089 C 108.061 0.943744 1.63982 0
M  V30 1090 O 107.404 -0.0785584 1.83532 0
M  V30 1091 C 107.466 3.33511 1.34205 0
M  V30 1092 C 107.13 4.54598 0.467941 0
M  V30 1093 C 108.127 5.19186 -0.272439 0
M  V30 1094 C 105.812 5.0075 0.39427 0
M  V30 1095 C 107.806 6.28274 -1.07476 0
M  V30 1096 C 105.493 6.09711 -0.411729 0
M  V30 1097 C 106.491 6.73335 -1.14492 0
M  V30 1098 O 106.179 7.80199 -1.93763 0
M  V30 1099 H 105.911 0.654042 0.170893 0
M  V30 1100 H 108.465 2.04961 -0.134289 0
M  V30 1101 H 106.695 3.22487 2.13398 0
M  V30 1102 H 108.384 3.58029 1.91233 0
M  V30 1103 H 109.15 4.84477 -0.225086 0
M  V30 1104 H 105.029 4.51009 0.954569 0
M  V30 1105 H 108.573 6.77866 -1.64755 0
M  V30 1106 H 104.47 6.43854 -0.460664 0
M  V30 1107 H 105.238 7.97053 -1.86142 0
M  V30 1108 N 107.901 -0.206675 1.56239 0
M  V30 1109 C 108.811 -1.27686 1.96808 0
M  V30 1110 C 109.827 -1.50455 0.874035 0
M  V30 1111 O 111.003 -1.63295 1.17884 0
M  V30 1112 C 108.068 -2.60358 2.28942 0
M  V30 1113 C 107.129 -2.45762 3.51994 0
M  V30 1114 C 106.362 -3.72108 3.82585 0
M  V30 1115 O 106.585 -4.75776 3.14631 0
M  V30 1116 O 105.519 -3.6833 4.76043 0
M  V30 1117 H 109.345 -0.962593 2.88041 0
M  V30 1118 H 106.93 -0.410746 1.43643 0
M  V30 1119 H 108.812 -3.38687 2.50737 0
M  V30 1120 H 107.487 -2.91435 1.4088 0
M  V30 1121 H 106.394 -1.65584 3.35459 0
M  V30 1122 H 107.727 -2.19621 4.40486 0
M  V30 1123 N 109.379 -1.50304 -0.473955 0
M  V30 1124 C 110.604 -1.65175 -1.25427 0
M  V30 1125 C 111.029 -0.333673 -1.85117 0
M  V30 1126 O 110.387 0.702114 -1.67153 0
M  V30 1127 C 110.435 -2.74295 -2.34082 0
M  V30 1128 O 109.539 -2.35349 -3.38651 0
M  V30 1129 H 108.88 -0.551944 -0.369126 0
M  V30 1130 H 111.41 -1.96662 -0.564364 0
M  V30 1131 H 111.42 -2.97285 -2.79438 0
M  V30 1132 H 110.095 -3.69959 -1.90008 0
M  V30 1133 H 108.672 -2.22794 -2.99027 0
M  V30 1134 N 110.857 0.726932 -1.39834 0
M  V30 1135 C 112.105 1.4837 -1.37225 0
M  V30 1136 C 112.426 1.94979 0.0284857 0
M  V30 1137 O 111.696 1.69555 0.981213 0
M  V30 1138 H 110.276 0.55043 -0.505011 0
M  V30 1139 H 112.938 0.862468 -1.74778 0
M  V30 1140 H 112.034 2.36198 -2.04003 0
M  V30 1141 N 112.336 1.25143 0.95797 0
M  V30 1142 C 113.583 1.09692 1.70217 0
M  V30 1143 C 113.911 -0.362654 1.91089 0
M  V30 1144 O 113.166 -1.28386 1.47701 0
M  V30 1145 C 113.465 1.79272 3.09187 0
M  V30 1146 C 113.131 3.29196 3.08125 0
M  V30 1147 C 111.793 3.70096 3.07543 0
M  V30 1148 C 114.145 4.24995 3.0171 0
M  V30 1149 C 111.473 5.05213 2.9829 0
M  V30 1150 C 113.825 5.60132 2.93999 0
M  V30 1151 C 112.489 6.00365 2.9175 0
M  V30 1152 H 111.759 0.401393 0.622868 0
M  V30 1153 H 114.406 1.55372 1.11945 0
M  V30 1154 H 112.711 1.26014 3.70982 0
M  V30 1155 H 114.408 1.64773 3.65583 0
M  V30 1156 H 110.998 2.96651 3.09348 0
M  V30 1157 H 115.182 3.9439 3.01281 0
M  V30 1158 H 110.438 5.35569 2.94916 0
M  V30 1159 H 114.612 6.3406 2.87996 0
M  V30 1160 H 112.239 7.05023 2.84336 0
M  V30 1161 N 113.814 -1.1601 1.06675 0
M  V30 1162 C 115.042 -1.90527 0.806667 0
M  V30 1163 C 115.457 -1.77643 -0.639396 0
M  V30 1164 O 114.814 -1.12369 -1.43803 0
M  V30 1165 C 114.865 -3.41106 1.19705 0
M  V30 1166 O 114.586 -3.53608 2.58636 0
M  V30 1167 C 116.087 -4.32663 0.965266 0
M  V30 1168 H 113.307 -0.604053 0.292166 0
M  V30 1169 H 115.851 -1.47026 1.4214 0
M  V30 1170 H 114.006 -3.82296 0.626774 0
M  V30 1171 H 114.42 -4.47011 2.74375 0
M  V30 1172 H 115.894 -5.36763 1.288 0
M  V30 1173 H 116.371 -4.39089 -0.0987936 0
M  V30 1174 H 116.977 -3.97206 1.52011 0
M  V30 1175 N 115.292 -0.849877 -1.32721 0
M  V30 1176 C 116.224 -0.248332 -2.27851 0
M  V30 1177 C 117.237 0.577218 -1.52224 0
M  V30 1178 O 118.426 0.402489 -1.73903 0
M  V30 1179 C 115.526 0.668107 -3.32249 0
M  V30 1180 C 114.699 -0.120534 -4.37234 0
M  V30 1181 C 113.758 0.720932 -5.21238 0
M  V30 1182 O 112.784 0.156166 -5.68986 0
M  V30 1183 N 113.986 2.03647 -5.43607 0
M  V30 1184 H 116.751 -1.06575 -2.80111 0
M  V30 1185 H 114.312 -0.709395 -1.45531 0
M  V30 1186 H 116.304 1.23627 -3.85355 0
M  V30 1187 H 114.874 1.38621 -2.80184 0
M  V30 1188 H 114.094 -0.870108 -3.84477 0
M  V30 1189 H 115.382 -0.662406 -5.0447 0
M  V30 1190 H 114.78 2.51871 -5.06535 0
M  V30 1191 H 113.337 2.55287 -5.99727 0
M  V30 1192 N 116.77 1.45427 -0.607355 0
M  V30 1193 C 118.018 2.01841 -0.102253 0
M  V30 1194 C 118.339 1.47832 1.27164 0
M  V30 1195 O 117.609 0.672497 1.83995 0
M  V30 1196 H 116.189 0.746188 -0.0348101 0
M  V30 1197 H 118.851 1.78229 -0.7887 0
M  V30 1198 H 117.947 3.12057 -0.0518585 0
M  V30 1199 N 118.248 0.346503 1.53744 0
M  V30 1200 C 119.476 -0.25041 2.05379 0
M  V30 1201 C 119.891 -1.43979 1.22129 0
M  V30 1202 O 119.248 -1.80677 0.257321 0
M  V30 1203 C 119.299 -0.662575 3.55376 0
M  V30 1204 O 119.02 0.479515 4.35468 0
M  V30 1205 C 120.521 -1.31989 4.23195 0
M  V30 1206 H 117.741 -0.0478198 0.669294 0
M  V30 1207 H 120.285 0.499346 1.9831 0
M  V30 1208 H 118.44 -1.36227 3.62658 0
M  V30 1209 H 118.854 0.15037 5.24284 0
M  V30 1210 H 120.328 -1.55902 5.29527 0
M  V30 1211 H 120.805 -2.27436 3.75725 0
M  V30 1212 H 121.411 -0.662154 4.20114 0
M  V30 1213 N 119.726 -1.57421 0.075193 0
M  V30 1214 C 120.972 -1.93905 -0.594025 0
M  V30 1215 C 121.305 -0.955701 -1.69056 0
M  V30 1216 O 120.58 0.0145373 -1.94495 0
M  V30 1217 C 120.863 -3.40638 -1.1678 0
M  V30 1218 C 120.716 -4.49733 -0.0776792 0
M  V30 1219 C 122.035 -3.88259 -2.07228 0
M  V30 1220 H 119.154 -0.705105 -0.214466 0
M  V30 1221 H 121.796 -1.8947 0.141854 0
M  V30 1222 H 119.946 -3.44549 -1.79494 0
M  V30 1223 H 121.618 -4.57942 0.555573 0
M  V30 1224 H 119.861 -4.29751 0.591286 0
M  V30 1225 H 120.532 -5.49549 -0.519603 0
M  V30 1226 H 123.008 -3.86376 -1.54445 0
M  V30 1227 H 121.884 -4.91533 -2.44308 0
M  V30 1228 H 122.145 -3.26396 -2.98191 0
M  V30 1229 N 121.204 0.198386 -1.56346 0
M  V30 1230 C 122.452 0.91747 -1.80075 0
M  V30 1231 C 122.773 1.83929 -0.647692 0
M  V30 1232 O 122.043 1.93029 0.334166 0
M  V30 1233 H 120.623 0.341774 -0.664228 0
M  V30 1234 H 123.285 0.204684 -1.93822 0
M  V30 1235 H 122.381 1.51055 -2.7311 0
M  V30 1236 N 122.682 1.50554 0.465978 0
M  V30 1237 C 123.929 1.61798 1.21768 0
M  V30 1238 C 124.257 0.320696 1.91838 0
M  V30 1239 O 123.512 -0.693724 1.82992 0
M  V30 1240 C 123.811 2.75152 2.28093 0
M  V30 1241 C 123.477 4.15454 1.75239 0
M  V30 1242 C 122.139 4.53628 1.60546 0
M  V30 1243 C 124.491 5.03121 1.36083 0
M  V30 1244 C 121.819 5.77204 1.05128 0
M  V30 1245 C 124.171 6.27249 0.821056 0
M  V30 1246 C 122.835 6.64221 0.660795 0
M  V30 1247 H 122.105 0.592063 0.445582 0
M  V30 1248 H 124.752 1.84503 0.512927 0
M  V30 1249 H 123.057 2.46556 3.04496 0
M  V30 1250 H 124.754 2.81055 2.86023 0
M  V30 1251 H 121.344 3.85341 1.87644 0
M  V30 1252 H 125.528 4.74257 1.46267 0
M  V30 1253 H 120.784 6.0452 0.91462 0
M  V30 1254 H 124.958 6.94537 0.509018 0
M  V30 1255 H 122.585 7.59854 0.229226 0
M  V30 1256 N 124.16 -0.719506 1.40217 0
M  V30 1257 C 125.408 -1.47641 1.3801 0
M  V30 1258 C 125.729 -1.94992 -0.018145 0
M  V30 1259 O 124.999 -1.70073 -0.972207 0
M  V30 1260 H 123.579 -0.547744 0.507923 0
M  V30 1261 H 126.241 -0.853187 1.75233 0
M  V30 1262 H 125.337 -2.35112 2.05253 0
M  V30 1263 N 125.638 -1.25649 -0.95132 0
M  V30 1264 C 126.884 -1.10757 -1.69884 0
M  V30 1265 C 127.217 0.350061 -1.91019 0
M  V30 1266 O 126.492 1.25783 -1.48354 0
M  V30 1267 C 126.775 -1.86606 -3.07978 0
M  V30 1268 C 126.628 -3.40217 -2.94232 0
M  V30 1269 C 127.947 -1.65182 -4.07925 0
M  V30 1270 H 125.066 -0.40374 -0.616574 0
M  V30 1271 H 127.708 -1.54521 -1.10558 0
M  V30 1272 H 125.858 -1.49409 -3.58621 0
M  V30 1273 H 127.53 -3.87108 -2.50889 0
M  V30 1274 H 125.773 -3.67759 -2.30078 0
M  V30 1275 H 126.444 -3.88505 -3.92133 0
M  V30 1276 H 128.92 -1.9757 -3.66204 0
M  V30 1277 H 127.796 -2.20683 -5.02583 0
M  V30 1278 H 128.057 -0.593933 -4.38092 0
M  V30 1279 N 127.117 1.15442 -1.07289 0
M  V30 1280 C 128.394 1.82306 -0.708792 0
M  V30 1281 C 128.774 1.94991 0.808807 0
M  V30 1282 O 128.122 1.50085 1.72298 0
M  V30 1283 C 128.332 3.18695 -1.42247 0
M  V30 1284 C 129.68 3.94341 -1.57417 0
M  V30 1285 O 130.704 3.28247 -1.38319 0
M  V30 1286 O 129.563 5.12839 -1.88834 0
M  V30 1287 H 126.657 0.787628 -0.252132 0
M  V30 1288 H 129.203 1.22559 -1.17377 0
M  V30 1289 H 127.975 3.04557 -2.45684 0
M  V30 1290 H 127.598 3.86128 -0.948223 0
M  V30 1291 N 128.595 0.856903 1.32268 0
M  V30 1292 C 129.558 0.308171 2.27119 0
M  V30 1293 C 130.558 -0.533421 1.51695 0
M  V30 1294 O 131.748 -0.344607 1.70757 0
M  V30 1295 C 128.88 -0.563757 3.36206 0
M  V30 1296 H 130.073 1.14535 2.77167 0
M  V30 1297 H 127.626 0.631421 1.42978 0
M  V30 1298 H 128.361 -1.42266 2.91429 0
M  V30 1299 H 128.146 0.0386749 3.92081 0
M  V30 1300 H 129.636 -0.940386 4.06874 0
M  V30 1301 N 130.073 -1.45103 0.615059 0
M  V30 1302 C 131.32 -2.02183 0.113179 0
M  V30 1303 C 131.648 -1.48249 -1.25906 0
M  V30 1304 O 130.903 -0.650265 -1.84581 0
M  V30 1305 C 131.202 -3.57386 0.0318797 0
M  V30 1306 C 130.868 -4.30505 1.34077 0
M  V30 1307 C 129.53 -4.50197 1.69929 0
M  V30 1308 C 131.882 -4.72238 2.20546 0
M  V30 1309 C 129.21 -5.08881 2.91988 0
M  V30 1310 C 131.562 -5.32272 3.41861 0
M  V30 1311 C 130.226 -5.50187 3.77956 0
M  V30 1312 H 129.496 -0.739842 0.0414151 0
M  V30 1313 H 132.143 -1.74073 0.798168 0
M  V30 1314 H 130.448 -3.84817 -0.736409 0
M  V30 1315 H 132.145 -3.99264 -0.372712 0
M  V30 1316 H 128.735 -4.15496 1.05173 0
M  V30 1317 H 132.919 -4.56751 1.94146 0
M  V30 1318 H 128.175 -5.20939 3.2005 0
M  V30 1319 H 132.349 -5.63563 4.09109 0
M  V30 1320 H 129.976 -5.95427 4.72622 0
M  V30 1321 N 131.551 -0.354651 -1.53558 0
M  V30 1322 C 132.799 0.237972 -2.00694 0
M  V30 1323 C 133.12 1.50173 -1.24391 0
M  V30 1324 O 132.39 1.92673 -0.354135 0
M  V30 1325 H 130.97 0.0909256 -0.741446 0
M  V30 1326 H 133.632 -0.478368 -1.88938 0
M  V30 1327 H 132.728 0.47264 -3.085 0
M  V30 1328 N 133.029 1.57378 -0.0835403 0
M  V30 1329 C 134.259 1.97975 0.590713 0
M  V30 1330 C 134.667 0.961083 1.62972 0
M  V30 1331 O 134.01 -0.0590879 1.83605 0
M  V30 1332 C 134.072 3.34915 1.3066 0
M  V30 1333 C 133.736 4.55069 0.419698 0
M  V30 1334 C 134.733 5.18868 -0.32749 0
M  V30 1335 C 132.418 5.0114 0.341137 0
M  V30 1336 C 134.412 6.27098 -1.14134 0
M  V30 1337 C 132.099 6.0924 -0.476374 0
M  V30 1338 C 133.097 6.72083 -1.21627 0
M  V30 1339 O 132.785 7.781 -2.02028 0
M  V30 1340 H 132.517 0.655818 0.163947 0
M  V30 1341 H 135.071 2.04807 -0.156021 0
M  V30 1342 H 133.301 3.24733 2.09966 0
M  V30 1343 H 134.99 3.60037 1.87424 0
M  V30 1344 H 135.756 4.84211 -0.276459 0
M  V30 1345 H 131.635 4.51996 0.90668 0
M  V30 1346 H 135.179 6.7608 -1.71935 0
M  V30 1347 H 131.076 6.43329 -0.528927 0
M  V30 1348 H 131.844 7.95034 -1.94586 0
M  V30 1349 N 134.507 -0.190092 1.56449 0
M  V30 1350 C 135.437 -1.23816 1.97969 0
M  V30 1351 C 136.418 -1.47201 0.852395 0
M  V30 1352 O 137.603 -1.58854 1.1171 0
M  V30 1353 C 134.733 -2.5813 2.3235 0
M  V30 1354 C 133.687 -2.49348 3.47864 0
M  V30 1355 C 133.013 -3.8798 3.67934 0
M  V30 1356 C 134.313 -2.01424 4.81898 0
M  V30 1357 H 136.007 -0.89311 2.85769 0
M  V30 1358 H 133.553 -0.428177 1.37487 0
M  V30 1359 H 135.506 -3.31637 2.59991 0
M  V30 1360 H 134.23 -2.94386 1.41438 0
M  V30 1361 H 132.889 -1.78297 3.20321 0
M  V30 1362 H 132.537 -4.21597 2.74344 0
M  V30 1363 H 132.237 -3.82978 4.45648 0
M  V30 1364 H 133.761 -4.63101 3.97957 0
M  V30 1365 H 135.175 -2.64693 5.08538 0
M  V30 1366 H 133.572 -2.07413 5.63116 0
M  V30 1367 H 134.642 -0.967677 4.75146 0
M  V30 1368 N 135.985 -1.50799 -0.457987 0
M  V30 1369 C 137.233 -1.62121 -1.2067 0
M  V30 1370 C 137.554 -0.329793 -1.92191 0
M  V30 1371 O 136.824 0.653409 -1.84682 0
M  V30 1372 H 135.404 -0.597441 -0.448411 0
M  V30 1373 H 138.066 -1.87637 -0.527096 0
M  V30 1374 H 137.162 -2.43882 -1.94751 0
M  V30 1375 N 137.463 0.71206 -1.40597 0
M  V30 1376 C 138.393 1.83889 -1.43899 0
M  V30 1377 C 139.374 1.67442 -0.299504 0
M  V30 1378 O 140.559 1.87421 -0.508624 0
M  V30 1379 C 137.689 3.21877 -1.30431 0
M  V30 1380 C 136.643 3.53002 -2.42019 0
M  V30 1381 C 135.969 4.90172 -2.13626 0
M  V30 1382 C 137.269 3.53643 -3.84362 0
M  V30 1383 H 138.963 1.81383 -2.38203 0
M  V30 1384 H 136.509 0.871237 -1.14654 0
M  V30 1385 H 138.462 4.00404 -1.31357 0
M  V30 1386 H 137.186 3.24968 -0.326049 0
M  V30 1387 H 135.845 2.76818 -2.40349 0
M  V30 1388 H 135.493 4.89869 -1.14182 0
M  V30 1389 H 135.193 5.11962 -2.88389 0
M  V30 1390 H 136.717 5.71028 -2.1624 0
M  V30 1391 H 138.131 4.22203 -3.87837 0
M  V30 1392 H 136.528 3.86961 -4.58673 0
M  V30 1393 H 137.598 2.52954 -4.13693 0
M  V30 1394 N 138.941 1.26152 0.944643 0
M  V30 1395 C 139.888 1.07408 2.04285 0
M  V30 1396 C 140.858 -0.0198413 1.66088 0
M  V30 1397 O 142.043 0.139264 1.90291 0
M  V30 1398 C 139.183 0.70945 3.37729 0
M  V30 1399 C 138.296 1.87926 3.88983 0
M  V30 1400 C 137.431 1.45807 5.10797 0
M  V30 1401 C 136.47 2.5964 5.54305 0
M  V30 1402 N 135.607 2.18226 6.67324 0
M  V30 1403 H 140.447 2.01389 2.1965 0
M  V30 1404 H 137.984 1.00275 1.07626 0
M  V30 1405 H 139.942 0.478948 4.14442 0
M  V30 1406 H 138.572 -0.193389 3.2222 0
M  V30 1407 H 137.624 2.22279 3.08701 0
M  V30 1408 H 138.936 2.73377 4.17213 0
M  V30 1409 H 138.09 1.18781 5.94959 0
M  V30 1410 H 136.829 0.574414 4.84305 0
M  V30 1411 H 135.834 2.87399 4.68702 0
M  V30 1412 H 137.059 3.48599 5.828 0
M  V30 1413 H 135.005 1.3229 6.42523 0
M  V30 1414 H 134.922 2.97221 6.95123 0
M  V30 1415 H 136.19 1.94403 7.54869 0
M  V30 1416 N 140.419 -1.14872 1.07899 0
M  V30 1417 C 141.349 -2.2193 0.725887 0
M  V30 1418 C 142.33 -1.67622 -0.28927 0
M  V30 1419 O 143.515 -1.93533 -0.160787 0
M  V30 1420 C 140.645 -3.47061 0.128856 0
M  V30 1421 C 139.599 -4.14363 1.07178 0
M  V30 1422 C 138.925 -5.33636 0.337229 0
M  V30 1423 C 140.225 -4.63492 2.40775 0
M  V30 1424 H 141.919 -2.51724 1.62097 0
M  V30 1425 H 139.465 -1.20991 0.780838 0
M  V30 1426 H 141.418 -4.21199 -0.130147 0
M  V30 1427 H 140.142 -3.16617 -0.80134 0
M  V30 1428 H 138.801 -3.42173 1.3158 0
M  V30 1429 H 138.449 -4.99449 -0.596606 0
M  V30 1430 H 138.149 -5.79609 0.965788 0
M  V30 1431 H 139.673 -6.10539 0.0861567 0
M  V30 1432 H 141.087 -5.2913 2.20669 0
M  V30 1433 H 139.484 -5.20148 2.99276 0
M  V30 1434 H 140.554 -3.78834 3.02676 0
M  V30 1435 N 141.898 -0.863906 -1.31812 0
M  V30 1436 C 143.175 -0.39275 -1.91616 0
M  V30 1437 C 143.555 1.12461 -1.7865 0
M  V30 1438 O 142.903 1.95045 -1.19037 0
M  V30 1439 C 143.113 -0.867385 -3.38049 0
M  V30 1440 C 144.461 -0.889966 -4.15168 0
M  V30 1441 O 145.485 -0.812635 -3.46806 0
M  V30 1442 O 144.344 -1.00079 -5.37258 0
M  V30 1443 H 141.438 -0.116358 -0.818773 0
M  V30 1444 H 143.984 -0.951418 -1.40521 0
M  V30 1445 H 142.756 -1.91081 -3.41473 0
M  V30 1446 H 142.379 -0.286687 -3.96565 0
M  V30 1447 N 143.376 1.44774 -0.622745 0
M  V30 1448 C 144.624 2.01721 -0.123655 0
M  V30 1449 C 144.945 1.49172 1.25589 0
M  V30 1450 O 144.215 0.691974 1.83272 0
M  V30 1451 H 142.795 0.745777 -0.0427225 0
M  V30 1452 H 145.457 1.77382 -0.807559 0
M  V30 1453 H 144.553 3.11984 -0.0849534 0
M  V30 1454 N 144.854 0.36279 1.53368 0
M  V30 1455 C 146.082 -0.228613 2.05633 0
M  V30 1456 C 146.497 -1.42676 1.23649 0
M  V30 1457 O 145.854 -1.80394 0.27647 0
M  V30 1458 C 145.905 -0.624845 3.56059 0
M  V30 1459 O 145.626 0.525675 4.34935 0
M  V30 1460 C 147.127 -1.27493 4.24571 0
M  V30 1461 H 144.347 -0.0407183 0.669763 0
M  V30 1462 H 146.891 0.520352 1.97769 0
M  V30 1463 H 145.046 -1.32373 3.64083 0
M  V30 1464 H 145.46 0.205969 5.24095 0
M  V30 1465 H 146.934 -1.50277 5.31151 0
M  V30 1466 H 147.411 -2.23439 3.78116 0
M  V30 1467 H 148.017 -0.617558 4.20792 0
M  V30 1468 N 146.332 -1.57332 0.0918853 0
M  V30 1469 C 147.557 -1.98995 -0.584442 0
M  V30 1470 C 147.982 -0.970528 -1.61128 0
M  V30 1471 O 147.34 0.0613904 -1.81196 0
M  V30 1472 C 147.388 -3.39636 -1.21161 0
M  V30 1473 O 146.492 -3.40447 -2.32744 0
M  V30 1474 H 145.833 -0.647165 -0.148572 0
M  V30 1475 H 148.363 -2.03873 0.172347 0
M  V30 1476 H 148.373 -3.7726 -1.55367 0
M  V30 1477 H 147.048 -4.13356 -0.459313 0
M  V30 1478 H 145.625 -3.14614 -2.0018 0
M  V30 1479 N 147.81 0.181792 -1.56548 0
M  V30 1480 C 149.087 0.926765 -1.72251 0
M  V30 1481 C 149.467 2.00831 -0.650386 0
M  V30 1482 O 148.815 2.26008 0.336521 0
M  V30 1483 C 149.025 1.50106 -3.1507 0
M  V30 1484 C 150.373 1.97805 -3.75711 0
M  V30 1485 O 151.397 1.59922 -3.18282 0
M  V30 1486 O 150.256 2.67555 -4.76525 0
M  V30 1487 H 147.35 0.435506 -0.703039 0
M  V30 1488 H 149.896 0.170443 -1.68842 0
M  V30 1489 H 148.668 0.72212 -3.84579 0
M  V30 1490 H 148.291 2.32186 -3.22763 0
M  V30 1491 N 149.288 1.51039 0.449983 0
M  V30 1492 C 150.235 1.71439 1.54523 0
M  V30 1493 C 151.205 0.555871 1.56522 0
M  V30 1494 O 152.39 0.788871 1.73728 0
M  V30 1495 C 149.53 1.83384 2.92343 0
M  V30 1496 C 148.643 3.10873 2.9997 0
M  V30 1497 C 147.778 3.13488 4.28834 0
M  V30 1498 C 146.817 4.35343 4.30282 0
M  V30 1499 N 145.954 4.35579 5.5065 0
M  V30 1500 H 150.794 2.64934 1.36433 0
M  V30 1501 H 148.331 1.31312 0.662982 0
M  V30 1502 H 150.289 1.88291 3.72293 0
M  V30 1503 H 148.919 0.933086 3.0902 0
M  V30 1504 H 147.971 3.15336 2.12761 0
M  V30 1505 H 149.283 4.00814 2.96901 0
M  V30 1506 H 148.437 3.17241 5.17149 0
M  V30 1507 H 147.176 2.21414 4.34543 0
M  V30 1508 H 146.181 4.3178 3.40362 0
M  V30 1509 H 147.406 5.28668 4.26248 0
M  V30 1510 H 145.352 3.46369 5.57104 0
M  V30 1511 H 145.269 5.19313 5.49409 0
M  V30 1512 H 146.537 4.43507 6.41032 0
M  V30 1513 N 150.766 -0.704594 1.40972 0
M  V30 1514 C 151.994 -1.49354 1.43182 0
M  V30 1515 C 152.409 -1.88768 0.0345508 0
M  V30 1516 O 151.766 -1.56184 -0.944081 0
M  V30 1517 C 151.817 -2.76187 2.33244 0
M  V30 1518 O 151.538 -2.38436 3.67532 0
M  V30 1519 C 153.039 -3.7 2.44162 0
M  V30 1520 H 150.259 -0.460559 0.487982 0
M  V30 1521 H 152.803 -0.868261 1.85153 0
M  V30 1522 H 150.958 -3.34974 1.94606 0
M  V30 1523 H 151.372 -3.20126 4.15475 0
M  V30 1524 H 152.846 -4.55803 3.11364 0
M  V30 1525 H 153.323 -4.13867 1.47006 0
M  V30 1526 H 153.929 -3.17121 2.83398 0
M  V30 1527 N 152.244 -1.26651 -0.937939 0
M  V30 1528 C 153.492 -1.12165 -1.68118 0
M  V30 1529 C 153.813 0.334983 -1.92101 0
M  V30 1530 O 153.083 1.23583 -1.52 0
M  V30 1531 H 151.663 -0.412093 -0.623048 0
M  V30 1532 H 154.325 -1.59027 -1.12678 0
M  V30 1533 H 153.421 -1.64289 -2.6536 0
M  V30 1534 N 153.722 1.14298 -1.08507 0
M  V30 1535 C 154.95 1.89219 -0.836876 0
M  V30 1536 C 155.365 1.78638 0.611054 0
M  V30 1537 O 154.722 1.14643 1.41998 0
M  V30 1538 C 154.773 3.39158 -1.25116 0
M  V30 1539 O 154.494 3.49449 -2.64229 0
M  V30 1540 C 155.995 4.31073 -1.03398 0
M  V30 1541 H 153.215 0.599328 -0.301739 0
M  V30 1542 H 155.759 1.44746 -1.44461 0
M  V30 1543 H 153.914 3.81251 -0.687514 0
M  V30 1544 H 154.328 4.42589 -2.81452 0
M  V30 1545 H 155.802 5.34646 -1.37323 0
M  V30 1546 H 156.279 4.3919 0.0289259 0
M  V30 1547 H 156.885 3.94738 -1.58311 0
M  V30 1548 N 155.201 0.870884 1.31352 0
M  V30 1549 C 156.449 0.48132 1.96285 0
M  V30 1550 C 156.77 -0.969813 1.69173 0
M  V30 1551 O 156.04 -1.67998 1.00764 0
M  V30 1552 H 154.62 0.175002 0.726212 0
M  V30 1553 H 157.282 1.11087 1.60143 0
M  V30 1554 H 156.378 0.639825 3.05471 0
M  V30 1555 N 156.679 -1.44442 0.630414 0
M  V30 1556 C 157.627 -2.32437 -0.0871428 0
M  V30 1557 C 158.621 -1.47304 -0.836525 0
M  V30 1558 O 159.827 -1.63653 -0.749506 0
M  V30 1559 H 156.202 -0.750533 -0.0469495 0
M  V30 1560 H 158.173 -2.90709 0.673096 0
M  V30 1561 C 156.922 -3.31288 -1.05563 0
M  V30 1562 H 156.245 -3.96805 -0.488426 0
M  V30 1563 H 157.685 -3.9554 -1.52721 0
M  V30 1564 C 156.144 -2.6016 -2.14052 0
M  V30 1565 O 156.674 -2.39997 -3.22124 0
M  V30 1566 N 154.88 -2.19911 -1.89967 0
M  V30 1567 H 154.427 -2.36509 -1.02085 0
M  V30 1568 H 154.385 -1.72646 -2.62756 0
M  V30 1569 N 158.157 -0.370918 -1.53173 0
M  V30 1570 C 159.087 0.464847 -2.28826 0
M  V30 1571 C 160.068 1.07936 -1.31468 0
M  V30 1572 O 161.253 1.0956 -1.60344 0
M  V30 1573 C 158.383 1.60196 -3.08147 0
M  V30 1574 C 157.337 1.11443 -4.13237 0
M  V30 1575 C 156.663 2.3422 -4.80672 0
M  V30 1576 C 157.963 0.195384 -5.21934 0
M  V30 1577 H 159.657 -0.166329 -2.98938 0
M  V30 1578 H 157.203 -0.0814359 -1.4377 0
M  V30 1579 H 159.156 2.19332 -3.59822 0
M  V30 1580 H 157.88 2.26045 -2.35735 0
M  V30 1581 H 156.539 0.545727 -3.62515 0
M  V30 1582 H 156.187 2.98537 -4.04827 0
M  V30 1583 H 155.887 2.02269 -5.51689 0
M  V30 1584 H 157.411 2.94032 -5.35143 0
M  V30 1585 H 158.825 0.694375 -5.69079 0
M  V30 1586 H 157.222 -0.0335027 -6.00091 0
M  V30 1587 H 158.292 -0.760961 -4.78892 0
M  V30 1588 N 159.635 1.57281 -0.100228 0
M  V30 1589 C 161.046 1.81725 0.428107 0
M  V30 1590 C 161.397 1.01619 1.67833 0
M  V30 1591 O 160.522 0.247098 2.14985 0
M  V30 1592 C 161.117 3.29617 0.78347 0
M  V30 1593 C 159.676 3.54808 1.25653 0
M  V30 1594 C 158.823 2.76118 0.255752 0
M  V30 1595 H 161.774 1.55324 -0.325608 0
M  V30 1596 H 161.795 3.4322 1.64256 0
M  V30 1597 H 161.307 3.87893 -0.12665 0
M  V30 1598 H 159.408 3.01868 2.18418 0
M  V30 1599 H 159.521 4.63443 1.21482 0
M  V30 1600 H 157.885 2.43745 0.738956 0
M  V30 1601 H 158.668 3.37145 -0.647136 0
M  V30 1602 N 161.113 -0.173488 1.56642 0
M  V30 1603 C 162.359 -0.891784 1.8214 0
M  V30 1604 C 162.692 -1.8199 0.677736 0
M  V30 1605 O 161.967 -1.91842 -0.320446 0
M  V30 1606 C 162.25 -1.68933 3.18015 0
M  V30 1607 C 162.103 -0.784487 4.42906 0
M  V30 1608 C 163.422 -2.65748 3.50808 0
M  V30 1609 H 160.541 -0.322761 0.662567 0
M  V30 1610 H 163.183 -0.158095 1.89341 0
M  V30 1611 H 161.333 -2.31482 3.12007 0
M  V30 1612 H 163.005 -0.172046 4.60979 0
M  V30 1613 H 161.248 -0.0924117 4.33702 0
M  V30 1614 H 161.919 -1.37799 5.34524 0
M  V30 1615 H 164.395 -2.13327 3.57255 0
M  V30 1616 H 163.271 -3.18619 4.4696 0
M  V30 1617 H 163.532 -3.45842 2.75401 0
M  V30 1618 N 162.591 -1.51276 -0.441967 0
M  V30 1619 C 163.524 -1.66933 -1.55591 0
M  V30 1620 C 164.502 -0.516958 -1.54163 0
M  V30 1621 O 165.686 -0.740209 -1.73358 0
M  V30 1622 C 162.813 -1.67866 -2.94174 0
M  V30 1623 C 161.859 -2.89013 -3.13646 0
M  V30 1624 S 162.692 -4.49897 -2.90436 0
M  V30 1625 C 163.848 -4.53568 -4.31308 0
M  V30 1626 H 164.081 -2.61155 -1.42076 0
M  V30 1627 H 161.614 -1.40902 -0.631341 0
M  V30 1628 H 163.572 -1.69089 -3.74058 0
M  V30 1629 H 162.233 -0.748296 -3.05056 0
M  V30 1630 H 161.426 -2.86054 -4.14957 0
M  V30 1631 H 161.028 -2.85509 -2.4158 0
M  V30 1632 H 163.32 -4.28924 -5.24434 0
M  V30 1633 H 164.263 -5.55355 -4.39303 0
M  V30 1634 H 164.671 -3.82943 -4.14747 0
M  V30 1635 N 164.069 0.697108 -1.41344 0
M  V30 1636 C 165.017 1.83237 -1.43272 0
M  V30 1637 C 166.011 1.66522 -0.310947 0
M  V30 1638 O 167.217 1.73402 -0.482899 0
M  V30 1639 H 163.592 0.603802 -0.448249 0
M  V30 1640 H 165.563 1.78727 -2.38954 0
M  V30 1641 C 164.312 3.21245 -1.33029 0
M  V30 1642 H 163.635 3.34723 -2.18633 0
M  V30 1643 H 165.075 4.00763 -1.38439 0
M  V30 1644 C 163.534 3.36873 -0.0424635 0
M  V30 1645 O 164.064 3.91177 0.913421 0
M  V30 1646 N 162.27 2.90581 0.0331145 0
M  V30 1647 H 161.817 2.46577 -0.745506 0
M  V30 1648 H 161.775 3.01416 0.894199 0
M  V30 1649 N 165.547 1.27147 0.931209 0
M  V30 1650 C 166.824 1.0401 1.65654 0
M  V30 1651 C 167.204 -0.426297 2.06751 0
M  V30 1652 O 166.552 -1.40879 1.79904 0
M  V30 1653 C 166.762 1.99834 2.86125 0
M  V30 1654 C 168.11 2.29007 3.57549 0
M  V30 1655 O 169.134 1.97779 2.96246 0
M  V30 1656 O 167.993 2.82222 4.67989 0
M  V30 1657 H 165.087 0.396239 0.725895 0
M  V30 1658 H 167.633 1.38397 0.982056 0
M  V30 1659 H 166.405 2.98744 2.52721 0
M  V30 1660 H 166.028 1.65987 3.61295 0
M  V30 1661 N 167.025 -1.13721 1.09112 0
M  V30 1662 C 168.273 -1.84559 0.823562 0
M  V30 1663 C 168.594 -1.83754 -0.652658 0
M  V30 1664 O 167.864 -1.29102 -1.47342 0
M  V30 1665 H 166.444 -0.683376 0.301673 0
M  V30 1666 H 169.106 -1.37771 1.37859 0
M  V30 1667 H 168.202 -2.8917 1.17419 0
M  V30 1668 N 168.503 -0.877838 -1.30888 0
M  V30 1669 C 169.45 -0.337538 -2.28318 0
M  V30 1670 C 170.42 0.568346 -1.56074 0
M  V30 1671 O 171.605 0.498298 -1.84178 0
M  V30 1672 C 168.745 0.448142 -3.42178 0
M  V30 1673 C 167.858 -0.48615 -4.29256 0
M  V30 1674 C 166.993 0.314427 -5.30269 0
M  V30 1675 C 166.032 -0.615791 -6.08995 0
M  V30 1676 N 165.169 0.14902 -7.01942 0
M  V30 1677 H 170.009 -1.17356 -2.73919 0
M  V30 1678 H 167.546 -0.590094 -1.34745 0
M  V30 1679 H 169.504 0.919517 -4.06941 0
M  V30 1680 H 168.134 1.24879 -2.97666 0
M  V30 1681 H 167.186 -1.076 -3.64865 0
M  V30 1682 H 168.498 -1.19909 -4.84173 0
M  V30 1683 H 167.652 0.847969 -6.00745 0
M  V30 1684 H 166.391 1.06062 -4.76027 0
M  V30 1685 H 165.396 -1.16102 -5.37401 0
M  V30 1686 H 166.621 -1.36097 -6.65323 0
M  V30 1687 H 164.567 0.877884 -6.50099 0
M  V30 1688 H 164.484 -0.504433 -7.54315 0
M  V30 1689 H 165.752 0.663537 -7.76671 0
M  V30 1690 N 169.982 1.44106 -0.638065 0
M  V30 1691 C 171.393 1.85316 -0.226894 0
M  V30 1692 C 171.744 1.53399 1.22324 0
M  V30 1693 O 170.869 0.975463 1.93167 0
M  V30 1694 C 171.464 3.3637 -0.405013 0
M  V30 1695 C 170.023 3.76369 -0.0482902 0
M  V30 1696 C 169.17 2.67921 -0.715108 0
M  V30 1697 H 172.121 1.34474 -0.842764 0
M  V30 1698 H 172.142 3.7885 0.354 0
M  V30 1699 H 171.654 3.59569 -1.46053 0
M  V30 1700 H 169.755 3.58784 1.00522 0
M  V30 1701 H 169.868 4.76856 -0.463187 0
M  V30 1702 H 168.232 2.54259 -0.149753 0
M  V30 1703 H 169.015 2.93951 -1.77335 0
M  V30 1704 N 171.46 0.379036 1.52974 0
M  V30 1705 C 172.876 0.0285448 1.59574 0
M  V30 1706 C 173.076 -1.45542 1.39355 0
M  V30 1707 O 172.132 -2.2187 1.20541 0
M  V30 1708 C 173.445 0.496535 2.96572 0
M  V30 1709 C 174.993 0.451909 3.0972 0
M  V30 1710 C 175.468 0.895924 4.49152 0
M  V30 1711 N 176.959 0.851522 4.55306 0
M  V30 1712 C 177.694 1.16661 5.61407 0
M  V30 1713 N 177.19 1.55166 6.752 0
M  V30 1714 N 178.983 1.08853 5.51459 0
M  V30 1715 H 171.134 1.34525 1.64367 0
M  V30 1716 H 173.397 0.550733 0.771619 0
M  V30 1717 H 173.103 1.53258 3.16552 0
M  V30 1718 H 172.977 -0.109802 3.7704 0
M  V30 1719 H 175.364 -0.575029 2.89443 0
M  V30 1720 H 175.445 1.09392 2.3123 0
M  V30 1721 H 175.089 1.92104 4.70168 0
M  V30 1722 H 175.019 0.23103 5.26093 0
M  V30 1723 H 177.51 0.568038 3.73606 0
M  V30 1724 H 177.823 1.776 7.52116 0
M  V30 1725 H 176.168 1.59044 6.76557 0
M  V30 1726 H 179.359 0.786803 4.6144 0
M  V30 1727 H 179.532 1.33742 6.34048 0
M  V30 1728 N 172.938 -1.57226 0.108567 0
M  V30 1729 C 174.215 -1.86333 -0.594939 0
M  V30 1730 C 174.595 -1.00788 -1.85486 0
M  V30 1731 O 173.943 -0.0839293 -2.28346 0
M  V30 1732 C 174.153 -3.37265 -0.897405 0
M  V30 1733 C 175.501 -4.05629 -1.25501 0
M  V30 1734 O 176.525 -3.42224 -0.987998 0
M  V30 1735 O 175.384 -5.17531 -1.75567 0
M  V30 1736 H 172.478 -0.771018 -0.2991 0
M  V30 1737 H 175.024 -1.69102 0.142283 0
M  V30 1738 H 173.796 -3.913 -0.00413806 0
M  V30 1739 H 173.419 -3.59889 -1.69014 0
M  V30 1740 N 174.416 0.165178 -1.56732 0
M  V30 1741 C 175.693 0.908443 -1.73224 0
M  V30 1742 C 176.073 2.0013 -0.67165 0
M  V30 1743 O 175.421 2.26353 0.31253 0
M  V30 1744 C 175.631 1.46756 -3.16644 0
M  V30 1745 C 176.979 1.93809 -3.77787 0
M  V30 1746 O 178.003 1.56537 -3.1996 0
M  V30 1747 O 176.862 2.62486 -4.79336 0
M  V30 1748 H 173.956 0.428025 -0.707618 0
M  V30 1749 H 176.502 0.152526 -1.69013 0
M  V30 1750 H 175.274 0.68129 -3.85323 0
M  V30 1751 H 174.897 2.28749 -3.25207 0
M  V30 1752 N 175.894 1.51508 0.433938 0
M  V30 1753 C 177.124 1.67914 1.20369 0
M  V30 1754 C 177.532 0.377461 1.85397 0
M  V30 1755 O 176.875 -0.654255 1.71654 0
M  V30 1756 C 176.937 2.74045 2.32679 0
M  V30 1757 C 176.601 4.16543 1.87991 0
M  V30 1758 C 177.598 5.01211 1.38145 0
M  V30 1759 C 175.283 4.6266 1.95579 0
M  V30 1760 C 177.277 6.30056 0.964774 0
M  V30 1761 C 174.964 5.91501 1.53523 0
M  V30 1762 C 175.962 6.75027 1.04055 0
M  V30 1763 O 175.65 8.01459 0.625964 0
M  V30 1764 H 175.382 0.566578 0.368735 0
M  V30 1765 H 177.936 1.98709 0.51999 0
M  V30 1766 H 176.166 2.38572 3.04336 0
M  V30 1767 H 177.855 2.79295 2.94532 0
M  V30 1768 H 178.621 4.66783 1.31675 0
M  V30 1769 H 174.5 3.97767 2.33029 0
M  V30 1770 H 178.044 6.95202 0.57796 0
M  V30 1771 H 173.941 6.25442 1.59665 0
M  V30 1772 H 174.709 8.15043 0.751509 0
M  V30 1773 N 177.372 -0.689602 1.41712 0
M  V30 1774 C 178.597 -1.48329 1.44959 0
M  V30 1775 C 179.022 -1.8801 0.0581283 0
M  V30 1776 O 178.38 -1.55026 -0.940035 0
M  V30 1777 C 178.428 -2.71835 2.36935 0
M  V30 1778 O 177.532 -3.69549 1.8305 0
M  V30 1779 H 176.873 -0.446199 0.491734 0
M  V30 1780 H 179.403 -0.847127 1.86239 0
M  V30 1781 H 179.413 -3.20076 2.53013 0
M  V30 1782 H 178.088 -2.42291 3.38035 0
M  V30 1783 H 176.665 -3.2851 1.76452 0
M  V30 1784 N 178.85 -1.27639 -0.924453 0
M  V30 1785 C 180.266 -1.05113 -1.20097 0
M  V30 1786 C 180.466 0.213262 -2.00368 0
M  V30 1787 O 179.522 0.91787 -2.35226 0
M  V30 1788 C 180.835 -2.29244 -1.94596 0
M  V30 1789 C 182.383 -2.34315 -2.07522 0
M  V30 1790 C 182.858 -3.58183 -2.85427 0
M  V30 1791 N 184.349 -3.5876 -2.92994 0
M  V30 1792 C 185.084 -4.51277 -3.53746 0
M  V30 1793 N 184.58 -5.54102 -4.15863 0
M  V30 1794 N 186.373 -4.38894 -3.51181 0
M  V30 1795 H 178.524 -2.08821 -0.388264 0
M  V30 1796 H 180.787 -0.918568 -0.234385 0
M  V30 1797 H 180.493 -3.21301 -1.43034 0
M  V30 1798 H 180.367 -2.34816 -2.95197 0
M  V30 1799 H 182.754 -1.42762 -2.58269 0
M  V30 1800 H 182.835 -2.32744 -1.06131 0
M  V30 1801 H 182.479 -4.50074 -2.35363 0
M  V30 1802 H 182.409 -3.57006 -3.8711 0
M  V30 1803 H 184.9 -2.84398 -2.4885 0
M  V30 1804 H 185.213 -6.20859 -4.60168 0
M  V30 1805 H 183.558 -5.57941 -4.144 0
M  V30 1806 H 186.749 -3.57772 -3.01856 0
M  V30 1807 H 186.922 -5.11186 -3.98237 0
M  V30 1808 N 180.328 1.1314 -1.09713 0
M  V30 1809 C 181.291 2.16831 -0.742751 0
M  V30 1810 C 182.291 1.59159 0.229129 0
M  V30 1811 O 183.481 1.74199 0.00693237 0
M  V30 1812 C 180.613 3.40756 -0.0989168 0
M  V30 1813 H 181.806 2.49695 -1.66109 0
M  V30 1814 H 179.359 1.2802 -0.896699 0
M  V30 1815 H 180.094 3.13485 0.830514 0
M  V30 1816 H 179.879 3.83888 -0.798265 0
M  V30 1817 H 181.369 4.17386 0.133524 0
M  V30 1818 N 181.806 0.884767 1.30421 0
M  V30 1819 C 183.054 0.502112 1.95763 0
M  V30 1820 C 183.375 -0.951815 1.70192 0
M  V30 1821 O 182.645 -1.6692 1.0254 0
M  V30 1822 H 181.225 0.182694 0.724315 0
M  V30 1823 H 183.887 1.1278 1.58955 0
M  V30 1824 H 182.983 0.672188 3.04775 0
M  V30 1825 N 183.284 -1.43765 0.645699 0
M  V30 1826 C 184.532 -2.01499 0.155731 0
M  V30 1827 C 184.853 -1.51151 -1.232 0
M  V30 1828 O 184.123 -0.721044 -1.82148 0
M  V30 1829 H 182.703 -0.745003 0.0545817 0
M  V30 1830 H 185.365 -1.76075 0.835677 0
M  V30 1831 H 184.461 -3.1181 0.134577 0
M  V30 1832 N 184.763 -0.387143 -1.52771 0
M  V30 1833 C 185.726 0.436939 -2.24997 0
M  V30 1834 C 186.726 0.991991 -1.26555 0
M  V30 1835 O 187.916 0.874335 -1.50669 0
M  V30 1836 C 185.048 1.61281 -3.00335 0
M  V30 1837 H 186.241 -0.195365 -2.99263 0
M  V30 1838 H 183.794 -0.139218 -1.55679 0
M  V30 1839 H 184.529 2.2826 -2.30364 0
M  V30 1840 H 184.314 1.22154 -3.72587 0
M  V30 1841 H 185.804 2.19629 -3.5518 0
M  V30 1842 N 186.241 1.57166 -0.116904 0
M  V30 1843 C 187.487 1.95412 0.542405 0
M  V30 1844 C 187.82 1.00019 1.66463 0
M  V30 1845 O 187.095 0.0370346 1.94465 0
M  V30 1846 C 187.378 3.43615 1.07708 0
M  V30 1847 C 187.231 4.49781 -0.0415868 0
M  V30 1848 C 188.55 3.93616 1.96861 0
M  V30 1849 H 185.669 0.710543 0.195696 0
M  V30 1850 H 188.311 1.89027 -0.192038 0
M  V30 1851 H 186.461 3.49187 1.70296 0
M  V30 1852 H 188.133 4.56308 -0.676793 0
M  V30 1853 H 186.376 4.28033 -0.705019 0
M  V30 1854 H 187.047 5.50733 0.373717 0
M  V30 1855 H 189.523 3.90335 1.44146 0
M  V30 1856 H 188.399 4.97838 2.3119 0
M  V30 1857 H 188.66 3.34188 2.89432 0
M  V30 1858 N 187.719 -0.156864 1.56817 0
M  V30 1859 C 188.666 -1.19394 1.97519 0
M  V30 1860 C 189.636 -1.4322 0.841265 0
M  V30 1861 O 190.821 -1.55719 1.10255 0
M  V30 1862 C 187.961 -2.52483 2.35258 0
M  V30 1863 C 187.074 -2.35914 3.61896 0
M  V30 1864 C 186.209 -3.61969 3.88782 0
M  V30 1865 C 185.248 -3.40395 5.08722 0
M  V30 1866 N 184.385 -4.58556 5.31668 0
M  V30 1867 H 189.225 -0.839845 2.85921 0
M  V30 1868 H 186.762 -0.403264 1.41464 0
M  V30 1869 H 188.72 -3.30071 2.55165 0
M  V30 1870 H 187.35 -2.85859 1.49949 0
M  V30 1871 H 186.402 -1.49429 3.49821 0
M  V30 1872 H 187.714 -2.15926 4.49641 0
M  V30 1873 H 186.868 -4.47989 4.09135 0
M  V30 1874 H 185.607 -3.84951 2.9944 0
M  V30 1875 H 184.612 -2.52763 4.88253 0
M  V30 1876 H 185.837 -3.18822 5.99608 0
M  V30 1877 H 183.783 -4.81729 4.45279 0
M  V30 1878 H 183.7 -4.41535 6.13664 0
M  V30 1879 H 184.968 -5.45817 5.5651 0
M  V30 1880 N 189.197 -1.51736 -0.425897 0
M  V30 1881 C 190.443 -1.65214 -1.1761 0
M  V30 1882 C 190.776 -0.372778 -1.90589 0
M  V30 1883 O 190.051 0.628139 -1.84078 0
M  V30 1884 C 190.334 -2.86312 -2.18398 0
M  V30 1885 C 190.187 -4.24254 -1.49426 0
M  V30 1886 C 191.506 -3.02925 -3.19256 0
M  V30 1887 H 188.625 -0.601263 -0.426206 0
M  V30 1888 H 191.267 -1.8425 -0.463882 0
M  V30 1889 H 189.417 -2.70213 -2.79137 0
M  V30 1890 H 191.089 -4.52046 -0.919362 0
M  V30 1891 H 189.332 -4.26426 -0.796432 0
M  V30 1892 H 190.003 -5.05001 -2.22885 0
M  V30 1893 H 192.479 -3.1781 -2.68581 0
M  V30 1894 H 191.355 -3.89199 -3.8706 0
M  V30 1895 H 191.616 -2.15497 -3.86023 0
M  V30 1896 N 190.675 0.682077 -1.42076 0
M  V30 1897 C 192.091 0.994324 -1.24841 0
M  V30 1898 C 192.291 2.0096 -0.147389 0
M  V30 1899 O 191.347 2.47822 0.483782 0
M  V30 1900 C 192.66 1.50607 -2.60265 0
M  V30 1901 C 194.208 1.62421 -2.6756 0
M  V30 1902 C 194.683 2.16994 -4.03333 0
M  V30 1903 N 196.174 2.24337 -4.0525 0
M  V30 1904 C 196.909 2.67621 -5.07116 0
M  V30 1905 N 196.405 3.1041 -6.19368 0
M  V30 1906 N 198.198 2.67305 -4.94474 0
M  V30 1907 H 190.349 0.00973908 -2.12398 0
M  V30 1908 H 192.612 0.0668593 -0.945639 0
M  V30 1909 H 192.318 0.834583 -3.41654 0
M  V30 1910 H 192.192 2.48602 -2.83684 0
M  V30 1911 H 194.579 2.28678 -1.86521 0
M  V30 1912 H 194.66 0.629352 -2.47937 0
M  V30 1913 H 194.304 1.51349 -4.84826 0
M  V30 1914 H 194.234 3.17258 -4.20304 0
M  V30 1915 H 196.725 1.94158 -3.24209 0
M  V30 1916 H 197.038 3.42103 -6.92954 0
M  V30 1917 H 195.383 3.08286 -6.22884 0
M  V30 1918 H 198.574 2.33233 -4.05857 0
M  V30 1919 H 198.747 3.00718 -5.73997 0
M  V30 1920 N 192.153 1.28127 0.917671 0
M  V30 1921 C 193.402 1.14432 1.66097 0
M  V30 1922 C 193.715 -0.307247 1.93172 0
M  V30 1923 O 194.921 -0.565259 2.65551 0
M  V30 1924 C 193.377 2.00015 2.99202 0
M  V30 1925 C 192.985 3.49889 2.79789 0
M  V30 1926 C 194.729 1.94996 3.77064 0
M  V30 1927 C 192.636 4.27636 4.08511 0
M  V30 1928 H 191.566 0.424662 0.62304 0
M  V30 1929 H 194.217 1.52628 1.01868 0
M  V30 1930 H 192.599 1.54672 3.64544 0
M  V30 1931 H 193.773 4.03162 2.23152 0
M  V30 1932 H 192.088 3.56392 2.15345 0
M  V30 1933 H 194.685 2.50354 4.72469 0
M  V30 1934 H 195.028 0.925819 4.05875 0
M  V30 1935 H 195.561 2.38287 3.18534 0
M  V30 1936 H 192.3 5.30615 3.84874 0
M  V30 1937 H 191.82 3.79137 4.64774 0
M  V30 1938 H 193.499 4.37346 4.76799 0
M  V30 1939 N 193.631 -1.12557 1.10312 0
M  V30 1940 C 194.856 -1.88405 0.867085 0
M  V30 1941 C 195.281 -1.79038 -0.576817 0
M  V30 1942 O 194.639 -1.14439 -1.40618 0
M  V30 1943 C 194.687 -3.3563 1.31851 0
M  V30 1944 O 193.791 -4.09565 0.482734 0
M  V30 1945 H 193.132 -0.585455 0.313271 0
M  V30 1946 H 195.662 -1.42352 1.4696 0
M  V30 1947 H 195.672 -3.86469 1.3079 0
M  V30 1948 H 194.347 -3.41765 2.37001 0
M  V30 1949 H 192.924 -3.68695 0.558448 0
M  V30 1950 N 195.109 -0.891671 -1.2995 0
M  V30 1951 C 196.056 -0.361736 -2.27948 0
M  V30 1952 C 197.026 0.551761 -1.56668 0
M  V30 1953 O 198.211 0.478736 -1.84696 0
M  V30 1954 C 195.351 0.411825 -3.42634 0
M  V30 1955 C 194.464 -0.531651 -4.28716 0
M  V30 1956 C 193.599 0.258167 -5.30572 0
M  V30 1957 C 192.638 -0.680349 -6.08307 0
M  V30 1958 N 191.775 0.0745613 -7.0206 0
M  V30 1959 H 196.615 -1.20254 -2.72659 0
M  V30 1960 H 194.152 -0.604352 -1.34112 0
M  V30 1961 H 196.11 0.876304 -4.07893 0
M  V30 1962 H 194.74 1.21715 -2.98974 0
M  V30 1963 H 193.792 -1.11463 -3.63703 0
M  V30 1964 H 195.104 -1.25038 -4.82874 0
M  V30 1965 H 194.258 0.784204 -6.0161 0
M  V30 1966 H 192.997 1.01008 -4.77126 0
M  V30 1967 H 192.002 -1.21796 -5.3614 0
M  V30 1968 H 193.227 -1.43145 -6.63842 0
M  V30 1969 H 191.173 0.808883 -6.50994 0
M  V30 1970 H 191.09 -0.584409 -7.53738 0
M  V30 1971 H 192.358 0.581123 -7.77331 0
M  V30 1972 N 196.587 1.43421 -0.653314 0
M  V30 1973 C 197.815 2.06163 -0.174491 0
M  V30 1974 C 198.23 1.48969 1.1599 0
M  V30 1975 O 197.587 0.621042 1.71608 0
M  V30 1976 C 197.638 3.61417 -0.0774865 0
M  V30 1977 O 197.359 4.16485 -1.35912 0
M  V30 1978 C 198.86 4.41235 0.427402 0
M  V30 1979 H 196.08 0.664946 -0.0899353 0
M  V30 1980 H 198.624 1.83924 -0.893988 0
M  V30 1981 H 196.779 3.82841 0.59257 0
M  V30 1982 H 197.193 5.10153 -1.21839 0
M  V30 1983 H 198.667 5.5021 0.44423 0
M  V30 1984 H 199.144 4.14268 1.45873 0
M  V30 1985 H 199.75 4.2478 -0.210167 0
M  V30 1986 N 198.065 0.39524 1.52563 0
M  V30 1987 C 198.998 -0.4813 2.23067 0
M  V30 1988 C 199.976 -1.05927 1.23362 0
M  V30 1989 O 201.16 -1.10979 1.52368 0
M  V30 1990 C 198.287 -1.66676 2.9485 0
M  V30 1991 C 197.333 -1.21348 4.08873 0
M  V30 1992 S 198.166 -0.190102 5.35162 0
M  V30 1993 C 199.322 -1.38121 6.1047 0
M  V30 1994 H 199.555 0.117381 2.97068 0
M  V30 1995 H 197.088 0.179458 1.53354 0
M  V30 1996 H 199.046 -2.3466 3.36816 0
M  V30 1997 H 197.707 -2.23676 2.20518 0
M  V30 1998 H 196.9 -2.09877 4.58222 0
M  V30 1999 H 196.502 -0.612486 3.68951 0
M  V30 2000 H 198.794 -2.30726 6.37002 0
M  V30 2001 H 199.737 -0.928521 7.01986 0
M  V30 2002 H 200.145 -1.60071 5.41329 0
M  V30 2003 N 199.544 -1.57102 0.125237 0
M  V30 2004 C 200.474 -2.18659 -0.819174 0
M  V30 2005 C 201.455 -1.12843 -1.27281 0
M  V30 2006 O 202.64 -1.41104 -1.33429 0
M  V30 2007 C 199.77 -2.79096 -2.06695 0
M  V30 2008 C 198.724 -3.90548 -1.75088 0
M  V30 2009 C 198.05 -4.37821 -3.06948 0
M  V30 2010 C 199.35 -5.12356 -1.01435 0
M  V30 2011 H 201.044 -2.9783 -0.306202 0
M  V30 2012 H 198.59 -1.4326 -0.145839 0
M  V30 2013 H 200.543 -3.2082 -2.73226 0
M  V30 2014 H 199.267 -1.97223 -2.60328 0
M  V30 2015 H 197.926 -3.49409 -1.10944 0
M  V30 2016 H 197.574 -3.52799 -3.58527 0
M  V30 2017 H 197.274 -5.12982 -2.86571 0
M  V30 2018 H 198.798 -4.822 -3.74587 0
M  V30 2019 H 200.212 -5.5106 -1.58132 0
M  V30 2020 H 198.609 -5.9314 -0.911319 0
M  V30 2021 H 199.679 -4.849 -0.00218681 0
M  V30 2022 N 201.022 0.148545 -1.56898 0
M  V30 2023 C 201.969 1.18345 -1.98149 0
M  V30 2024 C 202.939 1.42772 -0.848848 0
M  V30 2025 O 204.124 1.55132 -1.11079 0
M  V30 2026 C 201.264 2.51231 -2.36594 0
M  V30 2027 C 200.377 2.33991 -3.63142 0
M  V30 2028 C 199.512 3.59902 -3.90697 0
M  V30 2029 C 198.551 3.37692 -5.1052 0
M  V30 2030 N 197.688 4.5573 -5.34092 0
M  V30 2031 H 202.528 0.82467 -2.86362 0
M  V30 2032 H 200.065 0.395756 -1.41676 0
M  V30 2033 H 202.023 3.28713 -2.56912 0
M  V30 2034 H 200.653 2.85059 -1.51463 0
M  V30 2035 H 199.705 1.47572 -3.50609 0
M  V30 2036 H 201.017 2.13539 -4.5078 0
M  V30 2037 H 200.171 4.45813 -4.11505 0
M  V30 2038 H 198.91 3.83357 -3.01477 0
M  V30 2039 H 197.915 2.5017 -4.89587 0
M  V30 2040 H 199.14 3.15637 -6.0129 0
M  V30 2041 H 197.086 4.79361 -4.47827 0
M  V30 2042 H 197.003 4.38274 -6.15996 0
M  V30 2043 H 198.271 5.42858 -5.59397 0
M  V30 2044 N 202.5 1.5196 0.417844 0
M  V30 2045 C 203.746 1.66793 1.16411 0
M  V30 2046 C 204.101 0.388758 1.88432 0
M  V30 2047 O 203.394 -0.616409 1.81414 0
M  V30 2048 C 203.588 2.82269 2.19223 0
M  V30 2049 C 203.417 4.21293 1.57297 0
M  V30 2050 C 202.187 4.86948 1.34944 0
M  V30 2051 C 204.385 5.03704 1.03858 0
M  V30 2052 N 202.367 6.1003 0.688195 0
M  V30 2053 C 203.738 6.1795 0.503742 0
M  V30 2054 C 205.793 4.89095 0.932203 0
M  V30 2055 C 204.496 7.19188 -0.127034 0
M  V30 2056 C 206.522 5.90559 0.315293 0
M  V30 2057 C 205.884 7.0409 -0.208906 0
M  V30 2058 H 201.983 0.66407 0.412959 0
M  V30 2059 H 204.567 1.89242 0.457772 0
M  V30 2060 H 202.738 2.61451 2.87225 0
M  V30 2061 H 204.47 2.86183 2.86149 0
M  V30 2062 H 201.225 4.45156 1.61657 0
M  V30 2063 H 201.649 6.75964 0.374449 0
M  V30 2064 H 206.291 4.01557 1.32332 0
M  V30 2065 H 204.009 8.06359 -0.530231 0
M  V30 2066 H 207.595 5.81327 0.234625 0
M  V30 2067 H 206.475 7.81257 -0.67875 0
M  V30 2068 N 203.978 -0.674533 1.42435 0
M  V30 2069 C 205.226 -1.43175 1.42637 0
M  V30 2070 C 205.547 -1.94951 0.0438992 0
M  V30 2071 O 204.817 -1.7308 -0.917607 0
M  V30 2072 H 203.397 -0.531307 0.525092 0
M  V30 2073 H 206.059 -0.797006 1.77859 0
M  V30 2074 H 205.155 -2.28463 2.12629 0
M  V30 2075 N 205.456 -1.28612 -0.910864 0
M  V30 2076 C 206.366 -1.14643 -2.0468 0
M  V30 2077 C 207.382 -0.0723121 -1.7385 0
M  V30 2078 O 208.558 -0.282178 -1.99413 0
M  V30 2079 C 205.623 -0.812561 -3.37044 0
M  V30 2080 C 204.684 -1.96935 -3.81465 0
M  V30 2081 C 203.917 -1.65131 -5.07511 0
M  V30 2082 O 204.14 -0.567013 -5.67575 0
M  V30 2083 O 203.074 -2.49585 -5.47714 0
M  V30 2084 H 206.9 -2.1001 -2.19384 0
M  V30 2085 H 204.485 -1.07958 -1.03274 0
M  V30 2086 H 206.367 -0.640441 -4.16505 0
M  V30 2087 H 205.042 0.111426 -3.23508 0
M  V30 2088 H 203.949 -2.19664 -3.02818 0
M  V30 2089 H 205.282 -2.87414 -3.99567 0
M  V30 2090 N 206.934 1.1197 -1.10907 0
M  V30 2091 C 207.867 2.16998 -0.706192 0
M  V30 2092 C 208.845 1.59903 0.294897 0
M  V30 2093 O 210.029 1.87513 0.192636 0
M  V30 2094 C 207.156 3.38673 -0.0427664 0
M  V30 2095 C 206.202 4.14414 -1.00811 0
M  V30 2096 S 207.035 4.72079 -2.52789 0
M  V30 2097 C 208.191 5.97083 -1.87731 0
M  V30 2098 H 208.424 2.50837 -1.59587 0
M  V30 2099 H 205.957 1.23508 -0.926555 0
M  V30 2100 H 207.915 4.09142 0.333668 0
M  V30 2101 H 206.576 3.03105 0.823788 0
M  V30 2102 H 205.769 5.016 -0.491259 0
M  V30 2103 H 205.371 3.49678 -1.3267 0
M  V30 2104 H 207.663 6.66599 -1.21044 0
M  V30 2105 H 208.606 6.53403 -2.72892 0
M  V30 2106 H 209.014 5.4837 -1.33979 0
M  V30 2107 N 208.412 0.89855 1.29475 0
M  V30 2108 C 209.344 0.332726 2.26772 0
M  V30 2109 C 210.357 -0.520323 1.54261 0
M  V30 2110 O 211.546 -0.337668 1.75277 0
M  V30 2111 C 208.646 -0.544334 3.345 0
M  V30 2112 C 207.819 0.282728 4.36485 0
M  V30 2113 C 206.878 -0.526982 5.23555 0
M  V30 2114 O 205.904 0.0551165 5.69173 0
M  V30 2115 N 207.106 -1.83331 5.5079 0
M  V30 2116 H 209.871 1.16897 2.75962 0
M  V30 2117 H 207.432 0.762919 1.42798 0
M  V30 2118 H 209.424 -1.09239 3.89678 0
M  V30 2119 H 207.994 -1.28127 2.85136 0
M  V30 2120 H 207.214 1.01221 3.80983 0
M  V30 2121 H 208.502 0.84918 5.01664 0
M  V30 2122 H 207.9 -2.32898 5.15534 0
M  V30 2123 H 206.457 -2.32852 6.08788 0
M  V30 2124 N 209.89 -1.43072 0.660911 0
M  V30 2125 C 211.301 -1.84932 0.256348 0
M  V30 2126 C 211.652 -1.55325 -1.19868 0
M  V30 2127 O 210.777 -1.00607 -1.91591 0
M  V30 2128 C 211.372 -3.35684 0.458475 0
M  V30 2129 C 209.931 -3.76245 0.108161 0
M  V30 2130 C 209.078 -2.66749 0.757641 0
M  V30 2131 H 212.029 -1.33116 0.864051 0
M  V30 2132 H 212.05 -3.79365 -0.293683 0
M  V30 2133 H 211.562 -3.572 1.51755 0
M  V30 2134 H 209.663 -3.60338 -0.948014 0
M  V30 2135 H 209.776 -4.76058 0.538992 0
M  V30 2136 H 208.14 -2.53989 0.190185 0
M  V30 2137 H 208.923 -2.91092 1.81989 0
M  V30 2138 N 211.368 -0.403325 -1.52352 0
M  V30 2139 C 212.596 0.174012 -2.06167 0
M  V30 2140 C 213.011 1.39347 -1.27388 0
M  V30 2141 O 212.368 1.79597 -0.324201 0
M  V30 2142 C 212.419 0.530223 -3.5759 0
M  V30 2143 O 212.14 -0.640806 -4.33388 0
M  V30 2144 C 213.641 1.16192 -4.27802 0
M  V30 2145 H 210.861 0.0229464 -0.670608 0
M  V30 2146 H 213.405 -0.572604 -1.9632 0
M  V30 2147 H 211.56 1.22673 -3.67464 0
M  V30 2148 H 211.974 -0.344851 -5.23365 0
M  V30 2149 H 213.448 1.36141 -5.34948 0
M  V30 2150 H 213.925 2.13335 -3.83907 0
M  V30 2151 H 214.531 0.505775 -4.22282 0
M  V30 2152 N 212.846 1.57033 -0.133567 0
M  V30 2153 C 213.809 2.14897 0.796995 0
M  V30 2154 C 214.809 1.0874 1.18458 0
M  V30 2155 O 215.999 1.34446 1.1077 0
M  V30 2156 C 213.131 2.70112 2.07973 0
M  V30 2157 H 214.324 2.98457 0.293873 0
M  V30 2158 H 211.877 1.55871 0.115787 0
M  V30 2159 H 212.612 1.9018 2.62682 0
M  V30 2160 H 212.397 3.47764 1.81115 0
M  V30 2161 H 213.887 3.14738 2.74462 0
M  V30 2162 N 214.325 -0.140222 1.56975 0
M  V30 2163 C 215.736 -0.699596 1.73097 0
M  V30 2164 C 216.087 -1.8134 0.749022 0
M  V30 2165 O 215.212 -2.16241 -0.0828503 0
M  V30 2166 C 215.807 -1.27582 3.1386 0
M  V30 2167 C 214.366 -1.78169 3.31561 0
M  V30 2168 C 213.513 -0.672855 2.69013 0
M  V30 2169 H 216.464 0.0855115 1.58469 0
M  V30 2170 H 216.485 -2.14561 3.14235 0
M  V30 2171 H 215.997 -0.464955 3.85305 0
M  V30 2172 H 214.098 -2.61801 2.65124 0
M  V30 2173 H 214.211 -1.90574 4.39566 0
M  V30 2174 H 212.575 -1.10118 2.29665 0
M  V30 2175 H 213.358 0.126679 3.43066 0
M  V30 2176 N 215.803 -1.52179 -0.40978 0
M  V30 2177 C 217.049 -1.66453 -1.15851 0
M  V30 2178 C 217.382 -0.392972 -1.90182 0
M  V30 2179 O 216.657 0.608579 -1.84734 0
M  V30 2180 C 216.94 -2.88612 -2.15349 0
M  V30 2181 C 216.793 -4.25815 -1.44918 0
M  V30 2182 C 218.112 -3.06294 -3.16026 0
M  V30 2183 H 215.231 -0.60575 -0.419805 0
M  V30 2184 H 217.873 -1.84732 -0.444314 0
M  V30 2185 H 216.023 -2.73158 -2.76255 0
M  V30 2186 H 217.695 -4.52995 -0.871365 0
M  V30 2187 H 215.938 -4.27247 -0.751159 0
M  V30 2188 H 216.609 -5.07337 -2.17516 0
M  V30 2189 H 219.085 -3.20641 -2.65195 0
M  V30 2190 H 217.961 -3.93283 -3.8291 0
M  V30 2191 H 218.222 -2.19579 -3.83715 0
M  V30 2192 N 217.281 0.66697 -1.42791 0
M  V30 2193 C 218.528 1.42699 -1.43678 0
M  V30 2194 C 218.856 1.94419 -0.0560425 0
M  V30 2195 O 218.111 1.7182 0.936831 0
M  V30 2196 C 218.41 2.6349 -2.4147 0
M  V30 2197 C 218.076 2.30267 -3.8767 0
M  V30 2198 C 216.738 2.20918 -4.27491 0
M  V30 2199 C 219.09 2.03435 -4.79858 0
M  V30 2200 C 216.418 1.82873 -5.57471 0
M  V30 2201 C 218.77 1.66892 -6.10188 0
M  V30 2202 C 217.434 1.56058 -6.49001 0
M  V30 2203 H 216.704 0.522171 -0.525755 0
M  V30 2204 H 219.351 0.759785 -1.75783 0
M  V30 2205 H 217.656 3.35279 -2.0272 0
M  V30 2206 H 219.353 3.21684 -2.39417 0
M  V30 2207 H 215.943 2.38449 -3.56146 0
M  V30 2208 H 220.127 2.09586 -4.49875 0
M  V30 2209 H 215.383 1.7306 -5.86396 0
M  V30 2210 H 219.557 1.45157 -6.81104 0
M  V30 2211 H 217.184 1.26348 -7.49627 0
M  V30 2212 N 218.759 1.29093 0.90403 0
M  V30 2213 C 219.722 1.1386 1.98919 0
M  V30 2214 C 220.722 0.0753457 1.60623 0
M  V30 2215 O 221.912 0.321931 1.71199 0
M  V30 2216 C 219.044 0.740198 3.32767 0
M  V30 2217 H 220.237 2.10246 2.13861 0
M  V30 2218 H 217.79 1.12218 1.08797 0
M  V30 2219 H 218.525 -0.223997 3.23525 0
M  V30 2220 H 218.31 1.50838 3.61926 0
M  V30 2221 H 219.8 0.656546 4.12407 0
M  V30 2222 N 220.237 -1.11381 1.11499 0
M  V30 2223 C 221.2 -2.15622 0.777153 0
M  V30 2224 C 222.2 -1.59504 -0.203779 0
M  V30 2225 O 223.39 -1.74188 0.020782 0
M  V30 2226 C 220.522 -3.40556 0.153116 0
M  V30 2227 H 221.715 -2.47021 1.70061 0
M  V30 2228 H 219.268 -1.26577 0.916952 0
M  V30 2229 H 220.003 -3.14767 -0.780536 0
M  V30 2230 H 219.788 -3.8257 0.859238 0
M  V30 2231 H 221.278 -4.17546 -0.0671044 0
M  V30 2232 N 221.715 -0.905404 -1.28997 0
M  V30 2233 C 222.963 -0.533192 -1.9494 0
M  V30 2234 C 223.284 0.924618 -1.71685 0
M  V30 2235 O 222.554 1.65268 -1.05183 0
M  V30 2236 H 221.134 -0.194194 -0.721317 0
M  V30 2237 H 223.796 -1.15294 -1.57141 0
M  V30 2238 H 222.892 -0.72059 -3.03667 0
M  V30 2239 N 223.193 1.4272 -0.668489 0
M  V30 2240 C 224.441 2.01226 -0.187769 0
M  V30 2241 C 224.762 1.53092 1.2078 0
M  V30 2242 O 224.032 0.74993 1.80977 0
M  V30 2243 H 222.612 0.744041 -0.0664272 0
M  V30 2244 H 225.274 1.74723 -0.863583 0
M  V30 2245 H 224.37 3.11556 -0.184166 0
M  V30 2246 N 224.671 0.411399 1.52136 0
M  V30 2247 C 225.896 -0.165538 2.06738 0
M  V30 2248 C 226.321 -1.379 1.27926 0
M  V30 2249 O 225.679 -1.78628 0.310114 0
M  V30 2250 C 225.727 -0.492124 3.57226 0
M  V30 2251 O 224.831 -1.58276 3.80818 0
M  V30 2252 H 224.172 -0.0132132 0.663869 0
M  V30 2253 H 226.702 0.585253 1.96051 0
M  V30 2254 H 226.712 -0.750104 4.01045 0
M  V30 2255 H 225.387 0.394922 4.14021 0
M  V30 2256 H 223.964 -1.31677 3.48877 0
M  V30 2257 N 226.149 -1.5696 0.141893 0
M  V30 2258 C 227.565 -1.58151 -0.21456 0
M  V30 2259 C 227.765 -1.1559 -1.65049 0
M  V30 2260 O 226.821 -0.853832 -2.37626 0
M  V30 2261 C 228.134 -3.00674 0.0395576 0
M  V30 2262 C 229.682 -3.1299 -0.0245529 0
M  V30 2263 C 230.157 -4.57554 0.202167 0
M  V30 2264 N 231.648 -4.62961 0.148919 0
M  V30 2265 C 232.383 -5.7262 0.298924 0
M  V30 2266 N 231.879 -6.90947 0.50637 0
M  V30 2267 N 233.672 -5.61601 0.236886 0
M  V30 2268 H 225.823 -1.8292 1.07953 0
M  V30 2269 H 228.086 -0.846425 0.42693 0
M  V30 2270 H 227.792 -3.36183 1.03315 0
M  V30 2271 H 227.666 -3.70981 -0.682143 0
M  V30 2272 H 230.053 -2.77326 -1.00869 0
M  V30 2273 H 230.134 -2.4518 0.729396 0
M  V30 2274 H 229.778 -4.93922 1.18338 0
M  V30 2275 H 229.708 -5.23484 -0.572044 0
M  V30 2276 H 232.199 -3.77899 -0.00697015 0
M  V30 2277 H 232.512 -7.7038 0.611076 0
M  V30 2278 H 230.857 -6.92878 0.542628 0
M  V30 2279 H 234.048 -4.68039 0.0756209 0
M  V30 2280 H 234.221 -6.47015 0.357227 0
M  V30 2281 N 227.627 0.131896 -1.57047 0
M  V30 2282 C 228.557 1.16384 -2.02428 0
M  V30 2283 C 229.538 1.43936 -0.90644 0
M  V30 2284 O 230.723 1.54599 -1.17528 0
M  V30 2285 C 227.853 2.49328 -2.4177 0
M  V30 2286 C 226.807 2.36266 -3.56879 0
M  V30 2287 C 226.133 3.74057 -3.8208 0
M  V30 2288 C 227.433 1.834 -4.89042 0
M  V30 2289 H 229.127 0.786433 -2.88887 0
M  V30 2290 H 226.673 0.376855 -1.38981 0
M  V30 2291 H 228.626 3.21759 -2.7212 0
M  V30 2292 H 227.35 2.88934 -1.52266 0
M  V30 2293 H 226.009 1.66286 -3.26718 0
M  V30 2294 H 225.657 4.11125 -2.89803 0
M  V30 2295 H 225.357 3.66174 -4.59554 0
M  V30 2296 H 226.881 4.48012 -4.1487 0
M  V30 2297 H 228.295 2.45636 -5.18011 0
M  V30 2298 H 226.692 1.8637 -5.70426 0
M  V30 2299 H 227.762 0.790662 -4.7841 0
M  V30 2300 N 229.106 1.52395 0.401703 0
M  V30 2301 C 230.353 1.66817 1.14796 0
M  V30 2302 C 230.681 0.401772 1.90305 0
M  V30 2303 O 229.936 -0.615487 1.85769 0
M  V30 2304 C 230.235 2.84578 2.16217 0
M  V30 2305 C 229.901 4.22513 1.5746 0
M  V30 2306 C 228.563 4.60029 1.41161 0
M  V30 2307 C 230.915 5.0844 1.14622 0
M  V30 2308 C 228.243 5.81144 0.80552 0
M  V30 2309 C 230.595 6.30167 0.55428 0
M  V30 2310 C 229.259 6.66426 0.378482 0
M  V30 2311 H 228.529 0.610428 0.420069 0
M  V30 2312 H 231.176 1.86512 0.434212 0
M  V30 2313 H 229.481 2.59248 2.93764 0
M  V30 2314 H 231.178 2.92933 2.73845 0
M  V30 2315 H 227.768 3.92953 1.71132 0
M  V30 2316 H 231.952 4.80034 1.26021 0
M  V30 2317 H 227.208 6.07855 0.657399 0
M  V30 2318 H 231.382 6.96071 0.213983 0
M  V30 2319 H 229.009 7.60143 -0.0932606 0
M  V30 2320 N 230.584 -0.659388 1.43143 0
M  V30 2321 C 231.995 -1.24041 1.39537 0
M  V30 2322 C 232.346 -1.95963 0.0963364 0
M  V30 2323 O 231.471 -2.00892 -0.804438 0
M  V30 2324 C 232.066 -2.25601 2.52764 0
M  V30 2325 C 230.625 -2.79195 2.52443 0
M  V30 2326 C 229.772 -1.53743 2.30778 0
M  V30 2327 H 232.723 -0.451792 1.52133 0
M  V30 2328 H 232.744 -3.07651 2.23899 0
M  V30 2329 H 232.256 -1.73226 3.47296 0
M  V30 2330 H 230.357 -3.35649 1.61773 0
M  V30 2331 H 230.47 -3.2716 3.50004 0
M  V30 2332 H 228.834 -1.80869 1.79328 0
M  V30 2333 H 229.617 -1.03312 3.27386 0
M  V30 2334 N 232.062 -1.29571 -0.897171 0
M  V30 2335 C 232.994 -1.10724 -2.00681 0
M  V30 2336 C 234.007 -0.0540026 -1.6271 0
M  V30 2337 O 235.196 -0.298783 -1.75982 0
M  V30 2338 C 232.296 -0.663912 -3.32333 0
M  V30 2339 C 231.469 -1.79622 -3.98816 0
M  V30 2340 C 230.528 -1.34349 -5.0876 0
M  V30 2341 O 229.554 -2.04864 -5.31055 0
M  V30 2342 N 230.756 -0.215764 -5.80099 0
M  V30 2343 H 233.521 -2.06291 -2.17403 0
M  V30 2344 H 231.082 -1.21544 -1.06951 0
M  V30 2345 H 233.074 -0.344295 -4.03233 0
M  V30 2346 H 231.644 0.199375 -3.11964 0
M  V30 2347 H 230.864 -2.28459 -3.21248 0
M  V30 2348 H 232.152 -2.55535 -4.39976 0
M  V30 2349 H 231.55 0.372091 -5.64475 0
M  V30 2350 H 230.107 0.0444707 -6.51785 0
M  V30 2351 N 233.54 1.10788 -1.12088 0
M  V30 2352 C 234.768 1.86461 -0.896651 0
M  V30 2353 C 235.183 1.80492 0.553912 0
M  V30 2354 O 234.54 1.19102 1.38278 0
M  V30 2355 C 234.591 3.35006 -1.35843 0
M  V30 2356 O 234.312 3.40866 -2.75213 0
M  V30 2357 C 235.813 4.27565 -1.1706 0
M  V30 2358 H 233.033 0.589425 -0.320654 0
M  V30 2359 H 235.577 1.40076 -1.48993 0
M  V30 2360 H 233.732 3.7887 -0.808458 0
M  V30 2361 H 234.146 4.33411 -2.9539 0
M  V30 2362 H 235.62 5.30007 -1.54263 0
M  V30 2363 H 236.097 4.3906 -0.110814 0
M  V30 2364 H 236.703 3.89501 -1.70789 0
M  V30 2365 N 235.018 0.912232 1.28515 0
M  V30 2366 C 235.981 0.404223 2.25607 0
M  V30 2367 C 236.981 -0.468602 1.53821 0
M  V30 2368 O 238.171 -0.271873 1.72065 0
M  V30 2369 C 235.303 -0.420653 3.38295 0
M  V30 2370 H 236.496 1.26188 2.7206 0
M  V30 2371 H 234.049 0.691495 1.40171 0
M  V30 2372 H 234.784 -1.29777 2.97201 0
M  V30 2373 H 234.569 0.204935 3.91564 0
M  V30 2374 H 236.059 -0.766971 4.10496 0
M  V30 2375 N 236.496 -1.42363 0.676048 0
M  V30 2376 C 237.724 -2.05859 0.207268 0
M  V30 2377 C 238.139 -1.50796 -1.13605 0
M  V30 2378 O 237.496 -0.648265 -1.70598 0
M  V30 2379 C 237.547 -3.61248 0.134975 0
M  V30 2380 O 237.268 -4.1427 1.42521 0
M  V30 2381 C 238.769 -4.41859 -0.357151 0
M  V30 2382 H 235.989 -0.663431 0.100503 0
M  V30 2383 H 238.533 -1.82479 0.923136 0
M  V30 2384 H 236.688 -3.83735 -0.531588 0
M  V30 2385 H 237.102 -5.0815 1.29939 0
M  V30 2386 H 238.576 -5.50847 -0.356641 0
M  V30 2387 H 239.053 -4.16536 -1.39264 0
M  V30 2388 H 239.659 -4.24392 0.27772 0
M  V30 2389 N 237.974 -0.419461 -1.51915 0
M  V30 2390 C 239.222 0.152637 -2.01523 0
M  V30 2391 C 239.543 1.44762 -1.30649 0
M  V30 2392 O 238.813 1.90997 -0.435535 0
M  V30 2393 H 237.393 0.0593966 -0.744635 0
M  V30 2394 H 240.055 -0.558073 -1.86739 0
M  V30 2395 H 239.151 0.341369 -3.10227 0
M  V30 2396 N 239.452 1.56882 -0.150215 0
M  V30 2397 C 240.699 1.96228 0.500093 0
M  V30 2398 C 241.027 1.03522 1.64661 0
M  V30 2399 O 240.282 0.0650683 1.95592 0
M  V30 2400 C 240.581 3.41801 1.04437 0
M  V30 2401 C 240.247 4.50897 0.0159671 0
M  V30 2402 C 238.909 4.8046 -0.266731 0
M  V30 2403 C 241.261 5.16703 -0.683192 0
M  V30 2404 C 238.589 5.73135 -1.25434 0
M  V30 2405 C 240.941 6.10441 -1.65964 0
M  V30 2406 C 239.605 6.38382 -1.95 0
M  V30 2407 H 238.875 0.718048 0.182997 0
M  V30 2408 H 241.522 1.90019 -0.237724 0
M  V30 2409 H 239.827 3.44857 1.85959 0
M  V30 2410 H 241.524 3.69573 1.55618 0
M  V30 2411 H 238.114 4.27891 0.246485 0
M  V30 2412 H 242.298 4.93993 -0.477983 0
M  V30 2413 H 237.554 5.93074 -1.48571 0
M  V30 2414 H 241.728 6.60507 -2.20689 0
M  V30 2415 H 239.355 7.09996 -2.71679 0
M  V30 2416 N 240.93 -0.123565 1.57115 0
M  V30 2417 C 241.862 -1.17739 1.96648 0
M  V30 2418 C 242.875 -1.37906 0.865201 0
M  V30 2419 O 244.064 -1.37062 1.14351 0
M  V30 2420 C 241.164 -2.53821 2.24562 0
M  V30 2421 C 240.337 -2.54317 3.55867 0
M  V30 2422 C 239.396 -3.72112 3.72047 0
M  V30 2423 O 238.422 -3.55907 4.44206 0
M  V30 2424 N 239.624 -4.90498 3.10471 0
M  V30 2425 H 242.389 -0.841147 2.87654 0
M  V30 2426 H 239.95 -0.31289 1.58848 0
M  V30 2427 H 241.942 -3.31175 2.32606 0
M  V30 2428 H 240.512 -2.79645 1.39705 0
M  V30 2429 H 239.732 -1.62711 3.59053 0
M  V30 2430 H 241.02 -2.51701 4.42181 0
M  V30 2431 H 240.418 -5.06567 2.51806 0
M  V30 2432 H 238.975 -5.65544 3.24043 0
M  V30 2433 N 242.408 -1.52605 -0.393616 0
M  V30 2434 C 243.338 -1.80022 -1.48709 0
M  V30 2435 C 244.319 -0.651995 -1.57108 0
M  V30 2436 O 245.504 -0.89913 -1.72132 0
M  V30 2437 C 242.634 -1.96492 -2.86371 0
M  V30 2438 C 241.588 -3.12161 -2.92813 0
M  V30 2439 C 240.914 -3.13877 -4.3288 0
M  V30 2440 C 242.214 -4.51322 -2.6288 0
M  V30 2441 H 243.908 -2.71589 -1.26015 0
M  V30 2442 H 241.454 -1.30684 -0.604778 0
M  V30 2443 H 243.407 -2.14255 -3.62867 0
M  V30 2444 H 242.131 -1.01611 -3.10391 0
M  V30 2445 H 240.79 -2.94173 -2.18764 0
M  V30 2446 H 240.438 -2.16687 -4.53933 0
M  V30 2447 H 240.138 -3.91576 -4.38112 0
M  V30 2448 H 241.662 -3.33789 -5.1129 0
M  V30 2449 H 243.076 -4.69435 -3.29096 0
M  V30 2450 H 241.473 -5.31053 -2.79468 0
M  V30 2451 H 242.543 -4.58353 -1.58242 0
M  V30 2452 N 243.887 0.651787 -1.4349 0
M  V30 2453 C 244.819 1.77725 -1.44729 0
M  V30 2454 C 245.832 1.59141 -0.343231 0
M  V30 2455 O 247.021 1.67835 -0.607751 0
M  V30 2456 C 244.121 3.15172 -1.24579 0
M  V30 2457 C 243.294 3.60402 -2.47849 0
M  V30 2458 C 242.353 4.76656 -2.22902 0
M  V30 2459 O 241.379 4.86022 -2.96263 0
M  V30 2460 N 242.581 5.66958 -1.24656 0
M  V30 2461 H 245.346 1.77141 -2.41746 0
M  V30 2462 H 242.907 0.835678 -1.38665 0
M  V30 2463 H 244.899 3.90634 -1.0577 0
M  V30 2464 H 243.469 3.1052 -0.360015 0
M  V30 2465 H 242.689 2.75369 -2.82073 0
M  V30 2466 H 243.977 3.87368 -3.29884 0
M  V30 2467 H 243.375 5.62065 -0.640265 0
M  V30 2468 H 241.932 6.42135 -1.1183 0
M  V30 2469 N 245.365 1.30045 0.890287 0
M  V30 2470 C 246.59 1.21598 1.68014 0
M  V30 2471 C 247.015 -0.218678 1.86825 0
M  V30 2472 O 246.373 -1.15756 1.39536 0
M  V30 2473 C 246.421 1.94434 3.03691 0
M  V30 2474 O 245.525 1.2678 3.92429 0
M  V30 2475 H 244.866 0.420856 0.513592 0
M  V30 2476 H 247.396 1.71775 1.11151 0
M  V30 2477 H 247.406 2.03251 3.5377 0
M  V30 2478 H 246.081 2.98777 2.89318 0
M  V30 2479 H 244.658 1.26282 3.50866 0
M  V30 2480 N 246.843 -1.10192 1.12674 0
M  V30 2481 C 248.068 -1.86523 0.906853 0
M  V30 2482 C 248.493 -1.80221 -0.538711 0
M  V30 2483 O 247.851 -1.17396 -1.38158 0
M  V30 2484 C 247.899 -3.32758 1.3894 0
M  V30 2485 O 247.003 -4.08449 0.5695 0
M  V30 2486 H 246.344 -0.578678 0.325619 0
M  V30 2487 H 248.874 -1.39203 1.49946 0
M  V30 2488 H 248.884 -3.83608 1.38958 0
M  V30 2489 H 247.559 -3.36661 2.44197 0
M  V30 2490 H 246.136 -3.67427 0.636528 0
M  V30 2491 N 248.321 -0.919034 -1.28029 0
M  V30 2492 C 249.231 -0.416756 -2.30869 0
M  V30 2493 C 250.247 0.498235 -1.66714 0
M  V30 2494 O 251.423 0.383144 -1.97722 0
M  V30 2495 C 248.488 0.330274 -3.45123 0
M  V30 2496 C 247.549 -0.618578 -4.2482 0
M  V30 2497 C 246.782 0.0928959 -5.33619 0
M  V30 2498 O 247.005 1.31375 -5.55065 0
M  V30 2499 O 245.939 -0.574499 -5.99152 0
M  V30 2500 H 249.765 -1.27043 -2.75851 0
M  V30 2501 H 247.35 -0.684052 -1.3282 0
M  V30 2502 H 249.232 0.751972 -4.14636 0
M  V30 2503 H 247.907 1.1597 -3.02213 0
M  V30 2504 H 246.814 -1.08978 -3.57875 0
M  V30 2505 H 248.147 -1.41497 -4.71423 0
M  V30 2506 N 249.799 1.42003 -0.683588 0
M  V30 2507 C 251.046 2.01413 -0.209514 0
M  V30 2508 C 251.374 1.54088 1.1869 0
M  V30 2509 O 250.629 0.737591 1.81268 0
M  V30 2510 C 250.928 3.56827 -0.202357 0
M  V30 2511 C 250.594 4.23617 -1.54464 0
M  V30 2512 C 249.256 4.41577 -1.91215 0
M  V30 2513 C 251.608 4.61178 -2.42826 0
M  V30 2514 C 248.936 4.9437 -3.15935 0
M  V30 2515 C 251.288 5.15355 -3.66867 0
M  V30 2516 C 249.952 5.31528 -4.03776 0
M  V30 2517 H 249.222 0.737023 -0.0766668 0
M  V30 2518 H 251.869 1.70067 -0.880312 0
M  V30 2519 H 250.174 3.87892 0.551969 0
M  V30 2520 H 251.871 4.00588 0.181793 0
M  V30 2521 H 248.461 4.10004 -1.24877 0
M  V30 2522 H 252.645 4.46968 -2.15717 0
M  V30 2523 H 247.901 5.05076 -3.44541 0
M  V30 2524 H 252.075 5.43402 -4.35531 0
M  V30 2525 H 249.702 5.72199 -5.00492 0
M  V30 2526 N 251.277 0.427512 1.51691 0
M  V30 2527 C 252.187 -0.39527 2.31246 0
M  V30 2528 C 253.203 -1.03674 1.39742 0
M  V30 2529 O 254.379 -1.03425 1.72816 0
M  V30 2530 C 251.444 -1.48706 3.13189 0
M  V30 2531 C 250.505 -0.866743 4.20459 0
M  V30 2532 C 249.738 -1.90651 4.98486 0
M  V30 2533 O 249.961 -3.12733 4.77026 0
M  V30 2534 O 248.895 -1.5025 5.82845 0
M  V30 2535 H 252.721 0.253918 3.02637 0
M  V30 2536 H 250.306 0.190274 1.48183 0
M  V30 2537 H 252.188 -2.12047 3.64162 0
M  V30 2538 H 250.863 -2.12051 2.44573 0
M  V30 2539 H 249.77 -0.195544 3.73589 0
M  V30 2540 H 251.103 -0.276934 4.9142 0
M  V30 2541 N 252.755 -1.56801 0.158532 0
M  V30 2542 C 254.003 -1.96102 -0.488712 0
M  V30 2543 C 254.324 -1.04498 -1.64636 0
M  V30 2544 O 253.594 -0.108783 -1.95598 0
M  V30 2545 H 252.174 -0.724102 -0.183535 0
M  V30 2546 H 254.836 -1.93457 0.236728 0
M  V30 2547 H 253.932 -3.00097 -0.857219 0
M  V30 2548 N 254.233 0.115231 -1.57178 0
M  V30 2549 C 255.163 1.1423 -2.03651 0
M  V30 2550 C 256.144 1.42967 -0.921655 0
M  V30 2551 O 257.329 1.53343 -1.19162 0
M  V30 2552 C 254.459 2.4675 -2.44401 0
M  V30 2553 C 253.413 2.32467 -3.59365 0
M  V30 2554 C 252.739 3.69984 -3.86026 0
M  V30 2555 C 254.039 1.78203 -4.90959 0
M  V30 2556 H 255.733 0.755749 -2.89705 0
M  V30 2557 H 253.279 0.362093 -1.39373 0
M  V30 2558 H 255.232 3.18854 -2.75517 0
M  V30 2559 H 253.956 2.87302 -1.55322 0
M  V30 2560 H 252.615 1.62811 -3.28463 0
M  V30 2561 H 252.263 4.08028 -2.94147 0
M  V30 2562 H 251.963 3.61279 -4.63412 0
M  V30 2563 H 253.487 4.43587 -4.19599 0
M  V30 2564 H 254.901 2.40128 -5.20587 0
M  V30 2565 H 253.298 1.8031 -5.72371 0
M  V30 2566 H 254.368 0.739876 -4.79222 0
M  V30 2567 N 255.711 1.52812 0.385517 0
M  V30 2568 C 256.988 1.5861 1.14465 0
M  V30 2569 C 257.368 0.381402 2.07626 0
M  V30 2570 O 256.716 -0.629999 2.19643 0
M  V30 2571 C 256.926 2.92664 1.90128 0
M  V30 2572 C 258.274 3.46526 2.45367 0
M  V30 2573 O 259.298 2.94562 2.0028 0
M  V30 2574 O 258.157 4.37323 3.27736 0
M  V30 2575 H 255.251 0.639855 0.523941 0
M  V30 2576 H 257.797 1.65149 0.390389 0
M  V30 2577 H 256.569 3.71788 1.22022 0
M  V30 2578 H 256.192 2.89527 2.72507 0
M  V30 2579 N 257.189 -0.644168 1.43834 0
M  V30 2580 C 258.119 -1.76814 1.52509 0
M  V30 2581 C 259.1 -1.65823 0.379052 0
M  V30 2582 O 260.285 -1.84781 0.597466 0
M  V30 2583 C 257.415 -3.15288 1.4564 0
M  V30 2584 C 256.369 -3.41053 2.58586 0
M  V30 2585 C 255.695 -4.79421 2.36769 0
M  V30 2586 C 256.995 -3.34902 4.00797 0
M  V30 2587 H 258.689 -1.69812 2.46586 0
M  V30 2588 H 256.235 -0.815542 1.1868 0
M  V30 2589 H 258.188 -3.93681 1.50311 0
M  V30 2590 H 256.912 -3.23043 0.480725 0
M  V30 2591 H 255.571 -2.65035 2.53282 0
M  V30 2592 H 255.219 -4.83863 1.37424 0
M  V30 2593 H 254.919 -4.9762 3.12487 0
M  V30 2594 H 256.443 -5.6006 2.43238 0
M  V30 2595 H 257.857 -4.03218 4.07539 0
M  V30 2596 H 256.254 -3.64637 4.76613 0
M  V30 2597 H 257.324 -2.32928 4.25291 0
M  V30 2598 N 258.668 -1.30515 -0.883378 0
M  V30 2599 C 259.578 -1.18959 -2.02203 0
M  V30 2600 C 260.594 -0.109172 -1.73657 0
M  V30 2601 O 261.77 -0.324413 -1.9877 0
M  V30 2602 C 258.835 -0.883871 -3.35244 0
M  V30 2603 C 257.896 -2.04982 -3.77201 0
M  V30 2604 C 257.129 -1.75859 -5.03894 0
M  V30 2605 O 257.352 -0.687276 -5.66244 0
M  V30 2606 O 256.286 -2.61146 -5.42297 0
M  V30 2607 H 260.112 -2.14616 -2.1488 0
M  V30 2608 H 257.697 -1.10124 -1.0096 0
M  V30 2609 H 259.579 -0.728644 -4.15053 0
M  V30 2610 H 258.254 0.0427798 -3.23672 0
M  V30 2611 H 257.161 -2.26038 -2.9809 0
M  V30 2612 H 258.494 -2.95825 -3.93381 0
M  V30 2613 N 260.146 1.09593 -1.13257 0
M  V30 2614 C 261.109 2.14359 -0.811358 0
M  V30 2615 C 262.109 1.59808 0.178377 0
M  V30 2616 O 263.299 1.74132 -0.0484911 0
M  V30 2617 C 260.431 3.40269 -0.207276 0
M  V30 2618 H 261.624 2.44284 -1.73969 0
M  V30 2619 H 259.177 1.25102 -0.936973 0
M  V30 2620 H 259.912 3.15969 0.73036 0
M  V30 2621 H 259.697 3.81154 -0.919992 0
M  V30 2622 H 261.187 4.176 0.000667944 0
M  V30 2623 N 261.624 0.925811 1.2754 0
M  V30 2624 C 262.872 0.564138 1.94067 0
M  V30 2625 C 263.193 -0.897188 1.73134 0
M  V30 2626 O 262.463 -1.63573 1.07799 0
M  V30 2627 H 261.043 0.205645 0.718136 0
M  V30 2628 H 263.705 1.1778 1.55287 0
M  V30 2629 H 262.801 0.76881 3.02483 0
M  V30 2630 N 263.102 -1.41638 0.69111 0
M  V30 2631 C 264.052 -2.28 -0.000107832 0
M  V30 2632 C 265.036 -1.41964 -0.757304 0
M  V30 2633 O 266.228 -1.65274 -0.633532 0
M  V30 2634 C 263.357 -3.30209 -0.938983 0
M  V30 2635 C 262.443 -4.23725 -0.17827 0
M  V30 2636 N 262.834 -4.99017 0.825563 0
M  V30 2637 C 261.132 -4.44071 -0.414392 0
M  V30 2638 C 261.833 -5.67431 1.28052 0
M  V30 2639 N 260.809 -5.40197 0.607304 0
M  V30 2640 H 264.611 -2.83644 0.769617 0
M  V30 2641 H 262.125 -1.53797 0.521562 0
M  V30 2642 H 264.122 -3.90898 -1.44929 0
M  V30 2643 H 262.782 -2.76126 -1.70836 0
M  V30 2644 H 263.793 -5.03671 1.20566 0
M  V30 2645 H 260.47 -4.01004 -1.162 0
M  V30 2646 H 261.86 -6.37801 2.11327 0
M  V30 2647 N 264.58 -0.43555 -1.51462 0
M  V30 2648 C 265.827 0.131514 -2.02072 0
M  V30 2649 C 266.155 1.42868 -1.31981 0
M  V30 2650 O 265.41 1.91076 -0.422883 0
M  V30 2651 C 265.709 0.39942 -3.55161 0
M  V30 2652 C 265.375 -0.81172 -4.43533 0
M  V30 2653 C 264.037 -1.14387 -4.67407 0
M  V30 2654 C 266.389 -1.61976 -4.95392 0
M  V30 2655 C 263.717 -2.28477 -5.40384 0
M  V30 2656 C 266.069 -2.75164 -5.6962 0
M  V30 2657 C 264.733 -3.08835 -5.91758 0
M  V30 2658 H 264.003 0.0481244 -0.739436 0
M  V30 2659 H 266.65 -0.58238 -1.8243 0
M  V30 2660 H 264.955 1.19519 -3.73125 0
M  V30 2661 H 266.652 0.85157 -3.91854 0
M  V30 2662 H 263.242 -0.542898 -4.25148 0
M  V30 2663 H 267.426 -1.37637 -4.76833 0
M  V30 2664 H 262.682 -2.5488 -5.55739 0
M  V30 2665 H 266.856 -3.38147 -6.08793 0
M  V30 2666 H 264.483 -3.97353 -6.48086 0
M  V30 2667 N 266.058 1.56714 -0.166846 0
M  V30 2668 C 267.286 2.0112 0.485644 0
M  V30 2669 C 267.701 1.04705 1.57106 0
M  V30 2670 O 267.058 0.0471923 1.82439 0
M  V30 2671 C 267.109 3.45361 1.06808 0
M  V30 2672 O 266.83 4.38092 0.0259995 0
M  V30 2673 C 268.331 4.05145 1.79924 0
M  V30 2674 H 265.551 0.65931 0.124704 0
M  V30 2675 H 268.095 2.02746 -0.267262 0
M  V30 2676 H 266.25 3.44524 1.7715 0
M  V30 2677 H 266.664 5.22519 0.455398 0
M  V30 2678 H 268.138 5.08009 2.15942 0
M  V30 2679 H 268.615 3.46982 2.69258 0
M  V30 2680 H 269.221 4.09672 1.14234 0
M  V30 2681 N 267.536 -0.106894 1.57237 0
M  V30 2682 C 268.446 -1.14911 2.0453 0
M  V30 2683 C 269.462 -1.44592 0.96795 0
M  V30 2684 O 270.638 -1.55468 1.2803 0
M  V30 2685 C 267.703 -2.45272 2.45036 0
M  V30 2686 C 266.764 -2.22879 3.66911 0
M  V30 2687 C 265.997 -3.47024 4.05475 0
M  V30 2688 O 266.22 -4.54804 3.44252 0
M  V30 2689 O 265.154 -3.3731 4.98504 0
M  V30 2690 H 268.98 -0.777461 2.9358 0
M  V30 2691 H 266.565 -0.318563 1.45964 0
M  V30 2692 H 268.447 -3.22055 2.71769 0
M  V30 2693 H 267.122 -2.81886 1.59129 0
M  V30 2694 H 266.029 -1.43915 3.45311 0
M  V30 2695 H 267.362 -1.91163 4.53561 0
M  V30 2696 N 269.014 -1.53014 -0.377408 0
M  V30 2697 C 270.262 -1.6829 -1.11906 0
M  V30 2698 C 270.583 -0.431206 -1.90173 0
M  V30 2699 O 269.853 0.554595 -1.87886 0
M  V30 2700 H 268.433 -0.620371 -0.416112 0
M  V30 2701 H 271.095 -1.90167 -0.426893 0
M  V30 2702 H 270.191 -2.53862 -1.8155 0
M  V30 2703 N 270.492 0.636531 -1.44174 0
M  V30 2704 C 271.439 1.74875 -1.50624 0
M  V30 2705 C 272.409 1.62275 -0.35442 0
M  V30 2706 O 273.594 1.82276 -0.563908 0
M  V30 2707 C 270.734 3.13102 -1.45125 0
M  V30 2708 C 269.847 3.36717 -2.7064 0
M  V30 2709 C 268.982 4.64885 -2.57013 0
M  V30 2710 C 268.021 4.8166 -3.77717 0
M  V30 2711 N 267.158 6.01101 -3.62798 0
M  V30 2712 H 271.998 1.68697 -2.45653 0
M  V30 2713 H 269.535 0.823004 -1.21922 0
M  V30 2714 H 271.493 3.93034 -1.39929 0
M  V30 2715 H 270.123 3.18308 -0.536671 0
M  V30 2716 H 269.175 2.50763 -2.86046 0
M  V30 2717 H 270.487 3.44993 -3.60252 0
M  V30 2718 H 269.641 5.52969 -2.49619 0
M  V30 2719 H 268.38 4.58957 -1.64953 0
M  V30 2720 H 267.385 3.92007 -3.85501 0
M  V30 2721 H 268.61 4.89406 -4.70807 0
M  V30 2722 H 266.556 5.96273 -2.73486 0
M  V30 2723 H 266.473 6.10409 -4.46023 0
M  V30 2724 H 267.741 6.91761 -3.59286 0
M  V30 2725 N 271.97 1.30982 0.876444 0
M  V30 2726 C 272.88 1.2003 2.01569 0
M  V30 2727 C 273.896 0.11838 1.73597 0
M  V30 2728 O 275.072 0.33495 1.98595 0
M  V30 2729 C 272.137 0.901637 3.34771 0
M  V30 2730 C 271.198 2.06979 3.76109 0
M  V30 2731 C 270.431 1.78529 5.02954 0
M  V30 2732 O 270.654 0.717296 5.65872 0
M  V30 2733 O 269.588 2.64019 5.40905 0
M  V30 2734 H 273.414 2.15753 2.13739 0
M  V30 2735 H 270.999 1.10658 1.00375 0
M  V30 2736 H 272.881 0.750645 4.1466 0
M  V30 2737 H 271.556 -0.0256141 3.2369 0
M  V30 2738 H 270.463 2.27616 2.96887 0
M  V30 2739 H 271.796 2.97907 3.91807 0
M  V30 2740 N 273.449 -1.08991 1.13837 0
M  V30 2741 C 274.86 -1.62746 0.914917 0
M  V30 2742 C 275.211 -1.88403 -0.547594 0
M  V30 2743 O 274.336 -1.63706 -1.41525 0
M  V30 2744 C 274.931 -2.95662 1.65437 0
M  V30 2745 C 273.49 -3.46225 1.47666 0
M  V30 2746 C 272.637 -2.20562 1.6807 0
M  V30 2747 H 275.588 -0.922946 1.29102 0
M  V30 2748 H 275.609 -3.63825 1.11407 0
M  V30 2749 H 275.121 -2.76956 2.71877 0
M  V30 2750 H 273.222 -3.70046 0.435478 0
M  V30 2751 H 273.335 -4.23368 2.24268 0
M  V30 2752 H 271.699 -2.29439 1.10589 0
M  V30 2753 H 272.482 -2.0437 2.7584 0
M  V30 2754 N 274.927 -0.932562 -1.27047 0
M  V30 2755 C 276.155 -0.592031 -1.98249 0
M  V30 2756 C 276.57 0.831062 -1.69525 0
M  V30 2757 O 275.927 1.55299 -0.958561 0
M  V30 2758 C 275.978 -0.814279 -3.5221 0
M  V30 2759 O 275.699 -2.18139 -3.7993 0
M  V30 2760 C 277.2 -0.483121 -4.4066 0
M  V30 2761 H 274.42 -0.223896 -0.632544 0
M  V30 2762 H 276.964 -1.25091 -1.61779 0
M  V30 2763 H 275.119 -0.20213 -3.86872 0
M  V30 2764 H 275.533 -2.235 -4.74498 0
M  V30 2765 H 277.007 -0.689298 -5.47679 0
M  V30 2766 H 277.484 0.581546 -4.35333 0
M  V30 2767 H 278.09 -1.07362 -4.11526 0
M  V30 2768 N 276.405 1.4127 -0.698611 0
M  V30 2769 C 277.633 2.05503 -0.239992 0
M  V30 2770 C 278.048 1.52584 1.11191 0
M  V30 2771 O 277.405 0.675323 1.69545 0
M  V30 2772 C 277.456 3.60987 -0.192429 0
M  V30 2773 O 277.177 4.1195 -1.49094 0
M  V30 2774 C 278.678 4.42371 0.28681 0
M  V30 2775 H 275.898 0.661748 -0.111045 0
M  V30 2776 H 278.442 1.80987 -0.95205 0
M  V30 2777 H 276.597 3.84533 0.470472 0
M  V30 2778 H 277.011 5.06018 -1.38007 0
M  V30 2779 H 278.485 5.51344 0.26896 0
M  V30 2780 H 278.962 4.18699 1.32619 0
M  V30 2781 H 279.568 4.23897 -0.345201 0
M  V30 2782 N 277.883 0.443576 1.51229 0
M  V30 2783 C 279.129 -0.120975 2.02439 0
M  V30 2784 C 279.462 -1.41815 1.32674 0
M  V30 2785 O 278.737 -1.89373 0.443622 0
M  V30 2786 C 279.02 -0.333291 3.58554 0
M  V30 2787 C 278.873 0.982968 4.38928 0
M  V30 2788 C 280.192 -1.10028 4.26124 0
M  V30 2789 H 277.311 -0.0424923 0.735774 0
M  V30 2790 H 279.953 0.583794 1.80809 0
M  V30 2791 H 278.103 -0.933614 3.77115 0
M  V30 2792 H 279.775 1.61775 4.32003 0
M  V30 2793 H 278.018 1.58611 4.03763 0
M  V30 2794 H 278.689 0.788379 5.46341 0
M  V30 2795 H 281.165 -0.591711 4.11871 0
M  V30 2796 H 280.041 -1.21761 5.35225 0
M  V30 2797 H 280.302 -2.12996 3.87408 0
M  V30 2798 N 279.361 -1.56624 0.175154 0
M  V30 2799 C 280.308 -2.18149 -0.753634 0
M  V30 2800 C 281.278 -1.12265 -1.22417 0
M  V30 2801 O 282.463 -1.40432 -1.29165 0
M  V30 2802 C 279.603 -2.82933 -1.97592 0
M  V30 2803 C 278.716 -4.03289 -1.5486 0
M  V30 2804 C 277.851 -4.55988 -2.72485 0
M  V30 2805 C 276.89 -5.68746 -2.26262 0
M  V30 2806 N 276.027 -6.15938 -3.36994 0
M  V30 2807 H 280.867 -2.9717 -0.222195 0
M  V30 2808 H 278.404 -1.46774 -0.0979422 0
M  V30 2809 H 280.362 -3.18653 -2.69288 0
M  V30 2810 H 278.992 -2.06509 -2.481 0
M  V30 2811 H 278.044 -3.73364 -0.728246 0
M  V30 2812 H 279.356 -4.849 -1.16933 0
M  V30 2813 H 278.51 -4.9391 -3.52332 0
M  V30 2814 H 277.249 -3.73443 -3.13674 0
M  V30 2815 H 276.254 -5.30372 -1.44863 0
M  V30 2816 H 277.479 -6.53095 -1.86127 0
M  V30 2817 H 275.425 -5.36321 -3.77751 0
M  V30 2818 H 275.342 -6.92548 -3.03172 0
M  V30 2819 H 276.61 -6.58511 -4.17114 0
M  V30 2820 N 280.839 0.0985539 -1.57292 0
M  V30 2821 C 282.064 0.820196 -1.90493 0
M  V30 2822 C 282.489 1.71658 -0.769094 0
M  V30 2823 O 281.847 1.79133 0.279495 0
M  V30 2824 C 281.895 1.61242 -3.22542 0
M  V30 2825 O 280.999 2.72108 -3.09888 0
M  V30 2826 H 280.34 0.225547 -0.62452 0
M  V30 2827 H 282.87 0.0748159 -2.04463 0
M  V30 2828 H 282.88 1.99737 -3.55766 0
M  V30 2829 H 281.555 0.954535 -4.04798 0
M  V30 2830 H 280.132 2.36667 -2.88172 0
M  V30 2831 N 282.317 1.53212 0.369288 0
M  V30 2832 C 283.733 1.42902 0.710712 0
M  V30 2833 C 283.933 0.565135 1.93413 0
M  V30 2834 O 282.989 0.0461484 2.52458 0
M  V30 2835 C 284.302 2.86042 0.927382 0
M  V30 2836 C 285.85 2.9565 1.02762 0
M  V30 2837 C 286.325 4.39843 1.27679 0
M  V30 2838 N 287.816 4.43256 1.34457 0
M  V30 2839 C 288.551 5.51929 1.55439 0
M  V30 2840 N 288.047 6.70655 1.73762 0
M  V30 2841 N 289.84 5.39502 1.57779 0
M  V30 2842 H 281.991 2.07888 -0.435457 0
M  V30 2843 H 284.254 0.938661 -0.132739 0
M  V30 2844 H 283.96 3.51557 0.100287 0
M  V30 2845 H 283.834 3.29472 1.83653 0
M  V30 2846 H 286.221 2.30291 1.84527 0
M  V30 2847 H 286.302 2.5562 0.0959504 0
M  V30 2848 H 285.946 5.05774 0.464175 0
M  V30 2849 H 285.876 4.77443 2.22162 0
M  V30 2850 H 288.367 3.5769 1.21926 0
M  V30 2851 H 288.68 7.49248 1.89335 0
M  V30 2852 H 287.025 6.73648 1.70948 0
M  V30 2853 H 290.216 4.45713 1.43029 0
M  V30 2854 H 290.389 6.2426 1.7379 0
M  V30 2855 N 283.795 -0.628877 1.44509 0
M  V30 2856 C 285.043 -1.38565 1.4712 0
M  V30 2857 C 285.364 -1.94712 0.105899 0
M  V30 2858 O 284.634 -1.75912 -0.862079 0
M  V30 2859 H 283.214 -0.514333 0.541729 0
M  V30 2860 H 285.876 -0.740018 1.80305 0
M  V30 2861 H 284.972 -2.21583 2.19789 0
M  V30 2862 N 285.273 -1.31445 -0.869486 0
M  V30 2863 C 286.183 -1.21097 -2.0093 0
M  V30 2864 C 287.199 -0.127584 -1.73532 0
M  V30 2865 O 288.375 -0.345477 -1.98415 0
M  V30 2866 C 285.44 -0.919378 -3.34288 0
M  V30 2867 C 284.501 -2.08971 -3.75006 0
M  V30 2868 C 283.734 -1.81194 -5.02001 0
M  V30 2869 O 283.957 -0.747296 -5.65484 0
M  V30 2870 O 282.891 -2.66883 -5.39497 0
M  V30 2871 H 286.717 -2.16883 -2.12592 0
M  V30 2872 H 284.302 -1.11189 -0.997868 0
M  V30 2873 H 286.184 -0.772625 -4.14257 0
M  V30 2874 H 284.859 0.00844772 -3.23699 0
M  V30 2875 H 283.766 -2.29187 -2.95676 0
M  V30 2876 H 285.099 -2.9998 -3.90221 0
M  V30 2877 N 286.751 1.08385 -1.14413 0
M  V30 2878 C 287.681 2.17321 -0.854044 0
M  V30 2879 C 288.662 1.69024 0.191049 0
M  V30 2880 O 289.847 1.94141 0.0476779 0
M  V30 2881 C 286.977 3.45719 -0.330983 0
M  V30 2882 C 285.931 4.07409 -1.31155 0
M  V30 2883 C 285.257 5.30762 -0.64778 0
M  V30 2884 C 286.557 4.48665 -2.67388 0
M  V30 2885 H 288.251 2.41845 -1.76498 0
M  V30 2886 H 285.797 1.16233 -0.850051 0
M  V30 2887 H 287.75 4.21241 -0.115645 0
M  V30 2888 H 286.474 3.2075 0.615381 0
M  V30 2889 H 285.133 3.33919 -1.51306 0
M  V30 2890 H 284.781 5.02078 0.304398 0
M  V30 2891 H 284.481 5.72992 -1.30207 0
M  V30 2892 H 286.005 6.08998 -0.441972 0
M  V30 2893 H 287.419 5.15364 -2.51143 0
M  V30 2894 H 285.816 5.01814 -3.29093 0
M  V30 2895 H 286.886 3.60543 -3.24248 0
M  V30 2896 N 288.23 0.939286 1.26551 0
M  V30 2897 C 289.46 0.601663 1.97645 0
M  V30 2898 C 289.868 -0.827206 1.70159 0
M  V30 2899 O 289.211 -1.56291 0.965338 0
M  V30 2900 C 289.273 0.761725 3.51337 0
M  V30 2901 C 288.937 2.16487 4.0247 0
M  V30 2902 C 289.934 3.14016 4.14355 0
M  V30 2903 C 287.619 2.48494 4.36527 0
M  V30 2904 C 289.613 4.41654 4.59587 0
M  V30 2905 C 287.3 3.76364 4.81449 0
M  V30 2906 C 288.298 4.72758 4.92939 0
M  V30 2907 O 287.986 5.98352 5.36871 0
M  V30 2908 H 287.718 0.225758 0.637189 0
M  V30 2909 H 290.272 1.26178 1.62075 0
M  V30 2910 H 288.502 0.0444808 3.86674 0
M  V30 2911 H 290.191 0.427442 4.03643 0
M  V30 2912 H 290.957 2.90613 3.8829 0
M  V30 2913 H 286.836 1.74202 4.26819 0
M  V30 2914 H 290.38 5.16896 4.68471 0
M  V30 2915 H 286.277 3.99582 5.06956 0
M  V30 2916 H 287.045 6.01507 5.55096 0
M  V30 2917 N 289.708 -1.40897 0.706093 0
M  V30 2918 C 290.671 -2.29131 0.0562841 0
M  V30 2919 C 291.671 -1.44901 -0.697166 0
M  V30 2920 O 292.861 -1.65926 -0.530484 0
M  V30 2921 C 289.993 -3.27957 -0.93043 0
M  V30 2922 H 291.186 -2.88091 0.833284 0
M  V30 2923 H 288.739 -1.4906 0.470192 0
M  V30 2924 H 289.474 -2.73997 -1.73482 0
M  V30 2925 H 289.259 -3.90124 -0.393166 0
M  V30 2926 H 290.749 -3.94049 -1.38256 0
M  V30 2927 N 291.186 -0.45159 -1.50991 0
M  V30 2928 C 292.414 0.108334 -2.06616 0
M  V30 2929 C 292.829 1.35224 -1.31757 0
M  V30 2930 O 292.186 1.78475 -0.381174 0
M  V30 2931 C 292.237 0.41619 -3.59096 0
M  V30 2932 O 291.958 -0.778361 -4.3113 0
M  V30 2933 C 293.459 1.02523 -4.31282 0
M  V30 2934 H 290.679 0.00159995 -0.670998 0
M  V30 2935 H 293.223 -0.634771 -1.94399 0
M  V30 2936 H 291.378 1.10921 -3.71181 0
M  V30 2937 H 291.792 -0.511181 -5.22003 0
M  V30 2938 H 293.266 1.19053 -5.39009 0
M  V30 2939 H 293.743 2.01013 -3.905 0
M  V30 2940 H 294.349 0.371173 -4.23677 0
M  V30 2941 N 292.664 1.56529 -0.183458 0
M  V30 2942 C 293.894 2.01331 0.463612 0
M  V30 2943 C 294.302 1.06278 1.5653 0
M  V30 2944 O 293.645 0.0577976 1.83609 0
M  V30 2945 C 293.707 3.42547 1.09096 0
M  V30 2946 C 293.371 4.56817 0.129442 0
M  V30 2947 C 294.368 5.15734 -0.656807 0
M  V30 2948 C 292.053 5.02295 0.02174 0
M  V30 2949 C 294.047 6.1857 -1.53784 0
M  V30 2950 C 291.734 6.04978 -0.862864 0
M  V30 2951 C 292.732 6.62988 -1.64123 0
M  V30 2952 O 292.42 7.63677 -2.51103 0
M  V30 2953 H 292.152 0.664917 0.121907 0
M  V30 2954 H 294.706 2.034 -0.285954 0
M  V30 2955 H 292.936 3.37428 1.88889 0
M  V30 2956 H 294.625 3.71228 1.64148 0
M  V30 2957 H 295.391 4.81473 -0.583839 0
M  V30 2958 H 291.27 4.56847 0.617392 0
M  V30 2959 H 294.814 6.63777 -2.14583 0
M  V30 2960 H 290.711 6.38663 -0.93699 0
M  V30 2961 H 291.479 7.81049 -2.44753 0
M  V30 2962 N 294.142 -0.090211 1.57342 0
M  V30 2963 C 295.105 -1.09335 2.01441 0
M  V30 2964 C 296.105 -1.32666 0.908641 0
M  V30 2965 O 297.295 -1.28697 1.174 0
M  V30 2966 C 294.427 -2.44136 2.3793 0
M  V30 2967 H 295.62 -0.713662 2.91285 0
M  V30 2968 H 293.173 -0.335404 1.52659 0
M  V30 2969 H 293.908 -2.86972 1.51055 0
M  V30 2970 H 293.693 -2.28548 3.18603 0
M  V30 2971 H 295.183 -3.16277 2.72688 0
M  V30 2972 N 295.62 -1.53406 -0.361157 0
M  V30 2973 C 296.868 -1.69467 -1.10115 0
M  V30 2974 C 297.189 -0.451352 -1.89705 0
M  V30 2975 O 296.459 0.534636 -1.88463 0
M  V30 2976 H 295.039 -0.624749 -0.409508 0
M  V30 2977 H 297.701 -1.90609 -0.406699 0
M  V30 2978 H 296.797 -2.55774 -1.78847 0
M  V30 2979 N 297.098 0.621204 -1.44841 0
M  V30 2980 C 298.008 1.7612 -1.5498 0
M  V30 2981 C 299.024 1.68477 -0.434927 0
M  V30 2982 O 300.2 1.89076 -0.693693 0
M  V30 2983 C 297.265 3.1254 -1.50065 0
M  V30 2984 C 296.326 3.31741 -2.72482 0
M  V30 2985 C 295.559 4.61653 -2.67792 0
M  V30 2986 O 295.782 5.431 -1.74352 0
M  V30 2987 O 294.716 4.83271 -3.58794 0
M  V30 2988 H 298.542 1.70518 -2.51311 0
M  V30 2989 H 296.127 0.783643 -1.27198 0
M  V30 2990 H 298.009 3.93844 -1.49882 0
M  V30 2991 H 296.684 3.18663 -0.568806 0
M  V30 2992 H 295.591 2.50077 -2.7823 0
M  V30 2993 H 296.924 3.30486 -3.64746 0
M  V30 2994 N 298.576 1.31904 0.862503 0
M  V30 2995 C 299.804 1.24998 1.64873 0
M  V30 2996 C 300.219 -0.183425 1.87907 0
M  V30 2997 O 299.576 -1.11794 1.44251 0
M  V30 2998 C 299.627 1.99829 3.01248 0
M  V30 2999 O 299.348 3.37575 2.79239 0
M  V30 3000 C 300.849 1.99852 3.95694 0
M  V30 3001 H 298.069 0.431599 0.513773 0
M  V30 3002 H 300.613 1.73901 1.07604 0
M  V30 3003 H 298.768 1.54668 3.55185 0
M  V30 3004 H 299.182 3.75776 3.65914 0
M  V30 3005 H 300.656 2.56709 4.88676 0
M  V30 3006 H 301.133 0.982852 4.28062 0
M  V30 3007 H 301.739 2.44926 3.47694 0
M  V30 3008 N 300.054 -1.07777 1.14986 0
M  V30 3009 C 301.017 -2.13041 0.845358 0
M  V30 3010 C 302.017 -1.60071 -0.152931 0
M  V30 3011 O 303.207 -1.74033 0.0761879 0
M  V30 3012 C 300.339 -3.39896 0.261383 0
M  V30 3013 H 301.532 -2.41485 1.77834 0
M  V30 3014 H 299.085 -1.23595 0.956757 0
M  V30 3015 H 299.82 -3.17091 -0.68 0
M  V30 3016 H 299.605 -3.79642 0.980514 0
M  V30 3017 H 301.095 -4.17548 0.0657687 0
M  V30 3018 N 301.532 -0.945985 -1.26051 0
M  V30 3019 C 302.479 -0.45809 -2.26208 0
M  V30 3020 C 303.449 0.484816 -1.58867 0
M  V30 3021 O 304.634 0.399969 -1.86561 0
M  V30 3022 C 301.774 0.266131 -3.44072 0
M  V30 3023 C 300.887 -0.713005 -4.26075 0
M  V30 3024 C 300.022 0.0329013 -5.3119 0
M  V30 3025 C 299.061 -0.93774 -6.04874 0
M  V30 3026 N 298.198 -0.223274 -7.01745 0
M  V30 3027 H 303.038 -1.3171 -2.67313 0
M  V30 3028 H 300.575 -0.66069 -1.31428 0
M  V30 3029 H 302.533 0.702514 -4.11243 0
M  V30 3030 H 301.163 1.08925 -3.03867 0
M  V30 3031 H 300.215 -1.26789 -3.58648 0
M  V30 3032 H 301.527 -1.45406 -4.77136 0
M  V30 3033 H 300.681 0.528335 -6.04395 0
M  V30 3034 H 299.42 0.806801 -4.8098 0
M  V30 3035 H 298.425 -1.44425 -5.30492 0
M  V30 3036 H 299.65 -1.71172 -6.57173 0
M  V30 3037 H 297.596 0.532046 -6.53839 0
M  V30 3038 H 297.513 -0.90357 -7.50581 0
M  V30 3039 H 298.781 0.250907 -7.79096 0
M  V30 3040 N 303.011 1.40521 -0.713556 0
M  V30 3041 C 304.236 2.05759 -0.26035 0
M  V30 3042 C 304.661 1.53403 1.08854 0
M  V30 3043 O 304.019 0.668535 1.68524 0
M  V30 3044 C 304.067 3.59745 -0.248122 0
M  V30 3045 O 303.171 4.05123 0.77131 0
M  V30 3046 H 302.512 0.652564 -0.122703 0
M  V30 3047 H 305.042 1.79958 -0.973467 0
M  V30 3048 H 305.052 4.07911 -0.0851129 0
M  V30 3049 H 303.727 3.97218 -1.2325 0
M  V30 3050 H 302.304 3.68422 0.57619 0
M  V30 3051 N 304.489 0.459591 1.5075 0
M  V30 3052 C 305.452 -0.329093 2.26825 0
M  V30 3053 C 306.452 -0.930481 1.31144 0
M  V30 3054 O 307.642 -0.801453 1.54669 0
M  V30 3055 C 304.774 -1.46768 3.07688 0
M  V30 3056 H 305.967 0.337924 2.9799 0
M  V30 3057 H 303.52 0.213336 1.54837 0
M  V30 3058 H 304.255 -2.17009 2.40993 0
M  V30 3059 H 304.04 -1.04238 3.77991 0
M  V30 3060 H 305.53 -2.02433 3.65254 0
M  V30 3061 N 305.967 -1.56429 0.191757 0
M  V30 3062 C 307.244 -1.89224 -0.495332 0
M  V30 3063 C 307.624 -1.10478 -1.79883 0
M  V30 3064 O 306.972 -0.204852 -2.2758 0
M  V30 3065 C 307.182 -3.41548 -0.717367 0
M  V30 3066 C 308.53 -4.11711 -1.03823 0
M  V30 3067 O 309.554 -3.4698 -0.805204 0
M  V30 3068 O 308.413 -5.2611 -1.47887 0
M  V30 3069 H 305.507 -0.785788 -0.25781 0
M  V30 3070 H 308.053 -1.68111 0.231721 0
M  V30 3071 H 306.825 -3.90772 0.203287 0
M  V30 3072 H 306.448 -3.68342 -1.497 0
M  V30 3073 N 307.445 0.0818655 -1.57387 0
M  V30 3074 C 308.692 0.782914 -1.86753 0
M  V30 3075 C 309.02 1.78082 -0.782118 0
M  V30 3076 O 308.275 1.94426 0.22295 0
M  V30 3077 C 308.574 1.53513 -3.22752 0
M  V30 3078 C 308.24 0.678134 -4.45771 0
M  V30 3079 C 306.902 0.441929 -4.79166 0
M  V30 3080 C 309.254 0.0832243 -5.21134 0
M  V30 3081 C 306.582 -0.398833 -5.85343 0
M  V30 3082 C 308.934 -0.744935 -6.28199 0
M  V30 3083 C 307.598 -0.991107 -6.60101 0
M  V30 3084 H 306.868 0.286489 -0.683378 0
M  V30 3085 H 309.515 0.0439808 -1.91449 0
M  V30 3086 H 307.82 2.34599 -3.138 0
M  V30 3087 H 309.517 2.08218 -3.42705 0
M  V30 3088 H 306.107 0.872357 -4.19628 0
M  V30 3089 H 310.291 0.252847 -4.95655 0
M  V30 3090 H 305.547 -0.598405 -6.08465 0
M  V30 3091 H 309.721 -1.21271 -6.8576 0
M  V30 3092 H 307.348 -1.64437 -7.42202 0
M  V30 3093 N 308.923 1.53595 0.353017 0
M  V30 3094 C 310.172 1.69603 1.09168 0
M  V30 3095 C 310.485 0.460925 1.90092 0
M  V30 3096 O 311.691 0.501774 2.66823 0
M  V30 3097 C 310.147 2.99872 1.9901 0
M  V30 3098 C 309.755 4.30687 1.23339 0
M  V30 3099 C 311.499 3.25246 2.72792 0
M  V30 3100 C 309.406 5.52036 2.12156 0
M  V30 3101 H 308.336 0.631966 0.411261 0
M  V30 3102 H 310.987 1.80096 0.351802 0
M  V30 3103 H 309.369 2.83212 2.7678 0
M  V30 3104 H 310.543 4.58019 0.505456 0
M  V30 3105 H 308.858 4.11853 0.613663 0
M  V30 3106 H 311.455 4.13095 3.39495 0
M  V30 3107 H 311.798 2.41846 3.38846 0
M  V30 3108 H 312.331 3.42638 2.021 0
M  V30 3109 H 309.07 6.37951 1.50659 0
M  V30 3110 H 308.59 5.28966 2.82764 0
M  V30 3111 H 310.269 5.87313 2.71427 0
M  V30 3112 N 310.401 -0.613514 1.45168 0
M  V30 3113 C 311.649 -1.36997 1.48581 0
M  V30 3114 C 311.97 -1.94589 0.126545 0
M  V30 3115 O 311.24 -1.76816 -0.843372 0
M  V30 3116 H 309.82 -0.508558 0.547154 0
M  V30 3117 H 312.482 -0.720853 1.81079 0
M  V30 3118 H 311.578 -2.1924 2.22127 0
M  V30 3119 N 311.879 -1.3236 -0.855495 0
M  V30 3120 C 313.127 -1.22629 -1.60644 0
M  V30 3121 C 313.448 0.212136 -1.93843 0
M  V30 3122 O 312.718 1.13666 -1.59552 0
M  V30 3123 H 311.298 -0.450882 -0.595579 0
M  V30 3124 H 313.96 -1.65871 -1.02337 0
M  V30 3125 H 313.056 -1.80832 -2.54374 0
M  V30 3126 N 313.357 1.07166 -1.15556 0
M  V30 3127 C 314.773 1.31899 -0.898603 0
M  V30 3128 C 314.973 1.96333 0.453383 0
M  V30 3129 O 314.029 2.22438 1.19489 0
M  V30 3130 C 315.342 2.20826 -2.04099 0
M  V30 3131 C 316.89 2.34269 -2.07574 0
M  V30 3132 C 317.365 3.26546 -3.21141 0
M  V30 3133 N 318.856 3.34127 -3.20801 0
M  V30 3134 C 319.591 4.05595 -4.05315 0
M  V30 3135 N 319.087 4.79661 -4.99897 0
M  V30 3136 N 320.88 4.01555 -3.93332 0
M  V30 3137 H 313.031 0.637302 -2.02613 0
M  V30 3138 H 315.294 0.343468 -0.883591 0
M  V30 3139 H 315 1.80744 -3.01703 0
M  V30 3140 H 314.874 3.21364 -1.97496 0
M  V30 3141 H 317.261 2.73603 -1.10568 0
M  V30 3142 H 317.342 1.33429 -2.18244 0
M  V30 3143 H 316.986 2.87931 -4.184 0
M  V30 3144 H 316.916 4.27345 -3.07708 0
M  V30 3145 H 319.407 2.81336 -2.52306 0
M  V30 3146 H 319.72 5.31694 -5.60822 0
M  V30 3147 H 318.065 4.78671 -5.03884 0
M  V30 3148 H 321.256 3.42806 -3.18751 0
M  V30 3149 H 321.429 4.56987 -4.5942 0
M  V30 3150 N 314.835 0.952656 1.25548 0
M  V30 3151 C 316.065 0.622592 1.96996 0
M  V30 3152 C 316.473 -0.809112 1.71026 0
M  V30 3153 O 315.816 -1.55258 0.981861 0
M  V30 3154 C 315.878 0.798946 3.5051 0
M  V30 3155 C 315.542 2.20744 4.00151 0
M  V30 3156 C 316.539 3.18394 4.11001 0
M  V30 3157 C 314.224 2.5311 4.33867 0
M  V30 3158 C 316.218 4.46504 4.54877 0
M  V30 3159 C 313.905 3.8145 4.7743 0
M  V30 3160 C 314.903 4.77959 4.87897 0
M  V30 3161 O 314.591 6.04012 5.30494 0
M  V30 3162 H 314.323 0.232503 0.634758 0
M  V30 3163 H 316.877 1.2789 1.60728 0
M  V30 3164 H 315.107 0.0854903 3.86605 0
M  V30 3165 H 316.796 0.47023 4.03167 0
M  V30 3166 H 317.562 2.94715 3.85186 0
M  V30 3167 H 313.441 1.78719 4.24948 0
M  V30 3168 H 316.985 5.21835 4.62962 0
M  V30 3169 H 312.882 4.04936 5.0269 0
M  V30 3170 H 313.65 6.0736 5.48685 0
M  V30 3171 N 316.313 -1.40141 0.720998 0
M  V30 3172 C 317.276 -2.29058 0.0805834 0
M  V30 3173 C 318.276 -1.45632 -0.681758 0
M  V30 3174 O 319.466 -1.6648 -0.512856 0
M  V30 3175 C 316.598 -3.28925 -0.895593 0
M  V30 3176 H 317.791 -2.87191 0.863793 0
M  V30 3177 H 315.344 -1.48553 0.485975 0
M  V30 3178 H 316.079 -2.75822 -1.70566 0
M  V30 3179 H 315.864 -3.90519 -0.351766 0
M  V30 3180 H 317.354 -3.95494 -1.34069 0
M  V30 3181 N 317.792 -0.46758 -1.50504 0
M  V30 3182 C 319.041 0.0902868 -2.01498 0
M  V30 3183 C 319.354 1.411 -1.35463 0
M  V30 3184 O 320.56 2.0536 -1.77594 0
M  V30 3185 C 319.016 0.21142 -3.59278 0
M  V30 3186 C 318.624 -1.10065 -4.34269 0
M  V30 3187 C 320.368 0.721433 -4.18325 0
M  V30 3188 C 318.275 -0.943505 -5.83825 0
M  V30 3189 H 317.205 0.037517 -0.753066 0
M  V30 3190 H 319.856 -0.601943 -1.73346 0
M  V30 3191 H 318.238 0.967352 -3.84003 0
M  V30 3192 H 319.412 -1.86726 -4.21272 0
M  V30 3193 H 317.727 -1.5415 -3.86816 0
M  V30 3194 H 320.324 0.85598 -5.27804 0
M  V30 3195 H 320.667 1.71186 -3.79475 0
M  V30 3196 H 321.2 0.0229843 -3.97793 0
M  V30 3197 H 317.939 -1.90719 -6.27141 0
M  V30 3198 H 317.459 -0.217213 -5.99407 0
M  V30 3199 H 319.138 -0.608715 -6.4413 0
M  V30 3200 N 319.27 1.56325 -0.20005 0
M  V30 3201 C 320.498 2.02105 0.442874 0
M  V30 3202 C 320.913 1.08014 1.5485 0
M  V30 3203 O 320.27 0.0858797 1.82298 0
M  V30 3204 C 320.321 3.47549 0.994583 0
M  V30 3205 O 320.042 4.38049 -0.0669322 0
M  V30 3206 C 321.543 4.0887 1.7129 0
M  V30 3207 H 318.763 0.661807 0.110691 0
M  V30 3208 H 321.307 2.02134 -0.310207 0
M  V30 3209 H 319.462 3.48204 1.69803 0
M  V30 3210 H 319.876 5.23368 0.344462 0
M  V30 3211 H 321.35 5.12475 2.05118 0
M  V30 3212 H 321.827 3.52615 2.61838 0
M  V30 3213 H 322.433 4.12002 1.05518 0
M  V30 3214 N 320.748 -0.0735177 1.57428 0
M  V30 3215 C 322.025 -0.805903 1.78226 0
M  V30 3216 C 322.405 -1.95874 0.787189 0
M  V30 3217 O 321.753 -2.2779 -0.180029 0
M  V30 3218 C 321.963 -1.28045 3.24662 0
M  V30 3219 C 323.311 -1.71453 3.88444 0
M  V30 3220 O 324.335 -1.37616 3.28543 0
M  V30 3221 O 323.194 -2.34093 4.93825 0
M  V30 3222 H 320.288 -0.386041 0.73137 0
M  V30 3223 H 322.834 -0.0537269 1.69615 0
M  V30 3224 H 321.606 -0.455476 3.8864 0
M  V30 3225 H 321.229 -2.094 3.37991 0
M  V30 3226 N 322.226 -1.5378 -0.344866 0
M  V30 3227 C 323.174 -1.82373 -1.4437 0
M  V30 3228 C 324.168 -0.694128 -1.54526 0
M  V30 3229 O 325.374 -0.877442 -1.57165 0
M  V30 3230 H 321.749 -0.577765 -0.481344 0
M  V30 3231 H 323.72 -2.74306 -1.17468 0
M  V30 3232 C 322.469 -2.04898 -2.80913 0
M  V30 3233 H 321.792 -2.9127 -2.73865 0
M  V30 3234 H 323.232 -2.28871 -3.56923 0
M  V30 3235 C 321.691 -0.834116 -3.26411 0
M  V30 3236 O 322.221 -0.0328885 -4.01687 0
M  V30 3237 N 320.427 -0.65171 -2.83198 0
M  V30 3238 H 319.974 -1.30489 -2.22104 0
M  V30 3239 H 319.932 0.159686 -3.13994 0
M  V30 3240 N 323.704 0.605807 -1.45491 0
M  V30 3241 C 324.634 1.72709 -1.57143 0
M  V30 3242 C 325.615 1.6476 -0.422884 0
M  V30 3243 O 326.8 1.83132 -0.646247 0
M  V30 3244 C 323.93 3.11316 -1.53948 0
M  V30 3245 C 322.884 3.34077 -2.67537 0
M  V30 3246 C 322.21 4.72975 -2.49397 0
M  V30 3247 C 323.51 3.24158 -4.09535 0
M  V30 3248 H 325.204 1.63214 -2.51001 0
M  V30 3249 H 322.75 0.78379 -1.208 0
M  V30 3250 H 324.703 3.89557 -1.60696 0
M  V30 3251 H 323.427 3.21655 -0.566205 0
M  V30 3252 H 322.086 2.58227 -2.6022 0
M  V30 3253 H 321.734 4.8005 -1.50205 0
M  V30 3254 H 321.434 4.8916 -3.25571 0
M  V30 3255 H 322.958 5.53414 -2.58002 0
M  V30 3256 H 324.372 3.92271 -4.18086 0
M  V30 3257 H 322.769 3.51872 -4.86113 0
M  V30 3258 H 323.839 2.2157 -4.31317 0
M  V30 3259 N 325.182 1.32811 0.848464 0
M  V30 3260 C 326.407 1.26882 1.6406 0
M  V30 3261 C 326.832 -0.15913 1.87426 0
M  V30 3262 O 326.19 -1.11258 1.43148 0
M  V30 3263 C 326.238 2.03997 2.97351 0
M  V30 3264 O 325.342 1.39201 3.88197 0
M  V30 3265 H 324.683 0.436982 0.499943 0
M  V30 3266 H 327.213 1.75224 1.0563 0
M  V30 3267 H 327.223 2.14403 3.47124 0
M  V30 3268 H 325.898 3.0783 2.79666 0
M  V30 3269 H 324.475 1.37381 3.46671 0
M  V30 3270 N 326.66 -1.06551 1.16123 0
M  V30 3271 C 327.623 -2.12132 0.867906 0
M  V30 3272 C 328.623 -1.60224 -0.135944 0
M  V30 3273 O 329.813 -1.73943 0.0946422 0
M  V30 3274 C 326.945 -3.396 0.297419 0
M  V30 3275 H 328.138 -2.39586 1.80385 0
M  V30 3276 H 325.691 -1.22574 0.969812 0
M  V30 3277 H 326.426 -3.17794 -0.64633 0
M  V30 3278 H 326.211 -3.78581 1.02073 0
M  V30 3279 H 327.701 -4.17455 0.110052 0
M  V30 3280 N 328.138 -0.959301 -1.25041 0
M  V30 3281 C 329.363 -0.633507 -1.97488 0
M  V30 3282 C 329.788 0.788555 -1.70773 0
M  V30 3283 O 329.146 1.53394 -0.966431 0
M  V30 3284 C 329.194 -0.904057 -3.49083 0
M  V30 3285 O 328.298 0.0147939 -4.12397 0
M  V30 3286 H 327.639 -0.240368 -0.618966 0
M  V30 3287 H 330.169 -1.28717 -1.59038 0
M  V30 3288 H 330.179 -0.832203 -3.99423 0
M  V30 3289 H 328.854 -1.94048 -3.67856 0
M  V30 3290 H 327.431 -0.109664 -3.72739 0
M  V30 3291 N 329.616 1.39756 -0.72842 0
M  V30 3292 C 330.546 2.33289 -0.0991354 0
M  V30 3293 C 331.527 1.53568 0.731489 0
M  V30 3294 O 332.712 1.81987 0.677807 0
M  V30 3295 C 329.842 3.3763 0.813834 0
M  V30 3296 C 328.796 4.2791 0.0878663 0
M  V30 3297 C 328.122 5.22894 1.11741 0
M  V30 3298 C 329.422 5.11314 -1.06563 0
M  V30 3299 H 331.116 2.86163 -0.880408 0
M  V30 3300 H 328.662 1.37591 -0.424819 0
M  V30 3301 H 330.615 4.0201 1.26355 0
M  V30 3302 H 329.339 2.83181 1.62715 0
M  V30 3303 H 327.998 3.65 -0.342159 0
M  V30 3304 H 327.646 4.64744 1.92412 0
M  V30 3305 H 327.346 5.84143 0.636477 0
M  V30 3306 H 328.87 5.90151 1.56697 0
M  V30 3307 H 330.284 5.69076 -0.694671 0
M  V30 3308 H 328.681 5.81671 -1.47577 0
M  V30 3309 H 329.751 4.46534 -1.89038 0
M  V30 3310 N 331.094 0.475555 1.50254 0
M  V30 3311 C 332.324 -0.0753399 2.06463 0
M  V30 3312 C 332.732 -1.33661 1.33908 0
M  V30 3313 O 332.075 -1.79219 0.403257 0
M  V30 3314 C 332.137 -0.424921 3.5698 0
M  V30 3315 C 331.801 0.734965 4.51051 0
M  V30 3316 C 332.798 1.61827 4.94073 0
M  V30 3317 C 330.483 0.926557 4.9368 0
M  V30 3318 C 332.477 2.67754 5.78434 0
M  V30 3319 C 330.164 1.98904 5.77824 0
M  V30 3320 C 331.162 2.8629 6.20103 0
M  V30 3321 O 330.85 3.90708 7.02568 0
M  V30 3322 H 330.582 0.00576308 0.675975 0
M  V30 3323 H 333.136 0.664662 1.94349 0
M  V30 3324 H 331.366 -1.21817 3.67012 0
M  V30 3325 H 333.055 -0.911422 3.95535 0
M  V30 3326 H 333.821 1.48196 4.61804 0
M  V30 3327 H 329.7 0.25584 4.6029 0
M  V30 3328 H 333.244 3.35992 6.11355 0
M  V30 3329 H 329.141 2.12541 6.09505 0
M  V30 3330 H 329.909 3.87751 7.20827 0
M  V30 3331 N 332.573 -1.56217 0.208337 0
M  V30 3332 C 333.821 -1.97558 -0.426076 0
M  V30 3333 C 334.142 -1.09683 -1.61229 0
M  V30 3334 O 333.412 -0.170956 -1.95153 0
M  V30 3335 H 331.992 -0.729575 -0.160405 0
M  V30 3336 H 334.654 -1.92606 0.298155 0
M  V30 3337 H 333.75 -3.02672 -0.761312 0
M  V30 3338 N 334.051 0.0651679 -1.57465 0
M  V30 3339 C 335.014 1.06117 -2.03155 0
M  V30 3340 C 336.014 1.31204 -0.929632 0
M  V30 3341 O 337.204 1.26813 -1.19432 0
M  V30 3342 C 334.336 2.4032 -2.41783 0
M  V30 3343 H 335.529 0.667231 -2.92383 0
M  V30 3344 H 333.082 0.311075 -1.53173 0
M  V30 3345 H 333.817 2.84532 -1.55601 0
M  V30 3346 H 333.602 2.23451 -3.22199 0
M  V30 3347 H 335.092 3.11898 -2.77685 0
M  V30 3348 N 335.529 1.53961 0.336706 0
M  V30 3349 C 336.439 1.85432 1.43708 0
M  V30 3350 C 337.455 0.745053 1.57242 0
M  V30 3351 O 338.631 1.03804 1.72588 0
M  V30 3352 C 335.696 2.06349 2.78605 0
M  V30 3353 C 334.757 3.30191 2.74358 0
M  V30 3354 C 333.99 3.50101 4.02822 0
M  V30 3355 O 334.213 2.7371 5.00439 0
M  V30 3356 O 333.147 4.43547 4.06878 0
M  V30 3357 H 336.973 2.78975 1.20028 0
M  V30 3358 H 334.558 1.39701 0.52952 0
M  V30 3359 H 336.44 2.21513 3.58483 0
M  V30 3360 H 335.115 1.15995 3.02203 0
M  V30 3361 H 334.022 3.20425 1.93078 0
M  V30 3362 H 335.355 4.2056 2.55715 0
M  V30 3363 N 337.007 -0.598083 1.45811 0
M  V30 3364 C 337.937 -1.71873 1.58057 0
M  V30 3365 C 338.918 -1.64533 0.431615 0
M  V30 3366 O 340.103 -1.82787 0.65595 0
M  V30 3367 C 337.233 -3.10495 1.55597 0
M  V30 3368 C 336.187 -3.32654 2.69305 0
M  V30 3369 C 335.513 -4.71646 2.51902 0
M  V30 3370 C 336.813 -3.21981 4.11248 0
M  V30 3371 H 338.507 -1.61881 2.51863 0
M  V30 3372 H 336.053 -0.777372 1.21214 0
M  V30 3373 H 338.006 -3.88699 1.6276 0
M  V30 3374 H 336.73 -3.2135 0.583255 0
M  V30 3375 H 335.389 -2.56843 2.61586 0
M  V30 3376 H 335.037 -4.79246 1.52748 0
M  V30 3377 H 334.737 -4.87426 3.2816 0
M  V30 3378 H 336.261 -5.52038 2.60933 0
M  V30 3379 H 337.675 -3.90049 4.20161 0
M  V30 3380 H 336.072 -3.49289 4.87972 0
M  V30 3381 H 337.142 -2.1928 4.32486 0
M  V30 3382 N 338.485 -1.33259 -0.841409 0
M  V30 3383 C 339.395 -1.25332 -1.98316 0
M  V30 3384 C 340.411 -0.164364 -1.73222 0
M  V30 3385 O 341.587 -0.387486 -1.97637 0
M  V30 3386 C 338.652 -0.990078 -3.32262 0
M  V30 3387 C 337.713 -2.16879 -3.70489 0
M  V30 3388 C 336.946 -1.91801 -4.98044 0
M  V30 3389 O 337.169 -0.867075 -5.63771 0
M  V30 3390 O 336.103 -2.78267 -5.33714 0
M  V30 3391 H 339.929 -2.21344 -2.07944 0
M  V30 3392 H 337.514 -1.1328 -0.974058 0
M  V30 3393 H 339.396 -0.860321 -4.12524 0
M  V30 3394 H 338.071 -0.0602155 -3.23644 0
M  V30 3395 H 336.978 -2.35407 -2.90748 0
M  V30 3396 H 338.311 -3.0819 -3.8377 0
M  V30 3397 N 339.963 1.05934 -1.16686 0
M  V30 3398 C 341.24 1.75643 -0.860747 0
M  V30 3399 C 341.62 2.01144 0.640641 0
M  V30 3400 O 340.968 1.64147 1.58959 0
M  V30 3401 C 341.178 3.05493 -1.68745 0
M  V30 3402 C 342.526 3.79581 -1.90271 0
M  V30 3403 O 343.55 3.15344 -1.65641 0
M  V30 3404 O 342.409 4.9499 -2.31618 0
M  V30 3405 H 339.503 0.763426 -0.317977 0
M  V30 3406 H 342.049 1.1217 -1.27342 0
M  V30 3407 H 340.821 2.8264 -2.70611 0
M  V30 3408 H 340.444 3.76702 -1.27206 0
M  V30 3409 N 341.441 0.965919 1.2453 0
M  V30 3410 C 342.69 0.622437 1.91856 0
M  V30 3411 C 343.003 -0.846006 1.76358 0
M  V30 3412 O 344.209 -1.29993 2.38357 0
M  V30 3413 C 342.665 1.0626 3.43856 0
M  V30 3414 C 342.273 2.55437 3.68043 0
M  V30 3415 C 344.017 0.792183 4.17043 0
M  V30 3416 C 341.924 2.93196 5.13605 0
M  V30 3417 H 340.854 0.229092 0.718354 0
M  V30 3418 H 343.505 1.17189 1.41206 0
M  V30 3419 H 341.887 0.441476 3.93531 0
M  V30 3420 H 343.061 3.22665 3.28974 0
M  V30 3421 H 341.376 2.8007 3.08139 0
M  V30 3422 H 343.973 1.05031 5.24283 0
M  V30 3423 H 344.316 -0.271584 4.15413 0
M  V30 3424 H 344.849 1.37419 3.73311 0
M  V30 3425 H 341.588 3.98636 5.20355 0
M  V30 3426 H 341.108 2.30651 5.53679 0
M  V30 3427 H 342.787 2.83004 5.81823 0
M  V30 3428 N 342.919 -1.39368 0.735821 0
M  V30 3429 C 344.149 -2.04498 0.293967 0
M  V30 3430 C 344.557 -1.55593 -1.07645 0
M  V30 3431 O 343.9 -0.716324 -1.69158 0
M  V30 3432 C 343.962 -3.58836 0.218342 0
M  V30 3433 C 343.626 -4.30721 1.52736 0
M  V30 3434 C 344.623 -4.57305 2.47322 0
M  V30 3435 C 342.308 -4.69251 1.79189 0
M  V30 3436 C 344.302 -5.21429 3.66593 0
M  V30 3437 C 341.989 -5.33104 2.98737 0
M  V30 3438 C 342.987 -5.59125 3.9226 0
M  V30 3439 O 342.675 -6.21653 5.09708 0
M  V30 3440 H 342.407 -0.664118 0.126189 0
M  V30 3441 H 344.961 -1.79385 1.00051 0
M  V30 3442 H 343.191 -3.8285 -0.544314 0
M  V30 3443 H 344.88 -4.05447 -0.191626 0
M  V30 3444 H 345.646 -4.27983 2.28156 0
M  V30 3445 H 341.525 -4.48354 1.07239 0
M  V30 3446 H 345.069 -5.41656 4.39607 0
M  V30 3447 H 340.966 -5.61846 3.17803 0
M  V30 3448 H 341.734 -6.40146 5.10054 0
M  V30 3449 N 344.397 -0.483516 -1.5 0
M  V30 3450 C 345.813 -0.138404 -1.58999 0
M  V30 3451 C 346.013 1.35597 -1.4905 0
M  V30 3452 O 345.069 2.13039 -1.35539 0
M  V30 3453 C 346.382 -0.699658 -2.92447 0
M  V30 3454 C 347.93 -0.664195 -3.05872 0
M  V30 3455 C 348.405 -1.20321 -4.41913 0
M  V30 3456 N 349.896 -1.16315 -4.48358 0
M  V30 3457 C 350.631 -1.55058 -5.52037 0
M  V30 3458 N 350.127 -2.01311 -6.62907 0
M  V30 3459 N 351.92 -1.46584 -5.42651 0
M  V30 3460 H 344.071 -1.45529 -1.5471 0
M  V30 3461 H 346.334 -0.60258 -0.731848 0
M  V30 3462 H 346.04 -1.747 -3.05242 0
M  V30 3463 H 345.914 -0.150194 -3.76901 0
M  V30 3464 H 348.301 0.374272 -2.92717 0
M  V30 3465 H 348.382 -1.25061 -2.23144 0
M  V30 3466 H 348.026 -2.24037 -4.55818 0
M  V30 3467 H 347.956 -0.592896 -5.23252 0
M  V30 3468 H 350.447 -0.824058 -3.68806 0
M  V30 3469 H 350.76 -2.2899 -7.38095 0
M  V30 3470 H 349.105 -2.05273 -6.63994 0
M  V30 3471 H 352.296 -1.10281 -4.54924 0
M  V30 3472 H 352.469 -1.77103 -6.23329 0
M  V30 3473 N 345.875 1.56104 -0.216619 0
M  V30 3474 C 346.807 2.17339 0.72776 0
M  V30 3475 C 347.82 1.14109 1.16116 0
M  V30 3476 O 349.009 1.4111 1.09317 0
M  V30 3477 C 346.109 2.73818 1.99693 0
M  V30 3478 C 345.282 4.02168 1.71988 0
M  V30 3479 C 344.341 4.43259 2.83562 0
M  V30 3480 O 343.367 5.10257 2.52244 0
M  V30 3481 N 344.569 4.08535 4.12407 0
M  V30 3482 H 347.334 2.99005 0.203983 0
M  V30 3483 H 344.895 1.61861 -0.0354289 0
M  V30 3484 H 346.887 2.9828 2.73516 0
M  V30 3485 H 345.457 1.96483 2.43132 0
M  V30 3486 H 344.677 3.85612 0.818337 0
M  V30 3487 H 345.965 4.85907 1.50903 0
M  V30 3488 H 345.363 3.54687 4.40696 0
M  V30 3489 H 343.92 4.37901 4.8279 0
M  V30 3490 N 347.353 -0.0568162 1.57498 0
M  V30 3491 C 348.583 -0.764515 1.91934 0
M  V30 3492 C 348.991 -1.70877 0.81227 0
M  V30 3493 O 348.334 -1.82351 -0.222213 0
M  V30 3494 C 348.396 -1.5994 3.21962 0
M  V30 3495 C 348.06 -0.822925 4.4953 0
M  V30 3496 C 349.057 -0.135464 5.19723 0
M  V30 3497 C 346.742 -0.785666 4.96117 0
M  V30 3498 C 348.736 0.578861 6.34766 0
M  V30 3499 C 346.423 -0.0675784 6.11063 0
M  V30 3500 C 347.421 0.613471 6.80239 0
M  V30 3501 O 347.109 1.31996 7.92989 0
M  V30 3502 H 346.841 -0.221647 0.63863 0
M  V30 3503 H 349.395 -0.0268218 2.05382 0
M  V30 3504 H 347.625 -2.38026 3.04763 0
M  V30 3505 H 349.314 -2.18715 3.41934 0
M  V30 3506 H 350.08 -0.155458 4.84751 0
M  V30 3507 H 345.959 -1.30524 4.42136 0
M  V30 3508 H 349.503 1.111 6.88696 0
M  V30 3509 H 345.4 -0.0455636 6.45484 0
M  V30 3510 H 346.168 1.23077 8.09194 0
M  V30 3511 N 348.832 -1.54138 -0.328536 0
M  V30 3512 C 350.062 -1.75807 -1.08516 0
M  V30 3513 C 350.47 -0.50428 -1.82356 0
M  V30 3514 O 349.813 0.534451 -1.75754 0
M  V30 3515 C 349.875 -2.89423 -2.13248 0
M  V30 3516 C 349.539 -4.28504 -1.5885 0
M  V30 3517 C 350.536 -5.09536 -1.03289 0
M  V30 3518 C 348.221 -4.75034 -1.63243 0
M  V30 3519 C 350.215 -6.35206 -0.52845 0
M  V30 3520 C 347.902 -6.00672 -1.12411 0
M  V30 3521 C 348.9 -6.80592 -0.573062 0
M  V30 3522 O 348.588 -8.03867 -0.0723692 0
M  V30 3523 H 348.32 -0.590633 -0.328829 0
M  V30 3524 H 350.874 -2.01819 -0.381868 0
M  V30 3525 H 349.104 -2.5897 -2.87178 0
M  V30 3526 H 350.793 -2.98921 -2.74592 0
M  V30 3527 H 351.559 -4.74745 -0.99206 0
M  V30 3528 H 347.438 -4.12875 -2.05074 0
M  V30 3529 H 350.982 -6.97532 -0.0976774 0
M  V30 3530 H 346.879 -6.34955 -1.162 0
M  V30 3531 H 347.647 -8.18283 -0.188258 0
M  V30 3532 N 350.31 0.590341 -1.46126 0
M  V30 3533 C 351.24 1.71032 -1.58966 0
M  V30 3534 C 352.221 1.64302 -0.440335 0
M  V30 3535 O 353.406 1.82436 -0.665634 0
M  V30 3536 C 350.536 3.09665 -1.57241 0
M  V30 3537 C 349.49 3.31221 -2.71066 0
M  V30 3538 C 348.816 4.70303 -2.54399 0
M  V30 3539 C 350.116 3.19796 -4.1295 0
M  V30 3540 H 351.81 1.60543 -2.52718 0
M  V30 3541 H 349.356 0.770933 -1.21625 0
M  V30 3542 H 351.309 3.87831 -1.64819 0
M  V30 3543 H 350.033 3.21036 -0.600289 0
M  V30 3544 H 348.692 2.55452 -2.62944 0
M  V30 3545 H 348.34 4.78429 -1.55288 0
M  V30 3546 H 348.04 4.85679 -3.30741 0
M  V30 3547 H 349.564 5.50647 -2.63857 0
M  V30 3548 H 350.978 3.87815 -4.22223 0
M  V30 3549 H 349.375 3.46696 -4.89818 0
M  V30 3550 H 350.445 2.16983 -4.33643 0
M  V30 3551 N 351.788 1.33704 0.83433 0
M  V30 3552 C 352.736 1.24323 1.96587 0
M  V30 3553 C 353.73 0.143659 1.6879 0
M  V30 3554 O 354.936 0.30791 1.77347 0
M  V30 3555 H 351.311 0.385925 0.645419 0
M  V30 3556 H 353.282 2.19978 2.01624 0
M  V30 3557 C 352.031 1.00394 3.32891 0
M  V30 3558 H 351.354 1.84231 3.54822 0
M  V30 3559 H 352.794 0.97862 4.12552 0
M  V30 3560 C 351.253 -0.293047 3.35623 0
M  V30 3561 O 351.783 -1.29823 3.80143 0
M  V30 3562 N 349.989 -0.322174 2.88809 0
M  V30 3563 H 349.536 0.496379 2.52772 0
M  V30 3564 H 349.494 -1.18977 2.91019 0
M  V30 3565 N 353.266 -1.05314 1.17247 0
M  V30 3566 C 354.491 -1.82509 0.985148 0
M  V30 3567 C 354.916 -1.82343 -0.461788 0
M  V30 3568 O 354.274 -1.23151 -1.33055 0
M  V30 3569 C 354.322 -3.26566 1.52929 0
M  V30 3570 O 353.426 -4.05666 0.742225 0
M  V30 3571 H 352.767 -0.564347 0.349869 0
M  V30 3572 H 355.297 -1.32718 1.55715 0
M  V30 3573 H 355.307 -3.77369 1.55103 0
M  V30 3574 H 353.982 -3.26001 2.58256 0
M  V30 3575 H 352.559 -3.64397 0.791794 0
M  V30 3576 N 354.744 -0.972509 -1.24016 0
M  V30 3577 C 355.692 -0.498562 -2.27194 0
M  V30 3578 C 356.686 0.440372 -1.63576 0
M  V30 3579 O 357.892 0.315133 -1.7722 0
M  V30 3580 H 354.267 -0.142775 -0.738322 0
M  V30 3581 H 356.238 -1.38065 -2.64539 0
M  V30 3582 C 354.987 0.191072 -3.47175 0
M  V30 3583 H 354.31 -0.522318 -3.96373 0
M  V30 3584 H 355.75 0.486445 -4.212 0
M  V30 3585 C 354.209 1.41967 -3.05527 0
M  V30 3586 O 354.739 2.51642 -3.13112 0
M  V30 3587 N 352.945 1.28746 -2.60524 0
M  V30 3588 H 352.492 0.395089 -2.54552 0
M  V30 3589 H 352.45 2.11061 -2.33025 0
M  V30 3590 N 356.222 1.38976 -0.743202 0
M  V30 3591 C 357.452 2.04339 -0.304807 0
M  V30 3592 C 357.86 1.56162 1.06819 0
M  V30 3593 O 357.203 0.725284 1.68776 0
M  V30 3594 C 357.265 3.58716 -0.237369 0
M  V30 3595 C 356.929 4.29905 -1.55018 0
M  V30 3596 C 357.926 4.55987 -2.49744 0
M  V30 3597 C 355.611 4.68294 -1.81675 0
M  V30 3598 C 357.605 5.19478 -3.69353 0
M  V30 3599 C 355.292 5.31512 -3.0156 0
M  V30 3600 C 356.29 5.57037 -3.9522 0
M  V30 3601 O 355.978 6.18941 -5.12998 0
M  V30 3602 H 355.71 0.663439 -0.12971 0
M  V30 3603 H 358.264 1.78852 -1.01001 0
M  V30 3604 H 356.494 3.83133 0.524003 0
M  V30 3605 H 358.183 4.05543 0.170121 0
M  V30 3606 H 358.949 4.26767 -2.30423 0
M  V30 3607 H 354.828 4.47779 -1.09615 0
M  V30 3608 H 358.372 5.39318 -4.42473 0
M  V30 3609 H 354.269 5.60153 -3.20778 0
M  V30 3610 H 355.037 6.37433 -5.13441 0
M  V30 3611 N 357.7 0.491464 1.49741 0
M  V30 3612 C 358.928 -0.0535151 2.06831 0
M  V30 3613 C 359.343 -1.31683 1.35296 0
M  V30 3614 O 358.7 -1.77402 0.42836 0
M  V30 3615 C 358.751 -0.320835 3.60073 0
M  V30 3616 O 358.472 0.892394 4.28915 0
M  V30 3617 C 359.973 -0.910519 4.33848 0
M  V30 3618 H 357.193 0.0161909 0.670805 0
M  V30 3619 H 359.737 0.68609 1.92647 0
M  V30 3620 H 357.892 -1.0104 3.73991 0
M  V30 3621 H 358.306 0.649401 5.20464 0
M  V30 3622 H 359.78 -1.04721 5.41976 0
M  V30 3623 H 360.257 -1.90589 3.95692 0
M  V30 3624 H 360.863 -0.258712 4.24512 0
M  V30 3625 N 359.178 -1.55987 0.224894 0
M  V30 3626 C 360.427 -1.97566 -0.406273 0
M  V30 3627 C 360.74 -1.11569 -1.6066 0
M  V30 3628 O 361.946 -1.43062 -2.3075 0
M  V30 3629 C 360.402 -3.51474 -0.774207 0
M  V30 3630 C 360.01 -4.46179 0.403496 0
M  V30 3631 C 361.754 -4.01758 -1.37079 0
M  V30 3632 C 359.661 -5.91399 0.0129412 0
M  V30 3633 H 358.591 -0.737777 -0.155565 0
M  V30 3634 H 361.242 -1.80659 0.321635 0
M  V30 3635 H 359.624 -3.63994 -1.55963 0
M  V30 3636 H 360.798 -4.45409 1.18101 0
M  V30 3637 H 359.113 -4.06255 0.913536 0
M  V30 3638 H 361.71 -5.07756 -1.67596 0
M  V30 3639 H 362.053 -3.47805 -2.28773 0
M  V30 3640 H 362.586 -3.92475 -0.648733 0
M  V30 3641 H 359.325 -6.49341 0.896451 0
M  V30 3642 H 358.845 -5.95356 -0.728821 0
M  V30 3643 H 360.524 -6.45683 -0.412582 0
M  V30 3644 N 360.656 0.0484629 -1.57525 0
M  V30 3645 C 362.067 0.597486 -1.76881 0
M  V30 3646 C 362.418 1.76664 -0.853475 0
M  V30 3647 O 361.543 2.16357 -0.0433656 0
M  V30 3648 C 362.138 1.09066 -3.20765 0
M  V30 3649 C 360.697 1.58535 -3.41385 0
M  V30 3650 C 359.844 0.514868 -2.72478 0
M  V30 3651 H 362.795 -0.177758 -1.57701 0
M  V30 3652 H 362.816 1.95875 -3.2621 0
M  V30 3653 H 362.328 0.239521 -3.8736 0
M  V30 3654 H 360.429 2.45898 -2.79937 0
M  V30 3655 H 360.542 1.64622 -4.49929 0
M  V30 3656 H 358.906 0.965407 -2.35695 0
M  V30 3657 H 359.689 -0.32648 -3.41744 0
M  V30 3658 N 362.134 1.5431 0.320358 0
M  V30 3659 C 363.064 1.86912 1.3995 0
M  V30 3660 C 364.045 0.726211 1.53819 0
M  V30 3661 O 365.23 0.980233 1.67646 0
M  V30 3662 C 362.36 2.09932 2.7667 0
M  V30 3663 C 361.314 3.25776 2.77586 0
M  V30 3664 C 360.64 3.34173 4.17412 0
M  V30 3665 C 361.94 4.6335 2.41048 0
M  V30 3666 H 363.634 2.77292 1.12914 0
M  V30 3667 H 361.18 1.33421 0.541738 0
M  V30 3668 H 363.133 2.31324 3.52232 0
M  V30 3669 H 361.857 1.16304 3.0519 0
M  V30 3670 H 360.516 3.04276 2.04479 0
M  V30 3671 H 360.164 2.38098 4.43078 0
M  V30 3672 H 359.864 4.12033 4.18931 0
M  V30 3673 H 361.388 3.57803 4.94782 0
M  V30 3674 H 362.802 4.84602 3.06324 0
M  V30 3675 H 361.199 5.43782 2.53813 0
M  V30 3676 H 362.269 4.65381 1.36193 0
M  V30 3677 N 363.613 -0.582584 1.46437 0
M  V30 3678 C 364.576 -1.67366 1.56592 0
M  V30 3679 C 365.576 -1.54575 0.443072 0
M  V30 3680 O 366.766 -1.59191 0.707381 0
M  V30 3681 C 363.898 -3.06791 1.48634 0
M  V30 3682 H 365.091 -1.5972 2.5383 0
M  V30 3683 H 362.644 -0.800432 1.34249 0
M  V30 3684 H 363.379 -3.19993 0.526763 0
M  V30 3685 H 363.164 -3.17484 2.30101 0
M  V30 3686 H 364.654 -3.86218 1.58826 0
M  V30 3687 N 365.091 -1.34144 -0.827227 0
M  V30 3688 C 366.316 -1.29476 -1.62021 0
M  V30 3689 C 366.741 0.129292 -1.87655 0
M  V30 3690 O 366.099 1.08967 -1.449 0
M  V30 3691 C 366.147 -2.08702 -2.94068 0
M  V30 3692 O 365.251 -1.45359 -3.85933 0
M  V30 3693 H 364.592 -0.444881 -0.492927 0
M  V30 3694 H 367.122 -1.76882 -1.02829 0
M  V30 3695 H 367.132 -2.19898 -3.43669 0
M  V30 3696 H 365.807 -3.12241 -2.74734 0
M  V30 3697 H 364.384 -1.42879 -3.44442 0
M  V30 3698 N 366.569 1.04691 -1.17803 0
M  V30 3699 C 367.846 1.7472 -0.879328 0
M  V30 3700 C 368.226 2.01812 0.619271 0
M  V30 3701 O 367.574 1.65824 1.57209 0
M  V30 3702 C 367.784 3.03686 -1.71976 0
M  V30 3703 C 369.132 3.77542 -1.94286 0
M  V30 3704 O 370.156 3.13569 -1.68976 0
M  V30 3705 O 369.015 4.92506 -2.36855 0
M  V30 3706 H 366.109 0.760011 -0.326056 0
M  V30 3707 H 368.655 1.10813 -1.28525 0
M  V30 3708 H 367.427 2.79754 -2.73594 0
M  V30 3709 H 367.05 3.75332 -1.31194 0
M  V30 3710 N 368.047 0.979072 1.23499 0
M  V30 3711 C 368.979 0.476271 2.24197 0
M  V30 3712 C 369.992 -0.421166 1.57258 0
M  V30 3713 O 371.181 -0.225515 1.7707 0
M  V30 3714 C 368.281 -0.330503 3.37285 0
M  V30 3715 C 367.454 0.559744 4.33804 0
M  V30 3716 C 366.513 -0.192954 5.25846 0
M  V30 3717 O 365.539 0.416978 5.67671 0
M  V30 3718 N 366.741 -1.47932 5.61334 0
M  V30 3719 H 369.506 1.34211 2.67969 0
M  V30 3720 H 367.067 0.852189 1.37657 0
M  V30 3721 H 369.059 -0.842361 3.95836 0
M  V30 3722 H 367.629 -1.09734 2.92707 0
M  V30 3723 H 366.849 1.25245 3.73775 0
M  V30 3724 H 368.137 1.1665 4.95248 0
M  V30 3725 H 367.535 -1.9964 5.29302 0
M  V30 3726 H 366.092 -1.93664 6.22364 0
M  V30 3727 N 369.525 -1.3858 0.750561 0
M  V30 3728 C 370.75 -2.04997 0.314812 0
M  V30 3729 C 371.175 -1.56235 -1.04749 0
M  V30 3730 O 370.533 -0.712981 -1.66692 0
M  V30 3731 C 370.581 -3.58961 0.343415 0
M  V30 3732 O 369.685 -4.07025 -0.663628 0
M  V30 3733 H 369.026 -0.649081 0.139962 0
M  V30 3734 H 371.556 -1.77313 1.02084 0
M  V30 3735 H 371.566 -4.07542 0.193233 0
M  V30 3736 H 370.241 -3.93811 1.33738 0
M  V30 3737 H 368.818 -3.6982 -0.478307 0
M  V30 3738 N 371.003 -0.499398 -1.49478 0
M  V30 3739 C 371.933 0.269244 -2.31943 0
M  V30 3740 C 372.914 0.964054 -1.40143 0
M  V30 3741 O 374.099 0.955767 -1.69052 0
M  V30 3742 C 371.229 1.33504 -3.20615 0
M  V30 3743 C 370.183 0.760202 -4.21195 0
M  V30 3744 C 369.509 1.9264 -4.98792 0
M  V30 3745 C 370.809 -0.247661 -5.21712 0
M  V30 3746 H 372.503 -0.419082 -2.96452 0
M  V30 3747 H 370.049 -0.202988 -1.42562 0
M  V30 3748 H 372.002 1.88048 -3.77115 0
M  V30 3749 H 370.726 2.05253 -2.54045 0
M  V30 3750 H 369.385 0.23653 -3.65836 0
M  V30 3751 H 369.033 2.63154 -4.28671 0
M  V30 3752 H 368.733 1.54785 -5.66847 0
M  V30 3753 H 370.257 2.4762 -5.58137 0
M  V30 3754 H 371.671 0.209579 -5.72917 0
M  V30 3755 H 370.068 -0.541962 -5.97648 0
M  V30 3756 H 371.138 -1.16409 -4.7072 0
M  V30 3757 N 372.481 1.55866 -0.233164 0
M  V30 3758 C 373.729 1.9821 0.394593 0
M  V30 3759 C 374.05 1.12234 1.59463 0
M  V30 3760 O 373.32 0.201981 1.94856 0
M  V30 3761 H 371.9 0.732034 0.148778 0
M  V30 3762 H 374.562 1.92107 -0.32876 0
M  V30 3763 H 373.658 3.03845 0.713063 0
M  V30 3764 N 373.959 -0.0401083 1.57549 0
M  V30 3765 C 375.206 -0.733125 1.88763 0
M  V30 3766 C 375.534 -1.75946 0.829058 0
M  V30 3767 O 374.789 -1.94949 -0.171323 0
M  V30 3768 C 375.088 -1.44902 3.26708 0
M  V30 3769 C 374.754 -0.559707 4.47413 0
M  V30 3770 C 373.416 -0.314731 4.8017 0
M  V30 3771 C 375.768 0.0549743 5.21171 0
M  V30 3772 C 373.096 0.553886 5.8408 0
M  V30 3773 C 375.448 0.911229 6.26003 0
M  V30 3774 C 374.112 1.16577 6.57241 0
M  V30 3775 H 373.382 -0.268269 0.690733 0
M  V30 3776 H 376.029 0.00679408 1.91499 0
M  V30 3777 H 374.334 -2.26197 3.1991 0
M  V30 3778 H 376.031 -1.99058 3.48105 0
M  V30 3779 H 372.621 -0.760793 4.21794 0
M  V30 3780 H 376.805 -0.121344 4.96152 0
M  V30 3781 H 372.061 0.759518 6.06664 0
M  V30 3782 H 376.235 1.3941 6.82303 0
M  V30 3783 H 373.862 1.84058 7.37582 0
M  V30 3784 N 375.437 -1.54477 -0.31217 0
M  V30 3785 C 376.714 -1.63891 -1.06767 0
M  V30 3786 C 377.094 -0.480028 -2.0557 0
M  V30 3787 O 376.442 0.524487 -2.22399 0
M  V30 3788 C 376.652 -3.01402 -1.75948 0
M  V30 3789 C 378 -3.57838 -2.28554 0
M  V30 3790 O 379.024 -3.03782 -1.85998 0
M  V30 3791 O 377.883 -4.52462 -3.06497 0
M  V30 3792 H 374.977 -0.664125 -0.492816 0
M  V30 3793 H 377.523 -1.66823 -0.311149 0
M  V30 3794 H 376.295 -3.77187 -1.04144 0
M  V30 3795 H 375.918 -3.02199 -2.58383 0
M  V30 3796 N 376.915 0.57481 -1.46744 0
M  V30 3797 C 378.162 1.33272 -1.52462 0
M  V30 3798 C 378.49 1.93669 -0.179572 0
M  V30 3799 O 377.745 1.7743 0.825664 0
M  V30 3800 C 378.044 2.476 -2.57738 0
M  V30 3801 C 377.71 2.05146 -4.01529 0
M  V30 3802 C 376.372 1.93284 -4.40676 0
M  V30 3803 C 378.724 1.72506 -4.91824 0
M  V30 3804 C 376.052 1.47049 -5.67973 0
M  V30 3805 C 378.404 1.27748 -6.19567 0
M  V30 3806 C 377.068 1.14468 -6.57612 0
M  V30 3807 H 376.338 0.487678 -0.557899 0
M  V30 3808 H 378.985 0.646456 -1.80259 0
M  V30 3809 H 377.29 3.21708 -2.23632 0
M  V30 3810 H 378.987 3.05807 -2.5939 0
M  V30 3811 H 375.577 2.15316 -3.7059 0
M  V30 3812 H 379.761 1.80552 -4.62293 0
M  V30 3813 H 375.017 1.35417 -5.96215 0
M  V30 3814 H 379.191 1.01547 -6.88957 0
M  V30 3815 H 376.818 0.78419 -7.56145 0
M  V30 3816 N 378.394 1.34581 0.820102 0
M  V30 3817 C 379.342 1.26401 1.95258 0
M  V30 3818 C 380.336 0.161553 1.68628 0
M  V30 3819 O 381.542 0.326703 1.7701 0
M  V30 3820 H 377.917 0.392749 0.64129 0
M  V30 3821 H 379.888 2.22105 1.99279 0
M  V30 3822 C 378.637 1.03919 3.31807 0
M  V30 3823 H 377.96 1.87984 3.52848 0
M  V30 3824 H 379.4 1.02232 4.11491 0
M  V30 3825 C 377.859 -0.257433 3.35915 0
M  V30 3826 O 378.389 -1.25784 3.81499 0
M  V30 3827 N 376.595 -0.291524 2.89134 0
M  V30 3828 H 376.142 0.523161 2.52232 0
M  V30 3829 H 376.1 -1.15883 2.92264 0
M  V30 3830 N 379.872 -1.04064 1.18357 0
M  V30 3831 C 381.121 -1.76662 0.973313 0
M  V30 3832 C 381.434 -1.89154 -0.497991 0
M  V30 3833 O 382.64 -2.58606 -0.826762 0
M  V30 3834 C 381.096 -3.17624 1.69242 0
M  V30 3835 C 380.704 -3.13225 3.20303 0
M  V30 3836 C 382.448 -3.946 1.56497 0
M  V30 3837 C 380.355 -4.49046 3.84853 0
M  V30 3838 H 379.285 -0.662214 0.36054 0
M  V30 3839 H 381.936 -1.16553 1.41731 0
M  V30 3840 H 380.318 -3.78129 1.1762 0
M  V30 3841 H 381.492 -2.62172 3.78949 0
M  V30 3842 H 379.807 -2.49749 3.33189 0
M  V30 3843 H 382.404 -4.95042 2.02084 0
M  V30 3844 H 382.747 -4.13074 0.517243 0
M  V30 3845 H 383.28 -3.4067 2.05399 0
M  V30 3846 H 380.019 -4.35777 4.89672 0
M  V30 3847 H 379.539 -5.00203 3.30994 0
M  V30 3848 H 381.218 -5.17961 3.87718 0
M  V30 3849 N 381.35 -0.985608 -1.22978 0
M  V30 3850 C 382.58 -0.674603 -1.95276 0
M  V30 3851 C 382.988 0.763483 -1.73111 0
M  V30 3852 O 382.331 1.52601 -1.02268 0
M  V30 3853 C 382.393 -0.891597 -3.48268 0
M  V30 3854 C 382.057 -2.31275 -3.94158 0
M  V30 3855 C 383.054 -3.29179 -4.02415 0
M  V30 3856 C 380.739 -2.64524 -4.27004 0
M  V30 3857 C 382.733 -4.58407 -4.42879 0
M  V30 3858 C 380.42 -3.93974 -4.67149 0
M  V30 3859 C 381.418 -4.90727 -4.75053 0
M  V30 3860 O 381.106 -6.17865 -5.14294 0
M  V30 3861 H 380.838 -0.249251 -0.628371 0
M  V30 3862 H 383.392 -1.32106 -1.5728 0
M  V30 3863 H 381.622 -0.187962 -3.86243 0
M  V30 3864 H 383.311 -0.576957 -4.01779 0
M  V30 3865 H 384.077 -3.04823 -3.77237 0
M  V30 3866 H 379.956 -1.89923 -4.2006 0
M  V30 3867 H 383.5 -5.33926 -4.48964 0
M  V30 3868 H 379.397 -4.18122 -4.91777 0
M  V30 3869 H 380.165 -6.21694 -5.32389 0
M  V30 3870 N 382.828 1.3818 -0.7579 0
M  V30 3871 C 384.244 1.5353 -0.435972 0
M  V30 3872 C 384.444 1.71961 1.05032 0
M  V30 3873 O 383.5 1.73307 1.83633 0
M  V30 3874 C 384.813 2.73989 -1.23898 0
M  V30 3875 C 386.361 2.87841 -1.22949 0
M  V30 3876 C 386.836 4.11266 -2.01554 0
M  V30 3877 N 388.327 4.18352 -1.98837 0
M  V30 3878 C 389.062 5.12856 -2.5645 0
M  V30 3879 N 388.558 6.13005 -3.22794 0
M  V30 3880 N 390.351 5.05238 -2.46356 0
M  V30 3881 H 382.502 1.24467 -1.7211 0
M  V30 3882 H 384.765 0.604982 -0.729864 0
M  V30 3883 H 384.471 2.66789 -2.29165 0
M  V30 3884 H 384.345 3.67294 -0.858764 0
M  V30 3885 H 386.732 2.9452 -0.184854 0
M  V30 3886 H 386.813 1.95534 -1.64924 0
M  V30 3887 H 386.457 4.05349 -3.06031 0
M  V30 3888 H 386.387 5.02661 -1.5697 0
M  V30 3889 H 388.878 3.46628 -1.50524 0
M  V30 3890 H 389.191 6.81619 -3.64165 0
M  V30 3891 H 387.536 6.13325 -3.2689 0
M  V30 3892 H 390.727 4.25938 -1.9415 0
M  V30 3893 H 390.9 5.78707 -2.91552 0
M  V30 3894 N 384.306 0.507319 1.49211 0
M  V30 3895 C 385.534 -0.0315749 2.06876 0
M  V30 3896 C 385.949 -1.30241 1.36685 0
M  V30 3897 O 385.306 -1.76937 0.447152 0
M  V30 3898 C 385.357 -0.282627 3.60393 0
M  V30 3899 O 385.078 0.937835 4.27944 0
M  V30 3900 C 386.579 -0.864453 4.3479 0
M  V30 3901 H 383.799 0.0233048 0.670595 0
M  V30 3902 H 386.343 0.706484 1.91909 0
M  V30 3903 H 384.498 -0.97068 3.75042 0
M  V30 3904 H 384.912 0.704567 5.19746 0
M  V30 3905 H 386.386 -0.989664 5.43056 0
M  V30 3906 H 386.863 -1.86382 3.97692 0
M  V30 3907 H 387.469 -0.213672 4.24763 0
M  V30 3908 N 385.784 -1.5574 0.241426 0
M  V30 3909 C 386.732 -2.22538 -0.676718 0
M  V30 3910 C 387.726 -1.21117 -1.18436 0
M  V30 3911 O 388.932 -1.39144 -1.14188 0
M  V30 3912 H 385.307 -0.713776 -0.236701 0
M  V30 3913 H 387.278 -2.98264 -0.0901187 0
M  V30 3914 C 386.027 -2.93439 -1.86518 0
M  V30 3915 H 385.35 -3.7125 -1.4837 0
M  V30 3916 H 386.79 -3.43549 -2.48495 0
M  V30 3917 C 385.249 -1.97008 -2.73294 0
M  V30 3918 O 385.779 -1.49965 -3.72657 0
M  V30 3919 N 383.985 -1.64227 -2.39745 0
M  V30 3920 H 383.532 -2.02677 -1.58996 0
M  V30 3921 H 383.49 -0.999708 -2.98083 0
M  V30 3922 N 387.262 0.0317525 -1.57568 0
M  V30 3923 C 388.539 0.758366 -1.803 0
M  V30 3924 C 388.919 1.93718 -0.838845 0
M  V30 3925 O 388.267 2.28187 0.119571 0
M  V30 3926 C 388.477 1.19392 -3.27943 0
M  V30 3927 C 389.825 1.61094 -3.92854 0
M  V30 3928 O 390.849 1.28857 -3.32076 0
M  V30 3929 O 389.708 2.20918 -4.99858 0
M  V30 3930 H 386.802 0.366514 -0.741348 0
M  V30 3931 H 389.348 0.00873765 -1.69698 0
M  V30 3932 H 388.12 0.352275 -3.89711 0
M  V30 3933 H 387.743 2.00365 -3.43424 0
M  V30 3934 N 388.74 1.54641 0.303973 0
M  V30 3935 C 389.65 1.88439 1.39743 0
M  V30 3936 C 390.666 0.778239 1.55626 0
M  V30 3937 O 391.842 1.07442 1.70347 0
M  V30 3938 C 388.907 2.12212 2.74166 0
M  V30 3939 C 387.968 3.35936 2.67293 0
M  V30 3940 C 387.201 3.58566 3.95305 0
M  V30 3941 O 387.424 2.84263 4.9452 0
M  V30 3942 O 386.358 4.52078 3.97378 0
M  V30 3943 H 390.184 2.81458 1.14083 0
M  V30 3944 H 387.769 1.40793 0.499768 0
M  V30 3945 H 389.651 2.29067 3.53704 0
M  V30 3946 H 388.326 1.22379 2.99675 0
M  V30 3947 H 387.233 3.24448 1.86237 0
M  V30 3948 H 388.566 4.2589 2.46736 0
M  V30 3949 N 390.218 -0.567019 1.47046 0
M  V30 3950 C 391.466 -1.322 1.52864 0
M  V30 3951 C 391.787 -1.94088 0.188388 0
M  V30 3952 O 391.057 -1.7941 -0.786693 0
M  V30 3953 H 389.637 -0.490894 0.563056 0
M  V30 3954 H 392.299 -0.662879 1.83281 0
M  V30 3955 H 391.395 -2.12062 2.2899 0
M  V30 3956 N 391.696 -1.35014 -0.812953 0
M  V30 3957 C 392.643 -1.27412 -1.92444 0
M  V30 3958 C 393.613 -0.14733 -1.65445 0
M  V30 3959 O 394.798 -0.329974 -1.87925 0
M  V30 3960 C 391.938 -1.04558 -3.28879 0
M  V30 3961 C 391.051 -2.26101 -3.68106 0
M  V30 3962 C 390.186 -1.96449 -4.9354 0
M  V30 3963 C 389.225 -3.14081 -5.25376 0
M  V30 3964 N 388.362 -2.84246 -6.41988 0
M  V30 3965 H 393.202 -2.22463 -1.98278 0
M  V30 3966 H 390.739 -1.10593 -0.969933 0
M  V30 3967 H 392.697 -0.893413 -4.07522 0
M  V30 3968 H 391.327 -0.131719 -3.22531 0
M  V30 3969 H 390.379 -2.52204 -2.84775 0
M  V30 3970 H 391.691 -3.13959 -3.87597 0
M  V30 3971 H 390.845 -1.78026 -5.79993 0
M  V30 3972 H 389.584 -1.05867 -4.76071 0
M  V30 3973 H 388.589 -3.33089 -4.37415 0
M  V30 3974 H 389.814 -4.05455 -5.44778 0
M  V30 3975 H 387.76 -1.96252 -6.25956 0
M  V30 3976 H 387.677 -3.65637 -6.61699 0
M  V30 3977 H 388.945 -2.6935 -7.31485 0
M  V30 3978 N 393.175 1.03435 -1.18907 0
M  V30 3979 C 394.138 2.09756 -0.923844 0
M  V30 3980 C 395.138 1.60528 0.093416 0
M  V30 3981 O 396.328 1.73631 -0.140727 0
M  V30 3982 C 393.46 3.38692 -0.387354 0
M  V30 3983 H 394.653 2.34719 -1.86674 0
M  V30 3984 H 392.206 1.19959 -1.00197 0
M  V30 3985 H 392.941 3.19396 0.561845 0
M  V30 3986 H 392.726 3.75742 -1.12074 0
M  V30 3987 H 394.216 4.17016 -0.220694 0
M  V30 3988 N 394.653 0.992116 1.22453 0
M  V30 3989 C 395.6 0.541731 2.24352 0
M  V30 3990 C 396.57 -0.425519 1.60557 0
M  V30 3991 O 397.755 -0.330453 1.87917 0
M  V30 3992 C 394.895 -0.138248 3.44823 0
M  V30 3993 C 394.008 0.870649 4.23136 0
M  V30 3994 C 393.143 0.164269 5.30946 0
M  V30 3995 C 392.182 1.16159 6.00977 0
M  V30 3996 N 391.319 0.483568 7.00433 0
M  V30 3997 H 396.159 1.41541 2.62241 0
M  V30 3998 H 393.696 0.709013 1.28885 0
M  V30 3999 H 395.654 -0.5494 4.13567 0
M  V30 4000 H 394.284 -0.975721 3.077 0
M  V30 4001 H 393.336 1.40013 3.53696 0
M  V30 4002 H 394.648 1.63014 4.7141 0
M  V30 4003 H 393.802 -0.303653 6.0594 0
M  V30 4004 H 392.541 -0.627733 4.83643 0
M  V30 4005 H 391.546 1.64015 5.24766 0
M  V30 4006 H 392.771 1.95445 6.50368 0
M  V30 4007 H 390.717 -0.289012 6.55363 0
M  V30 4008 H 390.634 1.18152 7.4671 0
M  V30 4009 H 391.902 0.0384219 7.79491 0
M  V30 4010 N 396.131 -1.37776 0.765217 0
M  V30 4011 C 397.094 -2.28686 0.153416 0
M  V30 4012 C 398.094 -1.47727 -0.635081 0
M  V30 4013 O 399.284 -1.68027 -0.459632 0
M  V30 4014 C 396.416 -3.31608 -0.790495 0
M  V30 4015 H 397.609 -2.84297 0.954723 0
M  V30 4016 H 395.162 -1.46932 0.53299 0
M  V30 4017 H 395.897 -2.81109 -1.61705 0
M  V30 4018 H 395.682 -3.9144 -0.227348 0
M  V30 4019 H 397.172 -3.99559 -1.21419 0
M  V30 4020 N 397.609 -0.515225 -1.4894 0
M  V30 4021 C 398.857 0.0241671 -2.02086 0
M  V30 4022 C 399.178 1.3616 -1.3959 0
M  V30 4023 O 398.448 1.87841 -0.556121 0
M  V30 4024 H 397.028 0.0119203 -0.746905 0
M  V30 4025 H 399.69 -0.675702 -1.82812 0
M  V30 4026 H 398.786 0.143385 -3.1177 0
M  V30 4027 N 399.087 1.5561 -0.249682 0
M  V30 4028 C 400.364 1.90932 0.424761 0
M  V30 4029 C 400.744 1.17078 1.75658 0
M  V30 4030 O 400.092 0.289176 2.26663 0
M  V30 4031 C 400.302 3.43975 0.590109 0
M  V30 4032 C 401.65 4.15281 0.884714 0
M  V30 4033 O 402.674 3.49729 0.67587 0
M  V30 4034 O 401.533 5.31236 1.28259 0
M  V30 4035 H 398.627 0.794815 0.228468 0
M  V30 4036 H 401.173 1.67135 -0.293954 0
M  V30 4037 H 399.945 3.89748 -0.34818 0
M  V30 4038 H 399.568 3.73644 1.35926 0
M  V30 4039 N 400.565 -0.0233959 1.57583 0
M  V30 4040 C 401.814 -0.712133 1.8871 0
M  V30 4041 C 402.127 -1.76217 0.848944 0
M  V30 4042 O 403.333 -2.50389 1.04964 0
M  V30 4043 C 401.789 -1.3177 3.3491 0
M  V30 4044 C 401.397 -0.303715 4.46969 0
M  V30 4045 C 403.141 -1.98598 3.75179 0
M  V30 4046 C 401.048 -0.917945 5.84233 0
M  V30 4047 H 399.978 -0.269735 0.704101 0
M  V30 4048 H 402.629 0.0333114 1.8347 0
M  V30 4049 H 401.011 -2.11304 3.34913 0
M  V30 4050 H 402.185 0.465325 4.58445 0
M  V30 4051 H 400.5 0.2628 4.1557 0
M  V30 4052 H 403.097 -2.45416 4.75053 0
M  V30 4053 H 403.44 -2.80659 3.07468 0
M  V30 4054 H 403.973 -1.25831 3.77374 0
M  V30 4055 H 400.712 -0.136633 6.55358 0
M  V30 4056 H 400.232 -1.65669 5.76467 0
M  V30 4057 H 401.911 -1.4236 6.31144 0
M  V30 4058 N 402.043 -1.548 -0.295768 0
M  V30 4059 C 403.268 -1.78653 -1.05346 0
M  V30 4060 C 403.693 -0.546894 -1.79974 0
M  V30 4061 O 403.051 0.502763 -1.7419 0
M  V30 4062 C 403.099 -2.99679 -2.00561 0
M  V30 4063 O 402.203 -2.7317 -3.08953 0
M  V30 4064 H 401.544 -0.59116 -0.302367 0
M  V30 4065 H 404.074 -2.01895 -0.331598 0
M  V30 4066 H 404.084 -3.27793 -2.42932 0
M  V30 4067 H 402.759 -3.89562 -1.4565 0
M  V30 4068 H 401.336 -2.56089 -2.71059 0
M  V30 4069 N 403.521 0.559213 -1.47345 0
M  V30 4070 C 404.469 1.68747 -1.60085 0
M  V30 4071 C 405.463 1.628 -0.46825 0
M  V30 4072 O 406.669 1.68009 -0.645977 0
M  V30 4073 H 403.044 0.558329 -0.503759 0
M  V30 4074 H 405.015 1.55138 -2.54902 0
M  V30 4075 C 403.764 3.07103 -1.63042 0
M  V30 4076 H 403.087 3.12361 -2.49541 0
M  V30 4077 H 404.527 3.85743 -1.76006 0
M  V30 4078 C 402.986 3.34935 -0.363357 0
M  V30 4079 O 403.516 3.98102 0.536416 0
M  V30 4080 N 401.722 2.89574 -0.244 0
M  V30 4081 H 401.269 2.38348 -0.977133 0
M  V30 4082 H 401.227 3.08566 0.602836 0
M  V30 4083 N 404.999 1.35443 0.805782 0
M  V30 4084 C 406.227 1.31878 1.59423 0
M  V30 4085 C 406.642 -0.103562 1.88516 0
M  V30 4086 O 405.999 -1.05575 1.48863 0
M  V30 4087 C 406.05 2.12426 2.92502 0
M  V30 4088 O 405.771 3.49115 2.6467 0
M  V30 4089 C 407.272 2.16455 3.86862 0
M  V30 4090 H 404.492 0.453002 0.495005 0
M  V30 4091 H 407.036 1.78309 1.00131 0
M  V30 4092 H 405.191 1.69593 3.48306 0
M  V30 4093 H 405.605 3.90957 3.49647 0
M  V30 4094 H 407.079 2.77204 4.77349 0
M  V30 4095 H 407.556 1.16352 4.23508 0
M  V30 4096 H 408.162 2.59453 3.36993 0
M  V30 4097 N 406.477 -1.02803 1.19454 0
M  V30 4098 C 407.705 -1.79841 1.02297 0
M  V30 4099 C 408.12 -1.83879 -0.428259 0
M  V30 4100 O 407.477 -1.28345 -1.29745 0
M  V30 4101 C 407.528 -3.24852 1.58598 0
M  V30 4102 O 407.249 -3.21097 2.98041 0
M  V30 4103 C 408.75 -4.18485 1.46236 0
M  V30 4104 H 405.97 -0.565936 0.360496 0
M  V30 4105 H 408.514 -1.2948 1.58288 0
M  V30 4106 H 406.669 -3.72401 1.06753 0
M  V30 4107 H 407.083 -4.12033 3.24545 0
M  V30 4108 H 408.557 -5.18121 1.90407 0
M  V30 4109 H 409.034 -4.37254 0.41301 0
M  V30 4110 H 409.64 -3.76811 1.97215 0
M  V30 4111 N 407.956 -0.998596 -1.21925 0
M  V30 4112 C 409.202 -0.688337 -1.91399 0
M  V30 4113 C 409.557 0.771805 -1.76241 0
M  V30 4114 O 408.85 1.55153 -1.1242 0
M  V30 4115 C 409.044 -1.03648 -3.42041 0
M  V30 4116 C 408.873 -2.52892 -3.71855 0
M  V30 4117 C 407.643 -3.19389 -3.91559 0
M  V30 4118 C 409.841 -3.5103 -3.75875 0
M  V30 4119 N 407.823 -4.5805 -4.08734 0
M  V30 4120 C 409.194 -4.75174 -3.98259 0
M  V30 4121 C 411.249 -3.45257 -3.58751 0
M  V30 4122 C 409.952 -5.94247 -4.05294 0
M  V30 4123 C 411.978 -4.63712 -3.67049 0
M  V30 4124 C 411.34 -5.86658 -3.89887 0
M  V30 4125 H 407.439 -0.303251 -0.720807 0
M  V30 4126 H 410.023 -1.27977 -1.46731 0
M  V30 4127 H 408.194 -0.473569 -3.85502 0
M  V30 4128 H 409.926 -0.681619 -3.98919 0
M  V30 4129 H 406.681 -2.69846 -3.89205 0
M  V30 4130 H 407.105 -5.29989 -4.21237 0
M  V30 4131 H 411.747 -2.51215 -3.40075 0
M  V30 4132 H 409.465 -6.88687 -4.22772 0
M  V30 4133 H 413.051 -4.6084 -3.5513 0
M  V30 4134 H 411.931 -6.76786 -3.96144 0
M  V30 4135 N 409.434 1.37368 -0.772513 0
M  V30 4136 C 410.659 2.0447 -0.347386 0
M  V30 4137 C 411.084 1.57882 1.0225 0
M  V30 4138 O 410.442 0.73941 1.65537 0
M  V30 4139 C 410.49 3.58369 -0.400479 0
M  V30 4140 O 409.594 4.0803 0.598789 0
M  V30 4141 H 408.935 0.646773 -0.15027 0
M  V30 4142 H 411.465 1.75667 -1.04892 0
M  V30 4143 H 411.475 4.07183 -0.258045 0
M  V30 4144 H 410.15 3.91633 -1.39986 0
M  V30 4145 H 408.727 3.70534 0.419411 0
M  V30 4146 N 410.912 0.523116 1.48665 0
M  V30 4147 C 411.842 -0.23231 2.32342 0
M  V30 4148 C 412.823 -0.941637 1.41659 0
M  V30 4149 O 414.008 -0.928751 1.70552 0
M  V30 4150 C 411.138 -1.28387 3.22698 0
M  V30 4151 C 410.092 -0.693098 4.22351 0
M  V30 4152 C 409.418 -1.8468 5.01794 0
M  V30 4153 C 410.718 0.33063 5.21252 0
M  V30 4154 H 412.412 0.466192 2.95748 0
M  V30 4155 H 409.958 0.225643 1.42221 0
M  V30 4156 H 411.911 -1.82024 3.80059 0
M  V30 4157 H 410.635 -2.01186 2.57278 0
M  V30 4158 H 409.294 -0.178299 3.66166 0
M  V30 4159 H 408.942 -2.56301 4.32804 0
M  V30 4160 H 408.642 -1.45747 5.69238 0
M  V30 4161 H 410.166 -2.38709 5.62006 0
M  V30 4162 H 411.58 -0.118407 5.73178 0
M  V30 4163 H 409.977 0.636974 5.9671 0
M  V30 4164 H 411.047 1.23883 4.68808 0
M  V30 4165 N 412.39 -1.55475 0.257931 0
M  V30 4166 C 413.353 -2.20551 -0.623706 0
M  V30 4167 C 414.353 -1.17809 -1.09443 0
M  V30 4168 O 415.543 -1.42823 -0.997362 0
M  V30 4169 C 412.675 -2.85784 -1.8585 0
M  V30 4170 H 413.868 -2.99848 -0.0557743 0
M  V30 4171 H 411.421 -1.56298 0.0084422 0
M  V30 4172 H 412.156 -2.10453 -2.46739 0
M  V30 4173 H 411.941 -3.61057 -1.52907 0
M  V30 4174 H 413.431 -3.35553 -2.48584 0
M  V30 4175 N 413.868 0.0150385 -1.57593 0
M  V30 4176 C 414.831 0.995996 -2.06428 0
M  V30 4177 C 415.831 1.2818 -0.970903 0
M  V30 4178 O 417.021 1.22949 -1.23406 0
M  V30 4179 C 414.153 2.32506 -2.49307 0
M  V30 4180 H 415.346 0.573873 -2.94358 0
M  V30 4181 H 412.899 0.262186 -1.54085 0
M  V30 4182 H 413.634 2.79438 -1.64575 0
M  V30 4183 H 413.419 2.13087 -3.29145 0
M  V30 4184 H 414.909 3.02906 -2.87468 0
M  V30 4185 N 415.346 1.54954 0.287554 0
M  V30 4186 C 416.309 1.86076 1.33823 0
M  V30 4187 C 417.309 0.734414 1.43049 0
M  V30 4188 O 418.499 1.00266 1.42452 0
M  V30 4189 C 415.631 2.05305 2.72144 0
M  V30 4190 H 416.824 2.79984 1.07465 0
M  V30 4191 H 414.377 1.47223 0.524902 0
M  V30 4192 H 415.112 1.1373 3.03704 0
M  V30 4193 H 414.897 2.873 2.66836 0
M  V30 4194 H 416.387 2.30706 3.48087 0
M  V30 4195 N 416.824 -0.551391 1.4764 0
M  V30 4196 C 418.054 -1.33163 1.57959 0
M  V30 4197 C 418.462 -1.87785 0.23094 0
M  V30 4198 O 417.805 -1.65996 -0.786825 0
M  V30 4199 C 417.867 -2.53449 2.54958 0
M  V30 4200 C 417.531 -2.20071 4.00522 0
M  V30 4201 C 418.528 -1.77017 4.88836 0
M  V30 4202 C 416.213 -2.31252 4.45901 0
M  V30 4203 C 418.207 -1.4558 6.20552 0
M  V30 4204 C 415.894 -1.99427 5.77644 0
M  V30 4205 C 416.892 -1.56659 6.64791 0
M  V30 4206 O 416.58 -1.25242 7.94084 0
M  V30 4207 H 416.312 -0.412022 0.535923 0
M  V30 4208 H 418.866 -0.674186 1.9402 0
M  V30 4209 H 417.096 -3.22104 2.13976 0
M  V30 4210 H 418.785 -3.15523 2.55343 0
M  V30 4211 H 419.551 -1.67867 4.55023 0
M  V30 4212 H 415.43 -2.63498 3.78272 0
M  V30 4213 H 418.974 -1.12125 6.8853 0
M  V30 4214 H 414.871 -2.08211 6.10998 0
M  V30 4215 H 415.639 -1.38822 8.06642 0
M  V30 4216 N 418.302 -1.35869 -0.798587 0
M  V30 4217 C 419.53 -1.32722 -1.58722 0
M  V30 4218 C 419.945 0.0935631 -1.88568 0
M  V30 4219 O 419.302 1.04784 -1.49421 0
M  V30 4220 C 419.353 -2.13974 -2.91371 0
M  V30 4221 O 419.074 -3.50514 -2.62815 0
M  V30 4222 C 420.575 -2.18504 -3.85708 0
M  V30 4223 H 417.795 -0.45562 -0.492596 0
M  V30 4224 H 420.339 -1.78837 -0.991843 0
M  V30 4225 H 418.494 -1.71438 -3.47402 0
M  V30 4226 H 418.908 -3.92806 -3.47568 0
M  V30 4227 H 420.382 -2.79732 -4.75872 0
M  V30 4228 H 420.859 -1.18597 -4.22885 0
M  V30 4229 H 421.465 -2.61236 -3.35612 0
M  V30 4230 N 419.78 1.02168 -1.19998 0
M  V30 4231 C 420.71 2.12488 -0.96804 0
M  V30 4232 C 421.691 1.69799 0.101185 0
M  V30 4233 O 422.876 1.94121 -0.0552993 0
M  V30 4234 C 420.006 3.43479 -0.513776 0
M  V30 4235 C 418.96 3.99884 -1.52566 0
M  V30 4236 C 418.286 5.26582 -0.928214 0
M  V30 4237 C 419.586 4.33861 -2.90795 0
M  V30 4238 H 421.28 2.32149 -1.89069 0
M  V30 4239 H 418.826 1.11564 -0.910468 0
M  V30 4240 H 420.779 4.20036 -0.338774 0
M  V30 4241 H 419.503 3.23561 0.444493 0
M  V30 4242 H 418.162 3.25429 -1.68794 0
M  V30 4243 H 417.81 5.02986 0.0378289 0
M  V30 4244 H 417.51 5.65284 -1.60397 0
M  V30 4245 H 419.034 6.05799 -0.764167 0
M  V30 4246 H 420.448 5.01327 -2.78109 0
M  V30 4247 H 418.845 4.83664 -3.55231 0
M  V30 4248 H 419.915 3.42848 -3.42904 0
M  V30 4249 N 421.258 1.00505 1.21394 0
M  V30 4250 C 422.535 0.603277 1.86064 0
M  V30 4251 C 422.915 -0.919095 1.90042 0
M  V30 4252 O 422.263 -1.80607 1.39977 0
M  V30 4253 C 422.473 1.23772 3.26315 0
M  V30 4254 C 423.821 1.34586 4.02705 0
M  V30 4255 O 424.845 1.19304 3.35626 0
M  V30 4256 O 423.704 1.59169 5.22807 0
M  V30 4257 H 420.798 0.206634 0.800769 0
M  V30 4258 H 423.344 1.1017 1.29076 0
M  V30 4259 H 422.116 2.27848 3.18121 0
M  V30 4260 H 421.739 0.725648 3.90922 0
M  V30 4261 N 422.737 -1.36956 0.779787 0
M  V30 4262 C 423.7 -2.2851 0.177662 0
M  V30 4263 C 424.7 -1.48393 -0.619377 0
M  V30 4264 O 425.89 -1.68505 -0.441785 0
M  V30 4265 C 423.022 -3.32428 -0.755279 0
M  V30 4266 H 424.215 -2.83269 0.984823 0
M  V30 4267 H 421.768 -1.46358 0.548544 0
M  V30 4268 H 422.503 -2.82808 -1.58714 0
M  V30 4269 H 422.288 -3.91659 -0.185817 0
M  V30 4270 H 423.778 -4.00824 -1.17174 0
M  V30 4271 N 424.215 -0.530993 -1.48385 0
M  V30 4272 C 425.165 0.251092 -2.26613 0
M  V30 4273 C 426.149 0.908977 -1.32765 0
M  V30 4274 O 427.341 0.811616 -1.57295 0
M  V30 4275 C 424.47 1.29677 -3.17866 0
M  V30 4276 C 423.556 0.643627 -4.19188 0
M  V30 4277 N 423.947 -0.271223 -5.05072 0
M  V30 4278 C 422.245 0.900711 -4.3681 0
M  V30 4279 C 422.946 -0.648109 -5.78078 0
M  V30 4280 N 421.922 -0.00895987 -5.43599 0
M  V30 4281 H 425.724 -0.452702 -2.90393 0
M  V30 4282 H 423.238 -0.349091 -1.58604 0
M  V30 4283 H 425.235 1.87079 -3.72568 0
M  V30 4284 H 423.895 2.00193 -2.55642 0
M  V30 4285 H 424.906 -0.643883 -5.13882 0
M  V30 4286 H 421.583 1.59636 -3.85775 0
M  V30 4287 H 422.973 -1.39833 -6.57188 0
M  V30 4288 N 425.693 1.55336 -0.266172 0
M  V30 4289 C 426.921 2.03801 0.356756 0
M  V30 4290 C 427.336 1.14485 1.50129 0
M  V30 4291 O 426.693 0.163121 1.8177 0
M  V30 4292 C 426.744 3.51455 0.846281 0
M  V30 4293 O 426.465 4.37371 -0.252663 0
M  V30 4294 C 427.966 4.15767 1.53794 0
M  V30 4295 H 425.186 0.665906 0.0825218 0
M  V30 4296 H 427.73 2.00636 -0.39566 0
M  V30 4297 H 425.885 3.55092 1.54881 0
M  V30 4298 H 426.299 5.24358 0.122173 0
M  V30 4299 H 427.773 5.20714 1.83198 0
M  V30 4300 H 428.25 3.63404 2.46646 0
M  V30 4301 H 428.856 4.16107 0.879488 0
M  V30 4302 N 427.171 -0.0066808 1.57599 0
M  V30 4303 C 428.418 -0.69292 1.90276 0
M  V30 4304 C 428.746 -1.74148 0.866192 0
M  V30 4305 O 428.001 -1.95268 -0.129933 0
M  V30 4306 C 428.3 -1.37939 3.29708 0
M  V30 4307 C 427.966 -0.464679 4.48499 0
M  V30 4308 C 426.628 -0.212809 4.80729 0
M  V30 4309 C 428.98 0.16551 5.20937 0
M  V30 4310 C 426.308 0.677653 5.82773 0
M  V30 4311 C 428.66 1.04381 6.23929 0
M  V30 4312 C 427.324 1.30492 6.54621 0
M  V30 4313 H 426.594 -0.253558 0.696268 0
M  V30 4314 H 429.241 0.0474123 1.91441 0
M  V30 4315 H 427.546 -2.1936 3.24636 0
M  V30 4316 H 429.243 -1.9163 3.52249 0
M  V30 4317 H 425.833 -0.671153 4.23313 0
M  V30 4318 H 430.017 -0.0160756 4.96297 0
M  V30 4319 H 425.273 0.88803 6.04917 0
M  V30 4320 H 429.447 1.53851 6.79193 0
M  V30 4321 H 427.074 1.99662 7.33512 0
M  V30 4322 N 428.649 -1.55105 -0.279332 0
M  V30 4323 C 429.877 -1.7943 -1.03017 0
M  V30 4324 C 430.292 -0.564456 -1.80165 0
M  V30 4325 O 429.649 0.466326 -1.76442 0
M  V30 4326 C 429.7 -3.0155 -1.99374 0
M  V30 4327 O 429.421 -4.19784 -1.25352 0
M  V30 4328 C 430.922 -3.3843 -2.86321 0
M  V30 4329 H 428.142 -0.597882 -0.304594 0
M  V30 4330 H 430.686 -2.02105 -0.312035 0
M  V30 4331 H 428.841 -2.81019 -2.66659 0
M  V30 4332 H 429.255 -4.88781 -1.90246 0
M  V30 4333 H 430.729 -4.27066 -3.49741 0
M  V30 4334 H 431.206 -2.57549 -3.5576 0
M  V30 4335 H 431.812 -3.61197 -2.24536 0
M  V30 4336 N 430.127 0.543554 -1.4793 0
M  V30 4337 C 431.057 1.65888 -1.64327 0
M  V30 4338 C 432.038 1.62818 -0.492383 0
M  V30 4339 O 433.223 1.80226 -0.723338 0
M  V30 4340 C 430.353 3.04506 -1.67013 0
M  V30 4341 C 429.307 3.2243 -2.81466 0
M  V30 4342 C 428.633 4.61972 -2.69233 0
M  V30 4343 C 429.933 3.06496 -4.22915 0
M  V30 4344 H 431.627 1.52421 -2.57698 0
M  V30 4345 H 429.173 0.731849 -1.24016 0
M  V30 4346 H 431.126 3.82391 -1.77074 0
M  V30 4347 H 429.85 3.18964 -0.70212 0
M  V30 4348 H 428.509 2.46957 -2.70938 0
M  V30 4349 H 428.157 4.73247 -1.7043 0
M  V30 4350 H 427.857 4.74911 -3.46025 0
M  V30 4351 H 429.381 5.41974 -2.81242 0
M  V30 4352 H 430.795 3.74186 -4.34348 0
M  V30 4353 H 429.192 3.30938 -5.006 0
M  V30 4354 H 430.262 2.03077 -4.40327 0
M  V30 4355 N 431.605 1.3629 0.791371 0
M  V30 4356 C 432.568 1.30309 1.88553 0
M  V30 4357 C 433.568 0.211204 1.59407 0
M  V30 4358 O 434.758 0.465865 1.67855 0
M  V30 4359 C 431.89 1.01956 3.25297 0
M  V30 4360 H 433.083 2.27614 1.95273 0
M  V30 4361 H 430.636 1.21035 0.988953 0
M  V30 4362 H 431.371 0.050998 3.2426 0
M  V30 4363 H 431.156 1.80968 3.4784 0
M  V30 4364 H 432.646 1.0037 4.05359 0
M  V30 4365 N 433.083 -1.0153 1.20538 0
M  V30 4366 C 434.313 -1.78487 1.04048 0
M  V30 4367 C 434.721 -1.84631 -0.413292 0
M  V30 4368 O 434.064 -1.29919 -1.29872 0
M  V30 4369 C 434.126 -3.24367 1.55003 0
M  V30 4370 C 433.79 -3.41827 3.0332 0
M  V30 4371 C 434.787 -3.30941 4.00966 0
M  V30 4372 C 432.472 -3.67602 3.42307 0
M  V30 4373 C 434.466 -3.45577 5.35589 0
M  V30 4374 C 432.153 -3.81881 4.77085 0
M  V30 4375 C 433.151 -3.70874 5.73534 0
M  V30 4376 O 432.839 -3.84714 7.05868 0
M  V30 4377 H 432.571 -0.568108 0.366373 0
M  V30 4378 H 435.125 -1.28677 1.60098 0
M  V30 4379 H 433.355 -3.75266 0.933397 0
M  V30 4380 H 435.044 -3.82963 1.34514 0
M  V30 4381 H 435.81 -3.10964 3.72191 0
M  V30 4382 H 431.689 -3.75256 2.67776 0
M  V30 4383 H 435.233 -3.36902 6.10854 0
M  V30 4384 H 431.13 -4.01359 5.0555 0
M  V30 4385 H 431.898 -4.01724 7.13134 0
M  V30 4386 N 434.561 -1.01147 -1.20859 0
M  V30 4387 C 435.493 -0.535546 -2.22855 0
M  V30 4388 C 436.506 0.379323 -1.58319 0
M  V30 4389 O 437.695 0.178489 -1.77605 0
M  V30 4390 C 434.795 0.240962 -3.38042 0
M  V30 4391 C 433.968 -0.674562 -4.32167 0
M  V30 4392 C 433.027 0.053467 -5.26173 0
M  V30 4393 O 432.053 -0.567339 -5.66366 0
M  V30 4394 N 433.255 1.32997 -5.65059 0
M  V30 4395 H 436.02 -1.41268 -2.64317 0
M  V30 4396 H 433.581 -0.888386 -1.35349 0
M  V30 4397 H 435.573 0.737115 -3.97931 0
M  V30 4398 H 434.143 1.01935 -2.95513 0
M  V30 4399 H 433.363 -1.35111 -3.70322 0
M  V30 4400 H 434.651 -1.2974 -4.91981 0
M  V30 4401 H 434.049 1.85536 -5.34409 0
M  V30 4402 H 432.606 1.77095 -6.2728 0
M  V30 4403 N 436.039 1.36541 -0.78704 0
M  V30 4404 C 436.986 2.30082 -0.181901 0
M  V30 4405 C 437.956 1.5186 0.672896 0
M  V30 4406 O 439.141 1.80374 0.622072 0
M  V30 4407 C 436.281 3.3835 0.679197 0
M  V30 4408 C 435.394 4.31565 -0.193882 0
M  V30 4409 C 434.529 5.26915 0.673364 0
M  V30 4410 C 433.568 6.11769 -0.201315 0
M  V30 4411 N 432.705 6.99315 0.624777 0
M  V30 4412 H 437.545 2.81248 -0.985064 0
M  V30 4413 H 435.082 1.38437 -0.497342 0
M  V30 4414 H 437.04 3.99767 1.19341 0
M  V30 4415 H 435.67 2.8851 1.44781 0
M  V30 4416 H 434.722 3.71323 -0.826044 0
M  V30 4417 H 436.034 4.91191 -0.867937 0
M  V30 4418 H 435.188 5.9361 1.25348 0
M  V30 4419 H 433.927 4.67737 1.38105 0
M  V30 4420 H 432.932 5.44039 -0.793849 0
M  V30 4421 H 434.157 6.73022 -0.906568 0
M  V30 4422 H 432.103 6.42648 1.3168 0
M  V30 4423 H 432.02 7.56 0.00835237 0
M  V30 4424 H 433.288 7.70382 1.18879 0
M  V30 4425 N 437.518 0.538854 1.48102 0
M  V30 4426 C 438.764 0.00801365 2.02798 0
M  V30 4427 C 439.097 -1.3309 1.41424 0
M  V30 4428 O 438.372 -1.86169 0.563158 0
M  V30 4429 C 438.655 -0.104589 3.59948 0
M  V30 4430 C 438.508 1.26012 4.31788 0
M  V30 4431 C 439.827 -0.827055 4.32259 0
M  V30 4432 H 436.946 0.00438624 0.736987 0
M  V30 4433 H 439.588 0.6976 1.7673 0
M  V30 4434 H 437.738 -0.691893 3.82289 0
M  V30 4435 H 439.41 1.88922 4.2084 0
M  V30 4436 H 437.653 1.83968 3.92859 0
M  V30 4437 H 438.324 1.13424 5.40221 0
M  V30 4438 H 440.8 -0.328578 4.14801 0
M  V30 4439 H 439.676 -0.87476 5.41885 0
M  V30 4440 H 439.937 -1.87927 4.0017 0
M  V30 4441 N 438.996 -1.55193 0.274407 0
M  V30 4442 C 439.946 -2.19184 -0.627882 0
M  V30 4443 C 440.93 -1.15625 -1.11892 0
M  V30 4444 O 442.122 -1.41441 -1.06411 0
M  V30 4445 C 439.251 -2.91591 -1.81189 0
M  V30 4446 C 438.337 -4.02438 -1.33807 0
M  V30 4447 N 438.728 -5.0246 -0.580349 0
M  V30 4448 C 437.026 -4.15496 -1.62109 0
M  V30 4449 C 437.727 -5.80756 -0.331344 0
M  V30 4450 N 436.703 -5.36038 -0.903556 0
M  V30 4451 H 440.505 -2.93871 -0.0411216 0
M  V30 4452 H 438.019 -1.62213 0.0779348 0
M  V30 4453 H 440.016 -3.35883 -2.46957 0
M  V30 4454 H 438.676 -2.18414 -2.40261 0
M  V30 4455 H 439.687 -5.17399 -0.227762 0
M  V30 4456 H 436.364 -3.53509 -2.22121 0
M  V30 4457 H 437.754 -6.71335 0.275454 0
M  V30 4458 N 440.474 -0.00167713 -1.576 0
M  V30 4459 C 441.722 0.681471 -1.90264 0
M  V30 4460 C 442.043 1.7422 -0.875924 0
M  V30 4461 O 441.313 1.95709 0.0864412 0
M  V30 4462 H 439.893 0.254696 -0.702239 0
M  V30 4463 H 442.555 -0.0429996 -1.94853 0
M  V30 4464 H 441.651 1.15166 -2.90075 0
M  V30 4465 N 441.952 1.55251 0.271103 0
M  V30 4466 C 443.229 1.66664 1.02384 0
M  V30 4467 C 443.609 0.534363 2.04225 0
M  V30 4468 O 442.957 -0.465337 2.23712 0
M  V30 4469 C 443.167 3.05961 1.67895 0
M  V30 4470 C 444.515 3.63772 2.18986 0
M  V30 4471 O 445.539 3.08606 1.77878 0
M  V30 4472 O 444.398 4.60429 2.94393 0
M  V30 4473 H 441.492 0.676957 0.475035 0
M  V30 4474 H 444.038 1.67589 0.26681 0
M  V30 4475 H 442.81 3.79815 0.941071 0
M  V30 4476 H 442.433 3.08943 2.5028 0
M  V30 4477 N 443.43 -0.535701 1.48216 0
M  V30 4478 C 444.362 -1.65662 1.58394 0
M  V30 4479 C 445.375 -1.5591 0.468607 0
M  V30 4480 O 446.564 -1.62475 0.7392 0
M  V30 4481 C 443.664 -3.04276 1.4923 0
M  V30 4482 C 442.837 -3.39567 2.75705 0
M  V30 4483 C 441.896 -4.57436 2.60075 0
M  V30 4484 O 440.922 -4.60942 3.33948 0
M  V30 4485 N 442.124 -5.55259 1.69315 0
M  V30 4486 H 444.889 -1.5737 2.55058 0
M  V30 4487 H 442.45 -0.722845 1.44867 0
M  V30 4488 H 444.442 -3.80994 1.36477 0
M  V30 4489 H 443.012 -3.06677 0.605632 0
M  V30 4490 H 442.232 -2.52083 3.03064 0
M  V30 4491 H 443.52 -3.59929 3.59623 0
M  V30 4492 H 442.918 -5.552 1.08489 0
M  V30 4493 H 441.475 -6.31218 1.62504 0
M  V30 4494 N 444.908 -1.36708 -0.784132 0
M  V30 4495 C 446.319 -1.27947 -1.35965 0
M  V30 4496 C 446.67 0.0784013 -1.96043 0
M  V30 4497 O 445.795 0.979989 -1.92938 0
M  V30 4498 C 446.39 -2.31689 -2.47195 0
M  V30 4499 C 444.949 -2.26601 -3.00548 0
M  V30 4500 C 444.096 -2.16184 -1.73666 0
M  V30 4501 H 447.047 -1.4751 -0.585358 0
M  V30 4502 H 447.068 -1.95638 -3.26352 0
M  V30 4503 H 446.58 -3.30506 -2.03439 0
M  V30 4504 H 444.681 -1.31268 -3.48711 0
M  V30 4505 H 444.794 -3.19508 -3.57004 0
M  V30 4506 H 443.158 -1.62524 -1.96107 0
M  V30 4507 H 443.941 -3.16896 -1.32031 0
M  V30 4508 N 446.386 1.0089 -1.21074 0
M  V30 4509 C 447.633 1.74607 -1.0256 0
M  V30 4510 C 447.961 1.89426 0.44136 0
M  V30 4511 O 447.216 1.42266 1.34384 0
M  V30 4512 C 447.515 3.16335 -1.66334 0
M  V30 4513 C 447.181 3.21474 -3.16173 0
M  V30 4514 C 445.843 3.22583 -3.57062 0
M  V30 4515 C 448.195 3.19025 -4.12156 0
M  V30 4516 C 445.523 3.18925 -4.92446 0
M  V30 4517 C 447.875 3.16909 -5.47496 0
M  V30 4518 C 446.539 3.16326 -5.87787 0
M  V30 4519 H 445.809 0.638933 -0.375294 0
M  V30 4520 H 448.456 1.18274 -1.50611 0
M  V30 4521 H 446.761 3.75876 -1.10566 0
M  V30 4522 H 448.458 3.72083 -1.49516 0
M  V30 4523 H 445.048 3.2135 -2.83605 0
M  V30 4524 H 449.232 3.17332 -3.81595 0
M  V30 4525 H 444.488 3.16809 -5.22917 0
M  V30 4526 H 448.662 3.13968 -6.21609 0
M  V30 4527 H 446.289 3.13246 -6.92662 0
M  V30 4528 N 447.864 1.01787 1.20321 0
M  V30 4529 C 449.141 0.622978 1.85414 0
M  V30 4530 C 449.521 -0.898887 1.91006 0
M  V30 4531 O 448.869 -1.79112 1.41884 0
M  V30 4532 C 449.079 1.27226 3.24984 0
M  V30 4533 C 450.427 1.3885 4.01255 0
M  V30 4534 O 451.451 1.22857 3.34342 0
M  V30 4535 O 450.31 1.64705 5.2109 0
M  V30 4536 H 447.404 0.215116 0.798533 0
M  V30 4537 H 449.95 1.11533 1.27901 0
M  V30 4538 H 448.722 2.31209 3.15687 0
M  V30 4539 H 448.345 0.767069 3.90131 0
M  V30 4540 N 449.342 -1.36122 0.79427 0
M  V30 4541 C 450.572 -2.03067 0.380437 0
M  V30 4542 C 450.98 -1.60018 -1.00949 0
M  V30 4543 O 450.323 -0.787425 -1.65968 0
M  V30 4544 C 450.385 -3.57587 0.37034 0
M  V30 4545 C 450.049 -4.23855 1.70867 0
M  V30 4546 C 451.046 -4.46404 2.66496 0
M  V30 4547 C 448.731 -4.61229 1.9893 0
M  V30 4548 C 450.725 -5.05412 3.88378 0
M  V30 4549 C 448.412 -5.19953 3.21079 0
M  V30 4550 C 449.41 -5.41985 4.15621 0
M  V30 4551 O 449.098 -5.99475 5.35616 0
M  V30 4552 H 448.83 -0.658168 0.154243 0
M  V30 4553 H 451.384 -1.7498 1.0757 0
M  V30 4554 H 449.614 -3.84814 -0.381444 0
M  V30 4555 H 451.303 -4.05895 -0.0194894 0
M  V30 4556 H 452.069 -4.17921 2.46103 0
M  V30 4557 H 447.948 -4.43402 1.26158 0
M  V30 4558 H 451.492 -5.22524 4.62185 0
M  V30 4559 H 447.389 -5.47862 3.41347 0
M  V30 4560 H 448.157 -6.17937 5.36745 0
M  V30 4561 N 450.82 -0.546701 -1.47814 0
M  V30 4562 C 452.069 -0.0166497 -2.01693 0
M  V30 4563 C 452.382 1.33721 -1.42752 0
M  V30 4564 O 453.588 1.95658 -1.8823 0
M  V30 4565 C 452.044 0.0206769 -3.59894 0
M  V30 4566 C 451.652 -1.3293 -4.27824 0
M  V30 4567 C 453.396 0.498674 -4.21561 0
M  V30 4568 C 451.303 -1.25165 -5.78003 0
M  V30 4569 H 450.233 -0.0024541 -0.753996 0
M  V30 4570 H 452.884 -0.692984 -1.69912 0
M  V30 4571 H 451.266 0.76244 -3.88591 0
M  V30 4572 H 452.44 -2.08795 -4.10781 0
M  V30 4573 H 450.755 -1.74438 -3.78101 0
M  V30 4574 H 453.352 0.575 -5.31599 0
M  V30 4575 H 453.695 1.5083 -3.88016 0
M  V30 4576 H 454.228 -0.18791 -3.97356 0
M  V30 4577 H 450.967 -2.23695 -6.1615 0
M  V30 4578 H 450.487 -0.53464 -5.97412 0
M  V30 4579 H 452.166 -0.949299 -6.39998 0
M  V30 4580 N 452.299 1.55045 -0.282633 0
M  V30 4581 C 453.547 1.99365 0.331334 0
M  V30 4582 C 453.868 1.1725 1.55812 0
M  V30 4583 O 453.138 0.263871 1.94115 0
M  V30 4584 H 451.718 0.736397 0.125414 0
M  V30 4585 H 454.38 1.90964 -0.389711 0
M  V30 4586 H 453.476 3.0596 0.616036 0
M  V30 4587 N 453.777 0.010035 1.57597 0
M  V30 4588 C 455.024 -0.6727 1.91 0
M  V30 4589 C 455.352 -1.73219 0.884614 0
M  V30 4590 O 454.607 -1.95395 -0.109215 0
M  V30 4591 C 454.906 -1.34434 3.31153 0
M  V30 4592 C 454.572 -0.417083 4.48967 0
M  V30 4593 C 453.234 -0.161809 4.80928 0
M  V30 4594 C 455.586 0.220753 5.20732 0
M  V30 4595 C 452.914 0.739426 5.82022 0
M  V30 4596 C 455.266 1.10993 6.22787 0
M  V30 4597 C 453.93 1.37428 6.532 0
M  V30 4598 H 453.2 -0.246158 0.698918 0
M  V30 4599 H 455.847 0.0677145 1.9138 0
M  V30 4600 H 454.152 -2.15905 3.26944 0
M  V30 4601 H 455.849 -1.87883 3.54261 0
M  V30 4602 H 452.439 -0.626217 4.24001 0
M  V30 4603 H 456.623 0.0365643 4.96287 0
M  V30 4604 H 451.879 0.952139 6.03941 0
M  V30 4605 H 456.053 1.61046 6.77523 0
M  V30 4606 H 453.68 2.0743 7.31353 0
M  V30 4607 N 455.255 -1.55392 -0.262866 0
M  V30 4608 C 456.503 -1.76127 -0.991147 0
M  V30 4609 C 456.824 -0.571083 -1.8645 0
M  V30 4610 O 456.094 0.413698 -1.91482 0
M  V30 4611 H 454.674 -0.649528 -0.368948 0
M  V30 4612 H 457.336 -1.9281 -0.284655 0
M  V30 4613 H 456.432 -2.6663 -1.62219 0
M  V30 4614 N 456.733 0.527833 -1.48498 0
M  V30 4615 C 458.149 0.856571 -1.34666 0
M  V30 4616 C 458.349 1.98271 -0.35931 0
M  V30 4617 O 457.405 2.51551 0.218703 0
M  V30 4618 C 458.718 1.22207 -2.74747 0
M  V30 4619 C 460.266 1.33183 -2.83251 0
M  V30 4620 C 460.741 1.73075 -4.24039 0
M  V30 4621 N 462.232 1.80174 -4.26722 0
M  V30 4622 C 462.967 2.1243 -5.32598 0
M  V30 4623 N 462.463 2.43096 -6.4875 0
M  V30 4624 N 464.256 2.13454 -5.19994 0
M  V30 4625 H 456.407 -0.215174 -2.11307 0
M  V30 4626 H 458.67 -0.0336281 -0.947403 0
M  V30 4627 H 458.376 0.468195 -3.4857 0
M  V30 4628 H 458.25 2.17173 -3.08409 0
M  V30 4629 H 460.637 2.07647 -2.09683 0
M  V30 4630 H 460.718 0.363333 -2.53206 0
M  V30 4631 H 460.362 0.991712 -4.98124 0
M  V30 4632 H 460.292 2.70979 -4.51529 0
M  V30 4633 H 462.783 1.58744 -3.42942 0
M  V30 4634 H 463.096 2.6682 -7.25277 0
M  V30 4635 H 461.441 2.40611 -6.52021 0
M  V30 4636 H 464.632 1.88956 -4.28268 0
M  V30 4637 H 464.805 2.38261 -6.02608 0
M  V30 4638 N 458.211 1.37122 0.776871 0
M  V30 4639 C 459.159 1.32549 1.91138 0
M  V30 4640 C 460.153 0.215119 1.68029 0
M  V30 4641 O 461.359 0.382852 1.75881 0
M  V30 4642 H 457.734 0.412952 0.62847 0
M  V30 4643 H 459.705 2.28332 1.92112 0
M  V30 4644 C 458.454 1.14422 3.28333 0
M  V30 4645 H 457.777 1.99115 3.46689 0
M  V30 4646 H 459.217 1.15272 4.0803 0
M  V30 4647 C 457.676 -0.150434 3.36564 0
M  V30 4648 O 458.206 -1.13584 3.85307 0
M  V30 4649 N 456.412 -0.19939 2.89915 0
M  V30 4650 H 455.959 0.603142 2.5044 0
M  V30 4651 H 455.917 -1.06526 2.95803 0
M  V30 4652 N 459.689 -1.00246 1.21608 0
M  V30 4653 C 460.937 -1.73717 1.0328 0
M  V30 4654 C 461.258 -1.90102 -0.434318 0
M  V30 4655 O 460.528 -1.45376 -1.31311 0
M  V30 4656 H 459.108 -0.643613 0.379172 0
M  V30 4657 H 461.77 -1.20787 1.52959 0
M  V30 4658 H 460.866 -2.73535 1.50283 0
M  V30 4659 N 461.167 -1.02423 -1.1978 0
M  V30 4660 C 462.392 -0.7373 -1.93852 0
M  V30 4661 C 462.817 0.696923 -1.74713 0
M  V30 4662 O 462.175 1.48056 -1.04638 0
M  V30 4663 C 462.223 -1.08783 -3.438 0
M  V30 4664 O 461.327 -0.20383 -4.11896 0
M  V30 4665 H 460.668 -0.27284 -0.605355 0
M  V30 4666 H 463.198 -1.36966 -1.51992 0
M  V30 4667 H 463.208 -1.04276 -3.9445 0
M  V30 4668 H 461.883 -2.13274 -3.57053 0
M  V30 4669 H 460.46 -0.307091 -3.71633 0
M  V30 4670 N 462.645 1.35699 -0.801477 0
M  V30 4671 C 463.893 1.9852 -0.37871 0
M  V30 4672 C 464.214 1.63907 1.05638 0
M  V30 4673 O 463.484 0.919013 1.73006 0
M  V30 4674 H 462.064 0.734322 -0.137042 0
M  V30 4675 H 464.726 1.65697 -1.02619 0
M  V30 4676 H 463.822 3.08382 -0.480284 0
M  V30 4677 N 464.123 0.554532 1.47522 0
M  V30 4678 C 465.086 -0.184174 2.28459 0
M  V30 4679 C 466.086 -0.845195 1.36796 0
M  V30 4680 O 467.276 -0.701467 1.59452 0
M  V30 4681 C 464.408 -1.26903 3.16399 0
M  V30 4682 H 465.601 0.526751 2.95238 0
M  V30 4683 H 463.154 0.311375 1.53167 0
M  V30 4684 H 463.889 -2.01244 2.54306 0
M  V30 4685 H 463.674 -0.799883 3.83854 0
M  V30 4686 H 465.164 -1.78794 3.77389 0
M  V30 4687 N 465.601 -1.54893 0.290851 0
M  V30 4688 C 466.849 -1.99538 -0.320756 0
M  V30 4689 C 467.17 -1.18075 -1.55188 0
M  V30 4690 O 466.44 -0.274162 -1.93972 0
M  V30 4691 H 465.02 -0.737052 -0.121507 0
M  V30 4692 H 467.682 -1.90755 0.399832 0
M  V30 4693 H 466.778 -3.06282 -0.599802 0
M  V30 4694 N 467.08 -0.0183926 -1.57589 0
M  V30 4695 C 468.328 0.661253 -1.90976 0
M  V30 4696 C 468.649 1.73281 -0.894353 0
M  V30 4697 O 467.919 1.9579 0.0656788 0
M  V30 4698 H 466.499 0.247233 -0.704901 0
M  V30 4699 H 469.161 -0.0636639 -1.94796 0
M  V30 4700 H 468.257 1.12083 -2.9128 0
M  V30 4701 N 468.558 1.5553 0.254621 0
M  V30 4702 C 469.835 1.6774 1.00611 0
M  V30 4703 C 470.215 0.555993 2.03647 0
M  V30 4704 O 469.563 -0.441583 2.24193 0
M  V30 4705 C 469.773 3.07725 1.6464 0
M  V30 4706 C 471.121 3.66074 2.15116 0
M  V30 4707 O 472.145 3.10476 1.74595 0
M  V30 4708 O 471.004 4.63526 2.89493 0
M  V30 4709 H 468.098 0.681958 0.467828 0
M  V30 4710 H 470.644 1.67863 0.24902 0
M  V30 4711 H 469.416 3.80792 0.900734 0
M  V30 4712 H 469.039 3.1158 2.46989 0
M  V30 4713 N 470.036 -0.519951 1.48776 0
M  V30 4714 C 471.261 -1.30447 1.6124 0
M  V30 4715 C 471.686 -1.86055 0.276591 0
M  V30 4716 O 471.044 -1.64915 -0.753183 0
M  V30 4717 C 471.092 -2.42406 2.66967 0
M  V30 4718 O 470.196 -3.45728 2.24824 0
M  V30 4719 H 469.537 -0.385924 0.540332 0
M  V30 4720 H 472.067 -0.624572 1.94834 0
M  V30 4721 H 472.077 -2.88447 2.88552 0
M  V30 4722 H 470.752 -2.01294 3.63941 0
M  V30 4723 H 469.329 -3.05737 2.13494 0
M  V30 4724 N 471.514 -1.37532 -0.769588 0
M  V30 4725 C 472.763 -1.32183 -1.5235 0
M  V30 4726 C 473.076 0.0906555 -1.9539 0
M  V30 4727 O 474.282 0.266628 -2.70188 0
M  V30 4728 C 472.738 -2.32029 -2.75119 0
M  V30 4729 C 472.346 -3.78816 -2.3917 0
M  V30 4730 C 474.09 -2.35694 -3.53056 0
M  V30 4731 C 471.997 -4.70388 -3.58453 0
M  V30 4732 H 470.927 -0.491275 -0.571984 0
M  V30 4733 H 473.578 -1.63004 -0.842739 0
M  V30 4734 H 471.96 -1.94229 -3.45096 0
M  V30 4735 H 473.134 -4.25466 -1.76962 0
M  V30 4736 H 471.449 -3.78117 -1.74402 0
M  V30 4737 H 474.046 -3.01312 -4.41718 0
M  V30 4738 H 474.389 -1.37117 -3.93071 0
M  V30 4739 H 474.922 -2.72212 -2.90078 0
M  V30 4740 H 471.661 -5.70102 -3.23518 0
M  V30 4741 H 471.181 -4.28442 -4.19758 0
M  V30 4742 H 472.86 -4.87628 -4.25239 0
M  V30 4743 N 472.992 0.995999 -1.22138 0
M  V30 4744 C 474.239 1.7351 -1.04406 0
M  V30 4745 C 474.567 1.89884 0.421244 0
M  V30 4746 O 473.822 1.43683 1.32867 0
M  V30 4747 C 474.121 3.14553 -1.6968 0
M  V30 4748 C 473.787 3.18102 -3.19565 0
M  V30 4749 C 472.449 3.18778 -3.60464 0
M  V30 4750 C 474.801 3.14636 -4.15516 0
M  V30 4751 C 472.129 3.13684 -4.95801 0
M  V30 4752 C 474.481 3.11084 -5.50826 0
M  V30 4753 C 473.145 3.10074 -5.91109 0
M  V30 4754 H 472.415 0.634916 -0.38205 0
M  V30 4755 H 475.062 1.1667 -1.51857 0
M  V30 4756 H 473.367 3.74682 -1.14546 0
M  V30 4757 H 475.064 3.70477 -1.53454 0
M  V30 4758 H 471.654 3.18324 -2.86998 0
M  V30 4759 H 475.838 3.13266 -3.84939 0
M  V30 4760 H 471.094 3.11245 -5.26247 0
M  V30 4761 H 475.268 3.07357 -6.24904 0
M  V30 4762 H 472.895 3.05882 -6.95946 0
M  V30 4763 N 474.47 1.03057 1.19235 0
M  V30 4764 C 475.4 0.633497 2.24742 0
M  V30 4765 C 476.381 -0.358335 1.66283 0
M  V30 4766 O 477.566 -0.240676 1.92703 0
M  V30 4767 C 474.696 -0.0147648 3.47297 0
M  V30 4768 C 473.65 0.899527 4.18441 0
M  V30 4769 C 472.976 0.116281 5.34574 0
M  V30 4770 C 474.276 2.21404 4.73051 0
M  V30 4771 H 475.97 1.5155 2.58211 0
M  V30 4772 H 473.516 0.73014 1.24117 0
M  V30 4773 H 475.469 -0.304202 4.20301 0
M  V30 4774 H 474.193 -0.931577 3.13032 0
M  V30 4775 H 472.852 1.17319 3.47321 0
M  V30 4776 H 472.5 -0.802619 4.96555 0
M  V30 4777 H 472.2 0.725293 5.83107 0
M  V30 4778 H 473.724 -0.166376 6.10373 0
M  V30 4779 H 475.138 1.98601 5.37802 0
M  V30 4780 H 473.535 2.77512 5.32078 0
M  V30 4781 H 474.605 2.86752 3.91026 0
M  V30 4782 N 475.948 -1.35272 0.808662 0
M  V30 4783 C 476.911 -2.28082 0.226093 0
M  V30 4784 C 477.911 -1.49673 -0.587762 0
M  V30 4785 O 479.101 -1.69404 -0.405943 0
M  V30 4786 C 476.233 -3.33955 -0.684596 0
M  V30 4787 H 477.426 -2.81116 1.04469 0
M  V30 4788 H 474.979 -1.45162 0.579466 0
M  V30 4789 H 475.714 -2.86111 -1.5268 0
M  V30 4790 H 475.499 -3.91965 -0.102699 0
M  V30 4791 H 476.989 -4.03219 -1.08646 0
M  V30 4792 N 477.426 -0.562348 -1.47226 0
M  V30 4793 C 478.374 0.195476 -2.31777 0
M  V30 4794 C 479.368 0.90433 -1.43242 0
M  V30 4795 O 480.574 0.825031 -1.59979 0
M  V30 4796 H 476.949 0.0819095 -0.747526 0
M  V30 4797 H 478.92 -0.536753 -2.93533 0
M  V30 4798 C 477.669 1.20902 -3.26003 0
M  V30 4799 H 476.992 0.672997 -3.94095 0
M  V30 4800 H 478.432 1.71006 -3.87986 0
M  V30 4801 C 476.891 2.25955 -2.49891 0
M  V30 4802 O 477.421 3.32969 -2.2471 0
M  V30 4803 N 475.627 2.00019 -2.1081 0
M  V30 4804 H 475.174 1.13006 -2.31489 0
M  V30 4805 H 475.132 2.70523 -1.60201 0
M  V30 4806 N 478.904 1.54736 -0.299062 0
M  V30 4807 C 480.129 2.04975 0.316254 0
M  V30 4808 C 480.554 1.17501 1.46885 0
M  V30 4809 O 479.912 0.178678 1.80417 0
M  V30 4810 C 479.96 3.52672 0.751997 0
M  V30 4811 O 479.064 3.68226 1.85697 0
M  V30 4812 H 478.405 0.661126 0.0617175 0
M  V30 4813 H 480.935 1.99805 -0.440341 0
M  V30 4814 H 480.945 3.94488 1.04133 0
M  V30 4815 H 479.62 4.158 -0.0911482 0
M  V30 4816 H 478.197 3.38316 1.56834 0
M  V30 4817 N 480.382 0.0267497 1.57577 0
M  V30 4818 C 481.628 -0.653371 1.91987 0
M  V30 4819 C 481.961 -1.71915 0.903263 0
M  V30 4820 O 481.236 -1.94358 -0.0743387 0
M  V30 4821 C 481.519 -1.272 3.36886 0
M  V30 4822 C 481.372 -0.215938 4.49281 0
M  V30 4823 C 482.691 -2.19069 3.81703 0
M  V30 4824 H 479.81 -0.236047 0.698177 0
M  V30 4825 H 482.452 0.0835236 1.89816 0
M  V30 4826 H 480.602 -1.90005 3.38866 0
M  V30 4827 H 482.274 0.41449 4.59434 0
M  V30 4828 H 480.517 0.458855 4.31366 0
M  V30 4829 H 481.188 -0.688347 5.47691 0
M  V30 4830 H 483.664 -1.66253 3.81444 0
M  V30 4831 H 482.54 -2.59307 4.83788 0
M  V30 4832 H 482.801 -3.08087 3.17072 0
M  V30 4833 N 481.861 -1.55662 -0.24637 0
M  V30 4834 C 482.793 -1.86811 -1.32794 0
M  V30 4835 C 483.806 -0.754413 -1.44265 0
M  V30 4836 O 484.995 -1.03253 -1.45606 0
M  V30 4837 C 482.095 -2.0397 -2.70646 0
M  V30 4838 C 481.268 -3.34832 -2.81436 0
M  V30 4839 C 480.327 -3.41727 -4.00136 0
M  V30 4840 O 479.353 -4.14934 -3.89639 0
M  V30 4841 N 480.555 -2.71058 -5.1333 0
M  V30 4842 H 483.32 -2.80174 -1.06409 0
M  V30 4843 H 480.881 -1.55906 -0.43647 0
M  V30 4844 H 482.873 -2.05924 -3.48393 0
M  V30 4845 H 481.443 -1.1735 -2.89738 0
M  V30 4846 H 480.663 -3.4519 -1.90361 0
M  V30 4847 H 481.951 -4.21085 -2.85595 0
M  V30 4848 H 481.349 -2.11314 -5.2475 0
M  V30 4849 H 479.906 -2.78704 -5.89209 0
M  V30 4850 N 483.339 0.512053 -1.4905 0
M  V30 4851 C 484.569 1.28928 -1.61434 0
M  V30 4852 C 484.977 1.87107 -0.280647 0
M  V30 4853 O 484.32 1.68024 0.742537 0
M  V30 4854 C 484.382 2.466 -2.61588 0
M  V30 4855 C 484.046 2.09375 -4.06216 0
M  V30 4856 C 485.043 1.63994 -4.93358 0
M  V30 4857 C 482.728 2.19348 -4.51876 0
M  V30 4858 C 484.722 1.29076 -6.24194 0
M  V30 4859 C 482.409 1.84041 -5.82728 0
M  V30 4860 C 483.407 1.38978 -6.68711 0
M  V30 4861 O 483.095 1.04144 -7.97126 0
M  V30 4862 H 482.827 0.397668 -0.546659 0
M  V30 4863 H 485.381 0.622507 -1.9574 0
M  V30 4864 H 483.611 3.16318 -2.22441 0
M  V30 4865 H 485.3 3.08642 -2.63619 0
M  V30 4866 H 486.066 1.55744 -4.59313 0
M  V30 4867 H 481.945 2.53376 -3.85125 0
M  V30 4868 H 485.489 0.938303 -6.91261 0
M  V30 4869 H 481.386 1.91938 -6.16304 0
M  V30 4870 H 482.154 1.17387 -8.10039 0
M  V30 4871 N 484.817 1.37938 0.762283 0
M  V30 4872 C 486.042 1.37059 1.55659 0
M  V30 4873 C 486.467 -0.0396123 1.88058 0
M  V30 4874 O 485.825 -1.01929 1.49934 0
M  V30 4875 C 485.873 2.22494 2.83776 0
M  V30 4876 O 484.977 1.63607 3.78559 0
M  V30 4877 H 484.318 0.467892 0.47114 0
M  V30 4878 H 486.848 1.81587 0.942725 0
M  V30 4879 H 486.858 2.36045 3.32786 0
M  V30 4880 H 485.533 3.24993 2.59524 0
M  V30 4881 H 484.11 1.5915 3.37233 0
M  V30 4882 N 486.295 -0.989507 1.22664 0
M  V30 4883 C 487.572 -1.70326 0.961688 0
M  V30 4884 C 487.952 -2.04537 -0.522279 0
M  V30 4885 O 487.3 -1.73136 -1.49118 0
M  V30 4886 C 487.51 -2.95135 1.86269 0
M  V30 4887 C 488.858 -3.67842 2.12078 0
M  V30 4888 O 489.882 -3.0515 1.83745 0
M  V30 4889 O 488.741 -4.80644 2.60083 0
M  V30 4890 H 485.835 -0.743589 0.361946 0
M  V30 4891 H 488.381 -1.04555 1.33665 0
M  V30 4892 H 487.153 -2.66382 2.8663 0
M  V30 4893 H 486.776 -3.68645 1.48952 0
M  V30 4894 N 487.773 -1.03688 -1.18687 0
M  V30 4895 C 489.02 -0.73803 -1.88572 0
M  V30 4896 C 489.348 0.733973 -1.8012 0
M  V30 4897 O 488.603 1.55098 -1.19344 0
M  V30 4898 C 488.902 -1.14477 -3.3857 0
M  V30 4899 C 488.568 -2.61641 -3.67226 0
M  V30 4900 C 487.23 -3.01846 -3.74757 0
M  V30 4901 C 489.582 -3.56812 -3.79914 0
M  V30 4902 C 486.91 -4.36118 -3.92451 0
M  V30 4903 C 489.262 -4.90799 -3.99123 0
M  V30 4904 C 487.926 -5.3068 -4.04888 0
M  V30 4905 H 487.196 -0.270064 -0.690034 0
M  V30 4906 H 489.843 -1.3012 -1.40503 0
M  V30 4907 H 488.148 -0.500337 -3.88592 0
M  V30 4908 H 489.845 -0.89095 -3.90977 0
M  V30 4909 H 486.435 -2.29498 -3.61979 0
M  V30 4910 H 490.619 -3.26899 -3.73431 0
M  V30 4911 H 485.875 -4.66542 -3.95157 0
M  V30 4912 H 490.049 -5.64451 -4.07882 0
M  V30 4913 H 487.676 -6.34733 -4.18351 0
M  V30 4914 N 489.251 1.34841 -0.815825 0
M  V30 4915 C 490.199 2.31549 -0.220888 0
M  V30 4916 C 491.193 1.5707 0.634457 0
M  V30 4917 O 492.399 1.72125 0.526589 0
M  V30 4918 H 488.774 0.750153 -0.0526782 0
M  V30 4919 H 490.745 2.7926 -1.05149 0
M  V30 4920 C 489.494 3.42335 0.608427 0
M  V30 4921 H 488.817 3.9978 -0.0404121 0
M  V30 4922 H 490.257 4.12258 0.990931 0
M  V30 4923 C 488.716 2.86173 1.77782 0
M  V30 4924 O 489.246 2.80474 2.87571 0
M  V30 4925 N 487.452 2.43093 1.59229 0
M  V30 4926 H 486.999 2.47928 0.699237 0
M  V30 4927 H 486.957 2.05866 2.37627 0
M  V30 4928 N 490.729 0.570148 1.46925 0
M  V30 4929 C 491.977 0.0508523 2.02036 0
M  V30 4930 C 492.298 -1.30885 1.44548 0
M  V30 4931 O 491.568 -1.85647 0.625453 0
M  V30 4932 H 490.148 0.0158088 0.746833 0
M  V30 4933 H 492.81 0.743086 1.80178 0
M  V30 4934 H 491.906 -0.027575 3.12088 0
M  V30 4935 N 492.207 -1.54576 0.307264 0
M  V30 4936 C 493.618 -1.8579 -0.184121 0
M  V30 4937 C 493.969 -1.22914 -1.52927 0
M  V30 4938 O 493.094 -0.529126 -2.09831 0
M  V30 4939 C 493.689 -3.37081 -0.340862 0
M  V30 4940 C 492.248 -3.68304 -0.776465 0
M  V30 4941 C 491.395 -2.77076 0.111503 0
M  V30 4942 H 494.346 -1.49656 0.528078 0
M  V30 4943 H 494.367 -3.61922 -1.17443 0
M  V30 4944 H 493.879 -3.82815 0.638309 0
M  V30 4945 H 491.98 -3.28092 -1.76596 0
M  V30 4946 H 492.093 -4.75434 -0.591512 0
M  V30 4947 H 490.457 -2.51374 -0.410256 0
M  V30 4948 H 491.24 -3.25632 1.08714 0
M  V30 4949 N 493.685 -0.035106 -1.57561 0
M  V30 4950 C 494.933 0.64096 -1.91667 0
M  V30 4951 C 495.254 1.72323 -0.912681 0
M  V30 4952 O 494.524 1.95849 0.0449089 0
M  V30 4953 H 493.104 0.239743 -0.707483 0
M  V30 4954 H 495.766 -0.084321 -1.94718 0
M  V30 4955 H 494.862 1.08987 -2.92452 0
M  V30 4956 N 495.163 1.55791 0.238111 0
M  V30 4957 C 496.073 1.94196 1.31625 0
M  V30 4958 C 497.089 0.843545 1.52185 0
M  V30 4959 O 498.265 1.1457 1.65637 0
M  V30 4960 C 495.33 2.2365 2.64918 0
M  V30 4961 C 494.391 3.46971 2.52804 0
M  V30 4962 C 493.624 3.7501 3.79741 0
M  V30 4963 O 493.847 3.04982 4.82019 0
M  V30 4964 O 492.781 4.68525 3.77846 0
M  V30 4965 H 496.607 2.86044 1.02043 0
M  V30 4966 H 494.192 1.42786 0.439603 0
M  V30 4967 H 496.074 2.43863 3.4367 0
M  V30 4968 H 494.749 1.34979 2.94215 0
M  V30 4969 H 493.656 3.32055 1.72309 0
M  V30 4970 H 494.989 4.35971 2.28451 0
M  V30 4971 N 496.642 -0.504142 1.49319 0
M  V30 4972 C 497.589 -1.60603 1.65756 0
M  V30 4973 C 498.559 -1.58425 0.499082 0
M  V30 4974 O 499.744 -1.76459 0.725728 0
M  V30 4975 C 496.884 -2.98764 1.72726 0
M  V30 4976 C 495.997 -3.10982 2.99857 0
M  V30 4977 C 495.132 -4.39857 2.97824 0
M  V30 4978 C 494.171 -4.45697 4.19548 0
M  V30 4979 N 493.308 -5.65995 4.15444 0
M  V30 4980 H 498.148 -1.45895 2.59843 0
M  V30 4981 H 495.685 -0.709891 1.28837 0
M  V30 4982 H 497.643 -3.78839 1.74747 0
M  V30 4983 H 496.273 -3.12183 0.821075 0
M  V30 4984 H 495.325 -2.23991 3.07461 0
M  V30 4985 H 496.637 -3.11157 3.89849 0
M  V30 4986 H 495.791 -5.2825 2.98391 0
M  V30 4987 H 494.53 -4.42242 2.05604 0
M  V30 4988 H 493.535 -3.55707 4.19229 0
M  V30 4989 H 494.76 -4.4503 5.12957 0
M  V30 4990 H 492.706 -5.69229 3.26059 0
M  V30 4991 H 492.623 -5.67773 4.99169 0
M  V30 4992 H 493.891 -6.56604 4.20109 0
M  V30 4993 N 498.12 -1.38341 -0.754957 0
M  V30 4994 C 499.345 -1.37882 -1.5493 0
M  V30 4995 C 499.77 0.0296385 -1.88077 0
M  V30 4996 O 499.128 1.01133 -1.50472 0
M  V30 4997 C 499.176 -2.23996 -2.82592 0
M  V30 4998 O 498.28 -1.65612 -3.77686 0
M  V30 4999 H 497.621 -0.470384 -0.468652 0
M  V30 5000 H 500.151 -1.82084 -0.933082 0
M  V30 5001 H 500.161 -2.37806 -3.3153 0
M  V30 5002 H 498.836 -3.26365 -2.57796 0
M  V30 5003 H 497.413 -1.60936 -3.36384 0
M  V30 5004 N 499.598 0.982988 -1.23187 0
M  V30 5005 C 500.844 1.7273 -1.07405 0
M  V30 5006 C 501.199 1.885 0.385447 0
M  V30 5007 O 500.492 1.4243 1.28157 0
M  V30 5008 C 500.686 3.12736 -1.73006 0
M  V30 5009 C 500.515 3.10621 -3.25184 0
M  V30 5010 C 499.285 3.15957 -3.94334 0
M  V30 5011 C 501.483 2.93992 -4.21987 0
M  V30 5012 N 499.465 3.03701 -5.33516 0
M  V30 5013 C 500.836 2.8987 -5.48065 0
M  V30 5014 C 502.891 2.78457 -4.12754 0
M  V30 5015 C 501.594 2.71804 -6.65969 0
M  V30 5016 C 503.62 2.61754 -5.30319 0
M  V30 5017 C 502.982 2.58328 -6.55321 0
M  V30 5018 H 499.081 0.641279 -0.447533 0
M  V30 5019 H 501.665 1.16664 -1.55877 0
M  V30 5020 H 499.836 3.67026 -1.2707 0
M  V30 5021 H 501.568 3.75786 -1.50224 0
M  V30 5022 H 498.323 3.24034 -3.45397 0
M  V30 5023 H 498.747 3.00855 -6.06478 0
M  V30 5024 H 503.389 2.79898 -3.16886 0
M  V30 5025 H 501.107 2.69108 -7.61975 0
M  V30 5026 H 504.693 2.50702 -5.25014 0
M  V30 5027 H 503.573 2.45564 -7.4476 0
M  V30 5028 N 501.076 1.04316 1.18135 0
M  V30 5029 C 502.008 0.594444 2.21357 0
M  V30 5030 C 503.021 -0.337215 1.59269 0
M  V30 5031 O 504.21 -0.131337 1.78016 0
M  V30 5032 C 501.31 -0.151251 3.38562 0
M  V30 5033 C 500.483 0.788907 4.30227 0
M  V30 5034 C 499.542 0.0860572 5.2613 0
M  V30 5035 O 498.568 0.717302 5.64662 0
M  V30 5036 N 499.77 -1.17969 5.68387 0
M  V30 5037 H 502.535 1.48227 2.60478 0
M  V30 5038 H 500.096 0.92396 1.32946 0
M  V30 5039 H 502.088 -0.631352 3.99745 0
M  V30 5040 H 500.658 -0.940639 2.98112 0
M  V30 5041 H 499.878 1.44882 3.6661 0
M  V30 5042 H 501.166 1.42738 4.88368 0
M  V30 5043 H 500.564 -1.71302 5.3914 0
M  V30 5044 H 499.121 -1.60402 6.31755 0
M  V30 5045 N 502.554 -1.34406 0.822964 0
M  V30 5046 C 503.517 -2.2783 0.250271 0
M  V30 5047 C 504.517 -1.50288 -0.571854 0
M  V30 5048 O 505.707 -1.69825 -0.387952 0
M  V30 5049 C 502.839 -3.34663 -0.649137 0
M  V30 5050 H 504.032 -2.79992 1.07444 0
M  V30 5051 H 501.585 -1.44539 0.594829 0
M  V30 5052 H 502.32 -2.87714 -1.49637 0
M  V30 5053 H 502.105 -3.92052 -0.0611199 0
M  V30 5054 H 503.595 -4.04349 -1.04363 0
M  V30 5055 N 504.032 -0.577932 -1.46621 0
M  V30 5056 C 505.448 -0.239242 -1.57797 0
M  V30 5057 C 505.648 1.25843 -1.57371 0
M  V30 5058 O 504.704 2.03988 -1.48813 0
M  V30 5059 C 506.017 -0.884227 -2.87405 0
M  V30 5060 C 507.565 -0.857373 -3.01028 0
M  V30 5061 C 508.04 -1.48181 -4.33366 0
M  V30 5062 N 509.531 -1.44593 -4.40053 0
M  V30 5063 C 510.266 -1.89852 -5.41058 0
M  V30 5064 N 509.762 -2.43062 -6.48762 0
M  V30 5065 N 511.555 -1.80797 -5.3223 0
M  V30 5066 H 503.706 -1.55073 -1.45142 0
M  V30 5067 H 505.969 -0.647903 -0.692044 0
M  V30 5068 H 505.675 -1.93759 -2.93514 0
M  V30 5069 H 505.549 -0.389585 -3.75183 0
M  V30 5070 H 507.936 0.187357 -2.94505 0
M  V30 5071 H 508.017 -1.38999 -2.14739 0
M  V30 5072 H 507.661 -2.52572 -4.40647 0
M  V30 5073 H 507.591 -0.924464 -5.18422 0
M  V30 5074 H 510.082 -1.05694 -3.62819 0
M  V30 5075 H 510.395 -2.75466 -7.22038 0
M  V30 5076 H 508.74 -2.47085 -6.49595 0
M  V30 5077 H 511.931 -1.38989 -4.46989 0
M  V30 5078 H 512.104 -2.16385 -6.10804 0
M  V30 5079 N 505.51 1.54411 -0.315457 0
M  V30 5080 C 506.74 2.04536 0.291315 0
M  V30 5081 C 507.148 1.19162 1.4696 0
M  V30 5082 O 506.491 0.213199 1.82459 0
M  V30 5083 C 506.553 3.5056 0.796725 0
M  V30 5084 C 506.217 4.5627 -0.258178 0
M  V30 5085 C 507.214 5.08312 -1.09153 0
M  V30 5086 C 504.899 5.00672 -0.404036 0
M  V30 5087 C 506.893 6.03312 -2.05655 0
M  V30 5088 C 504.58 5.95488 -1.37248 0
M  V30 5089 C 505.578 6.46693 -2.19721 0
M  V30 5090 O 505.266 7.39648 -3.14921 0
M  V30 5091 H 504.998 0.672856 0.0651165 0
M  V30 5092 H 507.552 2.00244 -0.457308 0
M  V30 5093 H 505.782 3.52223 1.59612 0
M  V30 5094 H 507.471 3.83804 1.32096 0
M  V30 5095 H 508.237 4.74793 -0.98979 0
M  V30 5096 H 504.116 4.60436 0.22799 0
M  V30 5097 H 507.66 6.43203 -2.70067 0
M  V30 5098 H 503.557 6.28424 -1.47489 0
M  V30 5099 H 504.325 7.57496 -3.10067 0
M  V30 5100 N 506.988 0.0434614 1.5754 0
M  V30 5101 C 508.265 -0.671479 1.83713 0
M  V30 5102 C 508.645 -1.89495 0.930315 0
M  V30 5103 O 507.993 -2.28498 -0.0105639 0
M  V30 5104 C 508.203 -1.0361 3.33266 0
M  V30 5105 C 509.551 -1.42167 4.00092 0
M  V30 5106 O 510.575 -1.12866 3.37846 0
M  V30 5107 O 509.434 -1.96817 5.09829 0
M  V30 5108 H 506.528 -0.330726 0.75799 0
M  V30 5109 H 509.074 0.0722373 1.69546 0
M  V30 5110 H 507.846 -0.165938 3.90948 0
M  V30 5111 H 507.469 -1.83751 3.52592 0
M  V30 5112 N 508.466 -1.55915 -0.229846 0
M  V30 5113 C 509.396 -1.94754 -1.28815 0
M  V30 5114 C 510.377 -0.814657 -1.49323 0
M  V30 5115 O 511.562 -1.07631 -1.61645 0
M  V30 5116 C 508.692 -2.25705 -2.63959 0
M  V30 5117 C 507.646 -3.41406 -2.5812 0
M  V30 5118 C 506.972 -3.57941 -3.97218 0
M  V30 5119 C 508.272 -4.76616 -2.13623 0
M  V30 5120 H 509.966 -2.83404 -0.965547 0
M  V30 5121 H 507.512 -1.36353 -0.463028 0
M  V30 5122 H 509.465 -2.51467 -3.38146 0
M  V30 5123 H 508.189 -1.339 -2.9789 0
M  V30 5124 H 506.848 -3.1568 -1.86391 0
M  V30 5125 H 506.496 -2.63526 -4.28443 0
M  V30 5126 H 506.196 -4.35757 -3.94195 0
M  V30 5127 H 507.72 -3.86042 -4.73079 0
M  V30 5128 H 509.134 -5.01637 -2.77549 0
M  V30 5129 H 507.531 -5.57655 -2.21677 0
M  V30 5130 H 508.601 -4.7253 -1.08829 0
M  V30 5131 N 509.944 0.496216 -1.49584 0
M  V30 5132 C 510.892 1.61805 -1.67098 0
M  V30 5133 C 511.886 1.60667 -0.536877 0
M  V30 5134 O 513.092 1.65118 -0.716654 0
M  V30 5135 H 509.467 0.53646 -0.526986 0
M  V30 5136 H 511.438 1.44187 -2.61252 0
M  V30 5137 C 510.187 2.99912 -1.75921 0
M  V30 5138 H 509.51 3.01496 -2.62565 0
M  V30 5139 H 510.95 3.77931 -1.92209 0
M  V30 5140 C 509.409 3.33092 -0.505088 0
M  V30 5141 O 509.939 4.00019 0.367085 0
M  V30 5142 N 508.145 2.88278 -0.366599 0
M  V30 5143 H 507.692 2.33989 -1.07735 0
M  V30 5144 H 507.65 3.10846 0.47142 0
M  V30 5145 N 511.423 1.38739 0.74761 0
M  V30 5146 C 512.353 1.39173 1.87492 0
M  V30 5147 C 513.334 0.256794 1.6815 0
M  V30 5148 O 514.519 0.460762 1.88655 0
M  V30 5149 C 511.649 1.22197 3.25093 0
M  V30 5150 C 510.603 2.32957 3.59047 0
M  V30 5151 C 509.929 2.01082 4.95449 0
M  V30 5152 C 511.229 3.75237 3.6331 0
M  V30 5153 H 512.923 2.3351 1.87386 0
M  V30 5154 H 510.469 1.12399 0.900134 0
M  V30 5155 H 512.422 1.21124 4.03617 0
M  V30 5156 H 511.146 0.243241 3.25693 0
M  V30 5157 H 509.805 2.33226 2.82845 0
M  V30 5158 H 509.453 1.01678 4.92616 0
M  V30 5159 H 509.153 2.75267 5.19136 0
M  V30 5160 H 510.677 2.01638 5.76346 0
M  V30 5161 H 512.091 3.76966 4.31937 0
M  V30 5162 H 510.488 4.48677 3.98509 0
M  V30 5163 H 511.558 4.07122 2.634 0
M  V30 5164 N 512.901 -0.976442 1.23707 0
M  V30 5165 C 513.864 -2.0511 1.02287 0
M  V30 5166 C 514.864 -1.60791 -0.0167195 0
M  V30 5167 O 516.054 -1.72761 0.223408 0
M  V30 5168 C 513.186 -3.36458 0.548507 0
M  V30 5169 H 514.379 -2.25545 1.9766 0
M  V30 5170 H 511.932 -1.15042 1.05806 0
M  V30 5171 H 512.667 -3.21713 -0.408818 0
M  V30 5172 H 512.452 -3.69967 1.29874 0
M  V30 5173 H 513.942 -4.15489 0.419406 0
M  V30 5174 N 514.379 -1.04941 -1.1758 0
M  V30 5175 C 515.604 -0.778253 -1.92245 0
M  V30 5176 C 516.029 0.659707 -1.76152 0
M  V30 5177 O 515.387 1.45803 -1.07755 0
M  V30 5178 C 515.435 -1.16051 -3.41416 0
M  V30 5179 O 514.539 -0.291153 -4.11371 0
M  V30 5180 H 513.88 -0.285619 -0.599431 0
M  V30 5181 H 516.41 -1.40159 -1.49052 0
M  V30 5182 H 516.42 -1.12619 -3.92149 0
M  V30 5183 H 515.095 -2.208 -3.52449 0
M  V30 5184 H 513.672 -0.385851 -3.70898 0
M  V30 5185 N 515.857 1.33968 -0.830081 0
M  V30 5186 C 517.087 2.01987 -0.434142 0
M  V30 5187 C 517.495 1.62639 0.96671 0
M  V30 5188 O 516.838 0.831151 1.63822 0
M  V30 5189 C 516.9 3.5648 -0.465018 0
M  V30 5190 C 516.564 4.19176 -1.82045 0
M  V30 5191 C 517.561 4.39181 -2.78237 0
M  V30 5192 C 515.246 4.55792 -2.11089 0
M  V30 5193 C 517.24 4.94937 -4.01642 0
M  V30 5194 C 514.927 5.11258 -3.34752 0
M  V30 5195 C 515.925 5.30775 -4.29845 0
M  V30 5196 O 515.613 5.85064 -5.51322 0
M  V30 5197 H 515.345 0.653847 -0.171639 0
M  V30 5198 H 517.899 1.72066 -1.12171 0
M  V30 5199 H 516.129 3.8569 0.279284 0
M  V30 5200 H 517.818 4.05804 -0.0881334 0
M  V30 5201 H 518.584 4.11249 -2.57097 0
M  V30 5202 H 514.463 4.39901 -1.3787 0
M  V30 5203 H 518.007 5.10086 -4.75876 0
M  V30 5204 H 513.904 5.38619 -3.55753 0
M  V30 5205 H 514.672 6.03489 -5.5294 0
M  V30 5206 N 517.335 0.585699 1.46312 0
M  V30 5207 C 518.583 0.072278 2.01971 0
M  V30 5208 C 518.904 -1.29345 1.45928 0
M  V30 5209 O 518.174 -1.84973 0.645109 0
M  V30 5210 H 516.754 0.023729 0.746623 0
M  V30 5211 H 519.416 0.762155 1.7938 0
M  V30 5212 H 518.512 0.00552767 3.121 0
M  V30 5213 N 518.813 -1.54241 0.323641 0
M  V30 5214 C 520.059 -2.00867 -0.279323 0
M  V30 5215 C 520.392 -1.21146 -1.5178 0
M  V30 5216 O 519.667 -0.29378 -1.92269 0
M  V30 5217 C 519.95 -3.54837 -0.613387 0
M  V30 5218 C 519.803 -4.45284 0.635803 0
M  V30 5219 C 521.122 -4.16186 -1.43099 0
M  V30 5220 H 518.241 -0.730177 -0.100049 0
M  V30 5221 H 520.883 -1.84829 0.440235 0
M  V30 5222 H 519.033 -3.68634 -1.22641 0
M  V30 5223 H 520.705 -4.43357 1.27406 0
M  V30 5224 H 518.948 -4.14956 1.26466 0
M  V30 5225 H 519.619 -5.5084 0.357597 0
M  V30 5226 H 522.095 -4.05964 -0.912814 0
M  V30 5227 H 520.971 -5.24031 -1.6335 0
M  V30 5228 H 521.232 -3.69516 -2.42715 0
M  V30 5229 N 520.291 -0.0518155 -1.57515 0
M  V30 5230 C 521.702 0.483787 -1.80323 0
M  V30 5231 C 522.053 1.70879 -0.964099 0
M  V30 5232 O 521.178 2.15643 -0.180872 0
M  V30 5233 C 521.773 0.884459 -3.27052 0
M  V30 5234 C 520.332 1.36504 -3.50776 0
M  V30 5235 C 519.479 0.340539 -2.75201 0
M  V30 5236 H 522.43 -0.277691 -1.56252 0
M  V30 5237 H 522.451 1.74733 -3.38007 0
M  V30 5238 H 521.963 -0.00731093 -3.88099 0
M  V30 5239 H 520.064 2.27598 -2.95009 0
M  V30 5240 H 520.177 1.35675 -4.59488 0
M  V30 5241 H 518.541 0.81356 -2.41357 0
M  V30 5242 H 519.324 -0.543156 -3.38976 0
M  V30 5243 N 521.769 1.56035 0.221574 0
M  V30 5244 C 523.017 1.78693 0.944102 0
M  V30 5245 C 523.338 0.620317 1.8487 0
M  V30 5246 O 522.608 -0.362784 1.92512 0
M  V30 5247 H 521.188 0.659082 0.351597 0
M  V30 5248 H 523.85 1.93497 0.233435 0
M  V30 5249 H 522.946 2.70837 1.55093 0
M  V30 5250 N 523.247 -0.488276 1.49845 0
M  V30 5251 C 524.177 -1.59675 1.70371 0
M  V30 5252 C 525.158 -1.60878 0.552473 0
M  V30 5253 O 526.343 -1.77417 0.78973 0
M  V30 5254 C 523.473 -2.98098 1.782 0
M  V30 5255 C 522.427 -3.11761 2.93239 0
M  V30 5256 C 521.753 -4.51661 2.86193 0
M  V30 5257 C 523.053 -2.90589 4.33999 0
M  V30 5258 H 524.747 -1.42752 2.63177 0
M  V30 5259 H 522.293 -0.685317 1.26647 0
M  V30 5260 H 524.246 -3.75555 1.91144 0
M  V30 5261 H 522.97 -3.16138 0.820018 0
M  V30 5262 H 521.629 -2.36732 2.79917 0
M  V30 5263 H 521.277 -4.66595 1.87877 0
M  V30 5264 H 520.977 -4.61742 3.63412 0
M  V30 5265 H 522.501 -5.31162 3.01163 0
M  V30 5266 H 523.915 -3.57807 4.47936 0
M  V30 5267 H 522.312 -3.1213 5.12538 0
M  V30 5268 H 523.382 -1.86595 4.4756 0
M  V30 5269 N 524.725 -1.39134 -0.740242 0
M  V30 5270 C 525.953 -1.39334 -1.5295 0
M  V30 5271 C 526.368 0.0135008 -1.88795 0
M  V30 5272 O 525.725 0.983524 -1.5373 0
M  V30 5273 C 525.776 -2.2614 -2.82034 0
M  V30 5274 O 525.497 -3.61345 -2.47712 0
M  V30 5275 C 526.998 -2.34666 -3.76094 0
M  V30 5276 H 524.218 -0.476103 -0.472828 0
M  V30 5277 H 526.762 -1.82883 -0.9151 0
M  V30 5278 H 524.917 -1.86018 -3.39818 0
M  V30 5279 H 525.331 -4.07194 -3.30595 0
M  V30 5280 H 526.805 -2.99663 -4.63579 0
M  V30 5281 H 527.282 -1.36426 -4.17474 0
M  V30 5282 H 527.888 -2.75236 -3.2423 0
M  V30 5283 N 526.204 0.969867 -1.24223 0
M  V30 5284 C 527.451 1.71256 -1.08063 0
M  V30 5285 C 527.779 1.90734 0.380872 0
M  V30 5286 O 527.034 1.46469 1.29789 0
M  V30 5287 C 527.333 3.10883 -1.76314 0
M  V30 5288 C 526.999 3.11252 -3.26241 0
M  V30 5289 C 525.661 3.1106 -3.67144 0
M  V30 5290 C 528.013 3.05751 -4.22097 0
M  V30 5291 C 525.341 3.03097 -5.02344 0
M  V30 5292 C 527.693 2.9933 -5.57301 0
M  V30 5293 C 526.357 2.97466 -5.97554 0
M  V30 5294 H 525.627 0.62667 -0.395431 0
M  V30 5295 H 528.274 1.13422 -1.54297 0
M  V30 5296 H 526.579 3.72168 -1.22468 0
M  V30 5297 H 528.276 3.67138 -1.61277 0
M  V30 5298 H 524.866 3.12165 -2.93685 0
M  V30 5299 H 529.05 3.05031 -3.91497 0
M  V30 5300 H 524.306 3.00013 -5.32731 0
M  V30 5301 H 528.48 2.94033 -6.31283 0
M  V30 5302 H 526.107 2.91051 -7.02277 0
M  V30 5303 N 527.682 1.05563 1.17022 0
M  V30 5304 C 528.615 0.604197 2.20056 0
M  V30 5305 C 529.593 -0.369169 1.58354 0
M  V30 5306 O 530.777 -0.279898 1.8641 0
M  V30 5307 C 527.904 -0.115265 3.38504 0
M  V30 5308 C 526.95 0.813698 4.18666 0
M  V30 5309 S 527.783 2.30492 4.83357 0
M  V30 5310 C 528.939 1.59674 6.0519 0
M  V30 5311 H 529.172 1.47713 2.58008 0
M  V30 5312 H 526.705 0.867932 1.27696 0
M  V30 5313 H 528.663 -0.524162 4.0714 0
M  V30 5314 H 527.324 -0.964284 2.98932 0
M  V30 5315 H 526.517 0.256736 5.03346 0
M  V30 5316 H 526.119 1.16213 3.55486 0
M  V30 5317 H 528.411 0.898164 6.7152 0
M  V30 5318 H 529.354 2.42115 6.65422 0
M  V30 5319 H 529.762 1.08252 5.54023 0
M  V30 5320 N 529.16 -1.33526 0.837174 0
M  V30 5321 C 530.406 -1.9813 0.432704 0
M  V30 5322 C 530.739 -1.66168 -1.00508 0
M  V30 5323 O 530.014 -0.94069 -1.70239 0
M  V30 5324 C 530.297 -3.54151 0.651834 0
M  V30 5325 C 530.15 -3.95806 2.13676 0
M  V30 5326 C 531.469 -4.39993 0.0968937 0
M  V30 5327 H 528.588 -0.719713 0.15869 0
M  V30 5328 H 531.23 -1.58193 1.05237 0
M  V30 5329 H 529.38 -3.88301 0.124369 0
M  V30 5330 H 531.052 -3.71921 2.72896 0
M  V30 5331 H 529.295 -3.45599 2.62191 0
M  V30 5332 H 529.966 -5.0447 2.24084 0
M  V30 5333 H 532.442 -4.12479 0.547733 0
M  V30 5334 H 531.318 -5.48186 0.279917 0
M  V30 5335 H 531.579 -4.3066 -0.9992 0
M  V30 5336 N 530.638 -0.59345 -1.46 0
M  V30 5337 C 532.054 -0.255965 -1.57534 0
M  V30 5338 C 532.254 1.24167 -1.58697 0
M  V30 5339 O 531.31 2.02398 -1.50968 0
M  V30 5340 C 532.623 -0.91466 -2.86451 0
M  V30 5341 C 534.171 -0.889253 -3.00102 0
M  V30 5342 C 534.646 -1.52769 -4.3177 0
M  V30 5343 N 536.137 -1.49253 -4.38495 0
M  V30 5344 C 536.872 -1.9558 -5.39014 0
M  V30 5345 N 536.368 -2.49929 -6.46148 0
M  V30 5346 N 538.161 -1.86432 -5.30282 0
M  V30 5347 H 530.312 -1.56604 -1.43489 0
M  V30 5348 H 532.575 -0.655207 -0.685133 0
M  V30 5349 H 532.281 -1.96861 -2.91442 0
M  V30 5350 H 532.155 -0.429356 -3.74748 0
M  V30 5351 H 534.542 0.156111 -2.94687 0
M  V30 5352 H 534.623 -1.41268 -2.13253 0
M  V30 5353 H 534.267 -2.57231 -4.37944 0
M  V30 5354 H 534.197 -0.979398 -5.17412 0
M  V30 5355 H 536.688 -1.09536 -3.61677 0
M  V30 5356 H 537.001 -2.83109 -7.19075 0
M  V30 5357 H 535.346 -2.53961 -6.46938 0
M  V30 5358 H 538.537 -1.43722 -4.4549 0
M  V30 5359 H 538.71 -2.22852 -6.08474 0
M  V30 5360 N 532.116 1.54067 -0.331816 0
M  V30 5361 C 533.346 2.04833 0.269605 0
M  V30 5362 C 533.754 1.20714 1.45687 0
M  V30 5363 O 533.097 0.232539 1.82222 0
M  V30 5364 C 533.159 3.51386 0.759499 0
M  V30 5365 C 532.823 4.55971 -0.306557 0
M  V30 5366 C 533.82 5.07126 -1.14538 0
M  V30 5367 C 531.505 5.00216 -0.457116 0
M  V30 5368 C 533.499 6.01096 -2.12042 0
M  V30 5369 C 531.186 5.93999 -1.43556 0
M  V30 5370 C 532.184 6.44326 -2.26568 0
M  V30 5371 O 531.872 7.36267 -3.22749 0
M  V30 5372 H 531.604 0.673509 0.0579763 0
M  V30 5373 H 534.158 1.99748 -0.478521 0
M  V30 5374 H 532.388 3.53896 1.55867 0
M  V30 5375 H 534.077 3.85184 1.28017 0
M  V30 5376 H 534.843 4.73716 -1.04009 0
M  V30 5377 H 530.722 4.60652 0.179142 0
M  V30 5378 H 534.266 6.40302 -2.76873 0
M  V30 5379 H 530.163 6.26825 -1.54146 0
M  V30 5380 H 530.931 7.54165 -3.18083 0
M  V30 5381 N 533.594 0.0601682 1.57485 0
M  V30 5382 C 534.843 -0.611101 1.9222 0
M  V30 5383 C 535.156 -1.71469 0.941159 0
M  V30 5384 O 536.362 -2.44473 1.18089 0
M  V30 5385 C 534.818 -1.13832 3.41424 0
M  V30 5386 C 534.426 -0.0663596 4.47951 0
M  V30 5387 C 536.17 -1.78432 3.85178 0
M  V30 5388 C 534.077 -0.606965 5.88277 0
M  V30 5389 H 533.007 -0.232033 0.71741 0
M  V30 5390 H 535.658 0.130518 1.83035 0
M  V30 5391 H 534.04 -1.93254 3.45643 0
M  V30 5392 H 535.214 0.707682 4.55333 0
M  V30 5393 H 533.529 0.482715 4.13593 0
M  V30 5394 H 536.126 -2.1989 4.87394 0
M  V30 5395 H 536.469 -2.63966 3.21913 0
M  V30 5396 H 537.002 -1.05651 3.83514 0
M  V30 5397 H 533.741 0.21095 6.5516 0
M  V30 5398 H 533.261 -1.34879 5.84438 0
M  V30 5399 H 534.94 -1.08704 6.37803 0
M  V30 5400 N 535.072 -1.5615 -0.213296 0
M  V30 5401 C 536.02 -1.93953 -1.28394 0
M  V30 5402 C 537.014 -0.822592 -1.48087 0
M  V30 5403 O 538.22 -1.00748 -1.49164 0
M  V30 5404 H 534.595 -0.61648 -0.430646 0
M  V30 5405 H 536.566 -2.83275 -0.937977 0
M  V30 5406 C 535.315 -2.27969 -2.62537 0
M  V30 5407 H 534.638 -3.13432 -2.48194 0
M  V30 5408 H 536.078 -2.58297 -3.36242 0
M  V30 5409 C 534.537 -1.10775 -3.18167 0
M  V30 5410 O 535.067 -0.373201 -3.99963 0
M  V30 5411 N 533.273 -0.889377 -2.76656 0
M  V30 5412 H 532.82 -1.48843 -2.10246 0
M  V30 5413 H 532.778 -0.107 -3.14218 0
M  V30 5414 N 536.55 0.480323 -1.50102 0
M  V30 5415 C 537.798 1.23063 -1.60312 0
M  V30 5416 C 538.119 1.92659 -0.301226 0
M  V30 5417 O 537.389 1.83691 0.680753 0
M  V30 5418 H 535.969 0.457231 -0.590719 0
M  V30 5419 H 538.631 0.554893 -1.86834 0
M  V30 5420 H 537.727 1.9835 -2.40964 0
M  V30 5421 N 538.028 1.39524 0.732853 0
M  V30 5422 C 538.975 1.38416 1.84688 0
M  V30 5423 C 539.945 0.243539 1.64305 0
M  V30 5424 O 541.13 0.438979 1.85681 0
M  V30 5425 C 538.27 1.23555 3.22224 0
M  V30 5426 C 537.383 2.47179 3.54298 0
M  V30 5427 C 536.518 2.2489 4.81246 0
M  V30 5428 C 535.557 3.44178 5.0617 0
M  V30 5429 N 534.694 3.21192 6.24323 0
M  V30 5430 H 539.534 2.33645 1.84971 0
M  V30 5431 H 537.071 1.16059 0.903804 0
M  V30 5432 H 539.029 1.12949 4.0162 0
M  V30 5433 H 537.659 0.31954 3.21215 0
M  V30 5434 H 536.711 2.68379 2.69587 0
M  V30 5435 H 538.023 3.36022 3.68633 0
M  V30 5436 H 537.177 2.11538 5.68627 0
M  V30 5437 H 535.916 1.33443 4.69089 0
M  V30 5438 H 534.921 3.58025 4.17251 0
M  V30 5439 H 536.146 4.36528 5.20212 0
M  V30 5440 H 534.092 2.32413 6.1345 0
M  V30 5441 H 534.009 4.03594 6.39256 0
M  V30 5442 H 535.277 3.1154 7.14537 0
M  V30 5443 N 539.506 -0.963266 1.24736 0
M  V30 5444 C 540.783 -1.68248 0.9976 0
M  V30 5445 C 541.163 -2.05599 -0.478776 0
M  V30 5446 O 540.511 -1.7626 -1.45412 0
M  V30 5447 C 540.721 -2.91118 1.92487 0
M  V30 5448 C 542.069 -3.63261 2.19833 0
M  V30 5449 O 543.093 -3.01184 1.90176 0
M  V30 5450 O 541.952 -4.75019 2.7022 0
M  V30 5451 H 539.046 -0.735744 0.377637 0
M  V30 5452 H 541.592 -1.01696 1.35853 0
M  V30 5453 H 540.364 -2.60242 2.92215 0
M  V30 5454 H 539.987 -3.65402 1.56738 0
M  V30 5455 N 540.985 -1.06182 -1.16461 0
M  V30 5456 C 542.234 -0.772927 -1.86303 0
M  V30 5457 C 542.547 0.703187 -1.82523 0
M  V30 5458 O 543.753 1.10641 -2.47933 0
M  V30 5459 C 542.209 -1.33249 -3.34324 0
M  V30 5460 C 541.817 -2.83876 -3.46581 0
M  V30 5461 C 543.561 -1.12108 -4.09429 0
M  V30 5462 C 541.468 -3.33082 -4.88682 0
M  V30 5463 H 540.398 -0.285452 -0.697878 0
M  V30 5464 H 543.049 -1.28039 -1.31447 0
M  V30 5465 H 541.431 -0.7528 -3.88779 0
M  V30 5466 H 542.605 -3.47786 -3.02293 0
M  V30 5467 H 540.92 -3.03671 -2.84909 0
M  V30 5468 H 543.517 -1.46361 -5.14279 0
M  V30 5469 H 543.86 -0.0593832 -4.16258 0
M  V30 5470 H 544.393 -1.6665 -3.6121 0
M  V30 5471 H 541.132 -4.38726 -4.87032 0
M  V30 5472 H 540.652 -2.73919 -5.33599 0
M  V30 5473 H 542.331 -3.28344 -5.57494 0
M  V30 5474 N 542.463 1.3308 -0.844243 0
M  V30 5475 C 543.74 1.92178 -0.364261 0
M  V30 5476 C 544.12 1.76961 1.15101 0
M  V30 5477 O 543.468 1.16128 1.9679 0
M  V30 5478 C 543.678 3.393 -0.817106 0
M  V30 5479 C 545.026 4.16444 -0.828236 0
M  V30 5480 O 546.05 3.47975 -0.761062 0
M  V30 5481 O 544.909 5.38685 -0.920926 0
M  V30 5482 H 542.003 0.820411 -0.10419 0
M  V30 5483 H 544.549 1.41918 -0.930453 0
M  V30 5484 H 543.321 3.44272 -1.85991 0
M  V30 5485 H 542.944 3.96947 -0.227785 0
M  V30 5486 N 543.941 0.601185 1.45683 0
M  V30 5487 C 545.189 0.0936957 2.01883 0
M  V30 5488 C 545.51 -1.2779 1.47291 0
M  V30 5489 O 544.78 -1.84279 0.664691 0
M  V30 5490 H 543.36 0.0316466 0.746329 0
M  V30 5491 H 546.022 0.781137 1.78562 0
M  V30 5492 H 545.118 0.0386297 3.12076 0
M  V30 5493 N 545.419 -1.53889 0.339982 0
M  V30 5494 C 546.647 -2.05271 -0.259114 0
M  V30 5495 C 547.062 -1.21517 -1.44496 0
M  V30 5496 O 546.419 -0.24966 -1.80784 0
M  V30 5497 C 546.47 -3.55092 -0.677634 0
M  V30 5498 O 546.191 -4.35667 0.461051 0
M  V30 5499 C 547.692 -4.22631 -1.33782 0
M  V30 5500 H 544.912 -0.669085 -0.0506566 0
M  V30 5501 H 547.456 -1.9852 0.490935 0
M  V30 5502 H 545.611 -3.62077 -1.37763 0
M  V30 5503 H 546.025 -5.24343 0.128144 0
M  V30 5504 H 547.499 -5.28861 -1.58145 0
M  V30 5505 H 547.976 -3.74758 -2.29027 0
M  V30 5506 H 548.582 -4.19829 -0.679957 0
M  V30 5507 N 546.897 -0.0685191 -1.57451 0
M  V30 5508 C 547.844 0.899861 -2.12535 0
M  V30 5509 C 548.814 1.29749 -1.03703 0
M  V30 5510 O 549.999 1.38392 -1.31348 0
M  V30 5511 C 547.139 2.16328 -2.6888 0
M  V30 5512 C 546.252 1.81857 -3.91857 0
M  V30 5513 C 545.387 3.02786 -4.36457 0
M  V30 5514 C 544.426 2.64317 -5.5209 0
M  V30 5515 N 543.563 3.77994 -5.91663 0
M  V30 5516 H 548.403 0.423243 -2.94979 0
M  V30 5517 H 545.94 0.197268 -1.45771 0
M  V30 5518 H 547.898 2.90281 -2.99655 0
M  V30 5519 H 546.528 2.61536 -1.89206 0
M  V30 5520 H 545.58 0.979808 -3.67565 0
M  V30 5521 H 546.892 1.49553 -4.75852 0
M  V30 5522 H 546.046 3.85021 -4.68875 0
M  V30 5523 H 544.785 3.38281 -3.51308 0
M  V30 5524 H 543.79 1.80503 -5.19325 0
M  V30 5525 H 545.015 2.29995 -6.38967 0
M  V30 5526 H 542.961 4.13258 -5.09464 0
M  V30 5527 H 542.878 3.49447 -6.7039 0
M  V30 5528 H 544.146 4.60818 -6.28703 0
M  V30 5529 N 548.375 1.56261 0.205012 0
M  V30 5530 C 549.308 1.88797 1.28183 0
M  V30 5531 C 550.286 0.747018 1.44424 0
M  V30 5532 O 551.47 0.997039 1.59973 0
M  V30 5533 C 548.597 2.10949 2.64987 0
M  V30 5534 C 547.643 3.33649 2.6567 0
M  V30 5535 S 548.476 4.89078 2.18088 0
M  V30 5536 C 549.632 5.14286 3.56736 0
M  V30 5537 H 549.865 2.79837 1.00393 0
M  V30 5538 H 547.398 1.48911 0.408042 0
M  V30 5539 H 549.356 2.24395 3.4374 0
M  V30 5540 H 548.017 1.20678 2.89993 0
M  V30 5541 H 547.21 3.46245 3.66239 0
M  V30 5542 H 546.812 3.19146 1.94992 0
M  V30 5543 H 549.104 5.04198 4.52537 0
M  V30 5544 H 550.047 6.16096 3.49043 0
M  V30 5545 H 550.455 4.41957 3.51189 0
M  V30 5546 N 549.853 -0.472356 1.50355 0
M  V30 5547 C 551.078 -1.25251 1.65309 0
M  V30 5548 C 551.503 -1.85081 0.335643 0
M  V30 5549 O 550.861 -1.67227 -0.700335 0
M  V30 5550 C 550.909 -2.3379 2.74544 0
M  V30 5551 O 550.013 -3.38401 2.35709 0
M  V30 5552 H 549.354 -0.368539 0.552336 0
M  V30 5553 H 551.884 -0.562271 1.96722 0
M  V30 5554 H 551.894 -2.79121 2.97583 0
M  V30 5555 H 550.569 -1.89614 3.70161 0
M  V30 5556 H 549.146 -2.9879 2.23112 0
M  V30 5557 N 551.331 -1.39911 -0.725443 0
M  V30 5558 C 552.608 -1.28158 -1.47766 0
M  V30 5559 C 552.988 0.104545 -2.10841 0
M  V30 5560 O 552.336 1.11657 -1.99361 0
M  V30 5561 C 552.546 -2.41306 -2.52135 0
M  V30 5562 C 553.894 -2.81076 -3.18247 0
M  V30 5563 O 554.918 -2.40827 -2.62452 0
M  V30 5564 O 553.777 -3.50581 -4.19231 0
M  V30 5565 H 550.871 -0.502761 -0.656628 0
M  V30 5566 H 553.417 -1.51808 -0.758456 0
M  V30 5567 H 552.189 -3.33932 -2.03974 0
M  V30 5568 H 551.812 -2.19374 -3.31603 0
M  V30 5569 N 552.809 0.956637 -1.25245 0
M  V30 5570 C 553.757 2.0743 -1.0524 0
M  V30 5571 C 554.751 1.69392 0.0160725 0
M  V30 5572 O 555.957 1.7946 -0.139382 0
M  V30 5573 H 552.332 0.678921 -0.323373 0
M  V30 5574 H 554.303 2.2146 -1.99995 0
M  V30 5575 C 553.052 3.40872 -0.685702 0
M  V30 5576 H 552.375 3.70607 -1.49968 0
M  V30 5577 H 553.815 4.19939 -0.585415 0
M  V30 5578 C 552.274 3.31367 0.608082 0
M  V30 5579 O 552.804 3.66214 1.65076 0
M  V30 5580 N 551.01 2.84486 0.592955 0
M  V30 5581 H 550.557 2.56326 -0.25592 0
M  V30 5582 H 550.515 2.78509 1.45877 0
M  V30 5583 N 554.287 1.06798 1.15896 0
M  V30 5584 C 555.235 0.677525 2.22514 0
M  V30 5585 C 556.229 -0.308994 1.66558 0
M  V30 5586 O 557.435 -0.173308 1.79164 0
M  V30 5587 H 553.81 0.200994 0.724642 0
M  V30 5588 H 555.781 1.5865 2.52731 0
M  V30 5589 C 554.53 0.0854153 3.47595 0
M  V30 5590 H 553.853 0.835645 3.90969 0
M  V30 5591 H 555.293 -0.150199 4.23734 0
M  V30 5592 C 553.752 -1.1724 3.15843 0
M  V30 5593 O 554.282 -2.25965 3.32119 0
M  V30 5594 N 552.488 -1.07636 2.69931 0
M  V30 5595 H 552.035 -0.191559 2.56887 0
M  V30 5596 H 551.993 -1.91876 2.4906 0
M  V30 5597 N 555.766 -1.3263 0.851289 0
M  V30 5598 C 557.012 -1.9766 0.453694 0
M  V30 5599 C 557.345 -1.67225 -0.987396 0
M  V30 5600 O 556.62 -0.958693 -1.69232 0
M  V30 5601 C 556.903 -3.5344 0.68936 0
M  V30 5602 C 556.756 -3.93517 2.17862 0
M  V30 5603 C 558.075 -4.39866 0.143555 0
M  V30 5604 H 555.194 -0.717989 0.166314 0
M  V30 5605 H 557.836 -1.57068 1.06909 0
M  V30 5606 H 555.986 -3.88147 0.165546 0
M  V30 5607 H 557.658 -3.69006 2.76826 0
M  V30 5608 H 555.901 -3.42798 2.65841 0
M  V30 5609 H 556.572 -5.02065 2.29422 0
M  V30 5610 H 559.048 -4.11875 0.591451 0
M  V30 5611 H 557.924 -5.47858 0.338043 0
M  V30 5612 H 558.185 -4.31696 -0.953466 0
M  V30 5613 N 557.244 -0.608902 -1.45362 0
M  V30 5614 C 558.492 -0.104401 -2.0183 0
M  V30 5615 C 558.813 1.27007 -1.47967 0
M  V30 5616 O 558.083 1.83924 -0.674455 0
M  V30 5617 H 556.663 -0.0356042 -0.746151 0
M  V30 5618 H 559.325 -0.790596 -1.78145 0
M  V30 5619 H 558.421 -0.0551793 -3.12051 0
M  V30 5620 N 558.722 1.53707 -0.348139 0
M  V30 5621 C 559.952 2.05108 0.247864 0
M  V30 5622 C 560.36 1.22252 1.44399 0
M  V30 5623 O 559.703 0.251853 1.81965 0
M  V30 5624 C 559.765 3.52171 0.722187 0
M  V30 5625 C 559.429 4.5562 -0.354902 0
M  V30 5626 C 560.426 5.05883 -1.19911 0
M  V30 5627 C 558.111 4.99703 -0.510145 0
M  V30 5628 C 560.105 5.98814 -2.18406 0
M  V30 5629 C 557.792 5.92443 -1.49848 0
M  V30 5630 C 558.79 6.41887 -2.33389 0
M  V30 5631 O 558.478 7.32802 -3.3054 0
M  V30 5632 H 558.21 0.674086 0.0508296 0
M  V30 5633 H 560.764 1.99229 -0.49968 0
M  V30 5634 H 558.994 3.55529 1.52105 0
M  V30 5635 H 560.683 3.8652 1.23925 0
M  V30 5636 H 561.449 4.72586 -1.09028 0
M  V30 5637 H 557.328 4.60816 0.130274 0
M  V30 5638 H 560.872 6.3733 -2.83649 0
M  V30 5639 H 556.769 6.25155 -1.60786 0
M  V30 5640 H 557.537 7.50749 -3.26064 0
M  V30 5641 N 560.2 0.0768682 1.57412 0
M  V30 5642 C 561.147 -0.888577 2.13009 0
M  V30 5643 C 562.117 -1.29198 1.0439 0
M  V30 5644 O 563.302 -1.37694 1.3208 0
M  V30 5645 C 560.442 -2.14899 2.70023 0
M  V30 5646 C 559.555 -1.79777 3.92816 0
M  V30 5647 C 558.69 -3.00467 4.38056 0
M  V30 5648 C 557.729 -2.61385 5.53484 0
M  V30 5649 N 556.866 -3.74851 5.93659 0
M  V30 5650 H 561.706 -0.407593 2.95199 0
M  V30 5651 H 559.243 -0.189534 1.45874 0
M  V30 5652 H 561.201 -2.88688 3.0119 0
M  V30 5653 H 559.831 -2.60529 1.9059 0
M  V30 5654 H 558.883 -0.960301 3.68079 0
M  V30 5655 H 560.195 -1.47027 4.76639 0
M  V30 5656 H 559.349 -3.82529 4.7091 0
M  V30 5657 H 558.088 -3.36413 3.53097 0
M  V30 5658 H 557.093 -1.77746 5.20275 0
M  V30 5659 H 558.318 -2.26603 6.40178 0
M  V30 5660 H 556.264 -4.1055 5.11649 0
M  V30 5661 H 556.181 -3.45887 6.72234 0
M  V30 5662 H 557.449 -4.57477 6.31138 0
M  V30 5663 N 561.678 -1.56367 -0.196722 0
M  V30 5664 C 562.626 -1.95304 -1.2633 0
M  V30 5665 C 563.62 -0.838252 -1.47206 0
M  V30 5666 O 564.826 -1.02325 -1.48087 0
M  V30 5667 H 561.201 -0.621013 -0.424083 0
M  V30 5668 H 563.172 -2.84254 -0.907879 0
M  V30 5669 C 561.921 -2.3074 -2.60104 0
M  V30 5670 H 561.244 -3.16047 -2.44856 0
M  V30 5671 H 562.684 -2.61849 -3.33484 0
M  V30 5672 C 561.143 -1.14143 -3.16975 0
M  V30 5673 O 561.673 -0.415602 -3.99544 0
M  V30 5674 N 559.879 -0.91867 -2.75697 0
M  V30 5675 H 559.426 -1.51065 -2.08656 0
M  V30 5676 H 559.384 -0.140321 -3.14087 0
M  V30 5677 N 563.156 0.464375 -1.50603 0
M  V30 5678 C 564.386 1.23727 -1.65454 0
M  V30 5679 C 564.794 1.86119 -0.340032 0
M  V30 5680 O 564.137 1.70301 0.688706 0
M  V30 5681 C 564.199 2.38153 -2.69301 0
M  V30 5682 C 563.863 1.96345 -4.12671 0
M  V30 5683 C 564.86 1.48215 -4.98326 0
M  V30 5684 C 562.545 2.04861 -4.58625 0
M  V30 5685 C 564.539 1.09152 -6.27985 0
M  V30 5686 C 562.226 1.65409 -5.88288 0
M  V30 5687 C 563.224 1.17634 -6.72794 0
M  V30 5688 O 562.912 0.787312 -8.00035 0
M  V30 5689 H 562.644 0.380075 -0.559034 0
M  V30 5690 H 565.198 0.559919 -1.97621 0
M  V30 5691 H 563.428 3.09081 -2.32392 0
M  V30 5692 H 565.117 3.00099 -2.73304 0
M  V30 5693 H 565.883 1.41052 -4.64036 0
M  V30 5694 H 561.762 2.40996 -3.92991 0
M  V30 5695 H 565.306 0.717909 -6.93896 0
M  V30 5696 H 561.203 1.72233 -6.22098 0
M  V30 5697 H 561.971 0.915567 -8.13363 0
M  V30 5698 N 564.634 1.40294 0.718013 0
M  V30 5699 C 565.882 1.38167 1.47494 0
M  V30 5700 C 566.203 -0.01607 1.94993 0
M  V30 5701 O 565.473 -0.970396 1.70177 0
M  V30 5702 H 564.053 0.508505 0.547203 0
M  V30 5703 H 566.715 1.75324 0.851322 0
M  V30 5704 H 565.811 2.05503 2.34894 0
M  V30 5705 N 566.112 -0.949982 1.2575 0
M  V30 5706 C 567.342 -1.72721 1.13363 0
M  V30 5707 C 567.75 -1.86562 -0.314842 0
M  V30 5708 O 567.093 -1.36621 -1.22803 0
M  V30 5709 C 567.155 -3.15695 1.7198 0
M  V30 5710 C 566.819 -3.25268 3.21014 0
M  V30 5711 C 567.816 -3.09222 4.17945 0
M  V30 5712 C 565.501 -3.4894 3.61312 0
M  V30 5713 C 567.495 -3.16701 5.53154 0
M  V30 5714 C 565.182 -3.56055 4.96657 0
M  V30 5715 C 566.18 -3.3995 5.92387 0
M  V30 5716 O 565.868 -3.46757 7.25269 0
M  V30 5717 H 565.6 -0.547888 0.395973 0
M  V30 5718 H 568.154 -1.20009 1.66694 0
M  V30 5719 H 566.384 -3.69791 1.13101 0
M  V30 5720 H 568.073 -3.75295 1.54624 0
M  V30 5721 H 568.839 -2.90798 3.88151 0
M  V30 5722 H 564.718 -3.60534 2.87291 0
M  V30 5723 H 568.262 -3.04048 6.27854 0
M  V30 5724 H 564.159 -3.73997 5.26115 0
M  V30 5725 H 564.927 -3.63358 7.33426 0
M  V30 5726 N 567.59 -1.07411 -1.15328 0
M  V30 5727 C 568.838 -0.796073 -1.85761 0
M  V30 5728 C 569.159 0.679864 -1.82764 0
M  V30 5729 O 568.429 1.49242 -1.269 0
M  V30 5730 H 567.009 -0.291495 -0.687779 0
M  V30 5731 H 569.671 -1.35799 -1.39802 0
M  V30 5732 H 568.767 -1.13114 -2.90881 0
M  V30 5733 N 569.068 1.32177 -0.85831 0
M  V30 5734 C 569.978 2.32561 -0.308606 0
M  V30 5735 C 570.994 1.64209 0.575462 0
M  V30 5736 O 572.17 1.95719 0.474961 0
M  V30 5737 C 569.235 3.43207 0.490909 0
M  V30 5738 C 568.296 4.27243 -0.419733 0
M  V30 5739 C 567.529 5.32605 0.341719 0
M  V30 5740 O 567.752 5.48332 1.57125 0
M  V30 5741 O 566.686 6.0118 -0.294379 0
M  V30 5742 H 570.512 2.81477 -1.14037 0
M  V30 5743 H 568.097 1.35866 -0.621349 0
M  V30 5744 H 569.979 4.10677 0.944574 0
M  V30 5745 H 568.654 2.96474 1.29941 0
M  V30 5746 H 567.561 3.62569 -0.921652 0
M  V30 5747 H 568.894 4.7751 -1.19352 0
M  V30 5748 N 570.547 0.616602 1.45037 0
M  V30 5749 C 571.824 0.0469086 1.95544 0
M  V30 5750 C 572.204 -1.42345 1.55888 0
M  V30 5751 O 571.552 -2.13055 0.825824 0
M  V30 5752 C 571.762 0.254489 3.48071 0
M  V30 5753 C 573.11 0.140025 4.24369 0
M  V30 5754 O 574.134 0.185084 3.55719 0
M  V30 5755 O 572.993 0.0327034 5.4649 0
M  V30 5756 H 570.087 -0.0306051 0.826433 0
M  V30 5757 H 572.633 0.687293 1.55159 0
M  V30 5758 H 571.405 1.27532 3.69934 0
M  V30 5759 H 571.028 -0.42073 3.95368 0
M  V30 5760 N 572.025 -1.5352 0.356285 0
M  V30 5761 C 573.273 -2.00719 -0.235837 0
M  V30 5762 C 573.594 -1.24551 -1.5004 0
M  V30 5763 O 572.864 -0.356185 -1.92635 0
M  V30 5764 H 571.444 -0.741542 -0.0901366 0
M  V30 5765 H 574.106 -1.88887 0.480378 0
M  V30 5766 H 573.202 -3.08551 -0.469357 0
M  V30 5767 N 573.503 -0.0852151 -1.57369 0
M  V30 5768 C 574.45 0.877268 -2.13478 0
M  V30 5769 C 575.42 1.28642 -1.05073 0
M  V30 5770 O 576.605 1.36992 -1.32808 0
M  V30 5771 C 573.745 2.13464 -2.71159 0
M  V30 5772 C 572.858 1.77691 -3.93764 0
M  V30 5773 C 571.993 2.98139 -4.39643 0
M  V30 5774 C 571.032 2.58447 -5.54862 0
M  V30 5775 N 570.169 3.71698 -5.95639 0
M  V30 5776 H 575.009 0.391933 -2.95411 0
M  V30 5777 H 572.546 0.181796 -1.45972 0
M  V30 5778 H 574.504 2.87086 -3.02717 0
M  V30 5779 H 573.134 2.59514 -1.91969 0
M  V30 5780 H 572.186 0.940768 -3.68583 0
M  V30 5781 H 573.498 1.44497 -4.77412 0
M  V30 5782 H 572.652 3.80026 -4.72933 0
M  V30 5783 H 571.391 3.34536 -3.54876 0
M  V30 5784 H 570.396 1.74984 -5.21211 0
M  V30 5785 H 571.621 2.23205 -6.41371 0
M  V30 5786 H 569.567 4.07831 -5.13819 0
M  V30 5787 H 569.484 3.42317 -6.74059 0
M  V30 5788 H 570.752 4.54123 -6.33555 0
M  V30 5789 N 574.981 1.5647 0.188427 0
M  V30 5790 C 575.931 1.91479 1.23774 0
M  V30 5791 C 576.915 0.78119 1.40664 0
M  V30 5792 O 578.107 1.04414 1.42922 0
M  V30 5793 C 575.236 2.26354 2.58106 0
M  V30 5794 C 574.322 3.46186 2.44981 0
M  V30 5795 N 574.713 4.63911 2.01546 0
M  V30 5796 C 573.011 3.50456 2.75856 0
M  V30 5797 C 573.712 5.46064 2.00472 0
M  V30 5798 N 572.688 4.86648 2.42229 0
M  V30 5799 H 576.49 2.79994 0.893339 0
M  V30 5800 H 574.004 1.57477 0.39682 0
M  V30 5801 H 576.001 2.49622 3.33908 0
M  V30 5802 H 574.661 1.39168 2.93364 0
M  V30 5803 H 575.672 4.88451 1.7215 0
M  V30 5804 H 572.349 2.73704 3.15265 0
M  V30 5805 H 573.739 6.50368 1.68734 0
M  V30 5806 N 576.459 -0.456382 1.50847 0
M  V30 5807 C 577.409 -1.55045 1.67168 0
M  V30 5808 C 578.393 -1.52061 0.525958 0
M  V30 5809 O 579.585 -1.58836 0.781036 0
M  V30 5810 C 576.714 -2.93386 1.78268 0
M  V30 5811 C 575.8 -3.01198 2.98564 0
M  V30 5812 N 576.191 -2.78792 4.22029 0
M  V30 5813 C 574.489 -3.32346 2.97426 0
M  V30 5814 C 575.19 -2.91953 5.03128 0
M  V30 5815 N 574.166 -3.22797 4.37382 0
M  V30 5816 H 577.968 -1.36444 2.60308 0
M  V30 5817 H 575.482 -0.663375 1.48233 0
M  V30 5818 H 577.479 -3.72071 1.88067 0
M  V30 5819 H 576.139 -3.13022 0.862965 0
M  V30 5820 H 577.15 -2.54087 4.51287 0
M  V30 5821 H 573.827 -3.57877 2.15012 0
M  V30 5822 H 575.217 -2.78745 6.11351 0
M  V30 5823 N 577.937 -1.40673 -0.710563 0
M  V30 5824 C 578.847 -1.43663 -1.85467 0
M  V30 5825 C 579.863 -0.328721 -1.70867 0
M  V30 5826 O 581.039 -0.574098 -1.93044 0
M  V30 5827 C 578.104 -1.30226 -3.21313 0
M  V30 5828 C 577.165 -2.51204 -3.48131 0
M  V30 5829 C 576.398 -2.38398 -4.77495 0
M  V30 5830 O 576.621 -1.40048 -5.5294 0
M  V30 5831 O 575.555 -3.2787 -5.04762 0
M  V30 5832 H 579.381 -2.40156 -1.859 0
M  V30 5833 H 576.966 -1.22049 -0.861652 0
M  V30 5834 H 578.848 -1.2496 -4.02446 0
M  V30 5835 H 577.523 -0.368419 -3.21597 0
M  V30 5836 H 576.43 -2.62048 -2.66987 0
M  V30 5837 H 577.763 -3.43366 -3.52648 0
M  V30 5838 N 579.415 0.9433 -1.26252 0
M  V30 5839 C 580.643 1.72367 -1.14443 0
M  V30 5840 C 581.058 1.86392 0.300572 0
M  V30 5841 O 580.415 1.36978 1.20596 0
M  V30 5842 C 580.466 3.13155 -1.806 0
M  V30 5843 O 580.187 2.99803 -3.19452 0
M  V30 5844 C 581.688 4.07417 -1.74717 0
M  V30 5845 H 578.908 0.539758 -0.398626 0
M  V30 5846 H 581.452 1.18268 -1.66832 0
M  V30 5847 H 579.607 3.64162 -1.32154 0
M  V30 5848 H 580.021 3.88697 -3.52158 0
M  V30 5849 H 581.495 5.03773 -2.25647 0
M  V30 5850 H 581.972 4.3337 -0.713244 0
M  V30 5851 H 582.578 3.6233 -2.22704 0
M  V30 5852 N 580.893 1.08022 1.14757 0
M  V30 5853 C 581.841 0.701088 2.21783 0
M  V30 5854 C 582.835 -0.291311 1.66876 0
M  V30 5855 O 584.041 -0.154296 1.79337 0
M  V30 5856 H 580.416 0.208668 0.722469 0
M  V30 5857 H 582.387 1.61321 2.51034 0
M  V30 5858 C 581.136 0.122278 3.47485 0
M  V30 5859 H 580.459 0.877065 3.90061 0
M  V30 5860 H 581.899 -0.105248 4.23869 0
M  V30 5861 C 580.358 -1.13883 3.17068 0
M  V30 5862 O 580.888 -2.22429 3.34497 0
M  V30 5863 N 579.094 -1.04767 2.71058 0
M  V30 5864 H 578.641 -0.164302 2.57075 0
M  V30 5865 H 578.599 -1.89224 2.51081 0
M  V30 5866 N 582.371 -1.3172 0.865308 0
M  V30 5867 C 583.301 -2.31109 0.333302 0
M  V30 5868 C 584.282 -1.60148 -0.573301 0
M  V30 5869 O 585.467 -1.87882 -0.491305 0
M  V30 5870 C 582.597 -3.44104 -0.470078 0
M  V30 5871 C 581.551 -4.26623 0.343021 0
M  V30 5872 C 580.877 -5.31482 -0.585756 0
M  V30 5873 C 582.177 -4.98001 1.57456 0
M  V30 5874 H 583.871 -2.75855 1.1638 0
M  V30 5875 H 581.417 -1.3262 0.561069 0
M  V30 5876 H 583.37 -4.12682 -0.852752 0
M  V30 5877 H 582.094 -2.98112 -1.33404 0
M  V30 5878 H 580.753 -3.59707 0.707583 0
M  V30 5879 H 580.401 -4.81741 -1.44686 0
M  V30 5880 H 580.101 -5.87582 -0.0456494 0
M  V30 5881 H 581.625 -6.0292 -0.965375 0
M  V30 5882 H 583.039 -5.59201 1.26359 0
M  V30 5883 H 581.436 -5.63876 2.05339 0
M  V30 5884 H 582.506 -4.25253 2.32997 0
M  V30 5885 N 583.85 -0.624285 -1.44708 0
M  V30 5886 C 584.76 0.0861083 -2.34442 0
M  V30 5887 C 585.776 0.84291 -1.5222 0
M  V30 5888 O 586.952 0.796723 -1.84971 0
M  V30 5889 C 584.017 1.05999 -3.30099 0
M  V30 5890 C 583.077 0.303316 -4.28227 0
M  V30 5891 C 582.311 1.23081 -5.19314 0
M  V30 5892 O 582.534 2.46929 -5.14181 0
M  V30 5893 O 581.468 0.71883 -5.97592 0
M  V30 5894 H 585.293 -0.651756 -2.96624 0
M  V30 5895 H 582.879 -0.384493 -1.44368 0
M  V30 5896 H 584.76 1.62046 -3.88997 0
M  V30 5897 H 583.436 1.77859 -2.70459 0
M  V30 5898 H 582.343 -0.300033 -3.72895 0
M  V30 5899 H 583.676 -0.375123 -4.90768 0
M  V30 5900 N 585.328 1.53329 -0.364422 0
M  V30 5901 C 586.291 2.24323 0.470292 0
M  V30 5902 C 587.291 1.25068 1.01067 0
M  V30 5903 O 588.481 1.49354 0.896605 0
M  V30 5904 C 585.613 2.97908 1.65722 0
M  V30 5905 H 586.806 2.9952 -0.150917 0
M  V30 5906 H 584.359 1.55868 -0.116092 0
M  V30 5907 H 585.094 2.2695 2.31655 0
M  V30 5908 H 584.879 3.70732 1.27671 0
M  V30 5909 H 586.369 3.5188 2.24878 0
M  V30 5910 N 586.806 0.0935595 1.57322 0
M  V30 5911 C 587.753 -0.865935 2.1394 0
M  V30 5912 C 588.723 -1.28083 1.05754 0
M  V30 5913 O 589.908 -1.36285 1.33533 0
M  V30 5914 C 587.048 -2.12023 2.72287 0
M  V30 5915 C 586.161 -1.756 3.94701 0
M  V30 5916 C 585.296 -2.95804 4.41218 0
M  V30 5917 C 584.335 -2.555 5.56225 0
M  V30 5918 N 583.472 -3.68534 5.97601 0
M  V30 5919 H 588.312 -0.376261 2.95615 0
M  V30 5920 H 585.849 -0.174052 1.46067 0
M  V30 5921 H 587.807 -2.85477 3.04235 0
M  V30 5922 H 586.437 -2.58492 1.93343 0
M  V30 5923 H 585.489 -0.921208 3.69077 0
M  V30 5924 H 586.801 -1.41964 4.78171 0
M  V30 5925 H 585.955 -3.77513 4.74941 0
M  V30 5926 H 584.694 -3.32649 3.56645 0
M  V30 5927 H 583.699 -1.72218 5.22131 0
M  V30 5928 H 584.924 -2.19801 6.42545 0
M  V30 5929 H 582.87 -4.051 5.15974 0
M  V30 5930 H 582.787 -3.38737 6.75865 0
M  V30 5931 H 584.055 -4.50757 6.35955 0
M  V30 5932 N 588.284 -1.56567 -0.180126 0
M  V30 5933 C 589.514 -1.85349 -0.912647 0
M  V30 5934 C 589.922 -0.675795 -1.76719 0
M  V30 5935 O 589.265 0.3645 -1.80047 0
M  V30 5936 C 589.327 -3.08431 -1.84691 0
M  V30 5937 C 588.991 -4.41694 -1.17284 0
M  V30 5938 C 589.988 -5.17062 -0.542532 0
M  V30 5939 C 587.673 -4.8843 -1.17223 0
M  V30 5940 C 589.667 -6.37351 0.0793953 0
M  V30 5941 C 587.354 -6.08652 -0.54647 0
M  V30 5942 C 588.352 -6.82955 0.0782458 0
M  V30 5943 O 588.04 -8.00897 0.694158 0
M  V30 5944 H 587.772 -0.619286 -0.271036 0
M  V30 5945 H 590.326 -2.0454 -0.187768 0
M  V30 5946 H 588.556 -2.85163 -2.61188 0
M  V30 5947 H 590.245 -3.23733 -2.44851 0
M  V30 5948 H 591.011 -4.8204 -0.535045 0
M  V30 5949 H 586.89 -4.30542 -1.64788 0
M  V30 5950 H 590.434 -6.95287 0.567612 0
M  V30 5951 H 586.331 -6.4314 -0.55151 0
M  V30 5952 H 587.099 -8.16352 0.592537 0
M  V30 5953 N 589.762 0.448376 -1.51087 0
M  V30 5954 C 591.008 1.20049 -1.6345 0
M  V30 5955 C 591.341 1.91121 -0.344444 0
M  V30 5956 O 590.616 1.83125 0.655396 0
M  V30 5957 C 590.899 2.22624 -2.83038 0
M  V30 5958 C 590.752 1.55708 -4.21989 0
M  V30 5959 C 592.071 3.23718 -2.98152 0
M  V30 5960 H 589.19 0.435085 -0.59487 0
M  V30 5961 H 591.832 0.491183 -1.83541 0
M  V30 5962 H 589.982 2.83117 -2.66039 0
M  V30 5963 H 591.654 0.986367 -4.50631 0
M  V30 5964 H 589.897 0.859647 -4.25197 0
M  V30 5965 H 590.568 2.30357 -5.01637 0
M  V30 5966 H 593.044 2.73269 -3.13788 0
M  V30 5967 H 591.92 3.92795 -3.83411 0
M  V30 5968 H 592.181 3.89179 -2.09743 0
M  V30 5969 N 591.24 1.41047 0.703093 0
M  V30 5970 C 592.486 1.40207 1.46526 0
M  V30 5971 C 592.819 0.00847763 1.94198 0
M  V30 5972 O 592.094 -0.962437 1.69019 0
M  V30 5973 C 592.377 2.40238 2.6825 0
M  V30 5974 C 592.23 3.88674 2.26391 0
M  V30 5975 C 593.549 2.37627 3.70434 0
M  V30 5976 H 590.668 0.510594 0.531472 0
M  V30 5977 H 593.31 1.72271 0.801422 0
M  V30 5978 H 591.46 2.13026 3.24888 0
M  V30 5979 H 593.132 4.2676 1.75138 0
M  V30 5980 H 591.375 4.03903 1.58255 0
M  V30 5981 H 592.046 4.542 3.13698 0
M  V30 5982 H 594.522 2.61759 3.23452 0
M  V30 5983 H 593.398 3.09645 4.53223 0
M  V30 5984 H 593.659 1.39223 4.19606 0
M  V30 5985 N 592.718 -0.936591 1.26751 0
M  V30 5986 C 593.65 -2.03991 1.045 0
M  V30 5987 C 594.663 -1.628 0.00394261 0
M  V30 5988 O 595.852 -1.76817 0.244526 0
M  V30 5989 C 592.952 -3.34218 0.561403 0
M  V30 5990 C 592.125 -4.04151 1.67274 0
M  V30 5991 C 591.184 -5.12651 1.1864 0
M  V30 5992 O 590.21 -5.37104 1.88437 0
M  V30 5993 N 591.412 -5.80488 0.037278 0
M  V30 5994 H 594.177 -2.23644 1.99508 0
M  V30 5995 H 591.738 -1.10638 1.18198 0
M  V30 5996 H 593.73 -4.04101 0.220136 0
M  V30 5997 H 592.3 -3.11203 -0.295211 0
M  V30 5998 H 591.52 -3.28121 2.18472 0
M  V30 5999 H 592.808 -4.47626 2.41885 0
M  V30 6000 H 592.206 -5.63064 -0.545494 0
M  V30 6001 H 590.763 -6.5134 -0.244877 0
M  V30 6002 N 594.196 -1.08629 -1.14182 0
M  V30 6003 C 595.421 -0.83902 -1.89671 0
M  V30 6004 C 595.846 0.603332 -1.78161 0
M  V30 6005 O 595.204 1.42301 -1.12339 0
M  V30 6006 C 595.252 -1.26854 -3.37551 0
M  V30 6007 O 594.356 -0.42188 -4.10236 0
M  V30 6008 H 593.697 -0.304545 -0.590041 0
M  V30 6009 H 596.227 -1.4483 -1.44518 0
M  V30 6010 H 596.237 -1.25038 -3.88368 0
M  V30 6011 H 594.912 -2.31901 -3.45246 0
M  V30 6012 H 593.489 -0.503654 -3.69483 0
M  V30 6013 N 595.674 1.31259 -0.872281 0
M  V30 6014 C 596.922 1.96233 -0.483409 0
M  V30 6015 C 597.243 1.69276 0.968012 0
M  V30 6016 O 596.513 1.00943 1.67891 0
M  V30 6017 H 595.093 0.726025 -0.175774 0
M  V30 6018 H 597.755 1.60024 -1.11258 0
M  V30 6019 H 596.851 3.05403 -0.643075 0
M  V30 6020 N 597.152 0.631951 1.44375 0
M  V30 6021 C 598.563 0.219036 1.85411 0
M  V30 6022 C 598.914 -1.22974 1.52879 0
M  V30 6023 O 598.039 -1.93579 0.967266 0
M  V30 6024 C 598.634 0.39075 3.36539 0
M  V30 6025 C 597.193 0.0323351 3.76386 0
M  V30 6026 C 596.34 0.703744 2.68221 0
M  V30 6027 H 599.291 0.837056 1.3483 0
M  V30 6028 H 599.312 -0.370056 3.78696 0
M  V30 6029 H 598.824 1.44527 3.60185 0
M  V30 6030 H 596.925 -1.02042 3.58355 0
M  V30 6031 H 597.038 0.442969 4.77048 0
M  V30 6032 H 595.402 0.138974 2.54321 0
M  V30 6033 H 596.185 1.76088 2.947 0
M  V30 6034 N 598.631 -1.53133 0.372548 0
M  V30 6035 C 599.594 -2.24569 -0.458389 0
M  V30 6036 C 600.594 -1.25603 -1.00402 0
M  V30 6037 O 601.784 -1.49827 -0.888672 0
M  V30 6038 C 598.916 -2.98783 -1.6414 0
M  V30 6039 H 600.109 -2.99436 0.166799 0
M  V30 6040 H 597.662 -1.55805 0.124357 0
M  V30 6041 H 598.397 -2.28176 -2.30448 0
M  V30 6042 H 598.182 -3.71404 -1.25704 0
M  V30 6043 H 599.672 -3.53068 -2.23008 0
M  V30 6044 N 600.109 -0.101901 -1.5727 0
M  V30 6045 C 601.056 0.854577 -2.14396 0
M  V30 6046 C 602.026 1.27521 -1.06432 0
M  V30 6047 O 603.211 1.35575 -1.34253 0
M  V30 6048 C 600.351 2.10576 -2.73408 0
M  V30 6049 C 599.464 1.73504 -3.95626 0
M  V30 6050 C 598.599 2.9346 -4.42781 0
M  V30 6051 C 597.638 2.52547 -5.57572 0
M  V30 6052 N 596.775 3.65359 -5.99547 0
M  V30 6053 H 601.615 0.360578 -2.9581 0
M  V30 6054 H 599.152 0.166303 -1.46157 0
M  V30 6055 H 601.11 2.83859 -3.05745 0
M  V30 6056 H 599.74 2.57463 -1.94711 0
M  V30 6057 H 598.792 0.901622 -3.6956 0
M  V30 6058 H 600.104 1.39426 -4.78917 0
M  V30 6059 H 599.258 3.74988 -4.76937 0
M  V30 6060 H 597.997 3.30753 -3.58404 0
M  V30 6061 H 597.002 1.69446 -5.23037 0
M  V30 6062 H 598.227 2.1639 -6.43702 0
M  V30 6063 H 596.173 4.02358 -5.18116 0
M  V30 6064 H 596.09 3.35148 -6.77652 0
M  V30 6065 H 597.358 4.47378 -6.38336 0
M  V30 6066 N 601.587 1.56661 0.17182 0
M  V30 6067 C 602.864 1.72838 0.915778 0
M  V30 6068 C 603.244 0.66316 2.00413 0
M  V30 6069 O 602.592 -0.322123 2.26218 0
M  V30 6070 C 602.802 3.16019 1.48097 0
M  V30 6071 C 604.15 3.76962 1.95408 0
M  V30 6072 O 605.174 3.19294 1.57892 0
M  V30 6073 O 604.033 4.78219 2.64516 0
M  V30 6074 H 601.127 0.705797 0.431021 0
M  V30 6075 H 603.673 1.68947 0.159689 0
M  V30 6076 H 602.445 3.85031 0.697618 0
M  V30 6077 H 602.068 3.24234 2.30126 0
M  V30 6078 N 603.065 -0.440357 1.51323 0
M  V30 6079 C 603.995 -1.54174 1.75364 0
M  V30 6080 C 604.976 -1.59039 0.603375 0
M  V30 6081 O 606.161 -1.74815 0.845774 0
M  V30 6082 C 603.291 -2.92277 1.87593 0
M  V30 6083 C 602.245 -3.02274 3.03009 0
M  V30 6084 C 601.571 -4.42327 3.00418 0
M  V30 6085 C 602.871 -2.76634 4.43024 0
M  V30 6086 H 604.565 -1.34307 2.67585 0
M  V30 6087 H 602.111 -0.644678 1.28763 0
M  V30 6088 H 604.064 -3.69284 2.02995 0
M  V30 6089 H 602.788 -3.13369 0.920179 0
M  V30 6090 H 601.447 -2.27706 2.87307 0
M  V30 6091 H 601.095 -4.60382 2.02626 0
M  V30 6092 H 600.795 -4.49946 3.77918 0
M  V30 6093 H 602.319 -5.21312 3.17909 0
M  V30 6094 H 603.733 -3.43376 4.59093 0
M  V30 6095 H 602.13 -2.95666 5.22208 0
M  V30 6096 H 603.2 -1.72262 4.5327 0
M  V30 6097 N 604.543 -1.41418 -0.695603 0
M  V30 6098 C 605.768 -1.44329 -1.48942 0
M  V30 6099 C 606.193 -0.0501579 -1.88033 0
M  V30 6100 O 605.551 0.946598 -1.54626 0
M  V30 6101 C 605.599 -2.3578 -2.72837 0
M  V30 6102 O 604.703 -1.81482 -3.70322 0
M  V30 6103 H 604.044 -0.489838 -0.44828 0
M  V30 6104 H 606.574 -1.85878 -0.855014 0
M  V30 6105 H 606.584 -2.51654 -3.21145 0
M  V30 6106 H 605.259 -3.37005 -2.43722 0
M  V30 6107 H 603.836 -1.75058 -3.29255 0
M  V30 6108 N 606.021 0.929856 -1.27246 0
M  V30 6109 C 607.268 1.67731 -1.13457 0
M  V30 6110 C 607.596 1.9185 0.319998 0
M  V30 6111 O 606.851 1.50524 1.25064 0
M  V30 6112 C 607.15 3.05116 -1.86115 0
M  V30 6113 C 606.816 3.00715 -3.35978 0
M  V30 6114 C 605.478 2.99222 -3.76855 0
M  V30 6115 C 607.83 2.92168 -4.3161 0
M  V30 6116 C 605.158 2.86962 -5.11732 0
M  V30 6117 C 607.51 2.81449 -5.66542 0
M  V30 6118 C 606.174 2.78305 -6.06715 0
M  V30 6119 H 605.444 0.613772 -0.415168 0
M  V30 6120 H 608.091 1.08456 -1.57827 0
M  V30 6121 H 606.396 3.68083 -1.34246 0
M  V30 6122 H 608.093 3.61822 -1.72876 0
M  V30 6123 H 604.683 3.02664 -3.03468 0
M  V30 6124 H 608.867 2.92421 -4.01003 0
M  V30 6125 H 604.123 2.82913 -5.42006 0
M  V30 6126 H 608.297 2.738 -6.40317 0
M  V30 6127 H 605.924 2.68561 -7.11181 0
M  V30 6128 N 607.499 1.09233 1.13605 0
M  V30 6129 C 608.915 0.82163 1.36826 0
M  V30 6130 C 609.115 -0.565021 1.93416 0
M  V30 6131 O 608.171 -1.32026 2.15234 0
M  V30 6132 C 609.484 1.91124 2.32147 0
M  V30 6133 C 611.032 1.93824 2.45767 0
M  V30 6134 C 611.507 3.01923 3.44393 0
M  V30 6135 N 612.998 3.01149 3.51942 0
M  V30 6136 C 613.733 3.81434 4.2813 0
M  V30 6137 N 613.229 4.71621 5.07489 0
M  V30 6138 N 615.022 3.69702 4.23411 0
M  V30 6139 H 607.173 1.98633 0.752234 0
M  V30 6140 H 609.436 0.862482 0.393482 0
M  V30 6141 H 609.142 2.90862 1.97717 0
M  V30 6142 H 609.016 1.78777 3.32142 0
M  V30 6143 H 611.403 0.94726 2.79483 0
M  V30 6144 H 611.484 2.10248 1.45703 0
M  V30 6145 H 611.128 4.01232 3.11408 0
M  V30 6146 H 611.058 2.82742 4.44257 0
M  V30 6147 H 613.549 2.35789 2.95317 0
M  V30 6148 H 613.862 5.29468 5.62924 0
M  V30 6149 H 612.207 4.75658 5.06729 0
M  V30 6150 H 615.398 2.98606 3.60489 0
M  V30 6151 H 615.571 4.32509 4.82535 0
M  V30 6152 N 608.977 -1.30795 0.87923 0
M  V30 6153 C 610.226 -1.95636 0.490875 0
M  V30 6154 C 610.539 -1.70214 -0.963674 0
M  V30 6155 O 611.745 -2.28991 -1.45861 0
M  V30 6156 C 610.201 -3.50271 0.826929 0
M  V30 6157 C 609.809 -3.84521 2.29886 0
M  V30 6158 C 611.553 -4.21456 0.507494 0
M  V30 6159 C 609.46 -5.32309 2.57685 0
M  V30 6160 H 608.39 -0.732238 0.179841 0
M  V30 6161 H 611.041 -1.48829 1.07341 0
M  V30 6162 H 609.423 -3.9562 0.173542 0
M  V30 6163 H 610.597 -3.50102 2.99609 0
M  V30 6164 H 608.912 -3.26425 2.58526 0
M  V30 6165 H 611.509 -5.30199 0.692293 0
M  V30 6166 H 611.852 -4.12614 -0.552718 0
M  V30 6167 H 612.385 -3.81772 1.11782 0
M  V30 6168 H 609.124 -5.46195 3.62424 0
M  V30 6169 H 608.644 -5.68048 1.92566 0
M  V30 6170 H 610.323 -5.99678 2.42889 0
M  V30 6171 N 610.455 -0.639598 -1.44038 0
M  V30 6172 C 611.871 -0.305953 -1.5664 0
M  V30 6173 C 612.071 1.19055 -1.62567 0
M  V30 6174 O 611.127 1.97492 -1.57331 0
M  V30 6175 C 612.44 -1.00533 -2.83397 0
M  V30 6176 C 613.988 -0.984278 -2.97121 0
M  V30 6177 C 614.463 -1.66428 -4.26691 0
M  V30 6178 N 615.954 -1.63127 -4.33525 0
M  V30 6179 C 616.689 -2.12629 -5.32519 0
M  V30 6180 N 616.185 -2.70359 -6.3787 0
M  V30 6181 N 617.978 -2.03208 -5.24083 0
M  V30 6182 H 610.129 -1.6109 -1.38434 0
M  V30 6183 H 612.392 -0.676672 -0.663942 0
M  V30 6184 H 612.098 -2.06034 -2.85032 0
M  V30 6185 H 611.972 -0.548362 -3.73193 0
M  V30 6186 H 614.359 0.0622792 -2.95034 0
M  V30 6187 H 614.44 -1.47981 -2.08651 0
M  V30 6188 H 614.084 -2.71034 -4.29538 0
M  V30 6189 H 614.014 -1.14351 -5.14034 0
M  V30 6190 H 616.505 -1.20987 -3.58009 0
M  V30 6191 H 616.818 -3.05842 -7.09704 0
M  V30 6192 H 615.163 -2.74414 -6.38531 0
M  V30 6193 H 618.354 -1.57823 -4.40692 0
M  V30 6194 H 618.527 -2.42097 -6.01077 0
M  V30 6195 N 611.933 1.52934 -0.380664 0
M  V30 6196 C 612.865 2.23822 0.493581 0
M  V30 6197 C 613.878 1.25761 1.03383 0
M  V30 6198 O 615.067 1.5189 0.937633 0
M  V30 6199 C 612.167 2.9342 1.69582 0
M  V30 6200 C 611.34 4.18115 1.28445 0
M  V30 6201 C 610.399 4.70788 2.35042 0
M  V30 6202 O 609.425 5.34093 1.96807 0
M  V30 6203 N 610.627 4.49899 3.66839 0
M  V30 6204 H 613.392 2.99484 -0.11371 0
M  V30 6205 H 610.953 1.60577 -0.206587 0
M  V30 6206 H 612.945 3.2556 2.40401 0
M  V30 6207 H 611.515 2.21119 2.20965 0
M  V30 6208 H 610.735 3.92109 0.405503 0
M  V30 6209 H 612.023 4.99152 0.986132 0
M  V30 6210 H 611.421 3.99349 4.0067 0
M  V30 6211 H 609.978 4.86551 4.33718 0
M  V30 6212 N 613.412 0.11024 1.57214 0
M  V30 6213 C 614.375 -0.828808 2.1369 0
M  V30 6214 C 615.375 -1.20059 1.06969 0
M  V30 6215 O 616.565 -1.12754 1.32786 0
M  V30 6216 C 613.697 -2.11959 2.66994 0
M  V30 6217 H 614.89 -0.338146 2.97988 0
M  V30 6218 H 612.443 -0.138913 1.55681 0
M  V30 6219 H 613.178 -2.65476 1.8626 0
M  V30 6220 H 612.963 -1.86258 3.45037 0
M  V30 6221 H 614.453 -2.79105 3.10629 0
M  V30 6222 N 614.89 -1.56749 -0.16351 0
M  V30 6223 C 616.136 -1.83597 -0.875436 0
M  V30 6224 C 616.491 -0.691907 -1.79528 0
M  V30 6225 O 615.784 0.311193 -1.89056 0
M  V30 6226 C 615.978 -3.14342 -1.70071 0
M  V30 6227 C 615.807 -4.41356 -0.862265 0
M  V30 6228 C 614.577 -5.02467 -0.534299 0
M  V30 6229 C 616.775 -5.1391 -0.200203 0
M  V30 6230 N 614.757 -6.13068 0.31947 0
M  V30 6231 C 616.128 -6.17862 0.514398 0
M  V30 6232 C 618.183 -4.97757 -0.119171 0
M  V30 6233 C 616.886 -7.07412 1.30236 0
M  V30 6234 C 618.912 -5.87756 0.655477 0
M  V30 6235 C 618.274 -6.91178 1.35842 0
M  V30 6236 H 614.373 -0.722702 -0.298708 0
M  V30 6237 H 616.957 -1.94182 -0.141883 0
M  V30 6238 H 615.128 -3.04933 -2.40562 0
M  V30 6239 H 616.86 -3.29156 -2.35453 0
M  V30 6240 H 613.615 -4.65611 -0.866222 0
M  V30 6241 H 614.039 -6.72978 0.736893 0
M  V30 6242 H 618.681 -4.178 -0.648278 0
M  V30 6243 H 616.399 -7.86808 1.84278 0
M  V30 6244 H 619.985 -5.77328 0.719948 0
M  V30 6245 H 618.865 -7.59614 1.94822 0
M  V30 6246 N 616.368 0.432326 -1.51554 0
M  V30 6247 C 617.318 1.52366 -1.69614 0
M  V30 6248 C 618.302 1.51205 -0.550083 0
M  V30 6249 O 619.494 1.57573 -0.806206 0
M  V30 6250 C 616.623 2.90513 -1.82913 0
M  V30 6251 C 615.709 2.9641 -3.03318 0
M  V30 6252 N 616.1 2.72043 -4.26411 0
M  V30 6253 C 614.398 3.27572 -3.02675 0
M  V30 6254 C 615.099 2.83912 -5.07709 0
M  V30 6255 N 614.075 3.15798 -4.42462 0
M  V30 6256 H 617.877 1.32285 -2.62446 0
M  V30 6257 H 615.391 0.639708 -1.4927 0
M  V30 6258 H 617.388 3.69032 -1.93962 0
M  V30 6259 H 616.048 3.1161 -0.912655 0
M  V30 6260 H 617.059 2.46876 -4.55272 0
M  V30 6261 H 613.736 3.54411 -2.20678 0
M  V30 6262 H 615.126 2.68984 -6.15709 0
M  V30 6263 N 617.846 1.41785 0.688094 0
M  V30 6264 C 619.262 1.24419 0.999608 0
M  V30 6265 C 619.462 0.138868 2.01021 0
M  V30 6266 O 618.518 -0.494283 2.47615 0
M  V30 6267 C 619.831 2.59625 1.51709 0
M  V30 6268 C 621.379 2.66869 1.63554 0
M  V30 6269 C 621.854 4.0241 2.18702 0
M  V30 6270 N 623.345 4.04295 2.26053 0
M  V30 6271 C 624.08 5.05977 2.69768 0
M  V30 6272 N 623.576 6.18047 3.13033 0
M  V30 6273 N 625.369 4.93336 2.69398 0
M  V30 6274 H 617.52 2.12392 0.0187427 0
M  V30 6275 H 619.783 0.945347 0.0708673 0
M  V30 6276 H 619.489 3.41297 0.849059 0
M  V30 6277 H 619.363 2.82628 2.49803 0
M  V30 6278 H 621.75 1.8555 2.29467 0
M  V30 6279 H 621.831 2.47668 0.639857 0
M  V30 6280 H 621.475 4.8418 1.53402 0
M  V30 6281 H 621.405 4.18955 3.19037 0
M  V30 6282 H 623.896 3.23383 1.9553 0
M  V30 6283 H 624.209 6.91498 3.45038 0
M  V30 6284 H 622.554 6.21572 3.10923 0
M  V30 6285 H 625.745 4.04865 2.34952 0
M  V30 6286 H 625.918 5.72717 3.03148 0
M  V30 6287 N 619.324 -0.923095 1.27737 0
M  V30 6288 C 620.287 -2.00587 1.10894 0
M  V30 6289 C 621.287 -1.60718 0.0514927 0
M  V30 6290 O 622.477 -1.71658 0.296481 0
M  V30 6291 C 619.609 -3.33829 0.690717 0
M  V30 6292 H 620.802 -2.16959 2.07048 0
M  V30 6293 H 618.355 -1.10451 1.1059 0
M  V30 6294 H 619.09 -3.23157 -0.272 0
M  V30 6295 H 618.875 -3.64125 1.45448 0
M  V30 6296 H 620.365 -4.13336 0.595252 0
M  V30 6297 N 620.802 -1.09834 -1.13024 0
M  V30 6298 C 621.75 -0.736283 -2.20639 0
M  V30 6299 C 622.744 0.264725 -1.67319 0
M  V30 6300 O 623.95 0.125745 -1.7956 0
M  V30 6301 H 620.325 -0.220136 -0.719058 0
M  V30 6302 H 622.296 -1.65295 -2.48436 0
M  V30 6303 C 621.045 -0.177544 -3.47246 0
M  V30 6304 H 620.368 -0.939009 -3.88616 0
M  V30 6305 H 621.808 0.0378007 -4.23983 0
M  V30 6306 C 620.267 1.08824 -3.1884 0
M  V30 6307 O 620.797 2.1708 -3.37993 0
M  V30 6308 N 619.003 1.00442 -2.7269 0
M  V30 6309 H 618.55 0.123383 -2.57304 0
M  V30 6310 H 618.508 1.85206 -2.5406 0
M  V30 6311 N 622.28 1.30327 -0.886154 0
M  V30 6312 C 623.243 2.26376 -0.358687 0
M  V30 6313 C 624.243 1.52845 0.499498 0
M  V30 6314 O 625.433 1.71483 0.306485 0
M  V30 6315 C 622.565 3.37379 0.488726 0
M  V30 6316 H 623.758 2.74547 -1.20681 0
M  V30 6317 H 621.311 1.41536 -0.663113 0
M  V30 6318 H 622.046 2.94526 1.35739 0
M  V30 6319 H 621.831 3.91897 -0.126003 0
M  V30 6320 H 623.321 4.08868 0.84952 0
M  V30 6321 N 623.758 0.647228 1.43697 0
M  V30 6322 C 625.035 0.0883758 1.954 0
M  V30 6323 C 625.415 -1.39006 1.58873 0
M  V30 6324 O 624.763 -2.11255 0.87083 0
M  V30 6325 C 624.973 0.328263 3.47453 0
M  V30 6326 C 626.321 0.230009 4.23977 0
M  V30 6327 O 627.345 0.260496 3.55246 0
M  V30 6328 O 626.204 0.148615 5.46298 0
M  V30 6329 H 623.298 -0.0130683 0.826897 0
M  V30 6330 H 625.844 0.72005 1.53666 0
M  V30 6331 H 624.616 1.3535 3.67146 0
M  V30 6332 H 624.239 -0.336772 3.96171 0
M  V30 6333 N 625.236 -1.5273 0.388769 0
M  V30 6334 C 626.168 -2.24081 -0.481704 0
M  V30 6335 C 627.181 -1.26307 -1.02715 0
M  V30 6336 O 628.37 -1.52386 -0.929565 0
M  V30 6337 C 625.47 -2.94315 -1.68024 0
M  V30 6338 C 624.643 -4.18791 -1.26226 0
M  V30 6339 C 623.702 -4.72028 -2.32542 0
M  V30 6340 O 622.728 -5.35129 -1.93972 0
M  V30 6341 N 623.93 -4.51838 -3.64448 0
M  V30 6342 H 626.695 -2.9942 0.129591 0
M  V30 6343 H 624.256 -1.60465 0.2151 0
M  V30 6344 H 626.248 -3.26831 -2.38671 0
M  V30 6345 H 624.818 -2.22287 -2.19789 0
M  V30 6346 H 624.038 -3.92318 -0.384703 0
M  V30 6347 H 625.326 -4.99668 -0.959647 0
M  V30 6348 H 624.724 -4.01468 -3.98547 0
M  V30 6349 H 623.281 -4.88845 -4.31131 0
M  V30 6350 N 626.714 -0.118576 -1.57153 0
M  V30 6351 C 627.962 0.538461 -1.94795 0
M  V30 6352 C 628.283 1.67243 -1.00274 0
M  V30 6353 O 627.553 1.95811 -0.0589692 0
M  V30 6354 H 626.133 0.201904 -0.719197 0
M  V30 6355 H 628.795 -0.187418 -1.93997 0
M  V30 6356 H 627.891 0.933315 -2.97818 0
M  V30 6357 N 628.193 1.56834 0.155195 0
M  V30 6358 C 629.103 2.009 1.21146 0
M  V30 6359 C 630.119 0.923029 1.475 0
M  V30 6360 O 631.295 1.23189 1.59331 0
M  V30 6361 C 628.36 2.37378 2.52691 0
M  V30 6362 C 627.421 3.59883 2.34057 0
M  V30 6363 C 626.654 3.94612 3.59329 0
M  V30 6364 O 626.877 3.30104 4.65175 0
M  V30 6365 O 625.811 4.87895 3.52479 0
M  V30 6366 H 629.637 2.9105 0.867371 0
M  V30 6367 H 627.222 1.44916 0.363298 0
M  V30 6368 H 629.104 2.61737 3.3026 0
M  V30 6369 H 627.779 1.50385 2.86646 0
M  V30 6370 H 626.686 3.40722 1.54465 0
M  V30 6371 H 628.019 4.47468 2.0502 0
M  V30 6372 N 629.671 -0.424282 1.51781 0
M  V30 6373 C 630.919 -1.17028 1.64769 0
M  V30 6374 C 631.24 -1.91409 0.372523 0
M  V30 6375 O 630.51 -1.86091 -0.612108 0
M  V30 6376 H 629.09 -0.434992 0.607282 0
M  V30 6377 H 631.752 -0.485169 1.88765 0
M  V30 6378 H 630.848 -1.8927 2.4816 0
M  V30 6379 N 631.149 -1.42148 -0.680565 0
M  V30 6380 C 632.426 -1.32795 -1.43614 0
M  V30 6381 C 632.806 0.037415 -2.11067 0
M  V30 6382 O 632.154 1.05258 -2.02813 0
M  V30 6383 C 632.364 -2.49206 -2.44331 0
M  V30 6384 C 633.712 -2.91059 -3.09144 0
M  V30 6385 O 634.736 -2.49054 -2.54657 0
M  V30 6386 O 633.595 -3.63741 -4.07866 0
M  V30 6387 H 630.689 -0.523397 -0.640301 0
M  V30 6388 H 633.235 -1.54144 -0.709775 0
M  V30 6389 H 632.007 -3.40252 -1.93247 0
M  V30 6390 H 631.63 -2.29813 -3.24456 0
M  V30 6391 N 632.627 0.916307 -1.28225 0
M  V30 6392 C 633.559 2.02303 -1.07732 0
M  V30 6393 C 634.572 1.62773 -0.0298421 0
M  V30 6394 O 635.761 1.76406 -0.272626 0
M  V30 6395 C 632.861 3.33282 -0.614504 0
M  V30 6396 C 632.034 4.01439 -1.73682 0
M  V30 6397 C 631.093 5.10698 -1.26781 0
M  V30 6398 O 630.119 5.34038 -1.96958 0
M  V30 6399 N 631.321 5.80355 -0.129624 0
M  V30 6400 H 634.086 2.20442 -2.03041 0
M  V30 6401 H 631.647 1.08744 -1.19943 0
M  V30 6402 H 633.639 4.03699 -0.284397 0
M  V30 6403 H 632.209 3.11633 0.245664 0
M  V30 6404 H 631.429 3.24604 -2.23665 0
M  V30 6405 H 632.717 4.43721 -2.48976 0
M  V30 6406 H 632.115 5.6386 0.455847 0
M  V30 6407 H 630.672 6.51647 0.141224 0
M  V30 6408 N 634.105 1.10431 1.1244 0
M  V30 6409 C 635.053 0.747974 2.20246 0
M  V30 6410 C 636.047 -0.255848 1.67457 0
M  V30 6411 O 637.253 -0.116221 1.79624 0
M  V30 6412 H 633.628 0.223946 0.71788 0
M  V30 6413 H 635.599 1.6661 2.47556 0
M  V30 6414 C 634.348 0.195957 3.47147 0
M  V30 6415 H 633.671 0.959606 3.88113 0
M  V30 6416 H 635.111 -0.0153154 4.23997 0
M  V30 6417 C 633.57 -1.07132 3.19413 0
M  V30 6418 O 634.1 -2.15284 3.3914 0
M  V30 6419 N 632.306 -0.98994 2.73219 0
M  V30 6420 H 631.853 -0.109736 2.57366 0
M  V30 6421 H 631.811 -1.83856 2.55038 0
M  V30 6422 N 635.583 -1.29855 0.893053 0
M  V30 6423 C 636.493 -2.31661 0.370157 0
M  V30 6424 C 637.509 -1.65677 -0.531723 0
M  V30 6425 O 638.685 -1.9691 -0.422902 0
M  V30 6426 C 635.75 -3.44388 -0.399741 0
M  V30 6427 C 634.811 -4.2598 0.532861 0
M  V30 6428 C 634.044 -5.33324 -0.200388 0
M  V30 6429 O 634.267 -5.52305 -1.42531 0
M  V30 6430 O 633.201 -6.00188 0.453668 0
M  V30 6431 H 637.027 -2.78354 1.2146 0
M  V30 6432 H 634.612 -1.34171 0.657153 0
M  V30 6433 H 636.494 -4.13037 -0.835358 0
M  V30 6434 H 635.169 -2.99815 -1.22035 0
M  V30 6435 H 634.076 -3.59998 1.01746 0
M  V30 6436 H 635.409 -4.74178 1.3197 0
M  V30 6437 N 637.061 -0.65484 -1.43351 0
M  V30 6438 C 638.308 -0.168892 -2.01794 0
M  V30 6439 C 638.636 1.2177 -1.51665 0
M  V30 6440 O 637.891 1.82717 -0.70092 0
M  V30 6441 C 638.19 -0.130424 -3.57162 0
M  V30 6442 C 637.856 -1.45898 -4.26643 0
M  V30 6443 C 636.518 -1.82279 -4.4534 0
M  V30 6444 C 638.87 -2.33485 -4.65976 0
M  V30 6445 C 636.198 -3.0591 -5.00635 0
M  V30 6446 C 638.55 -3.5641 -5.22642 0
M  V30 6447 C 637.214 -3.92985 -5.39555 0
M  V30 6448 H 636.484 -0.061802 -0.738418 0
M  V30 6449 H 639.131 -0.845869 -1.71806 0
M  V30 6450 H 637.436 0.630008 -3.86702 0
M  V30 6451 H 639.133 0.262465 -4.0014 0
M  V30 6452 H 635.723 -1.16591 -4.12437 0
M  V30 6453 H 639.907 -2.06668 -4.51223 0
M  V30 6454 H 635.163 -3.34295 -5.11915 0
M  V30 6455 H 639.337 -4.24495 -5.52066 0
M  V30 6456 H 636.964 -4.88862 -5.82167 0
M  V30 6457 N 638.539 1.52521 -0.396863 0
M  V30 6458 C 639.955 1.5953 -0.0471659 0
M  V30 6459 C 640.155 1.41044 1.43906 0
M  V30 6460 O 639.211 1.23122 2.20448 0
M  V30 6461 C 640.524 2.95972 -0.531113 0
M  V30 6462 C 642.072 3.09172 -0.488024 0
M  V30 6463 C 642.547 4.48075 -0.948281 0
M  V30 6464 N 644.038 4.54281 -0.9046 0
M  V30 6465 C 644.773 5.60007 -1.23205 0
M  V30 6466 N 644.269 6.73343 -1.63036 0
M  V30 6467 N 646.062 5.50151 -1.15282 0
M  V30 6468 H 638.213 1.62786 -1.36435 0
M  V30 6469 H 640.476 0.76514 -0.559701 0
M  V30 6470 H 640.182 3.14741 -1.56942 0
M  V30 6471 H 640.056 3.77143 0.0657922 0
M  V30 6472 H 642.443 2.90095 0.541211 0
M  V30 6473 H 642.524 2.29937 -1.12083 0
M  V30 6474 H 642.168 4.67894 -1.97578 0
M  V30 6475 H 642.098 5.25788 -0.292412 0
M  V30 6476 H 644.589 3.72918 -0.6116 0
M  V30 6477 H 644.902 7.49992 -1.86365 0
M  V30 6478 H 643.247 6.74655 -1.66929 0
M  V30 6479 H 646.438 4.6049 -0.840602 0
M  V30 6480 H 646.611 6.32444 -1.41133 0
M  V30 6481 N 640.017 0.126909 1.57088 0
M  V30 6482 C 640.947 -0.816847 2.18746 0
M  V30 6483 C 641.928 -1.27161 1.12979 0
M  V30 6484 O 643.113 -1.33279 1.41246 0
M  V30 6485 C 640.243 -2.06398 2.79315 0
M  V30 6486 C 639.197 -1.74673 3.90735 0
M  V30 6487 C 638.523 -3.06482 4.38147 0
M  V30 6488 C 639.823 -1.0089 5.12463 0
M  V30 6489 H 641.517 -0.303032 2.97863 0
M  V30 6490 H 639.063 -0.144314 1.43275 0
M  V30 6491 H 641.016 -2.72885 3.2111 0
M  V30 6492 H 639.74 -2.60118 1.975 0
M  V30 6493 H 638.399 -1.10572 3.49527 0
M  V30 6494 H 638.047 -3.58152 3.5318 0
M  V30 6495 H 637.747 -2.86025 5.13287 0
M  V30 6496 H 639.271 -3.74073 4.82599 0
M  V30 6497 H 640.685 -1.57546 5.51228 0
M  V30 6498 H 639.082 -0.905006 5.93237 0
M  V30 6499 H 640.152 0.00297335 4.849 0
M  V30 6500 N 641.495 -1.56914 -0.146875 0
M  V30 6501 C 642.744 -1.82546 -0.857898 0
M  V30 6502 C 643.057 -0.708169 -1.8233 0
M  V30 6503 O 644.263 -0.850093 -2.57848 0
M  V30 6504 C 642.719 -3.23548 -1.57623 0
M  V30 6505 C 642.327 -4.43212 -0.653224 0
M  V30 6506 C 644.071 -3.58453 -2.27402 0
M  V30 6507 C 641.978 -5.75237 -1.37318 0
M  V30 6508 H 640.908 -0.680786 -0.32411 0
M  V30 6509 H 643.559 -1.83166 -0.110639 0
M  V30 6510 H 641.941 -3.17315 -2.36912 0
M  V30 6511 H 643.115 -4.60682 0.104452 0
M  V30 6512 H 641.43 -4.16351 -0.0638336 0
M  V30 6513 H 644.027 -4.54349 -2.81907 0
M  V30 6514 H 644.37 -2.84516 -3.03901 0
M  V30 6515 H 644.903 -3.66347 -1.55032 0
M  V30 6516 H 641.642 -6.52269 -0.650041 0
M  V30 6517 H 641.162 -5.61703 -2.10357 0
M  V30 6518 H 642.841 -6.18039 -1.91406 0
M  V30 6519 N 642.974 0.416227 -1.52004 0
M  V30 6520 C 644.22 1.16555 -1.6596 0
M  V30 6521 C 644.553 1.90347 -0.384906 0
M  V30 6522 O 643.828 1.84474 0.616405 0
M  V30 6523 C 644.111 2.1657 -2.87696 0
M  V30 6524 C 643.964 1.46722 -4.25197 0
M  V30 6525 C 645.283 3.17321 -3.04951 0
M  V30 6526 H 642.402 0.422369 -0.603965 0
M  V30 6527 H 645.044 0.452141 -1.84542 0
M  V30 6528 H 643.194 2.77411 -2.71985 0
M  V30 6529 H 644.866 0.89056 -4.52622 0
M  V30 6530 H 643.109 0.769263 -4.26925 0
M  V30 6531 H 643.78 2.19665 -5.0641 0
M  V30 6532 H 646.256 2.66552 -3.19514 0
M  V30 6533 H 645.132 3.84573 -3.91656 0
M  V30 6534 H 645.393 3.84643 -2.17951 0
M  V30 6535 N 644.452 1.42507 0.673017 0
M  V30 6536 C 645.729 1.33554 1.42908 0
M  V30 6537 C 646.109 -0.0262211 2.11084 0
M  V30 6538 O 645.457 -1.04181 2.03368 0
M  V30 6539 C 645.667 2.50498 2.43006 0
M  V30 6540 C 647.015 2.92694 3.07596 0
M  V30 6541 O 648.039 2.50401 2.53333 0
M  V30 6542 O 646.898 3.65899 4.05931 0
M  V30 6543 H 643.992 0.526785 0.637516 0
M  V30 6544 H 646.538 1.54518 0.701591 0
M  V30 6545 H 645.31 3.41272 1.9144 0
M  V30 6546 H 644.933 2.3153 3.23233 0
M  V30 6547 N 645.93 -0.909495 1.28709 0
M  V30 6548 C 647.16 -1.69027 1.188 0
M  V30 6549 C 647.568 -1.87469 -0.255329 0
M  V30 6550 O 646.911 -1.40458 -1.18394 0
M  V30 6551 C 646.973 -3.10064 1.81936 0
M  V30 6552 C 646.637 -3.14891 3.31199 0
M  V30 6553 C 647.634 -2.95768 4.27571 0
M  V30 6554 C 645.319 -3.37269 3.7223 0
M  V30 6555 C 647.313 -2.98942 5.6295 0
M  V30 6556 C 645 -3.40074 5.07733 0
M  V30 6557 C 645.998 -3.20932 6.02903 0
M  V30 6558 O 645.686 -3.23507 7.35934 0
M  V30 6559 H 645.418 -0.535014 0.413203 0
M  V30 6560 H 647.972 -1.14645 1.70428 0
M  V30 6561 H 646.202 -3.66005 1.24808 0
M  V30 6562 H 647.891 -3.70185 1.66486 0
M  V30 6563 H 648.657 -2.78302 3.97206 0
M  V30 6564 H 644.536 -3.51212 2.98615 0
M  V30 6565 H 648.08 -2.83919 6.37209 0
M  V30 6566 H 643.977 -3.5707 5.37747 0
M  V30 6567 H 644.745 -3.3984 7.44615 0
M  V30 6568 N 647.408 -1.11026 -1.11852 0
M  V30 6569 C 648.819 -0.873203 -1.65021 0
M  V30 6570 C 649.17 0.595364 -1.86949 0
M  V30 6571 O 648.295 1.45645 -1.60051 0
M  V30 6572 C 648.89 -1.57859 -2.99777 0
M  V30 6573 C 647.449 -1.38807 -3.49871 0
M  V30 6574 C 646.596 -1.62403 -2.24768 0
M  V30 6575 H 649.547 -1.26712 -0.955503 0
M  V30 6576 H 649.568 -1.02111 -3.66543 0
M  V30 6577 H 649.08 -2.6474 -2.83786 0
M  V30 6578 H 647.181 -0.341163 -3.71035 0
M  V30 6579 H 647.294 -2.13421 -4.28938 0
M  V30 6580 H 645.658 -1.04714 -2.32179 0
M  V30 6581 H 646.441 -2.70549 -2.11324 0
M  V30 6582 N 648.886 1.2938 -0.899927 0
M  V30 6583 C 649.816 2.30144 -0.39446 0
M  V30 6584 C 650.797 1.61611 0.530639 0
M  V30 6585 O 651.982 1.89119 0.441319 0
M  V30 6586 C 649.112 3.45229 0.37868 0
M  V30 6587 C 648.066 4.25564 -0.456012 0
M  V30 6588 C 647.392 5.32848 0.444637 0
M  V30 6589 C 648.692 4.93651 -1.70605 0
M  V30 6590 H 650.386 2.72673 -1.23653 0
M  V30 6591 H 647.932 1.31086 -0.596034 0
M  V30 6592 H 649.885 4.14797 0.743037 0
M  V30 6593 H 648.609 3.01545 1.25453 0
M  V30 6594 H 647.268 3.57704 -0.802704 0
M  V30 6595 H 646.916 4.85408 1.31863 0
M  V30 6596 H 646.616 5.87497 -0.110154 0
M  V30 6597 H 648.14 6.05268 0.805182 0
M  V30 6598 H 649.554 5.55655 -1.41141 0
M  V30 6599 H 647.951 5.58233 -2.20217 0
M  V30 6600 H 649.021 4.18926 -2.4419 0
M  V30 6601 N 650.364 0.662433 1.43002 0
M  V30 6602 C 651.589 0.186003 2.06564 0
M  V30 6603 C 652.014 -1.14314 1.49379 0
M  V30 6604 O 651.372 -1.70824 0.607346 0
M  V30 6605 C 651.42 0.118269 3.60406 0
M  V30 6606 O 650.524 -0.916859 4.02079 0
M  V30 6607 H 649.865 0.0990981 0.656563 0
M  V30 6608 H 652.395 0.907958 1.8335 0
M  V30 6609 H 652.405 -0.0619981 4.07953 0
M  V30 6610 H 651.08 1.08849 4.01403 0
M  V30 6611 H 649.657 -0.708635 3.66105 0
M  V30 6612 N 651.842 -1.52309 0.404946 0
M  V30 6613 C 653.091 -2.00952 -0.173529 0
M  V30 6614 C 653.404 -1.29512 -1.46581 0
M  V30 6615 O 654.61 -1.6895 -2.12528 0
M  V30 6616 C 653.066 -3.58097 -0.359801 0
M  V30 6617 C 652.674 -4.38449 0.920138 0
M  V30 6618 C 654.418 -4.14984 -0.893794 0
M  V30 6619 C 652.325 -5.87227 0.701285 0
M  V30 6620 H 651.255 -0.750871 -0.0686244 0
M  V30 6621 H 653.906 -1.75687 0.529749 0
M  V30 6622 H 652.288 -3.79675 -1.12531 0
M  V30 6623 H 653.462 -4.28633 1.69147 0
M  V30 6624 H 651.777 -3.92859 1.38024 0
M  V30 6625 H 654.374 -5.23813 -1.0735 0
M  V30 6626 H 654.717 -3.72072 -1.8673 0
M  V30 6627 H 655.25 -3.97358 -0.187453 0
M  V30 6628 H 651.989 -6.34491 1.64624 0
M  V30 6629 H 651.509 -5.99792 -0.0308288 0
M  V30 6630 H 653.188 -6.46096 0.341846 0
M  V30 6631 N 653.32 -0.135238 -1.57019 0
M  V30 6632 C 654.25 0.805235 -2.19176 0
M  V30 6633 C 655.231 1.2656 -1.13651 0
M  V30 6634 O 656.416 1.32528 -1.4195 0
M  V30 6635 C 653.546 2.04914 -2.80406 0
M  V30 6636 C 652.5 1.72598 -3.91655 0
M  V30 6637 C 651.826 3.04154 -4.39766 0
M  V30 6638 C 653.126 0.981709 -5.12991 0
M  V30 6639 H 654.82 0.287232 -2.98019 0
M  V30 6640 H 652.366 0.136714 -1.4335 0
M  V30 6641 H 654.319 2.71178 -3.22553 0
M  V30 6642 H 653.043 2.59067 -1.98877 0
M  V30 6643 H 651.702 1.08717 -3.50109 0
M  V30 6644 H 651.35 3.56274 -3.55075 0
M  V30 6645 H 651.05 2.83299 -5.14796 0
M  V30 6646 H 652.574 3.71509 -4.84576 0
M  V30 6647 H 653.988 1.5462 -5.52056 0
M  V30 6648 H 652.385 0.873533 -5.93708 0
M  V30 6649 H 653.455 -0.0286887 -4.84892 0
M  V30 6650 O 654.837 1.615 0.00369385 0
M  V30 6651 H 655.528 1.8348 0.620863 0
M  V30 END ATOM
M  V30 BEGIN BOND
M  V30 END BOND
M  V30 END CTAB
M  END
$$$$
