drugbank_target|P32947 Lipase 3 (DB02092; DB03500)
 OpenBabel12092119553D

  0  0  0     0  0            999 V3000
M  V30 BEGIN CTAB
M  V30 COUNTS 8202 8300 0 0 0
M  V30 BEGIN ATOM
M  V30 1 H -0.908 1.98254 -0.117106 0
M  V30 2 N 0 1.576 0 0
M  V30 3 C 0.933 2.03868 1.02534 0
M  V30 4 C 1.911 0.928543 1.3348 0
M  V30 5 O 3.095 1.19667 1.45644 0
M  V30 6 C 0.222 2.43627 2.35294 0
M  V30 7 C -0.732 3.65373 2.2001 0
M  V30 8 S 0.101 5.13292 1.52614 0
M  V30 9 C 1.257 5.56322 2.86805 0
M  V30 10 H 1.49 2.90518 0.631377 0
M  V30 11 H -0.977 1.52953 0.210867 0
M  V30 12 H 0.981 2.67203 3.11629 0
M  V30 13 H -0.358 1.57376 2.7183 0
M  V30 14 H -1.165 3.90944 3.18086 0
M  V30 15 H -1.563 3.418 1.51819 0
M  V30 16 H 0.729 5.58782 3.83104 0
M  V30 17 H 1.672 6.56266 2.65933 0
M  V30 18 H 2.08 4.83886 2.90714 0
M  V30 19 N 1.4781 -0.272755 1.55222 0
M  V30 20 C 2.4251 -1.33716 1.88119 0
M  V30 21 C 3.3951 -1.49066 0.73271 0
M  V30 22 O 4.5801 -1.63469 0.984002 0
M  V30 23 C 1.7201 -2.69238 2.15882 0
M  V30 24 C 0.8331 -2.62108 3.43399 0
M  V30 25 C -0.0319 -3.89811 3.60861 0
M  V30 26 C -0.9929 -3.77193 4.8207 0
M  V30 27 N -1.8559 -4.9673 4.96189 0
M  V30 28 H 2.9841 -1.04962 2.78903 0
M  V30 29 H 0.5211 -0.507088 1.38083 0
M  V30 30 H 2.4791 -3.48089 2.29978 0
M  V30 31 H 1.1091 -2.96194 1.28331 0
M  V30 32 H 0.1611 -1.74967 3.37773 0
M  V30 33 H 1.4731 -2.48685 4.32386 0
M  V30 34 H 0.6271 -4.77103 3.74777 0
M  V30 35 H -0.6339 -4.06102 2.7006 0
M  V30 36 H -1.6289 -2.88284 4.68159 0
M  V30 37 H -0.4039 -3.62421 5.74307 0
M  V30 38 H -2.4579 -5.13431 4.08319 0
M  V30 39 H -2.5409 -4.85839 5.79221 0
M  V30 40 H -1.2729 -5.85594 5.1449 0
M  V30 41 N 2.9562 -1.48159 -0.537278 0
M  V30 42 C 3.8862 -1.65029 -1.6519 0
M  V30 43 C 4.8672 -0.499281 -1.62607 0
M  V30 44 O 6.0522 -0.730972 -1.79918 0
M  V30 45 C 3.1822 -1.68303 -3.03795 0
M  V30 46 C 2.1362 -2.8283 -3.21234 0
M  V30 47 C 1.4622 -2.71189 -4.60826 0
M  V30 48 C 2.7622 -4.24211 -3.04701 0
M  V30 49 H 4.4562 -2.58341 -1.51328 0
M  V30 50 H 2.0022 -1.24325 -0.726585 0
M  V30 51 H 3.9552 -1.78693 -3.81637 0
M  V30 52 H 2.6792 -0.715635 -3.18663 0
M  V30 53 H 1.3382 -2.71983 -2.45807 0
M  V30 54 H 0.9862 -1.72435 -4.7252 0
M  V30 55 H 0.6862 -3.48035 -4.7344 0
M  V30 56 H 2.2102 -2.83537 -5.40777 0
M  V30 57 H 3.6242 -4.3593 -3.72341 0
M  V30 58 H 2.0212 -5.01998 -3.28813 0
M  V30 59 H 3.0912 -4.41184 -2.01209 0
M  V30 60 N 4.4343 0.785586 -1.36625 0
M  V30 61 C 5.3973 1.87999 -1.31107 0
M  V30 62 C 6.3973 1.59316 -0.217959 0
M  V30 63 O 7.5873 1.67656 -0.472977 0
M  V30 64 C 4.7193 3.24861 -1.03334 0
M  V30 65 H 5.9123 1.94307 -2.2844 0
M  V30 66 H 3.4653 0.983813 -1.21453 0
M  V30 67 H 4.2003 3.24235 -0.0647432 0
M  V30 68 H 3.9853 3.4707 -1.82441 0
M  V30 69 H 5.4753 4.04929 -1.02088 0
M  V30 70 N 5.9124 1.20967 1.01018 0
M  V30 71 C 6.8424 0.988272 2.11555 0
M  V30 72 C 7.8234 -0.0849778 1.69888 0
M  V30 73 O 9.0084 0.0738202 1.9406 0
M  V30 74 C 6.1384 0.546528 3.42973 0
M  V30 75 C 5.0924 1.56375 3.9841 0
M  V30 76 C 4.4184 0.97842 5.25672 0
M  V30 77 C 5.7184 2.94922 4.31066 0
M  V30 78 H 7.4124 1.91276 2.30334 0
M  V30 79 H 4.9584 0.921073 1.1069 0
M  V30 80 H 6.9114 0.378839 4.19694 0
M  V30 81 H 5.6354 -0.413598 3.23971 0
M  V30 82 H 4.2944 1.71891 3.23804 0
M  V30 83 H 3.9424 0.0101688 5.02999 0
M  V30 84 H 3.6424 1.65784 5.63728 0
M  V30 85 H 5.1664 0.821939 6.05043 0
M  V30 86 H 6.5804 2.8288 4.9865 0
M  V30 87 H 4.9774 3.5983 4.80253 0
M  V30 88 H 6.0474 3.4616 3.39561 0
M  V30 89 N 7.3905 -1.2043 1.01659 0
M  V30 90 C 8.3535 -2.21433 0.591616 0
M  V30 91 C 9.3535 -1.57203 -0.338226 0
M  V30 92 O 10.5435 -1.73737 -0.126918 0
M  V30 93 C 7.6755 -3.40628 -0.136058 0
M  V30 94 H 8.8685 -2.60545 1.48514 0
M  V30 95 H 6.4215 -1.33893 0.806379 0
M  V30 96 H 7.1565 -3.07019 -1.04449 0
M  V30 97 H 6.9415 -3.88475 0.531917 0
M  V30 98 H 8.4315 -4.15475 -0.420735 0
M  V30 99 N 8.8686 -0.792821 -1.36206 0
M  V30 100 C 9.7986 -0.207853 -2.32573 0
M  V30 101 C 10.7796 0.659055 -1.56813 0
M  V30 102 O 11.9646 0.592176 -1.84951 0
M  V30 103 C 9.0946 0.655449 -3.41059 0
M  V30 104 C 8.0486 -0.111842 -4.27854 0
M  V30 105 C 7.3746 0.872274 -5.27537 0
M  V30 106 C 8.6746 -1.30299 -5.05786 0
M  V30 107 H 10.3686 -1.01294 -2.81744 0
M  V30 108 H 7.9146 -0.48854 -1.3546 0
M  V30 109 H 9.8676 1.07464 -4.07467 0
M  V30 110 H 8.5916 1.49328 -2.90463 0
M  V30 111 H 7.2506 -0.512053 -3.63006 0
M  V30 112 H 6.8986 1.70523 -4.73214 0
M  V30 113 H 6.5986 0.363291 -5.86476 0
M  V30 114 H 8.1226 1.28996 -5.96818 0
M  V30 115 H 9.5366 -0.959379 -5.65216 0
M  V30 116 H 7.9336 -1.7455 -5.74154 0
M  V30 117 H 9.0036 -2.09663 -4.37229 0
M  V30 118 N 10.3467 1.47872 -0.545128 0
M  V30 119 C 11.5717 2.07391 -0.0190611 0
M  V30 120 C 11.9967 1.39688 1.25971 0
M  V30 121 O 11.3547 0.467816 1.7516 0
M  V30 122 C 11.4027 3.60188 0.172335 0
M  V30 123 O 10.5067 3.9339 1.23766 0
M  V30 124 H 9.8477 0.662411 -0.0459059 0
M  V30 125 H 12.3777 1.90066 -0.757365 0
M  V30 126 H 12.3877 4.06129 0.390305 0
M  V30 127 H 11.0627 4.08865 -0.761725 0
M  V30 128 H 9.6397 3.5921 1.00114 0
M  V30 129 N 11.8248 0.280983 1.55075 0
M  V30 130 C 12.7548 -0.597469 2.25727 0
M  V30 131 C 13.7358 -1.15417 1.24952 0
M  V30 132 O 14.9208 -1.18722 1.53684 0
M  V30 133 C 12.0508 -1.7789 2.98283 0
M  V30 134 C 11.0048 -1.35347 4.06036 0
M  V30 135 C 10.3308 -2.61846 4.66198 0
M  V30 136 C 11.6308 -0.499354 5.19907 0
M  V30 137 H 13.3248 -0.00824265 2.99399 0
M  V30 138 H 10.8708 -0.0025244 1.44 0
M  V30 139 H 12.8238 -2.39937 3.46422 0
M  V30 140 H 11.5478 -2.39405 2.22155 0
M  V30 141 H 10.2068 -0.756156 3.58717 0
M  V30 142 H 9.8548 -3.21632 3.86732 0
M  V30 143 H 9.5548 -2.3409 5.38958 0
M  V30 144 H 11.0788 -3.24732 5.1709 0
M  V30 145 H 12.4928 -1.02498 5.64063 0
M  V30 146 H 10.8898 -0.316424 5.99265 0
M  V30 147 H 11.9598 0.480459 4.82514 0
M  V30 148 N 13.3029 -1.57598 0.00835791 0
M  V30 149 C 14.5519 -1.90107 -0.673968 0
M  V30 150 C 14.8649 -0.884275 -1.7447 0
M  V30 151 O 16.0709 -1.09987 -2.48224 0
M  V30 152 C 14.5269 -3.37497 -1.24995 0
M  V30 153 C 14.1349 -4.47491 -0.2136 0
M  V30 154 C 15.8789 -3.79104 -1.90999 0
M  V30 155 C 13.7859 -5.85963 -0.80005 0
M  V30 156 H 12.7159 -0.709393 -0.255495 0
M  V30 157 H 15.3669 -1.83365 0.0702693 0
M  V30 158 H 13.7489 -3.39102 -2.04513 0
M  V30 159 H 14.9229 -4.57414 0.557596 0
M  V30 160 H 13.2379 -4.14956 0.346474 0
M  V30 161 H 15.8349 -4.79901 -2.35795 0
M  V30 162 H 16.1779 -3.1306 -2.74407 0
M  V30 163 H 16.7109 -3.79833 -1.18203 0
M  V30 164 H 13.4499 -6.555 -0.00456708 0
M  V30 165 H 12.9699 -5.79687 -1.54021 0
M  V30 166 H 14.6489 -6.33884 -1.29615 0
M  V30 167 N 14.781 0.264519 -1.55364 0
M  V30 168 C 15.744 1.31046 -1.88042 0
M  V30 169 C 16.744 1.41943 -0.755569 0
M  V30 170 O 17.934 1.40947 -1.02369 0
M  V30 171 C 15.066 2.69067 -2.09323 0
M  V30 172 H 16.259 1.03297 -2.81549 0
M  V30 173 H 13.812 0.502989 -1.47986 0
M  V30 174 H 14.547 3.01982 -1.18226 0
M  V30 175 H 14.332 2.62542 -2.91229 0
M  V30 176 H 15.822 3.44623 -2.35848 0
M  V30 177 N 16.2591 1.48442 0.529413 0
M  V30 178 C 17.4841 1.60406 1.31471 0
M  V30 179 C 17.9091 0.264738 1.86228 0
M  V30 180 O 17.2671 -0.763668 1.64432 0
M  V30 181 C 17.3151 2.65419 2.44101 0
M  V30 182 O 16.4191 2.22618 3.47153 0
M  V30 183 H 15.7601 0.537863 0.389357 0
M  V30 184 H 18.2901 1.94432 0.636965 0
M  V30 185 H 18.3001 2.86709 2.90279 0
M  V30 186 H 16.9751 3.62652 2.03608 0
M  V30 187 H 15.5521 2.11543 3.0709 0
M  V30 188 N 17.7372 -0.778329 1.37039 0
M  V30 189 C 18.9832 -1.53892 1.32079 0
M  V30 190 C 19.3162 -1.9396 -0.0965386 0
M  V30 191 O 18.5912 -1.63568 -1.05242 0
M  V30 192 C 18.8742 -2.80847 2.25382 0
M  V30 193 C 18.7272 -2.47076 3.75864 0
M  V30 194 C 20.0462 -3.82741 2.1725 0
M  V30 195 H 17.1652 -0.558303 0.48111 0
M  V30 196 H 19.8072 -0.893397 1.67685 0
M  V30 197 H 17.9572 -3.35931 1.95148 0
M  V30 198 H 19.6292 -1.97957 4.16666 0
M  V30 199 H 17.8722 -1.79863 3.94755 0
M  V30 200 H 18.5432 -3.37798 4.36574 0
M  V30 201 H 21.0192 -3.37133 2.43887 0
M  V30 202 H 19.8952 -4.69303 2.84686 0
M  V30 203 H 20.1562 -4.2652 1.16331 0
M  V30 204 N 19.2153 -1.21501 -1.00376 0
M  V30 205 C 20.1783 -0.976927 -2.07337 0
M  V30 206 C 21.1783 0.0525322 -1.60714 0
M  V30 207 O 22.3683 -0.184869 -1.73216 0
M  V30 208 C 19.5003 -0.473423 -3.37597 0
M  V30 209 H 20.6933 -1.92587 -2.29892 0
M  V30 210 H 18.2463 -1.03217 -1.17371 0
M  V30 211 H 18.9813 0.480379 -3.20722 0
M  V30 212 H 18.7663 -1.216 -3.72768 0
M  V30 213 H 20.2563 -0.32675 -4.1632 0
M  V30 214 N 20.6934 1.19889 -1.02296 0
M  V30 215 C 21.6564 2.21116 -0.603351 0
M  V30 216 C 22.6564 1.5738 0.329884 0
M  V30 217 O 23.8464 1.73802 0.117702 0
M  V30 218 C 20.9784 3.40696 0.117992 0
M  V30 219 H 22.1714 2.59754 -1.49893 0
M  V30 220 H 19.7244 1.33463 -0.813468 0
M  V30 221 H 20.4594 3.07569 1.0282 0
M  V30 222 H 20.2444 3.88188 -0.552511 0
M  V30 223 H 21.7344 4.15692 0.398696 0
M  V30 224 N 22.1715 0.800033 1.35784 0
M  V30 225 C 23.1345 0.211565 2.28221 0
M  V30 226 C 24.1345 -0.59728 1.49296 0
M  V30 227 O 25.3245 -0.416721 1.69142 0
M  V30 228 C 22.4565 -0.705846 3.33513 0
M  V30 229 H 23.6495 1.02677 2.81776 0
M  V30 230 H 21.2025 0.570211 1.45528 0
M  V30 231 H 21.9375 -1.54498 2.85133 0
M  V30 232 H 21.7225 -0.127655 3.91892 0
M  V30 233 H 23.2125 -1.11211 4.02519 0
M  V30 234 N 23.6496 -1.47581 0.552962 0
M  V30 235 C 25.0606 -1.86324 0.118463 0
M  V30 236 C 25.4116 -1.46006 -1.3106 0
M  V30 237 O 24.5366 -0.861182 -1.98526 0
M  V30 238 C 25.1316 -3.3816 0.20821 0
M  V30 239 C 23.6906 -3.7601 -0.171226 0
M  V30 240 C 22.8376 -2.71634 0.557686 0
M  V30 241 H 25.7886 -1.39159 0.762928 0
M  V30 242 H 25.8096 -3.76141 -0.574278 0
M  V30 243 H 25.3216 -3.67473 1.24841 0
M  V30 244 H 23.4226 -3.52313 -1.21269 0
M  V30 245 H 23.5356 -4.78745 0.184379 0
M  V30 246 H 21.8996 -2.547 0.00125792 0
M  V30 247 H 22.6826 -3.0379 1.59896 0
M  V30 248 N 25.1277 -0.289203 -1.54924 0
M  V30 249 C 26.3557 0.326463 -2.04308 0
M  V30 250 C 26.7707 1.48413 -1.16701 0
M  V30 251 O 26.1277 1.81507 -0.190087 0
M  V30 252 C 26.1787 0.794014 -3.52672 0
M  V30 253 O 25.8997 -0.317564 -4.36948 0
M  V30 254 C 27.4007 1.47605 -4.18004 0
M  V30 255 H 24.6207 0.0726272 -0.667058 0
M  V30 256 H 27.1647 -0.425401 -2.00026 0
M  V30 257 H 25.3197 1.49593 -3.57352 0
M  V30 258 H 25.7337 0.0443186 -5.24481 0
M  V30 259 H 27.2077 1.75447 -5.23376 0
M  V30 260 H 27.6847 2.41224 -3.67025 0
M  V30 261 H 28.2907 0.81762 -4.17367 0
M  V30 262 N 26.6058 1.57591 -0.0167156 0
M  V30 263 C 27.5688 2.08393 0.954204 0
M  V30 264 C 28.5688 0.996531 1.26198 0
M  V30 265 O 29.7588 1.25858 1.20438 0
M  V30 266 C 26.8908 2.5394 2.27436 0
M  V30 267 H 28.0838 2.95455 0.514451 0
M  V30 268 H 25.6368 1.54582 0.231089 0
M  V30 269 H 26.3718 1.70171 2.76066 0
M  V30 270 H 26.1568 3.33371 2.06412 0
M  V30 271 H 27.6468 2.93512 2.97053 0
M  V30 272 N 28.0839 -0.256276 1.55502 0
M  V30 273 C 29.0309 -1.31714 1.89526 0
M  V30 274 C 30.0009 -1.4828 0.748479 0
M  V30 275 O 31.1859 -1.62416 1.00128 0
M  V30 276 C 28.3259 -2.66933 2.18725 0
M  V30 277 C 27.4389 -2.58452 3.4616 0
M  V30 278 C 26.5739 -3.85961 3.64976 0
M  V30 279 C 25.6129 -3.72059 4.86044 0
M  V30 280 N 24.7499 -4.9144 5.01429 0
M  V30 281 H 29.5899 -1.01998 2.80001 0
M  V30 282 H 27.1269 -0.492413 1.38613 0
M  V30 283 H 29.0849 -3.4563 2.33657 0
M  V30 284 H 27.7149 -2.94816 1.31466 0
M  V30 285 H 26.7669 -1.71374 3.3961 0
M  V30 286 H 28.0789 -2.44085 4.34999 0
M  V30 287 H 27.2329 -4.73101 3.79816 0
M  V30 288 H 25.9719 -4.03215 2.74353 0
M  V30 289 H 24.9769 -2.83302 4.7119 0
M  V30 290 H 26.2019 -3.56309 5.78118 0
M  V30 291 H 24.1479 -5.09072 4.13741 0
M  V30 292 H 24.0649 -4.79668 5.84341 0
M  V30 293 H 25.3329 -5.80104 5.20672 0
M  V30 294 N 29.562 -1.4872 -0.521534 0
M  V30 295 C 30.492 -1.66771 -1.63431 0
M  V30 296 C 31.473 -0.516499 -1.62069 0
M  V30 297 O 32.658 -0.750013 -1.79132 0
M  V30 298 C 29.788 -1.71515 -3.01993 0
M  V30 299 C 28.742 -2.86222 -3.18216 0
M  V30 300 C 28.068 -2.76061 -4.57924 0
M  V30 301 C 29.368 -4.27419 -3.00184 0
M  V30 302 H 31.062 -2.59932 -1.48579 0
M  V30 303 H 28.608 -1.25089 -0.713358 0
M  V30 304 H 30.561 -1.82731 -3.7972 0
M  V30 305 H 29.285 -0.749393 -3.17886 0
M  V30 306 H 27.944 -2.74575 -2.42908 0
M  V30 307 H 27.592 -1.77437 -4.70665 0
M  V30 308 H 27.292 -3.53037 -4.69722 0
M  V30 309 H 28.816 -2.89256 -5.37739 0
M  V30 310 H 30.23 -4.39855 -3.67697 0
M  V30 311 H 28.627 -5.05458 -3.2347 0
M  V30 312 H 29.697 -4.43293 -1.96518 0
M  V30 313 N 31.0401 0.771051 -1.3745 0
M  V30 314 C 32.0031 1.86598 -1.33093 0
M  V30 315 C 33.0031 1.59076 -0.234845 0
M  V30 316 O 34.1931 1.67145 -0.490732 0
M  V30 317 C 31.3251 3.23747 -1.06773 0
M  V30 318 H 32.5181 1.91873 -2.30488 0
M  V30 319 H 30.0711 0.970876 -1.2249 0
M  V30 320 H 30.8061 3.24148 -0.099129 0
M  V30 321 H 30.5911 3.45115 -1.86112 0
M  V30 322 H 32.0811 4.03824 -1.06377 0
M  V30 323 N 32.5182 1.22032 0.997298 0
M  V30 324 C 33.4662 0.983634 2.10778 0
M  V30 325 C 34.4602 -0.0717564 1.69248 0
M  V30 326 O 35.6662 0.080304 1.79821 0
M  V30 327 H 32.0412 0.300877 0.689186 0
M  V30 328 H 34.0122 1.92606 2.27916 0
M  V30 329 C 32.7612 0.57326 3.42942 0
M  V30 330 H 32.0842 1.37702 3.75338 0
M  V30 331 H 33.5242 0.447031 4.21637 0
M  V30 332 C 31.9832 -0.7167 3.29188 0
M  V30 333 O 32.5132 -1.77027 3.60589 0
M  V30 334 N 30.7192 -0.686167 2.82383 0
M  V30 335 H 30.2662 0.171507 2.57028 0
M  V30 336 H 30.2242 -1.54955 2.73562 0
M  V30 337 N 33.9963 -1.19345 1.0293 0
M  V30 338 C 35.2443 -1.88665 0.724574 0
M  V30 339 C 35.5653 -1.80036 -0.749144 0
M  V30 340 O 34.8353 -1.2111 -1.53978 0
M  V30 341 H 33.4153 -0.698406 0.265025 0
M  V30 342 H 36.0773 -1.44885 1.30362 0
M  V30 343 H 35.1733 -2.94987 1.01926 0
M  V30 344 N 35.4744 -0.807222 -1.35358 0
M  V30 345 C 36.7514 -0.311126 -1.9311 0
M  V30 346 C 37.1314 1.19937 -1.73719 0
M  V30 347 O 36.4794 1.99918 -1.10657 0
M  V30 348 C 36.6894 -0.723226 -3.41424 0
M  V30 349 C 38.0374 -0.713078 -4.18569 0
M  V30 350 O 39.0614 -0.664811 -3.49941 0
M  V30 351 O 37.9204 -0.772022 -5.41019 0
M  V30 352 H 35.0144 -0.081526 -0.822972 0
M  V30 353 H 37.5604 -0.890962 -1.4443 0
M  V30 354 H 36.3324 -1.76426 -3.4927 0
M  V30 355 H 35.9554 -0.118232 -3.97424 0
M  V30 356 N 36.9525 1.47285 -0.560781 0
M  V30 357 C 38.1805 2.06855 -0.0430262 0
M  V30 358 C 38.5955 1.41291 1.25229 0
M  V30 359 O 37.9525 0.510648 1.7521 0
M  V30 360 C 38.0035 3.61178 0.152518 0
M  V30 361 O 37.7245 4.24285 -1.0915 0
M  V30 362 C 39.2255 4.37624 0.707145 0
M  V30 363 H 36.4455 0.669319 -0.0474652 0
M  V30 364 H 38.9895 1.89237 -0.77521 0
M  V30 365 H 37.1445 3.78298 0.834843 0
M  V30 366 H 37.5585 5.16868 -0.891482 0
M  V30 367 H 39.0325 5.46271 0.793244 0
M  V30 368 H 39.5095 4.04152 1.71923 0
M  V30 369 H 40.1155 4.25257 0.0604027 0
M  V30 370 N 38.4306 0.297415 1.54768 0
M  V30 371 C 39.6796 -0.313669 1.99246 0
M  V30 372 C 39.9926 -1.55281 1.18942 0
M  V30 373 O 41.1986 -2.23825 1.5367 0
M  V30 374 C 39.6546 -0.609407 3.54703 0
M  V30 375 C 39.2626 0.611192 4.43811 0
M  V30 376 C 41.0066 -1.18188 4.07715 0
M  V30 377 C 38.9136 0.288805 5.90694 0
M  V30 378 H 37.8436 -0.120979 0.744231 0
M  V30 379 H 40.4946 0.40556 1.78962 0
M  V30 380 H 38.8766 -1.38813 3.70873 0
M  V30 381 H 40.0506 1.3875 4.39414 0
M  V30 382 H 38.3656 1.10205 4.01552 0
M  V30 383 H 40.9626 -1.43727 5.15021 0
M  V30 384 H 41.3056 -2.12299 3.58099 0
M  V30 385 H 41.8386 -0.464944 3.95074 0
M  V30 386 H 38.5776 1.19838 6.44453 0
M  V30 387 H 38.0976 -0.450305 5.98107 0
M  V30 388 H 39.7766 -0.110933 6.46905 0
M  V30 389 N 39.9087 -1.5758 0.0250728 0
M  V30 390 C 41.1367 -1.9593 -0.664747 0
M  V30 391 C 41.5517 -0.901352 -1.65895 0
M  V30 392 O 40.9087 0.117255 -1.82123 0
M  V30 393 C 40.9597 -3.34342 -1.37468 0
M  V30 394 O 40.6807 -4.36079 -0.420324 0
M  V30 395 C 42.1817 -3.873 -2.1567 0
M  V30 396 H 39.4017 -0.645405 -0.183557 0
M  V30 397 H 41.9457 -2.04329 0.0836372 0
M  V30 398 H 40.1007 -3.27175 -2.0745 0
M  V30 399 H 40.5147 -5.16297 -0.923991 0
M  V30 400 H 41.9887 -4.86504 -2.60803 0
M  V30 401 H 42.4657 -3.21331 -2.99405 0
M  V30 402 H 43.0717 -3.97723 -1.50654 0
M  V30 403 N 41.3868 0.248026 -1.55636 0
M  V30 404 C 42.6348 0.974295 -1.77065 0
M  V30 405 C 42.9558 1.85897 -0.588849 0
M  V30 406 O 42.2258 1.91868 0.395407 0
M  V30 407 H 40.8058 0.362733 -0.653019 0
M  V30 408 H 43.4678 0.266244 -1.93073 0
M  V30 409 H 42.5638 1.59667 -2.68166 0
M  V30 410 N 42.8649 1.48995 0.513639 0
M  V30 411 C 43.7949 1.67636 1.62544 0
M  V30 412 C 44.7759 0.525087 1.61793 0
M  V30 413 O 45.9609 0.759502 1.78732 0
M  V30 414 C 43.0909 1.73114 3.01079 0
M  V30 415 C 42.0449 2.87905 3.16693 0
M  V30 416 C 41.3709 2.78486 4.56453 0
M  V30 417 C 42.6709 4.29005 2.97913 0
M  V30 418 H 44.3649 2.60716 1.47198 0
M  V30 419 H 41.9109 1.25465 0.706714 0
M  V30 420 H 43.8639 1.84742 3.78746 0
M  V30 421 H 42.5879 0.766241 3.17484 0
M  V30 422 H 41.2469 2.75859 2.41448 0
M  V30 423 H 40.8949 1.7993 4.69717 0
M  V30 424 H 40.5949 3.55523 4.67843 0
M  V30 425 H 42.1189 2.92104 5.36197 0
M  V30 426 H 43.5329 4.41798 3.65359 0
M  V30 427 H 41.9299 5.07166 3.20785 0
M  V30 428 H 42.9999 4.44329 1.94165 0
M  V30 429 N 44.343 -0.763751 1.37857 0
M  V30 430 C 45.291 -1.89864 1.34367 0
M  V30 431 C 46.285 -1.67816 0.231143 0
M  V30 432 O 47.491 -1.75508 0.399617 0
M  V30 433 H 43.866 -0.624501 0.41893 0
M  V30 434 H 45.837 -1.89925 2.30155 0
M  V30 435 C 44.586 -3.27227 1.1755 0
M  V30 436 H 43.909 -3.44773 2.02414 0
M  V30 437 H 45.349 -4.06911 1.1916 0
M  V30 438 C 43.808 -3.36692 -0.118311 0
M  V30 439 O 44.338 -3.86374 -1.09902 0
M  V30 440 N 42.544 -2.90092 -0.171717 0
M  V30 441 H 42.091 -2.49853 0.627012 0
M  V30 442 H 42.049 -2.96806 -1.03699 0
M  V30 443 N 45.8211 -1.22559 -0.990812 0
M  V30 444 C 46.7841 -0.998863 -2.0629 0
M  V30 445 C 47.7841 0.0354834 -1.60761 0
M  V30 446 O 48.9741 -0.203231 -1.7301 0
M  V30 447 C 46.1061 -0.509203 -3.37076 0
M  V30 448 H 47.2991 -1.95014 -2.27837 0
M  V30 449 H 44.8521 -1.04456 -1.16269 0
M  V30 450 H 45.5871 0.446335 -3.21214 0
M  V30 451 H 45.3721 -1.25547 -3.71457 0
M  V30 452 H 46.8621 -0.370888 -4.1595 0
M  V30 453 N 47.2992 1.18797 -1.03562 0
M  V30 454 C 48.5482 1.87978 -0.731235 0
M  V30 455 C 48.8612 1.80911 0.743671 0
M  V30 456 O 50.0672 2.45407 1.16137 0
M  V30 457 C 48.5232 3.3721 -1.25768 0
M  V30 458 C 48.1312 3.52818 -2.76085 0
M  V30 459 C 49.8752 4.11825 -1.0296 0
M  V30 460 C 47.7822 4.9598 -3.22114 0
M  V30 461 H 46.7122 0.704063 -0.269835 0
M  V30 462 H 49.3632 1.34266 -1.25079 0
M  V30 463 H 47.7452 3.90359 -0.666011 0
M  V30 464 H 48.9192 3.09965 -3.40966 0
M  V30 465 H 47.2342 2.91602 -2.97249 0
M  V30 466 H 49.8312 5.17411 -1.34869 0
M  V30 467 H 50.1742 4.16287 0.0333546 0
M  V30 468 H 50.7072 3.64833 -1.58562 0
M  V30 469 H 47.4462 4.96684 -4.27768 0
M  V30 470 H 46.9662 5.39569 -2.61965 0
M  V30 471 H 48.6452 5.6467 -3.15844 0
M  V30 472 N 48.7773 0.814389 1.34928 0
M  V30 473 C 50.0263 0.394871 1.97797 0
M  V30 474 C 50.3393 -1.04555 1.65311 0
M  V30 475 O 51.5453 -1.56856 2.21604 0
M  V30 476 C 50.0013 0.655103 3.53888 0
M  V30 477 C 49.6093 2.10858 3.95276 0
M  V30 478 C 51.3533 0.301329 4.23429 0
M  V30 479 C 49.2603 2.31415 5.44244 0
M  V30 480 H 48.1903 0.143913 0.740139 0
M  V30 481 H 50.8413 0.999544 1.53888 0
M  V30 482 H 49.2233 -0.0196253 3.95995 0
M  V30 483 H 50.3973 2.82176 3.64298 0
M  V30 484 H 48.7123 2.42297 3.38646 0
M  V30 485 H 51.3093 0.432869 5.32945 0
M  V30 486 H 51.6523 -0.75331 4.09428 0
M  V30 487 H 52.1853 0.930288 3.86769 0
M  V30 488 H 48.9243 3.35353 5.63222 0
M  V30 489 H 48.4443 1.6463 5.76764 0
M  V30 490 H 50.1233 2.13352 6.10811 0
M  V30 491 N 50.2554 -1.46986 0.568584 0
M  V30 492 C 51.2034 -2.31858 -0.185649 0
M  V30 493 C 52.1974 -1.43624 -0.898249 0
M  V30 494 O 53.4034 -1.60327 -0.818242 0
M  V30 495 H 49.7784 -0.747866 -0.0787399 0
M  V30 496 H 51.7494 -2.93303 0.549191 0
M  V30 497 C 50.4984 -3.26513 -1.19519 0
M  V30 498 H 49.8214 -3.94377 -0.656285 0
M  V30 499 H 51.2614 -3.88707 -1.6936 0
M  V30 500 C 49.7204 -2.50847 -2.24894 0
M  V30 501 O 50.2504 -2.26119 -3.32014 0
M  V30 502 N 48.4564 -2.11656 -1.99124 0
M  V30 503 H 48.0034 -2.31966 -1.12024 0
M  V30 504 H 47.9614 -1.61347 -2.69842 0
M  V30 505 N 51.7335 -0.305618 -1.54608 0
M  V30 506 C 52.6435 0.57778 -2.27374 0
M  V30 507 C 53.6595 1.14451 -1.31061 0
M  V30 508 O 54.8355 1.16831 -1.6405 0
M  V30 509 C 51.9005 1.73123 -3.00382 0
M  V30 510 C 50.9615 1.19812 -4.12242 0
M  V30 511 C 50.1945 2.2966 -4.81759 0
M  V30 512 O 50.4175 3.49651 -4.50666 0
M  V30 513 O 49.3515 1.96091 -5.69062 0
M  V30 514 H 53.1775 -0.012624 -3.03697 0
M  V30 515 H 50.7625 -0.0719184 -1.49227 0
M  V30 516 H 52.6445 2.40315 -3.4616 0
M  V30 517 H 51.3195 2.30815 -2.26949 0
M  V30 518 H 50.2265 0.491798 -3.70853 0
M  V30 519 H 51.5595 0.666566 -4.87666 0
M  V30 520 N 53.2116 1.57565 -0.0334293 0
M  V30 521 C 54.1746 2.09393 0.932048 0
M  V30 522 C 55.1746 1.00986 1.25134 0
M  V30 523 O 56.3646 1.27129 1.19096 0
M  V30 524 C 53.4966 2.56338 2.2473 0
M  V30 525 H 54.6896 2.95984 0.483085 0
M  V30 526 H 52.2426 1.54819 0.21468 0
M  V30 527 H 52.9776 1.7309 2.74245 0
M  V30 528 H 52.7626 3.35542 2.02865 0
M  V30 529 H 54.2526 2.96646 2.93923 0
M  V30 530 N 54.6897 -0.239769 1.55765 0
M  V30 531 C 55.9367 -0.966801 1.7793 0
M  V30 532 C 56.2647 -1.85046 0.599015 0
M  V30 533 O 55.5197 -1.91197 -0.417395 0
M  V30 534 C 55.8187 -1.852 3.05672 0
M  V30 535 C 55.4847 -1.1231 4.36689 0
M  V30 536 C 54.1467 -0.921689 4.72291 0
M  V30 537 C 56.4987 -0.607019 5.17653 0
M  V30 538 C 53.8267 -0.191996 5.86386 0
M  V30 539 C 56.1787 0.109241 6.32506 0
M  V30 540 C 54.8427 0.322073 6.66723 0
M  V30 541 H 54.1127 -0.353778 0.651093 0
M  V30 542 H 56.7597 -0.23634 1.90036 0
M  V30 543 H 55.0647 -2.64975 2.8861 0
M  V30 544 H 56.7617 -2.41635 3.20021 0
M  V30 545 H 53.3517 -1.29004 4.08725 0
M  V30 546 H 57.5357 -0.750153 4.90598 0
M  V30 547 H 52.7917 -0.0166949 6.11398 0
M  V30 548 H 56.9657 0.516737 6.9448 0
M  V30 549 H 54.5927 0.88944 7.54979 0
M  V30 550 N 56.1678 -1.49265 -0.50573 0
M  V30 551 C 57.0978 -1.68495 -1.61653 0
M  V30 552 C 58.0788 -0.53366 -1.61512 0
M  V30 553 O 59.2638 -0.76897 -1.78327 0
M  V30 554 C 56.3938 -1.74709 -3.00157 0
M  V30 555 C 55.3478 -2.89581 -3.15162 0
M  V30 556 C 54.6738 -2.80903 -4.5497 0
M  V30 557 C 55.9738 -4.30578 -2.95634 0
M  V30 558 H 57.6678 -2.61493 -1.45814 0
M  V30 559 H 55.2138 -1.25838 -0.70005 0
M  V30 560 H 57.1668 -1.86748 -3.77761 0
M  V30 561 H 55.8908 -0.783067 -3.17074 0
M  V30 562 H 54.5498 -2.77136 -2.39982 0
M  V30 563 H 54.1978 -1.82419 -4.68756 0
M  V30 564 H 53.8978 -3.57999 -4.65951 0
M  V30 565 H 55.4218 -2.94944 -5.34641 0
M  V30 566 H 56.8358 -4.4373 -3.63011 0
M  V30 567 H 55.2328 -5.0886 -3.18091 0
M  V30 568 H 56.3028 -4.45352 -1.91806 0
M  V30 569 N 57.6459 0.756429 -1.3826 0
M  V30 570 C 58.8939 1.51248 -1.34047 0
M  V30 571 C 59.2149 1.94875 0.0698372 0
M  V30 572 O 58.4849 1.67436 1.01696 0
M  V30 573 H 57.0649 0.561018 -0.493222 0
M  V30 574 H 59.7269 0.899347 -1.7291 0
M  V30 575 H 58.8229 2.40472 -1.98947 0
M  V30 576 N 59.124 1.23083 0.984299 0
M  V30 577 C 60.373 1.05466 1.71929 0
M  V30 578 C 60.686 -0.409211 1.91272 0
M  V30 579 O 61.892 -0.705226 2.62181 0
M  V30 580 C 60.348 1.83874 3.09384 0
M  V30 581 C 59.956 3.34566 2.97943 0
M  V30 582 C 61.7 1.74734 3.8687 0
M  V30 583 C 59.607 4.05381 4.30605 0
M  V30 584 H 58.537 0.391039 0.644674 0
M  V30 585 H 61.188 1.47013 1.09815 0
M  V30 586 H 59.57 1.35131 3.72231 0
M  V30 587 H 60.744 3.90767 2.44209 0
M  V30 588 H 59.059 3.44476 2.33934 0
M  V30 589 H 61.656 2.24957 4.85076 0
M  V30 590 H 61.999 0.709372 4.10212 0
M  V30 591 H 62.532 2.21067 3.30717 0
M  V30 592 H 59.271 5.09467 4.1246 0
M  V30 593 H 58.791 3.53967 4.84218 0
M  V30 594 H 60.47 4.11458 4.99311 0
M  V30 595 N 60.6021 -1.18246 1.0419 0
M  V30 596 C 62.0131 -1.69914 0.773698 0
M  V30 597 C 62.3641 -1.83085 -0.705297 0
M  V30 598 O 61.4891 -1.51123 -1.5489 0
M  V30 599 C 62.0841 -3.08619 1.39784 0
M  V30 600 C 60.6431 -3.57494 1.17792 0
M  V30 601 C 59.7901 -2.34013 1.48773 0
M  V30 602 H 62.7411 -1.02904 1.20816 0
M  V30 603 H 62.7621 -3.71958 0.801714 0
M  V30 604 H 62.2741 -2.99001 2.47426 0
M  V30 605 H 60.3751 -3.72406 0.120295 0
M  V30 606 H 60.4881 -4.40852 1.87581 0
M  V30 607 H 58.8521 -2.37986 0.907463 0
M  V30 608 H 59.6351 -2.27013 2.57527 0
M  V30 609 N 62.0802 -0.821533 -1.34494 0
M  V30 610 C 63.3272 -0.408946 -1.98328 0
M  V30 611 C 63.6552 1.02764 -1.65136 0
M  V30 612 O 62.9102 1.73026 -0.914349 0
M  V30 613 C 63.2092 -0.556512 -3.53041 0
M  V30 614 C 62.8752 -1.95861 -4.0614 0
M  V30 615 C 61.5372 -2.34217 -4.20352 0
M  V30 616 C 63.8892 -2.87523 -4.34718 0
M  V30 617 C 61.2172 -3.63572 -4.6047 0
M  V30 618 C 63.5692 -4.1634 -4.76281 0
M  V30 619 C 62.2332 -4.54675 -4.88699 0
M  V30 620 H 61.5032 -0.149644 -0.725732 0
M  V30 621 H 64.1502 -1.04521 -1.6046 0
M  V30 622 H 62.4552 0.163148 -3.9146 0
M  V30 623 H 64.1522 -0.217826 -4.00408 0
M  V30 624 H 60.7422 -1.65066 -3.95539 0
M  V30 625 H 64.9262 -2.59133 -4.23277 0
M  V30 626 H 60.1822 -3.93101 -4.68275 0
M  V30 627 H 64.3562 -4.87455 -4.97354 0
M  V30 628 H 61.9832 -5.54959 -5.19542 0
M  V30 629 N 63.5583 1.46682 -0.576371 0
M  V30 630 C 64.5213 2.28707 0.150239 0
M  V30 631 C 65.5213 1.38035 0.824794 0
M  V30 632 O 66.7113 1.60476 0.677719 0
M  V30 633 C 63.8433 3.18248 1.22192 0
M  V30 634 H 65.0363 2.94423 -0.570521 0
M  V30 635 H 62.5893 1.52688 -0.334078 0
M  V30 636 H 63.3243 2.57265 1.97447 0
M  V30 637 H 63.1093 3.85 0.742812 0
M  V30 638 H 64.5993 3.80001 1.73172 0
M  V30 639 N 65.0364 0.313813 1.54444 0
M  V30 640 C 65.9464 -0.565714 2.27677 0
M  V30 641 C 66.9624 -1.13754 1.31666 0
M  V30 642 O 68.1384 -1.15959 1.64668 0
M  V30 643 C 65.2034 -1.71528 3.01296 0
M  V30 644 C 64.2644 -1.17624 4.12872 0
M  V30 645 C 63.4974 -2.27102 4.8297 0
M  V30 646 O 63.7204 -3.47256 4.52514 0
M  V30 647 O 62.6544 -1.9307 5.70094 0
M  V30 648 H 66.4804 0.0287296 3.03686 0
M  V30 649 H 64.0654 0.0798312 1.49187 0
M  V30 650 H 65.9474 -2.38476 3.4743 0
M  V30 651 H 64.6224 -2.29608 2.2817 0
M  V30 652 H 63.5294 -0.472124 3.71109 0
M  V30 653 H 64.8624 -0.640695 4.88012 0
M  V30 654 N 66.5145 -1.57545 0.0417849 0
M  V30 655 C 67.9255 -1.80011 -0.495259 0
M  V30 656 C 68.2765 -0.953199 -1.71489 0
M  V30 657 O 67.4015 -0.167138 -2.15754 0
M  V30 658 C 67.9965 -3.26482 -0.905265 0
M  V30 659 C 66.5555 -3.499 -1.38734 0
M  V30 660 C 65.7025 -2.74979 -0.358056 0
M  V30 661 H 68.6535 -1.56425 0.267736 0
M  V30 662 H 68.6745 -3.36887 -1.76882 0
M  V30 663 H 68.1865 -3.88096 -0.017401 0
M  V30 664 H 66.2875 -2.93553 -2.29471 0
M  V30 665 H 66.4005 -4.58615 -1.38598 0
M  V30 666 H 64.7645 -2.40834 -0.828912 0
M  V30 667 H 65.5475 -3.39315 0.521561 0
M  V30 668 N 67.9926 0.231505 -1.5589 0
M  V30 669 C 69.4036 0.799327 -1.68724 0
M  V30 670 C 69.7546 1.85398 -0.642022 0
M  V30 671 O 68.8796 2.1539 0.208784 0
M  V30 672 C 69.4746 1.45664 -3.05888 0
M  V30 673 C 68.0336 1.97197 -3.20609 0
M  V30 674 C 67.1806 0.828552 -2.64632 0
M  V30 675 H 70.1316 0.00702616 -1.58698 0
M  V30 676 H 70.1526 2.32517 -3.01191 0
M  V30 677 H 69.6646 0.688808 -3.81939 0
M  V30 678 H 67.7656 2.76813 -2.4941 0
M  V30 679 H 67.8786 2.15878 -4.27707 0
M  V30 680 H 66.2426 1.23321 -2.22854 0
M  V30 681 H 67.0256 0.0735544 -3.43221 0
M  V30 682 N 69.4707 1.49531 0.497807 0
M  V30 683 C 70.7167 1.59415 1.25358 0
M  V30 684 C 71.0497 0.281422 1.9215 0
M  V30 685 O 70.3247 -0.715249 1.80871 0
M  V30 686 C 70.6077 2.75566 2.3181 0
M  V30 687 C 70.4607 4.16642 1.69498 0
M  V30 688 C 71.7797 2.87347 3.33346 0
M  V30 689 H 68.8987 0.580244 0.454408 0
M  V30 690 H 71.5407 1.81827 0.551262 0
M  V30 691 H 69.6907 2.56587 2.91711 0
M  V30 692 H 71.3627 4.47145 1.13399 0
M  V30 693 H 69.6057 4.22141 0.998978 0
M  V30 694 H 70.2767 4.93792 2.46725 0
M  V30 695 H 72.7527 3.04634 2.83438 0
M  V30 696 H 71.6287 3.70289 4.05188 0
M  V30 697 H 71.8897 1.96834 3.95865 0
M  V30 698 N 70.9488 -0.749086 1.3866 0
M  V30 699 C 72.1968 -1.50535 1.34847 0
M  V30 700 C 72.5178 -1.94909 -0.0595016 0
M  V30 701 O 71.7878 -1.67973 -1.00806 0
M  V30 702 H 70.3678 -0.558395 0.49619 0
M  V30 703 H 73.0298 -0.890165 1.73384 0
M  V30 704 H 72.1258 -2.39413 2.00219 0
M  V30 705 N 72.4269 -1.23603 -0.977757 0
M  V30 706 C 73.3749 -1.01704 -2.09187 0
M  V30 707 C 74.3689 0.0448214 -1.69341 0
M  V30 708 O 75.5749 -0.108902 -1.7967 0
M  V30 709 H 71.9499 -0.311803 -0.684312 0
M  V30 710 H 73.9209 -1.96207 -2.24823 0
M  V30 711 C 72.6699 -0.627746 -3.41986 0
M  V30 712 H 71.9929 -1.43656 -3.73099 0
M  V30 713 H 73.4329 -0.514053 -4.20872 0
M  V30 714 C 71.8919 0.664238 -3.30287 0
M  V30 715 O 72.4219 1.71268 -3.6336 0
M  V30 716 N 70.6279 0.641156 -2.83439 0
M  V30 717 H 70.1749 -0.212376 -2.56723 0
M  V30 718 H 70.1329 1.50583 -2.75993 0
M  V30 719 N 73.905 1.17692 -1.04816 0
M  V30 720 C 74.835 2.23777 -0.666791 0
M  V30 721 C 75.816 1.66796 0.33361 0
M  V30 722 O 77.001 1.93039 0.212042 0
M  V30 723 C 74.131 3.47281 -0.0367933 0
M  V30 724 C 73.085 4.17059 -0.961546 0
M  V30 725 C 72.411 5.34342 -0.195626 0
M  V30 726 C 73.711 4.69713 -2.28402 0
M  V30 727 H 75.405 2.55933 -1.55367 0
M  V30 728 H 72.951 1.23019 -0.748484 0
M  V30 729 H 74.904 4.20706 0.241775 0
M  V30 730 H 73.628 3.14381 0.885004 0
M  V30 731 H 72.287 3.45541 -1.22462 0
M  V30 732 H 71.935 4.97692 0.728816 0
M  V30 733 H 71.635 5.81966 -0.811775 0
M  V30 734 H 73.159 6.10553 0.0757473 0
M  V30 735 H 74.573 5.34794 -2.06563 0
M  V30 736 H 72.97 5.279 -2.8538 0
M  V30 737 H 74.04 3.86726 -2.92525 0
M  V30 738 N 75.3831 0.828654 1.34056 0
M  V30 739 C 76.7991 0.515135 1.51058 0
M  V30 740 C 76.9991 -0.959581 1.77184 0
M  V30 741 O 76.0551 -1.74382 1.82612 0
M  V30 742 C 77.3681 1.37963 2.67183 0
M  V30 743 C 78.9161 1.37735 2.81066 0
M  V30 744 C 79.3911 2.22645 4.00241 0
M  V30 745 N 80.8821 2.203 4.07458 0
M  V30 746 C 81.6171 2.82744 4.98842 0
M  V30 747 N 81.1131 3.54201 5.9541 0
M  V30 748 N 82.9061 2.72268 4.91759 0
M  V30 749 H 75.0571 1.78343 1.15358 0
M  V30 750 H 77.3201 0.760304 0.566252 0
M  V30 751 H 77.0261 2.42714 2.54525 0
M  V30 752 H 76.9001 1.0484 3.62338 0
M  V30 753 H 79.2871 0.337593 2.93163 0
M  V30 754 H 79.3681 1.74859 1.86703 0
M  V30 755 H 79.0121 3.26674 3.88905 0
M  V30 756 H 78.9421 1.82869 4.93829 0
M  V30 757 H 81.4331 1.68327 3.38341 0
M  V30 758 H 81.7461 3.9908 6.61782 0
M  V30 759 H 80.0911 3.58308 5.95517 0
M  V30 760 H 83.2821 2.16014 4.15278 0
M  V30 761 H 83.4551 3.21219 5.62781 0
M  V30 762 N 76.8612 -1.46375 0.584142 0
M  V30 763 C 78.1082 -2.02378 0.0702675 0
M  V30 764 C 78.4362 -1.45545 -1.29023 0
M  V30 765 O 77.6912 -0.610967 -1.85918 0
M  V30 766 C 77.9902 -3.57373 -0.0439342 0
M  V30 767 C 77.6562 -4.33252 1.24915 0
M  V30 768 C 76.3182 -4.53701 1.60341 0
M  V30 769 C 78.6702 -4.7681 2.1048 0
M  V30 770 C 75.9982 -5.1496 2.81128 0
M  V30 771 C 78.3502 -5.39404 3.30494 0
M  V30 772 C 77.0142 -5.5808 3.66201 0
M  V30 773 H 76.2842 -0.740554 0.0257127 0
M  V30 774 H 78.9312 -1.75727 0.761065 0
M  V30 775 H 77.2362 -3.83169 -0.817869 0
M  V30 776 H 78.9332 -3.98384 -0.457318 0
M  V30 777 H 75.5232 -4.17633 0.963364 0
M  V30 778 H 79.7072 -4.60766 1.84414 0
M  V30 779 H 74.9632 -5.27611 3.08928 0
M  V30 780 H 79.1372 -5.72114 3.97063 0
M  V30 781 H 76.7642 -6.05318 4.59885 0
M  V30 782 N 78.3393 -0.321999 -1.54275 0
M  V30 783 C 79.2863 0.544664 -2.24281 0
M  V30 784 C 80.2563 1.1129 -1.23303 0
M  V30 785 O 81.4413 1.15354 -1.51981 0
M  V30 786 C 78.5813 1.70045 -3.00298 0
M  V30 787 C 77.6943 1.16159 -4.1609 0
M  V30 788 C 76.8293 2.28293 -4.79641 0
M  V30 789 C 75.8683 1.71648 -5.8754 0
M  V30 790 N 75.0053 2.77438 -6.44959 0
M  V30 791 H 79.8453 -0.0588907 -2.97942 0
M  V30 792 H 77.3823 -0.0408345 -1.47043 0
M  V30 793 H 79.3403 2.38054 -3.42616 0
M  V30 794 H 77.9703 2.27531 -2.28975 0
M  V30 795 H 77.0223 0.373092 -3.78566 0
M  V30 796 H 78.3343 0.707087 -4.93763 0
M  V30 797 H 77.4883 3.0421 -5.2492 0
M  V30 798 H 76.2273 2.77079 -4.01346 0
M  V30 799 H 75.2323 0.942282 -5.41665 0
M  V30 800 H 76.4573 1.23741 -6.67731 0
M  V30 801 H 74.4033 3.25519 -5.69538 0
M  V30 802 H 74.3203 2.36547 -7.1804 0
M  V30 803 H 75.5883 3.53189 -6.94894 0
M  V30 804 N 79.8174 1.5752 -0.0501392 0
M  V30 805 C 81.0944 1.83996 0.663685 0
M  V30 806 C 81.4744 0.938339 1.89099 0
M  V30 807 O 80.8224 -0.00087759 2.285 0
M  V30 808 C 81.0324 3.33702 1.02196 0
M  V30 809 C 82.3804 4.00691 1.40469 0
M  V30 810 O 83.4044 3.38321 1.11433 0
M  V30 811 O 82.2634 5.10658 1.94654 0
M  V30 812 H 79.3574 0.759385 0.32751 0
M  V30 813 H 81.9034 1.69514 -0.0794238 0
M  V30 814 H 80.6754 3.91015 0.149364 0
M  V30 815 H 80.2984 3.53368 1.82255 0
M  V30 816 N 81.2955 -0.223234 1.56011 0
M  V30 817 C 82.7065 -0.790368 1.69145 0
M  V30 818 C 83.0575 -1.85055 0.651845 0
M  V30 819 O 82.1825 -2.15498 -0.197359 0
M  V30 820 C 82.7775 -1.4404 3.06656 0
M  V30 821 C 81.3365 -1.95494 3.2165 0
M  V30 822 C 80.4835 -0.814506 2.65068 0
M  V30 823 H 83.4345 0.00139011 1.587 0
M  V30 824 H 83.4555 -2.30916 3.0242 0
M  V30 825 H 82.9675 -0.668543 3.82298 0
M  V30 826 H 81.0685 -2.75487 2.50874 0
M  V30 827 H 81.1815 -2.13607 4.28846 0
M  V30 828 H 79.5455 -1.22137 2.23505 0
M  V30 829 H 80.3285 -0.0553515 3.43255 0
M  V30 830 N 82.7736 -1.49793 -0.48987 0
M  V30 831 C 84.0196 -1.60078 -1.24511 0
M  V30 832 C 84.3526 -0.291608 -1.91998 0
M  V30 833 O 83.6276 0.705647 -1.81248 0
M  V30 834 C 83.9106 -2.76791 -2.30345 0
M  V30 835 C 83.7636 -4.17535 -1.67286 0
M  V30 836 C 85.0826 -2.89111 -3.31817 0
M  V30 837 H 82.2016 -0.582645 -0.451324 0
M  V30 838 H 84.8436 -1.82117 -0.541612 0
M  V30 839 H 82.9936 -2.5813 -2.90346 0
M  V30 840 H 84.6656 -4.4774 -1.11026 0
M  V30 841 H 82.9086 -4.22665 -0.976577 0
M  V30 842 H 83.5796 -4.95094 -2.44103 0
M  V30 843 H 86.0556 -3.06133 -2.81819 0
M  V30 844 H 84.9316 -3.72433 -4.03219 0
M  V30 845 H 85.1926 -1.9893 -3.94815 0
M  V30 846 N 84.2517 0.741722 -1.39055 0
M  V30 847 C 85.6627 1.31966 -1.32068 0
M  V30 848 C 86.0137 1.96192 0.0180797 0
M  V30 849 O 85.1387 1.95861 0.920196 0
M  V30 850 C 85.7337 2.39954 -2.39181 0
M  V30 851 C 84.2927 2.93438 -2.35735 0
M  V30 852 C 83.4397 1.66936 -2.21422 0
M  V30 853 H 86.3907 0.539721 -1.4924 0
M  V30 854 H 86.4117 3.20182 -2.05581 0
M  V30 855 H 85.9237 1.9318 -3.36605 0
M  V30 856 H 84.0247 3.4451 -1.41929 0
M  V30 857 H 84.1377 3.4701 -3.30335 0
M  V30 858 H 82.5017 1.91016 -1.68478 0
M  V30 859 H 83.2847 1.22224 -3.20806 0
M  V30 860 N 85.7298 1.2412 0.971189 0
M  V30 861 C 86.9598 1.10415 1.7462 0
M  V30 862 C 87.3678 -0.346462 1.86001 0
M  V30 863 O 86.7108 -1.25104 1.34517 0
M  V30 864 C 86.7728 1.66596 3.18568 0
M  V30 865 C 86.4368 3.15446 3.3067 0
M  V30 866 C 87.4338 4.12636 3.16271 0
M  V30 867 C 85.1188 3.55337 3.55022 0
M  V30 868 C 87.1128 5.47699 3.26044 0
M  V30 869 C 84.7998 4.90542 3.64434 0
M  V30 870 C 85.7978 5.86532 3.49956 0
M  V30 871 O 85.4858 7.19279 3.59017 0
M  V30 872 H 85.2178 0.386616 0.55453 0
M  V30 873 H 87.7718 1.64633 1.22821 0
M  V30 874 H 86.0018 1.06808 3.71657 0
M  V30 875 H 87.6908 1.48232 3.77865 0
M  V30 876 H 88.4568 3.8316 2.97344 0
M  V30 877 H 84.3358 2.8113 3.65359 0
M  V30 878 H 87.8798 6.22603 3.14661 0
M  V30 879 H 83.7768 5.19691 3.82873 0
M  V30 880 H 84.5448 7.27153 3.75754 0
M  V30 881 N 87.2079 -1.17134 1.05439 0
M  V30 882 C 88.4329 -1.91913 0.786396 0
M  V30 883 C 88.8579 -1.7643 -0.652234 0
M  V30 884 O 88.2159 -1.08372 -1.45345 0
M  V30 885 C 88.2639 -3.40921 1.17497 0
M  V30 886 O 87.3679 -4.11244 0.308589 0
M  V30 887 H 86.7089 -0.598215 0.288158 0
M  V30 888 H 89.2389 -1.48457 1.4079 0
M  V30 889 H 89.2489 -3.91668 1.14281 0
M  V30 890 H 87.9239 -3.5151 2.22292 0
M  V30 891 H 86.5009 -3.70731 0.40157 0
M  V30 892 N 88.686 -0.835752 -1.33615 0
M  V30 893 C 89.934 -0.429109 -1.97492 0
M  V30 894 C 90.255 1.01433 -1.66543 0
M  V30 895 O 89.525 1.70611 -0.962744 0
M  V30 896 H 88.105 -0.155686 -0.730596 0
M  V30 897 H 90.767 -1.06802 -1.63031 0
M  V30 898 H 89.863 -0.55861 -3.0706 0
M  V30 899 N 90.1641 1.46063 -0.591896 0
M  V30 900 C 91.3891 2.07226 -0.0850314 0
M  V30 901 C 91.8141 1.43625 1.21463 0
M  V30 902 O 91.1721 0.523305 1.73583 0
M  V30 903 C 91.2201 3.60554 0.0576567 0
M  V30 904 O 90.3241 3.97128 1.11188 0
M  V30 905 H 89.6651 0.660615 -0.0669568 0
M  V30 906 H 92.1951 1.8756 -0.81745 0
M  V30 907 H 92.2051 4.07165 0.2609 0
M  V30 908 H 90.8801 4.06235 -0.891416 0
M  V30 909 H 89.4571 3.62213 0.886356 0
M  V30 910 N 91.6422 0.330177 1.54103 0
M  V30 911 C 92.5722 -0.525353 2.27513 0
M  V30 912 C 93.5532 -1.11383 1.2856 0
M  V30 913 O 94.7382 -1.13773 1.57383 0
M  V30 914 C 91.8682 -1.6831 3.03791 0
M  V30 915 C 90.8222 -1.2236 4.10137 0
M  V30 916 C 90.1482 -2.46882 4.74293 0
M  V30 917 C 91.4482 -0.333697 5.21233 0
M  V30 918 H 93.1422 0.087013 2.99274 0
M  V30 919 H 90.6882 0.0432893 1.43935 0
M  V30 920 H 92.6412 -2.28795 3.5388 0
M  V30 921 H 91.3652 -2.32216 2.29659 0
M  V30 922 H 90.0242 -0.64165 3.60941 0
M  V30 923 H 89.6722 -3.09165 3.96769 0
M  V30 924 H 89.3722 -2.16825 5.46133 0
M  V30 925 H 90.8962 -3.08117 5.27159 0
M  V30 926 H 92.3102 -0.845013 5.67038 0
M  V30 927 H 90.7072 -0.125612 5.99969 0
M  V30 928 H 91.7772 0.633724 4.80741 0
M  V30 929 N 93.1203 -1.57491 0.0584922 0
M  V30 930 C 94.0683 -2.13148 -0.931168 0
M  V30 931 C 95.0623 -1.06507 -1.31729 0
M  V30 932 O 96.2683 -1.24906 -1.29609 0
M  V30 933 H 92.6433 -0.68137 -0.31818 0
M  V30 934 H 94.6143 -2.95187 -0.436707 0
M  V30 935 C 93.3633 -2.69732 -2.19408 0
M  V30 936 H 92.6863 -3.51454 -1.90578 0
M  V30 937 H 94.1263 -3.12287 -2.86798 0
M  V30 938 C 92.5853 -1.63855 -2.94369 0
M  V30 939 O 93.1153 -1.05565 -3.87581 0
M  V30 940 N 91.3213 -1.35202 -2.57233 0
M  V30 941 H 90.8683 -1.82791 -1.81508 0
M  V30 942 H 90.8263 -0.645922 -3.07693 0
M  V30 943 N 94.5984 0.214957 -1.56127 0
M  V30 944 C 95.8464 0.936518 -1.79091 0
M  V30 945 C 96.1674 1.84606 -0.628148 0
M  V30 946 O 95.4374 1.92664 0.35462 0
M  V30 947 H 94.0174 0.3488 -0.660566 0
M  V30 948 H 96.6794 0.22523 -1.93594 0
M  V30 949 H 95.7754 1.53943 -2.71492 0
M  V30 950 N 96.0765 1.50051 0.48192 0
M  V30 951 C 97.0085 1.64263 1.59844 0
M  V30 952 C 98.0215 0.52451 1.54119 0
M  V30 953 O 99.2105 0.797293 1.59704 0
M  V30 954 C 96.3105 1.60102 2.98698 0
M  V30 955 C 95.4835 2.87767 3.29407 0
M  V30 956 C 94.5425 2.76397 4.47762 0
M  V30 957 O 93.5685 3.50348 4.48603 0
M  V30 958 N 94.7705 1.89222 5.48794 0
M  V30 959 H 97.5355 2.60566 1.48073 0
M  V30 960 H 95.0965 1.47379 0.670149 0
M  V30 961 H 97.0885 1.50123 3.75826 0
M  V30 962 H 95.6585 0.715798 3.04294 0
M  V30 963 H 94.8785 3.11954 2.40994 0
M  V30 964 H 96.1665 3.72365 3.4673 0
M  V30 965 H 95.5645 1.28434 5.50928 0
M  V30 966 H 94.1215 1.85154 6.24949 0
M  V30 967 N 97.5546 -0.734337 1.39446 0
M  V30 968 C 98.5016 -1.84835 1.38219 0
M  V30 969 C 99.4716 -1.64331 0.24179 0
M  V30 970 O 100.657 -1.85728 0.437002 0
M  V30 971 C 97.7966 -3.22355 1.23212 0
M  V30 972 C 96.9096 -3.5456 2.46801 0
M  V30 973 C 96.0446 -4.81485 2.24377 0
M  V30 974 C 95.0836 -5.06536 3.43639 0
M  V30 975 N 94.2206 -6.24665 3.20528 0
M  V30 976 H 99.0606 -1.85219 2.33448 0
M  V30 977 H 96.5976 -0.905039 1.15963 0
M  V30 978 H 98.5556 -4.0174 1.12522 0
M  V30 979 H 97.1856 -3.21248 0.316121 0
M  V30 980 H 96.2376 -2.69872 2.68092 0
M  V30 981 H 97.5496 -3.6899 3.3563 0
M  V30 982 H 96.7036 -5.68852 2.10933 0
M  V30 983 H 95.4426 -4.6923 1.32944 0
M  V30 984 H 94.4476 -4.17632 3.5758 0
M  V30 985 H 95.6726 -5.20676 4.35974 0
M  V30 986 H 93.6186 -6.13696 2.3176 0
M  V30 987 H 93.5356 -6.39685 4.02913 0
M  V30 988 H 94.8036 -7.14868 3.10779 0
M  V30 989 N 99.0327 -1.24633 -0.964593 0
M  V30 990 C 100.28 -1.08788 -1.70796 0
M  V30 991 C 100.608 0.372783 -1.90894 0
M  V30 992 O 99.8627 1.29167 -1.47018 0
M  V30 993 C 100.162 -1.7763 -3.10133 0
M  V30 994 C 99.8277 -3.27557 -3.09866 0
M  V30 995 C 98.4897 -3.6846 -3.09501 0
M  V30 996 C 100.842 -4.23389 -3.03959 0
M  V30 997 C 98.1697 -5.03624 -3.00965 0
M  V30 998 C 100.522 -5.58565 -2.96965 0
M  V30 999 C 99.1857 -5.98809 -2.9493 0
M  V30 1000 H 98.4557 -0.398084 -0.624988 0
M  V30 1001 H 101.103 -1.54777 -1.12767 0
M  V30 1002 H 99.4077 -1.24044 -3.71645 0
M  V30 1003 H 101.105 -1.62832 -3.66451 0
M  V30 1004 H 97.6947 -2.95006 -3.10917 0
M  V30 1005 H 101.879 -3.92787 -3.03368 0
M  V30 1006 H 97.1347 -5.33998 -2.97752 0
M  V30 1007 H 101.309 -6.32523 -2.91354 0
M  V30 1008 H 98.9357 -7.03505 -2.88071 0
M  V30 1009 N 100.511 1.16574 -1.06058 0
M  V30 1010 C 101.739 1.90952 -0.796552 0
M  V30 1011 C 102.154 1.77302 0.648808 0
M  V30 1012 O 101.511 1.11605 1.44397 0
M  V30 1013 C 101.562 3.41736 -1.17894 0
M  V30 1014 O 101.283 3.54975 -2.56758 0
M  V30 1015 C 102.784 4.33169 -0.942308 0
M  V30 1016 H 100.004 0.605594 -0.288959 0
M  V30 1017 H 102.548 1.47777 -1.41358 0
M  V30 1018 H 100.703 3.82623 -0.606491 0
M  V30 1019 H 101.117 4.4846 -2.72 0
M  V30 1020 H 102.591 5.37439 -1.25952 0
M  V30 1021 H 103.068 4.3903 0.122078 0
M  V30 1022 H 103.674 3.98007 -1.49902 0
M  V30 1023 N 101.989 0.842826 1.3317 0
M  V30 1024 C 103.214 0.453129 2.02389 0
M  V30 1025 C 103.639 -0.939105 1.6298 0
M  V30 1026 O 102.997 -1.61472 0.8244 0
M  V30 1027 C 103.045 0.586094 3.55805 0
M  V30 1028 O 102.149 -0.386029 4.10589 0
M  V30 1029 H 101.49 0.183664 0.638094 0
M  V30 1030 H 104.02 1.13875 1.69981 0
M  V30 1031 H 104.03 0.469209 4.05293 0
M  V30 1032 H 102.705 1.6014 3.83833 0
M  V30 1033 H 101.282 -0.226371 3.72212 0
M  V30 1034 N 103.467 -1.45747 0.599634 0
M  V30 1035 C 104.697 -2.06369 0.0977132 0
M  V30 1036 C 105.105 -1.44624 -1.21985 0
M  V30 1037 O 104.448 -0.551831 -1.75216 0
M  V30 1038 C 104.51 -3.59284 -0.124673 0
M  V30 1039 C 104.174 -4.43318 1.10987 0
M  V30 1040 C 105.171 -4.78796 2.02609 0
M  V30 1041 C 102.856 -4.84194 1.33647 0
M  V30 1042 C 104.85 -5.53997 3.15224 0
M  V30 1043 C 102.537 -5.5915 2.46565 0
M  V30 1044 C 103.535 -5.93968 3.37182 0
M  V30 1045 O 103.223 -6.67405 4.48136 0
M  V30 1046 H 102.955 -0.673122 0.0623153 0
M  V30 1047 H 105.509 -1.88104 0.824981 0
M  V30 1048 H 103.739 -3.75919 -0.906745 0
M  V30 1049 H 105.428 -4.01775 -0.577201 0
M  V30 1050 H 106.194 -4.47781 1.86325 0
M  V30 1051 H 102.073 -4.56534 0.64016 0
M  V30 1052 H 105.617 -5.81091 3.85978 0
M  V30 1053 H 101.514 -5.89579 2.62805 0
M  V30 1054 H 102.282 -6.85847 4.46717 0
M  V30 1055 N 104.945 -0.338344 -1.53925 0
M  V30 1056 C 106.193 0.259245 -2.0043 0
M  V30 1057 C 106.514 1.51484 -1.22791 0
M  V30 1058 O 105.784 1.93037 -0.33368 0
M  V30 1059 H 104.364 0.0987845 -0.740439 0
M  V30 1060 H 107.026 -0.458302 -1.89435 0
M  V30 1061 H 106.122 0.505334 -3.07982 0
M  V30 1062 N 106.423 1.57458 -0.0668435 0
M  V30 1063 C 107.834 1.80776 0.466558 0
M  V30 1064 C 108.185 0.980361 1.69951 0
M  V30 1065 O 107.31 0.201441 2.1546 0
M  V30 1066 C 107.905 3.27881 0.85321 0
M  V30 1067 C 106.464 3.52062 1.3315 0
M  V30 1068 C 105.611 2.75513 0.314264 0
M  V30 1069 H 108.562 1.5598 -0.292588 0
M  V30 1070 H 108.583 3.39659 1.715 0
M  V30 1071 H 108.095 3.88075 -0.0443439 0
M  V30 1072 H 106.196 2.97167 2.24772 0
M  V30 1073 H 106.309 4.60762 1.31285 0
M  V30 1074 H 104.673 2.42123 0.790492 0
M  V30 1075 H 105.456 3.38442 -0.575477 0
M  V30 1076 N 107.901 -0.206675 1.56239 0
M  V30 1077 C 109.126 -0.949474 1.8439 0
M  V30 1078 C 109.551 -1.76549 0.649016 0
M  V30 1079 O 108.909 -1.76782 -0.402231 0
M  V30 1080 C 108.957 -1.83078 3.10668 0
M  V30 1081 O 108.061 -2.9281 2.90407 0
M  V30 1082 H 107.402 -0.268033 0.607499 0
M  V30 1083 H 109.932 -0.215488 2.03462 0
M  V30 1084 H 109.942 -2.2377 3.41161 0
M  V30 1085 H 108.617 -1.23112 3.97261 0
M  V30 1086 H 107.194 -2.55956 2.71184 0
M  V30 1087 N 109.379 -1.50304 -0.473955 0
M  V30 1088 C 110.619 -1.62786 -1.23612 0
M  V30 1089 C 110.983 -0.319786 -1.89318 0
M  V30 1090 O 112.184 -0.320012 -2.66888 0
M  V30 1091 C 110.455 -2.77351 -2.25414 0
M  V30 1092 S 112.014 -3.09948 -3.10608 0
M  V30 1093 H 108.832 -0.573895 -0.419721 0
M  V30 1094 H 111.434 -1.88076 -0.533623 0
M  V30 1095 H 110.138 -3.70879 -1.75719 0
M  V30 1096 H 109.669 -2.54137 -3.00296 0
M  V30 1097 H 111.684 -2.53553 -4.26527 0
M  V30 1098 N 110.857 0.726932 -1.39834 0
M  V30 1099 C 111.79 1.8501 -1.33592 0
M  V30 1100 C 112.768 1.61262 -0.208191 0
M  V30 1101 O 113.952 1.84422 -0.389981 0
M  V30 1102 C 111.079 3.21143 -1.07633 0
M  V30 1103 C 110.125 3.63737 -2.22705 0
M  V30 1104 S 110.958 3.72167 -3.85035 0
M  V30 1105 C 112.114 5.11077 -3.61318 0
M  V30 1106 H 112.347 1.90022 -2.28646 0
M  V30 1107 H 109.88 0.892595 -1.25985 0
M  V30 1108 H 111.838 3.99747 -0.933415 0
M  V30 1109 H 110.499 3.13776 -0.142526 0
M  V30 1110 H 109.692 4.62551 -2.00155 0
M  V30 1111 H 109.294 2.9236 -2.33242 0
M  V30 1112 H 111.586 5.97656 -3.19083 0
M  V30 1113 H 112.529 5.38658 -4.59623 0
M  V30 1114 H 112.937 4.81135 -2.95245 0
M  V30 1115 N 112.336 1.25143 0.95797 0
M  V30 1116 C 113.268 1.01023 2.05735 0
M  V30 1117 C 114.281 -0.0236902 1.62783 0
M  V30 1118 O 115.47 0.21448 1.77207 0
M  V30 1119 C 112.57 0.504595 3.35122 0
M  V30 1120 C 111.743 1.6039 4.06932 0
M  V30 1121 C 110.802 1.09922 5.14591 0
M  V30 1122 O 109.828 1.79293 5.40225 0
M  V30 1123 N 111.03 -0.0612545 5.80468 0
M  V30 1124 H 113.795 1.95683 2.26998 0
M  V30 1125 H 111.356 1.16303 1.12629 0
M  V30 1126 H 113.348 0.151516 4.04416 0
M  V30 1127 H 111.918 -0.347989 3.10657 0
M  V30 1128 H 111.138 2.12872 3.31782 0
M  V30 1129 H 112.426 2.34252 4.51667 0
M  V30 1130 H 111.824 -0.640985 5.62057 0
M  V30 1131 H 110.381 -0.355395 6.5083 0
M  V30 1132 N 113.814 -1.1601 1.06675 0
M  V30 1133 C 114.746 -2.20115 0.638921 0
M  V30 1134 C 115.759 -1.59916 -0.305057 0
M  V30 1135 O 116.948 -1.78245 -0.0954446 0
M  V30 1136 C 114.048 -3.38798 -0.0830083 0
M  V30 1137 C 113.221 -4.2855 0.875426 0
M  V30 1138 C 112.28 -5.25849 0.192042 0
M  V30 1139 O 111.306 -5.63102 0.830921 0
M  V30 1140 N 112.508 -5.70648 -1.06493 0
M  V30 1141 H 115.273 -2.57439 1.53444 0
M  V30 1142 H 112.834 -1.31057 0.950557 0
M  V30 1143 H 114.826 -4.00936 -0.550685 0
M  V30 1144 H 113.396 -2.99947 -0.880386 0
M  V30 1145 H 112.616 -3.63617 1.52238 0
M  V30 1146 H 113.904 -4.85393 1.52548 0
M  V30 1147 H 113.302 -5.42482 -1.60405 0
M  V30 1148 H 111.859 -6.34859 -1.47641 0
M  V30 1149 N 115.292 -0.849877 -1.32721 0
M  V30 1150 C 116.24 -0.279745 -2.30912 0
M  V30 1151 C 117.234 0.594278 -1.58634 0
M  V30 1152 O 118.44 0.482613 -1.73409 0
M  V30 1153 H 114.815 -0.0717521 -0.748569 0
M  V30 1154 H 116.786 -1.12222 -2.76494 0
M  V30 1155 C 115.535 0.521108 -3.43773 0
M  V30 1156 H 114.858 -0.142141 -3.99547 0
M  V30 1157 H 116.298 0.885693 -4.14646 0
M  V30 1158 C 114.757 1.70442 -2.90605 0
M  V30 1159 O 115.287 2.8034 -2.87702 0
M  V30 1160 N 113.493 1.52991 -2.47067 0
M  V30 1161 H 113.04 0.635914 -2.49628 0
M  V30 1162 H 112.998 2.32311 -2.11847 0
M  V30 1163 N 116.77 1.45427 -0.607355 0
M  V30 1164 C 118.181 1.85756 -0.187535 0
M  V30 1165 C 118.532 1.5077 1.25551 0
M  V30 1166 O 117.657 0.93427 1.95193 0
M  V30 1167 C 118.252 3.37154 -0.333572 0
M  V30 1168 C 116.811 3.76387 0.0315542 0
M  V30 1169 C 115.958 2.69377 -0.658117 0
M  V30 1170 H 118.909 1.36231 -0.81405 0
M  V30 1171 H 118.93 3.78014 0.43428 0
M  V30 1172 H 118.442 3.62586 -1.38393 0
M  V30 1173 H 116.543 3.56571 1.0811 0
M  V30 1174 H 116.656 4.77731 -0.361935 0
M  V30 1175 H 115.02 2.5452 -0.0957873 0
M  V30 1176 H 115.803 2.97646 -1.7106 0
M  V30 1177 N 118.248 0.346503 1.53744 0
M  V30 1178 C 119.158 -0.517293 2.28826 0
M  V30 1179 C 120.174 -1.10935 1.3405 0
M  V30 1180 O 121.35 -1.1244 1.6709 0
M  V30 1181 C 118.415 -1.65098 3.04866 0
M  V30 1182 C 117.476 -1.0884 4.15274 0
M  V30 1183 C 116.709 -2.16806 4.87679 0
M  V30 1184 O 116.932 -3.3758 4.59778 0
M  V30 1185 O 115.866 -1.80934 5.74061 0
M  V30 1186 H 119.692 0.0931396 3.03557 0
M  V30 1187 H 117.277 0.111458 1.48984 0
M  V30 1188 H 119.159 -2.31053 3.5241 0
M  V30 1189 H 117.834 -2.24717 2.32989 0
M  V30 1190 H 116.741 -0.3933 3.72027 0
M  V30 1191 H 118.074 -0.537036 4.89261 0
M  V30 1192 N 119.726 -1.57421 0.075193 0
M  V30 1193 C 120.974 -1.93236 -0.591974 0
M  V30 1194 C 121.295 -0.956241 -1.69944 0
M  V30 1195 O 120.565 -0.00494792 -1.95899 0
M  V30 1196 H 119.145 -0.713355 -0.22166 0
M  V30 1197 H 121.807 -1.9444 0.133848 0
M  V30 1198 H 120.903 -2.95131 -1.01509 0
M  V30 1199 N 121.204 0.198386 -1.56346 0
M  V30 1200 C 122.432 0.935572 -1.84539 0
M  V30 1201 C 122.847 1.76989 -0.657281 0
M  V30 1202 O 122.204 1.78626 0.374043 0
M  V30 1203 C 122.255 1.8344 -3.11499 0
M  V30 1204 O 121.976 1.03377 -4.25728 0
M  V30 1205 C 123.477 2.68355 -3.52846 0
M  V30 1206 H 120.697 0.273126 -0.612897 0
M  V30 1207 H 123.241 0.20663 -2.03453 0
M  V30 1208 H 121.396 2.51701 -2.94492 0
M  V30 1209 H 121.81 1.64599 -4.98003 0
M  V30 1210 H 123.284 3.27085 -4.44657 0
M  V30 1211 H 123.761 3.41901 -2.75681 0
M  V30 1212 H 124.367 2.05471 -3.72373 0
M  V30 1213 N 122.682 1.50554 0.465978 0
M  V30 1214 C 123.929 1.61798 1.21768 0
M  V30 1215 C 124.257 0.320696 1.91838 0
M  V30 1216 O 123.512 -0.693724 1.82992 0
M  V30 1217 C 123.811 2.75152 2.28093 0
M  V30 1218 C 123.477 4.15454 1.75239 0
M  V30 1219 C 122.139 4.53628 1.60546 0
M  V30 1220 C 124.491 5.03121 1.36083 0
M  V30 1221 C 121.819 5.77204 1.05128 0
M  V30 1222 C 124.171 6.27249 0.821056 0
M  V30 1223 C 122.835 6.64221 0.660795 0
M  V30 1224 H 122.105 0.592063 0.445582 0
M  V30 1225 H 124.752 1.84503 0.512927 0
M  V30 1226 H 123.057 2.46556 3.04496 0
M  V30 1227 H 124.754 2.81055 2.86023 0
M  V30 1228 H 121.344 3.85341 1.87644 0
M  V30 1229 H 125.528 4.74257 1.46267 0
M  V30 1230 H 120.784 6.0452 0.91462 0
M  V30 1231 H 124.958 6.94537 0.509018 0
M  V30 1232 H 122.585 7.59854 0.229226 0
M  V30 1233 N 124.16 -0.719506 1.40217 0
M  V30 1234 C 125.07 -1.86378 1.42479 0
M  V30 1235 C 126.086 -1.71073 0.317834 0
M  V30 1236 O 127.262 -1.93406 0.561794 0
M  V30 1237 C 124.327 -3.22136 1.28178 0
M  V30 1238 C 123.388 -3.49723 2.48982 0
M  V30 1239 C 122.621 -4.79004 2.35353 0
M  V30 1240 O 122.844 -5.53821 1.36524 0
M  V30 1241 O 121.778 -5.06839 3.2465 0
M  V30 1242 H 125.604 -1.87425 2.38968 0
M  V30 1243 H 123.189 -0.869405 1.21498 0
M  V30 1244 H 125.071 -4.03234 1.22395 0
M  V30 1245 H 123.746 -3.21825 0.347934 0
M  V30 1246 H 122.653 -2.6865 2.60342 0
M  V30 1247 H 123.986 -3.54828 3.41113 0
M  V30 1248 N 125.638 -1.25649 -0.95132 0
M  V30 1249 C 126.548 -1.08073 -2.08224 0
M  V30 1250 C 127.564 -0.0169666 -1.73992 0
M  V30 1251 O 128.74 -0.218593 -2.0021 0
M  V30 1252 C 125.805 -0.704922 -3.39458 0
M  V30 1253 C 124.866 -1.84699 -3.87537 0
M  V30 1254 C 124.099 -1.48902 -5.12508 0
M  V30 1255 O 124.322 -0.386156 -5.69091 0
M  V30 1256 O 123.256 -2.32033 -5.55378 0
M  V30 1257 H 127.082 -2.02924 -2.25954 0
M  V30 1258 H 124.667 -1.04618 -1.06656 0
M  V30 1259 H 126.549 -0.507609 -4.18332 0
M  V30 1260 H 125.224 0.214291 -3.2299 0
M  V30 1261 H 124.131 -2.09919 -3.09653 0
M  V30 1262 H 125.464 -2.74557 -4.08509 0
M  V30 1263 N 127.117 1.15442 -1.07289 0
M  V30 1264 C 128.065 2.22225 -0.686952 0
M  V30 1265 C 129.059 1.66688 0.30193 0
M  V30 1266 O 130.265 1.79236 0.165712 0
M  V30 1267 H 126.64 0.723783 -0.204064 0
M  V30 1268 H 128.611 2.52056 -1.5972 0
M  V30 1269 C 127.36 3.47556 -0.100149 0
M  V30 1270 H 126.683 3.90612 -0.852211 0
M  V30 1271 H 128.123 4.23794 0.132235 0
M  V30 1272 C 126.582 3.16337 1.159 0
M  V30 1273 O 127.112 3.33074 2.24555 0
M  V30 1274 N 125.318 2.70385 1.06491 0
M  V30 1275 H 124.865 2.56966 0.180668 0
M  V30 1276 H 124.823 2.49871 1.90819 0
M  V30 1277 N 128.595 0.856903 1.32268 0
M  V30 1278 C 129.525 0.31858 2.31316 0
M  V30 1279 C 130.506 -0.583487 1.59779 0
M  V30 1280 O 131.691 -0.503259 1.87566 0
M  V30 1281 C 128.821 -0.491979 3.43798 0
M  V30 1282 C 127.775 0.315849 4.26833 0
M  V30 1283 C 127.101 -0.619586 5.31098 0
M  V30 1284 C 128.401 1.54282 4.98993 0
M  V30 1285 H 130.095 1.14621 2.76591 0
M  V30 1286 H 127.641 0.552613 1.32974 0
M  V30 1287 H 129.594 -0.879012 4.1213 0
M  V30 1288 H 128.318 -1.35299 2.97257 0
M  V30 1289 H 126.977 0.684664 3.6015 0
M  V30 1290 H 126.625 -1.47751 4.8081 0
M  V30 1291 H 126.325 -0.0830621 5.87541 0
M  V30 1292 H 127.849 -1.00375 6.02293 0
M  V30 1293 H 129.263 1.22796 5.59995 0
M  V30 1294 H 127.66 2.01745 5.65172 0
M  V30 1295 H 128.73 2.30285 4.26728 0
M  V30 1296 N 130.073 -1.45103 0.615059 0
M  V30 1297 C 131.321 -2.01784 0.112955 0
M  V30 1298 C 131.642 -1.48504 -1.26378 0
M  V30 1299 O 130.912 -0.682245 -1.83636 0
M  V30 1300 H 129.492 -0.745993 0.0387668 0
M  V30 1301 H 132.154 -1.77808 0.798141 0
M  V30 1302 H 131.25 -3.12025 0.0684069 0
M  V30 1303 N 131.551 -0.354651 -1.53558 0
M  V30 1304 C 132.498 0.496968 -2.25386 0
M  V30 1305 C 133.468 1.0865 -1.25636 0
M  V30 1306 O 134.653 1.12104 -1.54394 0
M  V30 1307 C 131.793 1.63637 -3.03837 0
M  V30 1308 C 130.906 1.07307 -4.18461 0
M  V30 1309 C 130.041 2.18068 -4.84376 0
M  V30 1310 C 129.08 1.59147 -5.91049 0
M  V30 1311 N 128.217 2.63695 -6.50699 0
M  V30 1312 H 133.057 -0.122075 -2.9775 0
M  V30 1313 H 130.594 -0.0720154 -1.46924 0
M  V30 1314 H 132.552 2.30734 -3.47589 0
M  V30 1315 H 131.182 2.22623 -2.33749 0
M  V30 1316 H 130.234 0.292708 -3.79272 0
M  V30 1317 H 131.546 0.602193 -4.95152 0
M  V30 1318 H 130.7 2.93007 -5.31255 0
M  V30 1319 H 129.439 2.68504 -4.07133 0
M  V30 1320 H 128.444 0.827175 -5.43542 0
M  V30 1321 H 129.669 1.09549 -6.70206 0
M  V30 1322 H 127.615 3.13365 -5.76315 0
M  V30 1323 H 127.532 2.21263 -7.22896 0
M  V30 1324 H 128.8 3.3837 -7.02229 0
M  V30 1325 N 133.029 1.57378 -0.0835403 0
M  V30 1326 C 134.257 1.98263 0.59157 0
M  V30 1327 C 134.672 0.962302 1.62435 0
M  V30 1328 O 134.029 -0.049581 1.82433 0
M  V30 1329 C 134.08 3.39214 1.24965 0
M  V30 1330 O 133.801 4.37339 0.258186 0
M  V30 1331 C 135.302 3.95038 2.01147 0
M  V30 1332 H 132.522 0.651773 0.159477 0
M  V30 1333 H 135.066 2.03878 -0.159415 0
M  V30 1334 H 133.221 3.34649 1.95164 0
M  V30 1335 H 133.635 5.19371 0.731734 0
M  V30 1336 H 135.109 4.95848 2.42567 0
M  V30 1337 H 135.586 3.32222 2.87272 0
M  V30 1338 H 136.192 4.0304 1.35789 0
M  V30 1339 N 134.507 -0.190092 1.56449 0
M  V30 1340 C 135.47 -1.21925 1.9408 0
M  V30 1341 C 136.47 -1.38176 0.822431 0
M  V30 1342 O 137.66 -1.35903 1.08977 0
M  V30 1343 C 134.792 -2.58773 2.21922 0
M  V30 1344 H 135.985 -0.897464 2.86157 0
M  V30 1345 H 133.538 -0.43181 1.50217 0
M  V30 1346 H 134.273 -2.95998 1.32499 0
M  V30 1347 H 134.058 -2.48348 3.03424 0
M  V30 1348 H 135.548 -3.32978 2.52022 0
M  V30 1349 N 135.985 -1.50799 -0.457987 0
M  V30 1350 C 136.915 -1.73553 -1.5621 0
M  V30 1351 C 137.896 -0.584774 -1.59732 0
M  V30 1352 O 139.081 -0.825314 -1.7579 0
M  V30 1353 C 136.211 -1.84169 -2.94447 0
M  V30 1354 C 135.165 -2.99461 -3.0579 0
M  V30 1355 C 134.491 -2.95235 -4.45803 0
M  V30 1356 C 135.791 -4.39766 -2.81786 0
M  V30 1357 H 137.485 -2.66 -1.37421 0
M  V30 1358 H 135.031 -1.28002 -0.659662 0
M  V30 1359 H 136.984 -1.98672 -3.71628 0
M  V30 1360 H 135.708 -0.883545 -3.14422 0
M  V30 1361 H 134.367 -2.8463 -2.31044 0
M  V30 1362 H 134.015 -1.97239 -4.62715 0
M  V30 1363 H 133.715 -3.72642 -4.54326 0
M  V30 1364 H 135.239 -3.11803 -5.24987 0
M  V30 1365 H 136.653 -4.55054 -3.4871 0
M  V30 1366 H 135.05 -5.18722 -3.0174 0
M  V30 1367 H 136.12 -4.51229 -1.7754 0
M  V30 1368 N 137.463 0.71206 -1.40597 0
M  V30 1369 C 138.74 1.46536 -1.29563 0
M  V30 1370 C 139.12 2.10931 0.0844217 0
M  V30 1371 O 138.468 2.00418 1.0975 0
M  V30 1372 C 138.678 2.49821 -2.43701 0
M  V30 1373 C 140.026 3.15551 -2.841 0
M  V30 1374 O 141.05 2.60142 -2.4332 0
M  V30 1375 O 139.909 4.15867 -3.54566 0
M  V30 1376 H 137.003 0.651801 -0.509004 0
M  V30 1377 H 139.549 0.743935 -1.52524 0
M  V30 1378 H 138.321 2.00778 -3.35863 0
M  V30 1379 H 137.944 3.29495 -2.22528 0
M  V30 1380 N 138.941 1.26152 0.944643 0
M  V30 1381 C 139.871 1.09902 2.06019 0
M  V30 1382 C 140.852 0.00519538 1.70099 0
M  V30 1383 O 142.037 0.176583 1.93396 0
M  V30 1384 C 139.167 0.727562 3.39594 0
M  V30 1385 C 138.121 1.77274 3.89561 0
M  V30 1386 C 137.447 1.25569 5.19747 0
M  V30 1387 C 138.747 3.17357 4.14827 0
M  V30 1388 H 140.441 2.03217 2.19871 0
M  V30 1389 H 137.987 0.978452 1.05652 0
M  V30 1390 H 139.94 0.600777 4.17095 0
M  V30 1391 H 138.664 -0.241287 3.25707 0
M  V30 1392 H 137.323 1.88814 3.14237 0
M  V30 1393 H 136.971 0.276783 5.02238 0
M  V30 1394 H 136.671 1.95433 5.54148 0
M  V30 1395 H 138.195 1.1415 5.99835 0
M  V30 1396 H 139.609 3.08914 4.82954 0
M  V30 1397 H 138.006 3.84781 4.60504 0
M  V30 1398 H 139.076 3.63673 3.20734 0
M  V30 1399 N 140.419 -1.14872 1.07899 0
M  V30 1400 C 141.665 -1.86064 0.806725 0
M  V30 1401 C 141.998 -1.82434 -0.665706 0
M  V30 1402 O 141.273 -1.25138 -1.48899 0
M  V30 1403 C 141.556 -3.34929 1.32267 0
M  V30 1404 C 141.409 -3.47161 2.86006 0
M  V30 1405 C 142.728 -4.29863 0.943717 0
M  V30 1406 H 139.847 -0.675591 0.294526 0
M  V30 1407 H 142.489 -1.34925 1.33773 0
M  V30 1408 H 140.639 -3.78611 0.870974 0
M  V30 1409 H 142.311 -3.12302 3.39507 0
M  V30 1410 H 140.554 -2.88539 3.23925 0
M  V30 1411 H 141.225 -4.51777 3.17177 0
M  V30 1412 H 143.701 -3.9417 1.33302 0
M  V30 1413 H 142.577 -5.32494 1.33198 0
M  V30 1414 H 142.838 -4.41846 -0.149796 0
M  V30 1415 N 141.898 -0.863906 -1.31812 0
M  V30 1416 C 142.831 -0.259963 -2.26714 0
M  V30 1417 C 143.809 0.607392 -1.50829 0
M  V30 1418 O 144.993 0.562155 -1.79922 0
M  V30 1419 C 142.12 0.632456 -3.32743 0
M  V30 1420 C 141.166 -0.162743 -4.26189 0
M  V30 1421 S 141.999 -1.53726 -5.12961 0
M  V30 1422 C 143.155 -0.650803 -6.22507 0
M  V30 1423 H 143.388 -1.06445 -2.77591 0
M  V30 1424 H 140.921 -0.662071 -1.39485 0
M  V30 1425 H 142.879 1.14167 -3.94305 0
M  V30 1426 H 141.54 1.41083 -2.80632 0
M  V30 1427 H 140.733 0.517366 -5.01338 0
M  V30 1428 H 140.335 -0.60385 -3.69093 0
M  V30 1429 H 142.627 0.141134 -6.77353 0
M  V30 1430 H 143.57 -1.37322 -6.94657 0
M  V30 1431 H 143.978 -0.221041 -5.64067 0
M  V30 1432 N 143.376 1.44774 -0.622745 0
M  V30 1433 C 144.308 2.28856 0.125485 0
M  V30 1434 C 145.321 1.40811 0.817069 0
M  V30 1435 O 146.51 1.65044 0.679918 0
M  V30 1436 C 143.61 3.16963 1.19949 0
M  V30 1437 C 142.783 4.33374 0.592064 0
M  V30 1438 C 141.842 5.02577 1.55893 0
M  V30 1439 O 140.868 5.58873 1.07933 0
M  V30 1440 N 142.07 5.03256 2.89334 0
M  V30 1441 H 144.835 2.93713 -0.596068 0
M  V30 1442 H 142.396 1.55129 -0.463303 0
M  V30 1443 H 144.388 3.60123 1.84644 0
M  V30 1444 H 142.958 2.53913 1.82337 0
M  V30 1445 H 142.178 3.93509 -0.233322 0
M  V30 1446 H 143.466 5.08527 0.166738 0
M  V30 1447 H 142.864 4.58836 3.30887 0
M  V30 1448 H 141.421 5.50232 3.49412 0
M  V30 1449 N 144.854 0.36279 1.53368 0
M  V30 1450 C 146.079 -0.231226 2.06107 0
M  V30 1451 C 146.504 -1.419 1.23474 0
M  V30 1452 O 145.862 -1.79524 0.253128 0
M  V30 1453 C 145.91 -0.605523 3.5548 0
M  V30 1454 O 145.014 -1.70312 3.7559 0
M  V30 1455 H 144.355 -0.034327 0.663112 0
M  V30 1456 H 146.885 0.522584 1.97814 0
M  V30 1457 H 146.895 -0.877314 3.98456 0
M  V30 1458 H 145.57 0.263004 4.15068 0
M  V30 1459 H 144.147 -1.4271 3.44512 0
M  V30 1460 N 146.332 -1.57332 0.0918853 0
M  V30 1461 C 147.279 -2.13847 -0.868211 0
M  V30 1462 C 148.249 -1.05618 -1.28196 0
M  V30 1463 O 149.434 -1.33387 -1.36427 0
M  V30 1464 C 146.574 -2.72062 -2.12312 0
M  V30 1465 C 145.687 -3.94514 -1.7602 0
M  V30 1466 C 144.822 -4.40903 -2.96273 0
M  V30 1467 C 143.861 -5.55953 -2.56092 0
M  V30 1468 N 142.998 -5.97209 -3.69169 0
M  V30 1469 H 147.838 -2.95575 -0.379406 0
M  V30 1470 H 145.375 -1.46048 -0.175606 0
M  V30 1471 H 147.333 -3.03931 -2.858 0
M  V30 1472 H 145.963 -1.93068 -2.58698 0
M  V30 1473 H 145.015 -3.68979 -0.925135 0
M  V30 1474 H 146.327 -4.7802 -1.42472 0
M  V30 1475 H 145.481 -4.74539 -3.78018 0
M  V30 1476 H 144.22 -3.56291 -3.33029 0
M  V30 1477 H 143.225 -5.21948 -1.72773 0
M  V30 1478 H 144.45 -6.42311 -2.20484 0
M  V30 1479 H 142.396 -5.15543 -4.05649 0
M  V30 1480 H 142.313 -6.75504 -3.39456 0
M  V30 1481 H 143.581 -6.35475 -4.51434 0
M  V30 1482 N 147.81 0.181792 -1.56548 0
M  V30 1483 C 149.056 0.901431 -1.81665 0
M  V30 1484 C 149.389 1.82347 -0.668075 0
M  V30 1485 O 148.664 1.91669 0.330615 0
M  V30 1486 C 148.947 1.70618 -3.17115 0
M  V30 1487 C 148.8 0.807964 -4.42484 0
M  V30 1488 C 150.119 2.67605 -3.49393 0
M  V30 1489 H 147.238 0.32627 -0.660846 0
M  V30 1490 H 149.88 0.168134 -1.89255 0
M  V30 1491 H 148.03 2.33133 -3.10775 0
M  V30 1492 H 149.702 0.19649 -4.60881 0
M  V30 1493 H 147.945 0.115411 -4.33646 0
M  V30 1494 H 148.616 1.40632 -5.33785 0
M  V30 1495 H 151.092 2.15218 -3.56118 0
M  V30 1496 H 149.968 3.20985 -4.45264 0
M  V30 1497 H 150.229 3.47298 -2.73563 0
M  V30 1498 N 149.288 1.51039 0.449983 0
M  V30 1499 C 150.535 1.63081 1.20045 0
M  V30 1500 C 150.863 0.341024 1.91487 0
M  V30 1501 O 150.118 -0.674276 1.83717 0
M  V30 1502 C 150.417 2.77556 2.25161 0
M  V30 1503 C 150.083 4.17289 1.70823 0
M  V30 1504 C 148.745 4.55305 1.55725 0
M  V30 1505 C 151.097 5.04536 1.3074 0
M  V30 1506 C 148.425 5.78287 0.989999 0
M  V30 1507 C 150.777 6.28085 0.754482 0
M  V30 1508 C 149.441 6.64885 0.590308 0
M  V30 1509 H 148.711 0.596755 0.439277 0
M  V30 1510 H 151.358 1.85037 0.49333 0
M  V30 1511 H 149.663 2.49771 3.01863 0
M  V30 1512 H 151.36 2.84073 2.83026 0
M  V30 1513 H 147.95 3.8731 1.83546 0
M  V30 1514 H 152.134 4.75782 1.41229 0
M  V30 1515 H 147.39 6.05456 0.850451 0
M  V30 1516 H 151.564 6.95038 0.435324 0
M  V30 1517 H 149.191 7.60055 0.14862 0
M  V30 1518 N 150.766 -0.704594 1.40972 0
M  V30 1519 C 151.698 -1.82974 1.38033 0
M  V30 1520 C 152.711 -1.60305 0.283931 0
M  V30 1521 O 153.9 -1.69975 0.545042 0
M  V30 1522 C 151 -3.19578 1.12795 0
M  V30 1523 C 150.173 -3.69352 2.34302 0
M  V30 1524 C 149.232 -4.84601 2.05058 0
M  V30 1525 O 148.258 -4.96682 2.7802 0
M  V30 1526 N 149.46 -5.71194 1.03528 0
M  V30 1527 H 152.225 -1.85991 2.35005 0
M  V30 1528 H 149.786 -0.886567 1.35468 0
M  V30 1529 H 151.778 -3.9429 0.911987 0
M  V30 1530 H 150.348 -3.11642 0.24452 0
M  V30 1531 H 149.568 -2.85649 2.71659 0
M  V30 1532 H 150.856 -3.99345 3.1528 0
M  V30 1533 H 150.254 -5.64054 0.431217 0
M  V30 1534 H 148.811 -6.45843 0.879205 0
M  V30 1535 N 152.244 -1.26651 -0.937939 0
M  V30 1536 C 153.207 -1.08546 -2.01867 0
M  V30 1537 C 154.207 -0.0327327 -1.60767 0
M  V30 1538 O 155.397 -0.276427 -1.71993 0
M  V30 1539 C 152.529 -0.651711 -3.34613 0
M  V30 1540 H 153.722 -2.04502 -2.1936 0
M  V30 1541 H 151.275 -1.09294 -1.11734 0
M  V30 1542 H 152.01 0.309696 -3.22818 0
M  V30 1543 H 151.795 -1.41189 -3.65798 0
M  V30 1544 H 153.285 -0.546973 -4.14002 0
M  V30 1545 N 153.722 1.14298 -1.08507 0
M  V30 1546 C 154.968 1.85633 -0.816581 0
M  V30 1547 C 155.301 1.82784 0.656021 0
M  V30 1548 O 154.576 1.25926 1.48233 0
M  V30 1549 C 154.859 3.34223 -1.34041 0
M  V30 1550 C 154.712 3.45639 -2.87843 0
M  V30 1551 C 156.031 4.29356 -0.9665 0
M  V30 1552 H 153.15 0.67402 -0.298104 0
M  V30 1553 H 155.792 1.34214 -1.34487 0
M  V30 1554 H 153.942 3.78144 -0.89104 0
M  V30 1555 H 155.614 3.10498 -3.41158 0
M  V30 1556 H 153.857 2.86817 -3.25451 0
M  V30 1557 H 154.528 4.50089 -3.19569 0
M  V30 1558 H 157.004 3.93457 -1.35391 0
M  V30 1559 H 155.88 5.3178 -1.3602 0
M  V30 1560 H 156.141 4.41919 0.126362 0
M  V30 1561 N 155.201 0.870884 1.31352 0
M  V30 1562 C 156.131 0.343096 2.30966 0
M  V30 1563 C 157.112 -0.566507 1.60389 0
M  V30 1564 O 158.297 -0.483336 1.88089 0
M  V30 1565 C 155.427 -0.455487 3.443 0
M  V30 1566 C 154.381 0.361103 4.26474 0
M  V30 1567 C 153.707 -0.563221 5.31725 0
M  V30 1568 C 155.007 1.59566 4.97329 0
M  V30 1569 H 156.701 1.17548 2.75359 0
M  V30 1570 H 154.247 0.566686 1.32381 0
M  V30 1571 H 156.2 -0.83525 4.13039 0
M  V30 1572 H 154.924 -1.32139 2.98675 0
M  V30 1573 H 153.583 0.722825 3.59403 0
M  V30 1574 H 153.231 -1.42643 4.82351 0
M  V30 1575 H 152.931 -0.0207409 5.87596 0
M  V30 1576 H 154.455 -0.939808 6.03324 0
M  V30 1577 H 155.869 1.28728 5.58661 0
M  V30 1578 H 154.266 2.07728 5.63 0
M  V30 1579 H 155.336 2.34798 4.24262 0
M  V30 1580 N 156.679 -1.44442 0.630414 0
M  V30 1581 C 158.09 -1.85434 0.217063 0
M  V30 1582 C 158.441 -1.52748 -1.23136 0
M  V30 1583 O 157.566 -0.965205 -1.93682 0
M  V30 1584 C 158.161 -3.36581 0.387168 0
M  V30 1585 C 156.72 -3.76389 0.0283297 0
M  V30 1586 C 155.867 -2.68296 0.700889 0
M  V30 1587 H 158.818 -1.34919 0.83562 0
M  V30 1588 H 158.839 -3.78657 -0.374086 0
M  V30 1589 H 158.351 -3.60339 1.44144 0
M  V30 1590 H 156.452 -3.58246 -1.02423 0
M  V30 1591 H 156.565 -4.77095 0.437892 0
M  V30 1592 H 154.929 -2.54335 0.136267 0
M  V30 1593 H 155.712 -2.94887 1.75774 0
M  V30 1594 N 158.157 -0.370918 -1.53173 0
M  V30 1595 C 159.089 0.507823 -2.23503 0
M  V30 1596 C 160.102 1.04182 -1.251 0
M  V30 1597 O 161.291 0.947286 -1.5129 0
M  V30 1598 C 158.391 1.71447 -2.92334 0
M  V30 1599 C 157.564 1.31105 -4.17289 0
M  V30 1600 C 156.623 2.38035 -4.69282 0
M  V30 1601 O 155.649 2.00204 -5.32829 0
M  V30 1602 N 156.851 3.69697 -4.47554 0
M  V30 1603 H 159.616 -0.0946382 -2.99551 0
M  V30 1604 H 157.177 -0.196358 -1.60705 0
M  V30 1605 H 159.169 2.42469 -3.24023 0
M  V30 1606 H 157.739 2.22368 -2.19707 0
M  V30 1607 H 156.959 0.430462 -3.91843 0
M  V30 1608 H 158.247 1.0179 -4.98514 0
M  V30 1609 H 157.645 4.03205 -3.9679 0
M  V30 1610 H 156.202 4.36807 -4.8378 0
M  V30 1611 N 159.635 1.57281 -0.100228 0
M  V30 1612 C 160.86 1.99302 0.573881 0
M  V30 1613 C 161.285 0.979059 1.60611 0
M  V30 1614 O 160.643 -0.0517803 1.81226 0
M  V30 1615 C 160.691 3.40274 1.19358 0
M  V30 1616 O 159.795 3.41676 2.30935 0
M  V30 1617 H 159.136 0.647944 0.145138 0
M  V30 1618 H 161.666 2.03779 -0.183156 0
M  V30 1619 H 161.676 3.78078 1.53365 0
M  V30 1620 H 160.351 4.13594 0.437385 0
M  V30 1621 H 158.928 3.15672 1.98509 0
M  V30 1622 N 161.113 -0.173488 1.56642 0
M  V30 1623 C 162.023 -1.23482 1.99473 0
M  V30 1624 C 163.039 -1.48567 0.905752 0
M  V30 1625 O 164.215 -1.60758 1.21321 0
M  V30 1626 C 161.28 -2.55444 2.34413 0
M  V30 1627 C 160.341 -2.38241 3.57127 0
M  V30 1628 C 159.574 -3.63909 3.90392 0
M  V30 1629 O 159.797 -4.68996 3.24653 0
M  V30 1630 O 158.731 -3.58149 4.83749 0
M  V30 1631 H 162.557 -0.901279 2.90018 0
M  V30 1632 H 160.142 -0.380185 1.44482 0
M  V30 1633 H 162.024 -3.33292 2.57865 0
M  V30 1634 H 160.699 -2.88382 1.4703 0
M  V30 1635 H 159.606 -1.58431 3.38896 0
M  V30 1636 H 160.939 -2.10228 4.45045 0
M  V30 1637 N 162.591 -1.51276 -0.441967 0
M  V30 1638 C 163.868 -1.54252 -1.20273 0
M  V30 1639 C 164.248 -0.30408 -2.08898 0
M  V30 1640 O 163.596 0.711084 -2.17154 0
M  V30 1641 C 163.806 -2.85406 -2.00859 0
M  V30 1642 C 165.154 -3.37181 -2.58059 0
M  V30 1643 O 166.178 -2.86925 -2.11074 0
M  V30 1644 O 165.037 -4.24858 -3.43741 0
M  V30 1645 H 162.131 -0.619969 -0.547328 0
M  V30 1646 H 164.677 -1.63586 -0.451413 0
M  V30 1647 H 163.449 -3.67003 -1.35736 0
M  V30 1648 H 163.072 -2.79213 -2.83065 0
M  V30 1649 N 164.069 0.697108 -1.41344 0
M  V30 1650 C 165.309 1.46939 -1.42085 0
M  V30 1651 C 165.673 1.9198 -0.0280397 0
M  V30 1652 O 166.874 2.6865 0.0897504 0
M  V30 1653 C 165.145 2.64985 -2.39828 0
M  V30 1654 S 166.704 3.54147 -2.59085 0
M  V30 1655 H 163.522 0.502146 -0.503359 0
M  V30 1656 H 166.124 0.813546 -1.77769 0
M  V30 1657 H 164.828 2.30098 -3.39828 0
M  V30 1658 H 164.359 3.35464 -2.05493 0
M  V30 1659 H 166.374 4.60137 -1.85711 0
M  V30 1660 N 165.547 1.27147 0.931209 0
M  V30 1661 C 166.477 1.12081 2.04842 0
M  V30 1662 C 167.458 0.0232364 1.70084 0
M  V30 1663 O 168.643 0.197085 1.93197 0
M  V30 1664 C 165.773 0.76354 3.38803 0
M  V30 1665 C 164.727 1.81396 3.87659 0
M  V30 1666 C 164.053 1.31075 5.18385 0
M  V30 1667 C 165.353 3.21739 4.11438 0
M  V30 1668 H 167.047 2.05537 2.17703 0
M  V30 1669 H 164.593 0.989603 1.04608 0
M  V30 1670 H 166.546 0.644982 4.16435 0
M  V30 1671 H 165.27 -0.206727 3.25945 0
M  V30 1672 H 163.929 1.92136 3.12217 0
M  V30 1673 H 163.577 0.330037 5.01916 0
M  V30 1674 H 163.277 2.013 5.52044 0
M  V30 1675 H 164.801 1.20506 5.98591 0
M  V30 1676 H 166.215 3.14019 4.79651 0
M  V30 1677 H 164.612 3.89644 4.56397 0
M  V30 1678 H 165.682 3.67054 3.16859 0
M  V30 1679 N 167.025 -1.13721 1.09112 0
M  V30 1680 C 168.253 -1.88773 0.846899 0
M  V30 1681 C 168.668 -1.7896 -0.601572 0
M  V30 1682 O 168.025 -1.15394 -1.41388 0
M  V30 1683 C 168.076 -3.3849 1.26913 0
M  V30 1684 O 167.797 -3.48043 2.66079 0
M  V30 1685 C 169.298 -4.30518 1.05682 0
M  V30 1686 H 166.518 -0.59772 0.304914 0
M  V30 1687 H 169.062 -1.43977 1.45227 0
M  V30 1688 H 167.217 -3.80881 0.707723 0
M  V30 1689 H 167.631 -4.4109 2.83795 0
M  V30 1690 H 169.105 -5.3391 1.40156 0
M  V30 1691 H 169.582 -4.392 -0.00563416 0
M  V30 1692 H 170.188 -3.93893 1.60402 0
M  V30 1693 N 168.503 -0.877838 -1.30888 0
M  V30 1694 C 169.752 -0.488793 -1.95688 0
M  V30 1695 C 170.065 0.965485 -1.70111 0
M  V30 1696 O 171.271 1.46104 -2.28836 0
M  V30 1697 C 169.727 -0.823201 -3.50359 0
M  V30 1698 C 169.335 -2.29477 -3.84765 0
M  V30 1699 C 171.079 -0.503009 -4.21509 0
M  V30 1700 C 168.986 -2.57118 -5.32583 0
M  V30 1701 H 167.916 -0.179062 -0.732429 0
M  V30 1702 H 170.567 -1.07183 -1.48943 0
M  V30 1703 H 168.949 -0.169331 -3.95638 0
M  V30 1704 H 170.123 -2.99236 -3.5042 0
M  V30 1705 H 168.438 -2.58178 -3.267 0
M  V30 1706 H 171.035 -0.68665 -5.30273 0
M  V30 1707 H 171.378 0.557109 -4.12555 0
M  V30 1708 H 171.911 -1.11376 -3.8189 0
M  V30 1709 H 168.65 -3.61843 -5.4658 0
M  V30 1710 H 168.17 -1.91961 -5.68253 0
M  V30 1711 H 169.849 -2.42251 -5.99936 0
M  V30 1712 N 169.982 1.44106 -0.638065 0
M  V30 1713 C 170.93 2.3248 0.0748149 0
M  V30 1714 C 171.924 1.47746 0.828702 0
M  V30 1715 O 173.13 1.64049 0.740816 0
M  V30 1716 H 169.505 0.750771 0.0429686 0
M  V30 1717 H 171.476 2.90348 -0.688504 0
M  V30 1718 C 170.225 3.31843 1.03805 0
M  V30 1719 H 169.548 3.97059 0.467375 0
M  V30 1720 H 170.988 3.96345 1.50622 0
M  V30 1721 C 169.447 2.61291 2.1267 0
M  V30 1722 O 169.977 2.41702 3.20847 0
M  V30 1723 N 168.183 2.20915 1.88798 0
M  V30 1724 H 167.73 2.37047 1.00829 0
M  V30 1725 H 167.688 1.74038 2.61836 0
M  V30 1726 N 171.46 0.379036 1.52974 0
M  V30 1727 C 172.706 -0.206727 2.01744 0
M  V30 1728 C 173.039 -1.47314 1.26539 0
M  V30 1729 O 172.314 -1.91084 0.362903 0
M  V30 1730 C 172.597 -0.485066 3.56818 0
M  V30 1731 C 172.45 0.795919 4.42702 0
M  V30 1732 C 173.769 -1.28003 4.21074 0
M  V30 1733 H 170.888 -0.0736607 0.73331 0
M  V30 1734 H 173.53 0.506581 1.83122 0
M  V30 1735 H 171.68 -1.09272 3.72816 0
M  V30 1736 H 173.352 1.43307 4.38476 0
M  V30 1737 H 171.595 1.41344 4.10127 0
M  V30 1738 H 172.266 0.555947 5.49193 0
M  V30 1739 H 174.742 -0.765867 4.08991 0
M  V30 1740 H 173.618 -1.44352 5.29579 0
M  V30 1741 H 173.879 -2.29236 3.78026 0
M  V30 1742 N 172.938 -1.57226 0.108567 0
M  V30 1743 C 174.184 -1.95121 -0.552761 0
M  V30 1744 C 174.517 -0.991345 -1.66991 0
M  V30 1745 O 173.792 -0.0267211 -1.94482 0
M  V30 1746 C 174.075 -3.43039 -1.09528 0
M  V30 1747 C 173.928 -4.49797 0.0177332 0
M  V30 1748 C 175.247 -3.92567 -1.98945 0
M  V30 1749 H 172.366 -0.709496 -0.199461 0
M  V30 1750 H 175.008 -1.89126 0.182011 0
M  V30 1751 H 173.158 -3.48279 -1.72146 0
M  V30 1752 H 174.83 -4.56661 0.652584 0
M  V30 1753 H 173.073 -4.284 0.682309 0
M  V30 1754 H 173.744 -5.50528 -0.402919 0
M  V30 1755 H 176.22 -3.89565 -1.46214 0
M  V30 1756 H 175.096 -4.96605 -2.33827 0
M  V30 1757 H 175.357 -3.32648 -2.91201 0
M  V30 1758 N 174.416 0.165178 -1.56732 0
M  V30 1759 C 175.832 0.517174 -1.50988 0
M  V30 1760 C 176.032 1.84331 -0.813894 0
M  V30 1761 O 175.088 2.49672 -0.37682 0
M  V30 1762 C 176.401 0.544261 -2.95733 0
M  V30 1763 C 177.949 0.631039 -3.06573 0
M  V30 1764 C 178.424 0.68896 -4.52788 0
M  V30 1765 N 179.915 0.751683 -4.5706 0
M  V30 1766 C 180.65 0.817177 -5.67547 0
M  V30 1767 N 180.146 0.843129 -6.8765 0
M  V30 1768 N 181.939 0.856668 -5.55534 0
M  V30 1769 H 174.09 -0.704318 -2.00382 0
M  V30 1770 H 176.353 -0.254687 -0.913148 0
M  V30 1771 H 176.059 -0.361607 -3.49836 0
M  V30 1772 H 175.933 1.3886 -3.5071 0
M  V30 1773 H 178.32 1.52733 -2.52501 0
M  V30 1774 H 178.401 -0.240095 -2.54671 0
M  V30 1775 H 178.045 -0.2031 -5.07494 0
M  V30 1776 H 177.975 1.57633 -5.02454 0
M  V30 1777 H 180.466 0.739661 -3.70591 0
M  V30 1778 H 180.779 0.894448 -7.67606 0
M  V30 1779 H 179.124 0.811304 -6.90248 0
M  V30 1780 H 182.315 0.833437 -4.60621 0
M  V30 1781 H 182.488 0.904247 -6.4166 0
M  V30 1782 N 175.894 1.51508 0.433938 0
M  V30 1783 C 177.305 1.56784 1.01369 0
M  V30 1784 C 177.656 0.393349 1.92217 0
M  V30 1785 O 176.781 -0.489441 2.10792 0
M  V30 1786 C 177.376 2.84144 1.8452 0
M  V30 1787 C 175.935 2.9198 2.37539 0
M  V30 1788 C 175.082 2.51482 1.16843 0
M  V30 1789 H 178.033 1.57236 0.215081 0
M  V30 1790 H 178.054 2.68098 2.70007 0
M  V30 1791 H 177.566 3.69607 1.18373 0
M  V30 1792 H 175.667 2.10955 3.0713 0
M  V30 1793 H 175.78 3.95704 2.70103 0
M  V30 1794 H 174.144 2.04758 1.51481 0
M  V30 1795 H 174.927 3.39293 0.523015 0
M  V30 1796 N 177.372 -0.689602 1.41712 0
M  V30 1797 C 178.783 -1.26973 1.36875 0
M  V30 1798 C 179.134 -1.96124 0.054748 0
M  V30 1799 O 178.259 -1.99141 -0.84687 0
M  V30 1800 C 178.854 -2.30912 2.47922 0
M  V30 1801 C 177.413 -2.84486 2.46464 0
M  V30 1802 C 176.56 -1.58603 2.27465 0
M  V30 1803 H 179.511 -0.48396 1.51141 0
M  V30 1804 H 179.532 -3.12331 2.17323 0
M  V30 1805 H 179.044 -1.80554 3.43543 0
M  V30 1806 H 177.145 -3.39005 1.54617 0
M  V30 1807 H 177.258 -3.34511 3.42986 0
M  V30 1808 H 175.622 -1.84632 1.75451 0
M  V30 1809 H 176.405 -1.10233 3.25121 0
M  V30 1810 N 178.85 -1.27639 -0.924453 0
M  V30 1811 C 180.098 -1.13941 -1.66918 0
M  V30 1812 C 180.419 0.314589 -1.92446 0
M  V30 1813 O 179.689 1.21964 -1.53303 0
M  V30 1814 H 178.269 -0.418678 -0.618642 0
M  V30 1815 H 180.931 -1.60213 -1.10985 0
M  V30 1816 H 180.027 -1.67094 -2.63602 0
M  V30 1817 N 180.328 1.1314 -1.09713 0
M  V30 1818 C 181.556 1.88321 -0.856898 0
M  V30 1819 C 181.971 1.79276 0.592073 0
M  V30 1820 O 181.328 1.16142 1.40774 0
M  V30 1821 C 181.379 3.37812 -1.28706 0
M  V30 1822 O 181.1 3.46627 -2.67921 0
M  V30 1823 C 182.601 4.29952 -1.07964 0
M  V30 1824 H 179.821 0.596094 -0.308079 0
M  V30 1825 H 182.365 1.43205 -1.45988 0
M  V30 1826 H 180.52 3.805 -0.727912 0
M  V30 1827 H 180.934 4.39579 -2.8613 0
M  V30 1828 H 182.408 5.33159 -1.42986 0
M  V30 1829 H 182.885 4.39196 -0.0176577 0
M  V30 1830 H 183.491 3.93036 -1.62489 0
M  V30 1831 N 181.806 0.884767 1.30421 0
M  V30 1832 C 182.753 0.349642 2.28136 0
M  V30 1833 C 183.723 -0.560061 1.56373 0
M  V30 1834 O 184.908 -0.488524 1.8444 0
M  V30 1835 C 182.048 -0.42999 3.42411 0
M  V30 1836 C 181.161 0.508907 4.28992 0
M  V30 1837 C 180.296 -0.286301 5.30428 0
M  V30 1838 C 179.335 0.648079 6.08659 0
M  V30 1839 N 178.472 -0.111792 7.02011 0
M  V30 1840 H 183.312 1.18807 2.73293 0
M  V30 1841 H 180.849 0.597231 1.3443 0
M  V30 1842 H 182.807 -0.897923 4.07423 0
M  V30 1843 H 181.437 -1.23299 2.98324 0
M  V30 1844 H 180.489 1.09533 3.64289 0
M  V30 1845 H 181.801 1.22475 4.8353 0
M  V30 1846 H 180.955 -0.816098 6.01186 0
M  V30 1847 H 179.694 -1.03536 4.76583 0
M  V30 1848 H 178.699 1.18951 5.36778 0
M  V30 1849 H 179.924 1.39623 6.64592 0
M  V30 1850 H 177.87 -0.843395 6.50556 0
M  V30 1851 H 177.787 0.544429 7.54037 0
M  V30 1852 H 179.055 -0.622339 7.77012 0
M  V30 1853 N 183.284 -1.43765 0.645699 0
M  V30 1854 C 184.247 -2.29163 -0.0409488 0
M  V30 1855 C 185.247 -1.41813 -0.757996 0
M  V30 1856 O 186.437 -1.63527 -0.600382 0
M  V30 1857 C 183.569 -3.23716 -1.06869 0
M  V30 1858 H 184.762 -2.91366 0.710345 0
M  V30 1859 H 182.315 -1.5092 0.406547 0
M  V30 1860 H 183.05 -2.66393 -1.84947 0
M  V30 1861 H 182.835 -3.88105 -0.558277 0
M  V30 1862 H 184.325 -3.87831 -1.54845 0
M  V30 1863 N 184.763 -0.387143 -1.52771 0
M  V30 1864 C 186.011 0.195349 -2.01154 0
M  V30 1865 C 186.332 1.475 -1.27549 0
M  V30 1866 O 185.602 1.91878 -0.394924 0
M  V30 1867 H 184.182 0.075178 -0.743207 0
M  V30 1868 H 186.844 -0.518337 -1.87881 0
M  V30 1869 H 185.94 0.407096 -3.09434 0
M  V30 1870 N 186.241 1.57166 -0.116904 0
M  V30 1871 C 187.204 2.14039 0.819742 0
M  V30 1872 C 188.204 1.07477 1.19605 0
M  V30 1873 O 189.394 1.33263 1.1219 0
M  V30 1874 C 186.526 2.67891 2.10826 0
M  V30 1875 H 187.719 2.98128 0.325511 0
M  V30 1876 H 185.272 1.55739 0.132312 0
M  V30 1877 H 186.007 1.87384 2.64685 0
M  V30 1878 H 185.792 3.45823 1.84793 0
M  V30 1879 H 187.282 3.11809 2.77785 0
M  V30 1880 N 187.719 -0.156864 1.56817 0
M  V30 1881 C 188.667 -1.21319 1.98455 0
M  V30 1882 C 189.661 -1.45025 0.875444 0
M  V30 1883 O 190.867 -1.45435 1.0606 0
M  V30 1884 H 187.242 -0.408142 0.631605 0
M  V30 1885 H 189.213 -0.835244 2.86472 0
M  V30 1886 C 187.962 -2.54148 2.37285 0
M  V30 1887 H 187.285 -2.36733 3.22176 0
M  V30 1888 H 188.725 -3.26712 2.70251 0
M  V30 1889 C 187.184 -3.13967 1.22173 0
M  V30 1890 O 187.714 -3.98357 0.517149 0
M  V30 1891 N 185.92 -2.7327 0.988536 0
M  V30 1892 H 185.467 -2.04744 1.56326 0
M  V30 1893 H 185.425 -3.13628 0.220209 0
M  V30 1894 N 189.197 -1.51736 -0.425897 0
M  V30 1895 C 190.127 -1.76827 -1.52494 0
M  V30 1896 C 191.108 -0.618524 -1.58456 0
M  V30 1897 O 192.293 -0.862416 -1.74 0
M  V30 1898 C 189.423 -1.90374 -2.90474 0
M  V30 1899 C 188.377 -3.0588 -2.99369 0
M  V30 1900 C 187.703 -3.04625 -4.3944 0
M  V30 1901 C 189.003 -4.45644 -2.72394 0
M  V30 1902 H 190.697 -2.68855 -1.31748 0
M  V30 1903 H 188.243 -1.29372 -0.632362 0
M  V30 1904 H 190.196 -2.0651 -3.6733 0
M  V30 1905 H 188.92 -0.95004 -3.12477 0
M  V30 1906 H 187.579 -2.89467 -2.24954 0
M  V30 1907 H 187.227 -2.0701 -4.58428 0
M  V30 1908 H 186.927 -3.82195 -4.46319 0
M  V30 1909 H 188.451 -3.22869 -5.18255 0
M  V30 1910 H 189.865 -4.62348 -3.38979 0
M  V30 1911 H 188.262 -5.25006 -2.9067 0
M  V30 1912 H 189.332 -4.54893 -1.67929 0
M  V30 1913 N 190.675 0.682077 -1.42076 0
M  V30 1914 C 192.086 1.26246 -1.37546 0
M  V30 1915 C 192.437 1.96092 -0.0651481 0
M  V30 1916 O 191.562 1.99587 0.836297 0
M  V30 1917 C 192.157 2.29594 -2.49143 0
M  V30 1918 C 190.716 2.83175 -2.47969 0
M  V30 1919 C 189.863 1.57395 -2.28303 0
M  V30 1920 H 192.814 0.475937 -1.51395 0
M  V30 1921 H 192.835 3.11175 -2.18976 0
M  V30 1922 H 192.347 1.78729 -3.44496 0
M  V30 1923 H 190.448 3.3818 -1.56413 0
M  V30 1924 H 190.561 3.32687 -3.44755 0
M  V30 1925 H 188.925 1.83699 -1.76428 0
M  V30 1926 H 189.708 1.08507 -3.25701 0
M  V30 1927 N 192.153 1.28127 0.917671 0
M  V30 1928 C 193.399 1.15223 1.66888 0
M  V30 1929 C 193.732 -0.299293 1.9188 0
M  V30 1930 O 193.007 -1.21805 1.51637 0
M  V30 1931 C 193.29 1.94706 3.02922 0
M  V30 1932 C 193.143 3.47898 2.85109 0
M  V30 1933 C 194.462 1.75939 4.03402 0
M  V30 1934 H 191.581 0.419946 0.605652 0
M  V30 1935 H 194.223 1.57398 1.06423 0
M  V30 1936 H 192.373 1.58864 3.54534 0
M  V30 1937 H 194.045 3.93624 2.40537 0
M  V30 1938 H 192.288 3.7373 2.20246 0
M  V30 1939 H 192.959 3.98765 3.81694 0
M  V30 1940 H 195.435 2.07209 3.60837 0
M  V30 1941 H 194.311 2.33931 4.96556 0
M  V30 1942 H 194.572 0.709877 4.36364 0
M  V30 1943 N 193.631 -1.12557 1.10312 0
M  V30 1944 C 194.564 -2.1737 0.694674 0
M  V30 1945 C 195.542 -1.59745 -0.303373 0
M  V30 1946 O 196.726 -1.87408 -0.202578 0
M  V30 1947 C 193.853 -3.38691 0.0248052 0
M  V30 1948 C 192.899 -4.14943 0.986121 0
M  V30 1949 S 193.732 -4.73413 2.50281 0
M  V30 1950 C 194.888 -5.9807 1.84562 0
M  V30 1951 H 195.121 -2.5168 1.58255 0
M  V30 1952 H 192.654 -1.23998 0.919992 0
M  V30 1953 H 194.612 -4.08959 -0.355361 0
M  V30 1954 H 193.273 -3.02664 -0.839851 0
M  V30 1955 H 192.466 -5.01854 0.464651 0
M  V30 1956 H 192.068 -3.50377 1.30813 0
M  V30 1957 H 194.36 -6.67232 1.17507 0
M  V30 1958 H 195.303 -6.54841 2.69423 0
M  V30 1959 H 195.711 -5.49073 1.31069 0
M  V30 1960 N 195.109 -0.891671 -1.2995 0
M  V30 1961 C 196.039 -0.379797 -2.30391 0
M  V30 1962 C 197.02 0.540919 -1.6127 0
M  V30 1963 O 198.205 0.453352 -1.88834 0
M  V30 1964 C 195.335 0.400654 -3.44981 0
M  V30 1965 C 194.289 -0.428905 -4.25846 0
M  V30 1966 C 193.615 0.478557 -5.32554 0
M  V30 1967 C 194.915 -1.67458 -4.94727 0
M  V30 1968 H 196.609 -1.21914 -2.73454 0
M  V30 1969 H 194.155 -0.587675 -1.31462 0
M  V30 1970 H 196.108 0.769434 -4.14316 0
M  V30 1971 H 194.832 1.27371 -3.0074 0
M  V30 1972 H 193.491 -0.779911 -3.58208 0
M  V30 1973 H 193.139 1.34951 -4.84559 0
M  V30 1974 H 192.839 -0.0727433 -5.87555 0
M  V30 1975 H 194.363 0.843705 -6.04743 0
M  V30 1976 H 195.777 -1.376 -5.56542 0
M  V30 1977 H 194.174 -2.16659 -5.59624 0
M  V30 1978 H 195.244 -2.41518 -4.20473 0
M  V30 1979 N 196.587 1.43421 -0.653314 0
M  V30 1980 C 197.833 2.02641 -0.175593 0
M  V30 1981 C 198.188 1.5062 1.19713 0
M  V30 1982 O 197.481 0.689697 1.78756 0
M  V30 1983 C 197.675 3.57176 -0.126623 0
M  V30 1984 C 197.504 4.24191 -1.49306 0
M  V30 1985 C 196.274 4.60257 -2.08547 0
M  V30 1986 C 198.472 4.53193 -2.43148 0
M  V30 1987 N 196.454 5.12345 -3.38194 0
M  V30 1988 C 197.825 5.06601 -3.57429 0
M  V30 1989 C 199.88 4.35161 -2.41949 0
M  V30 1990 C 198.583 5.43875 -4.70736 0
M  V30 1991 C 200.609 4.73498 -3.54336 0
M  V30 1992 C 199.971 5.27039 -4.67343 0
M  V30 1993 H 196.07 0.77441 -0.108686 0
M  V30 1994 H 198.654 1.74596 -0.861638 0
M  V30 1995 H 196.825 3.84784 0.528766 0
M  V30 1996 H 198.557 4.03078 0.36198 0
M  V30 1997 H 195.312 4.45302 -1.61255 0
M  V30 1998 H 195.736 5.42842 -4.04538 0
M  V30 1999 H 200.378 3.9304 -1.55818 0
M  V30 2000 H 198.096 5.8494 -5.57558 0
M  V30 2001 H 201.682 4.61241 -3.5461 0
M  V30 2002 H 200.562 5.56153 -5.52868 0
M  V30 2003 N 198.065 0.39524 1.52563 0
M  V30 2004 C 199.314 -0.186321 2.00838 0
M  V30 2005 C 199.627 -1.47402 1.28577 0
M  V30 2006 O 200.833 -2.13599 1.67593 0
M  V30 2007 C 199.289 -0.382595 3.57861 0
M  V30 2008 C 198.897 0.892202 4.39026 0
M  V30 2009 C 200.641 -0.9202 4.14406 0
M  V30 2010 C 198.548 0.66388 5.87662 0
M  V30 2011 H 197.478 -0.0734041 0.750418 0
M  V30 2012 H 200.129 0.518552 1.76021 0
M  V30 2013 H 198.511 -1.14946 3.7895 0
M  V30 2014 H 199.685 1.66414 4.29701 0
M  V30 2015 H 198 1.35519 3.9373 0
M  V30 2016 H 200.597 -1.10683 5.23119 0
M  V30 2017 H 200.94 -1.89096 3.70875 0
M  V30 2018 H 201.473 -0.212751 3.97231 0
M  V30 2019 H 198.212 1.6058 6.35527 0
M  V30 2020 H 197.732 -0.0690193 5.9976 0
M  V30 2021 H 199.411 0.300699 6.46301 0
M  V30 2022 N 199.544 -1.57102 0.125237 0
M  V30 2023 C 200.791 -1.95407 -0.531248 0
M  V30 2024 C 201.119 -1.0089 -1.66287 0
M  V30 2025 O 200.374 -0.0339431 -1.95671 0
M  V30 2026 C 200.673 -3.40096 -1.09862 0
M  V30 2027 C 200.339 -4.50815 -0.0876989 0
M  V30 2028 C 199.001 -4.80824 0.19026 0
M  V30 2029 C 201.353 -5.17724 0.600902 0
M  V30 2030 C 198.681 -5.75058 1.163 0
M  V30 2031 C 201.033 -6.13005 1.56231 0
M  V30 2032 C 199.697 -6.41403 1.8482 0
M  V30 2033 H 198.967 -0.715046 -0.194397 0
M  V30 2034 H 201.614 -1.90373 0.207463 0
M  V30 2035 H 199.919 -3.41855 -1.91422 0
M  V30 2036 H 201.616 -3.6705 -1.61478 0
M  V30 2037 H 198.206 -4.27444 -0.314528 0
M  V30 2038 H 202.39 -4.94691 0.399333 0
M  V30 2039 H 197.646 -5.95362 1.39117 0
M  V30 2040 H 201.82 -6.63934 2.10153 0
M  V30 2041 H 199.447 -7.14229 2.60349 0
M  V30 2042 N 201.022 0.148545 -1.56898 0
M  V30 2043 C 202.27 0.859717 -1.82902 0
M  V30 2044 C 202.591 1.81775 -0.70588 0
M  V30 2045 O 201.861 1.93994 0.272586 0
M  V30 2046 H 200.441 0.320469 -0.674766 0
M  V30 2047 H 203.103 0.142918 -1.94375 0
M  V30 2048 H 202.199 1.4229 -2.77777 0
M  V30 2049 N 202.5 1.5196 0.417844 0
M  V30 2050 C 203.748 1.65263 1.16329 0
M  V30 2051 C 204.069 0.380634 1.91249 0
M  V30 2052 O 203.339 -0.604214 1.86349 0
M  V30 2053 H 201.919 0.60912 0.432414 0
M  V30 2054 H 204.581 1.88969 0.477162 0
M  V30 2055 H 203.677 2.4896 1.88217 0
M  V30 2056 N 203.978 -0.674533 1.42435 0
M  V30 2057 C 205.226 -1.43175 1.42637 0
M  V30 2058 C 205.547 -1.94951 0.0438992 0
M  V30 2059 O 204.817 -1.7308 -0.917607 0
M  V30 2060 H 203.397 -0.531307 0.525092 0
M  V30 2061 H 206.059 -0.797006 1.77859 0
M  V30 2062 H 205.155 -2.28463 2.12629 0
M  V30 2063 N 205.456 -1.28612 -0.910864 0
M  V30 2064 C 206.703 -1.15934 -1.66029 0
M  V30 2065 C 207.031 0.291483 -1.92303 0
M  V30 2066 O 206.286 1.22816 -1.52364 0
M  V30 2067 C 206.585 -1.90624 -3.0232 0
M  V30 2068 C 206.251 -3.40405 -2.95695 0
M  V30 2069 C 204.913 -3.81255 -2.93595 0
M  V30 2070 C 207.265 -4.359 -2.85728 0
M  V30 2071 C 204.593 -5.15936 -2.79334 0
M  V30 2072 C 206.945 -5.70657 -2.73007 0
M  V30 2073 C 205.609 -6.10779 -2.69267 0
M  V30 2074 H 204.879 -0.424234 -0.607541 0
M  V30 2075 H 207.526 -1.5942 -1.06101 0
M  V30 2076 H 205.831 -1.39696 -3.6605 0
M  V30 2077 H 207.528 -1.78228 -3.59215 0
M  V30 2078 H 204.118 -3.07927 -2.98125 0
M  V30 2079 H 208.302 -4.053 -2.86436 0
M  V30 2080 H 203.558 -5.46146 -2.74835 0
M  V30 2081 H 207.732 -6.44311 -2.64264 0
M  V30 2082 H 205.359 -7.1509 -2.57974 0
M  V30 2083 N 206.934 1.1197 -1.10907 0
M  V30 2084 C 207.844 2.21433 -0.774896 0
M  V30 2085 C 208.86 1.72478 0.229657 0
M  V30 2086 O 210.036 2.01288 0.0672008 0
M  V30 2087 C 207.101 3.4602 -0.216986 0
M  V30 2088 C 206.162 4.09791 -1.27944 0
M  V30 2089 C 205.395 5.28431 -0.748055 0
M  V30 2090 O 205.618 5.68823 0.423833 0
M  V30 2091 O 204.552 5.82644 -1.51027 0
M  V30 2092 H 208.378 2.5242 -1.68873 0
M  V30 2093 H 205.963 1.20399 -0.884555 0
M  V30 2094 H 207.845 4.21304 0.090059 0
M  V30 2095 H 206.52 3.16698 0.669633 0
M  V30 2096 H 205.427 3.36265 -1.63941 0
M  V30 2097 H 206.76 4.4328 -2.13925 0
M  V30 2098 N 208.412 0.89855 1.29475 0
M  V30 2099 C 209.661 0.519863 1.94885 0
M  V30 2100 C 209.974 -0.9383 1.71625 0
M  V30 2101 O 211.18 -1.42445 2.31131 0
M  V30 2102 C 209.636 0.878836 3.49005 0
M  V30 2103 C 209.244 2.35569 3.81066 0
M  V30 2104 C 210.988 0.570004 4.20656 0
M  V30 2105 C 208.895 2.65558 5.28425 0
M  V30 2106 H 207.825 0.190692 0.729488 0
M  V30 2107 H 210.476 1.09539 1.47219 0
M  V30 2108 H 208.858 0.232253 3.95318 0
M  V30 2109 H 210.032 3.04773 3.45616 0
M  V30 2110 H 208.347 2.63343 3.22552 0
M  V30 2111 H 210.944 0.770925 5.29113 0
M  V30 2112 H 211.287 -0.491404 4.1339 0
M  V30 2113 H 211.82 1.17438 3.8007 0
M  V30 2114 H 208.559 3.70493 5.40754 0
M  V30 2115 H 208.079 2.00977 5.65127 0
M  V30 2116 H 209.758 2.51765 5.96006 0
M  V30 2117 N 209.89 -1.43072 0.660911 0
M  V30 2118 C 211.138 -2.01323 0.177094 0
M  V30 2119 C 211.459 -1.5245 -1.2159 0
M  V30 2120 O 210.729 -0.740322 -1.81373 0
M  V30 2121 H 209.309 -0.744382 0.0624804 0
M  V30 2122 H 211.971 -1.75179 0.854305 0
M  V30 2123 H 211.067 -3.11649 0.167641 0
M  V30 2124 N 211.368 -0.403325 -1.52352 0
M  V30 2125 C 212.593 0.176499 -2.06648 0
M  V30 2126 C 213.018 1.38577 -1.27193 0
M  V30 2127 O 212.376 1.7879 -0.300637 0
M  V30 2128 C 212.424 0.511061 -3.5696 0
M  V30 2129 O 211.528 1.60294 -3.79973 0
M  V30 2130 H 210.869 0.0167337 -0.663789 0
M  V30 2131 H 213.399 -0.574848 -1.96359 0
M  V30 2132 H 213.409 0.771362 -4.00642 0
M  V30 2133 H 212.084 -0.37296 -4.14224 0
M  V30 2134 H 210.661 1.33526 -3.48174 0
M  V30 2135 N 212.846 1.57033 -0.133567 0
M  V30 2136 C 214.257 1.82593 0.389464 0
M  V30 2137 C 214.608 1.05156 1.6564 0
M  V30 2138 O 213.733 0.292644 2.14412 0
M  V30 2139 C 214.328 3.31204 0.713377 0
M  V30 2140 C 212.887 3.57393 1.18098 0
M  V30 2141 C 212.034 2.76598 0.197126 0
M  V30 2142 H 214.985 1.54598 -0.358481 0
M  V30 2143 H 215.006 3.46627 1.56939 0
M  V30 2144 H 214.518 3.87537 -0.2089 0
M  V30 2145 H 212.619 3.06433 2.11966 0
M  V30 2146 H 212.732 4.65915 1.11624 0
M  V30 2147 H 211.096 2.45257 0.687088 0
M  V30 2148 H 211.879 3.35697 -0.718504 0
M  V30 2149 N 214.325 -0.140222 1.56975 0
M  V30 2150 C 215.553 -0.866437 1.87884 0
M  V30 2151 C 215.968 -1.74428 0.722517 0
M  V30 2152 O 215.325 -1.79891 -0.30749 0
M  V30 2153 C 215.376 -1.71753 3.18093 0
M  V30 2154 O 215.097 -0.875056 4.29272 0
M  V30 2155 C 216.598 -2.55074 3.62563 0
M  V30 2156 H 213.818 -0.25019 0.622612 0
M  V30 2157 H 216.362 -0.130977 2.0408 0
M  V30 2158 H 214.517 -2.40598 3.03631 0
M  V30 2159 H 214.931 -1.46002 5.03769 0
M  V30 2160 H 216.405 -3.10356 4.5649 0
M  V30 2161 H 216.882 -3.31434 2.88181 0
M  V30 2162 H 217.488 -1.91509 3.79743 0
M  V30 2163 N 215.803 -1.52179 -0.40978 0
M  V30 2164 C 217.052 -1.65434 -1.15388 0
M  V30 2165 C 217.365 -0.390056 -1.91671 0
M  V30 2166 O 218.571 -0.402399 -2.68501 0
M  V30 2167 C 217.027 -2.92279 -2.10003 0
M  V30 2168 C 216.635 -4.25813 -1.39239 0
M  V30 2169 C 218.379 -3.14897 -2.84675 0
M  V30 2170 C 216.286 -5.43782 -2.32498 0
M  V30 2171 H 215.216 -0.616267 -0.434432 0
M  V30 2172 H 217.867 -1.78666 -0.418401 0
M  V30 2173 H 216.249 -2.72744 -2.871 0
M  V30 2174 H 217.423 -4.55828 -0.675099 0
M  V30 2175 H 215.738 -4.09292 -0.766097 0
M  V30 2176 H 218.335 -4.0021 -3.54593 0
M  V30 2177 H 218.678 -2.29103 -3.47588 0
M  V30 2178 H 219.211 -3.34901 -2.14677 0
M  V30 2179 H 215.95 -6.3192 -1.74233 0
M  V30 2180 H 215.47 -5.18106 -3.02201 0
M  V30 2181 H 217.149 -5.76834 -2.93038 0
M  V30 2182 N 217.281 0.66697 -1.42791 0
M  V30 2183 C 218.528 1.42699 -1.43678 0
M  V30 2184 C 218.856 1.94419 -0.0560425 0
M  V30 2185 O 218.111 1.7182 0.936831 0
M  V30 2186 C 218.41 2.6349 -2.4147 0
M  V30 2187 C 218.076 2.30267 -3.8767 0
M  V30 2188 C 216.738 2.20918 -4.27491 0
M  V30 2189 C 219.09 2.03435 -4.79858 0
M  V30 2190 C 216.418 1.82873 -5.57471 0
M  V30 2191 C 218.77 1.66892 -6.10188 0
M  V30 2192 C 217.434 1.56058 -6.49001 0
M  V30 2193 H 216.704 0.522171 -0.525755 0
M  V30 2194 H 219.351 0.759785 -1.75783 0
M  V30 2195 H 217.656 3.35279 -2.0272 0
M  V30 2196 H 219.353 3.21684 -2.39417 0
M  V30 2197 H 215.943 2.38449 -3.56146 0
M  V30 2198 H 220.127 2.09586 -4.49875 0
M  V30 2199 H 215.383 1.7306 -5.86396 0
M  V30 2200 H 219.557 1.45157 -6.81104 0
M  V30 2201 H 217.184 1.26348 -7.49627 0
M  V30 2202 N 218.759 1.29093 0.90403 0
M  V30 2203 C 220.17 1.15186 1.46932 0
M  V30 2204 C 220.521 -0.254587 1.94541 0
M  V30 2205 O 219.646 -1.14972 1.83332 0
M  V30 2206 C 220.241 2.08492 2.67051 0
M  V30 2207 C 218.8 1.98621 3.19729 0
M  V30 2208 C 217.947 1.9967 1.92425 0
M  V30 2209 H 220.898 1.41641 0.715789 0
M  V30 2210 H 220.919 1.65461 3.42641 0
M  V30 2211 H 220.431 3.10847 2.3237 0
M  V30 2212 H 218.532 0.993389 3.59114 0
M  V30 2213 H 218.645 2.86068 3.8432 0
M  V30 2214 H 217.009 1.44208 2.09943 0
M  V30 2215 H 217.792 3.03721 1.60026 0
M  V30 2216 N 220.237 -1.11381 1.11499 0
M  V30 2217 C 221.648 -1.6465 0.880191 0
M  V30 2218 C 221.999 -1.87199 -0.587434 0
M  V30 2219 O 221.124 -1.60667 -1.44966 0
M  V30 2220 C 221.719 -2.99105 1.59128 0
M  V30 2221 C 220.278 -3.49279 1.40289 0
M  V30 2222 C 219.425 -2.24077 1.63354 0
M  V30 2223 H 222.376 -0.950123 1.27116 0
M  V30 2224 H 222.397 -3.66107 1.03664 0
M  V30 2225 H 221.909 -2.82661 2.65941 0
M  V30 2226 H 220.01 -3.70887 0.356888 0
M  V30 2227 H 220.123 -4.2803 2.15238 0
M  V30 2228 H 218.487 -2.31733 1.05698 0
M  V30 2229 H 219.27 -2.10175 2.71443 0
M  V30 2230 N 221.715 -0.905404 -1.28997 0
M  V30 2231 C 222.678 -0.392253 -2.25819 0
M  V30 2232 C 223.678 0.476753 -1.5357 0
M  V30 2233 O 224.868 0.280994 -1.71919 0
M  V30 2234 C 222 0.438588 -3.38067 0
M  V30 2235 H 223.193 -1.24743 -2.72725 0
M  V30 2236 H 220.746 -0.684051 -1.40536 0
M  V30 2237 H 221.481 1.31352 -2.96508 0
M  V30 2238 H 221.266 -0.184167 -3.91667 0
M  V30 2239 H 222.756 0.78873 -4.10084 0
M  V30 2240 N 223.193 1.4272 -0.668489 0
M  V30 2241 C 224.125 2.2914 0.052613 0
M  V30 2242 C 225.138 1.43339 0.771857 0
M  V30 2243 O 226.327 1.67123 0.627067 0
M  V30 2244 C 223.427 3.20618 1.09804 0
M  V30 2245 C 222.6 4.35039 0.45389 0
M  V30 2246 C 221.659 5.07282 1.39825 0
M  V30 2247 O 220.685 5.62024 0.900978 0
M  V30 2248 N 221.887 5.12206 2.73176 0
M  V30 2249 H 224.652 2.91668 -0.689209 0
M  V30 2250 H 222.213 1.53577 -0.512422 0
M  V30 2251 H 224.205 3.65815 1.73094 0
M  V30 2252 H 222.775 2.59585 1.74167 0
M  V30 2253 H 221.995 3.92567 -0.358396 0
M  V30 2254 H 223.283 5.088 0.00486972 0
M  V30 2255 H 222.681 4.6913 3.16122 0
M  V30 2256 H 221.238 5.61069 3.31729 0
M  V30 2257 N 224.671 0.411399 1.52136 0
M  V30 2258 C 225.604 -0.457614 2.23565 0
M  V30 2259 C 226.582 -1.04613 1.24478 0
M  V30 2260 O 227.766 -1.09356 1.53536 0
M  V30 2261 C 224.893 -1.6354 2.96602 0
M  V30 2262 C 223.939 -1.17005 4.10137 0
M  V30 2263 S 224.772 -0.13333 5.35334 0
M  V30 2264 C 225.928 -1.31638 6.119 0
M  V30 2265 H 226.161 0.148883 2.96927 0
M  V30 2266 H 223.694 0.195713 1.53155 0
M  V30 2267 H 225.652 -2.31074 3.39286 0
M  V30 2268 H 224.313 -2.21324 2.22878 0
M  V30 2269 H 223.506 -2.05005 4.60422 0
M  V30 2270 H 223.108 -0.573319 3.6958 0
M  V30 2271 H 225.4 -2.23957 6.39413 0
M  V30 2272 H 226.343 -0.854014 7.02931 0
M  V30 2273 H 226.751 -1.54321 5.42997 0
M  V30 2274 N 226.149 -1.5696 0.141893 0
M  V30 2275 C 227.395 -1.9625 -0.511248 0
M  V30 2276 C 227.728 -1.02654 -1.64851 0
M  V30 2277 O 227.003 -0.0679676 -1.94381 0
M  V30 2278 C 227.286 -3.45285 -1.02227 0
M  V30 2279 C 227.139 -4.49658 0.113138 0
M  V30 2280 C 228.458 -3.96698 -1.90574 0
M  V30 2281 H 225.577 -0.713567 -0.184367 0
M  V30 2282 H 228.219 -1.88698 0.222087 0
M  V30 2283 H 226.369 -3.51852 -1.64719 0
M  V30 2284 H 228.041 -4.55174 0.749302 0
M  V30 2285 H 226.284 -4.26857 0.773026 0
M  V30 2286 H 226.955 -5.51258 -0.286053 0
M  V30 2287 H 229.431 -3.92578 -1.37918 0
M  V30 2288 H 228.307 -5.01453 -2.2324 0
M  V30 2289 H 228.568 -3.3875 -2.84079 0
M  V30 2290 N 227.627 0.131896 -1.57047 0
M  V30 2291 C 228.855 0.856461 -1.88341 0
M  V30 2292 C 229.27 1.74042 -0.731757 0
M  V30 2293 O 228.627 1.80051 0.297945 0
M  V30 2294 C 228.678 1.70064 -3.18999 0
M  V30 2295 O 228.399 0.852278 -4.2973 0
M  V30 2296 C 229.9 2.53148 -3.63911 0
M  V30 2297 H 227.12 0.246885 -0.62393 0
M  V30 2298 H 229.664 0.120152 -2.04147 0
M  V30 2299 H 227.819 2.38984 -3.04902 0
M  V30 2300 H 228.233 1.43329 -5.04537 0
M  V30 2301 H 229.707 3.07931 -4.58129 0
M  V30 2302 H 230.184 3.29901 -2.89935 0
M  V30 2303 H 230.79 1.89492 -3.80753 0
M  V30 2304 N 229.106 1.52395 0.401703 0
M  V30 2305 C 230.053 1.76268 1.48991 0
M  V30 2306 C 231.023 0.605386 1.54675 0
M  V30 2307 O 232.208 0.843742 1.7113 0
M  V30 2308 C 229.348 1.92592 2.86361 0
M  V30 2309 C 228.461 3.20259 2.89928 0
M  V30 2310 C 227.596 3.26972 4.18644 0
M  V30 2311 C 226.635 4.48812 4.16214 0
M  V30 2312 N 225.772 4.52877 5.36514 0
M  V30 2313 H 230.612 2.6914 1.27935 0
M  V30 2314 H 228.149 1.33355 0.620871 0
M  V30 2315 H 230.107 2.0004 3.66115 0
M  V30 2316 H 228.737 1.03093 3.05895 0
M  V30 2317 H 227.789 3.21945 2.02621 0
M  V30 2318 H 229.101 4.10056 2.83999 0
M  V30 2319 H 228.255 3.33533 5.06794 0
M  V30 2320 H 226.994 2.35126 4.27278 0
M  V30 2321 H 225.999 4.4239 3.26453 0
M  V30 2322 H 227.224 5.41961 4.09213 0
M  V30 2323 H 225.17 3.63917 5.45802 0
M  V30 2324 H 225.087 5.36529 5.32609 0
M  V30 2325 H 226.355 4.63676 6.26597 0
M  V30 2326 N 230.584 -0.659388 1.43143 0
M  V30 2327 C 231.809 -1.45221 1.48073 0
M  V30 2328 C 232.234 -1.87845 0.097995 0
M  V30 2329 O 231.592 -1.56985 -0.90694 0
M  V30 2330 C 231.64 -2.66748 2.42647 0
M  V30 2331 O 230.744 -3.65583 1.90848 0
M  V30 2332 H 230.085 -0.435669 0.501088 0
M  V30 2333 H 232.615 -0.807432 1.87994 0
M  V30 2334 H 232.625 -3.14637 2.59745 0
M  V30 2335 H 231.3 -2.35067 3.43098 0
M  V30 2336 H 229.877 -3.24693 1.83381 0
M  V30 2337 N 232.062 -1.29571 -0.897171 0
M  V30 2338 C 233.308 -1.17863 -1.65034 0
M  V30 2339 C 233.641 0.268729 -1.92332 0
M  V30 2340 O 232.916 1.19378 -1.53555 0
M  V30 2341 C 233.199 -1.995 -2.99786 0
M  V30 2342 C 233.052 -3.5239 -2.79538 0
M  V30 2343 C 234.371 -1.82335 -4.00552 0
M  V30 2344 H 231.49 -0.429528 -0.598895 0
M  V30 2345 H 234.132 -1.59072 -1.03905 0
M  V30 2346 H 232.282 -1.64485 -3.51962 0
M  V30 2347 H 233.954 -3.97401 -2.34244 0
M  V30 2348 H 232.197 -3.77187 -2.14273 0
M  V30 2349 H 232.868 -4.04787 -3.75302 0
M  V30 2350 H 235.344 -2.12924 -3.57495 0
M  V30 2351 H 234.22 -2.41801 -4.92771 0
M  V30 2352 H 234.481 -0.779209 -4.35179 0
M  V30 2353 N 233.54 1.10788 -1.12088 0
M  V30 2354 C 234.47 2.19083 -0.807755 0
M  V30 2355 C 235.451 1.6858 0.226859 0
M  V30 2356 O 236.636 1.93997 0.0888475 0
M  V30 2357 C 233.766 3.46344 -0.257576 0
M  V30 2358 C 232.72 4.101 -1.22483 0
M  V30 2359 C 232.046 5.32016 -0.535052 0
M  V30 2360 C 233.346 4.54236 -2.57811 0
M  V30 2361 H 235.04 2.45534 -1.71328 0
M  V30 2362 H 232.586 1.1801 -0.825205 0
M  V30 2363 H 234.539 4.21392 -0.0262679 0
M  V30 2364 H 233.263 3.19373 0.683278 0
M  V30 2365 H 231.922 3.37054 -1.44189 0
M  V30 2366 H 231.57 5.01319 0.410827 0
M  V30 2367 H 231.27 5.75625 -1.18024 0
M  V30 2368 H 232.794 6.09799 -0.312695 0
M  V30 2369 H 234.208 5.20575 -2.40155 0
M  V30 2370 H 232.605 5.08682 -3.18375 0
M  V30 2371 H 233.675 3.6734 -3.16528 0
M  V30 2372 N 235.018 0.912232 1.28515 0
M  V30 2373 C 235.951 0.343928 2.25593 0
M  V30 2374 C 236.929 -0.550994 1.5298 0
M  V30 2375 O 238.113 -0.494991 1.81885 0
M  V30 2376 C 235.24 -0.508525 3.34861 0
M  V30 2377 C 234.286 0.320808 4.25292 0
M  V30 2378 S 235.119 1.72658 5.06902 0
M  V30 2379 C 236.275 0.881394 6.19663 0
M  V30 2380 H 236.508 1.16674 2.73449 0
M  V30 2381 H 234.041 0.713384 1.36931 0
M  V30 2382 H 235.999 -0.994539 3.9827 0
M  V30 2383 H 234.66 -1.30571 2.85675 0
M  V30 2384 H 233.853 -0.330941 5.02912 0
M  V30 2385 H 233.455 0.74042 3.66598 0
M  V30 2386 H 235.747 0.110359 6.7741 0
M  V30 2387 H 236.69 1.63009 6.89082 0
M  V30 2388 H 237.098 0.430239 5.62858 0
M  V30 2389 N 236.496 -1.42363 0.676048 0
M  V30 2390 C 237.744 -2.01123 0.198437 0
M  V30 2391 C 238.065 -1.53731 -1.19966 0
M  V30 2392 O 237.335 -0.759518 -1.80577 0
M  V30 2393 H 235.915 -0.743678 0.0703721 0
M  V30 2394 H 238.577 -1.74263 0.872837 0
M  V30 2395 H 237.673 -3.11454 0.200686 0
M  V30 2396 N 237.974 -0.419461 -1.51915 0
M  V30 2397 C 238.921 0.400927 -2.27291 0
M  V30 2398 C 239.891 1.03224 -1.30131 0
M  V30 2399 O 241.076 1.05455 -1.59009 0
M  V30 2400 C 238.216 1.50603 -3.10504 0
M  V30 2401 C 237.329 0.89462 -4.22635 0
M  V30 2402 C 236.464 1.97328 -4.93189 0
M  V30 2403 C 235.503 1.33935 -5.97267 0
M  V30 2404 N 234.64 2.3586 -6.61298 0
M  V30 2405 H 239.48 -0.248251 -2.96964 0
M  V30 2406 H 237.017 -0.134266 -1.46486 0
M  V30 2407 H 238.975 2.15783 -3.57062 0
M  V30 2408 H 237.605 2.12509 -2.42981 0
M  V30 2409 H 236.657 0.131583 -3.80172 0
M  V30 2410 H 237.969 0.391641 -4.9726 0
M  V30 2411 H 237.123 2.70211 -5.43204 0
M  V30 2412 H 235.862 2.50994 -4.18155 0
M  V30 2413 H 234.867 0.595896 -5.46561 0
M  V30 2414 H 236.092 0.810252 -6.74249 0
M  V30 2415 H 234.038 2.88639 -5.89087 0
M  V30 2416 H 233.955 1.90403 -7.3163 0
M  V30 2417 H 235.223 3.08282 -7.15949 0
M  V30 2418 N 239.452 1.56882 -0.150215 0
M  V30 2419 C 240.863 1.82995 0.370076 0
M  V30 2420 C 241.214 1.06907 1.64515 0
M  V30 2421 O 240.339 0.315369 2.1409 0
M  V30 2422 C 240.934 3.31942 0.678208 0
M  V30 2423 C 239.493 3.58625 1.14301 0
M  V30 2424 C 238.64 2.76792 0.167778 0
M  V30 2425 H 241.591 1.54209 -0.374858 0
M  V30 2426 H 241.612 3.48272 1.53254 0
M  V30 2427 H 241.124 3.87294 -0.249991 0
M  V30 2428 H 239.225 3.08664 2.08704 0
M  V30 2429 H 239.338 4.67073 1.06676 0
M  V30 2430 H 237.702 2.45972 0.661037 0
M  V30 2431 H 238.485 3.34916 -0.754069 0
M  V30 2432 N 240.93 -0.123565 1.57115 0
M  V30 2433 C 242.179 -0.830704 1.83799 0
M  V30 2434 C 242.492 -1.81259 0.735158 0
M  V30 2435 O 243.698 -2.56558 0.888278 0
M  V30 2436 C 242.154 -1.52802 3.25852 0
M  V30 2437 C 241.762 -0.587356 4.44133 0
M  V30 2438 C 243.506 -2.22056 3.61789 0
M  V30 2439 C 241.413 -1.28764 5.77212 0
M  V30 2440 H 240.343 -0.313967 0.685522 0
M  V30 2441 H 242.994 -0.0834359 1.8331 0
M  V30 2442 H 241.376 -2.32175 3.20797 0
M  V30 2443 H 242.55 0.172829 4.60476 0
M  V30 2444 H 240.865 -0.00201892 4.164 0
M  V30 2445 H 243.462 -2.75131 4.58483 0
M  V30 2446 H 243.805 -2.99644 2.88997 0
M  V30 2447 H 244.338 -1.49576 3.68608 0
M  V30 2448 H 241.077 -0.55314 6.53162 0
M  V30 2449 H 240.597 -2.01995 5.64764 0
M  V30 2450 H 242.276 -1.8221 6.20813 0
M  V30 2451 N 242.408 -1.52605 -0.393616 0
M  V30 2452 C 243.657 -1.66649 -1.13627 0
M  V30 2453 C 243.97 -0.410364 -1.91247 0
M  V30 2454 O 245.176 -0.430854 -2.68059 0
M  V30 2455 C 243.632 -2.9449 -2.06891 0
M  V30 2456 C 243.24 -4.27266 -1.34714 0
M  V30 2457 C 244.984 -3.17899 -2.81319 0
M  V30 2458 C 242.891 -5.46217 -2.26717 0
M  V30 2459 H 241.821 -0.62084 -0.427871 0
M  V30 2460 H 244.472 -1.791 -0.399428 0
M  V30 2461 H 242.854 -2.75774 -2.84191 0
M  V30 2462 H 244.028 -4.56518 -0.626714 0
M  V30 2463 H 242.343 -4.10081 -0.722643 0
M  V30 2464 H 244.94 -4.03949 -3.50328 0
M  V30 2465 H 245.283 -2.32777 -3.45139 0
M  V30 2466 H 245.816 -3.37159 -2.11113 0
M  V30 2467 H 242.555 -6.33733 -1.67521 0
M  V30 2468 H 242.075 -5.21283 -2.96689 0
M  V30 2469 H 243.754 -5.7991 -2.86903 0
M  V30 2470 N 243.887 0.651787 -1.4349 0
M  V30 2471 C 244.837 1.75783 -1.45205 0
M  V30 2472 C 245.821 1.57679 -0.320328 0
M  V30 2473 O 247.013 1.67767 -0.564211 0
M  V30 2474 C 244.142 3.14377 -1.3792 0
M  V30 2475 C 243.228 3.38023 -2.56127 0
M  V30 2476 N 243.619 3.32135 -3.81471 0
M  V30 2477 C 241.917 3.68747 -2.50882 0
M  V30 2478 C 242.618 3.55902 -4.60118 0
M  V30 2479 N 241.594 3.77783 -3.90872 0
M  V30 2480 H 245.396 1.69657 -2.39987 0
M  V30 2481 H 242.91 0.853508 -1.38163 0
M  V30 2482 H 244.907 3.93666 -1.37231 0
M  V30 2483 H 243.567 3.21683 -0.441596 0
M  V30 2484 H 244.578 3.11515 -4.13738 0
M  V30 2485 H 241.255 3.8316 -1.65816 0
M  V30 2486 H 242.645 3.57116 -5.69138 0
M  V30 2487 N 245.365 1.30045 0.890287 0
M  V30 2488 C 246.611 1.18737 1.64406 0
M  V30 2489 C 246.944 -0.258525 1.92472 0
M  V30 2490 O 246.219 -1.18562 1.54186 0
M  V30 2491 C 246.502 2.01087 2.98724 0
M  V30 2492 C 246.355 3.53867 2.77665 0
M  V30 2493 C 247.674 1.84457 3.9958 0
M  V30 2494 H 244.793 0.432698 0.596608 0
M  V30 2495 H 247.435 1.5962 1.0306 0
M  V30 2496 H 245.585 1.66349 3.51084 0
M  V30 2497 H 247.257 3.98637 2.32133 0
M  V30 2498 H 245.5 3.78318 2.12269 0
M  V30 2499 H 246.171 4.06772 3.7315 0
M  V30 2500 H 248.647 2.14817 3.56361 0
M  V30 2501 H 247.523 2.44411 4.91482 0
M  V30 2502 H 247.784 0.802276 4.3476 0
M  V30 2503 N 246.843 -1.10192 1.12674 0
M  V30 2504 C 247.806 -2.14786 0.799979 0
M  V30 2505 C 248.806 -1.59711 -0.18685 0
M  V30 2506 O 249.996 -1.74156 0.0392558 0
M  V30 2507 C 247.128 -3.40374 0.189228 0
M  V30 2508 H 248.321 -2.45203 1.72671 0
M  V30 2509 H 245.874 -1.25597 0.930326 0
M  V30 2510 H 246.609 -3.15577 -0.747107 0
M  V30 2511 H 246.394 -3.81637 0.899766 0
M  V30 2512 H 247.884 -4.17594 -0.0228143 0
M  V30 2513 N 248.321 -0.919034 -1.28029 0
M  V30 2514 C 249.567 -0.555757 -1.95036 0
M  V30 2515 C 249.9 0.899198 -1.72128 0
M  V30 2516 O 249.175 1.64023 -1.04531 0
M  V30 2517 C 249.458 -0.872024 -3.49382 0
M  V30 2518 C 249.311 -2.3801 -3.81669 0
M  V30 2519 C 250.63 -0.37185 -4.38526 0
M  V30 2520 H 247.749 -0.203386 -0.708381 0
M  V30 2521 H 250.391 -1.14924 -1.51303 0
M  V30 2522 H 248.541 -0.366946 -3.86763 0
M  V30 2523 H 250.213 -2.9562 -3.54128 0
M  V30 2524 H 248.456 -2.83289 -3.28526 0
M  V30 2525 H 249.127 -2.55192 -4.8947 0
M  V30 2526 H 251.603 -0.804602 -4.08247 0
M  V30 2527 H 250.479 -0.622173 -5.45362 0
M  V30 2528 H 250.74 0.727934 -4.36066 0
M  V30 2529 N 249.799 1.42003 -0.683588 0
M  V30 2530 C 250.747 2.326 0.000815408 0
M  V30 2531 C 251.741 1.50308 0.781278 0
M  V30 2532 O 252.947 1.66322 0.688251 0
M  V30 2533 H 249.322 0.751758 0.0190616 0
M  V30 2534 H 251.293 2.88011 -0.780528 0
M  V30 2535 C 250.042 3.34978 0.93195 0
M  V30 2536 H 249.365 3.98345 0.340817 0
M  V30 2537 H 250.805 4.00936 1.37936 0
M  V30 2538 C 249.264 2.67925 2.04249 0
M  V30 2539 O 249.794 2.51788 3.12995 0
M  V30 2540 N 248 2.2681 1.81675 0
M  V30 2541 H 247.547 2.40135 0.932363 0
M  V30 2542 H 247.505 1.8228 2.56167 0
M  V30 2543 N 251.277 0.427512 1.51691 0
M  V30 2544 C 252.507 -0.140986 2.06118 0
M  V30 2545 C 252.915 -1.37854 1.29588 0
M  V30 2546 O 252.258 -1.80411 0.346036 0
M  V30 2547 C 252.32 -0.538276 3.55447 0
M  V30 2548 C 251.984 0.591095 4.53161 0
M  V30 2549 C 252.981 1.46027 4.98971 0
M  V30 2550 C 250.666 0.769028 4.96378 0
M  V30 2551 C 252.66 2.49216 5.8666 0
M  V30 2552 C 250.347 1.80421 5.83859 0
M  V30 2553 C 251.345 2.66417 6.28897 0
M  V30 2554 O 251.033 3.68159 7.14643 0
M  V30 2555 H 250.765 -0.0157455 0.675817 0
M  V30 2556 H 253.319 0.602495 1.96365 0
M  V30 2557 H 251.549 -1.33432 3.6295 0
M  V30 2558 H 253.238 -1.0368 3.92435 0
M  V30 2559 H 254.004 1.33429 4.66285 0
M  V30 2560 H 249.883 0.109273 4.6087 0
M  V30 2561 H 253.427 3.16372 6.21735 0
M  V30 2562 H 249.324 1.93042 6.15959 0
M  V30 2563 H 250.092 3.64622 7.32798 0
M  V30 2564 N 252.755 -1.56801 0.158532 0
M  V30 2565 C 254.171 -1.5837 -0.197774 0
M  V30 2566 C 254.371 -1.17334 -1.63814 0
M  V30 2567 O 253.427 -0.878988 -2.36707 0
M  V30 2568 C 254.74 -3.00615 0.0714459 0
M  V30 2569 C 256.288 -3.12999 0.00864533 0
M  V30 2570 C 256.763 -4.57313 0.250685 0
M  V30 2571 N 258.254 -4.62777 0.198014 0
M  V30 2572 C 258.989 -5.72271 0.359642 0
M  V30 2573 N 258.485 -6.90371 0.579625 0
M  V30 2574 N 260.278 -5.61318 0.296438 0
M  V30 2575 H 252.429 -1.81765 1.09887 0
M  V30 2576 H 254.692 -0.841849 0.435884 0
M  V30 2577 H 254.398 -3.35068 1.06874 0
M  V30 2578 H 254.272 -3.71683 -0.642757 0
M  V30 2579 H 256.659 -2.7838 -0.979217 0
M  V30 2580 H 256.74 -2.44393 0.755359 0
M  V30 2581 H 256.384 -4.92639 1.2357 0
M  V30 2582 H 256.314 -5.24061 -0.516489 0
M  V30 2583 H 258.805 -3.77885 0.0331115 0
M  V30 2584 H 259.118 -7.69689 0.69275 0
M  V30 2585 H 257.463 -6.92264 0.616087 0
M  V30 2586 H 260.654 -4.67932 0.125258 0
M  V30 2587 H 260.827 -6.46599 0.425831 0
M  V30 2588 N 254.233 0.115231 -1.57178 0
M  V30 2589 C 255.479 0.82357 -1.85325 0
M  V30 2590 C 255.812 1.79349 -0.744814 0
M  V30 2591 O 255.087 1.92899 0.249024 0
M  V30 2592 C 255.37 1.57014 -3.24066 0
M  V30 2593 C 255.223 0.619565 -4.45513 0
M  V30 2594 C 256.542 2.52545 -3.60429 0
M  V30 2595 H 253.661 0.297948 -0.674089 0
M  V30 2596 H 256.303 0.0877138 -1.89797 0
M  V30 2597 H 254.453 2.19742 -3.20383 0
M  V30 2598 H 256.125 0.000837639 -4.613 0
M  V30 2599 H 254.368 -0.0686174 -4.33746 0
M  V30 2600 H 255.039 1.17866 -5.3927 0
M  V30 2601 H 257.515 1.9992 -3.64926 0
M  V30 2602 H 256.391 3.01811 -4.58477 0
M  V30 2603 H 256.652 3.35383 -2.88047 0
M  V30 2604 N 255.711 1.52812 0.385517 0
M  V30 2605 C 256.674 1.77188 1.45386 0
M  V30 2606 C 257.674 0.641953 1.4743 0
M  V30 2607 O 258.864 0.910033 1.4854 0
M  V30 2608 C 255.996 1.87582 2.8465 0
M  V30 2609 H 257.189 2.72583 1.25054 0
M  V30 2610 H 254.742 1.43586 0.617467 0
M  V30 2611 H 255.477 0.941849 3.10322 0
M  V30 2612 H 255.262 2.69748 2.84567 0
M  V30 2613 H 256.752 2.08102 3.62054 0
M  V30 2614 N 257.189 -0.644168 1.43834 0
M  V30 2615 C 258.414 -1.43642 1.49605 0
M  V30 2616 C 258.839 -1.8773 0.117913 0
M  V30 2617 O 258.197 -1.57938 -0.890239 0
M  V30 2618 C 258.245 -2.6416 2.45463 0
M  V30 2619 O 257.349 -3.63538 1.94714 0
M  V30 2620 H 256.69 -0.430329 0.50568 0
M  V30 2621 H 259.22 -0.787448 1.8884 0
M  V30 2622 H 259.23 -3.11864 2.63068 0
M  V30 2623 H 257.905 -2.31414 3.45572 0
M  V30 2624 H 256.482 -3.2273 1.86814 0
M  V30 2625 N 258.668 -1.30515 -0.883378 0
M  V30 2626 C 259.914 -1.20617 -1.63778 0
M  V30 2627 C 260.269 0.236469 -1.90941 0
M  V30 2628 O 259.562 1.16596 -1.52039 0
M  V30 2629 C 259.756 -1.96994 -2.98209 0
M  V30 2630 C 259.585 -3.48537 -2.84169 0
M  V30 2631 C 258.355 -4.17893 -2.84067 0
M  V30 2632 C 260.553 -4.43738 -2.60001 0
M  V30 2633 N 258.535 -5.55685 -2.60936 0
M  V30 2634 C 259.906 -5.69105 -2.46007 0
M  V30 2635 C 261.961 -4.33316 -2.45239 0
M  V30 2636 C 260.664 -6.8523 -2.18752 0
M  V30 2637 C 262.69 -5.4921 -2.19369 0
M  V30 2638 C 262.052 -6.73558 -2.06153 0
M  V30 2639 H 258.151 -0.496434 -0.604216 0
M  V30 2640 H 260.735 -1.64544 -1.04083 0
M  V30 2641 H 258.906 -1.55455 -3.55933 0
M  V30 2642 H 260.638 -1.79225 -3.62851 0
M  V30 2643 H 257.393 -3.69739 -2.95956 0
M  V30 2644 H 257.817 -6.28199 -2.52378 0
M  V30 2645 H 262.459 -3.37856 -2.54191 0
M  V30 2646 H 260.177 -7.80729 -2.08537 0
M  V30 2647 H 263.763 -5.43054 -2.08766 0
M  V30 2648 H 262.643 -7.61721 -1.86416 0
M  V30 2649 N 260.146 1.09593 -1.13257 0
M  V30 2650 C 261.394 1.81375 -0.891492 0
M  V30 2651 C 261.715 1.86049 0.584009 0
M  V30 2652 O 260.985 1.34481 1.42449 0
M  V30 2653 H 259.565 0.671708 -0.326828 0
M  V30 2654 H 262.227 1.3256 -1.42877 0
M  V30 2655 H 261.323 2.84612 -1.28071 0
M  V30 2656 N 261.624 0.925811 1.2754 0
M  V30 2657 C 262.871 0.565255 1.94451 0
M  V30 2658 C 263.199 -0.89316 1.7278 0
M  V30 2659 O 262.454 -1.65213 1.04895 0
M  V30 2660 C 262.753 0.835296 3.47502 0
M  V30 2661 C 262.419 2.27515 3.89291 0
M  V30 2662 C 261.081 2.66879 4.00411 0
M  V30 2663 C 263.433 3.21158 4.10496 0
M  V30 2664 C 260.761 3.99014 4.30122 0
M  V30 2665 C 263.113 4.52871 4.4169 0
M  V30 2666 C 261.777 4.92072 4.51023 0
M  V30 2667 H 261.047 0.206841 0.711546 0
M  V30 2668 H 263.694 1.16942 1.51647 0
M  V30 2669 H 261.999 0.148442 3.91519 0
M  V30 2670 H 263.696 0.535322 3.97411 0
M  V30 2671 H 260.286 1.95976 3.81171 0
M  V30 2672 H 264.47 2.9195 4.01346 0
M  V30 2673 H 259.726 4.2907 4.35556 0
M  V30 2674 H 263.9 5.25436 4.57045 0
M  V30 2675 H 261.527 5.9449 4.738 0
M  V30 2676 N 263.102 -1.41638 0.69111 0
M  V30 2677 C 264.032 -2.3347 0.037248 0
M  V30 2678 C 265.013 -1.51575 -0.771947 0
M  V30 2679 O 266.198 -1.80126 -0.72582 0
M  V30 2680 C 263.328 -3.35354 -0.903064 0
M  V30 2681 C 262.282 -4.27526 -0.201288 0
M  V30 2682 C 261.608 -5.19747 -1.25565 0
M  V30 2683 C 262.908 -5.13959 0.929689 0
M  V30 2684 H 264.602 -2.88397 0.804227 0
M  V30 2685 H 262.148 -1.38669 0.388189 0
M  V30 2686 H 264.101 -3.98519 -1.36969 0
M  V30 2687 H 262.825 -2.78767 -1.70166 0
M  V30 2688 H 261.484 -3.65779 0.245265 0
M  V30 2689 H 261.132 -4.59479 -2.04666 0
M  V30 2690 H 260.832 -5.8225 -0.791128 0
M  V30 2691 H 262.356 -5.85789 -1.72288 0
M  V30 2692 H 263.77 -5.70718 0.543546 0
M  V30 2693 H 262.167 -5.85379 1.32103 0
M  V30 2694 H 263.237 -4.51389 1.77133 0
M  V30 2695 N 264.58 -0.43555 -1.51462 0
M  V30 2696 C 265.543 0.365137 -2.26273 0
M  V30 2697 C 266.543 0.951227 -1.29647 0
M  V30 2698 O 267.733 0.825958 -1.53374 0
M  V30 2699 C 264.865 1.51645 -3.05314 0
M  V30 2700 H 266.058 -0.290474 -2.9849 0
M  V30 2701 H 263.611 -0.188676 -1.55157 0
M  V30 2702 H 264.346 2.20816 -2.3751 0
M  V30 2703 H 264.131 1.10238 -3.76284 0
M  V30 2704 H 265.621 2.08218 -3.61987 0
M  V30 2705 N 266.058 1.56714 -0.166846 0
M  V30 2706 C 267.306 1.96358 0.478305 0
M  V30 2707 C 267.627 1.0537 1.6408 0
M  V30 2708 O 266.897 0.119154 1.95537 0
M  V30 2709 H 265.477 0.725065 0.179692 0
M  V30 2710 H 268.139 1.93329 -0.246985 0
M  V30 2711 H 267.235 3.00547 0.841292 0
M  V30 2712 N 267.536 -0.106894 1.57237 0
M  V30 2713 C 268.813 -0.843526 1.76477 0
M  V30 2714 C 269.193 -1.97499 0.745464 0
M  V30 2715 O 268.541 -2.27357 -0.228306 0
M  V30 2716 C 268.751 -1.34903 3.21873 0
M  V30 2717 C 270.099 -1.79654 3.8472 0
M  V30 2718 O 271.123 -1.44554 3.2555 0
M  V30 2719 O 269.982 -2.44515 4.88748 0
M  V30 2720 H 267.076 -0.401468 0.723016 0
M  V30 2721 H 269.622 -0.0896927 1.69463 0
M  V30 2722 H 268.394 -0.53781 3.87586 0
M  V30 2723 H 268.017 -2.16522 3.33473 0
M  V30 2724 N 269.014 -1.53014 -0.377408 0
M  V30 2725 C 270.291 -1.59215 -1.13622 0
M  V30 2726 C 270.671 -0.392407 -2.07421 0
M  V30 2727 O 270.019 0.618342 -2.19975 0
M  V30 2728 C 270.229 -2.93669 -1.88573 0
M  V30 2729 C 271.577 -3.47822 -2.43526 0
M  V30 2730 O 272.601 -2.9562 -1.98715 0
M  V30 2731 O 271.46 -4.39055 -3.25412 0
M  V30 2732 H 268.554 -0.642625 -0.52054 0
M  V30 2733 H 271.1 -1.65353 -0.381625 0
M  V30 2734 H 269.872 -3.7243 -1.20048 0
M  V30 2735 H 269.495 -2.90968 -2.70968 0
M  V30 2736 N 270.492 0.636531 -1.44174 0
M  V30 2737 C 271.741 1.39213 -1.45954 0
M  V30 2738 C 272.054 1.95374 -0.0939119 0
M  V30 2739 O 273.26 2.71498 0.0107767 0
M  V30 2740 C 271.716 2.52025 -2.56927 0
M  V30 2741 C 271.324 2.024 -3.99673 0
M  V30 2742 C 273.068 3.29269 -2.67922 0
M  V30 2743 C 270.975 3.12521 -5.0208 0
M  V30 2744 H 269.905 0.523132 -0.542999 0
M  V30 2745 H 272.556 0.685349 -1.70221 0
M  V30 2746 H 270.938 3.25253 -2.25891 0
M  V30 2747 H 272.112 1.36073 -4.40251 0
M  V30 2748 H 270.427 1.37987 -3.92872 0
M  V30 2749 H 273.024 4.11352 -3.41605 0
M  V30 2750 H 273.367 3.78397 -1.73555 0
M  V30 2751 H 273.9 2.63129 -2.98342 0
M  V30 2752 H 270.639 2.68343 -5.98057 0
M  V30 2753 H 270.159 3.77507 -4.66099 0
M  V30 2754 H 271.838 3.77385 -5.25538 0
M  V30 2755 N 271.97 1.30982 0.876444 0
M  V30 2756 C 272.917 1.18085 1.98304 0
M  V30 2757 C 273.887 0.0682263 1.6596 0
M  V30 2758 O 275.072 0.239937 1.89285 0
M  V30 2759 C 272.212 0.887475 3.33493 0
M  V30 2760 C 271.325 2.08281 3.78475 0
M  V30 2761 C 270.46 1.72678 5.0235 0
M  V30 2762 C 269.499 2.88657 5.39762 0
M  V30 2763 N 268.636 2.53292 6.54819 0
M  V30 2764 H 273.476 2.1275 2.08666 0
M  V30 2765 H 271.013 1.05839 1.02159 0
M  V30 2766 H 272.971 0.697961 4.1132 0
M  V30 2767 H 271.601 -0.022315 3.22792 0
M  V30 2768 H 270.653 2.3833 2.96484 0
M  V30 2769 H 271.965 2.95108 4.02135 0
M  V30 2770 H 271.119 1.50151 5.87826 0
M  V30 2771 H 269.858 0.830327 4.8058 0
M  V30 2772 H 268.863 3.1184 4.52809 0
M  V30 2773 H 270.088 3.79002 5.63502 0
M  V30 2774 H 268.034 1.66163 6.34607 0
M  V30 2775 H 267.951 3.3365 6.7839 0
M  V30 2776 H 269.219 2.34143 7.43503 0
M  V30 2777 N 273.449 -1.08991 1.13837 0
M  V30 2778 C 274.412 -2.13925 0.822715 0
M  V30 2779 C 275.412 -1.599 -0.1699 0
M  V30 2780 O 276.602 -1.74104 0.0577251 0
M  V30 2781 C 273.734 -3.40155 0.225318 0
M  V30 2782 H 274.927 -2.43358 1.75262 0
M  V30 2783 H 272.48 -1.24603 0.943594 0
M  V30 2784 H 273.215 -3.16352 -0.713594 0
M  V30 2785 H 273 -3.80661 0.940193 0
M  V30 2786 H 274.49 -4.17594 0.0214784 0
M  V30 2787 N 274.927 -0.932562 -1.27047 0
M  V30 2788 C 275.837 -0.441219 -2.30414 0
M  V30 2789 C 276.853 0.480525 -1.67233 0
M  V30 2790 O 278.029 0.362151 -1.98117 0
M  V30 2791 C 275.094 0.293651 -3.45454 0
M  V30 2792 C 274.155 -0.663601 -4.2414 0
M  V30 2793 C 273.388 0.0362932 -5.33688 0
M  V30 2794 O 273.611 1.2548 -5.56427 0
M  V30 2795 O 272.545 -0.638015 -5.98509 0
M  V30 2796 H 276.371 -1.29962 -2.74488 0
M  V30 2797 H 273.956 -0.6981 -1.32087 0
M  V30 2798 H 275.838 0.707951 -4.15411 0
M  V30 2799 H 274.513 1.12758 -3.03426 0
M  V30 2800 H 273.42 -1.12768 -3.56699 0
M  V30 2801 H 274.753 -1.46489 -4.69896 0
M  V30 2802 N 276.405 1.4127 -0.698611 0
M  V30 2803 C 277.653 2.00782 -0.230409 0
M  V30 2804 C 277.974 1.5562 1.17505 0
M  V30 2805 O 277.244 0.78815 1.79346 0
M  V30 2806 H 275.824 0.742464 -0.0821944 0
M  V30 2807 H 278.486 1.72852 -0.90045 0
M  V30 2808 H 277.582 3.11095 -0.25021 0
M  V30 2809 N 277.883 0.443576 1.51229 0
M  V30 2810 C 279.108 -0.121648 2.07043 0
M  V30 2811 C 279.533 -1.35156 1.30823 0
M  V30 2812 O 278.891 -1.7793 0.347934 0
M  V30 2813 C 278.939 -0.41624 3.5819 0
M  V30 2814 O 278.043 -1.50163 3.8409 0
M  V30 2815 H 277.384 0.000871367 0.663999 0
M  V30 2816 H 279.914 0.626706 1.94765 0
M  V30 2817 H 279.924 -0.664867 4.02546 0
M  V30 2818 H 278.599 0.482653 4.1309 0
M  V30 2819 H 277.176 -1.24248 3.51592 0
M  V30 2820 N 279.361 -1.56624 0.175154 0
M  V30 2821 C 280.609 -1.96609 -0.467885 0
M  V30 2822 C 280.93 -1.06238 -1.63519 0
M  V30 2823 O 280.2 -0.129523 -1.95471 0
M  V30 2824 H 278.78 -0.726008 -0.175845 0
M  V30 2825 H 281.442 -1.93195 0.257234 0
M  V30 2826 H 280.538 -3.00989 -0.825342 0
M  V30 2827 N 280.839 0.0985539 -1.57292 0
M  V30 2828 C 281.787 1.1387 -2.02821 0
M  V30 2829 C 282.781 1.41676 -0.928666 0
M  V30 2830 O 283.987 1.41398 -1.11385 0
M  V30 2831 H 280.362 0.384419 -0.646317 0
M  V30 2832 H 282.333 0.728347 -2.89375 0
M  V30 2833 C 281.082 2.45166 -2.46554 0
M  V30 2834 H 280.405 2.24613 -3.3074 0
M  V30 2835 H 281.845 3.16456 -2.8219 0
M  V30 2836 C 280.304 3.09216 -1.33742 0
M  V30 2837 O 280.834 3.96163 -0.66464 0
M  V30 2838 N 279.04 2.69413 -1.08928 0
M  V30 2839 H 278.587 1.98801 -1.63817 0
M  V30 2840 H 278.545 3.12594 -0.336458 0
M  V30 2841 N 282.317 1.53212 0.369288 0
M  V30 2842 C 283.28 1.7872 1.43498 0
M  V30 2843 C 284.28 0.657554 1.46741 0
M  V30 2844 O 285.47 0.925736 1.47566 0
M  V30 2845 C 282.602 1.90591 2.82645 0
M  V30 2846 H 283.795 2.73894 1.22156 0
M  V30 2847 H 281.348 1.44233 0.602203 0
M  V30 2848 H 282.083 0.974709 3.09306 0
M  V30 2849 H 281.868 2.72751 2.8169 0
M  V30 2850 H 283.358 2.11931 3.59826 0
M  V30 2851 N 283.795 -0.628877 1.44509 0
M  V30 2852 C 285.043 -1.38565 1.4712 0
M  V30 2853 C 285.364 -1.94712 0.105899 0
M  V30 2854 O 284.634 -1.75912 -0.862079 0
M  V30 2855 H 283.214 -0.514333 0.541729 0
M  V30 2856 H 285.876 -0.740018 1.80305 0
M  V30 2857 H 284.972 -2.21583 2.19789 0
M  V30 2858 N 285.273 -1.31445 -0.869486 0
M  V30 2859 C 286.203 -1.21727 -1.99261 0
M  V30 2860 C 287.184 -0.104359 -1.6978 0
M  V30 2861 O 288.369 -0.289038 -1.92037 0
M  V30 2862 C 285.499 -0.924317 -3.34774 0
M  V30 2863 C 284.453 -1.99685 -3.78563 0
M  V30 2864 C 283.779 -1.55658 -5.11541 0
M  V30 2865 C 285.079 -3.41003 -3.95619 0
M  V30 2866 H 286.773 -2.1569 -2.07649 0
M  V30 2867 H 284.319 -1.03839 -0.997675 0
M  V30 2868 H 286.272 -0.842934 -4.12883 0
M  V30 2869 H 284.996 0.0509793 -3.2656 0
M  V30 2870 H 283.655 -2.06813 -3.02694 0
M  V30 2871 H 283.303 -0.569132 -4.9977 0
M  V30 2872 H 283.003 -2.27409 -5.41811 0
M  V30 2873 H 284.527 -1.48928 -5.92159 0
M  V30 2874 H 285.941 -3.36547 -4.64122 0
M  V30 2875 H 284.338 -4.10975 -4.37286 0
M  V30 2876 H 285.408 -3.81754 -2.98985 0
M  V30 2877 N 286.751 1.08385 -1.14413 0
M  V30 2878 C 287.698 2.15311 -0.831265 0
M  V30 2879 C 288.668 1.64751 0.211292 0
M  V30 2880 O 289.853 1.90627 0.0811674 0
M  V30 2881 C 286.993 3.43658 -0.315143 0
M  V30 2882 C 286.106 4.08064 -1.41802 0
M  V30 2883 C 285.241 5.24207 -0.859126 0
M  V30 2884 C 284.28 5.80554 -1.93967 0
M  V30 2885 N 283.417 6.88042 -1.39793 0
M  V30 2886 H 288.257 2.41415 -1.74708 0
M  V30 2887 H 285.794 1.18474 -0.871909 0
M  V30 2888 H 287.752 4.172 0.00230884 0
M  V30 2889 H 286.382 3.17839 0.56378 0
M  V30 2890 H 285.434 3.3228 -1.85187 0
M  V30 2891 H 286.746 4.45962 -2.23427 0
M  V30 2892 H 285.9 6.04689 -0.49359 0
M  V30 2893 H 284.639 4.87699 -0.011932 0
M  V30 2894 H 283.644 4.98725 -2.31415 0
M  V30 2895 H 284.869 6.19121 -2.79046 0
M  V30 2896 H 282.815 6.53493 -0.572919 0
M  V30 2897 H 282.732 7.24767 -2.15054 0
M  V30 2898 H 284 7.72255 -1.0603 0
M  V30 2899 N 288.23 0.939286 1.26551 0
M  V30 2900 C 289.507 0.5038 1.89001 0
M  V30 2901 C 289.887 -1.01854 1.84903 0
M  V30 2902 O 289.235 -1.87773 1.30206 0
M  V30 2903 C 289.445 1.063 3.32417 0
M  V30 2904 C 290.793 1.13051 4.09273 0
M  V30 2905 O 291.817 1.01345 3.41479 0
M  V30 2906 O 290.676 1.31233 5.30509 0
M  V30 2907 H 287.77 0.163897 0.810597 0
M  V30 2908 H 290.316 1.03173 1.34735 0
M  V30 2909 H 289.088 2.10665 3.29752 0
M  V30 2910 H 288.711 0.517408 3.94219 0
M  V30 2911 N 289.708 -1.40897 0.706093 0
M  V30 2912 C 290.64 -2.29199 0.00815776 0
M  V30 2913 C 291.653 -1.45336 -0.733582 0
M  V30 2914 O 292.842 -1.68727 -0.582537 0
M  V30 2915 C 289.942 -3.23417 -1.01265 0
M  V30 2916 C 289.115 -4.36089 -0.338387 0
M  V30 2917 C 288.174 -5.10811 -1.26326 0
M  V30 2918 O 287.2 -5.64215 -0.751651 0
M  V30 2919 N 288.402 -5.19269 -2.595 0
M  V30 2920 H 291.167 -2.89738 0.766297 0
M  V30 2921 H 288.728 -1.52164 0.55296 0
M  V30 2922 H 290.72 -3.70276 -1.63334 0
M  V30 2923 H 289.29 -2.64112 -1.67223 0
M  V30 2924 H 288.51 -3.91479 0.462352 0
M  V30 2925 H 289.798 -5.08634 0.130031 0
M  V30 2926 H 289.196 -4.77347 -3.03573 0
M  V30 2927 H 287.753 -5.69667 -3.16737 0
M  V30 2928 N 291.186 -0.45159 -1.50991 0
M  V30 2929 C 292.602 -0.104647 -1.59257 0
M  V30 2930 C 292.802 1.38728 -1.4614 0
M  V30 2931 O 291.858 2.15866 -1.30989 0
M  V30 2932 C 293.171 -0.637468 -2.93865 0
M  V30 2933 C 294.719 -0.599166 -3.07212 0
M  V30 2934 C 295.194 -1.1092 -4.44366 0
M  V30 2935 N 296.685 -1.06778 -4.50725 0
M  V30 2936 C 297.42 -1.43314 -5.55201 0
M  V30 2937 N 296.916 -1.87204 -6.67028 0
M  V30 2938 N 298.709 -1.3504 -5.45638 0
M  V30 2939 H 290.86 -1.42214 -1.57762 0
M  V30 2940 H 293.123 -0.586921 -0.744465 0
M  V30 2941 H 292.829 -1.68187 -3.08879 0
M  V30 2942 H 292.703 -0.0702139 -3.77135 0
M  V30 2943 H 295.09 0.436277 -2.91857 0
M  V30 2944 H 295.171 -1.20299 -2.25747 0
M  V30 2945 H 294.815 -2.14318 -4.60467 0
M  V30 2946 H 294.745 -0.481773 -5.24392 0
M  V30 2947 H 297.236 -0.745643 -3.70471 0
M  V30 2948 H 297.549 -2.13282 -7.42786 0
M  V30 2949 H 295.894 -1.91142 -6.68199 0
M  V30 2950 H 299.085 -1.00607 -4.57161 0
M  V30 2951 H 299.258 -1.63841 -6.26945 0
M  V30 2952 N 292.664 1.56529 -0.183458 0
M  V30 2953 C 293.594 2.21549 0.737456 0
M  V30 2954 C 294.575 1.17489 1.23005 0
M  V30 2955 O 295.76 1.45959 1.281 0
M  V30 2956 C 292.89 2.86575 1.96194 0
M  V30 2957 C 291.844 3.96778 1.60473 0
M  V30 2958 C 291.17 4.48911 2.90487 0
M  V30 2959 C 292.47 5.15767 0.823497 0
M  V30 2960 H 294.164 2.98761 0.195453 0
M  V30 2961 H 291.71 1.43702 0.0925686 0
M  V30 2962 H 293.663 3.30739 2.61131 0
M  V30 2963 H 292.387 2.06749 2.52828 0
M  V30 2964 H 291.046 3.53286 0.978997 0
M  V30 2965 H 290.694 3.65862 3.45186 0
M  V30 2966 H 290.394 5.23265 2.67335 0
M  V30 2967 H 291.918 4.95771 3.56432 0
M  V30 2968 H 293.332 5.56549 1.37571 0
M  V30 2969 H 291.729 5.96114 0.690551 0
M  V30 2970 H 292.799 4.84574 -0.177782 0
M  V30 2971 N 294.142 -0.090211 1.57342 0
M  V30 2972 C 295.39 -0.791241 1.85967 0
M  V30 2973 C 295.711 -1.7903 0.772859 0
M  V30 2974 O 294.981 -1.94872 -0.200398 0
M  V30 2975 H 293.561 -0.295205 0.686195 0
M  V30 2976 H 296.223 -0.0706782 1.94772 0
M  V30 2977 H 295.319 -1.31882 2.82867 0
M  V30 2978 N 295.62 -1.53406 -0.361157 0
M  V30 2979 C 296.553 -1.74946 -1.46524 0
M  V30 2980 C 297.531 -0.59795 -1.51206 0
M  V30 2981 O 298.715 -0.831062 -1.69191 0
M  V30 2982 C 295.842 -1.83224 -2.84863 0
M  V30 2983 C 294.888 -3.05233 -2.97885 0
M  V30 2984 S 295.721 -4.6466 -2.66179 0
M  V30 2985 C 296.877 -4.75793 -4.06659 0
M  V30 2986 H 297.11 -2.68319 -1.28033 0
M  V30 2987 H 294.643 -1.44051 -0.555764 0
M  V30 2988 H 296.601 -1.88679 -3.64569 0
M  V30 2989 H 295.262 -0.908948 -3.00661 0
M  V30 2990 H 294.455 -3.07648 -3.9921 0
M  V30 2991 H 294.057 -2.97913 -2.26106 0
M  V30 2992 H 296.349 -4.5612 -5.0096 0
M  V30 2993 H 297.292 -5.7786 -4.09247 0
M  V30 2994 H 297.7 -4.04389 -3.93865 0
M  V30 2995 N 297.098 0.621204 -1.44841 0
M  V30 2996 C 298.03 1.74615 -1.48466 0
M  V30 2997 C 299.043 1.58377 -0.37691 0
M  V30 2998 O 300.232 1.66508 -0.643215 0
M  V30 2999 C 297.332 3.12459 -1.31236 0
M  V30 3000 C 296.505 3.55064 -2.55438 0
M  V30 3001 C 295.564 4.71821 -2.32963 0
M  V30 3002 O 294.59 4.79628 -3.06505 0
M  V30 3003 N 295.792 5.64186 -1.36654 0
M  V30 3004 H 298.557 1.71973 -2.45449 0
M  V30 3005 H 296.118 0.806077 -1.40407 0
M  V30 3006 H 298.11 3.88302 -1.14032 0
M  V30 3007 H 296.68 3.09686 -0.4258 0
M  V30 3008 H 295.9 2.69324 -2.87851 0
M  V30 3009 H 297.188 3.80284 -3.38026 0
M  V30 3010 H 296.586 5.6058 -0.759344 0
M  V30 3011 H 295.143 6.39618 -1.25425 0
M  V30 3012 N 298.576 1.31904 0.862503 0
M  V30 3013 C 299.822 1.23207 1.61838 0
M  V30 3014 C 300.177 -0.206062 1.91293 0
M  V30 3015 O 299.47 -1.14162 1.53875 0
M  V30 3016 C 299.664 2.01713 2.95037 0
M  V30 3017 C 299.493 3.53014 2.78588 0
M  V30 3018 C 298.263 4.22359 2.77382 0
M  V30 3019 C 300.461 4.47819 2.52909 0
M  V30 3020 N 298.443 5.59766 2.52062 0
M  V30 3021 C 299.814 5.72947 2.36922 0
M  V30 3022 C 301.869 4.37162 2.38314 0
M  V30 3023 C 300.572 6.88623 2.07823 0
M  V30 3024 C 302.598 5.5263 2.10604 0
M  V30 3025 C 301.96 6.76752 1.95411 0
M  V30 3026 H 298.059 0.505984 0.596242 0
M  V30 3027 H 300.643 1.66179 1.01452 0
M  V30 3028 H 298.814 1.61098 3.53415 0
M  V30 3029 H 300.546 1.84975 3.59953 0
M  V30 3030 H 297.301 3.74401 2.90036 0
M  V30 3031 H 297.725 6.32135 2.42352 0
M  V30 3032 H 302.367 3.41857 2.48784 0
M  V30 3033 H 300.085 7.83948 1.9609 0
M  V30 3034 H 303.671 5.46307 2.00101 0
M  V30 3035 H 302.551 7.6459 1.74274 0
M  V30 3036 N 300.054 -1.07777 1.14986 0
M  V30 3037 C 301.3 -1.80557 0.923422 0
M  V30 3038 C 301.633 -1.86298 -0.548337 0
M  V30 3039 O 300.908 -1.34354 -1.40639 0
M  V30 3040 C 301.191 -3.25839 1.53299 0
M  V30 3041 C 301.044 -3.28269 3.07505 0
M  V30 3042 C 302.363 -4.22991 1.21518 0
M  V30 3043 H 299.482 -0.655493 0.336894 0
M  V30 3044 H 302.124 -1.26144 1.42083 0
M  V30 3045 H 300.274 -3.72306 1.10999 0
M  V30 3046 H 301.946 -2.90079 3.58681 0
M  V30 3047 H 300.189 -2.67355 3.4162 0
M  V30 3048 H 300.86 -4.30691 3.45266 0
M  V30 3049 H 303.336 -3.84894 1.581 0
M  V30 3050 H 302.212 -5.22945 1.66793 0
M  V30 3051 H 302.473 -4.41904 0.131505 0
M  V30 3052 N 301.532 -0.945985 -1.26051 0
M  V30 3053 C 302.495 -0.463897 -2.24456 0
M  V30 3054 C 303.495 0.427655 -1.55009 0
M  V30 3055 O 304.685 0.226157 -1.72726 0
M  V30 3056 C 301.817 0.330812 -3.39291 0
M  V30 3057 H 303.01 -1.33357 -2.68619 0
M  V30 3058 H 300.563 -0.728416 -1.38289 0
M  V30 3059 H 301.298 1.21852 -3.00537 0
M  V30 3060 H 301.083 -0.308679 -3.90883 0
M  V30 3061 H 302.573 0.657865 -4.12386 0
M  V30 3062 N 303.011 1.40521 -0.713556 0
M  V30 3063 C 304.288 1.94775 -0.17943 0
M  V30 3064 C 304.668 1.65184 1.31444 0
M  V30 3065 O 304.016 0.968429 2.06963 0
M  V30 3066 C 304.226 3.45543 -0.489986 0
M  V30 3067 C 305.574 4.22442 -0.427536 0
M  V30 3068 O 306.598 3.53644 -0.425929 0
M  V30 3069 O 305.457 5.4501 -0.403292 0
M  V30 3070 H 302.551 0.826606 -0.0255192 0
M  V30 3071 H 305.097 1.5014 -0.790949 0
M  V30 3072 H 303.869 3.60432 -1.5233 0
M  V30 3073 H 303.492 3.97311 0.151598 0
M  V30 3074 N 304.489 0.459591 1.5075 0
M  V30 3075 C 305.437 -0.354678 2.2988 0
M  V30 3076 C 306.431 -1.00086 1.36672 0
M  V30 3077 O 307.637 -0.933277 1.53915 0
M  V30 3078 H 304.012 -0.13321 0.740107 0
M  V30 3079 H 305.983 0.333269 2.96533 0
M  V30 3080 C 304.732 -1.43073 3.169 0
M  V30 3081 H 304.055 -0.942882 3.88523 0
M  V30 3082 H 305.495 -1.97328 3.75284 0
M  V30 3083 C 303.954 -2.42633 2.33732 0
M  V30 3084 O 304.484 -3.47658 2.01238 0
M  V30 3085 N 302.69 -2.14066 1.9653 0
M  V30 3086 H 302.237 -1.28685 2.23155 0
M  V30 3087 H 302.195 -2.80917 1.41185 0
M  V30 3088 N 305.967 -1.56429 0.191757 0
M  V30 3089 C 307.216 -1.9666 -0.448088 0
M  V30 3090 C 307.529 -1.08136 -1.62991 0
M  V30 3091 O 308.735 -1.38135 -2.33733 0
M  V30 3092 C 307.191 -3.49753 -0.848585 0
M  V30 3093 C 306.799 -4.46935 0.308764 0
M  V30 3094 C 308.543 -3.9876 -1.4557 0
M  V30 3095 C 306.45 -5.91293 -0.112506 0
M  V30 3096 H 305.38 -0.734312 -0.171179 0
M  V30 3097 H 308.031 -1.81301 0.283242 0
M  V30 3098 H 306.413 -3.60604 -1.63649 0
M  V30 3099 H 307.587 -4.47813 1.08627 0
M  V30 3100 H 305.902 -4.08102 0.827158 0
M  V30 3101 H 308.499 -5.04086 -1.78328 0
M  V30 3102 H 308.842 -3.42875 -2.36099 0
M  V30 3103 H 309.375 -3.9101 -0.731836 0
M  V30 3104 H 306.114 -6.51097 0.758514 0
M  V30 3105 H 305.634 -5.93676 -0.854941 0
M  V30 3106 H 307.313 -6.44663 -0.549448 0
M  V30 3107 N 307.445 0.0818655 -1.57387 0
M  V30 3108 C 308.408 1.08265 -2.02018 0
M  V30 3109 C 309.408 1.32183 -0.915664 0
M  V30 3110 O 310.598 1.28073 -1.18081 0
M  V30 3111 C 307.73 2.42871 -2.39221 0
M  V30 3112 H 308.923 0.698204 -2.91659 0
M  V30 3113 H 306.476 0.327303 -1.52835 0
M  V30 3114 H 307.211 2.86167 -1.52575 0
M  V30 3115 H 306.996 2.26855 -3.19811 0
M  V30 3116 H 308.486 3.14826 -2.74362 0
M  V30 3117 N 308.923 1.53595 0.353017 0
M  V30 3118 C 310.171 1.70049 1.09215 0
M  V30 3119 C 310.492 0.461406 1.89463 0
M  V30 3120 O 309.762 -0.524633 1.88744 0
M  V30 3121 H 308.342 0.626912 0.40619 0
M  V30 3122 H 311.004 1.90822 0.396585 0
M  V30 3123 H 310.1 2.56718 1.77488 0
M  V30 3124 N 310.401 -0.613514 1.45168 0
M  V30 3125 C 311.648 -1.37268 1.48875 0
M  V30 3126 C 311.976 -1.94077 0.128161 0
M  V30 3127 O 311.231 -1.75178 -0.872416 0
M  V30 3128 C 311.53 -2.54347 2.51083 0
M  V30 3129 C 311.196 -2.1572 3.95949 0
M  V30 3130 C 309.858 -2.04899 4.35396 0
M  V30 3131 C 312.21 -1.85485 4.87078 0
M  V30 3132 C 309.538 -1.62057 5.63875 0
M  V30 3133 C 311.89 -1.4413 6.15962 0
M  V30 3134 C 310.554 -1.31863 6.54346 0
M  V30 3135 H 309.824 -0.502299 0.544773 0
M  V30 3136 H 312.471 -0.694021 1.78481 0
M  V30 3137 H 310.776 -3.27524 2.15024 0
M  V30 3138 H 312.473 -3.12577 2.51191 0
M  V30 3139 H 309.063 -2.25066 3.64751 0
M  V30 3140 H 313.247 -1.92745 4.57343 0
M  V30 3141 H 308.503 -1.51177 5.92415 0
M  V30 3142 H 312.677 -1.19778 6.86022 0
M  V30 3143 H 310.304 -0.984392 7.538 0
M  V30 3144 N 311.879 -1.3236 -0.855495 0
M  V30 3145 C 313.127 -1.22629 -1.60644 0
M  V30 3146 C 313.448 0.212136 -1.93843 0
M  V30 3147 O 312.718 1.13666 -1.59552 0
M  V30 3148 H 311.298 -0.450882 -0.595579 0
M  V30 3149 H 313.96 -1.65871 -1.02337 0
M  V30 3150 H 313.056 -1.80832 -2.54374 0
M  V30 3151 N 313.357 1.07166 -1.15556 0
M  V30 3152 C 314.605 1.79443 -0.929764 0
M  V30 3153 C 314.926 1.87246 0.544414 0
M  V30 3154 O 314.196 1.37473 1.39564 0
M  V30 3155 H 312.776 0.664625 -0.341003 0
M  V30 3156 H 315.438 1.29499 -1.45657 0
M  V30 3157 H 314.534 2.81832 -1.34079 0
M  V30 3158 N 314.835 0.952656 1.25548 0
M  V30 3159 C 316.112 0.523818 1.88456 0
M  V30 3160 C 316.492 -0.998871 1.85973 0
M  V30 3161 O 315.84 -1.86381 1.3219 0
M  V30 3162 C 316.05 1.0982 3.31271 0
M  V30 3163 C 317.398 1.17385 4.08051 0
M  V30 3164 O 318.422 1.04961 3.40384 0
M  V30 3165 O 317.281 1.36852 5.29088 0
M  V30 3166 H 314.375 0.172485 0.808813 0
M  V30 3167 H 316.921 1.04596 1.33633 0
M  V30 3168 H 315.693 2.1415 3.27499 0
M  V30 3169 H 315.316 0.559191 3.93648 0
M  V30 3170 N 316.313 -1.40141 0.720998 0
M  V30 3171 C 317.724 -1.83678 0.334553 0
M  V30 3172 C 318.075 -1.6027 -1.13173 0
M  V30 3173 O 317.2 -1.08643 -1.87152 0
M  V30 3174 C 317.795 -3.33437 0.600437 0
M  V30 3175 C 316.354 -3.75447 0.267642 0
M  V30 3176 C 315.501 -2.63296 0.870097 0
M  V30 3177 H 318.452 -1.29331 0.919732 0
M  V30 3178 H 318.473 -3.80269 -0.132517 0
M  V30 3179 H 317.985 -3.50442 1.66768 0
M  V30 3180 H 316.086 -3.64035 -0.794329 0
M  V30 3181 H 316.199 -4.73344 0.74042 0
M  V30 3182 H 314.563 -2.52954 0.297739 0
M  V30 3183 H 315.346 -2.83112 1.94172 0
M  V30 3184 N 317.792 -0.46758 -1.50504 0
M  V30 3185 C 319.017 0.0886943 -2.0721 0
M  V30 3186 C 319.442 1.33057 -1.32956 0
M  V30 3187 O 318.8 1.77354 -0.376197 0
M  V30 3188 C 318.848 0.359202 -3.58806 0
M  V30 3189 O 317.952 1.44034 -3.8643 0
M  V30 3190 H 317.293 -0.0114349 -0.663902 0
M  V30 3191 H 319.823 -0.657613 -1.93744 0
M  V30 3192 H 319.833 0.600742 -4.03553 0
M  V30 3193 H 318.508 -0.548311 -4.1227 0
M  V30 3194 H 317.085 1.18638 -3.53524 0
M  V30 3195 N 319.27 1.56325 -0.20005 0
M  V30 3196 C 320.217 2.1932 0.718833 0
M  V30 3197 C 321.187 1.14198 1.20615 0
M  V30 3198 O 322.372 1.42469 1.26914 0
M  V30 3199 C 319.512 2.86041 1.93066 0
M  V30 3200 C 318.625 4.05702 1.48425 0
M  V30 3201 C 317.76 4.60266 2.65196 0
M  V30 3202 C 316.799 5.72273 2.17185 0
M  V30 3203 N 315.936 6.21221 3.27152 0
M  V30 3204 H 320.776 2.97486 0.17489 0
M  V30 3205 H 318.313 1.46911 0.0745794 0
M  V30 3206 H 320.271 3.22897 2.64184 0
M  V30 3207 H 318.901 2.1043 2.44783 0
M  V30 3208 H 317.953 3.74475 0.668755 0
M  V30 3209 H 319.265 4.86699 1.09204 0
M  V30 3210 H 318.419 4.99453 3.4443 0
M  V30 3211 H 317.158 3.78386 3.07693 0
M  V30 3212 H 316.163 5.3261 1.36407 0
M  V30 3213 H 317.388 6.55974 1.75713 0
M  V30 3214 H 315.334 5.42263 3.69171 0
M  V30 3215 H 315.251 6.97284 2.92116 0
M  V30 3216 H 316.519 6.65063 4.06585 0
M  V30 3217 N 320.748 -0.0735177 1.57428 0
M  V30 3218 C 321.994 -0.774145 1.87443 0
M  V30 3219 C 322.327 -1.77311 0.792103 0
M  V30 3220 O 321.602 -1.93492 -0.197793 0
M  V30 3221 C 321.885 -1.48367 3.28115 0
M  V30 3222 C 321.738 -0.501227 4.46999 0
M  V30 3223 C 323.057 -2.429 3.66998 0
M  V30 3224 H 320.176 -0.279971 0.681752 0
M  V30 3225 H 322.818 -0.0373616 1.89963 0
M  V30 3226 H 320.968 -2.11171 3.26097 0
M  V30 3227 H 322.64 0.121468 4.6114 0
M  V30 3228 H 320.883 0.183593 4.33411 0
M  V30 3229 H 321.554 -1.03526 5.42205 0
M  V30 3230 H 324.03 -1.90175 3.70098 0
M  V30 3231 H 322.906 -2.89549 4.66318 0
M  V30 3232 H 323.167 -3.27628 2.96837 0
M  V30 3233 N 322.226 -1.5378 -0.344866 0
M  V30 3234 C 323.454 -1.74899 -1.10534 0
M  V30 3235 C 323.869 -0.487534 -1.82397 0
M  V30 3236 O 323.226 0.540741 -1.74305 0
M  V30 3237 C 323.277 -2.92822 -2.11984 0
M  V30 3238 O 322.998 -4.14089 -1.43044 0
M  V30 3239 C 324.499 -3.25982 -3.00417 0
M  V30 3240 H 321.719 -0.584426 -0.329678 0
M  V30 3241 H 324.263 -2.006 -0.397474 0
M  V30 3242 H 322.418 -2.69457 -2.78338 0
M  V30 3243 H 322.832 -4.80272 -2.10805 0
M  V30 3244 H 324.306 -4.11848 -3.67539 0
M  V30 3245 H 324.783 -2.42228 -3.66363 0
M  V30 3246 H 325.389 -3.51349 -2.39654 0
M  V30 3247 N 323.704 0.605807 -1.45491 0
M  V30 3248 C 324.953 1.36086 -1.48874 0
M  V30 3249 C 325.266 1.95131 -0.135333 0
M  V30 3250 O 326.472 2.7146 -0.0468144 0
M  V30 3251 C 324.928 2.46518 -2.62215 0
M  V30 3252 C 324.536 1.93877 -4.03876 0
M  V30 3253 C 326.28 3.23512 -2.74846 0
M  V30 3254 C 324.187 3.01801 -5.08596 0
M  V30 3255 H 323.117 0.511497 -0.553974 0
M  V30 3256 H 325.768 0.649089 -1.71636 0
M  V30 3257 H 324.15 3.20388 -2.32739 0
M  V30 3258 H 325.324 1.26704 -4.43038 0
M  V30 3259 H 323.639 1.29622 -3.95711 0
M  V30 3260 H 326.236 4.04013 -3.50253 0
M  V30 3261 H 326.579 3.74631 -1.81542 0
M  V30 3262 H 327.112 2.56742 -3.03856 0
M  V30 3263 H 323.851 2.55597 -6.03614 0
M  V30 3264 H 323.371 3.67535 -4.74002 0
M  V30 3265 H 325.05 3.66152 -5.33424 0
M  V30 3266 N 325.182 1.32811 0.848464 0
M  V30 3267 C 326.429 1.23724 1.60308 0
M  V30 3268 C 326.757 -0.1994 1.93475 0
M  V30 3269 O 326.012 -1.15406 1.5805 0
M  V30 3270 C 326.311 2.04831 2.92881 0
M  V30 3271 C 325.977 3.54125 2.79117 0
M  V30 3272 C 324.639 3.94829 2.7507 0
M  V30 3273 C 326.991 4.49036 2.64606 0
M  V30 3274 C 324.319 5.28675 2.544 0
M  V30 3275 C 326.671 5.83033 2.4547 0
M  V30 3276 C 325.335 6.22931 2.39819 0
M  V30 3277 H 324.605 0.452737 0.586609 0
M  V30 3278 H 327.252 1.64301 0.983743 0
M  V30 3279 H 325.557 1.57001 3.58968 0
M  V30 3280 H 327.254 1.95164 3.50303 0
M  V30 3281 H 323.844 3.21801 2.83094 0
M  V30 3282 H 328.028 4.18505 2.66772 0
M  V30 3283 H 323.284 5.58637 2.48465 0
M  V30 3284 H 327.458 6.56186 2.33222 0
M  V30 3285 H 325.085 7.26584 2.23562 0
M  V30 3286 N 326.66 -1.06551 1.16123 0
M  V30 3287 C 327.908 -1.78947 0.939267 0
M  V30 3288 C 328.229 -1.87532 -0.534476 0
M  V30 3289 O 327.499 -1.38211 -1.38833 0
M  V30 3290 H 326.079 -0.662807 0.344523 0
M  V30 3291 H 328.741 -1.28725 1.46342 0
M  V30 3292 H 327.837 -2.81117 1.35572 0
M  V30 3293 N 328.138 -0.959301 -1.25041 0
M  V30 3294 C 329.048 -0.489994 -2.29426 0
M  V30 3295 C 330.064 0.444944 -1.68215 0
M  V30 3296 O 331.24 0.320046 -1.98841 0
M  V30 3297 C 328.305 0.220309 -3.45999 0
M  V30 3298 C 327.366 -0.753418 -4.22637 0
M  V30 3299 C 326.599 -0.076918 -5.33645 0
M  V30 3300 O 326.822 1.13649 -5.58963 0
M  V30 3301 O 325.756 -0.764824 -5.97021 0
M  V30 3302 H 329.582 -1.35755 -2.71669 0
M  V30 3303 H 327.167 -0.725961 -1.30576 0
M  V30 3304 H 329.049 0.619677 -4.16819 0
M  V30 3305 H 327.724 1.06296 -3.0575 0
M  V30 3306 H 326.631 -1.20308 -3.54227 0
M  V30 3307 H 327.964 -1.56423 -4.66683 0
M  V30 3308 N 329.616 1.39756 -0.72842 0
M  V30 3309 C 330.841 2.05472 -0.282159 0
M  V30 3310 C 331.266 1.54549 1.07221 0
M  V30 3311 O 330.624 0.686372 1.67805 0
M  V30 3312 C 330.672 3.59462 -0.286264 0
M  V30 3313 O 329.776 4.05918 0.728298 0
M  V30 3314 H 329.117 0.651226 -0.129618 0
M  V30 3315 H 331.647 1.78915 -0.992499 0
M  V30 3316 H 331.657 4.07798 -0.128373 0
M  V30 3317 H 330.332 3.95889 -1.27456 0
M  V30 3318 H 328.909 3.69012 0.537081 0
M  V30 3319 N 331.094 0.475555 1.50254 0
M  V30 3320 C 332.057 -0.305016 2.27161 0
M  V30 3321 C 333.057 -0.916519 1.32123 0
M  V30 3322 O 334.247 -0.785003 1.5551 0
M  V30 3323 C 331.379 -1.43496 3.09227 0
M  V30 3324 H 332.572 0.369511 2.97615 0
M  V30 3325 H 330.125 0.229747 1.54602 0
M  V30 3326 H 330.86 -2.14441 2.43281 0
M  V30 3327 H 330.645 -1.00223 3.79075 0
M  V30 3328 H 332.135 -1.98548 3.67381 0
M  V30 3329 N 332.573 -1.56217 0.208337 0
M  V30 3330 C 333.821 -1.97558 -0.426076 0
M  V30 3331 C 334.142 -1.09683 -1.61229 0
M  V30 3332 O 333.412 -0.170956 -1.95153 0
M  V30 3333 H 331.992 -0.729575 -0.160405 0
M  V30 3334 H 334.654 -1.92606 0.298155 0
M  V30 3335 H 333.75 -3.02672 -0.761312 0
M  V30 3336 N 334.051 0.0651679 -1.57465 0
M  V30 3337 C 335.276 0.779605 -1.9219 0
M  V30 3338 C 335.701 1.69988 -0.805333 0
M  V30 3339 O 335.059 1.79685 0.241435 0
M  V30 3340 C 335.107 1.54364 -3.2589 0
M  V30 3341 O 334.211 2.65474 -3.1559 0
M  V30 3342 H 333.552 0.212249 -0.629163 0
M  V30 3343 H 336.082 0.0314294 -2.04576 0
M  V30 3344 H 336.092 1.92146 -3.59922 0
M  V30 3345 H 334.767 0.868457 -4.06732 0
M  V30 3346 H 333.344 2.30501 -2.93128 0
M  V30 3347 N 335.529 1.53961 0.336706 0
M  V30 3348 C 336.462 1.77255 1.43722 0
M  V30 3349 C 337.44 0.62193 1.50236 0
M  V30 3350 O 338.624 0.857874 1.67847 0
M  V30 3351 C 335.751 1.87733 2.81912 0
M  V30 3352 C 334.797 3.09933 2.92991 0
M  V30 3353 S 335.63 4.68836 2.58753 0
M  V30 3354 C 336.786 4.82202 3.99039 0
M  V30 3355 H 337.019 2.70322 1.23748 0
M  V30 3356 H 334.552 1.44917 0.532777 0
M  V30 3357 H 336.51 1.94455 3.61521 0
M  V30 3358 H 335.171 0.956666 2.99177 0
M  V30 3359 H 334.364 3.1396 3.94265 0
M  V30 3360 H 333.966 3.01472 2.21338 0
M  V30 3361 H 336.258 4.64032 4.9364 0
M  V30 3362 H 337.201 5.84298 4.00002 0
M  V30 3363 H 337.609 4.10604 3.87382 0
M  V30 3364 N 337.007 -0.598083 1.45811 0
M  V30 3365 C 338.232 -1.3881 1.54099 0
M  V30 3366 C 338.657 -1.8726 0.177578 0
M  V30 3367 O 338.015 -1.6069 -0.839541 0
M  V30 3368 C 338.063 -2.56217 2.53743 0
M  V30 3369 O 337.167 -3.5716 2.06182 0
M  V30 3370 H 336.508 -0.414024 0.519115 0
M  V30 3371 H 339.038 -0.726971 1.91249 0
M  V30 3372 H 339.048 -3.03337 2.72856 0
M  V30 3373 H 337.723 -2.20303 3.5276 0
M  V30 3374 H 336.3 -3.16624 1.96987 0
M  V30 3375 N 338.485 -1.33259 -0.841409 0
M  V30 3376 C 339.731 -1.24757 -1.59886 0
M  V30 3377 C 340.064 0.186913 -1.93298 0
M  V30 3378 O 339.339 1.12757 -1.5848 0
M  V30 3379 C 339.622 -2.12036 -2.91055 0
M  V30 3380 C 339.475 -3.63929 -2.6434 0
M  V30 3381 C 340.794 -1.9916 -3.92458 0
M  V30 3382 H 337.913 -0.454542 -0.580138 0
M  V30 3383 H 340.555 -1.63335 -0.970647 0
M  V30 3384 H 338.705 -1.79265 -3.44669 0
M  V30 3385 H 340.377 -4.06978 -2.17178 0
M  V30 3386 H 338.62 -3.85935 -1.98082 0
M  V30 3387 H 339.291 -4.20341 -3.57796 0
M  V30 3388 H 341.767 -2.27895 -3.48143 0
M  V30 3389 H 340.643 -2.62484 -4.82072 0
M  V30 3390 H 340.904 -0.963082 -4.31482 0
M  V30 3391 N 339.963 1.05934 -1.16686 0
M  V30 3392 C 340.893 2.1546 -0.899949 0
M  V30 3393 C 341.874 1.69391 0.155154 0
M  V30 3394 O 343.059 1.94199 0.00648693 0
M  V30 3395 C 340.189 3.44939 -0.404241 0
M  V30 3396 C 339.143 4.04536 -1.39767 0
M  V30 3397 C 338.469 5.29268 -0.760216 0
M  V30 3398 C 339.769 4.42893 -2.76845 0
M  V30 3399 H 341.463 2.38046 -1.81588 0
M  V30 3400 H 339.009 1.14404 -0.874514 0
M  V30 3401 H 340.962 4.20901 -0.204971 0
M  V30 3402 H 339.686 3.21983 0.547206 0
M  V30 3403 H 338.345 3.30635 -1.58355 0
M  V30 3404 H 337.993 5.02611 0.197831 0
M  V30 3405 H 337.693 5.70101 -1.42332 0
M  V30 3406 H 339.217 6.07924 -0.57105 0
M  V30 3407 H 340.631 5.09921 -2.62019 0
M  V30 3408 H 339.028 4.94721 -3.39663 0
M  V30 3409 H 340.098 3.53584 -3.31823 0
M  V30 3410 N 341.441 0.965919 1.2453 0
M  V30 3411 C 342.681 0.634656 1.94297 0
M  V30 3412 C 343.045 -0.814822 1.73852 0
M  V30 3413 O 344.246 -1.25622 2.3764 0
M  V30 3414 C 342.517 0.99702 3.43212 0
M  V30 3415 S 344.076 0.780038 4.31811 0
M  V30 3416 H 340.894 0.232893 0.671775 0
M  V30 3417 H 343.496 1.24249 1.50938 0
M  V30 3418 H 342.2 2.04886 3.55598 0
M  V30 3419 H 341.731 0.379888 3.91562 0
M  V30 3420 H 343.746 -0.343512 4.9501 0
M  V30 3421 N 342.919 -1.39368 0.735821 0
M  V30 3422 C 343.869 -2.27885 0.0724287 0
M  V30 3423 C 344.853 -1.44301 -0.711756 0
M  V30 3424 O 346.045 -1.67206 -0.58063 0
M  V30 3425 C 343.174 -3.33029 -0.833454 0
M  V30 3426 C 342.26 -4.24078 -0.0433749 0
M  V30 3427 N 342.651 -4.96138 0.983903 0
M  V30 3428 C 340.949 -4.45164 -0.272905 0
M  V30 3429 C 341.65 -5.63069 1.4604 0
M  V30 3430 N 340.626 -5.37991 0.778857 0
M  V30 3431 H 344.428 -2.81052 0.859467 0
M  V30 3432 H 341.942 -1.5206 0.570227 0
M  V30 3433 H 343.939 -3.95311 -1.32419 0
M  V30 3434 H 342.599 -2.81421 -1.61964 0
M  V30 3435 H 343.61 -4.9958 1.36528 0
M  V30 3436 H 340.287 -4.04497 -1.03383 0
M  V30 3437 H 341.677 -6.30755 2.31511 0
M  V30 3438 N 344.397 -0.483516 -1.5 0
M  V30 3439 C 345.327 0.293829 -2.31644 0
M  V30 3440 C 346.308 0.978864 -1.39112 0
M  V30 3441 O 347.493 0.973644 -1.68029 0
M  V30 3442 C 344.623 1.36897 -3.19181 0
M  V30 3443 C 343.577 0.804833 -4.20365 0
M  V30 3444 C 342.903 1.9792 -4.96721 0
M  V30 3445 C 344.203 -0.192313 -5.21946 0
M  V30 3446 H 345.897 -0.387616 -2.9688 0
M  V30 3447 H 343.443 -0.187856 -1.42769 0
M  V30 3448 H 345.396 1.92037 -3.751 0
M  V30 3449 H 344.12 2.07936 -2.51853 0
M  V30 3450 H 342.779 0.275319 -3.65565 0
M  V30 3451 H 342.427 2.67686 -4.25856 0
M  V30 3452 H 342.127 1.60789 -5.65173 0
M  V30 3453 H 343.651 2.53526 -5.55479 0
M  V30 3454 H 345.065 0.270333 -5.72662 0
M  V30 3455 H 343.462 -0.478543 -5.98189 0
M  V30 3456 H 344.532 -1.11409 -4.71928 0
M  V30 3457 N 345.875 1.56104 -0.216619 0
M  V30 3458 C 347.124 1.97348 0.416744 0
M  V30 3459 C 347.437 1.10715 1.6125 0
M  V30 3460 O 348.643 1.41836 2.31506 0
M  V30 3461 C 347.099 3.51059 0.792835 0
M  V30 3462 C 346.707 4.46387 -0.379828 0
M  V30 3463 C 348.451 4.01026 1.39208 0
M  V30 3464 C 346.358 5.91397 0.0184223 0
M  V30 3465 H 345.288 0.736942 0.159475 0
M  V30 3466 H 347.939 1.80827 -0.31205 0
M  V30 3467 H 346.321 3.63162 1.57891 0
M  V30 3468 H 347.495 4.46029 -1.15737 0
M  V30 3469 H 345.81 4.06734 -0.891979 0
M  V30 3470 H 348.407 5.0686 1.70286 0
M  V30 3471 H 348.75 3.46587 2.30614 0
M  V30 3472 H 349.283 3.92125 0.669537 0
M  V30 3473 H 346.022 6.49807 -0.862002 0
M  V30 3474 H 345.542 5.94961 0.760384 0
M  V30 3475 H 347.221 6.45455 0.446818 0
M  V30 3476 N 347.353 -0.0568162 1.57498 0
M  V30 3477 C 348.599 -0.748893 1.89111 0
M  V30 3478 C 348.954 -1.74422 0.81208 0
M  V30 3479 O 348.247 -1.90731 -0.182247 0
M  V30 3480 C 348.441 -1.48359 3.25153 0
M  V30 3481 C 348.27 -0.560924 4.46188 0
M  V30 3482 C 347.04 -0.192264 5.04934 0
M  V30 3483 C 349.238 0.148824 5.14085 0
M  V30 3484 N 347.22 0.734555 6.0949 0
M  V30 3485 C 348.591 0.932286 6.12951 0
M  V30 3486 C 350.646 0.218713 4.97419 0
M  V30 3487 C 349.349 1.77917 6.96949 0
M  V30 3488 C 351.375 1.05262 5.81957 0
M  V30 3489 C 350.737 1.82409 6.80372 0
M  V30 3490 H 346.836 -0.249002 0.741298 0
M  V30 3491 H 349.42 -0.00984926 1.94698 0
M  V30 3492 H 347.591 -2.19326 3.20547 0
M  V30 3493 H 349.323 -2.12586 3.44368 0
M  V30 3494 H 346.078 -0.548421 4.70414 0
M  V30 3495 H 346.502 1.19165 6.6643 0
M  V30 3496 H 351.144 -0.363407 4.21235 0
M  V30 3497 H 348.862 2.3722 7.72497 0
M  V30 3498 H 352.448 1.10987 5.71116 0
M  V30 3499 H 351.328 2.45895 7.44651 0
M  V30 3500 N 348.832 -1.54138 -0.328536 0
M  V30 3501 C 349.78 -1.83894 -1.42428 0
M  V30 3502 C 350.774 -0.710478 -1.53781 0
M  V30 3503 O 351.98 -0.894062 -1.56226 0
M  V30 3504 H 348.355 -0.582837 -0.475189 0
M  V30 3505 H 350.326 -2.75537 -1.14552 0
M  V30 3506 C 349.075 -2.07866 -2.78724 0
M  V30 3507 H 348.398 -2.94158 -2.7076 0
M  V30 3508 H 349.838 -2.32644 -3.54476 0
M  V30 3509 C 348.297 -0.868689 -3.25508 0
M  V30 3510 O 348.827 -0.0754908 -4.01629 0
M  V30 3511 N 347.033 -0.681711 -2.82491 0
M  V30 3512 H 346.58 -1.32838 -2.20708 0
M  V30 3513 H 346.538 0.126374 -3.14146 0
M  V30 3514 N 350.31 0.590341 -1.46126 0
M  V30 3515 C 351.587 1.35029 -1.41515 0
M  V30 3516 C 351.967 2.10888 -0.0946472 0
M  V30 3517 O 351.315 2.08998 0.923693 0
M  V30 3518 C 351.525 2.28269 -2.63997 0
M  V30 3519 C 352.873 2.90338 -3.09821 0
M  V30 3520 O 353.897 2.38585 -2.64492 0
M  V30 3521 O 352.756 3.84321 -3.88535 0
M  V30 3522 H 349.85 0.606317 -0.562413 0
M  V30 3523 H 352.396 0.611994 -1.58281 0
M  V30 3524 H 351.168 1.71591 -3.51671 0
M  V30 3525 H 350.791 3.0945 -2.49652 0
M  V30 3526 N 351.788 1.33704 0.83433 0
M  V30 3527 C 353.036 1.25169 1.58673 0
M  V30 3528 C 353.357 -0.18127 1.94156 0
M  V30 3529 O 352.627 -1.11113 1.6134 0
M  V30 3530 H 351.207 0.4603 0.58833 0
M  V30 3531 H 353.869 1.67478 0.996847 0
M  V30 3532 H 352.965 1.84856 2.51465 0
M  V30 3533 N 353.266 -1.05314 1.17247 0
M  V30 3534 C 354.543 -1.75184 0.87005 0
M  V30 3535 C 354.923 -2.01481 -0.629965 0
M  V30 3536 O 354.271 -1.64988 -1.58086 0
M  V30 3537 C 354.481 -3.04594 1.70363 0
M  V30 3538 C 355.829 -3.78567 1.92281 0
M  V30 3539 O 356.853 -3.14461 1.67311 0
M  V30 3540 O 355.712 -4.93755 2.3424 0
M  V30 3541 H 352.806 -0.761729 0.322021 0
M  V30 3542 H 355.352 -1.11493 1.27935 0
M  V30 3543 H 354.124 -2.81201 2.72106 0
M  V30 3544 H 353.747 -3.76022 1.29202 0
M  V30 3545 N 354.744 -0.972509 -1.24016 0
M  V30 3546 C 355.692 -0.498562 -2.27194 0
M  V30 3547 C 356.686 0.440372 -1.63576 0
M  V30 3548 O 357.892 0.315133 -1.7722 0
M  V30 3549 H 354.267 -0.142775 -0.738322 0
M  V30 3550 H 356.238 -1.38065 -2.64539 0
M  V30 3551 C 354.987 0.191072 -3.47175 0
M  V30 3552 H 354.31 -0.522318 -3.96373 0
M  V30 3553 H 355.75 0.486445 -4.212 0
M  V30 3554 C 354.209 1.41967 -3.05527 0
M  V30 3555 O 354.739 2.51642 -3.13112 0
M  V30 3556 N 352.945 1.28746 -2.60524 0
M  V30 3557 H 352.492 0.395089 -2.54552 0
M  V30 3558 H 352.45 2.11061 -2.33025 0
M  V30 3559 N 356.222 1.38976 -0.743202 0
M  V30 3560 C 357.45 2.04636 -0.30525 0
M  V30 3561 C 357.865 1.56044 1.06281 0
M  V30 3562 O 357.222 0.728921 1.67311 0
M  V30 3563 C 357.273 3.60193 -0.307177 0
M  V30 3564 O 356.994 4.06998 -1.62124 0
M  V30 3565 C 358.495 4.4306 0.145928 0
M  V30 3566 H 355.715 0.65788 -0.132041 0
M  V30 3567 H 358.259 1.77866 -1.00915 0
M  V30 3568 H 356.414 3.85835 0.347898 0
M  V30 3569 H 356.828 5.01371 -1.54036 0
M  V30 3570 H 358.302 5.51921 0.0934183 0
M  V30 3571 H 358.779 4.22706 1.19231 0
M  V30 3572 H 359.385 4.22584 -0.479886 0
M  V30 3573 N 357.7 0.491464 1.49741 0
M  V30 3574 C 358.93 -0.0534375 2.06531 0
M  V30 3575 C 359.338 -1.32233 1.35318 0
M  V30 3576 O 358.681 -1.78781 0.422243 0
M  V30 3577 C 358.743 -0.387034 3.57411 0
M  V30 3578 C 358.407 0.782764 4.50246 0
M  V30 3579 C 359.404 1.67059 4.92329 0
M  V30 3580 C 357.089 0.978866 4.9267 0
M  V30 3581 C 359.083 2.73874 5.75562 0
M  V30 3582 C 356.77 2.05022 5.75682 0
M  V30 3583 C 357.768 2.92851 6.17031 0
M  V30 3584 O 357.456 3.98138 6.98385 0
M  V30 3585 H 357.188 0.0129324 0.675876 0
M  V30 3586 H 359.742 0.685238 1.93633 0
M  V30 3587 H 357.972 -1.17918 3.68283 0
M  V30 3588 H 359.661 -0.869419 3.96479 0
M  V30 3589 H 360.427 1.53086 4.60206 0
M  V30 3590 H 356.306 0.304646 4.59992 0
M  V30 3591 H 359.85 3.42458 6.07757 0
M  V30 3592 H 355.747 2.18993 6.07217 0
M  V30 3593 H 356.515 3.95374 7.16674 0
M  V30 3594 N 359.178 -1.55987 0.224894 0
M  V30 3595 C 360.125 -2.20436 -0.68385 0
M  V30 3596 C 361.095 -1.16102 -1.18783 0
M  V30 3597 O 362.28 -1.4447 -1.24632 0
M  V30 3598 C 359.42 -2.89076 -1.88491 0
M  V30 3599 C 358.533 -4.08012 -1.41951 0
M  V30 3600 C 357.668 -4.64426 -2.5784 0
M  V30 3601 C 356.707 -5.75656 -2.08053 0
M  V30 3602 N 355.844 -6.26347 -3.17227 0
M  V30 3603 H 360.684 -2.97727 -0.12754 0
M  V30 3604 H 358.221 -1.47011 -0.0511978 0
M  V30 3605 H 360.179 -3.27059 -2.59014 0
M  V30 3606 H 358.809 -2.14298 -2.41405 0
M  V30 3607 H 357.861 -3.75492 -0.609095 0
M  V30 3608 H 359.173 -4.88375 -1.01447 0
M  V30 3609 H 358.327 -5.04869 -3.3644 0
M  V30 3610 H 357.066 -3.83233 -3.01635 0
M  V30 3611 H 356.071 -5.34712 -1.27916 0
M  V30 3612 H 357.296 -6.58686 -1.65255 0
M  V30 3613 H 355.242 -5.48067 -3.60497 0
M  V30 3614 H 355.159 -7.01843 -2.80986 0
M  V30 3615 H 356.427 -6.71447 -3.95953 0
M  V30 3616 N 360.656 0.0484629 -1.57525 0
M  V30 3617 C 361.904 0.741657 -1.88 0
M  V30 3618 C 362.225 1.76918 -0.820054 0
M  V30 3619 O 361.495 1.95335 0.148661 0
M  V30 3620 H 360.075 0.276908 -0.69378 0
M  V30 3621 H 362.737 0.019013 -1.94891 0
M  V30 3622 H 361.833 1.24336 -2.86264 0
M  V30 3623 N 362.134 1.5431 0.320358 0
M  V30 3624 C 363.081 1.83918 1.39438 0
M  V30 3625 C 364.051 0.686525 1.51248 0
M  V30 3626 O 365.236 0.933269 1.66417 0
M  V30 3627 C 362.376 2.075 2.75749 0
M  V30 3628 C 361.489 3.35177 2.72544 0
M  V30 3629 C 360.624 3.48704 4.00723 0
M  V30 3630 C 359.663 4.70244 3.91838 0
M  V30 3631 N 358.8 4.80679 5.11754 0
M  V30 3632 H 363.64 2.75544 1.13489 0
M  V30 3633 H 361.177 1.36459 0.549309 0
M  V30 3634 H 363.135 2.19166 3.54996 0
M  V30 3635 H 361.765 1.19163 3 0
M  V30 3636 H 360.817 3.32233 1.85271 0
M  V30 3637 H 362.129 4.24534 2.61863 0
M  V30 3638 H 361.283 3.59928 4.88402 0
M  V30 3639 H 360.022 2.57445 4.14214 0
M  V30 3640 H 359.027 4.59072 3.02544 0
M  V30 3641 H 360.252 5.6289 3.7991 0
M  V30 3642 H 358.198 3.92337 5.25745 0
M  V30 3643 H 358.115 5.64007 5.0342 0
M  V30 3644 H 359.383 4.96239 6.01138 0
M  V30 3645 N 363.613 -0.582584 1.46437 0
M  V30 3646 C 365.024 -1.1647 1.45916 0
M  V30 3647 C 365.375 -1.95177 0.200077 0
M  V30 3648 O 364.5 -2.04874 -0.696819 0
M  V30 3649 C 365.095 -2.11885 2.64367 0
M  V30 3650 C 363.654 -2.65421 2.66887 0
M  V30 3651 C 362.801 -1.41294 2.38603 0
M  V30 3652 H 365.752 -0.370514 1.54314 0
M  V30 3653 H 365.773 -2.9535 2.39892 0
M  V30 3654 H 365.285 -1.54573 3.5599 0
M  V30 3655 H 363.386 -3.26602 1.79338 0
M  V30 3656 H 363.499 -3.08147 3.66854 0
M  V30 3657 H 361.863 -1.71109 1.88663 0
M  V30 3658 H 362.646 -0.858125 3.32402 0
M  V30 3659 N 365.091 -1.34144 -0.827227 0
M  V30 3660 C 366.021 -1.28005 -1.95287 0
M  V30 3661 C 367.002 -0.158321 -1.69362 0
M  V30 3662 O 368.187 -0.349987 -1.9102 0
M  V30 3663 C 365.317 -1.03036 -3.31664 0
M  V30 3664 C 364.271 -2.11628 -3.72019 0
M  V30 3665 C 363.597 -1.71854 -5.0633 0
M  V30 3666 C 364.897 -3.53417 -3.8457 0
M  V30 3667 H 366.591 -2.22187 -2.00682 0
M  V30 3668 H 364.137 -1.0696 -0.964135 0
M  V30 3669 H 366.09 -0.973863 -4.09993 0
M  V30 3670 H 364.814 -0.0529391 -3.26557 0
M  V30 3671 H 363.473 -2.16339 -2.95961 0
M  V30 3672 H 363.121 -0.727841 -4.97706 0
M  V30 3673 H 362.821 -2.44531 -5.34302 0
M  V30 3674 H 364.345 -1.67692 -5.87122 0
M  V30 3675 H 365.759 -3.51142 -4.5318 0
M  V30 3676 H 364.156 -4.24679 -4.2399 0
M  V30 3677 H 365.226 -3.91072 -2.86689 0
M  V30 3678 N 366.569 1.04691 -1.17803 0
M  V30 3679 C 367.816 1.77782 -0.969532 0
M  V30 3680 C 368.144 1.87926 0.501401 0
M  V30 3681 O 367.399 1.37918 1.38842 0
M  V30 3682 C 367.698 3.21467 -1.56186 0
M  V30 3683 C 367.364 3.3137 -3.05786 0
M  V30 3684 C 366.026 3.3378 -3.46619 0
M  V30 3685 C 368.378 3.31976 -4.01797 0
M  V30 3686 C 365.706 3.34431 -4.82051 0
M  V30 3687 C 368.058 3.34167 -5.37136 0
M  V30 3688 C 366.722 3.34866 -5.77426 0
M  V30 3689 H 365.992 0.650549 -0.354777 0
M  V30 3690 H 368.639 1.23006 -1.46772 0
M  V30 3691 H 366.944 3.79203 -0.985515 0
M  V30 3692 H 368.641 3.76652 -1.37602 0
M  V30 3693 H 365.231 3.3021 -2.73238 0
M  V30 3694 H 369.415 3.29311 -3.71306 0
M  V30 3695 H 364.671 3.33285 -5.12573 0
M  V30 3696 H 368.845 3.33585 -6.11305 0
M  V30 3697 H 366.472 3.35124 -6.82346 0
M  V30 3698 N 368.047 0.979072 1.23499 0
M  V30 3699 C 369.463 0.687475 1.44034 0
M  V30 3700 C 369.663 -0.746801 1.8715 0
M  V30 3701 O 368.719 -1.51939 2.0167 0
M  V30 3702 C 370.032 1.68127 2.49307 0
M  V30 3703 C 371.58 1.69516 2.63122 0
M  V30 3704 C 372.055 2.67723 3.71603 0
M  V30 3705 N 373.546 2.66233 3.79044 0
M  V30 3706 C 374.281 3.38891 4.62537 0
M  V30 3707 N 373.777 4.21103 5.50131 0
M  V30 3708 N 375.57 3.27661 4.56721 0
M  V30 3709 H 367.721 1.90559 0.938135 0
M  V30 3710 H 369.984 0.821051 0.473897 0
M  V30 3711 H 369.69 2.70693 2.2454 0
M  V30 3712 H 369.564 1.46306 3.4767 0
M  V30 3713 H 371.951 0.676561 2.8724 0
M  V30 3714 H 372.032 1.95404 1.65079 0
M  V30 3715 H 371.676 3.69724 3.48233 0
M  V30 3716 H 371.606 2.39111 4.69184 0
M  V30 3717 H 374.097 2.06568 3.16446 0
M  V30 3718 H 374.41 4.73403 6.10827 0
M  V30 3719 H 372.755 4.25195 5.49759 0
M  V30 3720 H 375.946 2.62887 3.87309 0
M  V30 3721 H 376.119 3.84547 5.21562 0
M  V30 3722 N 369.525 -1.3858 0.750561 0
M  V30 3723 C 370.488 -2.28836 0.129152 0
M  V30 3724 C 371.488 -1.47045 -0.650714 0
M  V30 3725 O 372.678 -1.6753 -0.477428 0
M  V30 3726 C 369.81 -3.30751 -0.825622 0
M  V30 3727 H 371.003 -2.85294 0.924516 0
M  V30 3728 H 368.556 -1.47489 0.517376 0
M  V30 3729 H 369.291 -2.79378 -1.64677 0
M  V30 3730 H 369.076 -3.91177 -0.268852 0
M  V30 3731 H 370.566 -3.98249 -1.2565 0
M  V30 3732 N 371.003 -0.499398 -1.49478 0
M  V30 3733 C 372.251 0.0455996 -2.02049 0
M  V30 3734 C 372.572 1.37633 -1.38138 0
M  V30 3735 O 371.842 1.8842 -0.536166 0
M  V30 3736 H 370.422 0.0198416 -0.746736 0
M  V30 3737 H 373.084 -0.656274 -1.83519 0
M  V30 3738 H 372.18 0.176445 -3.11601 0
M  V30 3739 N 372.481 1.55866 -0.233164 0
M  V30 3740 C 373.73 1.97779 0.39579 0
M  V30 3741 C 374.043 1.12419 1.60066 0
M  V30 3742 O 375.249 1.44283 2.29988 0
M  V30 3743 C 373.705 3.5188 0.755556 0
M  V30 3744 C 373.313 4.45959 -0.427152 0
M  V30 3745 C 375.057 4.02479 1.34946 0
M  V30 3746 C 372.964 5.91383 -0.0443043 0
M  V30 3747 H 371.894 0.738592 0.15165 0
M  V30 3748 H 374.545 1.80486 -0.331212 0
M  V30 3749 H 372.927 3.64816 1.5403 0
M  V30 3750 H 374.101 4.44776 -1.20462 0
M  V30 3751 H 372.416 4.05765 -0.935068 0
M  V30 3752 H 375.013 5.08637 1.649 0
M  V30 3753 H 375.356 3.49014 2.26925 0
M  V30 3754 H 375.889 3.92813 0.62791 0
M  V30 3755 H 372.628 6.48857 -0.930874 0
M  V30 3756 H 372.148 5.95734 0.697238 0
M  V30 3757 H 373.827 6.45893 0.378334 0
M  V30 3758 N 373.959 -0.0401083 1.57549 0
M  V30 3759 C 374.892 -1.07689 2.01192 0
M  V30 3760 C 375.87 -1.358 0.894273 0
M  V30 3761 O 377.054 -1.48642 1.15921 0
M  V30 3762 C 374.181 -2.41418 2.3756 0
M  V30 3763 C 373.227 -2.29237 3.59656 0
M  V30 3764 S 374.06 -1.65628 5.09242 0
M  V30 3765 C 375.216 -3.0087 5.48843 0
M  V30 3766 H 375.449 -0.705108 2.88817 0
M  V30 3767 H 372.982 -0.249724 1.52367 0
M  V30 3768 H 374.94 -3.18329 2.59186 0
M  V30 3769 H 373.601 -2.75747 1.50407 0
M  V30 3770 H 372.794 -3.27932 3.82722 0
M  V30 3771 H 372.396 -1.60469 3.37825 0
M  V30 3772 H 374.688 -3.97201 5.48851 0
M  V30 3773 H 375.631 -2.82549 6.49286 0
M  V30 3774 H 376.039 -3.02934 4.76331 0
M  V30 3775 N 375.437 -1.54477 -0.31217 0
M  V30 3776 C 376.369 -1.81011 -1.40598 0
M  V30 3777 C 377.382 -0.692546 -1.47335 0
M  V30 3778 O 378.571 -0.969847 -1.49854 0
M  V30 3779 C 375.671 -1.92307 -2.79054 0
M  V30 3780 C 374.844 -3.22594 -2.95384 0
M  V30 3781 C 373.903 -3.24448 -4.1427 0
M  V30 3782 O 372.929 -3.98035 -4.06887 0
M  V30 3783 N 374.131 -2.49042 -5.24365 0
M  V30 3784 H 376.896 -2.75408 -1.18196 0
M  V30 3785 H 374.457 -1.53914 -0.502202 0
M  V30 3786 H 376.449 -1.90962 -3.56813 0
M  V30 3787 H 375.019 -1.04955 -2.94454 0
M  V30 3788 H 374.239 -3.36806 -2.04831 0
M  V30 3789 H 375.527 -4.08593 -3.03198 0
M  V30 3790 H 374.925 -1.88867 -5.33241 0
M  V30 3791 H 373.482 -2.53463 -6.005 0
M  V30 3792 N 376.915 0.57481 -1.46744 0
M  V30 3793 C 378.14 1.36341 -1.56288 0
M  V30 3794 C 378.565 1.86954 -0.207347 0
M  V30 3795 O 377.923 1.62006 0.813871 0
M  V30 3796 C 377.971 2.52147 -2.57787 0
M  V30 3797 O 377.075 3.53834 -2.11838 0
M  V30 3798 H 376.416 0.405713 -0.525636 0
M  V30 3799 H 378.946 0.696453 -1.92382 0
M  V30 3800 H 378.956 2.98958 -2.77648 0
M  V30 3801 H 377.631 2.14663 -3.5622 0
M  V30 3802 H 376.208 3.1345 -2.01999 0
M  V30 3803 N 378.394 1.34581 0.820102 0
M  V30 3804 C 379.642 1.26845 1.57336 0
M  V30 3805 C 379.963 -0.160667 1.94337 0
M  V30 3806 O 379.233 -1.09396 1.6251 0
M  V30 3807 H 377.813 0.466514 0.583415 0
M  V30 3808 H 380.475 1.68526 0.979027 0
M  V30 3809 H 379.571 1.87513 2.4949 0
M  V30 3810 N 379.872 -1.04064 1.18357 0
M  V30 3811 C 380.835 -2.10243 0.912707 0
M  V30 3812 C 381.835 -1.60477 -0.101928 0
M  V30 3813 O 383.025 -1.73703 0.131517 0
M  V30 3814 C 380.157 -3.38893 0.369387 0
M  V30 3815 H 381.35 -2.35706 1.85426 0
M  V30 3816 H 378.903 -1.20489 0.995594 0
M  V30 3817 H 379.638 -3.19094 -0.578776 0
M  V30 3818 H 379.423 -3.76331 1.1008 0
M  V30 3819 H 380.913 -4.17128 0.198575 0
M  V30 3820 N 381.35 -0.985608 -1.22978 0
M  V30 3821 C 382.283 -0.47487 -2.23204 0
M  V30 3822 C 383.261 0.460865 -1.55932 0
M  V30 3823 O 384.445 0.388105 -1.84461 0
M  V30 3824 C 381.572 0.312427 -3.37256 0
M  V30 3825 C 380.618 -0.568219 -4.22698 0
M  V30 3826 S 381.451 -2.01919 -4.95973 0
M  V30 3827 C 382.607 -1.24118 -6.1347 0
M  V30 3828 H 382.84 -1.32419 -2.66181 0
M  V30 3829 H 380.373 -0.792005 -1.32539 0
M  V30 3830 H 382.331 0.760645 -4.03391 0
M  V30 3831 H 380.992 1.13693 -2.92801 0
M  V30 3832 H 380.185 0.0371657 -5.03986 0
M  V30 3833 H 379.787 -0.952897 -3.61657 0
M  V30 3834 H 382.079 -0.505121 -6.75614 0
M  V30 3835 H 383.022 -2.02907 -6.78406 0
M  V30 3836 H 383.43 -0.757669 -5.59392 0
M  V30 3837 N 382.828 1.3818 -0.7579 0
M  V30 3838 C 384.074 2.00316 -0.316453 0
M  V30 3839 C 384.407 1.60026 1.10025 0
M  V30 3840 O 383.682 0.839835 1.75434 0
M  V30 3841 C 383.965 3.57349 -0.444245 0
M  V30 3842 C 383.818 4.07591 -1.90236 0
M  V30 3843 C 385.137 4.3981 0.1598 0
M  V30 3844 H 382.256 0.727741 -0.116459 0
M  V30 3845 H 384.898 1.6406 -0.958352 0
M  V30 3846 H 383.048 3.88365 0.102233 0
M  V30 3847 H 384.72 3.87199 -2.50748 0
M  V30 3848 H 382.963 3.60297 -2.41595 0
M  V30 3849 H 383.634 5.16677 -1.94291 0
M  V30 3850 H 386.11 4.14971 -0.306314 0
M  V30 3851 H 384.986 5.48885 0.0401675 0
M  V30 3852 H 385.247 4.24102 1.24859 0
M  V30 3853 N 384.306 0.507319 1.49211 0
M  V30 3854 C 385.717 0.0611118 1.866 0
M  V30 3855 C 386.068 -1.35488 1.41907 0
M  V30 3856 O 385.193 -2.0108 0.799726 0
M  V30 3857 C 385.788 0.104125 3.3864 0
M  V30 3858 C 384.347 -0.28677 3.75306 0
M  V30 3859 C 383.494 0.473893 2.73221 0
M  V30 3860 H 386.445 0.719775 1.41439 0
M  V30 3861 H 386.466 -0.689672 3.74198 0
M  V30 3862 H 385.978 1.13482 3.71138 0
M  V30 3863 H 384.079 -1.32046 3.48417 0
M  V30 3864 H 384.192 0.0370745 4.79086 0
M  V30 3865 H 382.556 -0.0770644 2.54583 0
M  V30 3866 H 383.339 1.50478 3.08563 0
M  V30 3867 N 385.784 -1.5574 0.241426 0
M  V30 3868 C 387.009 -2.0366 -0.392111 0
M  V30 3869 C 387.434 -1.11969 -1.51144 0
M  V30 3870 O 386.792 -0.111594 -1.80956 0
M  V30 3871 C 386.84 -3.49638 -0.882371 0
M  V30 3872 O 385.944 -3.6108 -1.99235 0
M  V30 3873 H 385.285 -0.658379 -0.0862122 0
M  V30 3874 H 387.815 -2.01302 0.365881 0
M  V30 3875 H 387.825 -3.90351 -1.18702 0
M  V30 3876 H 386.5 -4.15852 -0.0632361 0
M  V30 3877 H 385.077 -3.32262 -1.69282 0
M  V30 3878 N 387.262 0.0317525 -1.57568 0
M  V30 3879 C 388.539 0.758366 -1.803 0
M  V30 3880 C 388.919 1.93718 -0.838845 0
M  V30 3881 O 388.267 2.28187 0.119571 0
M  V30 3882 C 388.477 1.19392 -3.27943 0
M  V30 3883 C 389.825 1.61094 -3.92854 0
M  V30 3884 O 390.849 1.28857 -3.32076 0
M  V30 3885 O 389.708 2.20918 -4.99858 0
M  V30 3886 H 386.802 0.366514 -0.741348 0
M  V30 3887 H 389.348 0.00873765 -1.69698 0
M  V30 3888 H 388.12 0.352275 -3.89711 0
M  V30 3889 H 387.743 2.00365 -3.43424 0
M  V30 3890 N 388.74 1.54641 0.303973 0
M  V30 3891 C 390.151 1.64811 0.877163 0
M  V30 3892 C 390.502 0.554838 1.88191 0
M  V30 3893 O 389.627 -0.309033 2.14182 0
M  V30 3894 C 390.222 2.9876 1.59775 0
M  V30 3895 C 388.781 3.11061 2.11938 0
M  V30 3896 C 387.928 2.60479 0.951097 0
M  V30 3897 H 390.879 1.58493 0.0810486 0
M  V30 3898 H 390.9 2.90017 2.46314 0
M  V30 3899 H 390.412 3.7831 0.866226 0
M  V30 3900 H 388.513 2.36225 2.88146 0
M  V30 3901 H 388.626 4.17171 2.35595 0
M  V30 3902 H 386.99 2.16859 1.33583 0
M  V30 3903 H 387.773 3.42504 0.233581 0
M  V30 3904 N 390.218 -0.567019 1.47046 0
M  V30 3905 C 391.464 -1.32658 1.53394 0
M  V30 3906 C 391.797 -1.93254 0.19148 0
M  V30 3907 O 391.072 -1.77338 -0.798844 0
M  V30 3908 C 391.355 -2.44412 2.64452 0
M  V30 3909 C 391.208 -1.88749 4.08282 0
M  V30 3910 C 392.527 -3.46387 2.71485 0
M  V30 3911 H 389.646 -0.48098 0.558415 0
M  V30 3912 H 392.288 -0.635481 1.79058 0
M  V30 3913 H 390.438 -3.03363 2.427 0
M  V30 3914 H 392.11 -1.34134 4.41368 0
M  V30 3915 H 390.353 -1.19481 4.17021 0
M  V30 3916 H 391.024 -2.69491 4.81745 0
M  V30 3917 H 393.5 -2.9734 2.91081 0
M  V30 3918 H 392.376 -4.2202 3.50985 0
M  V30 3919 H 392.637 -4.04616 1.78153 0
M  V30 3920 N 391.696 -1.35014 -0.812953 0
M  V30 3921 C 392.973 -1.18502 -1.55617 0
M  V30 3922 C 393.353 0.238421 -2.09749 0
M  V30 3923 O 392.701 1.2411 -1.91857 0
M  V30 3924 C 392.911 -2.24783 -2.66971 0
M  V30 3925 C 394.259 -2.60268 -3.35478 0
M  V30 3926 O 395.283 -2.23648 -2.77236 0
M  V30 3927 O 394.142 -3.2321 -4.40678 0
M  V30 3928 H 391.236 -0.459984 -0.687272 0
M  V30 3929 H 393.782 -1.46677 -0.853464 0
M  V30 3930 H 392.554 -3.20284 -2.24798 0
M  V30 3931 H 392.177 -1.97841 -3.44884 0
M  V30 3932 N 393.175 1.03435 -1.18907 0
M  V30 3933 C 394.423 1.76394 -0.986382 0
M  V30 3934 C 394.744 1.88883 0.484567 0
M  V30 3935 O 394.014 1.41843 1.3512 0
M  V30 3936 H 392.594 0.65344 -0.361975 0
M  V30 3937 H 395.256 1.248 -1.49703 0
M  V30 3938 H 394.352 2.77424 -1.42978 0
M  V30 3939 N 394.653 0.992116 1.22453 0
M  V30 3940 C 395.881 0.685944 1.95198 0
M  V30 3941 C 396.296 -0.749233 1.73297 0
M  V30 3942 O 395.653 -1.50549 1.03156 0
M  V30 3943 C 395.704 0.981395 3.47924 0
M  V30 3944 O 395.425 2.36018 3.6909 0
M  V30 3945 C 396.926 0.692815 4.37853 0
M  V30 3946 H 394.146 0.253821 0.621141 0
M  V30 3947 H 396.69 1.32668 1.55626 0
M  V30 3948 H 394.845 0.386481 3.85467 0
M  V30 3949 H 395.259 2.45884 4.63294 0
M  V30 3950 H 396.733 0.949818 5.43767 0
M  V30 3951 H 397.21 -0.373181 4.37612 0
M  V30 3952 H 397.816 1.26874 4.05935 0
M  V30 3953 N 396.131 -1.37776 0.765217 0
M  V30 3954 C 397.361 -2.03828 0.337277 0
M  V30 3955 C 397.769 -1.57841 -1.04321 0
M  V30 3956 O 397.112 -0.752043 -1.67601 0
M  V30 3957 C 397.174 -3.58292 0.294407 0
M  V30 3958 C 396.838 -4.27384 1.61838 0
M  V30 3959 C 397.835 -4.51956 2.56967 0
M  V30 3960 C 395.52 -4.65345 1.89102 0
M  V30 3961 C 397.514 -5.13536 3.77571 0
M  V30 3962 C 395.201 -5.26647 3.09978 0
M  V30 3963 C 396.199 -5.50679 4.04032 0
M  V30 3964 O 395.887 -6.10702 5.2278 0
M  V30 3965 H 395.619 -0.661292 0.140248 0
M  V30 3966 H 398.173 -1.77222 1.03834 0
M  V30 3967 H 396.403 -3.83918 -0.462983 0
M  V30 3968 H 398.092 -4.05763 -0.105581 0
M  V30 3969 H 398.858 -4.23048 2.37183 0
M  V30 3970 H 394.737 -4.45978 1.16725 0
M  V30 3971 H 398.281 -5.3221 4.50997 0
M  V30 3972 H 394.178 -5.54979 3.29649 0
M  V30 3973 H 394.946 -6.29183 5.23517 0
M  V30 3974 N 397.609 -0.515225 -1.4894 0
M  V30 3975 C 398.857 0.0241671 -2.02086 0
M  V30 3976 C 399.178 1.3616 -1.3959 0
M  V30 3977 O 398.448 1.87841 -0.556121 0
M  V30 3978 H 397.028 0.0119203 -0.746905 0
M  V30 3979 H 399.69 -0.675702 -1.82812 0
M  V30 3980 H 398.786 0.143385 -3.1177 0
M  V30 3981 N 399.087 1.5561 -0.249682 0
M  V30 3982 C 400.035 2.22894 0.664906 0
M  V30 3983 C 401.029 1.21743 1.17792 0
M  V30 3984 O 402.235 1.39748 1.13449 0
M  V30 3985 H 398.61 0.715022 0.232912 0
M  V30 3986 H 400.581 2.98307 0.0742998 0
M  V30 3987 C 399.33 2.94424 1.84959 0
M  V30 3988 H 398.653 3.72031 1.46399 0
M  V30 3989 H 400.093 3.44862 2.4667 0
M  V30 3990 C 398.552 1.98454 2.72245 0
M  V30 3991 O 399.082 1.51939 3.71857 0
M  V30 3992 N 397.288 1.65496 2.38871 0
M  V30 3993 H 396.835 2.03517 1.57919 0
M  V30 3994 H 396.793 1.0155 2.97548 0
M  V30 3995 N 400.565 -0.0233959 1.57583 0
M  V30 3996 C 401.475 -1.03907 2.10334 0
M  V30 3997 C 402.491 -1.39257 1.04323 0
M  V30 3998 O 403.667 -1.48462 1.36091 0
M  V30 3999 C 400.732 -2.31938 2.57693 0
M  V30 4000 C 399.793 -2.03117 3.78209 0
M  V30 4001 C 399.026 -3.25043 4.233 0
M  V30 4002 O 399.249 -4.35916 3.67876 0
M  V30 4003 O 398.183 -3.10411 5.15683 0
M  V30 4004 H 402.009 -0.620748 2.97288 0
M  V30 4005 H 399.594 -0.240743 1.47448 0
M  V30 4006 H 401.476 -3.07196 2.88458 0
M  V30 4007 H 400.151 -2.73055 1.73847 0
M  V30 4008 H 399.058 -1.25408 3.52454 0
M  V30 4009 H 400.391 -1.66852 4.63056 0
M  V30 4010 N 402.043 -1.548 -0.295768 0
M  V30 4011 C 403.292 -1.73538 -1.02798 0
M  V30 4012 C 403.605 -0.531159 -1.8825 0
M  V30 4013 O 404.811 -0.600458 -2.64777 0
M  V30 4014 C 403.267 -3.07051 -1.87744 0
M  V30 4015 C 402.875 -4.34968 -1.07269 0
M  V30 4016 C 404.619 -3.35146 -2.60533 0
M  V30 4017 C 402.526 -5.5953 -1.91521 0
M  V30 4018 H 401.456 -0.646794 -0.387522 0
M  V30 4019 H 404.107 -1.81278 -0.284718 0
M  V30 4020 H 402.489 -2.93289 -2.66078 0
M  V30 4021 H 403.663 -4.5958 -0.335117 0
M  V30 4022 H 401.978 -4.13847 -0.460384 0
M  V30 4023 H 404.575 -4.2541 -3.23929 0
M  V30 4024 H 404.918 -2.54255 -3.29636 0
M  V30 4025 H 405.451 -3.49902 -1.89244 0
M  V30 4026 H 402.19 -6.43103 -1.26878 0
M  V30 4027 H 401.71 -5.39096 -2.62937 0
M  V30 4028 H 403.389 -5.96982 -2.49442 0
M  V30 4029 N 403.521 0.559213 -1.47345 0
M  V30 4030 C 404.751 1.33999 -1.57251 0
M  V30 4031 C 405.159 1.87905 -0.220978 0
M  V30 4032 O 404.502 1.65577 0.795617 0
M  V30 4033 C 404.564 2.54798 -2.53611 0
M  V30 4034 C 404.228 2.22192 -3.99349 0
M  V30 4035 C 405.225 1.79607 -4.87891 0
M  V30 4036 C 402.91 2.33613 -4.44669 0
M  V30 4037 C 404.904 1.48868 -6.19772 0
M  V30 4038 C 402.591 2.02487 -5.76578 0
M  V30 4039 C 403.589 1.60183 -6.63951 0
M  V30 4040 O 403.277 1.29451 -7.93409 0
M  V30 4041 H 403.009 0.414858 -0.533731 0
M  V30 4042 H 405.563 0.684465 -1.9366 0
M  V30 4043 H 403.793 3.23235 -2.12265 0
M  V30 4044 H 405.482 3.16873 -2.53666 0
M  V30 4045 H 406.248 1.70278 -4.54126 0
M  V30 4046 H 402.127 2.65501 -3.76869 0
M  V30 4047 H 405.671 1.15775 -6.87926 0
M  V30 4048 H 401.568 2.11448 -6.09885 0
M  V30 4049 H 402.336 1.43098 -8.05894 0
M  V30 4050 N 404.999 1.35443 0.805782 0
M  V30 4051 C 406.276 1.19325 1.54987 0
M  V30 4052 C 406.656 -0.227294 2.09873 0
M  V30 4053 O 406.004 -1.2309 1.92512 0
M  V30 4054 C 406.214 2.26196 2.65775 0
M  V30 4055 C 407.562 2.62043 3.34094 0
M  V30 4056 O 408.586 2.25115 2.76046 0
M  V30 4057 O 407.445 3.25542 4.38958 0
M  V30 4058 H 404.539 0.463623 0.684823 0
M  V30 4059 H 407.085 1.47127 0.845674 0
M  V30 4060 H 405.857 3.21471 2.23096 0
M  V30 4061 H 405.48 1.99667 3.43829 0
M  V30 4062 N 406.477 -1.02803 1.19454 0
M  V30 4063 C 407.407 -2.12999 0.956758 0
M  V30 4064 C 408.388 -1.69743 -0.110188 0
M  V30 4065 O 409.573 -1.94148 0.0450038 0
M  V30 4066 C 406.703 -3.43746 0.495553 0
M  V30 4067 C 405.657 -4.00688 1.50443 0
M  V30 4068 C 404.983 -5.27067 0.900275 0
M  V30 4069 C 406.283 -4.35397 2.8849 0
M  V30 4070 H 407.977 -2.33148 1.87836 0
M  V30 4071 H 405.523 -1.12045 0.904539 0
M  V30 4072 H 407.476 -4.2021 0.316493 0
M  V30 4073 H 406.2 -3.23321 -0.461646 0
M  V30 4074 H 404.859 -3.2632 1.67065 0
M  V30 4075 H 404.507 -5.02959 -0.064503 0
M  V30 4076 H 404.207 -5.66127 1.57397 0
M  V30 4077 H 405.731 -6.06196 0.73203 0
M  V30 4078 H 407.145 -5.02795 2.75446 0
M  V30 4079 H 405.542 -4.85541 3.52661 0
M  V30 4080 H 406.612 -3.44662 3.41081 0
M  V30 4081 N 407.956 -0.998596 -1.21925 0
M  V30 4082 C 409.203 -0.677663 -1.90824 0
M  V30 4083 C 409.531 0.790905 -1.77693 0
M  V30 4084 O 408.786 1.58817 -1.14349 0
M  V30 4085 C 409.085 -1.03648 -3.42041 0
M  V30 4086 C 408.751 -2.49825 -3.75364 0
M  V30 4087 C 407.413 -2.8977 -3.8417 0
M  V30 4088 C 409.765 -3.44545 -3.91073 0
M  V30 4089 C 407.093 -4.23412 -4.06127 0
M  V30 4090 C 409.445 -4.77853 -4.14535 0
M  V30 4091 C 408.109 -5.17531 -4.21566 0
M  V30 4092 H 407.379 -0.247975 -0.698276 0
M  V30 4093 H 410.026 -1.25584 -1.44571 0
M  V30 4094 H 408.331 -0.376457 -3.89987 0
M  V30 4095 H 410.028 -0.766113 -3.93614 0
M  V30 4096 H 406.618 -2.17866 -3.69097 0
M  V30 4097 H 410.802 -3.14853 -3.83642 0
M  V30 4098 H 406.058 -4.53734 -4.09799 0
M  V30 4099 H 410.232 -5.51189 -4.25633 0
M  V30 4100 H 407.859 -6.21102 -4.38333 0
M  V30 4101 N 409.434 1.37368 -0.772513 0
M  V30 4102 C 410.68 1.99969 -0.337681 0
M  V30 4103 C 411.013 1.61184 1.08321 0
M  V30 4104 O 410.288 0.858395 1.74533 0
M  V30 4105 C 410.571 3.56858 -0.482121 0
M  V30 4106 C 410.424 4.0555 -1.94549 0
M  V30 4107 C 411.743 4.39955 0.113143 0
M  V30 4108 H 408.862 0.726464 -0.124171 0
M  V30 4109 H 411.504 1.63034 -0.975699 0
M  V30 4110 H 409.654 3.88452 0.0610361 0
M  V30 4111 H 411.326 3.84518 -2.54841 0
M  V30 4112 H 409.569 3.57715 -2.45403 0
M  V30 4113 H 410.24 5.14587 -1.9976 0
M  V30 4114 H 412.716 4.14623 -0.35031 0
M  V30 4115 H 411.592 5.48897 -0.0180514 0
M  V30 4116 H 411.853 4.25403 1.20354 0
M  V30 4117 N 410.912 0.523116 1.48665 0
M  V30 4118 C 412.137 -0.0117284 2.07397 0
M  V30 4119 C 412.562 -1.28031 1.37803 0
M  V30 4120 O 411.92 -1.75836 0.441762 0
M  V30 4121 C 411.968 -0.225786 3.59892 0
M  V30 4122 O 411.072 -1.29592 3.91509 0
M  V30 4123 H 410.413 0.0360673 0.66302 0
M  V30 4124 H 412.943 0.729066 1.9117 0
M  V30 4125 H 412.953 -0.450552 4.05505 0
M  V30 4126 H 411.628 0.700944 4.09951 0
M  V30 4127 H 410.205 -1.05436 3.57684 0
M  V30 4128 N 412.39 -1.55475 0.257931 0
M  V30 4129 C 413.615 -2.04064 -0.370488 0
M  V30 4130 C 414.04 -1.13565 -1.49948 0
M  V30 4131 O 413.398 -0.130781 -1.80828 0
M  V30 4132 C 413.446 -3.50554 -0.845237 0
M  V30 4133 O 412.55 -3.63173 -1.95394 0
M  V30 4134 H 411.891 -0.659257 -0.0792243 0
M  V30 4135 H 414.421 -2.00903 0.387212 0
M  V30 4136 H 414.431 -3.91588 -1.14555 0
M  V30 4137 H 413.106 -4.15896 -0.0191259 0
M  V30 4138 H 411.683 -3.34039 -1.65748 0
M  V30 4139 N 413.868 0.0150385 -1.57593 0
M  V30 4140 C 414.831 0.995996 -2.06428 0
M  V30 4141 C 415.831 1.2818 -0.970903 0
M  V30 4142 O 417.021 1.22949 -1.23406 0
M  V30 4143 C 414.153 2.32506 -2.49307 0
M  V30 4144 H 415.346 0.573873 -2.94358 0
M  V30 4145 H 412.899 0.262186 -1.54085 0
M  V30 4146 H 413.634 2.79438 -1.64575 0
M  V30 4147 H 413.419 2.13087 -3.29145 0
M  V30 4148 H 414.909 3.02906 -2.87468 0
M  V30 4149 N 415.346 1.54954 0.287554 0
M  V30 4150 C 416.594 1.74528 1.01904 0
M  V30 4151 C 416.915 0.541349 1.87335 0
M  V30 4152 O 416.185 -0.444108 1.908 0
M  V30 4153 H 414.765 0.643576 0.379235 0
M  V30 4154 H 417.427 1.92333 0.315294 0
M  V30 4155 H 416.523 2.64015 1.6644 0
M  V30 4156 N 416.824 -0.551391 1.4764 0
M  V30 4157 C 418.064 -1.31901 1.56145 0
M  V30 4158 C 418.428 -1.90724 0.221013 0
M  V30 4159 O 419.629 -2.6819 0.180945 0
M  V30 4160 C 417.9 -2.39517 2.65267 0
M  V30 4161 S 419.459 -3.26289 2.93395 0
M  V30 4162 H 416.277 -0.448965 0.551318 0
M  V30 4163 H 418.879 -0.630599 1.85051 0
M  V30 4164 H 417.583 -1.94747 3.6125 0
M  V30 4165 H 417.114 -3.13092 2.38195 0
M  V30 4166 H 419.129 -4.39122 2.31055 0
M  V30 4167 N 418.302 -1.35869 -0.798587 0
M  V30 4168 C 419.55 -1.29332 -1.55298 0
M  V30 4169 C 419.871 0.129729 -1.94568 0
M  V30 4170 O 419.141 1.06796 -1.6423 0
M  V30 4171 H 417.721 -0.475737 -0.57592 0
M  V30 4172 H 420.383 -1.70062 -0.952093 0
M  V30 4173 H 419.479 -1.91458 -2.46476 0
M  V30 4174 N 419.78 1.02168 -1.19998 0
M  V30 4175 C 421.005 1.79833 -1.03319 0
M  V30 4176 C 421.43 1.83504 0.413281 0
M  V30 4177 O 420.788 1.26635 1.29743 0
M  V30 4178 C 420.836 3.22396 -1.61533 0
M  V30 4179 O 419.94 4.03555 -0.849519 0
M  V30 4180 H 419.281 0.554872 -0.364709 0
M  V30 4181 H 421.811 1.28542 -1.59179 0
M  V30 4182 H 421.821 3.73124 -1.65054 0
M  V30 4183 H 420.496 3.19039 -2.66809 0
M  V30 4184 H 419.073 3.62169 -0.888129 0
M  V30 4185 N 421.258 1.00505 1.21394 0
M  V30 4186 C 422.221 0.570459 2.21987 0
M  V30 4187 C 423.221 -0.353211 1.56873 0
M  V30 4188 O 424.411 -0.14349 1.73608 0
M  V30 4189 C 421.543 -0.168555 3.40483 0
M  V30 4190 H 422.736 1.46021 2.6195 0
M  V30 4191 H 420.289 0.793565 1.34656 0
M  V30 4192 H 421.024 -1.07374 3.06009 0
M  V30 4193 H 420.809 0.494823 3.88965 0
M  V30 4194 H 422.299 -0.460362 4.15055 0
M  V30 4195 N 422.737 -1.36956 0.779787 0
M  V30 4196 C 423.962 -2.04283 0.358224 0
M  V30 4197 C 424.387 -1.58422 -1.01411 0
M  V30 4198 O 423.745 -0.748179 -1.65142 0
M  V30 4199 C 423.793 -3.58152 0.419479 0
M  V30 4200 O 422.897 -4.08342 -0.577142 0
M  V30 4201 H 422.238 -0.645967 0.153698 0
M  V30 4202 H 424.768 -1.75108 1.05822 0
M  V30 4203 H 424.778 -4.07041 0.279636 0
M  V30 4204 H 423.453 -3.90886 1.42061 0
M  V30 4205 H 422.03 -3.70751 -0.399755 0
M  V30 4206 N 424.215 -0.530993 -1.48385 0
M  V30 4207 C 425.492 0.0671788 -1.95485 0
M  V30 4208 C 425.872 1.51191 -1.47324 0
M  V30 4209 O 425.22 2.17507 -0.700202 0
M  V30 4210 C 425.43 -0.0511206 -3.48963 0
M  V30 4211 C 426.778 0.107632 -4.24464 0
M  V30 4212 O 427.802 0.0226248 -3.56193 0
M  V30 4213 O 426.661 0.285972 -5.45751 0
M  V30 4214 H 423.755 0.0787365 -0.823243 0
M  V30 4215 H 426.301 -0.595662 -1.58902 0
M  V30 4216 H 425.073 -1.05747 -3.7674 0
M  V30 4217 H 424.696 0.650525 -3.92242 0
M  V30 4218 N 425.693 1.55336 -0.266172 0
M  V30 4219 C 426.64 2.22172 0.625165 0
M  V30 4220 C 427.61 1.19211 1.15663 0
M  V30 4221 O 428.795 1.47723 1.20758 0
M  V30 4222 C 425.935 2.93972 1.8076 0
M  V30 4223 C 425.048 4.11632 1.31084 0
M  V30 4224 C 424.183 4.71099 2.45436 0
M  V30 4225 C 423.222 5.8097 1.92718 0
M  V30 4226 N 422.359 6.34538 3.00509 0
M  V30 4227 H 427.199 2.9796 0.0485582 0
M  V30 4228 H 424.736 1.47095 0.0122024 0
M  V30 4229 H 426.694 3.33811 2.50251 0
M  V30 4230 H 425.324 2.20623 2.35638 0
M  V30 4231 H 424.376 3.76975 0.509326 0
M  V30 4232 H 425.688 4.90893 0.884633 0
M  V30 4233 H 424.842 5.13612 3.22936 0
M  V30 4234 H 423.581 3.91096 2.91368 0
M  V30 4235 H 422.586 5.37916 1.13695 0
M  V30 4236 H 423.811 6.62836 1.47733 0
M  V30 4237 H 421.757 5.57433 3.45839 0
M  V30 4238 H 421.674 7.09046 2.62279 0
M  V30 4239 H 422.942 6.81709 3.78011 0
M  V30 4240 N 427.171 -0.0066808 1.57599 0
M  V30 4241 C 428.101 -0.999296 2.11036 0
M  V30 4242 C 429.082 -1.36278 1.01795 0
M  V30 4243 O 430.267 -1.4477 1.29442 0
M  V30 4244 C 427.397 -2.29328 2.60818 0
M  V30 4245 C 426.351 -2.07159 3.74525 0
M  V30 4246 C 425.677 -3.42512 4.10596 0
M  V30 4247 C 426.977 -1.43959 5.02069 0
M  V30 4248 H 428.671 -0.554382 2.94223 0
M  V30 4249 H 426.217 -0.265221 1.41536 0
M  V30 4250 H 428.17 -2.99117 2.96828 0
M  V30 4251 H 426.894 -2.7592 1.74745 0
M  V30 4252 H 425.553 -1.39797 3.38899 0
M  V30 4253 H 425.201 -3.86795 3.21556 0
M  V30 4254 H 424.901 -3.28498 4.87199 0
M  V30 4255 H 426.425 -4.13628 4.4916 0
M  V30 4256 H 427.839 -2.03696 5.35893 0
M  V30 4257 H 426.236 -1.40452 5.83432 0
M  V30 4258 H 427.306 -0.407992 4.83181 0
M  V30 4259 N 428.649 -1.55105 -0.279332 0
M  V30 4260 C 429.612 -1.86783 -1.32834 0
M  V30 4261 C 430.612 -0.74199 -1.42657 0
M  V30 4262 O 431.802 -1.0102 -1.41918 0
M  V30 4263 C 428.934 -2.06746 -2.71052 0
M  V30 4264 H 430.127 -2.8055 -1.05979 0
M  V30 4265 H 427.68 -1.47499 -0.517087 0
M  V30 4266 H 428.415 -1.15339 -3.03097 0
M  V30 4267 H 428.2 -2.88711 -2.65309 0
M  V30 4268 H 429.69 -2.32549 -3.46858 0
M  V30 4269 N 430.127 0.543554 -1.4793 0
M  V30 4270 C 431.367 1.31072 -1.56843 0
M  V30 4271 C 431.731 1.90604 -0.231124 0
M  V30 4272 O 432.932 2.68091 -0.195165 0
M  V30 4273 C 431.203 2.38106 -2.66533 0
M  V30 4274 S 432.762 3.24729 -2.95122 0
M  V30 4275 H 429.58 0.446035 -0.553691 0
M  V30 4276 H 432.182 0.620777 -1.85382 0
M  V30 4277 H 430.886 1.92828 -3.62278 0
M  V30 4278 H 430.417 3.11824 -2.39852 0
M  V30 4279 H 432.432 4.37891 -2.3338 0
M  V30 4280 N 431.605 1.3629 0.791371 0
M  V30 4281 C 432.535 1.33137 1.91825 0
M  V30 4282 C 433.516 0.203168 1.68882 0
M  V30 4283 O 434.701 0.400509 1.90025 0
M  V30 4284 C 431.831 1.11793 3.28816 0
M  V30 4285 C 430.785 2.21417 3.66277 0
M  V30 4286 C 430.111 1.85218 5.01596 0
M  V30 4287 C 431.411 3.63489 3.75064 0
M  V30 4288 H 433.105 2.2743 1.9472 0
M  V30 4289 H 430.651 1.09479 0.935437 0
M  V30 4290 H 432.604 1.08222 4.07266 0
M  V30 4291 H 431.328 0.139501 3.26302 0
M  V30 4292 H 429.987 2.2411 2.90121 0
M  V30 4293 H 429.635 0.859544 4.95602 0
M  V30 4294 H 429.335 2.58611 5.27631 0
M  V30 4295 H 430.859 1.832 5.82469 0
M  V30 4296 H 432.273 3.63034 4.43711 0
M  V30 4297 H 430.67 4.35771 4.12582 0
M  V30 4298 H 431.74 3.98536 2.76219 0
M  V30 4299 N 433.083 -1.0153 1.20538 0
M  V30 4300 C 434.499 -1.27461 0.96051 0
M  V30 4301 C 434.699 -1.98273 -0.359193 0
M  V30 4302 O 433.755 -2.27886 -1.0874 0
M  V30 4303 C 435.068 -2.10837 2.14402 0
M  V30 4304 C 436.616 -2.24099 2.18515 0
M  V30 4305 C 437.091 -3.10852 3.36355 0
M  V30 4306 N 438.582 -3.18441 3.36377 0
M  V30 4307 C 439.317 -3.85795 4.24205 0
M  V30 4308 N 438.813 -4.55264 5.22213 0
M  V30 4309 N 440.606 -3.82331 4.12043 0
M  V30 4310 H 432.757 -0.539907 2.05423 0
M  V30 4311 H 435.02 -0.30092 0.898972 0
M  V30 4312 H 434.726 -1.66144 3.09983 0
M  V30 4313 H 434.6 -3.11576 2.12604 0
M  V30 4314 H 436.987 -2.68016 1.23497 0
M  V30 4315 H 437.068 -1.22865 2.24361 0
M  V30 4316 H 436.712 -2.6764 4.31661 0
M  V30 4317 H 436.642 -4.12177 3.27746 0
M  V30 4318 H 439.133 -2.68978 2.65442 0
M  V30 4319 H 439.446 -5.04331 5.85551 0
M  V30 4320 H 437.791 -4.54085 5.26148 0
M  V30 4321 H 440.982 -3.27207 3.34743 0
M  V30 4322 H 441.155 -4.34547 4.807 0
M  V30 4323 N 434.561 -1.01147 -1.20859 0
M  V30 4324 C 435.786 -0.716698 -1.94623 0
M  V30 4325 C 436.211 0.715415 -1.73964 0
M  V30 4326 O 435.569 1.49157 -1.03062 0
M  V30 4327 C 435.617 -1.0513 -3.44935 0
M  V30 4328 O 434.721 -0.160131 -4.12089 0
M  V30 4329 H 434.062 -0.266404 -0.608214 0
M  V30 4330 H 436.592 -1.35346 -1.53436 0
M  V30 4331 H 436.602 -1.00086 -3.95533 0
M  V30 4332 H 435.277 -2.09475 -3.59295 0
M  V30 4333 H 433.854 -0.267657 -3.71938 0
M  V30 4334 N 436.039 1.36541 -0.78704 0
M  V30 4335 C 437.002 2.28413 -0.189778 0
M  V30 4336 C 438.002 1.48719 0.611499 0
M  V30 4337 O 439.192 1.68737 0.432842 0
M  V30 4338 C 436.324 3.32824 0.737638 0
M  V30 4339 H 437.517 2.82743 -0.999831 0
M  V30 4340 H 435.07 1.46065 -0.556298 0
M  V30 4341 H 435.805 2.83646 1.57212 0
M  V30 4342 H 435.59 3.91752 0.165044 0
M  V30 4343 H 437.08 4.0144 1.15047 0
M  V30 4344 N 437.518 0.538854 1.48102 0
M  V30 4345 C 438.743 0.0102694 2.07397 0
M  V30 4346 C 439.168 -1.26562 1.39153 0
M  V30 4347 O 438.526 -1.75357 0.460387 0
M  V30 4348 C 438.574 -0.187602 3.60112 0
M  V30 4349 O 437.678 -1.25432 3.92862 0
M  V30 4350 H 437.019 0.0430975 0.6626 0
M  V30 4351 H 439.549 0.749301 1.90385 0
M  V30 4352 H 439.559 -0.407517 4.0596 0
M  V30 4353 H 438.234 0.744386 4.09184 0
M  V30 4354 H 436.811 -1.01636 3.58782 0
M  V30 4355 N 438.996 -1.55193 0.274407 0
M  V30 4356 C 440.221 -2.04446 -0.348824 0
M  V30 4357 C 440.646 -1.15149 -1.48735 0
M  V30 4358 O 440.004 -0.149952 -1.80679 0
M  V30 4359 C 440.052 -3.51431 -0.808009 0
M  V30 4360 O 439.156 -3.65225 -1.91531 0
M  V30 4361 H 438.497 -0.66006 -0.0722276 0
M  V30 4362 H 441.027 -2.00481 0.408498 0
M  V30 4363 H 441.037 -3.92781 -1.10395 0
M  V30 4364 H 439.712 -4.15892 0.0249865 0
M  V30 4365 H 438.289 -3.35778 -1.62196 0
M  V30 4366 N 440.474 -0.00167713 -1.576 0
M  V30 4367 C 441.751 0.719951 -1.81868 0
M  V30 4368 C 442.131 1.91895 -0.879747 0
M  V30 4369 O 441.479 2.28389 0.0711423 0
M  V30 4370 C 441.689 1.12409 -3.30402 0
M  V30 4371 C 443.037 1.52724 -3.96182 0
M  V30 4372 O 444.061 1.21784 -3.34734 0
M  V30 4373 O 442.92 2.10265 -5.04431 0
M  V30 4374 H 440.014 0.350707 -0.748955 0
M  V30 4375 H 442.56 -0.0272597 -1.69678 0
M  V30 4376 H 441.332 0.269532 -3.90371 0
M  V30 4377 H 440.955 1.93035 -3.47596 0
M  V30 4378 N 441.952 1.55251 0.271103 0
M  V30 4379 C 443.18 1.79974 1.02064 0
M  V30 4380 C 443.595 0.574003 1.79863 0
M  V30 4381 O 442.952 -0.456962 1.76686 0
M  V30 4382 C 443.003 3.02603 1.97772 0
M  V30 4383 O 442.724 4.20443 1.23124 0
M  V30 4384 C 444.225 3.39944 2.84522 0
M  V30 4385 H 441.445 0.599489 0.301419 0
M  V30 4386 H 443.989 2.02268 0.301313 0
M  V30 4387 H 442.144 2.8243 2.65165 0
M  V30 4388 H 442.558 4.89783 1.87651 0
M  V30 4389 H 444.032 4.28915 3.47471 0
M  V30 4390 H 444.509 2.59432 3.54389 0
M  V30 4391 H 445.115 3.62383 2.22618 0
M  V30 4392 N 443.43 -0.535701 1.48216 0
M  V30 4393 C 444.36 -1.65014 1.65204 0
M  V30 4394 C 445.341 -1.62554 0.501011 0
M  V30 4395 O 446.526 -1.7984 0.732886 0
M  V30 4396 C 443.656 -3.03616 1.68626 0
M  V30 4397 C 442.61 -3.20932 2.83172 0
M  V30 4398 C 441.936 -4.60537 2.71679 0
M  V30 4399 C 443.236 -3.04249 4.24535 0
M  V30 4400 H 444.93 -1.51053 2.58502 0
M  V30 4401 H 442.476 -0.725262 1.24402 0
M  V30 4402 H 444.429 -3.81446 1.79099 0
M  V30 4403 H 443.153 -3.18587 0.719026 0
M  V30 4404 H 441.812 -2.45517 2.72244 0
M  V30 4405 H 441.46 -4.72336 1.72937 0
M  V30 4406 H 441.16 -4.73069 3.48538 0
M  V30 4407 H 442.684 -5.40475 2.84112 0
M  V30 4408 H 444.098 -3.71877 4.36326 0
M  V30 4409 H 442.495 -3.28278 5.02348 0
M  V30 4410 H 443.565 -2.00739 4.41397 0
M  V30 4411 N 444.908 -1.36708 -0.784132 0
M  V30 4412 C 445.838 -1.34153 -1.91116 0
M  V30 4413 C 446.819 -0.212121 -1.68772 0
M  V30 4414 O 448.004 -0.410581 -1.8981 0
M  V30 4415 C 445.134 -1.13535 -3.28218 0
M  V30 4416 C 444.088 -2.23356 -3.65097 0
M  V30 4417 C 443.414 -1.87875 -5.00607 0
M  V30 4418 C 444.714 -3.65473 -3.73131 0
M  V30 4419 H 446.408 -2.28459 -1.93512 0
M  V30 4420 H 443.954 -1.09973 -0.929618 0
M  V30 4421 H 445.907 -1.10381 -4.06687 0
M  V30 4422 H 444.631 -0.156804 -3.26223 0
M  V30 4423 H 443.29 -2.25645 -2.88929 0
M  V30 4424 H 442.938 -0.885814 -4.95139 0
M  V30 4425 H 442.638 -2.61406 -5.26252 0
M  V30 4426 H 444.162 -1.86286 -5.81489 0
M  V30 4427 H 445.576 -3.65382 -4.41779 0
M  V30 4428 H 443.973 -4.37953 -4.10265 0
M  V30 4429 H 445.043 -3.99995 -2.74102 0
M  V30 4430 N 446.386 1.0089 -1.21074 0
M  V30 4431 C 447.663 1.71834 -0.934469 0
M  V30 4432 C 448.043 2.0368 0.554753 0
M  V30 4433 O 447.391 1.70742 1.51854 0
M  V30 4434 C 447.601 2.98061 -1.8155 0
M  V30 4435 C 448.949 3.7117 -2.06199 0
M  V30 4436 O 449.973 3.08034 -1.78867 0
M  V30 4437 O 448.832 4.84721 -2.52404 0
M  V30 4438 H 445.926 0.749253 -0.35007 0
M  V30 4439 H 448.472 1.06668 -1.31985 0
M  V30 4440 H 447.244 2.70908 -2.82355 0
M  V30 4441 H 446.867 3.70968 -1.43068 0
M  V30 4442 N 447.864 1.01787 1.20321 0
M  V30 4443 C 448.827 0.593972 2.2137 0
M  V30 4444 C 449.827 -0.336553 1.57239 0
M  V30 4445 O 451.017 -0.125069 1.7375 0
M  V30 4446 C 448.149 -0.132433 3.40643 0
M  V30 4447 H 449.342 1.48791 2.60387 0
M  V30 4448 H 446.895 0.807803 1.33807 0
M  V30 4449 H 447.63 -1.04123 3.0713 0
M  V30 4450 H 447.415 0.53605 3.88418 0
M  V30 4451 H 448.905 -0.416314 4.1552 0
M  V30 4452 N 449.342 -1.36122 0.79427 0
M  V30 4453 C 450.57 -2.03362 0.380989 0
M  V30 4454 C 450.985 -1.59881 -1.00416 0
M  V30 4455 O 450.342 -0.790515 -1.6449 0
M  V30 4456 C 450.393 -3.58804 0.440649 0
M  V30 4457 O 450.114 -4.007 1.77118 0
M  V30 4458 C 451.615 -4.43296 0.0186117 0
M  V30 4459 H 448.835 -0.652526 0.156367 0
M  V30 4460 H 451.379 -1.73998 1.07447 0
M  V30 4461 H 449.534 -3.8686 -0.204458 0
M  V30 4462 H 449.948 -4.95309 1.72538 0
M  V30 4463 H 451.422 -5.51887 0.111488 0
M  V30 4464 H 451.899 -4.2684 -1.03461 0
M  V30 4465 H 452.505 -4.20512 0.636395 0
M  V30 4466 N 450.82 -0.546701 -1.47814 0
M  V30 4467 C 451.768 0.220048 -2.31557 0
M  V30 4468 C 452.762 0.919472 -1.42275 0
M  V30 4469 O 453.968 0.841953 -1.59095 0
M  V30 4470 H 450.343 0.0898334 -0.746615 0
M  V30 4471 H 452.314 -0.505589 -2.94086 0
M  V30 4472 C 451.063 1.24353 -3.24702 0
M  V30 4473 H 450.386 0.714758 -3.93359 0
M  V30 4474 H 451.826 1.75112 -3.8615 0
M  V30 4475 C 450.285 2.28593 -2.47481 0
M  V30 4476 O 450.815 3.35334 -2.21165 0
M  V30 4477 N 449.021 2.02244 -2.08676 0
M  V30 4478 H 448.568 1.15455 -2.30278 0
M  V30 4479 H 448.526 2.72207 -1.57323 0
M  V30 4480 N 452.299 1.55045 -0.282633 0
M  V30 4481 C 453.247 2.24254 0.617478 0
M  V30 4482 C 454.241 1.24215 1.15183 0
M  V30 4483 O 455.447 1.42123 1.10459 0
M  V30 4484 H 451.822 0.719801 0.217693 0
M  V30 4485 H 453.793 2.98398 0.0110076 0
M  V30 4486 C 452.542 2.98281 1.78672 0
M  V30 4487 H 451.865 3.75053 1.38475 0
M  V30 4488 H 453.305 3.50017 2.393 0
M  V30 4489 C 451.764 2.04184 2.67975 0
M  V30 4490 O 452.294 1.59792 3.6855 0
M  V30 4491 N 450.5 1.70526 2.35307 0
M  V30 4492 H 450.047 2.06821 1.53567 0
M  V30 4493 H 450.005 1.07839 2.95327 0
M  V30 4494 N 453.777 0.010035 1.57597 0
M  V30 4495 C 455.005 -0.683413 1.95287 0
M  V30 4496 C 455.42 -1.66747 0.885481 0
M  V30 4497 O 454.777 -1.82003 -0.134629 0
M  V30 4498 C 454.828 -1.40652 3.33015 0
M  V30 4499 O 454.549 -0.461916 4.35658 0
M  V30 4500 C 456.05 -2.19356 3.85225 0
M  V30 4501 H 453.27 -0.189708 0.643624 0
M  V30 4502 H 455.814 0.0641359 2.04399 0
M  V30 4503 H 453.969 -2.10562 3.2518 0
M  V30 4504 H 454.383 -0.973215 5.15392 0
M  V30 4505 H 455.857 -2.65433 4.83993 0
M  V30 4506 H 456.334 -3.02457 3.18459 0
M  V30 4507 H 456.94 -1.54442 3.96267 0
M  V30 4508 N 455.255 -1.55392 -0.262866 0
M  V30 4509 C 456.666 -1.67079 -0.833158 0
M  V30 4510 C 457.017 -0.604539 -1.86654 0
M  V30 4511 O 456.142 0.252138 -2.14926 0
M  V30 4512 C 456.737 -3.02891 -1.51797 0
M  V30 4513 C 455.296 -3.16571 -2.03617 0
M  V30 4514 C 454.443 -2.62909 -0.881701 0
M  V30 4515 H 457.394 -1.58652 -0.0389986 0
M  V30 4516 H 457.415 -2.96445 -2.38538 0
M  V30 4517 H 456.927 -3.80473 -0.765619 0
M  V30 4518 H 455.028 -2.43782 -2.81782 0
M  V30 4519 H 455.141 -4.23271 -2.24452 0
M  V30 4520 H 453.505 -2.20324 -1.27786 0
M  V30 4521 H 454.288 -3.43003 -0.14269 0
M  V30 4522 N 456.733 0.527833 -1.48498 0
M  V30 4523 C 457.981 1.28101 -1.56316 0
M  V30 4524 C 458.302 1.9352 -0.239781 0
M  V30 4525 O 457.572 1.81433 0.738849 0
M  V30 4526 H 456.152 0.475793 -0.575873 0
M  V30 4527 H 458.814 0.614052 -1.84974 0
M  V30 4528 H 457.91 2.05916 -2.34532 0
M  V30 4529 N 458.211 1.37122 0.776871 0
M  V30 4530 C 459.458 1.32047 1.53524 0
M  V30 4531 C 459.786 -0.0965631 1.9426 0
M  V30 4532 O 459.041 -1.06866 1.63945 0
M  V30 4533 C 459.34 2.20068 2.81611 0
M  V30 4534 C 459.006 3.68423 2.59953 0
M  V30 4535 C 457.668 4.08854 2.53755 0
M  V30 4536 C 460.02 4.62431 2.40431 0
M  V30 4537 C 457.348 5.41417 2.26018 0
M  V30 4538 C 459.7 5.95225 2.14219 0
M  V30 4539 C 458.364 6.34767 2.06462 0
M  V30 4540 H 457.634 0.483196 0.561785 0
M  V30 4541 H 460.281 1.69284 0.895268 0
M  V30 4542 H 458.586 1.75809 3.50141 0
M  V30 4543 H 460.283 2.13458 3.39465 0
M  V30 4544 H 456.873 3.36354 2.65638 0
M  V30 4545 H 461.057 4.32057 2.44213 0
M  V30 4546 H 456.313 5.71022 2.18504 0
M  V30 4547 H 460.487 6.67626 1.98112 0
M  V30 4548 H 458.114 7.37413 1.84733 0
M  V30 4549 N 459.689 -1.00246 1.21608 0
M  V30 4550 C 460.619 -2.10921 1.00172 0
M  V30 4551 C 461.6 -1.69938 -0.0741587 0
M  V30 4552 O 462.785 -1.94009 0.0861753 0
M  V30 4553 C 459.915 -3.42618 0.568355 0
M  V30 4554 C 458.869 -3.97407 1.58909 0
M  V30 4555 C 458.195 -5.25038 1.01187 0
M  V30 4556 C 459.495 -4.2918 2.97661 0
M  V30 4557 H 461.189 -2.29112 1.92739 0
M  V30 4558 H 458.735 -1.10101 0.928102 0
M  V30 4559 H 460.688 -4.19444 0.405555 0
M  V30 4560 H 459.412 -3.24227 -0.392961 0
M  V30 4561 H 458.071 -3.22703 1.73949 0
M  V30 4562 H 457.719 -5.02982 0.0421965 0
M  V30 4563 H 457.419 -5.62661 1.6937 0
M  V30 4564 H 458.943 -6.04507 0.860448 0
M  V30 4565 H 460.357 -4.96839 2.86049 0
M  V30 4566 H 458.754 -4.77952 3.6288 0
M  V30 4567 H 459.824 -3.3735 3.48315 0
M  V30 4568 N 461.167 -1.02423 -1.1978 0
M  V30 4569 C 462.13 -0.605703 -2.21052 0
M  V30 4570 C 463.13 0.328209 -1.57415 0
M  V30 4571 O 464.32 0.115853 -1.73814 0
M  V30 4572 C 461.452 0.114366 -3.40708 0
M  V30 4573 H 462.645 -1.5017 -2.59594 0
M  V30 4574 H 460.198 -0.814888 -1.33376 0
M  V30 4575 H 460.933 1.02492 -3.07678 0
M  V30 4576 H 460.718 -0.556641 -3.88129 0
M  V30 4577 H 462.208 0.394272 -4.15735 0
M  V30 4578 N 462.645 1.35699 -0.801477 0
M  V30 4579 C 463.875 2.02862 -0.3912 0
M  V30 4580 C 464.283 1.60552 1.00099 0
M  V30 4581 O 463.626 0.796215 1.65548 0
M  V30 4582 C 463.688 3.57386 -0.389299 0
M  V30 4583 C 463.352 4.22943 -1.73113 0
M  V30 4584 C 464.349 4.44984 -2.68859 0
M  V30 4585 C 462.034 4.60167 -2.01373 0
M  V30 4586 C 464.028 5.03345 -3.91053 0
M  V30 4587 C 461.715 5.18243 -3.23832 0
M  V30 4588 C 462.713 5.39773 -4.1849 0
M  V30 4589 O 462.401 5.96626 -5.38788 0
M  V30 4590 H 462.133 0.657341 -0.157732 0
M  V30 4591 H 464.687 1.74407 -1.08496 0
M  V30 4592 H 462.917 3.85011 0.361031 0
M  V30 4593 H 464.606 4.059 -0.0020365 0
M  V30 4594 H 465.372 4.1661 -2.48316 0
M  V30 4595 H 461.251 4.42726 -1.28508 0
M  V30 4596 H 464.795 5.20065 -4.64949 0
M  V30 4597 H 460.692 5.46044 -3.44248 0
M  V30 4598 H 461.46 6.15082 -5.40015 0
M  V30 4599 N 464.123 0.554532 1.47522 0
M  V30 4600 C 465.348 0.0322661 2.07375 0
M  V30 4601 C 465.773 -1.25079 1.40488 0
M  V30 4602 O 465.131 -1.74859 0.47896 0
M  V30 4603 C 465.179 -0.149397 3.6029 0
M  V30 4604 O 464.283 -1.21259 3.9417 0
M  V30 4605 H 463.624 0.0501228 0.662106 0
M  V30 4606 H 466.154 0.769452 1.8958 0
M  V30 4607 H 466.164 -0.364437 4.06369 0
M  V30 4608 H 464.839 0.787743 4.08372 0
M  V30 4609 H 463.416 -0.97825 3.5984 0
M  V30 4610 N 465.601 -1.54893 0.290851 0
M  V30 4611 C 466.826 -2.04804 -0.32712 0
M  V30 4612 C 467.251 -1.16721 -1.47506 0
M  V30 4613 O 466.609 -0.169107 -1.8051 0
M  V30 4614 C 466.657 -3.52268 -0.770689 0
M  V30 4615 O 465.761 -3.67236 -1.87647 0
M  V30 4616 H 465.102 -0.660789 -0.0652227 0
M  V30 4617 H 467.632 -2.00036 0.429739 0
M  V30 4618 H 467.642 -3.9393 -1.06223 0
M  V30 4619 H 466.317 -4.15843 0.069096 0
M  V30 4620 H 464.894 -3.37479 -1.58626 0
M  V30 4621 N 467.08 -0.0183926 -1.57589 0
M  V30 4622 C 468.01 0.965596 -2.12599 0
M  V30 4623 C 468.991 1.34641 -1.0395 0
M  V30 4624 O 470.176 1.42693 -1.31729 0
M  V30 4625 C 467.306 2.25149 -2.64434 0
M  V30 4626 C 466.26 2.01175 -3.77773 0
M  V30 4627 C 465.586 3.35937 -4.15994 0
M  V30 4628 C 466.886 1.35953 -5.04296 0
M  V30 4629 H 468.58 0.507504 -2.95067 0
M  V30 4630 H 466.126 0.242671 -1.41941 0
M  V30 4631 H 468.079 2.94357 -3.01549 0
M  V30 4632 H 466.803 2.73105 -1.79112 0
M  V30 4633 H 465.462 1.34388 -3.4108 0
M  V30 4634 H 465.11 3.81631 -3.27669 0
M  V30 4635 H 464.81 3.20705 -4.92364 0
M  V30 4636 H 466.334 4.0643 -4.55683 0
M  V30 4637 H 467.748 1.95144 -5.39065 0
M  V30 4638 H 466.145 1.31152 -5.85593 0
M  V30 4639 H 467.215 0.331071 -4.83768 0
M  V30 4640 N 468.558 1.5553 0.254621 0
M  V30 4641 C 469.974 1.4778 0.602753 0
M  V30 4642 C 470.174 0.707047 1.88688 0
M  V30 4643 O 469.23 0.233288 2.5142 0
M  V30 4644 C 470.543 2.92133 0.712648 0
M  V30 4645 C 472.091 3.02458 0.805488 0
M  V30 4646 C 472.566 4.48102 0.947009 0
M  V30 4647 N 474.057 4.52008 1.01207 0
M  V30 4648 C 474.792 5.61939 1.1407 0
M  V30 4649 N 474.288 6.81697 1.23536 0
M  V30 4650 N 476.081 5.49719 1.17325 0
M  V30 4651 H 468.232 2.04085 -0.588463 0
M  V30 4652 H 470.495 0.926229 -0.202001 0
M  V30 4653 H 470.201 3.51332 -0.160766 0
M  V30 4654 H 470.075 3.42187 1.58707 0
M  V30 4655 H 472.462 2.43344 1.66936 0
M  V30 4656 H 472.543 2.55627 -0.0939266 0
M  V30 4657 H 472.187 5.07824 0.087725 0
M  V30 4658 H 472.117 4.92607 1.86135 0
M  V30 4659 H 474.608 3.65749 0.950577 0
M  V30 4660 H 474.921 7.61228 1.33236 0
M  V30 4661 H 473.266 6.84473 1.20508 0
M  V30 4662 H 476.457 4.55095 1.09573 0
M  V30 4663 H 476.63 6.35432 1.27005 0
M  V30 4664 N 470.036 -0.519951 1.48776 0
M  V30 4665 C 470.966 -1.63253 1.66945 0
M  V30 4666 C 471.947 -1.62014 0.518224 0
M  V30 4667 O 473.132 -1.79053 0.751919 0
M  V30 4668 C 470.262 -3.0181 1.71836 0
M  V30 4669 C 469.216 -3.17911 2.8656 0
M  V30 4670 C 468.542 -4.5763 2.76548 0
M  V30 4671 C 469.842 -2.99729 4.27738 0
M  V30 4672 H 471.536 -1.48302 2.6009 0
M  V30 4673 H 469.082 -0.712026 1.25165 0
M  V30 4674 H 471.035 -3.79525 1.83135 0
M  V30 4675 H 469.759 -3.17806 0.752775 0
M  V30 4676 H 468.418 -2.42616 2.74833 0
M  V30 4677 H 468.066 -4.70476 1.77937 0
M  V30 4678 H 467.766 -4.69346 3.53536 0
M  V30 4679 H 469.29 -5.37431 2.89828 0
M  V30 4680 H 470.704 -3.67228 4.40246 0
M  V30 4681 H 469.101 -3.22932 5.05801 0
M  V30 4682 H 470.171 -1.96047 4.43502 0
M  V30 4683 N 471.514 -1.37532 -0.769588 0
M  V30 4684 C 472.739 -1.36231 -1.56384 0
M  V30 4685 C 473.164 0.0495849 -1.88035 0
M  V30 4686 O 472.522 1.02723 -1.49391 0
M  V30 4687 C 472.57 -2.20986 -2.84952 0
M  V30 4688 O 471.674 -1.61597 -3.79421 0
M  V30 4689 H 471.015 -0.465387 -0.473615 0
M  V30 4690 H 473.545 -1.81085 -0.952342 0
M  V30 4691 H 473.555 -2.34277 -3.34034 0
M  V30 4692 H 472.23 -3.23612 -2.61243 0
M  V30 4693 H 470.807 -1.57359 -3.38072 0
M  V30 4694 N 472.992 0.995999 -1.22138 0
M  V30 4695 C 474.222 1.76809 -1.06874 0
M  V30 4696 C 474.63 1.85265 0.383866 0
M  V30 4697 O 473.973 1.31969 1.27789 0
M  V30 4698 C 474.035 3.2186 -1.60144 0
M  V30 4699 C 473.699 3.36958 -3.0872 0
M  V30 4700 C 474.696 3.2452 -4.0618 0
M  V30 4701 C 472.381 3.62109 -3.48112 0
M  V30 4702 C 474.375 3.37013 -5.41019 0
M  V30 4703 C 472.062 3.74243 -4.831 0
M  V30 4704 C 473.06 3.61702 -5.79362 0
M  V30 4705 O 472.748 3.73436 -7.119 0
M  V30 4706 H 472.48 0.562207 -0.375365 0
M  V30 4707 H 475.034 1.26113 -1.62125 0
M  V30 4708 H 473.264 3.73734 -0.992981 0
M  V30 4709 H 474.953 3.80775 -1.40589 0
M  V30 4710 H 475.719 3.05004 -3.77091 0
M  V30 4711 H 471.598 3.70949 -2.73712 0
M  V30 4712 H 475.142 3.27141 -6.16137 0
M  V30 4713 H 471.039 3.93266 -5.11872 0
M  V30 4714 H 471.807 3.90328 -7.19435 0
M  V30 4715 N 474.47 1.03057 1.19235 0
M  V30 4716 C 475.4 0.633497 2.24742 0
M  V30 4717 C 476.381 -0.358335 1.66283 0
M  V30 4718 O 477.566 -0.240676 1.92703 0
M  V30 4719 C 474.696 -0.0147648 3.47297 0
M  V30 4720 C 473.65 0.899527 4.18441 0
M  V30 4721 C 472.976 0.116281 5.34574 0
M  V30 4722 C 474.276 2.21404 4.73051 0
M  V30 4723 H 475.97 1.5155 2.58211 0
M  V30 4724 H 473.516 0.73014 1.24117 0
M  V30 4725 H 475.469 -0.304202 4.20301 0
M  V30 4726 H 474.193 -0.931577 3.13032 0
M  V30 4727 H 472.852 1.17319 3.47321 0
M  V30 4728 H 472.5 -0.802619 4.96555 0
M  V30 4729 H 472.2 0.725293 5.83107 0
M  V30 4730 H 473.724 -0.166376 6.10373 0
M  V30 4731 H 475.138 1.98601 5.37802 0
M  V30 4732 H 473.535 2.77512 5.32078 0
M  V30 4733 H 474.605 2.86752 3.91026 0
M  V30 4734 N 475.948 -1.35272 0.808662 0
M  V30 4735 C 477.359 -1.81179 0.450688 0
M  V30 4736 C 477.71 -1.67143 -1.02751 0
M  V30 4737 O 476.835 -1.20325 -1.79864 0
M  V30 4738 C 477.43 -3.28943 0.811275 0
M  V30 4739 C 475.989 -3.72985 0.505871 0
M  V30 4740 C 475.136 -2.57229 1.03578 0
M  V30 4741 H 478.087 -1.2322 1.00012 0
M  V30 4742 H 478.108 -3.80342 0.109588 0
M  V30 4743 H 477.62 -3.39127 1.88718 0
M  V30 4744 H 475.721 -3.68349 -0.561209 0
M  V30 4745 H 475.834 -4.67677 1.03995 0
M  V30 4746 H 474.198 -2.50548 0.458005 0
M  V30 4747 H 474.981 -2.7019 2.11784 0
M  V30 4748 N 477.426 -0.562348 -1.47226 0
M  V30 4749 C 478.842 -0.222492 -1.58042 0
M  V30 4750 C 479.042 1.27505 -1.56028 0
M  V30 4751 O 478.098 2.05555 -1.46641 0
M  V30 4752 C 479.411 -0.853694 -2.88327 0
M  V30 4753 C 480.959 -0.825397 -3.01921 0
M  V30 4754 C 481.434 -1.43576 -4.34914 0
M  V30 4755 N 482.925 -1.39918 -4.41562 0
M  V30 4756 C 483.66 -1.84103 -5.43041 0
M  V30 4757 N 483.156 -2.36167 -6.51304 0
M  V30 4758 N 484.949 -1.75142 -5.34118 0
M  V30 4759 H 477.1 -1.53525 -1.46778 0
M  V30 4760 H 479.363 -0.640527 -0.698877 0
M  V30 4761 H 479.069 -1.90635 -2.95552 0
M  V30 4762 H 478.943 -0.34977 -3.75575 0
M  V30 4763 H 481.33 0.218583 -2.94289 0
M  V30 4764 H 481.411 -1.36713 -2.16202 0
M  V30 4765 H 481.055 -2.47884 -4.43301 0
M  V30 4766 H 480.985 -0.869427 -5.19373 0
M  V30 4767 H 483.476 -1.0184 -3.63919 0
M  V30 4768 H 483.789 -2.67793 -7.24919 0
M  V30 4769 H 482.134 -2.40181 -6.52179 0
M  V30 4770 H 485.325 -1.34241 -4.48439 0
M  V30 4771 H 485.498 -2.09895 -6.13065 0
M  V30 4772 N 478.904 1.54736 -0.299062 0
M  V30 4773 C 480.315 1.8569 0.193971 0
M  V30 4774 C 480.666 1.22101 1.53577 0
M  V30 4775 O 479.791 0.51799 2.10109 0
M  V30 4776 C 480.386 3.36895 0.358733 0
M  V30 4777 C 478.945 3.67887 0.795986 0
M  V30 4778 C 478.092 2.77131 -0.096807 0
M  V30 4779 H 481.043 1.49934 -0.520134 0
M  V30 4780 H 481.064 3.61294 1.19361 0
M  V30 4781 H 480.576 3.83148 -0.617998 0
M  V30 4782 H 478.677 3.27151 1.78334 0
M  V30 4783 H 478.79 4.75114 0.616718 0
M  V30 4784 H 477.154 2.51153 0.423581 0
M  V30 4785 H 477.937 3.26204 -1.06986 0
M  V30 4786 N 480.382 0.0267497 1.57577 0
M  V30 4787 C 481.659 -0.690926 1.82991 0
M  V30 4788 C 482.039 -1.90471 0.910164 0
M  V30 4789 O 481.387 -2.28474 -0.0347985 0
M  V30 4790 C 481.597 -1.07139 3.32148 0
M  V30 4791 C 482.945 -1.46402 3.98562 0
M  V30 4792 O 483.969 -1.16443 3.36629 0
M  V30 4793 O 482.828 -2.02214 5.07712 0
M  V30 4794 H 479.922 -0.338747 0.75444 0
M  V30 4795 H 482.468 0.0542506 1.69613 0
M  V30 4796 H 481.24 -0.207394 3.9075 0
M  V30 4797 H 480.863 -1.87481 3.50623 0
M  V30 4798 N 481.861 -1.55662 -0.24637 0
M  V30 4799 C 483.109 -1.77168 -0.972411 0
M  V30 4800 C 483.43 -0.590827 -1.85834 0
M  V30 4801 O 482.7 0.393365 -1.9191 0
M  V30 4802 H 481.28 -0.653405 -0.362038 0
M  V30 4803 H 483.942 -1.93101 -0.264189 0
M  V30 4804 H 483.038 -2.68335 -1.59382 0
M  V30 4805 N 483.339 0.512053 -1.4905 0
M  V30 4806 C 484.286 1.6148 -1.64902 0
M  V30 4807 C 485.256 1.58687 -0.490673 0
M  V30 4808 O 486.441 1.76842 -0.71636 0
M  V30 4809 C 483.581 2.99676 -1.71139 0
M  V30 4810 C 482.694 3.12568 -2.98203 0
M  V30 4811 C 481.829 4.4143 -2.95487 0
M  V30 4812 C 480.868 4.47916 -4.17179 0
M  V30 4813 N 480.005 5.68191 -4.12437 0
M  V30 4814 H 484.845 1.47271 -2.59066 0
M  V30 4815 H 482.382 0.716713 -1.28459 0
M  V30 4816 H 484.34 3.79761 -1.72736 0
M  V30 4817 H 482.97 3.12614 -0.804508 0
M  V30 4818 H 482.022 2.25618 -3.06269 0
M  V30 4819 H 483.334 3.1322 -3.88194 0
M  V30 4820 H 482.488 5.29825 -2.95585 0
M  V30 4821 H 481.227 4.43326 -2.03256 0
M  V30 4822 H 480.232 3.57925 -4.17337 0
M  V30 4823 H 481.457 4.47744 -5.1059 0
M  V30 4824 H 479.403 5.7095 -3.23036 0
M  V30 4825 H 479.32 5.70413 -4.96151 0
M  V30 4826 H 480.588 6.58823 -4.16621 0
M  V30 4827 N 484.817 1.37938 0.762283 0
M  V30 4828 C 485.765 1.34569 1.89721 0
M  V30 4829 C 486.759 0.232929 1.67791 0
M  V30 4830 O 487.965 0.401485 1.75465 0
M  V30 4831 H 484.34 0.419594 0.624055 0
M  V30 4832 H 486.311 2.30357 1.8968 0
M  V30 4833 C 485.06 1.17898 3.27101 0
M  V30 4834 H 484.383 2.02781 3.44558 0
M  V30 4835 H 485.823 1.19593 4.06784 0
M  V30 4836 C 484.282 -0.114728 3.36705 0
M  V30 4837 O 484.812 -1.0949 3.8649 0
M  V30 4838 N 483.018 -0.16863 2.9011 0
M  V30 4839 H 482.565 0.62967 2.49786 0
M  V30 4840 H 482.523 -1.03383 2.96916 0
M  V30 4841 N 486.295 -0.989507 1.22664 0
M  V30 4842 C 487.544 -1.72375 1.04737 0
M  V30 4843 C 487.857 -1.91096 -0.417316 0
M  V30 4844 O 489.063 -2.6188 -0.716334 0
M  V30 4845 C 487.519 -3.10161 1.82561 0
M  V30 4846 C 487.127 -2.99358 3.333 0
M  V30 4847 C 488.871 -3.87607 1.73093 0
M  V30 4848 C 486.778 -4.32319 4.03552 0
M  V30 4849 H 485.708 -0.646326 0.388302 0
M  V30 4850 H 488.359 -1.10437 1.46546 0
M  V30 4851 H 486.741 -3.728 1.33552 0
M  V30 4852 H 487.915 -2.45863 3.89728 0
M  V30 4853 H 486.23 -2.35392 3.43481 0
M  V30 4854 H 488.827 -4.86025 2.22899 0
M  V30 4855 H 489.17 -4.10509 0.691976 0
M  V30 4856 H 489.703 -3.31652 2.19663 0
M  V30 4857 H 486.442 -4.14616 5.07714 0
M  V30 4858 H 485.962 -4.85714 3.51911 0
M  V30 4859 H 487.641 -5.01051 4.09337 0
M  V30 4860 N 487.773 -1.03688 -1.18687 0
M  V30 4861 C 489.001 -0.757918 -1.92518 0
M  V30 4862 C 489.416 0.684398 -1.75959 0
M  V30 4863 O 488.773 1.46617 -1.08673 0
M  V30 4864 C 488.824 -1.10985 -3.44042 0
M  V30 4865 O 488.545 -2.49554 -3.60076 0
M  V30 4866 C 490.046 -0.854844 -4.3498 0
M  V30 4867 H 487.266 -0.276699 -0.611293 0
M  V30 4868 H 489.81 -1.38352 -1.50595 0
M  V30 4869 H 487.965 -0.529279 -3.83767 0
M  V30 4870 H 488.379 -2.6291 -4.53849 0
M  V30 4871 H 489.853 -1.15098 -5.39867 0
M  V30 4872 H 490.33 0.210507 -4.38695 0
M  V30 4873 H 490.936 -1.41853 -4.00946 0
M  V30 4874 N 489.251 1.34841 -0.815825 0
M  V30 4875 C 490.528 1.92908 -0.323416 0
M  V30 4876 C 490.908 1.74479 1.18828 0
M  V30 4877 O 490.256 1.11928 1.99209 0
M  V30 4878 C 490.466 3.40957 -0.744952 0
M  V30 4879 C 491.814 4.18107 -0.739716 0
M  V30 4880 O 492.838 3.49511 -0.68708 0
M  V30 4881 O 491.697 5.40517 -0.806456 0
M  V30 4882 H 488.791 0.822436 -0.0867646 0
M  V30 4883 H 491.337 1.4386 -0.90014 0
M  V30 4884 H 490.109 3.4814 -1.78646 0
M  V30 4885 H 489.732 3.97341 -0.143535 0
M  V30 4886 N 490.729 0.570148 1.46925 0
M  V30 4887 C 492.006 -0.0153259 1.95594 0
M  V30 4888 C 492.386 -1.47232 1.51281 0
M  V30 4889 O 491.734 -2.15574 0.757624 0
M  V30 4890 C 491.944 0.143624 3.48704 0
M  V30 4891 C 493.292 0.00494484 4.246 0
M  V30 4892 O 494.316 0.0718214 3.56128 0
M  V30 4893 O 493.175 -0.141175 5.46318 0
M  V30 4894 H 490.269 -0.0568819 0.825041 0
M  V30 4895 H 492.815 0.637583 1.57267 0
M  V30 4896 H 491.587 1.15699 3.73804 0
M  V30 4897 H 491.21 -0.5463 3.93829 0
M  V30 4898 N 492.207 -1.54576 0.307264 0
M  V30 4899 C 493.14 -2.19946 -0.608195 0
M  V30 4900 C 494.118 -1.17096 -1.12815 0
M  V30 4901 O 495.302 -1.45766 -1.19518 0
M  V30 4902 C 492.429 -2.84826 -1.8328 0
M  V30 4903 C 491.475 -4.01256 -1.44554 0
M  V30 4904 S 492.308 -5.33197 -0.49612 0
M  V30 4905 C 493.464 -6.01563 -1.72838 0
M  V30 4906 H 493.697 -2.97253 -0.0528544 0
M  V30 4907 H 491.23 -1.54129 0.0913837 0
M  V30 4908 H 493.188 -3.22832 -2.53554 0
M  V30 4909 H 491.849 -2.07353 -2.35931 0
M  V30 4910 H 491.042 -4.45457 -2.35762 0
M  V30 4911 H 490.644 -3.6484 -0.822671 0
M  V30 4912 H 492.936 -6.22751 -2.6681 0
M  V30 4913 H 493.879 -6.9552 -1.32882 0
M  V30 4914 H 494.287 -5.31279 -1.90795 0
M  V30 4915 N 493.685 -0.035106 -1.57561 0
M  V30 4916 C 494.915 0.651312 -1.96065 0
M  V30 4917 C 495.323 1.6585 -0.910514 0
M  V30 4918 O 494.666 1.83336 0.11552 0
M  V30 4919 C 494.728 1.40897 -3.30739 0
M  V30 4920 C 494.392 0.559436 -4.53563 0
M  V30 4921 C 495.389 -0.16778 -5.19629 0
M  V30 4922 C 493.074 0.495079 -4.99854 0
M  V30 4923 C 495.068 -0.947963 -6.30311 0
M  V30 4924 C 492.755 -0.288804 -6.10417 0
M  V30 4925 C 493.753 -1.00903 -6.75505 0
M  V30 4926 O 493.441 -1.78005 -7.83945 0
M  V30 4927 H 493.173 0.184036 -0.650467 0
M  V30 4928 H 495.727 -0.0929677 -2.05189 0
M  V30 4929 H 493.957 2.19852 -3.18123 0
M  V30 4930 H 495.646 1.98407 -3.54104 0
M  V30 4931 H 496.412 -0.12743 -4.84833 0
M  V30 4932 H 492.291 1.04524 -4.48994 0
M  V30 4933 H 495.835 -1.51064 -6.81047 0
M  V30 4934 H 491.732 -0.33085 -6.44652 0
M  V30 4935 H 492.5 -1.70046 -8.00641 0
M  V30 4936 N 495.163 1.55791 0.238111 0
M  V30 4937 C 496.11 1.9105 1.29493 0
M  V30 4938 C 497.08 0.765733 1.47397 0
M  V30 4939 O 498.265 1.02017 1.61236 0
M  V30 4940 C 495.405 2.21826 2.64362 0
M  V30 4941 C 494.518 3.49153 2.54394 0
M  V30 4942 C 493.653 3.69455 3.81676 0
M  V30 4943 C 492.692 4.90353 3.66361 0
M  V30 4944 N 491.829 5.07131 4.85554 0
M  V30 4945 H 496.669 2.81172 0.987233 0
M  V30 4946 H 494.206 1.39179 0.476203 0
M  V30 4947 H 496.164 2.37675 3.4288 0
M  V30 4948 H 494.794 1.34897 2.93262 0
M  V30 4949 H 493.846 3.41587 1.67399 0
M  V30 4950 H 495.158 4.37818 2.38991 0
M  V30 4951 H 494.312 3.85311 4.68636 0
M  V30 4952 H 493.051 2.7904 3.99985 0
M  V30 4953 H 492.056 4.74464 2.77784 0
M  V30 4954 H 493.281 5.82237 3.49538 0
M  V30 4955 H 491.227 4.19654 5.04209 0
M  V30 4956 H 491.144 5.89899 4.72816 0
M  V30 4957 H 492.412 5.27407 5.73988 0
M  V30 4958 N 496.642 -0.504142 1.49319 0
M  V30 4959 C 497.572 -1.61473 1.68667 0
M  V30 4960 C 498.553 -1.61455 0.535378 0
M  V30 4961 O 499.738 -1.78245 0.770868 0
M  V30 4962 C 496.868 -2.99971 1.75028 0
M  V30 4963 C 495.822 -3.14854 2.89916 0
M  V30 4964 C 495.148 -4.54671 2.81387 0
M  V30 4965 C 496.448 -2.95176 4.30893 0
M  V30 4966 H 498.142 -1.45535 2.61648 0
M  V30 4967 H 495.688 -0.698711 1.25913 0
M  V30 4968 H 497.641 -3.77562 1.8715 0
M  V30 4969 H 496.365 -3.1699 0.786441 0
M  V30 4970 H 495.024 -2.39687 2.77391 0
M  V30 4971 H 494.672 -4.68562 1.82917 0
M  V30 4972 H 494.372 -4.6557 3.58494 0
M  V30 4973 H 495.896 -5.34327 2.95512 0
M  V30 4974 H 497.31 -3.62538 4.44116 0
M  V30 4975 H 495.707 -3.17549 5.09198 0
M  V30 4976 H 496.777 -1.91332 4.45556 0
M  V30 4977 N 498.12 -1.38341 -0.754957 0
M  V30 4978 C 499.366 -1.34672 -1.51628 0
M  V30 4979 C 499.699 0.0636036 -1.94096 0
M  V30 4980 O 498.974 1.0245 -1.6533 0
M  V30 4981 C 499.257 -2.30116 -2.76981 0
M  V30 4982 C 499.11 -3.80003 -2.4066 0
M  V30 4983 C 500.429 -2.23715 -3.78998 0
M  V30 4984 H 497.548 -0.490517 -0.550056 0
M  V30 4985 H 500.19 -1.69178 -0.864807 0
M  V30 4986 H 498.34 -2.00821 -3.3257 0
M  V30 4987 H 500.012 -4.19966 -1.90856 0
M  V30 4988 H 498.255 -3.97751 -1.73137 0
M  V30 4989 H 498.926 -4.42244 -3.30339 0
M  V30 4990 H 501.402 -2.49574 -3.32945 0
M  V30 4991 H 500.278 -2.9261 -4.64403 0
M  V30 4992 H 500.539 -1.23554 -4.24484 0
M  V30 4993 N 499.598 0.982988 -1.23187 0
M  V30 4994 C 501.014 1.2487 -0.993967 0
M  V30 4995 C 501.214 1.99155 0.306498 0
M  V30 4996 O 500.27 2.30688 1.0266 0
M  V30 4997 C 501.583 2.05078 -2.19917 0
M  V30 4998 C 503.131 2.18227 -2.2438 0
M  V30 4999 C 503.606 3.01825 -3.44479 0
M  V30 5000 N 505.097 3.09411 -3.44702 0
M  V30 5001 C 505.832 3.74412 -4.34285 0
M  V30 5002 N 505.328 4.41259 -5.341 0
M  V30 5003 N 507.121 3.71273 -4.22035 0
M  V30 5004 H 499.272 0.485253 -2.06783 0
M  V30 5005 H 501.535 0.276979 -0.906635 0
M  V30 5006 H 501.241 1.57867 -3.14279 0
M  V30 5007 H 501.115 3.05829 -2.2079 0
M  V30 5008 H 503.502 2.64648 -1.30559 0
M  V30 5009 H 503.583 1.16873 -2.2754 0
M  V30 5010 H 503.227 2.56102 -4.38605 0
M  V30 5011 H 503.157 4.03342 -3.38559 0
M  V30 5012 H 505.648 2.61845 -2.7248 0
M  V30 5013 H 505.961 4.88629 -5.98717 0
M  V30 5014 H 504.306 4.39975 -5.38002 0
M  V30 5015 H 507.497 3.18217 -3.43301 0
M  V30 5016 H 507.67 4.21649 -4.92053 0
M  V30 5017 N 501.076 1.04316 1.18135 0
M  V30 5018 C 502.353 0.662166 1.84051 0
M  V30 5019 C 502.733 -0.858169 1.9287 0
M  V30 5020 O 502.081 -1.76062 1.45652 0
M  V30 5021 C 502.291 1.3409 3.22212 0
M  V30 5022 C 503.639 1.4733 3.9822 0
M  V30 5023 O 504.663 1.29921 3.31661 0
M  V30 5024 O 503.522 1.75722 5.17479 0
M  V30 5025 H 500.616 0.232005 0.79379 0
M  V30 5026 H 503.162 1.1422 1.25506 0
M  V30 5027 H 501.934 2.37853 3.10711 0
M  V30 5028 H 501.557 0.849649 3.88416 0
M  V30 5029 N 502.554 -1.34406 0.822964 0
M  V30 5030 C 503.802 -1.97892 0.410245 0
M  V30 5031 C 504.123 -1.65567 -1.03017 0
M  V30 5032 O 503.393 -0.94642 -1.71522 0
M  V30 5033 H 501.973 -0.732049 0.148707 0
M  V30 5034 H 504.635 -1.64043 1.05242 0
M  V30 5035 H 503.731 -3.07579 0.529284 0
M  V30 5036 N 504.032 -0.577932 -1.46621 0
M  V30 5037 C 504.979 0.158048 -2.30258 0
M  V30 5038 C 505.949 0.888669 -1.40328 0
M  V30 5039 O 507.134 0.880283 -1.6928 0
M  V30 5040 C 504.274 1.16884 -3.24703 0
M  V30 5041 C 503.387 0.442163 -4.29731 0
M  V30 5042 C 502.522 1.44007 -5.11308 0
M  V30 5043 C 501.561 0.69952 -6.0809 0
M  V30 5044 N 500.698 1.64525 -6.82551 0
M  V30 5045 H 505.538 -0.561242 -2.92667 0
M  V30 5046 H 503.075 -0.288591 -1.44241 0
M  V30 5047 H 505.033 1.7677 -3.779 0
M  V30 5048 H 503.663 1.85591 -2.64113 0
M  V30 5049 H 502.715 -0.271632 -3.79429 0
M  V30 5050 H 504.027 -0.136992 -4.98612 0
M  V30 5051 H 503.181 2.11186 -5.68758 0
M  V30 5052 H 501.92 2.05315 -4.42377 0
M  V30 5053 H 500.925 0.0139217 -5.49798 0
M  V30 5054 H 502.15 0.091894 -6.79038 0
M  V30 5055 H 500.096 2.24653 -6.16334 0
M  V30 5056 H 500.013 1.11878 -7.47676 0
M  V30 5057 H 501.281 2.30754 -7.44562 0
M  V30 5058 N 505.51 1.54411 -0.315457 0
M  V30 5059 C 506.74 2.04536 0.291315 0
M  V30 5060 C 507.148 1.19162 1.4696 0
M  V30 5061 O 506.491 0.213199 1.82459 0
M  V30 5062 C 506.553 3.5056 0.796725 0
M  V30 5063 C 506.217 4.5627 -0.258178 0
M  V30 5064 C 507.214 5.08312 -1.09153 0
M  V30 5065 C 504.899 5.00672 -0.404036 0
M  V30 5066 C 506.893 6.03312 -2.05655 0
M  V30 5067 C 504.58 5.95488 -1.37248 0
M  V30 5068 C 505.578 6.46693 -2.19721 0
M  V30 5069 O 505.266 7.39648 -3.14921 0
M  V30 5070 H 504.998 0.672856 0.0651165 0
M  V30 5071 H 507.552 2.00244 -0.457308 0
M  V30 5072 H 505.782 3.52223 1.59612 0
M  V30 5073 H 507.471 3.83804 1.32096 0
M  V30 5074 H 508.237 4.74793 -0.98979 0
M  V30 5075 H 504.116 4.60436 0.22799 0
M  V30 5076 H 507.66 6.43203 -2.70067 0
M  V30 5077 H 503.557 6.28424 -1.47489 0
M  V30 5078 H 504.325 7.57496 -3.10067 0
M  V30 5079 N 506.988 0.0434614 1.5754 0
M  V30 5080 C 507.951 -0.918696 2.09982 0
M  V30 5081 C 508.951 -1.24488 1.01781 0
M  V30 5082 O 510.141 -1.18284 1.27885 0
M  V30 5083 C 507.273 -2.23093 2.57764 0
M  V30 5084 H 508.466 -0.464229 2.96285 0
M  V30 5085 H 506.019 -0.204818 1.54952 0
M  V30 5086 H 506.754 -2.73137 1.74832 0
M  V30 5087 H 506.539 -2.00724 3.36827 0
M  V30 5088 H 508.029 -2.92028 2.98512 0
M  V30 5089 N 508.466 -1.55915 -0.229846 0
M  V30 5090 C 509.691 -1.8296 -0.976743 0
M  V30 5091 C 510.116 -0.622735 -1.77493 0
M  V30 5092 O 509.474 0.428431 -1.76165 0
M  V30 5093 C 509.522 -3.07916 -1.8767 0
M  V30 5094 O 508.626 -2.86028 -2.97088 0
M  V30 5095 H 507.967 -0.603453 -0.277021 0
M  V30 5096 H 510.497 -2.0312 -0.245669 0
M  V30 5097 H 510.507 -3.37802 -2.2881 0
M  V30 5098 H 509.182 -3.95389 -1.28996 0
M  V30 5099 H 507.759 -2.67355 -2.59954 0
M  V30 5100 N 509.944 0.496216 -1.49584 0
M  V30 5101 C 511.19 1.25189 -1.59548 0
M  V30 5102 C 511.523 1.9212 -0.283466 0
M  V30 5103 O 510.798 1.80947 0.713324 0
M  V30 5104 C 511.081 2.31516 -2.75812 0
M  V30 5105 C 510.934 1.69054 -4.16822 0
M  V30 5106 C 512.253 3.3304 -2.87702 0
M  V30 5107 H 509.372 0.45379 -0.580727 0
M  V30 5108 H 512.014 0.549327 -1.81886 0
M  V30 5109 H 510.164 2.91438 -2.56897 0
M  V30 5110 H 511.836 1.12923 -4.47265 0
M  V30 5111 H 510.079 0.994485 -4.22247 0
M  V30 5112 H 510.75 2.462 -4.94054 0
M  V30 5113 H 513.226 2.83114 -3.04936 0
M  V30 5114 H 512.102 4.04794 -3.7072 0
M  V30 5115 H 512.363 3.95655 -1.97255 0
M  V30 5116 N 511.423 1.38739 0.74761 0
M  V30 5117 C 512.834 1.31507 1.32524 0
M  V30 5118 C 513.185 -0.0263963 1.96182 0
M  V30 5119 O 512.31 -0.92849 1.95469 0
M  V30 5120 C 512.905 2.38162 2.40966 0
M  V30 5121 C 511.464 2.34489 2.94434 0
M  V30 5122 C 510.611 2.20712 1.67873 0
M  V30 5123 H 513.562 1.4901 0.546043 0
M  V30 5124 H 513.583 2.04222 3.21051 0
M  V30 5125 H 513.095 3.35783 1.94605 0
M  V30 5126 H 511.196 1.40467 3.45108 0
M  V30 5127 H 511.309 3.28861 3.48407 0
M  V30 5128 H 509.673 1.67667 1.91729 0
M  V30 5129 H 510.456 3.20285 1.23582 0
M  V30 5130 N 512.901 -0.976442 1.23707 0
M  V30 5131 C 514.147 -1.72081 1.07312 0
M  V30 5132 C 514.48 -1.90275 -0.388476 0
M  V30 5133 O 513.755 -1.4579 -1.28746 0
M  V30 5134 C 514.038 -3.11675 1.80363 0
M  V30 5135 C 513.891 -3.01027 3.3422 0
M  V30 5136 C 515.21 -4.1117 1.5693 0
M  V30 5137 H 512.329 -0.624583 0.391236 0
M  V30 5138 H 514.971 -1.13649 1.52263 0
M  V30 5139 H 513.121 -3.61559 1.42153 0
M  V30 5140 H 514.793 -2.58637 3.81975 0
M  V30 5141 H 513.036 -2.3744 3.63049 0
M  V30 5142 H 513.707 -3.9988 3.80525 0
M  V30 5143 H 516.183 -3.7011 1.90151 0
M  V30 5144 H 515.059 -5.06928 2.10513 0
M  V30 5145 H 515.32 -4.392 0.505548 0
M  V30 5146 N 514.379 -1.04941 -1.1758 0
M  V30 5147 C 515.628 -0.753124 -1.87112 0
M  V30 5148 C 515.941 0.722507 -1.81767 0
M  V30 5149 O 517.147 1.13265 -2.46746 0
M  V30 5150 C 515.603 -1.29695 -3.35719 0
M  V30 5151 C 515.211 -2.80184 -3.49572 0
M  V30 5152 C 516.955 -1.07759 -4.10595 0
M  V30 5153 C 514.862 -3.2788 -4.92187 0
M  V30 5154 H 513.792 -0.278034 -0.700866 0
M  V30 5155 H 516.443 -1.26637 -1.32798 0
M  V30 5156 H 514.825 -0.711522 -3.89555 0
M  V30 5157 H 515.999 -3.44561 -3.05965 0
M  V30 5158 H 514.314 -3.00632 -2.88113 0
M  V30 5159 H 516.911 -1.40899 -5.15802 0
M  V30 5160 H 517.254 -0.0152302 -4.16297 0
M  V30 5161 H 517.787 -1.62809 -3.62957 0
M  V30 5162 H 514.526 -4.33535 -4.91658 0
M  V30 5163 H 514.046 -2.68245 -5.36475 0
M  V30 5164 H 515.725 -3.22412 -5.60945 0
M  V30 5165 N 515.857 1.33968 -0.830081 0
M  V30 5166 C 517.106 1.97323 -0.417928 0
M  V30 5167 C 517.419 1.6652 1.02618 0
M  V30 5168 O 518.625 2.2342 1.54259 0
M  V30 5169 C 517.081 3.53099 -0.696359 0
M  V30 5170 C 516.689 3.92788 -2.15457 0
M  V30 5171 C 518.433 4.23049 -0.350724 0
M  V30 5172 C 516.34 5.41506 -2.37751 0
M  V30 5173 H 515.27 0.738409 -0.152541 0
M  V30 5174 H 517.921 1.52711 -1.01744 0
M  V30 5175 H 516.303 3.95991 -0.0265904 0
M  V30 5176 H 517.477 3.6098 -2.86408 0
M  V30 5177 H 515.792 3.35795 -2.46232 0
M  V30 5178 H 518.389 5.32403 -0.495036 0
M  V30 5179 H 518.732 4.10279 0.705476 0
M  V30 5180 H 519.265 3.85657 -0.975362 0
M  V30 5181 H 516.004 5.5927 -3.41903 0
M  V30 5182 H 515.524 5.74804 -1.7135 0
M  V30 5183 H 517.203 6.0828 -2.20465 0
M  V30 5184 N 517.335 0.585699 1.46312 0
M  V30 5185 C 518.583 0.072278 2.01971 0
M  V30 5186 C 518.904 -1.29345 1.45928 0
M  V30 5187 O 518.174 -1.84973 0.645109 0
M  V30 5188 H 516.754 0.023729 0.746623 0
M  V30 5189 H 519.416 0.762155 1.7938 0
M  V30 5190 H 518.512 0.00552767 3.121 0
M  V30 5191 N 518.813 -1.54241 0.323641 0
M  V30 5192 C 520.09 -1.92741 -0.333181 0
M  V30 5193 C 520.47 -1.25326 -1.69872 0
M  V30 5194 O 519.818 -0.396991 -2.25025 0
M  V30 5195 C 520.028 -3.46399 -0.425322 0
M  V30 5196 C 521.376 -4.19029 -0.68557 0
M  V30 5197 O 522.4 -3.52555 -0.50824 0
M  V30 5198 O 521.259 -5.36751 -1.02767 0
M  V30 5199 H 518.353 -0.804811 -0.190286 0
M  V30 5200 H 520.899 -1.65542 0.373361 0
M  V30 5201 H 519.671 -3.87643 0.533737 0
M  V30 5202 H 519.294 -3.79704 -1.17944 0
M  V30 5203 N 520.291 -0.0518155 -1.57515 0
M  V30 5204 C 521.223 0.951542 -2.08515 0
M  V30 5205 C 522.236 1.27436 -1.01311 0
M  V30 5206 O 523.425 1.23504 -1.28876 0
M  V30 5207 C 520.525 2.27291 -2.5138 0
M  V30 5208 C 519.698 2.13191 -3.81927 0
M  V30 5209 C 518.757 3.28458 -4.11098 0
M  V30 5210 O 517.783 3.04334 -4.81009 0
M  V30 5211 N 518.985 4.52954 -3.63061 0
M  V30 5212 H 521.75 0.516242 -2.9522 0
M  V30 5213 H 519.311 0.13441 -1.61341 0
M  V30 5214 H 521.303 3.03272 -2.67971 0
M  V30 5215 H 519.873 2.62386 -1.69919 0
M  V30 5216 H 519.093 1.21798 -3.74912 0
M  V30 5217 H 520.381 2.00999 -4.67415 0
M  V30 5218 H 519.779 4.75444 -3.06545 0
M  V30 5219 H 518.336 5.26026 -3.84889 0
M  V30 5220 N 521.769 1.56035 0.221574 0
M  V30 5221 C 522.717 1.93269 1.29421 0
M  V30 5222 C 523.711 0.814727 1.48521 0
M  V30 5223 O 524.917 0.999559 1.49696 0
M  V30 5224 H 521.292 0.614188 0.43391 0
M  V30 5225 H 523.263 2.82773 0.952987 0
M  V30 5226 C 522.012 2.26573 2.63742 0
M  V30 5227 H 521.335 3.12112 2.49853 0
M  V30 5228 H 522.775 2.5651 3.37607 0
M  V30 5229 C 521.234 1.09086 3.1875 0
M  V30 5230 O 521.764 0.351985 4.00155 0
M  V30 5231 N 519.97 0.874693 2.77124 0
M  V30 5232 H 519.517 1.47726 2.11033 0
M  V30 5233 H 519.475 0.0903349 3.1427 0
M  V30 5234 N 523.247 -0.488276 1.49845 0
M  V30 5235 C 524.524 -1.24959 1.50481 0
M  V30 5236 C 524.904 -2.09735 0.239698 0
M  V30 5237 O 524.252 -2.14865 -0.777524 0
M  V30 5238 C 524.462 -2.0954 2.79095 0
M  V30 5239 C 525.81 -2.68305 3.29086 0
M  V30 5240 O 526.834 -2.19797 2.80299 0
M  V30 5241 O 525.693 -3.56643 4.14087 0
M  V30 5242 H 522.787 -0.566133 0.602845 0
M  V30 5243 H 525.333 -0.501504 1.6212 0
M  V30 5244 H 524.105 -1.46958 3.62656 0
M  V30 5245 H 523.728 -2.91517 2.70377 0
M  V30 5246 N 524.725 -1.39134 -0.740242 0
M  V30 5247 C 525.635 -1.39697 -1.88473 0
M  V30 5248 C 526.651 -0.292403 -1.71526 0
M  V30 5249 O 527.827 -0.533021 -1.94219 0
M  V30 5250 C 524.892 -1.23382 -3.24003 0
M  V30 5251 C 523.953 -2.43763 -3.53381 0
M  V30 5252 C 523.186 -2.28216 -4.82445 0
M  V30 5253 O 523.409 -1.28288 -5.55786 0
M  V30 5254 O 522.343 -3.1709 -5.11603 0
M  V30 5255 H 526.169 -2.36159 -1.90952 0
M  V30 5256 H 523.754 -1.20194 -0.887346 0
M  V30 5257 H 525.636 -1.16395 -4.05006 0
M  V30 5258 H 524.311 -0.300121 -3.22306 0
M  V30 5259 H 523.218 -2.56325 -2.72485 0
M  V30 5260 H 524.551 -3.35808 -3.59852 0
M  V30 5261 N 526.204 0.969867 -1.24223 0
M  V30 5262 C 527.452 1.70918 -1.0785 0
M  V30 5263 C 527.773 1.91186 0.383763 0
M  V30 5264 O 527.043 1.48806 1.27411 0
M  V30 5265 H 525.623 0.633334 -0.396103 0
M  V30 5266 H 528.285 1.16689 -1.56108 0
M  V30 5267 H 527.381 2.69455 -1.57482 0
M  V30 5268 N 527.682 1.05563 1.17022 0
M  V30 5269 C 528.91 0.78845 1.91288 0
M  V30 5270 C 529.325 -0.656318 1.77025 0
M  V30 5271 O 528.682 -1.44869 1.10992 0
M  V30 5272 C 528.733 1.16444 3.42232 0
M  V30 5273 O 528.454 2.5525 3.5606 0
M  V30 5274 C 529.955 0.923937 4.33565 0
M  V30 5275 H 527.175 0.286389 0.606813 0
M  V30 5276 H 529.719 1.4073 1.48375 0
M  V30 5277 H 527.874 0.590266 3.82877 0
M  V30 5278 H 528.288 2.70097 4.49609 0
M  V30 5279 H 529.762 1.23672 5.37968 0
M  V30 5280 H 530.239 -0.140688 4.38975 0
M  V30 5281 H 530.845 1.48214 3.98639 0
M  V30 5282 N 529.16 -1.33526 0.837174 0
M  V30 5283 C 530.409 -1.97098 0.428387 0
M  V30 5284 C 530.722 -1.67062 -1.01734 0
M  V30 5285 O 531.928 -2.24235 -1.53072 0
M  V30 5286 C 530.384 -3.52725 0.715075 0
M  V30 5287 C 529.992 -3.9164 2.17537 0
M  V30 5288 C 531.736 -4.22857 0.373154 0
M  V30 5289 C 529.643 -5.40237 2.40619 0
M  V30 5290 H 528.573 -0.737589 0.156455 0
M  V30 5291 H 531.224 -1.52169 1.02552 0
M  V30 5292 H 529.606 -3.95971 0.0475904 0
M  V30 5293 H 530.78 -3.59456 2.88319 0
M  V30 5294 H 529.095 -3.34485 2.4801 0
M  V30 5295 H 531.692 -5.32133 0.523264 0
M  V30 5296 H 532.035 -4.10647 -0.683708 0
M  V30 5297 H 532.568 -3.85135 0.995801 0
M  V30 5298 H 529.307 -5.57449 3.44864 0
M  V30 5299 H 528.827 -5.73887 1.74396 0
M  V30 5300 H 530.506 -6.07102 2.23688 0
M  V30 5301 N 530.638 -0.59345 -1.46 0
M  V30 5302 C 531.885 -0.0831523 -2.02329 0
M  V30 5303 C 532.213 1.28093 -1.46364 0
M  V30 5304 O 531.468 1.85526 -0.622793 0
M  V30 5305 C 531.767 0.021178 -3.57394 0
M  V30 5306 C 531.433 -1.27671 -4.32448 0
M  V30 5307 C 530.095 -1.63227 -4.5267 0
M  V30 5308 C 532.447 -2.13511 -4.7546 0
M  V30 5309 C 529.775 -2.84401 -5.1316 0
M  V30 5310 C 532.127 -3.33922 -5.37289 0
M  V30 5311 C 530.791 -3.69747 -5.55737 0
M  V30 5312 H 530.061 -0.0304276 -0.740375 0
M  V30 5313 H 532.708 -0.772239 -1.75239 0
M  V30 5314 H 531.013 0.793454 -3.83682 0
M  V30 5315 H 532.71 0.431942 -3.98667 0
M  V30 5316 H 529.3 -0.989937 -4.17011 0
M  V30 5317 H 533.484 -1.87344 -4.59582 0
M  V30 5318 H 528.74 -3.12282 -5.25633 0
M  V30 5319 H 532.914 -4.00698 -5.69574 0
M  V30 5320 H 530.541 -4.6373 -6.02377 0
M  V30 5321 N 532.116 1.54067 -0.331816 0
M  V30 5322 C 533.364 2.00319 0.267739 0
M  V30 5323 C 533.685 1.22148 1.52003 0
M  V30 5324 O 532.955 0.325494 1.93177 0
M  V30 5325 H 531.535 0.740014 0.101922 0
M  V30 5326 H 534.197 1.89628 -0.450267 0
M  V30 5327 H 533.293 3.07765 0.518385 0
M  V30 5328 N 533.594 0.0601682 1.57485 0
M  V30 5329 C 534.524 -0.90889 2.15085 0
M  V30 5330 C 535.505 -1.31838 1.07484 0
M  V30 5331 O 536.69 -1.3915 1.35466 0
M  V30 5332 C 533.82 -2.18059 2.7031 0
M  V30 5333 C 532.774 -1.91088 3.82974 0
M  V30 5334 C 532.1 -3.24789 4.24754 0
M  V30 5335 C 533.4 -1.22535 5.07723 0
M  V30 5336 H 535.094 -0.429093 2.96309 0
M  V30 5337 H 532.64 -0.204952 1.42534 0
M  V30 5338 H 534.593 -2.86258 3.09248 0
M  V30 5339 H 533.317 -2.6826 1.8629 0
M  V30 5340 H 531.976 -1.25297 3.44523 0
M  V30 5341 H 531.624 -3.72809 3.37672 0
M  V30 5342 H 531.324 -3.07538 5.00694 0
M  V30 5343 H 532.848 -3.94205 4.66299 0
M  V30 5344 H 534.262 -1.80783 5.4405 0
M  V30 5345 H 532.659 -1.1558 5.88864 0
M  V30 5346 H 533.729 -0.202692 4.84476 0
M  V30 5347 N 535.072 -1.5615 -0.213296 0
M  V30 5348 C 536.297 -1.83986 -0.957282 0
M  V30 5349 C 536.722 -0.641526 -1.76822 0
M  V30 5350 O 536.08 0.409722 -1.7661 0
M  V30 5351 C 536.128 -3.09889 -1.84393 0
M  V30 5352 O 535.232 -2.89163 -2.94038 0
M  V30 5353 H 534.573 -0.606357 -0.270605 0
M  V30 5354 H 537.103 -2.03369 -0.224111 0
M  V30 5355 H 537.113 -3.40209 -2.25215 0
M  V30 5356 H 535.788 -3.96735 -1.24795 0
M  V30 5357 H 534.365 -2.70097 -2.57103 0
M  V30 5358 N 536.55 0.480323 -1.50102 0
M  V30 5359 C 537.775 1.26126 -1.64642 0
M  V30 5360 C 538.2 1.85257 -0.325823 0
M  V30 5361 O 537.558 1.66854 0.709194 0
M  V30 5362 C 537.606 2.35243 -2.73301 0
M  V30 5363 O 536.71 3.39646 -2.33911 0
M  V30 5364 H 536.051 0.371463 -0.550374 0
M  V30 5365 H 538.581 0.572696 -1.96421 0
M  V30 5366 H 538.591 2.80695 -2.96098 0
M  V30 5367 H 537.266 1.91574 -3.6915 0
M  V30 5368 H 535.843 2.99969 -2.21525 0
M  V30 5369 N 538.028 1.39524 0.732853 0
M  V30 5370 C 538.958 1.41153 1.86005 0
M  V30 5371 C 539.939 0.274614 1.67869 0
M  V30 5372 O 541.124 0.480745 1.88155 0
M  V30 5373 C 538.254 1.25638 3.23778 0
M  V30 5374 C 537.208 2.36752 3.56556 0
M  V30 5375 C 536.534 2.06326 4.93289 0
M  V30 5376 C 537.834 3.79069 3.5931 0
M  V30 5377 H 539.528 2.35484 1.84899 0
M  V30 5378 H 537.074 1.13348 0.888162 0
M  V30 5379 H 539.027 1.25398 4.0231 0
M  V30 5380 H 537.751 0.277772 3.25417 0
M  V30 5381 H 536.41 2.36213 2.80355 0
M  V30 5382 H 536.058 1.06897 4.9151 0
M  V30 5383 H 535.758 2.80757 5.16187 0
M  V30 5384 H 537.282 2.07739 5.74175 0
M  V30 5385 H 538.696 3.81526 4.27914 0
M  V30 5386 H 537.093 4.52878 3.93728 0
M  V30 5387 H 538.163 4.09893 2.59068 0
M  V30 5388 N 539.506 -0.963266 1.24736 0
M  V30 5389 C 540.454 -2.07985 1.04139 0
M  V30 5390 C 541.448 -1.69381 -0.0250556 0
M  V30 5391 O 542.654 -1.79531 0.129863 0
M  V30 5392 H 539.029 -0.680627 0.319768 0
M  V30 5393 H 541 -2.22517 1.98818 0
M  V30 5394 C 539.749 -3.4123 0.667615 0
M  V30 5395 H 539.072 -3.71397 1.48 0
M  V30 5396 H 540.512 -4.20244 0.563136 0
M  V30 5397 C 538.971 -3.3104 -0.625647 0
M  V30 5398 O 539.501 -3.65334 -1.67016 0
M  V30 5399 N 537.707 -2.84168 -0.608033 0
M  V30 5400 H 537.254 -2.56458 0.242323 0
M  V30 5401 H 537.212 -2.77732 -1.47352 0
M  V30 5402 N 540.985 -1.06182 -1.16461 0
M  V30 5403 C 542.231 -0.779015 -1.87241 0
M  V30 5404 C 542.564 0.692715 -1.81425 0
M  V30 5405 O 541.839 1.5074 -1.22913 0
M  V30 5406 C 542.122 -1.2728 -3.36856 0
M  V30 5407 C 541.975 -2.80821 -3.51368 0
M  V30 5408 C 543.294 -0.879799 -4.31216 0
M  V30 5409 H 540.413 -0.284464 -0.679889 0
M  V30 5410 H 543.055 -1.31755 -1.36896 0
M  V30 5411 H 541.205 -0.814673 -3.79862 0
M  V30 5412 H 542.877 -3.34833 -3.17308 0
M  V30 5413 H 541.12 -3.19606 -2.93316 0
M  V30 5414 H 541.791 -3.10435 -4.56436 0
M  V30 5415 H 544.267 -1.27436 -3.96105 0
M  V30 5416 H 543.143 -1.25278 -5.34412 0
M  V30 5417 H 543.404 0.215372 -4.41575 0
M  V30 5418 N 542.463 1.3308 -0.844243 0
M  V30 5419 C 543.691 2.01808 -0.456203 0
M  V30 5420 C 544.106 1.63498 0.944131 0
M  V30 5421 O 543.463 0.85102 1.61443 0
M  V30 5422 C 543.514 3.56922 -0.573513 0
M  V30 5423 O 543.235 3.93851 -1.91868 0
M  V30 5424 C 544.736 4.42922 -0.183125 0
M  V30 5425 H 541.956 0.646273 -0.180477 0
M  V30 5426 H 544.5 1.69891 -1.1383 0
M  V30 5427 H 542.655 3.87352 0.0607367 0
M  V30 5428 H 543.069 4.88564 -1.90802 0
M  V30 5429 H 544.543 5.51093 -0.316241 0
M  V30 5430 H 545.02 4.30386 0.875477 0
M  V30 5431 H 545.626 4.1786 -0.792027 0
M  V30 5432 N 543.941 0.601185 1.45683 0
M  V30 5433 C 545.169 0.100054 2.06658 0
M  V30 5434 C 545.584 -1.21285 1.44691 0
M  V30 5435 O 544.941 -1.73735 0.558772 0
M  V30 5436 C 544.992 -0.0528579 3.61461 0
M  V30 5437 O 544.713 1.20809 4.21114 0
M  V30 5438 C 546.214 -0.586193 4.39407 0
M  V30 5439 H 543.434 0.065905 0.667756 0
M  V30 5440 H 545.978 0.827101 1.87028 0
M  V30 5441 H 544.133 -0.730203 3.80456 0
M  V30 5442 H 544.547 1.03368 5.14213 0
M  V30 5443 H 546.021 -0.642297 5.4825 0
M  V30 5444 H 546.498 -1.60713 4.0874 0
M  V30 5445 H 547.104 0.0568935 4.25262 0
M  V30 5446 N 545.419 -1.53889 0.339982 0
M  V30 5447 C 546.367 -2.26391 -0.533822 0
M  V30 5448 C 547.361 -1.28404 -1.10493 0
M  V30 5449 O 548.567 -1.46124 -1.05108 0
M  V30 5450 H 544.942 -0.727385 -0.190828 0
M  V30 5451 H 546.913 -2.98233 0.0997484 0
M  V30 5452 C 545.662 -3.04707 -1.67479 0
M  V30 5453 H 544.985 -3.79934 -1.2446 0
M  V30 5454 H 546.425 -3.58657 -2.26144 0
M  V30 5455 C 544.884 -2.13989 -2.60212 0
M  V30 5456 O 545.414 -1.73361 -3.62366 0
M  V30 5457 N 543.62 -1.79141 -2.28816 0
M  V30 5458 H 543.167 -2.12378 -1.45785 0
M  V30 5459 H 543.125 -1.18725 -2.91121 0
M  V30 5460 N 546.897 -0.0685191 -1.57451 0
M  V30 5461 C 547.86 0.885173 -2.11417 0
M  V30 5462 C 548.86 1.22853 -1.03748 0
M  V30 5463 O 550.05 1.16235 -1.2975 0
M  V30 5464 C 547.182 2.18964 -2.61281 0
M  V30 5465 H 548.375 0.417034 -2.96986 0
M  V30 5466 H 545.928 0.18014 -1.55258 0
M  V30 5467 H 546.663 2.70321 -1.79156 0
M  V30 5468 H 546.448 1.9534 -3.39977 0
M  V30 5469 H 547.938 2.87242 -3.0312 0
M  V30 5470 N 548.375 1.56261 0.205012 0
M  V30 5471 C 549.307 1.90266 1.27795 0
M  V30 5472 C 550.32 0.792397 1.42214 0
M  V30 5473 O 551.509 1.07077 1.42817 0
M  V30 5474 C 548.609 2.11074 2.65143 0
M  V30 5475 C 547.782 3.42176 2.7246 0
M  V30 5476 C 546.841 3.52216 3.90936 0
M  V30 5477 O 545.867 4.25119 3.78501 0
M  V30 5478 N 547.069 2.84573 5.05963 0
M  V30 5479 H 549.834 2.82896 0.989434 0
M  V30 5480 H 547.395 1.57008 0.394981 0
M  V30 5481 H 549.387 2.15089 3.4281 0
M  V30 5482 H 547.957 1.2499 2.86524 0
M  V30 5483 H 547.177 3.50116 1.81142 0
M  V30 5484 H 548.465 4.28509 2.74331 0
M  V30 5485 H 547.863 2.25152 5.18963 0
M  V30 5486 H 546.42 2.94228 5.81613 0
M  V30 5487 N 549.853 -0.472356 1.50355 0
M  V30 5488 C 550.816 -1.5529 1.68576 0
M  V30 5489 C 551.816 -1.50863 0.556511 0
M  V30 5490 O 553.006 -1.53505 0.823516 0
M  V30 5491 C 550.138 -2.94921 1.70981 0
M  V30 5492 H 551.331 -1.40451 2.64978 0
M  V30 5493 H 548.884 -0.698645 1.39816 0
M  V30 5494 H 549.619 -3.15204 0.762675 0
M  V30 5495 H 549.404 -2.99541 2.53017 0
M  V30 5496 H 550.894 -3.73372 1.87037 0
M  V30 5497 N 551.331 -1.39911 -0.725443 0
M  V30 5498 C 552.747 -1.21725 -1.03224 0
M  V30 5499 C 552.947 -0.0855224 -2.01318 0
M  V30 5500 O 552.003 0.55976 -2.46217 0
M  V30 5501 C 553.316 -2.55511 -1.58539 0
M  V30 5502 C 554.864 -2.62439 -1.70572 0
M  V30 5503 C 555.339 -3.9647 -2.29294 0
M  V30 5504 N 556.83 -3.98159 -2.36692 0
M  V30 5505 C 557.565 -4.98647 -2.83088 0
M  V30 5506 N 557.061 -6.0953 -3.2931 0
M  V30 5507 N 558.854 -4.8602 -2.82384 0
M  V30 5508 H 551.005 -2.12267 -0.075048 0
M  V30 5509 H 553.268 -0.943136 -0.0959066 0
M  V30 5510 H 552.974 -3.38926 -0.939249 0
M  V30 5511 H 552.848 -2.75905 -2.57208 0
M  V30 5512 H 555.235 -1.79401 -2.34306 0
M  V30 5513 H 555.316 -2.45885 -0.705297 0
M  V30 5514 H 554.96 -4.79942 -1.66186 0
M  V30 5515 H 554.89 -4.10349 -3.30032 0
M  V30 5516 H 557.381 -3.18085 -2.04035 0
M  V30 5517 H 557.694 -6.82106 -3.6325 0
M  V30 5518 H 556.039 -6.1311 -3.27294 0
M  V30 5519 H 559.23 -3.98493 -2.45603 0
M  V30 5520 H 559.403 -5.64478 -3.18226 0
M  V30 5521 N 552.809 0.956637 -1.25245 0
M  V30 5522 C 553.772 2.03457 -1.05537 0
M  V30 5523 C 554.772 1.60798 -0.00886317 0
M  V30 5524 O 555.962 1.72384 -0.250865 0
M  V30 5525 C 553.094 3.35543 -0.601965 0
M  V30 5526 H 554.287 2.22372 -2.01223 0
M  V30 5527 H 551.84 1.13344 -1.07623 0
M  V30 5528 H 552.575 3.22323 0.357584 0
M  V30 5529 H 552.36 3.67854 -1.35743 0
M  V30 5530 H 553.85 4.14769 -0.485454 0
M  V30 5531 N 554.287 1.06798 1.15896 0
M  V30 5532 C 555.517 0.807522 1.90165 0
M  V30 5533 C 555.925 -0.642417 1.7796 0
M  V30 5534 O 555.268 -1.45193 1.12537 0
M  V30 5535 C 555.33 1.12939 3.41299 0
M  V30 5536 C 554.994 2.57879 3.7729 0
M  V30 5537 C 555.991 3.56118 3.78782 0
M  V30 5538 C 553.676 2.93311 4.07767 0
M  V30 5539 C 555.67 4.87827 4.10248 0
M  V30 5540 C 553.357 4.25219 4.38899 0
M  V30 5541 C 554.355 5.22287 4.4012 0
M  V30 5542 O 554.043 6.51826 4.70508 0
M  V30 5543 H 553.775 0.291946 0.609708 0
M  V30 5544 H 556.329 1.42627 1.47806 0
M  V30 5545 H 554.559 0.45359 3.84031 0
M  V30 5546 H 556.248 0.852363 3.9685 0
M  V30 5547 H 557.014 3.30086 3.55342 0
M  V30 5548 H 552.893 2.18409 4.05979 0
M  V30 5549 H 556.437 5.63586 4.11116 0
M  V30 5550 H 552.334 4.51006 4.61805 0
M  V30 5551 H 553.102 6.56893 4.88298 0
M  V30 5552 N 555.766 -1.3263 0.851289 0
M  V30 5553 C 557.013 -1.97368 0.453023 0
M  V30 5554 C 557.341 -1.67384 -0.990596 0
M  V30 5555 O 556.596 -0.952665 -1.70947 0
M  V30 5556 C 556.895 -3.51713 0.635015 0
M  V30 5557 C 556.561 -4.01676 2.04859 0
M  V30 5558 C 555.223 -4.15031 2.43522 0
M  V30 5559 C 557.575 -4.28206 2.97135 0
M  V30 5560 C 554.903 -4.52257 3.73739 0
M  V30 5561 C 557.255 -4.66889 4.26846 0
M  V30 5562 C 555.919 -4.7845 4.65448 0
M  V30 5563 H 555.189 -0.722219 0.165773 0
M  V30 5564 H 557.836 -1.58092 1.0807 0
M  V30 5565 H 556.141 -3.91726 -0.0759081 0
M  V30 5566 H 557.838 -3.99823 0.306964 0
M  V30 5567 H 554.428 -3.91764 1.73836 0
M  V30 5568 H 558.612 -4.174 2.68498 0
M  V30 5569 H 553.868 -4.59402 4.03435 0
M  V30 5570 H 558.042 -4.86372 4.98413 0
M  V30 5571 H 555.669 -5.07052 5.66395 0
M  V30 5572 N 557.244 -0.608902 -1.45362 0
M  V30 5573 C 558.191 0.109172 -2.30542 0
M  V30 5574 C 559.161 0.858704 -1.42181 0
M  V30 5575 O 560.346 0.844178 -1.71109 0
M  V30 5576 C 557.486 1.09971 -3.27109 0
M  V30 5577 C 556.599 0.350911 -4.30572 0
M  V30 5578 C 555.734 1.33129 -5.14247 0
M  V30 5579 C 554.773 0.570377 -6.09437 0
M  V30 5580 N 553.91 1.5001 -6.85887 0
M  V30 5581 H 558.75 -0.623195 -2.91411 0
M  V30 5582 H 556.287 -0.319122 -1.43597 0
M  V30 5583 H 558.245 1.68714 -3.81564 0
M  V30 5584 H 556.875 1.79947 -2.67991 0
M  V30 5585 H 555.927 -0.352054 -3.78767 0
M  V30 5586 H 557.239 -0.242725 -4.98209 0
M  V30 5587 H 556.393 1.99074 -5.73109 0
M  V30 5588 H 555.132 1.95885 -4.46632 0
M  V30 5589 H 554.137 -0.102702 -5.49704 0
M  V30 5590 H 555.362 -0.0521607 -6.7908 0
M  V30 5591 H 553.308 2.11529 -6.2096 0
M  V30 5592 H 553.225 0.959934 -7.49881 0
M  V30 5593 H 554.493 2.14909 -7.49289 0
M  V30 5594 N 558.722 1.53707 -0.348139 0
M  V30 5595 C 559.654 2.22725 0.540946 0
M  V30 5596 C 560.667 1.2354 1.06027 0
M  V30 5597 O 561.856 1.49867 0.96964 0
M  V30 5598 C 558.956 2.89756 1.75768 0
M  V30 5599 C 558.129 4.15297 1.37285 0
M  V30 5600 C 557.188 4.65697 2.44976 0
M  V30 5601 O 556.214 5.29798 2.08092 0
M  V30 5602 N 557.416 4.42017 3.763 0
M  V30 5603 H 560.181 2.99658 -0.0501592 0
M  V30 5604 H 557.742 1.60979 -0.17248 0
M  V30 5605 H 559.734 3.20388 2.47252 0
M  V30 5606 H 558.304 2.16382 2.25605 0
M  V30 5607 H 557.524 3.9116 0.488584 0
M  V30 5608 H 558.812 4.96948 1.09179 0
M  V30 5609 H 558.21 3.9076 4.09051 0
M  V30 5610 H 556.767 4.77242 4.4394 0
M  V30 5611 N 560.2 0.0768682 1.57412 0
M  V30 5612 C 561.425 -0.603404 1.98428 0
M  V30 5613 C 561.85 -1.62047 0.955108 0
M  V30 5614 O 561.208 -1.81129 -0.0786778 0
M  V30 5615 C 561.256 -1.24396 3.38464 0
M  V30 5616 O 560.36 -2.35982 3.3821 0
M  V30 5617 H 559.701 -0.154741 0.645718 0
M  V30 5618 H 562.231 0.152885 2.04028 0
M  V30 5619 H 562.241 -1.5896 3.7576 0
M  V30 5620 H 560.916 -0.498735 4.12899 0
M  V30 5621 H 559.493 -2.03173 3.1269 0
M  V30 5622 N 561.678 -1.56367 -0.196722 0
M  V30 5623 C 562.925 -1.80529 -0.917366 0
M  V30 5624 C 563.253 -0.649817 -1.83324 0
M  V30 5625 O 562.508 0.36451 -1.92275 0
M  V30 5626 C 562.807 -3.10663 -1.767 0
M  V30 5627 C 562.473 -4.3962 -1.00225 0
M  V30 5628 C 561.135 -4.74653 -0.791095 0
M  V30 5629 C 563.487 -5.1913 -0.464035 0
M  V30 5630 C 560.815 -5.86692 -0.0302155 0
M  V30 5631 C 563.167 -6.31964 0.283625 0
M  V30 5632 C 561.831 -6.65581 0.505813 0
M  V30 5633 H 561.101 -0.660602 -0.335688 0
M  V30 5634 H 563.748 -1.90615 -0.183844 0
M  V30 5635 H 562.053 -2.95807 -2.56915 0
M  V30 5636 H 563.75 -3.26563 -2.32718 0
M  V30 5637 H 560.34 -4.12127 -1.17684 0
M  V30 5638 H 564.524 -4.9248 -0.614575 0
M  V30 5639 H 559.78 -6.11211 0.151917 0
M  V30 5640 H 563.954 -6.92791 0.708057 0
M  V30 5641 H 561.581 -7.52239 1.0973 0
M  V30 5642 N 563.156 0.464375 -1.50603 0
M  V30 5643 C 564.405 1.21277 -1.61167 0
M  V30 5644 C 564.718 1.92953 -0.320704 0
M  V30 5645 O 565.924 2.69778 -0.30534 0
M  V30 5646 C 564.38 2.20403 -2.84518 0
M  V30 5647 C 563.988 1.54499 -4.20516 0
M  V30 5648 C 565.732 2.95843 -3.0443 0
M  V30 5649 C 563.639 2.51951 -5.35047 0
M  V30 5650 H 562.569 0.456367 -0.600204 0
M  V30 5651 H 565.22 0.48254 -1.77042 0
M  V30 5652 H 563.602 2.96746 -2.62217 0
M  V30 5653 H 564.776 0.83899 -4.53098 0
M  V30 5654 H 563.091 0.913152 -4.06264 0
M  V30 5655 H 565.688 3.6879 -3.87167 0
M  V30 5656 H 566.031 3.55622 -2.16423 0
M  V30 5657 H 566.564 2.26611 -3.26944 0
M  V30 5658 H 563.303 1.96901 -6.25228 0
M  V30 5659 H 562.823 3.20683 -5.06875 0
M  V30 5660 H 564.502 3.13643 -5.65895 0
M  V30 5661 N 564.634 1.40294 0.718013 0
M  V30 5662 C 565.584 1.36847 1.82365 0
M  V30 5663 C 566.568 0.246424 1.59002 0
M  V30 5664 O 567.76 0.485336 1.70216 0
M  V30 5665 C 564.889 1.23105 3.20469 0
M  V30 5666 C 563.975 2.4008 3.49603 0
M  V30 5667 N 564.366 3.65562 3.49568 0
M  V30 5668 C 562.664 2.33407 3.80049 0
M  V30 5669 C 563.365 4.43015 3.76978 0
M  V30 5670 N 562.341 3.72823 3.95606 0
M  V30 5671 H 566.143 2.31811 1.80668 0
M  V30 5672 H 563.657 1.34031 0.91703 0
M  V30 5673 H 565.654 1.18718 3.9964 0
M  V30 5674 H 564.314 0.291056 3.23393 0
M  V30 5675 H 565.325 3.98756 3.30476 0
M  V30 5676 H 562.002 1.47762 3.90478 0
M  V30 5677 H 563.392 5.51859 3.83276 0
M  V30 5678 N 566.112 -0.949982 1.2575 0
M  V30 5679 C 567.075 -2.02894 1.06615 0
M  V30 5680 C 568.075 -1.60791 0.0173905 0
M  V30 5681 O 569.265 -1.72249 0.260003 0
M  V30 5682 C 566.397 -3.35219 0.619751 0
M  V30 5683 H 567.59 -2.21302 2.02399 0
M  V30 5684 H 565.143 -1.12772 1.08223 0
M  V30 5685 H 565.878 -3.22508 -0.340486 0
M  V30 5686 H 565.663 -3.67129 1.37692 0
M  V30 5687 H 567.153 -4.14505 0.507443 0
M  V30 5688 N 567.59 -1.07411 -1.15328 0
M  V30 5689 C 568.815 -0.818856 -1.90551 0
M  V30 5690 C 569.24 0.622194 -1.77512 0
M  V30 5691 O 568.598 1.43484 -1.10824 0
M  V30 5692 C 568.646 -1.23267 -3.38877 0
M  V30 5693 O 567.75 -0.378345 -4.10661 0
M  V30 5694 H 567.091 -0.29827 -0.593238 0
M  V30 5695 H 569.621 -1.43289 -1.46046 0
M  V30 5696 H 569.631 -1.20912 -3.89672 0
M  V30 5697 H 568.306 -2.28226 -3.47686 0
M  V30 5698 H 566.883 -0.464437 -3.69996 0
M  V30 5699 N 569.068 1.32177 -0.85831 0
M  V30 5700 C 570.345 1.91781 -0.384624 0
M  V30 5701 C 570.725 1.78171 1.13217 0
M  V30 5702 O 570.073 1.18209 1.95548 0
M  V30 5703 C 570.283 3.38414 -0.853047 0
M  V30 5704 C 571.631 4.15542 -0.872359 0
M  V30 5705 O 572.655 3.47148 -0.797926 0
M  V30 5706 O 571.514 5.37678 -0.978009 0
M  V30 5707 H 568.608 0.819259 -0.112886 0
M  V30 5708 H 571.154 1.40923 -0.945453 0
M  V30 5709 H 569.926 3.4228 -1.89632 0
M  V30 5710 H 569.549 3.96683 -0.269874 0
M  V30 5711 N 570.547 0.616602 1.45037 0
M  V30 5712 C 571.51 -0.0871112 2.29034 0
M  V30 5713 C 572.51 -0.786414 1.40258 0
M  V30 5714 O 573.7 -0.633207 1.62284 0
M  V30 5715 C 570.832 -1.13369 3.21497 0
M  V30 5716 H 572.025 0.651497 2.92738 0
M  V30 5717 H 569.578 0.376058 1.51709 0
M  V30 5718 H 570.313 -1.90277 2.62612 0
M  V30 5719 H 570.098 -0.636358 3.86902 0
M  V30 5720 H 571.588 -1.62627 3.84633 0
M  V30 5721 N 572.025 -1.5352 0.356285 0
M  V30 5722 C 572.935 -2.29151 -0.502712 0
M  V30 5723 C 573.951 -1.34753 -1.1008 0
M  V30 5724 O 575.127 -1.67803 -1.11374 0
M  V30 5725 C 572.192 -3.05911 -1.63154 0
M  V30 5726 C 571.253 -4.15958 -1.06194 0
M  V30 5727 C 570.486 -4.8905 -2.13696 0
M  V30 5728 O 570.709 -4.61919 -3.34645 0
M  V30 5729 O 569.643 -5.75202 -1.77275 0
M  V30 5730 H 573.469 -3.03492 0.112466 0
M  V30 5731 H 571.054 -1.4891 0.120942 0
M  V30 5732 H 572.936 -3.53874 -2.28804 0
M  V30 5733 H 571.611 -2.34415 -2.23229 0
M  V30 5734 H 570.518 -3.7227 -0.369603 0
M  V30 5735 H 571.851 -4.89593 -0.505872 0
M  V30 5736 N 573.503 -0.0852151 -1.57369 0
M  V30 5737 C 574.752 0.580443 -1.93168 0
M  V30 5738 C 575.065 1.6995 -0.968319 0
M  V30 5739 O 576.271 2.42564 -1.21963 0
M  V30 5740 C 574.727 1.08386 -3.43192 0
M  V30 5741 C 574.335 -0.00491388 -4.48 0
M  V30 5742 C 576.079 1.72281 -3.87968 0
M  V30 5743 C 573.986 0.513299 -5.89168 0
M  V30 5744 H 572.916 0.22059 -0.72101 0
M  V30 5745 H 575.567 -0.159621 -1.82804 0
M  V30 5746 H 573.949 1.8773 -3.48674 0
M  V30 5747 H 575.123 -0.780032 -4.5415 0
M  V30 5748 H 573.438 -0.548453 -4.12772 0
M  V30 5749 H 576.035 2.12108 -4.9083 0
M  V30 5750 H 576.378 2.58811 -3.26071 0
M  V30 5751 H 576.911 0.995359 -3.85146 0
M  V30 5752 H 573.65 -0.315153 -6.54742 0
M  V30 5753 H 573.17 1.25564 -5.8651 0
M  V30 5754 H 574.849 0.985433 -6.39451 0
M  V30 5755 N 574.981 1.5647 0.188427 0
M  V30 5756 C 576.258 1.71857 0.934058 0
M  V30 5757 C 576.638 0.641867 2.01105 0
M  V30 5758 O 575.986 -0.346098 2.25864 0
M  V30 5759 C 576.196 3.14431 1.5144 0
M  V30 5760 C 577.544 3.74869 1.99396 0
M  V30 5761 O 578.568 3.17601 1.61269 0
M  V30 5762 O 577.427 4.75387 2.69573 0
M  V30 5763 H 574.521 0.701186 0.438483 0
M  V30 5764 H 577.067 1.68768 0.177599 0
M  V30 5765 H 575.839 3.8427 0.738416 0
M  V30 5766 H 575.462 3.21775 2.33552 0
M  V30 5767 N 576.459 -0.456382 1.50847 0
M  V30 5768 C 577.687 -1.23026 1.66349 0
M  V30 5769 C 578.102 -1.85473 0.352868 0
M  V30 5770 O 577.459 -1.69885 -0.666739 0
M  V30 5771 C 577.51 -2.32827 2.76539 0
M  V30 5772 O 577.231 -1.72938 4.02522 0
M  V30 5773 C 578.732 -3.23448 3.03144 0
M  V30 5774 H 575.952 -0.371527 0.558756 0
M  V30 5775 H 578.496 -0.543082 1.97157 0
M  V30 5776 H 576.651 -2.97294 2.48384 0
M  V30 5777 H 577.065 -2.45357 4.63573 0
M  V30 5778 H 578.539 -3.96669 3.83872 0
M  V30 5779 H 579.016 -3.83094 2.14793 0
M  V30 5780 H 579.622 -2.64702 3.32886 0
M  V30 5781 N 577.937 -1.40673 -0.710563 0
M  V30 5782 C 578.867 -1.44095 -1.83736 0
M  V30 5783 C 579.848 -0.301286 -1.67411 0
M  V30 5784 O 581.033 -0.510618 -1.87367 0
M  V30 5785 C 578.163 -1.30773 -3.21738 0
M  V30 5786 C 577.117 -2.42395 -3.52745 0
M  V30 5787 C 576.443 -2.14147 -4.89944 0
M  V30 5788 C 577.743 -3.84738 -3.53234 0
M  V30 5789 H 579.437 -2.38396 -1.81129 0
M  V30 5790 H 576.983 -1.14746 -0.870017 0
M  V30 5791 H 578.936 -1.31783 -4.00264 0
M  V30 5792 H 577.66 -0.329507 -3.24934 0
M  V30 5793 H 576.319 -2.40643 -2.76562 0
M  V30 5794 H 575.967 -1.14703 -4.89747 0
M  V30 5795 H 575.667 -2.88934 -5.11655 0
M  V30 5796 H 577.191 -2.16848 -5.70797 0
M  V30 5797 H 578.605 -3.88286 -4.2179 0
M  V30 5798 H 577.002 -4.59085 -3.86473 0
M  V30 5799 H 578.072 -4.13962 -2.52514 0
M  V30 5800 N 579.415 0.9433 -1.26252 0
M  V30 5801 C 580.348 2.04162 -1.01946 0
M  V30 5802 C 581.326 1.62507 0.0550808 0
M  V30 5803 O 582.51 1.883 -0.0869025 0
M  V30 5804 C 579.637 3.34313 -0.54335 0
M  V30 5805 C 578.683 3.94939 -1.61013 0
M  V30 5806 S 579.516 4.29484 -3.19849 0
M  V30 5807 C 580.672 5.62738 -2.74001 0
M  V30 5808 H 580.905 2.24466 -1.94942 0
M  V30 5809 H 578.438 1.08441 -1.09909 0
M  V30 5810 H 580.396 4.09576 -0.275315 0
M  V30 5811 H 579.057 3.11957 0.36629 0
M  V30 5812 H 578.25 4.88812 -1.22795 0
M  V30 5813 H 577.852 3.26202 -1.82943 0
M  V30 5814 H 580.144 6.41356 -2.18333 0
M  V30 5815 H 581.087 6.05839 -3.66558 0
M  V30 5816 H 581.495 5.22514 -2.13634 0
M  V30 5817 N 580.893 1.08022 1.14757 0
M  V30 5818 C 581.856 0.71048 2.1791 0
M  V30 5819 C 582.856 -0.252731 1.58801 0
M  V30 5820 O 584.046 -0.0327915 1.74169 0
M  V30 5821 C 581.178 0.0483203 3.40866 0
M  V30 5822 H 582.371 1.62384 2.52134 0
M  V30 5823 H 579.924 0.877595 1.29337 0
M  V30 5824 H 580.659 -0.876959 3.12218 0
M  V30 5825 H 580.444 0.741189 3.85031 0
M  V30 5826 H 581.934 -0.195471 4.17142 0
M  V30 5827 N 582.371 -1.3172 0.865308 0
M  V30 5828 C 583.334 -2.26918 0.322627 0
M  V30 5829 C 584.334 -1.52031 -0.523751 0
M  V30 5830 O 585.524 -1.70973 -0.333727 0
M  V30 5831 C 582.656 -3.36558 -0.542338 0
M  V30 5832 H 583.849 -2.76432 1.16298 0
M  V30 5833 H 581.402 -1.42573 0.640512 0
M  V30 5834 H 582.137 -2.92329 -1.40407 0
M  V30 5835 H 581.922 -3.92048 0.0636395 0
M  V30 5836 H 583.412 -4.07465 -0.91446 0
M  V30 5837 N 583.85 -0.624285 -1.44708 0
M  V30 5838 C 585.08 -0.132726 -2.06173 0
M  V30 5839 C 585.488 1.19513 -1.46674 0
M  V30 5840 O 584.831 1.74254 -0.581491 0
M  V30 5841 C 584.893 0.0636732 -3.59444 0
M  V30 5842 C 584.557 -1.18496 -4.4137 0
M  V30 5843 C 585.553 -2.10706 -4.75288 0
M  V30 5844 C 583.239 -1.41846 -4.81856 0
M  V30 5845 C 585.233 -3.24582 -5.48567 0
M  V30 5846 C 582.92 -2.5602 -5.54885 0
M  V30 5847 C 583.918 -3.47215 -5.88159 0
M  V30 5848 O 583.606 -4.59399 -6.59703 0
M  V30 5849 H 583.338 -0.0737313 -0.671967 0
M  V30 5850 H 585.892 -0.856789 -1.86677 0
M  V30 5851 H 584.122 0.842809 -3.77404 0
M  V30 5852 H 585.811 0.508924 -4.02697 0
M  V30 5853 H 586.577 -1.93898 -4.44554 0
M  V30 5854 H 582.456 -0.717556 -4.55381 0
M  V30 5855 H 586 -3.95785 -5.74456 0
M  V30 5856 H 581.897 -2.72774 -5.85034 0
M  V30 5857 H 582.665 -4.58293 -6.78166 0
M  V30 5858 N 585.328 1.53329 -0.364422 0
M  V30 5859 C 586.739 1.86345 0.115039 0
M  V30 5860 C 587.09 1.28505 1.4826 0
M  V30 5861 O 586.215 0.606639 2.07723 0
M  V30 5862 C 586.81 3.38114 0.215522 0
M  V30 5863 C 585.369 3.70932 0.639237 0
M  V30 5864 C 584.516 2.76471 -0.214261 0
M  V30 5865 H 587.467 1.47593 -0.583258 0
M  V30 5866 H 587.488 3.66031 1.0393 0
M  V30 5867 H 587 3.80182 -0.779948 0
M  V30 5868 H 585.101 3.3442 1.64298 0
M  V30 5869 H 585.214 4.77302 0.41465 0
M  V30 5870 H 583.578 2.52724 0.316678 0
M  V30 5871 H 584.361 3.21373 -1.20725 0
M  V30 5872 N 586.806 0.0935595 1.57322 0
M  V30 5873 C 587.738 -0.895923 2.10964 0
M  V30 5874 C 588.751 -1.24705 1.04654 0
M  V30 5875 O 589.94 -1.20044 1.32105 0
M  V30 5876 C 587.04 -2.20546 2.57318 0
M  V30 5877 C 586.213 -2.0299 3.87445 0
M  V30 5878 C 585.272 -3.17443 4.19662 0
M  V30 5879 O 584.298 -2.91474 4.88909 0
M  V30 5880 N 585.5 -4.43168 3.74943 0
M  V30 5881 H 588.265 -0.437788 2.96485 0
M  V30 5882 H 585.826 -0.0915863 1.61641 0
M  V30 5883 H 587.818 -2.9606 2.75917 0
M  V30 5884 H 586.388 -2.57789 1.76816 0
M  V30 5885 H 585.608 -1.11815 3.78009 0
M  V30 5886 H 586.896 -1.88535 4.7258 0
M  V30 5887 H 586.294 -4.67149 3.19043 0
M  V30 5888 H 584.851 -5.15637 3.987 0
M  V30 5889 N 588.284 -1.56567 -0.180126 0
M  V30 5890 C 589.561 -1.7235 -0.924931 0
M  V30 5891 C 589.941 -0.652523 -2.00762 0
M  V30 5892 O 589.289 0.334115 -2.26044 0
M  V30 5893 C 589.499 -3.1523 -1.49771 0
M  V30 5894 C 590.847 -3.75921 -1.97405 0
M  V30 5895 O 591.871 -3.18452 -1.59583 0
M  V30 5896 O 590.73 -4.7681 -2.67048 0
M  V30 5897 H 587.824 -0.703502 -0.434758 0
M  V30 5898 H 590.37 -1.6886 -0.168647 0
M  V30 5899 H 589.142 -3.84656 -0.718027 0
M  V30 5900 H 588.765 -3.23009 -2.31842 0
M  V30 5901 N 589.762 0.448376 -1.51087 0
M  V30 5902 C 591.011 1.19561 -1.62444 0
M  V30 5903 C 591.324 1.92602 -0.341151 0
M  V30 5904 O 592.53 2.69439 -0.333936 0
M  V30 5905 C 590.986 2.17373 -2.8684 0
M  V30 5906 C 590.594 1.5003 -4.22131 0
M  V30 5907 C 592.338 2.92597 -3.0755 0
M  V30 5908 C 590.245 2.46262 -5.37689 0
M  V30 5909 H 589.175 0.449975 -0.605011 0
M  V30 5910 H 591.826 0.463735 -1.77544 0
M  V30 5911 H 590.208 2.93948 -2.65349 0
M  V30 5912 H 591.382 0.790886 -4.53962 0
M  V30 5913 H 589.697 0.870011 -4.0721 0
M  V30 5914 H 592.294 3.64663 -3.91056 0
M  V30 5915 H 592.637 3.53306 -2.20183 0
M  V30 5916 H 593.17 2.23131 -3.29329 0
M  V30 5917 H 589.909 1.90258 -6.27281 0
M  V30 5918 H 589.429 3.15289 -5.10248 0
M  V30 5919 H 591.108 3.07623 -5.6919 0
M  V30 5920 N 591.24 1.41047 0.703093 0
M  V30 5921 C 592.468 1.4334 1.49202 0
M  V30 5922 C 592.883 0.0365596 1.88765 0
M  V30 5923 O 592.24 -0.942419 1.56284 0
M  V30 5924 C 592.291 2.33538 2.75939 0
M  V30 5925 O 592.012 3.67786 2.38045 0
M  V30 5926 C 593.513 2.44555 3.6974 0
M  V30 5927 H 590.733 0.488472 0.460039 0
M  V30 5928 H 593.277 1.85245 0.86629 0
M  V30 5929 H 591.432 1.94962 3.34766 0
M  V30 5930 H 591.846 4.15816 3.19683 0
M  V30 5931 H 593.32 3.11849 4.55471 0
M  V30 5932 H 593.797 1.47447 4.1371 0
M  V30 5933 H 594.403 2.83735 3.16819 0
M  V30 5934 N 592.718 -0.936591 1.26751 0
M  V30 5935 C 593.65 -2.03991 1.045 0
M  V30 5936 C 594.663 -1.628 0.00394261 0
M  V30 5937 O 595.852 -1.76817 0.244526 0
M  V30 5938 C 592.952 -3.34218 0.561403 0
M  V30 5939 C 592.125 -4.04151 1.67274 0
M  V30 5940 C 591.184 -5.12651 1.1864 0
M  V30 5941 O 590.21 -5.37104 1.88437 0
M  V30 5942 N 591.412 -5.80488 0.037278 0
M  V30 5943 H 594.177 -2.23644 1.99508 0
M  V30 5944 H 591.738 -1.10638 1.18198 0
M  V30 5945 H 593.73 -4.04101 0.220136 0
M  V30 5946 H 592.3 -3.11203 -0.295211 0
M  V30 5947 H 591.52 -3.28121 2.18472 0
M  V30 5948 H 592.808 -4.47626 2.41885 0
M  V30 5949 H 592.206 -5.63064 -0.545494 0
M  V30 5950 H 590.763 -6.5134 -0.244877 0
M  V30 5951 N 594.196 -1.08629 -1.14182 0
M  V30 5952 C 595.444 -0.815731 -1.84906 0
M  V30 5953 C 595.765 0.660441 -1.83475 0
M  V30 5954 O 595.035 1.47888 -1.28476 0
M  V30 5955 H 593.615 -0.298773 -0.684648 0
M  V30 5956 H 596.277 -1.37274 -1.38354 0
M  V30 5957 H 595.373 -1.16193 -2.89665 0
M  V30 5958 N 595.674 1.31259 -0.872281 0
M  V30 5959 C 596.899 2.0133 -0.498099 0
M  V30 5960 C 597.324 1.65031 0.902568 0
M  V30 5961 O 596.682 0.860164 1.59596 0
M  V30 5962 C 596.73 3.54411 -0.665205 0
M  V30 5963 O 595.834 4.11347 0.294473 0
M  V30 5964 H 595.175 0.633844 -0.197832 0
M  V30 5965 H 597.705 1.67402 -1.17633 0
M  V30 5966 H 597.715 4.04147 -0.559373 0
M  V30 5967 H 596.39 3.80171 -1.68651 0
M  V30 5968 H 594.967 3.72624 0.143403 0
M  V30 5969 N 597.152 0.631951 1.44375 0
M  V30 5970 C 598.563 0.219036 1.85411 0
M  V30 5971 C 598.914 -1.22974 1.52879 0
M  V30 5972 O 598.039 -1.93579 0.967266 0
M  V30 5973 C 598.634 0.39075 3.36539 0
M  V30 5974 C 597.193 0.0323351 3.76386 0
M  V30 5975 C 596.34 0.703744 2.68221 0
M  V30 5976 H 599.291 0.837056 1.3483 0
M  V30 5977 H 599.312 -0.370056 3.78696 0
M  V30 5978 H 598.824 1.44527 3.60185 0
M  V30 5979 H 596.925 -1.02042 3.58355 0
M  V30 5980 H 597.038 0.442969 4.77048 0
M  V30 5981 H 595.402 0.138974 2.54321 0
M  V30 5982 H 596.185 1.76088 2.947 0
M  V30 5983 N 598.631 -1.53133 0.372548 0
M  V30 5984 C 599.878 -2.01356 -0.214959 0
M  V30 5985 C 600.206 -1.2596 -1.48204 0
M  V30 5986 O 599.461 -0.343511 -1.92662 0
M  V30 5987 C 599.76 -3.53206 -0.545938 0
M  V30 5988 C 599.426 -4.46511 0.627624 0
M  V30 5989 C 598.088 -4.71737 0.949615 0
M  V30 5990 C 600.44 -5.01666 1.41353 0
M  V30 5991 C 597.768 -5.4937 2.05936 0
M  V30 5992 C 600.12 -5.80511 2.51375 0
M  V30 5993 C 598.784 -6.04022 2.84101 0
M  V30 5994 H 598.054 -0.736813 -0.078659 0
M  V30 5995 H 600.701 -1.84682 0.506447 0
M  V30 5996 H 599.006 -3.67864 -1.34845 0
M  V30 5997 H 600.703 -3.87997 -1.01287 0
M  V30 5998 H 597.293 -4.27029 0.366635 0
M  V30 5999 H 601.477 -4.82117 1.17802 0
M  V30 6000 H 596.733 -5.65803 2.31682 0
M  V30 6001 H 600.907 -6.22255 3.12684 0
M  V30 6002 H 598.534 -6.63962 3.70214 0
M  V30 6003 N 600.109 -0.101901 -1.5727 0
M  V30 6004 C 601.386 0.602832 -1.86079 0
M  V30 6005 C 601.766 1.85912 -1 0
M  V30 6006 O 601.114 2.28379 -0.0742488 0
M  V30 6007 C 601.324 0.911694 -3.36881 0
M  V30 6008 C 602.672 1.2722 -4.05093 0
M  V30 6009 O 603.696 1.0025 -3.41802 0
M  V30 6010 O 602.555 1.7776 -5.16782 0
M  V30 6011 H 599.649 0.302366 -0.769743 0
M  V30 6012 H 602.195 -0.135113 -1.69161 0
M  V30 6013 H 600.967 0.0207256 -3.91295 0
M  V30 6014 H 600.59 1.70538 -3.59169 0
M  V30 6015 N 601.587 1.56661 0.17182 0
M  V30 6016 C 602.815 1.861 0.904115 0
M  V30 6017 C 603.23 0.687227 1.75848 0
M  V30 6018 O 602.587 -0.343671 1.79235 0
M  V30 6019 C 602.638 3.14568 1.78127 0
M  V30 6020 O 602.359 4.27422 0.961366 0
M  V30 6021 C 603.86 3.5735 2.62327 0
M  V30 6022 H 601.08 0.617445 0.262684 0
M  V30 6023 H 603.624 2.03775 0.172068 0
M  V30 6024 H 601.779 2.98721 2.46666 0
M  V30 6025 H 602.193 5.00725 1.56123 0
M  V30 6026 H 603.667 4.50144 3.1949 0
M  V30 6027 H 604.144 2.81445 3.37173 0
M  V30 6028 H 604.75 3.75807 1.99121 0
M  V30 6029 N 603.065 -0.440357 1.51323 0
M  V30 6030 C 604.313 -1.18769 1.63518 0
M  V30 6031 C 604.634 -1.91793 0.352201 0
M  V30 6032 O 603.904 -1.85432 -0.631811 0
M  V30 6033 H 602.484 -0.441408 0.602634 0
M  V30 6034 H 605.146 -0.505162 1.8824 0
M  V30 6035 H 604.242 -1.91892 2.46138 0
M  V30 6036 N 604.543 -1.41418 -0.695603 0
M  V30 6037 C 605.792 -1.40073 -1.4513 0
M  V30 6038 C 606.105 -0.0130439 -1.95596 0
M  V30 6039 O 607.311 0.123032 -2.71221 0
M  V30 6040 C 605.767 -2.46286 -2.62433 0
M  V30 6041 C 605.375 -3.90962 -2.18753 0
M  V30 6042 C 607.119 -2.54077 -3.40066 0
M  V30 6043 C 605.026 -4.88728 -3.33015 0
M  V30 6044 H 603.956 -0.520903 -0.545138 0
M  V30 6045 H 606.607 -1.67242 -0.75515 0
M  V30 6046 H 604.989 -2.12248 -3.34315 0
M  V30 6047 H 606.163 -4.34248 -1.54161 0
M  V30 6048 H 604.478 -3.86831 -1.54114 0
M  V30 6049 H 607.075 -3.24303 -4.25125 0
M  V30 6050 H 607.418 -1.5776 -3.8525 0
M  V30 6051 H 607.951 -2.87206 -2.75241 0
M  V30 6052 H 604.69 -5.86449 -2.92844 0
M  V30 6053 H 604.21 -4.50091 -3.96457 0
M  V30 6054 H 605.889 -5.09483 -3.98793 0
M  V30 6055 N 606.021 0.929856 -1.27246 0
M  V30 6056 C 607.268 1.67731 -1.13457 0
M  V30 6057 C 607.596 1.9185 0.319998 0
M  V30 6058 O 606.851 1.50524 1.25064 0
M  V30 6059 C 607.15 3.05116 -1.86115 0
M  V30 6060 C 606.816 3.00715 -3.35978 0
M  V30 6061 C 605.478 2.99222 -3.76855 0
M  V30 6062 C 607.83 2.92168 -4.3161 0
M  V30 6063 C 605.158 2.86962 -5.11732 0
M  V30 6064 C 607.51 2.81449 -5.66542 0
M  V30 6065 C 606.174 2.78305 -6.06715 0
M  V30 6066 H 605.444 0.613772 -0.415168 0
M  V30 6067 H 608.091 1.08456 -1.57827 0
M  V30 6068 H 606.396 3.68083 -1.34246 0
M  V30 6069 H 608.093 3.61822 -1.72876 0
M  V30 6070 H 604.683 3.02664 -3.03468 0
M  V30 6071 H 608.867 2.92421 -4.01003 0
M  V30 6072 H 604.123 2.82913 -5.42006 0
M  V30 6073 H 608.297 2.738 -6.40317 0
M  V30 6074 H 605.924 2.68561 -7.11181 0
M  V30 6075 N 607.499 1.09233 1.13605 0
M  V30 6076 C 608.447 0.724572 2.21027 0
M  V30 6077 C 609.441 -0.273595 1.67176 0
M  V30 6078 O 610.647 -0.135266 1.79491 0
M  V30 6079 H 607.022 0.216319 0.720215 0
M  V30 6080 H 608.993 1.63975 2.49309 0
M  V30 6081 C 607.742 0.159126 3.47336 0
M  V30 6082 H 607.065 0.918387 3.89109 0
M  V30 6083 H 608.505 -0.0602851 4.23957 0
M  V30 6084 C 606.964 -1.10514 3.18258 0
M  V30 6085 O 607.494 -2.18869 3.36837 0
M  V30 6086 N 605.7 -1.01886 2.72154 0
M  V30 6087 H 605.247 -0.137027 2.57235 0
M  V30 6088 H 605.205 -1.8655 2.53074 0
M  V30 6089 N 608.977 -1.30795 0.87923 0
M  V30 6090 C 609.94 -2.26563 0.346676 0
M  V30 6091 C 610.94 -1.52578 -0.507597 0
M  V30 6092 O 612.13 -1.71318 -0.315575 0
M  V30 6093 C 609.262 -3.37115 -0.506611 0
M  V30 6094 H 610.455 -2.75183 1.19223 0
M  V30 6095 H 608.008 -1.41886 0.655598 0
M  V30 6096 H 608.743 -2.93802 -1.37299 0
M  V30 6097 H 608.528 -3.91959 0.105218 0
M  V30 6098 H 610.018 -4.08412 -0.871192 0
M  V30 6099 N 610.455 -0.639598 -1.44038 0
M  V30 6100 C 611.704 -0.144885 -2.01179 0
M  V30 6101 C 612.017 1.24372 -1.50967 0
M  V30 6102 O 613.223 1.83291 -2.00292 0
M  V30 6103 C 611.679 -0.208244 -3.59297 0
M  V30 6104 C 611.287 -1.59869 -4.18504 0
M  V30 6105 C 613.031 0.229568 -4.23879 0
M  V30 6106 C 610.938 -1.61671 -5.68873 0
M  V30 6107 H 609.868 -0.0504005 -0.752314 0
M  V30 6108 H 612.519 -0.799639 -1.65161 0
M  V30 6109 H 610.901 0.513767 -3.92653 0
M  V30 6110 H 612.075 -2.34496 -3.96671 0
M  V30 6111 H 610.39 -1.98131 -3.66242 0
M  V30 6112 H 612.987 0.235758 -5.3418 0
M  V30 6113 H 613.33 1.25848 -3.96822 0
M  V30 6114 H 613.863 -0.440233 -3.95357 0
M  V30 6115 H 610.602 -2.62427 -6.00677 0
M  V30 6116 H 610.122 -0.913489 -5.92803 0
M  V30 6117 H 611.801 -1.35439 -6.32665 0
M  V30 6118 N 611.933 1.52934 -0.380664 0
M  V30 6119 C 613.161 2.05886 0.204599 0
M  V30 6120 C 613.576 1.25305 1.41223 0
M  V30 6121 O 612.933 0.297504 1.80059 0
M  V30 6122 C 612.984 3.56764 0.583249 0
M  V30 6123 O 612.705 4.34292 -0.576398 0
M  V30 6124 C 614.206 4.2603 1.2253 0
M  V30 6125 H 611.426 0.670193 0.0328991 0
M  V30 6126 H 613.97 1.97148 -0.543397 0
M  V30 6127 H 612.125 3.65603 1.28115 0
M  V30 6128 H 612.539 5.23819 -0.267119 0
M  V30 6129 H 614.013 5.32868 1.44068 0
M  V30 6130 H 614.49 3.80698 2.19011 0
M  V30 6131 H 615.096 4.21485 0.568407 0
M  V30 6132 N 613.412 0.11024 1.57214 0
M  V30 6133 C 614.823 -0.416527 1.81994 0
M  V30 6134 C 615.174 -1.67183 1.02686 0
M  V30 6135 O 614.299 -2.14823 0.260782 0
M  V30 6136 C 614.894 -0.762466 3.30109 0
M  V30 6137 C 613.453 -1.23391 3.556 0
M  V30 6138 C 612.6 -0.238166 2.76275 0
M  V30 6139 H 615.551 0.335491 1.55113 0
M  V30 6140 H 615.572 -1.62068 3.44259 0
M  V30 6141 H 615.084 0.151346 3.87805 0
M  V30 6142 H 613.185 -2.16492 3.03253 0
M  V30 6143 H 613.298 -1.18528 4.64207 0
M  V30 6144 H 611.662 -0.723421 2.4421 0
M  V30 6145 H 612.445 0.668591 3.36727 0
M  V30 6146 N 614.89 -1.56749 -0.16351 0
M  V30 6147 C 615.822 -1.93587 -1.22705 0
M  V30 6148 C 616.835 -0.829824 -1.40063 0
M  V30 6149 O 618.024 -1.10826 -1.39928 0
M  V30 6150 C 615.124 -2.1803 -2.59454 0
M  V30 6151 C 614.297 -3.4928 -2.63292 0
M  V30 6152 C 613.356 -3.62457 -3.8146 0
M  V30 6153 O 612.382 -4.35004 -3.67096 0
M  V30 6154 N 613.584 -2.97888 -4.9824 0
M  V30 6155 H 616.349 -2.8542 -0.914081 0
M  V30 6156 H 613.91 -1.58 -0.353214 0
M  V30 6157 H 615.902 -2.24102 -3.36987 0
M  V30 6158 H 614.472 -1.32543 -2.8311 0
M  V30 6159 H 613.692 -3.54795 -1.71796 0
M  V30 6160 H 614.98 -4.35632 -2.62873 0
M  V30 6161 H 614.378 -2.38833 -5.12811 0
M  V30 6162 H 612.935 -3.09545 -5.73607 0
M  V30 6163 N 616.368 0.432326 -1.51554 0
M  V30 6164 C 617.615 1.18134 -1.64471 0
M  V30 6165 C 617.943 1.91076 -0.363349 0
M  V30 6166 O 617.198 1.84492 0.65279 0
M  V30 6167 C 617.497 2.21907 -2.80164 0
M  V30 6168 C 617.163 1.65941 -4.19255 0
M  V30 6169 C 615.825 1.50401 -4.57092 0
M  V30 6170 C 618.177 1.24843 -5.06027 0
M  V30 6171 C 615.505 0.922443 -5.79403 0
M  V30 6172 C 617.857 0.68113 -6.28922 0
M  V30 6173 C 616.521 0.512673 -6.65528 0
M  V30 6174 H 615.791 0.432283 -0.601841 0
M  V30 6175 H 618.438 0.471701 -1.856 0
M  V30 6176 H 616.743 2.98928 -2.53277 0
M  V30 6177 H 618.44 2.79691 -2.87357 0
M  V30 6178 H 615.03 1.79014 -3.89425 0
M  V30 6179 H 619.214 1.35667 -4.77397 0
M  V30 6180 H 614.47 0.779733 -6.06408 0
M  V30 6181 H 618.644 0.35418 -6.95499 0
M  V30 6182 H 616.271 0.0599084 -7.60176 0
M  V30 6183 N 617.846 1.41785 0.688094 0
M  V30 6184 C 618.793 1.44221 1.80191 0
M  V30 6185 C 619.763 0.295688 1.63447 0
M  V30 6186 O 620.948 0.49783 1.84191 0
M  V30 6187 C 618.088 1.33743 3.1813 0
M  V30 6188 C 617.201 2.58325 3.46254 0
M  V30 6189 C 616.336 2.40086 4.73848 0
M  V30 6190 C 615.375 3.60107 4.94964 0
M  V30 6191 N 614.512 3.40892 6.13789 0
M  V30 6192 H 619.352 2.39411 1.77444 0
M  V30 6193 H 616.889 1.18876 0.866423 0
M  V30 6194 H 618.847 1.25669 3.97823 0
M  V30 6195 H 617.477 0.42157 3.20035 0
M  V30 6196 H 616.529 2.7682 2.60912 0
M  V30 6197 H 617.841 3.4758 3.57756 0
M  V30 6198 H 616.995 2.29522 5.61609 0
M  V30 6199 H 615.734 1.483 4.64606 0
M  V30 6200 H 614.739 3.71118 4.05649 0
M  V30 6201 H 615.964 4.52857 5.06061 0
M  V30 6202 H 613.91 2.51812 6.05745 0
M  V30 6203 H 613.827 4.23727 6.26092 0
M  V30 6204 H 615.095 3.34114 7.04264 0
M  V30 6205 N 619.324 -0.923095 1.27737 0
M  V30 6206 C 620.74 -1.19985 1.05241 0
M  V30 6207 C 620.94 -2.00391 -0.21113 0
M  V30 6208 O 619.996 -2.35324 -0.915366 0
M  V30 6209 C 621.309 -1.94352 2.29451 0
M  V30 6210 C 622.857 -2.07273 2.34536 0
M  V30 6211 C 623.332 -2.85046 3.58487 0
M  V30 6212 N 624.823 -2.92612 3.59072 0
M  V30 6213 C 625.558 -3.53266 4.51654 0
M  V30 6214 N 625.054 -4.15274 5.54545 0
M  V30 6215 N 626.847 -3.50714 4.39268 0
M  V30 6216 H 618.998 -0.386042 2.08862 0
M  V30 6217 H 621.261 -0.233407 0.918817 0
M  V30 6218 H 620.967 -1.42692 3.21453 0
M  V30 6219 H 620.841 -2.94947 2.3513 0
M  V30 6220 H 623.228 -2.58117 1.43037 0
M  V30 6221 H 623.309 -1.05884 2.32857 0
M  V30 6222 H 622.953 -2.34884 4.50324 0
M  V30 6223 H 622.883 -3.8673 3.57418 0
M  V30 6224 H 625.374 -2.48547 2.84663 0
M  V30 6225 H 625.687 -4.59507 6.21348 0
M  V30 6226 H 624.032 -4.13806 5.58382 0
M  V30 6227 H 627.223 -3.01475 3.58093 0
M  V30 6228 H 627.396 -3.97693 5.1161 0
M  V30 6229 N 620.802 -1.09834 -1.13024 0
M  V30 6230 C 622.051 -0.831806 -1.83749 0
M  V30 6231 C 622.364 0.644763 -1.84668 0
M  V30 6232 O 623.57 1.02697 -2.51327 0
M  V30 6233 C 622.026 -1.43817 -3.29916 0
M  V30 6234 C 621.634 -2.94759 -3.37374 0
M  V30 6235 C 623.378 -1.25077 -4.05655 0
M  V30 6236 C 621.285 -3.48461 -4.77838 0
M  V30 6237 H 620.215 -0.30751 -0.688443 0
M  V30 6238 H 622.866 -1.32156 -1.27307 0
M  V30 6239 H 621.248 -0.876106 -3.86187 0
M  V30 6240 H 622.422 -3.57228 -2.91076 0
M  V30 6241 H 620.737 -3.12581 -2.75103 0
M  V30 6242 H 623.334 -1.62649 -5.09362 0
M  V30 6243 H 623.677 -0.191782 -4.15858 0
M  V30 6244 H 624.21 -1.78057 -3.55725 0
M  V30 6245 H 620.949 -4.53998 -4.72828 0
M  V30 6246 H 620.469 -2.90757 -5.24615 0
M  V30 6247 H 622.148 -3.45914 -5.46766 0
M  V30 6248 N 622.28 1.30327 -0.886154 0
M  V30 6249 C 623.505 2.0079 -0.519425 0
M  V30 6250 C 623.93 1.65979 0.885013 0
M  V30 6251 O 623.288 0.877043 1.58675 0
M  V30 6252 C 623.336 3.53686 -0.702758 0
M  V30 6253 O 622.44 4.11637 0.250828 0
M  V30 6254 H 621.781 0.63171 -0.204544 0
M  V30 6255 H 624.311 1.66145 -1.19402 0
M  V30 6256 H 624.321 4.03531 -0.602207 0
M  V30 6257 H 622.996 3.78361 -1.72673 0
M  V30 6258 H 621.573 3.72755 0.103873 0
M  V30 6259 N 623.758 0.647228 1.43697 0
M  V30 6260 C 624.721 -0.0385101 2.29168 0
M  V30 6261 C 625.721 -0.756487 1.41894 0
M  V30 6262 O 626.911 -0.598641 1.63591 0
M  V30 6263 C 624.043 -1.06524 3.23829 0
M  V30 6264 H 625.236 0.713445 2.9129 0
M  V30 6265 H 622.789 0.408153 1.50877 0
M  V30 6266 H 623.524 -1.84664 2.66589 0
M  V30 6267 H 623.309 -0.554147 3.88164 0
M  V30 6268 H 624.799 -1.54432 3.87996 0
M  V30 6269 N 625.236 -1.5273 0.388769 0
M  V30 6270 C 626.482 -2.01871 -0.193877 0
M  V30 6271 C 626.815 -1.27475 -1.46505 0
M  V30 6272 O 626.09 -0.375063 -1.90849 0
M  V30 6273 C 626.373 -3.5712 -0.462336 0
M  V30 6274 C 626.226 -4.42186 0.824091 0
M  V30 6275 C 627.545 -4.21881 -1.25319 0
M  V30 6276 H 624.664 -0.733764 -0.0689899 0
M  V30 6277 H 627.306 -1.82796 0.518231 0
M  V30 6278 H 625.456 -3.73504 -1.06896 0
M  V30 6279 H 627.128 -4.37554 1.46096 0
M  V30 6280 H 625.371 -4.09219 1.43952 0
M  V30 6281 H 626.042 -5.48828 0.590905 0
M  V30 6282 H 628.518 -4.0947 -0.73981 0
M  V30 6283 H 627.394 -5.30487 -1.40977 0
M  V30 6284 H 627.655 -3.79478 -2.26824 0
M  V30 6285 N 626.714 -0.118576 -1.57153 0
M  V30 6286 C 627.644 0.828436 -2.1831 0
M  V30 6287 C 628.625 1.27758 -1.12303 0
M  V30 6288 O 629.81 1.34026 -1.40537 0
M  V30 6289 C 626.94 2.07876 -2.78217 0
M  V30 6290 C 625.894 1.76742 -3.89803 0
M  V30 6291 C 625.22 3.08801 -4.36516 0
M  V30 6292 C 626.52 1.03606 -5.11921 0
M  V30 6293 H 628.214 0.318824 -2.97698 0
M  V30 6294 H 625.76 0.151911 -1.43196 0
M  V30 6295 H 627.713 2.74584 -3.19659 0
M  V30 6296 H 626.437 2.61161 -1.96118 0
M  V30 6297 H 625.096 1.12424 -3.48936 0
M  V30 6298 H 624.744 3.6002 -3.51276 0
M  V30 6299 H 624.444 2.88743 -5.11763 0
M  V30 6300 H 625.968 3.76627 -4.80608 0
M  V30 6301 H 627.382 1.60467 -5.50385 0
M  V30 6302 H 625.779 0.936454 -5.92748 0
M  V30 6303 H 626.849 0.0227421 -4.84895 0
M  V30 6304 N 628.193 1.56834 0.155195 0
M  V30 6305 C 629.441 1.82536 0.867462 0
M  V30 6306 C 629.762 0.698168 1.82073 0
M  V30 6307 O 629.032 -0.280807 1.93877 0
M  V30 6308 H 627.612 0.673401 0.323327 0
M  V30 6309 H 630.274 1.94313 0.151156 0
M  V30 6310 H 629.37 2.77171 1.43466 0
M  V30 6311 N 629.671 -0.424282 1.51781 0
M  V30 6312 C 630.948 -1.18464 1.55646 0
M  V30 6313 C 631.328 -2.08529 0.328438 0
M  V30 6314 O 630.676 -2.17969 -0.685693 0
M  V30 6315 C 630.886 -1.97514 2.87731 0
M  V30 6316 C 632.234 -2.54106 3.40169 0
M  V30 6317 O 633.258 -2.07711 2.89369 0
M  V30 6318 O 632.117 -3.38759 4.28841 0
M  V30 6319 H 629.211 -0.540055 0.626314 0
M  V30 6320 H 631.757 -0.432291 1.64102 0
M  V30 6321 H 630.529 -1.31444 3.68562 0
M  V30 6322 H 630.152 -2.79787 2.82498 0
M  V30 6323 N 631.149 -1.42148 -0.680565 0
M  V30 6324 C 632.079 -1.4796 -1.80638 0
M  V30 6325 C 633.06 -0.336728 -1.66734 0
M  V30 6326 O 634.245 -0.550247 -1.86242 0
M  V30 6327 C 631.375 -1.37569 -3.18892 0
M  V30 6328 C 630.329 -2.49823 -3.47524 0
M  V30 6329 C 629.655 -2.24491 -4.85291 0
M  V30 6330 C 630.955 -3.92144 -3.44994 0
M  V30 6331 H 632.649 -2.42184 -1.76032 0
M  V30 6332 H 630.195 -1.16566 -0.845481 0
M  V30 6333 H 632.148 -1.40243 -3.97379 0
M  V30 6334 H 630.872 -0.398357 -3.24162 0
M  V30 6335 H 629.531 -2.46455 -2.71395 0
M  V30 6336 H 629.179 -1.25066 -4.87204 0
M  V30 6337 H 628.879 -2.99722 -5.05411 0
M  V30 6338 H 630.403 -2.28906 -5.66069 0
M  V30 6339 H 631.817 -3.97145 -4.13459 0
M  V30 6340 H 630.214 -4.67179 -3.76648 0
M  V30 6341 H 631.284 -4.19225 -2.43676 0
M  V30 6342 N 632.627 0.916307 -1.28225 0
M  V30 6343 C 633.59 1.99996 -1.11957 0
M  V30 6344 C 634.59 1.60688 -0.0600152 0
M  V30 6345 O 635.78 1.71499 -0.30558 0
M  V30 6346 C 632.912 3.33458 -0.708411 0
M  V30 6347 H 634.105 2.15858 -2.08196 0
M  V30 6348 H 631.658 1.09863 -1.11175 0
M  V30 6349 H 632.393 3.23297 0.254859 0
M  V30 6350 H 632.178 3.63349 -1.47377 0
M  V30 6351 H 633.668 4.13014 -0.617164 0
M  V30 6352 N 634.105 1.10431 1.1244 0
M  V30 6353 C 635.352 0.846717 1.83948 0
M  V30 6354 C 635.68 -0.627709 1.84093 0
M  V30 6355 O 634.935 -1.47876 1.28184 0
M  V30 6356 C 635.234 1.34022 3.3132 0
M  V30 6357 C 634.9 2.82606 3.51347 0
M  V30 6358 C 633.562 3.23182 3.56521 0
M  V30 6359 C 635.914 3.78356 3.58464 0
M  V30 6360 C 633.242 4.58258 3.66356 0
M  V30 6361 C 635.594 5.13234 3.69829 0
M  V30 6362 C 634.258 5.53384 3.73259 0
M  V30 6363 H 633.528 0.309836 0.673114 0
M  V30 6364 H 636.175 1.38091 1.32677 0
M  V30 6365 H 634.48 0.726047 3.85014 0
M  V30 6366 H 636.177 1.11739 3.85118 0
M  V30 6367 H 632.767 2.50212 3.47983 0
M  V30 6368 H 636.951 3.48115 3.53737 0
M  V30 6369 H 632.207 4.88787 3.67284 0
M  V30 6370 H 636.381 5.87272 3.74279 0
M  V30 6371 H 634.008 6.58045 3.80633 0
M  V30 6372 N 635.583 -1.29855 0.893053 0
M  V30 6373 C 636.832 -1.95104 0.511597 0
M  V30 6374 C 637.145 -1.71226 -0.945567 0
M  V30 6375 O 638.351 -2.30525 -1.43424 0
M  V30 6376 C 636.807 -3.49374 0.864034 0
M  V30 6377 C 636.415 -3.82061 2.33952 0
M  V30 6378 C 638.159 -4.20894 0.552167 0
M  V30 6379 C 636.066 -5.29546 2.63316 0
M  V30 6380 H 634.996 -0.73029 0.187597 0
M  V30 6381 H 637.647 -1.47682 1.08914 0
M  V30 6382 H 636.029 -3.95413 0.215493 0
M  V30 6383 H 637.203 -3.46904 3.03305 0
M  V30 6384 H 635.518 -3.23665 2.61973 0
M  V30 6385 H 638.115 -5.29435 0.748489 0
M  V30 6386 H 638.458 -4.13178 -0.508924 0
M  V30 6387 H 638.991 -3.80564 1.15825 0
M  V30 6388 H 635.73 -5.4232 3.68197 0
M  V30 6389 H 635.25 -5.65974 1.9858 0
M  V30 6390 H 636.929 -5.97068 2.49236 0
M  V30 6391 N 637.061 -0.65484 -1.43351 0
M  V30 6392 C 638.011 0.0581325 -2.27926 0
M  V30 6393 C 638.995 0.793188 -1.3999 0
M  V30 6394 O 640.187 0.675387 -1.63608 0
M  V30 6395 C 637.316 1.02272 -3.27712 0
M  V30 6396 C 636.402 0.286048 -4.23134 0
M  V30 6397 N 636.793 -0.698298 -5.00957 0
M  V30 6398 C 635.091 0.527272 -4.42872 0
M  V30 6399 C 635.792 -1.1357 -5.70506 0
M  V30 6400 N 634.768 -0.469631 -5.41568 0
M  V30 6401 H 638.57 -0.697182 -2.85511 0
M  V30 6402 H 636.084 -0.482252 -1.55074 0
M  V30 6403 H 638.081 1.5483 -3.87083 0
M  V30 6404 H 636.741 1.77807 -2.71688 0
M  V30 6405 H 637.752 -1.07708 -5.06576 0
M  V30 6406 H 634.429 1.26367 -3.97916 0
M  V30 6407 H 635.819 -1.95027 -6.42973 0
M  V30 6408 N 638.539 1.52521 -0.396863 0
M  V30 6409 C 639.502 2.2527 0.422604 0
M  V30 6410 C 640.502 1.27184 0.983913 0
M  V30 6411 O 641.692 1.51222 0.864723 0
M  V30 6412 C 638.824 3.01356 1.59365 0
M  V30 6413 H 640.017 2.99133 -0.214416 0
M  V30 6414 H 637.57 1.55587 -0.149128 0
M  V30 6415 H 638.305 2.31813 2.26789 0
M  V30 6416 H 638.09 3.73357 1.19779 0
M  V30 6417 H 639.58 3.56571 2.17363 0
M  V30 6418 N 640.017 0.126909 1.57088 0
M  V30 6419 C 641.433 -0.229641 1.57939 0
M  V30 6420 C 641.633 -1.66145 1.1401 0
M  V30 6421 O 640.689 -2.3843 0.831119 0
M  V30 6422 C 642.002 0.0108648 3.00698 0
M  V30 6423 C 643.55 -0.054418 3.12953 0
M  V30 6424 C 644.025 0.158497 4.57726 0
M  V30 6425 N 645.516 0.104735 4.63082 0
M  V30 6426 C 646.251 0.24427 5.72879 0
M  V30 6427 N 645.747 0.440415 6.91399 0
M  V30 6428 N 647.54 0.183286 5.61801 0
M  V30 6429 H 639.691 1.06203 1.83942 0
M  V30 6430 H 641.954 0.418834 0.85046 0
M  V30 6431 H 641.66 1.00102 3.37154 0
M  V30 6432 H 641.534 -0.717512 3.70313 0
M  V30 6433 H 643.921 -1.0351 2.7635 0
M  V30 6434 H 644.002 0.705967 2.45865 0
M  V30 6435 H 643.646 1.13619 4.95028 0
M  V30 6436 H 643.576 -0.62197 5.22914 0
M  V30 6437 H 646.067 -0.0430298 3.77876 0
M  V30 6438 H 646.38 0.537536 7.70928 0
M  V30 6439 H 644.725 0.476488 6.93365 0
M  V30 6440 H 647.916 0.0309561 4.6809 0
M  V30 6441 H 648.089 0.295471 6.47326 0
M  V30 6442 N 641.495 -1.56914 -0.146875 0
M  V30 6443 C 642.911 -1.51582 -0.499518 0
M  V30 6444 C 643.111 -0.83535 -1.83369 0
M  V30 6445 O 642.167 -0.405932 -2.49216 0
M  V30 6446 C 643.48 -2.96349 -0.509711 0
M  V30 6447 C 645.028 -3.07288 -0.595217 0
M  V30 6448 C 645.503 -4.53562 -0.636071 0
M  V30 6449 N 646.994 -4.57906 -0.69829 0
M  V30 6450 C 647.729 -5.68462 -0.750886 0
M  V30 6451 N 647.225 -6.88588 -0.76282 0
M  V30 6452 N 649.018 -5.56496 -0.791777 0
M  V30 6453 H 641.169 -1.99547 0.727656 0
M  V30 6454 H 643.432 -0.910113 0.265327 0
M  V30 6455 H 643.138 -3.4939 0.402409 0
M  V30 6456 H 643.012 -3.52307 -1.34758 0
M  V30 6457 H 645.399 -2.54266 -1.49776 0
M  V30 6458 H 645.48 -2.54373 0.2698 0
M  V30 6459 H 645.124 -5.07222 0.262313 0
M  V30 6460 H 645.054 -5.04259 -1.51758 0
M  V30 6461 H 647.545 -3.71429 -0.696362 0
M  V30 6462 H 647.858 -7.68598 -0.804804 0
M  V30 6463 H 646.203 -6.91148 -0.730694 0
M  V30 6464 H 649.394 -4.61562 -0.779624 0
M  V30 6465 H 649.567 -6.42671 -0.829301 0
M  V30 6466 N 642.974 0.416227 -1.52004 0
M  V30 6467 C 644.204 1.18401 -1.69307 0
M  V30 6468 C 644.612 1.84943 -0.399072 0
M  V30 6469 O 643.955 1.72406 0.634177 0
M  V30 6470 C 644.017 2.29465 -2.76742 0
M  V30 6471 C 643.681 1.83117 -4.18709 0
M  V30 6472 C 644.678 1.32286 -5.02789 0
M  V30 6473 C 642.363 1.90167 -4.64911 0
M  V30 6474 C 644.357 0.891178 -6.31139 0
M  V30 6475 C 642.044 1.4661 -5.93253 0
M  V30 6476 C 643.042 0.961696 -6.76196 0
M  V30 6477 O 642.73 0.532388 -8.02135 0
M  V30 6478 H 642.462 0.362098 -0.570843 0
M  V30 6479 H 645.016 0.496764 -1.99302 0
M  V30 6480 H 643.246 3.01531 -2.42107 0
M  V30 6481 H 644.935 2.91252 -2.82713 0
M  V30 6482 H 645.701 1.26218 -4.68288 0
M  V30 6483 H 641.58 2.28371 -4.00459 0
M  V30 6484 H 645.124 0.496788 -6.95829 0
M  V30 6485 H 641.021 1.52355 -6.27263 0
M  V30 6486 H 641.789 0.656339 -8.15864 0
M  V30 6487 N 644.452 1.42507 0.673017 0
M  V30 6488 C 645.699 1.43072 1.43306 0
M  V30 6489 C 646.027 0.0478004 1.94441 0
M  V30 6490 O 645.282 -0.944106 1.71421 0
M  V30 6491 C 645.581 2.40351 2.64511 0
M  V30 6492 C 645.247 3.8669 2.31908 0
M  V30 6493 C 643.909 4.26551 2.22728 0
M  V30 6494 C 646.261 4.78991 2.05467 0
M  V30 6495 C 643.589 5.56691 1.85234 0
M  V30 6496 C 645.941 6.09476 1.69477 0
M  V30 6497 C 644.605 6.48334 1.58808 0
M  V30 6498 H 643.875 0.523536 0.524395 0
M  V30 6499 H 646.522 1.75459 0.76723 0
M  V30 6500 H 644.827 2.01297 3.36135 0
M  V30 6501 H 646.524 2.38051 3.22696 0
M  V30 6502 H 643.114 3.55132 2.39956 0
M  V30 6503 H 647.298 4.48982 2.11492 0
M  V30 6504 H 642.554 5.85657 1.75545 0
M  V30 6505 H 646.728 6.80482 1.48043 0
M  V30 6506 H 644.355 7.49084 1.29525 0
M  V30 6507 N 645.93 -0.909495 1.28709 0
M  V30 6508 C 646.86 -2.0291 1.15542 0
M  V30 6509 C 647.841 -1.7002 0.0521017 0
M  V30 6510 O 649.026 -1.92835 0.229849 0
M  V30 6511 C 646.156 -3.37458 0.820935 0
M  V30 6512 C 645.11 -3.84524 1.87949 0
M  V30 6513 C 644.436 -5.16086 1.39854 0
M  V30 6514 C 645.736 -4.05918 3.28676 0
M  V30 6515 H 647.43 -2.14183 2.09203 0
M  V30 6516 H 644.976 -1.02913 1.00722 0
M  V30 6517 H 646.929 -4.1528 0.715571 0
M  V30 6518 H 645.653 -3.26249 -0.151374 0
M  V30 6519 H 644.312 -3.08911 1.97408 0
M  V30 6520 H 643.96 -5.01284 0.41518 0
M  V30 6521 H 643.66 -5.48547 2.1064 0
M  V30 6522 H 645.184 -5.96459 1.30649 0
M  V30 6523 H 646.598 -4.74252 3.22115 0
M  V30 6524 H 644.995 -4.49717 3.97334 0
M  V30 6525 H 646.065 -3.10583 3.72379 0
M  V30 6526 N 647.408 -1.11026 -1.11852 0
M  V30 6527 C 648.356 -0.759643 -2.19846 0
M  V30 6528 C 649.35 0.246964 -1.6759 0
M  V30 6529 O 650.556 0.106693 -1.79684 0
M  V30 6530 H 646.931 -0.22775 -0.716683 0
M  V30 6531 H 648.902 -1.6792 -2.46669 0
M  V30 6532 C 647.651 -0.214364 -3.47039 0
M  V30 6533 H 646.974 -0.980175 -3.87599 0
M  V30 6534 H 648.414 -0.00717047 -4.23999 0
M  V30 6535 C 646.873 1.05436 -3.19976 0
M  V30 6536 O 647.403 2.13483 -3.40276 0
M  V30 6537 N 645.609 0.975436 -2.7374 0
M  V30 6538 H 645.156 0.0960853 -2.57421 0
M  V30 6539 H 645.114 1.82501 -2.5601 0
M  V30 6540 N 648.886 1.2938 -0.899927 0
M  V30 6541 C 649.836 2.25311 -0.349165 0
M  V30 6542 C 650.82 1.51889 0.530892 0
M  V30 6543 O 652.012 1.73028 0.372872 0
M  V30 6544 C 649.141 3.40696 0.422055 0
M  V30 6545 C 648.227 4.21455 -0.472935 0
M  V30 6546 N 648.618 4.8048 -1.58026 0
M  V30 6547 C 646.916 4.45177 -0.270767 0
M  V30 6548 C 647.617 5.41117 -2.13465 0
M  V30 6549 N 646.593 5.24518 -1.42766 0
M  V30 6550 H 650.395 2.68507 -1.19505 0
M  V30 6551 H 647.909 1.43992 -0.751006 0
M  V30 6552 H 649.906 4.08486 0.833369 0
M  V30 6553 H 648.566 2.99037 1.2652 0
M  V30 6554 H 649.577 4.79257 -1.96299 0
M  V30 6555 H 646.254 4.14071 0.533988 0
M  V30 6556 H 647.644 5.979 -3.06537 0
M  V30 6557 N 650.364 0.662433 1.43002 0
M  V30 6558 C 651.611 0.179591 2.01702 0
M  V30 6559 C 651.939 -1.20964 1.52309 0
M  V30 6560 O 651.194 -1.82343 0.7106 0
M  V30 6561 C 651.493 0.149363 3.57088 0
M  V30 6562 C 651.159 1.48158 4.25864 0
M  V30 6563 C 649.821 1.84638 4.44367 0
M  V30 6564 C 652.173 2.35953 4.64732 0
M  V30 6565 C 649.501 3.08561 4.99006 0
M  V30 6566 C 651.853 3.59176 5.20745 0
M  V30 6567 C 650.517 3.95841 5.37463 0
M  V30 6568 H 649.787 0.0657172 0.73808 0
M  V30 6569 H 652.434 0.854968 1.71355 0
M  V30 6570 H 650.739 -0.609491 3.8703 0
M  V30 6571 H 652.436 -0.241241 4.00274 0
M  V30 6572 H 649.026 1.18777 4.11813 0
M  V30 6573 H 653.21 2.09058 4.50121 0
M  V30 6574 H 648.466 3.37005 5.10135 0
M  V30 6575 H 652.64 4.27417 5.49807 0
M  V30 6576 H 650.267 4.91942 5.79566 0
M  V30 6577 N 651.842 -1.52309 0.404946 0
M  V30 6578 C 652.774 -2.24579 -0.45791 0
M  V30 6579 C 653.787 -1.2739 -1.01369 0
M  V30 6580 O 654.976 -1.53363 -0.91335 0
M  V30 6581 C 652.076 -2.9608 -1.64893 0
M  V30 6582 C 651.249 -4.20106 -1.21777 0
M  V30 6583 C 650.308 -4.74468 -2.27523 0
M  V30 6584 O 649.334 -5.37157 -1.88285 0
M  V30 6585 N 650.536 -4.55678 -3.59635 0
M  V30 6586 H 653.301 -2.99265 0.161341 0
M  V30 6587 H 650.862 -1.60228 0.232107 0
M  V30 6588 H 652.854 -3.29344 -2.35191 0
M  V30 6589 H 651.424 -2.24606 -2.17419 0
M  V30 6590 H 650.644 -3.92704 -0.343071 0
M  V30 6591 H 651.932 -5.00658 -0.906596 0
M  V30 6592 H 651.33 -4.05673 -3.94266 0
M  V30 6593 H 649.887 -4.9339 -4.25922 0
M  V30 6594 N 653.32 -0.135238 -1.57019 0
M  V30 6595 C 654.568 0.51777 -1.95355 0
M  V30 6596 C 654.889 1.6617 -1.02042 0
M  V30 6597 O 654.159 1.95738 -0.0797343 0
M  V30 6598 H 652.739 0.194264 -0.721298 0
M  V30 6599 H 655.401 -0.207983 -1.93787 0
M  V30 6600 H 654.497 0.901675 -2.98791 0
M  V30 6601 N 654.798 1.5699 0.138552 0
M  V30 6602 C 656.046 1.83446 0.848053 0
M  V30 6603 C 656.367 0.71744 1.81322 0
M  V30 6604 O 655.637 -0.260228 1.94164 0
M  V30 6605 H 654.217 0.676792 0.316166 0
M  V30 6606 H 656.879 1.94462 0.130538 0
M  V30 6607 H 655.975 2.78677 1.40518 0
M  V30 6608 N 656.276 -0.40816 1.52223 0
M  V30 6609 C 657.504 -1.17672 1.70179 0
M  V30 6610 C 657.919 -1.84257 0.411696 0
M  V30 6611 O 657.276 -1.7192 -0.612354 0
M  V30 6612 C 657.327 -2.23911 2.83806 0
M  V30 6613 O 657.048 -1.60044 4.0782 0
M  V30 6614 C 658.549 -3.1364 3.13281 0
M  V30 6615 H 655.769 -0.353562 0.570293 0
M  V30 6616 H 658.313 -0.480083 1.98785 0
M  V30 6617 H 656.468 -2.89242 2.57717 0
M  V30 6618 H 656.882 -2.30484 4.71145 0
M  V30 6619 H 658.356 -3.84255 3.96298 0
M  V30 6620 H 658.833 -3.76066 2.26872 0
M  V30 6621 H 659.439 -2.53977 3.41139 0
M  V30 6622 N 657.755 -1.42862 -0.66545 0
M  V30 6623 C 658.702 -1.4707 -1.77874 0
M  V30 6624 C 659.672 -0.321654 -1.62956 0
M  V30 6625 O 660.857 -0.52707 -1.83376 0
M  V30 6626 C 657.997 -1.38788 -3.15962 0
M  V30 6627 C 657.11 -2.63801 -3.42101 0
M  V30 6628 C 656.245 -2.47594 -4.69969 0
M  V30 6629 C 655.284 -3.67936 -4.89172 0
M  V30 6630 N 654.421 -3.50614 -6.08288 0
M  V30 6631 H 659.261 -2.42204 -1.73613 0
M  V30 6632 H 656.798 -1.20239 -0.847401 0
M  V30 6633 H 658.756 -1.31982 -3.95773 0
M  V30 6634 H 657.386 -0.472431 -3.19324 0
M  V30 6635 H 656.438 -2.80935 -2.56475 0
M  V30 6636 H 657.75 -3.53228 -3.52181 0
M  V30 6637 H 656.904 -2.38427 -5.57886 0
M  V30 6638 H 655.643 -1.55672 -4.62188 0
M  V30 6639 H 654.648 -3.77525 -3.99694 0
M  V30 6640 H 655.873 -4.60851 -4.98792 0
M  V30 6641 H 653.819 -2.61417 -6.01662 0
M  V30 6642 H 653.736 -4.33634 -6.19272 0
M  V30 6643 H 655.004 -3.45276 -6.98859 0
M  V30 6644 N 659.233 0.902656 -1.29189 0
M  V30 6645 C 660.463 1.68394 -1.19695 0
M  V30 6646 C 660.871 1.87602 0.245384 0
M  V30 6647 O 660.214 1.41084 1.17648 0
M  V30 6648 C 660.276 3.09094 -1.83578 0
M  V30 6649 C 659.94 3.1313 -3.32864 0
M  V30 6650 C 660.937 2.93497 -4.29134 0
M  V30 6651 C 658.622 3.3529 -3.74013 0
M  V30 6652 C 660.616 2.95953 -5.64527 0
M  V30 6653 C 658.303 3.37377 -5.09529 0
M  V30 6654 C 659.301 3.1773 -6.04596 0
M  V30 6655 O 658.989 3.196 -7.37639 0
M  V30 6656 H 658.721 0.532815 -0.416034 0
M  V30 6657 H 661.275 1.1374 -1.71033 0
M  V30 6658 H 659.505 3.65338 -1.26747 0
M  V30 6659 H 661.194 3.69297 -1.68447 0
M  V30 6660 H 661.96 2.76192 -3.98677 0
M  V30 6661 H 657.839 3.49623 -3.00474 0
M  V30 6662 H 661.383 2.80536 -6.38706 0
M  V30 6663 H 657.28 3.54213 -5.39633 0
M  V30 6664 H 658.048 3.35887 -7.46406 0
M  V30 6665 N 660.711 1.11618 1.11262 0
M  V30 6666 C 661.936 0.889013 1.8738 0
M  V30 6667 C 662.361 -0.555884 1.79698 0
M  V30 6668 O 661.719 -1.39272 1.16073 0
M  V30 6669 C 661.767 1.35759 3.34069 0
M  V30 6670 O 660.871 0.530499 4.08974 0
M  V30 6671 H 660.212 0.320082 0.581759 0
M  V30 6672 H 662.742 1.48611 1.40627 0
M  V30 6673 H 662.752 1.35291 3.84916 0
M  V30 6674 H 661.427 2.40973 3.38976 0
M  V30 6675 H 660.004 0.601439 3.68018 0
M  V30 6676 N 662.189 -1.289 0.906776 0
M  V30 6677 C 663.436 -1.95269 0.536326 0
M  V30 6678 C 663.764 -1.71435 -0.918711 0
M  V30 6679 O 663.019 -1.02431 -1.66752 0
M  V30 6680 C 663.318 -3.48704 0.783617 0
M  V30 6681 C 662.984 -3.92626 2.21711 0
M  V30 6682 C 661.646 -4.04329 2.60906 0
M  V30 6683 C 663.998 -4.15218 3.15029 0
M  V30 6684 C 661.326 -4.35998 3.92584 0
M  V30 6685 C 663.678 -4.48365 4.46264 0
M  V30 6686 C 662.342 -4.58278 4.85322 0
M  V30 6687 H 661.612 -0.714538 0.196256 0
M  V30 6688 H 664.259 -1.53366 1.14678 0
M  V30 6689 H 662.564 -3.91696 0.0903048 0
M  V30 6690 H 664.261 -3.98162 0.476267 0
M  V30 6691 H 660.851 -3.84038 1.90296 0
M  V30 6692 H 665.035 -4.05636 2.8596 0
M  V30 6693 H 660.291 -4.41878 4.22557 0
M  V30 6694 H 664.465 -4.64795 5.18593 0
M  V30 6695 H 662.092 -4.82573 5.87391 0
M  V30 6696 N 663.667 -0.670007 -1.42649 0
M  V30 6697 C 664.597 -0.00258501 -2.335 0
M  V30 6698 C 665.578 0.794364 -1.50412 0
M  V30 6699 O 666.763 0.75248 -1.79029 0
M  V30 6700 C 663.893 0.952748 -3.33976 0
M  V30 6701 C 662.847 0.264733 -4.2718 0
M  V30 6702 C 662.173 1.33267 -5.17826 0
M  V30 6703 C 663.473 -0.853289 -5.15283 0
M  V30 6704 H 665.167 -0.761326 -2.89559 0
M  V30 6705 H 662.713 -0.367561 -1.3923 0
M  V30 6706 H 664.666 1.4287 -3.96442 0
M  V30 6707 H 663.39 1.74285 -2.7621 0
M  V30 6708 H 662.049 -0.190938 -3.66102 0
M  V30 6709 H 661.697 2.11464 -4.5639 0
M  V30 6710 H 661.397 0.877476 -5.81011 0
M  V30 6711 H 662.921 1.80965 -5.83167 0
M  V30 6712 H 664.335 -0.458763 -5.71462 0
M  V30 6713 H 662.732 -1.23398 -5.87276 0
M  V30 6714 H 663.802 -1.70412 -4.53969 0
M  V30 6715 N 665.145 1.52092 -0.413018 0
M  V30 6716 C 666.37 2.06756 0.163338 0
M  V30 6717 C 666.795 1.28073 1.37764 0
M  V30 6718 O 666.153 0.312015 1.78595 0
M  V30 6719 C 666.201 3.57278 0.488322 0
M  V30 6720 O 665.305 3.80986 1.57871 0
M  V30 6721 H 664.646 0.663882 0.0125068 0
M  V30 6722 H 667.176 1.95988 -0.587339 0
M  V30 6723 H 667.186 4.01125 0.745836 0
M  V30 6724 H 665.861 4.13978 -0.399327 0
M  V30 6725 H 664.438 3.49017 1.31306 0
M  V30 6726 N 666.623 0.143563 1.56945 0
M  V30 6727 C 667.57 -0.797433 2.16586 0
M  V30 6728 C 668.54 -1.24654 1.09775 0
M  V30 6729 O 669.725 -1.31968 1.37801 0
M  V30 6730 C 666.865 -2.03253 2.78895 0
M  V30 6731 C 665.978 -1.62954 4.00087 0
M  V30 6732 C 665.113 -2.81617 4.50406 0
M  V30 6733 C 664.152 -2.37675 5.64072 0
M  V30 6734 N 663.289 -3.49335 6.09023 0
M  V30 6735 H 668.129 -0.282023 2.96662 0
M  V30 6736 H 665.666 -0.127494 1.46546 0
M  V30 6737 H 667.624 -2.75653 3.13163 0
M  V30 6738 H 666.254 -2.52211 2.01469 0
M  V30 6739 H 665.306 -0.803322 3.71821 0
M  V30 6740 H 666.618 -1.26679 4.82446 0
M  V30 6741 H 665.772 -3.62212 4.86711 0
M  V30 6742 H 664.511 -3.21134 3.67048 0
M  V30 6743 H 663.516 -1.55519 5.27346 0
M  V30 6744 H 664.741 -1.99247 6.49213 0
M  V30 6745 H 662.687 -3.8848 5.28601 0
M  V30 6746 H 662.604 -3.17064 6.86299 0
M  V30 6747 H 663.872 -4.30297 6.49973 0
M  V30 6748 N 668.101 -1.57061 -0.130224 0
M  V30 6749 C 669.033 -1.96147 -1.18571 0
M  V30 6750 C 670.046 -0.859347 -1.38272 0
M  V30 6751 O 671.235 -1.13769 -1.37545 0
M  V30 6752 C 668.335 -2.23484 -2.54771 0
M  V30 6753 C 667.508 -3.54786 -2.55824 0
M  V30 6754 C 666.567 -3.70467 -3.73686 0
M  V30 6755 O 665.593 -4.42693 -3.57787 0
M  V30 6756 N 666.795 -3.08389 -4.91809 0
M  V30 6757 H 669.56 -2.87295 -0.853333 0
M  V30 6758 H 667.121 -1.58714 -0.319621 0
M  V30 6759 H 669.113 -2.312 -3.32158 0
M  V30 6760 H 667.683 -1.38518 -2.80235 0
M  V30 6761 H 666.903 -3.5836 -1.64232 0
M  V30 6762 H 668.191 -4.4111 -2.53573 0
M  V30 6763 H 667.589 -2.49656 -5.0763 0
M  V30 6764 H 666.146 -3.21642 -5.66912 0
M  V30 6765 N 669.579 0.400081 -1.52437 0
M  V30 6766 C 670.509 1.4947 -1.7939 0
M  V30 6767 C 671.49 1.57383 -0.645329 0
M  V30 6768 O 672.675 1.72511 -0.891826 0
M  V30 6769 C 669.805 2.87201 -1.95276 0
M  V30 6770 C 668.759 2.94134 -3.10917 0
M  V30 6771 C 668.085 4.34207 -3.1204 0
M  V30 6772 C 669.385 2.64791 -4.50203 0
M  V30 6773 H 671.079 1.27165 -2.71052 0
M  V30 6774 H 668.625 0.610312 -1.30427 0
M  V30 6775 H 670.578 3.63772 -2.12715 0
M  V30 6776 H 669.302 3.10819 -1.00294 0
M  V30 6777 H 667.961 2.20009 -2.93243 0
M  V30 6778 H 667.609 4.54848 -2.14761 0
M  V30 6779 H 667.309 4.39768 -3.89715 0
M  V30 6780 H 668.833 5.127 -3.31619 0
M  V30 6781 H 670.247 3.31083 -4.68035 0
M  V30 6782 H 668.644 2.81717 -5.29864 0
M  V30 6783 H 669.714 1.60184 -4.57678 0
M  V30 6784 N 671.057 1.43213 0.657864 0
M  V30 6785 C 672.282 1.48227 1.45064 0
M  V30 6786 C 672.707 0.0999939 1.87834 0
M  V30 6787 O 672.065 -0.905269 1.57081 0
M  V30 6788 C 672.113 2.42931 2.6649 0
M  V30 6789 O 671.217 1.91237 3.6538 0
M  V30 6790 H 670.558 0.501551 0.435135 0
M  V30 6791 H 673.088 1.8808 0.805431 0
M  V30 6792 H 673.098 2.6008 3.1436 0
M  V30 6793 H 671.773 3.43348 2.34701 0
M  V30 6794 H 670.35 1.83726 3.24498 0
M  V30 6795 N 672.536 -0.895792 1.29666 0
M  V30 6796 C 673.784 -1.64339 1.17631 0
M  V30 6797 C 674.105 -1.93099 -0.271643 0
M  V30 6798 O 673.375 -1.55981 -1.18518 0
M  V30 6799 H 671.955 -0.609162 0.432354 0
M  V30 6800 H 674.617 -1.07389 1.62646 0
M  V30 6801 H 673.713 -2.59815 1.72924 0
M  V30 6802 N 674.014 -1.12206 -1.10668 0
M  V30 6803 C 674.944 -0.810086 -2.18997 0
M  V30 6804 C 675.925 0.225065 -1.68604 0
M  V30 6805 O 677.11 0.086783 -1.94006 0
M  V30 6806 C 674.24 -0.261262 -3.46316 0
M  V30 6807 C 673.194 -1.2292 -4.09969 0
M  V30 6808 C 672.52 -0.540713 -5.31959 0
M  V30 6809 C 673.82 -2.58295 -4.53962 0
M  V30 6810 H 675.514 -1.7159 -2.45352 0
M  V30 6811 H 673.06 -0.82646 -1.17922 0
M  V30 6812 H 675.013 -0.0307522 -4.21389 0
M  V30 6813 H 673.737 0.679879 -3.19445 0
M  V30 6814 H 672.396 -1.44548 -3.369 0
M  V30 6815 H 672.044 0.405492 -5.01363 0
M  V30 6816 H 671.744 -1.18637 -5.75499 0
M  V30 6817 H 673.268 -0.319184 -6.09765 0
M  V30 6818 H 674.682 -2.40709 -5.20319 0
M  V30 6819 H 673.079 -3.18916 -5.08343 0
M  V30 6820 H 674.149 -3.16918 -3.67002 0
M  V30 6821 N 675.492 1.28418 -0.913599 0
M  V30 6822 C 676.903 1.77024 -0.593237 0
M  V30 6823 C 677.254 1.74779 0.891441 0
M  V30 6824 O 676.379 1.34237 1.69733 0
M  V30 6825 C 676.974 3.21456 -1.07011 0
M  V30 6826 C 675.533 3.67786 -0.800664 0
M  V30 6827 C 674.68 2.48185 -1.23691 0
M  V30 6828 H 677.631 1.14883 -1.09487 0
M  V30 6829 H 677.652 3.78269 -0.411481 0
M  V30 6830 H 677.164 3.23058 -2.1507 0
M  V30 6831 H 675.265 3.71644 0.266725 0
M  V30 6832 H 675.378 4.57934 -1.4083 0
M  V30 6833 H 673.742 2.46116 -0.655655 0
M  V30 6834 H 674.525 2.52506 -2.32585 0
M  V30 6835 N 676.97 0.677563 1.42291 0
M  V30 6836 C 678.219 0.198173 2.00724 0
M  V30 6837 C 678.532 -1.20325 1.54211 0
M  V30 6838 O 679.738 -1.77916 2.05081 0
M  V30 6839 C 678.194 0.303432 3.58619 0
M  V30 6840 C 677.802 1.70909 4.14119 0
M  V30 6841 C 679.546 -0.117103 4.24338 0
M  V30 6842 C 677.453 1.76696 5.64387 0
M  V30 6843 H 676.383 0.070329 0.750713 0
M  V30 6844 H 679.034 0.843147 1.62982 0
M  V30 6845 H 677.416 -0.409482 3.93877 0
M  V30 6846 H 678.59 2.44931 3.90315 0
M  V30 6847 H 676.905 2.07771 3.6086 0
M  V30 6848 H 679.502 -0.0940471 5.34617 0
M  V30 6849 H 679.845 -1.15283 4.00019 0
M  V30 6850 H 680.378 0.5449 3.9405 0
M  V30 6851 H 677.117 2.7826 5.93508 0
M  V30 6852 H 676.637 1.07034 5.90173 0
M  V30 6853 H 678.316 1.52166 6.28852 0
M  V30 6854 N 678.448 -1.51871 0.421078 0
M  V30 6855 C 679.381 -2.23851 -0.443369 0
M  V30 6856 C 680.359 -1.25142 -1.03818 0
M  V30 6857 O 681.543 -1.5423 -1.08377 0
M  V30 6858 C 678.67 -2.97637 -1.61648 0
M  V30 6859 C 677.716 -4.10873 -1.14391 0
M  V30 6860 S 678.549 -5.35408 -0.0992403 0
M  V30 6861 C 679.705 -6.12726 -1.27739 0
M  V30 6862 H 679.938 -2.96826 0.167786 0
M  V30 6863 H 677.471 -1.53027 0.205461 0
M  V30 6864 H 679.429 -3.40751 -2.28909 0
M  V30 6865 H 678.09 -2.24282 -2.199 0
M  V30 6866 H 677.283 -4.61718 -2.02069 0
M  V30 6867 H 676.885 -3.69937 -0.549775 0
M  V30 6868 H 679.177 -6.40827 -2.19881 0
M  V30 6869 H 680.12 -7.03461 -0.809239 0
M  V30 6870 H 680.528 -5.43968 -1.5086 0
M  V30 6871 N 679.926 -0.151884 -1.56866 0
M  V30 6872 C 681.174 0.497021 -1.95893 0
M  V30 6873 C 681.495 1.65078 -1.03799 0
M  V30 6874 O 680.765 1.95642 -0.10049 0
M  V30 6875 H 679.345 0.186603 -0.723318 0
M  V30 6876 H 682.007 -0.228525 -1.93556 0
M  V30 6877 H 681.103 0.869933 -2.99731 0
M  V30 6878 N 681.404 1.57128 0.121893 0
M  V30 6879 C 682.632 1.88883 0.844451 0
M  V30 6880 C 683.047 0.742824 1.73573 0
M  V30 6881 O 682.404 -0.286475 1.80238 0
M  V30 6882 C 682.455 3.20076 1.68029 0
M  V30 6883 O 682.176 4.30264 0.824898 0
M  V30 6884 C 683.677 3.65515 2.50826 0
M  V30 6885 H 680.897 0.62549 0.242907 0
M  V30 6886 H 683.441 2.04219 0.107151 0
M  V30 6887 H 681.596 3.06418 2.37038 0
M  V30 6888 H 682.01 5.05439 1.40113 0
M  V30 6889 H 683.484 4.60081 3.05008 0
M  V30 6890 H 683.961 2.92029 3.28048 0
M  V30 6891 H 684.567 3.81952 1.87064 0
M  V30 6892 N 682.882 -0.391992 1.52647 0
M  V30 6893 C 684.129 -1.13732 1.67545 0
M  V30 6894 C 684.457 -1.90045 0.413881 0
M  V30 6895 O 683.712 -1.86157 -0.603646 0
M  V30 6896 C 684.011 -2.14401 2.85949 0
M  V30 6897 C 683.677 -1.54767 4.23507 0
M  V30 6898 C 682.339 -1.38229 4.60919 0
M  V30 6899 C 684.691 -1.11382 5.0916 0
M  V30 6900 C 682.019 -0.7685 5.81645 0
M  V30 6901 C 684.371 -0.514143 6.30507 0
M  V30 6902 C 683.035 -0.33604 6.66654 0
M  V30 6903 H 682.305 -0.416174 0.613091 0
M  V30 6904 H 684.952 -0.422327 1.86785 0
M  V30 6905 H 683.257 -2.92108 2.61114 0
M  V30 6906 H 684.954 -2.71974 2.94671 0
M  V30 6907 H 681.544 -1.68626 3.94035 0
M  V30 6908 H 685.728 -1.22962 4.80826 0
M  V30 6909 H 680.984 -0.618681 6.08262 0
M  V30 6910 H 685.158 -0.169657 6.96193 0
M  V30 6911 H 682.785 0.14166 7.60068 0
M  V30 6912 N 684.36 -1.4356 -0.65026 0
M  V30 6913 C 685.31 -1.45392 -1.75628 0
M  V30 6914 C 686.294 -0.322006 -1.57645 0
M  V30 6915 O 687.486 -0.565996 -1.67707 0
M  V30 6916 C 684.615 -1.38254 -3.1423 0
M  V30 6917 C 683.701 -2.56487 -3.3775 0
M  V30 6918 N 684.092 -3.81824 -3.31729 0
M  V30 6919 C 682.39 -2.51274 -3.6848 0
M  V30 6920 C 683.091 -4.60497 -3.55412 0
M  V30 6921 N 682.067 -3.91274 -3.77367 0
M  V30 6922 H 685.869 -2.40167 -1.69402 0
M  V30 6923 H 683.383 -1.38254 -0.852037 0
M  V30 6924 H 685.38 -1.3765 -3.9352 0
M  V30 6925 H 684.04 -0.445019 -3.21636 0
M  V30 6926 H 685.051 -4.14069 -3.11074 0
M  V30 6927 H 681.728 -1.66223 -3.82983 0
M  V30 6928 H 683.118 -5.69518 -3.5651 0
M  V30 6929 N 685.838 0.888903 -1.30139 0
M  V30 6930 C 686.801 1.97576 -1.16174 0
M  V30 6931 C 687.801 1.60525 -0.094086 0
M  V30 6932 O 688.991 1.70812 -0.341889 0
M  V30 6933 C 686.123 3.3188 -0.778983 0
M  V30 6934 H 687.316 2.11393 -2.12728 0
M  V30 6935 H 684.869 1.0748 -1.1348 0
M  V30 6936 H 685.604 3.23765 0.186225 0
M  V30 6937 H 685.389 3.60141 -1.55051 0
M  V30 6938 H 686.879 4.11612 -0.704631 0
M  V30 6939 N 687.317 1.12792 1.10072 0
M  V30 6940 C 688.265 0.794523 2.18609 0
M  V30 6941 C 689.259 -0.220271 1.67962 0
M  V30 6942 O 690.465 -0.0780938 1.79831 0
M  V30 6943 H 686.84 0.239123 0.712969 0
M  V30 6944 H 688.811 1.71823 2.43966 0
M  V30 6945 C 687.56 0.269548 3.46654 0
M  V30 6946 H 686.883 1.04171 3.8599 0
M  V30 6947 H 688.323 0.0746242 4.23934 0
M  V30 6948 C 686.782 -1.00333 3.21613 0
M  V30 6949 O 687.312 -2.08042 3.4363 0
M  V30 6950 N 685.518 -0.931763 2.75257 0
M  V30 6951 H 685.065 -0.0551197 2.57541 0
M  V30 6952 H 685.023 -1.78405 2.58881 0
M  V30 6953 N 688.795 -1.27931 0.920396 0
M  V30 6954 C 690.072 -1.89728 0.475687 0
M  V30 6955 C 690.452 -1.8337 -1.04588 0
M  V30 6956 O 689.8 -1.27404 -1.89685 0
M  V30 6957 C 690.01 -3.33959 1.01354 0
M  V30 6958 C 691.358 -4.10907 1.06963 0
M  V30 6959 O 692.382 -3.42945 0.962646 0
M  V30 6960 O 691.241 -5.32399 1.23343 0
M  V30 6961 H 688.335 -0.81294 0.151845 0
M  V30 6962 H 690.881 -1.36252 1.01161 0
M  V30 6963 H 689.653 -3.32843 2.05746 0
M  V30 6964 H 689.276 -3.94944 0.458829 0
M  V30 6965 N 690.273 -0.685099 -1.4193 0
M  V30 6966 C 691.522 -0.208816 -2.00616 0
M  V30 6967 C 691.835 1.19506 -1.54847 0
M  V30 6968 O 693.041 1.76826 -2.06021 0
M  V30 6969 C 691.497 -0.322446 -3.58453 0
M  V30 6970 C 691.105 -1.73102 -4.13206 0
M  V30 6971 C 692.849 0.0945979 -4.24395 0
M  V30 6972 C 690.756 -1.79687 -5.63442 0
M  V30 6973 H 689.686 -0.0743092 -0.750329 0
M  V30 6974 H 692.337 -0.851778 -1.62533 0
M  V30 6975 H 690.719 0.388588 -3.94089 0
M  V30 6976 H 691.893 -2.46997 -3.8901 0
M  V30 6977 H 690.208 -2.09682 -3.59753 0
M  V30 6978 H 692.805 0.0656937 -5.3466 0
M  V30 6979 H 693.148 1.1316 -4.00625 0
M  V30 6980 H 693.681 -0.56579 -3.93756 0
M  V30 6981 H 690.42 -2.81404 -5.92024 0
M  V30 6982 H 689.94 -1.10162 -5.89597 0
M  V30 6983 H 691.619 -1.55498 -6.28036 0
M  V30 6984 N 691.751 1.51645 -0.429126 0
M  V30 6985 C 692.997 2.02314 0.140286 0
M  V30 6986 C 693.33 1.31314 1.43074 0
M  V30 6987 O 692.605 0.425531 1.89788 0
M  V30 6988 C 692.888 3.5822 0.36749 0
M  V30 6989 C 692.741 4.39846 -0.941039 0
M  V30 6990 C 694.06 4.25055 1.14089 0
M  V30 6991 H 691.179 0.735335 0.0495112 0
M  V30 6992 H 693.821 1.81358 -0.566514 0
M  V30 6993 H 691.971 3.76207 0.969556 0
M  V30 6994 H 693.643 4.33527 -1.57646 0
M  V30 6995 H 691.886 4.05259 -1.54751 0
M  V30 6996 H 692.557 5.47069 -0.73621 0
M  V30 6997 H 695.033 4.11288 0.630986 0
M  V30 6998 H 693.909 5.34038 1.26863 0
M  V30 6999 H 694.17 3.85358 2.16683 0
M  V30 7000 N 693.229 0.160201 1.56784 0
M  V30 7001 C 694.475 -0.481855 1.9761 0
M  V30 7002 C 694.83 -1.61605 1.04411 0
M  V30 7003 O 694.123 -1.91426 0.0816402 0
M  V30 7004 C 694.317 -1.02259 3.42459 0
M  V30 7005 C 694.146 0.0576781 4.49663 0
M  V30 7006 C 692.916 0.503585 5.02784 0
M  V30 7007 C 695.114 0.854013 5.0716 0
M  V30 7008 N 693.096 1.56532 5.93608 0
M  V30 7009 C 694.467 1.76593 5.94319 0
M  V30 7010 C 696.522 0.900333 4.89692 0
M  V30 7011 C 695.225 2.72023 6.6588 0
M  V30 7012 C 697.251 1.84252 5.61965 0
M  V30 7013 C 696.613 2.74194 6.48843 0
M  V30 7014 H 692.712 -0.144748 0.768487 0
M  V30 7015 H 695.296 0.257853 1.92985 0
M  V30 7016 H 693.467 -1.73186 3.47651 0
M  V30 7017 H 695.199 -1.63235 3.70319 0
M  V30 7018 H 691.954 0.103361 4.73487 0
M  V30 7019 H 692.378 2.09634 6.43726 0
M  V30 7020 H 697.02 0.219023 4.22232 0
M  V30 7021 H 694.738 3.41147 7.3256 0
M  V30 7022 H 698.324 1.88433 5.5044 0
M  V30 7023 H 697.204 3.45912 7.03786 0
M  V30 7024 N 694.707 -1.5719 -0.113559 0
M  V30 7025 C 695.639 -1.97393 -1.16484 0
M  V30 7026 C 696.652 -0.873964 -1.37352 0
M  V30 7027 O 697.841 -1.15222 -1.36331 0
M  V30 7028 C 694.941 -2.26174 -2.52386 0
M  V30 7029 C 694.114 -3.57479 -2.52046 0
M  V30 7030 C 693.173 -3.74409 -3.69735 0
M  V30 7031 O 692.199 -4.46463 -3.53071 0
M  V30 7032 N 693.401 -3.13588 -4.88511 0
M  V30 7033 H 696.166 -2.88184 -0.822814 0
M  V30 7034 H 693.727 -1.59044 -0.302769 0
M  V30 7035 H 695.719 -2.3471 -3.29687 0
M  V30 7036 H 694.289 -1.41483 -2.7875 0
M  V30 7037 H 693.509 -3.60081 -1.60421 0
M  V30 7038 H 694.797 -4.43775 -2.48881 0
M  V30 7039 H 694.195 -2.55026 -5.04953 0
M  V30 7040 H 692.752 -3.27637 -5.63469 0
M  V30 7041 N 696.185 0.383891 -1.52853 0
M  V30 7042 C 697.462 1.14296 -1.58732 0
M  V30 7043 C 697.842 2.07585 -0.383611 0
M  V30 7044 O 697.19 2.1971 0.627661 0
M  V30 7045 C 697.4 1.89816 -2.92867 0
M  V30 7046 C 698.748 2.44998 -3.46787 0
M  V30 7047 O 699.772 1.99966 -2.94774 0
M  V30 7048 O 698.631 3.2727 -4.37672 0
M  V30 7049 H 695.725 0.52326 -0.640413 0
M  V30 7050 H 698.271 0.388631 -1.6519 0
M  V30 7051 H 697.043 1.21626 -3.71918 0
M  V30 7052 H 696.666 2.72199 -2.89816 0
M  V30 7053 N 697.663 1.43903 0.642637 0
M  V30 7054 C 698.893 1.49323 1.4278 0
M  V30 7055 C 699.301 0.113058 1.88862 0
M  V30 7056 O 698.644 -0.889089 1.60751 0
M  V30 7057 C 698.706 2.3861 2.68897 0
M  V30 7058 C 698.37 3.85976 2.44687 0
M  V30 7059 C 699.367 4.7681 2.07239 0
M  V30 7060 C 697.052 4.30567 2.58683 0
M  V30 7061 C 699.046 6.10234 1.841 0
M  V30 7062 C 696.733 5.64042 2.35159 0
M  V30 7063 C 697.731 6.53693 1.97925 0
M  V30 7064 O 697.419 7.84698 1.74654 0
M  V30 7065 H 697.151 0.509109 0.444729 0
M  V30 7066 H 699.705 1.89425 0.794195 0
M  V30 7067 H 697.935 1.93415 3.34855 0
M  V30 7068 H 699.624 2.35112 3.30873 0
M  V30 7069 H 700.39 4.43635 1.95993 0
M  V30 7070 H 696.269 3.61054 2.86637 0
M  V30 7071 H 699.813 6.80171 1.54962 0
M  V30 7072 H 695.71 5.96782 2.46011 0
M  V30 7073 H 696.478 7.96382 1.88993 0
M  V30 7074 N 699.141 -0.881989 1.30609 0
M  V30 7075 C 700.071 -2.00413 1.1982 0
M  V30 7076 C 701.052 -1.69871 0.0881538 0
M  V30 7077 O 702.237 -1.92304 0.2707 0
M  V30 7078 C 699.367 -3.35641 0.89233 0
M  V30 7079 C 698.321 -3.80451 1.96064 0
M  V30 7080 C 697.647 -5.13003 1.5077 0
M  V30 7081 C 698.947 -3.98855 3.37213 0
M  V30 7082 H 700.641 -2.09698 2.13699 0
M  V30 7083 H 698.187 -1.00754 1.02882 0
M  V30 7084 H 700.14 -4.13669 0.803497 0
M  V30 7085 H 698.864 -3.26497 -0.0821381 0
M  V30 7086 H 697.523 -3.04654 2.03916 0
M  V30 7087 H 697.171 -5.0029 0.521417 0
M  V30 7088 H 696.871 -5.43956 2.22229 0
M  V30 7089 H 698.395 -5.93554 1.43271 0
M  V30 7090 H 699.809 -4.67312 3.32103 0
M  V30 7091 H 698.206 -4.41188 4.06784 0
M  V30 7092 H 699.276 -3.02614 3.78883 0
M  V30 7093 N 700.619 -1.13374 -1.09472 0
M  V30 7094 C 701.549 -0.833268 -2.18126 0
M  V30 7095 C 702.53 0.207169 -1.68834 0
M  V30 7096 O 703.715 0.0662012 -1.94087 0
M  V30 7097 C 700.845 -0.297979 -3.46019 0
M  V30 7098 C 699.799 -1.27261 -4.08642 0
M  V30 7099 C 699.125 -0.597104 -5.31356 0
M  V30 7100 C 700.425 -2.63095 -4.51197 0
M  V30 7101 H 702.119 -1.74182 -2.43518 0
M  V30 7102 H 699.665 -0.838921 -1.17039 0
M  V30 7103 H 701.618 -0.0754444 -4.21332 0
M  V30 7104 H 700.342 0.645959 -3.20148 0
M  V30 7105 H 699.001 -1.48113 -3.35348 0
M  V30 7106 H 698.649 0.352293 -5.01765 0
M  V30 7107 H 698.349 -1.24734 -5.74208 0
M  V30 7108 H 699.873 -0.38384 -6.09392 0
M  V30 7109 H 701.287 -2.46214 -5.17737 0
M  V30 7110 H 699.684 -3.2429 -5.04932 0
M  V30 7111 H 700.754 -3.20793 -3.6362 0
M  V30 7112 N 702.098 1.27442 -0.927168 0
M  V30 7113 C 703.346 1.94007 -0.566203 0
M  V30 7114 C 703.667 1.7323 0.895345 0
M  V30 7115 O 702.937 1.07973 1.63459 0
M  V30 7116 H 701.517 0.717917 -0.206409 0
M  V30 7117 H 704.179 1.55161 -1.17945 0
M  V30 7118 H 703.275 3.02401 -0.772028 0
M  V30 7119 N 703.576 0.692616 1.41565 0
M  V30 7120 C 704.801 0.229776 2.06123 0
M  V30 7121 C 705.226 -1.11119 1.5177 0
M  V30 7122 O 704.584 -1.69498 0.643444 0
M  V30 7123 C 704.632 0.19469 3.60074 0
M  V30 7124 O 703.736 -0.831366 4.03933 0
M  V30 7125 H 703.077 0.113002 0.654314 0
M  V30 7126 H 705.607 0.946645 1.81383 0
M  V30 7127 H 705.617 0.0245487 4.07993 0
M  V30 7128 H 704.292 1.17339 3.99004 0
M  V30 7129 H 702.869 -0.630819 3.67526 0
M  V30 7130 N 705.054 -1.51416 0.437162 0
M  V30 7131 C 706.302 -2.01687 -0.129108 0
M  V30 7132 C 706.623 -1.32329 -1.43227 0
M  V30 7133 O 705.893 -0.457796 -1.90476 0
M  V30 7134 H 704.473 -0.745277 -0.0507023 0
M  V30 7135 H 707.135 -1.86075 0.579828 0
M  V30 7136 H 706.231 -3.10605 -0.305141 0
M  V30 7137 N 706.532 -0.168513 -1.56696 0
M  V30 7138 C 707.757 0.486688 -2.01609 0
M  V30 7139 C 708.182 1.56203 -1.04796 0
M  V30 7140 O 707.54 1.8128 -0.0270596 0
M  V30 7141 C 707.588 1.04451 -3.45141 0
M  V30 7142 O 706.692 2.15862 -3.51393 0
M  V30 7143 H 706.033 0.116831 -0.653641 0
M  V30 7144 H 708.563 -0.271579 -2.0279 0
M  V30 7145 H 708.573 1.36782 -3.84389 0
M  V30 7146 H 707.248 0.257155 -4.15104 0
M  V30 7147 H 705.825 1.84597 -3.24004 0
M  V30 7148 N 708.01 1.57248 0.105221 0
M  V30 7149 C 709.256 1.85845 0.811753 0
M  V30 7150 C 709.589 0.756219 1.78871 0
M  V30 7151 O 708.864 -0.236736 1.93054 0
M  V30 7152 C 709.147 3.25059 1.54947 0
M  V30 7153 C 709 4.45898 0.591185 0
M  V30 7154 C 710.319 3.6203 2.50245 0
M  V30 7155 H 707.438 0.675973 0.293649 0
M  V30 7156 H 710.08 1.89849 0.0756269 0
M  V30 7157 H 708.23 3.21776 2.17698 0
M  V30 7158 H 709.902 4.61291 -0.0285352 0
M  V30 7159 H 708.145 4.33693 -0.0962343 0
M  V30 7160 H 708.816 5.40009 1.1443 0
M  V30 7161 H 711.292 3.66192 1.97593 0
M  V30 7162 H 710.168 4.60389 2.98886 0
M  V30 7163 H 710.429 2.90176 3.33542 0
M  V30 7164 N 709.488 -0.375779 1.53054 0
M  V30 7165 C 710.737 -1.11674 1.67964 0
M  V30 7166 C 711.05 -1.90755 0.432655 0
M  V30 7167 O 712.256 -2.67538 0.462109 0
M  V30 7168 C 710.712 -2.0344 2.96884 0
M  V30 7169 C 710.32 -1.29719 4.28809 0
M  V30 7170 C 712.064 -2.7759 3.2116 0
M  V30 7171 C 709.971 -2.20327 5.48826 0
M  V30 7172 H 708.901 -0.420597 0.625791 0
M  V30 7173 H 711.552 -0.378499 1.79554 0
M  V30 7174 H 709.934 -2.80953 2.79072 0
M  V30 7175 H 711.108 -0.573394 4.57219 0
M  V30 7176 H 709.423 -0.674735 4.10897 0
M  V30 7177 H 712.02 -3.4559 4.0801 0
M  V30 7178 H 712.363 -3.42399 2.36789 0
M  V30 7179 H 712.896 -2.07164 3.396 0
M  V30 7180 H 709.635 -1.60113 6.35645 0
M  V30 7181 H 709.155 -2.90585 5.2471 0
M  V30 7182 H 710.834 -2.80116 5.83219 0
M  V30 7183 N 710.966 -1.44241 -0.634997 0
M  V30 7184 C 712.196 -1.50078 -1.41987 0
M  V30 7185 C 712.604 -0.123072 -1.88799 0
M  V30 7186 O 711.947 0.880552 -1.6122 0
M  V30 7187 C 712.009 -2.40033 -2.67628 0
M  V30 7188 C 711.673 -3.87268 -2.42637 0
M  V30 7189 C 712.67 -4.77902 -2.04708 0
M  V30 7190 C 710.355 -4.31933 -2.56396 0
M  V30 7191 C 712.349 -6.11202 -1.80862 0
M  V30 7192 C 710.036 -5.65281 -2.32164 0
M  V30 7193 C 711.034 -6.54734 -1.94455 0
M  V30 7194 O 710.722 -7.85613 -1.7049 0
M  V30 7195 H 710.454 -0.51146 -0.442023 0
M  V30 7196 H 713.008 -1.89843 -0.784138 0
M  V30 7197 H 711.238 -1.95188 -3.33824 0
M  V30 7198 H 712.927 -2.36863 -3.29622 0
M  V30 7199 H 713.693 -4.44668 -1.93638 0
M  V30 7200 H 709.572 -3.62569 -2.84719 0
M  V30 7201 H 713.116 -6.80983 -1.51353 0
M  V30 7202 H 709.013 -5.98078 -2.42843 0
M  V30 7203 H 709.781 -7.97373 -1.84767 0
M  V30 7204 N 712.444 0.87505 -1.31075 0
M  V30 7205 C 713.392 2.00317 -1.18219 0
M  V30 7206 C 714.386 1.69152 -0.0916872 0
M  V30 7207 O 715.592 1.7821 -0.253229 0
M  V30 7208 H 711.967 0.656981 -0.365895 0
M  V30 7209 H 713.938 2.08293 -2.13674 0
M  V30 7210 C 712.687 3.35821 -0.901095 0
M  V30 7211 H 712.01 3.6032 -1.73233 0
M  V30 7212 H 713.45 4.15366 -0.851295 0
M  V30 7213 C 711.909 3.34563 0.396114 0
M  V30 7214 O 712.439 3.75971 1.41452 0
M  V30 7215 N 710.645 2.87681 0.410832 0
M  V30 7216 H 710.192 2.54179 -0.418415 0
M  V30 7217 H 710.15 2.87223 1.27869 0
M  V30 7218 N 713.922 1.13953 1.08869 0
M  V30 7219 C 714.87 0.817664 2.17754 0
M  V30 7220 C 715.864 -0.202444 1.68186 0
M  V30 7221 O 717.07 -0.0590159 1.79903 0
M  V30 7222 H 713.445 0.246671 0.710392 0
M  V30 7223 H 715.416 1.74401 2.4213 0
M  V30 7224 C 714.165 0.3063 3.46348 0
M  V30 7225 H 713.488 1.08259 3.84864 0
M  V30 7226 H 714.928 0.119584 4.23831 0
M  V30 7227 C 713.387 -0.969158 3.22659 0
M  V30 7228 O 713.917 -2.04386 3.45817 0
M  V30 7229 N 712.123 -0.902516 2.7623 0
M  V30 7230 H 711.67 -0.027801 2.57585 0
M  V30 7231 H 711.628 -1.75649 2.60758 0
M  V30 7232 N 715.4 -1.26948 0.933913 0
M  V30 7233 C 716.363 -2.24889 0.442457 0
M  V30 7234 C 717.363 -1.54594 -0.442426 0
M  V30 7235 O 718.553 -1.72502 -0.242629 0
M  V30 7236 C 715.685 -3.3896 -0.363173 0
M  V30 7237 H 716.878 -2.69879 1.30787 0
M  V30 7238 H 714.431 -1.38978 0.715187 0
M  V30 7239 H 715.166 -2.99361 -1.24714 0
M  V30 7240 H 714.951 -3.9116 0.271366 0
M  V30 7241 H 716.441 -4.11739 -0.697186 0
M  V30 7242 N 716.879 -0.700114 -1.41195 0
M  V30 7243 C 718.126 -0.233006 -2.01155 0
M  V30 7244 C 718.454 1.16883 -1.55462 0
M  V30 7245 O 717.709 1.80395 -0.758695 0
M  V30 7246 C 718.008 -0.243986 -3.56566 0
M  V30 7247 C 717.674 -1.59397 -4.21786 0
M  V30 7248 C 716.336 -1.96355 -4.39316 0
M  V30 7249 C 718.688 -2.48192 -4.58312 0
M  V30 7250 C 716.016 -3.21683 -4.9065 0
M  V30 7251 C 718.368 -3.72857 -5.11039 0
M  V30 7252 C 717.032 -4.09951 -5.26779 0
M  V30 7253 H 716.302 -0.085263 -0.736078 0
M  V30 7254 H 718.949 -0.9001 -1.69028 0
M  V30 7255 H 717.254 0.506663 -3.8851 0
M  V30 7256 H 718.951 0.135031 -4.00773 0
M  V30 7257 H 715.541 -1.29654 -4.08519 0
M  V30 7258 H 719.725 -2.20918 -4.4442 0
M  V30 7259 H 714.981 -3.50412 -5.01021 0
M  V30 7260 H 719.155 -4.41844 -5.38282 0
M  V30 7261 H 716.782 -5.07136 -5.66319 0
M  V30 7262 N 718.357 1.51182 -0.445186 0
M  V30 7263 C 719.606 2.01342 0.120189 0
M  V30 7264 C 719.919 1.33353 1.43095 0
M  V30 7265 O 721.125 1.74525 2.07974 0
M  V30 7266 C 719.581 3.58925 0.264732 0
M  V30 7267 C 719.189 4.35855 -1.03606 0
M  V30 7268 C 720.933 4.17208 0.783455 0
M  V30 7269 C 718.84 5.85162 -0.856731 0
M  V30 7270 H 717.77 0.752426 0.0486922 0
M  V30 7271 H 720.421 1.74221 -0.576143 0
M  V30 7272 H 718.803 3.82525 1.02425 0
M  V30 7273 H 719.977 4.23997 -1.80452 0
M  V30 7274 H 718.292 3.89062 -1.48391 0
M  V30 7275 H 720.889 5.26475 0.934239 0
M  V30 7276 H 721.232 3.76892 1.768 0
M  V30 7277 H 721.765 3.97715 0.0820346 0
M  V30 7278 H 718.504 6.29904 -1.81388 0
M  V30 7279 H 718.024 5.99663 -0.128206 0
M  V30 7280 H 719.703 6.44963 -0.513027 0
M  V30 7281 N 719.835 0.176821 1.56605 0
M  V30 7282 C 720.798 -0.737429 2.17013 0
M  V30 7283 C 721.798 -1.15414 1.11965 0
M  V30 7284 O 722.988 -1.0702 1.37449 0
M  V30 7285 C 720.12 -2.00445 2.75744 0
M  V30 7286 H 721.313 -0.211455 2.99154 0
M  V30 7287 H 718.866 -0.0727582 1.56131 0
M  V30 7288 H 719.601 -2.57338 1.97352 0
M  V30 7289 H 719.386 -1.71456 3.52626 0
M  V30 7290 H 720.876 -2.65679 3.22187 0
M  V30 7291 N 721.313 -1.57302 -0.09688 0
M  V30 7292 C 722.56 -1.85997 -0.800699 0
M  V30 7293 C 722.888 -0.765089 -1.7882 0
M  V30 7294 O 722.143 0.241492 -1.94204 0
M  V30 7295 C 722.442 -3.21272 -1.56586 0
M  V30 7296 C 722.108 -4.45104 -0.72064 0
M  V30 7297 C 720.77 -4.78723 -0.487632 0
M  V30 7298 C 723.122 -5.2103 -0.132948 0
M  V30 7299 C 720.45 -5.85697 0.34296 0
M  V30 7300 C 722.802 -6.28881 0.684957 0
M  V30 7301 C 721.466 -6.61017 0.928073 0
M  V30 7302 H 720.736 -0.680613 -0.292997 0
M  V30 7303 H 723.383 -1.91399 -0.0622474 0
M  V30 7304 H 721.688 -3.11547 -2.37583 0
M  V30 7305 H 723.385 -3.40702 -2.11478 0
M  V30 7306 H 719.975 -4.18777 -0.912359 0
M  V30 7307 H 724.159 -4.95392 -0.300132 0
M  V30 7308 H 719.415 -6.09008 0.540317 0
M  V30 7309 H 723.589 -6.86886 1.14721 0
M  V30 7310 H 721.216 -7.43738 1.57348 0
M  V30 7311 N 722.791 0.367657 -1.53252 0
M  V30 7312 C 723.754 1.43308 -1.78873 0
M  V30 7313 C 724.754 1.46671 -0.659115 0
M  V30 7314 O 725.944 1.47468 -0.927306 0
M  V30 7315 C 723.076 2.82442 -1.90892 0
M  V30 7316 H 724.269 1.21864 -2.74024 0
M  V30 7317 H 721.822 0.600668 -1.44297 0
M  V30 7318 H 722.557 3.09202 -0.978 0
M  V30 7319 H 722.342 2.81399 -2.73051 0
M  V30 7320 H 723.832 3.59601 -2.12314 0
M  V30 7321 N 724.269 1.44576 0.627338 0
M  V30 7322 C 725.497 1.51048 1.41394 0
M  V30 7323 C 725.912 0.136568 1.88305 0
M  V30 7324 O 725.269 -0.858251 1.6106 0
M  V30 7325 C 725.32 2.47837 2.63172 0
M  V30 7326 O 725.041 3.79887 2.18215 0
M  V30 7327 C 726.542 2.63811 3.56257 0
M  V30 7328 H 723.762 0.512171 0.4335 0
M  V30 7329 H 726.306 1.89576 0.766878 0
M  V30 7330 H 724.461 2.12433 3.23961 0
M  V30 7331 H 724.875 4.32177 2.97192 0
M  V30 7332 H 726.349 3.35554 4.38301 0
M  V30 7333 H 726.826 1.69169 4.05313 0
M  V30 7334 H 727.432 3.0013 3.01333 0
M  V30 7335 N 725.747 -0.868086 1.31537 0
M  V30 7336 C 727.024 -1.60384 1.11965 0
M  V30 7337 C 727.404 -2.08584 -0.324949 0
M  V30 7338 O 726.752 -1.86561 -1.31937 0
M  V30 7339 C 726.962 -2.76038 2.13551 0
M  V30 7340 C 728.31 -3.45954 2.46173 0
M  V30 7341 O 729.334 -2.86247 2.11993 0
M  V30 7342 O 728.193 -4.53666 3.04711 0
M  V30 7343 H 725.287 -0.705705 0.431172 0
M  V30 7344 H 727.833 -0.913385 1.43022 0
M  V30 7345 H 726.605 -2.37849 3.10714 0
M  V30 7346 H 726.228 -3.52769 1.83411 0
M  V30 7347 N 727.225 -1.14528 -1.08264 0
M  V30 7348 C 728.155 -0.856356 -2.1723 0
M  V30 7349 C 729.136 0.189251 -1.69044 0
M  V30 7350 O 730.321 0.0456119 -1.94146 0
M  V30 7351 C 727.451 -0.334662 -3.45684 0
M  V30 7352 C 726.405 -1.31588 -4.0727 0
M  V30 7353 C 725.731 -0.653428 -5.30692 0
M  V30 7354 C 727.031 -2.67866 -4.48381 0
M  V30 7355 H 728.725 -1.76755 -2.41657 0
M  V30 7356 H 726.271 -0.851287 -1.16143 0
M  V30 7357 H 728.224 -0.120128 -4.21229 0
M  V30 7358 H 726.948 0.611967 -3.20815 0
M  V30 7359 H 725.607 -1.51661 -3.33758 0
M  V30 7360 H 725.255 0.299054 -5.0211 0
M  V30 7361 H 724.955 -1.30817 -5.72853 0
M  V30 7362 H 726.479 -0.448453 -6.08951 0
M  V30 7363 H 727.893 -2.51692 -5.15096 0
M  V30 7364 H 726.29 -3.29627 -5.01464 0
M  V30 7365 H 727.36 -3.24632 -3.60198 0
M  V30 7366 N 728.703 1.26451 -0.940633 0
M  V30 7367 C 729.98 1.88947 -0.505811 0
M  V30 7368 C 730.36 1.85011 1.01657 0
M  V30 7369 O 729.708 1.30406 1.87634 0
M  V30 7370 C 729.918 3.32304 -1.06654 0
M  V30 7371 C 731.266 4.09153 -1.13486 0
M  V30 7372 O 732.29 3.41371 -1.01708 0
M  V30 7373 O 731.149 5.30369 -1.31797 0
M  V30 7374 H 728.243 0.810422 -0.164759 0
M  V30 7375 H 730.789 1.34625 -1.03316 0
M  V30 7376 H 729.561 3.29527 -2.11015 0
M  V30 7377 H 729.184 3.94164 -0.521603 0
M  V30 7378 N 730.181 0.707592 1.40822 0
M  V30 7379 C 731.592 0.317011 1.83989 0
M  V30 7380 C 731.943 -1.14697 1.59182 0
M  V30 7381 O 731.068 -1.8818 1.06852 0
M  V30 7382 C 731.663 0.568593 3.33995 0
M  V30 7383 C 730.222 0.231804 3.75686 0
M  V30 7384 C 729.369 0.844933 2.64114 0
M  V30 7385 H 732.32 0.907349 1.30203 0
M  V30 7386 H 732.341 -0.168798 3.80125 0
M  V30 7387 H 731.853 1.63417 3.52018 0
M  V30 7388 H 729.954 -0.82903 3.6326 0
M  V30 7389 H 730.067 0.695219 4.74029 0
M  V30 7390 H 728.431 0.273588 2.53226 0
M  V30 7391 H 729.214 1.91462 2.84951 0
M  V30 7392 N 731.66 -1.50943 0.453197 0
M  V30 7393 C 732.608 -2.29728 -0.364419 0
M  V30 7394 C 733.602 -1.36246 -1.00664 0
M  V30 7395 O 734.808 -1.53518 -0.939794 0
M  V30 7396 H 731.183 -0.739536 -0.136347 0
M  V30 7397 H 733.154 -2.96672 0.320696 0
M  V30 7398 C 731.903 -3.1629 -1.44415 0
M  V30 7399 H 731.226 -3.88119 -0.959343 0
M  V30 7400 H 732.666 -3.74444 -1.98917 0
M  V30 7401 C 731.125 -2.32702 -2.43622 0
M  V30 7402 O 731.655 -1.99763 -3.48508 0
M  V30 7403 N 729.861 -1.95621 -2.14897 0
M  V30 7404 H 729.408 -2.22607 -1.29629 0
M  V30 7405 H 729.366 -1.39993 -2.81513 0
M  V30 7406 N 733.138 -0.185124 -1.56509 0
M  V30 7407 C 734.366 0.462139 -2.01673 0
M  V30 7408 C 734.781 1.55873 -1.06532 0
M  V30 7409 O 734.138 1.82371 -0.0684805 0
M  V30 7410 C 734.189 1.0277 -3.46584 0
M  V30 7411 O 733.91 -0.0251296 -4.38093 0
M  V30 7412 C 735.411 1.75183 -4.07217 0
M  V30 7413 H 732.631 0.117001 -0.660721 0
M  V30 7414 H 735.175 -0.290905 -2.0242 0
M  V30 7415 H 733.33 1.73118 -3.46568 0
M  V30 7416 H 733.744 0.394387 -5.23015 0
M  V30 7417 H 735.218 2.09999 -5.10494 0
M  V30 7418 H 735.695 2.6519 -3.50101 0
M  V30 7419 H 736.301 1.09445 -4.10977 0
M  V30 7420 N 734.616 1.57351 0.0885366 0
M  V30 7421 C 735.579 2.01557 1.09121 0
M  V30 7422 C 736.579 0.910052 1.3257 0
M  V30 7423 O 737.769 1.17537 1.28572 0
M  V30 7424 C 734.901 2.38189 2.43883 0
M  V30 7425 H 736.094 2.91361 0.710562 0
M  V30 7426 H 733.647 1.52694 0.333779 0
M  V30 7427 H 734.382 1.5136 2.86811 0
M  V30 7428 H 734.167 3.18846 2.28209 0
M  V30 7429 H 735.657 2.73025 3.15986 0
M  V30 7430 N 736.094 -0.359525 1.53444 0
M  V30 7431 C 737.342 -1.09935 1.69584 0
M  V30 7432 C 737.663 -1.89656 0.453371 0
M  V30 7433 O 736.933 -1.8852 -0.53263 0
M  V30 7434 H 735.513 -0.408843 0.625185 0
M  V30 7435 H 738.175 -0.40467 1.90653 0
M  V30 7436 H 737.271 -1.78575 2.55964 0
M  V30 7437 N 737.572 -1.44907 -0.619662 0
M  V30 7438 C 738.502 -1.55488 -1.742 0
M  V30 7439 C 739.483 -0.407143 -1.65156 0
M  V30 7440 O 740.668 -0.628743 -1.8374 0
M  V30 7441 C 737.798 -1.5097 -3.1277 0
M  V30 7442 C 736.752 -2.64337 -3.36615 0
M  V30 7443 C 736.078 -2.44872 -4.75333 0
M  V30 7444 C 737.378 -4.06423 -3.28051 0
M  V30 7445 H 739.072 -2.49432 -1.65602 0
M  V30 7446 H 736.618 -1.20047 -0.795281 0
M  V30 7447 H 738.571 -1.56971 -3.91073 0
M  V30 7448 H 737.295 -0.535486 -3.2218 0
M  V30 7449 H 735.954 -2.57744 -2.60698 0
M  V30 7450 H 735.602 -1.45617 -4.81461 0
M  V30 7451 H 735.302 -3.20888 -4.92244 0
M  V30 7452 H 736.826 -2.52709 -5.55851 0
M  V30 7453 H 738.24 -4.14324 -3.96243 0
M  V30 7454 H 736.637 -4.82733 -3.56495 0
M  V30 7455 H 737.707 -4.29183 -2.25676 0
M  V30 7456 N 739.05 0.861098 -1.31996 0
M  V30 7457 C 739.98 1.98482 -1.22993 0
M  V30 7458 C 740.961 1.6971 -0.115168 0
M  V30 7459 O 742.146 1.91849 -0.30126 0
M  V30 7460 C 739.276 3.34179 -0.945615 0
M  V30 7461 C 738.23 3.77284 -2.02091 0
M  V30 7462 C 737.556 5.1054 -1.58912 0
M  V30 7463 C 738.856 3.93439 -3.43515 0
M  V30 7464 H 740.55 2.06271 -2.17008 0
M  V30 7465 H 738.096 0.991043 -1.04472 0
M  V30 7466 H 740.049 4.12338 -0.869206 0
M  V30 7467 H 738.773 3.26586 0.0301849 0
M  V30 7468 H 737.432 3.01371 -2.08737 0
M  V30 7469 H 737.08 4.99397 -0.600942 0
M  V30 7470 H 736.78 5.40352 -2.30854 0
M  V30 7471 H 738.304 5.91199 -1.52696 0
M  V30 7472 H 739.718 4.6197 -3.39495 0
M  V30 7473 H 738.115 4.34661 -4.13751 0
M  V30 7474 H 739.185 2.96548 -3.8365 0
M  V30 7475 N 740.528 1.15101 1.07655 0
M  V30 7476 C 741.774 0.925343 1.80458 0
M  V30 7477 C 742.107 -0.546354 1.86356 0
M  V30 7478 O 741.382 -1.40496 1.34503 0
M  V30 7479 C 741.665 1.53646 3.25676 0
M  V30 7480 C 741.518 3.07854 3.27942 0
M  V30 7481 C 742.837 1.21968 4.22861 0
M  V30 7482 H 739.956 0.337592 0.655134 0
M  V30 7483 H 742.598 1.42217 1.25993 0
M  V30 7484 H 740.748 1.11395 3.72187 0
M  V30 7485 H 742.42 3.58989 2.89697 0
M  V30 7486 H 740.663 3.41904 2.66991 0
M  V30 7487 H 741.334 3.45725 4.30324 0
M  V30 7488 H 743.81 1.5851 3.84726 0
M  V30 7489 H 742.686 1.67349 5.22767 0
M  V30 7490 H 742.947 0.136207 4.4189 0
M  V30 7491 N 742.006 -1.2595 0.947325 0
M  V30 7492 C 742.954 -2.28152 0.452687 0
M  V30 7493 C 743.948 -1.62655 -0.473239 0
M  V30 7494 O 745.154 -1.76549 -0.350774 0
M  V30 7495 H 741.529 -0.741049 0.12787 0
M  V30 7496 H 743.5 -2.67267 1.32707 0
M  V30 7497 C 742.249 -3.46719 -0.26098 0
M  V30 7498 H 741.572 -3.97345 0.442352 0
M  V30 7499 H 743.012 -4.20135 -0.571208 0
M  V30 7500 C 741.471 -3.02605 -1.48094 0
M  V30 7501 O 742.001 -3.07979 -2.57899 0
M  V30 7502 N 740.207 -2.57877 -1.33969 0
M  V30 7503 H 739.754 -2.53704 -0.446295 0
M  V30 7504 H 739.712 -2.28725 -2.15713 0
M  V30 7505 N 743.484 -0.715051 -1.40445 0
M  V30 7506 C 744.73 -0.263528 -2.01686 0
M  V30 7507 C 745.085 1.13052 -1.55683 0
M  V30 7508 O 744.378 1.75588 -0.766762 0
M  V30 7509 C 744.572 -0.281791 -3.56287 0
M  V30 7510 C 744.401 -1.67607 -4.17298 0
M  V30 7511 C 743.171 -2.2836 -4.50755 0
M  V30 7512 C 745.369 -2.62621 -4.42193 0
M  V30 7513 N 743.351 -3.6015 -4.97157 0
M  V30 7514 C 744.722 -3.79116 -4.90582 0
M  V30 7515 C 746.777 -2.60639 -4.24231 0
M  V30 7516 C 745.48 -4.93937 -5.22895 0
M  V30 7517 C 747.506 -3.74587 -4.57644 0
M  V30 7518 C 746.868 -4.89815 -5.06222 0
M  V30 7519 H 742.967 -0.142252 -0.768953 0
M  V30 7520 H 745.551 -0.936732 -1.70685 0
M  V30 7521 H 743.722 0.360975 -3.86719 0
M  V30 7522 H 745.454 0.186393 -4.04271 0
M  V30 7523 H 742.209 -1.80463 -4.3787 0
M  V30 7524 H 742.633 -4.27757 -5.24741 0
M  V30 7525 H 747.275 -1.72759 -3.85894 0
M  V30 7526 H 744.993 -5.82462 -5.60146 0
M  V30 7527 H 748.579 -3.74328 -4.45387 0
M  V30 7528 H 747.459 -5.76525 -5.3159 0
M  V30 7529 N 744.962 1.50701 -0.461195 0
M  V30 7530 C 746.373 1.867 -0.00370227 0
M  V30 7531 C 746.724 1.37673 1.39787 0
M  V30 7532 O 745.849 0.737515 2.03445 0
M  V30 7533 C 746.444 3.388 5.75786e-05 0
M  V30 7534 C 745.003 3.74247 0.402044 0
M  V30 7535 C 744.15 2.74549 -0.389652 0
M  V30 7536 H 747.101 1.43585 -0.675942 0
M  V30 7537 H 747.122 3.719 0.804414 0
M  V30 7538 H 746.634 3.74452 -1.02015 0
M  V30 7539 H 744.735 3.44192 1.42697 0
M  V30 7540 H 744.848 4.78973 0.110265 0
M  V30 7541 H 743.212 2.54226 0.155314 0
M  V30 7542 H 743.995 3.13044 -1.40919 0
M  V30 7543 N 746.441 0.193421 1.56409 0
M  V30 7544 C 747.388 -0.728124 2.19014 0
M  V30 7545 C 748.358 -1.21098 1.13686 0
M  V30 7546 O 749.543 -1.27517 1.4193 0
M  V30 7547 C 746.683 -1.94277 2.8522 0
M  V30 7548 C 745.796 -1.50143 4.05069 0
M  V30 7549 C 744.931 -2.67145 4.59137 0
M  V30 7550 C 743.97 -2.19609 5.71348 0
M  V30 7551 N 743.107 -3.29782 6.19829 0
M  V30 7552 H 747.947 -0.187499 2.9741 0
M  V30 7553 H 745.484 -0.0808064 1.46878 0
M  V30 7554 H 747.442 -2.65551 3.21774 0
M  V30 7555 H 746.072 -2.45673 2.09391 0
M  V30 7556 H 745.124 -0.684624 3.74189 0
M  V30 7557 H 746.436 -1.11266 4.86232 0
M  V30 7558 H 745.59 -3.46544 4.97988 0
M  V30 7559 H 744.329 -3.09295 3.77078 0
M  V30 7560 H 743.334 -1.38664 5.32027 0
M  V30 7561 H 744.559 -1.78492 6.55223 0
M  V30 7562 H 742.505 -3.71466 5.40693 0
M  V30 7563 H 742.422 -2.95069 6.96039 0
M  V30 7564 H 743.69 -4.094 6.63334 0
M  V30 7565 N 747.919 -1.57396 -0.0801906 0
M  V30 7566 C 749.149 -1.90778 -0.792924 0
M  V30 7567 C 749.557 -0.786814 -1.72064 0
M  V30 7568 O 748.9 0.249259 -1.82001 0
M  V30 7569 C 748.962 -3.19552 -1.64702 0
M  V30 7570 C 748.626 -4.48259 -0.889567 0
M  V30 7571 C 749.623 -5.19465 -0.212602 0
M  V30 7572 C 747.308 -4.94896 -0.859229 0
M  V30 7573 C 749.302 -6.35555 0.484566 0
M  V30 7574 C 746.989 -6.10895 -0.158284 0
M  V30 7575 C 747.987 -6.81075 0.512421 0
M  V30 7576 O 747.675 -7.94862 1.20209 0
M  V30 7577 H 747.407 -0.63527 -0.231103 0
M  V30 7578 H 749.961 -2.0532 -0.0573081 0
M  V30 7579 H 748.191 -3.01196 -2.42524 0
M  V30 7580 H 749.88 -3.38649 -2.23767 0
M  V30 7581 H 750.646 -4.84467 -0.227403 0
M  V30 7582 H 746.525 -4.4015 -1.37073 0
M  V30 7583 H 750.069 -6.9027 1.00864 0
M  V30 7584 H 745.966 -6.45345 -0.141381 0
M  V30 7585 H 746.734 -8.10932 1.11051 0
M  V30 7586 N 749.397 0.351382 -1.53633 0
M  V30 7587 C 750.625 1.11275 -1.74429 0
M  V30 7588 C 751.04 1.82602 -0.479798 0
M  V30 7589 O 750.397 1.74074 0.548125 0
M  V30 7590 C 750.448 2.13223 -2.91921 0
M  V30 7591 O 750.169 1.44798 -4.13479 0
M  V30 7592 C 751.67 3.01797 -3.24706 0
M  V30 7593 H 748.89 0.332153 -0.583023 0
M  V30 7594 H 751.434 0.405974 -2.0043 0
M  V30 7595 H 749.589 2.79477 -2.68274 0
M  V30 7596 H 750.003 2.12839 -4.79374 0
M  V30 7597 H 751.477 3.69282 -4.10286 0
M  V30 7598 H 751.954 3.67387 -2.40673 0
M  V30 7599 H 752.56 2.41141 -3.5033 0
M  V30 7600 N 750.875 1.45233 0.611969 0
M  V30 7601 C 752.1 1.52767 1.40274 0
M  V30 7602 C 752.525 0.159701 1.87421 0
M  V30 7603 O 751.883 -0.854837 1.59882 0
M  V30 7604 C 751.931 2.51286 2.58626 0
M  V30 7605 O 751.035 2.02764 3.59111 0
M  V30 7606 H 750.376 0.515141 0.418958 0
M  V30 7607 H 752.906 1.90547 0.745188 0
M  V30 7608 H 752.916 2.69949 3.05927 0
M  V30 7609 H 751.591 3.50641 2.23659 0
M  V30 7610 H 750.168 1.93957 3.18489 0
M  V30 7611 N 752.353 -0.854086 1.3245 0
M  V30 7612 C 753.578 -1.64597 1.26185 0
M  V30 7613 C 754.003 -1.87357 -0.167074 0
M  V30 7614 O 753.361 -1.42675 -1.11864 0
M  V30 7615 C 753.409 -2.98213 2.02734 0
M  V30 7616 O 752.513 -3.88784 1.37554 0
M  V30 7617 H 751.854 -0.50179 0.434859 0
M  V30 7618 H 754.384 -1.06372 1.74775 0
M  V30 7619 H 754.394 -3.4803 2.1293 0
M  V30 7620 H 753.069 -2.80969 3.06642 0
M  V30 7621 H 751.646 -3.4725 1.3591 0
M  V30 7622 N 753.831 -1.1567 -1.07043 0
M  V30 7623 C 755.056 -0.957946 -1.83952 0
M  V30 7624 C 755.481 0.488807 -1.81638 0
M  V30 7625 O 754.839 1.34869 -1.21162 0
M  V30 7626 C 754.887 -1.48064 -3.288 0
M  V30 7627 O 753.991 -0.681921 -4.06723 0
M  V30 7628 H 753.332 -0.341453 -0.569479 0
M  V30 7629 H 755.862 -1.53728 -1.35015 0
M  V30 7630 H 755.872 -1.49484 -3.7963 0
M  V30 7631 H 754.547 -2.53388 -3.29799 0
M  V30 7632 H 753.124 -0.737612 -3.65532 0
M  V30 7633 N 755.309 1.25446 -0.953992 0
M  V30 7634 C 756.241 2.25111 -0.431004 0
M  V30 7635 C 757.254 1.56377 0.452764 0
M  V30 7636 O 758.443 1.76579 0.261144 0
M  V30 7637 C 755.543 3.3655 0.39839 0
M  V30 7638 C 754.716 4.34843 -0.472229 0
M  V30 7639 C 753.775 5.25351 0.29886 0
M  V30 7640 O 752.801 5.68396 -0.302522 0
M  V30 7641 N 754.003 5.5824 1.59211 0
M  V30 7642 H 756.768 2.70619 -1.28785 0
M  V30 7643 H 754.329 1.39346 -0.824281 0
M  V30 7644 H 756.321 3.94059 0.921941 0
M  V30 7645 H 754.891 2.90436 1.15609 0
M  V30 7646 H 754.111 3.76222 -1.17689 0
M  V30 7647 H 755.399 4.97497 -1.06648 0
M  V30 7648 H 754.797 5.25172 2.10264 0
M  V30 7649 H 753.354 6.18336 2.06164 0
M  V30 7650 N 756.787 0.722489 1.40064 0
M  V30 7651 C 758.012 0.273446 2.05589 0
M  V30 7652 C 758.437 -1.07875 1.54093 0
M  V30 7653 O 757.795 -1.68095 0.679252 0
M  V30 7654 C 757.843 0.271023 3.5958 0
M  V30 7655 O 756.947 -0.745499 4.05606 0
M  V30 7656 H 756.288 0.126856 0.65177 0
M  V30 7657 H 758.818 0.984906 1.79334 0
M  V30 7658 H 758.828 0.111084 4.07849 0
M  V30 7659 H 757.503 1.25776 3.96425 0
M  V30 7660 H 756.08 -0.552719 3.68781 0
M  V30 7661 N 758.265 -1.50454 0.469181 0
M  V30 7662 C 759.513 -2.01916 -0.0862982 0
M  V30 7663 C 759.834 -1.35337 -1.40388 0
M  V30 7664 O 759.104 -0.498096 -1.89462 0
M  V30 7665 H 757.684 -0.746185 -0.0348825 0
M  V30 7666 H 760.346 -1.84804 0.619167 0
M  V30 7667 H 759.442 -3.11182 -0.239189 0
M  V30 7668 N 759.743 -0.201713 -1.56304 0
M  V30 7669 C 760.691 0.733133 -2.20744 0
M  V30 7670 C 761.685 1.2148 -1.18064 0
M  V30 7671 O 762.891 1.17692 -1.36193 0
M  V30 7672 H 759.266 0.254789 -0.707521 0
M  V30 7673 H 761.237 0.165996 -2.97938 0
M  V30 7674 C 759.986 1.93925 -2.88597 0
M  V30 7675 H 759.309 1.5777 -3.67353 0
M  V30 7676 H 760.749 2.57158 -3.37114 0
M  V30 7677 C 759.208 2.78219 -1.89989 0
M  V30 7678 O 759.738 3.76353 -1.40432 0
M  V30 7679 N 757.944 2.43847 -1.58072 0
M  V30 7680 H 757.491 1.64103 -1.98565 0
M  V30 7681 H 757.449 3.0053 -0.923524 0
M  V30 7682 N 761.222 1.57436 0.0718424 0
M  V30 7683 C 762.17 2.04725 1.10411 0
M  V30 7684 C 763.164 0.952579 1.4008 0
M  V30 7685 O 764.37 1.13769 1.39487 0
M  V30 7686 H 760.745 0.652749 0.373393 0
M  V30 7687 H 762.716 2.90569 0.679126 0
M  V30 7688 C 761.465 2.5068 2.40946 0
M  V30 7689 H 760.788 3.34505 2.18967 0
M  V30 7690 H 762.228 2.87521 3.11621 0
M  V30 7691 C 760.687 1.38971 3.06902 0
M  V30 7692 O 761.217 0.731786 3.94978 0
M  V30 7693 N 759.423 1.13485 2.67525 0
M  V30 7694 H 758.97 1.67168 1.95991 0
M  V30 7695 H 758.928 0.389467 3.11978 0
M  V30 7696 N 762.7 -0.34323 1.53817 0
M  V30 7697 C 763.63 -1.42709 1.84814 0
M  V30 7698 C 764.611 -1.5488 0.703297 0
M  V30 7699 O 765.796 -1.69082 0.955237 0
M  V30 7700 C 762.926 -2.79756 2.05801 0
M  V30 7701 C 761.88 -2.82392 3.21619 0
M  V30 7702 C 761.206 -4.22326 3.2794 0
M  V30 7703 C 762.506 -2.479 4.59721 0
M  V30 7704 H 764.2 -1.17018 2.75585 0
M  V30 7705 H 761.746 -0.561485 1.32602 0
M  V30 7706 H 763.699 -3.55627 2.26069 0
M  V30 7707 H 762.423 -3.06883 1.11761 0
M  V30 7708 H 761.082 -2.08974 3.01207 0
M  V30 7709 H 760.73 -4.46564 2.31494 0
M  V30 7710 H 760.43 -4.25001 4.05768 0
M  V30 7711 H 761.954 -5.00039 3.50419 0
M  V30 7712 H 763.368 -3.13484 4.80001 0
M  V30 7713 H 761.765 -2.61857 5.39954 0
M  V30 7714 H 762.835 -1.43087 4.63308 0
M  V30 7715 N 764.178 -1.45556 -0.604258 0
M  V30 7716 C 765.111 -1.48975 -1.72863 0
M  V30 7717 C 766.089 -0.345803 -1.5888 0
M  V30 7718 O 767.273 -0.546796 -1.80395 0
M  V30 7719 C 764.4 -1.34794 -3.10722 0
M  V30 7720 C 763.446 -2.53096 -3.43285 0
M  V30 7721 S 764.279 -4.15551 -3.37754 0
M  V30 7722 C 765.435 -4.03842 -4.78187 0
M  V30 7723 H 765.668 -2.44108 -1.69701 0
M  V30 7724 H 763.201 -1.33179 -0.781194 0
M  V30 7725 H 765.159 -1.273 -3.90263 0
M  V30 7726 H 763.82 -0.411254 -3.11396 0
M  V30 7727 H 763.013 -2.39109 -4.4367 0
M  V30 7728 H 762.615 -2.57469 -2.71267 0
M  V30 7729 H 764.907 -3.69191 -5.6807 0
M  V30 7730 H 765.85 -5.0415 -4.97231 0
M  V30 7731 H 766.258 -3.35443 -4.54025 0
M  V30 7732 N 765.656 0.84705 -1.32902 0
M  V30 7733 C 766.589 1.96038 -1.1681 0
M  V30 7734 C 767.567 1.62468 -0.0656144 0
M  V30 7735 O 768.751 1.87136 -0.226339 0
M  V30 7736 C 765.878 3.29362 -0.789839 0
M  V30 7737 C 764.924 3.81908 -1.89865 0
M  V30 7738 S 765.757 4.04576 -3.50826 0
M  V30 7739 C 766.913 5.40863 -3.14989 0
M  V30 7740 H 767.146 2.09387 -2.11055 0
M  V30 7741 H 764.679 0.999896 -1.1765 0
M  V30 7742 H 766.637 4.06405 -0.578369 0
M  V30 7743 H 765.298 3.13815 0.133878 0
M  V30 7744 H 764.491 4.78357 -1.58716 0
M  V30 7745 H 764.093 3.11733 -2.06636 0
M  V30 7746 H 766.385 6.23393 -2.65306 0
M  V30 7747 H 767.328 5.7698 -4.10488 0
M  V30 7748 H 767.736 5.05228 -2.51804 0
M  V30 7749 N 767.134 1.16236 1.06428 0
M  V30 7750 C 768.383 0.937523 1.78587 0
M  V30 7751 C 768.696 -0.536 1.88113 0
M  V30 7752 O 769.902 -0.878697 2.56887 0
M  V30 7753 C 768.358 1.62808 3.2097 0
M  V30 7754 C 767.966 3.13927 3.19615 0
M  V30 7755 C 769.71 1.48515 3.97673 0
M  V30 7756 C 767.617 3.75727 4.56709 0
M  V30 7757 H 766.547 0.347125 0.669343 0
M  V30 7758 H 769.198 1.39353 1.19385 0
M  V30 7759 H 767.58 1.09977 3.80422 0
M  V30 7760 H 768.754 3.7359 2.69753 0
M  V30 7761 H 767.069 3.28089 2.56411 0
M  V30 7762 H 769.666 1.92069 4.99013 0
M  V30 7763 H 770.009 0.433913 4.14032 0
M  V30 7764 H 770.542 1.98494 3.44739 0
M  V30 7765 H 767.281 4.80793 4.45554 0
M  V30 7766 H 766.801 3.20849 5.0677 0
M  V30 7767 H 768.48 3.77203 5.25668 0
M  V30 7768 N 768.612 -1.24939 0.960631 0
M  V30 7769 C 769.56 -2.27659 0.47686 0
M  V30 7770 C 770.554 -1.63148 -0.455961 0
M  V30 7771 O 771.76 -1.76911 -0.332029 0
M  V30 7772 H 768.135 -0.739651 0.135723 0
M  V30 7773 H 770.106 -2.65844 1.35534 0
M  V30 7774 C 768.855 -3.46976 -0.224191 0
M  V30 7775 H 768.178 -3.96854 0.484471 0
M  V30 7776 H 769.618 -4.20717 -0.526615 0
M  V30 7777 C 768.077 -3.04159 -1.44876 0
M  V30 7778 O 768.607 -3.10697 -2.54618 0
M  V30 7779 N 766.813 -2.59284 -1.31226 0
M  V30 7780 H 766.36 -2.54164 -0.419361 0
M  V30 7781 H 766.318 -2.31 -2.13275 0
M  V30 7782 N 770.09 -0.729906 -1.39679 0
M  V30 7783 C 771.053 -0.0951668 -2.29002 0
M  V30 7784 C 772.053 0.672471 -1.46063 0
M  V30 7785 O 773.243 0.502245 -1.66803 0
M  V30 7786 C 770.375 0.874631 -3.29489 0
M  V30 7787 H 771.568 -0.882062 -2.86635 0
M  V30 7788 H 769.121 -0.495424 -1.4824 0
M  V30 7789 H 769.856 1.68807 -2.76902 0
M  V30 7790 H 769.641 0.326893 -3.90735 0
M  V30 7791 H 771.131 1.31548 -3.96339 0
M  V30 7792 N 771.568 1.50203 -0.477153 0
M  V30 7793 C 772.498 2.31517 0.303646 0
M  V30 7794 C 773.479 1.38696 0.984753 0
M  V30 7795 O 774.664 1.67615 0.980758 0
M  V30 7796 C 771.794 3.18598 1.38249 0
M  V30 7797 C 770.748 4.2002 0.822645 0
M  V30 7798 C 770.074 4.95878 2.00024 0
M  V30 7799 C 771.374 5.22023 -0.170185 0
M  V30 7800 H 773.068 2.97042 -0.375027 0
M  V30 7801 H 770.614 1.42848 -0.181802 0
M  V30 7802 H 772.567 3.74282 1.93625 0
M  V30 7803 H 771.291 2.5097 2.09002 0
M  V30 7804 H 769.95 3.65445 0.290813 0
M  V30 7805 H 769.598 4.24717 2.69489 0
M  V30 7806 H 769.298 5.64487 1.63183 0
M  V30 7807 H 770.822 5.54399 2.55878 0
M  V30 7808 H 772.236 5.72543 0.294606 0
M  V30 7809 H 770.633 5.98386 -0.453181 0
M  V30 7810 H 771.703 4.72396 -1.09408 0
M  V30 7811 N 773.046 0.209999 1.56195 0
M  V30 7812 C 774.294 -0.423974 1.97603 0
M  V30 7813 C 774.615 -1.61112 1.09854 0
M  V30 7814 O 773.885 -1.95134 0.173032 0
M  V30 7815 H 772.465 -0.159629 0.729745 0
M  V30 7816 H 775.127 0.300205 1.92574 0
M  V30 7817 H 774.223 -0.75809 3.02753 0
M  V30 7818 N 774.524 -1.57472 -0.0634922 0
M  V30 7819 C 775.454 -2.07297 -1.07473 0
M  V30 7820 C 776.435 -0.968162 -1.39859 0
M  V30 7821 O 777.62 -1.24139 -1.49343 0
M  V30 7822 C 774.75 -2.52381 -2.38581 0
M  V30 7823 C 773.704 -3.66813 -2.20526 0
M  V30 7824 C 773.03 -3.97982 -3.57092 0
M  V30 7825 C 774.33 -4.96553 -1.61965 0
M  V30 7826 H 776.024 -2.92033 -0.660092 0
M  V30 7827 H 773.57 -1.40488 -0.316074 0
M  V30 7828 H 775.523 -2.85852 -3.09624 0
M  V30 7829 H 774.247 -1.64684 -2.8204 0
M  V30 7830 H 772.906 -3.33639 -1.51924 0
M  V30 7831 H 772.554 -3.07403 -3.98136 0
M  V30 7832 H 772.254 -4.7504 -3.45848 0
M  V30 7833 H 773.778 -4.33956 -4.29552 0
M  V30 7834 H 775.192 -5.28201 -2.22883 0
M  V30 7835 H 773.589 -5.7799 -1.61394 0
M  V30 7836 H 774.659 -4.81396 -0.581918 0
M  V30 7837 N 776.003 0.335068 -1.53997 0
M  V30 7838 C 777.233 1.0926 -1.75345 0
M  V30 7839 C 777.641 1.82568 -0.496545 0
M  V30 7840 O 776.984 1.75525 0.541897 0
M  V30 7841 C 777.046 2.14473 -2.88516 0
M  V30 7842 C 776.71 1.60665 -4.27827 0
M  V30 7843 C 777.707 1.05448 -5.09094 0
M  V30 7844 C 775.392 1.65255 -4.74337 0
M  V30 7845 C 777.386 0.555372 -6.34976 0
M  V30 7846 C 775.073 1.14956 -6.0019 0
M  V30 7847 C 776.071 0.601907 -6.80343 0
M  V30 7848 O 775.759 0.106445 -8.0383 0
M  V30 7849 H 775.491 0.331329 -0.589234 0
M  V30 7850 H 778.045 0.39042 -2.01655 0
M  V30 7851 H 776.275 2.88274 -2.5775 0
M  V30 7852 H 777.964 2.75857 -2.97755 0
M  V30 7853 H 778.73 1.01218 -4.74321 0
M  V30 7854 H 774.609 2.06822 -4.12002 0
M  V30 7855 H 778.153 0.127245 -6.97484 0
M  V30 7856 H 774.05 1.18891 -6.34457 0
M  V30 7857 H 774.818 0.222944 -8.18196 0
M  V30 7858 N 777.481 1.45874 0.596531 0
M  V30 7859 C 778.709 1.54013 1.38158 0
M  V30 7860 C 779.124 0.17648 1.87973 0
M  V30 7861 O 778.481 -0.823895 1.62844 0
M  V30 7862 C 778.532 2.53363 2.57855 0
M  V30 7863 O 778.253 3.8443 2.10108 0
M  V30 7864 C 779.754 2.71308 3.50581 0
M  V30 7865 H 776.974 0.521251 0.422538 0
M  V30 7866 H 779.518 1.9116 0.726493 0
M  V30 7867 H 777.673 2.19257 3.19382 0
M  V30 7868 H 778.087 4.38384 2.87958 0
M  V30 7869 H 779.561 3.44776 4.31084 0
M  V30 7870 H 780.038 1.77728 4.01633 0
M  V30 7871 H 780.644 3.06455 2.94899 0
M  V30 7872 N 778.959 -0.83999 1.33349 0
M  V30 7873 C 780.207 -1.59202 1.24496 0
M  V30 7874 C 780.528 -1.94077 -0.189499 0
M  V30 7875 O 779.798 -1.60868 -1.11796 0
M  V30 7876 H 778.378 -0.590276 0.457802 0
M  V30 7877 H 781.04 -1.00394 1.67054 0
M  V30 7878 H 780.136 -2.52247 1.83788 0
M  V30 7879 N 780.437 -1.16799 -1.0581 0
M  V30 7880 C 781.384 -0.87902 -2.13405 0
M  V30 7881 C 782.354 0.174541 -1.6518 0
M  V30 7882 O 783.539 0.0386843 -1.90761 0
M  V30 7883 C 780.679 -0.391616 -3.42871 0
M  V30 7884 C 779.792 -1.50857 -4.04804 0
M  V30 7885 C 778.927 -0.975682 -5.22163 0
M  V30 7886 C 777.966 -2.06851 -5.76089 0
M  V30 7887 N 777.103 -1.55085 -6.84758 0
M  V30 7888 H 781.943 -1.80043 -2.37463 0
M  V30 7889 H 779.48 -0.898083 -1.16503 0
M  V30 7890 H 781.438 -0.0906247 -4.17102 0
M  V30 7891 H 780.068 0.49284 -3.19016 0
M  V30 7892 H 779.12 -1.92542 -3.28073 0
M  V30 7893 H 780.432 -2.33305 -4.40874 0
M  V30 7894 H 779.586 -0.628165 -6.03439 0
M  V30 7895 H 778.325 -0.120566 -4.87551 0
M  V30 7896 H 777.33 -2.42467 -4.93447 0
M  V30 7897 H 778.555 -2.92768 -6.12751 0
M  V30 7898 H 776.501 -0.718345 -6.52055 0
M  V30 7899 H 776.418 -2.31145 -7.19797 0
M  V30 7900 H 777.686 -1.23206 -7.69702 0
M  V30 7901 N 781.915 1.24427 -0.967243 0
M  V30 7902 C 783.192 1.87831 -0.545776 0
M  V30 7903 C 783.572 1.87126 0.977099 0
M  V30 7904 O 782.92 1.34357 1.84826 0
M  V30 7905 C 783.13 3.29967 -1.13679 0
M  V30 7906 C 784.478 4.06654 -1.22139 0
M  V30 7907 O 785.502 3.39136 -1.08926 0
M  V30 7908 O 784.361 5.27455 -1.43017 0
M  V30 7909 H 781.455 0.806745 -0.181912 0
M  V30 7910 H 784.001 1.32403 -1.06148 0
M  V30 7911 H 782.773 3.24977 -2.17958 0
M  V30 7912 H 782.396 3.92969 -0.605093 0
M  V30 7913 N 783.393 0.737304 1.3929 0
M  V30 7914 C 784.341 0.0879867 2.32434 0
M  V30 7915 C 785.335 -0.723324 1.53181 0
M  V30 7916 O 786.541 -0.624251 1.68829 0
M  V30 7917 H 782.916 0.00965277 0.751938 0
M  V30 7918 H 784.887 0.889915 2.84821 0
M  V30 7919 C 783.636 -0.803384 3.38291 0
M  V30 7920 H 782.959 -0.18849 3.99355 0
M  V30 7921 H 784.399 -1.22528 4.0591 0
M  V30 7922 C 782.858 -1.93872 2.75527 0
M  V30 7923 O 783.388 -3.03154 2.63553 0
M  V30 7924 N 781.594 -1.72883 2.3358 0
M  V30 7925 H 781.141 -0.840005 2.43519 0
M  V30 7926 H 781.099 -2.49021 1.91927 0
M  V30 7927 N 784.871 -1.49948 0.485112 0
M  V30 7928 C 786.118 -2.02396 -0.0650059 0
M  V30 7929 C 786.446 -1.36606 -1.38452 0
M  V30 7930 O 785.701 -0.485476 -1.89583 0
M  V30 7931 C 786 -3.56282 -0.282434 0
M  V30 7932 C 785.666 -4.40625 0.957106 0
M  V30 7933 C 784.328 -4.63393 1.29692 0
M  V30 7934 C 786.68 -4.89799 1.78176 0
M  V30 7935 C 784.008 -5.3258 2.4612 0
M  V30 7936 C 786.36 -5.60266 2.93743 0
M  V30 7937 C 785.024 -5.81284 3.28124 0
M  V30 7938 H 784.294 -0.740618 -0.0237873 0
M  V30 7939 H 786.941 -1.80416 0.642044 0
M  V30 7940 H 785.246 -3.76853 -1.07186 0
M  V30 7941 H 786.943 -3.94442 -0.722276 0
M  V30 7942 H 783.533 -4.23133 0.682384 0
M  V30 7943 H 787.717 -4.7205 1.53239 0
M  V30 7944 H 782.973 -5.47059 2.73014 0
M  V30 7945 H 787.147 -5.97347 3.5798 0
M  V30 7946 H 784.774 -6.34671 4.18446 0
M  V30 7947 N 786.349 -0.21828 -1.56081 0
M  V30 7948 C 787.765 0.137168 -1.59009 0
M  V30 7949 C 787.965 1.59215 -1.23503 0
M  V30 7950 O 787.021 2.33178 -0.968716 0
M  V30 7951 C 788.334 -0.186162 -3.00123 0
M  V30 7952 C 789.882 -0.128135 -3.12738 0
M  V30 7953 C 790.357 -0.425094 -4.56023 0
M  V30 7954 N 791.848 -0.374547 -4.61683 0
M  V30 7955 C 792.583 -0.57786 -5.70481 0
M  V30 7956 N 792.079 -0.842771 -6.87655 0
M  V30 7957 N 793.872 -0.510521 -5.59777 0
M  V30 7958 H 786.023 -1.16746 -1.77437 0
M  V30 7959 H 788.286 -0.467706 -0.824594 0
M  V30 7960 H 787.992 -1.19589 -3.30744 0
M  V30 7961 H 787.866 0.500388 -3.73866 0
M  V30 7962 H 790.253 0.872224 -2.81915 0
M  V30 7963 H 790.334 -0.848112 -2.41331 0
M  V30 7964 H 789.978 -1.42288 -4.87562 0
M  V30 7965 H 789.908 0.316038 -5.25651 0
M  V30 7966 H 792.399 -0.177356 -3.77484 0
M  V30 7967 H 792.712 -0.986095 -7.66483 0
M  V30 7968 H 791.057 -0.879929 -6.89407 0
M  V30 7969 H 794.248 -0.303813 -4.67113 0
M  V30 7970 H 794.421 -0.672378 -6.44502 0
M  V30 7971 N 787.827 1.57504 0.0551401 0
M  V30 7972 C 789.055 1.92294 0.76358 0
M  V30 7973 C 789.47 0.815774 1.70266 0
M  V30 7974 O 788.827 -0.209772 1.8129 0
M  V30 7975 C 788.878 3.26914 1.54302 0
M  V30 7976 O 788.599 4.33375 0.641666 0
M  V30 7977 C 790.1 3.75825 2.35097 0
M  V30 7978 H 787.32 0.635229 0.216159 0
M  V30 7979 H 789.864 2.0449 0.0204385 0
M  V30 7980 H 788.019 3.16196 2.23828 0
M  V30 7981 H 788.433 5.10927 1.1855 0
M  V30 7982 H 789.907 4.72603 2.8522 0
M  V30 7983 H 790.384 3.0568 3.15367 0
M  V30 7984 H 790.99 3.89542 1.70696 0
M  V30 7985 N 789.305 -0.326896 1.54172 0
M  V30 7986 C 790.268 -1.38515 1.8261 0
M  V30 7987 C 791.268 -1.44872 0.697771 0
M  V30 7988 O 792.458 -1.44957 0.966078 0
M  V30 7989 C 789.59 -2.77281 1.98313 0
M  V30 7990 H 790.783 -1.14556 2.77159 0
M  V30 7991 H 788.336 -0.562199 1.45839 0
M  V30 7992 H 789.071 -3.065 1.05964 0
M  V30 7993 H 788.856 -2.74061 2.80416 0
M  V30 7994 H 790.346 -3.53845 2.21773 0
M  V30 7995 N 790.784 -1.46188 -0.588786 0
M  V30 7996 C 792.032 -1.50885 -1.34455 0
M  V30 7997 C 792.353 -0.159555 -1.94346 0
M  V30 7998 O 791.623 0.813239 -1.78222 0
M  V30 7999 H 790.203 -0.555707 -0.499198 0
M  V30 8000 H 792.865 -1.82277 -0.690014 0
M  V30 8001 H 791.961 -2.25816 -2.15438 0
M  V30 8002 N 792.262 0.832906 -1.33792 0
M  V30 8003 C 793.492 1.61813 -1.28453 0
M  V30 8004 C 793.9 1.88639 0.145595 0
M  V30 8005 O 793.243 1.47122 1.10004 0
M  V30 8006 C 793.305 2.98929 -1.99704 0
M  V30 8007 C 792.969 2.95045 -3.48995 0
M  V30 8008 C 793.966 2.70337 -4.44088 0
M  V30 8009 C 791.651 3.14993 -3.91261 0
M  V30 8010 C 793.645 2.65612 -5.79421 0
M  V30 8011 C 791.332 3.09893 -5.26697 0
M  V30 8012 C 792.33 2.85235 -6.20588 0
M  V30 8013 O 792.018 2.8005 -7.53543 0
M  V30 8014 H 791.75 0.510013 -0.443693 0
M  V30 8015 H 794.304 1.04514 -1.76822 0
M  V30 8016 H 792.534 3.58106 -1.45935 0
M  V30 8017 H 794.223 3.59849 -1.87786 0
M  V30 8018 H 794.989 2.54671 -4.12756 0
M  V30 8019 H 790.868 3.33204 -3.18584 0
M  V30 8020 H 794.412 2.46285 -6.52679 0
M  V30 8021 H 790.309 3.2511 -5.5765 0
M  V30 8022 H 791.077 2.95849 -7.63162 0
M  V30 8023 N 793.74 1.17359 1.05189 0
M  V30 8024 C 795.017 0.871914 1.75091 0
M  V30 8025 C 795.397 -0.627821 2.01548 0
M  V30 8026 O 794.745 -1.5791 1.65156 0
M  V30 8027 C 794.955 1.70687 3.04413 0
M  V30 8028 C 796.303 1.92684 3.78362 0
M  V30 8029 O 797.327 1.67645 3.14282 0
M  V30 8030 O 796.186 2.34765 4.93505 0
M  V30 8031 H 793.28 0.322831 0.761386 0
M  V30 8032 H 795.826 1.28054 1.11357 0
M  V30 8033 H 794.598 2.72405 2.80911 0
M  V30 8034 H 794.221 1.29602 3.75884 0
M  V30 8035 N 795.218 -1.23913 0.973828 0
M  V30 8036 C 796.181 -2.23367 0.51378 0
M  V30 8037 C 797.181 -1.55923 -0.39302 0
M  V30 8038 O 798.371 -1.73187 -0.187626 0
M  V30 8039 C 795.503 -3.39944 -0.255152 0
M  V30 8040 H 796.696 -2.65581 1.39307 0
M  V30 8041 H 794.249 -1.36632 0.759039 0
M  V30 8042 H 794.984 -3.03177 -1.15127 0
M  V30 8043 H 794.769 -3.90098 0.395673 0
M  V30 8044 H 796.259 -4.13749 -0.565842 0
M  V30 8045 N 796.696 -0.74468 -1.38897 0
M  V30 8046 C 797.626 -0.126355 -2.33158 0
M  V30 8047 C 798.607 0.713517 -1.54412 0
M  V30 8048 O 799.792 0.656523 -1.82766 0
M  V30 8049 C 796.922 0.774375 -3.38557 0
M  V30 8050 C 795.876 0.0379214 -4.27983 0
M  V30 8051 C 795.202 1.05631 -5.24162 0
M  V30 8052 C 796.502 -1.12523 -5.10035 0
M  V30 8053 H 798.196 -0.913744 -2.85116 0
M  V30 8054 H 795.742 -0.440847 -1.37086 0
M  V30 8055 H 797.695 1.21655 -4.03458 0
M  V30 8056 H 796.419 1.59399 -2.85061 0
M  V30 8057 H 795.078 -0.384733 -3.64576 0
M  V30 8058 H 794.726 1.86975 -4.66958 0
M  V30 8059 H 794.426 0.568261 -5.84846 0
M  V30 8060 H 795.95 1.49799 -5.9194 0
M  V30 8061 H 797.364 -0.761037 -5.68226 0
M  V30 8062 H 795.761 -1.54355 -5.79909 0
M  V30 8063 H 796.831 -1.94237 -4.44297 0
M  V30 8064 N 798.174 1.49689 -0.493057 0
M  V30 8065 C 799.107 2.25712 0.336062 0
M  V30 8066 C 800.085 1.29953 0.977294 0
M  V30 8067 O 801.269 1.59225 1.00895 0
M  V30 8068 C 798.396 3.0501 1.47263 0
M  V30 8069 C 797.442 4.15863 0.946575 0
M  V30 8070 S 798.275 5.35272 -0.156323 0
M  V30 8071 C 799.431 6.18123 0.983601 0
M  V30 8072 H 799.664 2.95688 -0.309215 0
M  V30 8073 H 797.197 1.51872 -0.278238 0
M  V30 8074 H 799.155 3.51284 2.12391 0
M  V30 8075 H 797.816 2.34519 2.08949 0
M  V30 8076 H 797.009 4.70834 1.7981 0
M  V30 8077 H 796.611 3.72139 0.372647 0
M  V30 8078 H 798.903 6.50588 1.89056 0
M  V30 8079 H 799.846 7.06521 0.472687 0
M  V30 8080 H 800.254 5.50547 1.24735 0
M  V30 8081 N 799.652 0.226554 1.55963 0
M  V30 8082 C 800.88 -0.408507 2.02827 0
M  V30 8083 C 801.295 -1.52994 1.10627 0
M  V30 8084 O 800.652 -1.82126 0.116809 0
M  V30 8085 C 800.703 -0.93545 3.49187 0
M  V30 8086 O 800.424 0.141273 4.37872 0
M  V30 8087 C 801.925 -1.64325 4.11719 0
M  V30 8088 H 799.145 -0.099442 0.66359 0
M  V30 8089 H 801.689 0.344471 2.01578 0
M  V30 8090 H 799.844 -1.63868 3.51036 0
M  V30 8091 H 800.258 -0.25558 5.23877 0
M  V30 8092 H 801.732 -1.9639 5.15883 0
M  V30 8093 H 802.209 -2.55815 3.57009 0
M  V30 8094 H 802.815 -0.9851 4.13734 0
M  V30 8095 N 801.13 -1.57531 -0.0467866 0
M  V30 8096 C 802.078 -2.06455 -1.0714 0
M  V30 8097 C 803.072 -0.974744 -1.38546 0
M  V30 8098 O 804.278 -1.15974 -1.37659 0
M  V30 8099 H 800.653 -0.658607 -0.362962 0
M  V30 8100 H 802.624 -2.91613 -0.632813 0
M  V30 8101 C 801.373 -2.54481 -2.36927 0
M  V30 8102 H 800.696 -3.37946 -2.13617 0
M  V30 8103 H 802.136 -2.92442 -3.07007 0
M  V30 8104 C 800.595 -1.43836 -3.04652 0
M  V30 8105 O 801.125 -0.794531 -3.93764 0
M  V30 8106 N 799.331 -1.17727 -2.65686 0
M  V30 8107 H 798.878 -1.70265 -1.93307 0
M  V30 8108 H 798.836 -0.439051 -3.11319 0
M  V30 8109 N 802.608 0.318715 -1.54344 0
M  V30 8110 C 804.019 0.89285 -1.63967 0
M  V30 8111 C 804.37 1.88712 -0.536855 0
M  V30 8112 O 803.495 2.13877 0.329457 0
M  V30 8113 C 804.09 1.62618 -2.97222 0
M  V30 8114 C 802.649 2.14897 -3.09025 0
M  V30 8115 C 801.796 0.975909 -2.5956 0
M  V30 8116 H 804.747 0.0961687 -1.58408 0
M  V30 8117 H 804.768 2.4907 -2.87653 0
M  V30 8118 H 804.28 0.902286 -3.77466 0
M  V30 8119 H 802.381 2.90387 -2.33465 0
M  V30 8120 H 802.494 2.39565 -4.14904 0
M  V30 8121 H 800.858 1.35646 -2.15574 0
M  V30 8122 H 801.641 0.266253 -3.42266 0
M  V30 8123 N 804.086 1.46499 0.581025 0
M  V30 8124 C 805.311 1.55708 1.37002 0
M  V30 8125 C 805.736 0.19942 1.8704 0
M  V30 8126 O 805.094 -0.820731 1.61659 0
M  V30 8127 C 805.142 2.56716 2.53238 0
M  V30 8128 O 804.246 2.10336 3.54729 0
M  V30 8129 H 803.587 0.523912 0.407937 0
M  V30 8130 H 806.117 1.92085 0.704602 0
M  V30 8131 H 806.127 2.76378 3.00132 0
M  V30 8132 H 804.802 3.55307 2.16171 0
M  V30 8133 H 803.379 2.00669 3.14303 0
M  V30 8134 N 805.565 -0.825799 1.34232 0
M  V30 8135 C 806.79 -1.61883 1.29648 0
M  V30 8136 C 807.215 -1.87669 -0.127295 0
M  V30 8137 O 806.573 -1.45016 -1.08813 0
M  V30 8138 C 806.621 -2.93846 2.09014 0
M  V30 8139 O 805.725 -3.85778 1.4577 0
M  V30 8140 H 805.066 -0.492454 0.445405 0
M  V30 8141 H 807.596 -1.02641 1.76992 0
M  V30 8142 H 807.606 -3.43435 2.20264 0
M  V30 8143 H 806.281 -2.74401 3.12533 0
M  V30 8144 H 804.858 -3.4429 1.43245 0
M  V30 8145 N 807.043 -1.17915 -1.04565 0
M  V30 8146 C 808.29 -0.971424 -1.77678 0
M  V30 8147 C 808.618 0.499401 -1.87979 0
M  V30 8148 O 807.873 1.38695 -1.38066 0
M  V30 8149 C 808.172 -1.56528 -3.213 0
M  V30 8150 C 807.838 -3.06138 -3.31044 0
M  V30 8151 C 806.5 -3.46974 -3.33411 0
M  V30 8152 C 808.852 -4.02151 -3.31548 0
M  V30 8153 C 806.18 -4.82406 -3.33918 0
M  V30 8154 C 808.532 -5.37492 -3.33595 0
M  V30 8155 C 807.196 -5.77782 -3.34251 0
M  V30 8156 H 806.466 -0.355469 -0.650171 0
M  V30 8157 H 809.113 -1.46902 -1.22849 0
M  V30 8158 H 807.418 -0.98955 -3.79098 0
M  V30 8159 H 809.115 -1.38003 -3.76505 0
M  V30 8160 H 805.705 -2.73589 -3.29919 0
M  V30 8161 H 809.889 -3.71656 -3.28916 0
M  V30 8162 H 805.145 -5.12927 -3.3274 0
M  V30 8163 H 809.319 -6.1166 -3.32934 0
M  V30 8164 H 806.946 -6.82702 -3.34397 0
M  V30 8165 N 808.521 1.23394 -0.980386 0
M  V30 8166 C 809.768 1.91809 -0.649261 0
M  V30 8167 C 810.096 1.765 0.817197 0
M  V30 8168 O 809.351 1.11979 1.60497 0
M  V30 8169 C 809.65 3.43542 -0.985588 0
M  V30 8170 C 809.316 3.79031 -2.44225 0
M  V30 8171 C 807.978 3.88429 -2.84035 0
M  V30 8172 C 810.33 3.96145 -3.38702 0
M  V30 8173 C 807.658 4.12368 -4.17336 0
M  V30 8174 C 810.01 4.21583 -4.71646 0
M  V30 8175 C 808.674 4.29203 -5.11215 0
M  V30 8176 H 807.944 0.70188 -0.237581 0
M  V30 8177 H 810.591 1.4642 -1.23424 0
M  V30 8178 H 808.896 3.90503 -0.318521 0
M  V30 8179 H 810.593 3.94708 -0.707596 0
M  V30 8180 H 807.183 3.7229 -2.12362 0
M  V30 8181 H 811.367 3.88274 -3.09123 0
M  V30 8182 H 806.623 4.1649 -4.47601 0
M  V30 8183 H 810.797 4.33769 -5.4481 0
M  V30 8184 H 808.424 4.47505 -6.14527 0
M  V30 8185 N 809.999 0.752036 1.385 0
M  V30 8186 C 811.245 0.307958 2.00448 0
M  V30 8187 C 811.578 -1.10702 1.59558 0
M  V30 8188 O 810.853 -1.75788 0.832391 0
M  V30 8189 C 811.136 0.429092 3.57534 0
M  V30 8190 C 810.989 1.88507 4.08393 0
M  V30 8191 C 812.308 -0.178442 4.39738 0
M  V30 8192 H 809.427 0.113373 0.728228 0
M  V30 8193 H 812.069 0.951389 1.64465 0
M  V30 8194 H 810.219 -0.118695 3.88319 0
M  V30 8195 H 811.891 2.49104 3.88259 0
M  V30 8196 H 810.134 2.40066 3.61318 0
M  V30 8197 H 810.805 1.92099 5.17496 0
M  V30 8198 H 813.281 0.28872 4.15097 0
M  V30 8199 H 812.157 -0.0634349 5.48863 0
M  V30 8200 H 812.418 -1.26655 4.23569 0
M  V30 8201 O 811.516 -1.48164 0.642627 0
M  V30 8202 H 812.207 -1.92997 0.164909 0
M  V30 END ATOM
M  V30 BEGIN BOND
M  V30 END BOND
M  V30 END CTAB
M  END
$$$$
