drugbank_target|P32927 Cytokine receptor common subunit beta (DB00020; DB05264; DB05943)
 OpenBabel12092120063D

  0  0  0     0  0            999 V3000
M  V30 BEGIN CTAB
M  V30 COUNTS 13527 13743 0 0 0
M  V30 BEGIN ATOM
M  V30 1 H -0.908 1.98254 -0.117106 0
M  V30 2 N 0 1.576 0 0
M  V30 3 C 0.933 2.03868 1.02534 0
M  V30 4 C 1.911 0.928543 1.3348 0
M  V30 5 O 3.095 1.19667 1.45644 0
M  V30 6 C 0.222 2.43627 2.35294 0
M  V30 7 C -0.732 3.65373 2.2001 0
M  V30 8 S 0.101 5.13292 1.52614 0
M  V30 9 C 1.257 5.56322 2.86805 0
M  V30 10 H 1.49 2.90518 0.631377 0
M  V30 11 H -0.977 1.52953 0.210867 0
M  V30 12 H 0.981 2.67203 3.11629 0
M  V30 13 H -0.358 1.57376 2.7183 0
M  V30 14 H -1.165 3.90944 3.18086 0
M  V30 15 H -1.563 3.418 1.51819 0
M  V30 16 H 0.729 5.58782 3.83104 0
M  V30 17 H 1.672 6.56266 2.65933 0
M  V30 18 H 2.08 4.83886 2.90714 0
M  V30 19 N 1.4781 -0.272755 1.55222 0
M  V30 20 C 2.7241 -1.00581 1.761 0
M  V30 21 C 3.0571 -1.85932 0.560625 0
M  V30 22 O 2.3321 -1.89416 -0.441801 0
M  V30 23 C 2.6151 -1.88816 3.06628 0
M  V30 24 C 2.4681 -1.06457 4.37021 0
M  V30 25 C 3.7871 -2.8752 3.33197 0
M  V30 26 H 0.9061 -0.364244 0.640699 0
M  V30 27 H 3.5481 -0.278189 1.87952 0
M  V30 28 H 1.6981 -2.50856 2.96654 0
M  V30 29 H 3.3701 -0.464863 4.58952 0
M  V30 30 H 1.6131 -0.368043 4.32236 0
M  V30 31 H 2.2841 -1.71514 5.24678 0
M  V30 32 H 4.7601 -2.35615 3.42965 0
M  V30 33 H 3.6361 -3.46399 4.25792 0
M  V30 34 H 3.8971 -3.62657 2.52849 0
M  V30 35 N 2.9562 -1.48159 -0.537278 0
M  V30 36 C 3.8862 -1.65029 -1.6519 0
M  V30 37 C 4.8672 -0.499281 -1.62607 0
M  V30 38 O 6.0522 -0.730972 -1.79918 0
M  V30 39 C 3.1822 -1.68303 -3.03795 0
M  V30 40 C 2.1362 -2.8283 -3.21234 0
M  V30 41 C 1.4622 -2.71189 -4.60826 0
M  V30 42 C 2.7622 -4.24211 -3.04701 0
M  V30 43 H 4.4562 -2.58341 -1.51328 0
M  V30 44 H 2.0022 -1.24325 -0.726585 0
M  V30 45 H 3.9552 -1.78693 -3.81637 0
M  V30 46 H 2.6792 -0.715635 -3.18663 0
M  V30 47 H 1.3382 -2.71983 -2.45807 0
M  V30 48 H 0.9862 -1.72435 -4.7252 0
M  V30 49 H 0.6862 -3.48035 -4.7344 0
M  V30 50 H 2.2102 -2.83537 -5.40777 0
M  V30 51 H 3.6242 -4.3593 -3.72341 0
M  V30 52 H 2.0212 -5.01998 -3.28813 0
M  V30 53 H 3.0912 -4.41184 -2.01209 0
M  V30 54 N 4.4343 0.785586 -1.36625 0
M  V30 55 C 5.3973 1.87999 -1.31107 0
M  V30 56 C 6.3973 1.59316 -0.217959 0
M  V30 57 O 7.5873 1.67656 -0.472977 0
M  V30 58 C 4.7193 3.24861 -1.03334 0
M  V30 59 H 5.9123 1.94307 -2.2844 0
M  V30 60 H 3.4653 0.983813 -1.21453 0
M  V30 61 H 4.2003 3.24235 -0.0647432 0
M  V30 62 H 3.9853 3.4707 -1.82441 0
M  V30 63 H 5.4753 4.04929 -1.02088 0
M  V30 64 N 5.9124 1.20967 1.01018 0
M  V30 65 C 6.8444 0.922059 2.09835 0
M  V30 66 C 7.8574 -0.0927106 1.62536 0
M  V30 67 O 9.0464 0.139127 1.77957 0
M  V30 68 C 6.1464 0.362004 3.36961 0
M  V30 69 C 5.3194 1.42986 4.13369 0
M  V30 70 C 4.3784 0.879976 5.1879 0
M  V30 71 O 3.4044 1.56219 5.47343 0
M  V30 72 N 4.6064 -0.307396 5.79686 0
M  V30 73 H 7.3714 1.8588 2.35093 0
M  V30 74 H 4.9324 1.11422 1.1746 0
M  V30 75 H 6.9244 -0.0201474 4.04695 0
M  V30 76 H 5.4944 -0.479437 3.08902 0
M  V30 77 H 4.7144 1.98608 3.40512 0
M  V30 78 H 6.0024 2.14885 4.61196 0
M  V30 79 H 5.4004 -0.878796 5.58832 0
M  V30 80 H 3.9574 -0.631115 6.48737 0
M  V30 81 N 7.3905 -1.2043 1.01659 0
M  V30 82 C 8.6385 -1.89423 0.704522 0
M  V30 83 C 8.9595 -1.79231 -0.768197 0
M  V30 84 O 8.2295 -1.1947 -1.55254 0
M  V30 85 H 6.8095 -0.701178 0.257602 0
M  V30 86 H 9.4715 -1.4626 1.28818 0
M  V30 87 H 8.5675 -2.96052 0.987916 0
M  V30 88 N 8.8686 -0.792821 -1.36206 0
M  V30 89 C 9.7986 -0.207853 -2.32573 0
M  V30 90 C 10.7796 0.659055 -1.56813 0
M  V30 91 O 11.9646 0.592176 -1.84951 0
M  V30 92 C 9.0946 0.655449 -3.41059 0
M  V30 93 C 8.0486 -0.111842 -4.27854 0
M  V30 94 C 7.3746 0.872274 -5.27537 0
M  V30 95 C 8.6746 -1.30299 -5.05786 0
M  V30 96 H 10.3686 -1.01294 -2.81744 0
M  V30 97 H 7.9146 -0.48854 -1.3546 0
M  V30 98 H 9.8676 1.07464 -4.07467 0
M  V30 99 H 8.5916 1.49328 -2.90463 0
M  V30 100 H 7.2506 -0.512053 -3.63006 0
M  V30 101 H 6.8986 1.70523 -4.73214 0
M  V30 102 H 6.5986 0.363291 -5.86476 0
M  V30 103 H 8.1226 1.28996 -5.96818 0
M  V30 104 H 9.5366 -0.959379 -5.65216 0
M  V30 105 H 7.9336 -1.7455 -5.74154 0
M  V30 106 H 9.0036 -2.09663 -4.37229 0
M  V30 107 N 10.3467 1.47872 -0.545128 0
M  V30 108 C 11.2767 2.32661 0.197793 0
M  V30 109 C 12.2577 1.43041 0.920504 0
M  V30 110 O 13.4427 1.71912 0.90333 0
M  V30 111 C 10.5727 3.24569 1.23582 0
M  V30 112 C 9.5267 4.23333 0.630323 0
M  V30 113 C 8.8527 5.0448 1.77211 0
M  V30 114 C 10.1527 5.20704 -0.407974 0
M  V30 115 H 11.8467 2.95024 -0.510045 0
M  V30 116 H 9.3927 1.4187 -0.246731 0
M  V30 117 H 11.3457 3.8272 1.76362 0
M  V30 118 H 10.0697 2.60236 1.97344 0
M  V30 119 H 8.7287 3.6639 0.123922 0
M  V30 120 H 8.3767 4.36561 2.49847 0
M  V30 121 H 8.0767 5.71339 1.37281 0
M  V30 122 H 9.6007 5.65487 2.3034 0
M  V30 123 H 11.0147 5.7329 0.033305 0
M  V30 124 H 9.4117 5.95699 -0.725486 0
M  V30 125 H 10.4817 4.66917 -1.30828 0
M  V30 126 N 11.8248 0.280983 1.55075 0
M  V30 127 C 13.0498 -0.340154 2.04592 0
M  V30 128 C 13.4748 -1.48246 1.15779 0
M  V30 129 O 12.8328 -1.80614 0.15761 0
M  V30 130 C 12.8808 -0.793104 3.5177 0
M  V30 131 O 11.9848 -1.89981 3.66034 0
M  V30 132 H 11.3258 -0.0694289 0.66036 0
M  V30 133 H 13.8558 0.416993 2.00306 0
M  V30 134 H 13.8658 -1.08729 3.93245 0
M  V30 135 H 12.5408 0.0426163 4.15878 0
M  V30 136 H 11.1178 -1.60771 3.36463 0
M  V30 137 N 13.3029 -1.57598 0.00835791 0
M  V30 138 C 14.2359 -2.04409 -1.01451 0
M  V30 139 C 15.2139 -0.935609 -1.32985 0
M  V30 140 O 16.3979 -1.20437 -1.45007 0
M  V30 141 C 13.5249 -2.44872 -2.33999 0
M  V30 142 C 12.5709 -3.66535 -2.18069 0
M  V30 143 S 13.4039 -5.14095 -1.4989 0
M  V30 144 C 14.5599 -5.57835 -2.8385 0
M  V30 145 H 14.7929 -2.90849 -0.615961 0
M  V30 146 H 12.3259 -1.53063 -0.202752 0
M  V30 147 H 14.2839 -2.68852 -3.10208 0
M  V30 148 H 12.9449 -1.58815 -2.70992 0
M  V30 149 H 12.1379 -3.92626 -3.16008 0
M  V30 150 H 11.7399 -3.426 -1.50004 0
M  V30 151 H 14.0319 -5.60806 -3.80136 0
M  V30 152 H 14.9749 -6.57667 -2.62449 0
M  V30 153 H 15.3829 -4.85421 -2.88144 0
M  V30 154 N 14.781 0.264519 -1.55364 0
M  V30 155 C 15.744 1.31046 -1.88042 0
M  V30 156 C 16.744 1.41943 -0.755569 0
M  V30 157 O 17.934 1.40947 -1.02369 0
M  V30 158 C 15.066 2.69067 -2.09323 0
M  V30 159 H 16.259 1.03297 -2.81549 0
M  V30 160 H 13.812 0.502989 -1.47986 0
M  V30 161 H 14.547 3.01982 -1.18226 0
M  V30 162 H 14.332 2.62542 -2.91229 0
M  V30 163 H 15.822 3.44623 -2.35848 0
M  V30 164 N 16.2591 1.48442 0.529413 0
M  V30 165 C 17.1891 1.65902 1.64313 0
M  V30 166 C 18.1701 0.507897 1.6234 0
M  V30 167 O 19.3551 0.740503 1.79528 0
M  V30 168 C 16.4851 1.69911 3.02898 0
M  V30 169 C 15.4391 2.8453 3.19729 0
M  V30 170 C 14.7651 2.73629 4.59381 0
M  V30 171 C 16.0651 4.25821 3.02447 0
M  V30 172 H 17.7591 2.5914 1.49955 0
M  V30 173 H 15.3051 1.24709 0.719982 0
M  V30 174 H 17.2581 1.80715 3.80684 0
M  V30 175 H 15.9821 0.732524 3.18279 0
M  V30 176 H 14.6411 2.73283 2.44361 0
M  V30 177 H 14.2891 1.74938 4.71599 0
M  V30 178 H 13.9891 3.50541 4.71588 0
M  V30 179 H 15.5131 2.86401 5.39265 0
M  V30 180 H 16.9271 4.37898 3.70024 0
M  V30 181 H 15.3241 5.03735 3.26146 0
M  V30 182 H 16.3941 4.42244 1.98867 0
M  V30 183 N 17.7372 -0.778329 1.37039 0
M  V30 184 C 18.6672 -1.90546 1.34962 0
M  V30 185 C 19.6482 -1.68681 0.219274 0
M  V30 186 O 20.8332 -1.89634 0.418624 0
M  V30 187 C 17.9632 -3.27734 1.14925 0
M  V30 188 C 16.9172 -3.64147 2.24902 0
M  V30 189 C 16.2432 -4.99806 1.89996 0
M  V30 190 C 17.5432 -3.71579 3.67051 0
M  V30 191 H 19.2372 -1.92541 2.29277 0
M  V30 192 H 16.7832 -0.924948 1.10366 0
M  V30 193 H 18.7362 -4.06215 1.12104 0
M  V30 194 H 17.4602 -3.26154 0.170631 0
M  V30 195 H 16.1192 -2.8797 2.26868 0
M  V30 196 H 15.7672 -4.94759 0.906796 0
M  V30 197 H 15.4672 -5.25139 2.63634 0
M  V30 198 H 16.9912 -5.80694 1.88749 0
M  V30 199 H 18.4052 -4.40227 3.67251 0
M  V30 200 H 16.8022 -4.08405 4.39688 0
M  V30 201 H 17.8722 -2.72404 4.01154 0
M  V30 202 N 19.2153 -1.21501 -1.00376 0
M  V30 203 C 20.1783 -0.976927 -2.07337 0
M  V30 204 C 21.1783 0.0525322 -1.60714 0
M  V30 205 O 22.3683 -0.184869 -1.73216 0
M  V30 206 C 19.5003 -0.473423 -3.37597 0
M  V30 207 H 20.6933 -1.92587 -2.29892 0
M  V30 208 H 18.2463 -1.03217 -1.17371 0
M  V30 209 H 18.9813 0.480379 -3.20722 0
M  V30 210 H 18.7663 -1.216 -3.72768 0
M  V30 211 H 20.2563 -0.32675 -4.1632 0
M  V30 212 N 20.6934 1.19889 -1.02296 0
M  V30 213 C 21.6234 2.25141 -0.619174 0
M  V30 214 C 22.6044 1.66051 0.368915 0
M  V30 215 O 23.7894 1.92546 0.252941 0
M  V30 216 C 20.9194 3.4728 0.0368783 0
M  V30 217 C 19.8734 4.19005 -0.872865 0
M  V30 218 C 19.1994 5.34637 -0.0822402 0
M  V30 219 C 20.4994 4.74452 -2.18387 0
M  V30 220 H 22.1934 2.59171 -1.49903 0
M  V30 221 H 19.7394 1.24579 -0.722222 0
M  V30 222 H 21.6924 4.20098 0.330958 0
M  V30 223 H 20.4164 3.12433 0.95149 0
M  V30 224 H 19.0754 3.48061 -1.15105 0
M  V30 225 H 18.7234 4.96034 0.83422 0
M  V30 226 H 18.4234 5.83557 -0.688149 0
M  V30 227 H 19.9474 6.10255 0.205238 0
M  V30 228 H 21.3614 5.39055 -1.95172 0
M  V30 229 H 19.7584 5.33834 -2.74119 0
M  V30 230 H 20.8284 3.92844 -2.84257 0
M  V30 231 N 22.1715 0.800033 1.35784 0
M  V30 232 C 23.4115 0.382891 2.00782 0
M  V30 233 C 23.7755 -1.02891 1.62103 0
M  V30 234 O 24.9765 -1.54771 2.19771 0
M  V30 235 C 23.2475 0.553299 3.53091 0
M  V30 236 S 24.8065 0.225608 4.3822 0
M  V30 237 H 21.6245 0.145737 0.695904 0
M  V30 238 H 24.2265 1.04085 1.65489 0
M  V30 239 H 22.9305 1.58091 3.78729 0
M  V30 240 H 22.4615 -0.120214 3.93216 0
M  V30 241 H 24.4765 -0.969074 4.86645 0
M  V30 242 N 23.6496 -1.47581 0.552962 0
M  V30 243 C 24.8956 -2.03369 0.0355807 0
M  V30 244 C 25.2506 -1.42016 -1.29805 0
M  V30 245 O 24.5436 -0.564917 -1.83083 0
M  V30 246 C 24.7376 -3.57199 -0.119728 0
M  V30 247 C 24.5666 -4.33468 1.1973 0
M  V30 248 C 23.3366 -4.7353 1.76345 0
M  V30 249 C 25.5346 -4.68866 2.11351 0
M  V30 250 N 23.5166 -5.34426 3.02097 0
M  V30 251 C 24.8876 -5.3002 3.21681 0
M  V30 252 C 26.9426 -4.50795 2.11397 0
M  V30 253 C 25.6456 -5.75011 4.32151 0
M  V30 254 C 27.6716 -4.96782 3.20876 0
M  V30 255 C 27.0336 -5.57981 4.29926 0
M  V30 256 H 23.1326 -0.780058 0.0550806 0
M  V30 257 H 25.7166 -1.80117 0.739315 0
M  V30 258 H 23.8876 -3.80227 -0.792579 0
M  V30 259 H 25.6196 -3.99627 -0.638792 0
M  V30 260 H 22.3746 -4.55352 1.30196 0
M  V30 261 H 22.7986 -5.69421 3.66182 0
M  V30 262 H 27.4406 -4.0284 1.28372 0
M  V30 263 H 25.1586 -6.21959 5.15938 0
M  V30 264 H 28.7446 -4.84573 3.21994 0
M  V30 265 H 27.6246 -5.92918 5.13243 0
M  V30 266 N 25.1277 -0.289203 -1.54924 0
M  V30 267 C 26.0377 0.601863 -2.26748 0
M  V30 268 C 27.0537 1.15834 -1.2984 0
M  V30 269 O 28.2297 1.18564 -1.62802 0
M  V30 270 C 25.2947 1.76299 -2.98529 0
M  V30 271 C 24.3557 1.24178 -4.10948 0
M  V30 272 C 23.5887 2.34757 -4.79296 0
M  V30 273 O 23.8117 3.54411 -4.46933 0
M  V30 274 O 22.7457 2.02115 -5.66951 0
M  V30 275 H 26.5717 0.0195879 -3.03694 0
M  V30 276 H 24.1567 -0.0560868 -1.49295 0
M  V30 277 H 26.0387 2.43973 -3.43592 0
M  V30 278 H 24.7137 2.33209 -2.24488 0
M  V30 279 H 23.6207 0.531104 -3.70311 0
M  V30 280 H 24.9537 0.718252 -4.86931 0
M  V30 281 N 26.6058 1.57591 -0.0167156 0
M  V30 282 C 28.0218 1.55946 0.339557 0
M  V30 283 C 28.2218 1.02109 1.73713 0
M  V30 284 O 27.2778 0.662303 2.43659 0
M  V30 285 C 28.5908 3.00037 0.199499 0
M  V30 286 C 30.1388 3.11805 0.273193 0
M  V30 287 C 30.6138 4.57713 0.162068 0
M  V30 288 N 32.1048 4.6268 0.219444 0
M  V30 289 C 32.8398 5.73185 0.157054 0
M  V30 290 N 32.3358 6.92786 0.0442936 0
M  V30 291 N 34.1288 5.61707 0.21014 0
M  V30 292 H 26.2798 1.90921 -0.930758 0
M  V30 293 H 28.5428 0.877674 -0.358319 0
M  V30 294 H 28.2488 3.4333 -0.76273 0
M  V30 295 H 28.1228 3.64387 0.974786 0
M  V30 296 H 30.5098 2.68433 1.22587 0
M  V30 297 H 30.5908 2.50201 -0.532256 0
M  V30 298 H 30.2348 5.01763 -0.78714 0
M  V30 299 H 30.1648 5.17283 0.986222 0
M  V30 300 H 32.6558 3.76649 0.307246 0
M  V30 301 H 32.9688 7.728 0.00304069 0
M  V30 302 H 31.3138 6.94999 0.00968457 0
M  V30 303 H 34.5048 4.6716 0.296546 0
M  V30 304 H 34.6778 6.47807 0.158054 0
M  V30 305 N 28.0839 -0.256276 1.55502 0
M  V30 306 C 29.3089 -1.00766 1.81276 0
M  V30 307 C 29.7339 -1.78524 0.59252 0
M  V30 308 O 29.0919 -1.75413 -0.45827 0
M  V30 309 C 29.1399 -1.92869 3.04687 0
M  V30 310 O 28.2439 -3.019 2.80945 0
M  V30 311 H 27.5849 -0.287224 0.598664 0
M  V30 312 H 30.1149 -0.280109 2.02674 0
M  V30 313 H 30.1249 -2.34511 3.33869 0
M  V30 314 H 28.7999 -1.35689 3.93143 0
M  V30 315 H 27.3769 -2.64454 2.62904 0
M  V30 316 N 29.562 -1.4872 -0.521534 0
M  V30 317 C 30.492 -1.66771 -1.63431 0
M  V30 318 C 31.473 -0.516499 -1.62069 0
M  V30 319 O 32.658 -0.750013 -1.79132 0
M  V30 320 C 29.788 -1.71515 -3.01993 0
M  V30 321 C 28.742 -2.86222 -3.18216 0
M  V30 322 C 28.068 -2.76061 -4.57924 0
M  V30 323 C 29.368 -4.27419 -3.00184 0
M  V30 324 H 31.062 -2.59932 -1.48579 0
M  V30 325 H 28.608 -1.25089 -0.713358 0
M  V30 326 H 30.561 -1.82731 -3.7972 0
M  V30 327 H 29.285 -0.749393 -3.17886 0
M  V30 328 H 27.944 -2.74575 -2.42908 0
M  V30 329 H 27.592 -1.77437 -4.70665 0
M  V30 330 H 27.292 -3.53037 -4.69722 0
M  V30 331 H 28.816 -2.89256 -5.37739 0
M  V30 332 H 30.23 -4.39855 -3.67697 0
M  V30 333 H 28.627 -5.05458 -3.2347 0
M  V30 334 H 29.697 -4.43293 -1.96518 0
M  V30 335 N 31.0401 0.771051 -1.3745 0
M  V30 336 C 32.0031 1.86598 -1.33093 0
M  V30 337 C 33.0031 1.59076 -0.234845 0
M  V30 338 O 34.1931 1.67145 -0.490732 0
M  V30 339 C 31.3251 3.23747 -1.06773 0
M  V30 340 H 32.5181 1.91873 -2.30488 0
M  V30 341 H 30.0711 0.970876 -1.2249 0
M  V30 342 H 30.8061 3.24148 -0.099129 0
M  V30 343 H 30.5911 3.45115 -1.86112 0
M  V30 344 H 32.0811 4.03824 -1.06377 0
M  V30 345 N 32.5182 1.22032 0.997298 0
M  V30 346 C 33.7662 1.04016 1.73278 0
M  V30 347 C 34.0872 -0.426255 1.90284 0
M  V30 348 O 33.3572 -1.30694 1.45931 0
M  V30 349 H 31.9372 0.381897 0.642 0
M  V30 350 H 34.5992 1.5347 1.20137 0
M  V30 351 H 33.6952 1.51441 2.72896 0
M  V30 352 N 33.9963 -1.19345 1.0293 0
M  V30 353 C 34.9593 -2.20793 0.615069 0
M  V30 354 C 35.9593 -1.57553 -0.321533 0
M  V30 355 O 37.1493 -1.73862 -0.108483 0
M  V30 356 C 34.2813 -3.40754 -0.0999222 0
M  V30 357 H 35.4743 -2.58955 1.51269 0
M  V30 358 H 33.0273 -1.3303 0.820534 0
M  V30 359 H 33.7623 -3.0811 -1.01187 0
M  V30 360 H 33.5473 -3.87889 0.57309 0
M  V30 361 H 35.0373 -4.15898 -0.376645 0
M  V30 362 N 35.4744 -0.807222 -1.35358 0
M  V30 363 C 36.3844 -0.219594 -2.3357 0
M  V30 364 C 37.4004 0.637734 -1.61892 0
M  V30 365 O 38.5764 0.549336 -1.93763 0
M  V30 366 C 35.6414 0.62158 -3.41083 0
M  V30 367 C 34.7024 -0.256315 -4.28534 0
M  V30 368 C 33.9354 0.544807 -5.30912 0
M  V30 369 O 34.1584 1.77944 -5.41934 0
M  V30 370 O 33.0924 -0.0646478 -6.01865 0
M  V30 371 H 36.9184 -1.03208 -2.85625 0
M  V30 372 H 34.5034 -0.569025 -1.38139 0
M  V30 373 H 36.3854 1.10067 -4.06772 0
M  V30 374 H 35.0604 1.41165 -2.91297 0
M  V30 375 H 33.9674 -0.782559 -3.65823 0
M  V30 376 H 35.3004 -1.01034 -4.81719 0
M  V30 377 N 36.9525 1.47285 -0.560781 0
M  V30 378 C 37.8625 2.33846 0.187954 0
M  V30 379 C 38.8785 1.48412 0.908293 0
M  V30 380 O 40.0545 1.81332 0.876388 0
M  V30 381 C 37.1195 3.25178 1.2025 0
M  V30 382 C 36.1805 4.26504 0.489208 0
M  V30 383 C 35.4135 5.13472 1.45542 0
M  V30 384 O 35.6365 5.02959 2.6905 0
M  V30 385 O 34.5705 5.93902 0.977963 0
M  V30 386 H 38.3965 2.99177 -0.522177 0
M  V30 387 H 35.9815 1.45903 -0.321364 0
M  V30 388 H 37.8635 3.81584 1.78805 0
M  V30 389 H 36.5385 2.6247 1.89449 0
M  V30 390 H 35.4455 3.73847 -0.137627 0
M  V30 391 H 36.7785 4.91935 -0.161399 0
M  V30 392 N 38.4306 0.297415 1.54768 0
M  V30 393 C 39.6586 -0.315623 2.04478 0
M  V30 394 C 40.0736 -1.47792 1.17486 0
M  V30 395 O 39.4306 -1.81404 0.19971 0
M  V30 396 C 39.4816 -0.7753 3.53088 0
M  V30 397 O 39.2026 0.340732 4.36773 0
M  V30 398 C 40.7036 -1.45386 4.18781 0
M  V30 399 H 37.9236 -0.0690887 0.667434 0
M  V30 400 H 40.4676 0.436003 1.99798 0
M  V30 401 H 38.6226 -1.47696 3.58141 0
M  V30 402 H 39.0366 -0.0165035 5.24497 0
M  V30 403 H 40.5106 -1.72669 5.24299 0
M  V30 404 H 40.9876 -2.39275 3.68299 0
M  V30 405 H 41.5936 -0.795475 4.17795 0
M  V30 406 N 39.9087 -1.5758 0.0250728 0
M  V30 407 C 41.1577 -1.90811 -0.653767 0
M  V30 408 C 41.4707 -0.90273 -1.73523 0
M  V30 409 O 42.6767 -1.12614 -2.47043 0
M  V30 410 C 41.1327 -3.38804 -1.21409 0
M  V30 411 C 40.7407 -4.47692 -0.166126 0
M  V30 412 C 42.4847 -3.81108 -1.86967 0
M  V30 413 C 40.3917 -5.86779 -0.737856 0
M  V30 414 H 39.3217 -0.712063 -0.247956 0
M  V30 415 H 41.9727 -1.83281 0.0897137 0
M  V30 416 H 40.3547 -3.41252 -2.00905 0
M  V30 417 H 41.5287 -4.56797 0.606079 0
M  V30 418 H 39.8437 -4.14565 0.390466 0
M  V30 419 H 42.4407 -4.82375 -2.30692 0
M  V30 420 H 42.7837 -3.15953 -2.71071 0
M  V30 421 H 43.3167 -3.81065 -1.14167 0
M  V30 422 H 40.0557 -6.55468 0.0649577 0
M  V30 423 H 39.5757 -5.81288 -1.47864 0
M  V30 424 H 41.2547 -6.35223 -1.22884 0
M  V30 425 N 41.3868 0.248026 -1.55636 0
M  V30 426 C 42.7978 0.817177 -1.67866 0
M  V30 427 C 43.1488 1.86069 -0.622322 0
M  V30 428 O 42.2738 2.15157 0.231618 0
M  V30 429 C 42.8688 1.489 -3.04326 0
M  V30 430 C 41.4278 2.00587 -3.185 0
M  V30 431 C 40.5748 0.856573 -2.63739 0
M  V30 432 H 43.5258 0.0238579 -1.58682 0
M  V30 433 H 43.5468 2.35698 -2.98708 0
M  V30 434 H 43.0588 0.729279 -3.81186 0
M  V30 435 H 41.1598 2.79443 -2.4646 0
M  V30 436 H 41.2728 2.20402 -4.25393 0
M  V30 437 H 39.6368 1.25678 -2.21534 0
M  V30 438 H 40.4198 0.109953 -3.43124 0
M  V30 439 N 42.8649 1.48995 0.513639 0
M  V30 440 C 43.7949 1.67636 1.62544 0
M  V30 441 C 44.7759 0.525087 1.61793 0
M  V30 442 O 45.9609 0.759502 1.78732 0
M  V30 443 C 43.0909 1.73114 3.01079 0
M  V30 444 C 42.0449 2.87905 3.16693 0
M  V30 445 C 41.3709 2.78486 4.56453 0
M  V30 446 C 42.6709 4.29005 2.97913 0
M  V30 447 H 44.3649 2.60716 1.47198 0
M  V30 448 H 41.9109 1.25465 0.706714 0
M  V30 449 H 43.8639 1.84742 3.78746 0
M  V30 450 H 42.5879 0.766241 3.17484 0
M  V30 451 H 41.2469 2.75859 2.41448 0
M  V30 452 H 40.8949 1.7993 4.69717 0
M  V30 453 H 40.5949 3.55523 4.67843 0
M  V30 454 H 42.1189 2.92104 5.36197 0
M  V30 455 H 43.5329 4.41798 3.65359 0
M  V30 456 H 41.9299 5.07166 3.20785 0
M  V30 457 H 42.9999 4.44329 1.94165 0
M  V30 458 N 44.343 -0.763751 1.37857 0
M  V30 459 C 45.275 -1.88664 1.30148 0
M  V30 460 C 46.288 -1.61365 0.215685 0
M  V30 461 O 47.477 -1.72134 0.472459 0
M  V30 462 C 44.577 -3.24075 0.991396 0
M  V30 463 C 43.75 -3.78958 2.18426 0
M  V30 464 C 42.809 -4.92862 1.8432 0
M  V30 465 O 41.835 -5.08027 2.56704 0
M  V30 466 N 43.037 -5.75071 0.792081 0
M  V30 467 H 45.802 -1.95791 2.26905 0
M  V30 468 H 43.363 -0.943226 1.31586 0
M  V30 469 H 45.355 -3.97804 0.743935 0
M  V30 470 H 43.925 -3.12399 0.112122 0
M  V30 471 H 43.145 -2.96913 2.59299 0
M  V30 472 H 44.433 -4.12357 2.98058 0
M  V30 473 H 43.831 -5.65375 0.191595 0
M  V30 474 H 42.388 -6.48991 0.60449 0
M  V30 475 N 45.8211 -1.22559 -0.990812 0
M  V30 476 C 47.0491 -1.07779 -1.76611 0
M  V30 477 C 47.4641 0.371513 -1.85109 0
M  V30 478 O 46.8211 1.25737 -1.32274 0
M  V30 479 C 46.8721 -1.68512 -3.19822 0
M  V30 480 O 46.5931 -3.07774 -3.1178 0
M  V30 481 C 48.0941 -1.59035 -4.13791 0
M  V30 482 H 45.3141 -0.377729 -0.554583 0
M  V30 483 H 47.8581 -1.62195 -1.24551 0
M  V30 484 H 46.0131 -1.18154 -3.68942 0
M  V30 485 H 46.4271 -3.37062 -4.01858 0
M  V30 486 H 47.9011 -2.0625 -5.1202 0
M  V30 487 H 48.3781 -0.547273 -4.35777 0
M  V30 488 H 48.9841 -2.08709 -3.70568 0
M  V30 489 N 47.2992 1.18797 -1.03562 0
M  V30 490 C 48.2292 2.24472 -0.643019 0
M  V30 491 C 49.2102 1.66433 0.351283 0
M  V30 492 O 50.3952 1.92803 0.232505 0
M  V30 493 C 47.5252 3.473 4.24935e-05 0
M  V30 494 C 46.4792 4.18055 -0.917257 0
M  V30 495 C 45.8052 5.34519 -0.138941 0
M  V30 496 C 47.1052 4.72109 -2.23407 0
M  V30 497 H 48.7992 2.57566 -1.52643 0
M  V30 498 H 46.3452 1.23806 -0.735394 0
M  V30 499 H 48.2982 4.20426 0.286383 0
M  V30 500 H 47.0222 3.13424 0.918299 0
M  V30 501 H 45.6812 3.46821 -1.1879 0
M  V30 502 H 45.3292 4.96891 0.781562 0
M  V30 503 H 45.0292 5.82794 -0.750005 0
M  V30 504 H 46.5532 6.10438 0.1405 0
M  V30 505 H 47.9672 5.36955 -2.00879 0
M  V30 506 H 46.3642 5.30897 -2.79765 0
M  V30 507 H 47.4342 3.89807 -2.88407 0
M  V30 508 N 48.7773 0.814389 1.34928 0
M  V30 509 C 50.1933 0.499084 1.51596 0
M  V30 510 C 50.3933 -0.978319 1.76157 0
M  V30 511 O 49.4493 -1.76309 1.80752 0
M  V30 512 C 50.7623 1.35121 2.68631 0
M  V30 513 C 52.3103 1.34746 2.82511 0
M  V30 514 C 52.7853 2.18388 4.0258 0
M  V30 515 N 54.2763 2.15966 4.09772 0
M  V30 516 C 55.0113 2.77437 5.01813 0
M  V30 517 N 54.5073 3.47866 5.99134 0
M  V30 518 N 56.3003 2.67037 4.94619 0
M  V30 519 H 48.4513 1.7711 1.17243 0
M  V30 520 H 50.7143 0.754256 0.574284 0
M  V30 521 H 50.4203 2.40001 2.57085 0
M  V30 522 H 50.2943 1.00991 3.63429 0
M  V30 523 H 52.6813 0.30648 2.93504 0
M  V30 524 H 52.7623 1.72869 1.88547 0
M  V30 525 H 52.4063 3.2253 3.92347 0
M  V30 526 H 52.3363 1.77621 4.9574 0
M  V30 527 H 54.8273 1.64729 3.40107 0
M  V30 528 H 55.1403 3.92038 6.65977 0
M  V30 529 H 53.4853 3.51972 5.99284 0
M  V30 530 H 56.6763 2.11597 4.17546 0
M  V30 531 H 56.8493 3.15232 5.66156 0
M  V30 532 N 50.2554 -1.46986 0.568584 0
M  V30 533 C 51.4954 -2.04336 0.0512999 0
M  V30 534 C 51.8594 -1.43214 -1.27881 0
M  V30 535 O 53.0604 -1.91679 -1.88448 0
M  V30 536 C 51.3314 -3.57389 -0.0282328 0
M  V30 537 S 52.8904 -4.36056 -0.489991 0
M  V30 538 H 49.7084 -0.71034 0.0306349 0
M  V30 539 H 52.3104 -1.80212 0.757891 0
M  V30 540 H 51.0144 -3.99395 0.944011 0
M  V30 541 H 50.5454 -3.86028 -0.75803 0
M  V30 542 H 52.5604 -4.6441 -1.74752 0
M  V30 543 N 51.7335 -0.305618 -1.54608 0
M  V30 544 C 52.9635 0.304333 -2.04346 0
M  V30 545 C 53.3715 1.47715 -1.18224 0
M  V30 546 O 52.7145 1.82591 -0.201577 0
M  V30 547 C 52.7765 0.819031 -3.50046 0
M  V30 548 C 52.4405 -0.22912 -4.56425 0
M  V30 549 C 53.4375 -1.05914 -5.08997 0
M  V30 550 C 51.1225 -0.372148 -5.0092 0
M  V30 551 C 53.1165 -2.01809 -6.04609 0
M  V30 552 C 50.8035 -1.33454 -5.9635 0
M  V30 553 C 51.8015 -2.15599 -6.48079 0
M  V30 554 O 51.4895 -3.10205 -7.41639 0
M  V30 555 H 51.2215 0.0693996 -0.672428 0
M  V30 556 H 53.7755 -0.444548 -2.00532 0
M  V30 557 H 52.0055 1.61852 -3.51199 0
M  V30 558 H 53.6945 1.34537 -3.82955 0
M  V30 559 H 54.4605 -0.959538 -4.75413 0
M  V30 560 H 50.3395 0.257304 -4.60281 0
M  V30 561 H 53.8835 -2.65966 -6.44909 0
M  V30 562 H 49.7805 -1.43485 -6.29351 0
M  V30 563 H 50.5485 -3.05237 -7.59455 0
M  V30 564 N 53.2116 1.57565 -0.0334293 0
M  V30 565 C 54.1596 2.1164 0.96496 0
M  V30 566 C 55.1536 1.04398 1.33407 0
M  V30 567 O 56.3596 1.22828 1.3158 0
M  V30 568 H 52.7346 0.676222 0.32898 0
M  V30 569 H 54.7056 2.94455 0.483614 0
M  V30 570 C 53.4546 2.66207 2.23672 0
M  V30 571 H 52.7776 3.48378 1.96145 0
M  V30 572 H 54.2176 3.07685 2.9173 0
M  V30 573 C 52.6766 1.59151 2.96939 0
M  V30 574 O 53.2066 0.993858 3.89211 0
M  V30 575 N 51.4126 1.31093 2.59351 0
M  V30 576 H 50.9596 1.7988 1.84393 0
M  V30 577 H 50.9176 0.596889 3.08682 0
M  V30 578 N 54.6897 -0.239769 1.55765 0
M  V30 579 C 55.9667 -0.990056 1.68693 0
M  V30 580 C 56.3467 -2.03107 0.5754 0
M  V30 581 O 55.6947 -2.24604 -0.42017 0
M  V30 582 C 55.9047 -1.61696 3.09282 0
M  V30 583 C 57.2527 -2.11613 3.6811 0
M  V30 584 O 58.2767 -1.71624 3.12127 0
M  V30 585 O 57.1357 -2.85057 4.66267 0
M  V30 586 H 54.2297 -0.461299 0.686391 0
M  V30 587 H 56.7757 -0.232991 1.68093 0
M  V30 588 H 55.5477 -0.864357 3.81634 0
M  V30 589 H 55.1707 -2.44005 3.13923 0
M  V30 590 N 56.1678 -1.49265 -0.50573 0
M  V30 591 C 57.3978 -1.61979 -1.28243 0
M  V30 592 C 57.8058 -0.288576 -1.86986 0
M  V30 593 O 57.1488 0.735408 -1.68337 0
M  V30 594 C 57.2108 -2.62632 -2.45489 0
M  V30 595 C 56.8748 -4.071 -2.07651 0
M  V30 596 C 57.8718 -4.94049 -1.61901 0
M  V30 597 C 55.5568 -4.52801 -2.17431 0
M  V30 598 C 57.5508 -6.24736 -1.26428 0
M  V30 599 C 55.2378 -5.83503 -1.8157 0
M  V30 600 C 56.2358 -6.69294 -1.36142 0
M  V30 601 O 55.9238 -7.9756 -1.00764 0
M  V30 602 H 55.6558 -0.54834 -0.395347 0
M  V30 603 H 58.2098 -1.96002 -0.614204 0
M  V30 604 H 56.4398 -2.2378 -3.15372 0
M  V30 605 H 58.1288 -2.64925 -3.07522 0
M  V30 606 H 58.8948 -4.5997 -1.53795 0
M  V30 607 H 54.7738 -3.86196 -2.51742 0
M  V30 608 H 58.3178 -6.91652 -0.908992 0
M  V30 609 H 54.2148 -6.17112 -1.89324 0
M  V30 610 H 54.9828 -8.10529 -1.13952 0
M  V30 611 N 57.6459 0.756429 -1.3826 0
M  V30 612 C 58.8739 1.54565 -1.3754 0
M  V30 613 C 59.2889 1.88767 0.0355331 0
M  V30 614 O 58.6459 1.52572 1.0014 0
M  V30 615 C 58.6969 2.84654 -2.22833 0
M  V30 616 O 58.4179 2.51912 -3.5843 0
M  V30 617 C 59.9189 3.78807 -2.30261 0
M  V30 618 H 57.1389 0.478353 -0.470553 0
M  V30 619 H 59.6829 0.936381 -1.81803 0
M  V30 620 H 57.8379 3.41965 -1.8204 0
M  V30 621 H 58.2519 3.35325 -4.03308 0
M  V30 622 H 59.7259 4.67045 -2.94233 0
M  V30 623 H 60.2029 4.19038 -1.31545 0
M  V30 624 H 60.8089 3.2742 -2.71433 0
M  V30 625 N 59.124 1.23083 0.984299 0
M  V30 626 C 60.349 1.088 1.76571 0
M  V30 627 C 60.774 -0.356657 1.84688 0
M  V30 628 O 60.132 -1.25788 1.30565 0
M  V30 629 C 60.18 1.71371 3.17277 0
M  V30 630 O 59.284 0.973213 4.00752 0
M  V30 631 H 58.625 0.381599 0.543395 0
M  V30 632 H 61.155 1.63057 1.23587 0
M  V30 633 H 61.165 1.76449 3.67872 0
M  V30 634 H 59.84 2.76493 3.10684 0
M  V30 635 H 58.417 0.999078 3.59267 0
M  V30 636 N 60.6021 -1.18246 1.0419 0
M  V30 637 C 61.5521 -2.19843 0.604392 0
M  V30 638 C 62.5361 -1.56962 -0.353814 0
M  V30 639 O 63.7281 -1.76156 -0.17267 0
M  V30 640 C 60.8571 -3.43287 -0.0298975 0
M  V30 641 C 59.9431 -4.13288 0.951531 0
M  V30 642 N 60.3341 -4.59271 2.11906 0
M  V30 643 C 58.6321 -4.39165 0.7778 0
M  V30 644 C 59.3331 -5.13173 2.73912 0
M  V30 645 N 58.3091 -5.04763 2.01779 0
M  V30 646 H 62.1111 -2.53089 1.4941 0
M  V30 647 H 59.6251 -1.34465 0.910658 0
M  V30 648 H 61.6221 -4.15334 -0.361037 0
M  V30 649 H 60.2821 -3.11537 -0.915127 0
M  V30 650 H 61.2931 -4.5368 2.49789 0
M  V30 651 H 57.9701 -4.17461 -0.0572331 0
M  V30 652 H 59.3601 -5.58947 3.72864 0
M  V30 653 N 62.0802 -0.821533 -1.34494 0
M  V30 654 C 63.3292 -0.405355 -1.97585 0
M  V30 655 C 63.6422 1.03677 -1.65863 0
M  V30 656 O 64.8482 1.55679 -2.22433 0
M  V30 657 C 63.3042 -0.673861 -3.53535 0
M  V30 658 C 62.9122 -2.12951 -3.94152 0
M  V30 659 C 64.6562 -0.32378 -4.23263 0
M  V30 660 C 62.5632 -2.34298 -5.43009 0
M  V30 661 H 61.4932 -0.147836 -0.739365 0
M  V30 662 H 64.1442 -1.00769 -1.53355 0
M  V30 663 H 62.5262 -0.00137554 -3.96 0
M  V30 664 H 63.7002 -2.84104 -3.62797 0
M  V30 665 H 62.0152 -2.44089 -3.37356 0
M  V30 666 H 64.6122 -0.461126 -5.32708 0
M  V30 667 H 64.9552 0.731586 -4.09821 0
M  V30 668 H 65.4882 -0.950786 -3.8627 0
M  V30 669 H 62.2272 -3.38335 -5.61435 0
M  V30 670 H 61.7472 -1.67687 -5.75883 0
M  V30 671 H 63.4262 -2.16588 -6.09671 0
M  V30 672 N 63.5583 1.46682 -0.576371 0
M  V30 673 C 64.7863 2.06798 -0.0649635 0
M  V30 674 C 65.2013 1.42612 1.23723 0
M  V30 675 O 64.5583 0.529203 1.74659 0
M  V30 676 C 64.6093 3.6132 0.114202 0
M  V30 677 O 64.3303 4.23104 -1.13644 0
M  V30 678 C 65.8313 4.38349 0.66069 0
M  V30 679 H 63.0513 0.668778 -0.0545616 0
M  V30 680 H 65.5953 1.88404 -0.795237 0
M  V30 681 H 63.7503 3.79162 0.794673 0
M  V30 682 H 64.1643 5.15894 -0.946253 0
M  V30 683 H 65.6383 5.47081 0.73526 0
M  V30 684 H 66.1153 4.05953 1.67627 0
M  V30 685 H 66.7213 4.25297 0.0152951 0
M  V30 686 N 65.0364 0.313813 1.54444 0
M  V30 687 C 66.2764 -0.292389 2.02298 0
M  V30 688 C 66.6404 -1.50105 1.19719 0
M  V30 689 O 67.8414 -2.17947 1.5733 0
M  V30 690 C 66.1124 -0.627682 3.51845 0
M  V30 691 S 67.6714 -1.21493 4.21646 0
M  V30 692 H 64.4894 -0.0890247 0.705405 0
M  V30 693 H 67.0914 0.444668 1.90376 0
M  V30 694 H 65.7954 0.260265 4.09574 0
M  V30 695 H 65.3264 -1.39519 3.67829 0
M  V30 696 H 67.3414 -2.5022 4.28491 0
M  V30 697 N 66.5145 -1.57545 0.0417849 0
M  V30 698 C 67.9305 -1.56467 -0.314704 0
M  V30 699 C 68.1305 -1.04859 -1.72066 0
M  V30 700 O 67.1865 -0.700983 -2.42575 0
M  V30 701 C 68.4995 -3.00317 -0.15174 0
M  V30 702 C 70.0475 -3.12201 -0.223553 0
M  V30 703 C 70.5225 -4.57913 -0.0892295 0
M  V30 704 N 72.0135 -4.6297 -0.145808 0
M  V30 705 C 72.7485 -5.73362 -0.0658459 0
M  V30 706 N 72.2445 -6.92769 0.0659282 0
M  V30 707 N 74.0375 -5.6197 -0.12075 0
M  V30 708 H 66.1885 -1.89416 0.961014 0
M  V30 709 H 68.4515 -0.871862 0.372237 0
M  V30 710 H 68.1575 -3.42073 0.817254 0
M  V30 711 H 68.0315 -3.65892 -0.916692 0
M  V30 712 H 70.4185 -2.70349 -1.18301 0
M  V30 713 H 70.4995 -2.49323 0.571994 0
M  V30 714 H 70.1435 -5.00448 0.866867 0
M  V30 715 H 70.0735 -5.18786 -0.903802 0
M  V30 716 H 72.5645 -3.7709 -0.247286 0
M  V30 717 H 72.8775 -7.72707 0.119905 0
M  V30 718 H 71.2225 -6.94927 0.100885 0
M  V30 719 H 74.4135 -4.67572 -0.222187 0
M  V30 720 H 74.5865 -6.47977 -0.0549735 0
M  V30 721 N 67.9926 0.231505 -1.5589 0
M  V30 722 C 69.2386 0.954429 -1.79617 0
M  V30 723 C 69.5936 1.82367 -0.613199 0
M  V30 724 O 68.8866 1.87524 0.393094 0
M  V30 725 C 69.0806 1.83577 -3.0665 0
M  V30 726 C 68.9096 1.05334 -4.3719 0
M  V30 727 C 67.6796 0.75225 -4.99669 0
M  V30 728 C 69.8776 0.423444 -5.12554 0
M  V30 729 N 67.8596 -0.052627 -6.13877 0
M  V30 730 C 69.2306 -0.245287 -6.19515 0
M  V30 731 C 71.2856 0.335466 -4.96769 0
M  V30 732 C 69.9886 -0.993566 -7.12405 0
M  V30 733 C 72.0146 -0.399321 -5.9005 0
M  V30 734 C 71.3766 -1.05663 -6.9643 0
M  V30 735 H 67.4756 0.329846 -0.709031 0
M  V30 736 H 70.0596 0.226172 -1.93382 0
M  V30 737 H 68.2306 2.53592 -2.94186 0
M  V30 738 H 69.9626 2.49541 -3.18608 0
M  V30 739 H 66.7176 1.06783 -4.61405 0
M  V30 740 H 67.1416 -0.443609 -6.75545 0
M  V30 741 H 71.7836 0.829311 -4.14587 0
M  V30 742 H 69.5016 -1.49896 -7.94076 0
M  V30 743 H 73.0876 -0.468265 -5.79913 0
M  V30 744 H 71.9676 -1.61612 -7.67366 0
M  V30 745 N 69.4707 1.49531 0.497807 0
M  V30 746 C 70.4337 1.65916 1.58128 0
M  V30 747 C 71.4337 0.530825 1.51786 0
M  V30 748 O 72.6237 0.797342 1.54881 0
M  V30 749 C 69.7557 1.65951 2.9778 0
M  V30 750 H 70.9487 2.62556 1.44929 0
M  V30 751 H 68.5017 1.38611 0.722275 0
M  V30 752 H 69.2367 0.709065 3.16453 0
M  V30 753 H 69.0217 2.47897 3.03792 0
M  V30 754 H 70.5117 1.80673 3.76493 0
M  V30 755 N 70.9488 -0.749086 1.3866 0
M  V30 756 C 72.2258 -1.4992 1.25632 0
M  V30 757 C 72.6058 -2.10633 -0.140317 0
M  V30 758 O 71.9538 -1.97437 -1.15025 0
M  V30 759 C 72.1638 -2.56195 2.36992 0
M  V30 760 C 73.5118 -3.22972 2.75634 0
M  V30 761 O 74.5358 -2.66502 2.36337 0
M  V30 762 O 73.3948 -4.25122 3.43415 0
M  V30 763 H 70.4888 -0.665067 0.491544 0
M  V30 764 H 73.0348 -0.784113 1.50498 0
M  V30 765 H 71.8068 -2.09612 3.30422 0
M  V30 766 H 71.4298 -3.35279 2.13714 0
M  V30 767 N 72.4269 -1.23603 -0.977757 0
M  V30 768 C 73.6549 -1.09646 -1.75458 0
M  V30 769 C 74.0699 0.351859 -1.85492 0
M  V30 770 O 73.4269 1.24327 -1.336 0
M  V30 771 C 73.4779 -1.71895 -3.18016 0
M  V30 772 O 73.1989 -3.11063 -3.08498 0
M  V30 773 C 74.6999 -1.63415 -4.12081 0
M  V30 774 H 71.9199 -0.38359 -0.550545 0
M  V30 775 H 74.4639 -1.63507 -1.22824 0
M  V30 776 H 72.6189 -1.22061 -3.67668 0
M  V30 777 H 73.0329 -3.41305 -3.9826 0
M  V30 778 H 74.5069 -2.11669 -5.09804 0
M  V30 779 H 74.9839 -0.593462 -4.35172 0
M  V30 780 H 75.5899 -2.12628 -3.68334 0
M  V30 781 N 73.905 1.17692 -1.04816 0
M  V30 782 C 74.837 2.21103 -0.603822 0
M  V30 783 C 75.85 1.59411 0.33046 0
M  V30 784 O 77.039 1.7807 0.12379 0
M  V30 785 C 74.139 3.38623 0.136898 0
M  V30 786 C 73.312 4.29888 -0.807137 0
M  V30 787 C 72.371 5.26088 -0.10836 0
M  V30 788 O 71.397 5.64353 -0.741232 0
M  V30 789 N 72.599 5.68882 1.15558 0
M  V30 790 H 75.364 2.59848 -1.49329 0
M  V30 791 H 72.925 1.32553 -0.929587 0
M  V30 792 H 74.917 4.00009 0.614401 0
M  V30 793 H 73.487 2.98508 0.927993 0
M  V30 794 H 72.707 3.65993 -1.46434 0
M  V30 795 H 73.995 4.87759 -1.44807 0
M  V30 796 H 73.393 5.39861 1.69015 0
M  V30 797 H 71.95 6.32429 1.57722 0
M  V30 798 N 75.3831 0.828654 1.34056 0
M  V30 799 C 76.6601 0.341809 1.9259 0
M  V30 800 C 77.0401 -1.17158 1.75605 0
M  V30 801 O 76.3881 -1.98132 1.13824 0
M  V30 802 C 76.5981 0.777453 3.4023 0
M  V30 803 C 77.9461 0.779579 4.17382 0
M  V30 804 O 78.9701 0.7204 3.48839 0
M  V30 805 O 77.8291 0.857996 5.39723 0
M  V30 806 H 74.9231 0.0946085 0.821571 0
M  V30 807 H 77.4691 0.913827 1.42994 0
M  V30 808 H 76.2411 1.8196 3.46419 0
M  V30 809 H 75.8641 0.181444 3.97186 0
M  V30 810 N 76.8612 -1.46375 0.584142 0
M  V30 811 C 77.8242 -2.28784 -0.138108 0
M  V30 812 C 78.8242 -1.38471 -0.817462 0
M  V30 813 O 80.0142 -1.60833 -0.669199 0
M  V30 814 C 77.1462 -3.18892 -1.20503 0
M  V30 815 H 78.3392 -2.94117 0.586127 0
M  V30 816 H 75.8922 -1.52509 0.342171 0
M  V30 817 H 76.6272 -2.58309 -1.96079 0
M  V30 818 H 76.4122 -3.85388 -0.722384 0
M  V30 819 H 77.9022 -3.80914 -1.71155 0
M  V30 820 N 78.3393 -0.321999 -1.54275 0
M  V30 821 C 79.2713 0.578671 -2.21775 0
M  V30 822 C 80.2843 1.08109 -1.21722 0
M  V30 823 O 81.4733 0.994938 -1.482 0
M  V30 824 C 78.5733 1.80661 -2.86731 0
M  V30 825 C 77.7463 1.44314 -4.12907 0
M  V30 826 C 76.8053 2.52845 -4.61472 0
M  V30 827 O 75.8313 2.17054 -5.2619 0
M  V30 828 N 77.0333 3.83748 -4.35566 0
M  V30 829 H 79.7983 0.000709447 -2.997 0
M  V30 830 H 77.3593 -0.145132 -1.61248 0
M  V30 831 H 79.3513 2.52655 -3.16145 0
M  V30 832 H 77.9213 2.29245 -2.12521 0
M  V30 833 H 77.1413 0.554906 -3.90275 0
M  V30 834 H 78.4293 1.17598 -4.95023 0
M  V30 835 H 77.8273 4.15625 -3.83761 0
M  V30 836 H 76.3843 4.51977 -4.69638 0
M  V30 837 N 79.8174 1.5752 -0.0501392 0
M  V30 838 C 81.2334 1.56631 0.306402 0
M  V30 839 C 81.4334 1.0577 1.71508 0
M  V30 840 O 80.4894 0.713837 2.422 0
M  V30 841 C 81.8024 3.00393 0.135811 0
M  V30 842 C 83.3504 3.12315 0.206993 0
M  V30 843 C 83.8254 4.57954 0.064944 0
M  V30 844 N 85.3164 4.63041 0.121254 0
M  V30 845 C 86.0514 5.73389 0.0354381 0
M  V30 846 N 85.5474 6.92724 -0.102666 0
M  V30 847 N 87.3404 5.62026 0.090946 0
M  V30 848 H 79.4914 1.88903 -0.971046 0
M  V30 849 H 81.7544 0.869876 -0.376855 0
M  V30 850 H 81.4604 3.41635 -0.835384 0
M  V30 851 H 81.3344 3.66373 0.897275 0
M  V30 852 H 83.7214 2.70973 1.16866 0
M  V30 853 H 83.8024 2.49016 -0.585208 0
M  V30 854 H 83.4464 4.99981 -0.893394 0
M  V30 855 H 83.3764 5.19258 0.876277 0
M  V30 856 H 85.8674 3.77216 0.227284 0
M  V30 857 H 86.1804 7.72633 -0.160882 0
M  V30 858 H 84.5254 6.94864 -0.137737 0
M  V30 859 H 87.7164 4.67684 0.197388 0
M  V30 860 H 87.8894 6.47997 0.0206089 0
M  V30 861 N 81.2955 -0.223234 1.56011 0
M  V30 862 C 82.2255 -1.27988 1.95298 0
M  V30 863 C 83.2065 -1.48976 0.820979 0
M  V30 864 O 84.3915 -1.61188 1.08315 0
M  V30 865 C 81.5215 -2.63 2.26822 0
M  V30 866 C 80.4755 -2.56671 3.42497 0
M  V30 867 C 79.8015 -3.95697 3.59622 0
M  V30 868 C 81.1015 -2.11601 4.77517 0
M  V30 869 H 82.7955 -0.953525 2.8381 0
M  V30 870 H 80.3415 -0.457244 1.36548 0
M  V30 871 H 82.2945 -3.37077 2.52898 0
M  V30 872 H 81.0185 -2.9732 1.35161 0
M  V30 873 H 79.6775 -1.85051 3.16467 0
M  V30 874 H 79.3255 -4.27322 2.6534 0
M  V30 875 H 79.0255 -3.92345 4.37424 0
M  V30 876 H 80.5495 -4.71438 3.88044 0
M  V30 877 H 81.9635 -2.7542 5.02809 0
M  V30 878 H 80.3605 -2.19311 5.5859 0
M  V30 879 H 81.4305 -1.06824 4.72987 0
M  V30 880 N 82.7736 -1.49793 -0.48987 0
M  V30 881 C 84.0196 -1.60078 -1.24511 0
M  V30 882 C 84.3526 -0.291608 -1.91998 0
M  V30 883 O 83.6276 0.705647 -1.81248 0
M  V30 884 C 83.9106 -2.76791 -2.30345 0
M  V30 885 C 83.7636 -4.17535 -1.67286 0
M  V30 886 C 85.0826 -2.89111 -3.31817 0
M  V30 887 H 82.2016 -0.582645 -0.451324 0
M  V30 888 H 84.8436 -1.82117 -0.541612 0
M  V30 889 H 82.9936 -2.5813 -2.90346 0
M  V30 890 H 84.6656 -4.4774 -1.11026 0
M  V30 891 H 82.9086 -4.22665 -0.976577 0
M  V30 892 H 83.5796 -4.95094 -2.44103 0
M  V30 893 H 86.0556 -3.06133 -2.81819 0
M  V30 894 H 84.9316 -3.72433 -4.03219 0
M  V30 895 H 85.1926 -1.9893 -3.94815 0
M  V30 896 N 84.2517 0.741722 -1.39055 0
M  V30 897 C 85.1997 1.87702 -1.3737 0
M  V30 898 C 86.1937 1.67427 -0.257812 0
M  V30 899 O 87.3997 1.7485 -0.427489 0
M  V30 900 H 83.7747 0.617757 -0.428812 0
M  V30 901 H 85.7457 1.86239 -2.33147 0
M  V30 902 C 84.4947 3.25315 -1.22741 0
M  V30 903 H 83.8177 3.41509 -2.07873 0
M  V30 904 H 85.2577 4.04964 -1.25618 0
M  V30 905 C 83.7167 3.36838 0.0647316 0
M  V30 906 O 84.2467 3.88073 1.03741 0
M  V30 907 N 82.4527 2.90329 0.125544 0
M  V30 908 H 81.9997 2.48823 -0.666682 0
M  V30 909 H 81.9577 2.98418 0.989639 0
M  V30 910 N 85.7298 1.2412 0.971189 0
M  V30 911 C 86.9758 1.08041 1.71625 0
M  V30 912 C 87.3088 -0.380407 1.90438 0
M  V30 913 O 86.5838 -1.28127 1.46334 0
M  V30 914 C 86.8668 1.81682 3.10908 0
M  V30 915 C 86.7198 3.35493 2.99608 0
M  V30 916 C 88.0388 1.58671 4.10501 0
M  V30 917 H 85.1578 0.39388 0.622919 0
M  V30 918 H 87.7998 1.52743 1.13003 0
M  V30 919 H 85.9498 1.43684 3.60953 0
M  V30 920 H 87.6218 3.83068 2.57015 0
M  V30 921 H 85.8648 3.64052 2.35899 0
M  V30 922 H 86.5358 3.82217 3.98264 0
M  V30 923 H 89.0118 1.91719 3.69301 0
M  V30 924 H 87.8878 2.1266 5.06031 0
M  V30 925 H 88.1488 0.524161 4.38982 0
M  V30 926 N 87.2079 -1.17134 1.05439 0
M  V30 927 C 88.4359 -1.91372 0.786414 0
M  V30 928 C 88.8509 -1.76955 -0.658202 0
M  V30 929 O 88.2079 -1.10838 -1.44987 0
M  V30 930 C 88.2589 -3.42356 1.1608 0
M  V30 931 O 87.9799 -3.56332 2.54871 0
M  V30 932 C 89.4809 -4.33663 0.919322 0
M  V30 933 H 86.7009 -0.607118 0.285743 0
M  V30 934 H 89.2449 -1.48525 1.40572 0
M  V30 935 H 87.3999 -3.82939 0.586191 0
M  V30 936 H 87.8139 -4.49896 2.69618 0
M  V30 937 H 89.2879 -5.38099 1.231 0
M  V30 938 H 89.7649 -4.38959 -0.145359 0
M  V30 939 H 90.3709 -3.98796 1.47789 0
M  V30 940 N 88.686 -0.835752 -1.33615 0
M  V30 941 C 89.616 -0.281739 -2.31794 0
M  V30 942 C 90.597 0.608833 -1.58831 0
M  V30 943 O 91.782 0.533035 -1.86741 0
M  V30 944 C 88.912 0.546612 -3.42971 0
M  V30 945 C 87.866 -0.247904 -4.27281 0
M  V30 946 C 87.192 0.704001 -5.30045 0
M  V30 947 C 88.492 -1.46324 -5.01385 0
M  V30 948 H 90.186 -1.10206 -2.78379 0
M  V30 949 H 87.732 -0.531388 -1.33837 0
M  V30 950 H 89.685 0.944467 -4.1068 0
M  V30 951 H 88.409 1.40011 -2.95067 0
M  V30 952 H 87.068 -0.627281 -3.61194 0
M  V30 953 H 86.716 1.55381 -4.78399 0
M  V30 954 H 86.416 0.176524 -5.87335 0
M  V30 955 H 87.94 1.09944 -6.0062 0
M  V30 956 H 89.354 -1.13871 -5.61877 0
M  V30 957 H 87.751 -1.92728 -5.6831 0
M  V30 958 H 88.821 -2.23467 -4.30338 0
M  V30 959 N 90.1641 1.46063 -0.591896 0
M  V30 960 C 91.4131 2.01547 -0.0786637 0
M  V30 961 C 91.7261 1.46796 1.29268 0
M  V30 962 O 92.9321 1.94157 1.89777 0
M  V30 963 C 91.3881 3.59787 -0.0900024 0
M  V30 964 C 90.9961 4.23534 -1.46023 0
M  V30 965 C 92.7401 4.22895 0.368806 0
M  V30 966 C 90.6471 5.73881 -1.4288 0
M  V30 967 H 89.5771 0.753564 -0.0256388 0
M  V30 968 H 92.2281 1.677 -0.744905 0
M  V30 969 H 90.6101 3.90752 0.642586 0
M  V30 970 H 91.7841 4.04167 -2.21328 0
M  V30 971 H 90.0991 3.72558 -1.85982 0
M  V30 972 H 92.6961 5.33116 0.411258 0
M  V30 973 H 93.0391 3.9247 1.38827 0
M  V30 974 H 93.5721 3.9659 -0.31001 0
M  V30 975 H 90.3111 6.0898 -2.42536 0
M  V30 976 H 89.8311 5.95486 -0.718095 0
M  V30 977 H 91.5101 6.36776 -1.14565 0
M  V30 978 N 91.6422 0.330177 1.54103 0
M  V30 979 C 93.0582 -0.0222371 1.59585 0
M  V30 980 C 93.2582 -1.49902 1.34654 0
M  V30 981 O 92.3142 -2.25592 1.13421 0
M  V30 982 C 93.6272 0.401932 2.98002 0
M  V30 983 C 95.1752 0.353145 3.11001 0
M  V30 984 C 95.6502 0.752576 4.51775 0
M  V30 985 N 97.1412 0.706239 4.57784 0
M  V30 986 C 97.8762 0.987417 5.64834 0
M  V30 987 N 97.3722 1.33607 6.79795 0
M  V30 988 N 99.1652 0.91254 5.54643 0
M  V30 989 H 91.3162 1.29228 1.68564 0
M  V30 990 H 93.5792 0.525906 0.78875 0
M  V30 991 H 93.2852 1.4311 3.21267 0
M  V30 992 H 93.1592 -0.229699 3.765 0
M  V30 993 H 95.5462 -0.666822 2.87467 0
M  V30 994 H 95.6272 1.0198 2.34593 0
M  V30 995 H 95.2712 1.77049 4.76042 0
M  V30 996 H 95.2012 0.0635409 5.26562 0
M  V30 997 H 97.6922 0.44889 3.75224 0
M  V30 998 H 98.0052 1.53582 7.57385 0
M  V30 999 H 96.3502 1.37439 6.81275 0
M  V30 1000 H 99.5412 0.639601 4.6371 0
M  V30 1001 H 99.7142 1.13503 6.37982 0
M  V30 1002 N 93.1203 -1.57491 0.0584922 0
M  V30 1003 C 94.5363 -1.56792 -0.298091 0
M  V30 1004 C 94.7363 -1.06679 -1.70944 0
M  V30 1005 O 93.7923 -0.726672 -2.41818 0
M  V30 1006 C 95.1053 -3.00461 -0.119879 0
M  V30 1007 C 96.6533 -3.1242 -0.190428 0
M  V30 1008 C 97.1283 -4.57982 -0.0406567 0
M  V30 1009 N 98.6193 -4.63099 -0.0966958 0
M  V30 1010 C 99.3543 -5.734 -0.00502943 0
M  V30 1011 N 98.8503 -6.9266 0.139402 0
M  V30 1012 N 100.643 -5.62067 -0.0611391 0
M  V30 1013 H 92.7943 -1.88386 0.98105 0
M  V30 1014 H 95.0573 -0.867865 0.381463 0
M  V30 1015 H 94.7633 -3.41187 0.85349 0
M  V30 1016 H 94.6373 -3.66843 -0.877833 0
M  V30 1017 H 97.0243 -2.71589 -1.15427 0
M  V30 1018 H 97.1053 -2.48702 0.598405 0
M  V30 1019 H 96.7493 -4.995 0.919897 0
M  V30 1020 H 96.6793 -5.19715 -0.848727 0
M  V30 1021 H 99.1703 -3.77331 -0.207277 0
M  V30 1022 H 99.4833 -7.72536 0.201855 0
M  V30 1023 H 97.8283 -6.94781 0.174586 0
M  V30 1024 H 101.019 -4.67782 -0.172583 0
M  V30 1025 H 101.192 -6.47999 0.0137562 0
M  V30 1026 N 94.5984 0.214957 -1.56127 0
M  V30 1027 C 95.8444 0.939762 -1.79712 0
M  V30 1028 C 96.1774 1.83723 -0.629247 0
M  V30 1029 O 95.4524 1.90925 0.371197 0
M  V30 1030 C 95.7354 1.77306 -3.13424 0
M  V30 1031 C 95.5884 0.90164 -4.40671 0
M  V30 1032 C 96.9074 2.74956 -3.43638 0
M  V30 1033 H 94.0264 0.340214 -0.653776 0
M  V30 1034 H 96.6684 0.20824 -1.88855 0
M  V30 1035 H 94.8184 2.39673 -3.0576 0
M  V30 1036 H 96.4904 0.294206 -4.60361 0
M  V30 1037 H 94.7334 0.207368 -4.33304 0
M  V30 1038 H 95.4044 1.51923 -5.30682 0
M  V30 1039 H 97.8804 2.22724 -3.51473 0
M  V30 1040 H 96.7564 3.30358 -4.38355 0
M  V30 1041 H 97.0174 3.53023 -2.66134 0
M  V30 1042 N 96.0765 1.50051 0.48192 0
M  V30 1043 C 97.0245 1.68635 1.60203 0
M  V30 1044 C 98.0185 0.552184 1.60148 0
M  V30 1045 O 99.2245 0.732377 1.64427 0
M  V30 1046 H 95.5995 0.532081 0.531407 0
M  V30 1047 H 97.5705 2.62616 1.41688 0
M  V30 1048 C 96.3195 1.78775 2.9822 0
M  V30 1049 H 95.6425 2.6543 2.98976 0
M  V30 1050 H 97.0825 1.95806 3.7608 0
M  V30 1051 C 95.5415 0.536849 3.32595 0
M  V30 1052 O 96.0715 -0.328897 4.00351 0
M  V30 1053 N 94.2775 0.394091 2.87915 0
M  V30 1054 H 93.8245 1.09962 2.32951 0
M  V30 1055 H 93.7825 -0.441737 3.11281 0
M  V30 1056 N 97.5546 -0.734337 1.39446 0
M  V30 1057 C 98.4646 -1.87879 1.40495 0
M  V30 1058 C 99.4806 -1.714 0.299672 0
M  V30 1059 O 100.657 -1.93991 0.541249 0
M  V30 1060 C 97.7216 -3.23477 1.24754 0
M  V30 1061 C 96.7826 -3.52344 2.45259 0
M  V30 1062 C 96.0156 -4.81473 2.30259 0
M  V30 1063 O 96.2386 -5.55237 1.30643 0
M  V30 1064 O 95.1726 -5.10254 3.19256 0
M  V30 1065 H 98.9986 -1.89949 2.36966 0
M  V30 1066 H 96.5836 -0.882243 1.20569 0
M  V30 1067 H 98.4656 -4.04509 1.18111 0
M  V30 1068 H 97.1406 -3.22176 0.313781 0
M  V30 1069 H 96.0476 -2.71396 2.57478 0
M  V30 1070 H 97.3806 -3.58426 3.37331 0
M  V30 1071 N 99.0327 -1.24633 -0.964593 0
M  V30 1072 C 100.31 -0.995809 -1.68354 0
M  V30 1073 C 100.69 0.480964 -2.05548 0
M  V30 1074 O 100.038 1.45599 -1.76105 0
M  V30 1075 C 100.248 -1.92177 -2.91323 0
M  V30 1076 C 101.596 -2.19446 -3.63495 0
M  V30 1077 O 102.62 -1.89855 -3.01386 0
M  V30 1078 O 101.479 -2.69714 -4.75307 0
M  V30 1079 H 98.5727 -0.376854 -0.736146 0
M  V30 1080 H 101.119 -1.35745 -1.0184 0
M  V30 1081 H 99.8907 -2.91938 -2.60553 0
M  V30 1082 H 99.5137 -1.56349 -3.65569 0
M  V30 1083 N 100.511 1.16574 -1.06058 0
M  V30 1084 C 101.441 2.23057 -0.690488 0
M  V30 1085 C 102.422 1.67141 0.315901 0
M  V30 1086 O 103.607 1.93253 0.191556 0
M  V30 1087 C 100.737 3.47222 -0.073625 0
M  V30 1088 C 99.6908 4.16016 -1.00573 0
M  V30 1089 C 99.0168 5.34104 -0.252289 0
M  V30 1090 C 100.317 4.67264 -2.33371 0
M  V30 1091 H 102.011 2.54271 -1.58072 0
M  V30 1092 H 99.5568 1.22218 -0.76149 0
M  V30 1093 H 101.51 4.20939 0.19714 0
M  V30 1094 H 100.234 3.15302 0.85161 0
M  V30 1095 H 98.8928 3.44223 -1.2612 0
M  V30 1096 H 98.5408 4.98437 0.675988 0
M  V30 1097 H 98.2408 5.81072 -0.873455 0
M  V30 1098 H 99.7648 6.10599 0.0109857 0
M  V30 1099 H 101.179 5.32573 -2.12223 0
M  V30 1100 H 99.5758 5.24843 -2.90963 0
M  V30 1101 H 100.646 3.83602 -2.96611 0
M  V30 1102 N 101.989 0.842826 1.3317 0
M  V30 1103 C 102.919 0.294028 2.31641 0
M  V30 1104 C 103.9 -0.600401 1.59151 0
M  V30 1105 O 105.085 -0.523124 1.87022 0
M  V30 1106 C 102.215 -0.528416 3.43257 0
M  V30 1107 C 101.169 0.27056 4.27144 0
M  V30 1108 C 100.495 -0.675881 5.30411 0
M  V30 1109 C 101.795 1.48981 5.00602 0
M  V30 1110 H 103.489 1.11681 2.77791 0
M  V30 1111 H 101.035 0.538478 1.33553 0
M  V30 1112 H 102.988 -0.922674 4.11175 0
M  V30 1113 H 101.712 -1.38445 2.95805 0
M  V30 1114 H 100.371 0.646427 3.60856 0
M  V30 1115 H 100.019 -1.52842 4.79216 0
M  V30 1116 H 99.7189 -0.145374 5.8742 0
M  V30 1117 H 101.243 -1.06757 6.01195 0
M  V30 1118 H 102.657 1.16849 5.61266 0
M  V30 1119 H 101.054 1.95739 5.6728 0
M  V30 1120 H 102.124 2.25746 4.29147 0
M  V30 1121 N 103.467 -1.45747 0.599634 0
M  V30 1122 C 104.377 -2.34262 -0.125888 0
M  V30 1123 C 105.393 -1.50768 -0.868625 0
M  V30 1124 O 106.569 -1.83592 -0.828003 0
M  V30 1125 C 103.634 -3.28252 -1.11587 0
M  V30 1126 C 102.695 -4.27651 -0.375956 0
M  V30 1127 C 101.928 -5.1715 -1.31877 0
M  V30 1128 O 102.151 -5.09916 -2.55621 0
M  V30 1129 O 101.085 -5.96286 -0.820157 0
M  V30 1130 H 104.911 -2.97688 0.601315 0
M  V30 1131 H 102.496 -1.44999 0.359934 0
M  V30 1132 H 104.378 -3.86191 -1.68626 0
M  V30 1133 H 103.053 -2.67401 -1.82424 0
M  V30 1134 H 101.96 -3.7335 0.236698 0
M  V30 1135 H 103.293 -4.91334 0.29177 0
M  V30 1136 N 104.945 -0.338344 -1.53925 0
M  V30 1137 C 106.356 0.146651 -1.86123 0
M  V30 1138 C 106.707 1.5042 -1.2597 0
M  V30 1139 O 105.832 2.08723 -0.571294 0
M  V30 1140 C 106.427 0.272879 -3.37699 0
M  V30 1141 C 104.986 0.702103 -3.69794 0
M  V30 1142 C 104.133 -0.167304 -2.76795 0
M  V30 1143 H 107.084 -0.558123 -1.48562 0
M  V30 1144 H 107.105 1.10128 -3.64214 0
M  V30 1145 H 106.617 -0.715307 -3.81451 0
M  V30 1146 H 104.718 1.6995 -3.31584 0
M  V30 1147 H 104.831 0.495604 -4.7653 0
M  V30 1148 H 103.195 0.359527 -2.5215 0
M  V30 1149 H 103.978 -1.15253 -3.23375 0
M  V30 1150 N 106.423 1.57458 -0.0668435 0
M  V30 1151 C 107.669 1.93587 0.6043 0
M  V30 1152 C 108.002 0.946722 1.69561 0
M  V30 1153 O 107.277 -0.0248516 1.94484 0
M  V30 1154 C 107.56 3.40014 1.18585 0
M  V30 1155 C 107.413 4.49685 0.101529 0
M  V30 1156 C 108.732 3.87154 2.09284 0
M  V30 1157 H 105.851 0.703958 0.218202 0
M  V30 1158 H 108.493 1.89542 -0.131804 0
M  V30 1159 H 106.643 3.43592 1.81319 0
M  V30 1160 H 108.315 4.5823 -0.531279 0
M  V30 1161 H 106.558 4.30059 -0.568487 0
M  V30 1162 H 107.229 5.49266 0.54874 0
M  V30 1163 H 109.705 3.85551 1.56491 0
M  V30 1164 H 108.581 4.90231 2.46911 0
M  V30 1165 H 108.842 3.2481 2.99918 0
M  V30 1166 N 107.901 -0.206675 1.56239 0
M  V30 1167 C 109.126 -0.949474 1.8439 0
M  V30 1168 C 109.551 -1.76549 0.649016 0
M  V30 1169 O 108.909 -1.76782 -0.402231 0
M  V30 1170 C 108.957 -1.83078 3.10668 0
M  V30 1171 O 108.061 -2.9281 2.90407 0
M  V30 1172 H 107.402 -0.268033 0.607499 0
M  V30 1173 H 109.932 -0.215488 2.03462 0
M  V30 1174 H 109.942 -2.2377 3.41161 0
M  V30 1175 H 108.617 -1.23112 3.97261 0
M  V30 1176 H 107.194 -2.55956 2.71184 0
M  V30 1177 N 109.379 -1.50304 -0.473955 0
M  V30 1178 C 110.619 -1.62786 -1.23612 0
M  V30 1179 C 110.983 -0.319786 -1.89318 0
M  V30 1180 O 112.184 -0.320012 -2.66888 0
M  V30 1181 C 110.455 -2.77351 -2.25414 0
M  V30 1182 S 112.014 -3.09948 -3.10608 0
M  V30 1183 H 108.832 -0.573895 -0.419721 0
M  V30 1184 H 111.434 -1.88076 -0.533623 0
M  V30 1185 H 110.138 -3.70879 -1.75719 0
M  V30 1186 H 109.669 -2.54137 -3.00296 0
M  V30 1187 H 111.684 -2.53553 -4.26527 0
M  V30 1188 N 110.857 0.726932 -1.39834 0
M  V30 1189 C 112.134 1.47902 -1.28001 0
M  V30 1190 C 112.514 2.1083 0.106789 0
M  V30 1191 O 111.862 1.99242 1.11869 0
M  V30 1192 C 112.072 2.52392 -2.41038 0
M  V30 1193 C 113.42 3.18546 -2.80737 0
M  V30 1194 O 114.444 2.62708 -2.40547 0
M  V30 1195 O 113.303 4.19604 -3.50135 0
M  V30 1196 H 110.397 0.657163 -0.502062 0
M  V30 1197 H 112.943 0.760071 -1.51727 0
M  V30 1198 H 111.715 2.04329 -3.33715 0
M  V30 1199 H 111.338 3.31837 -2.19021 0
M  V30 1200 N 112.336 1.25143 0.95797 0
M  V30 1201 C 113.266 1.07711 2.07173 0
M  V30 1202 C 114.247 -0.0128462 1.70095 0
M  V30 1203 O 115.432 0.156061 1.93572 0
M  V30 1204 C 112.562 0.691503 3.40346 0
M  V30 1205 C 111.516 1.73132 3.9142 0
M  V30 1206 C 110.842 1.20049 5.21049 0
M  V30 1207 C 112.142 3.1294 4.1817 0
M  V30 1208 H 113.836 2.00873 2.22014 0
M  V30 1209 H 111.382 0.967191 1.06684 0
M  V30 1210 H 113.335 0.556505 4.17709 0
M  V30 1211 H 112.059 -0.275819 3.25433 0
M  V30 1212 H 110.718 1.8547 3.16222 0
M  V30 1213 H 110.366 0.223499 5.02503 0
M  V30 1214 H 110.066 1.89545 5.56189 0
M  V30 1215 H 111.59 1.07782 6.01012 0
M  V30 1216 H 113.004 3.03775 4.86203 0
M  V30 1217 H 111.401 3.79875 4.64559 0
M  V30 1218 H 112.471 3.6025 3.24573 0
M  V30 1219 N 113.814 -1.1601 1.06675 0
M  V30 1220 C 115.039 -1.91068 0.806706 0
M  V30 1221 C 115.464 -1.77112 -0.633485 0
M  V30 1222 O 114.822 -1.09908 -1.44187 0
M  V30 1223 C 114.87 -3.39655 1.21106 0
M  V30 1224 O 113.974 -4.10893 0.352189 0
M  V30 1225 H 113.315 -0.595125 0.294486 0
M  V30 1226 H 115.845 -1.46955 1.42356 0
M  V30 1227 H 115.855 -3.90434 1.18428 0
M  V30 1228 H 114.53 -3.49132 2.26008 0
M  V30 1229 H 113.107 -3.70285 0.440868 0
M  V30 1230 N 115.292 -0.849877 -1.32721 0
M  V30 1231 C 116.569 -0.372405 -1.92022 0
M  V30 1232 C 116.949 1.1435 -1.77447 0
M  V30 1233 O 116.297 1.96296 -1.16962 0
M  V30 1234 C 116.507 -0.831482 -3.3895 0
M  V30 1235 C 117.855 -0.845882 -4.16089 0
M  V30 1236 O 118.879 -0.775806 -3.47649 0
M  V30 1237 O 117.738 -0.943753 -5.38289 0
M  V30 1238 H 114.832 -0.107667 -0.819961 0
M  V30 1239 H 117.378 -0.93646 -1.41522 0
M  V30 1240 H 116.15 -1.87448 -3.4348 0
M  V30 1241 H 115.773 -0.24461 -3.96847 0
M  V30 1242 N 116.77 1.45427 -0.607355 0
M  V30 1243 C 118.047 1.9557 -0.0344566 0
M  V30 1244 C 118.427 1.54979 1.43334 0
M  V30 1245 O 117.775 0.812241 2.13576 0
M  V30 1246 C 117.985 3.48226 -0.232321 0
M  V30 1247 C 119.333 4.2445 -0.113001 0
M  V30 1248 O 120.357 3.55829 -0.162431 0
M  V30 1249 O 119.216 5.465 0.00209442 0
M  V30 1250 H 116.31 0.826222 0.0358667 0
M  V30 1251 H 118.856 1.55594 -0.6774 0
M  V30 1252 H 117.628 3.70739 -1.25174 0
M  V30 1253 H 117.251 3.95092 0.445896 0
M  V30 1254 N 118.248 0.346503 1.53744 0
M  V30 1255 C 119.181 -0.552023 2.21423 0
M  V30 1256 C 120.159 -1.09798 1.19929 0
M  V30 1257 O 121.343 -1.1577 1.4876 0
M  V30 1258 C 118.47 -1.75972 2.89398 0
M  V30 1259 C 117.516 -1.34295 4.04805 0
M  V30 1260 S 118.349 -0.360263 5.34287 0
M  V30 1261 C 119.505 -1.57473 6.05767 0
M  V30 1262 H 119.738 0.0228119 2.97291 0
M  V30 1263 H 117.271 0.130579 1.53847 0
M  V30 1264 H 119.229 -2.45256 3.2918 0
M  V30 1265 H 117.89 -2.30578 2.1329 0
M  V30 1266 H 117.083 -2.24349 4.51313 0
M  V30 1267 H 116.685 -0.729555 3.66815 0
M  V30 1268 H 118.977 -2.50875 6.29339 0
M  V30 1269 H 119.92 -1.15138 6.98676 0
M  V30 1270 H 120.328 -1.77212 5.35963 0
M  V30 1271 N 119.726 -1.57421 0.075193 0
M  V30 1272 C 121.137 -1.81021 -0.456964 0
M  V30 1273 C 121.488 -0.98936 -1.69429 0
M  V30 1274 O 120.613 -0.212865 -2.15351 0
M  V30 1275 C 121.208 -3.28329 -0.83581 0
M  V30 1276 C 119.767 -3.52764 -1.31281 0
M  V30 1277 C 118.914 -2.75676 -0.299648 0
M  V30 1278 H 121.865 -1.55822 0.300856 0
M  V30 1279 H 121.886 -3.40564 -1.69696 0
M  V30 1280 H 121.398 -3.88046 0.0649238 0
M  V30 1281 H 119.499 -2.98355 -2.23193 0
M  V30 1282 H 119.612 -4.61451 -1.28839 0
M  V30 1283 H 117.976 -2.42538 -0.777641 0
M  V30 1284 H 118.759 -3.38132 0.593417 0
M  V30 1285 N 121.204 0.198386 -1.56346 0
M  V30 1286 C 122.45 0.916115 -1.81601 0
M  V30 1287 C 122.805 1.81025 -0.651744 0
M  V30 1288 O 122.098 1.88316 0.353229 0
M  V30 1289 C 122.292 1.77031 -3.10475 0
M  V30 1290 C 122.121 0.960365 -4.39326 0
M  V30 1291 C 120.891 0.646093 -5.01152 0
M  V30 1292 C 123.089 0.314628 -5.13337 0
M  V30 1293 N 121.071 -0.182828 -6.13628 0
M  V30 1294 C 122.442 -0.37664 -6.18855 0
M  V30 1295 C 124.497 0.230019 -4.97368 0
M  V30 1296 C 123.2 -1.14445 -7.10137 0
M  V30 1297 C 125.226 -0.524389 -5.89071 0
M  V30 1298 C 124.588 -1.20412 -6.94032 0
M  V30 1299 H 120.687 0.314732 -0.715868 0
M  V30 1300 H 123.271 0.185102 -1.93818 0
M  V30 1301 H 121.442 2.47295 -2.99499 0
M  V30 1302 H 123.174 2.42727 -3.2383 0
M  V30 1303 H 119.929 0.969724 -4.63566 0
M  V30 1304 H 120.353 -0.586802 -6.74452 0
M  V30 1305 H 124.995 0.741184 -4.16253 0
M  V30 1306 H 122.713 -1.66706 -7.90718 0
M  V30 1307 H 126.299 -0.591167 -5.78789 0
M  V30 1308 H 125.179 -1.77853 -7.63766 0
M  V30 1309 N 122.682 1.50554 0.465978 0
M  V30 1310 C 123.907 1.65838 1.24549 0
M  V30 1311 C 124.332 0.343486 1.84937 0
M  V30 1312 O 123.69 -0.69324 1.67523 0
M  V30 1313 C 123.738 2.75533 2.32624 0
M  V30 1314 O 122.842 2.37142 3.37398 0
M  V30 1315 H 122.183 0.553893 0.366194 0
M  V30 1316 H 124.713 1.96959 0.553927 0
M  V30 1317 H 124.723 2.98763 2.77857 0
M  V30 1318 H 123.398 3.70962 1.88043 0
M  V30 1319 H 121.975 2.24377 2.97841 0
M  V30 1320 N 124.16 -0.719506 1.40217 0
M  V30 1321 C 125.123 -1.8153 1.39927 0
M  V30 1322 C 126.123 -1.58095 0.293723 0
M  V30 1323 O 127.313 -1.65209 0.552429 0
M  V30 1324 C 124.445 -3.19561 1.18716 0
M  V30 1325 H 125.638 -1.83186 2.37451 0
M  V30 1326 H 123.191 -0.924746 1.26008 0
M  V30 1327 H 123.926 -3.23557 0.219366 0
M  V30 1328 H 123.711 -3.3797 1.98793 0
M  V30 1329 H 125.201 -3.99598 1.21291 0
M  V30 1330 N 125.638 -1.25649 -0.95132 0
M  V30 1331 C 126.878 -1.11802 -1.71113 0
M  V30 1332 C 127.242 0.334758 -1.89059 0
M  V30 1333 O 128.443 0.595121 -2.62129 0
M  V30 1334 C 126.714 -1.85512 -3.05483 0
M  V30 1335 S 128.273 -1.87597 -3.96677 0
M  V30 1336 H 125.091 -0.399552 -0.588115 0
M  V30 1337 H 127.693 -1.59222 -1.1344 0
M  V30 1338 H 126.397 -2.90299 -2.90094 0
M  V30 1339 H 125.928 -1.38493 -3.68216 0
M  V30 1340 H 127.943 -0.955389 -4.86916 0
M  V30 1341 N 127.117 1.15442 -1.07289 0
M  V30 1342 C 128.528 1.67803 -0.818475 0
M  V30 1343 C 128.879 1.8489 0.656507 0
M  V30 1344 O 128.004 1.55176 1.50829 0
M  V30 1345 C 128.599 3.04805 -1.47917 0
M  V30 1346 C 127.158 3.54245 -1.27229 0
M  V30 1347 C 126.305 2.29986 -1.54925 0
M  V30 1348 H 129.256 0.996646 -1.23502 0
M  V30 1349 H 129.277 3.69702 -0.90005 0
M  V30 1350 H 128.789 2.92336 -2.55267 0
M  V30 1351 H 126.89 3.71956 -0.21899 0
M  V30 1352 H 127.003 4.35723 -1.99203 0
M  V30 1353 H 125.367 2.35496 -0.970242 0
M  V30 1354 H 126.15 2.20105 -2.63455 0
M  V30 1355 N 128.595 0.856903 1.32268 0
M  V30 1356 C 129.545 0.274899 2.26337 0
M  V30 1357 C 130.529 -0.580543 1.50062 0
M  V30 1358 O 131.721 -0.429559 1.71708 0
M  V30 1359 C 128.85 -0.533841 3.39124 0
M  V30 1360 C 127.936 0.334114 4.22782 0
M  V30 1361 N 128.327 1.42143 4.85416 0
M  V30 1362 C 126.625 0.124256 4.45827 0
M  V30 1363 C 127.326 1.95559 5.47843 0
M  V30 1364 N 126.302 1.25444 5.28928 0
M  V30 1365 H 130.104 1.10612 2.72291 0
M  V30 1366 H 127.618 0.703258 1.46383 0
M  V30 1367 H 129.615 -0.96722 4.05525 0
M  V30 1368 H 128.275 -1.36283 2.94715 0
M  V30 1369 H 129.286 1.80436 4.85451 0
M  V30 1370 H 125.963 -0.669837 4.12092 0
M  V30 1371 H 127.353 2.86714 6.07655 0
M  V30 1372 N 130.073 -1.45103 0.615059 0
M  V30 1373 C 131.484 -1.85654 0.197383 0
M  V30 1374 C 131.835 -1.51433 -1.24749 0
M  V30 1375 O 130.96 -0.944608 -1.94695 0
M  V30 1376 C 131.555 -3.36972 0.351448 0
M  V30 1377 C 130.114 -3.76398 -0.011593 0
M  V30 1378 C 129.261 -2.69024 0.672394 0
M  V30 1379 H 132.212 -1.35797 0.821263 0
M  V30 1380 H 132.233 -3.78239 -0.414227 0
M  V30 1381 H 131.745 -3.61847 1.40314 0
M  V30 1382 H 129.846 -3.5714 -1.06217 0
M  V30 1383 H 129.959 -4.77532 0.387265 0
M  V30 1384 H 128.323 -2.54465 0.109284 0
M  V30 1385 H 129.106 -2.96735 1.72636 0
M  V30 1386 N 131.551 -0.354651 -1.53558 0
M  V30 1387 C 132.967 -0.00315426 -1.596 0
M  V30 1388 C 133.167 1.47741 -1.37021 0
M  V30 1389 O 132.223 2.23759 -1.16996 0
M  V30 1390 C 133.536 -0.44929 -2.97325 0
M  V30 1391 C 135.084 -0.402578 -3.104 0
M  V30 1392 C 135.559 -0.824355 -4.5052 0
M  V30 1393 N 137.05 -0.778979 -4.56603 0
M  V30 1394 C 137.785 -1.07715 -5.63192 0
M  V30 1395 N 137.281 -1.44405 -6.77583 0
M  V30 1396 N 139.074 -1.00066 -5.53121 0
M  V30 1397 H 131.225 -1.31893 -1.66487 0
M  V30 1398 H 133.488 -0.538388 -0.780284 0
M  V30 1399 H 133.194 -1.48202 -3.1895 0
M  V30 1400 H 133.068 0.169772 -3.76818 0
M  V30 1401 H 135.455 0.621004 -2.88492 0
M  V30 1402 H 135.536 -1.05699 -2.32941 0
M  V30 1403 H 135.18 -1.846 -4.73165 0
M  V30 1404 H 135.11 -0.147304 -5.26394 0
M  V30 1405 H 137.601 -0.508528 -3.74463 0
M  V30 1406 H 137.914 -1.65612 -7.54846 0
M  V30 1407 H 136.259 -1.4826 -6.79002 0
M  V30 1408 H 139.45 -0.713293 -4.62633 0
M  V30 1409 H 139.623 -1.23638 -6.36096 0
M  V30 1410 N 133.029 1.57378 -0.0835403 0
M  V30 1411 C 134.269 1.95808 0.586381 0
M  V30 1412 C 134.633 0.963706 1.66062 0
M  V30 1413 O 135.834 1.23608 2.38693 0
M  V30 1414 C 134.105 3.38808 1.13771 0
M  V30 1415 S 135.664 3.99225 1.82112 0
M  V30 1416 H 132.482 0.684675 0.191679 0
M  V30 1417 H 135.084 1.94843 -0.160194 0
M  V30 1418 H 133.788 4.08954 0.344197 0
M  V30 1419 H 133.319 3.43344 1.92038 0
M  V30 1420 H 135.334 3.87087 3.10449 0
M  V30 1421 N 134.507 -0.190092 1.56449 0
M  V30 1422 C 135.753 -0.911052 1.81184 0
M  V30 1423 C 136.086 -1.82699 0.658396 0
M  V30 1424 O 135.361 -1.91491 -0.340775 0
M  V30 1425 C 135.644 -1.72297 3.16205 0
M  V30 1426 C 135.497 -0.831419 4.42049 0
M  V30 1427 C 136.816 -2.69454 3.47969 0
M  V30 1428 H 133.935 -0.32977 0.659106 0
M  V30 1429 H 136.577 -0.178169 1.89163 0
M  V30 1430 H 134.727 -2.34778 3.09534 0
M  V30 1431 H 136.399 -0.220929 4.60771 0
M  V30 1432 H 134.642 -0.138406 4.33579 0
M  V30 1433 H 135.313 -1.43461 5.33032 0
M  V30 1434 H 137.789 -2.17104 3.54972 0
M  V30 1435 H 136.665 -3.23342 4.43555 0
M  V30 1436 H 136.926 -3.48744 2.71717 0
M  V30 1437 N 135.985 -1.50799 -0.457987 0
M  V30 1438 C 137.396 -1.55152 -1.0385 0
M  V30 1439 C 137.747 -0.362719 -1.92818 0
M  V30 1440 O 136.872 0.522915 -2.09987 0
M  V30 1441 C 137.467 -2.81173 -1.89017 0
M  V30 1442 C 136.026 -2.88164 -2.42154 0
M  V30 1443 C 135.173 -2.49591 -1.20829 0
M  V30 1444 H 138.124 -1.56874 -0.240068 0
M  V30 1445 H 138.145 -2.63769 -2.74238 0
M  V30 1446 H 137.657 -3.67677 -1.24238 0
M  V30 1447 H 135.758 -2.06042 -3.10447 0
M  V30 1448 H 135.871 -3.91356 -2.76364 0
M  V30 1449 H 134.235 -2.02322 -1.54719 0
M  V30 1450 H 135.018 -3.38418 -0.576927 0
M  V30 1451 N 137.463 0.71206 -1.40597 0
M  V30 1452 C 138.879 1.02058 -1.22704 0
M  V30 1453 C 139.079 2.01228 -0.104729 0
M  V30 1454 O 138.135 2.4674 0.53624 0
M  V30 1455 C 139.448 1.56094 -2.57012 0
M  V30 1456 C 140.996 1.6806 -2.64054 0
M  V30 1457 C 141.471 2.25501 -3.9864 0
M  V30 1458 N 142.962 2.32882 -4.004 0
M  V30 1459 C 143.697 2.78317 -5.01325 0
M  V30 1460 N 143.193 3.23478 -6.12645 0
M  V30 1461 N 144.986 2.77733 -4.88693 0
M  V30 1462 H 137.137 0.0547896 -2.12329 0
M  V30 1463 H 139.4 0.0869027 -0.944008 0
M  V30 1464 H 139.106 0.906865 -3.39807 0
M  V30 1465 H 138.98 2.54564 -2.78347 0
M  V30 1466 H 141.367 2.32583 -1.81629 0
M  V30 1467 H 141.448 0.681802 -2.46546 0
M  V30 1468 H 141.092 1.61598 -4.81506 0
M  V30 1469 H 141.022 3.26102 -4.13479 0
M  V30 1470 H 143.513 2.00991 -3.20017 0
M  V30 1471 H 143.826 3.56725 -6.85542 0
M  V30 1472 H 142.171 3.21429 -6.16205 0
M  V30 1473 H 145.362 2.4179 -4.00818 0
M  V30 1474 H 145.535 3.12826 -5.67489 0
M  V30 1475 N 138.941 1.26152 0.944643 0
M  V30 1476 C 140.357 1.03189 1.21754 0
M  V30 1477 C 140.557 -0.245112 2.00004 0
M  V30 1478 O 139.613 -0.955176 2.33736 0
M  V30 1479 C 140.926 2.26119 1.98219 0
M  V30 1480 C 142.474 2.30984 2.11224 0
M  V30 1481 C 142.949 3.53597 2.91089 0
M  V30 1482 N 144.44 3.54053 2.98664 0
M  V30 1483 C 145.175 4.45593 3.60881 0
M  V30 1484 N 144.671 5.47416 4.24626 0
M  V30 1485 N 146.464 4.33252 3.58119 0
M  V30 1486 H 138.615 2.08177 0.421437 0
M  V30 1487 H 140.878 0.914723 0.248969 0
M  V30 1488 H 140.584 3.18984 1.48128 0
M  V30 1489 H 140.458 2.3009 2.98895 0
M  V30 1490 H 142.845 1.38635 2.60508 0
M  V30 1491 H 142.926 2.31026 1.09821 0
M  V30 1492 H 142.57 4.46273 2.42493 0
M  V30 1493 H 142.5 3.50802 3.92741 0
M  V30 1494 H 144.991 2.80403 2.53343 0
M  V30 1495 H 145.304 6.13459 4.69987 0
M  V30 1496 H 143.649 5.51278 4.23223 0
M  V30 1497 H 146.84 3.52924 3.0751 0
M  V30 1498 H 147.013 5.04786 4.06319 0
M  V30 1499 N 140.419 -1.14872 1.07899 0
M  V30 1500 C 141.659 -1.8745 0.814965 0
M  V30 1501 C 142.023 -1.80758 -0.64733 0
M  V30 1502 O 143.224 -2.48422 -1.02664 0
M  V30 1503 C 141.495 -3.32286 1.31607 0
M  V30 1504 S 143.054 -4.22537 1.18357 0
M  V30 1505 H 139.872 -0.646833 0.295174 0
M  V30 1506 H 142.474 -1.38555 1.37923 0
M  V30 1507 H 141.178 -3.34703 2.37491 0
M  V30 1508 H 140.709 -3.86238 0.747261 0
M  V30 1509 H 142.724 -4.96044 0.124586 0
M  V30 1510 N 141.898 -0.863906 -1.31812 0
M  V30 1511 C 143.144 -0.472535 -1.97218 0
M  V30 1512 C 143.477 0.971394 -1.68159 0
M  V30 1513 O 142.752 1.68309 -0.974798 0
M  V30 1514 C 143.035 -0.723054 -3.52766 0
M  V30 1515 C 142.888 -2.21608 -3.91421 0
M  V30 1516 C 144.207 -0.185522 -4.39709 0
M  V30 1517 H 141.326 -0.173158 -0.71637 0
M  V30 1518 H 143.968 -1.08403 -1.56041 0
M  V30 1519 H 142.118 -0.202577 -3.87971 0
M  V30 1520 H 143.79 -2.80334 -3.66347 0
M  V30 1521 H 142.033 -2.691 -3.40246 0
M  V30 1522 H 142.704 -2.34203 -4.99853 0
M  V30 1523 H 145.18 -0.630726 -4.11292 0
M  V30 1524 H 144.056 -0.390306 -5.47511 0
M  V30 1525 H 144.317 0.912229 -4.32586 0
M  V30 1526 N 143.376 1.44774 -0.622745 0
M  V30 1527 C 144.625 2.01334 -0.121397 0
M  V30 1528 C 144.938 1.49505 1.26125 0
M  V30 1529 O 146.144 1.98139 1.85616 0
M  V30 1530 C 144.6 3.59516 -0.166298 0
M  V30 1531 C 144.208 4.20342 -1.54974 0
M  V30 1532 C 145.952 4.23582 0.279021 0
M  V30 1533 C 143.859 5.70721 -1.55021 0
M  V30 1534 H 142.789 0.752851 -0.0416172 0
M  V30 1535 H 145.44 1.66083 -0.780309 0
M  V30 1536 H 143.822 3.92027 0.559557 0
M  V30 1537 H 144.996 3.99381 -2.29851 0
M  V30 1538 H 143.311 3.68529 -1.93843 0
M  V30 1539 H 145.908 5.33868 0.298083 0
M  V30 1540 H 146.251 3.95327 1.30471 0
M  V30 1541 H 146.784 3.95843 -0.394063 0
M  V30 1542 H 143.523 6.03698 -2.55399 0
M  V30 1543 H 143.043 5.93829 -0.844245 0
M  V30 1544 H 144.722 6.34203 -1.28047 0
M  V30 1545 N 144.854 0.36279 1.53368 0
M  V30 1546 C 146.265 -0.117022 1.86333 0
M  V30 1547 C 146.616 -1.48397 1.28347 0
M  V30 1548 O 145.741 -2.07787 0.604428 0
M  V30 1549 C 146.336 -0.21912 3.38091 0
M  V30 1550 C 144.895 -0.643184 3.70864 0
M  V30 1551 C 144.042 0.211318 2.76494 0
M  V30 1552 H 146.993 0.581687 1.47655 0
M  V30 1553 H 147.014 -1.04319 3.6592 0
M  V30 1554 H 146.526 0.775902 3.80265 0
M  V30 1555 H 144.627 -1.64654 3.34245 0
M  V30 1556 H 144.74 -0.41973 4.77258 0
M  V30 1557 H 143.104 -0.319367 2.5269 0
M  V30 1558 H 143.887 1.20383 3.21501 0
M  V30 1559 N 146.332 -1.57332 0.0918853 0
M  V30 1560 C 147.572 -1.96117 -0.575988 0
M  V30 1561 C 147.936 -0.972499 -1.65549 0
M  V30 1562 O 149.137 -1.24872 -2.38034 0
M  V30 1563 C 147.408 -3.39407 -1.11973 0
M  V30 1564 S 148.967 -4.00185 -1.79992 0
M  V30 1565 H 145.785 -0.685682 -0.188045 0
M  V30 1566 H 148.387 -1.94755 0.170525 0
M  V30 1567 H 147.091 -4.09131 -0.322504 0
M  V30 1568 H 146.622 -3.44358 -1.90214 0
M  V30 1569 H 148.637 -3.88728 -3.08391 0
M  V30 1570 N 147.81 0.181792 -1.56548 0
M  V30 1571 C 148.742 1.24956 -1.92142 0
M  V30 1572 C 149.755 1.41022 -0.813422 0
M  V30 1573 O 150.944 1.41212 -1.09186 0
M  V30 1574 C 148.044 2.61981 -2.14987 0
M  V30 1575 C 147.217 2.6735 -3.46183 0
M  V30 1576 C 146.276 3.85664 -3.5798 0
M  V30 1577 O 145.302 3.72148 -4.30691 0
M  V30 1578 N 146.504 5.01683 -2.92053 0
M  V30 1579 H 149.269 0.947329 -2.84334 0
M  V30 1580 H 146.83 0.371629 -1.57577 0
M  V30 1581 H 148.822 3.3958 -2.20154 0
M  V30 1582 H 147.392 2.84637 -1.2923 0
M  V30 1583 H 146.612 1.75925 -3.52766 0
M  V30 1584 H 147.9 2.67939 -4.32534 0
M  V30 1585 H 147.298 5.15564 -2.32832 0
M  V30 1586 H 145.855 5.77181 -3.0283 0
M  V30 1587 N 149.288 1.51039 0.449983 0
M  V30 1588 C 150.513 1.6715 1.22783 0
M  V30 1589 C 150.938 0.363081 1.84563 0
M  V30 1590 O 150.296 -0.675433 1.68249 0
M  V30 1591 C 150.344 2.77985 2.29689 0
M  V30 1592 O 149.448 2.40707 3.34864 0
M  V30 1593 H 148.789 0.557746 0.360299 0
M  V30 1594 H 151.319 1.97535 0.533005 0
M  V30 1595 H 151.329 3.01693 2.74673 0
M  V30 1596 H 150.004 3.72935 1.84098 0
M  V30 1597 H 148.581 2.27523 2.95445 0
M  V30 1598 N 150.766 -0.704594 1.40972 0
M  V30 1599 C 152.013 -1.46458 1.39844 0
M  V30 1600 C 152.341 -1.94499 0.00447594 0
M  V30 1601 O 151.596 -1.69275 -0.982057 0
M  V30 1602 C 151.895 -2.698 2.34399 0
M  V30 1603 C 151.561 -2.40464 3.81429 0
M  V30 1604 C 150.223 -2.32174 4.21484 0
M  V30 1605 C 152.575 -2.16086 4.74296 0
M  V30 1606 C 149.903 -1.97589 5.52427 0
M  V30 1607 C 152.255 -1.83011 6.05549 0
M  V30 1608 C 150.919 -1.7321 6.44635 0
M  V30 1609 H 150.189 -0.535927 0.511725 0
M  V30 1610 H 152.836 -0.806124 1.73706 0
M  V30 1611 H 151.141 -3.40536 1.93759 0
M  V30 1612 H 152.838 -3.27919 2.30804 0
M  V30 1613 H 149.428 -2.47808 3.49699 0
M  V30 1614 H 153.612 -2.2144 4.4416 0
M  V30 1615 H 148.868 -1.88547 5.81601 0
M  V30 1616 H 153.042 -1.63164 6.77016 0
M  V30 1617 H 150.669 -1.46179 7.46013 0
M  V30 1618 N 152.244 -1.26651 -0.937939 0
M  V30 1619 C 153.49 -1.12553 -1.687 0
M  V30 1620 C 153.823 0.329782 -1.91379 0
M  V30 1621 O 153.098 1.24202 -1.4968 0
M  V30 1622 C 153.381 -1.89862 -3.05981 0
M  V30 1623 C 153.234 -3.43318 -2.90607 0
M  V30 1624 C 154.553 -1.69499 -4.0615 0
M  V30 1625 H 151.672 -0.410257 -0.612257 0
M  V30 1626 H 154.314 -1.55685 -1.08913 0
M  V30 1627 H 152.464 -1.53204 -3.57017 0
M  V30 1628 H 154.136 -3.89747 -2.46769 0
M  V30 1629 H 152.379 -3.70179 -2.26164 0
M  V30 1630 H 153.05 -3.92642 -3.8799 0
M  V30 1631 H 155.526 -2.01442 -3.64088 0
M  V30 1632 H 154.402 -2.26002 -5.00214 0
M  V30 1633 H 154.663 -0.640365 -4.37438 0
M  V30 1634 N 153.722 1.14298 -1.08507 0
M  V30 1635 C 154.968 1.85633 -0.816581 0
M  V30 1636 C 155.301 1.82784 0.656021 0
M  V30 1637 O 154.576 1.25926 1.48233 0
M  V30 1638 C 154.859 3.34223 -1.34041 0
M  V30 1639 C 154.712 3.45639 -2.87843 0
M  V30 1640 C 156.031 4.29356 -0.9665 0
M  V30 1641 H 153.15 0.67402 -0.298104 0
M  V30 1642 H 155.792 1.34214 -1.34487 0
M  V30 1643 H 153.942 3.78144 -0.89104 0
M  V30 1644 H 155.614 3.10498 -3.41158 0
M  V30 1645 H 153.857 2.86817 -3.25451 0
M  V30 1646 H 154.528 4.50089 -3.19569 0
M  V30 1647 H 157.004 3.93457 -1.35391 0
M  V30 1648 H 155.88 5.3178 -1.3602 0
M  V30 1649 H 156.141 4.41919 0.126362 0
M  V30 1650 N 155.201 0.870884 1.31352 0
M  V30 1651 C 156.429 0.49677 2.00848 0
M  V30 1652 C 156.844 -0.910998 1.65367 0
M  V30 1653 O 156.201 -1.59696 0.883374 0
M  V30 1654 C 156.252 0.645308 3.55694 0
M  V30 1655 O 155.973 1.99764 3.89905 0
M  V30 1656 C 157.474 0.272326 4.42463 0
M  V30 1657 H 154.694 0.193462 0.642506 0
M  V30 1658 H 157.238 1.1723 1.67563 0
M  V30 1659 H 155.393 0.0173176 3.87396 0
M  V30 1660 H 155.807 2.00607 4.84621 0
M  V30 1661 H 157.281 0.427208 5.50344 0
M  V30 1662 H 157.758 -0.788587 4.32062 0
M  V30 1663 H 158.364 0.876054 4.1618 0
M  V30 1664 N 156.679 -1.44442 0.630414 0
M  V30 1665 C 157.956 -1.9549 0.0655657 0
M  V30 1666 C 158.336 -1.5724 -1.40851 0
M  V30 1667 O 157.684 -0.846116 -2.12257 0
M  V30 1668 C 157.894 -3.47812 0.287691 0
M  V30 1669 C 159.242 -4.24216 0.180513 0
M  V30 1670 O 160.266 -3.55526 0.219019 0
M  V30 1671 O 159.125 -5.46434 0.0848493 0
M  V30 1672 H 156.219 -0.826688 -0.0227177 0
M  V30 1673 H 158.765 -1.54496 0.702068 0
M  V30 1674 H 157.537 -3.687 1.31056 0
M  V30 1675 H 157.16 -3.95751 -0.382984 0
M  V30 1676 N 158.157 -0.370918 -1.53173 0
M  V30 1677 C 159.403 0.217423 -2.01631 0
M  V30 1678 C 159.736 1.47983 -1.25756 0
M  V30 1679 O 159.011 1.91274 -0.352764 0
M  V30 1680 C 159.294 0.503982 -3.56556 0
M  V30 1681 C 159.147 -0.77243 -4.43118 0
M  V30 1682 C 160.466 1.30234 -4.20389 0
M  V30 1683 H 157.585 0.0775486 -0.732909 0
M  V30 1684 H 160.227 -0.496863 -1.83388 0
M  V30 1685 H 158.377 1.11248 -3.72231 0
M  V30 1686 H 160.049 -1.4098 -4.39229 0
M  V30 1687 H 158.292 -1.39167 -4.10871 0
M  V30 1688 H 158.963 -0.526815 -5.4948 0
M  V30 1689 H 161.439 0.787546 -4.08579 0
M  V30 1690 H 160.315 1.47158 -5.28806 0
M  V30 1691 H 160.576 2.31237 -3.76805 0
M  V30 1692 N 159.635 1.57281 -0.100228 0
M  V30 1693 C 160.912 1.86014 0.604812 0
M  V30 1694 C 161.292 0.998025 1.86018 0
M  V30 1695 O 160.64 0.0718184 2.28387 0
M  V30 1696 C 160.85 3.36784 0.915278 0
M  V30 1697 C 162.198 4.04957 1.27651 0
M  V30 1698 O 163.222 3.41695 1.00613 0
M  V30 1699 O 162.081 5.16593 1.7831 0
M  V30 1700 H 159.175 0.76942 0.303185 0
M  V30 1701 H 161.721 1.69176 -0.133313 0
M  V30 1702 H 160.493 3.91292 0.0248896 0
M  V30 1703 H 160.116 3.58987 1.70921 0
M  V30 1704 N 161.113 -0.173488 1.56642 0
M  V30 1705 C 162.343 -0.904781 1.85734 0
M  V30 1706 C 162.751 -1.76431 0.68328 0
M  V30 1707 O 162.094 -1.802 -0.356865 0
M  V30 1708 C 162.156 -1.83382 3.09211 0
M  V30 1709 C 161.82 -1.15411 4.42187 0
M  V30 1710 C 162.817 -0.520609 5.17287 0
M  V30 1711 C 160.502 -1.15151 4.88923 0
M  V30 1712 C 162.496 0.106412 6.37311 0
M  V30 1713 C 160.183 -0.520664 6.08878 0
M  V30 1714 C 161.181 0.107196 6.82916 0
M  V30 1715 O 160.869 0.728102 8.00596 0
M  V30 1716 H 160.601 -0.268408 0.62043 0
M  V30 1717 H 163.155 -0.179096 2.04618 0
M  V30 1718 H 161.385 -2.59976 2.86268 0
M  V30 1719 H 163.074 -2.43476 3.24768 0
M  V30 1720 H 163.84 -0.514606 4.82262 0
M  V30 1721 H 159.719 -1.62961 4.31236 0
M  V30 1722 H 163.263 0.597081 6.9504 0
M  V30 1723 H 159.16 -0.524242 6.43368 0
M  V30 1724 H 159.928 0.627138 8.16094 0
M  V30 1725 N 162.591 -1.51276 -0.441967 0
M  V30 1726 C 163.838 -1.63715 -1.19179 0
M  V30 1727 C 164.166 -0.351175 -1.91303 0
M  V30 1728 O 163.421 0.664524 -1.84072 0
M  V30 1729 C 163.72 -2.78746 -2.23686 0
M  V30 1730 C 163.386 -4.18189 -1.68607 0
M  V30 1731 C 162.048 -4.56125 -1.53308 0
M  V30 1732 C 164.4 -5.05222 -1.28062 0
M  V30 1733 C 161.728 -5.78804 -0.959317 0
M  V30 1734 C 164.08 -6.28476 -0.721162 0
M  V30 1735 C 162.744 -6.65188 -0.55504 0
M  V30 1736 H 162.014 -0.599076 -0.436106 0
M  V30 1737 H 164.661 -1.85296 -0.48351 0
M  V30 1738 H 162.966 -2.51369 -3.00535 0
M  V30 1739 H 164.663 -2.8557 -2.81515 0
M  V30 1740 H 161.253 -3.88277 -1.8149 0
M  V30 1741 H 165.437 -4.76524 -1.38704 0
M  V30 1742 H 160.693 -6.05899 -0.81833 0
M  V30 1743 H 164.867 -6.95259 -0.398458 0
M  V30 1744 H 162.494 -7.60123 -0.108311 0
M  V30 1745 N 164.069 0.697108 -1.41344 0
M  V30 1746 C 165.294 1.49096 -1.44171 0
M  V30 1747 C 165.719 1.88038 -0.0481568 0
M  V30 1748 O 165.077 1.54525 0.948243 0
M  V30 1749 C 165.125 2.73088 -2.3549 0
M  V30 1750 O 164.229 3.70514 -1.81088 0
M  V30 1751 H 163.57 0.448801 -0.489361 0
M  V30 1752 H 166.1 0.856992 -1.85787 0
M  V30 1753 H 166.11 3.21413 -2.51312 0
M  V30 1754 H 164.785 2.44081 -3.36745 0
M  V30 1755 H 163.362 3.29441 -1.74708 0
M  V30 1756 N 165.547 1.27147 0.931209 0
M  V30 1757 C 166.794 1.13278 1.67852 0
M  V30 1758 C 167.122 -0.32204 1.91815 0
M  V30 1759 O 166.377 -1.25224 1.50391 0
M  V30 1760 C 166.676 1.8579 3.05314 0
M  V30 1761 C 166.342 3.35657 3.01073 0
M  V30 1762 C 165.004 3.76536 2.99623 0
M  V30 1763 C 167.356 4.31299 2.92627 0
M  V30 1764 C 164.684 5.11426 2.87506 0
M  V30 1765 C 167.036 5.66242 2.82051 0
M  V30 1766 C 165.7 6.06418 2.7895 0
M  V30 1767 H 164.97 0.414515 0.614214 0
M  V30 1768 H 167.617 1.57712 1.08624 0
M  V30 1769 H 165.922 1.33854 3.68226 0
M  V30 1770 H 167.619 1.72491 3.62005 0
M  V30 1771 H 164.209 3.03146 3.02986 0
M  V30 1772 H 168.393 4.00692 2.92848 0
M  V30 1773 H 163.649 5.41705 2.83489 0
M  V30 1774 H 167.823 6.40026 2.74481 0
M  V30 1775 H 165.45 7.10895 2.69318 0
M  V30 1776 N 167.025 -1.13721 1.09112 0
M  V30 1777 C 167.957 -2.1871 0.685467 0
M  V30 1778 C 168.97 -1.60527 -0.271068 0
M  V30 1779 O 170.159 -1.78407 -0.0576148 0
M  V30 1780 C 167.259 -3.38898 -0.0111255 0
M  V30 1781 C 166.432 -4.26597 0.966131 0
M  V30 1782 C 165.491 -5.25324 0.303539 0
M  V30 1783 O 164.517 -5.61213 0.950177 0
M  V30 1784 N 165.719 -5.72779 -0.943651 0
M  V30 1785 H 168.484 -2.54126 1.58871 0
M  V30 1786 H 166.045 -1.29012 0.978143 0
M  V30 1787 H 168.037 -4.02014 -0.465517 0
M  V30 1788 H 166.607 -3.01747 -0.816565 0
M  V30 1789 H 165.827 -3.60306 1.59917 0
M  V30 1790 H 167.115 -4.82048 1.6281 0
M  V30 1791 H 166.513 -5.45762 -1.48862 0
M  V30 1792 H 165.07 -6.37847 -1.34142 0
M  V30 1793 N 168.503 -0.877838 -1.30888 0
M  V30 1794 C 169.914 -0.544193 -1.78593 0
M  V30 1795 C 170.265 0.939301 -1.72254 0
M  V30 1796 O 169.39 1.7337 -1.29505 0
M  V30 1797 C 169.985 -0.98105 -3.24285 0
M  V30 1798 C 168.544 -0.698935 -3.69854 0
M  V30 1799 C 167.691 -1.168 -2.51502 0
M  V30 1800 H 170.642 -1.06278 -1.17859 0
M  V30 1801 H 170.663 -0.307009 -3.79259 0
M  V30 1802 H 170.175 -2.06079 -3.28866 0
M  V30 1803 H 168.276 0.369112 -3.70767 0
M  V30 1804 H 168.389 -1.28148 -4.61644 0
M  V30 1805 H 166.753 -0.587535 -2.47831 0
M  V30 1806 H 167.536 -2.25533 -2.58824 0
M  V30 1807 N 169.982 1.44106 -0.638065 0
M  V30 1808 C 171.259 1.95453 -0.0759321 0
M  V30 1809 C 171.639 1.57984 1.40015 0
M  V30 1810 O 170.987 0.857361 2.11806 0
M  V30 1811 C 171.197 3.47655 -0.306132 0
M  V30 1812 C 172.545 4.24114 -0.203008 0
M  V30 1813 O 173.569 3.55405 -0.237871 0
M  V30 1814 O 172.428 5.46381 -0.113827 0
M  V30 1815 H 169.522 0.826797 0.0183332 0
M  V30 1816 H 172.068 1.54122 -0.710251 0
M  V30 1817 H 170.84 3.68 -1.3301 0
M  V30 1818 H 170.463 3.95949 0.361991 0
M  V30 1819 N 171.46 0.379036 1.52974 0
M  V30 1820 C 172.876 0.0285448 1.59574 0
M  V30 1821 C 173.076 -1.45542 1.39355 0
M  V30 1822 O 172.132 -2.2187 1.20541 0
M  V30 1823 C 173.445 0.496535 2.96572 0
M  V30 1824 C 174.993 0.451909 3.0972 0
M  V30 1825 C 175.468 0.895924 4.49152 0
M  V30 1826 N 176.959 0.851522 4.55306 0
M  V30 1827 C 177.694 1.16661 5.61407 0
M  V30 1828 N 177.19 1.55166 6.752 0
M  V30 1829 N 178.983 1.08853 5.51459 0
M  V30 1830 H 171.134 1.34525 1.64367 0
M  V30 1831 H 173.397 0.550733 0.771619 0
M  V30 1832 H 173.103 1.53258 3.16552 0
M  V30 1833 H 172.977 -0.109802 3.7704 0
M  V30 1834 H 175.364 -0.575029 2.89443 0
M  V30 1835 H 175.445 1.09392 2.3123 0
M  V30 1836 H 175.089 1.92104 4.70168 0
M  V30 1837 H 175.019 0.23103 5.26093 0
M  V30 1838 H 177.51 0.568038 3.73606 0
M  V30 1839 H 177.823 1.776 7.52116 0
M  V30 1840 H 176.168 1.59044 6.76557 0
M  V30 1841 H 179.359 0.786803 4.6144 0
M  V30 1842 H 179.532 1.33742 6.34048 0
M  V30 1843 N 172.938 -1.57226 0.108567 0
M  V30 1844 C 174.349 -1.8195 -0.418464 0
M  V30 1845 C 174.7 -1.02508 -1.67292 0
M  V30 1846 O 173.825 -0.258496 -2.14851 0
M  V30 1847 C 174.42 -3.30028 -0.765979 0
M  V30 1848 C 172.979 -3.55469 -1.23769 0
M  V30 1849 C 172.126 -2.7625 -0.241106 0
M  V30 1850 H 175.077 -1.55149 0.33384 0
M  V30 1851 H 175.098 -3.44086 -1.62434 0
M  V30 1852 H 174.61 -3.87821 0.147219 0
M  V30 1853 H 172.711 -3.03022 -2.16814 0
M  V30 1854 H 172.824 -4.6408 -1.19022 0
M  V30 1855 H 171.188 -2.44133 -0.72602 0
M  V30 1856 H 171.971 -3.36797 0.665007 0
M  V30 1857 N 174.416 0.165178 -1.56732 0
M  V30 1858 C 175.346 1.20651 -1.99914 0
M  V30 1859 C 176.327 1.45827 -0.875705 0
M  V30 1860 O 177.512 1.57057 -1.14223 0
M  V30 1861 C 174.642 2.54401 -2.36427 0
M  V30 1862 C 173.596 2.43782 -3.51787 0
M  V30 1863 C 172.922 3.82078 -3.7406 0
M  V30 1864 C 174.222 1.93732 -4.85041 0
M  V30 1865 H 175.916 0.847534 -2.87154 0
M  V30 1866 H 173.462 0.40625 -1.38151 0
M  V30 1867 H 175.415 3.27458 -2.65234 0
M  V30 1868 H 174.139 2.92098 -1.46103 0
M  V30 1869 H 172.798 1.73178 -3.23117 0
M  V30 1870 H 172.446 4.17179 -2.81017 0
M  V30 1871 H 172.146 3.7584 -4.51684 0
M  V30 1872 H 173.67 4.56712 -4.05274 0
M  V30 1873 H 175.084 2.56569 -5.12684 0
M  V30 1874 H 173.481 1.98428 -5.66345 0
M  V30 1875 H 174.551 0.891962 -4.76626 0
M  V30 1876 N 175.894 1.51508 0.433938 0
M  V30 1877 C 177.142 1.6402 1.18075 0
M  V30 1878 C 177.463 0.360328 1.91642 0
M  V30 1879 O 176.733 -0.623945 1.85698 0
M  V30 1880 H 175.313 0.6045 0.43885 0
M  V30 1881 H 177.975 1.88452 0.497178 0
M  V30 1882 H 177.071 2.46949 1.90847 0
M  V30 1883 N 177.372 -0.689602 1.41712 0
M  V30 1884 C 178.6 -1.47827 1.44758 0
M  V30 1885 C 179.015 -1.88721 0.0545703 0
M  V30 1886 O 178.372 -1.57176 -0.927463 0
M  V30 1887 C 178.423 -2.73698 2.3616 0
M  V30 1888 O 178.144 -2.34524 3.7004 0
M  V30 1889 C 179.645 -3.67389 2.48072 0
M  V30 1890 H 176.865 -0.455357 0.49284 0
M  V30 1891 H 179.409 -0.848574 1.86063 0
M  V30 1892 H 177.564 -3.32891 1.98148 0
M  V30 1893 H 177.978 -3.15701 4.18847 0
M  V30 1894 H 179.452 -4.52475 3.16181 0
M  V30 1895 H 179.929 -4.12284 1.51388 0
M  V30 1896 H 180.535 -3.14097 2.86746 0
M  V30 1897 N 178.85 -1.27639 -0.924453 0
M  V30 1898 C 180.266 -1.05113 -1.20097 0
M  V30 1899 C 180.466 0.213262 -2.00368 0
M  V30 1900 O 179.522 0.91787 -2.35226 0
M  V30 1901 C 180.835 -2.29244 -1.94596 0
M  V30 1902 C 182.383 -2.34315 -2.07522 0
M  V30 1903 C 182.858 -3.58183 -2.85427 0
M  V30 1904 N 184.349 -3.5876 -2.92994 0
M  V30 1905 C 185.084 -4.51277 -3.53746 0
M  V30 1906 N 184.58 -5.54102 -4.15863 0
M  V30 1907 N 186.373 -4.38894 -3.51181 0
M  V30 1908 H 178.524 -2.08821 -0.388264 0
M  V30 1909 H 180.787 -0.918568 -0.234385 0
M  V30 1910 H 180.493 -3.21301 -1.43034 0
M  V30 1911 H 180.367 -2.34816 -2.95197 0
M  V30 1912 H 182.754 -1.42762 -2.58269 0
M  V30 1913 H 182.835 -2.32744 -1.06131 0
M  V30 1914 H 182.479 -4.50074 -2.35363 0
M  V30 1915 H 182.409 -3.57006 -3.8711 0
M  V30 1916 H 184.9 -2.84398 -2.4885 0
M  V30 1917 H 185.213 -6.20859 -4.60168 0
M  V30 1918 H 183.558 -5.57941 -4.144 0
M  V30 1919 H 186.749 -3.57772 -3.01856 0
M  V30 1920 H 186.922 -5.11186 -3.98237 0
M  V30 1921 N 180.328 1.1314 -1.09713 0
M  V30 1922 C 181.258 2.20748 -0.761102 0
M  V30 1923 C 182.239 1.68061 0.262566 0
M  V30 1924 O 183.424 1.93765 0.129977 0
M  V30 1925 C 180.554 3.46812 -0.184054 0
M  V30 1926 C 179.508 4.12606 -1.13757 0
M  V30 1927 C 178.834 5.33031 -0.422083 0
M  V30 1928 C 180.134 4.59603 -2.48118 0
M  V30 1929 H 181.828 2.49113 -1.66082 0
M  V30 1930 H 179.374 1.19734 -0.799987 0
M  V30 1931 H 181.327 4.21353 0.0631215 0
M  V30 1932 H 180.051 3.17851 0.750868 0
M  V30 1933 H 178.71 3.40036 -1.37007 0
M  V30 1934 H 178.358 5.00335 0.517072 0
M  V30 1935 H 178.058 5.77999 -1.05788 0
M  V30 1936 H 179.582 6.10325 -0.183277 0
M  V30 1937 H 180.996 5.25552 -2.29059 0
M  V30 1938 H 179.393 5.15321 -3.07514 0
M  V30 1939 H 180.463 3.73971 -3.08665 0
M  V30 1940 N 181.806 0.884767 1.30421 0
M  V30 1941 C 183.034 0.518044 2.0031 0
M  V30 1942 C 183.449 -0.893408 1.66324 0
M  V30 1943 O 182.806 -1.5875 0.900262 0
M  V30 1944 C 182.857 0.682997 3.54989 0
M  V30 1945 O 182.578 2.03888 3.87764 0
M  V30 1946 C 184.079 0.31924 4.42149 0
M  V30 1947 H 181.299 0.200265 0.640418 0
M  V30 1948 H 183.843 1.19001 1.6631 0
M  V30 1949 H 181.998 0.0584052 3.87356 0
M  V30 1950 H 182.412 2.05735 4.82466 0
M  V30 1951 H 183.886 0.485555 5.4986 0
M  V30 1952 H 184.363 -0.742717 4.32875 0
M  V30 1953 H 184.969 0.920147 4.15227 0
M  V30 1954 N 183.284 -1.43765 0.645699 0
M  V30 1955 C 184.53 -2.02197 0.156271 0
M  V30 1956 C 184.863 -1.50776 -1.22393 0
M  V30 1957 O 184.138 -0.697771 -1.81553 0
M  V30 1958 C 184.421 -3.59749 0.158872 0
M  V30 1959 C 184.274 -4.21419 1.57245 0
M  V30 1960 C 185.593 -4.37149 -0.50879 0
M  V30 1961 H 182.712 -0.734694 0.0582602 0
M  V30 1962 H 185.354 -1.71157 0.824951 0
M  V30 1963 H 183.504 -3.86325 -0.410525 0
M  V30 1964 H 185.176 -4.059 2.19186 0
M  V30 1965 H 183.419 -3.78356 2.122 0
M  V30 1966 H 184.09 -5.30482 1.52619 0
M  V30 1967 H 186.566 -4.16093 -0.024412 0
M  V30 1968 H 185.442 -5.4683 -0.476213 0
M  V30 1969 H 185.703 -4.12839 -1.58165 0
M  V30 1970 N 184.763 -0.387143 -1.52771 0
M  V30 1971 C 185.991 0.195869 -2.05971 0
M  V30 1972 C 186.406 1.40691 -1.25903 0
M  V30 1973 O 185.763 1.79931 -0.305134 0
M  V30 1974 C 185.814 0.56812 -3.57008 0
M  V30 1975 O 185.535 -0.594803 -4.34043 0
M  V30 1976 C 187.036 1.20723 -4.26545 0
M  V30 1977 H 184.256 0.0300578 -0.670326 0
M  V30 1978 H 186.8 -0.551749 -1.96916 0
M  V30 1979 H 184.955 1.26564 -3.66143 0
M  V30 1980 H 185.369 -0.289322 -5.23701 0
M  V30 1981 H 186.843 1.41807 -5.33474 0
M  V30 1982 H 187.32 2.17395 -3.81623 0
M  V30 1983 H 187.926 0.550535 -4.21722 0
M  V30 1984 N 186.241 1.57166 -0.116904 0
M  V30 1985 C 187.171 2.18222 0.830759 0
M  V30 1986 C 188.152 1.12167 1.27877 0
M  V30 1987 O 189.337 1.40394 1.34176 0
M  V30 1988 C 186.467 2.77996 2.08172 0
M  V30 1989 C 185.421 3.89614 1.77157 0
M  V30 1990 C 184.747 4.36187 3.09265 0
M  V30 1991 C 186.047 5.1181 1.04151 0
M  V30 1992 H 187.741 2.97664 0.321992 0
M  V30 1993 H 185.287 1.4318 0.153434 0
M  V30 1994 H 187.24 3.19366 2.74924 0
M  V30 1995 H 185.964 1.9584 2.6137 0
M  V30 1996 H 184.623 3.48816 1.12796 0
M  V30 1997 H 184.271 3.50893 3.60393 0
M  V30 1998 H 183.971 5.11455 2.89288 0
M  V30 1999 H 185.495 4.80207 3.77139 0
M  V30 2000 H 186.909 5.50214 1.61052 0
M  V30 2001 H 185.306 5.92648 0.942762 0
M  V30 2002 H 186.376 4.84892 0.0279022 0
M  V30 2003 N 187.719 -0.156864 1.56817 0
M  V30 2004 C 188.947 -0.886316 1.86955 0
M  V30 2005 C 189.362 -1.75185 0.703975 0
M  V30 2006 O 188.719 -1.79555 -0.326552 0
M  V30 2007 C 188.77 -1.75117 3.16253 0
M  V30 2008 O 188.491 -0.920537 4.2832 0
M  V30 2009 C 189.992 -2.58905 3.59837 0
M  V30 2010 H 187.212 -0.25678 0.619923 0
M  V30 2011 H 189.756 -0.152615 2.0393 0
M  V30 2012 H 187.911 -2.43805 3.01062 0
M  V30 2013 H 188.325 -1.51337 5.02192 0
M  V30 2014 H 189.799 -3.1518 4.53172 0
M  V30 2015 H 190.276 -3.34472 2.84649 0
M  V30 2016 H 190.882 -1.95526 3.7769 0
M  V30 2017 N 189.197 -1.51736 -0.425897 0
M  V30 2018 C 190.129 -1.70083 -1.53638 0
M  V30 2019 C 191.142 -0.581349 -1.52066 0
M  V30 2020 O 192.331 -0.856017 -1.56635 0
M  V30 2021 C 189.431 -1.71078 -2.9255 0
M  V30 2022 C 188.604 -2.99795 -3.185 0
M  V30 2023 C 187.663 -2.92825 -4.37196 0
M  V30 2024 O 186.689 -3.66756 -4.35291 0
M  V30 2025 N 187.891 -2.0946 -5.41393 0
M  V30 2026 H 190.656 -2.65882 -1.383 0
M  V30 2027 H 188.217 -1.49765 -0.614988 0
M  V30 2028 H 190.209 -1.63969 -3.69995 0
M  V30 2029 H 188.779 -0.828242 -3.01428 0
M  V30 2030 H 187.999 -3.20684 -2.2925 0
M  V30 2031 H 189.287 -3.84977 -3.32671 0
M  V30 2032 H 188.685 -1.48792 -5.45781 0
M  V30 2033 H 187.242 -2.08221 -6.17647 0
M  V30 2034 N 190.675 0.682077 -1.42076 0
M  V30 2035 C 191.625 1.78823 -1.41444 0
M  V30 2036 C 192.609 1.58323 -0.28681 0
M  V30 2037 O 193.801 1.68926 -0.528498 0
M  V30 2038 C 190.93 3.17232 -1.3122 0
M  V30 2039 C 190.016 3.4338 -2.489 0
M  V30 2040 N 190.407 3.40152 -3.7434 0
M  V30 2041 C 188.705 3.73986 -2.43003 0
M  V30 2042 C 189.406 3.65581 -4.52466 0
M  V30 2043 N 188.382 3.85989 -3.8277 0
M  V30 2044 H 192.184 1.7471 -2.36334 0
M  V30 2045 H 189.698 0.882622 -1.36321 0
M  V30 2046 H 191.695 3.96489 -1.2885 0
M  V30 2047 H 190.355 3.22547 -0.373263 0
M  V30 2048 H 191.366 3.20221 -4.07037 0
M  V30 2049 H 188.043 3.86591 -1.57651 0
M  V30 2050 H 189.433 3.69108 -5.61435 0
M  V30 2051 N 192.153 1.28127 0.917671 0
M  V30 2052 C 193.399 1.15223 1.66888 0
M  V30 2053 C 193.732 -0.299293 1.9188 0
M  V30 2054 O 193.007 -1.21805 1.51637 0
M  V30 2055 C 193.29 1.94706 3.02922 0
M  V30 2056 C 193.143 3.47898 2.85109 0
M  V30 2057 C 194.462 1.75939 4.03402 0
M  V30 2058 H 191.581 0.419946 0.605652 0
M  V30 2059 H 194.223 1.57398 1.06423 0
M  V30 2060 H 192.373 1.58864 3.54534 0
M  V30 2061 H 194.045 3.93624 2.40537 0
M  V30 2062 H 192.288 3.7373 2.20246 0
M  V30 2063 H 192.959 3.98765 3.81694 0
M  V30 2064 H 195.435 2.07209 3.60837 0
M  V30 2065 H 194.311 2.33931 4.96556 0
M  V30 2066 H 194.572 0.709877 4.36364 0
M  V30 2067 N 193.631 -1.12557 1.10312 0
M  V30 2068 C 194.563 -2.17971 0.708625 0
M  V30 2069 C 195.576 -1.60806 -0.254027 0
M  V30 2070 O 196.765 -1.78458 -0.0386891 0
M  V30 2071 C 193.865 -3.38891 0.0248198 0
M  V30 2072 C 193.038 -4.25548 1.01132 0
M  V30 2073 C 192.097 -5.24972 0.35924 0
M  V30 2074 O 191.123 -5.60174 1.00965 0
M  V30 2075 N 192.325 -5.73747 -0.882847 0
M  V30 2076 H 195.09 -2.52427 1.61557 0
M  V30 2077 H 192.651 -1.27967 0.991771 0
M  V30 2078 H 194.643 -4.02485 -0.422852 0
M  V30 2079 H 193.213 -3.02596 -0.784514 0
M  V30 2080 H 192.433 -3.58589 1.6373 0
M  V30 2081 H 193.721 -4.80294 1.67914 0
M  V30 2082 H 193.119 -5.4731 -1.43065 0
M  V30 2083 H 191.676 -6.39234 -1.27369 0
M  V30 2084 N 195.109 -0.891671 -1.2995 0
M  V30 2085 C 196.52 -0.563104 -1.78006 0
M  V30 2086 C 196.871 0.920978 -1.73241 0
M  V30 2087 O 195.996 1.71987 -1.31337 0
M  V30 2088 C 196.591 -1.01539 -3.23226 0
M  V30 2089 C 195.15 -0.738124 -3.69092 0
M  V30 2090 C 194.297 -1.19461 -2.50249 0
M  V30 2091 H 197.248 -1.07522 -1.16725 0
M  V30 2092 H 197.269 -0.347217 -3.78912 0
M  V30 2093 H 196.781 -2.09555 -3.26662 0
M  V30 2094 H 194.882 0.329766 -3.71138 0
M  V30 2095 H 194.995 -1.33037 -4.60259 0
M  V30 2096 H 193.359 -0.613787 -2.47194 0
M  V30 2097 H 194.142 -2.28265 -2.56417 0
M  V30 2098 N 196.587 1.43421 -0.653314 0
M  V30 2099 C 197.998 1.85065 -0.246537 0
M  V30 2100 C 198.349 1.54688 1.2069 0
M  V30 2101 O 197.474 0.995896 1.92122 0
M  V30 2102 C 198.069 3.35922 -0.440666 0
M  V30 2103 C 196.628 3.76297 -0.0882064 0
M  V30 2104 C 195.775 2.67147 -0.743484 0
M  V30 2105 H 198.726 1.33572 -0.856979 0
M  V30 2106 H 198.747 3.79204 0.313798 0
M  V30 2107 H 198.259 3.58 -1.49858 0
M  V30 2108 H 196.36 3.5983 0.96711 0
M  V30 2109 H 196.473 4.76338 -0.513738 0
M  V30 2110 H 194.837 2.54086 -0.176712 0
M  V30 2111 H 195.62 2.92053 -1.80443 0
M  V30 2112 N 198.065 0.39524 1.52563 0
M  V30 2113 C 198.975 -0.444232 2.30356 0
M  V30 2114 C 199.991 -1.06615 1.37511 0
M  V30 2115 O 201.167 -1.07067 1.70583 0
M  V30 2116 C 198.232 -1.55315 3.09964 0
M  V30 2117 C 197.293 -0.955734 4.18526 0
M  V30 2118 C 196.526 -2.01181 4.9433 0
M  V30 2119 O 196.749 -3.22781 4.70285 0
M  V30 2120 O 195.683 -1.62579 5.79527 0
M  V30 2121 H 199.509 0.189667 3.03107 0
M  V30 2122 H 197.094 0.1588 1.48554 0
M  V30 2123 H 198.976 -2.19724 3.59582 0
M  V30 2124 H 197.651 -2.17191 2.4002 0
M  V30 2125 H 196.558 -0.274743 3.7309 0
M  V30 2126 H 197.891 -0.381109 4.90722 0
M  V30 2127 N 199.544 -1.57102 0.125237 0
M  V30 2128 C 200.955 -1.82384 -0.399142 0
M  V30 2129 C 201.306 -1.04276 -1.66195 0
M  V30 2130 O 200.431 -0.281269 -2.14564 0
M  V30 2131 C 201.026 -3.30821 -0.730932 0
M  V30 2132 C 199.585 -3.56762 -1.19992 0
M  V30 2133 C 198.732 -2.7649 -0.211792 0
M  V30 2134 H 201.683 -1.54786 0.350277 0
M  V30 2135 H 201.704 -3.4579 -1.58775 0
M  V30 2136 H 201.216 -3.87643 0.188345 0
M  V30 2137 H 199.317 -3.05305 -2.13588 0
M  V30 2138 H 199.43 -4.65317 -1.14093 0
M  V30 2139 H 197.794 -2.4489 -0.700085 0
M  V30 2140 H 198.577 -3.36073 0.700691 0
M  V30 2141 N 201.022 0.148545 -1.56898 0
M  V30 2142 C 202.438 0.501131 -1.51528 0
M  V30 2143 C 202.638 1.83458 -0.833399 0
M  V30 2144 O 201.694 2.49259 -0.40328 0
M  V30 2145 C 203.007 0.512864 -2.96294 0
M  V30 2146 C 204.555 0.598487 -3.07225 0
M  V30 2147 C 205.03 0.640897 -4.53494 0
M  V30 2148 N 206.521 0.703163 -4.57832 0
M  V30 2149 C 207.256 0.756935 -5.68382 0
M  V30 2150 N 206.752 0.770147 -6.88506 0
M  V30 2151 N 208.545 0.797698 -5.56411 0
M  V30 2152 H 200.696 -0.725532 -1.99624 0
M  V30 2153 H 202.959 -0.264358 -0.910395 0
M  V30 2154 H 202.665 -0.398691 -3.49433 0
M  V30 2155 H 202.539 1.35133 -3.52163 0
M  V30 2156 H 204.926 1.50046 -2.54106 0
M  V30 2157 H 205.007 -0.267093 -2.54402 0
M  V30 2158 H 204.651 -0.256915 -5.0725 0
M  V30 2159 H 204.581 1.52295 -5.04097 0
M  V30 2160 H 207.072 0.700314 -3.71354 0
M  V30 2161 H 207.385 0.812983 -7.68512 0
M  V30 2162 H 205.73 0.738049 -6.9107 0
M  V30 2163 H 208.921 0.784535 -4.61479 0
M  V30 2164 H 209.094 0.83614 -6.42583 0
M  V30 2165 N 202.5 1.5196 0.417844 0
M  V30 2166 C 203.777 1.56146 1.17803 0
M  V30 2167 C 204.157 0.337275 2.08388 0
M  V30 2168 O 203.505 -0.676447 2.18258 0
M  V30 2169 C 203.715 2.88566 1.96293 0
M  V30 2170 C 205.063 3.41244 2.52662 0
M  V30 2171 O 206.087 2.90247 2.06483 0
M  V30 2172 O 204.946 4.30273 3.36938 0
M  V30 2173 H 202.04 0.628598 0.537395 0
M  V30 2174 H 204.586 1.64283 0.425331 0
M  V30 2175 H 203.358 3.69116 1.2988 0
M  V30 2176 H 202.981 2.83681 2.78587 0
M  V30 2177 N 203.978 -0.674533 1.42435 0
M  V30 2178 C 204.908 -1.80009 1.48724 0
M  V30 2179 C 205.889 -1.6659 0.343793 0
M  V30 2180 O 207.074 -1.86007 0.558137 0
M  V30 2181 C 204.204 -3.18306 1.38919 0
M  V30 2182 C 203.158 -3.46461 2.51294 0
M  V30 2183 C 202.484 -4.84335 2.26547 0
M  V30 2184 C 203.784 -3.43328 3.93603 0
M  V30 2185 H 205.478 -1.75004 2.42928 0
M  V30 2186 H 203.024 -0.840533 1.16923 0
M  V30 2187 H 204.977 -3.9678 1.41927 0
M  V30 2188 H 203.701 -3.2399 0.412094 0
M  V30 2189 H 202.36 -2.70348 2.47604 0
M  V30 2190 H 202.008 -4.86669 1.2713 0
M  V30 2191 H 201.708 -5.04136 3.01861 0
M  V30 2192 H 203.232 -5.65094 2.31304 0
M  V30 2193 H 204.646 -4.11772 3.98894 0
M  V30 2194 H 203.043 -3.74664 4.68771 0
M  V30 2195 H 204.113 -2.41897 4.20255 0
M  V30 2196 N 205.456 -1.28612 -0.910864 0
M  V30 2197 C 206.388 -1.08589 -2.01844 0
M  V30 2198 C 207.401 -0.0367419 -1.62759 0
M  V30 2199 O 208.59 -0.280101 -1.76289 0
M  V30 2200 C 205.69 -0.628626 -3.33019 0
M  V30 2201 C 204.863 -1.75382 -4.00699 0
M  V30 2202 C 203.922 -1.28945 -5.10156 0
M  V30 2203 O 202.948 -1.9922 -5.33198 0
M  V30 2204 N 204.15 -0.154224 -5.80295 0
M  V30 2205 H 206.915 -2.03973 -2.19579 0
M  V30 2206 H 204.476 -1.20403 -1.08234 0
M  V30 2207 H 206.468 -0.301508 -4.03575 0
M  V30 2208 H 205.038 0.232451 -3.11735 0
M  V30 2209 H 204.258 -2.25039 -3.23653 0
M  V30 2210 H 205.546 -2.50854 -4.42662 0
M  V30 2211 H 204.944 0.43194 -5.64049 0
M  V30 2212 H 203.501 0.113599 -6.51701 0
M  V30 2213 N 206.934 1.1197 -1.10907 0
M  V30 2214 C 208.183 1.82947 -0.849302 0
M  V30 2215 C 208.496 1.85275 0.627112 0
M  V30 2216 O 209.702 2.52296 1.00295 0
M  V30 2217 C 208.158 3.28529 -1.46959 0
M  V30 2218 C 207.766 3.34546 -2.97965 0
M  V30 2219 C 209.51 4.04443 -1.28942 0
M  V30 2220 C 207.417 4.74491 -3.53004 0
M  V30 2221 H 206.347 0.685477 -0.314065 0
M  V30 2222 H 208.998 1.2604 -1.33365 0
M  V30 2223 H 207.38 3.85333 -0.912917 0
M  V30 2224 H 208.554 2.87654 -3.59989 0
M  V30 2225 H 206.869 2.72108 -3.15192 0
M  V30 2226 H 209.466 5.07787 -1.67502 0
M  V30 2227 H 209.809 4.15656 -0.231456 0
M  V30 2228 H 210.342 3.5401 -1.81443 0
M  V30 2229 H 207.081 4.68474 -4.58489 0
M  V30 2230 H 206.601 5.21816 -2.9575 0
M  V30 2231 H 208.28 5.4344 -3.51115 0
M  V30 2232 N 208.412 0.89855 1.29475 0
M  V30 2233 C 209.637 0.538561 2.00285 0
M  V30 2234 C 210.062 -0.869135 1.66816 0
M  V30 2235 O 209.42 -1.57831 0.892145 0
M  V30 2236 C 209.468 0.736475 3.52999 0
M  V30 2237 O 208.572 -0.211537 4.11857 0
M  V30 2238 H 207.913 0.210563 0.62973 0
M  V30 2239 H 210.443 1.20982 1.64998 0
M  V30 2240 H 210.453 0.640685 4.02938 0
M  V30 2241 H 209.128 1.76276 3.76696 0
M  V30 2242 H 207.705 -0.0682991 3.72837 0
M  V30 2243 N 209.89 -1.43072 0.660911 0
M  V30 2244 C 211.118 -2.06067 0.185422 0
M  V30 2245 C 211.533 -1.49582 -1.15198 0
M  V30 2246 O 210.89 -0.630134 -1.71276 0
M  V30 2247 C 210.941 -3.61371 0.0966523 0
M  V30 2248 O 210.662 -4.15758 1.38119 0
M  V30 2249 C 212.163 -4.41455 -0.403996 0
M  V30 2250 H 209.383 -0.664459 0.0934604 0
M  V30 2251 H 211.927 -1.83447 0.90373 0
M  V30 2252 H 210.082 -3.8315 -0.572259 0
M  V30 2253 H 210.496 -5.09499 1.24542 0
M  V30 2254 H 211.97 -5.50437 -0.415045 0
M  V30 2255 H 212.447 -4.15036 -1.43674 0
M  V30 2256 H 213.053 -4.24663 0.232691 0
M  V30 2257 N 211.368 -0.403325 -1.52352 0
M  V30 2258 C 212.645 0.232611 -1.94212 0
M  V30 2259 C 213.025 1.63133 -1.33981 0
M  V30 2260 O 212.373 2.22659 -0.513344 0
M  V30 2261 C 212.583 0.244811 -3.4814 0
M  V30 2262 C 213.931 0.46698 -4.22024 0
M  V30 2263 O 214.955 0.324419 -3.5472 0
M  V30 2264 O 213.814 0.74747 -5.41364 0
M  V30 2265 H 210.908 0.148223 -0.813609 0
M  V30 2266 H 213.454 -0.458848 -1.63379 0
M  V30 2267 H 212.226 -0.734378 -3.84347 0
M  V30 2268 H 211.849 0.980611 -3.85318 0
M  V30 2269 N 212.846 1.57033 -0.133567 0
M  V30 2270 C 213.778 2.13176 0.841944 0
M  V30 2271 C 214.791 1.07794 1.22001 0
M  V30 2272 O 215.98 1.35117 1.16643 0
M  V30 2273 C 213.08 2.62847 2.13926 0
M  V30 2274 C 212.253 3.92486 1.93064 0
M  V30 2275 C 211.312 4.27605 3.0666 0
M  V30 2276 O 210.338 4.96168 2.78937 0
M  V30 2277 N 211.54 3.861 4.33483 0
M  V30 2278 H 214.305 2.97503 0.362192 0
M  V30 2279 H 211.866 1.61821 0.05042 0
M  V30 2280 H 213.858 2.83363 2.88942 0
M  V30 2281 H 212.428 1.83319 2.53205 0
M  V30 2282 H 211.648 3.80732 1.02159 0
M  V30 2283 H 212.936 4.77225 1.76447 0
M  V30 2284 H 212.334 3.30828 4.58878 0
M  V30 2285 H 210.891 4.11694 5.05323 0
M  V30 2286 N 214.325 -0.140222 1.56975 0
M  V30 2287 C 215.602 -0.880769 1.74648 0
M  V30 2288 C 215.982 -1.99036 0.703404 0
M  V30 2289 O 215.33 -2.26821 -0.27648 0
M  V30 2290 C 215.54 -1.417 3.18939 0
M  V30 2291 C 216.888 -1.87774 3.80823 0
M  V30 2292 O 217.912 -1.51427 3.2241 0
M  V30 2293 O 216.771 -2.54827 4.83452 0
M  V30 2294 H 213.865 -0.416713 0.714338 0
M  V30 2295 H 216.411 -0.125618 1.69234 0
M  V30 2296 H 215.183 -0.619902 3.86359 0
M  V30 2297 H 214.806 -2.23546 3.28805 0
M  V30 2298 N 215.803 -1.52179 -0.40978 0
M  V30 2299 C 216.753 -1.71857 -1.49831 0
M  V30 2300 C 217.737 -0.572469 -1.50372 0
M  V30 2301 O 218.929 -0.829509 -1.56359 0
M  V30 2302 C 216.058 -1.87206 -2.87765 0
M  V30 2303 C 215.144 -3.07685 -2.91875 0
M  V30 2304 N 215.535 -4.30403 -2.65683 0
M  V30 2305 C 213.833 -3.07505 -3.23043 0
M  V30 2306 C 214.534 -5.11868 -2.76344 0
M  V30 2307 N 213.51 -4.47101 -3.09195 0
M  V30 2308 H 217.312 -2.64381 -1.28375 0
M  V30 2309 H 214.826 -1.50203 -0.617479 0
M  V30 2310 H 216.823 -1.99419 -3.66111 0
M  V30 2311 H 215.483 -0.958814 -3.10221 0
M  V30 2312 H 216.494 -4.58887 -2.4009 0
M  V30 2313 H 213.171 -2.25915 -3.51096 0
M  V30 2314 H 214.561 -6.19634 -2.59814 0
M  V30 2315 N 217.281 0.66697 -1.42791 0
M  V30 2316 C 218.528 1.42699 -1.43678 0
M  V30 2317 C 218.856 1.94419 -0.0560425 0
M  V30 2318 O 218.111 1.7182 0.936831 0
M  V30 2319 C 218.41 2.6349 -2.4147 0
M  V30 2320 C 218.076 2.30267 -3.8767 0
M  V30 2321 C 216.738 2.20918 -4.27491 0
M  V30 2322 C 219.09 2.03435 -4.79858 0
M  V30 2323 C 216.418 1.82873 -5.57471 0
M  V30 2324 C 218.77 1.66892 -6.10188 0
M  V30 2325 C 217.434 1.56058 -6.49001 0
M  V30 2326 H 216.704 0.522171 -0.525755 0
M  V30 2327 H 219.351 0.759785 -1.75783 0
M  V30 2328 H 217.656 3.35279 -2.0272 0
M  V30 2329 H 219.353 3.21684 -2.39417 0
M  V30 2330 H 215.943 2.38449 -3.56146 0
M  V30 2331 H 220.127 2.09586 -4.49875 0
M  V30 2332 H 215.383 1.7306 -5.86396 0
M  V30 2333 H 219.557 1.45157 -6.81104 0
M  V30 2334 H 217.184 1.26348 -7.49627 0
M  V30 2335 N 218.759 1.29093 0.90403 0
M  V30 2336 C 219.689 1.16401 2.02418 0
M  V30 2337 C 220.67 0.0593085 1.69997 0
M  V30 2338 O 221.855 0.238021 1.92736 0
M  V30 2339 C 218.985 0.835233 3.37107 0
M  V30 2340 C 217.939 1.89578 3.83724 0
M  V30 2341 C 217.265 1.42041 5.15489 0
M  V30 2342 C 218.565 3.30394 4.04521 0
M  V30 2343 H 220.259 2.10109 2.13295 0
M  V30 2344 H 217.805 1.01157 1.02486 0
M  V30 2345 H 219.758 0.733169 4.14973 0
M  V30 2346 H 218.482 -0.137543 3.2631 0
M  V30 2347 H 217.141 1.98715 3.08071 0
M  V30 2348 H 216.789 0.436426 5.01103 0
M  V30 2349 H 216.489 2.12964 5.4765 0
M  V30 2350 H 218.013 1.33176 5.959 0
M  V30 2351 H 219.427 3.24123 4.72882 0
M  V30 2352 H 217.824 3.99237 4.48029 0
M  V30 2353 H 218.894 3.73692 3.09002 0
M  V30 2354 N 220.237 -1.11381 1.11499 0
M  V30 2355 C 221.167 -2.19509 0.796125 0
M  V30 2356 C 222.148 -1.68458 -0.235796 0
M  V30 2357 O 223.333 -1.93947 -0.0991344 0
M  V30 2358 C 220.463 -3.46475 0.239205 0
M  V30 2359 C 219.417 -4.10744 1.20307 0
M  V30 2360 C 218.743 -5.32293 0.50683 0
M  V30 2361 C 220.043 -4.55597 2.55399 0
M  V30 2362 H 221.737 -2.46439 1.70024 0
M  V30 2363 H 219.283 -1.18446 0.818935 0
M  V30 2364 H 221.236 -4.214 0.00392006 0
M  V30 2365 H 219.96 -3.19006 -0.700206 0
M  V30 2366 H 218.619 -3.37813 1.42399 0
M  V30 2367 H 218.267 -5.01095 -0.437408 0
M  V30 2368 H 217.967 -5.76243 1.1497 0
M  V30 2369 H 219.491 -6.09956 0.280351 0
M  V30 2370 H 220.905 -5.21841 2.37391 0
M  V30 2371 H 219.302 -5.10363 3.15673 0
M  V30 2372 H 220.372 -3.69013 3.14575 0
M  V30 2373 N 221.715 -0.905404 -1.28997 0
M  V30 2374 C 222.943 -0.549846 -1.9946 0
M  V30 2375 C 223.358 0.866834 -1.67724 0
M  V30 2376 O 222.715 1.57298 -0.925404 0
M  V30 2377 C 222.766 -0.739387 -3.53858 0
M  V30 2378 O 222.487 -2.10031 -3.84472 0
M  V30 2379 C 223.988 -0.389541 -4.41585 0
M  V30 2380 H 221.208 -0.210429 -0.637151 0
M  V30 2381 H 223.752 -1.21632 -1.64396 0
M  V30 2382 H 221.907 -0.120023 -3.87214 0
M  V30 2383 H 222.321 -2.13385 -4.79132 0
M  V30 2384 H 223.795 -0.572972 -5.49018 0
M  V30 2385 H 224.272 0.673756 -4.34001 0
M  V30 2386 H 224.878 -0.986089 -4.1371 0
M  V30 2387 N 223.193 1.4272 -0.668489 0
M  V30 2388 C 224.439 2.02443 -0.197076 0
M  V30 2389 C 224.794 1.51882 1.18109 0
M  V30 2390 O 224.087 0.708618 1.78015 0
M  V30 2391 C 224.281 3.57021 -0.164499 0
M  V30 2392 C 224.11 4.22583 -1.53797 0
M  V30 2393 C 222.88 4.58019 -2.13416 0
M  V30 2394 C 225.078 4.50588 -2.47941 0
M  V30 2395 N 223.06 5.08729 -3.4361 0
M  V30 2396 C 224.431 5.02782 -3.62782 0
M  V30 2397 C 226.486 4.32571 -2.46551 0
M  V30 2398 C 225.189 5.38852 -4.76478 0
M  V30 2399 C 227.215 4.69713 -3.59338 0
M  V30 2400 C 226.577 5.22053 -4.72906 0
M  V30 2401 H 222.676 0.773214 -0.116894 0
M  V30 2402 H 225.26 1.73673 -0.880108 0
M  V30 2403 H 223.431 3.85323 0.487925 0
M  V30 2404 H 225.163 4.03439 0.319207 0
M  V30 2405 H 221.918 4.43566 -1.65969 0
M  V30 2406 H 222.342 5.38521 -4.10273 0
M  V30 2407 H 226.984 3.91365 -1.59978 0
M  V30 2408 H 224.702 5.78993 -5.63731 0
M  V30 2409 H 228.288 4.57454 -3.59482 0
M  V30 2410 H 227.168 5.50258 -5.58736 0
M  V30 2411 N 224.671 0.411399 1.52136 0
M  V30 2412 C 225.896 -0.165538 2.06738 0
M  V30 2413 C 226.321 -1.379 1.27926 0
M  V30 2414 O 225.679 -1.78628 0.310114 0
M  V30 2415 C 225.727 -0.492124 3.57226 0
M  V30 2416 O 224.831 -1.58276 3.80818 0
M  V30 2417 H 224.172 -0.0132132 0.663869 0
M  V30 2418 H 226.702 0.585253 1.96051 0
M  V30 2419 H 226.712 -0.750104 4.01045 0
M  V30 2420 H 225.387 0.394922 4.14021 0
M  V30 2421 H 223.964 -1.31677 3.48877 0
M  V30 2422 N 226.149 -1.5696 0.141893 0
M  V30 2423 C 227.395 -1.9625 -0.511248 0
M  V30 2424 C 227.728 -1.02654 -1.64851 0
M  V30 2425 O 227.003 -0.0679676 -1.94381 0
M  V30 2426 C 227.286 -3.45285 -1.02227 0
M  V30 2427 C 227.139 -4.49658 0.113138 0
M  V30 2428 C 228.458 -3.96698 -1.90574 0
M  V30 2429 H 225.577 -0.713567 -0.184367 0
M  V30 2430 H 228.219 -1.88698 0.222087 0
M  V30 2431 H 226.369 -3.51852 -1.64719 0
M  V30 2432 H 228.041 -4.55174 0.749302 0
M  V30 2433 H 226.284 -4.26857 0.773026 0
M  V30 2434 H 226.955 -5.51258 -0.286053 0
M  V30 2435 H 229.431 -3.92578 -1.37918 0
M  V30 2436 H 228.307 -5.01453 -2.2324 0
M  V30 2437 H 228.568 -3.3875 -2.84079 0
M  V30 2438 N 227.627 0.131896 -1.57047 0
M  V30 2439 C 228.59 1.14638 -1.98471 0
M  V30 2440 C 229.59 1.35029 -0.873148 0
M  V30 2441 O 230.78 1.31764 -1.13946 0
M  V30 2442 C 227.912 2.50358 -2.31373 0
M  V30 2443 H 229.105 0.79064 -2.8929 0
M  V30 2444 H 226.658 0.375761 -1.51716 0
M  V30 2445 H 227.393 2.90876 -1.43393 0
M  V30 2446 H 227.178 2.36915 -3.12432 0
M  V30 2447 H 228.668 3.23395 -2.64207 0
M  V30 2448 N 229.106 1.52395 0.401703 0
M  V30 2449 C 230.036 1.79231 1.49661 0
M  V30 2450 C 231.017 0.643654 1.57452 0
M  V30 2451 O 232.202 0.889989 1.72606 0
M  V30 2452 C 229.332 1.94971 2.87409 0
M  V30 2453 C 228.286 3.10604 2.94465 0
M  V30 2454 C 227.612 3.11577 4.34538 0
M  V30 2455 C 228.912 4.49921 2.6527 0
M  V30 2456 H 230.606 2.70917 1.27454 0
M  V30 2457 H 228.152 1.30362 0.6117 0
M  V30 2458 H 230.105 2.12328 3.63999 0
M  V30 2459 H 228.829 0.999632 3.10926 0
M  V30 2460 H 227.488 2.93009 2.20321 0
M  V30 2461 H 227.136 2.14277 4.55076 0
M  V30 2462 H 226.836 3.89247 4.40183 0
M  V30 2463 H 228.36 3.31073 5.13053 0
M  V30 2464 H 229.774 4.67683 3.31581 0
M  V30 2465 H 228.171 5.29564 2.82281 0
M  V30 2466 H 229.241 4.57507 1.60671 0
M  V30 2467 N 230.584 -0.659388 1.43143 0
M  V30 2468 C 231.832 -1.41654 1.44147 0
M  V30 2469 C 232.153 -1.94893 0.0645739 0
M  V30 2470 O 231.423 -1.74044 -0.899198 0
M  V30 2471 H 230.003 -0.525708 0.530697 0
M  V30 2472 H 232.665 -0.778097 1.78694 0
M  V30 2473 H 231.761 -2.26195 2.1504 0
M  V30 2474 N 232.062 -1.29571 -0.897171 0
M  V30 2475 C 233.287 -1.20705 -1.68656 0
M  V30 2476 C 233.712 0.228582 -1.86706 0
M  V30 2477 O 233.07 1.16494 -1.3892 0
M  V30 2478 C 233.118 -1.9282 -3.04717 0
M  V30 2479 O 232.222 -1.24697 -3.93096 0
M  V30 2480 H 231.563 -0.418126 -0.515816 0
M  V30 2481 H 234.093 -1.71183 -1.12061 0
M  V30 2482 H 234.103 -2.01372 -3.54843 0
M  V30 2483 H 232.778 -2.97239 -2.90899 0
M  V30 2484 H 231.355 -1.2442 -3.51531 0
M  V30 2485 N 233.54 1.10788 -1.12088 0
M  V30 2486 C 234.951 1.64181 -0.88891 0
M  V30 2487 C 235.302 1.87508 0.577498 0
M  V30 2488 O 234.427 1.61434 1.44112 0
M  V30 2489 C 235.022 2.98257 -1.60712 0
M  V30 2490 C 233.581 3.4853 -1.42139 0
M  V30 2491 C 232.728 2.23208 -1.6454 0
M  V30 2492 H 235.679 0.943368 -1.27618 0
M  V30 2493 H 235.7 3.65552 -1.05604 0
M  V30 2494 H 235.212 2.81246 -2.67436 0
M  V30 2495 H 233.313 3.70692 -0.376552 0
M  V30 2496 H 233.426 4.26882 -2.17505 0
M  V30 2497 H 231.79 2.31169 -1.06925 0
M  V30 2498 H 232.573 2.08733 -2.72554 0
M  V30 2499 N 235.018 0.912232 1.28515 0
M  V30 2500 C 235.95 0.35676 2.26406 0
M  V30 2501 C 236.963 -0.503933 1.54804 0
M  V30 2502 O 238.152 -0.319059 1.75625 0
M  V30 2503 C 235.252 -0.508825 3.35058 0
M  V30 2504 C 234.425 0.329007 4.36161 0
M  V30 2505 C 233.484 -0.471422 5.24084 0
M  V30 2506 O 232.51 0.115482 5.69083 0
M  V30 2507 N 233.712 -1.77479 5.52704 0
M  V30 2508 H 236.477 1.19818 2.74707 0
M  V30 2509 H 234.038 0.778022 1.4198 0
M  V30 2510 H 236.03 -1.051 3.90815 0
M  V30 2511 H 234.6 -1.25095 2.86478 0
M  V30 2512 H 233.82 1.05256 3.79888 0
M  V30 2513 H 235.108 0.90234 5.00735 0
M  V30 2514 H 234.506 -2.27417 5.17975 0
M  V30 2515 H 233.063 -2.26382 6.11224 0
M  V30 2516 N 236.496 -1.42363 0.676048 0
M  V30 2517 C 237.721 -2.06377 0.205705 0
M  V30 2518 C 238.146 -1.50463 -1.12883 0
M  V30 2519 O 237.504 -0.623619 -1.70237 0
M  V30 2520 C 237.552 -3.60277 0.152655 0
M  V30 2521 O 236.656 -4.02935 -0.87845 0
M  V30 2522 H 235.997 -0.655588 0.105359 0
M  V30 2523 H 238.527 -1.82475 0.925412 0
M  V30 2524 H 238.537 -4.07993 -0.0230675 0
M  V30 2525 H 237.212 -4.00346 1.12675 0
M  V30 2526 H 235.789 -3.66764 -0.673668 0
M  V30 2527 N 237.974 -0.419461 -1.51915 0
M  V30 2528 C 238.924 0.418496 -2.24126 0
M  V30 2529 C 239.908 1.00495 -1.25656 0
M  V30 2530 O 241.1 0.926058 -1.50842 0
M  V30 2531 C 238.229 1.52899 -3.07371 0
M  V30 2532 C 237.315 0.952797 -4.13258 0
M  V30 2533 N 237.706 0.104175 -5.05693 0
M  V30 2534 C 236.004 1.22224 -4.28926 0
M  V30 2535 C 236.705 -0.21752 -5.81293 0
M  V30 2536 N 235.681 0.394293 -5.42168 0
M  V30 2537 H 239.483 -0.236048 -2.92951 0
M  V30 2538 H 236.997 -0.230481 -1.60756 0
M  V30 2539 H 238.994 2.14199 -3.57665 0
M  V30 2540 H 237.654 2.18605 -2.40088 0
M  V30 2541 H 238.665 -0.260924 -5.17242 0
M  V30 2542 H 235.342 1.87812 -3.72871 0
M  V30 2543 H 236.732 -0.906992 -6.6575 0
M  V30 2544 N 239.452 1.56882 -0.150215 0
M  V30 2545 C 240.698 1.97299 0.494427 0
M  V30 2546 C 241.053 1.0338 1.62266 0
M  V30 2547 O 240.346 0.0694497 1.91474 0
M  V30 2548 C 240.54 3.41801 1.04437 0
M  V30 2549 C 240.369 4.49691 -0.0290451 0
M  V30 2550 C 239.139 5.03095 -0.47156 0
M  V30 2551 C 241.337 5.07693 -0.821703 0
M  V30 2552 N 239.319 5.94593 -1.52749 0
M  V30 2553 C 240.69 5.95431 -1.72805 0
M  V30 2554 C 242.745 4.90256 -0.869134 0
M  V30 2555 C 241.448 6.67599 -2.67777 0
M  V30 2556 C 243.474 5.63127 -1.8067 0
M  V30 2557 C 242.836 6.50576 -2.70057 0
M  V30 2558 H 238.935 0.76755 0.149639 0
M  V30 2559 H 241.519 1.93145 -0.24556 0
M  V30 2560 H 239.69 3.46541 1.75396 0
M  V30 2561 H 241.422 3.69272 1.6559 0
M  V30 2562 H 238.177 4.73543 -0.0732101 0
M  V30 2563 H 238.601 6.45047 -2.05531 0
M  V30 2564 H 243.243 4.22363 -0.192134 0
M  V30 2565 H 240.961 7.34717 -3.36476 0
M  V30 2566 H 244.547 5.51629 -1.84924 0
M  V30 2567 H 243.427 7.05974 -3.41424 0
M  V30 2568 N 240.93 -0.123565 1.57115 0
M  V30 2569 C 241.86 -1.15309 2.03042 0
M  V30 2570 C 242.841 -1.43454 0.914061 0
M  V30 2571 O 244.026 -1.53973 1.18347 0
M  V30 2572 C 241.156 -2.48043 2.43089 0
M  V30 2573 C 240.11 -2.3437 3.58127 0
M  V30 2574 C 239.436 -3.72026 3.84059 0
M  V30 2575 C 240.736 -1.80804 4.90007 0
M  V30 2576 H 242.43 -0.771102 2.893 0
M  V30 2577 H 239.976 -0.369479 1.39179 0
M  V30 2578 H 241.929 -3.20311 2.73823 0
M  V30 2579 H 240.653 -2.88122 1.53796 0
M  V30 2580 H 239.312 -1.64551 3.27595 0
M  V30 2581 H 238.96 -4.09582 2.91979 0
M  V30 2582 H 238.66 -3.63732 4.6149 0
M  V30 2583 H 240.184 -4.45806 4.1724 0
M  V30 2584 H 241.598 -2.42886 5.19307 0
M  V30 2585 H 239.995 -1.83343 5.71407 0
M  V30 2586 H 241.065 -0.76528 4.78823 0
M  V30 2587 N 242.408 -1.52605 -0.393616 0
M  V30 2588 C 243.633 -1.71592 -1.16495 0
M  V30 2589 C 244.058 -0.43133 -1.83088 0
M  V30 2590 O 243.416 0.612523 -1.7064 0
M  V30 2591 C 243.464 -2.86318 -2.19213 0
M  V30 2592 O 242.568 -2.52969 -3.257 0
M  V30 2593 H 241.909 -0.570734 -0.33935 0
M  V30 2594 H 244.439 -1.99377 -0.459324 0
M  V30 2595 H 244.449 -3.1168 -2.63286 0
M  V30 2596 H 243.124 -3.79511 -1.7013 0
M  V30 2597 H 241.701 -2.38332 -2.86797 0
M  V30 2598 N 243.887 0.651787 -1.4349 0
M  V30 2599 C 245.298 1.233 -1.40193 0
M  V30 2600 C 245.649 1.9591 -0.106727 0
M  V30 2601 O 244.774 2.01316 0.793773 0
M  V30 2602 C 245.369 2.24257 -2.53957 0
M  V30 2603 C 243.928 2.77852 -2.5392 0
M  V30 2604 C 243.075 1.52517 -2.3159 0
M  V30 2605 H 246.026 0.443717 -1.52371 0
M  V30 2606 H 246.047 3.0646 -2.25528 0
M  V30 2607 H 245.559 1.71382 -3.4821 0
M  V30 2608 H 243.66 3.34786 -1.63551 0
M  V30 2609 H 243.773 3.25299 -3.51735 0
M  V30 2610 H 242.137 1.79915 -1.80285 0
M  V30 2611 H 242.92 1.01574 -3.27929 0
M  V30 2612 N 245.365 1.30045 0.890287 0
M  V30 2613 C 246.613 1.18327 1.63839 0
M  V30 2614 C 246.934 -0.263455 1.93212 0
M  V30 2615 O 246.204 -1.17856 1.56482 0
M  V30 2616 H 244.784 0.434933 0.607324 0
M  V30 2617 H 247.446 1.631 1.06698 0
M  V30 2618 H 246.542 1.74024 2.59079 0
M  V30 2619 N 246.843 -1.10192 1.12674 0
M  V30 2620 C 248.12 -1.78717 0.794965 0
M  V30 2621 C 248.5 -1.98628 -0.714853 0
M  V30 2622 O 247.848 -1.58135 -1.64941 0
M  V30 2623 C 248.058 -3.11546 1.5729 0
M  V30 2624 C 249.406 -3.86382 1.76052 0
M  V30 2625 O 250.43 -3.21274 1.53823 0
M  V30 2626 O 249.289 -5.03246 2.13087 0
M  V30 2627 H 246.383 -0.774702 0.289423 0
M  V30 2628 H 248.929 -1.16819 1.23091 0
M  V30 2629 H 247.701 -2.92489 2.59935 0
M  V30 2630 H 247.324 -3.81164 1.13137 0
M  V30 2631 N 248.321 -0.919034 -1.28029 0
M  V30 2632 C 249.251 -0.428581 -2.29533 0
M  V30 2633 C 250.232 0.50659 -1.62381 0
M  V30 2634 O 251.417 0.413195 -1.89753 0
M  V30 2635 C 248.547 0.327388 -3.45753 0
M  V30 2636 C 247.501 -0.519137 -4.2484 0
M  V30 2637 C 246.827 0.365486 -5.33449 0
M  V30 2638 C 248.127 -1.77914 -4.91064 0
M  V30 2639 H 249.821 -1.27687 -2.70807 0
M  V30 2640 H 247.367 -0.615428 -1.30186 0
M  V30 2641 H 249.32 0.681378 -4.15855 0
M  V30 2642 H 248.044 1.20963 -3.03374 0
M  V30 2643 H 246.703 -0.855717 -3.56473 0
M  V30 2644 H 246.351 1.24642 -4.87312 0
M  V30 2645 H 246.051 -0.197356 -5.87268 0
M  V30 2646 H 247.575 0.715241 -6.06396 0
M  V30 2647 H 248.989 -1.49374 -5.53498 0
M  V30 2648 H 247.386 -2.2848 -5.54903 0
M  V30 2649 H 248.456 -2.50382 -4.15255 0
M  V30 2650 N 249.799 1.42003 -0.683588 0
M  V30 2651 C 250.709 2.34597 -0.0109075 0
M  V30 2652 C 251.725 1.55576 0.779245 0
M  V30 2653 O 252.901 1.88107 0.719555 0
M  V30 2654 C 249.966 3.34199 0.922588 0
M  V30 2655 C 249.027 4.29115 0.125984 0
M  V30 2656 C 248.26 5.23959 1.01502 0
M  V30 2657 O 248.483 5.23952 2.25456 0
M  V30 2658 O 247.417 6.00053 0.47111 0
M  V30 2659 H 251.243 2.93675 -0.773853 0
M  V30 2660 H 248.828 1.42654 -0.443861 0
M  V30 2661 H 250.71 3.95365 1.45823 0
M  V30 2662 H 249.385 2.77582 1.66523 0
M  V30 2663 H 248.292 3.71335 -0.453969 0
M  V30 2664 H 249.625 4.88798 -0.577736 0
M  V30 2665 N 251.277 0.427512 1.51691 0
M  V30 2666 C 252.524 -0.142229 2.02 0
M  V30 2667 C 252.852 -1.43566 1.31221 0
M  V30 2668 O 252.107 -1.91298 0.412744 0
M  V30 2669 C 252.406 -0.418249 3.54944 0
M  V30 2670 C 252.072 0.788187 4.43958 0
M  V30 2671 C 250.734 1.11906 4.68007 0
M  V30 2672 C 253.086 1.59347 4.96244 0
M  V30 2673 C 250.414 2.25608 5.41588 0
M  V30 2674 C 252.766 2.7214 5.71072 0
M  V30 2675 C 251.43 3.05692 5.93387 0
M  V30 2676 H 250.7 -0.0520451 0.73917 0
M  V30 2677 H 253.347 0.572697 1.82736 0
M  V30 2678 H 251.652 -1.21496 3.72486 0
M  V30 2679 H 253.349 -0.872339 3.91397 0
M  V30 2680 H 249.939 0.520344 4.2543 0
M  V30 2681 H 254.123 1.35106 4.77556 0
M  V30 2682 H 249.379 2.51929 5.57083 0
M  V30 2683 H 253.553 3.34914 6.10578 0
M  V30 2684 H 251.18 3.9391 6.50184 0
M  V30 2685 N 252.755 -1.56801 0.158532 0
M  V30 2686 C 253.665 -2.20916 -0.789518 0
M  V30 2687 C 254.681 -1.1969 -1.26294 0
M  V30 2688 O 255.857 -1.52308 -1.31773 0
M  V30 2689 C 252.922 -2.82727 -2.00665 0
M  V30 2690 C 251.983 -3.99114 -1.58134 0
M  V30 2691 C 251.216 -4.57968 -2.74045 0
M  V30 2692 O 251.439 -4.15704 -3.90572 0
M  V30 2693 O 250.373 -5.48047 -2.48855 0
M  V30 2694 H 254.199 -3.02464 -0.273681 0
M  V30 2695 H 251.784 -1.4924 -0.0690548 0
M  V30 2696 H 253.666 -3.21968 -2.71872 0
M  V30 2697 H 252.341 -2.04184 -2.51179 0
M  V30 2698 H 251.248 -3.64567 -0.839155 0
M  V30 2699 H 252.581 -4.79212 -1.12325 0
M  V30 2700 N 254.233 0.115231 -1.57178 0
M  V30 2701 C 255.479 0.82357 -1.85325 0
M  V30 2702 C 255.812 1.79349 -0.744814 0
M  V30 2703 O 255.087 1.92899 0.249024 0
M  V30 2704 C 255.37 1.57014 -3.24066 0
M  V30 2705 C 255.223 0.619565 -4.45513 0
M  V30 2706 C 256.542 2.52545 -3.60429 0
M  V30 2707 H 253.661 0.297948 -0.674089 0
M  V30 2708 H 256.303 0.0877138 -1.89797 0
M  V30 2709 H 254.453 2.19742 -3.20383 0
M  V30 2710 H 256.125 0.000837639 -4.613 0
M  V30 2711 H 254.368 -0.0686174 -4.33746 0
M  V30 2712 H 255.039 1.17866 -5.3927 0
M  V30 2713 H 257.515 1.9992 -3.64926 0
M  V30 2714 H 256.391 3.01811 -4.58477 0
M  V30 2715 H 256.652 3.35383 -2.88047 0
M  V30 2716 N 255.711 1.52812 0.385517 0
M  V30 2717 C 256.957 1.68275 1.13188 0
M  V30 2718 C 257.29 0.423179 1.89533 0
M  V30 2719 O 256.565 -0.579113 1.85679 0
M  V30 2720 C 256.848 2.92001 2.1073 0
M  V30 2721 C 256.701 4.28067 1.38125 0
M  V30 2722 C 258.02 3.11283 3.11113 0
M  V30 2723 H 255.139 0.612352 0.410115 0
M  V30 2724 H 257.781 1.85415 0.414869 0
M  V30 2725 H 255.931 2.77519 2.71874 0
M  V30 2726 H 257.603 4.54324 0.799187 0
M  V30 2727 H 255.846 4.28388 0.683092 0
M  V30 2728 H 256.517 5.10733 2.09417 0
M  V30 2729 H 258.993 3.2482 2.6006 0
M  V30 2730 H 257.869 3.99325 3.76605 0
M  V30 2731 H 258.13 2.25656 3.80173 0
M  V30 2732 N 257.189 -0.644168 1.43834 0
M  V30 2733 C 258.419 -1.42939 1.49171 0
M  V30 2734 C 258.827 -1.88874 0.111048 0
M  V30 2735 O 258.17 -1.60656 -0.8908 0
M  V30 2736 C 258.232 -2.69151 2.38324 0
M  V30 2737 C 257.896 -2.45097 3.85715 0
M  V30 2738 C 258.893 -2.07747 4.76589 0
M  V30 2739 C 256.578 -2.59141 4.30292 0
M  V30 2740 C 258.572 -1.8475 6.10038 0
M  V30 2741 C 256.259 -2.35759 5.63792 0
M  V30 2742 C 257.257 -1.9862 6.53482 0
M  V30 2743 O 256.945 -1.75489 7.84512 0
M  V30 2744 H 256.677 -0.445271 0.508635 0
M  V30 2745 H 259.231 -0.79621 1.8934 0
M  V30 2746 H 257.461 -3.3506 1.93058 0
M  V30 2747 H 259.15 -3.31123 2.3476 0
M  V30 2748 H 259.916 -1.96465 4.43426 0
M  V30 2749 H 255.795 -2.87022 3.60749 0
M  V30 2750 H 259.339 -1.55686 6.80006 0
M  V30 2751 H 255.236 -2.46646 5.9652 0
M  V30 2752 H 256.004 -1.89841 7.9618 0
M  V30 2753 N 258.668 -1.30515 -0.883378 0
M  V30 2754 C 259.615 -1.17032 -1.98927 0
M  V30 2755 C 260.585 -0.0594241 -1.65994 0
M  V30 2756 O 261.77 -0.229895 -1.8941 0
M  V30 2757 C 258.91 -0.869777 -3.33959 0
M  V30 2758 C 258.023 -2.06271 -3.79574 0
M  V30 2759 C 257.158 -1.70011 -5.03259 0
M  V30 2760 C 256.197 -2.8579 -5.41286 0
M  V30 2761 N 255.334 -2.49816 -6.56153 0
M  V30 2762 H 260.174 -2.1164 -2.09792 0
M  V30 2763 H 257.711 -1.05296 -1.02719 0
M  V30 2764 H 259.669 -0.676138 -4.11685 0
M  V30 2765 H 258.299 0.0394332 -3.22776 0
M  V30 2766 H 257.351 -2.36755 -2.97744 0
M  V30 2767 H 258.663 -2.92971 -4.03694 0
M  V30 2768 H 257.817 -1.47032 -5.88614 0
M  V30 2769 H 256.556 -0.804829 -4.81013 0
M  V30 2770 H 255.561 -3.09434 -4.54456 0
M  V30 2771 H 256.786 -3.76008 -5.65504 0
M  V30 2772 H 254.732 -1.62795 -6.35479 0
M  V30 2773 H 254.649 -3.30048 -6.8015 0
M  V30 2774 H 255.917 -2.30197 -7.44735 0
M  V30 2775 N 260.146 1.09593 -1.13257 0
M  V30 2776 C 261.562 1.33775 -0.870423 0
M  V30 2777 C 261.762 1.95327 0.494926 0
M  V30 2778 O 260.818 2.19853 1.2418 0
M  V30 2779 C 262.131 2.25106 -1.99369 0
M  V30 2780 C 263.679 2.3862 -2.02558 0
M  V30 2781 C 264.154 3.33285 -3.14142 0
M  V30 2782 N 265.645 3.40857 -3.13641 0
M  V30 2783 C 266.38 4.14101 -3.96621 0
M  V30 2784 N 265.876 4.90157 -4.8961 0
M  V30 2785 N 267.669 4.09808 -3.84726 0
M  V30 2786 H 259.82 0.680136 -2.01216 0
M  V30 2787 H 262.083 0.362133 -0.876107 0
M  V30 2788 H 261.789 1.87103 -2.97801 0
M  V30 2789 H 261.663 3.25481 -1.90635 0
M  V30 2790 H 264.05 2.75887 -1.0474 0
M  V30 2791 H 264.131 1.38028 -2.15364 0
M  V30 2792 H 263.775 2.96741 -4.12198 0
M  V30 2793 H 263.705 4.33776 -2.98574 0
M  V30 2794 H 266.196 2.86624 -2.46282 0
M  V30 2795 H 266.509 5.4347 -5.49418 0
M  V30 2796 H 264.854 4.89251 -4.93617 0
M  V30 2797 H 268.045 3.4949 -3.11408 0
M  V30 2798 H 268.218 4.66629 -4.49623 0
M  V30 2799 N 261.624 0.925811 1.2754 0
M  V30 2800 C 262.554 0.440748 2.29303 0
M  V30 2801 C 263.535 -0.497971 1.62648 0
M  V30 2802 O 264.72 -0.403126 1.8997 0
M  V30 2803 C 261.85 -0.309048 3.45922 0
M  V30 2804 C 260.804 0.54166 4.24559 0
M  V30 2805 C 260.13 -0.337191 5.33636 0
M  V30 2806 C 261.43 1.80516 4.90114 0
M  V30 2807 H 263.124 1.29121 2.70126 0
M  V30 2808 H 260.67 0.622323 1.29858 0
M  V30 2809 H 262.623 -0.659315 4.1621 0
M  V30 2810 H 261.347 -1.19352 3.04011 0
M  V30 2811 H 260.006 0.874609 3.56014 0
M  V30 2812 H 259.654 -1.22056 4.87966 0
M  V30 2813 H 259.354 0.228497 5.87156 0
M  V30 2814 H 260.878 -0.683072 6.06767 0
M  V30 2815 H 262.292 1.52307 5.52698 0
M  V30 2816 H 260.689 2.3142 5.53683 0
M  V30 2817 H 261.759 2.52581 4.13921 0
M  V30 2818 N 263.102 -1.41638 0.69111 0
M  V30 2819 C 264.034 -2.29194 -0.0161523 0
M  V30 2820 C 265.047 -1.44549 -0.748955 0
M  V30 2821 O 266.236 -1.681 -0.6004 0
M  V30 2822 C 263.336 -3.22325 -1.0469 0
M  V30 2823 C 262.509 -4.35706 -0.384621 0
M  V30 2824 C 261.568 -5.09443 -1.31737 0
M  V30 2825 O 260.594 -5.63386 -0.811451 0
M  V30 2826 N 261.796 -5.16487 -2.64993 0
M  V30 2827 H 264.561 -2.90534 0.735523 0
M  V30 2828 H 262.122 -1.52742 0.53679 0
M  V30 2829 H 264.114 -3.68522 -1.67252 0
M  V30 2830 H 262.684 -2.62323 -1.70015 0
M  V30 2831 H 261.904 -3.91948 0.420804 0
M  V30 2832 H 263.192 -5.08743 0.0760765 0
M  V30 2833 H 262.59 -4.741 -3.08619 0
M  V30 2834 H 261.147 -5.66276 -3.22761 0
M  V30 2835 N 264.58 -0.43555 -1.51462 0
M  V30 2836 C 265.857 0.191364 -1.94662 0
M  V30 2837 C 266.237 1.60254 -1.37411 0
M  V30 2838 O 265.585 2.2152 -0.560458 0
M  V30 2839 C 265.795 0.17091 -3.48581 0
M  V30 2840 C 267.143 0.377357 -4.2292 0
M  V30 2841 O 268.167 0.249104 -3.55328 0
M  V30 2842 O 267.026 0.63247 -5.42828 0
M  V30 2843 H 264.12 0.130932 -0.816569 0
M  V30 2844 H 266.666 -0.4934 -1.62369 0
M  V30 2845 H 265.438 -0.815738 -3.82703 0
M  V30 2846 H 265.061 0.898659 -3.87311 0
M  V30 2847 N 266.058 1.56714 -0.166846 0
M  V30 2848 C 267.283 2.01557 0.488833 0
M  V30 2849 C 267.708 1.0463 1.56314 0
M  V30 2850 O 267.066 0.0251304 1.81283 0
M  V30 2851 C 267.114 3.4503 1.04818 0
M  V30 2852 O 266.218 3.51163 2.16236 0
M  V30 2853 H 265.559 0.653516 0.117526 0
M  V30 2854 H 268.089 2.02818 -0.269421 0
M  V30 2855 H 268.099 3.84243 1.37191 0
M  V30 2856 H 266.774 4.15077 0.261572 0
M  V30 2857 H 265.351 3.23807 1.84942 0
M  V30 2858 N 267.536 -0.106894 1.57237 0
M  V30 2859 C 268.782 -0.808678 1.86633 0
M  V30 2860 C 269.137 -1.76917 0.756178 0
M  V30 2861 O 268.43 -1.90055 -0.242834 0
M  V30 2862 C 268.624 -1.58628 3.20268 0
M  V30 2863 C 268.453 -0.702592 4.44178 0
M  V30 2864 C 267.223 -0.352808 5.04067 0
M  V30 2865 C 269.421 -0.0148031 5.14298 0
M  V30 2866 N 267.403 0.540279 6.11518 0
M  V30 2867 C 268.774 0.736809 6.15606 0
M  V30 2868 C 270.829 0.0603524 4.97863 0
M  V30 2869 C 269.532 1.55654 7.02257 0
M  V30 2870 C 271.558 0.866942 5.85011 0
M  V30 2871 C 270.92 1.60671 6.85831 0
M  V30 2872 H 267.019 -0.27246 0.733001 0
M  V30 2873 H 269.603 -0.0717858 1.94568 0
M  V30 2874 H 267.774 -2.29413 3.13408 0
M  V30 2875 H 269.506 -2.23434 3.3743 0
M  V30 2876 H 266.261 -0.697802 4.68431 0
M  V30 2877 H 266.685 0.979029 6.69884 0
M  V30 2878 H 271.327 -0.497236 4.19866 0
M  V30 2879 H 269.045 2.12524 7.79653 0
M  V30 2880 H 272.631 0.927612 5.74358 0
M  V30 2881 H 271.511 2.2208 7.52097 0
M  V30 2882 N 269.014 -1.53014 -0.377408 0
M  V30 2883 C 269.924 -1.81557 -1.48574 0
M  V30 2884 C 270.94 -0.703102 -1.59162 0
M  V30 2885 O 272.116 -0.99192 -1.75279 0
M  V30 2886 C 269.181 -1.9889 -2.83978 0
M  V30 2887 C 268.242 -3.22801 -2.83016 0
M  V30 2888 C 267.475 -3.39298 -4.11962 0
M  V30 2889 O 267.698 -2.60345 -5.0752 0
M  V30 2890 O 266.632 -4.32604 -4.18494 0
M  V30 2891 H 270.458 -2.75695 -1.27382 0
M  V30 2892 H 268.043 -1.38248 -0.566373 0
M  V30 2893 H 269.925 -2.11931 -3.6423 0
M  V30 2894 H 268.6 -1.07942 -3.05172 0
M  V30 2895 H 267.507 -3.15193 -2.01505 0
M  V30 2896 H 268.84 -4.13632 -2.66775 0
M  V30 2897 N 270.492 0.636531 -1.44174 0
M  V30 2898 C 271.769 1.39463 -1.37148 0
M  V30 2899 C 272.149 2.11082 -0.027507 0
M  V30 2900 O 271.497 2.05954 0.989716 0
M  V30 2901 C 271.707 2.36552 -2.56601 0
M  V30 2902 C 273.055 3.00048 -3.00427 0
M  V30 2903 O 274.079 2.46878 -2.56767 0
M  V30 2904 O 272.938 3.96488 -3.76111 0
M  V30 2905 H 270.032 0.623903 -0.542839 0
M  V30 2906 H 272.578 0.662039 -1.56253 0
M  V30 2907 H 271.35 1.82692 -3.46034 0
M  V30 2908 H 270.973 3.17236 -2.39681 0
M  V30 2909 N 271.97 1.30982 0.876444 0
M  V30 2910 C 272.933 1.18054 1.96459 0
M  V30 2911 C 273.933 0.109399 1.60427 0
M  V30 2912 O 275.123 0.358173 1.70478 0
M  V30 2913 C 272.255 0.810616 3.31122 0
M  V30 2914 H 273.448 2.14735 2.09354 0
M  V30 2915 H 271.001 1.145 1.06392 0
M  V30 2916 H 271.736 -0.155322 3.23928 0
M  V30 2917 H 271.521 1.58481 3.58645 0
M  V30 2918 H 273.011 0.743876 4.10921 0
M  V30 2919 N 273.449 -1.08991 1.13837 0
M  V30 2920 C 274.412 -2.13925 0.822715 0
M  V30 2921 C 275.412 -1.599 -0.1699 0
M  V30 2922 O 276.602 -1.74104 0.0577251 0
M  V30 2923 C 273.734 -3.40155 0.225318 0
M  V30 2924 H 274.927 -2.43358 1.75262 0
M  V30 2925 H 272.48 -1.24603 0.943594 0
M  V30 2926 H 273.215 -3.16352 -0.713594 0
M  V30 2927 H 273 -3.80661 0.940193 0
M  V30 2928 H 274.49 -4.17594 0.0214784 0
M  V30 2929 N 274.927 -0.932562 -1.27047 0
M  V30 2930 C 276.176 -0.571351 -1.93439 0
M  V30 2931 C 276.489 0.892467 -1.74053 0
M  V30 2932 O 277.695 1.36267 -2.34826 0
M  V30 2933 C 276.151 -0.97106 -3.46552 0
M  V30 2934 C 275.759 -2.4559 -3.74686 0
M  V30 2935 C 277.503 -0.681333 -4.18997 0
M  V30 2936 C 275.41 -2.79475 -5.21198 0
M  V30 2937 H 274.34 -0.209966 -0.724176 0
M  V30 2938 H 276.991 -1.13403 -1.44263 0
M  V30 2939 H 275.373 -0.336983 -3.94564 0
M  V30 2940 H 276.547 -3.13829 -3.37414 0
M  V30 2941 H 274.862 -2.71802 -3.15456 0
M  V30 2942 H 277.459 -0.910939 -5.26883 0
M  V30 2943 H 277.802 0.381628 -4.14547 0
M  V30 2944 H 278.335 -1.27473 -3.76823 0
M  V30 2945 H 275.074 -3.847 -5.30741 0
M  V30 2946 H 274.594 -2.1589 -5.596 0
M  V30 2947 H 276.273 -2.67478 -5.89122 0
M  V30 2948 N 276.405 1.4127 -0.698611 0
M  V30 2949 C 277.335 2.33447 -0.049629 0
M  V30 2950 C 278.316 1.51982 0.763898 0
M  V30 2951 O 279.501 1.80509 0.716257 0
M  V30 2952 C 276.631 3.35828 0.885267 0
M  V30 2953 C 275.585 4.27627 0.178613 0
M  V30 2954 C 274.911 5.20406 1.22807 0
M  V30 2955 C 276.211 5.13459 -0.956933 0
M  V30 2956 H 277.905 2.87966 -0.81951 0
M  V30 2957 H 275.451 1.38461 -0.395538 0
M  V30 2958 H 277.404 3.9924 1.34854 0
M  V30 2959 H 276.128 2.79666 1.68685 0
M  V30 2960 H 274.787 3.65643 -0.26466 0
M  V30 2961 H 274.435 4.60558 2.02226 0
M  V30 2962 H 274.135 5.82661 0.760239 0
M  V30 2963 H 275.659 5.86695 1.69179 0
M  V30 2964 H 277.073 5.70421 -0.573805 0
M  V30 2965 H 275.47 5.8467 -1.35205 0
M  V30 2966 H 276.54 4.50443 -1.79524 0
M  V30 2967 N 277.883 0.443576 1.51229 0
M  V30 2968 C 278.813 -0.355142 2.30783 0
M  V30 2969 C 279.794 -1.0154 1.36468 0
M  V30 2970 O 280.979 -1.01785 1.65389 0
M  V30 2971 C 278.109 -1.45312 3.15439 0
M  V30 2972 C 277.063 -0.916002 4.18083 0
M  V30 2973 C 276.389 -2.1102 4.91299 0
M  V30 2974 C 277.689 0.0538602 5.22272 0
M  V30 2975 H 279.383 0.308767 2.97804 0
M  V30 2976 H 276.929 0.149937 1.43217 0
M  V30 2977 H 278.882 -2.01914 3.69876 0
M  V30 2978 H 277.606 -2.14541 2.46252 0
M  V30 2979 H 276.265 -0.372145 3.64706 0
M  V30 2980 H 275.913 -2.78882 4.18609 0
M  V30 2981 H 275.613 -1.75717 5.60712 0
M  V30 2982 H 277.137 -2.68164 5.48562 0
M  V30 2983 H 278.551 -0.422069 5.71744 0
M  V30 2984 H 276.948 0.319776 5.99247 0
M  V30 2985 H 278.018 0.98858 4.74716 0
M  V30 2986 N 279.361 -1.56624 0.175154 0
M  V30 2987 C 280.586 -2.01813 -0.478137 0
M  V30 2988 C 281.011 -1.05457 -1.55757 0
M  V30 2989 O 280.369 -0.0347439 -1.81267 0
M  V30 2990 C 280.417 -3.45581 -1.02987 0
M  V30 2991 O 279.521 -3.52305 -2.14371 0
M  V30 2992 H 278.862 -0.65413 -0.114059 0
M  V30 2993 H 281.392 -2.02673 0.280173 0
M  V30 2994 H 281.402 -3.84965 -1.35151 0
M  V30 2995 H 280.077 -4.1521 -0.239556 0
M  V30 2996 H 278.654 -3.24783 -1.83222 0
M  V30 2997 N 280.839 0.0985539 -1.57292 0
M  V30 2998 C 281.787 1.1387 -2.02821 0
M  V30 2999 C 282.781 1.41676 -0.928666 0
M  V30 3000 O 283.987 1.41398 -1.11385 0
M  V30 3001 H 280.362 0.384419 -0.646317 0
M  V30 3002 H 282.333 0.728347 -2.89375 0
M  V30 3003 C 281.082 2.45166 -2.46554 0
M  V30 3004 H 280.405 2.24613 -3.3074 0
M  V30 3005 H 281.845 3.16456 -2.8219 0
M  V30 3006 C 280.304 3.09216 -1.33742 0
M  V30 3007 O 280.834 3.96163 -0.66464 0
M  V30 3008 N 279.04 2.69413 -1.08928 0
M  V30 3009 H 278.587 1.98801 -1.63817 0
M  V30 3010 H 278.545 3.12594 -0.336458 0
M  V30 3011 N 282.317 1.53212 0.369288 0
M  V30 3012 C 283.545 1.73119 1.13303 0
M  V30 3013 C 283.96 0.458455 1.83149 0
M  V30 3014 O 283.317 -0.568403 1.73423 0
M  V30 3015 C 283.368 2.89413 2.16616 0
M  V30 3016 O 283.089 4.11761 1.49614 0
M  V30 3017 C 284.59 3.21161 3.05566 0
M  V30 3018 H 281.81 0.579107 0.338934 0
M  V30 3019 H 284.354 1.99942 0.429338 0
M  V30 3020 H 282.509 2.64994 2.82589 0
M  V30 3021 H 282.923 4.76858 2.18419 0
M  V30 3022 H 284.397 4.05949 3.74045 0
M  V30 3023 H 284.874 2.36369 3.70171 0
M  V30 3024 H 285.48 3.47492 2.45213 0
M  V30 3025 N 283.795 -0.628877 1.44509 0
M  V30 3026 C 285.02 -1.42048 1.5112 0
M  V30 3027 C 285.445 -1.87594 0.137818 0
M  V30 3028 O 284.803 -1.58873 -0.873437 0
M  V30 3029 C 284.851 -2.61541 2.48251 0
M  V30 3030 O 283.955 -3.61453 1.98559 0
M  V30 3031 H 283.296 -0.424942 0.510216 0
M  V30 3032 H 285.826 -0.767374 1.89664 0
M  V30 3033 H 285.836 -3.09057 2.66361 0
M  V30 3034 H 284.511 -2.27736 3.48007 0
M  V30 3035 H 283.088 -3.20731 1.90227 0
M  V30 3036 N 285.273 -1.31445 -0.869486 0
M  V30 3037 C 286.205 -1.14955 -1.98287 0
M  V30 3038 C 287.218 -0.0885037 -1.62559 0
M  V30 3039 O 288.407 -0.336044 -1.75308 0
M  V30 3040 C 285.507 -0.734255 -3.3085 0
M  V30 3041 C 284.68 -1.88042 -3.94917 0
M  V30 3042 C 283.739 -1.4511 -5.05796 0
M  V30 3043 O 282.765 -2.16082 -5.2659 0
M  V30 3044 N 283.967 -0.338763 -5.79511 0
M  V30 3045 H 286.732 -2.10856 -2.12979 0
M  V30 3046 H 284.293 -1.23786 -1.04349 0
M  V30 3047 H 286.285 -0.42975 -4.02412 0
M  V30 3048 H 284.855 0.133158 -3.12316 0
M  V30 3049 H 284.075 -2.35222 -3.1633 0
M  V30 3050 H 285.363 -2.6481 -4.34457 0
M  V30 3051 H 284.761 0.252274 -5.65137 0
M  V30 3052 H 283.318 -0.0937925 -6.51733 0
M  V30 3053 N 286.751 1.08385 -1.14413 0
M  V30 3054 C 287.714 2.13486 -0.834048 0
M  V30 3055 C 288.714 1.59988 0.161418 0
M  V30 3056 O 289.904 1.74071 -0.0669575 0
M  V30 3057 C 287.036 3.4003 -0.243354 0
M  V30 3058 H 288.229 2.42425 -1.7655 0
M  V30 3059 H 285.782 1.24101 -0.950189 0
M  V30 3060 H 286.517 3.16726 0.696807 0
M  V30 3061 H 286.302 3.80157 -0.960367 0
M  V30 3062 H 287.792 4.17577 -0.0436242 0
M  V30 3063 N 288.23 0.939286 1.26551 0
M  V30 3064 C 289.458 0.602536 1.97932 0
M  V30 3065 C 289.873 -0.82206 1.69964 0
M  V30 3066 O 289.23 -1.54789 0.966784 0
M  V30 3067 C 289.281 0.832946 3.51773 0
M  V30 3068 O 289.002 2.20151 3.78768 0
M  V30 3069 C 290.503 0.506483 4.40397 0
M  V30 3070 H 287.723 0.227248 0.631347 0
M  V30 3071 H 290.267 1.25948 1.61113 0
M  V30 3072 H 288.422 0.222644 3.8676 0
M  V30 3073 H 288.836 2.26013 4.73306 0
M  V30 3074 H 290.31 0.718333 5.47306 0
M  V30 3075 H 290.787 -0.558451 4.35635 0
M  V30 3076 H 291.393 1.09543 4.10951 0
M  V30 3077 N 289.708 -1.40897 0.706093 0
M  V30 3078 C 290.638 -2.33418 0.0620085 0
M  V30 3079 C 291.619 -1.52385 -0.755827 0
M  V30 3080 O 292.804 -1.80886 -0.706674 0
M  V30 3081 C 289.934 -3.36293 -0.867445 0
M  V30 3082 C 288.888 -4.27716 -0.155932 0
M  V30 3083 C 288.214 -5.2105 -1.20046 0
M  V30 3084 C 289.514 -5.12944 0.984149 0
M  V30 3085 H 291.208 -2.87527 0.83477 0
M  V30 3086 H 288.754 -1.38249 0.402875 0
M  V30 3087 H 290.707 -3.99949 -1.32735 0
M  V30 3088 H 289.431 -2.80556 -1.67199 0
M  V30 3089 H 288.09 -3.65498 0.284047 0
M  V30 3090 H 287.738 -4.61624 -1.99781 0
M  V30 3091 H 287.438 -5.83056 -0.729328 0
M  V30 3092 H 288.962 -5.87584 -1.66066 0
M  V30 3093 H 290.376 -5.70109 0.604048 0
M  V30 3094 H 288.773 -5.83945 1.38304 0
M  V30 3095 H 289.843 -4.49485 1.81911 0
M  V30 3096 N 291.186 -0.45159 -1.50991 0
M  V30 3097 C 292.434 0.109857 -2.01801 0
M  V30 3098 C 292.755 1.41958 -1.3369 0
M  V30 3099 O 292.025 1.9003 -0.475951 0
M  V30 3100 H 290.605 0.0435884 -0.745727 0
M  V30 3101 H 293.267 -0.597557 -1.85514 0
M  V30 3102 H 292.363 0.275489 -3.10882 0
M  V30 3103 N 292.664 1.56529 -0.183458 0
M  V30 3104 C 294.075 1.83739 0.331177 0
M  V30 3105 C 294.426 1.10373 1.62211 0
M  V30 3106 O 293.551 0.36071 2.13373 0
M  V30 3107 C 294.146 3.33306 0.607646 0
M  V30 3108 C 292.705 3.60969 1.06668 0
M  V30 3109 C 291.852 2.77086 0.109029 0
M  V30 3110 H 294.803 1.53379 -0.407484 0
M  V30 3111 H 294.824 3.51444 1.45832 0
M  V30 3112 H 294.336 3.86677 -0.332086 0
M  V30 3113 H 292.437 3.13021 2.0211 0
M  V30 3114 H 292.55 4.69231 0.967447 0
M  V30 3115 H 290.914 2.47319 0.608714 0
M  V30 3116 H 291.697 3.33241 -0.82494 0
M  V30 3117 N 294.142 -0.090211 1.57342 0
M  V30 3118 C 295.052 -1.12735 2.05738 0
M  V30 3119 C 296.068 -1.43557 0.983231 0
M  V30 3120 O 297.244 -1.54101 1.29672 0
M  V30 3121 C 294.309 -2.42659 2.47624 0
M  V30 3122 C 293.37 -2.18975 3.69254 0
M  V30 3123 C 292.603 -3.42704 4.09133 0
M  V30 3124 O 292.826 -4.51127 3.49057 0
M  V30 3125 O 291.76 -3.32003 5.02053 0
M  V30 3126 H 295.586 -0.746279 2.94388 0
M  V30 3127 H 293.171 -0.303064 1.46294 0
M  V30 3128 H 295.053 -3.19155 2.7517 0
M  V30 3129 H 293.728 -2.80182 1.62109 0
M  V30 3130 H 292.635 -1.40244 3.46818 0
M  V30 3131 H 293.968 -1.86342 4.55563 0
M  V30 3132 N 295.62 -1.53406 -0.361157 0
M  V30 3133 C 296.57 -1.76536 -1.44287 0
M  V30 3134 C 297.554 -0.620019 -1.48474 0
M  V30 3135 O 298.746 -0.878834 -1.53641 0
M  V30 3136 C 295.875 -1.96266 -2.81664 0
M  V30 3137 C 294.961 -3.16815 -2.81938 0
M  V30 3138 N 295.352 -4.38637 -2.51855 0
M  V30 3139 C 293.65 -3.17627 -3.13096 0
M  V30 3140 C 294.351 -5.20401 -2.59919 0
M  V30 3141 N 293.327 -4.56712 -2.94814 0
M  V30 3142 H 297.129 -2.68331 -1.19899 0
M  V30 3143 H 294.643 -1.52091 -0.56938 0
M  V30 3144 H 296.64 -2.10966 -3.59582 0
M  V30 3145 H 295.3 -1.05702 -3.07013 0
M  V30 3146 H 296.311 -4.66293 -2.25369 0
M  V30 3147 H 292.988 -2.36971 -3.43731 0
M  V30 3148 H 294.378 -6.27586 -2.39969 0
M  V30 3149 N 297.098 0.621204 -1.44841 0
M  V30 3150 C 298.028 1.74366 -1.55303 0
M  V30 3151 C 299.009 1.65199 -0.405385 0
M  V30 3152 O 300.194 1.83807 -0.626787 0
M  V30 3153 C 297.324 3.12931 -1.50637 0
M  V30 3154 C 296.278 3.36896 -2.63979 0
M  V30 3155 C 295.604 4.75594 -2.44366 0
M  V30 3156 C 296.904 3.28483 -4.06074 0
M  V30 3157 H 298.598 1.65867 -2.49256 0
M  V30 3158 H 296.144 0.796558 -1.19962 0
M  V30 3159 H 298.097 3.9124 -1.56555 0
M  V30 3160 H 296.821 3.22237 -0.532057 0
M  V30 3161 H 295.48 2.60972 -2.57467 0
M  V30 3162 H 295.128 4.81616 -1.45105 0
M  V30 3163 H 294.828 4.92586 -3.20364 0
M  V30 3164 H 296.352 5.5612 -2.52117 0
M  V30 3165 H 297.766 3.96684 -4.13902 0
M  V30 3166 H 296.163 3.57008 -4.82354 0
M  V30 3167 H 297.233 2.26133 -4.28943 0
M  V30 3168 N 298.576 1.31904 0.862503 0
M  V30 3169 C 299.509 1.14514 1.97388 0
M  V30 3170 C 300.487 0.0466493 1.62533 0
M  V30 3171 O 301.671 0.204484 1.87388 0
M  V30 3172 C 298.798 0.751347 3.30261 0
M  V30 3173 C 297.844 1.85395 3.84098 0
M  V30 3174 S 298.677 3.46081 4.08642 0
M  V30 3175 C 299.833 3.08655 5.44502 0
M  V30 3176 H 300.066 2.08597 2.11836 0
M  V30 3177 H 297.599 1.16475 1.01356 0
M  V30 3178 H 299.557 0.530901 4.07052 0
M  V30 3179 H 298.218 -0.170493 3.13637 0
M  V30 3180 H 297.411 1.53122 4.80177 0
M  V30 3181 H 297.013 2.02984 3.14123 0
M  V30 3182 H 299.305 2.58012 6.26447 0
M  V30 3183 H 300.248 4.03726 5.81731 0
M  V30 3184 H 300.656 2.45891 5.08132 0
M  V30 3185 N 300.054 -1.07777 1.14986 0
M  V30 3186 C 301.465 -1.61766 0.932127 0
M  V30 3187 C 301.816 -1.88974 -0.527581 0
M  V30 3188 O 300.941 -1.65198 -1.39781 0
M  V30 3189 C 301.536 -2.93891 1.68563 0
M  V30 3190 C 300.095 -3.44639 1.5133 0
M  V30 3191 C 299.242 -2.18767 1.704 0
M  V30 3192 H 302.193 -0.909201 1.30074 0
M  V30 3193 H 302.214 -3.62623 1.15259 0
M  V30 3194 H 301.726 -2.74057 2.74799 0
M  V30 3195 H 299.827 -3.69564 0.474702 0
M  V30 3196 H 299.94 -4.20966 2.28746 0
M  V30 3197 H 298.304 -2.28253 1.13016 0
M  V30 3198 H 299.087 -2.01433 2.77992 0
M  V30 3199 N 301.532 -0.945985 -1.26051 0
M  V30 3200 C 302.757 -0.612525 -1.98149 0
M  V30 3201 C 303.182 0.806623 -1.69927 0
M  V30 3202 O 302.54 1.54411 -0.950108 0
M  V30 3203 C 302.588 -0.866981 -3.50023 0
M  V30 3204 O 301.692 0.0585333 -4.12358 0
M  V30 3205 H 301.033 -0.23379 -0.621481 0
M  V30 3206 H 303.563 -1.27023 -1.60395 0
M  V30 3207 H 303.573 -0.789792 -4.00283 0
M  V30 3208 H 302.248 -1.90135 -3.69894 0
M  V30 3209 H 300.825 -0.0701241 -3.72834 0
M  V30 3210 N 303.011 1.40521 -0.713556 0
M  V30 3211 C 304.236 2.05759 -0.26035 0
M  V30 3212 C 304.661 1.53403 1.08854 0
M  V30 3213 O 304.019 0.668535 1.68524 0
M  V30 3214 C 304.067 3.59745 -0.248122 0
M  V30 3215 O 303.171 4.05123 0.77131 0
M  V30 3216 H 302.512 0.652564 -0.122703 0
M  V30 3217 H 305.042 1.79958 -0.973467 0
M  V30 3218 H 305.052 4.07911 -0.0851129 0
M  V30 3219 H 303.727 3.97218 -1.2325 0
M  V30 3220 H 302.304 3.68422 0.57619 0
M  V30 3221 N 304.489 0.459591 1.5075 0
M  V30 3222 C 305.717 -0.0973749 2.06671 0
M  V30 3223 C 306.132 -1.34524 1.32472 0
M  V30 3224 O 305.489 -1.7827 0.390634 0
M  V30 3225 C 305.54 -0.39714 3.59312 0
M  V30 3226 O 305.261 0.801214 4.30711 0
M  V30 3227 C 306.762 -1.00234 4.31819 0
M  V30 3228 H 303.982 0.00195854 0.670997 0
M  V30 3229 H 306.526 0.645072 1.94059 0
M  V30 3230 H 304.681 -1.08951 3.71764 0
M  V30 3231 H 305.095 0.538857 5.21725 0
M  V30 3232 H 306.569 -1.16193 5.39632 0
M  V30 3233 H 307.046 -1.98939 3.91561 0
M  V30 3234 H 307.652 -0.348699 4.23868 0
M  V30 3235 N 305.967 -1.56429 0.191757 0
M  V30 3236 C 307.197 -2.01574 -0.452928 0
M  V30 3237 C 307.605 -1.07107 -1.55964 0
M  V30 3238 O 306.948 -0.067534 -1.83576 0
M  V30 3239 C 307.01 -3.43121 -1.07278 0
M  V30 3240 C 306.674 -4.56879 -0.105214 0
M  V30 3241 C 307.671 -5.15379 0.684149 0
M  V30 3242 C 305.356 -5.023 0.00489824 0
M  V30 3243 C 307.35 -6.17746 1.57062 0
M  V30 3244 C 305.037 -6.04511 0.894935 0
M  V30 3245 C 306.035 -6.62108 1.67637 0
M  V30 3246 O 305.723 -7.62335 2.55149 0
M  V30 3247 H 305.455 -0.665554 -0.118379 0
M  V30 3248 H 308.009 -2.03245 0.296737 0
M  V30 3249 H 306.239 -3.38425 -1.87097 0
M  V30 3250 H 307.928 -3.72093 -1.62177 0
M  V30 3251 H 308.694 -4.81157 0.609365 0
M  V30 3252 H 304.573 -4.57168 -0.593156 0
M  V30 3253 H 308.117 -6.6263 2.181 0
M  V30 3254 H 304.014 -6.38157 0.970847 0
M  V30 3255 H 304.782 -7.79741 2.48892 0
M  V30 3256 N 307.445 0.0818655 -1.57387 0
M  V30 3257 C 308.691 0.784074 -1.8703 0
M  V30 3258 C 309.024 1.77729 -0.782689 0
M  V30 3259 O 308.299 1.93384 0.208051 0
M  V30 3260 C 308.582 1.50105 -3.27323 0
M  V30 3261 C 308.435 0.524925 -4.46727 0
M  V30 3262 C 309.754 2.44843 -3.65705 0
M  V30 3263 H 306.873 0.283582 -0.680257 0
M  V30 3264 H 309.515 0.0474352 -1.89941 0
M  V30 3265 H 307.665 2.12897 -3.24972 0
M  V30 3266 H 309.337 -0.0970111 -4.61198 0
M  V30 3267 H 307.58 -0.160606 -4.33503 0
M  V30 3268 H 308.251 1.064 -5.41648 0
M  V30 3269 H 310.727 1.92135 -3.69085 0
M  V30 3270 H 309.603 2.92018 -4.64776 0
M  V30 3271 H 309.864 3.29197 -2.95096 0
M  V30 3272 N 308.923 1.53595 0.353017 0
M  V30 3273 C 309.886 1.80232 1.41594 0
M  V30 3274 C 310.886 0.673081 1.46035 0
M  V30 3275 O 312.076 0.941335 1.46576 0
M  V30 3276 C 309.208 1.93578 2.80607 0
M  V30 3277 H 310.401 2.75174 1.19244 0
M  V30 3278 H 307.954 1.44864 0.586872 0
M  V30 3279 H 308.689 1.00746 3.08254 0
M  V30 3280 H 308.474 2.75724 2.78781 0
M  V30 3281 H 309.964 2.15735 3.57558 0
M  V30 3282 N 310.401 -0.613514 1.45168 0
M  V30 3283 C 311.817 -0.933629 1.29443 0
M  V30 3284 C 312.017 -2.00028 0.243101 0
M  V30 3285 O 311.073 -2.49848 -0.364992 0
M  V30 3286 C 312.386 -1.38018 2.67155 0
M  V30 3287 C 313.934 -1.49471 2.75004 0
M  V30 3288 C 314.409 -1.97503 4.13227 0
M  V30 3289 N 315.9 -2.04746 4.15491 0
M  V30 3290 C 316.635 -2.43121 5.19307 0
M  V30 3291 N 316.131 -2.80506 6.33473 0
M  V30 3292 N 317.924 -2.43408 5.06664 0
M  V30 3293 H 310.075 0.0916097 2.12202 0
M  V30 3294 H 312.338 -0.0216655 0.947752 0
M  V30 3295 H 312.044 -0.670625 3.45247 0
M  V30 3296 H 311.918 -2.34784 2.95222 0
M  V30 3297 H 314.305 -2.19519 1.9722 0
M  V30 3298 H 314.386 -0.510342 2.50657 0
M  V30 3299 H 314.03 -1.28045 4.91495 0
M  V30 3300 H 313.96 -2.96843 4.34962 0
M  V30 3301 H 316.451 -1.78468 3.33103 0
M  V30 3302 H 316.764 -3.08652 7.08487 0
M  V30 3303 H 315.109 -2.78216 6.36884 0
M  V30 3304 H 318.3 -2.13604 4.16523 0
M  V30 3305 H 318.473 -2.72989 5.87691 0
M  V30 3306 N 311.879 -1.3236 -0.855495 0
M  V30 3307 C 313.125 -1.23054 -1.612 0
M  V30 3308 C 313.458 0.207404 -1.93089 0
M  V30 3309 O 312.733 1.14432 -1.57275 0
M  V30 3310 C 313.016 -2.08937 -2.93287 0
M  V30 3311 C 312.869 -3.61105 -2.68185 0
M  V30 3312 C 314.188 -1.94986 -3.94549 0
M  V30 3313 H 311.307 -0.448364 -0.584926 0
M  V30 3314 H 313.949 -1.62297 -0.987917 0
M  V30 3315 H 312.099 -1.75599 -3.46551 0
M  V30 3316 H 313.771 -4.04652 -2.21483 0
M  V30 3317 H 312.014 -3.83813 -2.02164 0
M  V30 3318 H 312.685 -4.16522 -3.62234 0
M  V30 3319 H 315.161 -2.24189 -3.5054 0
M  V30 3320 H 314.037 -2.57356 -4.84829 0
M  V30 3321 H 314.298 -0.917263 -4.3248 0
M  V30 3322 N 313.357 1.07166 -1.15556 0
M  V30 3323 C 314.773 1.31899 -0.898603 0
M  V30 3324 C 314.973 1.96333 0.453383 0
M  V30 3325 O 314.029 2.22438 1.19489 0
M  V30 3326 C 315.342 2.20826 -2.04099 0
M  V30 3327 C 316.89 2.34269 -2.07574 0
M  V30 3328 C 317.365 3.26546 -3.21141 0
M  V30 3329 N 318.856 3.34127 -3.20801 0
M  V30 3330 C 319.591 4.05595 -4.05315 0
M  V30 3331 N 319.087 4.79661 -4.99897 0
M  V30 3332 N 320.88 4.01555 -3.93332 0
M  V30 3333 H 313.031 0.637302 -2.02613 0
M  V30 3334 H 315.294 0.343468 -0.883591 0
M  V30 3335 H 315 1.80744 -3.01703 0
M  V30 3336 H 314.874 3.21364 -1.97496 0
M  V30 3337 H 317.261 2.73603 -1.10568 0
M  V30 3338 H 317.342 1.33429 -2.18244 0
M  V30 3339 H 316.986 2.87931 -4.184 0
M  V30 3340 H 316.916 4.27345 -3.07708 0
M  V30 3341 H 319.407 2.81336 -2.52306 0
M  V30 3342 H 319.72 5.31694 -5.60822 0
M  V30 3343 H 318.065 4.78671 -5.03884 0
M  V30 3344 H 321.256 3.42806 -3.18751 0
M  V30 3345 H 321.429 4.56987 -4.5942 0
M  V30 3346 N 314.835 0.952656 1.25548 0
M  V30 3347 C 316.063 0.623496 1.97282 0
M  V30 3348 C 316.478 -0.803987 1.70826 0
M  V30 3349 O 315.835 -1.53755 0.983147 0
M  V30 3350 C 315.886 0.870209 3.5087 0
M  V30 3351 O 315.607 2.24156 3.76412 0
M  V30 3352 C 317.108 0.553164 4.39835 0
M  V30 3353 H 314.328 0.233931 0.628902 0
M  V30 3354 H 316.872 1.27649 1.59768 0
M  V30 3355 H 315.027 0.263652 3.86502 0
M  V30 3356 H 315.441 2.31021 4.70882 0
M  V30 3357 H 316.915 0.776342 5.46513 0
M  V30 3358 H 317.392 -0.512215 4.36203 0
M  V30 3359 H 317.998 1.13896 4.09766 0
M  V30 3360 N 316.313 -1.40141 0.720998 0
M  V30 3361 C 317.729 -1.54632 0.395113 0
M  V30 3362 C 317.929 -1.69115 -1.09555 0
M  V30 3363 O 316.985 -1.68377 -1.88163 0
M  V30 3364 C 318.298 -2.77177 1.1659 0
M  V30 3365 C 319.846 -2.91 1.15274 0
M  V30 3366 C 320.321 -4.16465 1.90579 0
M  V30 3367 N 321.812 -4.23476 1.87675 0
M  V30 3368 C 322.547 -5.19475 2.42762 0
M  V30 3369 N 322.043 -6.21348 3.06428 0
M  V30 3370 N 323.836 -5.11592 2.32874 0
M  V30 3371 H 315.987 -1.28986 1.68749 0
M  V30 3372 H 318.25 -0.62412 0.713567 0
M  V30 3373 H 317.956 -2.72771 2.22011 0
M  V30 3374 H 317.83 -3.69442 0.76108 0
M  V30 3375 H 320.217 -2.94907 0.106702 0
M  V30 3376 H 320.298 -1.99838 1.59682 0
M  V30 3377 H 319.942 -4.1332 2.95176 0
M  V30 3378 H 319.872 -5.06646 1.43587 0
M  V30 3379 H 322.363 -3.50497 1.41281 0
M  V30 3380 H 322.676 -6.91034 3.45965 0
M  V30 3381 H 321.021 -6.21777 3.10514 0
M  V30 3382 H 324.212 -4.30936 1.82789 0
M  V30 3383 H 324.385 -5.86233 2.76106 0
M  V30 3384 N 317.792 -0.46758 -1.50504 0
M  V30 3385 C 318.722 0.318381 -2.31319 0
M  V30 3386 C 319.703 0.993564 -1.38066 0
M  V30 3387 O 320.888 0.991411 -1.66987 0
M  V30 3388 C 318.018 1.40275 -3.17711 0
M  V30 3389 C 316.972 0.849373 -4.19487 0
M  V30 3390 C 316.298 2.03177 -4.94594 0
M  V30 3391 C 317.598 -0.136942 -5.2212 0
M  V30 3392 H 319.292 -0.356106 -2.97275 0
M  V30 3393 H 316.838 -0.172703 -1.42961 0
M  V30 3394 H 318.791 1.96004 -3.73042 0
M  V30 3395 H 317.515 2.10596 -2.49634 0
M  V30 3396 H 316.174 0.314076 -3.65252 0
M  V30 3397 H 315.822 2.72187 -4.22993 0
M  V30 3398 H 315.522 1.66774 -5.63436 0
M  V30 3399 H 317.046 2.59403 -5.52759 0
M  V30 3400 H 318.46 0.331056 -5.72343 0
M  V30 3401 H 316.857 -0.41507 -5.98663 0
M  V30 3402 H 317.927 -1.06398 -4.73083 0
M  V30 3403 N 319.27 1.56325 -0.20005 0
M  V30 3404 C 320.233 2.18084 0.705132 0
M  V30 3405 C 321.233 1.13666 1.1374 0
M  V30 3406 O 322.423 1.39023 1.04968 0
M  V30 3407 C 319.555 2.78689 1.96329 0
M  V30 3408 H 320.748 2.99435 0.167023 0
M  V30 3409 H 318.301 1.56221 0.0495725 0
M  V30 3410 H 319.036 2.0115 2.5438 0
M  V30 3411 H 318.821 3.55133 1.66202 0
M  V30 3412 H 320.311 3.26096 2.60866 0
M  V30 3413 N 320.748 -0.0735177 1.57428 0
M  V30 3414 C 322.159 -0.625551 1.75908 0
M  V30 3415 C 322.51 -1.78 0.825261 0
M  V30 3416 O 321.635 -2.16398 0.00893964 0
M  V30 3417 C 322.23 -1.14155 3.18989 0
M  V30 3418 C 320.789 -1.63946 3.38819 0
M  V30 3419 C 319.936 -0.558151 2.71625 0
M  V30 3420 H 322.887 0.152647 1.57964 0
M  V30 3421 H 322.908 -2.0104 3.23053 0
M  V30 3422 H 322.42 -0.301116 3.8693 0
M  V30 3423 H 320.521 -2.50321 2.7599 0
M  V30 3424 H 320.634 -1.71759 4.47253 0
M  V30 3425 H 318.998 -1.00278 2.34129 0
M  V30 3426 H 319.781 0.272071 3.4222 0
M  V30 3427 N 322.226 -1.5378 -0.344866 0
M  V30 3428 C 323.474 -1.70625 -1.08311 0
M  V30 3429 C 323.795 -0.471447 -1.89215 0
M  V30 3430 O 323.065 0.514616 -1.8902 0
M  V30 3431 H 321.645 -0.629058 -0.402859 0
M  V30 3432 H 324.307 -1.9103 -0.386459 0
M  V30 3433 H 323.403 -2.57656 -1.76124 0
M  V30 3434 N 323.704 0.605807 -1.45491 0
M  V30 3435 C 324.929 1.39625 -1.53361 0
M  V30 3436 C 325.354 1.87351 -0.167645 0
M  V30 3437 O 324.712 1.60243 0.848051 0
M  V30 3438 C 324.76 2.57559 -2.5238 0
M  V30 3439 O 323.864 3.58248 -2.04285 0
M  V30 3440 H 323.205 0.416771 -0.516912 0
M  V30 3441 H 325.735 0.737103 -1.90861 0
M  V30 3442 H 325.745 3.0478 -2.71244 0
M  V30 3443 H 324.42 2.22171 -3.51586 0
M  V30 3444 H 322.997 3.17664 -1.95305 0
M  V30 3445 N 325.182 1.32811 0.848464 0
M  V30 3446 C 326.598 1.11937 1.13764 0
M  V30 3447 C 326.798 -0.0960789 2.01271 0
M  V30 3448 O 325.854 -0.779165 2.40178 0
M  V30 3449 C 327.167 2.402 1.809 0
M  V30 3450 C 328.715 2.46016 1.93508 0
M  V30 3451 C 329.19 3.74215 2.64059 0
M  V30 3452 N 330.681 3.75232 2.71579 0
M  V30 3453 C 331.416 4.71134 3.26833 0
M  V30 3454 N 330.912 5.77406 3.8285 0
M  V30 3455 N 332.705 4.58623 3.24995 0
M  V30 3456 H 324.856 2.1073 0.265855 0
M  V30 3457 H 327.119 0.930671 0.180431 0
M  V30 3458 H 326.825 3.29093 1.24058 0
M  V30 3459 H 326.699 2.51628 2.81004 0
M  V30 3460 H 329.086 1.57577 2.49506 0
M  V30 3461 H 329.167 2.38536 0.923811 0
M  V30 3462 H 328.811 4.63031 2.08722 0
M  V30 3463 H 328.741 3.78968 3.65637 0
M  V30 3464 H 331.232 2.98423 2.31845 0
M  V30 3465 H 331.545 6.46632 4.23187 0
M  V30 3466 H 329.89 5.81152 3.81165 0
M  V30 3467 H 333.081 3.74762 2.80484 0
M  V30 3468 H 333.254 5.33535 3.67756 0
M  V30 3469 N 326.66 -1.06551 1.16123 0
M  V30 3470 C 327.59 -2.15935 0.88851 0
M  V30 3471 C 328.571 -1.69306 -0.164135 0
M  V30 3472 O 329.756 -1.94193 -0.0167857 0
M  V30 3473 C 326.886 -3.45149 0.385942 0
M  V30 3474 C 325.84 -4.05271 1.3762 0
M  V30 3475 C 325.166 -5.29664 0.732137 0
M  V30 3476 C 326.466 -4.44355 2.74493 0
M  V30 3477 H 328.16 -2.39006 1.80323 0
M  V30 3478 H 325.706 -1.14866 0.868435 0
M  V30 3479 H 327.659 -4.21004 0.182647 0
M  V30 3480 H 326.383 -3.21689 -0.564274 0
M  V30 3481 H 325.042 -3.3147 1.56599 0
M  V30 3482 H 324.69 -5.02499 -0.224483 0
M  V30 3483 H 324.39 -5.70848 1.39307 0
M  V30 3484 H 325.914 -6.08218 0.538802 0
M  V30 3485 H 327.328 -5.11303 2.59311 0
M  V30 3486 H 325.725 -4.96515 3.37035 0
M  V30 3487 H 326.795 -3.55339 3.29943 0
M  V30 3488 N 328.138 -0.959301 -1.25041 0
M  V30 3489 C 329.363 -0.633507 -1.97488 0
M  V30 3490 C 329.788 0.788555 -1.70773 0
M  V30 3491 O 329.146 1.53394 -0.966431 0
M  V30 3492 C 329.194 -0.904057 -3.49083 0
M  V30 3493 O 328.298 0.0147939 -4.12397 0
M  V30 3494 H 327.639 -0.240368 -0.618966 0
M  V30 3495 H 330.169 -1.28717 -1.59038 0
M  V30 3496 H 330.179 -0.832203 -3.99423 0
M  V30 3497 H 328.854 -1.94048 -3.67856 0
M  V30 3498 H 327.431 -0.109664 -3.72739 0
M  V30 3499 N 329.616 1.39756 -0.72842 0
M  V30 3500 C 330.864 2.00248 -0.272946 0
M  V30 3501 C 331.185 1.58077 1.14178 0
M  V30 3502 O 330.455 0.826014 1.77634 0
M  V30 3503 H 329.035 0.740554 -0.0979247 0
M  V30 3504 H 331.697 1.70903 -0.936912 0
M  V30 3505 H 330.793 3.10495 -0.316142 0
M  V30 3506 N 331.094 0.475555 1.50254 0
M  V30 3507 C 332.51 0.12997 1.5907 0
M  V30 3508 C 332.71 -1.36385 1.48328 0
M  V30 3509 O 331.766 -2.13754 1.34407 0
M  V30 3510 C 333.079 0.684139 2.92814 0
M  V30 3511 C 334.627 0.647965 3.0622 0
M  V30 3512 C 335.102 1.17975 4.42545 0
M  V30 3513 N 336.593 1.13936 4.48969 0
M  V30 3514 C 337.328 1.52129 5.52851 0
M  V30 3515 N 336.824 1.97793 6.63965 0
M  V30 3516 N 338.617 1.43704 5.4342 0
M  V30 3517 H 330.768 1.44706 1.55479 0
M  V30 3518 H 333.031 0.598691 0.735033 0
M  V30 3519 H 332.737 1.73079 3.06164 0
M  V30 3520 H 332.611 0.130204 3.76975 0
M  V30 3521 H 334.998 -0.38979 2.92514 0
M  V30 3522 H 335.079 1.23876 2.23805 0
M  V30 3523 H 334.723 2.21616 4.57 0
M  V30 3524 H 334.653 0.565138 5.23559 0
M  V30 3525 H 337.144 0.804488 3.69238 0
M  V30 3526 H 337.457 2.25072 7.39299 0
M  V30 3527 H 335.802 2.01749 6.65073 0
M  V30 3528 H 338.993 1.07867 4.55502 0
M  V30 3529 H 339.166 1.73794 6.24259 0
M  V30 3530 N 332.573 -1.56217 0.208337 0
M  V30 3531 C 333.984 -1.84243 -0.301904 0
M  V30 3532 C 334.335 -1.12939 -1.60434 0
M  V30 3533 O 333.46 -0.39461 -2.12772 0
M  V30 3534 C 334.055 -3.34231 -0.554543 0
M  V30 3535 C 332.614 -3.62621 -1.00912 0
M  V30 3536 C 331.761 -2.77224 -0.064933 0
M  V30 3537 H 334.712 -1.52712 0.431833 0
M  V30 3538 H 334.733 -3.5372 -1.40223 0
M  V30 3539 H 334.245 -3.86099 0.393561 0
M  V30 3540 H 332.346 -3.16197 -1.97104 0
M  V30 3541 H 332.459 -4.7071 -0.892674 0
M  V30 3542 H 330.823 -2.48256 -0.56929 0
M  V30 3543 H 331.606 -3.31887 0.877851 0
M  V30 3544 N 334.051 0.0651679 -1.57465 0
M  V30 3545 C 335.276 0.779605 -1.9219 0
M  V30 3546 C 335.701 1.69988 -0.805333 0
M  V30 3547 O 335.059 1.79685 0.241435 0
M  V30 3548 C 335.107 1.54364 -3.2589 0
M  V30 3549 O 334.211 2.65474 -3.1559 0
M  V30 3550 H 333.552 0.212249 -0.629163 0
M  V30 3551 H 336.082 0.0314294 -2.04576 0
M  V30 3552 H 336.092 1.92146 -3.59922 0
M  V30 3553 H 334.767 0.868457 -4.06732 0
M  V30 3554 H 333.344 2.30501 -2.93128 0
M  V30 3555 N 335.529 1.53961 0.336706 0
M  V30 3556 C 336.476 1.82428 1.41381 0
M  V30 3557 C 337.446 0.670444 1.51968 0
M  V30 3558 O 338.631 0.915565 1.67398 0
M  V30 3559 C 335.771 2.04564 2.77934 0
M  V30 3560 C 334.884 3.32267 2.76084 0
M  V30 3561 C 334.019 3.44434 4.04399 0
M  V30 3562 C 333.058 4.66061 3.96804 0
M  V30 3563 N 332.195 4.75224 5.16823 0
M  V30 3564 H 337.035 2.74324 1.16405 0
M  V30 3565 H 334.572 1.35869 0.563752 0
M  V30 3566 H 336.53 2.15388 3.57301 0
M  V30 3567 H 335.16 1.15974 3.01247 0
M  V30 3568 H 334.212 3.3025 1.88784 0
M  V30 3569 H 335.524 4.21733 2.66351 0
M  V30 3570 H 334.678 3.54728 4.92192 0
M  V30 3571 H 333.417 2.53037 4.16921 0
M  V30 3572 H 332.422 4.55838 3.07396 0
M  V30 3573 H 333.647 5.58829 3.85858 0
M  V30 3574 H 331.593 3.86739 5.29876 0
M  V30 3575 H 331.51 5.58636 5.09374 0
M  V30 3576 H 332.778 4.89835 6.06367 0
M  V30 3577 N 337.007 -0.598083 1.45811 0
M  V30 3578 C 338.253 -1.35679 1.51535 0
M  V30 3579 C 338.608 -1.91745 0.15864 0
M  V30 3580 O 337.901 -1.72654 -0.830724 0
M  V30 3581 C 338.095 -2.51669 2.53766 0
M  V30 3582 C 337.924 -2.06963 3.99245 0
M  V30 3583 C 336.694 -1.92693 4.67116 0
M  V30 3584 C 338.892 -1.63855 4.875 0
M  V30 3585 N 336.874 -1.41897 5.97276 0
M  V30 3586 C 338.245 -1.24541 6.07363 0
M  V30 3587 C 340.3 -1.51533 4.74281 0
M  V30 3588 C 339.003 -0.741354 7.15469 0
M  V30 3589 C 341.029 -1.0253 5.82444 0
M  V30 3590 C 340.391 -0.641869 7.01469 0
M  V30 3591 H 336.49 -0.490042 0.609412 0
M  V30 3592 H 339.074 -0.682687 1.82339 0
M  V30 3593 H 337.245 -3.16663 2.24898 0
M  V30 3594 H 338.977 -3.18578 2.4958 0
M  V30 3595 H 335.732 -2.1417 4.22408 0
M  V30 3596 H 336.156 -1.18704 6.66512 0
M  V30 3597 H 340.798 -1.798 3.82664 0
M  V30 3598 H 338.516 -0.446243 8.06867 0
M  V30 3599 H 342.102 -0.934088 5.74253 0
M  V30 3600 H 340.982 -0.268531 7.8374 0
M  V30 3601 N 338.485 -1.33259 -0.841409 0
M  V30 3602 C 339.71 -1.2775 -1.63385 0
M  V30 3603 C 340.135 0.149188 -1.87507 0
M  V30 3604 O 339.493 1.10498 -1.43736 0
M  V30 3605 C 339.541 -2.05571 -2.96265 0
M  V30 3606 O 338.645 -1.41257 -3.87453 0
M  V30 3607 H 337.986 -0.439627 -0.497618 0
M  V30 3608 H 340.516 -1.75782 -1.04699 0
M  V30 3609 H 340.526 -2.16241 -3.45982 0
M  V30 3610 H 339.201 -3.09309 -2.7803 0
M  V30 3611 H 337.778 -1.39217 -3.45938 0
M  V30 3612 N 339.963 1.05934 -1.16686 0
M  V30 3613 C 341.374 1.60263 -0.957745 0
M  V30 3614 C 341.725 1.89789 0.49745 0
M  V30 3615 O 340.85 1.67401 1.37135 0
M  V30 3616 C 341.445 2.91172 -1.73218 0
M  V30 3617 C 340.004 3.42188 -1.56794 0
M  V30 3618 C 339.151 2.16028 -1.73859 0
M  V30 3619 H 342.102 0.888392 -1.31504 0
M  V30 3620 H 342.123 3.60744 -1.21014 0
M  V30 3621 H 341.635 2.6965 -2.79124 0
M  V30 3622 H 339.736 3.68762 -0.533437 0
M  V30 3623 H 339.849 4.17273 -2.35414 0
M  V30 3624 H 338.213 2.26426 -1.16633 0
M  V30 3625 H 338.996 1.96985 -2.81161 0
M  V30 3626 N 341.441 0.965919 1.2453 0
M  V30 3627 C 342.351 0.502154 2.29163 0
M  V30 3628 C 343.367 -0.436017 1.68448 0
M  V30 3629 O 344.543 -0.309497 1.99008 0
M  V30 3630 C 341.608 -0.201956 3.46111 0
M  V30 3631 C 340.669 0.775821 4.22232 0
M  V30 3632 C 339.902 0.105217 5.33596 0
M  V30 3633 O 340.125 -1.10683 5.59558 0
M  V30 3634 O 339.059 0.796475 5.96607 0
M  V30 3635 H 342.885 1.37194 2.70946 0
M  V30 3636 H 340.47 0.732875 1.30189 0
M  V30 3637 H 342.352 -0.597564 4.17142 0
M  V30 3638 H 341.027 -1.04673 3.06309 0
M  V30 3639 H 339.934 1.22185 3.53584 0
M  V30 3640 H 341.267 1.58896 4.65846 0
M  V30 3641 N 342.919 -1.39368 0.735821 0
M  V30 3642 C 344.165 -2.00794 0.284544 0
M  V30 3643 C 344.498 -1.58255 -1.12557 0
M  V30 3644 O 343.773 -0.811819 -1.76748 0
M  V30 3645 C 344.056 -3.58011 0.387337 0
M  V30 3646 C 343.909 -4.10566 1.83728 0
M  V30 3647 C 345.228 -4.395 -0.22975 0
M  V30 3648 H 342.347 -0.729501 0.104866 0
M  V30 3649 H 344.989 -1.65564 0.93213 0
M  V30 3650 H 343.139 -3.88154 -0.164006 0
M  V30 3651 H 344.811 -3.91139 2.44556 0
M  V30 3652 H 343.054 -3.64095 2.35833 0
M  V30 3653 H 343.725 -5.19702 1.86047 0
M  V30 3654 H 346.201 -4.15406 0.240257 0
M  V30 3655 H 345.077 -5.48752 -0.127485 0
M  V30 3656 H 345.338 -4.22062 -1.3159 0
M  V30 3657 N 344.397 -0.483516 -1.5 0
M  V30 3658 C 345.637 0.0657469 -2.04294 0
M  V30 3659 C 346.001 1.35869 -1.35659 0
M  V30 3660 O 347.202 1.99111 -1.80578 0
M  V30 3661 C 345.473 0.232758 -3.56641 0
M  V30 3662 S 347.032 0.738788 -4.32536 0
M  V30 3663 H 343.85 0.0100755 -0.710929 0
M  V30 3664 H 346.452 -0.653494 -1.84254 0
M  V30 3665 H 345.156 -0.713847 -4.04144 0
M  V30 3666 H 344.687 0.977751 -3.81056 0
M  V30 3667 H 346.702 2.01048 -4.53645 0
M  V30 3668 N 345.875 1.56104 -0.216619 0
M  V30 3669 C 347.121 1.99219 0.410301 0
M  V30 3670 C 347.476 1.10169 1.57735 0
M  V30 3671 O 346.769 0.150598 1.91007 0
M  V30 3672 C 346.963 3.45923 0.898464 0
M  V30 3673 C 346.792 4.49163 -0.219748 0
M  V30 3674 C 345.562 5.00642 -0.684516 0
M  V30 3675 C 347.76 5.03751 -1.03629 0
M  V30 3676 N 345.742 5.87579 -1.7783 0
M  V30 3677 C 347.113 5.87566 -1.97904 0
M  V30 3678 C 349.168 4.86128 -1.07629 0
M  V30 3679 C 347.871 6.5564 -2.95851 0
M  V30 3680 C 349.897 5.54958 -2.04392 0
M  V30 3681 C 349.259 6.38536 -2.97407 0
M  V30 3682 H 345.358 0.773206 0.11695 0
M  V30 3683 H 347.942 1.9193 -0.327258 0
M  V30 3684 H 346.113 3.53669 1.6054 0
M  V30 3685 H 347.845 3.75963 1.49779 0
M  V30 3686 H 344.6 4.72807 -0.27399 0
M  V30 3687 H 345.024 6.3575 -2.32705 0
M  V30 3688 H 349.666 4.21168 -0.371099 0
M  V30 3689 H 347.384 7.19785 -3.67335 0
M  V30 3690 H 350.97 5.43289 -2.08154 0
M  V30 3691 H 349.85 6.90858 -3.71059 0
M  V30 3692 N 347.353 -0.0568162 1.57498 0
M  V30 3693 C 348.63 -0.786954 1.79071 0
M  V30 3694 C 349.01 -1.95028 0.80792 0
M  V30 3695 O 348.358 -2.27968 -0.155858 0
M  V30 3696 C 348.568 -1.24594 3.26002 0
M  V30 3697 C 349.916 -1.67323 3.90241 0
M  V30 3698 O 350.94 -1.34124 3.29984 0
M  V30 3699 O 349.799 -2.28842 4.9628 0
M  V30 3700 H 346.893 -0.378262 0.735423 0
M  V30 3701 H 349.439 -0.035734 1.69662 0
M  V30 3702 H 348.211 -0.41423 3.89101 0
M  V30 3703 H 347.834 -2.05803 3.40192 0
M  V30 3704 N 348.832 -1.54138 -0.328536 0
M  V30 3705 C 350.057 -1.76378 -1.09112 0
M  V30 3706 C 350.482 -0.508596 -1.81094 0
M  V30 3707 O 349.84 0.539598 -1.73084 0
M  V30 3708 C 349.888 -2.95358 -2.06872 0
M  V30 3709 O 348.992 -2.66556 -3.14677 0
M  V30 3710 H 348.333 -0.584614 -0.314838 0
M  V30 3711 H 350.863 -2.01146 -0.374348 0
M  V30 3712 H 350.873 -3.22566 -2.4983 0
M  V30 3713 H 349.548 -3.86385 -1.5388 0
M  V30 3714 H 348.125 -2.50282 -2.7643 0
M  V30 3715 N 350.31 0.590341 -1.46126 0
M  V30 3716 C 351.242 1.71427 -1.52136 0
M  V30 3717 C 352.255 1.57542 -0.41042 0
M  V30 3718 O 353.444 1.65106 -0.678389 0
M  V30 3719 C 350.544 3.09605 -1.37834 0
M  V30 3720 C 349.717 3.49566 -2.62912 0
M  V30 3721 C 348.776 4.66773 -2.42918 0
M  V30 3722 O 347.802 4.73019 -3.1661 0
M  V30 3723 N 349.004 5.61161 -1.4859 0
M  V30 3724 H 351.769 1.66728 -2.49042 0
M  V30 3725 H 349.33 0.776113 -1.42085 0
M  V30 3726 H 351.322 3.85796 -1.22243 0
M  V30 3727 H 349.892 3.08714 -0.491393 0
M  V30 3728 H 349.112 2.63158 -2.93499 0
M  V30 3729 H 350.4 3.73028 -3.46017 0
M  V30 3730 H 349.798 5.58844 -0.87808 0
M  V30 3731 H 348.355 6.36814 -1.38965 0
M  V30 3732 N 351.788 1.33704 0.83433 0
M  V30 3733 C 353.199 1.22813 1.4062 0
M  V30 3734 C 353.55 -0.151107 1.95617 0
M  V30 3735 O 352.675 -1.05092 1.89168 0
M  V30 3736 C 353.27 2.22355 2.55624 0
M  V30 3737 C 351.829 2.1529 3.08751 0
M  V30 3738 C 350.976 2.09589 1.8157 0
M  V30 3739 H 353.927 1.45236 0.639702 0
M  V30 3740 H 353.948 1.83391 3.33389 0
M  V30 3741 H 353.46 3.22728 2.15566 0
M  V30 3742 H 351.561 1.18235 3.53343 0
M  V30 3743 H 351.674 3.06038 3.68616 0
M  V30 3744 H 350.038 1.55134 2.02004 0
M  V30 3745 H 350.821 3.11777 1.43701 0
M  V30 3746 N 353.266 -1.05314 1.17247 0
M  V30 3747 C 354.514 -1.77941 0.958194 0
M  V30 3748 C 354.835 -1.88089 -0.514556 0
M  V30 3749 O 354.105 -1.39676 -1.37359 0
M  V30 3750 H 352.685 -0.659116 0.351533 0
M  V30 3751 H 355.347 -1.27166 1.47699 0
M  V30 3752 H 354.443 -2.79663 1.38546 0
M  V30 3753 N 354.744 -0.972509 -1.24016 0
M  V30 3754 C 356.021 -0.553733 -1.87598 0
M  V30 3755 C 356.401 0.969158 -1.87538 0
M  V30 3756 O 355.749 1.84255 -1.35139 0
M  V30 3757 C 355.959 -1.15076 -3.29482 0
M  V30 3758 C 357.307 -1.23862 -4.06132 0
M  V30 3759 O 358.331 -1.10363 -3.38672 0
M  V30 3760 O 357.19 -1.45252 -5.26844 0
M  V30 3761 H 354.284 -0.185331 -0.805966 0
M  V30 3762 H 356.83 -1.06709 -1.31952 0
M  V30 3763 H 355.602 -2.19333 -3.2405 0
M  V30 3764 H 355.225 -0.621746 -3.92709 0
M  V30 3765 N 356.222 1.38976 -0.743202 0
M  V30 3766 C 357.132 2.3434 -0.110399 0
M  V30 3767 C 358.148 1.58741 0.712559 0
M  V30 3768 O 359.324 1.9099 0.639125 0
M  V30 3769 C 356.389 3.37812 0.780012 0
M  V30 3770 C 355.45 4.29263 -0.0561319 0
M  V30 3771 C 354.683 5.27793 0.791875 0
M  V30 3772 O 354.906 5.33043 2.03031 0
M  V30 3773 O 353.84 6.01512 0.216183 0
M  V30 3774 H 357.666 2.90129 -0.897714 0
M  V30 3775 H 355.251 1.40643 -0.503966 0
M  V30 3776 H 357.133 4.01194 1.28923 0
M  V30 3777 H 355.808 2.84395 1.546 0
M  V30 3778 H 354.715 3.69076 -0.611056 0
M  V30 3779 H 356.048 4.85907 -0.784531 0
M  V30 3780 N 357.7 0.491464 1.49741 0
M  V30 3781 C 358.663 -0.280906 2.27472 0
M  V30 3782 C 359.663 -0.902454 1.33088 0
M  V30 3783 O 360.853 -0.768465 1.56334 0
M  V30 3784 C 357.985 -1.40209 3.10732 0
M  V30 3785 H 359.178 0.401056 2.97206 0
M  V30 3786 H 356.731 0.246131 1.5435 0
M  V30 3787 H 357.466 -2.11849 2.45541 0
M  V30 3788 H 357.251 -0.961969 3.80117 0
M  V30 3789 H 358.741 -1.9464 3.69466 0
M  V30 3790 N 359.178 -1.55987 0.224894 0
M  V30 3791 C 360.11 -2.17722 -0.716224 0
M  V30 3792 C 361.123 -1.14723 -1.15509 0
M  V30 3793 O 362.312 -1.41688 -1.08567 0
M  V30 3794 C 359.412 -2.74873 -1.98238 0
M  V30 3795 C 358.585 -4.03074 -1.69853 0
M  V30 3796 C 357.644 -4.44757 -2.81208 0
M  V30 3797 O 356.67 -5.11587 -2.49534 0
M  V30 3798 N 357.872 -4.10716 -4.10235 0
M  V30 3799 H 360.637 -2.99109 -0.188123 0
M  V30 3800 H 358.198 -1.6184 0.0440123 0
M  V30 3801 H 360.19 -2.99727 -2.7193 0
M  V30 3802 H 358.76 -1.9777 -2.42086 0
M  V30 3803 H 357.98 -3.86041 -0.797875 0
M  V30 3804 H 359.268 -4.86701 -1.48324 0
M  V30 3805 H 358.666 -3.57019 -4.38809 0
M  V30 3806 H 357.223 -4.40455 -4.80461 0
M  V30 3807 N 360.656 0.0484629 -1.57525 0
M  V30 3808 C 362.067 0.597486 -1.76881 0
M  V30 3809 C 362.418 1.76664 -0.853475 0
M  V30 3810 O 361.543 2.16357 -0.0433656 0
M  V30 3811 C 362.138 1.09066 -3.20765 0
M  V30 3812 C 360.697 1.58535 -3.41385 0
M  V30 3813 C 359.844 0.514868 -2.72478 0
M  V30 3814 H 362.795 -0.177758 -1.57701 0
M  V30 3815 H 362.816 1.95875 -3.2621 0
M  V30 3816 H 362.328 0.239521 -3.8736 0
M  V30 3817 H 360.429 2.45898 -2.79937 0
M  V30 3818 H 360.542 1.64622 -4.49929 0
M  V30 3819 H 358.906 0.965407 -2.35695 0
M  V30 3820 H 359.689 -0.32648 -3.41744 0
M  V30 3821 N 362.134 1.5431 0.320358 0
M  V30 3822 C 363.066 1.80262 1.41556 0
M  V30 3823 C 364.079 0.684723 1.477 0
M  V30 3824 O 365.268 0.961886 1.50366 0
M  V30 3825 C 362.368 1.90825 2.8007 0
M  V30 3826 C 361.541 3.21023 2.97091 0
M  V30 3827 C 360.6 3.22247 4.15985 0
M  V30 3828 O 359.626 3.95871 4.08992 0
M  V30 3829 N 360.828 2.46258 5.25678 0
M  V30 3830 H 363.593 2.74778 1.19655 0
M  V30 3831 H 361.154 1.53646 0.510358 0
M  V30 3832 H 363.146 1.89067 3.57821 0
M  V30 3833 H 361.716 1.03392 2.95006 0
M  V30 3834 H 360.936 3.35715 2.06614 0
M  V30 3835 H 362.224 4.0698 3.05361 0
M  V30 3836 H 361.622 1.86037 5.34235 0
M  V30 3837 H 360.179 2.50275 6.01835 0
M  V30 3838 N 363.613 -0.582584 1.46437 0
M  V30 3839 C 364.561 -1.71272 1.5738 0
M  V30 3840 C 365.555 -1.63524 0.44229 0
M  V30 3841 O 366.761 -1.69016 0.619166 0
M  V30 3842 H 363.136 -0.566273 0.494813 0
M  V30 3843 H 365.107 -1.59174 2.52401 0
M  V30 3844 C 363.856 -3.09658 1.58136 0
M  V30 3845 H 363.179 -3.16291 2.44541 0
M  V30 3846 H 364.619 -3.88494 1.69847 0
M  V30 3847 C 363.078 -3.3547 0.310026 0
M  V30 3848 O 363.608 -3.97199 -0.599683 0
M  V30 3849 N 361.814 -2.89925 0.197901 0
M  V30 3850 H 361.361 -2.39873 0.93909 0
M  V30 3851 H 361.319 -3.07568 -0.65185 0
M  V30 3852 N 365.091 -1.34144 -0.827227 0
M  V30 3853 C 366.021 -1.28005 -1.95287 0
M  V30 3854 C 367.002 -0.158321 -1.69362 0
M  V30 3855 O 368.187 -0.349987 -1.9102 0
M  V30 3856 C 365.317 -1.03036 -3.31664 0
M  V30 3857 C 364.271 -2.11628 -3.72019 0
M  V30 3858 C 363.597 -1.71854 -5.0633 0
M  V30 3859 C 364.897 -3.53417 -3.8457 0
M  V30 3860 H 366.591 -2.22187 -2.00682 0
M  V30 3861 H 364.137 -1.0696 -0.964135 0
M  V30 3862 H 366.09 -0.973863 -4.09993 0
M  V30 3863 H 364.814 -0.0529391 -3.26557 0
M  V30 3864 H 363.473 -2.16339 -2.95961 0
M  V30 3865 H 363.121 -0.727841 -4.97706 0
M  V30 3866 H 362.821 -2.44531 -5.34302 0
M  V30 3867 H 364.345 -1.67692 -5.87122 0
M  V30 3868 H 365.759 -3.51142 -4.5318 0
M  V30 3869 H 364.156 -4.24679 -4.2399 0
M  V30 3870 H 365.226 -3.91072 -2.86689 0
M  V30 3871 N 366.569 1.04691 -1.17803 0
M  V30 3872 C 367.479 2.16057 -0.914151 0
M  V30 3873 C 368.495 1.73589 0.119503 0
M  V30 3874 O 369.671 2.01308 -0.0609468 0
M  V30 3875 C 366.736 3.4394 -0.436603 0
M  V30 3876 C 365.797 4.00825 -1.53746 0
M  V30 3877 C 365.03 5.22604 -1.0826 0
M  V30 3878 O 365.253 5.70367 0.0612244 0
M  V30 3879 O 364.187 5.7186 -1.87775 0
M  V30 3880 H 368.013 2.41169 -1.84584 0
M  V30 3881 H 365.598 1.1453 -0.959334 0
M  V30 3882 H 367.48 4.21024 -0.178057 0
M  V30 3883 H 366.155 3.20316 0.466869 0
M  V30 3884 H 365.062 3.25158 -1.84995 0
M  V30 3885 H 366.395 4.28778 -2.41683 0
M  V30 3886 N 368.047 0.979072 1.23499 0
M  V30 3887 C 369.287 0.655228 1.93613 0
M  V30 3888 C 369.651 -0.796336 1.74707 0
M  V30 3889 O 370.852 -1.23094 2.38959 0
M  V30 3890 C 369.123 1.03337 3.42135 0
M  V30 3891 S 370.682 0.825793 4.3096 0
M  V30 3892 H 367.5 0.240004 0.669267 0
M  V30 3893 H 370.102 1.25843 1.49612 0
M  V30 3894 H 368.806 2.08646 3.53405 0
M  V30 3895 H 368.337 0.421397 3.91137 0
M  V30 3896 H 370.352 -0.290991 4.95346 0
M  V30 3897 N 369.525 -1.3858 0.750561 0
M  V30 3898 C 370.772 -2.00184 0.305373 0
M  V30 3899 C 371.1 -1.59575 -1.11203 0
M  V30 3900 O 370.355 -0.823236 -1.77542 0
M  V30 3901 C 370.654 -3.55455 0.372373 0
M  V30 3902 C 370.32 -4.15765 1.745 0
M  V30 3903 C 368.982 -4.31951 2.12065 0
M  V30 3904 C 371.334 -4.49067 2.64553 0
M  V30 3905 C 368.662 -4.78734 3.39162 0
M  V30 3906 C 371.014 -4.97265 3.91038 0
M  V30 3907 C 369.678 -5.11658 4.28676 0
M  V30 3908 H 368.948 -0.732526 0.111744 0
M  V30 3909 H 371.595 -1.65673 0.960451 0
M  V30 3910 H 369.9 -3.90084 -0.366272 0
M  V30 3911 H 371.597 -4.00999 0.00953918 0
M  V30 3912 H 368.187 -4.03579 1.44297 0
M  V30 3913 H 372.371 -4.36166 2.36796 0
M  V30 3914 H 367.627 -4.88062 3.68246 0
M  V30 3915 H 371.801 -5.22003 4.60962 0
M  V30 3916 H 369.428 -5.47668 5.27222 0
M  V30 3917 N 371.003 -0.499398 -1.49478 0
M  V30 3918 C 372.25 0.0456899 -2.02448 0
M  V30 3919 C 372.578 1.37142 -1.37921 0
M  V30 3920 O 371.833 1.89111 -0.503544 0
M  V30 3921 C 372.132 0.248424 -3.56536 0
M  V30 3922 C 371.798 -0.999107 -4.39692 0
M  V30 3923 C 370.46 -1.34108 -4.62135 0
M  V30 3924 C 372.812 -1.82842 -4.88076 0
M  V30 3925 C 370.14 -2.51191 -5.30208 0
M  V30 3926 C 372.492 -2.99076 -5.57437 0
M  V30 3927 C 371.156 -3.33655 -5.78127 0
M  V30 3928 H 370.426 0.0167191 -0.740811 0
M  V30 3929 H 373.073 -0.65923 -1.79795 0
M  V30 3930 H 371.378 1.03586 -3.77859 0
M  V30 3931 H 373.075 0.684605 -3.95113 0
M  V30 3932 H 369.665 -0.722729 -4.22463 0
M  V30 3933 H 373.849 -1.57737 -4.70566 0
M  V30 3934 H 369.105 -2.78221 -5.44429 0
M  V30 3935 H 373.279 -3.63664 -5.93904 0
M  V30 3936 H 370.906 -4.24483 -6.30649 0
M  V30 3937 N 372.481 1.55866 -0.233164 0
M  V30 3938 C 373.758 1.90471 0.444988 0
M  V30 3939 C 374.138 1.15209 1.7689 0
M  V30 3940 O 373.486 0.265119 2.26957 0
M  V30 3941 C 373.696 3.4333 0.626559 0
M  V30 3942 C 375.044 4.14319 0.92871 0
M  V30 3943 O 376.068 3.48993 0.712926 0
M  V30 3944 O 374.927 5.29846 1.33887 0
M  V30 3945 H 372.021 0.792347 0.236885 0
M  V30 3946 H 374.567 1.67437 -0.276211 0
M  V30 3947 H 373.339 3.90095 -0.306822 0
M  V30 3948 H 372.962 3.72181 1.39881 0
M  V30 3949 N 373.959 -0.0401083 1.57549 0
M  V30 3950 C 375.207 -0.731677 1.8839 0
M  V30 3951 C 375.528 -1.76481 0.829425 0
M  V30 3952 O 374.798 -1.95411 -0.1383 0
M  V30 3953 H 373.378 -0.273225 0.695239 0
M  V30 3954 H 376.04 -0.00867725 1.94898 0
M  V30 3955 H 375.136 -1.22816 2.86919 0
M  V30 3956 N 375.437 -1.54477 -0.31217 0
M  V30 3957 C 376.4 -1.83923 -1.36766 0
M  V30 3958 C 377.4 -0.711563 -1.44199 0
M  V30 3959 O 378.59 -0.979866 -1.44029 0
M  V30 3960 C 375.722 -2.0095 -2.75376 0
M  V30 3961 H 376.915 -2.78239 -1.11906 0
M  V30 3962 H 374.468 -1.46369 -0.548257 0
M  V30 3963 H 375.203 -1.08883 -3.05475 0
M  V30 3964 H 374.988 -2.83018 -2.71373 0
M  V30 3965 H 376.478 -2.2514 -3.51713 0
M  V30 3966 N 376.915 0.57481 -1.46744 0
M  V30 3967 C 377.878 1.66533 -1.57478 0
M  V30 3968 C 378.878 1.54338 -0.451263 0
M  V30 3969 O 380.068 1.58814 -0.715813 0
M  V30 3970 C 377.2 3.05999 -1.50259 0
M  V30 3971 H 378.393 1.58372 -2.54673 0
M  V30 3972 H 375.946 0.793301 -1.34672 0
M  V30 3973 H 376.681 3.19709 -0.543725 0
M  V30 3974 H 376.466 3.16259 -2.31781 0
M  V30 3975 H 377.956 3.8537 -1.60872 0
M  V30 3976 N 378.394 1.34581 0.820102 0
M  V30 3977 C 379.64 1.27285 1.57881 0
M  V30 3978 C 379.973 -0.156137 1.93571 0
M  V30 3979 O 379.248 -1.10222 1.60254 0
M  V30 3980 C 379.531 2.16639 2.87645 0
M  V30 3981 C 379.384 3.68088 2.58517 0
M  V30 3982 C 380.703 2.05378 3.8924 0
M  V30 3983 H 377.822 0.463714 0.572833 0
M  V30 3984 H 380.464 1.64859 0.944539 0
M  V30 3985 H 378.614 1.84725 3.41773 0
M  V30 3986 H 380.286 4.10382 2.10676 0
M  V30 3987 H 378.529 3.89038 1.91917 0
M  V30 3988 H 379.2 4.2598 3.51063 0
M  V30 3989 H 381.676 2.33404 3.44473 0
M  V30 3990 H 380.552 2.7012 4.77835 0
M  V30 3991 H 380.813 1.0316 4.29896 0
M  V30 3992 N 379.872 -1.04064 1.18357 0
M  V30 3993 C 380.802 -2.14001 0.934113 0
M  V30 3994 C 381.783 -1.69616 -0.128186 0
M  V30 3995 O 382.968 -1.94185 0.0244093 0
M  V30 3996 C 380.098 -3.44253 0.459066 0
M  V30 3997 C 379.052 -4.02261 1.46185 0
M  V30 3998 C 378.378 -5.27992 0.844322 0
M  V30 3999 C 379.678 -4.38432 2.83856 0
M  V30 4000 H 381.372 -2.35127 1.85352 0
M  V30 4001 H 378.918 -1.12998 0.892604 0
M  V30 4002 H 380.871 -4.20522 0.271907 0
M  V30 4003 H 379.595 -3.22813 -0.495912 0
M  V30 4004 H 378.254 -3.28074 1.63595 0
M  V30 4005 H 377.902 -5.02862 -0.117845 0
M  V30 4006 H 377.602 -5.67765 1.51384 0
M  V30 4007 H 379.126 -6.06938 0.667693 0
M  V30 4008 H 380.54 -5.05688 2.70098 0
M  V30 4009 H 378.937 -4.89254 3.47491 0
M  V30 4010 H 380.007 -3.4826 3.37406 0
M  V30 4011 N 381.35 -0.985608 -1.22978 0
M  V30 4012 C 382.575 -0.675254 -1.961 0
M  V30 4013 C 383 0.752154 -1.72407 0
M  V30 4014 O 382.358 1.5131 -0.998751 0
M  V30 4015 C 382.406 -0.977899 -3.47087 0
M  V30 4016 O 381.51 -0.072685 -4.12336 0
M  V30 4017 H 380.851 -0.253443 -0.613728 0
M  V30 4018 H 383.381 -1.32061 -1.56272 0
M  V30 4019 H 383.391 -0.916739 -3.97567 0
M  V30 4020 H 382.066 -2.01807 -3.63657 0
M  V30 4021 H 380.643 -0.188703 -3.72422 0
M  V30 4022 N 382.828 1.3818 -0.7579 0
M  V30 4023 C 384.068 2.01864 -0.320968 0
M  V30 4024 C 384.432 1.58863 1.07827 0
M  V30 4025 O 385.633 2.14908 1.61456 0
M  V30 4026 C 383.904 3.54626 -0.44446 0
M  V30 4027 S 385.463 4.38706 -0.0907467 0
M  V30 4028 H 382.281 0.700056 -0.124268 0
M  V30 4029 H 384.883 1.68611 -0.989468 0
M  V30 4030 H 383.587 3.83411 -1.4637 0
M  V30 4031 H 383.118 3.92661 0.241073 0
M  V30 4032 H 385.133 4.83435 1.11826 0
M  V30 4033 N 384.306 0.507319 1.49211 0
M  V30 4034 C 385.531 -0.033725 2.07373 0
M  V30 4035 C 385.956 -1.29485 1.36437 0
M  V30 4036 O 385.314 -1.76294 0.423087 0
M  V30 4037 C 385.362 -0.263945 3.59633 0
M  V30 4038 O 384.466 -1.33737 3.90113 0
M  V30 4039 H 383.807 0.0290331 0.663365 0
M  V30 4040 H 386.337 0.708749 1.91932 0
M  V30 4041 H 386.347 -0.493536 4.05004 0
M  V30 4042 H 385.022 0.657424 4.10671 0
M  V30 4043 H 383.599 -1.09224 3.56545 0
M  V30 4044 N 385.784 -1.5574 0.241426 0
M  V30 4045 C 387.03 -1.99846 -0.378555 0
M  V30 4046 C 387.385 -1.12665 -1.55963 0
M  V30 4047 O 386.678 -0.180966 -1.90743 0
M  V30 4048 C 386.872 -3.47308 -0.843317 0
M  V30 4049 C 386.701 -4.48756 0.291178 0
M  V30 4050 C 385.471 -4.9949 0.764077 0
M  V30 4051 C 387.669 -5.02039 1.11631 0
M  V30 4052 N 385.651 -5.84676 1.87156 0
M  V30 4053 C 387.022 -5.84343 2.07226 0
M  V30 4054 C 389.077 -4.84354 1.15349 0
M  V30 4055 C 387.78 -6.50851 3.06245 0
M  V30 4056 C 389.806 -5.51636 2.13195 0
M  V30 4057 C 389.168 -6.33724 3.07528 0
M  V30 4058 H 385.267 -0.774968 -0.104634 0
M  V30 4059 H 387.851 -1.91385 0.357751 0
M  V30 4060 H 386.022 -3.56178 -1.54893 0
M  V30 4061 H 387.754 -3.78299 -1.43779 0
M  V30 4062 H 384.509 -4.72311 0.349175 0
M  V30 4063 H 384.933 -6.31967 2.42789 0
M  V30 4064 H 389.575 -4.20525 0.438057 0
M  V30 4065 H 387.293 -7.1385 3.78739 0
M  V30 4066 H 390.879 -5.39909 2.16771 0
M  V30 4067 H 389.759 -6.84867 3.82003 0
M  V30 4068 N 387.262 0.0317525 -1.57568 0
M  V30 4069 C 388.172 1.05021 -2.0978 0
M  V30 4070 C 389.188 1.39809 -1.03583 0
M  V30 4071 O 390.364 1.49182 -1.35302 0
M  V30 4072 C 387.429 2.33301 -2.56459 0
M  V30 4073 C 386.49 2.0512 -3.77127 0
M  V30 4074 C 385.723 3.27283 -4.2157 0
M  V30 4075 O 385.946 4.37861 -3.65559 0
M  V30 4076 O 384.88 3.13141 -5.14029 0
M  V30 4077 H 388.706 0.636505 -2.96955 0
M  V30 4078 H 386.291 0.248559 -1.47318 0
M  V30 4079 H 388.173 3.08722 -2.86825 0
M  V30 4080 H 386.848 2.73973 -1.72397 0
M  V30 4081 H 385.755 1.27276 -3.51784 0
M  V30 4082 H 387.088 1.69305 -4.62165 0
M  V30 4083 N 388.74 1.54641 0.303973 0
M  V30 4084 C 389.986 1.74038 1.04109 0
M  V30 4085 C 390.319 0.523051 1.87024 0
M  V30 4086 O 389.594 -0.479874 1.88487 0
M  V30 4087 C 389.877 3.02761 1.94955 0
M  V30 4088 C 389.73 4.34787 1.1524 0
M  V30 4089 C 391.049 3.27336 2.94175 0
M  V30 4090 H 388.168 0.63323 0.377079 0
M  V30 4091 H 390.81 1.87354 0.316001 0
M  V30 4092 H 388.96 2.9154 2.56782 0
M  V30 4093 H 390.632 4.57922 0.557236 0
M  V30 4094 H 388.875 4.31407 0.455053 0
M  V30 4095 H 389.546 5.21116 1.8205 0
M  V30 4096 H 392.022 3.38148 2.42477 0
M  V30 4097 H 390.898 4.18726 3.54908 0
M  V30 4098 H 391.159 2.45491 3.67677 0
M  V30 4099 N 390.218 -0.567019 1.47046 0
M  V30 4100 C 391.634 -0.891975 1.32348 0
M  V30 4101 C 391.834 -1.99154 0.306616 0
M  V30 4102 O 390.89 -2.50883 -0.28532 0
M  V30 4103 C 392.203 -1.29449 2.7141 0
M  V30 4104 C 393.751 -1.40646 2.79621 0
M  V30 4105 C 394.226 -1.84257 4.19301 0
M  V30 4106 N 395.717 -1.91424 4.21795 0
M  V30 4107 C 396.452 -2.26476 5.26779 0
M  V30 4108 N 395.948 -2.60211 6.42077 0
M  V30 4109 N 397.741 -2.27166 5.14152 0
M  V30 4110 H 389.892 0.159074 2.11803 0
M  V30 4111 H 392.155 0.00849752 0.947962 0
M  V30 4112 H 391.861 -0.560448 3.47206 0
M  V30 4113 H 391.735 -2.25273 3.02542 0
M  V30 4114 H 394.122 -2.13133 2.04104 0
M  V30 4115 H 394.203 -0.430339 2.52154 0
M  V30 4116 H 393.847 -1.12343 4.95319 0
M  V30 4117 H 393.777 -2.82855 4.44185 0
M  V30 4118 H 396.268 -1.6778 3.38612 0
M  V30 4119 H 396.581 -2.85956 7.17948 0
M  V30 4120 H 394.926 -2.57813 6.45413 0
M  V30 4121 H 398.117 -2.00244 4.23107 0
M  V30 4122 H 398.29 -2.54154 5.96079 0
M  V30 4123 N 391.696 -1.35014 -0.812953 0
M  V30 4124 C 392.643 -1.27412 -1.92444 0
M  V30 4125 C 393.613 -0.14733 -1.65445 0
M  V30 4126 O 394.798 -0.329974 -1.87925 0
M  V30 4127 C 391.938 -1.04558 -3.28879 0
M  V30 4128 C 391.051 -2.26101 -3.68106 0
M  V30 4129 C 390.186 -1.96449 -4.9354 0
M  V30 4130 C 389.225 -3.14081 -5.25376 0
M  V30 4131 N 388.362 -2.84246 -6.41988 0
M  V30 4132 H 393.202 -2.22463 -1.98278 0
M  V30 4133 H 390.739 -1.10593 -0.969933 0
M  V30 4134 H 392.697 -0.893413 -4.07522 0
M  V30 4135 H 391.327 -0.131719 -3.22531 0
M  V30 4136 H 390.379 -2.52204 -2.84775 0
M  V30 4137 H 391.691 -3.13959 -3.87597 0
M  V30 4138 H 390.845 -1.78026 -5.79993 0
M  V30 4139 H 389.584 -1.05867 -4.76071 0
M  V30 4140 H 388.589 -3.33089 -4.37415 0
M  V30 4141 H 389.814 -4.05455 -5.44778 0
M  V30 4142 H 387.76 -1.96252 -6.25956 0
M  V30 4143 H 387.677 -3.65637 -6.61699 0
M  V30 4144 H 388.945 -2.6935 -7.31485 0
M  V30 4145 N 393.175 1.03435 -1.18907 0
M  V30 4146 C 394.085 2.15075 -0.937015 0
M  V30 4147 C 395.101 1.73706 0.101085 0
M  V30 4148 O 396.277 2.01232 -0.0822948 0
M  V30 4149 C 393.342 3.43458 -0.473057 0
M  V30 4150 C 392.403 3.99172 -1.57989 0
M  V30 4151 C 391.636 5.21427 -1.13797 0
M  V30 4152 O 391.859 5.704 0.000725941 0
M  V30 4153 O 390.793 5.69837 -1.9383 0
M  V30 4154 H 394.619 2.39198 -1.87131 0
M  V30 4155 H 392.204 1.13506 -0.971427 0
M  V30 4156 H 394.086 4.20811 -0.222702 0
M  V30 4157 H 392.761 3.20793 0.432869 0
M  V30 4158 H 391.668 3.23178 -1.88433 0
M  V30 4159 H 393.001 4.2619 -2.46217 0
M  V30 4160 N 394.653 0.992116 1.22453 0
M  V30 4161 C 395.899 0.668523 1.91464 0
M  V30 4162 C 396.232 -0.797313 1.77078 0
M  V30 4163 O 395.507 -1.5765 1.13916 0
M  V30 4164 C 395.79 1.07424 3.43703 0
M  V30 4165 C 395.643 2.59857 3.67143 0
M  V30 4166 C 396.962 0.626891 4.35612 0
M  V30 4167 H 394.081 0.244341 0.695318 0
M  V30 4168 H 396.723 1.2355 1.44345 0
M  V30 4169 H 394.873 0.591816 3.83966 0
M  V30 4170 H 396.545 3.15764 3.3629 0
M  V30 4171 H 394.788 3.01961 3.11451 0
M  V30 4172 H 395.459 2.83296 4.73759 0
M  V30 4173 H 397.935 1.04125 4.02861 0
M  V30 4174 H 396.811 0.939076 5.40807 0
M  V30 4175 H 397.072 -0.472457 4.39568 0
M  V30 4176 N 396.131 -1.37776 0.765217 0
M  V30 4177 C 397.094 -2.28686 0.153416 0
M  V30 4178 C 398.094 -1.47727 -0.635081 0
M  V30 4179 O 399.284 -1.68027 -0.459632 0
M  V30 4180 C 396.416 -3.31608 -0.790495 0
M  V30 4181 H 397.609 -2.84297 0.954723 0
M  V30 4182 H 395.162 -1.46932 0.53299 0
M  V30 4183 H 395.897 -2.81109 -1.61705 0
M  V30 4184 H 395.682 -3.9144 -0.227348 0
M  V30 4185 H 397.172 -3.99559 -1.21419 0
M  V30 4186 N 397.609 -0.515225 -1.4894 0
M  V30 4187 C 398.834 0.022727 -2.07388 0
M  V30 4188 C 399.259 1.2876 -1.37122 0
M  V30 4189 O 398.617 1.76067 -0.432431 0
M  V30 4190 C 398.665 0.244869 -3.59768 0
M  V30 4191 O 397.769 1.31667 -3.90817 0
M  V30 4192 H 397.11 -0.0325506 -0.663202 0
M  V30 4193 H 399.64 -0.718918 -1.91553 0
M  V30 4194 H 399.65 0.47205 -4.0526 0
M  V30 4195 H 398.325 -0.679194 -4.10317 0
M  V30 4196 H 396.902 1.07331 -3.5712 0
M  V30 4197 N 399.087 1.5561 -0.249682 0
M  V30 4198 C 400.312 2.03865 0.381305 0
M  V30 4199 C 400.737 1.12769 1.50548 0
M  V30 4200 O 400.095 0.121189 1.80895 0
M  V30 4201 C 400.143 3.50101 0.863816 0
M  V30 4202 O 399.247 3.62132 1.97318 0
M  V30 4203 H 398.588 0.658827 0.0827194 0
M  V30 4204 H 401.118 2.01105 -0.376552 0
M  V30 4205 H 401.128 3.90975 1.1663 0
M  V30 4206 H 399.803 4.1588 0.0411816 0
M  V30 4207 H 398.38 3.33155 1.67517 0
M  V30 4208 N 400.565 -0.0233959 1.57583 0
M  V30 4209 C 401.811 -0.714119 1.89811 0
M  V30 4210 C 402.144 -1.74702 0.848113 0
M  V30 4211 O 401.419 -1.94023 -0.136135 0
M  V30 4212 C 401.702 -1.37853 3.32669 0
M  V30 4213 C 401.555 -0.358764 4.48367 0
M  V30 4214 C 402.874 -2.31101 3.7454 0
M  V30 4215 H 399.993 -0.25814 0.690314 0
M  V30 4216 H 402.635 0.0230927 1.89986 0
M  V30 4217 H 400.785 -2.00689 3.3265 0
M  V30 4218 H 402.457 0.268115 4.6052 0
M  V30 4219 H 400.7 0.321387 4.32608 0
M  V30 4220 H 401.371 -0.862242 5.45224 0
M  V30 4221 H 403.847 -1.78304 3.75961 0
M  V30 4222 H 402.723 -2.74567 4.75294 0
M  V30 4223 H 402.984 -3.18018 3.0711 0
M  V30 4224 N 402.043 -1.548 -0.295768 0
M  V30 4225 C 403.268 -1.78653 -1.05346 0
M  V30 4226 C 403.693 -0.546894 -1.79974 0
M  V30 4227 O 403.051 0.502763 -1.7419 0
M  V30 4228 C 403.099 -2.99679 -2.00561 0
M  V30 4229 O 402.203 -2.7317 -3.08953 0
M  V30 4230 H 401.544 -0.59116 -0.302367 0
M  V30 4231 H 404.074 -2.01895 -0.331598 0
M  V30 4232 H 404.084 -3.27793 -2.42932 0
M  V30 4233 H 402.759 -3.89562 -1.4565 0
M  V30 4234 H 401.336 -2.56089 -2.71059 0
M  V30 4235 N 403.521 0.559213 -1.47345 0
M  V30 4236 C 404.768 1.31648 -1.53867 0
M  V30 4237 C 405.096 1.93468 -0.200104 0
M  V30 4238 O 404.351 1.78295 0.806799 0
M  V30 4239 C 404.65 2.44853 -2.6035 0
M  V30 4240 C 404.316 2.00876 -4.03683 0
M  V30 4241 C 402.978 1.88599 -4.42701 0
M  V30 4242 C 405.33 1.67279 -4.93626 0
M  V30 4243 C 402.658 1.41017 -5.69501 0
M  V30 4244 C 405.01 1.21169 -6.20887 0
M  V30 4245 C 403.674 1.07487 -6.58789 0
M  V30 4246 H 402.944 0.481734 -0.56304 0
M  V30 4247 H 405.591 0.627301 -1.80934 0
M  V30 4248 H 403.896 3.19318 -2.27032 0
M  V30 4249 H 405.593 3.03039 -2.62619 0
M  V30 4250 H 402.183 2.11374 -3.72853 0
M  V30 4251 H 406.367 1.75638 -4.64182 0
M  V30 4252 H 401.623 1.29086 -5.97618 0
M  V30 4253 H 405.797 0.942345 -6.89995 0
M  V30 4254 H 403.424 0.703946 -7.56934 0
M  V30 4255 N 404.999 1.35443 0.805782 0
M  V30 4256 C 406.247 1.28507 1.55982 0
M  V30 4257 C 406.568 -0.140046 1.94496 0
M  V30 4258 O 405.838 -1.07666 1.63661 0
M  V30 4259 H 404.418 0.472676 0.578434 0
M  V30 4260 H 407.08 1.69555 0.961098 0
M  V30 4261 H 406.176 1.90148 2.47488 0
M  V30 4262 N 406.477 -1.02803 1.19454 0
M  V30 4263 C 407.407 -2.12999 0.956758 0
M  V30 4264 C 408.388 -1.69743 -0.110188 0
M  V30 4265 O 409.573 -1.94148 0.0450038 0
M  V30 4266 C 406.703 -3.43746 0.495553 0
M  V30 4267 C 405.657 -4.00688 1.50443 0
M  V30 4268 C 404.983 -5.27067 0.900275 0
M  V30 4269 C 406.283 -4.35397 2.8849 0
M  V30 4270 H 407.977 -2.33148 1.87836 0
M  V30 4271 H 405.523 -1.12045 0.904539 0
M  V30 4272 H 407.476 -4.2021 0.316493 0
M  V30 4273 H 406.2 -3.23321 -0.461646 0
M  V30 4274 H 404.859 -3.2632 1.67065 0
M  V30 4275 H 404.507 -5.02959 -0.064503 0
M  V30 4276 H 404.207 -5.66127 1.57397 0
M  V30 4277 H 405.731 -6.06196 0.73203 0
M  V30 4278 H 407.145 -5.02795 2.75446 0
M  V30 4279 H 405.542 -4.85541 3.52661 0
M  V30 4280 H 406.612 -3.44662 3.41081 0
M  V30 4281 N 407.956 -0.998596 -1.21925 0
M  V30 4282 C 409.203 -0.677663 -1.90824 0
M  V30 4283 C 409.531 0.790905 -1.77693 0
M  V30 4284 O 408.786 1.58817 -1.14349 0
M  V30 4285 C 409.085 -1.03648 -3.42041 0
M  V30 4286 C 408.751 -2.49825 -3.75364 0
M  V30 4287 C 407.413 -2.8977 -3.8417 0
M  V30 4288 C 409.765 -3.44545 -3.91073 0
M  V30 4289 C 407.093 -4.23412 -4.06127 0
M  V30 4290 C 409.445 -4.77853 -4.14535 0
M  V30 4291 C 408.109 -5.17531 -4.21566 0
M  V30 4292 H 407.379 -0.247975 -0.698276 0
M  V30 4293 H 410.026 -1.25584 -1.44571 0
M  V30 4294 H 408.331 -0.376457 -3.89987 0
M  V30 4295 H 410.028 -0.766113 -3.93614 0
M  V30 4296 H 406.618 -2.17866 -3.69097 0
M  V30 4297 H 410.802 -3.14853 -3.83642 0
M  V30 4298 H 406.058 -4.53734 -4.09799 0
M  V30 4299 H 410.232 -5.51189 -4.25633 0
M  V30 4300 H 407.859 -6.21102 -4.38333 0
M  V30 4301 N 409.434 1.37368 -0.772513 0
M  V30 4302 C 410.664 2.03647 -0.348082 0
M  V30 4303 C 411.072 1.58392 1.03482 0
M  V30 4304 O 410.415 0.760921 1.672 0
M  V30 4305 C 410.477 3.58131 -0.313404 0
M  V30 4306 C 410.141 4.2652 -1.64102 0
M  V30 4307 C 411.138 4.50587 -2.5936 0
M  V30 4308 C 408.823 4.64335 -1.91567 0
M  V30 4309 C 410.817 5.11526 -3.80289 0
M  V30 4310 C 408.504 5.24996 -3.12766 0
M  V30 4311 C 409.502 5.48529 -4.06946 0
M  V30 4312 O 409.19 6.07921 -5.26011 0
M  V30 4313 H 408.922 0.660538 -0.143753 0
M  V30 4314 H 411.476 1.76669 -1.04772 0
M  V30 4315 H 409.706 3.84159 0.442617 0
M  V30 4316 H 411.395 4.05813 0.0840613 0
M  V30 4317 H 412.161 4.21784 -2.39423 0
M  V30 4318 H 408.04 4.45353 -1.19088 0
M  V30 4319 H 411.584 5.29811 -4.53813 0
M  V30 4320 H 407.481 5.53223 -3.32588 0
M  V30 4321 H 408.249 6.26398 -5.26847 0
M  V30 4322 N 410.912 0.523116 1.48665 0
M  V30 4323 C 411.859 -0.243398 2.29513 0
M  V30 4324 C 412.829 -0.940139 1.36933 0
M  V30 4325 O 414.014 -0.942503 1.65896 0
M  V30 4326 C 411.154 -1.28855 3.20141 0
M  V30 4327 C 410.267 -0.60135 4.27794 0
M  V30 4328 C 409.402 -1.62884 5.05611 0
M  V30 4329 C 408.441 -0.924726 6.05075 0
M  V30 4330 N 407.578 -1.89744 6.75975 0
M  V30 4331 H 412.418 0.452234 2.94549 0
M  V30 4332 H 409.955 0.234858 1.45213 0
M  V30 4333 H 411.913 -1.90674 3.71079 0
M  V30 4334 H 410.543 -1.95266 2.57043 0
M  V30 4335 H 409.595 0.130623 3.80176 0
M  V30 4336 H 410.907 -0.0481585 4.98777 0
M  V30 4337 H 410.061 -2.32149 5.60528 0
M  V30 4338 H 408.8 -2.21592 4.34452 0
M  V30 4339 H 407.805 -0.217966 5.49368 0
M  V30 4340 H 409.03 -0.343851 6.78229 0
M  V30 4341 H 406.976 -2.47373 6.07571 0
M  V30 4342 H 406.893 -1.3955 7.43009 0
M  V30 4343 H 408.161 -2.58229 7.35485 0
M  V30 4344 N 412.39 -1.55475 0.257931 0
M  V30 4345 C 413.801 -1.8511 -0.243135 0
M  V30 4346 C 414.152 -1.17986 -1.5676 0
M  V30 4347 O 413.277 -0.462102 -2.11409 0
M  V30 4348 C 413.872 -3.35826 -0.447929 0
M  V30 4349 C 412.431 -3.65647 -0.893245 0
M  V30 4350 C 411.578 -2.7729 0.0232965 0
M  V30 4351 H 414.529 -1.51261 0.480199 0
M  V30 4352 H 414.55 -3.58002 -1.28898 0
M  V30 4353 H 414.062 -3.84652 0.516196 0
M  V30 4354 H 412.163 -3.22308 -1.86945 0
M  V30 4355 H 412.276 -4.73312 -0.742469 0
M  V30 4356 H 410.64 -2.49942 -0.490021 0
M  V30 4357 H 411.423 -3.28926 0.982994 0
M  V30 4358 N 413.868 0.0150385 -1.57593 0
M  V30 4359 C 415.093 0.718067 -1.94573 0
M  V30 4360 C 415.518 1.6734 -0.859005 0
M  V30 4361 O 414.876 1.80362 0.184147 0
M  V30 4362 C 414.924 1.43918 -3.30636 0
M  V30 4363 O 414.028 2.55299 -3.23876 0
M  V30 4364 H 413.369 0.192125 -0.635597 0
M  V30 4365 H 415.899 -0.0336708 -2.04572 0
M  V30 4366 H 415.909 1.80598 -3.65853 0
M  V30 4367 H 414.584 0.738619 -4.09289 0
M  V30 4368 H 413.161 2.21058 -3.00312 0
M  V30 4369 N 415.346 1.54954 0.287554 0
M  V30 4370 C 416.757 1.65732 0.859634 0
M  V30 4371 C 417.108 0.574767 1.87592 0
M  V30 4372 O 416.233 -0.286299 2.14498 0
M  V30 4373 C 416.828 3.00438 1.56597 0
M  V30 4374 C 415.387 3.13292 2.08627 0
M  V30 4375 C 414.534 2.61473 0.923416 0
M  V30 4376 H 417.485 1.5857 0.0642338 0
M  V30 4377 H 417.506 2.92613 2.43224 0
M  V30 4378 H 417.018 3.79207 0.826053 0
M  V30 4379 H 415.119 2.39268 2.85625 0
M  V30 4380 H 415.232 4.19647 2.31157 0
M  V30 4381 H 413.596 2.18264 1.31275 0
M  V30 4382 H 414.379 3.42733 0.197241 0
M  V30 4383 N 416.824 -0.551391 1.4764 0
M  V30 4384 C 418.101 -1.31229 1.45046 0
M  V30 4385 C 418.481 -2.10563 0.150527 0
M  V30 4386 O 417.829 -2.11374 -0.867956 0
M  V30 4387 C 418.039 -2.21189 2.69956 0
M  V30 4388 C 419.387 -2.82021 3.1741 0
M  V30 4389 O 420.411 -2.31488 2.70724 0
M  V30 4390 O 419.27 -3.73885 3.98588 0
M  V30 4391 H 416.364 -0.591193 0.578291 0
M  V30 4392 H 418.91 -0.569813 1.59847 0
M  V30 4393 H 417.682 -1.62207 3.56096 0
M  V30 4394 H 417.305 -3.02722 2.57769 0
M  V30 4395 N 418.302 -1.35869 -0.798587 0
M  V30 4396 C 419.265 -1.29307 -1.89242 0
M  V30 4397 C 420.265 -0.202747 -1.59517 0
M  V30 4398 O 421.455 -0.456957 -1.681 0
M  V30 4399 C 418.587 -1.00229 -3.25833 0
M  V30 4400 H 419.78 -2.26576 -1.96478 0
M  V30 4401 H 417.333 -1.20509 -0.995358 0
M  V30 4402 H 418.068 -0.033801 -3.24282 0
M  V30 4403 H 417.853 -1.79121 -3.48795 0
M  V30 4404 H 419.343 -0.98219 -4.05885 0
M  V30 4405 N 419.78 1.02168 -1.19998 0
M  V30 4406 C 421.028 1.75338 -1.00504 0
M  V30 4407 C 421.349 1.89387 0.464506 0
M  V30 4408 O 420.619 1.43268 1.33608 0
M  V30 4409 H 419.199 0.649564 -0.368885 0
M  V30 4410 H 421.861 1.23205 -1.51018 0
M  V30 4411 H 420.957 2.75892 -1.45912 0
M  V30 4412 N 421.258 1.00505 1.21394 0
M  V30 4413 C 422.168 0.574806 2.27449 0
M  V30 4414 C 423.184 -0.382206 1.6975 0
M  V30 4415 O 424.36 -0.246027 1.99892 0
M  V30 4416 C 421.425 -0.0917414 3.46579 0
M  V30 4417 C 420.486 0.909758 4.1955 0
M  V30 4418 C 419.719 0.274924 5.32991 0
M  V30 4419 O 419.942 -0.928254 5.62796 0
M  V30 4420 O 418.876 0.985877 5.93771 0
M  V30 4421 H 422.702 1.45744 2.66444 0
M  V30 4422 H 420.287 0.773923 1.27792 0
M  V30 4423 H 422.169 -0.464551 4.18832 0
M  V30 4424 H 420.844 -0.948755 3.09484 0
M  V30 4425 H 419.751 1.33372 3.49518 0
M  V30 4426 H 421.084 1.73636 4.60555 0
M  V30 4427 N 422.737 -1.36956 0.779787 0
M  V30 4428 C 423.647 -2.33965 0.172491 0
M  V30 4429 C 424.663 -1.60574 -0.670222 0
M  V30 4430 O 425.839 -1.92617 -0.588263 0
M  V30 4431 C 422.904 -3.39761 -0.690173 0
M  V30 4432 C 421.965 -4.28964 0.169924 0
M  V30 4433 C 421.198 -5.29707 -0.651662 0
M  V30 4434 O 421.421 -5.38238 -1.88827 0
M  V30 4435 O 420.355 -6.01873 -0.0566264 0
M  V30 4436 H 424.181 -2.87647 0.974321 0
M  V30 4437 H 421.766 -1.39258 0.541078 0
M  V30 4438 H 423.648 -4.04471 -1.1824 0
M  V30 4439 H 422.323 -2.88394 -1.47006 0
M  V30 4440 H 421.23 -3.67326 0.708696 0
M  V30 4441 H 422.563 -4.83656 0.913085 0
M  V30 4442 N 424.215 -0.530993 -1.48385 0
M  V30 4443 C 425.125 0.23503 -2.3342 0
M  V30 4444 C 426.141 0.93801 -1.46552 0
M  V30 4445 O 427.317 0.912745 -1.7953 0
M  V30 4446 C 424.382 1.26778 -3.22689 0
M  V30 4447 C 423.443 0.575038 -4.25431 0
M  V30 4448 C 422.676 1.55858 -5.10435 0
M  V30 4449 O 422.899 2.79129 -4.97437 0
M  V30 4450 O 421.833 1.09742 -5.91811 0
M  V30 4451 H 425.659 -0.461794 -3.00169 0
M  V30 4452 H 423.244 -0.291903 -1.46521 0
M  V30 4453 H 425.126 1.86457 -3.77904 0
M  V30 4454 H 423.801 1.94699 -2.586 0
M  V30 4455 H 422.708 -0.0622782 -3.74048 0
M  V30 4456 H 424.041 -0.062253 -4.92161 0
M  V30 4457 N 425.693 1.55336 -0.266172 0
M  V30 4458 C 426.933 2.01303 0.354459 0
M  V30 4459 C 427.297 1.15046 1.53715 0
M  V30 4460 O 428.498 1.50554 2.22681 0
M  V30 4461 C 426.769 3.49748 0.735579 0
M  V30 4462 S 428.328 4.1771 1.34401 0
M  V30 4463 H 425.146 0.702333 0.110674 0
M  V30 4464 H 427.748 1.91653 -0.385916 0
M  V30 4465 H 426.452 4.10181 -0.134196 0
M  V30 4466 H 425.983 3.63364 1.50764 0
M  V30 4467 H 427.998 4.20594 2.63278 0
M  V30 4468 N 427.171 -0.0066808 1.57599 0
M  V30 4469 C 428.396 -0.707738 1.94951 0
M  V30 4470 C 428.821 -1.66882 0.867868 0
M  V30 4471 O 428.179 -1.80457 -0.17458 0
M  V30 4472 C 428.227 -1.42162 3.31394 0
M  V30 4473 O 427.331 -2.53578 3.25226 0
M  V30 4474 H 426.672 -0.188752 0.636607 0
M  V30 4475 H 429.202 0.0445193 2.04552 0
M  V30 4476 H 429.212 -1.78655 3.66806 0
M  V30 4477 H 427.887 -0.716903 4.09675 0
M  V30 4478 H 426.464 -2.19463 3.01481 0
M  V30 4479 N 428.649 -1.55105 -0.279332 0
M  V30 4480 C 430.06 -1.66186 -0.850832 0
M  V30 4481 C 430.411 -0.584707 -1.87285 0
M  V30 4482 O 429.536 0.274919 -2.14647 0
M  V30 4483 C 430.131 -3.01264 -1.55001 0
M  V30 4484 C 428.69 -3.14394 -2.06963 0
M  V30 4485 C 427.837 -2.61959 -0.909536 0
M  V30 4486 H 430.788 -1.58602 -0.0558235 0
M  V30 4487 H 430.809 -2.93899 -2.41669 0
M  V30 4488 H 430.321 -3.7964 -0.805931 0
M  V30 4489 H 428.422 -2.4078 -2.84352 0
M  V30 4490 H 428.535 -4.20867 -2.28928 0
M  V30 4491 H 426.899 -2.18957 -1.30116 0
M  V30 4492 H 427.682 -3.42833 -0.179062 0
M  V30 4493 N 430.127 0.543554 -1.4793 0
M  V30 4494 C 431.373 1.30201 -1.55485 0
M  V30 4495 C 431.706 1.92925 -0.222201 0
M  V30 4496 O 430.981 1.78586 0.77053 0
M  V30 4497 C 431.264 2.40174 -2.68307 0
M  V30 4498 C 431.117 1.8223 -4.11233 0
M  V30 4499 C 432.436 3.42024 -2.76961 0
M  V30 4500 H 429.555 0.472036 -0.565996 0
M  V30 4501 H 432.197 0.606914 -1.80046 0
M  V30 4502 H 430.347 2.99463 -2.47495 0
M  V30 4503 H 432.019 1.27096 -4.43446 0
M  V30 4504 H 430.262 1.12832 -4.18869 0
M  V30 4505 H 430.933 2.61793 -4.85972 0
M  V30 4506 H 433.409 2.92672 -2.95774 0
M  V30 4507 H 432.285 4.16383 -3.57654 0
M  V30 4508 H 432.546 4.0173 -1.84568 0
M  V30 4509 N 431.605 1.3629 0.791371 0
M  V30 4510 C 432.535 1.33137 1.91825 0
M  V30 4511 C 433.516 0.203168 1.68882 0
M  V30 4512 O 434.701 0.400509 1.90025 0
M  V30 4513 C 431.831 1.11793 3.28816 0
M  V30 4514 C 430.785 2.21417 3.66277 0
M  V30 4515 C 430.111 1.85218 5.01596 0
M  V30 4516 C 431.411 3.63489 3.75064 0
M  V30 4517 H 433.105 2.2743 1.9472 0
M  V30 4518 H 430.651 1.09479 0.935437 0
M  V30 4519 H 432.604 1.08222 4.07266 0
M  V30 4520 H 431.328 0.139501 3.26302 0
M  V30 4521 H 429.987 2.2411 2.90121 0
M  V30 4522 H 429.635 0.859544 4.95602 0
M  V30 4523 H 429.335 2.58611 5.27631 0
M  V30 4524 H 430.859 1.832 5.82469 0
M  V30 4525 H 432.273 3.63034 4.43711 0
M  V30 4526 H 430.67 4.35771 4.12582 0
M  V30 4527 H 431.74 3.98536 2.76219 0
M  V30 4528 N 433.083 -1.0153 1.20538 0
M  V30 4529 C 434.499 -1.27461 0.96051 0
M  V30 4530 C 434.699 -1.98273 -0.359193 0
M  V30 4531 O 433.755 -2.27886 -1.0874 0
M  V30 4532 C 435.068 -2.10837 2.14402 0
M  V30 4533 C 436.616 -2.24099 2.18515 0
M  V30 4534 C 437.091 -3.10852 3.36355 0
M  V30 4535 N 438.582 -3.18441 3.36377 0
M  V30 4536 C 439.317 -3.85795 4.24205 0
M  V30 4537 N 438.813 -4.55264 5.22213 0
M  V30 4538 N 440.606 -3.82331 4.12043 0
M  V30 4539 H 432.757 -0.539907 2.05423 0
M  V30 4540 H 435.02 -0.30092 0.898972 0
M  V30 4541 H 434.726 -1.66144 3.09983 0
M  V30 4542 H 434.6 -3.11576 2.12604 0
M  V30 4543 H 436.987 -2.68016 1.23497 0
M  V30 4544 H 437.068 -1.22865 2.24361 0
M  V30 4545 H 436.712 -2.6764 4.31661 0
M  V30 4546 H 436.642 -4.12177 3.27746 0
M  V30 4547 H 439.133 -2.68978 2.65442 0
M  V30 4548 H 439.446 -5.04331 5.85551 0
M  V30 4549 H 437.791 -4.54085 5.26148 0
M  V30 4550 H 440.982 -3.27207 3.34743 0
M  V30 4551 H 441.155 -4.34547 4.807 0
M  V30 4552 N 434.561 -1.01147 -1.20859 0
M  V30 4553 C 435.471 -0.58686 -2.27141 0
M  V30 4554 C 436.487 0.373198 -1.69951 0
M  V30 4555 O 437.663 0.235423 -2.00019 0
M  V30 4556 C 434.728 0.0733602 -3.46622 0
M  V30 4557 C 433.789 -0.931995 -4.19061 0
M  V30 4558 C 433.022 -0.303186 -5.32838 0
M  V30 4559 O 433.245 0.898395 -5.63281 0
M  V30 4560 O 432.179 -1.01735 -5.9324 0
M  V30 4561 H 436.005 -1.47155 -2.65667 0
M  V30 4562 H 433.59 -0.780689 -1.2738 0
M  V30 4563 H 435.472 0.442333 -4.19072 0
M  V30 4564 H 434.147 0.932329 -3.09983 0
M  V30 4565 H 433.054 -1.35224 -3.48805 0
M  V30 4566 H 434.387 -1.76076 -4.59628 0
M  V30 4567 N 436.039 1.36541 -0.78704 0
M  V30 4568 C 437.287 1.98911 -0.357633 0
M  V30 4569 C 437.608 1.62778 1.07371 0
M  V30 4570 O 436.878 0.900612 1.73971 0
M  V30 4571 H 435.458 0.735734 -0.129246 0
M  V30 4572 H 438.12 1.66776 -1.00855 0
M  V30 4573 H 437.216 3.08874 -0.447549 0
M  V30 4574 N 437.518 0.538854 1.48102 0
M  V30 4575 C 438.448 -0.207654 2.32575 0
M  V30 4576 C 439.429 -0.926559 1.4265 0
M  V30 4577 O 440.614 -0.91061 1.71527 0
M  V30 4578 C 437.744 -1.24957 3.24042 0
M  V30 4579 C 436.698 -0.648263 4.23062 0
M  V30 4580 C 436.024 -1.79348 5.03725 0
M  V30 4581 C 437.324 0.385897 5.20872 0
M  V30 4582 H 439.018 0.497534 2.95237 0
M  V30 4583 H 436.564 0.240715 1.41974 0
M  V30 4584 H 438.517 -1.77983 3.81969 0
M  V30 4585 H 437.241 -1.98446 2.59397 0
M  V30 4586 H 435.9 -0.139452 3.66335 0
M  V30 4587 H 435.548 -2.51696 4.35498 0
M  V30 4588 H 435.248 -1.39702 5.70751 0
M  V30 4589 H 436.772 -2.32735 5.64506 0
M  V30 4590 H 438.186 -0.057607 5.73271 0
M  V30 4591 H 436.583 0.700227 5.96001 0
M  V30 4592 H 437.653 1.28848 4.67468 0
M  V30 4593 N 438.996 -1.55193 0.274407 0
M  V30 4594 C 440.244 -1.99187 -0.341902 0
M  V30 4595 C 440.565 -1.16422 -1.56431 0
M  V30 4596 O 439.835 -0.253573 -1.94252 0
M  V30 4597 H 438.415 -0.735721 -0.129317 0
M  V30 4598 H 441.077 -1.91168 0.379578 0
M  V30 4599 H 440.173 -3.05629 -0.632253 0
M  V30 4600 N 440.474 -0.00167713 -1.576 0
M  V30 4601 C 441.699 0.69739 -1.95323 0
M  V30 4602 C 442.124 1.6642 -0.876706 0
M  V30 4603 O 441.482 1.80548 0.165007 0
M  V30 4604 C 441.53 1.40403 -3.32144 0
M  V30 4605 O 440.634 2.5185 -3.26566 0
M  V30 4606 H 439.975 0.185373 -0.637599 0
M  V30 4607 H 442.505 -0.0553665 -2.04525 0
M  V30 4608 H 442.515 1.76707 -3.67748 0
M  V30 4609 H 441.19 0.695167 -4.10049 0
M  V30 4610 H 439.767 2.17861 -3.0264 0
M  V30 4611 N 441.952 1.55251 0.271103 0
M  V30 4612 C 442.882 1.9127 1.33933 0
M  V30 4613 C 443.863 0.77478 1.5143 0
M  V30 4614 O 445.048 1.03307 1.64442 0
M  V30 4615 C 442.178 2.18627 2.69851 0
M  V30 4616 C 441.132 3.34442 2.67081 0
M  V30 4617 C 440.458 3.47284 4.06569 0
M  V30 4618 C 441.758 4.70784 2.26185 0
M  V30 4619 H 443.452 2.80744 1.04035 0
M  V30 4620 H 440.998 1.35077 0.499017 0
M  V30 4621 H 442.951 2.42413 3.44694 0
M  V30 4622 H 441.675 1.25955 3.01335 0
M  V30 4623 H 440.334 3.10627 1.94695 0
M  V30 4624 H 439.982 2.52074 4.35279 0
M  V30 4625 H 439.682 4.25152 4.0561 0
M  V30 4626 H 441.206 3.73363 4.83148 0
M  V30 4627 H 442.62 4.94102 2.90751 0
M  V30 4628 H 441.017 5.51582 2.36384 0
M  V30 4629 H 442.087 4.69478 1.21319 0
M  V30 4630 N 443.43 -0.535701 1.48216 0
M  V30 4631 C 444.38 -1.63688 1.58714 0
M  V30 4632 C 445.364 -1.54635 0.444615 0
M  V30 4633 O 446.556 -1.62753 0.695742 0
M  V30 4634 C 443.685 -3.02423 1.62466 0
M  V30 4635 C 442.771 -3.16601 2.82178 0
M  V30 4636 N 443.162 -3.00771 4.06658 0
M  V30 4637 C 441.46 -3.47645 2.79391 0
M  V30 4638 C 442.161 -3.18213 4.86945 0
M  V30 4639 N 441.137 -3.45528 4.19656 0
M  V30 4640 H 444.939 -1.5005 2.5271 0
M  V30 4641 H 442.453 -0.741018 1.44508 0
M  V30 4642 H 444.45 -3.81517 1.6808 0
M  V30 4643 H 443.11 -3.17157 0.695826 0
M  V30 4644 H 444.121 -2.77652 4.37184 0
M  V30 4645 H 440.798 -3.68771 1.95739 0
M  V30 4646 H 442.188 -3.1076 5.95716 0
M  V30 4647 N 444.908 -1.36708 -0.784132 0
M  V30 4648 C 446.136 -1.34398 -1.57305 0
M  V30 4649 C 446.551 0.0735577 -1.88657 0
M  V30 4650 O 445.908 1.03193 -1.50524 0
M  V30 4651 C 445.959 -2.17053 -2.89085 0
M  V30 4652 O 445.68 -3.53281 -2.59083 0
M  V30 4653 C 447.181 -2.22583 -3.83369 0
M  V30 4654 H 444.401 -0.460819 -0.487736 0
M  V30 4655 H 446.945 -1.79879 -0.972819 0
M  V30 4656 H 445.1 -1.75113 -3.45564 0
M  V30 4657 H 445.514 -3.9647 -3.43383 0
M  V30 4658 H 446.988 -2.84763 -4.72878 0
M  V30 4659 H 447.465 -1.23075 -4.21603 0
M  V30 4660 H 448.071 -2.64781 -3.32823 0
M  V30 4661 N 446.386 1.0089 -1.21074 0
M  V30 4662 C 447.802 1.2695 -0.967257 0
M  V30 4663 C 448.002 1.9846 0.348673 0
M  V30 4664 O 447.058 2.28459 1.0753 0
M  V30 4665 C 448.371 2.09697 -2.15517 0
M  V30 4666 C 449.919 2.22937 -2.197 0
M  V30 4667 C 450.394 3.09064 -3.37999 0
M  V30 4668 N 451.885 3.16653 -3.38061 0
M  V30 4669 C 452.62 3.8354 -4.26245 0
M  V30 4670 N 452.116 4.52488 -5.2462 0
M  V30 4671 N 453.909 3.80141 -4.14064 0
M  V30 4672 H 446.06 0.529005 -2.05707 0
M  V30 4673 H 448.323 0.296148 -0.900556 0
M  V30 4674 H 448.029 1.64497 -3.10859 0
M  V30 4675 H 447.903 3.10444 -2.14253 0
M  V30 4676 H 450.29 2.67357 -1.24916 0
M  V30 4677 H 450.371 1.21673 -2.2501 0
M  V30 4678 H 450.015 2.65347 -4.33074 0
M  V30 4679 H 449.945 4.10433 -3.29928 0
M  V30 4680 H 452.436 2.67566 -2.66865 0
M  V30 4681 H 452.749 5.01219 -5.88217 0
M  V30 4682 H 451.094 4.51288 -5.28549 0
M  V30 4683 H 454.285 3.25427 -3.36474 0
M  V30 4684 H 454.458 4.31992 -4.82998 0
M  V30 4685 N 447.864 1.01787 1.20321 0
M  V30 4686 C 448.814 0.559976 2.21016 0
M  V30 4687 C 449.798 -0.385366 1.56217 0
M  V30 4688 O 450.99 -0.208126 1.75772 0
M  V30 4689 C 448.119 -0.0990553 3.43157 0
M  V30 4690 C 447.205 0.86807 4.15121 0
M  V30 4691 N 447.596 2.0261 4.63447 0
M  V30 4692 C 445.894 0.689162 4.40643 0
M  V30 4693 C 446.595 2.63518 5.18588 0
M  V30 4694 N 445.571 1.91569 5.08726 0
M  V30 4695 H 449.373 1.44281 2.56048 0
M  V30 4696 H 446.887 0.883381 1.36272 0
M  V30 4697 H 448.884 -0.444643 4.14522 0
M  V30 4698 H 447.544 -0.977709 3.0963 0
M  V30 4699 H 448.555 2.40598 4.58621 0
M  V30 4700 H 445.232 -0.14133 4.17261 0
M  V30 4701 H 446.622 3.61527 5.66346 0
M  V30 4702 N 449.342 -1.36122 0.79427 0
M  V30 4703 C 450.292 -2.27373 0.169017 0
M  V30 4704 C 451.276 -1.4719 -0.649913 0
M  V30 4705 O 452.468 -1.69518 -0.50919 0
M  V30 4706 C 449.597 -3.36264 -0.691455 0
M  V30 4707 C 448.683 -4.2388 0.13653 0
M  V30 4708 N 449.074 -4.91519 1.19345 0
M  V30 4709 C 447.372 -4.45921 -0.0838499 0
M  V30 4710 C 448.073 -5.56369 1.6979 0
M  V30 4711 N 447.049 -5.34204 1.00634 0
M  V30 4712 H 450.851 -2.77154 0.977897 0
M  V30 4713 H 448.365 -1.49504 0.634208 0
M  V30 4714 H 450.362 -4.00572 -1.15534 0
M  V30 4715 H 449.022 -2.88037 -1.49883 0
M  V30 4716 H 450.033 -4.9334 1.57594 0
M  V30 4717 H 446.71 -4.08518 -0.861341 0
M  V30 4718 H 448.1 -6.20368 2.58055 0
M  V30 4719 N 450.82 -0.546701 -1.47814 0
M  V30 4720 C 452.06 -0.0209604 -2.04389 0
M  V30 4721 C 452.424 1.29993 -1.413 0
M  V30 4722 O 453.625 1.91273 -1.8886 0
M  V30 4723 C 451.896 0.0812844 -3.57308 0
M  V30 4724 S 453.455 0.55467 -4.3528 0
M  V30 4725 H 450.273 -0.0200865 -0.710716 0
M  V30 4726 H 452.875 -0.731055 -1.81317 0
M  V30 4727 H 451.579 -0.884616 -4.00753 0
M  V30 4728 H 451.11 0.815253 -3.8486 0
M  V30 4729 H 453.125 1.81627 -4.61764 0
M  V30 4730 N 452.299 1.55045 -0.282633 0
M  V30 4731 C 453.231 2.2023 0.634924 0
M  V30 4732 C 454.244 1.18931 1.11172 0
M  V30 4733 O 455.433 1.4562 1.03233 0
M  V30 4734 C 452.533 2.82041 1.87899 0
M  V30 4735 C 451.706 4.091 1.54776 0
M  V30 4736 C 450.765 4.54887 2.64507 0
M  V30 4737 O 449.791 5.20496 2.30375 0
M  V30 4738 N 450.993 4.25659 3.94709 0
M  V30 4739 H 453.758 2.99601 0.0769811 0
M  V30 4740 H 451.319 1.61565 -0.104048 0
M  V30 4741 H 453.311 3.09613 2.60619 0
M  V30 4742 H 451.881 2.06618 2.3458 0
M  V30 4743 H 451.101 3.88736 0.654049 0
M  V30 4744 H 452.389 4.9187 1.30158 0
M  V30 4745 H 451.787 3.7306 4.25256 0
M  V30 4746 H 450.344 4.57984 4.63782 0
M  V30 4747 N 453.777 0.010035 1.57597 0
M  V30 4748 C 455.026 -0.671945 1.90178 0
M  V30 4749 C 455.339 -1.74376 0.886131 0
M  V30 4750 O 456.545 -2.48107 1.10252 0
M  V30 4751 C 455.001 -1.24636 3.3763 0
M  V30 4752 C 454.609 -0.208838 4.47513 0
M  V30 4753 C 456.353 -1.90595 3.79307 0
M  V30 4754 C 454.26 -0.793814 5.86048 0
M  V30 4755 H 453.19 -0.25474 0.709665 0
M  V30 4756 H 455.841 0.0722206 1.83358 0
M  V30 4757 H 454.223 -2.04152 3.3932 0
M  V30 4758 H 455.397 0.562463 4.57354 0
M  V30 4759 H 453.712 0.350889 4.14919 0
M  V30 4760 H 456.309 -2.35284 4.80151 0
M  V30 4761 H 456.652 -2.74074 3.13352 0
M  V30 4762 H 457.185 -1.17798 3.79958 0
M  V30 4763 H 453.924 0.00240855 6.555 0
M  V30 4764 H 453.444 -1.53404 5.79851 0
M  V30 4765 H 455.123 -1.2894 6.34022 0
M  V30 4766 N 455.255 -1.55392 -0.262866 0
M  V30 4767 C 456.666 -1.67079 -0.833158 0
M  V30 4768 C 457.017 -0.604539 -1.86654 0
M  V30 4769 O 456.142 0.252138 -2.14926 0
M  V30 4770 C 456.737 -3.02891 -1.51797 0
M  V30 4771 C 455.296 -3.16571 -2.03617 0
M  V30 4772 C 454.443 -2.62909 -0.881701 0
M  V30 4773 H 457.394 -1.58652 -0.0389986 0
M  V30 4774 H 457.415 -2.96445 -2.38538 0
M  V30 4775 H 456.927 -3.80473 -0.765619 0
M  V30 4776 H 455.028 -2.43782 -2.81782 0
M  V30 4777 H 455.141 -4.23271 -2.24452 0
M  V30 4778 H 453.505 -2.20324 -1.27786 0
M  V30 4779 H 454.288 -3.43003 -0.14269 0
M  V30 4780 N 456.733 0.527833 -1.48498 0
M  V30 4781 C 457.979 1.28545 -1.56857 0
M  V30 4782 C 458.312 1.92678 -0.242651 0
M  V30 4783 O 457.587 1.79394 0.751545 0
M  V30 4784 C 457.87 2.37314 -2.70839 0
M  V30 4785 C 457.723 1.77858 -4.13142 0
M  V30 4786 C 459.042 3.39068 -2.80573 0
M  V30 4787 H 456.161 0.466006 -0.570971 0
M  V30 4788 H 458.803 0.587784 -1.8068 0
M  V30 4789 H 456.953 2.96821 -2.50658 0
M  V30 4790 H 458.625 1.22385 -4.44769 0
M  V30 4791 H 456.868 1.08383 -4.20042 0
M  V30 4792 H 457.539 2.56624 -4.88721 0
M  V30 4793 H 460.015 2.89518 -2.98862 0
M  V30 4794 H 458.891 4.12566 -3.6205 0
M  V30 4795 H 459.152 3.9975 -1.88818 0
M  V30 4796 N 458.211 1.37122 0.776871 0
M  V30 4797 C 459.622 1.28667 1.35284 0
M  V30 4798 C 459.973 -0.0680035 1.96082 0
M  V30 4799 O 459.098 -0.969743 1.93455 0
M  V30 4800 C 459.693 2.32997 2.45963 0
M  V30 4801 C 458.252 2.28191 2.99342 0
M  V30 4802 C 457.399 2.17101 1.72517 0
M  V30 4803 H 460.35 1.47819 0.577527 0
M  V30 4804 H 460.371 1.97366 3.2531 0
M  V30 4805 H 459.883 3.3158 2.01684 0
M  V30 4806 H 457.984 1.33115 3.4801 0
M  V30 4807 H 458.097 3.21397 3.55304 0
M  V30 4808 H 456.461 1.63562 1.95242 0
M  V30 4809 H 457.244 3.17591 1.30348 0
M  V30 4810 N 459.689 -1.00246 1.21608 0
M  V30 4811 C 460.966 -1.71336 0.943568 0
M  V30 4812 C 461.346 -2.03972 -0.543943 0
M  V30 4813 O 460.694 -1.71545 -1.50946 0
M  V30 4814 C 460.904 -2.97094 1.83128 0
M  V30 4815 C 462.252 -3.70071 2.08165 0
M  V30 4816 O 463.276 -3.07081 1.80498 0
M  V30 4817 O 462.135 -4.83376 2.54971 0
M  V30 4818 H 459.229 -0.747386 0.354039 0
M  V30 4819 H 461.775 -1.05967 1.32549 0
M  V30 4820 H 460.547 -2.69407 2.83788 0
M  V30 4821 H 460.17 -3.70204 1.45034 0
M  V30 4822 N 461.167 -1.02423 -1.1978 0
M  V30 4823 C 462.578 -0.748389 -1.71044 0
M  V30 4824 C 462.929 0.732398 -1.82017 0
M  V30 4825 O 462.054 1.57116 -1.48807 0
M  V30 4826 C 462.649 -1.35187 -3.1066 0
M  V30 4827 C 461.208 -1.12472 -3.59203 0
M  V30 4828 C 460.355 -1.45283 -2.36195 0
M  V30 4829 H 463.306 -1.19275 -1.04686 0
M  V30 4830 H 463.327 -0.746408 -3.73107 0
M  V30 4831 H 462.839 -2.4296 -3.02642 0
M  V30 4832 H 460.94 -0.0649983 -3.72543 0
M  V30 4833 H 461.053 -1.81016 -4.43588 0
M  V30 4834 H 459.417 -0.872034 -2.39307 0
M  V30 4835 H 460.2 -2.54129 -2.30811 0
M  V30 4836 N 462.645 1.35699 -0.801477 0
M  V30 4837 C 463.608 2.28199 -0.213994 0
M  V30 4838 C 464.608 1.49359 0.595691 0
M  V30 4839 O 465.798 1.69186 0.414921 0
M  V30 4840 C 462.93 3.33587 0.702297 0
M  V30 4841 H 464.123 2.81666 -1.02976 0
M  V30 4842 H 461.676 1.45467 -0.571759 0
M  V30 4843 H 462.411 2.85297 1.54195 0
M  V30 4844 H 462.196 3.91906 0.123484 0
M  V30 4845 H 463.686 4.02638 1.10783 0
M  V30 4846 N 464.123 0.554532 1.47522 0
M  V30 4847 C 465.351 0.034257 2.06872 0
M  V30 4848 C 465.766 -1.25826 1.40759 0
M  V30 4849 O 465.123 -1.75425 0.503217 0
M  V30 4850 C 465.174 -0.167827 3.6111 0
M  V30 4851 O 464.895 1.07351 4.24744 0
M  V30 4852 C 466.396 -0.72569 4.3732 0
M  V30 4853 H 463.616 0.0446275 0.669514 0
M  V30 4854 H 466.16 0.767181 1.89564 0
M  V30 4855 H 464.315 -0.850872 3.7794 0
M  V30 4856 H 464.729 0.869563 5.17242 0
M  V30 4857 H 466.203 -0.816394 5.45929 0
M  V30 4858 H 466.68 -1.73635 4.0342 0
M  V30 4859 H 467.286 -0.0784292 4.25228 0
M  V30 4860 N 465.601 -1.54893 0.290851 0
M  V30 4861 C 466.551 -2.19838 -0.604599 0
M  V30 4862 C 467.535 -1.16805 -1.10659 0
M  V30 4863 O 468.727 -1.42562 -1.04905 0
M  V30 4864 C 465.856 -2.93497 -1.78086 0
M  V30 4865 C 464.942 -4.03835 -1.29531 0
M  V30 4866 N 465.333 -5.03047 -0.527024 0
M  V30 4867 C 463.631 -4.17192 -1.57693 0
M  V30 4868 C 464.332 -5.81074 -0.269728 0
M  V30 4869 N 463.308 -5.36966 -0.846651 0
M  V30 4870 H 467.11 -2.93898 -0.00995032 0
M  V30 4871 H 464.624 -1.62121 0.0951353 0
M  V30 4872 H 466.621 -3.38484 -2.43381 0
M  V30 4873 H 465.281 -2.2095 -2.37931 0
M  V30 4874 H 466.292 -5.17611 -0.172872 0
M  V30 4875 H 462.969 -3.55845 -2.18359 0
M  V30 4876 H 464.359 -6.71005 0.346643 0
M  V30 4877 N 467.08 -0.0183926 -1.57589 0
M  V30 4878 C 468.328 0.661253 -1.90976 0
M  V30 4879 C 468.649 1.73281 -0.894353 0
M  V30 4880 O 467.919 1.9579 0.0656788 0
M  V30 4881 H 466.499 0.247233 -0.704901 0
M  V30 4882 H 469.161 -0.0636639 -1.94796 0
M  V30 4883 H 468.257 1.12083 -2.9128 0
M  V30 4884 N 468.558 1.5553 0.254621 0
M  V30 4885 C 469.49 1.86104 1.33783 0
M  V30 4886 C 470.503 0.746752 1.44663 0
M  V30 4887 O 471.692 1.0248 1.46151 0
M  V30 4888 C 468.792 2.02532 2.71724 0
M  V30 4889 C 467.965 3.33335 2.83208 0
M  V30 4890 C 467.024 3.396 4.01943 0
M  V30 4891 O 466.05 4.12862 3.91834 0
M  V30 4892 N 467.252 2.68332 5.1476 0
M  V30 4893 H 470.017 2.79605 1.07893 0
M  V30 4894 H 467.578 1.55672 0.444732 0
M  V30 4895 H 469.57 2.04074 3.4948 0
M  V30 4896 H 468.14 1.15811 2.90356 0
M  V30 4897 H 467.36 3.44176 1.92189 0
M  V30 4898 H 468.648 4.19565 2.87824 0
M  V30 4899 H 468.046 2.08528 5.25864 0
M  V30 4900 H 466.603 2.75575 5.90679 0
M  V30 4901 N 470.036 -0.519951 1.48776 0
M  V30 4902 C 471.266 -1.29783 1.60748 0
M  V30 4903 C 471.674 -1.87253 0.27072 0
M  V30 4904 O 471.017 -1.67628 -0.751438 0
M  V30 4905 C 471.079 -2.47984 2.60277 0
M  V30 4906 C 470.743 -2.11526 4.051 0
M  V30 4907 C 471.74 -1.66608 4.92481 0
M  V30 4908 C 469.425 -2.21742 4.50706 0
M  V30 4909 C 471.419 -1.32384 6.23501 0
M  V30 4910 C 469.106 -1.87129 5.81744 0
M  V30 4911 C 470.104 -1.42523 6.67964 0
M  V30 4912 O 469.792 -1.0837 7.96562 0
M  V30 4913 H 469.524 -0.400562 0.544542 0
M  V30 4914 H 472.078 -0.632879 1.95407 0
M  V30 4915 H 470.308 -3.17493 2.2076 0
M  V30 4916 H 471.997 -3.10036 2.61978 0
M  V30 4917 H 472.763 -1.58178 4.58481 0
M  V30 4918 H 468.642 -2.55415 3.83776 0
M  V30 4919 H 472.186 -0.974949 6.90754 0
M  V30 4920 H 468.083 -1.95204 6.15277 0
M  V30 4921 H 468.851 -1.21681 8.09405 0
M  V30 4922 N 471.514 -1.37532 -0.769588 0
M  V30 4923 C 472.763 -1.32183 -1.5235 0
M  V30 4924 C 473.076 0.0906555 -1.9539 0
M  V30 4925 O 474.282 0.266628 -2.70188 0
M  V30 4926 C 472.738 -2.32029 -2.75119 0
M  V30 4927 C 472.346 -3.78816 -2.3917 0
M  V30 4928 C 474.09 -2.35694 -3.53056 0
M  V30 4929 C 471.997 -4.70388 -3.58453 0
M  V30 4930 H 470.927 -0.491275 -0.571984 0
M  V30 4931 H 473.578 -1.63004 -0.842739 0
M  V30 4932 H 471.96 -1.94229 -3.45096 0
M  V30 4933 H 473.134 -4.25466 -1.76962 0
M  V30 4934 H 471.449 -3.78117 -1.74402 0
M  V30 4935 H 474.046 -3.01312 -4.41718 0
M  V30 4936 H 474.389 -1.37117 -3.93071 0
M  V30 4937 H 474.922 -2.72212 -2.90078 0
M  V30 4938 H 471.661 -5.70102 -3.23518 0
M  V30 4939 H 471.181 -4.28442 -4.19758 0
M  V30 4940 H 472.86 -4.87628 -4.25239 0
M  V30 4941 N 472.992 0.995999 -1.22138 0
M  V30 4942 C 474.238 1.73767 -1.04561 0
M  V30 4943 C 474.571 1.89633 0.418698 0
M  V30 4944 O 473.846 1.43723 1.3105 0
M  V30 4945 C 474.129 3.14505 -1.75382 0
M  V30 4946 C 473.982 3.06306 -3.29388 0
M  V30 4947 C 475.301 4.13615 -1.50369 0
M  V30 4948 H 472.42 0.630728 -0.38125 0
M  V30 4949 H 475.062 1.16057 -1.50435 0
M  V30 4950 H 473.212 3.63775 -1.36383 0
M  V30 4951 H 474.884 2.64681 -3.77812 0
M  V30 4952 H 473.127 2.43186 -3.59226 0
M  V30 4953 H 473.798 4.05884 -3.74116 0
M  V30 4954 H 476.274 3.73089 -1.84239 0
M  V30 4955 H 475.15 5.10212 -2.02421 0
M  V30 4956 H 475.411 4.39949 -0.435611 0
M  V30 4957 N 474.47 1.03057 1.19235 0
M  V30 4958 C 475.695 0.74757 1.93458 0
M  V30 4959 C 476.12 -0.687648 1.7508 0
M  V30 4960 O 475.478 -1.47499 1.05422 0
M  V30 4961 C 475.526 1.10604 3.43219 0
M  V30 4962 O 474.63 0.225671 4.11782 0
M  V30 4963 H 473.971 0.276047 0.603899 0
M  V30 4964 H 476.501 1.3777 1.51263 0
M  V30 4965 H 476.511 1.06366 3.93891 0
M  V30 4966 H 475.186 2.15165 3.55917 0
M  V30 4967 H 473.763 0.326795 3.71465 0
M  V30 4968 N 475.948 -1.35272 0.808662 0
M  V30 4969 C 477.194 -1.99003 0.390581 0
M  V30 4970 C 477.527 -1.63999 -1.0401 0
M  V30 4971 O 476.802 -0.904368 -1.72196 0
M  V30 4972 C 477.085 -3.55454 0.576566 0
M  V30 4973 C 476.938 -4.00249 2.05233 0
M  V30 4974 C 478.257 -4.401 0.00354277 0
M  V30 4975 H 475.376 -0.722917 0.143388 0
M  V30 4976 H 478.018 -1.6039 1.01858 0
M  V30 4977 H 476.168 -3.88477 0.0419766 0
M  V30 4978 H 477.84 -3.77626 2.64946 0
M  V30 4979 H 476.083 -3.51082 2.54801 0
M  V30 4980 H 476.754 -5.0911 2.13333 0
M  V30 4981 H 479.23 -4.13548 0.460117 0
M  V30 4982 H 478.106 -5.48656 0.163575 0
M  V30 4983 H 478.367 -4.28444 -1.09032 0
M  V30 4984 N 477.426 -0.562348 -1.47226 0
M  V30 4985 C 478.358 0.220011 -2.28142 0
M  V30 4986 C 479.371 0.874596 -1.37312 0
M  V30 4987 O 480.56 0.747583 -1.62091 0
M  V30 4988 C 477.66 1.32953 -3.11732 0
M  V30 4989 C 476.833 0.770759 -4.30556 0
M  V30 4990 C 475.892 1.76541 -4.95701 0
M  V30 4991 O 474.918 1.3095 -5.53932 0
M  V30 4992 N 476.12 3.09896 -4.90861 0
M  V30 4993 H 478.885 -0.474107 -2.95926 0
M  V30 4994 H 476.446 -0.398761 -1.56912 0
M  V30 4995 H 478.438 1.99378 -3.5218 0
M  V30 4996 H 477.008 1.92681 -2.46156 0
M  V30 4997 H 476.228 -0.0704056 -3.94137 0
M  V30 4998 H 477.516 0.376872 -5.07402 0
M  V30 4999 H 476.914 3.49577 -4.44761 0
M  V30 5000 H 475.471 3.71865 -5.35313 0
M  V30 5001 N 478.904 1.54736 -0.299062 0
M  V30 5002 C 480.315 1.8569 0.193971 0
M  V30 5003 C 480.666 1.22101 1.53577 0
M  V30 5004 O 479.791 0.51799 2.10109 0
M  V30 5005 C 480.386 3.36895 0.358733 0
M  V30 5006 C 478.945 3.67887 0.795986 0
M  V30 5007 C 478.092 2.77131 -0.096807 0
M  V30 5008 H 481.043 1.49934 -0.520134 0
M  V30 5009 H 481.064 3.61294 1.19361 0
M  V30 5010 H 480.576 3.83148 -0.617998 0
M  V30 5011 H 478.677 3.27151 1.78334 0
M  V30 5012 H 478.79 4.75114 0.616718 0
M  V30 5013 H 477.154 2.51153 0.423581 0
M  V30 5014 H 477.937 3.26204 -1.06986 0
M  V30 5015 N 480.382 0.0267497 1.57577 0
M  V30 5016 C 481.798 -0.32962 1.56159 0
M  V30 5017 C 481.998 -1.73059 1.03213 0
M  V30 5018 O 481.054 -2.43233 0.677804 0
M  V30 5019 C 482.367 -0.18039 3.00158 0
M  V30 5020 C 483.915 -0.253334 3.11973 0
M  V30 5021 C 484.39 -0.132921 4.57807 0
M  V30 5022 N 485.881 -0.189979 4.6281 0
M  V30 5023 C 486.616 -0.120554 5.73273 0
M  V30 5024 N 486.112 -0.000180315 6.928 0
M  V30 5025 N 487.905 -0.174369 5.61829 0
M  V30 5026 H 480.056 0.942896 1.90324 0
M  V30 5027 H 482.319 0.3639 0.875375 0
M  V30 5028 H 482.025 0.784576 3.42837 0
M  V30 5029 H 481.899 -0.951565 3.65 0
M  V30 5030 H 484.286 -1.20876 2.69208 0
M  V30 5031 H 484.367 0.548177 2.49857 0
M  V30 5032 H 484.011 0.819073 5.01252 0
M  V30 5033 H 483.941 -0.953264 5.179 0
M  V30 5034 H 486.432 -0.283257 3.76837 0
M  V30 5035 H 486.745 0.0461666 7.72786 0
M  V30 5036 H 485.09 0.034569 6.94991 0
M  V30 5037 H 488.281 -0.266794 4.67339 0
M  V30 5038 H 488.454 -0.116802 6.47895 0
M  V30 5039 N 481.861 -1.55662 -0.24637 0
M  V30 5040 C 483.277 -1.48098 -0.594907 0
M  V30 5041 C 483.477 -0.717044 -1.8831 0
M  V30 5042 O 482.533 -0.246618 -2.51293 0
M  V30 5043 C 483.846 -2.92507 -0.697146 0
M  V30 5044 C 485.394 -3.02881 -0.789436 0
M  V30 5045 C 485.869 -4.48598 -0.923232 0
M  V30 5046 N 487.36 -4.52538 -0.988088 0
M  V30 5047 C 488.095 -5.62536 -1.11089 0
M  V30 5048 N 487.591 -6.82342 -1.19919 0
M  V30 5049 N 489.384 -5.50334 -1.14408 0
M  V30 5050 H 481.535 -2.0377 0.599278 0
M  V30 5051 H 483.798 -0.925145 0.20691 0
M  V30 5052 H 483.504 -3.51242 0.179396 0
M  V30 5053 H 483.378 -3.43024 -1.5689 0
M  V30 5054 H 485.765 -2.44226 -1.65643 0
M  V30 5055 H 485.846 -2.55574 0.107482 0
M  V30 5056 H 485.49 -5.07864 -0.0607927 0
M  V30 5057 H 485.42 -4.93587 -1.8352 0
M  V30 5058 H 487.911 -3.66248 -0.931167 0
M  V30 5059 H 488.224 -7.61924 -1.29197 0
M  V30 5060 H 486.569 -6.85102 -1.16876 0
M  V30 5061 H 489.76 -4.5567 -1.07158 0
M  V30 5062 H 489.933 -6.36096 -1.23634 0
M  V30 5063 N 483.339 0.512053 -1.4905 0
M  V30 5064 C 484.302 1.59704 -1.64399 0
M  V30 5065 C 485.302 1.52285 -0.516317 0
M  V30 5066 O 486.492 1.55635 -0.782527 0
M  V30 5067 C 483.624 2.9935 -1.63102 0
M  V30 5068 H 484.817 1.47428 -2.61161 0
M  V30 5069 H 482.37 0.735469 -1.37915 0
M  V30 5070 H 483.105 3.17116 -0.678836 0
M  V30 5071 H 482.89 3.06144 -2.44986 0
M  V30 5072 H 484.38 3.782 -1.77072 0
M  V30 5073 N 484.817 1.37938 0.762283 0
M  V30 5074 C 485.727 1.36681 1.90671 0
M  V30 5075 C 486.743 0.265078 1.71969 0
M  V30 5076 O 487.919 0.502055 1.95042 0
M  V30 5077 C 484.984 1.18211 3.25925 0
M  V30 5078 C 484.045 2.3811 3.57214 0
M  V30 5079 C 483.278 2.20512 4.86014 0
M  V30 5080 O 483.501 1.19429 5.57757 0
M  V30 5081 O 482.435 3.08911 5.16583 0
M  V30 5082 H 486.261 2.33091 1.94685 0
M  V30 5083 H 483.846 1.18767 0.906356 0
M  V30 5084 H 485.728 1.09937 4.06807 0
M  V30 5085 H 484.403 0.248807 3.22742 0
M  V30 5086 H 483.31 2.51958 2.76529 0
M  V30 5087 H 484.643 3.30041 3.65149 0
M  V30 5088 N 486.295 -0.989507 1.22664 0
M  V30 5089 C 487.242 -2.08024 0.999733 0
M  V30 5090 C 488.212 -1.65909 -0.0797047 0
M  V30 5091 O 489.397 -1.90669 0.0705715 0
M  V30 5092 C 486.537 -3.40067 0.587234 0
M  V30 5093 C 485.65 -3.95505 1.73781 0
M  V30 5094 C 484.785 -5.15722 1.27297 0
M  V30 5095 C 483.824 -5.63305 2.39488 0
M  V30 5096 N 482.961 -6.74758 1.94026 0
M  V30 5097 H 487.801 -2.26768 1.9334 0
M  V30 5098 H 485.338 -1.11171 0.963297 0
M  V30 5099 H 487.296 -4.15899 0.329227 0
M  V30 5100 H 485.926 -3.21314 -0.309426 0
M  V30 5101 H 484.978 -3.16513 2.11006 0
M  V30 5102 H 486.29 -4.26797 2.58158 0
M  V30 5103 H 485.444 -5.98854 0.972546 0
M  V30 5104 H 484.183 -4.86061 0.399445 0
M  V30 5105 H 483.188 -4.78759 2.70315 0
M  V30 5106 H 484.413 -5.94988 3.27362 0
M  V30 5107 H 482.359 -6.46874 1.09041 0
M  V30 5108 H 482.276 -7.05386 2.71968 0
M  V30 5109 H 483.544 -7.61387 1.67062 0
M  V30 5110 N 487.773 -1.03688 -1.18687 0
M  V30 5111 C 488.723 -0.595067 -2.20098 0
M  V30 5112 C 489.707 0.360465 -1.5681 0
M  V30 5113 O 490.899 0.180136 -1.76081 0
M  V30 5114 C 488.028 0.0444495 -3.43271 0
M  V30 5115 C 487.114 -0.934002 -4.13687 0
M  V30 5116 N 487.505 -2.09957 -4.60165 0
M  V30 5117 C 485.803 -0.759177 -4.39491 0
M  V30 5118 C 486.504 -2.71735 -5.1433 0
M  V30 5119 N 485.48 -1.99638 -5.05614 0
M  V30 5120 H 489.282 -1.48336 -2.5372 0
M  V30 5121 H 486.796 -0.904949 -1.3485 0
M  V30 5122 H 488.793 0.37864 -4.15177 0
M  V30 5123 H 487.453 0.928325 -3.11147 0
M  V30 5124 H 488.464 -2.47863 -4.54735 0
M  V30 5125 H 485.141 0.0749292 -4.17433 0
M  V30 5126 H 486.531 -3.70492 -5.60523 0
M  V30 5127 N 489.251 1.34841 -0.815825 0
M  V30 5128 C 490.5 1.97755 -0.396976 0
M  V30 5129 C 490.813 1.65422 1.04379 0
M  V30 5130 O 492.019 2.21771 1.5662 0
M  V30 5131 C 490.475 3.53818 -0.658869 0
M  V30 5132 C 490.083 3.95051 -2.11278 0
M  V30 5133 C 491.827 4.23397 -0.305834 0
M  V30 5134 C 489.734 5.43997 -2.31994 0
M  V30 5135 H 488.664 0.739985 -0.1447 0
M  V30 5136 H 491.315 1.53781 -1.00118 0
M  V30 5137 H 489.697 3.95997 0.0154112 0
M  V30 5138 H 490.871 3.63998 -2.82564 0
M  V30 5139 H 489.186 3.38388 -2.42657 0
M  V30 5140 H 491.783 5.32899 -0.43854 0
M  V30 5141 H 492.126 4.09508 0.748952 0
M  V30 5142 H 492.659 3.8667 -0.934403 0
M  V30 5143 H 489.398 5.62865 -3.35952 0
M  V30 5144 H 488.918 5.76589 -1.65244 0
M  V30 5145 H 490.597 6.10584 -2.14001 0
M  V30 5146 N 490.729 0.570148 1.46925 0
M  V30 5147 C 491.676 -0.170257 2.30171 0
M  V30 5148 C 492.646 -0.896099 1.39855 0
M  V30 5149 O 493.831 -0.889248 1.68811 0
M  V30 5150 C 490.971 -1.18605 3.24079 0
M  V30 5151 C 490.084 -0.464947 4.29491 0
M  V30 5152 C 489.219 -1.46716 5.10537 0
M  V30 5153 C 488.258 -0.731758 6.0771 0
M  V30 5154 N 487.395 -1.68142 6.81669 0
M  V30 5155 H 492.235 0.545713 2.92961 0
M  V30 5156 H 489.772 0.280938 1.44392 0
M  V30 5157 H 491.73 -1.78771 3.76957 0
M  V30 5158 H 490.36 -1.86989 2.63125 0
M  V30 5159 H 489.412 0.251506 3.79568 0
M  V30 5160 H 490.724 0.110548 4.98677 0
M  V30 5161 H 489.878 -2.14199 5.6763 0
M  V30 5162 H 488.617 -2.07658 4.41282 0
M  V30 5163 H 487.622 -0.0430787 5.49783 0
M  V30 5164 H 488.847 -0.127904 6.7898 0
M  V30 5165 H 486.793 -2.27918 6.15134 0
M  V30 5166 H 486.71 -1.15841 7.47072 0
M  V30 5167 H 487.978 -2.347 7.43328 0
M  V30 5168 N 492.207 -1.54576 0.307264 0
M  V30 5169 C 493.432 -2.05139 -0.305379 0
M  V30 5170 C 493.857 -1.18278 -1.46259 0
M  V30 5171 O 493.215 -0.188243 -1.8032 0
M  V30 5172 C 493.263 -3.53066 -0.733283 0
M  V30 5173 O 492.367 -3.69206 -1.83741 0
M  V30 5174 H 491.708 -0.661444 -0.0582105 0
M  V30 5175 H 494.238 -1.99569 0.450931 0
M  V30 5176 H 494.248 -3.95034 -1.02039 0
M  V30 5177 H 492.923 -4.15746 0.113198 0
M  V30 5178 H 491.5 -3.39143 -1.55037 0
M  V30 5179 N 493.685 -0.035106 -1.57561 0
M  V30 5180 C 494.91 0.655802 -1.96759 0
M  V30 5181 C 495.335 1.64523 -0.911809 0
M  V30 5182 O 494.693 1.80857 0.126673 0
M  V30 5183 C 494.741 1.33326 -3.35047 0
M  V30 5184 O 493.845 2.44866 -3.31835 0
M  V30 5185 H 493.186 0.171807 -0.641388 0
M  V30 5186 H 495.716 -0.0987369 -2.04362 0
M  V30 5187 H 495.726 1.68867 -3.71413 0
M  V30 5188 H 494.401 0.608033 -4.11431 0
M  V30 5189 H 492.978 2.11392 -3.07193 0
M  V30 5190 N 495.163 1.55791 0.238111 0
M  V30 5191 C 496.409 1.78297 0.966337 0
M  V30 5192 C 496.742 0.601903 1.84637 0
M  V30 5193 O 496.017 -0.399499 1.90353 0
M  V30 5194 C 496.3 3.10758 1.81939 0
M  V30 5195 C 496.153 4.39283 0.966958 0
M  V30 5196 C 497.472 3.39519 2.80027 0
M  V30 5197 H 494.591 0.648654 0.349882 0
M  V30 5198 H 497.233 1.88525 0.236253 0
M  V30 5199 H 495.383 3.02168 2.44185 0
M  V30 5200 H 497.055 4.59873 0.362514 0
M  V30 5201 H 495.298 4.32948 0.271669 0
M  V30 5202 H 495.969 5.28368 1.59784 0
M  V30 5203 H 498.445 3.48128 2.27917 0
M  V30 5204 H 497.321 4.33402 3.36829 0
M  V30 5205 H 497.582 2.60864 3.56934 0
M  V30 5206 N 496.642 -0.504142 1.49319 0
M  V30 5207 C 497.59 -1.62689 1.66238 0
M  V30 5208 C 498.584 -1.6095 0.528349 0
M  V30 5209 O 499.79 -1.65496 0.707887 0
M  V30 5210 H 496.165 -0.539247 0.524134 0
M  V30 5211 H 498.136 -1.45571 2.60484 0
M  V30 5212 C 496.885 -3.00841 1.74328 0
M  V30 5213 H 496.208 -3.02884 2.60963 0
M  V30 5214 H 497.648 -3.78945 1.90202 0
M  V30 5215 C 496.107 -3.33355 0.487416 0
M  V30 5216 O 496.637 -3.99819 -0.388294 0
M  V30 5217 N 494.843 -2.88469 0.351306 0
M  V30 5218 H 494.39 -2.34557 1.06492 0
M  V30 5219 H 494.348 -3.10591 -0.487899 0
M  V30 5220 N 498.12 -1.38341 -0.754957 0
M  V30 5221 C 499.369 -1.33791 -1.5094 0
M  V30 5222 C 499.682 0.0699267 -1.95475 0
M  V30 5223 O 500.888 0.237956 -2.70455 0
M  V30 5224 C 499.344 -2.34934 -2.72643 0
M  V30 5225 C 498.952 -3.81332 -2.35138 0
M  V30 5226 C 500.696 -2.39425 -3.50536 0
M  V30 5227 C 498.603 -4.74164 -3.53444 0
M  V30 5228 H 497.533 -0.497314 -0.566741 0
M  V30 5229 H 500.184 -1.63888 -0.825403 0
M  V30 5230 H 498.566 -1.97878 -3.43017 0
M  V30 5231 H 499.74 -4.27319 -1.7244 0
M  V30 5232 H 498.055 -3.79946 -1.70382 0
M  V30 5233 H 500.652 -3.0598 -4.38498 0
M  V30 5234 H 500.995 -1.41278 -3.91594 0
M  V30 5235 H 501.528 -2.75274 -2.87174 0
M  V30 5236 H 498.267 -5.73501 -3.17453 0
M  V30 5237 H 497.787 -4.3287 -4.15191 0
M  V30 5238 H 499.466 -4.92111 -4.20043 0
M  V30 5239 N 499.598 0.982988 -1.23187 0
M  V30 5240 C 500.53 2.07729 -0.968572 0
M  V30 5241 C 501.543 1.62702 0.0564821 0
M  V30 5242 O 502.732 1.77603 -0.178733 0
M  V30 5243 C 499.832 3.36071 -0.436974 0
M  V30 5244 C 499.005 4.10081 -1.52159 0
M  V30 5245 C 498.064 5.16701 -0.99532 0
M  V30 5246 O 497.09 5.43727 -1.68373 0
M  V30 5247 N 498.292 5.80226 0.178192 0
M  V30 5248 H 501.057 2.30894 -1.9107 0
M  V30 5249 H 498.618 1.14949 -1.1401 0
M  V30 5250 H 500.61 4.04639 -0.0700051 0
M  V30 5251 H 499.18 3.09893 0.410509 0
M  V30 5252 H 498.4 3.36004 -2.06144 0
M  V30 5253 H 499.688 4.56295 -2.25105 0
M  V30 5254 H 499.086 5.60651 0.754096 0
M  V30 5255 H 497.643 6.49982 0.486449 0
M  V30 5256 N 501.076 1.04316 1.18135 0
M  V30 5257 C 502.009 0.580823 2.20685 0
M  V30 5258 C 502.987 -0.385943 1.57953 0
M  V30 5259 O 504.171 -0.299654 1.86103 0
M  V30 5260 C 501.298 -0.151162 3.38363 0
M  V30 5261 C 500.344 0.769247 4.19505 0
M  V30 5262 S 501.177 2.25352 4.85774 0
M  V30 5263 C 502.333 1.53246 6.0685 0
M  V30 5264 H 502.566 1.44968 2.5956 0
M  V30 5265 H 500.099 0.85434 1.28609 0
M  V30 5266 H 502.057 -0.567315 4.06561 0
M  V30 5267 H 500.718 -0.995936 2.97892 0
M  V30 5268 H 499.911 0.203335 5.0359 0
M  V30 5269 H 499.513 1.12436 3.56699 0
M  V30 5270 H 501.805 0.82689 6.72435 0
M  V30 5271 H 502.748 2.35044 6.67952 0
M  V30 5272 H 503.156 1.0237 5.5514 0
M  V30 5273 N 502.554 -1.34406 0.822964 0
M  V30 5274 C 503.517 -2.2783 0.250271 0
M  V30 5275 C 504.517 -1.50288 -0.571854 0
M  V30 5276 O 505.707 -1.69825 -0.387952 0
M  V30 5277 C 502.839 -3.34663 -0.649137 0
M  V30 5278 H 504.032 -2.79992 1.07444 0
M  V30 5279 H 501.585 -1.44539 0.594829 0
M  V30 5280 H 502.32 -2.87714 -1.49637 0
M  V30 5281 H 502.105 -3.92052 -0.0611199 0
M  V30 5282 H 503.595 -4.04349 -1.04363 0
M  V30 5283 N 504.032 -0.577932 -1.46621 0
M  V30 5284 C 505.443 -0.150071 -1.86096 0
M  V30 5285 C 505.794 1.28563 -1.48209 0
M  V30 5286 O 504.919 1.97036 -0.894754 0
M  V30 5287 C 505.514 -0.265576 -3.37758 0
M  V30 5288 C 504.073 0.10738 -3.76247 0
M  V30 5289 C 503.22 -0.603711 -2.70649 0
M  V30 5290 H 506.171 -0.786438 -1.37844 0
M  V30 5291 H 506.192 0.510352 -3.77062 0
M  V30 5292 H 505.704 -1.3106 -3.65301 0
M  V30 5293 H 503.805 1.15272 -3.54321 0
M  V30 5294 H 503.918 -0.26561 -4.78363 0
M  V30 5295 H 502.282 -0.0444884 -2.54661 0
M  V30 5296 H 503.065 -1.65029 -3.01032 0
M  V30 5297 N 505.51 1.54411 -0.315457 0
M  V30 5298 C 506.921 1.85885 0.174265 0
M  V30 5299 C 507.272 1.23723 1.52273 0
M  V30 5300 O 506.397 0.540246 2.09548 0
M  V30 5301 C 506.992 3.37257 0.322981 0
M  V30 5302 C 505.551 3.68711 0.756922 0
M  V30 5303 C 504.698 2.77013 -0.126195 0
M  V30 5304 H 507.649 1.49374 -0.536007 0
M  V30 5305 H 507.67 3.62539 1.15522 0
M  V30 5306 H 507.182 3.82471 -0.658602 0
M  V30 5307 H 505.283 3.29024 1.74854 0
M  V30 5308 H 505.396 4.75741 0.566291 0
M  V30 5309 H 503.76 2.51588 0.39692 0
M  V30 5310 H 504.543 3.25051 -1.1044 0
M  V30 5311 N 506.988 0.0434614 1.5754 0
M  V30 5312 C 508.213 -0.645358 1.97104 0
M  V30 5313 C 508.638 -1.64037 0.920521 0
M  V30 5314 O 507.996 -1.80922 -0.11708 0
M  V30 5315 C 508.044 -1.31547 3.35749 0
M  V30 5316 O 507.148 -2.43103 3.33129 0
M  V30 5317 H 506.489 -0.168403 0.64229 0
M  V30 5318 H 509.019 0.109573 2.04306 0
M  V30 5319 H 509.029 -1.66895 3.72304 0
M  V30 5320 H 507.704 -0.586205 4.11748 0
M  V30 5321 H 506.281 -2.0976 3.0831 0
M  V30 5322 N 508.466 -1.55915 -0.229846 0
M  V30 5323 C 509.396 -1.94754 -1.28815 0
M  V30 5324 C 510.377 -0.814657 -1.49323 0
M  V30 5325 O 511.562 -1.07631 -1.61645 0
M  V30 5326 C 508.692 -2.25705 -2.63959 0
M  V30 5327 C 507.646 -3.41406 -2.5812 0
M  V30 5328 C 506.972 -3.57941 -3.97218 0
M  V30 5329 C 508.272 -4.76616 -2.13623 0
M  V30 5330 H 509.966 -2.83404 -0.965547 0
M  V30 5331 H 507.512 -1.36353 -0.463028 0
M  V30 5332 H 509.465 -2.51467 -3.38146 0
M  V30 5333 H 508.189 -1.339 -2.9789 0
M  V30 5334 H 506.848 -3.1568 -1.86391 0
M  V30 5335 H 506.496 -2.63526 -4.28443 0
M  V30 5336 H 506.196 -4.35757 -3.94195 0
M  V30 5337 H 507.72 -3.86042 -4.73079 0
M  V30 5338 H 509.134 -5.01637 -2.77549 0
M  V30 5339 H 507.531 -5.57655 -2.21677 0
M  V30 5340 H 508.601 -4.7253 -1.08829 0
M  V30 5341 N 509.944 0.496216 -1.49584 0
M  V30 5342 C 510.892 1.61805 -1.67098 0
M  V30 5343 C 511.886 1.60667 -0.536877 0
M  V30 5344 O 513.092 1.65118 -0.716654 0
M  V30 5345 H 509.467 0.53646 -0.526986 0
M  V30 5346 H 511.438 1.44187 -2.61252 0
M  V30 5347 C 510.187 2.99912 -1.75921 0
M  V30 5348 H 509.51 3.01496 -2.62565 0
M  V30 5349 H 510.95 3.77931 -1.92209 0
M  V30 5350 C 509.409 3.33092 -0.505088 0
M  V30 5351 O 509.939 4.00019 0.367085 0
M  V30 5352 N 508.145 2.88278 -0.366599 0
M  V30 5353 H 507.692 2.33989 -1.07735 0
M  V30 5354 H 507.65 3.10846 0.47142 0
M  V30 5355 N 511.423 1.38739 0.74761 0
M  V30 5356 C 512.669 1.35475 1.50912 0
M  V30 5357 C 513.002 -0.0533093 1.94127 0
M  V30 5358 O 512.277 -1.01572 1.65871 0
M  V30 5359 C 512.56 2.31582 2.75757 0
M  V30 5360 C 512.413 3.81274 2.38642 0
M  V30 5361 C 513.732 2.25722 3.77806 0
M  V30 5362 H 510.851 0.493427 0.547447 0
M  V30 5363 H 513.493 1.69634 0.855823 0
M  V30 5364 H 511.643 2.02582 3.31501 0
M  V30 5365 H 513.315 4.20972 1.88626 0
M  V30 5366 H 511.558 3.98664 1.71025 0
M  V30 5367 H 512.229 4.4399 3.27989 0
M  V30 5368 H 514.705 2.51336 3.31616 0
M  V30 5369 H 513.581 2.95069 4.62845 0
M  V30 5370 H 513.842 1.25803 4.23823 0
M  V30 5371 N 512.901 -0.976442 1.23707 0
M  V30 5372 C 514.129 -1.75341 1.09833 0
M  V30 5373 C 514.544 -1.8553 -0.349885 0
M  V30 5374 O 513.901 -1.33732 -1.24185 0
M  V30 5375 C 513.952 -3.17833 1.72233 0
M  V30 5376 O 513.673 -3.08167 3.11391 0
M  V30 5377 C 515.174 -4.11906 1.63853 0
M  V30 5378 H 512.394 -0.550137 0.384175 0
M  V30 5379 H 514.938 -1.2265 1.63638 0
M  V30 5380 H 513.093 -3.67538 1.22452 0
M  V30 5381 H 513.507 -3.97897 3.41729 0
M  V30 5382 H 514.981 -5.09579 2.12211 0
M  V30 5383 H 515.458 -4.35109 0.598092 0
M  V30 5384 H 516.064 -3.68107 2.13019 0
M  V30 5385 N 514.379 -1.04941 -1.1758 0
M  V30 5386 C 515.326 -0.648155 -2.21512 0
M  V30 5387 C 516.296 0.348431 -1.62404 0
M  V30 5388 O 517.481 0.240419 -1.89279 0
M  V30 5389 C 514.621 -0.0264291 -3.4509 0
M  V30 5390 C 513.734 -1.07154 -4.185 0
M  V30 5391 C 512.869 -0.417403 -5.29558 0
M  V30 5392 C 511.908 -1.447 -5.94751 0
M  V30 5393 N 511.045 -0.817203 -6.97328 0
M  V30 5394 H 515.885 -1.53891 -2.55189 0
M  V30 5395 H 513.422 -0.769699 -1.25356 0
M  V30 5396 H 515.38 0.351456 -4.15717 0
M  V30 5397 H 514.01 0.827802 -3.12005 0
M  V30 5398 H 513.062 -1.56728 -3.46613 0
M  V30 5399 H 514.374 -1.8532 -4.63096 0
M  V30 5400 H 513.528 0.0142061 -6.06698 0
M  V30 5401 H 512.267 0.396265 -4.86087 0
M  V30 5402 H 511.272 -1.88865 -5.16343 0
M  V30 5403 H 512.497 -2.26252 -6.40302 0
M  V30 5404 H 510.443 -0.0239995 -6.55996 0
M  V30 5405 H 510.36 -1.53644 -7.40223 0
M  V30 5406 H 511.628 -0.410283 -7.7842 0
M  V30 5407 N 515.857 1.33968 -0.830081 0
M  V30 5408 C 517.134 1.92554 -0.343858 0
M  V30 5409 C 517.514 1.7573 1.16971 0
M  V30 5410 O 516.862 1.14035 1.98011 0
M  V30 5411 C 517.072 3.40147 -0.781073 0
M  V30 5412 C 518.42 4.17299 -0.78402 0
M  V30 5413 O 519.444 3.48762 -0.724112 0
M  V30 5414 O 518.303 5.39631 -0.863739 0
M  V30 5415 H 515.397 0.821469 -0.0954827 0
M  V30 5416 H 517.943 1.42897 -0.915348 0
M  V30 5417 H 516.715 3.46225 -1.82329 0
M  V30 5418 H 516.338 3.97166 -0.18567 0
M  V30 5419 N 517.335 0.585699 1.46312 0
M  V30 5420 C 518.583 0.072278 2.01971 0
M  V30 5421 C 518.904 -1.29345 1.45928 0
M  V30 5422 O 518.174 -1.84973 0.645109 0
M  V30 5423 H 516.754 0.023729 0.746623 0
M  V30 5424 H 519.416 0.762155 1.7938 0
M  V30 5425 H 518.512 0.00552767 3.121 0
M  V30 5426 N 518.813 -1.54241 0.323641 0
M  V30 5427 C 520.09 -1.92741 -0.333181 0
M  V30 5428 C 520.47 -1.25326 -1.69872 0
M  V30 5429 O 519.818 -0.396991 -2.25025 0
M  V30 5430 C 520.028 -3.46399 -0.425322 0
M  V30 5431 C 521.376 -4.19029 -0.68557 0
M  V30 5432 O 522.4 -3.52555 -0.50824 0
M  V30 5433 O 521.259 -5.36751 -1.02767 0
M  V30 5434 H 518.353 -0.804811 -0.190286 0
M  V30 5435 H 520.899 -1.65542 0.373361 0
M  V30 5436 H 519.671 -3.87643 0.533737 0
M  V30 5437 H 519.294 -3.79704 -1.17944 0
M  V30 5438 N 520.291 -0.0518155 -1.57515 0
M  V30 5439 C 521.516 0.634896 -1.97443 0
M  V30 5440 C 521.941 1.63546 -0.929207 0
M  V30 5441 O 521.299 1.80981 0.107484 0
M  V30 5442 C 521.347 1.29765 -3.36442 0
M  V30 5443 O 520.451 2.41333 -3.34413 0
M  V30 5444 H 519.792 0.164994 -0.643174 0
M  V30 5445 H 522.322 -0.120407 -2.04245 0
M  V30 5446 H 522.332 1.64918 -3.73184 0
M  V30 5447 H 521.007 0.564361 -4.12053 0
M  V30 5448 H 519.584 2.08122 -3.09418 0
M  V30 5449 N 521.769 1.56035 0.221574 0
M  V30 5450 C 522.999 1.82864 0.961468 0
M  V30 5451 C 523.407 0.628703 1.78449 0
M  V30 5452 O 522.75 -0.412109 1.79018 0
M  V30 5453 C 522.812 3.03425 1.92804 0
M  V30 5454 C 522.476 4.38429 1.28954 0
M  V30 5455 C 523.473 5.15441 0.679431 0
M  V30 5456 C 521.158 4.85151 1.30131 0
M  V30 5457 C 523.152 6.37337 0.0896148 0
M  V30 5458 C 520.839 6.06989 0.707651 0
M  V30 5459 C 521.837 6.82923 0.102855 0
M  V30 5460 O 521.525 8.02456 -0.48157 0
M  V30 5461 H 521.257 0.611883 0.28736 0
M  V30 5462 H 523.811 2.0397 0.241932 0
M  V30 5463 H 522.041 2.78138 2.68656 0
M  V30 5464 H 523.73 3.17127 2.53348 0
M  V30 5465 H 524.496 4.80452 0.662661 0
M  V30 5466 H 520.375 4.26021 1.76145 0
M  V30 5467 H 523.919 6.96547 -0.383069 0
M  V30 5468 H 519.816 6.41451 0.721834 0
M  V30 5469 H 520.584 8.17636 -0.375887 0
M  V30 5470 N 523.247 -0.488276 1.49845 0
M  V30 5471 C 524.472 -1.26997 1.63971 0
M  V30 5472 C 524.897 -1.85427 0.315994 0
M  V30 5473 O 524.255 -1.66475 -0.718032 0
M  V30 5474 C 524.303 -2.36689 2.72049 0
M  V30 5475 O 523.407 -3.40882 2.32107 0
M  V30 5476 H 522.748 -0.374376 0.548396 0
M  V30 5477 H 525.278 -0.583104 1.96115 0
M  V30 5478 H 525.288 -2.82262 2.94605 0
M  V30 5479 H 523.963 -1.93529 3.68129 0
M  V30 5480 H 522.54 -3.01139 2.19931 0
M  V30 5481 N 524.725 -1.39134 -0.740242 0
M  V30 5482 C 525.655 -1.40165 -1.86751 0
M  V30 5483 C 526.636 -0.265708 -1.68012 0
M  V30 5484 O 527.821 -0.47076 -1.88408 0
M  V30 5485 C 524.951 -1.2392 -3.2444 0
M  V30 5486 C 523.905 -2.34858 -3.57807 0
M  V30 5487 C 523.231 -2.03707 -4.94376 0
M  V30 5488 C 524.531 -3.77159 -3.61315 0
M  V30 5489 H 526.225 -2.345 -1.86145 0
M  V30 5490 H 523.771 -1.12875 -0.89416 0
M  V30 5491 H 525.724 -1.23263 -4.02969 0
M  V30 5492 H 524.448 -0.26051 -3.25559 0
M  V30 5493 H 523.107 -2.34723 -2.81604 0
M  V30 5494 H 522.755 -1.04289 -4.9207 0
M  V30 5495 H 522.455 -2.78016 -5.17669 0
M  V30 5496 H 523.979 -2.04691 -5.75268 0
M  V30 5497 H 525.393 -3.79252 -4.29931 0
M  V30 5498 H 523.79 -4.50784 -3.96124 0
M  V30 5499 H 524.86 -4.08513 -2.61238 0
M  V30 5500 N 526.204 0.969867 -1.24223 0
M  V30 5501 C 527.62 1.23809 -1.00716 0
M  V30 5502 C 527.82 1.99469 0.285358 0
M  V30 5503 O 526.876 2.31764 1.00207 0
M  V30 5504 C 528.189 2.02734 -2.2208 0
M  V30 5505 C 529.737 2.15834 -2.26681 0
M  V30 5506 C 530.212 2.98154 -3.47661 0
M  V30 5507 N 531.703 3.05737 -3.47964 0
M  V30 5508 C 532.438 3.69785 -4.38231 0
M  V30 5509 N 531.934 4.35569 -5.3875 0
M  V30 5510 N 533.727 3.66775 -4.25949 0
M  V30 5511 H 525.878 0.463294 -2.07286 0
M  V30 5512 H 528.141 0.267348 -0.909521 0
M  V30 5513 H 527.847 1.54524 -3.15935 0
M  V30 5514 H 527.721 3.0347 -2.24021 0
M  V30 5515 H 530.108 2.63248 -1.33359 0
M  V30 5516 H 530.189 1.14453 -2.28767 0
M  V30 5517 H 529.833 2.51435 -4.41297 0
M  V30 5518 H 529.763 3.99729 -3.42818 0
M  V30 5519 H 532.254 2.58941 -2.75242 0
M  V30 5520 H 532.567 4.82251 -6.03866 0
M  V30 5521 H 530.912 4.34244 -5.42639 0
M  V30 5522 H 534.103 3.14558 -3.46657 0
M  V30 5523 H 534.276 4.16407 -4.96497 0
M  V30 5524 N 527.682 1.05563 1.17022 0
M  V30 5525 C 528.928 0.778872 1.87897 0
M  V30 5526 C 529.283 -0.686839 1.79723 0
M  V30 5527 O 528.576 -1.49612 1.19694 0
M  V30 5528 C 528.77 1.19849 3.36706 0
M  V30 5529 C 528.599 2.70345 3.59366 0
M  V30 5530 C 527.369 3.37707 3.75875 0
M  V30 5531 C 529.567 3.68564 3.58699 0
M  V30 5532 N 527.549 4.7703 3.86414 0
M  V30 5533 C 528.92 4.93634 3.75134 0
M  V30 5534 C 530.975 3.6198 3.4187 0
M  V30 5535 C 529.678 6.12907 3.76481 0
M  V30 5536 C 531.704 4.80697 3.44507 0
M  V30 5537 C 531.066 6.04592 3.61453 0
M  V30 5538 H 527.165 0.337297 0.705517 0
M  V30 5539 H 529.749 1.34832 1.40458 0
M  V30 5540 H 527.92 0.656958 3.82804 0
M  V30 5541 H 529.652 0.871172 3.95212 0
M  V30 5542 H 526.407 2.88108 3.75887 0
M  V30 5543 H 526.831 5.49483 3.95471 0
M  V30 5544 H 531.473 2.67154 3.27702 0
M  V30 5545 H 529.191 7.08073 3.89432 0
M  V30 5546 H 532.777 4.77259 3.32738 0
M  V30 5547 H 531.657 6.94916 3.63403 0
M  V30 5548 N 529.16 -1.33526 0.837174 0
M  V30 5549 C 530.07 -2.33023 0.271568 0
M  V30 5550 C 531.086 -1.63272 -0.601514 0
M  V30 5551 O 532.262 -1.94939 -0.506038 0
M  V30 5552 C 529.327 -3.42382 -0.545448 0
M  V30 5553 C 528.388 -4.27857 0.351709 0
M  V30 5554 C 527.621 -5.31994 -0.426409 0
M  V30 5555 O 527.844 -5.45763 -1.65828 0
M  V30 5556 O 526.778 -6.01572 0.1987 0
M  V30 5557 H 530.604 -2.83256 1.09545 0
M  V30 5558 H 528.189 -1.36837 0.599655 0
M  V30 5559 H 530.071 -4.09122 -1.00979 0
M  V30 5560 H 528.746 -2.94369 -1.34641 0
M  V30 5561 H 527.653 -3.6399 0.863853 0
M  V30 5562 H 528.986 -4.79349 1.1174 0
M  V30 5563 N 530.638 -0.59345 -1.46 0
M  V30 5564 C 531.866 -0.0890934 -2.06708 0
M  V30 5565 C 532.281 1.2205 -1.44046 0
M  V30 5566 O 531.638 1.74029 -0.549551 0
M  V30 5567 C 531.689 0.0720263 -3.61428 0
M  V30 5568 O 531.41 -1.18574 -4.21748 0
M  V30 5569 C 532.911 0.609487 -4.3909 0
M  V30 5570 H 530.131 -0.0623628 -0.668096 0
M  V30 5571 H 532.675 -0.817171 -1.87464 0
M  V30 5572 H 530.83 0.750369 -3.80063 0
M  V30 5573 H 531.244 -1.0064 -5.14754 0
M  V30 5574 H 532.718 0.671363 -5.47902 0
M  V30 5575 H 533.195 1.62878 -4.07882 0
M  V30 5576 H 533.801 -0.03434 -4.25286 0
M  V30 5577 N 532.116 1.54067 -0.331816 0
M  V30 5578 C 533.049 2.20886 0.573127 0
M  V30 5579 C 534.027 1.18876 1.10938 0
M  V30 5580 O 535.211 1.47649 1.17184 0
M  V30 5581 C 532.338 2.87706 1.78726 0
M  V30 5582 C 531.384 4.03505 1.38152 0
M  V30 5583 S 532.217 5.33919 0.41123 0
M  V30 5584 C 533.373 6.04236 1.63246 0
M  V30 5585 H 533.606 2.97299 0.00555737 0
M  V30 5586 H 531.139 1.53964 -0.115893 0
M  V30 5587 H 533.097 3.26825 2.48386 0
M  V30 5588 H 531.758 2.1108 2.32603 0
M  V30 5589 H 530.951 4.49152 2.28645 0
M  V30 5590 H 530.553 3.66102 0.764524 0
M  V30 5591 H 532.845 6.26917 2.56869 0
M  V30 5592 H 533.788 6.97546 1.218 0
M  V30 5593 H 534.196 5.34247 1.82318 0
M  V30 5594 N 533.594 0.0601682 1.57485 0
M  V30 5595 C 534.541 -0.91112 2.12055 0
M  V30 5596 C 535.511 -1.30298 1.03013 0
M  V30 5597 O 536.696 -1.39087 1.30612 0
M  V30 5598 C 533.836 -2.1775 2.67729 0
M  V30 5599 C 532.949 -1.83933 3.90887 0
M  V30 5600 C 532.084 -3.05096 4.34845 0
M  V30 5601 C 531.123 -2.67241 5.5068 0
M  V30 5602 N 530.26 -3.81127 5.8965 0
M  V30 5603 H 535.1 -0.43888 2.9475 0
M  V30 5604 H 532.637 -0.204995 1.45665 0
M  V30 5605 H 534.595 -2.91866 2.98111 0
M  V30 5606 H 533.225 -2.62535 1.87816 0
M  V30 5607 H 532.277 -0.999287 3.6704 0
M  V30 5608 H 533.589 -1.52074 4.75052 0
M  V30 5609 H 532.743 -3.87502 4.66827 0
M  V30 5610 H 531.482 -3.40139 3.49509 0
M  V30 5611 H 530.487 -1.83254 5.18361 0
M  V30 5612 H 531.712 -2.3338 6.37738 0
M  V30 5613 H 529.658 -4.15954 5.07266 0
M  V30 5614 H 529.575 -3.52997 6.68528 0
M  V30 5615 H 530.843 -4.64145 6.2625 0
M  V30 5616 N 535.072 -1.5615 -0.213296 0
M  V30 5617 C 536.005 -1.88115 -1.29182 0
M  V30 5618 C 536.983 -0.739348 -1.44819 0
M  V30 5619 O 538.167 -0.988541 -1.605 0
M  V30 5620 C 535.294 -2.09541 -2.66102 0
M  V30 5621 C 534.34 -3.32236 -2.67436 0
M  V30 5622 S 535.173 -4.87915 -2.20679 0
M  V30 5623 C 536.329 -5.12387 -3.59458 0
M  V30 5624 H 536.562 -2.793 -1.01876 0
M  V30 5625 H 534.095 -1.48692 -0.415934 0
M  V30 5626 H 536.053 -2.22568 -3.44925 0
M  V30 5627 H 534.714 -1.19138 -2.90628 0
M  V30 5628 H 533.907 -3.44297 -3.6807 0
M  V30 5629 H 533.509 -3.18108 -1.96681 0
M  V30 5630 H 535.801 -5.01791 -4.55205 0
M  V30 5631 H 536.744 -6.14236 -3.52306 0
M  V30 5632 H 537.152 -4.40089 -3.53528 0
M  V30 5633 N 536.55 0.480323 -1.50102 0
M  V30 5634 C 537.966 0.813295 -1.37323 0
M  V30 5635 C 538.166 1.97027 -0.422206 0
M  V30 5636 O 537.222 2.5212 0.138563 0
M  V30 5637 C 538.535 1.13404 -2.78496 0
M  V30 5638 C 540.083 1.24104 -2.87345 0
M  V30 5639 C 540.558 1.59497 -4.29331 0
M  V30 5640 N 542.049 1.66507 -4.32238 0
M  V30 5641 C 542.784 1.95378 -5.39087 0
M  V30 5642 N 542.28 2.22333 -6.56155 0
M  V30 5643 N 544.073 1.96803 -5.26522 0
M  V30 5644 H 536.224 -0.282291 -2.10516 0
M  V30 5645 H 538.487 -0.063752 -0.945854 0
M  V30 5646 H 538.193 0.357064 -3.49883 0
M  V30 5647 H 538.067 2.07251 -3.15162 0
M  V30 5648 H 540.454 2.00871 -2.16183 0
M  V30 5649 H 540.535 0.282593 -2.54234 0
M  V30 5650 H 540.179 0.832736 -5.01027 0
M  V30 5651 H 540.109 2.56477 -4.59921 0
M  V30 5652 H 542.6 1.47753 -3.47818 0
M  V30 5653 H 542.913 2.43611 -7.33399 0
M  V30 5654 H 541.258 2.19745 -6.59346 0
M  V30 5655 H 544.449 1.75235 -4.34062 0
M  V30 5656 H 544.622 2.18969 -6.09883 0
M  V30 5657 N 538.028 1.39524 0.732853 0
M  V30 5658 C 539.258 1.3994 1.51988 0
M  V30 5659 C 539.666 -0.00727973 1.89199 0
M  V30 5660 O 539.009 -0.989521 1.54771 0
M  V30 5661 C 539.071 2.21026 2.83527 0
M  V30 5662 C 538.735 3.69633 2.68738 0
M  V30 5663 C 539.732 4.62665 2.37143 0
M  V30 5664 C 537.417 4.13244 2.85542 0
M  V30 5665 C 539.411 5.97291 2.22536 0
M  V30 5666 C 537.098 5.47945 2.70554 0
M  V30 5667 C 538.096 6.39783 2.39097 0
M  V30 5668 O 537.784 7.72002 2.24204 0
M  V30 5669 H 537.516 0.479795 0.476206 0
M  V30 5670 H 540.07 1.8399 0.913054 0
M  V30 5671 H 538.3 1.71728 3.46477 0
M  V30 5672 H 539.989 2.13594 3.45156 0
M  V30 5673 H 540.755 4.30272 2.2381 0
M  V30 5674 H 536.634 3.42094 3.09019 0
M  V30 5675 H 540.178 6.68939 1.97905 0
M  V30 5676 H 536.075 5.79928 2.83466 0
M  V30 5677 H 536.843 7.8275 2.39258 0
M  V30 5678 N 539.506 -0.963266 1.24736 0
M  V30 5679 C 540.416 -2.09246 1.06082 0
M  V30 5680 C 541.432 -1.74 0.000363101 0
M  V30 5681 O 542.608 -2.0041 0.199479 0
M  V30 5682 C 539.673 -3.40115 0.672498 0
M  V30 5683 C 538.734 -3.89282 1.80993 0
M  V30 5684 C 537.967 -5.13905 1.44004 0
M  V30 5685 O 538.19 -5.69434 0.331835 0
M  V30 5686 O 537.124 -5.57566 2.26723 0
M  V30 5687 H 540.95 -2.27881 2.00759 0
M  V30 5688 H 538.535 -1.07649 1.03595 0
M  V30 5689 H 540.417 -4.18797 0.467668 0
M  V30 5690 H 539.092 -3.22771 -0.245102 0
M  V30 5691 H 537.999 -3.11642 2.06955 0
M  V30 5692 H 539.332 -4.1111 2.70646 0
M  V30 5693 N 540.985 -1.06182 -1.16461 0
M  V30 5694 C 541.935 -0.641619 -2.18786 0
M  V30 5695 C 542.919 0.327122 -1.5754 0
M  V30 5696 O 544.111 0.142746 -1.76423 0
M  V30 5697 C 541.24 -0.0283734 -3.43288 0
M  V30 5698 C 540.326 -1.02154 -4.11613 0
M  V30 5699 N 540.717 -2.19671 -4.55608 0
M  V30 5700 C 539.015 -0.852229 -4.37782 0
M  V30 5701 C 539.716 -2.82583 -5.0845 0
M  V30 5702 N 538.692 -2.10318 -5.01266 0
M  V30 5703 H 542.494 -1.53684 -2.50516 0
M  V30 5704 H 540.008 -0.933349 -1.329 0
M  V30 5705 H 542.005 0.29049 -4.15887 0
M  V30 5706 H 540.665 0.862118 -3.13046 0
M  V30 5707 H 541.676 -2.57453 -4.49375 0
M  V30 5708 H 538.353 -0.0136314 -4.17498 0
M  V30 5709 H 539.743 -3.82298 -5.52538 0
M  V30 5710 N 542.463 1.3308 -0.844243 0
M  V30 5711 C 543.712 1.96868 -0.438833 0
M  V30 5712 C 544.025 1.67599 1.00846 0
M  V30 5713 O 545.231 2.25043 1.51881 0
M  V30 5714 C 543.687 3.5234 -0.73377 0
M  V30 5715 C 543.295 3.90481 -2.1961 0
M  V30 5716 C 545.039 4.22653 -0.395574 0
M  V30 5717 C 542.946 5.38954 -2.43481 0
M  V30 5718 H 541.876 0.736749 -0.160364 0
M  V30 5719 H 544.527 1.51623 -1.03358 0
M  V30 5720 H 542.909 3.95941 -0.068589 0
M  V30 5721 H 544.083 3.57922 -2.90221 0
M  V30 5722 H 542.398 3.33165 -2.4978 0
M  V30 5723 H 544.995 5.31848 -0.551477 0
M  V30 5724 H 545.338 4.11004 0.661921 0
M  V30 5725 H 545.871 3.84601 -1.01621 0
M  V30 5726 H 542.61 5.55612 -3.47816 0
M  V30 5727 H 542.13 5.72954 -1.77437 0
M  V30 5728 H 543.809 6.05907 -2.26905 0
M  V30 5729 N 543.941 0.601185 1.45683 0
M  V30 5730 C 545.218 0.0261659 1.95582 0
M  V30 5731 C 545.598 -1.4399 1.5437 0
M  V30 5732 O 544.946 -2.13919 0.80318 0
M  V30 5733 C 545.156 0.217557 3.48321 0
M  V30 5734 C 546.504 0.0950076 4.24494 0
M  V30 5735 O 547.528 0.147345 3.55895 0
M  V30 5736 O 546.387 -0.025261 5.46494 0
M  V30 5737 H 543.481 -0.0393688 0.826062 0
M  V30 5738 H 546.027 0.670798 1.55879 0
M  V30 5739 H 544.799 1.23601 3.71266 0
M  V30 5740 H 544.422 -0.46264 3.94899 0
M  V30 5741 N 545.419 -1.53889 0.339982 0
M  V30 5742 C 546.369 -2.2165 -0.534354 0
M  V30 5743 C 547.353 -1.20266 -1.06887 0
M  V30 5744 O 548.545 -1.45827 -1.00316 0
M  V30 5745 C 545.674 -2.99014 -1.68659 0
M  V30 5746 C 544.76 -4.07751 -1.16618 0
M  V30 5747 N 545.151 -5.04469 -0.366717 0
M  V30 5748 C 543.449 -4.21998 -1.4434 0
M  V30 5749 C 544.15 -5.81638 -0.0847275 0
M  V30 5750 N 543.126 -5.39388 -0.675391 0
M  V30 5751 H 546.928 -2.93781 0.0835562 0
M  V30 5752 H 544.442 -1.61736 0.146665 0
M  V30 5753 H 546.439 -3.46056 -2.32489 0
M  V30 5754 H 545.099 -2.28408 -2.30781 0
M  V30 5755 H 546.11 -5.17899 -0.00811038 0
M  V30 5756 H 542.787 -3.62612 -2.06928 0
M  V30 5757 H 544.177 -6.69563 0.559943 0
M  V30 5758 N 546.897 -0.0685191 -1.57451 0
M  V30 5759 C 548.125 0.610462 -1.97689 0
M  V30 5760 C 548.54 1.63346 -0.946758 0
M  V30 5761 O 547.897 1.82377 0.0669868 0
M  V30 5762 C 547.948 1.28196 -3.38006 0
M  V30 5763 O 547.669 0.299906 -4.37072 0
M  V30 5764 C 549.17 2.04907 -3.931 0
M  V30 5765 H 546.39 0.165689 -0.650222 0
M  V30 5766 H 548.934 -0.139953 -2.04021 0
M  V30 5767 H 547.089 1.98348 -3.32771 0
M  V30 5768 H 547.503 0.78126 -5.18649 0
M  V30 5769 H 548.977 2.47287 -4.93511 0
M  V30 5770 H 549.454 2.9043 -3.29465 0
M  V30 5771 H 550.06 1.39629 -4.01726 0
M  V30 5772 N 548.375 1.56261 0.205012 0
M  V30 5773 C 549.622 1.8004 0.926927 0
M  V30 5774 C 549.95 0.640086 1.83666 0
M  V30 5775 O 549.205 -0.374702 1.92079 0
M  V30 5776 C 549.504 3.09722 1.78345 0
M  V30 5777 C 549.17 4.39082 1.02555 0
M  V30 5778 C 547.832 4.74226 0.816256 0
M  V30 5779 C 550.184 5.18877 0.491559 0
M  V30 5780 C 547.512 5.86668 0.0613287 0
M  V30 5781 C 549.864 6.32105 -0.250107 0
M  V30 5782 C 548.528 6.6584 -0.470508 0
M  V30 5783 H 547.798 0.658812 0.339187 0
M  V30 5784 H 550.445 1.90515 0.19395 0
M  V30 5785 H 548.75 2.9444 2.5848 0
M  V30 5786 H 550.447 3.25324 2.34446 0
M  V30 5787 H 547.037 4.11497 1.19868 0
M  V30 5788 H 551.221 4.92147 0.640684 0
M  V30 5789 H 546.477 6.11283 -0.119501 0
M  V30 5790 H 550.651 6.93157 -0.671307 0
M  V30 5791 H 548.278 7.5281 -1.05739 0
M  V30 5792 N 549.853 -0.472356 1.50355 0
M  V30 5793 C 550.763 -1.59637 1.7191 0
M  V30 5794 C 551.779 -1.63247 0.602195 0
M  V30 5795 O 552.955 -1.81139 0.880369 0
M  V30 5796 C 550.02 -2.9586 1.80742 0
M  V30 5797 C 549.081 -3.02649 3.04471 0
M  V30 5798 C 548.314 -4.32374 3.12872 0
M  V30 5799 O 548.537 -5.22807 2.28099 0
M  V30 5800 O 547.471 -4.44728 4.05587 0
M  V30 5801 H 551.297 -1.44373 2.67189 0
M  V30 5802 H 548.882 -0.651717 1.34436 0
M  V30 5803 H 550.764 -3.7677 1.88739 0
M  V30 5804 H 549.439 -3.11325 0.88647 0
M  V30 5805 H 548.346 -2.20821 3.01975 0
M  V30 5806 H 549.679 -2.92119 3.9614 0
M  V30 5807 N 551.331 -1.39911 -0.725443 0
M  V30 5808 C 552.58 -1.36963 -1.48068 0
M  V30 5809 C 552.893 0.0284478 -1.95579 0
M  V30 5810 O 554.099 0.180535 -2.70899 0
M  V30 5811 C 552.555 -2.40664 -2.67598 0
M  V30 5812 C 552.163 -3.86234 -2.26997 0
M  V30 5813 C 553.907 -2.46807 -3.45379 0
M  V30 5814 C 551.814 -4.81554 -3.43307 0
M  V30 5815 H 550.744 -0.509223 -0.556065 0
M  V30 5816 H 553.395 -1.65602 -0.790454 0
M  V30 5817 H 551.777 -2.05109 -3.38742 0
M  V30 5818 H 552.951 -4.3088 -1.63337 0
M  V30 5819 H 551.266 -3.83475 -1.62284 0
M  V30 5820 H 553.863 -3.15213 -4.31909 0
M  V30 5821 H 554.206 -1.49552 -3.8851 0
M  V30 5822 H 554.739 -2.81303 -2.81271 0
M  V30 5823 H 551.478 -5.80106 -3.05217 0
M  V30 5824 H 550.998 -4.4158 -4.05915 0
M  V30 5825 H 552.677 -5.0091 -4.0951 0
M  V30 5826 N 552.809 0.956637 -1.25245 0
M  V30 5827 C 553.741 2.05628 -1.01242 0
M  V30 5828 C 554.754 1.62785 0.0219579 0
M  V30 5829 O 555.943 1.77184 -0.216365 0
M  V30 5830 C 553.043 3.35069 -0.508161 0
M  V30 5831 C 552.216 4.06761 -1.60823 0
M  V30 5832 C 551.275 5.14473 -1.1047 0
M  V30 5833 O 550.301 5.40033 -1.79868 0
M  V30 5834 N 551.503 5.80474 0.0550773 0
M  V30 5835 H 554.268 2.2679 -1.95925 0
M  V30 5836 H 551.829 1.12505 -1.16423 0
M  V30 5837 H 553.821 4.044 -0.155819 0
M  V30 5838 H 552.391 3.10694 0.344683 0
M  V30 5839 H 551.611 3.31555 -2.13224 0
M  V30 5840 H 552.899 4.51418 -2.34733 0
M  V30 5841 H 552.297 5.62125 0.635004 0
M  V30 5842 H 550.854 6.50868 0.348469 0
M  V30 5843 N 554.287 1.06798 1.15896 0
M  V30 5844 C 555.517 0.807522 1.90165 0
M  V30 5845 C 555.925 -0.642417 1.7796 0
M  V30 5846 O 555.268 -1.45193 1.12537 0
M  V30 5847 C 555.33 1.12939 3.41299 0
M  V30 5848 C 554.994 2.57879 3.7729 0
M  V30 5849 C 555.991 3.56118 3.78782 0
M  V30 5850 C 553.676 2.93311 4.07767 0
M  V30 5851 C 555.67 4.87827 4.10248 0
M  V30 5852 C 553.357 4.25219 4.38899 0
M  V30 5853 C 554.355 5.22287 4.4012 0
M  V30 5854 O 554.043 6.51826 4.70508 0
M  V30 5855 H 553.775 0.291946 0.609708 0
M  V30 5856 H 556.329 1.42627 1.47806 0
M  V30 5857 H 554.559 0.45359 3.84031 0
M  V30 5858 H 556.248 0.852363 3.9685 0
M  V30 5859 H 557.014 3.30086 3.55342 0
M  V30 5860 H 552.893 2.18409 4.05979 0
M  V30 5861 H 556.437 5.63586 4.11116 0
M  V30 5862 H 552.334 4.51006 4.61805 0
M  V30 5863 H 553.102 6.56893 4.88298 0
M  V30 5864 N 555.766 -1.3263 0.851289 0
M  V30 5865 C 557.182 -1.50162 0.5407 0
M  V30 5866 C 557.382 -1.78788 -0.929369 0
M  V30 5867 O 556.438 -1.85545 -1.71258 0
M  V30 5868 C 557.751 -2.64803 1.42478 0
M  V30 5869 C 559.299 -2.78688 1.42485 0
M  V30 5870 C 559.774 -3.96405 2.29407 0
M  V30 5871 N 561.265 -4.0366 2.27184 0
M  V30 5872 C 562 -4.93971 2.9117 0
M  V30 5873 N 561.496 -5.89313 3.64256 0
M  V30 5874 N 563.289 -4.87066 2.80576 0
M  V30 5875 H 555.44 -1.12315 1.80275 0
M  V30 5876 H 557.703 -0.553266 0.769806 0
M  V30 5877 H 557.409 -2.50368 2.46999 0
M  V30 5878 H 557.283 -3.60506 1.10974 0
M  V30 5879 H 559.67 -2.92547 0.387304 0
M  V30 5880 H 559.751 -1.83708 1.78002 0
M  V30 5881 H 559.395 -3.83304 3.33228 0
M  V30 5882 H 559.325 -4.90654 1.91224 0
M  V30 5883 H 561.816 -3.35435 1.74045 0
M  V30 5884 H 562.129 -6.54913 4.10255 0
M  V30 5885 H 560.474 -5.8935 3.68364 0
M  V30 5886 H 563.665 -4.11552 2.23031 0
M  V30 5887 H 563.838 -5.57248 3.30725 0
M  V30 5888 N 557.244 -0.608902 -1.45362 0
M  V30 5889 C 558.191 0.109172 -2.30542 0
M  V30 5890 C 559.161 0.858704 -1.42181 0
M  V30 5891 O 560.346 0.844178 -1.71109 0
M  V30 5892 C 557.486 1.09971 -3.27109 0
M  V30 5893 C 556.599 0.350911 -4.30572 0
M  V30 5894 C 555.734 1.33129 -5.14247 0
M  V30 5895 C 554.773 0.570377 -6.09437 0
M  V30 5896 N 553.91 1.5001 -6.85887 0
M  V30 5897 H 558.75 -0.623195 -2.91411 0
M  V30 5898 H 556.287 -0.319122 -1.43597 0
M  V30 5899 H 558.245 1.68714 -3.81564 0
M  V30 5900 H 556.875 1.79947 -2.67991 0
M  V30 5901 H 555.927 -0.352054 -3.78767 0
M  V30 5902 H 557.239 -0.242725 -4.98209 0
M  V30 5903 H 556.393 1.99074 -5.73109 0
M  V30 5904 H 555.132 1.95885 -4.46632 0
M  V30 5905 H 554.137 -0.102702 -5.49704 0
M  V30 5906 H 555.362 -0.0521607 -6.7908 0
M  V30 5907 H 553.308 2.11529 -6.2096 0
M  V30 5908 H 553.225 0.959934 -7.49881 0
M  V30 5909 H 554.493 2.14909 -7.49289 0
M  V30 5910 N 558.722 1.53707 -0.348139 0
M  V30 5911 C 559.999 1.93247 0.302475 0
M  V30 5912 C 560.379 1.28012 1.67857 0
M  V30 5913 O 559.727 0.43274 2.24365 0
M  V30 5914 C 559.937 3.47031 0.370159 0
M  V30 5915 C 561.285 4.20066 0.61882 0
M  V30 5916 O 562.309 3.53319 0.452087 0
M  V30 5917 O 561.168 5.38318 0.94215 0
M  V30 5918 H 558.262 0.807736 0.177458 0
M  V30 5919 H 560.808 1.64927 -0.399651 0
M  V30 5920 H 559.58 3.86745 -0.59534 0
M  V30 5921 H 559.203 3.81532 1.11888 0
M  V30 5922 N 560.2 0.0768682 1.57412 0
M  V30 5923 C 561.428 -0.59997 1.9801 0
M  V30 5924 C 561.843 -1.62842 0.955408 0
M  V30 5925 O 561.2 -1.8241 -0.057314 0
M  V30 5926 C 561.251 -1.26401 3.38681 0
M  V30 5927 O 560.972 -0.276723 4.37225 0
M  V30 5928 C 562.473 -2.0282 3.94182 0
M  V30 5929 H 559.693 -0.162239 0.651091 0
M  V30 5930 H 562.237 0.150771 2.03943 0
M  V30 5931 H 560.392 -1.96581 3.33819 0
M  V30 5932 H 560.806 -0.753744 5.19056 0
M  V30 5933 H 562.28 -2.44667 4.94815 0
M  V30 5934 H 562.757 -2.88678 3.31001 0
M  V30 5935 H 563.363 -1.37496 4.02461 0
M  V30 5936 N 561.678 -1.56367 -0.196722 0
M  V30 5937 C 562.641 -1.93561 -1.22746 0
M  V30 5938 C 563.641 -0.816566 -1.38524 0
M  V30 5939 O 564.831 -1.084 -1.36363 0
M  V30 5940 C 561.963 -2.20823 -2.59712 0
M  V30 5941 H 563.156 -2.85774 -0.909586 0
M  V30 5942 H 560.709 -1.50032 -0.438174 0
M  V30 5943 H 561.444 -1.31243 -2.96557 0
M  V30 5944 H 561.229 -3.02368 -2.49632 0
M  V30 5945 H 562.719 -2.50608 -3.34044 0
M  V30 5946 N 563.156 0.464375 -1.50603 0
M  V30 5947 C 564.384 1.23907 -1.65695 0
M  V30 5948 C 564.799 1.85658 -0.343027 0
M  V30 5949 O 564.156 1.69529 0.675739 0
M  V30 5950 C 564.207 2.3429 -2.75301 0
M  V30 5951 O 563.928 1.7507 -4.01599 0
M  V30 5952 C 565.429 3.25051 -3.01424 0
M  V30 5953 H 562.649 0.374485 -0.556778 0
M  V30 5954 H 565.193 0.55353 -1.96866 0
M  V30 5955 H 563.348 2.98607 -2.46804 0
M  V30 5956 H 563.762 2.47812 -4.62266 0
M  V30 5957 H 565.236 3.98699 -3.81763 0
M  V30 5958 H 565.713 3.84227 -2.12758 0
M  V30 5959 H 566.319 2.66463 -3.31477 0
M  V30 5960 N 564.634 1.40294 0.718013 0
M  V30 5961 C 565.88 1.39648 1.47885 0
M  V30 5962 C 566.235 -0.0023879 1.924 0
M  V30 5963 O 565.528 -0.972304 1.65096 0
M  V30 5964 C 565.722 2.31814 2.72024 0
M  V30 5965 C 565.551 3.80523 2.3965 0
M  V30 5966 C 564.321 4.49351 2.3111 0
M  V30 5967 C 566.519 4.72077 2.04079 0
M  V30 5968 N 564.501 5.83305 1.91385 0
M  V30 5969 C 565.872 5.94809 1.74935 0
M  V30 5970 C 567.927 4.59935 1.90694 0
M  V30 5971 C 566.63 7.06755 1.33753 0
M  V30 5972 C 568.656 5.7182 1.50915 0
M  V30 5973 C 568.018 6.93637 1.22668 0
M  V30 5974 H 564.117 0.566263 0.539324 0
M  V30 5975 H 566.701 1.75986 0.832891 0
M  V30 5976 H 564.872 1.97607 3.34374 0
M  V30 5977 H 566.604 2.22042 3.38348 0
M  V30 5978 H 563.359 4.03002 2.4877 0
M  V30 5979 H 563.783 6.54239 1.74068 0
M  V30 5980 H 568.425 3.66274 2.11194 0
M  V30 5981 H 566.143 8.00302 1.11995 0
M  V30 5982 H 569.729 5.64421 1.4114 0
M  V30 5983 H 568.609 7.78743 0.923502 0
M  V30 5984 N 566.112 -0.949982 1.2575 0
M  V30 5985 C 567.059 -2.04738 1.06541 0
M  V30 5986 C 568.029 -1.66078 -0.0268818 0
M  V30 5987 O 569.214 -1.90348 0.131196 0
M  V30 5988 C 566.354 -3.38027 0.695127 0
M  V30 5989 C 565.467 -3.89776 1.86276 0
M  V30 5990 C 564.602 -5.11411 1.4364 0
M  V30 5991 C 563.641 -5.554 2.57287 0
M  V30 5992 N 562.778 -6.68244 2.15395 0
M  V30 5993 H 567.618 -2.20502 2.00457 0
M  V30 5994 H 565.155 -1.0805 0.998178 0
M  V30 5995 H 567.113 -4.14641 0.461375 0
M  V30 5996 H 565.743 -3.22135 -0.207046 0
M  V30 5997 H 564.795 -3.0964 2.20969 0
M  V30 5998 H 566.107 -4.18368 2.71606 0
M  V30 5999 H 565.261 -5.95457 1.16257 0
M  V30 6000 H 564 -4.84545 0.553879 0
M  V30 6001 H 563.005 -4.69916 2.85409 0
M  V30 6002 H 564.23 -5.84272 3.46125 0
M  V30 6003 H 562.176 -6.43078 1.29565 0
M  V30 6004 H 562.093 -6.96377 2.94272 0
M  V30 6005 H 563.361 -7.55687 1.91201 0
M  V30 6006 N 567.59 -1.07411 -1.15328 0
M  V30 6007 C 568.867 -0.710732 -1.82231 0
M  V30 6008 C 569.247 0.806732 -1.95077 0
M  V30 6009 O 568.595 1.72139 -1.50268 0
M  V30 6010 C 568.805 -1.42586 -3.18544 0
M  V30 6011 C 570.153 -1.57836 -3.94174 0
M  V30 6012 O 571.177 -1.38669 -3.281 0
M  V30 6013 O 570.036 -1.8938 -5.12638 0
M  V30 6014 H 567.13 -0.25297 -0.78736 0
M  V30 6015 H 569.676 -1.17508 -1.22434 0
M  V30 6016 H 568.448 -2.46008 -3.04296 0
M  V30 6017 H 568.071 -0.952332 -3.86026 0
M  V30 6018 N 569.068 1.32177 -0.85831 0
M  V30 6019 C 570.293 2.01847 -0.476718 0
M  V30 6020 C 570.718 1.64065 0.920021 0
M  V30 6021 O 570.076 0.843189 1.60499 0
M  V30 6022 C 570.124 3.55097 -0.627578 0
M  V30 6023 O 569.228 4.11012 0.338086 0
M  V30 6024 H 568.569 0.635907 -0.191099 0
M  V30 6025 H 571.099 1.68641 -1.15851 0
M  V30 6026 H 571.109 4.04718 -0.516476 0
M  V30 6027 H 569.784 3.81938 -1.64609 0
M  V30 6028 H 568.361 3.72451 0.182917 0
M  V30 6029 N 570.547 0.616602 1.45037 0
M  V30 6030 C 571.494 -0.0969439 2.30596 0
M  V30 6031 C 572.464 -0.851151 1.42635 0
M  V30 6032 O 573.649 -0.835092 1.71554 0
M  V30 6033 C 570.789 -1.08234 3.27688 0
M  V30 6034 C 569.902 -0.328072 4.30752 0
M  V30 6035 C 569.037 -1.30399 5.14946 0
M  V30 6036 C 568.076 -0.538049 6.09731 0
M  V30 6037 N 567.213 -1.46371 6.86673 0
M  V30 6038 H 572.053 0.63864 2.91076 0
M  V30 6039 H 569.59 0.326733 1.43425 0
M  V30 6040 H 571.548 -1.66688 3.82454 0
M  V30 6041 H 570.178 -1.78523 2.68941 0
M  V30 6042 H 569.23 0.372136 3.78575 0
M  V30 6043 H 570.542 0.269142 4.98073 0
M  V30 6044 H 569.696 -1.96032 5.74157 0
M  V30 6045 H 568.435 -1.93514 4.47665 0
M  V30 6046 H 567.44 0.131852 5.49642 0
M  V30 6047 H 568.665 0.0881732 6.79043 0
M  V30 6048 H 566.611 -2.08233 6.22073 0
M  V30 6049 H 566.528 -0.920152 7.50379 0
M  V30 6050 H 567.796 -2.10932 7.50418 0
M  V30 6051 N 572.025 -1.5352 0.356285 0
M  V30 6052 C 573.253 -2.05534 -0.237328 0
M  V30 6053 C 573.668 -1.23043 -1.43199 0
M  V30 6054 O 573.025 -0.268821 -1.80509 0
M  V30 6055 C 573.076 -3.55791 -0.639933 0
M  V30 6056 O 572.797 -4.35154 0.507233 0
M  V30 6057 C 574.298 -4.24027 -1.29292 0
M  V30 6058 H 571.518 -0.669585 -0.0435572 0
M  V30 6059 H 574.062 -1.97988 0.511963 0
M  V30 6060 H 572.217 -3.63518 -1.33915 0
M  V30 6061 H 572.631 -5.24178 0.18375 0
M  V30 6062 H 574.105 -5.30509 -1.52527 0
M  V30 6063 H 574.582 -3.77166 -2.25039 0
M  V30 6064 H 575.188 -4.20527 -0.63539 0
M  V30 6065 N 573.503 -0.0852151 -1.57369 0
M  V30 6066 C 574.413 0.891712 -2.16992 0
M  V30 6067 C 575.429 1.3174 -1.13669 0
M  V30 6068 O 576.605 1.38735 -1.45995 0
M  V30 6069 C 573.67 2.13635 -2.73059 0
M  V30 6070 C 572.731 1.7658 -3.91303 0
M  V30 6071 C 571.964 2.95111 -4.44686 0
M  V30 6072 O 572.187 4.09539 -3.97032 0
M  V30 6073 O 571.121 2.74149 -5.35841 0
M  V30 6074 H 574.947 0.414477 -3.00858 0
M  V30 6075 H 572.532 0.138598 -1.48756 0
M  V30 6076 H 574.414 2.86595 -3.08935 0
M  V30 6077 H 573.089 2.6043 -1.92244 0
M  V30 6078 H 571.996 1.00831 -3.60255 0
M  V30 6079 H 573.329 1.34557 -4.7345 0
M  V30 6080 N 574.981 1.5647 0.188427 0
M  V30 6081 C 576.209 1.85131 0.923803 0
M  V30 6082 C 576.624 0.668537 1.76567 0
M  V30 6083 O 575.981 -0.362662 1.7886 0
M  V30 6084 C 576.032 3.12661 1.81453 0
M  V30 6085 O 575.753 4.26378 1.00665 0
M  V30 6086 C 577.254 3.54548 2.66103 0
M  V30 6087 H 574.474 0.614624 0.269218 0
M  V30 6088 H 577.018 2.03581 0.193671 0
M  V30 6089 H 575.173 2.96088 2.49821 0
M  V30 6090 H 575.587 4.99041 1.61425 0
M  V30 6091 H 577.061 4.4673 3.24247 0
M  V30 6092 H 577.538 2.77853 3.40139 0
M  V30 6093 H 578.144 3.73674 2.03096 0
M  V30 6094 N 576.459 -0.456382 1.50847 0
M  V30 6095 C 577.389 -1.56025 1.73719 0
M  V30 6096 C 578.37 -1.5967 0.586473 0
M  V30 6097 O 579.555 -1.75702 0.827185 0
M  V30 6098 C 576.685 -2.94251 1.84483 0
M  V30 6099 C 575.639 -3.05471 2.99786 0
M  V30 6100 C 574.965 -4.45489 2.95709 0
M  V30 6101 C 576.265 -2.81318 4.40065 0
M  V30 6102 H 577.959 -1.37138 2.66146 0
M  V30 6103 H 575.505 -0.658299 1.28072 0
M  V30 6104 H 577.458 -3.71417 1.99067 0
M  V30 6105 H 576.182 -3.14328 0.886891 0
M  V30 6106 H 574.841 -2.30741 2.84876 0
M  V30 6107 H 574.489 -4.62505 1.97732 0
M  V30 6108 H 574.189 -4.53929 3.73125 0
M  V30 6109 H 575.713 -5.24655 3.12362 0
M  V30 6110 H 577.127 -3.48226 4.55425 0
M  V30 6111 H 575.524 -3.01188 5.19043 0
M  V30 6112 H 576.594 -1.7706 4.51418 0
M  V30 6113 N 577.937 -1.40673 -0.710563 0
M  V30 6114 C 578.869 -1.37256 -1.83558 0
M  V30 6115 C 579.882 -0.277133 -1.60424 0
M  V30 6116 O 581.071 -0.537831 -1.70205 0
M  V30 6117 C 578.171 -1.1144 -3.20054 0
M  V30 6118 C 577.344 -2.32734 -3.70342 0
M  V30 6119 C 576.403 -2.03002 -4.85465 0
M  V30 6120 O 575.429 -2.75912 -4.97857 0
M  V30 6121 N 576.631 -1.01105 -5.71627 0
M  V30 6122 H 579.396 -2.34215 -1.86985 0
M  V30 6123 H 576.957 -1.35091 -0.892301 0
M  V30 6124 H 578.949 -0.895265 -3.94673 0
M  V30 6125 H 577.519 -0.231307 -3.11743 0
M  V30 6126 H 576.739 -2.70446 -2.86798 0
M  V30 6127 H 578.027 -3.13584 -4.00678 0
M  V30 6128 H 577.425 -0.407303 -5.64232 0
M  V30 6129 H 575.982 -0.85182 -6.4621 0
M  V30 6130 N 579.415 0.9433 -1.26252 0
M  V30 6131 C 580.363 2.06302 -1.07434 0
M  V30 6132 C 581.357 1.694 -0.00189471 0
M  V30 6133 O 582.563 1.79302 -0.158408 0
M  V30 6134 H 578.938 0.675453 -0.330556 0
M  V30 6135 H 580.909 2.19326 -2.02333 0
M  V30 6136 C 579.658 3.40125 -0.721817 0
M  V30 6137 H 578.981 3.68996 -1.5389 0
M  V30 6138 H 580.421 4.19295 -0.629922 0
M  V30 6139 C 578.88 3.31993 0.572902 0
M  V30 6140 O 579.41 3.67945 1.61182 0
M  V30 6141 N 577.616 2.85099 0.562748 0
M  V30 6142 H 577.163 2.5604 -0.283092 0
M  V30 6143 H 577.121 2.80041 1.42915 0
M  V30 6144 N 580.893 1.08022 1.14757 0
M  V30 6145 C 581.856 0.71048 2.1791 0
M  V30 6146 C 582.856 -0.252731 1.58801 0
M  V30 6147 O 584.046 -0.0327915 1.74169 0
M  V30 6148 C 581.178 0.0483203 3.40866 0
M  V30 6149 H 582.371 1.62384 2.52134 0
M  V30 6150 H 579.924 0.877595 1.29337 0
M  V30 6151 H 580.659 -0.876959 3.12218 0
M  V30 6152 H 580.444 0.741189 3.85031 0
M  V30 6153 H 581.934 -0.195471 4.17142 0
M  V30 6154 N 582.371 -1.3172 0.865308 0
M  V30 6155 C 583.321 -2.26157 0.289305 0
M  V30 6156 C 584.305 -1.50428 -0.570977 0
M  V30 6157 O 585.497 -1.71978 -0.418617 0
M  V30 6158 C 582.626 -3.39457 -0.512237 0
M  V30 6159 C 581.712 -4.22561 0.361028 0
M  V30 6160 N 582.103 -4.84501 1.45231 0
M  V30 6161 C 580.401 -4.45739 0.152641 0
M  V30 6162 C 581.102 -5.46586 1.99043 0
M  V30 6163 N 580.078 -5.28119 1.28809 0
M  V30 6164 H 583.88 -2.71581 1.12344 0
M  V30 6165 H 581.394 -1.45932 0.712565 0
M  V30 6166 H 583.391 -4.06133 -0.941379 0
M  V30 6167 H 582.051 -2.95577 -1.34404 0
M  V30 6168 H 583.062 -4.84293 1.83524 0
M  V30 6169 H 579.739 -4.1251 -0.643583 0
M  V30 6170 H 581.129 -6.05817 2.90577 0
M  V30 6171 N 583.85 -0.624285 -1.44708 0
M  V30 6172 C 585.075 -0.131171 -2.06985 0
M  V30 6173 C 585.5 1.18234 -1.46295 0
M  V30 6174 O 584.858 1.72375 -0.561842 0
M  V30 6175 C 584.906 -0.0226724 -3.60593 0
M  V30 6176 O 584.01 1.02314 -3.99507 0
M  V30 6177 H 583.351 -0.0816556 -0.65896 0
M  V30 6178 H 585.88 -0.859027 -1.85693 0
M  V30 6179 H 585.891 0.170138 -4.07645 0
M  V30 6180 H 584.566 -0.981685 -4.04148 0
M  V30 6181 H 583.143 0.805452 -3.64097 0
M  V30 6182 N 585.328 1.53329 -0.364422 0
M  V30 6183 C 586.261 2.22052 0.526145 0
M  V30 6184 C 587.239 1.21203 1.08391 0
M  V30 6185 O 588.423 1.50101 1.14026 0
M  V30 6186 C 585.55 2.91432 1.72583 0
M  V30 6187 C 584.596 4.06345 1.29562 0
M  V30 6188 S 585.429 5.34671 0.297885 0
M  V30 6189 C 586.585 6.07563 1.50392 0
M  V30 6190 H 586.818 2.97244 -0.0575055 0
M  V30 6191 H 584.351 1.53684 -0.148525 0
M  V30 6192 H 586.309 3.3202 2.41398 0
M  V30 6193 H 584.97 2.15966 2.28073 0
M  V30 6194 H 584.163 4.53901 2.19067 0
M  V30 6195 H 583.765 3.67642 0.686696 0
M  V30 6196 H 586.057 6.32224 2.43513 0
M  V30 6197 H 587 6.99973 1.06977 0
M  V30 6198 H 587.408 5.37994 1.70945 0
M  V30 6199 N 586.806 0.0935595 1.57322 0
M  V30 6200 C 587.769 -0.851426 2.12799 0
M  V30 6201 C 588.769 -1.21187 1.0569 0
M  V30 6202 O 589.959 -1.14156 1.31583 0
M  V30 6203 C 587.091 -2.14779 2.64731 0
M  V30 6204 H 588.284 -0.369733 2.97612 0
M  V30 6205 H 585.837 -0.155417 1.55525 0
M  V30 6206 H 586.572 -2.67437 1.83434 0
M  V30 6207 H 586.357 -1.89907 3.43042 0
M  V30 6208 H 587.847 -2.82383 3.07651 0
M  V30 6209 N 588.284 -1.56567 -0.180126 0
M  V30 6210 C 589.214 -1.98753 -1.22553 0
M  V30 6211 C 590.195 -0.86175 -1.46656 0
M  V30 6212 O 591.38 -1.12719 -1.58139 0
M  V30 6213 C 588.51 -2.33988 -2.56645 0
M  V30 6214 C 587.464 -3.49445 -2.47128 0
M  V30 6215 C 586.79 -3.70397 -3.8563 0
M  V30 6216 C 588.09 -4.83171 -1.98352 0
M  V30 6217 H 589.784 -2.86332 -0.874896 0
M  V30 6218 H 587.33 -1.37757 -0.419414 0
M  V30 6219 H 589.283 -2.62097 -3.29974 0
M  V30 6220 H 588.007 -1.43309 -2.93479 0
M  V30 6221 H 586.666 -3.2145 -1.76254 0
M  V30 6222 H 586.314 -2.77023 -4.19842 0
M  V30 6223 H 586.014 -4.48077 -3.80132 0
M  V30 6224 H 587.538 -4.00897 -4.60558 0
M  V30 6225 H 588.952 -5.10213 -2.61449 0
M  V30 6226 H 587.349 -5.64425 -2.03823 0
M  V30 6227 H 588.419 -4.75753 -0.937402 0
M  V30 6228 N 589.762 0.448376 -1.51087 0
M  V30 6229 C 591.173 1.0286 -1.5581 0
M  V30 6230 C 591.524 1.92583 -0.374989 0
M  V30 6231 O 590.649 2.10316 0.509533 0
M  V30 6232 C 591.244 1.87223 -2.8237 0
M  V30 6233 C 589.803 2.40314 -2.897 0
M  V30 6234 C 588.95 1.19238 -2.50355 0
M  V30 6235 H 591.901 0.230075 -1.57023 0
M  V30 6236 H 591.922 2.72553 -2.6551 0
M  V30 6237 H 591.434 1.21894 -3.68461 0
M  V30 6238 H 589.535 3.09129 -2.08014 0
M  V30 6239 H 589.648 2.73866 -3.93108 0
M  V30 6240 H 588.012 1.53428 -2.03303 0
M  V30 6241 H 588.795 0.555367 -3.38778 0
M  V30 6242 N 591.24 1.41047 0.703093 0
M  V30 6243 C 592.203 1.42036 1.79884 0
M  V30 6244 C 593.203 0.312153 1.57741 0
M  V30 6245 O 594.393 0.571672 1.64553 0
M  V30 6246 C 591.525 1.22437 3.18154 0
M  V30 6247 H 592.718 2.39572 1.80403 0
M  V30 6248 H 590.271 1.27079 0.909977 0
M  V30 6249 H 591.006 0.257112 3.23279 0
M  V30 6250 H 590.791 2.02723 3.35627 0
M  V30 6251 H 592.281 1.25946 3.98155 0
M  V30 6252 N 592.718 -0.936591 1.26751 0
M  V30 6253 C 593.648 -2.05315 1.11212 0
M  V30 6254 C 594.629 -1.70092 0.0160262 0
M  V30 6255 O 595.814 -1.93279 0.188894 0
M  V30 6256 C 592.944 -3.39123 0.749171 0
M  V30 6257 C 591.898 -3.88425 1.79751 0
M  V30 6258 C 591.224 -5.18936 1.28876 0
M  V30 6259 C 592.524 -4.12798 3.19992 0
M  V30 6260 H 594.218 -2.18573 2.04613 0
M  V30 6261 H 591.764 -1.05027 0.985159 0
M  V30 6262 H 593.717 -4.16704 0.627323 0
M  V30 6263 H 592.441 -3.25855 -0.220543 0
M  V30 6264 H 591.1 -3.13028 1.90811 0
M  V30 6265 H 590.748 -5.02051 0.308757 0
M  V30 6266 H 590.448 -5.52892 1.98958 0
M  V30 6267 H 591.972 -5.99096 1.17967 0
M  V30 6268 H 593.386 -4.80977 3.11983 0
M  V30 6269 H 591.783 -4.58044 3.87705 0
M  V30 6270 H 592.853 -3.18412 3.65707 0
M  V30 6271 N 594.196 -1.08629 -1.14182 0
M  V30 6272 C 595.106 -0.730126 -2.22949 0
M  V30 6273 C 596.122 0.26436 -1.7198 0
M  V30 6274 O 597.298 0.107742 -2.01112 0
M  V30 6275 C 594.363 -0.147227 -3.46387 0
M  V30 6276 C 593.424 -1.19662 -4.12286 0
M  V30 6277 C 592.657 -0.641437 -5.29831 0
M  V30 6278 O 592.88 0.538351 -5.67854 0
M  V30 6279 O 591.814 -1.39257 -5.85569 0
M  V30 6280 H 595.64 -1.63753 -2.55771 0
M  V30 6281 H 593.225 -0.860118 -1.22157 0
M  V30 6282 H 595.107 0.174923 -4.21037 0
M  V30 6283 H 593.782 0.733304 -3.15285 0
M  V30 6284 H 592.689 -1.57133 -3.395 0
M  V30 6285 H 594.022 -2.0495 -4.475 0
M  V30 6286 N 595.674 1.31259 -0.872281 0
M  V30 6287 C 597.085 1.78822 -0.536617 0
M  V30 6288 C 597.436 1.71855 0.946594 0
M  V30 6289 O 596.561 1.28769 1.73918 0
M  V30 6290 C 597.156 3.24698 -0.967294 0
M  V30 6291 C 595.715 3.70147 -0.683251 0
M  V30 6292 C 594.862 2.51994 -1.15733 0
M  V30 6293 H 597.813 1.18308 -1.05777 0
M  V30 6294 H 597.834 3.79386 -0.290929 0
M  V30 6295 H 597.346 3.29737 -2.04683 0
M  V30 6296 H 595.447 3.70607 0.384825 0
M  V30 6297 H 595.56 4.62183 -1.2619 0
M  V30 6298 H 593.924 2.48078 -0.577024 0
M  V30 6299 H 594.707 2.59778 -2.24434 0
M  V30 6300 N 597.152 0.631951 1.44375 0
M  V30 6301 C 598.377 0.142146 2.06912 0
M  V30 6302 C 598.802 -1.17456 1.4692 0
M  V30 6303 O 598.16 -1.72074 0.570975 0
M  V30 6304 C 598.208 0.0417952 3.60576 0
M  V30 6305 O 597.312 -1.00194 4.00044 0
M  V30 6306 H 596.653 0.0851491 0.658518 0
M  V30 6307 H 599.183 0.868863 1.85235 0
M  V30 6308 H 599.193 -0.148517 4.0773 0
M  V30 6309 H 597.868 1.0031 4.03622 0
M  V30 6310 H 596.445 -0.786131 3.64519 0
M  V30 6311 N 598.631 -1.53133 0.372548 0
M  V30 6312 C 599.859 -2.05774 -0.215515 0
M  V30 6313 C 600.274 -1.24555 -1.41886 0
M  V30 6314 O 599.631 -0.287951 -1.80214 0
M  V30 6315 C 599.682 -3.5645 -0.602161 0
M  V30 6316 O 599.403 -4.34591 0.553359 0
M  V30 6317 C 600.904 -4.25374 -1.24787 0
M  V30 6318 H 598.124 -0.670009 -0.0364529 0
M  V30 6319 H 600.668 -1.97434 0.532934 0
M  V30 6320 H 598.823 -3.64918 -1.30052 0
M  V30 6321 H 599.237 -5.23954 0.239336 0
M  V30 6322 H 600.711 -5.32097 -1.46891 0
M  V30 6323 H 601.188 -3.79531 -2.21026 0
M  V30 6324 H 601.794 -4.21177 -0.590752 0
M  V30 6325 N 600.109 -0.101901 -1.5727 0
M  V30 6326 C 601.525 0.254739 -1.57554 0
M  V30 6327 C 601.725 1.67937 -1.11352 0
M  V30 6328 O 600.781 2.39722 -0.793081 0
M  V30 6329 C 602.094 0.036975 -3.00677 0
M  V30 6330 C 603.642 0.104199 -3.12827 0
M  V30 6331 C 604.117 -0.0856565 -4.5792 0
M  V30 6332 N 605.608 -0.0310498 -4.6319 0
M  V30 6333 C 606.343 -0.153099 -5.73196 0
M  V30 6334 N 605.839 -0.330364 -6.92012 0
M  V30 6335 N 607.632 -0.0938854 -5.62022 0
M  V30 6336 H 599.783 -1.03263 -1.85609 0
M  V30 6337 H 602.046 -0.405251 -0.857016 0
M  V30 6338 H 601.752 -0.947254 -3.38703 0
M  V30 6339 H 601.626 0.776335 -3.69124 0
M  V30 6340 H 604.013 1.07894 -2.74669 0
M  V30 6341 H 604.094 -0.666762 -2.46957 0
M  V30 6342 H 603.738 -1.05729 -4.96773 0
M  V30 6343 H 603.668 0.705082 -5.21858 0
M  V30 6344 H 606.159 0.103141 -3.77759 0
M  V30 6345 H 606.472 -0.41482 -7.71686 0
M  V30 6346 H 604.817 -0.366119 -6.94035 0
M  V30 6347 H 608.008 0.0435168 -4.6808 0
M  V30 6348 H 608.181 -0.19245 -6.47714 0
M  V30 6349 N 601.587 1.56661 0.17182 0
M  V30 6350 C 602.817 1.85831 0.902804 0
M  V30 6351 C 603.225 0.685157 1.76358 0
M  V30 6352 O 602.568 -0.354947 1.80238 0
M  V30 6353 C 602.63 3.09406 1.83053 0
M  V30 6354 C 602.294 4.4231 1.1494 0
M  V30 6355 C 603.291 5.17342 0.515104 0
M  V30 6356 C 600.976 4.89045 1.14631 0
M  V30 6357 C 602.97 6.37299 -0.113194 0
M  V30 6358 C 600.657 6.08933 0.514184 0
M  V30 6359 C 601.655 6.82904 -0.114463 0
M  V30 6360 O 601.343 8.00518 -0.736622 0
M  V30 6361 H 601.075 0.620715 0.267748 0
M  V30 6362 H 603.629 2.04637 0.176918 0
M  V30 6363 H 601.859 2.86544 2.59672 0
M  V30 6364 H 603.548 3.25027 2.4313 0
M  V30 6365 H 604.314 4.82317 0.509474 0
M  V30 6366 H 600.193 4.31409 1.62502 0
M  V30 6367 H 603.737 6.94976 -0.604477 0
M  V30 6368 H 599.634 6.43423 0.517395 0
M  V30 6369 H 600.402 8.16027 -0.635822 0
M  V30 6370 N 603.065 -0.440357 1.51323 0
M  V30 6371 C 604.311 -1.18874 1.65047 0
M  V30 6372 C 604.666 -1.88988 0.360742 0
M  V30 6373 O 603.959 -1.80479 -0.643272 0
M  V30 6374 C 604.153 -2.2339 2.78984 0
M  V30 6375 C 603.982 -1.63534 4.18911 0
M  V30 6376 C 602.752 -1.42158 4.84891 0
M  V30 6377 C 604.95 -1.11324 5.02107 0
M  V30 6378 N 602.932 -0.778679 6.08942 0
M  V30 6379 C 604.303 -0.595421 6.17134 0
M  V30 6380 C 606.358 -1.00471 4.87658 0
M  V30 6381 C 605.061 0.0202557 7.19297 0
M  V30 6382 C 607.087 -0.402928 5.90026 0
M  V30 6383 C 606.449 0.10436 7.04323 0
M  V30 6384 H 602.548 -0.422771 0.657866 0
M  V30 6385 H 605.132 -0.485814 1.88542 0
M  V30 6386 H 603.303 -2.91074 2.57158 0
M  V30 6387 H 605.035 -2.90366 2.81904 0
M  V30 6388 H 601.79 -1.68247 4.42707 0
M  V30 6389 H 602.214 -0.474755 6.75333 0
M  V30 6390 H 606.856 -1.38278 3.99548 0
M  V30 6391 H 604.574 0.410468 8.07057 0
M  V30 6392 H 608.16 -0.320897 5.80914 0
M  V30 6393 H 607.04 0.562697 7.82179 0
M  V30 6394 N 604.543 -1.41418 -0.695603 0
M  V30 6395 C 605.506 -1.42988 -1.79129 0
M  V30 6396 C 606.506 -0.320514 -1.57573 0
M  V30 6397 O 607.696 -0.58039 -1.64247 0
M  V30 6398 C 604.828 -1.24122 -3.175 0
M  V30 6399 H 606.021 -2.40526 -1.7913 0
M  V30 6400 H 603.574 -1.2756 -0.903225 0
M  V30 6401 H 604.309 -0.274253 -3.23138 0
M  V30 6402 H 604.094 -2.045 -3.34547 0
M  V30 6403 H 605.584 -1.28056 -3.97481 0
M  V30 6404 N 606.021 0.929856 -1.27246 0
M  V30 6405 C 607.437 1.20542 -1.04603 0
M  V30 6406 C 607.637 2.00276 0.221754 0
M  V30 6407 O 606.693 2.34835 0.927833 0
M  V30 6408 C 608.006 1.95566 -2.28417 0
M  V30 6409 C 609.554 2.08513 -2.33433 0
M  V30 6410 C 610.029 2.86943 -3.5697 0
M  V30 6411 N 611.52 2.94512 -3.57515 0
M  V30 6412 C 612.255 3.55656 -4.49774 0
M  V30 6413 N 611.751 4.18209 -5.52334 0
M  V30 6414 N 613.544 3.53038 -4.37402 0
M  V30 6415 H 605.695 0.397113 -2.08655 0
M  V30 6416 H 607.958 0.238277 -0.917566 0
M  V30 6417 H 607.664 1.44395 -3.20691 0
M  V30 6418 H 607.538 2.9619 -2.33563 0
M  V30 6419 H 609.925 2.58872 -1.41666 0
M  V30 6420 H 610.006 1.07117 -2.32292 0
M  V30 6421 H 609.65 2.37268 -4.49072 0
M  V30 6422 H 609.58 3.8862 -3.55362 0
M  V30 6423 H 612.071 2.50053 -2.83341 0
M  V30 6424 H 612.384 4.62796 -6.18902 0
M  V30 6425 H 610.729 4.16761 -5.56179 0
M  V30 6426 H 613.92 3.0337 -3.56489 0
M  V30 6427 H 614.093 4.004 -5.09493 0
M  V30 6428 N 607.499 1.09233 1.13605 0
M  V30 6429 C 608.745 0.828385 1.8511 0
M  V30 6430 C 609.078 -0.64437 1.83198 0
M  V30 6431 O 608.353 -1.47428 1.26867 0
M  V30 6432 C 608.636 1.36167 3.33363 0
M  V30 6433 C 608.489 2.90038 3.438 0
M  V30 6434 C 609.808 0.993819 4.28732 0
M  V30 6435 H 606.927 0.30239 0.672108 0
M  V30 6436 H 609.569 1.35339 1.33355 0
M  V30 6437 H 607.719 0.9151 3.77569 0
M  V30 6438 H 609.391 3.43128 3.08319 0
M  V30 6439 H 607.634 3.27271 2.84739 0
M  V30 6440 H 608.305 3.22428 4.48045 0
M  V30 6441 H 610.781 1.37893 3.92587 0
M  V30 6442 H 609.657 1.39403 5.30903 0
M  V30 6443 H 609.918 -0.0982206 4.41991 0
M  V30 6444 N 608.977 -1.30795 0.87923 0
M  V30 6445 C 610.393 -1.48981 0.57243 0
M  V30 6446 C 610.593 -1.80719 -0.891236 0
M  V30 6447 O 609.649 -1.89136 -1.67283 0
M  V30 6448 C 610.962 -2.61721 1.48063 0
M  V30 6449 C 612.51 -2.75603 1.48365 0
M  V30 6450 C 612.985 -3.91449 2.37763 0
M  V30 6451 N 614.476 -3.98751 2.35695 0
M  V30 6452 C 615.211 -4.87684 3.01583 0
M  V30 6453 N 614.707 -5.81454 3.76674 0
M  V30 6454 N 616.5 -4.81005 2.90844 0
M  V30 6455 H 608.651 -1.08465 1.82617 0
M  V30 6456 H 610.914 -0.536813 0.781368 0
M  V30 6457 H 610.62 -2.45073 2.52254 0
M  V30 6458 H 610.494 -3.58071 1.18596 0
M  V30 6459 H 612.881 -2.9166 0.44927 0
M  V30 6460 H 612.962 -1.79891 1.81859 0
M  V30 6461 H 612.606 -3.76149 3.41283 0
M  V30 6462 H 612.536 -4.86487 2.01589 0
M  V30 6463 H 615.027 -3.31668 1.81121 0
M  V30 6464 H 615.34 -6.46063 4.24054 0
M  V30 6465 H 613.685 -5.81403 3.80782 0
M  V30 6466 H 616.876 -4.06728 2.31711 0
M  V30 6467 H 617.049 -5.50107 3.42471 0
M  V30 6468 N 610.455 -0.639598 -1.44038 0
M  V30 6469 C 611.701 -0.147698 -2.02261 0
M  V30 6470 C 612.034 1.23031 -1.50256 0
M  V30 6471 O 611.309 1.81847 -0.690068 0
M  V30 6472 C 611.592 -0.14362 -3.59813 0
M  V30 6473 C 611.445 -1.55458 -4.22082 0
M  V30 6474 C 612.764 0.527317 -4.36929 0
M  V30 6475 H 609.883 -0.0551453 -0.734934 0
M  V30 6476 H 612.525 -0.817688 -1.71505 0
M  V30 6477 H 610.675 0.426898 -3.86147 0
M  V30 6478 H 612.347 -2.17464 -4.06826 0
M  V30 6479 H 610.59 -2.10594 -3.79253 0
M  V30 6480 H 611.261 -1.50369 -5.31124 0
M  V30 6481 H 613.737 0.0420504 -4.16079 0
M  V30 6482 H 612.613 0.499389 -5.46624 0
M  V30 6483 H 612.874 1.59914 -4.12165 0
M  V30 6484 N 611.933 1.52934 -0.380664 0
M  V30 6485 C 613.349 1.59571 -0.0302429 0
M  V30 6486 C 613.549 1.39509 1.45394 0
M  V30 6487 O 612.605 1.20777 2.21741 0
M  V30 6488 C 613.918 2.96519 -0.499691 0
M  V30 6489 C 615.466 3.09672 -0.455204 0
M  V30 6490 C 615.941 4.49056 -0.900703 0
M  V30 6491 N 617.432 4.55215 -0.856367 0
M  V30 6492 C 618.167 5.61282 -1.17259 0
M  V30 6493 N 617.663 6.75035 -1.55885 0
M  V30 6494 N 619.456 5.51343 -1.0944 0
M  V30 6495 H 611.607 1.64224 -1.347 0
M  V30 6496 H 613.87 0.771033 -0.551554 0
M  V30 6497 H 613.576 3.16388 -1.53595 0
M  V30 6498 H 613.45 3.77052 0.105789 0
M  V30 6499 H 615.837 2.89504 0.571949 0
M  V30 6500 H 615.918 2.31113 -1.09638 0
M  V30 6501 H 615.562 4.69964 -1.92604 0
M  V30 6502 H 615.492 5.26068 -0.236629 0
M  V30 6503 H 617.983 3.73546 -0.572013 0
M  V30 6504 H 618.296 7.51926 -1.784 0
M  V30 6505 H 616.641 6.76388 -1.59764 0
M  V30 6506 H 619.832 4.61356 -0.791713 0
M  V30 6507 H 620.005 6.33905 -1.34417 0
M  V30 6508 N 613.412 0.11024 1.57214 0
M  V30 6509 C 614.64 -0.557834 1.99238 0
M  V30 6510 C 615.055 -1.60778 0.989734 0
M  V30 6511 O 614.412 -1.82491 -0.0186092 0
M  V30 6512 C 614.463 -1.19189 3.41286 0
M  V30 6513 O 614.184 -0.183919 4.37714 0
M  V30 6514 C 615.685 -1.94413 3.98395 0
M  V30 6515 H 612.905 -0.148392 0.654386 0
M  V30 6516 H 615.449 0.193996 2.03578 0
M  V30 6517 H 613.604 -1.89456 3.37913 0
M  V30 6518 H 614.018 -0.643475 5.20538 0
M  V30 6519 H 615.492 -2.34116 4.99894 0
M  V30 6520 H 615.969 -2.81592 3.3705 0
M  V30 6521 H 616.575 -1.28928 4.05287 0
M  V30 6522 N 614.89 -1.56749 -0.16351 0
M  V30 6523 C 616.115 -1.86938 -0.898264 0
M  V30 6524 C 616.54 -0.697456 -1.74692 0
M  V30 6525 O 615.898 0.353327 -1.77824 0
M  V30 6526 C 615.946 -3.15599 -1.74441 0
M  V30 6527 O 615.05 -2.98371 -2.8469 0
M  V30 6528 H 614.391 -0.614659 -0.251178 0
M  V30 6529 H 616.921 -2.03979 -0.159298 0
M  V30 6530 H 616.931 -3.47202 -2.14277 0
M  V30 6531 H 615.606 -4.00505 -1.1211 0
M  V30 6532 H 614.183 -2.7814 -2.4838 0
M  V30 6533 N 616.368 0.432326 -1.51554 0
M  V30 6534 C 617.784 0.769195 -1.39841 0
M  V30 6535 C 617.984 1.95584 -0.484675 0
M  V30 6536 O 617.04 2.52433 0.0582829 0
M  V30 6537 C 618.353 1.04487 -2.81963 0
M  V30 6538 C 619.901 1.149 -2.91148 0
M  V30 6539 C 620.376 1.45758 -4.34187 0
M  V30 6540 N 621.867 1.52671 -4.37317 0
M  V30 6541 C 622.602 1.78129 -5.4503 0
M  V30 6542 N 622.098 2.01345 -6.62897 0
M  V30 6543 N 623.891 1.79953 -5.32516 0
M  V30 6544 H 616.042 -0.349122 -2.09511 0
M  V30 6545 H 618.305 -0.0938113 -0.943347 0
M  V30 6546 H 618.011 0.24557 -3.50842 0
M  V30 6547 H 617.885 1.97119 -3.21596 0
M  V30 6548 H 620.272 1.93891 -2.22464 0
M  V30 6549 H 620.353 0.201568 -2.55005 0
M  V30 6550 H 619.997 0.672917 -5.03423 0
M  V30 6551 H 619.927 2.41715 -4.67848 0
M  V30 6552 H 622.418 1.36612 -3.52343 0
M  V30 6553 H 622.731 2.20155 -7.40778 0
M  V30 6554 H 621.076 1.98657 -6.66003 0
M  V30 6555 H 624.267 1.61337 -4.39418 0
M  V30 6556 H 624.44 1.99455 -6.1654 0
M  V30 6557 N 617.846 1.41785 0.688094 0
M  V30 6558 C 619.074 1.44915 1.47673 0
M  V30 6559 C 619.489 0.0565786 1.88715 0
M  V30 6560 O 618.846 -0.92579 1.57275 0
M  V30 6561 C 618.897 2.36452 2.73446 0
M  V30 6562 O 618.618 3.7029 2.34131 0
M  V30 6563 C 620.119 2.48463 3.67125 0
M  V30 6564 H 617.339 0.493324 0.454832 0
M  V30 6565 H 619.883 1.86153 0.846594 0
M  V30 6566 H 618.038 1.98502 3.3268 0
M  V30 6567 H 618.452 4.19183 3.15255 0
M  V30 6568 H 619.926 3.16662 4.52138 0
M  V30 6569 H 620.403 1.51826 4.12123 0
M  V30 6570 H 621.009 2.8708 3.13792 0
M  V30 6571 N 619.324 -0.923095 1.27737 0
M  V30 6572 C 620.572 -1.66797 1.14119 0
M  V30 6573 C 620.893 -1.92479 -0.312541 0
M  V30 6574 O 620.163 -1.53432 -1.218 0
M  V30 6575 H 618.743 -0.618196 0.419336 0
M  V30 6576 H 621.405 -1.10815 1.60331 0
M  V30 6577 H 620.501 -2.63424 1.67374 0
M  V30 6578 N 620.802 -1.09834 -1.13024 0
M  V30 6579 C 622.032 -0.857657 -1.87957 0
M  V30 6580 C 622.44 0.595008 -1.796 0
M  V30 6581 O 621.783 1.42158 -1.16347 0
M  V30 6582 C 621.845 -1.21949 -3.38185 0
M  V30 6583 C 621.509 -2.67791 -3.7032 0
M  V30 6584 C 622.506 -3.66036 -3.69207 0
M  V30 6585 C 620.191 -3.04019 -3.99847 0
M  V30 6586 C 622.185 -4.98533 -3.9717 0
M  V30 6587 C 619.872 -4.36706 -4.27471 0
M  V30 6588 C 620.87 -5.33772 -4.26118 0
M  V30 6589 O 620.558 -6.64072 -4.53061 0
M  V30 6590 H 620.29 -0.308009 -0.601753 0
M  V30 6591 H 622.844 -1.46496 -1.43973 0
M  V30 6592 H 621.074 -0.555249 -3.82693 0
M  V30 6593 H 622.763 -0.957281 -3.9445 0
M  V30 6594 H 623.529 -3.39392 -3.46465 0
M  V30 6595 H 619.408 -2.29096 -4.00045 0
M  V30 6596 H 622.952 -5.74288 -3.96029 0
M  V30 6597 H 618.849 -4.63091 -4.49685 0
M  V30 6598 H 619.617 -6.69608 -4.7071 0
M  V30 6599 N 622.28 1.30327 -0.886154 0
M  V30 6600 C 623.228 2.30052 -0.343317 0
M  V30 6601 C 624.222 1.60212 0.550305 0
M  V30 6602 O 625.428 1.74674 0.434609 0
M  V30 6603 H 621.803 0.746306 -0.0923681 0
M  V30 6604 H 623.774 2.73294 -1.19804 0
M  V30 6605 C 622.523 3.45079 0.426107 0
M  V30 6606 H 621.846 3.99003 -0.25227 0
M  V30 6607 H 623.286 4.16931 0.771009 0
M  V30 6608 C 621.745 2.95195 1.62363 0
M  V30 6609 O 622.275 2.95323 2.723 0
M  V30 6610 N 620.481 2.51192 1.4612 0
M  V30 6611 H 620.028 2.51286 0.566832 0
M  V30 6612 H 619.986 2.18173 2.2638 0
M  V30 6613 N 623.758 0.647228 1.43697 0
M  V30 6614 C 625.006 0.157876 2.01482 0
M  V30 6615 C 625.327 -1.23039 1.51282 0
M  V30 6616 O 624.597 -1.82071 0.722982 0
M  V30 6617 H 623.177 0.0553745 0.744945 0
M  V30 6618 H 625.839 0.83755 1.75986 0
M  V30 6619 H 624.935 0.137895 3.11795 0
M  V30 6620 N 625.236 -1.5273 0.388769 0
M  V30 6621 C 626.485 -2.00757 -0.194833 0
M  V30 6622 C 626.798 -1.27951 -1.47946 0
M  V30 6623 O 628.004 -1.66686 -2.14308 0
M  V30 6624 C 626.46 -3.57695 -0.397762 0
M  V30 6625 C 626.068 -4.394 0.873583 0
M  V30 6626 C 627.812 -4.14012 -0.937759 0
M  V30 6627 C 625.719 -5.87938 0.638962 0
M  V30 6628 H 624.649 -0.750101 -0.0765845 0
M  V30 6629 H 627.3 -1.76239 0.511086 0
M  V30 6630 H 625.682 -3.7846 -1.16552 0
M  V30 6631 H 626.856 -4.30403 1.64591 0
M  V30 6632 H 625.171 -3.94301 1.33849 0
M  V30 6633 H 627.768 -5.22645 -1.12899 0
M  V30 6634 H 628.111 -3.7007 -1.90666 0
M  V30 6635 H 628.644 -3.97137 -0.229588 0
M  V30 6636 H 625.383 -6.36202 1.57885 0
M  V30 6637 H 624.903 -5.99726 -0.094443 0
M  V30 6638 H 626.582 -6.46423 0.273299 0
M  V30 6639 N 626.714 -0.118576 -1.57153 0
M  V30 6640 C 627.96 0.534078 -1.96263 0
M  V30 6641 C 628.315 1.64316 -1.0009 0
M  V30 6642 O 627.608 1.91575 -0.0308582 0
M  V30 6643 C 627.802 1.11303 -3.39627 0
M  V30 6644 C 627.631 0.0615624 -4.49658 0
M  V30 6645 C 626.401 -0.370103 -5.03943 0
M  V30 6646 C 628.599 -0.719249 -5.09246 0
M  V30 6647 N 626.581 -1.40738 -5.9755 0
M  V30 6648 C 627.952 -1.60774 -5.98792 0
M  V30 6649 C 630.007 -0.770183 -4.91907 0
M  V30 6650 C 628.71 -2.54272 -6.72858 0
M  V30 6651 C 630.736 -1.69288 -5.66653 0
M  V30 6652 C 630.098 -2.56894 -6.55885 0
M  V30 6653 H 626.197 0.165072 -0.764379 0
M  V30 6654 H 628.781 -0.206596 -1.93601 0
M  V30 6655 H 626.952 1.82342 -3.42937 0
M  V30 6656 H 628.684 1.72996 -3.65861 0
M  V30 6657 H 625.439 0.0222121 -4.73595 0
M  V30 6658 H 625.863 -1.92493 -6.49057 0
M  V30 6659 H 630.505 -0.106999 -4.22665 0
M  V30 6660 H 628.223 -3.21605 -7.41347 0
M  V30 6661 H 631.809 -1.73772 -5.55243 0
M  V30 6662 H 630.689 -3.27131 -7.1271 0
M  V30 6663 N 628.193 1.56834 0.155195 0
M  V30 6664 C 629.418 1.87412 0.888337 0
M  V30 6665 C 629.843 0.70671 1.74319 0
M  V30 6666 O 629.201 -0.343892 1.78009 0
M  V30 6667 C 629.249 3.1652 1.72765 0
M  V30 6668 O 628.353 2.99877 2.83103 0
M  V30 6669 H 627.694 0.615983 0.247914 0
M  V30 6670 H 630.224 2.04061 0.148478 0
M  V30 6671 H 630.234 3.48334 2.12433 0
M  V30 6672 H 628.909 4.01094 1.09985 0
M  V30 6673 H 627.486 2.79453 2.46902 0
M  V30 6674 N 629.671 -0.424282 1.51781 0
M  V30 6675 C 630.581 -1.54087 1.76902 0
M  V30 6676 C 631.597 -1.61249 0.653826 0
M  V30 6677 O 632.773 -1.78247 0.937552 0
M  V30 6678 C 629.838 -2.8996 1.90063 0
M  V30 6679 C 628.899 -2.92809 3.13945 0
M  V30 6680 C 628.132 -4.22201 3.26469 0
M  V30 6681 O 628.355 -5.15286 2.44616 0
M  V30 6682 O 627.289 -4.31599 4.1953 0
M  V30 6683 H 631.115 -1.358 2.71647 0
M  V30 6684 H 628.7 -0.608618 1.36441 0
M  V30 6685 H 630.582 -3.70575 2.0063 0
M  V30 6686 H 629.257 -3.08347 0.985067 0
M  V30 6687 H 628.164 -2.11102 3.08847 0
M  V30 6688 H 629.497 -2.79369 4.05233 0
M  V30 6689 N 631.149 -1.42148 -0.680565 0
M  V30 6690 C 632.395 -1.4352 -1.44131 0
M  V30 6691 C 632.75 -0.0486244 -1.92339 0
M  V30 6692 O 632.043 0.92819 -1.67616 0
M  V30 6693 C 632.237 -2.38945 -2.65782 0
M  V30 6694 C 632.066 -3.86743 -2.29477 0
M  V30 6695 C 630.836 -4.5532 -2.19115 0
M  V30 6696 C 633.034 -4.77321 -1.91491 0
M  V30 6697 N 631.016 -5.88174 -1.75853 0
M  V30 6698 C 632.387 -5.99238 -1.59103 0
M  V30 6699 C 634.442 -4.64829 -1.78432 0
M  V30 6700 C 633.145 -7.10053 -1.14968 0
M  V30 6701 C 635.171 -5.75621 -1.35702 0
M  V30 6702 C 634.533 -6.96645 -1.04234 0
M  V30 6703 H 630.632 -0.580363 -0.524121 0
M  V30 6704 H 633.216 -1.78132 -0.785939 0
M  V30 6705 H 631.387 -2.06403 -3.29017 0
M  V30 6706 H 633.119 -2.30935 -3.32342 0
M  V30 6707 H 629.874 -4.09456 -2.37998 0
M  V30 6708 H 630.298 -6.58625 -1.56661 0
M  V30 6709 H 634.94 -3.71745 -2.01409 0
M  V30 6710 H 632.658 -8.0299 -0.907365 0
M  V30 6711 H 636.244 -5.67964 -1.26126 0
M  V30 6712 H 635.124 -7.80918 -0.716707 0
M  V30 6713 N 632.627 0.916307 -1.28225 0
M  V30 6714 C 633.852 1.7043 -1.18188 0
M  V30 6715 C 634.277 1.86346 0.256274 0
M  V30 6716 O 633.635 1.37175 1.18544 0
M  V30 6717 C 633.683 3.07546 -1.88275 0
M  V30 6718 O 632.787 3.94904 -1.18848 0
M  V30 6719 H 632.128 0.521967 -0.410423 0
M  V30 6720 H 634.658 1.14589 -1.69501 0
M  V30 6721 H 634.668 3.57793 -1.96082 0
M  V30 6722 H 633.343 2.95279 -2.92887 0
M  V30 6723 H 631.92 3.53339 -1.19187 0
M  V30 6724 N 634.105 1.10431 1.1244 0
M  V30 6725 C 635.015 0.765502 2.21759 0
M  V30 6726 C 636.031 -0.236966 1.72379 0
M  V30 6727 O 637.207 -0.0757329 2.01258 0
M  V30 6728 C 634.272 0.202316 3.46109 0
M  V30 6729 C 633.333 1.26205 4.1033 0
M  V30 6730 C 632.566 0.725648 5.28744 0
M  V30 6731 O 632.789 -0.447942 5.68638 0
M  V30 6732 O 631.723 1.48555 5.83279 0
M  V30 6733 H 635.549 1.67801 2.53133 0
M  V30 6734 H 633.134 0.879443 1.20773 0
M  V30 6735 H 635.016 -0.107918 4.21262 0
M  V30 6736 H 633.691 -0.683052 3.16411 0
M  V30 6737 H 632.598 1.62514 3.36957 0
M  V30 6738 H 633.931 2.12044 4.44183 0
M  V30 6739 N 635.583 -1.29855 0.893053 0
M  V30 6740 C 636.546 -2.26183 0.370687 0
M  V30 6741 C 637.546 -1.53108 -0.491385 0
M  V30 6742 O 638.736 -1.71643 -0.297386 0
M  V30 6743 C 635.868 -3.37633 -0.470827 0
M  V30 6744 H 637.061 -2.73903 1.22135 0
M  V30 6745 H 634.614 -1.41183 0.67061 0
M  V30 6746 H 635.349 -2.95241 -1.34175 0
M  V30 6747 H 635.134 -3.91825 0.146784 0
M  V30 6748 H 636.624 -4.09313 -0.827825 0
M  V30 6749 N 637.061 -0.65484 -1.43351 0
M  V30 6750 C 638.477 -0.32255 -1.56307 0
M  V30 6751 C 638.677 1.17324 -1.63821 0
M  V30 6752 O 637.733 1.95813 -1.59417 0
M  V30 6753 C 639.046 -1.03533 -2.82314 0
M  V30 6754 C 640.594 -1.01574 -2.9606 0
M  V30 6755 C 641.069 -1.70945 -4.24902 0
M  V30 6756 N 642.56 -1.67716 -4.3177 0
M  V30 6757 C 643.295 -2.18265 -5.30234 0
M  V30 6758 N 642.791 -2.7711 -6.34966 0
M  V30 6759 N 644.584 -2.08756 -5.21898 0
M  V30 6760 H 636.735 -1.62549 -1.36717 0
M  V30 6761 H 638.998 -0.683676 -0.656727 0
M  V30 6762 H 638.704 -2.09045 -2.8283 0
M  V30 6763 H 638.578 -0.587913 -3.7259 0
M  V30 6764 H 640.965 0.0309834 -2.95084 0
M  V30 6765 H 641.046 -1.50186 -2.07069 0
M  V30 6766 H 640.69 -2.75574 -4.26639 0
M  V30 6767 H 640.62 -1.19797 -5.12793 0
M  V30 6768 H 643.111 -1.24777 -3.56706 0
M  V30 6769 H 643.424 -3.13353 -7.06421 0
M  V30 6770 H 641.769 -2.81171 -6.35585 0
M  V30 6771 H 644.96 -1.62488 -4.38994 0
M  V30 6772 H 645.133 -2.48459 -5.98475 0
M  V30 6773 N 638.539 1.52521 -0.396863 0
M  V30 6774 C 639.764 2.06571 0.185258 0
M  V30 6775 C 640.189 1.26605 1.39115 0
M  V30 6776 O 639.547 0.293055 1.78916 0
M  V30 6777 C 639.595 3.5674 0.526189 0
M  V30 6778 O 638.699 3.7929 1.61903 0
M  V30 6779 H 638.04 0.663712 0.0195474 0
M  V30 6780 H 640.57 1.966 -0.566519 0
M  V30 6781 H 640.58 4.00311 0.788338 0
M  V30 6782 H 639.255 4.14379 -0.355397 0
M  V30 6783 H 637.832 3.47605 1.35 0
M  V30 6784 N 640.017 0.126909 1.57088 0
M  V30 6785 C 641.263 -0.523662 1.96543 0
M  V30 6786 C 641.618 -1.63783 1.0096 0
M  V30 6787 O 640.911 -1.91556 0.0410175 0
M  V30 6788 C 641.105 -1.095 3.40212 0
M  V30 6789 C 640.934 -0.037715 4.49684 0
M  V30 6790 C 639.704 0.396823 5.03739 0
M  V30 6791 C 641.902 0.746245 5.08857 0
M  V30 6792 N 639.884 1.43905 5.96795 0
M  V30 6793 C 641.255 1.63947 5.97931 0
M  V30 6794 C 643.31 0.796259 4.91492 0
M  V30 6795 C 642.013 2.57837 6.715 0
M  V30 6796 C 644.039 1.7229 5.65747 0
M  V30 6797 C 643.401 2.60369 6.54513 0
M  V30 6798 H 639.5 -0.161016 0.765244 0
M  V30 6799 H 642.084 0.21686 1.93489 0
M  V30 6800 H 640.255 -1.80521 3.43899 0
M  V30 6801 H 641.987 -1.71054 3.66773 0
M  V30 6802 H 638.742 0.00290406 4.736 0
M  V30 6803 H 639.166 1.95932 6.48027 0
M  V30 6804 H 643.808 0.129412 4.22602 0
M  V30 6805 H 641.526 3.25532 7.39631 0
M  V30 6806 H 645.112 1.76715 5.54313 0
M  V30 6807 H 643.992 3.30906 7.10965 0
M  V30 6808 N 641.495 -1.56914 -0.146875 0
M  V30 6809 C 642.772 -1.74273 -0.888165 0
M  V30 6810 C 643.152 -0.69496 -1.99333 0
M  V30 6811 O 642.5 0.286093 -2.26702 0
M  V30 6812 C 642.71 -3.18336 -1.43051 0
M  V30 6813 C 644.058 -3.80024 -1.89387 0
M  V30 6814 O 645.082 -3.21765 -1.52792 0
M  V30 6815 O 643.941 -4.82367 -2.56874 0
M  V30 6816 H 641.035 -0.712565 -0.419738 0
M  V30 6817 H 643.581 -1.6918 -0.132791 0
M  V30 6818 H 642.353 -3.86092 -0.636274 0
M  V30 6819 H 641.976 -3.27854 -2.24938 0
M  V30 6820 N 642.974 0.416227 -1.52004 0
M  V30 6821 C 644.202 1.18573 -1.69553 0
M  V30 6822 C 644.617 1.84472 -0.401919 0
M  V30 6823 O 643.974 1.71593 0.621463 0
M  V30 6824 C 644.025 2.25413 -2.82615 0
M  V30 6825 O 643.746 1.62205 -4.06966 0
M  V30 6826 C 645.247 3.15297 -3.11613 0
M  V30 6827 H 642.467 0.356582 -0.56841 0
M  V30 6828 H 645.011 0.490618 -1.98528 0
M  V30 6829 H 643.166 2.90604 -2.56179 0
M  V30 6830 H 643.58 2.3298 -4.69916 0
M  V30 6831 H 645.054 3.86351 -3.94255 0
M  V30 6832 H 645.531 3.77264 -2.24874 0
M  V30 6833 H 646.137 2.55783 -3.39787 0
M  V30 6834 N 644.452 1.42507 0.673017 0
M  V30 6835 C 645.362 1.4853 1.81593 0
M  V30 6836 C 646.378 0.373907 1.69935 0
M  V30 6837 O 647.554 0.625078 1.91454 0
M  V30 6838 C 644.619 1.387 3.17747 0
M  V30 6839 C 643.68 2.60346 3.41348 0
M  V30 6840 C 642.913 2.50975 4.71007 0
M  V30 6841 O 643.136 1.54659 5.49033 0
M  V30 6842 O 642.07 3.41138 4.95892 0
M  V30 6843 H 645.896 2.45001 1.79467 0
M  V30 6844 H 643.481 1.2429 0.82899 0
M  V30 6845 H 645.363 1.35586 3.98992 0
M  V30 6846 H 644.038 0.453555 3.20507 0
M  V30 6847 H 642.945 2.69034 2.59945 0
M  V30 6848 H 644.278 3.52595 3.43421 0
M  V30 6849 N 645.93 -0.909495 1.28709 0
M  V30 6850 C 647.155 -1.69801 1.1909 0
M  V30 6851 C 647.58 -1.86479 -0.246388 0
M  V30 6852 O 646.938 -1.37802 -1.17815 0
M  V30 6853 C 646.986 -3.06543 1.89904 0
M  V30 6854 O 646.09 -3.94268 1.2094 0
M  V30 6855 H 645.431 -0.519783 0.413185 0
M  V30 6856 H 647.961 -1.13689 1.70106 0
M  V30 6857 H 647.971 -3.56748 1.97977 0
M  V30 6858 H 646.646 -2.93722 2.94449 0
M  V30 6859 H 645.223 -3.52702 1.2106 0
M  V30 6860 N 647.408 -1.11026 -1.11852 0
M  V30 6861 C 648.654 -0.857729 -1.83768 0
M  V30 6862 C 648.987 0.615143 -1.842 0
M  V30 6863 O 648.262 1.45391 -1.29196 0
M  V30 6864 C 648.545 -1.41453 -3.31154 0
M  V30 6865 C 648.398 -2.95471 -3.39142 0
M  V30 6866 C 649.717 -1.0619 -4.27097 0
M  V30 6867 H 646.836 -0.313044 -0.667212 0
M  V30 6868 H 649.478 -1.37443 -1.31185 0
M  V30 6869 H 647.628 -0.975052 -3.76065 0
M  V30 6870 H 649.3 -3.4799 -3.02821 0
M  V30 6871 H 647.543 -3.31759 -2.79497 0
M  V30 6872 H 648.214 -3.29515 -4.42859 0
M  V30 6873 H 650.69 -1.44122 -3.90344 0
M  V30 6874 H 649.566 -1.47832 -5.28618 0
M  V30 6875 H 649.827 0.0278912 -4.42091 0
M  V30 6876 N 648.886 1.2938 -0.899927 0
M  V30 6877 C 649.816 2.30144 -0.39446 0
M  V30 6878 C 650.797 1.61611 0.530639 0
M  V30 6879 O 651.982 1.89119 0.441319 0
M  V30 6880 C 649.112 3.45229 0.37868 0
M  V30 6881 C 648.066 4.25564 -0.456012 0
M  V30 6882 C 647.392 5.32848 0.444637 0
M  V30 6883 C 648.692 4.93651 -1.70605 0
M  V30 6884 H 650.386 2.72673 -1.23653 0
M  V30 6885 H 647.932 1.31086 -0.596034 0
M  V30 6886 H 649.885 4.14797 0.743037 0
M  V30 6887 H 648.609 3.01545 1.25453 0
M  V30 6888 H 647.268 3.57704 -0.802704 0
M  V30 6889 H 646.916 4.85408 1.31863 0
M  V30 6890 H 646.616 5.87497 -0.110154 0
M  V30 6891 H 648.14 6.05268 0.805182 0
M  V30 6892 H 649.554 5.55655 -1.41141 0
M  V30 6893 H 647.951 5.58233 -2.20217 0
M  V30 6894 H 649.021 4.18926 -2.4419 0
M  V30 6895 N 650.364 0.662433 1.43002 0
M  V30 6896 C 651.775 0.258315 1.84904 0
M  V30 6897 C 652.126 -1.19703 1.55453 0
M  V30 6898 O 651.251 -1.91484 1.00811 0
M  V30 6899 C 651.846 0.462047 3.35635 0
M  V30 6900 C 650.405 0.112165 3.76233 0
M  V30 6901 C 649.552 0.760479 2.66668 0
M  V30 6902 H 652.503 0.865467 1.33024 0
M  V30 6903 H 652.524 -0.289646 3.79396 0
M  V30 6904 H 652.036 1.52135 3.57039 0
M  V30 6905 H 650.137 -0.944179 3.60439 0
M  V30 6906 H 650.25 0.544058 4.76001 0
M  V30 6907 H 648.614 0.192887 2.53969 0
M  V30 6908 H 649.397 1.82299 2.90898 0
M  V30 6909 N 651.842 -1.52309 0.404946 0
M  V30 6910 C 652.775 -2.23369 -0.467087 0
M  V30 6911 C 653.753 -1.24034 -1.0514 0
M  V30 6912 O 654.937 -1.53071 -1.10006 0
M  V30 6913 C 652.064 -2.95906 -1.64795 0
M  V30 6914 C 651.11 -4.09637 -1.18743 0
M  V30 6915 S 651.943 -5.35273 -0.156022 0
M  V30 6916 C 653.099 -6.11337 -1.34231 0
M  V30 6917 H 653.332 -2.96987 0.136294 0
M  V30 6918 H 650.865 -1.53236 0.189219 0
M  V30 6919 H 652.823 -3.38304 -2.3251 0
M  V30 6920 H 651.484 -2.21937 -2.22267 0
M  V30 6921 H 650.677 -4.59549 -2.06955 0
M  V30 6922 H 650.279 -3.69333 -0.588981 0
M  V30 6923 H 652.571 -6.38458 -2.26665 0
M  V30 6924 H 653.514 -7.02563 -0.883804 0
M  V30 6925 H 653.922 -5.42338 -1.56621 0
M  V30 6926 N 653.32 -0.135238 -1.57019 0
M  V30 6927 C 654.566 0.513232 -1.96818 0
M  V30 6928 C 654.921 1.63245 -1.01827 0
M  V30 6929 O 654.214 1.91532 -0.0511756 0
M  V30 6930 C 654.408 1.07694 -3.40788 0
M  V30 6931 C 654.237 0.0138667 -4.49698 0
M  V30 6932 C 653.007 -0.423532 -5.03522 0
M  V30 6933 C 655.205 -0.77322 -5.08454 0
M  V30 6934 N 653.187 -1.47068 -5.96024 0
M  V30 6935 C 654.558 -1.67115 -5.97053 0
M  V30 6936 C 656.613 -0.822313 -4.91063 0
M  V30 6937 C 655.316 -2.61395 -6.70123 0
M  V30 6938 C 657.342 -1.75288 -5.64826 0
M  V30 6939 C 656.704 -2.63836 -6.53123 0
M  V30 6940 H 652.803 0.156956 -0.766087 0
M  V30 6941 H 655.387 -0.227118 -1.93371 0
M  V30 6942 H 653.558 1.78694 -3.44852 0
M  V30 6943 H 655.29 1.69106 -3.67675 0
M  V30 6944 H 652.045 -0.0280202 -4.73592 0
M  V30 6945 H 652.469 -1.99366 -6.46979 0
M  V30 6946 H 657.111 -0.151822 -4.22527 0
M  V30 6947 H 654.829 -3.2945 -7.37895 0
M  V30 6948 H 658.415 -1.79652 -5.53368 0
M  V30 6949 H 657.295 -3.34672 -7.092 0
M  V30 6950 N 654.798 1.5699 0.138552 0
M  V30 6951 C 656.044 1.84081 0.85099 0
M  V30 6952 C 656.377 0.718107 1.80435 0
M  V30 6953 O 655.652 -0.277633 1.92508 0
M  V30 6954 C 655.935 3.21699 1.61808 0
M  V30 6955 C 655.788 4.44544 0.685633 0
M  V30 6956 C 657.107 3.5664 2.57868 0
M  V30 6957 H 654.226 0.669592 0.307922 0
M  V30 6958 H 656.868 1.89646 0.11588 0
M  V30 6959 H 655.018 3.17086 2.24474 0
M  V30 6960 H 656.69 4.61248 0.0693179 0
M  V30 6961 H 654.933 4.338 -0.00421993 0
M  V30 6962 H 655.604 5.3746 1.25858 0
M  V30 6963 H 658.08 3.61918 2.05316 0
M  V30 6964 H 656.956 4.53946 3.08584 0
M  V30 6965 H 657.217 2.83036 3.39622 0
M  V30 6966 N 656.276 -0.40816 1.52223 0
M  V30 6967 C 657.206 -1.5042 1.78595 0
M  V30 6968 C 658.187 -1.57723 0.636974 0
M  V30 6969 O 659.372 -1.72982 0.882664 0
M  V30 6970 C 656.502 -2.88232 1.93751 0
M  V30 6971 C 655.456 -2.95779 3.09352 0
M  V30 6972 C 654.782 -4.35855 3.09732 0
M  V30 6973 C 656.082 -2.67175 4.48793 0
M  V30 6974 H 657.776 -1.28601 2.70374 0
M  V30 6975 H 655.322 -0.617221 1.30101 0
M  V30 6976 H 657.275 -3.64895 2.10783 0
M  V30 6977 H 655.999 -3.11347 0.986443 0
M  V30 6978 H 654.658 -2.21561 2.92072 0
M  V30 6979 H 654.306 -4.55981 2.12346 0
M  V30 6980 H 654.006 -4.41829 3.87377 0
M  V30 6981 H 655.53 -5.14451 3.28895 0
M  V30 6982 H 656.944 -3.3356 4.66273 0
M  V30 6983 H 655.341 -2.84523 5.28362 0
M  V30 6984 H 656.411 -1.62609 4.56822 0
M  V30 6985 N 657.755 -1.42862 -0.66545 0
M  V30 6986 C 658.718 -1.46756 -1.76055 0
M  V30 6987 C 659.718 -0.353866 -1.56858 0
M  V30 6988 O 660.908 -0.615099 -1.62979 0
M  V30 6989 C 658.04 -1.30829 -3.14796 0
M  V30 6990 H 659.233 -2.44271 -1.73987 0
M  V30 6991 H 656.786 -1.29447 -0.875965 0
M  V30 6992 H 657.521 -0.342733 -3.22484 0
M  V30 6993 H 657.306 -2.11551 -3.30134 0
M  V30 6994 H 658.796 -1.36458 -3.94676 0
M  V30 6995 N 659.233 0.902656 -1.29189 0
M  V30 6996 C 660.163 2.02294 -1.16616 0
M  V30 6997 C 661.144 1.6999 -0.0611175 0
M  V30 6998 O 662.329 1.9271 -0.240072 0
M  V30 6999 C 659.459 3.37018 -0.83882 0
M  V30 7000 C 658.413 3.83522 -1.89986 0
M  V30 7001 C 657.739 5.15337 -1.42589 0
M  V30 7002 C 659.039 4.04169 -3.30824 0
M  V30 7003 H 660.733 2.13071 -2.10336 0
M  V30 7004 H 658.279 1.02378 -1.01266 0
M  V30 7005 H 660.232 4.14895 -0.737584 0
M  V30 7006 H 658.956 3.26325 0.134071 0
M  V30 7007 H 657.615 3.07859 -1.99043 0
M  V30 7008 H 657.263 5.01056 -0.441759 0
M  V30 7009 H 656.963 5.47423 -2.13547 0
M  V30 7010 H 658.487 5.95758 -1.3381 0
M  V30 7011 H 659.901 4.72537 -3.24626 0
M  V30 7012 H 658.298 4.47604 -3.99713 0
M  V30 7013 H 659.368 3.08604 -3.74021 0
M  V30 7014 N 660.711 1.11618 1.11262 0
M  V30 7015 C 661.96 0.860934 1.82403 0
M  V30 7016 C 662.273 -0.615303 1.8567 0
M  V30 7017 O 663.479 -0.986861 2.52929 0
M  V30 7018 C 661.935 1.49048 3.27586 0
M  V30 7019 C 661.543 3.00089 3.32642 0
M  V30 7020 C 663.287 1.31515 4.03614 0
M  V30 7021 C 661.194 3.56019 4.72234 0
M  V30 7022 H 660.124 0.318423 0.683464 0
M  V30 7023 H 662.775 1.34165 1.25188 0
M  V30 7024 H 661.157 0.937434 3.84744 0
M  V30 7025 H 662.331 3.61813 2.85356 0
M  V30 7026 H 660.646 3.16919 2.70096 0
M  V30 7027 H 663.243 1.70732 5.0671 0
M  V30 7028 H 663.586 0.257917 4.155 0
M  V30 7029 H 664.119 1.83694 3.52848 0
M  V30 7030 H 660.858 4.61463 4.65545 0
M  V30 7031 H 660.378 2.99066 5.19923 0
M  V30 7032 H 662.057 3.54568 5.41193 0
M  V30 7033 N 662.189 -1.289 0.906776 0
M  V30 7034 C 663.435 -1.95558 0.53712 0
M  V30 7035 C 663.768 -1.71262 -0.915582 0
M  V30 7036 O 663.043 -1.02961 -1.65013 0
M  V30 7037 C 663.326 -3.50198 0.838645 0
M  V30 7038 C 663.179 -3.83923 2.34357 0
M  V30 7039 C 664.498 -4.38861 0.329988 0
M  V30 7040 H 661.617 -0.710289 0.196617 0
M  V30 7041 H 664.259 -1.52392 1.13475 0
M  V30 7042 H 662.409 -3.87096 0.330024 0
M  V30 7043 H 664.081 -3.56933 2.92227 0
M  V30 7044 H 662.324 -3.31215 2.80141 0
M  V30 7045 H 662.995 -4.91883 2.5051 0
M  V30 7046 H 665.471 -4.08996 0.765609 0
M  V30 7047 H 664.347 -5.45931 0.570105 0
M  V30 7048 H 664.608 -4.35352 -0.769511 0
M  V30 7049 N 663.667 -0.670007 -1.42649 0
M  V30 7050 C 664.916 -0.187526 -2.00826 0
M  V30 7051 C 665.229 1.21142 -1.53571 0
M  V30 7052 O 666.435 1.79001 -2.04134 0
M  V30 7053 C 664.891 -0.284409 -3.58774 0
M  V30 7054 C 664.499 -1.6871 -4.15019 0
M  V30 7055 C 666.243 0.139605 -4.2427 0
M  V30 7056 C 664.15 -1.73701 -5.65316 0
M  V30 7057 H 663.08 -0.0663468 -0.751075 0
M  V30 7058 H 665.731 -0.834492 -1.63427 0
M  V30 7059 H 664.113 0.430364 -3.93655 0
M  V30 7060 H 665.287 -2.42857 -3.91608 0
M  V30 7061 H 663.602 -2.05855 -3.61957 0
M  V30 7062 H 666.199 0.122398 -5.3456 0
M  V30 7063 H 666.542 1.17403 -3.99402 0
M  V30 7064 H 667.075 -0.523995 -3.94334 0
M  V30 7065 H 663.814 -2.75109 -5.94975 0
M  V30 7066 H 663.334 -1.03903 -5.90732 0
M  V30 7067 H 665.013 -1.48829 -6.2965 0
M  V30 7068 N 665.145 1.52092 -0.413018 0
M  V30 7069 C 666.392 2.01855 0.161497 0
M  V30 7070 C 666.72 1.29845 1.44812 0
M  V30 7071 O 665.975 0.394471 1.91683 0
M  V30 7072 C 666.274 3.54529 0.4521 0
M  V30 7073 C 665.94 4.4469 -0.745788 0
M  V30 7074 C 664.602 4.69053 -1.07435 0
M  V30 7075 C 666.954 4.97742 -1.54604 0
M  V30 7076 C 664.282 5.43717 -2.20429 0
M  V30 7077 C 666.634 5.73642 -2.66678 0
M  V30 7078 C 665.298 5.96277 -3.00016 0
M  V30 7079 H 664.568 0.73864 0.0590961 0
M  V30 7080 H 667.215 1.83274 -0.555234 0
M  V30 7081 H 665.52 3.7131 1.25045 0
M  V30 7082 H 667.217 3.90546 0.909647 0
M  V30 7083 H 663.807 4.25907 -0.479725 0
M  V30 7084 H 667.991 4.78824 -1.30543 0
M  V30 7085 H 663.247 5.59462 -2.46602 0
M  V30 7086 H 667.421 6.13746 -3.29072 0
M  V30 7087 H 665.048 6.53913 -3.87688 0
M  V30 7088 N 666.623 0.143563 1.56945 0
M  V30 7089 C 667.553 -0.7936 2.196 0
M  V30 7090 C 668.534 -1.25955 1.14321 0
M  V30 7091 O 669.719 -1.31773 1.42651 0
M  V30 7092 C 666.849 -2.03424 2.81489 0
M  V30 7093 C 665.803 -1.70519 3.92565 0
M  V30 7094 C 665.129 -3.01817 4.41373 0
M  V30 7095 C 666.429 -0.95449 5.13504 0
M  V30 7096 H 668.123 -0.271423 2.98167 0
M  V30 7097 H 665.669 -0.12911 1.4342 0
M  V30 7098 H 667.622 -2.69463 3.23987 0
M  V30 7099 H 666.346 -2.58008 2.00248 0
M  V30 7100 H 665.005 -1.06859 3.5068 0
M  V30 7101 H 664.653 -3.54386 3.56959 0
M  V30 7102 H 664.353 -2.80565 5.16292 0
M  V30 7103 H 665.877 -3.68934 4.86539 0
M  V30 7104 H 667.291 -1.5169 5.52868 0
M  V30 7105 H 665.688 -0.842035 5.94163 0
M  V30 7106 H 666.758 0.0544033 4.84869 0
M  V30 7107 N 668.101 -1.57061 -0.130224 0
M  V30 7108 C 669.329 -1.88432 -0.854456 0
M  V30 7109 C 669.744 -0.733608 -1.73964 0
M  V30 7110 O 669.101 0.296029 -1.80083 0
M  V30 7111 C 669.152 -3.1918 -1.69724 0
M  V30 7112 O 668.873 -4.2982 -0.847705 0
M  V30 7113 C 670.374 -3.6418 -2.5276 0
M  V30 7114 H 667.594 -0.624193 -0.246221 0
M  V30 7115 H 670.138 -2.04159 -0.11798 0
M  V30 7116 H 668.293 -3.05156 -2.3866 0
M  V30 7117 H 668.707 -5.04689 -1.42792 0
M  V30 7118 H 670.181 -4.58457 -3.07443 0
M  V30 7119 H 670.658 -2.90285 -3.29592 0
M  V30 7120 H 671.264 -3.80954 -1.89087 0
M  V30 7121 N 669.579 0.400081 -1.52437 0
M  V30 7122 C 670.828 1.14332 -1.66166 0
M  V30 7123 C 671.141 1.91419 -0.402253 0
M  V30 7124 O 672.347 2.6824 -0.419487 0
M  V30 7125 C 670.803 2.08137 -2.9361 0
M  V30 7126 C 670.411 1.36524 -4.26691 0
M  V30 7127 C 672.155 2.82664 -3.16703 0
M  V30 7128 C 670.062 2.29031 -5.45251 0
M  V30 7129 H 668.992 0.430499 -0.61902 0
M  V30 7130 H 671.643 0.407017 -1.78929 0
M  V30 7131 H 670.025 2.85358 -2.74567 0
M  V30 7132 H 671.199 0.646061 -4.56249 0
M  V30 7133 H 669.514 0.74002 -4.09771 0
M  V30 7134 H 672.111 3.52037 -4.0246 0
M  V30 7135 H 672.454 3.46122 -2.31312 0
M  V30 7136 H 672.987 2.12541 -3.36261 0
M  V30 7137 H 669.726 1.70206 -6.33017 0
M  V30 7138 H 669.246 2.98896 -5.2002 0
M  V30 7139 H 670.925 2.89359 -5.78689 0
M  V30 7140 N 671.057 1.43213 0.657864 0
M  V30 7141 C 672.02 1.47687 1.75275 0
M  V30 7142 C 673.02 0.362179 1.56668 0
M  V30 7143 O 674.21 0.623734 1.62651 0
M  V30 7144 C 671.342 1.32497 3.14098 0
M  V30 7145 H 672.535 2.4519 1.7269 0
M  V30 7146 H 670.088 1.2991 0.869087 0
M  V30 7147 H 670.823 0.359831 3.22298 0
M  V30 7148 H 670.608 2.13299 3.29008 0
M  V30 7149 H 672.098 1.38549 3.93946 0
M  V30 7150 N 672.536 -0.895792 1.29666 0
M  V30 7151 C 673.782 -1.64908 1.18039 0
M  V30 7152 C 674.115 -1.9236 -0.266682 0
M  V30 7153 O 673.39 -1.53682 -1.19214 0
M  V30 7154 C 673.673 -2.99574 1.99819 0
M  V30 7155 C 673.526 -2.79163 3.52687 0
M  V30 7156 C 674.845 -4.00358 1.82761 0
M  V30 7157 H 671.964 -0.598437 0.430165 0
M  V30 7158 H 674.606 -1.03736 1.59182 0
M  V30 7159 H 672.756 -3.51786 1.64859 0
M  V30 7160 H 674.428 -2.33821 3.9765 0
M  V30 7161 H 672.671 -2.13871 3.77414 0
M  V30 7162 H 673.342 -3.74871 4.05186 0
M  V30 7163 H 675.818 -3.57268 2.13304 0
M  V30 7164 H 674.694 -4.92514 2.42325 0
M  V30 7165 H 674.955 -4.35096 0.783839 0
M  V30 7166 N 674.014 -1.12206 -1.10668 0
M  V30 7167 C 674.944 -0.810086 -2.18997 0
M  V30 7168 C 675.925 0.225065 -1.68604 0
M  V30 7169 O 677.11 0.086783 -1.94006 0
M  V30 7170 C 674.24 -0.261262 -3.46316 0
M  V30 7171 C 673.194 -1.2292 -4.09969 0
M  V30 7172 C 672.52 -0.540713 -5.31959 0
M  V30 7173 C 673.82 -2.58295 -4.53962 0
M  V30 7174 H 675.514 -1.7159 -2.45352 0
M  V30 7175 H 673.06 -0.82646 -1.17922 0
M  V30 7176 H 675.013 -0.0307522 -4.21389 0
M  V30 7177 H 673.737 0.679879 -3.19445 0
M  V30 7178 H 672.396 -1.44548 -3.369 0
M  V30 7179 H 672.044 0.405492 -5.01363 0
M  V30 7180 H 671.744 -1.18637 -5.75499 0
M  V30 7181 H 673.268 -0.319184 -6.09765 0
M  V30 7182 H 674.682 -2.40709 -5.20319 0
M  V30 7183 H 673.079 -3.18916 -5.08343 0
M  V30 7184 H 674.149 -3.16918 -3.67002 0
M  V30 7185 N 675.492 1.28418 -0.913599 0
M  V30 7186 C 676.422 2.29713 -0.418847 0
M  V30 7187 C 677.403 1.62165 0.513469 0
M  V30 7188 O 678.588 1.89576 0.421235 0
M  V30 7189 C 675.718 3.45612 0.342042 0
M  V30 7190 C 674.672 4.25056 -0.501123 0
M  V30 7191 C 673.998 5.3329 0.388097 0
M  V30 7192 C 675.298 4.91814 -1.75831 0
M  V30 7193 H 676.992 2.71346 -1.26538 0
M  V30 7194 H 674.538 1.30446 -0.609903 0
M  V30 7195 H 676.491 4.15562 0.699 0
M  V30 7196 H 675.215 3.02858 1.22248 0
M  V30 7197 H 673.874 3.56833 -0.840598 0
M  V30 7198 H 673.522 4.8678 1.26707 0
M  V30 7199 H 673.222 5.87347 -0.172459 0
M  V30 7200 H 674.746 6.06088 0.74094 0
M  V30 7201 H 676.16 5.54126 -1.47026 0
M  V30 7202 H 674.557 5.55866 -2.26126 0
M  V30 7203 H 675.627 4.16313 -2.4862 0
M  V30 7204 N 676.97 0.677563 1.42291 0
M  V30 7205 C 677.933 0.0101085 2.29198 0
M  V30 7206 C 678.933 -0.726219 1.43467 0
M  V30 7207 O 680.123 -0.563807 1.64824 0
M  V30 7208 C 677.255 -0.996316 3.26016 0
M  V30 7209 H 678.448 0.775071 2.89711 0
M  V30 7210 H 676.001 0.440065 1.49977 0
M  V30 7211 H 676.736 -1.78967 2.70446 0
M  V30 7212 H 676.521 -0.471687 3.89253 0
M  V30 7213 H 678.011 -1.46167 3.91184 0
M  V30 7214 N 678.448 -1.51871 0.421078 0
M  V30 7215 C 679.378 -2.30231 -0.389363 0
M  V30 7216 C 680.359 -1.34946 -1.03555 0
M  V30 7217 O 681.544 -1.63859 -1.04229 0
M  V30 7218 C 678.674 -3.13247 -1.49979 0
M  V30 7219 C 677.628 -4.16677 -0.977966 0
M  V30 7220 C 676.954 -4.88112 -2.1829 0
M  V30 7221 C 678.254 -5.22295 -0.0236775 0
M  V30 7222 H 679.948 -2.98229 0.264524 0
M  V30 7223 H 677.494 -1.43424 0.12866 0
M  V30 7224 H 679.447 -3.66838 -2.07383 0
M  V30 7225 H 678.171 -2.4304 -2.18173 0
M  V30 7226 H 676.83 -3.64114 -0.426245 0
M  V30 7227 H 676.478 -4.14423 -2.85066 0
M  V30 7228 H 676.178 -5.58041 -1.84021 0
M  V30 7229 H 677.702 -5.44521 -2.76278 0
M  V30 7230 H 679.116 -5.71055 -0.506899 0
M  V30 7231 H 677.513 -5.99656 0.230782 0
M  V30 7232 H 678.583 -4.76131 0.917999 0
M  V30 7233 N 679.926 -0.151884 -1.56866 0
M  V30 7234 C 681.342 0.204486 -1.58285 0
M  V30 7235 C 681.542 1.6431 -1.16639 0
M  V30 7236 O 680.598 2.37077 -0.868946 0
M  V30 7237 C 681.911 -0.0587019 -3.00643 0
M  V30 7238 C 683.459 0.00462303 -3.13 0
M  V30 7239 C 683.934 -0.231297 -4.57416 0
M  V30 7240 N 685.425 -0.178394 -4.62856 0
M  V30 7241 C 686.16 -0.335379 -5.72418 0
M  V30 7242 N 685.656 -0.550355 -6.90611 0
M  V30 7243 N 687.449 -0.272641 -5.61438 0
M  V30 7244 H 679.6 -1.09116 -1.82229 0
M  V30 7245 H 681.863 -0.432311 -0.843689 0
M  V30 7246 H 681.569 -1.05453 -3.35518 0
M  V30 7247 H 681.443 0.658508 -3.71407 0
M  V30 7248 H 683.83 0.991009 -2.77962 0
M  V30 7249 H 683.911 -0.744992 -2.44711 0
M  V30 7250 H 683.555 -1.2148 -4.93158 0
M  V30 7251 H 683.485 0.5387 -5.23837 0
M  V30 7252 H 685.976 -0.0170923 -3.77896 0
M  V30 7253 H 686.289 -0.660116 -7.69976 0
M  V30 7254 H 684.634 -0.586736 -6.92519 0
M  V30 7255 H 687.825 -0.105421 -4.67981 0
M  V30 7256 H 687.998 -0.398418 -6.46774 0
M  V30 7257 N 681.404 1.57128 0.121893 0
M  V30 7258 C 682.651 1.847 0.830188 0
M  V30 7259 C 682.979 0.736543 1.80015 0
M  V30 7260 O 682.234 -0.272358 1.93796 0
M  V30 7261 C 682.533 3.1874 1.61677 0
M  V30 7262 C 682.199 4.43901 0.791361 0
M  V30 7263 C 680.861 4.77887 0.563731 0
M  V30 7264 C 683.213 5.20753 0.215823 0
M  V30 7265 C 680.541 5.86168 -0.249737 0
M  V30 7266 C 682.893 6.29891 -0.584821 0
M  V30 7267 C 681.557 6.6241 -0.822794 0
M  V30 7268 H 680.827 0.675866 0.303787 0
M  V30 7269 H 683.474 1.91276 0.0926894 0
M  V30 7270 H 681.779 3.07728 2.42509 0
M  V30 7271 H 683.476 3.37295 2.16872 0
M  V30 7272 H 680.066 4.17272 0.978867 0
M  V30 7273 H 684.25 4.94851 0.378907 0
M  V30 7274 H 679.506 6.0979 -0.44336 0
M  V30 7275 H 683.68 6.88624 -1.03779 0
M  V30 7276 H 681.307 7.46147 -1.45496 0
M  V30 7277 N 682.882 -0.391992 1.52647 0
M  V30 7278 C 684.122 -1.1463 1.69232 0
M  V30 7279 C 684.486 -1.87312 0.421684 0
M  V30 7280 O 685.687 -2.64768 0.463852 0
M  V30 7281 C 683.958 -2.10088 2.89133 0
M  V30 7282 S 685.517 -2.93395 3.2629 0
M  V30 7283 H 682.335 -0.388076 0.59575 0
M  V30 7284 H 684.937 -0.431149 1.90687 0
M  V30 7285 H 683.641 -1.55408 3.79837 0
M  V30 7286 H 683.172 -2.86116 2.70003 0
M  V30 7287 H 685.187 -4.12193 2.76244 0
M  V30 7288 N 684.36 -1.4356 -0.65026 0
M  V30 7289 C 685.608 -1.45046 -1.40734 0
M  V30 7290 C 685.929 -0.0769822 -1.94848 0
M  V30 7291 O 685.199 0.888098 -1.74613 0
M  V30 7292 H 683.779 -0.534034 -0.522318 0
M  V30 7293 H 686.441 -1.79186 -0.766703 0
M  V30 7294 H 685.537 -2.16476 -2.24822 0
M  V30 7295 N 685.838 0.888903 -1.30139 0
M  V30 7296 C 687.087 1.63507 -1.18103 0
M  V30 7297 C 687.4 1.93808 0.264141 0
M  V30 7298 O 688.606 2.66744 0.505966 0
M  V30 7299 C 687.062 2.94673 -2.0663 0
M  V30 7300 C 686.67 2.71926 -3.56034 0
M  V30 7301 C 688.414 3.72626 -2.03346 0
M  V30 7302 C 686.321 3.98884 -4.3663 0
M  V30 7303 H 685.251 0.613426 -0.438435 0
M  V30 7304 H 687.902 0.984427 -1.54859 0
M  V30 7305 H 686.284 3.61009 -1.62754 0
M  V30 7306 H 687.458 2.14116 -4.08033 0
M  V30 7307 H 685.773 2.07353 -3.61101 0
M  V30 7308 H 688.37 4.66775 -2.60816 0
M  V30 7309 H 688.713 4.03712 -1.016 0
M  V30 7310 H 689.246 3.13147 -2.45324 0
M  V30 7311 H 685.985 3.72959 -5.39056 0
M  V30 7312 H 685.505 4.56214 -3.89396 0
M  V30 7313 H 687.184 4.66938 -4.47859 0
M  V30 7314 N 687.317 1.12792 1.10072 0
M  V30 7315 C 688.547 0.907189 1.85617 0
M  V30 7316 C 688.955 -0.547181 1.81115 0
M  V30 7317 O 688.298 -1.39024 1.20075 0
M  V30 7318 C 688.36 1.30872 3.34832 0
M  V30 7319 C 688.024 2.77516 3.6309 0
M  V30 7320 C 689.021 3.75696 3.59373 0
M  V30 7321 C 686.706 3.14513 3.91646 0
M  V30 7322 C 688.7 5.08888 3.83812 0
M  V30 7323 C 686.387 4.47886 4.15742 0
M  V30 7324 C 687.385 5.44882 4.11816 0
M  V30 7325 O 687.073 6.7585 4.35295 0
M  V30 7326 H 686.805 0.323855 0.593375 0
M  V30 7327 H 689.359 1.50262 1.40038 0
M  V30 7328 H 687.589 0.656518 3.81086 0
M  V30 7329 H 689.278 1.06153 3.91773 0
M  V30 7330 H 690.044 3.48458 3.37345 0
M  V30 7331 H 685.923 2.39622 3.93831 0
M  V30 7332 H 689.467 5.84586 3.80663 0
M  V30 7333 H 685.364 4.74851 4.37249 0
M  V30 7334 H 686.132 6.81853 4.52791 0
M  V30 7335 N 688.795 -1.27931 0.920396 0
M  V30 7336 C 690.043 -1.94304 0.555906 0
M  V30 7337 C 690.364 -1.72753 -0.904519 0
M  V30 7338 O 689.634 -1.07104 -1.64029 0
M  V30 7339 H 688.214 -0.719001 0.202599 0
M  V30 7340 H 690.876 -1.55785 1.1712 0
M  V30 7341 H 689.972 -3.02806 0.755981 0
M  V30 7342 N 690.273 -0.685099 -1.4193 0
M  V30 7343 C 691.503 -0.220052 -2.05425 0
M  V30 7344 C 691.911 1.13185 -1.51611 0
M  V30 7345 O 691.254 1.71631 -0.654875 0
M  V30 7346 C 691.316 -0.0888364 -3.5939 0
M  V30 7347 C 690.98 -1.37109 -4.35947 0
M  V30 7348 C 691.977 -2.30675 -4.65924 0
M  V30 7349 C 689.662 -1.62155 -4.75406 0
M  V30 7350 C 691.656 -3.47556 -5.34306 0
M  V30 7351 C 689.343 -2.79324 -5.43527 0
M  V30 7352 C 690.341 -3.71848 -5.72903 0
M  V30 7353 O 690.029 -4.86966 -6.39624 0
M  V30 7354 H 689.761 -0.102165 -0.668235 0
M  V30 7355 H 692.315 -0.935194 -1.82875 0
M  V30 7356 H 690.545 0.681981 -3.80639 0
M  V30 7357 H 692.234 0.337669 -4.04493 0
M  V30 7358 H 693 -2.12579 -4.3593 0
M  V30 7359 H 688.879 -0.910053 -4.51928 0
M  V30 7360 H 692.423 -4.19794 -5.57153 0
M  V30 7361 H 688.32 -2.97342 -5.72938 0
M  V30 7362 H 689.088 -4.86644 -6.58118 0
M  V30 7363 N 691.751 1.51645 -0.429126 0
M  V30 7364 C 693.167 1.59394 -0.080994 0
M  V30 7365 C 693.367 1.44064 1.40882 0
M  V30 7366 O 692.423 1.27771 2.17786 0
M  V30 7367 C 693.736 2.94779 -0.593773 0
M  V30 7368 C 695.284 3.08067 -0.553494 0
M  V30 7369 C 695.759 4.45963 -1.04311 0
M  V30 7370 N 697.25 4.5226 -1.00076 0
M  V30 7371 C 697.985 5.57268 -1.35056 0
M  V30 7372 N 697.481 6.69734 -1.77282 0
M  V30 7373 N 699.274 5.47582 -1.26925 0
M  V30 7374 H 691.425 1.59856 -1.39857 0
M  V30 7375 H 693.688 0.753095 -0.575805 0
M  V30 7376 H 693.394 3.11342 -1.63583 0
M  V30 7377 H 693.268 3.77197 -0.0142202 0
M  V30 7378 H 695.655 2.91177 0.479556 0
M  V30 7379 H 695.736 2.27508 -1.16935 0
M  V30 7380 H 695.38 4.63598 -2.07459 0
M  V30 7381 H 695.31 5.25049 -0.403873 0
M  V30 7382 H 697.801 3.71537 -0.690564 0
M  V30 7383 H 698.114 7.4587 -2.02232 0
M  V30 7384 H 696.459 6.70963 -1.81202 0
M  V30 7385 H 699.65 4.58604 -0.93809 0
M  V30 7386 H 699.823 6.29308 -1.54516 0
M  V30 7387 N 693.229 0.160201 1.56784 0
M  V30 7388 C 694.159 -0.770264 2.2043 0
M  V30 7389 C 695.14 -1.24736 1.15651 0
M  V30 7390 O 696.325 -1.30253 1.44041 0
M  V30 7391 C 693.455 -2.00427 2.83631 0
M  V30 7392 C 692.409 -1.66345 3.94352 0
M  V30 7393 C 691.735 -2.97119 4.4455 0
M  V30 7394 C 693.035 -0.899972 5.14488 0
M  V30 7395 H 694.729 -0.239783 2.98438 0
M  V30 7396 H 692.275 -0.113891 1.43549 0
M  V30 7397 H 694.228 -2.66012 3.26827 0
M  V30 7398 H 692.952 -2.5587 2.02973 0
M  V30 7399 H 691.611 -1.03133 3.51794 0
M  V30 7400 H 691.259 -3.5058 3.60698 0
M  V30 7401 H 690.959 -2.75073 5.19238 0
M  V30 7402 H 692.483 -3.63753 4.90425 0
M  V30 7403 H 693.897 -1.45818 5.54446 0
M  V30 7404 H 692.294 -0.778968 5.95023 0
M  V30 7405 H 693.364 0.105827 4.84785 0
M  V30 7406 N 694.707 -1.5719 -0.113559 0
M  V30 7407 C 696.123 -1.52607 -0.467253 0
M  V30 7408 C 696.323 -0.874058 -1.81556 0
M  V30 7409 O 695.379 -0.458703 -2.48299 0
M  V30 7410 C 696.692 -2.97363 -0.446736 0
M  V30 7411 C 698.24 -3.08482 -0.529903 0
M  V30 7412 C 698.715 -4.54809 -0.539721 0
M  V30 7413 N 700.206 -4.59284 -0.601005 0
M  V30 7414 C 700.941 -5.69927 -0.630138 0
M  V30 7415 N 700.437 -6.90051 -0.616589 0
M  V30 7416 N 702.23 -5.5805 -0.673558 0
M  V30 7417 H 694.381 -1.97958 0.769819 0
M  V30 7418 H 696.644 -0.90428 0.284572 0
M  V30 7419 H 696.35 -3.48458 0.47643 0
M  V30 7420 H 696.224 -3.55086 -1.27254 0
M  V30 7421 H 698.611 -2.57386 -1.44349 0
M  V30 7422 H 698.692 -2.53744 0.323695 0
M  V30 7423 H 698.336 -5.06552 0.369843 0
M  V30 7424 H 698.266 -5.07364 -1.41028 0
M  V30 7425 H 700.757 -3.72822 -0.617419 0
M  V30 7426 H 701.07 -7.70132 -0.641592 0
M  V30 7427 H 699.415 -6.92543 -0.583927 0
M  V30 7428 H 702.606 -4.63112 -0.681544 0
M  V30 7429 H 702.779 -6.44286 -0.692794 0
M  V30 7430 N 696.185 0.383891 -1.52853 0
M  V30 7431 C 697.601 0.724316 -1.42218 0
M  V30 7432 C 697.801 1.93943 -0.546654 0
M  V30 7433 O 696.857 2.5249 -0.0220562 0
M  V30 7434 C 698.17 0.954635 -2.85144 0
M  V30 7435 C 699.718 1.05579 -2.94656 0
M  V30 7436 C 700.193 1.3187 -4.38605 0
M  V30 7437 N 701.684 1.38681 -4.41952 0
M  V30 7438 C 702.419 1.60699 -5.50421 0
M  V30 7439 N 701.915 1.80154 -6.68967 0
M  V30 7440 N 703.708 1.6292 -5.37972 0
M  V30 7441 H 695.859 -0.4156 -2.08294 0
M  V30 7442 H 698.122 -0.123776 -0.939885 0
M  V30 7443 H 697.828 0.133829 -3.51445 0
M  V30 7444 H 697.702 1.86788 -3.27704 0
M  V30 7445 H 700.089 1.86716 -2.2852 0
M  V30 7446 H 700.17 0.120338 -2.55517 0
M  V30 7447 H 699.814 0.512416 -5.05309 0
M  V30 7448 H 699.744 2.26708 -4.75301 0
M  V30 7449 H 702.235 1.25334 -3.56511 0
M  V30 7450 H 702.548 1.96476 -7.47407 0
M  V30 7451 H 700.893 1.77368 -6.71986 0
M  V30 7452 H 704.084 1.47276 -4.44328 0
M  V30 7453 H 704.257 1.79739 -6.22574 0
M  V30 7454 N 697.663 1.43903 0.642637 0
M  V30 7455 C 698.61 1.49881 1.75512 0
M  V30 7456 C 699.58 0.347538 1.62423 0
M  V30 7457 O 700.765 0.556177 1.82514 0
M  V30 7458 C 697.905 1.43797 3.13714 0
M  V30 7459 C 697.018 2.6921 3.37861 0
M  V30 7460 C 696.153 2.5504 4.6597 0
M  V30 7461 C 695.192 3.75671 4.83257 0
M  V30 7462 N 694.329 3.60247 6.02633 0
M  V30 7463 H 699.169 2.44935 1.69737 0
M  V30 7464 H 696.706 1.21572 0.828165 0
M  V30 7465 H 698.664 1.38262 3.93624 0
M  V30 7466 H 697.294 0.523173 3.18532 0
M  V30 7467 H 696.346 2.8498 2.51973 0
M  V30 7468 H 697.658 3.58786 3.46517 0
M  V30 7469 H 696.812 2.47273 5.54023 0
M  V30 7470 H 695.551 1.63006 4.59653 0
M  V30 7471 H 694.556 3.83836 3.93637 0
M  V30 7472 H 695.781 4.68728 4.91397 0
M  V30 7473 H 693.727 2.70955 5.97427 0
M  V30 7474 H 693.644 4.43431 6.12295 0
M  V30 7475 H 694.912 3.56351 6.93278 0
M  V30 7476 N 699.141 -0.881989 1.30609 0
M  V30 7477 C 700.387 -1.63649 1.20791 0
M  V30 7478 C 700.742 -1.90966 -0.234437 0
M  V30 7479 O 700.035 -1.52163 -1.16434 0
M  V30 7480 C 700.229 -2.97999 1.97311 0
M  V30 7481 C 700.058 -2.83798 3.48839 0
M  V30 7482 C 698.828 -2.83622 4.18195 0
M  V30 7483 C 701.026 -2.59529 4.44015 0
M  V30 7484 N 699.008 -2.60344 5.55962 0
M  V30 7485 C 700.379 -2.45401 5.69366 0
M  V30 7486 C 702.434 -2.44777 4.33576 0
M  V30 7487 C 701.137 -2.18023 6.85462 0
M  V30 7488 C 703.163 -2.18785 5.49443 0
M  V30 7489 C 702.525 -2.05436 6.73777 0
M  V30 7490 H 698.624 -0.603687 0.497077 0
M  V30 7491 H 701.208 -1.03908 1.64655 0
M  V30 7492 H 699.379 -3.55767 1.55834 0
M  V30 7493 H 701.111 -3.6266 1.79611 0
M  V30 7494 H 697.866 -2.95562 3.70054 0
M  V30 7495 H 698.29 -2.51709 6.28468 0
M  V30 7496 H 702.932 -2.53831 3.38126 0
M  V30 7497 H 700.65 -2.07707 7.8095 0
M  V30 7498 H 704.236 -2.08188 5.43276 0
M  V30 7499 H 703.116 -1.85605 7.61919 0
M  V30 7500 N 700.619 -1.13374 -1.09472 0
M  V30 7501 C 701.529 -0.824029 -2.19652 0
M  V30 7502 C 702.545 0.19118 -1.72947 0
M  V30 7503 O 703.721 0.0223464 -2.01388 0
M  V30 7504 C 700.786 -0.294009 -3.45451 0
M  V30 7505 C 699.847 -1.3704 -4.0684 0
M  V30 7506 C 699.08 -0.86558 -5.26634 0
M  V30 7507 O 699.303 0.29702 -5.69626 0
M  V30 7508 O 698.237 -1.63968 -5.79136 0
M  V30 7509 H 702.063 -1.74454 -2.48595 0
M  V30 7510 H 699.648 -0.911155 -1.18399 0
M  V30 7511 H 701.53 -0.00381039 -4.214 0
M  V30 7512 H 700.205 0.598921 -3.18111 0
M  V30 7513 H 699.112 -1.71391 -3.3253 0
M  V30 7514 H 700.445 -2.23746 -4.38405 0
M  V30 7515 N 702.098 1.27442 -0.927168 0
M  V30 7516 C 703.008 2.30599 -0.431448 0
M  V30 7517 C 704.024 1.67028 0.48761 0
M  V30 7518 O 705.2 1.97962 0.370546 0
M  V30 7519 C 702.265 3.45327 0.308292 0
M  V30 7520 C 701.326 4.24418 -0.645615 0
M  V30 7521 C 700.559 5.33667 0.0589164 0
M  V30 7522 O 700.782 5.5589 1.27838 0
M  V30 7523 O 699.716 5.98774 -0.612638 0
M  V30 7524 H 703.542 2.75036 -1.28797 0
M  V30 7525 H 701.127 1.32382 -0.692495 0
M  V30 7526 H 703.009 4.15107 0.725555 0
M  V30 7527 H 701.684 3.02945 1.14043 0
M  V30 7528 H 700.591 3.57174 -1.11255 0
M  V30 7529 H 701.924 4.70512 -1.44496 0
M  V30 7530 N 703.576 0.692616 1.41565 0
M  V30 7531 C 704.523 0.0254264 2.30786 0
M  V30 7532 C 705.493 -0.774347 1.46946 0
M  V30 7533 O 706.678 -0.742981 1.7574 0
M  V30 7534 C 703.818 -0.907123 3.32964 0
M  V30 7535 C 702.931 -0.0992784 4.31886 0
M  V30 7536 C 702.066 -1.0292 5.21134 0
M  V30 7537 C 701.105 -0.214088 6.11725 0
M  V30 7538 N 700.242 -1.09766 6.93467 0
M  V30 7539 H 705.082 0.792036 2.87282 0
M  V30 7540 H 702.619 0.4023 1.41492 0
M  V30 7541 H 704.577 -1.46181 3.90752 0
M  V30 7542 H 703.207 -1.64016 2.78026 0
M  V30 7543 H 702.259 0.572287 3.76071 0
M  V30 7544 H 703.571 0.532782 4.95946 0
M  V30 7545 H 702.725 -1.65321 5.83741 0
M  V30 7546 H 701.464 -1.69512 4.57293 0
M  V30 7547 H 700.469 0.42302 5.4817 0
M  V30 7548 H 701.694 0.447995 6.77621 0
M  V30 7549 H 699.64 -1.74965 6.32237 0
M  V30 7550 H 699.557 -0.521099 7.54202 0
M  V30 7551 H 700.825 -1.70858 7.60544 0
M  V30 7552 N 705.054 -1.51416 0.437162 0
M  V30 7553 C 706.303 -2.01275 -0.130865 0
M  V30 7554 C 706.616 -1.32593 -1.438 0
M  V30 7555 O 707.822 -1.7342 -2.08897 0
M  V30 7556 C 706.278 -3.5878 -0.283763 0
M  V30 7557 C 705.886 -4.36399 1.01293 0
M  V30 7558 C 707.63 -4.16786 -0.805569 0
M  V30 7559 C 705.537 -5.85608 0.825687 0
M  V30 7560 H 704.467 -0.752157 -0.0526818 0
M  V30 7561 H 707.118 -1.74524 0.566896 0
M  V30 7562 H 705.5 -3.81976 -1.04452 0
M  V30 7563 H 706.674 -4.24948 1.78201 0
M  V30 7564 H 704.989 -3.89843 1.46326 0
M  V30 7565 H 707.586 -5.25972 -0.962146 0
M  V30 7566 H 707.929 -3.75949 -1.78796 0
M  V30 7567 H 708.462 -3.97666 -0.103125 0
M  V30 7568 H 705.201 -6.30857 1.78045 0
M  V30 7569 H 704.721 -5.99723 0.0964029 0
M  V30 7570 H 706.4 -6.45226 0.478815 0
M  V30 7571 N 706.532 -0.168513 -1.56696 0
M  V30 7572 C 707.943 0.348694 -1.83415 0
M  V30 7573 C 708.294 1.63257 -1.0882 0
M  V30 7574 O 707.419 2.13707 -0.340333 0
M  V30 7575 C 708.014 0.639423 -3.32711 0
M  V30 7576 C 706.573 1.10108 -3.59935 0
M  V30 7577 C 705.72 0.135464 -2.76969 0
M  V30 7578 H 708.671 -0.392829 -1.53761 0
M  V30 7579 H 708.692 1.49179 -3.50037 0
M  V30 7580 H 708.204 -0.295173 -3.86976 0
M  V30 7581 H 706.305 2.05088 -3.11079 0
M  V30 7582 H 706.418 1.01218 -4.68286 0
M  V30 7583 H 704.782 0.632286 -2.46727 0
M  V30 7584 H 705.565 -0.793104 -3.34013 0
M  V30 7585 N 708.01 1.57248 0.105221 0
M  V30 7586 C 708.958 2.02337 1.14728 0
M  V30 7587 C 709.952 0.922652 1.42069 0
M  V30 7588 O 711.158 1.10785 1.41869 0
M  V30 7589 H 707.533 0.644682 0.387155 0
M  V30 7590 H 709.504 2.89063 0.740607 0
M  V30 7591 C 708.253 2.45513 2.46209 0
M  V30 7592 H 707.576 3.29785 2.26013 0
M  V30 7593 H 709.016 2.80846 3.1765 0
M  V30 7594 C 707.475 1.3243 3.09781 0
M  V30 7595 O 708.005 0.647841 3.96442 0
M  V30 7596 N 706.211 1.07785 2.69872 0
M  V30 7597 H 705.758 1.62973 1.99493 0
M  V30 7598 H 705.716 0.323204 3.12734 0
M  V30 7599 N 709.488 -0.375779 1.53054 0
M  V30 7600 C 710.899 -0.95309 1.6054 0
M  V30 7601 C 711.25 -1.90575 0.466446 0
M  V30 7602 O 710.375 -2.12507 -0.408609 0
M  V30 7603 C 710.97 -1.73537 2.90982 0
M  V30 7604 C 709.529 -2.26218 3.00836 0
M  V30 7605 C 708.676 -1.07157 2.55759 0
M  V30 7606 H 711.627 -0.154895 1.57942 0
M  V30 7607 H 711.648 -2.59574 2.78211 0
M  V30 7608 H 711.16 -1.04176 3.73857 0
M  V30 7609 H 709.261 -2.98852 2.22527 0
M  V30 7610 H 709.374 -2.54799 4.05727 0
M  V30 7611 H 707.738 -1.43553 2.10391 0
M  V30 7612 H 708.521 -0.393099 3.41042 0
M  V30 7613 N 710.966 -1.44241 -0.634997 0
M  V30 7614 C 712.191 -1.50516 -1.42687 0
M  V30 7615 C 712.616 -0.129864 -1.87651 0
M  V30 7616 O 711.974 0.880164 -1.58502 0
M  V30 7617 C 712.022 -2.4714 -2.62591 0
M  V30 7618 O 711.126 -1.97025 -3.62291 0
M  V30 7619 H 710.467 -0.50841 -0.427101 0
M  V30 7620 H 712.997 -1.89337 -0.775408 0
M  V30 7621 H 713.007 -2.65048 -3.10183 0
M  V30 7622 H 711.682 -3.47039 -2.29209 0
M  V30 7623 H 710.259 -1.88866 -3.21534 0
M  V30 7624 N 712.444 0.87505 -1.31075 0
M  V30 7625 C 713.391 1.98178 -1.18296 0
M  V30 7626 C 714.361 1.65952 -0.0699923 0
M  V30 7627 O 715.546 1.8926 -0.241951 0
M  V30 7628 C 712.686 3.33399 -0.891024 0
M  V30 7629 C 711.799 3.78253 -2.08684 0
M  V30 7630 C 710.934 5.02166 -1.73212 0
M  V30 7631 C 709.973 5.39455 -2.89231 0
M  V30 7632 N 709.11 6.54549 -2.53989 0
M  V30 7633 H 713.95 2.0844 -2.12971 0
M  V30 7634 H 711.487 1.02047 -1.05948 0
M  V30 7635 H 713.445 4.11246 -0.702338 0
M  V30 7636 H 712.075 3.22794 0.0188799 0
M  V30 7637 H 711.127 2.9623 -2.38646 0
M  V30 7638 H 712.439 4.01821 -2.95536 0
M  V30 7639 H 711.593 5.87666 -1.50777 0
M  V30 7640 H 710.332 4.80491 -0.83544 0
M  V30 7641 H 709.337 4.52477 -3.12321 0
M  V30 7642 H 710.562 5.63098 -3.79601 0
M  V30 7643 H 708.508 6.3443 -1.66838 0
M  V30 7644 H 708.425 6.78035 -3.34372 0
M  V30 7645 H 709.693 7.43254 -2.34934 0
M  V30 7646 N 713.922 1.13953 1.08869 0
M  V30 7647 C 715.147 0.928559 1.85452 0
M  V30 7648 C 715.572 -0.517642 1.80837 0
M  V30 7649 O 714.93 -1.36779 1.19001 0
M  V30 7650 C 714.978 1.42814 3.31114 0
M  V30 7651 O 714.082 0.617129 4.07756 0
M  V30 7652 H 713.423 0.33235 0.574839 0
M  V30 7653 H 715.953 1.5156 1.37443 0
M  V30 7654 H 715.963 1.43425 3.8196 0
M  V30 7655 H 714.638 2.48109 3.33788 0
M  V30 7656 H 713.215 0.679365 3.66659 0
M  V30 7657 N 715.4 -1.26948 0.933913 0
M  V30 7658 C 716.35 -2.24306 0.408779 0
M  V30 7659 C 717.334 -1.53243 -0.490435 0
M  V30 7660 O 718.526 -1.73956 -0.326866 0
M  V30 7661 C 715.655 -3.41695 -0.331578 0
M  V30 7662 C 714.741 -4.20053 0.58451 0
M  V30 7663 N 715.132 -4.76122 1.70709 0
M  V30 7664 C 713.43 -4.44303 0.388703 0
M  V30 7665 C 714.131 -5.35267 2.27737 0
M  V30 7666 N 713.107 -5.20548 1.56622 0
M  V30 7667 H 716.909 -2.65244 1.26582 0
M  V30 7668 H 714.423 -1.4195 0.788919 0
M  V30 7669 H 716.42 -4.10552 -0.724774 0
M  V30 7670 H 715.08 -3.02286 -1.18547 0
M  V30 7671 H 716.091 -4.73884 2.08937 0
M  V30 7672 H 712.768 -4.15341 -0.424016 0
M  V30 7673 H 714.158 -5.89563 3.22282 0
M  V30 7674 N 716.879 -0.700114 -1.41195 0
M  V30 7675 C 717.809 -0.0521132 -2.33442 0
M  V30 7676 C 718.79 0.76228 -1.52063 0
M  V30 7677 O 719.975 0.714336 -1.80585 0
M  V30 7678 C 717.105 0.881693 -3.35922 0
M  V30 7679 C 716.059 0.174062 -4.27646 0
M  V30 7680 C 715.385 1.22254 -5.20536 0
M  V30 7681 C 716.685 -0.962396 -5.13357 0
M  V30 7682 H 718.379 -0.822574 -2.87879 0
M  V30 7683 H 715.925 -0.397011 -1.38419 0
M  V30 7684 H 717.878 1.34429 -3.99383 0
M  V30 7685 H 716.602 1.68387 -2.79845 0
M  V30 7686 H 715.261 -0.268551 -3.65615 0
M  V30 7687 H 714.909 2.01736 -4.60773 0
M  V30 7688 H 714.609 0.754038 -5.82742 0
M  V30 7689 H 716.133 1.68555 -5.86874 0
M  V30 7690 H 717.547 -0.579875 -5.7036 0
M  V30 7691 H 715.944 -1.35828 -5.84526 0
M  V30 7692 H 717.014 -1.80003 -4.50252 0
M  V30 7693 N 718.357 1.51182 -0.445186 0
M  V30 7694 C 719.604 2.02152 0.118645 0
M  V30 7695 C 719.932 1.32888 1.42025 0
M  V30 7696 O 719.187 0.435041 1.90803 0
M  V30 7697 C 719.486 3.55408 0.376797 0
M  V30 7698 C 719.152 4.43008 -0.839945 0
M  V30 7699 C 717.814 4.66669 -1.17361 0
M  V30 7700 C 720.166 4.9435 -1.65127 0
M  V30 7701 C 717.494 5.38919 -2.31913 0
M  V30 7702 C 719.846 5.67857 -2.78786 0
M  V30 7703 C 718.51 5.89779 -3.12597 0
M  V30 7704 H 717.78 0.739727 0.0434152 0
M  V30 7705 H 720.427 1.82055 -0.593984 0
M  V30 7706 H 718.732 3.73879 1.1714 0
M  V30 7707 H 720.429 3.92388 0.826602 0
M  V30 7708 H 717.019 4.24793 -0.569958 0
M  V30 7709 H 721.203 4.75947 -1.4067 0
M  V30 7710 H 716.459 5.54105 -2.58413 0
M  V30 7711 H 720.633 6.06628 -3.42017 0
M  V30 7712 H 718.26 6.45542 -4.01471 0
M  V30 7713 N 719.835 0.176821 1.56605 0
M  V30 7714 C 720.767 -0.782836 2.15417 0
M  V30 7715 C 721.78 -1.18982 1.11117 0
M  V30 7716 O 722.969 -1.12872 1.38283 0
M  V30 7717 C 720.069 -2.06596 2.68647 0
M  V30 7718 C 719.242 -1.82167 3.9766 0
M  V30 7719 C 718.301 -2.94751 4.35899 0
M  V30 7720 O 717.327 -2.65148 5.03672 0
M  V30 7721 N 718.529 -4.2267 3.97907 0
M  V30 7722 H 721.294 -0.280012 2.98389 0
M  V30 7723 H 718.855 -0.00577529 1.61899 0
M  V30 7724 H 720.847 -2.81018 2.91223 0
M  V30 7725 H 719.417 -2.48054 1.90232 0
M  V30 7726 H 718.637 -0.916208 3.83405 0
M  V30 7727 H 719.925 -1.6322 4.81909 0
M  V30 7728 H 719.323 -4.4958 3.43357 0
M  V30 7729 H 717.88 -4.93778 4.25472 0
M  V30 7730 N 721.313 -1.57302 -0.09688 0
M  V30 7731 C 722.261 -2.02942 -1.13654 0
M  V30 7732 C 723.255 -0.930173 -1.41577 0
M  V30 7733 O 724.461 -1.11535 -1.41279 0
M  V30 7734 H 720.836 -0.646726 -0.383731 0
M  V30 7735 H 722.807 -2.89452 -0.725267 0
M  V30 7736 C 721.556 -2.46815 -2.44903 0
M  V30 7737 H 720.879 -3.30979 -2.24261 0
M  V30 7738 H 722.319 -2.82527 -3.16156 0
M  V30 7739 C 720.778 -1.34071 -3.09074 0
M  V30 7740 O 721.308 -0.668856 -3.96092 0
M  V30 7741 N 719.514 -1.09214 -2.69296 0
M  V30 7742 H 719.061 -1.64029 -1.98626 0
M  V30 7743 H 719.019 -0.339785 -3.12559 0
M  V30 7744 N 722.791 0.367657 -1.53252 0
M  V30 7745 C 724.039 1.10832 -1.68999 0
M  V30 7746 C 724.36 1.89894 -0.443306 0
M  V30 7747 O 723.63 1.88235 0.54262 0
M  V30 7748 H 722.21 0.412153 -0.623008 0
M  V30 7749 H 724.872 0.414775 -1.90435 0
M  V30 7750 H 723.968 1.7993 -2.55013 0
M  V30 7751 N 724.269 1.44576 0.627338 0
M  V30 7752 C 725.494 1.51271 1.41887 0
M  V30 7753 C 725.919 0.139814 1.8758 0
M  V30 7754 O 725.277 -0.871746 1.58966 0
M  V30 7755 C 725.325 2.48529 2.61277 0
M  V30 7756 O 724.429 1.98944 3.61241 0
M  V30 7757 H 723.77 0.510668 0.424399 0
M  V30 7758 H 726.3 1.89746 0.765356 0
M  V30 7759 H 726.31 2.66689 3.08773 0
M  V30 7760 H 724.985 3.48249 2.27366 0
M  V30 7761 H 723.562 1.90568 3.20528 0
M  V30 7762 N 725.747 -0.868086 1.31537 0
M  V30 7763 C 726.71 -1.95703 1.19302 0
M  V30 7764 C 727.71 -1.60355 0.119612 0
M  V30 7765 O 728.9 -1.70247 0.36902 0
M  V30 7766 C 726.032 -3.30599 0.831684 0
M  V30 7767 H 727.225 -2.07982 2.16064 0
M  V30 7768 H 724.778 -1.05661 1.15176 0
M  V30 7769 H 725.513 -3.2402 -0.134694 0
M  V30 7770 H 725.298 -3.57629 1.60761 0
M  V30 7771 H 726.788 -4.10439 0.770026 0
M  V30 7772 N 727.225 -1.14528 -1.08264 0
M  V30 7773 C 728.135 -0.84728 -2.18765 0
M  V30 7774 C 729.151 0.172826 -1.7314 0
M  V30 7775 O 730.327 0.000985336 -2.014 0
M  V30 7776 C 727.392 -0.330633 -3.4512 0
M  V30 7777 C 726.453 -1.41348 -4.05363 0
M  V30 7778 C 725.686 -0.921387 -5.25686 0
M  V30 7779 O 725.909 0.236587 -5.69909 0
M  V30 7780 O 724.843 -1.70101 -5.77364 0
M  V30 7781 H 728.669 -1.7708 -2.46731 0
M  V30 7782 H 726.254 -0.923661 -1.17426 0
M  V30 7783 H 728.136 -0.0485053 -4.21372 0
M  V30 7784 H 726.811 0.565147 -3.18728 0
M  V30 7785 H 725.718 -1.74908 -3.30693 0
M  V30 7786 H 727.051 -2.28383 -4.36007 0
M  V30 7787 N 728.703 1.26451 -0.940633 0
M  V30 7788 C 729.633 2.28773 -0.467479 0
M  V30 7789 C 730.614 1.63218 0.478955 0
M  V30 7790 O 731.799 1.90427 0.380929 0
M  V30 7791 C 728.929 3.46259 0.268656 0
M  V30 7792 C 727.883 4.23898 -0.591171 0
M  V30 7793 C 727.209 5.33993 0.274891 0
M  V30 7794 C 728.509 4.87974 -1.86223 0
M  V30 7795 H 730.203 2.68601 -1.32265 0
M  V30 7796 H 727.749 1.29123 -0.637436 0
M  V30 7797 H 729.702 4.16951 0.610696 0
M  V30 7798 H 728.426 3.05383 1.15796 0
M  V30 7799 H 727.085 3.54969 -0.916098 0
M  V30 7800 H 726.733 4.89358 1.16353 0
M  V30 7801 H 726.433 5.86849 -0.297006 0
M  V30 7802 H 727.957 6.07523 0.612213 0
M  V30 7803 H 729.371 5.50883 -1.58747 0
M  V30 7804 H 727.768 5.50945 -2.37866 0
M  V30 7805 H 728.838 4.10945 -2.57394 0
M  V30 7806 N 730.181 0.707592 1.40822 0
M  V30 7807 C 731.427 0.252828 2.01823 0
M  V30 7808 C 731.782 -1.13876 1.55081 0
M  V30 7809 O 731.075 -1.75993 0.757439 0
M  V30 7810 C 731.269 0.262892 3.56432 0
M  V30 7811 C 731.098 1.65392 4.18181 0
M  V30 7812 C 729.868 2.25966 4.5196 0
M  V30 7813 C 732.066 2.60272 4.4358 0
M  V30 7814 N 730.048 3.57508 4.9906 0
M  V30 7815 C 731.419 3.76509 4.92586 0
M  V30 7816 C 733.474 2.58386 4.25607 0
M  V30 7817 C 732.177 4.91157 5.25507 0
M  V30 7818 C 734.203 3.72155 4.59625 0
M  V30 7819 C 733.565 4.87123 5.08813 0
M  V30 7820 H 729.664 0.138172 0.769696 0
M  V30 7821 H 732.248 0.927667 1.7118 0
M  V30 7822 H 730.419 -0.381479 3.86522 0
M  V30 7823 H 732.151 -0.20783 4.04166 0
M  V30 7824 H 728.906 1.78138 4.38821 0
M  V30 7825 H 729.33 4.24968 5.27002 0
M  V30 7826 H 733.972 1.7071 3.86805 0
M  V30 7827 H 731.69 5.79483 5.63227 0
M  V30 7828 H 735.276 3.71961 4.47366 0
M  V30 7829 H 734.156 5.73698 5.3464 0
M  V30 7830 N 731.66 -1.50943 0.453197 0
M  V30 7831 C 733.071 -1.86699 -0.00619892 0
M  V30 7832 C 733.422 -1.3693 -1.40515 0
M  V30 7833 O 732.547 -0.726715 -2.03833 0
M  V30 7834 C 733.142 -3.38795 -0.018025 0
M  V30 7835 C 731.701 -3.74028 -0.421885 0
M  V30 7836 C 730.848 -2.74752 0.375087 0
M  V30 7837 H 733.799 -1.43942 0.668317 0
M  V30 7838 H 733.82 -3.71468 -0.824125 0
M  V30 7839 H 733.332 -3.74988 1.00028 0
M  V30 7840 H 731.433 -3.43431 -1.44521 0
M  V30 7841 H 731.546 -4.78908 -0.135664 0
M  V30 7842 H 729.91 -2.5414 -0.168794 0
M  V30 7843 H 730.693 -3.13787 1.39256 0
M  V30 7844 N 733.138 -0.185124 -1.56509 0
M  V30 7845 C 734.549 0.329221 -1.83774 0
M  V30 7846 C 734.9 1.62093 -1.10545 0
M  V30 7847 O 734.025 2.13334 -0.36298 0
M  V30 7848 C 734.62 0.604099 -3.33371 0
M  V30 7849 C 733.179 1.06284 -3.61083 0
M  V30 7850 C 732.326 0.10608 -2.77097 0
M  V30 7851 H 735.277 -0.409116 -1.53336 0
M  V30 7852 H 735.298 1.45458 -3.51599 0
M  V30 7853 H 734.81 -0.336201 -3.86641 0
M  V30 7854 H 732.911 2.01777 -3.13236 0
M  V30 7855 H 733.024 0.962453 -4.69333 0
M  V30 7856 H 731.388 0.606082 -2.47384 0
M  V30 7857 H 732.171 -0.828486 -3.33153 0
M  V30 7858 N 734.616 1.57351 0.0885366 0
M  V30 7859 C 735.864 1.86051 0.789262 0
M  V30 7860 C 736.185 0.774763 1.78948 0
M  V30 7861 O 735.455 -0.198324 1.94894 0
M  V30 7862 H 734.035 0.686508 0.294475 0
M  V30 7863 H 736.697 1.94779 0.0686055 0
M  V30 7864 H 735.793 2.83007 1.31581 0
M  V30 7865 N 736.094 -0.359525 1.53444 0
M  V30 7866 C 737.319 -1.12644 1.74144 0
M  V30 7867 C 737.744 -1.82082 0.472007 0
M  V30 7868 O 737.102 -1.71962 -0.57436 0
M  V30 7869 C 737.15 -2.12781 2.9113 0
M  V30 7870 O 736.254 -3.19984 2.60162 0
M  V30 7871 H 735.595 -0.326553 0.578152 0
M  V30 7872 H 738.125 -0.414798 2.00351 0
M  V30 7873 H 738.135 -2.56278 3.17467 0
M  V30 7874 H 736.81 -1.61634 3.83207 0
M  V30 7875 H 735.387 -2.81417 2.44661 0
M  V30 7876 N 737.572 -1.44907 -0.619662 0
M  V30 7877 C 738.505 -1.47133 -1.74434 0
M  V30 7878 C 739.483 -0.328933 -1.59238 0
M  V30 7879 O 740.667 -0.527632 -1.80965 0
M  V30 7880 C 737.794 -1.31491 -3.12134 0
M  V30 7881 C 736.84 -2.49441 -3.4595 0
M  V30 7882 S 737.673 -4.11945 -3.42142 0
M  V30 7883 C 738.829 -3.98747 -4.82443 0
M  V30 7884 H 739.062 -2.42295 -1.7228 0
M  V30 7885 H 736.595 -1.32343 -0.795276 0
M  V30 7886 H 738.553 -1.23153 -3.91591 0
M  V30 7887 H 737.214 -0.378203 -3.11815 0
M  V30 7888 H 736.407 -2.3439 -4.46181 0
M  V30 7889 H 736.009 -2.54577 -2.73982 0
M  V30 7890 H 738.301 -3.63145 -5.71954 0
M  V30 7891 H 739.244 -4.98848 -5.0255 0
M  V30 7892 H 739.652 -3.30608 -4.57557 0
M  V30 7893 N 739.05 0.861098 -1.31996 0
M  V30 7894 C 740.275 1.65264 -1.2531 0
M  V30 7895 C 740.7 1.87265 0.177007 0
M  V30 7896 O 740.058 1.4208 1.12619 0
M  V30 7897 C 740.106 2.99284 -2.0115 0
M  V30 7898 O 739.21 3.89508 -1.3549 0
M  V30 7899 H 738.551 0.50409 -0.432192 0
M  V30 7900 H 741.081 1.07297 -1.74208 0
M  V30 7901 H 741.091 3.49154 -2.11081 0
M  V30 7902 H 739.766 2.82591 -3.05148 0
M  V30 7903 H 738.343 3.47966 -1.34066 0
M  V30 7904 N 740.528 1.15101 1.07655 0
M  V30 7905 C 741.491 0.847625 2.12951 0
M  V30 7906 C 742.491 -0.151227 1.60087 0
M  V30 7907 O 743.681 0.0780399 1.74025 0
M  V30 7908 C 740.813 0.265 3.39868 0
M  V30 7909 H 742.006 1.7809 2.41296 0
M  V30 7910 H 739.559 0.958072 1.23494 0
M  V30 7911 H 740.294 -0.676625 3.17163 0
M  V30 7912 H 740.079 0.984554 3.79538 0
M  V30 7913 H 741.569 0.0702121 4.17541 0
M  V30 7914 N 742.006 -1.2595 0.947325 0
M  V30 7915 C 743.253 -1.93463 0.598178 0
M  V30 7916 C 743.581 -1.74271 -0.863705 0
M  V30 7917 O 742.836 -1.07684 -1.63409 0
M  V30 7918 C 743.135 -3.46034 0.894158 0
M  V30 7919 C 742.801 -3.85373 2.3409 0
M  V30 7920 C 741.463 -3.95823 2.73637 0
M  V30 7921 C 743.815 -4.04986 3.2808 0
M  V30 7922 C 741.143 -4.23288 4.06257 0
M  V30 7923 C 743.495 -4.3394 4.60303 0
M  V30 7924 C 742.159 -4.42606 4.99656 0
M  V30 7925 H 741.429 -0.707933 0.218889 0
M  V30 7926 H 744.076 -1.4964 1.19499 0
M  V30 7927 H 742.381 -3.9121 0.214874 0
M  V30 7928 H 744.078 -3.96445 0.602698 0
M  V30 7929 H 740.668 -3.7779 2.02417 0
M  V30 7930 H 744.852 -3.96333 2.9872 0
M  V30 7931 H 740.108 -4.28211 4.36401 0
M  V30 7932 H 744.282 -4.48061 5.33118 0
M  V30 7933 H 741.909 -4.63641 6.02446 0
M  V30 7934 N 743.484 -0.715051 -1.40445 0
M  V30 7935 C 744.712 -0.263959 -2.05209 0
M  V30 7936 C 745.127 1.09403 -1.53871 0
M  V30 7937 O 744.484 1.68746 -0.695064 0
M  V30 7938 C 744.535 -0.234545 -3.60738 0
M  V30 7939 O 744.256 -1.53891 -4.10182 0
M  V30 7940 C 745.757 0.235164 -4.42676 0
M  V30 7941 H 742.977 -0.11876 -0.660407 0
M  V30 7942 H 745.521 -0.973107 -1.79864 0
M  V30 7943 H 743.676 0.425563 -3.85055 0
M  V30 7944 H 744.09 -1.43903 -5.04373 0
M  V30 7945 H 745.564 0.204598 -5.51621 0
M  V30 7946 H 746.041 1.27724 -4.20218 0
M  V30 7947 H 746.647 -0.394649 -4.23465 0
M  V30 7948 N 744.962 1.50701 -0.461195 0
M  V30 7949 C 746.187 2.07171 0.0974773 0
M  V30 7950 C 746.612 1.32391 1.3362 0
M  V30 7951 O 745.97 0.368676 1.77512 0
M  V30 7952 C 746.018 3.58651 0.374409 0
M  V30 7953 O 745.122 3.85816 1.4567 0
M  V30 7954 H 744.463 0.663944 -0.00862047 0
M  V30 7955 H 746.993 1.94021 -0.649394 0
M  V30 7956 H 747.003 4.03295 0.617843 0
M  V30 7957 H 745.678 4.12498 -0.530829 0
M  V30 7958 H 744.255 3.53018 1.20136 0
M  V30 7959 N 746.441 0.193421 1.56409 0
M  V30 7960 C 747.689 -0.444908 1.97142 0
M  V30 7961 C 748.01 -1.62268 1.08139 0
M  V30 7962 O 747.28 -1.95307 0.152326 0
M  V30 7963 H 745.86 -0.16736 0.728011 0
M  V30 7964 H 748.522 0.279763 1.92882 0
M  V30 7965 H 747.618 -0.790159 3.01932 0
M  V30 7966 N 747.919 -1.57396 -0.0801906 0
M  V30 7967 C 749.144 -1.91437 -0.797909 0
M  V30 7968 C 749.569 -0.789075 -1.70749 0
M  V30 7969 O 748.927 0.25857 -1.79447 0
M  V30 7970 C 748.975 -3.24402 -1.57467 0
M  V30 7971 O 748.079 -3.13043 -2.68473 0
M  V30 7972 H 747.42 -0.627109 -0.218243 0
M  V30 7973 H 749.95 -2.04537 -0.050949 0
M  V30 7974 H 749.96 -3.58072 -1.95571 0
M  V30 7975 H 748.635 -4.05884 -0.907229 0
M  V30 7976 H 747.212 -2.90915 -2.33287 0
M  V30 7977 N 749.397 0.351382 -1.53633 0
M  V30 7978 C 750.808 0.927429 -1.62036 0
M  V30 7979 C 751.159 1.89809 -0.496706 0
M  V30 7980 O 750.284 2.1313 0.374749 0
M  V30 7981 C 750.879 1.68886 -2.93706 0
M  V30 7982 C 749.438 2.21404 -3.04397 0
M  V30 7983 C 748.585 1.03075 -2.57431 0
M  V30 7984 H 751.536 0.129748 -1.58169 0
M  V30 7985 H 751.557 2.55116 -2.82305 0
M  V30 7986 H 751.069 0.982149 -3.75467 0
M  V30 7987 H 749.17 2.95274 -2.27253 0
M  V30 7988 H 749.283 2.48312 -4.09729 0
M  V30 7989 H 747.647 1.40188 -2.12649 0
M  V30 7990 H 748.43 0.338793 -3.41624 0
M  V30 7991 N 750.875 1.45233 0.611969 0
M  V30 7992 C 752.286 1.4354 1.19387 0
M  V30 7993 C 752.637 0.160713 1.95541 0
M  V30 7994 O 751.762 -0.737954 2.03429 0
M  V30 7995 C 752.357 2.60045 2.17169 0
M  V30 7996 C 750.916 2.61486 2.70744 0
M  V30 7997 C 750.063 2.35708 1.46072 0
M  V30 7998 H 753.014 1.53536 0.401529 0
M  V30 7999 H 753.035 2.33893 3.00124 0
M  V30 8000 H 752.547 3.52803 1.61714 0
M  V30 8001 H 750.648 1.72721 3.30149 0
M  V30 8002 H 750.761 3.60572 3.15476 0
M  V30 8003 H 749.125 1.85178 1.74875 0
M  V30 8004 H 749.908 3.30606 0.924922 0
M  V30 8005 N 752.353 -0.854086 1.3245 0
M  V30 8006 C 753.303 -1.9508 1.18016 0
M  V30 8007 C 754.287 -1.60665 0.0869417 0
M  V30 8008 O 755.479 -1.74201 0.313505 0
M  V30 8009 C 752.608 -3.3113 0.905961 0
M  V30 8010 C 751.694 -3.71763 2.04091 0
M  V30 8011 N 752.085 -3.84218 3.28953 0
M  V30 8012 C 750.383 -4.01393 1.94421 0
M  V30 8013 C 751.084 -4.192 4.03294 0
M  V30 8014 N 750.06 -4.30749 3.31596 0
M  V30 8015 H 753.862 -2.02843 2.12678 0
M  V30 8016 H 751.376 -1.04588 1.24238 0
M  V30 8017 H 753.373 -4.09471 0.783508 0
M  V30 8018 H 752.033 -3.24684 -0.0322715 0
M  V30 8019 H 753.044 -3.68524 3.63883 0
M  V30 8020 H 749.721 -4.03246 1.08162 0
M  V30 8021 H 751.111 -4.36301 5.1097 0
M  V30 8022 N 753.831 -1.1567 -1.07043 0
M  V30 8023 C 754.763 -0.814095 -2.14255 0
M  V30 8024 C 755.776 0.175293 -1.61854 0
M  V30 8025 O 756.965 -0.0483984 -1.78434 0
M  V30 8026 C 754.065 -0.190082 -3.38367 0
M  V30 8027 C 753.238 -1.21768 -4.20109 0
M  V30 8028 C 752.297 -0.614863 -5.22595 0
M  V30 8029 O 751.323 -1.28167 -5.54583 0
M  V30 8030 N 752.525 0.601955 -5.77371 0
M  V30 8031 H 755.29 -1.73677 -2.44247 0
M  V30 8032 H 752.851 -1.05301 -1.22977 0
M  V30 8033 H 754.843 0.22604 -4.04068 0
M  V30 8034 H 753.413 0.635992 -3.06062 0
M  V30 8035 H 752.633 -1.81025 -3.50177 0
M  V30 8036 H 753.921 -1.9114 -4.71533 0
M  V30 8037 H 753.319 1.162 -5.53637 0
M  V30 8038 H 751.876 0.96039 -6.44686 0
M  V30 8039 N 755.309 1.25446 -0.953992 0
M  V30 8040 C 756.557 1.92762 -0.607227 0
M  V30 8041 C 756.878 1.7509 0.858399 0
M  V30 8042 O 756.148 1.11416 1.61132 0
M  V30 8043 H 754.728 0.713377 -0.221591 0
M  V30 8044 H 757.39 1.52625 -1.21209 0
M  V30 8045 H 756.486 3.00695 -0.835998 0
M  V30 8046 N 756.787 0.722489 1.40064 0
M  V30 8047 C 758.198 0.336507 1.83642 0
M  V30 8048 C 758.549 -1.13002 1.6039 0
M  V30 8049 O 757.674 -1.87036 1.08842 0
M  V30 8050 C 758.269 0.603985 3.33373 0
M  V30 8051 C 756.828 0.271637 3.75419 0
M  V30 8052 C 755.975 0.872898 2.63203 0
M  V30 8053 H 758.926 0.921108 1.29233 0
M  V30 8054 H 758.947 -0.128471 3.80283 0
M  V30 8055 H 758.459 1.67141 3.50265 0
M  V30 8056 H 756.56 -0.790455 3.64119 0
M  V30 8057 H 756.673 0.745457 4.73265 0
M  V30 8058 H 755.037 0.300431 2.52922 0
M  V30 8059 H 755.82 1.94473 2.82905 0
M  V30 8060 N 758.265 -1.50454 0.469181 0
M  V30 8061 C 759.511 -2.03248 -0.0787241 0
M  V30 8062 C 759.866 -1.34499 -1.37578 0
M  V30 8063 O 759.159 -0.461173 -1.85967 0
M  V30 8064 C 759.353 -3.55963 -0.320207 0
M  V30 8065 C 759.182 -4.3951 0.951893 0
M  V30 8066 C 757.952 -4.82689 1.49465 0
M  V30 8067 C 760.15 -4.79999 1.84677 0
M  V30 8068 N 758.132 -5.50553 2.71597 0
M  V30 8069 C 759.503 -5.47254 2.91398 0
M  V30 8070 C 761.558 -4.61959 1.85738 0
M  V30 8071 C 760.261 -5.98381 3.99166 0
M  V30 8072 C 762.287 -5.14024 2.92461 0
M  V30 8073 C 761.649 -5.81253 3.97901 0
M  V30 8074 H 757.748 -0.78192 0.0111715 0
M  V30 8075 H 760.332 -1.83986 0.636961 0
M  V30 8076 H 758.503 -3.75174 -1.00493 0
M  V30 8077 H 760.235 -3.95407 -0.862285 0
M  V30 8078 H 756.99 -4.61948 1.0441 0
M  V30 8079 H 757.414 -5.89093 3.33615 0
M  V30 8080 H 762.056 -4.09416 1.05539 0
M  V30 8081 H 759.774 -6.49961 4.80183 0
M  V30 8082 H 763.36 -5.01897 2.94263 0
M  V30 8083 H 762.24 -6.20814 4.79123 0
M  V30 8084 N 759.743 -0.201713 -1.56304 0
M  V30 8085 C 760.991 0.434447 -1.97375 0
M  V30 8086 C 761.312 1.61692 -1.08998 0
M  V30 8087 O 760.582 1.95223 -0.162682 0
M  V30 8088 H 759.162 0.163497 -0.728888 0
M  V30 8089 H 761.824 -0.289988 -1.92731 0
M  V30 8090 H 760.92 0.774136 -3.02347 0
M  V30 8091 N 761.222 1.57436 0.0718424 0
M  V30 8092 C 762.447 1.91858 0.787745 0
M  V30 8093 C 762.872 0.798119 1.70328 0
M  V30 8094 O 762.23 -0.24905 1.79581 0
M  V30 8095 C 762.278 3.25232 1.55744 0
M  V30 8096 O 761.382 3.14462 2.6681 0
M  V30 8097 H 760.723 0.628258 0.214914 0
M  V30 8098 H 763.253 2.04561 0.0401012 0
M  V30 8099 H 763.263 3.59105 1.9367 0
M  V30 8100 H 761.938 4.0636 0.885691 0
M  V30 8101 H 760.515 2.92148 2.31741 0
M  V30 8102 N 762.7 -0.34323 1.53817 0
M  V30 8103 C 764.116 -0.686355 1.44088 0
M  V30 8104 C 764.316 -1.92426 0.597882 0
M  V30 8105 O 763.372 -2.52343 0.0889918 0
M  V30 8106 C 764.685 -0.878698 2.87575 0
M  V30 8107 C 766.233 -0.977296 2.97352 0
M  V30 8108 C 766.708 -1.20195 4.41947 0
M  V30 8109 N 768.199 -1.26915 4.45474 0
M  V30 8110 C 768.934 -1.46049 5.54488 0
M  V30 8111 N 768.43 -1.62354 6.73508 0
M  V30 8112 N 770.223 -1.48599 5.42102 0
M  V30 8113 H 762.374 0.470679 2.07119 0
M  V30 8114 H 764.637 0.148652 0.936273 0
M  V30 8115 H 764.343 -0.040602 3.51677 0
M  V30 8116 H 764.217 -1.78034 3.32541 0
M  V30 8117 H 766.604 -1.80591 2.3339 0
M  V30 8118 H 766.685 -0.0525498 2.55746 0
M  V30 8119 H 766.329 -0.378262 5.06489 0
M  V30 8120 H 766.259 -2.14027 4.81145 0
M  V30 8121 H 768.75 -1.15837 3.59708 0
M  V30 8122 H 769.063 -1.76591 7.52353 0
M  V30 8123 H 767.408 -1.5949 6.76453 0
M  V30 8124 H 770.599 -1.35443 4.48077 0
M  V30 8125 H 770.772 -1.6317 6.2712 0
M  V30 8126 N 764.178 -1.45556 -0.604258 0
M  V30 8127 C 765.425 -1.49746 -1.36317 0
M  V30 8128 C 765.753 -0.140516 -1.93992 0
M  V30 8129 O 765.008 0.861244 -1.7573 0
M  V30 8130 C 765.307 -2.52697 -2.52743 0
M  V30 8131 C 764.973 -3.97315 -2.13195 0
M  V30 8132 C 763.635 -4.36692 -2.02123 0
M  V30 8133 C 765.987 -4.88249 -1.8238 0
M  V30 8134 C 763.315 -5.64895 -1.58463 0
M  V30 8135 C 765.667 -6.16867 -1.40205 0
M  V30 8136 C 764.331 -6.55172 -1.27694 0
M  V30 8137 H 763.601 -0.54796 -0.49882 0
M  V30 8138 H 766.248 -1.7892 -0.682643 0
M  V30 8139 H 764.553 -2.17105 -3.26148 0
M  V30 8140 H 766.25 -2.53176 -3.10971 0
M  V30 8141 H 762.84 -3.66176 -2.22739 0
M  V30 8142 H 767.024 -4.58561 -1.89829 0
M  V30 8143 H 762.28 -5.93365 -1.47402 0
M  V30 8144 H 766.454 -6.86771 -1.15408 0
M  V30 8145 H 764.081 -7.54411 -0.936375 0
M  V30 8146 N 765.656 0.84705 -1.32902 0
M  V30 8147 C 767.067 1.41785 -1.21466 0
M  V30 8148 C 767.418 1.95464 0.169767 0
M  V30 8149 O 766.543 1.88157 1.06892 0
M  V30 8150 C 767.138 2.57734 -2.19906 0
M  V30 8151 C 765.697 3.10791 -2.12334 0
M  V30 8152 C 764.844 1.83562 -2.07847 0
M  V30 8153 H 767.795 0.653532 -1.44619 0
M  V30 8154 H 767.816 3.35123 -1.80202 0
M  V30 8155 H 767.328 2.18635 -3.20656 0
M  V30 8156 H 765.429 3.54455 -1.14858 0
M  V30 8157 H 765.542 3.71519 -3.02506 0
M  V30 8158 H 763.906 2.03475 -1.53199 0
M  V30 8159 H 764.689 1.4667 -3.10392 0
M  V30 8160 N 767.134 1.16236 1.06428 0
M  V30 8161 C 768.044 0.881976 2.1739 0
M  V30 8162 C 769.06 -0.145259 1.73393 0
M  V30 8163 O 770.236 0.0310558 2.01376 0
M  V30 8164 C 767.301 0.385496 3.4455 0
M  V30 8165 C 766.362 1.47779 4.03063 0
M  V30 8166 C 765.595 1.0049 5.24154 0
M  V30 8167 O 765.818 -0.145889 5.70213 0
M  V30 8168 O 764.752 1.79265 5.74585 0
M  V30 8169 H 768.578 1.80983 2.43883 0
M  V30 8170 H 766.163 0.942226 1.15942 0
M  V30 8171 H 768.045 0.115536 4.21242 0
M  V30 8172 H 766.72 -0.514369 3.19587 0
M  V30 8173 H 765.627 1.80147 3.27869 0
M  V30 8174 H 766.96 2.35291 4.32318 0
M  V30 8175 N 768.612 -1.24939 0.960631 0
M  V30 8176 C 769.542 -2.28 0.503815 0
M  V30 8177 C 770.523 -1.63959 -0.452928 0
M  V30 8178 O 771.708 -1.91009 -0.350585 0
M  V30 8179 C 768.838 -3.46643 -0.213535 0
M  V30 8180 C 767.792 -4.22903 0.658535 0
M  V30 8181 C 767.118 -5.34363 -0.189902 0
M  V30 8182 C 768.418 -4.84949 1.93963 0
M  V30 8183 H 770.112 -2.66462 1.36521 0
M  V30 8184 H 767.658 -1.28093 0.657897 0
M  V30 8185 H 769.611 -4.1787 -0.544286 0
M  V30 8186 H 768.335 -3.07187 -1.10923 0
M  V30 8187 H 766.994 -3.53467 0.972455 0
M  V30 8188 H 766.642 -4.91147 -1.08553 0
M  V30 8189 H 766.342 -5.86302 0.390331 0
M  V30 8190 H 767.866 -6.0842 -0.515484 0
M  V30 8191 H 769.28 -5.48288 1.67491 0
M  V30 8192 H 767.677 -5.47091 2.46601 0
M  V30 8193 H 768.747 -4.06799 2.639 0
M  V30 8194 N 770.09 -0.729906 -1.39679 0
M  V30 8195 C 771 -0.0880322 -2.34435 0
M  V30 8196 C 772.016 0.727674 -1.58053 0
M  V30 8197 O 773.192 0.657321 -1.90371 0
M  V30 8198 C 770.257 0.812211 -3.37052 0
M  V30 8199 C 769.318 -0.0151681 -4.29297 0
M  V30 8200 C 768.551 0.842202 -5.27013 0
M  V30 8201 O 768.774 2.08108 -5.31081 0
M  V30 8202 O 767.708 0.27357 -6.01278 0
M  V30 8203 H 771.534 -0.869989 -2.90972 0
M  V30 8204 H 769.119 -0.490522 -1.41118 0
M  V30 8205 H 771.001 1.32745 -3.99946 0
M  V30 8206 H 769.676 1.57307 -2.82907 0
M  V30 8207 H 768.583 -0.575811 -3.69642 0
M  V30 8208 H 769.916 -0.738129 -4.86634 0
M  V30 8209 N 771.568 1.50203 -0.477153 0
M  V30 8210 C 772.816 2.01959 0.0755889 0
M  V30 8211 C 773.137 1.3608 1.39668 0
M  V30 8212 O 772.407 0.508136 1.89195 0
M  V30 8213 H 770.987 0.74636 0.0309248 0
M  V30 8214 H 773.649 1.84473 -0.628959 0
M  V30 8215 H 772.745 3.11305 0.222683 0
M  V30 8216 N 773.046 0.209999 1.56195 0
M  V30 8217 C 774.292 -0.425442 1.98287 0
M  V30 8218 C 774.625 -1.60232 1.09724 0
M  V30 8219 O 773.9 -1.93902 0.152414 0
M  V30 8220 C 774.183 -0.871189 3.49403 0
M  V30 8221 C 774.036 0.308527 4.48741 0
M  V30 8222 C 775.355 -1.73146 4.04609 0
M  V30 8223 H 772.474 -0.153169 0.720908 0
M  V30 8224 H 775.116 0.303916 1.87554 0
M  V30 8225 H 773.266 -1.49266 3.58681 0
M  V30 8226 H 774.938 0.946487 4.51486 0
M  V30 8227 H 773.181 0.957878 4.23092 0
M  V30 8228 H 773.852 -0.0461143 5.51981 0
M  V30 8229 H 776.328 -1.2072 3.98203 0
M  V30 8230 H 775.204 -2.01228 5.10684 0
M  V30 8231 H 775.465 -2.69083 3.5078 0
M  V30 8232 N 774.524 -1.57472 -0.0634922 0
M  V30 8233 C 775.771 -1.87654 -0.761066 0
M  V30 8234 C 776.099 -0.802847 -1.77157 0
M  V30 8235 O 775.354 0.200244 -1.94673 0
M  V30 8236 C 775.653 -3.24521 -1.49736 0
M  V30 8237 C 775.319 -4.46532 -0.626065 0
M  V30 8238 C 773.981 -4.7965 -0.385978 0
M  V30 8239 C 776.333 -5.21195 -0.0224001 0
M  V30 8240 C 773.661 -5.84837 0.467118 0
M  V30 8241 C 776.013 -6.27286 0.818198 0
M  V30 8242 C 774.677 -6.58899 1.06808 0
M  V30 8243 H 773.947 -0.686675 -0.278494 0
M  V30 8244 H 776.594 -1.91488 -0.0216348 0
M  V30 8245 H 774.899 -3.16516 -2.30921 0
M  V30 8246 H 776.596 -3.45111 -2.04204 0
M  V30 8247 H 773.186 -4.20618 -0.823325 0
M  V30 8248 H 777.37 -4.95917 -0.194985 0
M  V30 8249 H 772.626 -6.07725 0.669375 0
M  V30 8250 H 776.8 -6.84298 1.29265 0
M  V30 8251 H 774.427 -7.40233 1.73088 0
M  V30 8252 N 776.003 0.335068 -1.53997 0
M  V30 8253 C 777.414 0.910191 -1.6301 0
M  V30 8254 C 777.765 1.89271 -0.516809 0
M  V30 8255 O 776.89 2.13516 0.352123 0
M  V30 8256 C 777.485 1.65761 -2.9548 0
M  V30 8257 C 776.044 2.18163 -3.06728 0
M  V30 8258 C 775.191 1.00338 -2.5851 0
M  V30 8259 H 778.142 0.112965 -1.58297 0
M  V30 8260 H 778.163 2.52107 -2.84995 0
M  V30 8261 H 777.675 0.94227 -3.76488 0
M  V30 8262 H 775.776 2.92847 -2.30372 0
M  V30 8263 H 775.889 2.43952 -4.1234 0
M  V30 8264 H 774.253 1.37925 -2.14124 0
M  V30 8265 H 775.036 0.30254 -3.41964 0
M  V30 8266 N 777.481 1.45874 0.596531 0
M  V30 8267 C 778.727 1.5069 1.35722 0
M  V30 8268 C 779.06 0.152506 1.936 0
M  V30 8269 O 778.335 -0.834411 1.75692 0
M  V30 8270 C 778.618 2.59474 2.4969 0
M  V30 8271 C 778.471 4.04396 1.96937 0
M  V30 8272 C 779.79 2.64451 3.51787 0
M  V30 8273 H 776.909 0.548611 0.492133 0
M  V30 8274 H 779.551 1.77741 0.671428 0
M  V30 8275 H 777.701 2.36539 3.08191 0
M  V30 8276 H 779.373 4.38576 1.43 0
M  V30 8277 H 777.616 4.14529 1.27859 0
M  V30 8278 H 778.287 4.76218 2.79143 0
M  V30 8279 H 780.763 2.85031 3.03145 0
M  V30 8280 H 779.639 3.42411 4.29006 0
M  V30 8281 H 779.9 1.69965 4.08123 0
M  V30 8282 N 778.959 -0.83999 1.33349 0
M  V30 8283 C 780.207 -1.59202 1.24496 0
M  V30 8284 C 780.528 -1.94077 -0.189499 0
M  V30 8285 O 779.798 -1.60868 -1.11796 0
M  V30 8286 H 778.378 -0.590276 0.457802 0
M  V30 8287 H 781.04 -1.00394 1.67054 0
M  V30 8288 H 780.136 -2.52247 1.83788 0
M  V30 8289 N 780.437 -1.16799 -1.0581 0
M  V30 8290 C 781.684 -0.952524 -1.78699 0
M  V30 8291 C 782.012 0.51931 -1.87439 0
M  V30 8292 O 781.267 1.40151 -1.36587 0
M  V30 8293 C 781.566 -1.53111 -3.22942 0
M  V30 8294 C 781.232 -3.0261 -3.34273 0
M  V30 8295 C 779.894 -3.43418 -3.37072 0
M  V30 8296 C 782.246 -3.98611 -3.35795 0
M  V30 8297 C 779.574 -4.78838 -3.39015 0
M  V30 8298 C 781.926 -5.33923 -3.39277 0
M  V30 8299 C 780.59 -5.74205 -3.40361 0
M  V30 8300 H 779.86 -0.348553 -0.653905 0
M  V30 8301 H 782.507 -1.45591 -1.244 0
M  V30 8302 H 780.812 -0.949286 -3.80126 0
M  V30 8303 H 782.509 -1.34002 -3.77948 0
M  V30 8304 H 779.099 -2.70075 -3.32803 0
M  V30 8305 H 783.283 -3.68146 -3.32839 0
M  V30 8306 H 778.539 -5.09369 -3.38161 0
M  V30 8307 H 782.713 -6.08094 -3.39403 0
M  V30 8308 H 780.34 -6.79117 -3.4162 0
M  V30 8309 N 781.915 1.24427 -0.967243 0
M  V30 8310 C 783.163 1.92107 -0.627638 0
M  V30 8311 C 783.484 1.75991 0.83978 0
M  V30 8312 O 782.754 1.13118 1.59941 0
M  V30 8313 H 781.334 0.710986 -0.229145 0
M  V30 8314 H 783.996 1.51331 -1.22821 0
M  V30 8315 H 783.092 2.99791 -0.867844 0
M  V30 8316 N 783.393 0.737304 1.3929 0
M  V30 8317 C 784.67 0.212464 1.94443 0
M  V30 8318 C 785.05 -1.28621 1.67391 0
M  V30 8319 O 784.398 -2.0529 1.00342 0
M  V30 8320 C 784.608 0.548565 3.44662 0
M  V30 8321 C 785.956 0.499177 4.21656 0
M  V30 8322 O 786.98 0.485892 3.5287 0
M  V30 8323 O 785.839 0.495739 5.44247 0
M  V30 8324 H 782.933 0.0395457 0.826054 0
M  V30 8325 H 785.479 0.816319 1.48776 0
M  V30 8326 H 784.251 1.58426 3.57795 0
M  V30 8327 H 783.874 -0.0841399 3.97511 0
M  V30 8328 N 784.871 -1.49948 0.485112 0
M  V30 8329 C 786.096 -2.073 -0.0645059 0
M  V30 8330 C 786.521 -1.345 -1.31497 0
M  V30 8331 O 785.879 -0.39687 -1.76903 0
M  V30 8332 C 785.927 -3.59201 -0.317304 0
M  V30 8333 O 785.031 -3.88085 -1.39514 0
M  V30 8334 H 784.372 -0.663723 0.0191822 0
M  V30 8335 H 786.902 -1.92963 0.680179 0
M  V30 8336 H 786.912 -4.04227 -0.553604 0
M  V30 8337 H 785.587 -4.11602 0.596387 0
M  V30 8338 H 784.164 -3.54885 -1.14504 0
M  V30 8339 N 786.349 -0.21828 -1.56081 0
M  V30 8340 C 787.259 0.704602 -2.23769 0
M  V30 8341 C 788.275 1.21633 -1.24425 0
M  V30 8342 O 789.451 1.25862 -1.57228 0
M  V30 8343 C 786.516 1.89725 -2.90182 0
M  V30 8344 C 785.577 1.42782 -4.0486 0
M  V30 8345 C 784.81 2.56361 -4.68097 0
M  V30 8346 O 785.033 3.74417 -4.30312 0
M  V30 8347 O 783.967 2.2775 -5.57148 0
M  V30 8348 H 787.793 0.158007 -3.03289 0
M  V30 8349 H 785.378 0.0120279 -1.49395 0
M  V30 8350 H 787.26 2.59382 -3.32113 0
M  V30 8351 H 785.935 2.432 -2.13624 0
M  V30 8352 H 784.842 0.699359 -3.67505 0
M  V30 8353 H 786.175 0.939474 -4.83151 0
M  V30 8354 N 787.827 1.57504 0.0551401 0
M  V30 8355 C 789.073 1.88334 0.752216 0
M  V30 8356 C 789.406 0.812742 1.76375 0
M  V30 8357 O 788.681 -0.175198 1.93709 0
M  V30 8358 C 788.964 3.29824 1.44528 0
M  V30 8359 C 788.817 4.47553 0.449026 0
M  V30 8360 C 790.136 3.69808 2.38601 0
M  V30 8361 H 787.255 0.684973 0.271995 0
M  V30 8362 H 789.897 1.89994 0.0151895 0
M  V30 8363 H 788.047 3.28539 2.07351 0
M  V30 8364 H 789.719 4.60967 -0.175277 0
M  V30 8365 H 787.962 4.33168 -0.234162 0
M  V30 8366 H 788.633 5.43376 0.971917 0
M  V30 8367 H 791.109 3.72293 1.85842 0
M  V30 8368 H 789.985 4.69665 2.84088 0
M  V30 8369 H 790.246 3.00641 3.24141 0
M  V30 8370 N 789.305 -0.326896 1.54172 0
M  V30 8371 C 790.53 -1.08924 1.76494 0
M  V30 8372 C 790.955 -1.81039 0.510523 0
M  V30 8373 O 790.313 -1.73141 -0.537756 0
M  V30 8374 C 790.361 -2.06558 2.95578 0
M  V30 8375 O 789.465 -3.14394 2.6689 0
M  V30 8376 H 788.806 -0.314216 0.584948 0
M  V30 8377 H 791.336 -0.372207 2.01186 0
M  V30 8378 H 791.346 -2.49487 3.22832 0
M  V30 8379 H 790.021 -1.53469 3.86549 0
M  V30 8380 H 788.598 -2.76164 2.50576 0
M  V30 8381 N 790.784 -1.46188 -0.588786 0
M  V30 8382 C 792.195 -1.45421 -1.17088 0
M  V30 8383 C 792.546 -0.191801 -1.9526 0
M  V30 8384 O 791.671 0.705497 -2.04577 0
M  V30 8385 C 792.266 -2.63467 -2.13004 0
M  V30 8386 C 790.825 -2.6576 -2.6655 0
M  V30 8387 C 789.972 -2.38002 -1.42304 0
M  V30 8388 H 792.923 -1.54156 -0.377052 0
M  V30 8389 H 792.944 -2.38638 -2.96365 0
M  V30 8390 H 792.456 -3.55331 -1.56081 0
M  V30 8391 H 790.557 -1.77952 -3.27359 0
M  V30 8392 H 790.67 -3.65545 -3.09699 0
M  V30 8393 H 789.034 -1.87936 -1.71907 0
M  V30 8394 H 789.817 -3.32035 -0.872209 0
M  V30 8395 N 792.262 0.832906 -1.33792 0
M  V30 8396 C 793.192 1.95828 -1.27176 0
M  V30 8397 C 794.173 1.69427 -0.15114 0
M  V30 8398 O 795.358 1.91167 -0.341886 0
M  V30 8399 C 792.488 3.32098 -1.01629 0
M  V30 8400 C 791.442 3.72912 -2.10049 0
M  V30 8401 C 790.768 5.07054 -1.69706 0
M  V30 8402 C 792.068 3.86064 -3.51783 0
M  V30 8403 H 793.762 2.01622 -2.21334 0
M  V30 8404 H 791.308 0.96866 -1.0655 0
M  V30 8405 H 793.261 4.10402 -0.956474 0
M  V30 8406 H 791.985 3.26577 -0.0390956 0
M  V30 8407 H 790.644 2.96876 -2.15082 0
M  V30 8408 H 790.292 4.9801 -0.706737 0
M  V30 8409 H 789.992 5.35333 -2.42264 0
M  V30 8410 H 791.516 5.87827 -1.65202 0
M  V30 8411 H 792.93 4.54665 -3.49218 0
M  V30 8412 H 791.327 4.25787 -4.22878 0
M  V30 8413 H 792.397 2.88344 -3.89854 0
M  V30 8414 N 793.74 1.17359 1.05189 0
M  V30 8415 C 794.968 0.986529 1.81866 0
M  V30 8416 C 795.383 -0.46522 1.82979 0
M  V30 8417 O 794.74 -1.32305 1.25705 0
M  V30 8418 C 794.791 1.52021 3.27982 0
M  V30 8419 O 794.512 2.91511 3.27037 0
M  V30 8420 C 796.013 1.37774 4.21347 0
M  V30 8421 H 793.233 0.349021 0.573084 0
M  V30 8422 H 795.777 1.55648 1.32643 0
M  V30 8423 H 793.932 0.992287 3.74476 0
M  V30 8424 H 794.346 3.16178 4.18488 0
M  V30 8425 H 795.82 1.7993 5.21852 0
M  V30 8426 H 796.297 0.32483 4.37997 0
M  V30 8427 H 796.903 1.89583 3.80708 0
M  V30 8428 N 795.218 -1.23913 0.973828 0
M  V30 8429 C 796.467 -1.91455 0.63464 0
M  V30 8430 C 796.78 -1.76893 -0.834759 0
M  V30 8431 O 797.986 -2.3918 -1.28473 0
M  V30 8432 C 796.442 -3.43172 1.08447 0
M  V30 8433 C 796.05 -3.66409 2.57776 0
M  V30 8434 C 797.794 -4.1653 0.818721 0
M  V30 8435 C 795.701 -5.11728 2.9646 0
M  V30 8436 H 794.631 -0.716881 0.233661 0
M  V30 8437 H 797.282 -1.40457 1.18085 0
M  V30 8438 H 795.664 -3.93242 0.466524 0
M  V30 8439 H 796.838 -3.26913 3.24753 0
M  V30 8440 H 795.153 -3.06349 2.82027 0
M  V30 8441 H 797.75 -5.23603 1.08367 0
M  V30 8442 H 798.093 -4.15578 -0.245128 0
M  V30 8443 H 798.626 -3.72428 1.39793 0
M  V30 8444 H 795.365 -5.17806 4.01941 0
M  V30 8445 H 794.885 -5.52199 2.34172 0
M  V30 8446 H 796.564 -5.80009 2.86703 0
M  V30 8447 N 796.696 -0.74468 -1.38897 0
M  V30 8448 C 797.606 -0.112892 -2.34328 0
M  V30 8449 C 798.622 0.71087 -1.58816 0
M  V30 8450 O 799.798 0.637092 -1.91058 0
M  V30 8451 C 796.863 0.776417 -3.37894 0
M  V30 8452 C 795.924 -0.0606999 -4.29257 0
M  V30 8453 C 795.157 0.786258 -5.27877 0
M  V30 8454 O 795.38 2.02463 -5.33259 0
M  V30 8455 O 794.314 0.209781 -6.01534 0
M  V30 8456 H 798.14 -0.900801 -2.90033 0
M  V30 8457 H 795.725 -0.505462 -1.4059 0
M  V30 8458 H 797.607 1.28496 -4.01331 0
M  V30 8459 H 796.282 1.54297 -2.84559 0
M  V30 8460 H 795.189 -0.614984 -3.69011 0
M  V30 8461 H 796.522 -0.789702 -4.85824 0
M  V30 8462 N 798.174 1.49689 -0.493057 0
M  V30 8463 C 799.451 1.9525 0.116907 0
M  V30 8464 C 799.831 1.43429 1.54892 0
M  V30 8465 O 799.179 0.644621 2.19219 0
M  V30 8466 C 799.389 3.4898 0.037705 0
M  V30 8467 C 800.737 4.24052 0.215621 0
M  V30 8468 O 801.761 3.5602 0.113266 0
M  V30 8469 O 800.62 5.44847 0.42477 0
M  V30 8470 H 797.714 0.820973 0.099662 0
M  V30 8471 H 800.26 1.60367 -0.555029 0
M  V30 8472 H 799.032 3.79309 -0.961251 0
M  V30 8473 H 798.655 3.9046 0.750137 0
M  V30 8474 N 799.652 0.226554 1.55963 0
M  V30 8475 C 801.063 -0.280381 1.84583 0
M  V30 8476 C 801.414 -1.59105 1.14804 0
M  V30 8477 O 800.539 -2.12297 0.419414 0
M  V30 8478 C 801.134 -0.515499 3.34855 0
M  V30 8479 C 799.693 -0.966733 3.63774 0
M  V30 8480 C 798.84 -0.0325753 2.77281 0
M  V30 8481 H 801.791 0.449626 1.52197 0
M  V30 8482 H 801.812 -1.36085 3.55332 0
M  V30 8483 H 801.324 0.438594 3.85614 0
M  V30 8484 H 799.425 -1.93401 3.18476 0
M  V30 8485 H 799.538 -0.837679 4.7172 0
M  V30 8486 H 797.902 -0.540279 2.48904 0
M  V30 8487 H 798.685 0.916524 3.30839 0
M  V30 8488 N 801.13 -1.57531 -0.0467866 0
M  V30 8489 C 802.077 -2.05387 -1.05285 0
M  V30 8490 C 803.047 -0.939385 -1.36985 0
M  V30 8491 O 804.232 -1.20877 -1.47626 0
M  V30 8492 C 801.372 -2.52343 -2.35408 0
M  V30 8493 C 800.485 -3.77512 -2.10022 0
M  V30 8494 C 799.62 -4.1315 -3.33887 0
M  V30 8495 C 798.659 -5.31286 -3.03976 0
M  V30 8496 N 797.796 -5.62441 -4.20243 0
M  V30 8497 H 802.636 -2.91095 -0.637788 0
M  V30 8498 H 800.173 -1.43939 -0.303322 0
M  V30 8499 H 802.131 -2.77628 -3.11413 0
M  V30 8500 H 800.761 -1.69577 -2.7467 0
M  V30 8501 H 799.813 -3.59417 -1.24594 0
M  V30 8502 H 801.125 -4.63644 -1.83945 0
M  V30 8503 H 800.279 -4.39469 -4.18273 0
M  V30 8504 H 799.018 -3.25634 -3.63062 0
M  V30 8505 H 798.023 -5.04738 -2.17991 0
M  V30 8506 H 799.248 -6.20441 -2.76098 0
M  V30 8507 H 797.194 -4.77885 -4.49402 0
M  V30 8508 H 797.111 -6.43046 -3.97528 0
M  V30 8509 H 798.379 -5.93327 -5.05553 0
M  V30 8510 N 802.608 0.318715 -1.54344 0
M  V30 8511 C 803.558 1.39364 -1.80448 0
M  V30 8512 C 804.542 1.46708 -0.660728 0
M  V30 8513 O 805.734 1.51159 -0.920869 0
M  V30 8514 C 802.863 2.76144 -2.03959 0
M  V30 8515 C 801.949 2.73094 -3.24469 0
M  V30 8516 N 802.34 2.39663 -4.45416 0
M  V30 8517 C 800.638 3.04218 -3.2614 0
M  V30 8518 C 801.339 2.45469 -5.27371 0
M  V30 8519 N 800.315 2.82107 -4.64668 0
M  V30 8520 H 804.117 1.12453 -2.71535 0
M  V30 8521 H 801.631 0.527221 -1.53604 0
M  V30 8522 H 803.628 3.53627 -2.20802 0
M  V30 8523 H 802.288 3.03982 -1.14129 0
M  V30 8524 H 803.299 2.12424 -4.72331 0
M  V30 8525 H 799.976 3.37066 -2.4636 0
M  V30 8526 H 801.366 2.22571 -6.33965 0
M  V30 8527 N 804.086 1.46499 0.581025 0
M  V30 8528 C 805.332 1.52121 1.34116 0
M  V30 8529 C 805.665 0.173031 1.93428 0
M  V30 8530 O 804.94 -0.815729 1.76568 0
M  V30 8531 C 805.223 2.62108 2.46924 0
M  V30 8532 C 805.076 4.06462 1.92636 0
M  V30 8533 C 806.395 2.68167 3.48962 0
M  V30 8534 H 803.514 0.5538 0.486287 0
M  V30 8535 H 806.156 1.78443 0.652538 0
M  V30 8536 H 804.306 2.39794 3.05665 0
M  V30 8537 H 805.978 4.40068 1.3834 0
M  V30 8538 H 804.221 4.15862 1.23455 0
M  V30 8539 H 804.892 4.79152 2.74076 0
M  V30 8540 H 807.368 2.8823 3.00104 0
M  V30 8541 H 806.244 3.46942 4.2535 0
M  V30 8542 H 806.505 1.74284 4.06297 0
M  V30 8543 N 805.565 -0.825799 1.34232 0
M  V30 8544 C 806.805 -1.59541 1.27773 0
M  V30 8545 C 807.169 -1.91405 -0.150998 0
M  V30 8546 O 808.37 -2.66644 -0.339728 0
M  V30 8547 C 806.641 -2.86183 2.14089 0
M  V30 8548 S 808.2 -3.76751 2.24953 0
M  V30 8549 H 805.018 -0.546871 0.454371 0
M  V30 8550 H 807.62 -0.975677 1.69413 0
M  V30 8551 H 806.324 -2.60767 3.16905 0
M  V30 8552 H 805.855 -3.53155 1.73335 0
M  V30 8553 H 807.87 -4.75442 1.4202 0
M  V30 8554 N 807.043 -1.17915 -1.04565 0
M  V30 8555 C 808.32 -0.881187 -1.74627 0
M  V30 8556 C 808.7 0.617123 -2.01878 0
M  V30 8557 O 808.048 1.57032 -1.65991 0
M  V30 8558 C 808.258 -1.72299 -3.03503 0
M  V30 8559 C 809.606 -1.94688 -3.77335 0
M  V30 8560 O 810.63 -1.6931 -3.13389 0
M  V30 8561 O 809.489 -2.37379 -4.92253 0
M  V30 8562 H 806.583 -0.326864 -0.759664 0
M  V30 8563 H 809.129 -1.28642 -1.10676 0
M  V30 8564 H 807.901 -2.73891 -2.79462 0
M  V30 8565 H 807.524 -1.31593 -3.75192 0
M  V30 8566 N 808.521 1.23394 -0.980386 0
M  V30 8567 C 809.932 1.73631 -0.686239 0
M  V30 8568 C 810.283 1.79259 0.797541 0
M  V30 8569 O 809.408 1.43046 1.62379 0
M  V30 8570 C 810.003 3.15332 -1.239 0
M  V30 8571 C 808.562 3.63024 -0.994494 0
M  V30 8572 C 807.709 2.41279 -1.36673 0
M  V30 8573 H 810.66 1.08918 -1.15423 0
M  V30 8574 H 810.681 3.75556 -0.611414 0
M  V30 8575 H 810.193 3.11204 -2.31892 0
M  V30 8576 H 808.294 3.72535 0.0693492 0
M  V30 8577 H 808.407 4.49825 -1.64906 0
M  V30 8578 H 806.771 2.42295 -0.785195 0
M  V30 8579 H 807.554 2.39822 -2.45642 0
M  V30 8580 N 809.999 0.752036 1.385 0
M  V30 8581 C 811.41 0.375385 1.82887 0
M  V30 8582 C 811.761 -1.09575 1.62751 0
M  V30 8583 O 810.886 -1.84685 1.12785 0
M  V30 8584 C 811.481 0.674563 3.32017 0
M  V30 8585 C 810.04 0.351208 3.74758 0
M  V30 8586 C 809.187 0.928531 2.61292 0
M  V30 8587 H 812.138 0.948313 1.27251 0
M  V30 8588 H 812.159 -0.0477781 3.8047 0
M  V30 8589 H 811.671 1.74533 3.46641 0
M  V30 8590 H 809.772 -0.713042 3.65714 0
M  V30 8591 H 809.885 0.845675 4.71577 0
M  V30 8592 H 808.249 0.354012 2.52228 0
M  V30 8593 H 809.032 2.0043 2.78716 0
M  V30 8594 N 811.477 -1.49425 0.500989 0
M  V30 8595 C 812.702 -2.07356 -0.0425154 0
M  V30 8596 C 813.127 -1.35887 -1.30063 0
M  V30 8597 O 812.485 -0.41561 -1.76472 0
M  V30 8598 C 812.533 -3.59518 -0.279188 0
M  V30 8599 O 811.637 -3.89542 -1.3539 0
M  V30 8600 H 810.978 -0.663482 0.0262207 0
M  V30 8601 H 813.508 -1.92231 0.700607 0
M  V30 8602 H 813.518 -4.04791 -0.5107 0
M  V30 8603 H 812.193 -4.10946 0.640009 0
M  V30 8604 H 810.77 -3.56079 -1.10734 0
M  V30 8605 N 812.955 -0.234822 -1.55841 0
M  V30 8606 C 814.203 0.392483 -1.98252 0
M  V30 8607 C 814.524 1.59344 -1.12404 0
M  V30 8608 O 813.794 1.94834 -0.204055 0
M  V30 8609 H 812.374 0.147999 -0.732192 0
M  V30 8610 H 815.036 -0.330804 -1.92072 0
M  V30 8611 H 814.132 0.709829 -3.03921 0
M  V30 8612 N 814.433 1.57553 0.0384317 0
M  V30 8613 C 815.844 1.77258 0.586211 0
M  V30 8614 C 816.195 0.864706 1.76117 0
M  V30 8615 O 815.32 0.057141 2.16325 0
M  V30 8616 C 815.915 3.21453 1.07021 0
M  V30 8617 C 814.474 3.42387 1.56358 0
M  V30 8618 C 813.621 2.72801 0.497508 0
M  V30 8619 H 816.572 1.57585 -0.187796 0
M  V30 8620 H 816.593 3.27451 1.93794 0
M  V30 8621 H 816.105 3.87505 0.214851 0
M  V30 8622 H 814.206 2.81497 2.44111 0
M  V30 8623 H 814.319 4.50968 1.61754 0
M  V30 8624 H 812.683 2.36305 0.95038 0
M  V30 8625 H 813.466 3.41529 -0.348234 0
M  V30 8626 N 815.911 -0.310526 1.54511 0
M  V30 8627 C 817.188 -1.06593 1.64004 0
M  V30 8628 C 817.568 -2.05519 0.482216 0
M  V30 8629 O 816.916 -2.22455 -0.52212 0
M  V30 8630 C 817.126 -1.75627 3.01589 0
M  V30 8631 C 818.474 -2.28173 3.58081 0
M  V30 8632 O 819.498 -1.85674 3.03979 0
M  V30 8633 O 818.357 -3.06015 4.52788 0
M  V30 8634 H 815.451 -0.492109 0.664649 0
M  V30 8635 H 817.997 -0.309374 1.66856 0
M  V30 8636 H 816.769 -1.03743 3.77297 0
M  V30 8637 H 816.392 -2.58061 3.02473 0
M  V30 8638 N 817.389 -1.46805 -0.573248 0
M  V30 8639 C 818.617 -1.56191 -1.3569 0
M  V30 8640 C 819.032 -0.206362 -1.87669 0
M  V30 8641 O 818.389 0.797883 -1.64134 0
M  V30 8642 C 818.44 -2.57433 -2.53792 0
M  V30 8643 O 818.161 -3.87724 -2.03965 0
M  V30 8644 C 819.662 -2.76851 -3.4622 0
M  V30 8645 H 816.882 -0.527907 -0.414192 0
M  V30 8646 H 819.426 -1.92292 -0.695989 0
M  V30 8647 H 817.581 -2.24311 -3.15854 0
M  V30 8648 H 817.995 -4.42909 -2.80948 0
M  V30 8649 H 819.469 -3.5159 -4.25545 0
M  V30 8650 H 819.946 -1.84095 -3.98755 0
M  V30 8651 H 820.552 -3.11107 -2.89987 0
M  V30 8652 N 818.867 0.818669 -1.34668 0
M  V30 8653 C 820.095 1.60674 -1.30351 0
M  V30 8654 C 820.51 1.88408 0.121546 0
M  V30 8655 O 819.867 1.47849 1.06991 0
M  V30 8656 C 819.918 2.94516 -2.09625 0
M  V30 8657 O 819.639 2.6799 -3.46573 0
M  V30 8658 C 821.14 3.8891 -2.12754 0
M  V30 8659 H 818.36 0.499306 -0.448258 0
M  V30 8660 H 820.904 1.01828 -1.77345 0
M  V30 8661 H 819.059 3.49908 -1.66262 0
M  V30 8662 H 819.473 3.53361 -3.87603 0
M  V30 8663 H 820.947 4.79972 -2.72637 0
M  V30 8664 H 821.424 4.24599 -1.12306 0
M  V30 8665 H 822.03 3.39453 -2.56225 0
M  V30 8666 N 820.346 1.18468 1.03938 0
M  V30 8667 C 821.757 0.984808 1.58614 0
M  V30 8668 C 822.108 -0.465165 1.90606 0
M  V30 8669 O 821.233 -1.34274 1.69704 0
M  V30 8670 C 821.828 1.78135 2.8819 0
M  V30 8671 C 820.387 1.62579 3.39478 0
M  V30 8672 C 819.534 1.77501 2.13046 0
M  V30 8673 H 822.485 1.32993 0.865944 0
M  V30 8674 H 822.506 1.27119 3.58638 0
M  V30 8675 H 822.018 2.83661 2.64874 0
M  V30 8676 H 820.119 0.59595 3.67803 0
M  V30 8677 H 820.232 2.42463 4.13217 0
M  V30 8678 H 818.596 1.2046 2.24414 0
M  V30 8679 H 819.379 2.84464 1.92185 0
M  V30 8680 N 821.824 -1.22873 0.986916 0
M  V30 8681 C 822.787 -2.2281 0.537442 0
M  V30 8682 C 823.787 -1.56331 -0.37646 0
M  V30 8683 O 824.977 -1.73376 -0.169247 0
M  V30 8684 C 822.109 -3.40195 -0.219082 0
M  V30 8685 H 823.302 -2.64089 1.42116 0
M  V30 8686 H 820.855 -1.35819 0.773488 0
M  V30 8687 H 821.59 -3.04381 -1.11905 0
M  V30 8688 H 821.375 -3.89657 0.437026 0
M  V30 8689 H 822.865 -4.14326 -0.521926 0
M  V30 8690 N 823.302 -0.75937 -1.38099 0
M  V30 8691 C 824.265 -0.14372 -2.28749 0
M  V30 8692 C 825.265 0.641338 -1.47457 0
M  V30 8693 O 826.455 0.466751 -1.67831 0
M  V30 8694 C 823.587 0.804545 -3.3127 0
M  V30 8695 H 824.78 -0.942663 -2.847 0
M  V30 8696 H 822.333 -0.526757 -1.47156 0
M  V30 8697 H 823.068 1.62895 -2.80421 0
M  V30 8698 H 822.853 0.243939 -3.9134 0
M  V30 8699 H 824.343 1.23111 -3.99041 0
M  V30 8700 N 824.78 1.49157 -0.508906 0
M  V30 8701 C 826.005 2.07376 0.0315182 0
M  V30 8702 C 826.43 1.36575 1.2934 0
M  V30 8703 O 825.788 0.424963 1.76249 0
M  V30 8704 C 825.836 3.59661 0.260118 0
M  V30 8705 O 824.94 3.90255 1.33322 0
M  V30 8706 H 824.281 0.663334 -0.029739 0
M  V30 8707 H 826.811 1.91857 -0.710791 0
M  V30 8708 H 826.821 4.05056 0.489225 0
M  V30 8709 H 825.496 4.10601 -0.661794 0
M  V30 8710 H 824.073 3.56661 1.08844 0
M  V30 8711 N 826.258 0.243083 1.55714 0
M  V30 8712 C 827.535 -0.432851 1.90751 0
M  V30 8713 C 827.915 -1.76153 1.16333 0
M  V30 8714 O 827.263 -2.26783 0.279565 0
M  V30 8715 C 827.473 -0.604685 3.43722 0
M  V30 8716 C 828.821 -0.90231 4.14902 0
M  V30 8717 O 829.845 -0.690689 3.49439 0
M  V30 8718 O 828.704 -1.3051 5.30688 0
M  V30 8719 H 825.798 -0.231835 0.79384 0
M  V30 8720 H 828.344 0.286867 1.67258 0
M  V30 8721 H 827.116 0.331655 3.89892 0
M  V30 8722 H 826.739 -1.37509 3.73065 0
M  V30 8723 N 827.736 -1.57571 -0.0300757 0
M  V30 8724 C 828.666 -2.0953 -1.03051 0
M  V30 8725 C 829.647 -0.99761 -1.37774 0
M  V30 8726 O 830.832 -1.27279 -1.46676 0
M  V30 8727 C 827.962 -2.57385 -2.33174 0
M  V30 8728 C 826.916 -3.71409 -2.12696 0
M  V30 8729 C 826.242 -4.05467 -3.4857 0
M  V30 8730 C 827.542 -4.99877 -1.51396 0
M  V30 8731 H 829.236 -2.93367 -0.597999 0
M  V30 8732 H 826.782 -1.41127 -0.286203 0
M  V30 8733 H 828.735 -2.92355 -3.03491 0
M  V30 8734 H 827.459 -1.70629 -2.78484 0
M  V30 8735 H 826.118 -3.36786 -1.44813 0
M  V30 8736 H 825.766 -3.15779 -3.91526 0
M  V30 8737 H 825.466 -4.82269 -3.35694 0
M  V30 8738 H 826.99 -4.4297 -4.2025 0
M  V30 8739 H 828.404 -5.3281 -2.11629 0
M  V30 8740 H 826.801 -5.81283 -1.49098 0
M  V30 8741 H 827.871 -4.82522 -0.479676 0
M  V30 8742 N 829.214 0.302327 -1.54673 0
M  V30 8743 C 830.625 0.875409 -1.64904 0
M  V30 8744 C 830.976 1.88132 -0.55684 0
M  V30 8745 O 830.101 2.14215 0.306754 0
M  V30 8746 C 830.696 1.59457 -2.9893 0
M  V30 8747 C 829.255 2.11607 -3.11287 0
M  V30 8748 C 828.402 0.948324 -2.6058 0
M  V30 8749 H 831.353 0.079362 -1.58501 0
M  V30 8750 H 831.374 2.46005 -2.90279 0
M  V30 8751 H 830.886 0.8622 -3.78402 0
M  V30 8752 H 828.987 2.87895 -2.36532 0
M  V30 8753 H 829.1 2.35151 -4.17422 0
M  V30 8754 H 827.464 1.33352 -2.17001 0
M  V30 8755 H 828.247 0.229936 -3.42529 0
M  V30 8756 N 830.692 1.47107 0.565454 0
M  V30 8757 C 831.92 1.56909 1.3486 0
M  V30 8758 C 832.335 0.216312 1.87557 0
M  V30 8759 O 831.692 -0.789168 1.64555 0
M  V30 8760 C 831.743 2.58776 2.52423 0
M  V30 8761 O 831.464 3.888 2.01906 0
M  V30 8762 C 832.965 2.78683 3.44747 0
M  V30 8763 H 830.185 0.530096 0.411387 0
M  V30 8764 H 832.729 1.92658 0.685782 0
M  V30 8765 H 830.884 2.25983 3.1466 0
M  V30 8766 H 831.298 4.44393 2.78595 0
M  V30 8767 H 832.772 3.53842 4.23674 0
M  V30 8768 H 833.249 1.86208 3.97773 0
M  V30 8769 H 833.855 3.12641 2.88333 0
M  V30 8770 N 832.17 -0.811516 1.35101 0
M  V30 8771 C 833.08 -1.95475 1.29718 0
M  V30 8772 C 834.096 -1.72813 0.202909 0
M  V30 8773 O 835.272 -1.96725 0.431414 0
M  V30 8774 C 832.337 -3.29975 1.06385 0
M  V30 8775 C 831.398 -3.65566 2.25077 0
M  V30 8776 C 830.631 -4.93648 2.02848 0
M  V30 8777 O 830.854 -5.617 0.992442 0
M  V30 8778 O 829.788 -5.27384 2.90087 0
M  V30 8779 H 833.614 -2.02961 2.25921 0
M  V30 8780 H 831.199 -0.948583 1.15422 0
M  V30 8781 H 833.081 -4.10506 0.951999 0
M  V30 8782 H 831.756 -3.2343 0.132294 0
M  V30 8783 H 830.663 -2.85432 2.41825 0
M  V30 8784 H 831.996 -3.7681 3.16662 0
M  V30 8785 N 833.648 -1.19017 -1.03309 0
M  V30 8786 C 834.58 -0.881847 -2.11556 0
M  V30 8787 C 835.593 0.123711 -1.62329 0
M  V30 8788 O 836.782 -0.105141 -1.7819 0
M  V30 8789 C 833.882 -0.297634 -3.37591 0
M  V30 8790 C 833.055 -1.35072 -4.16022 0
M  V30 8791 C 832.114 -0.780812 -5.20375 0
M  V30 8792 O 831.14 -1.45745 -5.50224 0
M  V30 8793 N 832.342 0.417964 -5.78993 0
M  V30 8794 H 835.107 -1.81359 -2.38598 0
M  V30 8795 H 832.668 -1.0916 -1.19565 0
M  V30 8796 H 834.66 0.097374 -4.04583 0
M  V30 8797 H 833.23 0.538299 -3.0793 0
M  V30 8798 H 832.45 -1.92074 -3.4424 0
M  V30 8799 H 833.738 -2.06044 -4.65213 0
M  V30 8800 H 833.136 0.985281 -5.57054 0
M  V30 8801 H 831.693 0.754802 -6.47415 0
M  V30 8802 N 835.127 1.22348 -0.993418 0
M  V30 8803 C 836.538 1.72893 -0.704616 0
M  V30 8804 C 836.889 1.80095 0.778483 0
M  V30 8805 O 836.014 1.4476 1.60853 0
M  V30 8806 C 836.609 3.14 -1.27237 0
M  V30 8807 C 835.168 3.61949 -1.03294 0
M  V30 8808 C 834.315 2.39816 -1.39225 0
M  V30 8809 H 837.266 1.07688 -1.16572 0
M  V30 8810 H 837.287 3.74886 -0.651212 0
M  V30 8811 H 836.799 3.08727 -2.3518 0
M  V30 8812 H 834.9 3.72588 0.0298329 0
M  V30 8813 H 835.013 4.48051 -1.69668 0
M  V30 8814 H 833.377 2.41448 -0.810849 0
M  V30 8815 H 834.16 2.37203 -2.48172 0
M  V30 8816 N 836.605 0.766683 1.37694 0
M  V30 8817 C 838.016 0.394761 1.82479 0
M  V30 8818 C 838.367 -1.07842 1.63904 0
M  V30 8819 O 837.492 -1.83479 1.14737 0
M  V30 8820 C 838.087 0.70974 3.31283 0
M  V30 8821 C 836.646 0.390936 3.74364 0
M  V30 8822 C 835.793 0.956192 2.60293 0
M  V30 8823 H 838.744 0.961756 1.26238 0
M  V30 8824 H 838.765 -0.00742144 3.80499 0
M  V30 8825 H 838.277 1.782 3.4477 0
M  V30 8826 H 836.378 -0.674213 3.66449 0
M  V30 8827 H 836.491 0.895645 4.70654 0
M  V30 8828 H 834.855 0.380744 2.51838 0
M  V30 8829 H 835.638 2.03375 2.76575 0
M  V30 8830 N 838.083 -1.48885 0.516809 0
M  V30 8831 C 839.308 -2.0739 -0.0205201 0
M  V30 8832 C 839.733 -1.37259 -1.28614 0
M  V30 8833 O 839.091 -0.434304 -1.76021 0
M  V30 8834 C 839.139 -3.59793 -0.24104 0
M  V30 8835 O 838.243 -3.90957 -1.31251 0
M  V30 8836 H 837.584 -0.663167 0.0332564 0
M  V30 8837 H 840.114 -1.91477 0.720956 0
M  V30 8838 H 840.124 -4.0531 -0.467737 0
M  V30 8839 H 838.799 -4.10244 0.68356 0
M  V30 8840 H 837.376 -3.57234 -1.06951 0
M  V30 8841 N 839.561 -0.251338 -1.55583 0
M  V30 8842 C 840.972 0.25098 -1.85005 0
M  V30 8843 C 841.323 1.57259 -1.17321 0
M  V30 8844 O 840.448 2.11603 -0.453136 0
M  V30 8845 C 841.043 0.462161 -3.35633 0
M  V30 8846 C 839.602 0.908737 -3.65266 0
M  V30 8847 C 838.749 -0.0115418 -2.77298 0
M  V30 8848 H 841.7 -0.473782 -1.51463 0
M  V30 8849 H 841.721 1.30415 -3.57452 0
M  V30 8850 H 841.233 -0.499886 -3.84867 0
M  V30 8851 H 839.334 1.8831 -3.21512 0
M  V30 8852 H 839.447 0.762526 -4.72993 0
M  V30 8853 H 837.811 0.500612 -2.49732 0
M  V30 8854 H 838.594 -0.969042 -3.29339 0
M  V30 8855 N 841.039 1.57585 0.0217189 0
M  V30 8856 C 841.971 2.03849 1.04777 0
M  V30 8857 C 842.984 0.952558 1.32023 0
M  V30 8858 O 844.173 1.22974 1.29381 0
M  V30 8859 C 841.273 2.40504 2.3877 0
M  V30 8860 C 840.446 3.71566 2.30775 0
M  V30 8861 C 839.505 3.95329 3.47277 0
M  V30 8862 O 838.531 4.66289 3.26441 0
M  V30 8863 N 839.733 3.41536 4.69397 0
M  V30 8864 H 842.498 2.92491 0.653395 0
M  V30 8865 H 840.059 1.60538 0.209527 0
M  V30 8866 H 842.051 2.53532 3.15442 0
M  V30 8867 H 840.621 1.57494 2.70027 0
M  V30 8868 H 839.841 3.68822 1.39155 0
M  V30 8869 H 841.129 4.5753 2.22584 0
M  V30 8870 H 840.527 2.84033 4.89226 0
M  V30 8871 H 839.084 3.59932 5.43408 0
M  V30 8872 N 842.517 -0.29412 1.54831 0
M  V30 8873 C 843.928 -0.866651 1.65366 0
M  V30 8874 C 844.279 -1.87834 0.56681 0
M  V30 8875 O 843.404 -2.14374 -0.295389 0
M  V30 8876 C 843.999 -1.57869 2.99771 0
M  V30 8877 C 842.558 -2.09954 3.12404 0
M  V30 8878 C 841.705 -0.934492 2.6108 0
M  V30 8879 H 844.656 -0.0709551 1.58541 0
M  V30 8880 H 844.677 -2.44462 2.91579 0
M  V30 8881 H 844.189 -0.84212 3.78853 0
M  V30 8882 H 842.29 -2.86637 2.38055 0
M  V30 8883 H 842.403 -2.32934 4.18663 0
M  V30 8884 H 840.767 -1.32199 2.17705 0
M  V30 8885 H 841.55 -0.211768 3.42646 0
M  V30 8886 N 843.995 -1.47404 -0.557645 0
M  V30 8887 C 845.243 -1.53703 -1.31224 0
M  V30 8888 C 845.564 -0.200742 -1.93964 0
M  V30 8889 O 844.834 0.775253 -1.79907 0
M  V30 8890 H 843.414 -0.566171 -0.487299 0
M  V30 8891 H 846.076 -1.83699 -0.651195 0
M  V30 8892 H 845.172 -2.30335 -2.10599 0
M  V30 8893 N 845.473 0.80434 -1.35529 0
M  V30 8894 C 846.884 1.37849 -1.25915 0
M  V30 8895 C 847.235 1.95905 0.107495 0
M  V30 8896 O 846.36 1.91462 1.00852 0
M  V30 8897 C 846.955 2.50608 -2.27994 0
M  V30 8898 C 845.514 3.03879 -2.22114 0
M  V30 8899 C 844.661 1.76856 -2.13582 0
M  V30 8900 H 847.612 0.607192 -1.46625 0
M  V30 8901 H 847.633 3.29221 -1.90772 0
M  V30 8902 H 847.145 2.08323 -3.27449 0
M  V30 8903 H 845.246 3.50622 -1.26077 0
M  V30 8904 H 845.359 3.61707 -3.14173 0
M  V30 8905 H 843.723 1.98498 -1.59595 0
M  V30 8906 H 844.506 1.36721 -3.14901 0
M  V30 8907 N 846.951 1.19563 1.02676 0
M  V30 8908 C 848.362 1.00158 1.57561 0
M  V30 8909 C 848.713 -0.444922 1.91089 0
M  V30 8910 O 847.838 -1.32466 1.71119 0
M  V30 8911 C 848.433 1.81181 2.86284 0
M  V30 8912 C 846.992 1.66171 3.37734 0
M  V30 8913 C 846.139 1.7975 2.11152 0
M  V30 8914 H 849.09 1.33904 0.85179 0
M  V30 8915 H 849.111 1.30916 3.57269 0
M  V30 8916 H 848.623 2.86454 2.6185 0
M  V30 8917 H 846.724 0.634927 3.6715 0
M  V30 8918 H 846.837 2.46832 4.10622 0
M  V30 8919 H 845.201 1.22833 2.23123 0
M  V30 8920 H 845.984 2.86487 1.89157 0
M  V30 8921 N 848.429 -1.21819 0.999893 0
M  V30 8922 C 849.392 -2.22227 0.561044 0
M  V30 8923 C 850.392 -1.56722 -0.359858 0
M  V30 8924 O 851.582 -1.73546 -0.150848 0
M  V30 8925 C 848.714 -3.40409 -0.182987 0
M  V30 8926 H 849.907 -2.62567 1.44909 0
M  V30 8927 H 847.46 -1.34991 0.78785 0
M  V30 8928 H 848.195 -3.05551 -1.08671 0
M  V30 8929 H 847.98 -3.89171 0.47833 0
M  V30 8930 H 849.47 -4.14856 -0.477952 0
M  V30 8931 N 849.908 -0.773975 -1.37286 0
M  V30 8932 C 850.871 -0.167974 -2.28584 0
M  V30 8933 C 851.871 0.625662 -1.48129 0
M  V30 8934 O 853.061 0.448924 -1.68316 0
M  V30 8935 C 850.193 0.769364 -3.32105 0
M  V30 8936 H 851.386 -0.972806 -2.83684 0
M  V30 8937 H 848.939 -0.542335 -1.46589 0
M  V30 8938 H 849.674 1.59912 -2.82132 0
M  V30 8939 H 849.459 0.202419 -3.91577 0
M  V30 8940 H 850.949 1.18872 -4.00324 0
M  V30 8941 N 851.386 1.48609 -0.524698 0
M  V30 8942 C 852.611 2.07398 0.00952139 0
M  V30 8943 C 853.036 1.37939 1.27884 0
M  V30 8944 O 852.394 0.443633 1.75788 0
M  V30 8945 C 852.442 3.59916 0.221956 0
M  V30 8946 O 851.546 3.91647 1.29175 0
M  V30 8947 H 850.887 0.662981 -0.0367729 0
M  V30 8948 H 853.417 1.91092 -0.7311 0
M  V30 8949 H 853.427 4.05552 0.446236 0
M  V30 8950 H 852.102 4.09876 -0.705306 0
M  V30 8951 H 850.679 3.57796 1.05055 0
M  V30 8952 N 852.864 0.259585 1.55447 0
M  V30 8953 C 853.814 -0.648769 2.18575 0
M  V30 8954 C 854.798 -1.1299 1.14552 0
M  V30 8955 O 855.99 -1.07756 1.4042 0
M  V30 8956 C 853.119 -1.83963 2.89849 0
M  V30 8957 C 852.205 -1.37641 4.01143 0
M  V30 8958 N 852.596 -0.628269 5.01883 0
M  V30 8959 C 850.894 -1.66066 4.1393 0
M  V30 8960 C 851.595 -0.386746 5.80413 0
M  V30 8961 N 850.571 -0.954665 5.35151 0
M  V30 8962 H 854.373 -0.0691616 2.93819 0
M  V30 8963 H 851.887 0.0624525 1.6228 0
M  V30 8964 H 853.884 -2.50151 3.33512 0
M  V30 8965 H 852.544 -2.42334 2.16112 0
M  V30 8966 H 853.555 -0.277123 5.17158 0
M  V30 8967 H 850.232 -2.25484 3.51373 0
M  V30 8968 H 851.622 0.211382 6.71567 0
M  V30 8969 N 854.342 -1.57594 -0.0133615 0
M  V30 8970 C 855.57 -1.94251 -0.712328 0
M  V30 8971 C 855.985 -0.86063 -1.68043 0
M  V30 8972 O 855.342 0.161632 -1.81783 0
M  V30 8973 C 855.393 -3.30891 -1.45581 0
M  V30 8974 O 855.114 -4.34924 -0.526539 0
M  V30 8975 C 856.615 -3.81926 -2.2505 0
M  V30 8976 H 853.835 -0.640737 -0.199241 0
M  V30 8977 H 856.379 -2.04472 0.0337855 0
M  V30 8978 H 854.534 -3.22019 -2.15366 0
M  V30 8979 H 854.948 -5.1389 -1.04962 0
M  V30 8980 H 856.422 -4.79999 -2.72589 0
M  V30 8981 H 856.899 -3.13934 -3.07152 0
M  V30 8982 H 857.505 -3.93931 -1.60308 0
M  V30 8983 N 855.82 0.285905 -1.54985 0
M  V30 8984 C 857.231 0.857869 -1.65824 0
M  V30 8985 C 857.582 1.87531 -0.576763 0
M  V30 8986 O 856.707 2.14528 0.284016 0
M  V30 8987 C 857.302 1.56277 -3.00604 0
M  V30 8988 C 855.861 2.08294 -3.13513 0
M  V30 8989 C 855.008 0.920633 -2.61571 0
M  V30 8990 H 857.959 0.0625463 -1.58577 0
M  V30 8991 H 857.98 2.42912 -2.92872 0
M  V30 8992 H 857.492 0.822017 -3.79295 0
M  V30 8993 H 855.593 2.8537 -2.39572 0
M  V30 8994 H 855.706 2.3071 -4.19892 0
M  V30 8995 H 854.07 1.31043 -2.18403 0
M  V30 8996 H 854.853 0.193594 -3.42754 0
M  V30 8997 N 857.298 1.47698 0.54982 0
M  V30 8998 C 858.208 1.63386 1.68351 0
M  V30 8999 C 859.224 0.516583 1.66155 0
M  V30 9000 O 860.4 0.785088 1.85468 0
M  V30 9001 C 857.465 1.6513 3.04849 0
M  V30 9002 C 856.526 2.88338 3.18056 0
M  V30 9003 C 855.759 2.8999 4.48042 0
M  V30 9004 O 855.982 2.00633 5.3395 0
M  V30 9005 O 854.916 3.81938 4.65196 0
M  V30 9006 H 858.742 2.59329 1.58057 0
M  V30 9007 H 856.327 1.30869 0.72067 0
M  V30 9008 H 858.209 1.68913 3.86065 0
M  V30 9009 H 856.884 0.723555 3.1551 0
M  V30 9010 H 855.791 2.90097 2.36209 0
M  V30 9011 H 857.124 3.80431 3.12302 0
M  V30 9012 N 858.776 -0.797141 1.35954 0
M  V30 9013 C 859.723 -1.90944 1.2965 0
M  V30 9014 C 860.693 -1.65262 0.166628 0
M  V30 9015 O 861.878 -1.87527 0.351883 0
M  V30 9016 C 859.018 -3.27637 1.08389 0
M  V30 9017 C 858.131 -3.65442 2.30382 0
M  V30 9018 C 857.266 -4.91213 2.02195 0
M  V30 9019 C 856.305 -5.21674 3.20191 0
M  V30 9020 N 855.442 -6.38627 2.91719 0
M  V30 9021 H 860.282 -1.95668 2.24762 0
M  V30 9022 H 857.819 -0.95696 1.11717 0
M  V30 9023 H 859.777 -4.06451 0.940912 0
M  V30 9024 H 858.407 -3.22355 0.169351 0
M  V30 9025 H 857.459 -2.81813 2.55511 0
M  V30 9026 H 858.771 -3.83907 3.18461 0
M  V30 9027 H 857.925 -5.77876 1.84783 0
M  V30 9028 H 856.664 -4.74803 1.11416 0
M  V30 9029 H 855.669 -4.33498 3.38171 0
M  V30 9030 H 856.894 -5.40009 4.11786 0
M  V30 9031 H 854.84 -6.23623 2.03543 0
M  V30 9032 H 854.757 -6.57387 3.73334 0
M  V30 9033 H 856.025 -7.28292 2.77868 0
M  V30 9034 N 860.254 -1.20106 -1.0204 0
M  V30 9035 C 861.186 -0.904236 -2.10609 0
M  V30 9036 C 862.199 0.106487 -1.62451 0
M  V30 9037 O 863.388 -0.124035 -1.78069 0
M  V30 9038 C 860.488 -0.333423 -3.37256 0
M  V30 9039 C 859.661 -1.39476 -4.14566 0
M  V30 9040 C 858.72 -0.835961 -5.19517 0
M  V30 9041 O 857.746 -1.51573 -5.48648 0
M  V30 9042 N 858.948 0.356531 -5.79404 0
M  V30 9043 H 861.713 -1.8388 -2.36661 0
M  V30 9044 H 859.274 -1.10422 -1.184 0
M  V30 9045 H 861.266 0.0544571 -4.04663 0
M  V30 9046 H 859.836 0.505608 -3.08484 0
M  V30 9047 H 859.056 -1.95714 -3.42184 0
M  V30 9048 H 860.344 -2.10967 -4.63001 0
M  V30 9049 H 859.742 0.926143 -5.58067 0
M  V30 9050 H 858.299 0.686093 -6.48179 0
M  V30 9051 N 861.732 1.21287 -1.00634 0
M  V30 9052 C 862.695 2.21927 -0.572821 0
M  V30 9053 C 863.695 1.5691 0.351541 0
M  V30 9054 O 864.885 1.73623 0.141643 0
M  V30 9055 C 862.017 3.40501 0.164932 0
M  V30 9056 H 863.21 2.61795 -1.463 0
M  V30 9057 H 860.763 1.34571 -0.794998 0
M  V30 9058 H 861.498 3.06123 1.07049 0
M  V30 9059 H 861.283 3.88912 -0.498962 0
M  V30 9060 H 862.773 4.15103 0.455945 0
M  V30 9061 N 863.21 0.781244 1.36873 0
M  V30 9062 C 864.435 0.360398 2.04245 0
M  V30 9063 C 864.86 -1.01242 1.58529 0
M  V30 9064 O 864.218 -1.65063 0.749936 0
M  V30 9065 C 864.266 0.42329 3.58107 0
M  V30 9066 O 863.37 -0.572796 4.08403 0
M  V30 9067 H 862.711 0.154386 0.645803 0
M  V30 9068 H 865.241 1.06008 1.74996 0
M  V30 9069 H 865.251 0.283967 4.07011 0
M  V30 9070 H 863.926 1.42477 3.90734 0
M  V30 9071 H 862.503 -0.395809 3.70793 0
M  V30 9072 N 864.689 -1.48329 0.532571 0
M  V30 9073 C 865.914 -2.074 0.00147755 0
M  V30 9074 C 866.339 -1.38615 -1.27151 0
M  V30 9075 O 865.697 -0.452949 -1.75551 0
M  V30 9076 C 865.745 -3.60029 -0.202866 0
M  V30 9077 O 864.849 -3.92327 -1.27097 0
M  V30 9078 H 864.19 -0.662777 0.0402883 0
M  V30 9079 H 866.72 -1.90701 0.741224 0
M  V30 9080 H 866.73 -4.05783 -0.424722 0
M  V30 9081 H 865.405 -4.09496 0.727033 0
M  V30 9082 H 863.982 -3.58348 -1.03156 0
M  V30 9083 N 866.167 -0.267825 -1.55308 0
M  V30 9084 C 867.414 0.351036 -1.99434 0
M  V30 9085 C 867.742 1.56406 -1.15618 0
M  V30 9086 O 866.997 1.94548 -0.212045 0
M  V30 9087 C 867.296 0.784247 -3.48689 0
M  V30 9088 C 866.962 -0.323328 -4.49739 0
M  V30 9089 C 865.624 -0.627467 -4.77091 0
M  V30 9090 C 867.976 -1.07002 -5.10098 0
M  V30 9091 C 865.304 -1.682 -5.62073 0
M  V30 9092 C 867.656 -2.11422 -5.96224 0
M  V30 9093 C 866.32 -2.42479 -6.21901 0
M  V30 9094 H 865.59 0.128453 -0.729781 0
M  V30 9095 H 868.237 -0.380018 -1.87692 0
M  V30 9096 H 866.542 1.59485 -3.57871 0
M  V30 9097 H 868.239 1.2737 -3.80234 0
M  V30 9098 H 864.829 -0.0761528 -4.28532 0
M  V30 9099 H 869.013 -0.848302 -4.88996 0
M  V30 9100 H 864.269 -1.92772 -5.80215 0
M  V30 9101 H 868.443 -2.69759 -6.4203 0
M  V30 9102 H 866.07 -3.24328 -6.87543 0
M  V30 9103 N 867.645 1.57599 0.00500368 0
M  V30 9104 C 868.922 1.81561 0.727654 0
M  V30 9105 C 869.302 0.871604 1.92266 0
M  V30 9106 O 868.65 -0.0808232 2.28357 0
M  V30 9107 C 868.86 3.29922 1.13809 0
M  V30 9108 C 870.208 3.95531 1.54403 0
M  V30 9109 O 871.232 3.34215 1.23202 0
M  V30 9110 O 870.091 5.03535 2.12402 0
M  V30 9111 H 867.185 0.747462 0.353878 0
M  V30 9112 H 869.731 1.69688 -0.0200667 0
M  V30 9113 H 868.503 3.90253 0.286078 0
M  V30 9114 H 868.126 3.46775 1.94507 0
M  V30 9115 N 869.123 -0.277682 1.55134 0
M  V30 9116 C 870.37 -1.0099 1.7552 0
M  V30 9117 C 870.698 -1.86452 0.553712 0
M  V30 9118 O 869.953 -1.90122 -0.463896 0
M  V30 9119 C 870.252 -1.92599 3.01065 0
M  V30 9120 C 869.918 -1.22926 4.3382 0
M  V30 9121 C 868.58 -1.03659 4.69902 0
M  V30 9122 C 870.932 -0.733071 5.16019 0
M  V30 9123 C 868.26 -0.334933 5.85743 0
M  V30 9124 C 870.612 -0.0450319 6.32584 0
M  V30 9125 C 869.276 0.159393 6.6731 0
M  V30 9126 H 868.546 -0.36955 0.642273 0
M  V30 9127 H 871.193 -0.282611 1.89403 0
M  V30 9128 H 869.498 -2.71934 2.82062 0
M  V30 9129 H 871.195 -2.49367 3.14034 0
M  V30 9130 H 867.785 -1.38933 4.05457 0
M  V30 9131 H 871.969 -0.869565 4.88623 0
M  V30 9132 H 867.225 -0.165783 6.11175 0
M  V30 9133 H 871.399 0.34723 6.95534 0
M  V30 9134 H 869.026 0.70507 7.56923 0
M  V30 9135 N 870.601 -1.47988 -0.541979 0
M  V30 9136 C 871.549 -1.62044 -1.66867 0
M  V30 9137 C 872.543 -0.487217 -1.62242 0
M  V30 9138 O 873.749 -0.66554 -1.67244 0
M  V30 9139 H 870.124 -0.51024 -0.552412 0
M  V30 9140 H 872.095 -2.56695 -1.52153 0
M  V30 9141 C 870.844 -1.66615 -3.0518 0
M  V30 9142 H 870.167 -2.5317 -3.09427 0
M  V30 9143 H 871.607 -1.80496 -3.83663 0
M  V30 9144 C 870.066 -0.402421 -3.34488 0
M  V30 9145 O 870.596 0.48992 -3.98701 0
M  V30 9146 N 868.802 -0.277778 -2.89269 0
M  V30 9147 H 868.349 -1.00488 -2.37192 0
M  V30 9148 H 868.307 0.566784 -3.09249 0
M  V30 9149 N 872.079 0.78992 -1.36375 0
M  V30 9150 C 873.327 1.54472 -1.30319 0
M  V30 9151 C 873.648 1.94647 0.117338 0
M  V30 9152 O 872.918 1.64906 1.05748 0
M  V30 9153 H 871.498 0.572879 -0.479394 0
M  V30 9154 H 874.16 0.941245 -1.70665 0
M  V30 9155 H 873.256 2.45252 -1.93024 0
M  V30 9156 N 873.557 1.20646 1.01402 0
M  V30 9157 C 874.968 1.01823 1.56489 0
M  V30 9158 C 875.319 -0.42463 1.9155 0
M  V30 9159 O 874.444 -1.30644 1.72514 0
M  V30 9160 C 875.039 1.84208 2.84347 0
M  V30 9161 C 873.598 1.69743 3.35953 0
M  V30 9162 C 872.745 1.8198 2.09233 0
M  V30 9163 H 875.696 1.348 0.837539 0
M  V30 9164 H 875.717 1.34698 3.55861 0
M  V30 9165 H 875.229 2.89215 2.58798 0
M  V30 9166 H 873.33 0.673833 3.66456 0
M  V30 9167 H 873.443 2.51173 4.07981 0
M  V30 9168 H 871.807 1.25193 2.21808 0
M  V30 9169 H 872.59 2.88477 1.86107 0
M  V30 9170 N 875.035 -1.20752 1.01276 0
M  V30 9171 C 876.265 -1.93725 0.717934 0
M  V30 9172 C 876.673 -1.74769 -0.724732 0
M  V30 9173 O 876.016 -1.05642 -1.50285 0
M  V30 9174 C 876.078 -3.46196 0.968954 0
M  V30 9175 C 875.742 -3.88909 2.39998 0
M  V30 9176 C 876.739 -3.94982 3.38061 0
M  V30 9177 C 874.424 -4.21006 2.7397 0
M  V30 9178 C 876.418 -4.32558 4.68159 0
M  V30 9179 C 874.105 -4.58257 4.04282 0
M  V30 9180 C 875.103 -4.64004 5.01187 0
M  V30 9181 O 874.791 -5.00403 6.29168 0
M  V30 9182 H 874.523 -0.622663 0.263186 0
M  V30 9183 H 877.077 -1.54299 1.35577 0
M  V30 9184 H 875.307 -3.85728 0.273952 0
M  V30 9185 H 876.996 -4.00394 0.666312 0
M  V30 9186 H 877.762 -3.70353 3.13151 0
M  V30 9187 H 873.641 -4.15725 1.99233 0
M  V30 9188 H 877.185 -4.36959 5.43795 0
M  V30 9189 H 873.082 -4.82341 4.28973 0
M  V30 9190 H 873.85 -5.18409 6.33399 0
M  V30 9191 N 876.513 -0.788492 -1.36457 0
M  V30 9192 C 877.443 -0.200468 -2.32638 0
M  V30 9193 C 878.424 0.664031 -1.56603 0
M  V30 9194 O 879.609 0.598045 -1.84762 0
M  V30 9195 C 876.739 0.666274 -3.40849 0
M  V30 9196 C 875.693 -0.0982574 -4.27887 0
M  V30 9197 C 875.019 0.889018 -5.27258 0
M  V30 9198 C 876.319 -1.28692 -5.06197 0
M  V30 9199 H 878.013 -1.00399 -2.82065 0
M  V30 9200 H 875.559 -0.484237 -1.35614 0
M  V30 9201 H 877.512 1.08757 -4.07124 0
M  V30 9202 H 876.236 1.50249 -2.89987 0
M  V30 9203 H 874.895 -0.500525 -3.63167 0
M  V30 9204 H 874.543 1.72024 -4.7267 0
M  V30 9205 H 874.243 0.381909 -5.86358 0
M  V30 9206 H 875.767 1.30891 -5.96406 0
M  V30 9207 H 877.181 -0.941429 -5.65517 0
M  V30 9208 H 875.578 -1.72726 -5.74705 0
M  V30 9209 H 876.648 -2.08273 -4.37893 0
M  V30 9210 N 877.991 1.48044 -0.54043 0
M  V30 9211 C 879.239 2.02097 -0.0101367 0
M  V30 9212 C 879.56 1.41881 1.33771 0
M  V30 9213 O 878.83 0.587923 1.8687 0
M  V30 9214 H 877.41 0.747 -0.000758716 0
M  V30 9215 H 880.072 1.81639 -0.706634 0
M  V30 9216 H 879.168 3.11969 0.0904474 0
M  V30 9217 N 879.47 0.276058 1.55163 0
M  V30 9218 C 880.881 -0.221516 1.85381 0
M  V30 9219 C 881.232 -1.55372 1.19808 0
M  V30 9220 O 880.357 -2.10855 0.486742 0
M  V30 9221 C 880.952 -0.408706 3.36326 0
M  V30 9222 C 879.511 -0.850512 3.66665 0
M  V30 9223 C 878.658 0.055656 2.77244 0
M  V30 9224 H 881.609 0.497819 1.5069 0
M  V30 9225 H 881.63 -1.24711 3.59482 0
M  V30 9226 H 881.142 0.561052 3.84023 0
M  V30 9227 H 879.243 -1.83171 3.24468 0
M  V30 9228 H 879.356 -0.687181 4.74146 0
M  V30 9229 H 877.72 -0.460819 2.50497 0
M  V30 9230 H 878.503 1.02131 3.27756 0
M  V30 9231 N 880.948 -1.576 0.00335426 0
M  V30 9232 C 882.359 -1.7875 -0.539008 0
M  V30 9233 C 882.71 -0.911097 -1.73763 0
M  V30 9234 O 881.835 -0.114476 -2.16097 0
M  V30 9235 C 882.43 -3.24177 -0.984611 0
M  V30 9236 C 880.989 -3.46412 -1.47226 0
M  V30 9237 C 880.136 -2.74024 -0.425004 0
M  V30 9238 H 883.087 -1.57032 0.229511 0
M  V30 9239 H 883.108 -3.32474 -1.85044 0
M  V30 9240 H 882.62 -3.87938 -0.112035 0
M  V30 9241 H 880.721 -2.8787 -2.36562 0
M  V30 9242 H 880.834 -4.55098 -1.49741 0
M  V30 9243 H 879.198 -2.38741 -0.887394 0
M  V30 9244 H 879.981 -3.40486 0.438662 0
M  V30 9245 N 882.426 0.269451 -1.5528 0
M  V30 9246 C 883.376 1.33553 -1.84791 0
M  V30 9247 C 884.36 1.44532 -0.707067 0
M  V30 9248 O 885.552 1.48153 -0.968493 0
M  V30 9249 C 882.681 2.69516 -2.12641 0
M  V30 9250 C 881.767 2.62633 -3.32993 0
M  V30 9251 N 882.158 2.25371 -4.52815 0
M  V30 9252 C 880.456 2.93688 -3.35654 0
M  V30 9253 C 881.157 2.28567 -5.34913 0
M  V30 9254 N 880.133 2.67181 -4.73408 0
M  V30 9255 H 883.935 1.03758 -2.74976 0
M  V30 9256 H 881.449 0.478087 -1.55203 0
M  V30 9257 H 883.446 3.46424 -2.3194 0
M  V30 9258 H 882.106 3.00197 -1.23742 0
M  V30 9259 H 883.117 1.9729 -4.7885 0
M  V30 9260 H 879.794 3.29057 -2.56958 0
M  V30 9261 H 881.184 2.02289 -6.40725 0
M  V30 9262 N 883.904 1.48273 0.534124 0
M  V30 9263 C 885.129 1.59988 1.31979 0
M  V30 9264 C 885.554 0.258824 1.86311 0
M  V30 9265 O 884.912 -0.768885 1.64188 0
M  V30 9266 C 884.96 2.64642 2.44943 0
M  V30 9267 O 884.064 2.21515 3.47858 0
M  V30 9268 H 883.405 0.536625 0.391063 0
M  V30 9269 H 885.935 1.94229 0.643135 0
M  V30 9270 H 885.945 2.85786 2.91187 0
M  V30 9271 H 884.62 3.62004 2.04758 0
M  V30 9272 H 883.197 2.10567 3.0776 0
M  V30 9273 N 885.382 -0.782676 1.36792 0
M  V30 9274 C 886.798 -1.08169 1.17352 0
M  V30 9275 C 886.998 -2.015 0.0022037 0
M  V30 9276 O 886.054 -2.43692 -0.661093 0
M  V30 9277 C 887.367 -1.68969 2.48737 0
M  V30 9278 C 888.915 -1.81278 2.55161 0
M  V30 9279 C 889.39 -2.45492 3.86649 0
M  V30 9280 N 890.881 -2.52954 3.88032 0
M  V30 9281 C 891.616 -3.03465 4.86515 0
M  V30 9282 N 891.112 -3.54232 5.95392 0
M  V30 9283 N 892.905 -3.02239 4.73928 0
M  V30 9284 H 885.056 -0.162757 2.11775 0
M  V30 9285 H 887.319 -0.134823 0.938364 0
M  V30 9286 H 887.025 -1.07859 3.34753 0
M  V30 9287 H 886.899 -2.68397 2.65034 0
M  V30 9288 H 889.286 -2.41524 1.69559 0
M  V30 9289 H 889.367 -0.806367 2.42758 0
M  V30 9290 H 889.011 -1.85889 4.7266 0
M  V30 9291 H 888.941 -3.46718 3.96351 0
M  V30 9292 H 891.432 -2.17014 3.09376 0
M  V30 9293 H 891.745 -3.91145 6.66503 0
M  V30 9294 H 890.09 -3.52366 5.99052 0
M  V30 9295 H 893.281 -2.61871 3.87996 0
M  V30 9296 H 893.454 -3.41295 5.50837 0
M  V30 9297 N 886.86 -1.21182 -1.00761 0
M  V30 9298 C 888.085 -1.05411 -1.78615 0
M  V30 9299 C 888.51 0.391837 -1.83973 0
M  V30 9300 O 887.868 1.28256 -1.28141 0
M  V30 9301 C 887.916 -1.65285 -3.20489 0
M  V30 9302 O 887.02 -0.896558 -4.02536 0
M  V30 9303 H 886.361 -0.37116 -0.550578 0
M  V30 9304 H 888.891 -1.60669 -1.26676 0
M  V30 9305 H 888.901 -1.69397 -3.71172 0
M  V30 9306 H 887.576 -2.70514 -3.15904 0
M  V30 9307 H 886.153 -0.930335 -3.61108 0
M  V30 9308 N 888.338 1.20213 -1.01915 0
M  V30 9309 C 889.268 2.25336 -0.612023 0
M  V30 9310 C 890.249 1.65933 0.374186 0
M  V30 9311 O 891.434 1.92464 0.259053 0
M  V30 9312 C 888.564 3.47267 0.047904 0
M  V30 9313 C 887.518 4.1928 -0.859557 0
M  V30 9314 C 886.844 5.3466 -0.0652655 0
M  V30 9315 C 888.144 4.75143 -2.1688 0
M  V30 9316 H 889.838 2.59645 -1.49079 0
M  V30 9317 H 887.384 1.24808 -0.718263 0
M  V30 9318 H 889.337 4.19991 0.344294 0
M  V30 9319 H 888.061 3.12129 0.961404 0
M  V30 9320 H 886.72 3.48425 -1.13999 0
M  V30 9321 H 886.368 4.95767 0.849964 0
M  V30 9322 H 886.068 5.83772 -0.669618 0
M  V30 9323 H 887.592 6.10187 0.224612 0
M  V30 9324 H 889.006 5.39672 -1.9346 0
M  V30 9325 H 887.403 5.34702 -2.72422 0
M  V30 9326 H 888.473 3.93744 -2.83008 0
M  V30 9327 N 889.816 0.795718 1.36037 0
M  V30 9328 C 891.227 0.433379 1.816 0
M  V30 9329 C 891.578 -1.04341 1.66155 0
M  V30 9330 O 890.703 -1.81004 1.18603 0
M  V30 9331 C 891.298 0.77985 3.29703 0
M  V30 9332 C 889.857 0.470256 3.73451 0
M  V30 9333 C 889.004 1.01119 2.58206 0
M  V30 9334 H 891.955 0.988317 1.24169 0
M  V30 9335 H 891.976 0.0732898 3.80429 0
M  V30 9336 H 891.488 1.85473 3.40913 0
M  V30 9337 H 889.589 -0.596332 3.67797 0
M  V30 9338 H 889.702 0.995276 4.68648 0
M  V30 9339 H 888.066 0.434077 2.50974 0
M  V30 9340 H 888.849 2.09196 2.72198 0
M  V30 9341 N 891.294 -1.47756 0.548274 0
M  V30 9342 C 892.571 -1.9555 -0.0443603 0
M  V30 9343 C 892.951 -1.49079 -1.49462 0
M  V30 9344 O 892.299 -0.725538 -2.16675 0
M  V30 9345 C 892.509 -3.48879 0.0918425 0
M  V30 9346 C 893.857 -4.2456 -0.0580879 0
M  V30 9347 O 894.881 -3.56195 0.018946 0
M  V30 9348 O 893.74 -5.46048 -0.222261 0
M  V30 9349 H 890.834 -0.824106 -0.0691235 0
M  V30 9350 H 893.38 -1.58196 0.614166 0
M  V30 9351 H 892.152 -3.7548 1.10137 0
M  V30 9352 H 891.775 -3.92975 -0.604704 0
M  V30 9353 N 892.772 -0.284283 -1.55015 0
M  V30 9354 C 894.021 0.33055 -1.98973 0
M  V30 9355 C 894.334 1.56284 -1.17621 0
M  V30 9356 O 895.54 2.2512 -1.51767 0
M  V30 9357 C 893.996 0.639457 -3.54174 0
M  V30 9358 C 893.604 -0.573543 -4.44313 0
M  V30 9359 C 895.348 1.21641 -4.06699 0
M  V30 9360 C 893.255 -0.238715 -5.90918 0
M  V30 9361 H 892.185 0.127285 -0.743179 0
M  V30 9362 H 894.836 -0.390372 -1.793 0
M  V30 9363 H 893.218 1.41953 -3.69683 0
M  V30 9364 H 894.392 -1.3502 -4.40575 0
M  V30 9365 H 892.707 -1.06797 -4.02472 0
M  V30 9366 H 895.304 1.48088 -5.13784 0
M  V30 9367 H 895.647 2.15328 -3.56286 0
M  V30 9368 H 896.18 0.498422 -3.94665 0
M  V30 9369 H 892.919 -1.1437 -6.45445 0
M  V30 9370 H 892.439 0.500997 -5.97704 0
M  V30 9371 H 894.118 0.165774 -6.46788 0
M  V30 9372 N 894.251 1.57596 -0.0117121 0
M  V30 9373 C 895.181 2.12188 0.9746 0
M  V30 9374 C 896.162 1.03379 1.35081 0
M  V30 9375 O 897.347 1.31123 1.4325 0
M  V30 9376 C 894.477 2.63477 2.26268 0
M  V30 9377 C 893.431 3.76917 2.02774 0
M  V30 9378 C 892.757 4.14566 3.37697 0
M  V30 9379 C 894.057 5.03715 1.38089 0
M  V30 9380 H 895.751 2.9485 0.520007 0
M  V30 9381 H 893.297 1.41836 0.248685 0
M  V30 9382 H 895.25 3.00299 2.95633 0
M  V30 9383 H 893.974 1.77953 2.73862 0
M  V30 9384 H 892.633 3.40507 1.35832 0
M  V30 9385 H 892.281 3.26048 3.83016 0
M  V30 9386 H 891.981 4.91 3.22789 0
M  V30 9387 H 893.505 4.53956 4.08358 0
M  V30 9388 H 894.919 5.38233 1.97428 0
M  V30 9389 H 893.316 5.85032 1.33634 0
M  V30 9390 H 894.386 4.83624 0.351575 0
M  V30 9391 N 895.729 -0.261212 1.5542 0
M  V30 9392 C 896.977 -0.989272 1.76232 0
M  V30 9393 C 897.298 -1.86389 0.573067 0
M  V30 9394 O 896.568 -1.91526 -0.41166 0
M  V30 9395 H 895.148 -0.368256 0.64992 0
M  V30 9396 H 897.81 -0.282603 1.9284 0
M  V30 9397 H 896.906 -1.61935 2.66802 0
M  V30 9398 N 897.207 -1.48554 -0.526253 0
M  V30 9399 C 898.139 -1.59446 -1.6465 0
M  V30 9400 C 899.152 -0.478525 -1.55608 0
M  V30 9401 O 900.341 -0.74953 -1.62001 0
M  V30 9402 C 897.441 -1.51164 -3.03319 0
M  V30 9403 C 896.614 -2.77861 -3.37805 0
M  V30 9404 C 895.673 -2.62982 -4.5577 0
M  V30 9405 O 894.699 -3.36876 -4.58806 0
M  V30 9406 N 895.901 -1.72847 -5.5417 0
M  V30 9407 H 898.666 -2.56055 -1.55743 0
M  V30 9408 H 896.227 -1.45325 -0.713606 0
M  V30 9409 H 898.219 -1.389 -3.80117 0
M  V30 9410 H 896.789 -0.625147 -3.06285 0
M  V30 9411 H 896.009 -3.04663 -2.50149 0
M  V30 9412 H 897.297 -3.61908 -3.57632 0
M  V30 9413 H 896.695 -1.12022 -5.54498 0
M  V30 9414 H 895.252 -1.6652 -6.3017 0
M  V30 9415 N 898.685 0.775411 -1.37205 0
M  V30 9416 C 900.096 1.35147 -1.28811 0
M  V30 9417 C 900.447 1.96089 0.0659168 0
M  V30 9418 O 899.572 1.93558 0.967684 0
M  V30 9419 C 900.167 2.45715 -2.33258 0
M  V30 9420 C 898.726 2.99099 -2.2851 0
M  V30 9421 C 897.873 1.72286 -2.17285 0
M  V30 9422 H 900.824 0.575954 -1.4788 0
M  V30 9423 H 900.845 3.251 -1.97712 0
M  V30 9424 H 900.357 2.01331 -3.31795 0
M  V30 9425 H 898.458 3.47868 -1.33485 0
M  V30 9426 H 898.571 3.54962 -3.21774 0
M  V30 9427 H 896.935 1.95068 -1.6377 0
M  V30 9428 H 897.718 1.3001 -3.1773 0
M  V30 9429 N 900.163 1.21714 1.00117 0
M  V30 9430 C 901.073 0.99597 2.12409 0
M  V30 9431 C 902.089 -0.0531431 1.73919 0
M  V30 9432 O 903.265 0.137757 2.00928 0
M  V30 9433 C 900.33 0.567593 3.42022 0
M  V30 9434 C 899.391 1.68936 3.94663 0
M  V30 9435 C 898.624 1.28133 5.1809 0
M  V30 9436 O 898.847 0.156574 5.70185 0
M  V30 9437 O 897.781 2.0947 5.64275 0
M  V30 9438 H 901.607 1.93657 2.33946 0
M  V30 9439 H 899.192 1.00236 1.10784 0
M  V30 9440 H 901.074 0.338664 4.20037 0
M  V30 9441 H 899.749 -0.34424 3.21864 0
M  V30 9442 H 898.656 1.97274 3.17858 0
M  V30 9443 H 899.989 2.57876 4.19238 0
M  V30 9444 N 901.641 -1.19671 1.02551 0
M  V30 9445 C 903.052 -1.70964 0.750208 0
M  V30 9446 C 903.403 -1.82095 -0.730461 0
M  V30 9447 O 902.528 -1.48974 -1.56958 0
M  V30 9448 C 903.123 -3.10516 1.35518 0
M  V30 9449 C 901.682 -3.59083 1.12854 0
M  V30 9450 C 900.829 -2.36041 1.45534 0
M  V30 9451 H 903.78 -1.04559 1.19386 0
M  V30 9452 H 903.801 -3.73028 0.750378 0
M  V30 9453 H 903.313 -3.02383 2.43282 0
M  V30 9454 H 901.414 -3.72536 0.0689627 0
M  V30 9455 H 901.527 -4.43395 1.81488 0
M  V30 9456 H 899.891 -2.39214 0.87458 0
M  V30 9457 H 900.674 -2.3054 2.54374 0
M  V30 9458 N 903.119 -0.802921 -1.35613 0
M  V30 9459 C 904.53 -0.443004 -1.81368 0
M  V30 9460 C 904.881 1.03459 -1.66706 0
M  V30 9461 O 904.006 1.80372 -1.19561 0
M  V30 9462 C 904.601 -0.797324 -3.29284 0
M  V30 9463 C 903.16 -0.490055 -3.73196 0
M  V30 9464 C 902.307 -1.02487 -2.57666 0
M  V30 9465 H 905.258 -0.994888 -1.23643 0
M  V30 9466 H 905.279 -0.0934638 -3.80385 0
M  V30 9467 H 904.791 -1.87278 -3.39924 0
M  V30 9468 H 902.892 0.576818 -3.68108 0
M  V30 9469 H 903.005 -1.02012 -4.68114 0
M  V30 9470 H 901.369 -0.44738 -2.5074 0
M  V30 9471 H 902.152 -2.10636 -2.71085 0
M  V30 9472 N 904.597 1.47463 -0.556102 0
M  V30 9473 C 905.529 2.28046 0.22968 0
M  V30 9474 C 906.542 1.3694 0.880409 0
M  V30 9475 O 907.731 1.61773 0.754447 0
M  V30 9476 C 904.831 3.11165 1.34273 0
M  V30 9477 C 904.004 4.30225 0.789004 0
M  V30 9478 C 903.063 4.94948 1.78641 0
M  V30 9479 O 902.089 5.53372 1.33297 0
M  V30 9480 N 903.291 4.89543 3.11974 0
M  V30 9481 H 906.056 2.96125 -0.461558 0
M  V30 9482 H 903.617 1.5708 -0.392105 0
M  V30 9483 H 905.609 3.51331 2.00869 0
M  V30 9484 H 904.179 2.45337 1.93722 0
M  V30 9485 H 903.399 3.94163 -0.0536971 0
M  V30 9486 H 904.687 5.07238 0.398378 0
M  V30 9487 H 904.085 4.43275 3.51459 0
M  V30 9488 H 902.642 5.33732 3.74131 0
M  V30 9489 N 906.075 0.2925 1.54862 0
M  V30 9490 C 906.985 -0.597036 2.26876 0
M  V30 9491 C 908.001 -1.15558 1.30086 0
M  V30 9492 O 909.177 -1.18217 1.63054 0
M  V30 9493 C 906.242 -1.75664 2.98903 0
M  V30 9494 C 905.303 -1.23303 4.11212 0
M  V30 9495 C 904.536 -2.33736 4.79795 0
M  V30 9496 O 904.759 -3.53459 4.47686 0
M  V30 9497 O 903.693 -2.00908 5.67379 0
M  V30 9498 H 907.519 -0.0131242 3.03697 0
M  V30 9499 H 905.104 0.0592642 1.49282 0
M  V30 9500 H 906.986 -2.43241 3.4411 0
M  V30 9501 H 905.661 -2.32731 2.24984 0
M  V30 9502 H 904.568 -0.523222 3.70423 0
M  V30 9503 H 905.901 -0.707887 4.87083 0
M  V30 9504 N 907.553 -1.57587 0.0200696 0
M  V30 9505 C 908.801 -1.91046 -0.65922 0
M  V30 9506 C 909.122 -0.896197 -1.73186 0
M  V30 9507 O 908.392 0.0635952 -1.95797 0
M  V30 9508 H 906.972 -0.705163 -0.246483 0
M  V30 9509 H 909.634 -1.94789 0.0657368 0
M  V30 9510 H 908.73 -2.91399 -1.11773 0
M  V30 9511 N 909.032 0.252966 -1.55557 0
M  V30 9512 C 910.28 0.979912 -1.76754 0
M  V30 9513 C 910.601 1.86083 -0.582944 0
M  V30 9514 O 909.871 1.91742 0.401497 0
M  V30 9515 H 908.451 0.364805 -0.651864 0
M  V30 9516 H 911.113 0.272372 -1.92987 0
M  V30 9517 H 910.209 1.60518 -2.67657 0
M  V30 9518 N 910.51 1.48831 0.518367 0
M  V30 9519 C 911.735 1.61379 1.30275 0
M  V30 9520 C 912.16 0.278571 1.86026 0
M  V30 9521 O 911.518 -0.751427 1.64995 0
M  V30 9522 C 911.566 2.67225 2.42122 0
M  V30 9523 O 910.67 2.25192 3.45489 0
M  V30 9524 H 910.011 0.540742 0.385349 0
M  V30 9525 H 912.541 1.949 0.622498 0
M  V30 9526 H 912.551 2.88859 2.8814 0
M  V30 9527 H 911.226 3.64155 2.00907 0
M  V30 9528 H 909.803 2.13819 3.05509 0
M  V30 9529 N 911.988 -0.768124 1.37614 0
M  V30 9530 C 912.92 -1.89076 1.29548 0
M  V30 9531 C 913.933 -1.61433 0.21056 0
M  V30 9532 O 915.122 -1.72283 0.466992 0
M  V30 9533 C 912.222 -3.24388 0.981102 0
M  V30 9534 C 911.395 -3.79649 2.17222 0
M  V30 9535 C 910.454 -4.93444 1.82754 0
M  V30 9536 O 909.48 -5.0884 2.5509 0
M  V30 9537 N 910.682 -5.75319 0.773819 0
M  V30 9538 H 913.447 -1.9651 2.26283 0
M  V30 9539 H 911.008 -0.947399 1.31286 0
M  V30 9540 H 913 -3.98038 0.731301 0
M  V30 9541 H 911.57 -3.12433 0.102203 0
M  V30 9542 H 910.79 -2.97735 2.58355 0
M  V30 9543 H 912.078 -4.13302 2.96748 0
M  V30 9544 H 911.476 -5.65433 0.173644 0
M  V30 9545 H 910.033 -6.4918 0.583882 0
M  V30 9546 N 913.466 -1.22244 -0.994698 0
M  V30 9547 C 914.413 -0.990906 -2.08446 0
M  V30 9548 C 915.383 0.086737 -1.65873 0
M  V30 9549 O 916.568 -0.0624882 -1.90698 0
M  V30 9550 C 913.708 -0.572813 -3.40313 0
M  V30 9551 C 912.821 -1.72103 -3.96238 0
M  V30 9552 C 911.956 -1.2511 -5.16257 0
M  V30 9553 C 910.995 -2.37098 -5.64315 0
M  V30 9554 N 910.132 -1.91164 -6.75574 0
M  V30 9555 H 914.972 -1.92377 -2.27585 0
M  V30 9556 H 912.509 -0.958576 -1.11578 0
M  V30 9557 H 914.467 -0.311594 -4.16035 0
M  V30 9558 H 913.097 0.323044 -3.21179 0
M  V30 9559 H 912.149 -2.09662 -3.17405 0
M  V30 9560 H 913.461 -2.56347 -4.27888 0
M  V30 9561 H 912.615 -0.947152 -5.99261 0
M  V30 9562 H 911.354 -0.378836 -4.86226 0
M  V30 9563 H 910.359 -2.68283 -4.799 0
M  V30 9564 H 911.584 -3.24837 -5.96371 0
M  V30 9565 H 909.53 -1.06298 -6.47331 0
M  V30 9566 H 909.447 -2.68975 -7.06533 0
M  V30 9567 H 910.715 -1.63833 -7.62088 0
M  V30 9568 N 914.944 1.19125 -1.03184 0
M  V30 9569 C 916.169 1.93379 -0.749628 0
M  V30 9570 C 916.594 1.75153 0.685785 0
M  V30 9571 O 915.952 1.05579 1.47386 0
M  V30 9572 C 916 3.43101 -1.1097 0
M  V30 9573 O 915.104 4.11758 -0.230053 0
M  V30 9574 H 914.445 0.603605 -0.276689 0
M  V30 9575 H 916.975 1.51116 -1.37931 0
M  V30 9576 H 916.985 3.93778 -1.06785 0
M  V30 9577 H 915.66 3.55688 -2.15544 0
M  V30 9578 H 914.237 3.7143 -0.330748 0
M  V30 9579 N 916.422 0.810101 1.35185 0
M  V30 9580 C 917.833 0.452616 1.81131 0
M  V30 9581 C 918.184 -1.02573 1.67252 0
M  V30 9582 O 917.309 -1.79735 1.20516 0
M  V30 9583 C 917.904 0.814775 3.28857 0
M  V30 9584 C 916.463 0.509839 3.72931 0
M  V30 9585 C 915.61 1.03852 2.57119 0
M  V30 9586 H 918.561 1.00143 1.23114 0
M  V30 9587 H 918.582 0.113635 3.8033 0
M  V30 9588 H 918.094 1.89078 3.38926 0
M  V30 9589 H 916.195 -0.557289 3.68409 0
M  V30 9590 H 916.308 1.04493 4.67566 0
M  V30 9591 H 914.672 0.460671 2.50499 0
M  V30 9592 H 915.455 2.12071 2.69964 0
M  V30 9593 N 917.9 -1.47166 0.563914 0
M  V30 9594 C 919.311 -1.86231 0.132307 0
M  V30 9595 C 919.662 -1.46976 -1.29971 0
M  V30 9596 O 918.787 -0.875911 -1.97881 0
M  V30 9597 C 919.382 -3.37996 0.233335 0
M  V30 9598 C 917.941 -3.76127 -0.143278 0
M  V30 9599 C 917.088 -2.71212 0.577857 0
M  V30 9600 H 920.039 -1.38588 0.773249 0
M  V30 9601 H 920.06 -3.76558 -0.546309 0
M  V30 9602 H 919.572 -3.66535 1.27568 0
M  V30 9603 H 917.673 -3.53205 -1.18648 0
M  V30 9604 H 917.786 -4.78595 0.219952 0
M  V30 9605 H 916.15 -2.54692 0.020186 0
M  V30 9606 H 916.933 -3.02593 1.62149 0
M  V30 9607 N 919.378 -0.300708 -1.54705 0
M  V30 9608 C 920.789 0.191995 -1.8571 0
M  V30 9609 C 921.14 1.53447 -1.22264 0
M  V30 9610 O 920.265 2.10054 -0.520226 0
M  V30 9611 C 920.86 0.355148 -3.36933 0
M  V30 9612 C 919.419 0.792071 -3.67972 0
M  V30 9613 C 918.566 -0.099756 -2.77121 0
M  V30 9614 H 921.517 -0.521729 -1.49879 0
M  V30 9615 H 921.538 1.18977 -3.61421 0
M  V30 9616 H 921.05 -0.622075 -3.83082 0
M  V30 9617 H 919.151 1.77986 -3.27341 0
M  V30 9618 H 919.264 0.611661 -4.75179 0
M  V30 9619 H 917.628 0.420909 -2.51198 0
M  V30 9620 H 918.411 -1.07333 -3.2609 0
M  V30 9621 N 920.856 1.57574 -0.0284266 0
M  V30 9622 C 922.104 1.91393 0.649079 0
M  V30 9623 C 922.425 0.905368 1.72708 0
M  V30 9624 O 921.695 -0.0532107 1.95828 0
M  V30 9625 H 920.275 0.70646 0.24274 0
M  V30 9626 H 922.937 1.94752 -0.076066 0
M  V30 9627 H 922.033 2.91988 1.10226 0
M  V30 9628 N 922.334 -0.244713 1.55689 0
M  V30 9629 C 923.559 -0.994157 1.8202 0
M  V30 9630 C 923.984 -1.78079 0.60577 0
M  V30 9631 O 923.342 -1.75748 -0.445221 0
M  V30 9632 C 923.39 -1.90599 3.06111 0
M  V30 9633 O 922.494 -2.99804 2.8318 0
M  V30 9634 H 921.835 -0.282767 0.600782 0
M  V30 9635 H 924.365 -0.26504 2.02876 0
M  V30 9636 H 924.375 -2.32023 3.35603 0
M  V30 9637 H 923.05 -1.32763 3.9414 0
M  V30 9638 H 921.627 -2.62493 2.64862 0
M  V30 9639 N 923.813 -1.49104 -0.510467 0
M  V30 9640 C 924.743 -1.67981 -1.62187 0
M  V30 9641 C 925.724 -0.528529 -1.6168 0
M  V30 9642 O 926.909 -0.763305 -1.7857 0
M  V30 9643 C 924.039 -1.73755 -3.0071 0
M  V30 9644 C 922.993 -2.88579 -3.1608 0
M  V30 9645 C 922.319 -2.79457 -4.5586 0
M  V30 9646 C 923.619 -4.29638 -2.97 0
M  V30 9647 H 925.313 -2.61029 -1.46643 0
M  V30 9648 H 922.859 -1.25615 -0.704042 0
M  V30 9649 H 924.812 -1.85548 -3.78352 0
M  V30 9650 H 923.536 -0.772996 -3.17321 0
M  V30 9651 H 922.195 -2.76372 -2.40861 0
M  V30 9652 H 921.843 -1.80929 -4.69333 0
M  V30 9653 H 921.543 -3.56518 -4.67086 0
M  V30 9654 H 923.067 -2.93245 -5.35574 0
M  V30 9655 H 924.481 -4.42575 -3.64418 0
M  V30 9656 H 922.878 -5.07847 -3.19704 0
M  V30 9657 H 923.948 -4.44741 -1.93219 0
M  V30 9658 N 925.291 0.760815 -1.38019 0
M  V30 9659 C 926.201 1.90526 -1.36884 0
M  V30 9660 C 927.217 1.71941 -0.266908 0
M  V30 9661 O 928.393 1.94988 -0.50413 0
M  V30 9662 C 925.458 3.25799 -1.18558 0
M  V30 9663 C 924.519 3.56961 -2.3849 0
M  V30 9664 C 923.752 4.8578 -2.21029 0
M  V30 9665 O 923.975 5.57629 -1.20023 0
M  V30 9666 O 922.909 5.16254 -3.0946 0
M  V30 9667 H 926.735 1.94437 -2.33298 0
M  V30 9668 H 924.32 0.905091 -1.18863 0
M  V30 9669 H 926.202 4.0669 -1.1037 0
M  V30 9670 H 924.877 3.22716 -0.252241 0
M  V30 9671 H 923.784 2.7626 -2.52252 0
M  V30 9672 H 925.117 3.64798 -3.30429 0
M  V30 9673 N 926.769 1.22769 0.988202 0
M  V30 9674 C 927.999 1.07998 1.76125 0
M  V30 9675 C 928.407 -0.372062 1.85506 0
M  V30 9676 O 927.75 -1.26946 1.3278 0
M  V30 9677 C 927.812 1.6219 3.20834 0
M  V30 9678 C 927.476 3.1086 3.34986 0
M  V30 9679 C 928.473 4.08239 3.21927 0
M  V30 9680 C 926.158 3.50411 3.59886 0
M  V30 9681 C 928.152 5.43154 3.33561 0
M  V30 9682 C 925.839 4.85473 3.71159 0
M  V30 9683 C 926.837 5.81653 3.58006 0
M  V30 9684 O 926.525 7.14263 3.68895 0
M  V30 9685 H 926.257 0.378937 0.559806 0
M  V30 9686 H 928.811 1.62925 1.25078 0
M  V30 9687 H 927.041 1.01676 3.73094 0
M  V30 9688 H 928.73 1.43011 3.79872 0
M  V30 9689 H 929.496 3.79025 3.02597 0
M  V30 9690 H 925.375 2.76068 3.69198 0
M  V30 9691 H 928.919 6.18207 3.23211 0
M  V30 9692 H 924.816 5.14365 3.89998 0
M  V30 9693 H 925.584 7.21906 3.85739 0
M  V30 9694 N 928.247 -1.18576 1.03814 0
M  V30 9695 C 929.177 -2.24334 0.647795 0
M  V30 9696 C 930.158 -1.66508 -0.34774 0
M  V30 9697 O 931.343 -1.92852 -0.228401 0
M  V30 9698 C 928.473 -3.47299 0.00734922 0
M  V30 9699 C 927.427 -4.17859 0.926152 0
M  V30 9700 C 926.753 -5.34489 0.150317 0
M  V30 9701 C 928.053 -4.71632 2.24411 0
M  V30 9702 H 929.747 -2.57241 1.53191 0
M  V30 9703 H 927.293 -1.23649 0.738028 0
M  V30 9704 H 929.246 -4.20486 -0.277434 0
M  V30 9705 H 927.97 -3.13619 -0.911626 0
M  V30 9706 H 926.629 -3.46567 1.19528 0
M  V30 9707 H 926.277 -4.97056 -0.770985 0
M  V30 9708 H 925.977 -5.82633 0.762407 0
M  V30 9709 H 927.501 -6.10467 -0.127508 0
M  V30 9710 H 928.915 -5.36526 2.02021 0
M  V30 9711 H 927.312 -5.303 2.80894 0
M  V30 9712 H 928.382 -3.89192 2.89236 0
M  V30 9713 N 929.725 -0.817259 -1.34754 0
M  V30 9714 C 930.965 -0.408429 -2.00278 0
M  V30 9715 C 931.329 1.00818 -1.634 0
M  V30 9716 O 932.53 1.51959 -2.21725 0
M  V30 9717 C 930.801 -0.598219 -3.52358 0
M  V30 9718 S 932.36 -0.281395 -4.37897 0
M  V30 9719 H 929.178 -0.154587 -0.693991 0
M  V30 9720 H 931.78 -1.06184 -1.6415 0
M  V30 9721 H 930.484 -1.62901 -3.76685 0
M  V30 9722 H 930.015 0.0701299 -3.93337 0
M  V30 9723 H 932.03 0.907024 -4.8784 0
M  V30 9724 N 931.203 1.46865 -0.571711 0
M  V30 9725 C 932.133 2.3298 0.155795 0
M  V30 9726 C 933.114 1.44678 0.894553 0
M  V30 9727 O 934.299 1.73513 0.872176 0
M  V30 9728 C 931.429 3.26745 1.17708 0
M  V30 9729 C 930.383 4.24401 0.553863 0
M  V30 9730 C 929.709 5.07595 1.68083 0
M  V30 9731 C 931.009 5.19884 -0.501827 0
M  V30 9732 H 932.703 2.94056 -0.563176 0
M  V30 9733 H 930.249 1.41402 -0.27228 0
M  V30 9734 H 932.202 3.85838 1.6943 0
M  V30 9735 H 930.926 2.63753 1.92618 0
M  V30 9736 H 929.585 3.66554 0.057815 0
M  V30 9737 H 929.233 4.40996 2.41933 0
M  V30 9738 H 928.933 5.73722 1.26953 0
M  V30 9739 H 930.457 5.6955 2.20103 0
M  V30 9740 H 931.871 5.73257 -0.0701057 0
M  V30 9741 H 930.268 5.94293 -0.832815 0
M  V30 9742 H 931.338 4.64482 -1.39229 0
M  V30 9743 N 932.681 0.308908 1.54543 0
M  V30 9744 C 934.092 -0.182144 1.85809 0
M  V30 9745 C 934.443 -1.52796 1.23076 0
M  V30 9746 O 933.568 -2.09775 0.531358 0
M  V30 9747 C 934.163 -0.337275 3.37117 0
M  V30 9748 C 932.722 -0.772545 3.68387 0
M  V30 9749 C 931.869 0.114451 2.77064 0
M  V30 9750 H 934.82 0.529671 1.496 0
M  V30 9751 H 934.841 -1.17058 3.62046 0
M  V30 9752 H 934.353 0.642382 3.82747 0
M  V30 9753 H 932.454 -1.76247 3.2828 0
M  V30 9754 H 932.567 -0.586453 4.75497 0
M  V30 9755 H 930.931 -0.407581 2.51418 0
M  V30 9756 H 931.714 1.09061 3.25516 0
M  V30 9757 N 934.159 -1.57557 0.0367827 0
M  V30 9758 C 935.122 -2.09591 -0.927589 0
M  V30 9759 C 936.122 -1.01252 -1.24919 0
M  V30 9760 O 937.312 -1.27382 -1.18825 0
M  V30 9761 C 934.444 -2.56816 -2.24184 0
M  V30 9762 H 935.637 -2.96086 -0.476784 0
M  V30 9763 H 933.19 -1.54864 -0.211385 0
M  V30 9764 H 933.925 -1.73673 -2.73876 0
M  V30 9765 H 933.71 -3.35973 -2.0215 0
M  V30 9766 H 935.2 -2.97271 -2.93291 0
M  V30 9767 N 935.637 0.236453 -1.55816 0
M  V30 9768 C 936.885 0.96111 -1.77784 0
M  V30 9769 C 937.206 1.85454 -0.602648 0
M  V30 9770 O 936.476 1.92157 0.381137 0
M  V30 9771 H 935.056 0.35787 -0.655697 0
M  V30 9772 H 937.718 0.251888 -1.93265 0
M  V30 9773 H 936.814 1.5767 -2.69345 0
M  V30 9774 N 937.115 1.49373 0.502552 0
M  V30 9775 C 938.363 1.58467 1.25429 0
M  V30 9776 C 938.684 0.272593 1.93085 0
M  V30 9777 O 937.954 -0.707947 1.82661 0
M  V30 9778 H 936.534 0.583866 0.46595 0
M  V30 9779 H 939.196 1.8599 0.582568 0
M  V30 9780 H 938.292 2.37993 2.01906 0
M  V30 9781 N 938.594 -0.753485 1.38421 0
M  V30 9782 C 939.526 -1.87692 1.31547 0
M  V30 9783 C 940.539 -1.612 0.227671 0
M  V30 9784 O 941.728 -1.71778 0.485238 0
M  V30 9785 C 938.828 -3.23329 1.01545 0
M  V30 9786 C 938.001 -3.77324 2.21236 0
M  V30 9787 C 937.06 -4.91478 1.87977 0
M  V30 9788 O 936.086 -5.06106 2.60472 0
M  V30 9789 N 937.288 -5.74466 0.834796 0
M  V30 9790 H 940.053 -1.94099 2.28354 0
M  V30 9791 H 937.614 -0.933421 1.32283 0
M  V30 9792 H 939.606 -3.9724 0.773477 0
M  V30 9793 H 938.176 -3.12307 0.135334 0
M  V30 9794 H 937.396 -2.94978 2.61498 0
M  V30 9795 H 938.684 -4.10131 3.01115 0
M  V30 9796 H 938.082 -5.65217 0.233606 0
M  V30 9797 H 936.639 -6.48524 0.652703 0
M  V30 9798 N 940.072 -1.23292 -0.981677 0
M  V30 9799 C 941.318 -1.06582 -1.72535 0
M  V30 9800 C 941.651 0.396538 -1.90108 0
M  V30 9801 O 940.926 1.29363 -1.45243 0
M  V30 9802 C 941.209 -1.7904 -3.12437 0
M  V30 9803 C 941.062 -3.32941 -3.02441 0
M  V30 9804 C 942.381 -1.55185 -4.11832 0
M  V30 9805 H 939.5 -0.388585 -0.626236 0
M  V30 9806 H 942.142 -1.51779 -1.14293 0
M  V30 9807 H 940.292 -1.40619 -3.62158 0
M  V30 9808 H 941.964 -3.80875 -2.60254 0
M  V30 9809 H 940.207 -3.62039 -2.38977 0
M  V30 9810 H 940.878 -3.78827 -4.0149 0
M  V30 9811 H 943.354 -1.88581 -3.70913 0
M  V30 9812 H 942.23 -2.08362 -5.07815 0
M  V30 9813 H 942.491 -0.486925 -4.3941 0
M  V30 9814 N 941.55 1.18024 -1.04442 0
M  V30 9815 C 942.482 2.21294 -0.596799 0
M  V30 9816 C 943.495 1.59305 0.33552 0
M  V30 9817 O 944.684 1.7803 0.129443 0
M  V30 9818 C 941.784 3.38578 0.147648 0
M  V30 9819 C 940.957 4.30143 -0.793484 0
M  V30 9820 C 940.016 5.2612 -0.0916561 0
M  V30 9821 O 939.042 5.64586 -0.72331 0
M  V30 9822 N 940.244 5.68512 1.17364 0
M  V30 9823 H 943.009 2.6032 -1.48504 0
M  V30 9824 H 940.57 1.32847 -0.925374 0
M  V30 9825 H 942.562 3.99812 0.627098 0
M  V30 9826 H 941.132 2.98212 0.937466 0
M  V30 9827 H 940.352 3.66456 -1.45272 0
M  V30 9828 H 941.64 4.88216 -1.43258 0
M  V30 9829 H 941.038 5.39322 1.70729 0
M  V30 9830 H 939.595 6.31925 1.5973 0
M  V30 9831 N 943.028 0.824394 1.34319 0
M  V30 9832 C 943.958 0.262077 2.32025 0
M  V30 9833 C 944.939 -0.622277 1.58309 0
M  V30 9834 O 946.124 -0.548848 1.86283 0
M  V30 9835 C 943.254 -0.57567 3.42496 0
M  V30 9836 C 942.208 0.21167 4.27476 0
M  V30 9837 C 941.534 -0.748913 5.29429 0
M  V30 9838 C 942.834 1.42068 5.02607 0
M  V30 9839 H 944.528 1.07842 2.79304 0
M  V30 9840 H 942.074 0.520022 1.34282 0
M  V30 9841 H 944.027 -0.979251 4.09864 0
M  V30 9842 H 942.751 -1.42508 2.93869 0
M  V30 9843 H 941.41 0.596636 3.61712 0
M  V30 9844 H 941.058 -1.59432 4.77064 0
M  V30 9845 H 940.758 -0.226313 5.87164 0
M  V30 9846 H 942.282 -1.15032 5.99667 0
M  V30 9847 H 943.696 1.09103 5.62823 0
M  V30 9848 H 942.093 1.87903 5.69923 0
M  V30 9849 H 943.163 2.1981 4.32217 0
M  V30 9850 N 944.506 -1.46559 0.579492 0
M  V30 9851 C 945.752 -2.02699 0.0639363 0
M  V30 9852 C 946.085 -1.4504 -1.29139 0
M  V30 9853 O 945.36 -0.614284 -1.84545 0
M  V30 9854 C 945.643 -3.601 -0.00528618 0
M  V30 9855 C 945.496 -4.28149 1.37871 0
M  V30 9856 C 946.815 -4.34375 -0.707537 0
M  V30 9857 H 943.934 -0.736586 0.0247085 0
M  V30 9858 H 946.576 -1.74739 0.746071 0
M  V30 9859 H 944.726 -3.84052 -0.586206 0
M  V30 9860 H 946.398 -4.1547 2.00455 0
M  V30 9861 H 944.641 -3.87636 1.94732 0
M  V30 9862 H 945.312 -5.36888 1.28278 0
M  V30 9863 H 947.788 -4.15549 -0.214064 0
M  V30 9864 H 946.664 -5.44091 -0.724992 0
M  V30 9865 H 946.925 -4.052 -1.7682 0
M  V30 9866 N 945.984 -0.3171 -1.54377 0
M  V30 9867 C 947.395 0.172287 -1.85903 0
M  V30 9868 C 947.746 1.52141 -1.23885 0
M  V30 9869 O 946.871 2.0949 -0.542476 0
M  V30 9870 C 947.466 0.319392 -3.37291 0
M  V30 9871 C 946.025 0.752998 -3.68791 0
M  V30 9872 C 945.172 -0.129143 -2.76999 0
M  V30 9873 H 948.123 -0.537597 -1.49317 0
M  V30 9874 H 948.144 1.15137 -3.62662 0
M  V30 9875 H 947.656 -0.662671 -3.82401 0
M  V30 9876 H 945.757 1.74504 -3.2921 0
M  V30 9877 H 945.87 0.561228 -4.75801 0
M  V30 9878 H 944.234 0.394242 -2.5163 0
M  V30 9879 H 945.017 -1.10785 -3.24933 0
M  V30 9880 N 947.462 1.57535 -0.0451378 0
M  V30 9881 C 948.392 2.14208 0.929372 0
M  V30 9882 C 949.373 1.06221 1.32858 0
M  V30 9883 O 950.558 1.34132 1.40436 0
M  V30 9884 C 947.688 2.68217 2.20629 0
M  V30 9885 C 946.642 3.81134 1.94734 0
M  V30 9886 C 945.968 4.21636 3.28828 0
M  V30 9887 C 947.268 5.06531 1.27374 0
M  V30 9888 H 948.962 2.95886 0.457348 0
M  V30 9889 H 946.508 1.42332 0.218544 0
M  V30 9890 H 948.461 3.06502 2.89196 0
M  V30 9891 H 947.185 1.83722 2.70026 0
M  V30 9892 H 945.844 3.43312 1.28579 0
M  V30 9893 H 945.492 3.34099 3.76014 0
M  V30 9894 H 945.192 4.97736 3.12302 0
M  V30 9895 H 946.716 4.62516 3.98637 0
M  V30 9896 H 948.13 5.423 1.85967 0
M  V30 9897 H 946.527 5.87735 1.21194 0
M  V30 9898 H 947.597 4.84261 0.248913 0
M  V30 9899 N 948.94 -0.228186 1.55939 0
M  V30 9900 C 949.903 -1.26621 1.91049 0
M  V30 9901 C 950.903 -1.40141 0.788491 0
M  V30 9902 O 952.093 -1.3852 1.05631 0
M  V30 9903 C 949.225 -2.64108 2.15545 0
M  V30 9904 H 950.418 -0.966978 2.83883 0
M  V30 9905 H 947.971 -0.468313 1.49119 0
M  V30 9906 H 948.706 -2.99141 1.25241 0
M  V30 9907 H 948.491 -2.55673 2.97277 0
M  V30 9908 H 949.981 -3.39025 2.43827 0
M  V30 9909 N 950.418 -1.49637 -0.494624 0
M  V30 9910 C 951.35 -1.62902 -1.61231 0
M  V30 9911 C 952.363 -0.511425 -1.54558 0
M  V30 9912 O 953.552 -0.783724 -1.60375 0
M  V30 9913 C 950.652 -1.57564 -3.00045 0
M  V30 9914 C 949.825 -2.84964 -3.31835 0
M  V30 9915 C 948.884 -2.72591 -4.5009 0
M  V30 9916 O 947.91 -3.46532 -4.51558 0
M  V30 9917 N 949.112 -1.84563 -5.50379 0
M  V30 9918 H 951.877 -2.59301 -1.50276 0
M  V30 9919 H 949.438 -1.46806 -0.68262 0
M  V30 9920 H 951.43 -1.46932 -3.77085 0
M  V30 9921 H 950 -0.689974 -3.0489 0
M  V30 9922 H 949.22 -3.099 -2.4363 0
M  V30 9923 H 950.508 -3.69412 -3.49875 0
M  V30 9924 H 949.906 -1.23758 -5.51997 0
M  V30 9925 H 948.463 -1.79849 -6.26496 0
M  V30 9926 N 951.896 0.746133 -1.38819 0
M  V30 9927 C 952.859 1.84167 -1.36437 0
M  V30 9928 C 953.859 1.58626 -0.263499 0
M  V30 9929 O 955.049 1.66233 -0.520801 0
M  V30 9930 C 952.181 3.21769 -1.12596 0
M  V30 9931 H 953.374 1.87684 -2.33912 0
M  V30 9932 H 950.927 0.948625 -1.24221 0
M  V30 9933 H 951.662 3.23917 -0.15758 0
M  V30 9934 H 951.447 3.41702 -1.92307 0
M  V30 9935 H 952.937 4.0184 -1.13643 0
M  V30 9936 N 953.375 1.23811 0.975125 0
M  V30 9937 C 954.308 0.967173 2.06691 0
M  V30 9938 C 955.286 -0.09642 1.62314 0
M  V30 9939 O 956.47 0.0389532 1.8846 0
M  V30 9940 C 953.597 0.458094 3.35588 0
M  V30 9941 C 952.643 1.5091 3.98909 0
M  V30 9942 S 953.476 3.08815 4.37485 0
M  V30 9943 C 954.632 2.59591 5.69529 0
M  V30 9944 H 954.865 1.89166 2.29355 0
M  V30 9945 H 952.398 1.07113 1.11203 0
M  V30 9946 H 954.356 0.170991 4.10144 0
M  V30 9947 H 953.017 -0.445562 3.10924 0
M  V30 9948 H 952.21 1.10315 4.91779 0
M  V30 9949 H 951.812 1.74582 3.30752 0
M  V30 9950 H 954.104 2.0194 6.46704 0
M  V30 9951 H 955.047 3.51021 6.14971 0
M  V30 9952 H 955.455 2.00267 5.27782 0
M  V30 9953 N 954.853 -1.17469 1.05066 0
M  V30 9954 C 956.101 -1.87327 0.758485 0
M  V30 9955 C 956.422 -1.81358 -0.716549 0
M  V30 9956 O 955.692 -1.23868 -1.51768 0
M  V30 9957 H 954.272 -0.693512 0.277579 0
M  V30 9958 H 956.934 -1.4251 1.32954 0
M  V30 9959 H 956.03 -2.93101 1.0723 0
M  V30 9960 N 956.331 -0.831506 -1.3388 0
M  V30 9961 C 957.742 -0.481375 -1.80388 0
M  V30 9962 C 958.093 0.998993 -1.68863 0
M  V30 9963 O 957.218 1.77795 -1.2336 0
M  V30 9964 C 957.813 -0.86699 -3.27519 0
M  V30 9965 C 956.372 -0.569105 -3.72073 0
M  V30 9966 C 955.519 -1.07929 -2.55434 0
M  V30 9967 H 958.47 -1.02089 -1.21505 0
M  V30 9968 H 958.491 -0.174128 -3.80101 0
M  V30 9969 H 958.003 -1.94447 -3.35875 0
M  V30 9970 H 956.104 0.498607 -3.69249 0
M  V30 9971 H 956.217 -1.11918 -4.65845 0
M  V30 9972 H 954.581 -0.500465 -2.49735 0
M  V30 9973 H 955.364 -2.16339 -2.66556 0
M  V30 9974 N 957.809 1.4625 -0.587256 0
M  V30 9975 C 959.057 2.01963 -0.0744273 0
M  V30 9976 C 959.378 1.46065 1.29189 0
M  V30 9977 O 958.648 0.647077 1.84905 0
M  V30 9978 H 957.228 0.746597 -0.0245236 0
M  V30 9979 H 959.89 1.79299 -0.764063 0
M  V30 9980 H 958.986 3.12099 -0.00884894 0
M  V30 9981 N 959.287 0.325282 1.54207 0
M  V30 9982 C 960.219 -0.57395 2.21897 0
M  V30 9983 C 961.232 -1.0785 1.21952 0
M  V30 9984 O 962.421 -0.991782 1.48411 0
M  V30 9985 C 959.521 -1.8005 2.87115 0
M  V30 9986 C 958.694 -1.43435 4.13213 0
M  V30 9987 C 957.753 -2.51862 4.62009 0
M  V30 9988 O 956.779 -2.15934 5.26651 0
M  V30 9989 N 957.981 -3.8282 4.36382 0
M  V30 9990 H 960.746 0.00566918 2.99699 0
M  V30 9991 H 958.307 0.148563 1.61217 0
M  V30 9992 H 960.299 -2.51981 3.16682 0
M  V30 9993 H 958.869 -2.28792 2.13009 0
M  V30 9994 H 958.089 -0.546598 3.90392 0
M  V30 9995 H 959.377 -1.16544 4.95273 0
M  V30 9996 H 958.775 -4.14807 3.84645 0
M  V30 9997 H 957.332 -4.50976 4.70599 0
M  V30 9998 N 960.765 -1.57509 0.0534917 0
M  V30 9999 C 961.728 -2.10563 -0.905307 0
M  V30 10000 C 962.728 -1.02571 -1.23838 0
M  V30 10001 O 963.918 -1.28635 -1.17468 0
M  V30 10002 C 961.05 -2.5918 -2.21447 0
M  V30 10003 H 962.243 -2.96575 -0.445354 0
M  V30 10004 H 959.796 -1.55079 -0.194947 0
M  V30 10005 H 960.531 -1.76568 -2.72019 0
M  V30 10006 H 960.316 -3.38098 -1.98575 0
M  V30 10007 H 961.806 -3.00365 -2.90122 0
M  V30 10008 N 962.243 0.219913 -1.56058 0
M  V30 10009 C 963.489 0.945463 -1.79412 0
M  V30 10010 C 963.822 1.83922 -0.62341 0
M  V30 10011 O 963.097 1.90806 0.377256 0
M  V30 10012 C 963.38 1.783 -3.1286 0
M  V30 10013 C 963.233 0.915626 -4.40382 0
M  V30 10014 C 964.552 2.76045 -3.42764 0
M  V30 10015 H 961.671 0.342288 -0.652693 0
M  V30 10016 H 964.313 0.214235 -1.88788 0
M  V30 10017 H 962.463 2.40642 -3.04998 0
M  V30 10018 H 964.135 0.30882 -4.60265 0
M  V30 10019 H 962.378 0.221124 -4.33236 0
M  V30 10020 H 963.049 1.53607 -5.30197 0
M  V30 10021 H 965.525 2.23838 -3.50764 0
M  V30 10022 H 964.401 3.31748 -4.37304 0
M  V30 10023 H 964.662 3.53866 -2.65012 0
M  V30 10024 N 963.721 1.49897 0.486681 0
M  V30 10025 C 964.631 1.70379 1.6127 0
M  V30 10026 C 965.647 0.58659 1.63814 0
M  V30 10027 O 966.823 0.863044 1.81971 0
M  V30 10028 C 963.888 1.77911 2.97571 0
M  V30 10029 C 962.949 3.01569 3.0554 0
M  V30 10030 C 962.182 3.08732 4.35339 0
M  V30 10031 O 962.405 2.23099 5.2496 0
M  V30 10032 O 961.339 4.01325 4.48578 0
M  V30 10033 H 965.165 2.65799 1.46916 0
M  V30 10034 H 962.75 1.33808 0.664516 0
M  V30 10035 H 964.632 1.85135 3.78554 0
M  V30 10036 H 963.307 0.856722 3.12157 0
M  V30 10037 H 962.214 2.99854 2.23693 0
M  V30 10038 H 963.547 3.93335 2.95886 0
M  V30 10039 N 965.199 -0.738761 1.39212 0
M  V30 10040 C 966.445 -1.50046 1.36433 0
M  V30 10041 C 966.778 -1.94157 -0.0409474 0
M  V30 10042 O 966.053 -1.66515 -1.00514 0
M  V30 10043 C 966.336 -2.74277 2.33333 0
M  V30 10044 C 966.189 -2.36209 3.82786 0
M  V30 10045 C 967.508 -3.76361 2.28123 0
M  V30 10046 H 964.627 -0.544294 0.496903 0
M  V30 10047 H 967.269 -0.845005 1.70175 0
M  V30 10048 H 965.419 -3.30204 2.04689 0
M  V30 10049 H 967.091 -1.85942 4.22165 0
M  V30 10050 H 965.334 -1.68483 3.99745 0
M  V30 10051 H 966.005 -3.25156 4.46069 0
M  V30 10052 H 968.481 -3.30009 2.53443 0
M  V30 10053 H 967.357 -4.60957 2.9801 0
M  V30 10054 H 967.618 -4.23013 1.28499 0
M  V30 10055 N 966.677 -1.24326 -0.968545 0
M  V30 10056 C 967.587 -1.05194 -2.09694 0
M  V30 10057 C 968.603 0.00701291 -1.73999 0
M  V30 10058 O 969.779 -0.190981 -2.00492 0
M  V30 10059 C 966.844 -0.658075 -3.40397 0
M  V30 10060 C 965.905 -1.79341 -3.90045 0
M  V30 10061 C 965.138 -1.41824 -5.14511 0
M  V30 10062 O 965.361 -0.307693 -5.69569 0
M  V30 10063 O 964.295 -2.24358 -5.58522 0
M  V30 10064 H 968.121 -1.99791 -2.2873 0
M  V30 10065 H 965.706 -1.03138 -1.08088 0
M  V30 10066 H 967.588 -0.449911 -4.18991 0
M  V30 10067 H 966.263 0.258782 -3.22664 0
M  V30 10068 H 965.17 -2.05632 -3.12516 0
M  V30 10069 H 966.503 -2.68901 -4.12254 0
M  V30 10070 N 968.156 1.1691 -1.05688 0
M  V30 10071 C 969.572 1.39288 -0.779167 0
M  V30 10072 C 969.772 1.91587 0.624231 0
M  V30 10073 O 968.828 2.11072 1.38582 0
M  V30 10074 C 970.141 2.37914 -1.83895 0
M  V30 10075 C 971.689 2.51611 -1.86175 0
M  V30 10076 C 972.164 3.53514 -2.9119 0
M  V30 10077 N 973.655 3.61036 -2.90184 0
M  V30 10078 C 974.39 4.39657 -3.68088 0
M  V30 10079 N 973.886 5.21752 -4.55793 0
M  V30 10080 N 975.679 4.3458 -3.56507 0
M  V30 10081 H 967.83 0.81296 -1.96226 0
M  V30 10082 H 970.093 0.419818 -0.849975 0
M  V30 10083 H 969.799 2.06568 -2.84645 0
M  V30 10084 H 969.673 3.37483 -1.68479 0
M  V30 10085 H 972.06 2.82264 -0.86087 0
M  V30 10086 H 972.141 1.52099 -2.05668 0
M  V30 10087 H 971.785 3.23599 -3.91467 0
M  V30 10088 H 971.715 4.52742 -2.68947 0
M  V30 10089 H 974.206 3.02428 -2.26596 0
M  V30 10090 H 974.519 5.78939 -5.11907 0
M  V30 10091 H 972.864 5.21116 -4.59851 0
M  V30 10092 H 976.055 3.69501 -2.87379 0
M  V30 10093 H 976.228 4.95607 -4.17466 0
M  V30 10094 N 969.634 0.838594 1.33437 0
M  V30 10095 C 971.05 0.526347 1.50671 0
M  V30 10096 C 971.25 -0.946387 1.77893 0
M  V30 10097 O 970.306 -1.7302 1.83903 0
M  V30 10098 C 971.619 1.39945 2.6615 0
M  V30 10099 C 973.167 1.3982 2.80035 0
M  V30 10100 C 973.642 2.25614 3.98576 0
M  V30 10101 N 975.133 2.23322 4.0581 0
M  V30 10102 C 975.868 2.86443 4.96727 0
M  V30 10103 N 975.364 3.58616 5.92762 0
M  V30 10104 N 977.157 2.75915 4.89722 0
M  V30 10105 H 969.308 1.79195 1.1403 0
M  V30 10106 H 971.571 0.764491 0.560586 0
M  V30 10107 H 971.277 2.44599 2.52714 0
M  V30 10108 H 971.151 1.07529 3.61548 0
M  V30 10109 H 973.538 0.35937 2.92904 0
M  V30 10110 H 973.619 1.76241 1.85399 0
M  V30 10111 H 973.263 3.29555 3.86466 0
M  V30 10112 H 973.193 1.86533 4.92456 0
M  V30 10113 H 975.684 1.70836 3.37081 0
M  V30 10114 H 975.997 4.03987 6.58798 0
M  V30 10115 H 974.342 3.62724 5.92838 0
M  V30 10116 H 977.533 2.19094 4.13661 0
M  V30 10117 H 977.706 3.25393 5.60378 0
M  V30 10118 N 971.112 -1.45937 0.595003 0
M  V30 10119 C 972.523 -1.85908 0.171779 0
M  V30 10120 C 972.874 -1.497 -1.26824 0
M  V30 10121 O 971.999 -0.917688 -1.95978 0
M  V30 10122 C 972.594 -3.37425 0.304976 0
M  V30 10123 C 971.153 -3.76346 -0.0634635 0
M  V30 10124 C 970.3 -2.69926 0.635255 0
M  V30 10125 H 973.251 -1.36916 0.802471 0
M  V30 10126 H 973.272 -3.77632 -0.466313 0
M  V30 10127 H 972.784 -3.63747 1.35314 0
M  V30 10128 H 970.885 -3.55642 -1.11129 0
M  V30 10129 H 970.998 -4.78021 0.321419 0
M  V30 10130 H 969.362 -2.54592 0.0742054 0
M  V30 10131 H 970.145 -2.99086 1.68531 0
M  V30 10132 N 972.59 -0.333456 -1.54032 0
M  V30 10133 C 973.815 0.270517 -2.05628 0
M  V30 10134 C 974.24 1.44231 -1.20744 0
M  V30 10135 O 973.598 1.79975 -0.218822 0
M  V30 10136 C 973.646 0.673251 -3.54259 0
M  V30 10137 O 972.75 1.77448 -3.72271 0
M  V30 10138 H 972.091 0.0469753 -0.662336 0
M  V30 10139 H 974.621 -0.484739 -1.98775 0
M  V30 10140 H 974.631 0.953194 -3.96709 0
M  V30 10141 H 973.306 -0.183747 -4.15494 0
M  V30 10142 H 971.883 1.49259 -3.41725 0
M  V30 10143 N 974.068 1.57479 -0.061844 0
M  V30 10144 C 975 2.09116 0.938245 0
M  V30 10145 C 976.013 1.0212 1.26788 0
M  V30 10146 O 977.202 1.2966 1.22681 0
M  V30 10147 C 974.302 2.52822 2.25686 0
M  V30 10148 C 973.475 3.83277 2.10755 0
M  V30 10149 C 972.534 4.13182 3.25833 0
M  V30 10150 O 971.56 4.82937 3.01265 0
M  V30 10151 N 972.762 3.65938 4.50633 0
M  V30 10152 H 975.527 2.95543 0.497433 0
M  V30 10153 H 973.088 1.61423 0.124134 0
M  V30 10154 H 975.08 2.69896 3.01559 0
M  V30 10155 H 973.65 1.71586 2.61299 0
M  V30 10156 H 972.87 3.7568 1.19409 0
M  V30 10157 H 974.158 4.68686 1.98018 0
M  V30 10158 H 973.556 3.09566 4.73482 0
M  V30 10159 H 972.113 3.8823 5.23565 0
M  V30 10160 N 975.546 -0.211634 1.56173 0
M  V30 10161 C 976.794 -0.932704 1.7929 0
M  V30 10162 C 977.115 -1.84472 0.632076 0
M  V30 10163 O 976.385 -1.92739 -0.350519 0
M  V30 10164 H 974.965 -0.347393 0.661307 0
M  V30 10165 H 977.627 -0.22111 1.93642 0
M  V30 10166 H 976.723 -1.53365 2.71819 0
M  V30 10167 N 977.024 -1.50153 -0.478725 0
M  V30 10168 C 977.987 -1.67916 -1.56003 0
M  V30 10169 C 978.987 -0.550111 -1.51097 0
M  V30 10170 O 980.177 -0.817001 -1.53853 0
M  V30 10171 C 977.309 -1.6973 -2.95643 0
M  V30 10172 H 978.502 -2.6438 -1.41573 0
M  V30 10173 H 976.055 -1.39519 -0.704565 0
M  V30 10174 H 976.79 -0.749306 -3.15525 0
M  V30 10175 H 976.575 -2.51745 -3.00611 0
M  V30 10176 H 978.065 -1.85453 -3.74162 0
M  V30 10177 N 978.502 0.731368 -1.39602 0
M  V30 10178 C 979.465 1.8271 -1.38383 0
M  V30 10179 C 980.465 1.58338 -0.280309 0
M  V30 10180 O 981.655 1.65671 -0.538402 0
M  V30 10181 C 978.787 3.20556 -1.16002 0
M  V30 10182 H 979.98 1.85193 -2.35889 0
M  V30 10183 H 977.533 0.935396 -1.2522 0
M  V30 10184 H 978.268 3.23732 -0.191927 0
M  V30 10185 H 978.053 3.39643 -1.9592 0
M  V30 10186 H 979.543 4.00612 -1.17899 0
M  V30 10187 N 979.98 1.24838 0.961938 0
M  V30 10188 C 981.228 1.08936 1.70227 0
M  V30 10189 C 981.549 -0.371582 1.91427 0
M  V30 10190 O 980.819 -1.26461 1.49614 0
M  V30 10191 H 979.399 0.400128 0.630799 0
M  V30 10192 H 982.061 1.56848 1.15692 0
M  V30 10193 H 981.157 1.59195 2.68446 0
M  V30 10194 N 981.458 -1.16348 1.06306 0
M  V30 10195 C 982.683 -1.91323 0.800636 0
M  V30 10196 C 983.108 -1.7691 -0.639105 0
M  V30 10197 O 982.466 -1.0945 -1.44535 0
M  V30 10198 C 982.514 -3.40038 1.20027 0
M  V30 10199 O 981.618 -4.11003 0.339142 0
M  V30 10200 H 980.959 -0.596057 0.292595 0
M  V30 10201 H 983.489 -1.47406 1.41889 0
M  V30 10202 H 983.499 -3.90808 1.17188 0
M  V30 10203 H 982.174 -3.49848 2.24898 0
M  V30 10204 H 980.751 -3.70423 0.42911 0
M  V30 10205 N 982.937 -0.845659 -1.3299 0
M  V30 10206 C 984.348 -0.50048 -1.79867 0
M  V30 10207 C 984.699 0.981027 -1.69913 0
M  V30 10208 O 983.824 1.76477 -1.25239 0
M  V30 10209 C 984.419 -0.901679 -3.26581 0
M  V30 10210 C 982.978 -0.608536 -3.71448 0
M  V30 10211 C 982.125 -1.10632 -2.54275 0
M  V30 10212 H 985.076 -1.03372 -1.20416 0
M  V30 10213 H 985.097 -0.214433 -3.79895 0
M  V30 10214 H 984.609 -1.97998 -3.33794 0
M  V30 10215 H 982.71 0.459416 -3.69757 0
M  V30 10216 H 982.823 -1.16853 -4.64631 0
M  V30 10217 H 981.187 -0.526925 -2.4919 0
M  V30 10218 H 981.97 -2.19154 -2.64247 0
M  V30 10219 N 984.415 1.45619 -0.602734 0
M  V30 10220 C 985.64 2.07157 -0.100429 0
M  V30 10221 C 986.065 1.44524 1.20393 0
M  V30 10222 O 985.423 0.536191 1.7319 0
M  V30 10223 C 985.471 3.60587 0.0308604 0
M  V30 10224 O 984.575 3.97944 1.08234 0
M  V30 10225 H 983.916 0.6601 -0.0718643 0
M  V30 10226 H 986.446 1.86948 -0.831366 0
M  V30 10227 H 986.456 4.07348 0.230634 0
M  V30 10228 H 985.131 4.05561 -0.921581 0
M  V30 10229 H 983.708 3.62862 0.859414 0
M  V30 10230 N 985.893 0.34162 1.53853 0
M  V30 10231 C 986.823 -0.508431 2.27897 0
M  V30 10232 C 987.804 -1.10425 1.29384 0
M  V30 10233 O 988.989 -1.126 1.58224 0
M  V30 10234 C 986.119 -1.66048 3.05034 0
M  V30 10235 C 985.073 -1.19309 4.11035 0
M  V30 10236 C 984.399 -2.4335 4.76114 0
M  V30 10237 C 985.699 -0.294952 5.21467 0
M  V30 10238 H 987.393 0.109251 2.99201 0
M  V30 10239 H 984.939 0.0539847 1.43899 0
M  V30 10240 H 986.892 -2.26158 3.5557 0
M  V30 10241 H 985.616 -2.30503 2.31379 0
M  V30 10242 H 984.275 -0.614809 3.61408 0
M  V30 10243 H 983.923 -3.06208 3.99056 0
M  V30 10244 H 983.623 -2.1276 5.47729 0
M  V30 10245 H 985.147 -3.0419 5.29434 0
M  V30 10246 H 986.561 -0.80285 5.67651 0
M  V30 10247 H 984.958 -0.0810221 6.00045 0
M  V30 10248 H 986.028 0.669433 4.80257 0
M  V30 10249 N 987.371 -1.57444 0.0701946 0
M  V30 10250 C 988.281 -2.16132 -0.912377 0
M  V30 10251 C 989.297 -1.12406 -1.32819 0
M  V30 10252 O 990.473 -1.44665 -1.40121 0
M  V30 10253 C 987.538 -2.71008 -2.16231 0
M  V30 10254 C 986.599 -3.896 -1.80306 0
M  V30 10255 C 985.832 -4.4185 -2.9934 0
M  V30 10256 O 986.055 -3.93106 -4.13309 0
M  V30 10257 O 984.989 -5.33201 -2.7925 0
M  V30 10258 H 988.815 -3.00449 -0.443167 0
M  V30 10259 H 986.4 -1.48617 -0.152786 0
M  V30 10260 H 988.282 -3.06186 -2.8953 0
M  V30 10261 H 986.957 -1.8975 -2.62253 0
M  V30 10262 H 985.864 -3.59277 -1.04264 0
M  V30 10263 H 987.197 -4.72145 -1.39068 0
M  V30 10264 N 988.849 0.203349 -1.56283 0
M  V30 10265 C 990.074 0.945548 -1.84592 0
M  V30 10266 C 990.499 1.7641 -0.652772 0
M  V30 10267 O 989.857 1.76867 0.398468 0
M  V30 10268 C 989.905 1.82416 -3.11057 0
M  V30 10269 O 989.009 2.92191 -2.9103 0
M  V30 10270 H 988.35 0.266739 -0.608068 0
M  V30 10271 H 990.88 0.211158 -2.03507 0
M  V30 10272 H 990.89 2.23044 -3.41636 0
M  V30 10273 H 989.565 1.22267 -3.97522 0
M  V30 10274 H 988.142 2.55378 -2.71728 0
M  V30 10275 N 990.327 1.50405 0.470755 0
M  V30 10276 C 991.575 1.61092 1.2204 0
M  V30 10277 C 991.896 0.313487 1.92464 0
M  V30 10278 O 991.166 -0.669043 1.84121 0
M  V30 10279 H 989.746 0.593618 0.45346 0
M  V30 10280 H 992.408 1.87184 0.542985 0
M  V30 10281 H 991.504 2.42222 1.96812 0
M  V30 10282 N 991.805 -0.723954 1.39988 0
M  V30 10283 C 993.053 -1.48078 1.3754 0
M  V30 10284 C 993.374 -1.94985 -0.0243358 0
M  V30 10285 O 992.644 -1.69764 -0.977602 0
M  V30 10286 H 991.224 -0.549354 0.506181 0
M  V30 10287 H 993.886 -0.858746 1.74962 0
M  V30 10288 H 992.982 -2.35763 2.04505 0
M  V30 10289 N 993.283 -1.25346 -0.955304 0
M  V30 10290 C 994.531 -1.09837 -1.69647 0
M  V30 10291 C 994.852 0.361425 -1.91621 0
M  V30 10292 O 994.122 1.25666 -1.50283 0
M  V30 10293 H 992.702 -0.403467 -0.628668 0
M  V30 10294 H 995.364 -1.57459 -1.14859 0
M  V30 10295 H 994.46 -1.60616 -2.67598 0
M  V30 10296 N 994.761 1.15782 -1.06922 0
M  V30 10297 C 996.172 1.68062 -0.813144 0
M  V30 10298 C 996.523 1.84681 0.662374 0
M  V30 10299 O 995.648 1.54696 1.51321 0
M  V30 10300 C 996.243 3.05273 -1.46949 0
M  V30 10301 C 994.802 3.54647 -1.26104 0
M  V30 10302 C 993.949 2.30477 -1.54194 0
M  V30 10303 H 996.9 1.00056 -1.23185 0
M  V30 10304 H 996.921 3.69986 -0.888308 0
M  V30 10305 H 996.433 2.93145 -2.54337 0
M  V30 10306 H 994.534 3.72024 -0.20718 0
M  V30 10307 H 994.647 4.36354 -1.97819 0
M  V30 10308 H 993.011 2.35803 -0.96276 0
M  V30 10309 H 993.794 2.2094 -2.62755 0
M  V30 10310 N 996.239 0.8527 1.3254 0
M  V30 10311 C 997.202 0.300959 2.27215 0
M  V30 10312 C 998.202 -0.538235 1.51525 0
M  V30 10313 O 999.392 -0.350027 1.70647 0
M  V30 10314 C 996.524 -0.574428 3.36025 0
M  V30 10315 H 997.717 1.13655 2.77529 0
M  V30 10316 H 995.27 0.626878 1.43178 0
M  V30 10317 H 996.005 -1.43191 2.90976 0
M  V30 10318 H 995.79 0.0262265 3.92091 0
M  V30 10319 H 997.28 -0.9533 4.06573 0
M  V30 10320 N 997.718 -1.45297 0.610449 0
M  V30 10321 C 999.129 -1.85715 0.191488 0
M  V30 10322 C 999.48 -1.51036 -1.25229 0
M  V30 10323 O 998.605 -0.938422 -1.94994 0
M  V30 10324 C 999.2 -3.37082 0.340747 0
M  V30 10325 C 997.759 -3.76393 -0.0235433 0
M  V30 10326 C 996.906 -2.69237 0.663849 0
M  V30 10327 H 999.857 -1.36058 0.816948 0
M  V30 10328 H 999.878 -3.78105 -0.426233 0
M  V30 10329 H 999.39 -3.62291 1.39164 0
M  V30 10330 H 997.491 -3.56801 -1.07351 0
M  V30 10331 H 997.604 -4.77653 0.372102 0
M  V30 10332 H 995.968 -2.54499 0.101204 0
M  V30 10333 H 996.751 -2.97281 1.71694 0
M  V30 10334 N 999.196 -0.349774 -1.5367 0
M  V30 10335 C 1000.61 0.132815 -1.86227 0
M  V30 10336 C 1000.96 1.49479 -1.27084 0
M  V30 10337 O 1000.08 2.08292 -0.58679 0
M  V30 10338 C 1000.68 0.247775 -3.37893 0
M  V30 10339 C 999.237 0.674603 -3.70305 0
M  V30 10340 C 998.384 -0.187869 -2.76663 0
M  V30 10341 H 1001.33 -0.569148 -1.48143 0
M  V30 10342 H 1001.36 1.07418 -3.65023 0
M  V30 10343 H 1000.87 -0.743635 -3.80909 0
M  V30 10344 H 998.969 1.67481 -3.32837 0
M  V30 10345 H 999.082 0.460177 -4.76885 0
M  V30 10346 H 997.446 0.340779 -2.5241 0
M  V30 10347 H 998.229 -1.17653 -3.2251 0
M  V30 10348 N 1000.67 1.57404 -0.0785433 0
M  V30 10349 C 1001.64 2.11977 0.871693 0
M  V30 10350 C 1002.64 1.04529 1.2219 0
M  V30 10351 O 1003.83 1.30488 1.15406 0
M  V30 10352 C 1000.96 2.6267 2.17296 0
M  V30 10353 H 1002.15 2.97246 0.398115 0
M  V30 10354 H 999.705 1.5537 0.170251 0
M  V30 10355 H 1000.44 1.80873 2.69175 0
M  V30 10356 H 1000.22 3.41214 1.93171 0
M  V30 10357 H 1001.71 3.04943 2.85306 0
M  V30 10358 N 1002.15 -0.195058 1.56388 0
M  V30 10359 C 1003.08 -1.24444 1.97575 0
M  V30 10360 C 1004.06 -1.47471 0.847717 0
M  V30 10361 O 1005.25 -1.59208 1.11205 0
M  V30 10362 C 1002.38 -2.58866 2.31529 0
M  V30 10363 C 1001.33 -2.50451 3.47071 0
M  V30 10364 C 1000.66 -3.89146 3.667 0
M  V30 10365 C 1001.96 -2.02953 4.81256 0
M  V30 10366 H 1003.65 -0.902178 2.85484 0
M  V30 10367 H 1001.2 -0.43254 1.3735 0
M  V30 10368 H 1003.15 -3.3246 2.58936 0
M  V30 10369 H 1001.87 -2.94833 1.40502 0
M  V30 10370 H 1000.53 -1.79313 3.19754 0
M  V30 10371 H 1000.18 -4.22466 2.73004 0
M  V30 10372 H 999.882 -3.84391 4.44429 0
M  V30 10373 H 1001.41 -4.64363 3.96484 0
M  V30 10374 H 1002.82 -2.66306 5.07695 0
M  V30 10375 H 1001.22 -2.092 5.62455 0
M  V30 10376 H 1002.29 -0.982757 4.74837 0
M  V30 10377 N 1003.63 -1.50653 -0.462772 0
M  V30 10378 C 1004.88 -1.61737 -1.21184 0
M  V30 10379 C 1005.2 -0.32369 -1.92295 0
M  V30 10380 O 1004.47 0.659269 -1.84473 0
M  V30 10381 H 1003.05 -0.596015 -0.450306 0
M  V30 10382 H 1005.71 -1.87469 -0.533051 0
M  V30 10383 H 1004.81 -2.43262 -1.95525 0
M  V30 10384 N 1005.11 0.71652 -1.4037 0
M  V30 10385 C 1006.52 1.29562 -1.34427 0
M  V30 10386 C 1006.87 1.96192 -0.0173106 0
M  V30 10387 O 1006 1.97488 0.884719 0
M  V30 10388 C 1006.59 2.35601 -2.4347 0
M  V30 10389 C 1005.15 2.89138 -2.4099 0
M  V30 10390 C 1004.3 1.62915 -2.24397 0
M  V30 10391 H 1007.25 0.512715 -1.5019 0
M  V30 10392 H 1007.27 3.16422 -2.11323 0
M  V30 10393 H 1006.78 1.87077 -3.40035 0
M  V30 10394 H 1004.88 3.41894 -1.4812 0
M  V30 10395 H 1004.99 3.40995 -3.3654 0
M  V30 10396 H 1003.36 1.87947 -1.71896 0
M  V30 10397 H 1004.14 1.16417 -3.22958 0
M  V30 10398 N 1006.59 1.25851 0.948643 0
M  V30 10399 C 1008 1.02802 1.22081 0
M  V30 10400 C 1008.2 -0.251461 1.99925 0
M  V30 10401 O 1007.26 -0.962592 2.33432 0
M  V30 10402 C 1008.57 2.25489 1.98936 0
M  V30 10403 C 1010.12 2.30312 2.11956 0
M  V30 10404 C 1010.59 3.52671 2.92211 0
M  V30 10405 N 1012.09 3.53103 2.99787 0
M  V30 10406 C 1012.82 4.44445 3.62294 0
M  V30 10407 N 1012.32 5.46065 4.26362 0
M  V30 10408 N 1014.11 4.32113 3.59493 0
M  V30 10409 H 1006.26 2.08042 0.428044 0
M  V30 10410 H 1008.52 0.913928 0.251872 0
M  V30 10411 H 1008.23 3.18513 1.4914 0
M  V30 10412 H 1008.1 2.2914 2.99624 0
M  V30 10413 H 1010.49 1.37808 2.60946 0
M  V30 10414 H 1010.57 2.30676 1.10554 0
M  V30 10415 H 1010.22 4.45501 2.43909 0
M  V30 10416 H 1010.15 3.49554 3.93853 0
M  V30 10417 H 1012.64 2.79597 2.54232 0
M  V30 10418 H 1012.95 6.11964 4.71932 0
M  V30 10419 H 1011.29 5.49931 4.24972 0
M  V30 10420 H 1014.49 3.51946 3.08629 0
M  V30 10421 H 1014.66 5.03493 4.0792 0
M  V30 10422 N 1008.06 -1.15214 1.07534 0
M  V30 10423 C 1009.31 -1.86319 0.800814 0
M  V30 10424 C 1009.64 -1.82221 -0.671494 0
M  V30 10425 O 1008.92 -1.24664 -1.49295 0
M  V30 10426 C 1009.2 -3.35347 1.31203 0
M  V30 10427 C 1009.05 -3.48067 2.84902 0
M  V30 10428 C 1010.37 -4.3016 0.930064 0
M  V30 10429 H 1007.49 -0.676523 0.292379 0
M  V30 10430 H 1010.13 -1.35349 1.33344 0
M  V30 10431 H 1008.28 -3.78886 0.858949 0
M  V30 10432 H 1009.96 -3.13379 3.38514 0
M  V30 10433 H 1008.2 -2.89566 3.23008 0
M  V30 10434 H 1008.87 -4.52782 3.15741 0
M  V30 10435 H 1011.35 -3.94591 1.3205 0
M  V30 10436 H 1010.22 -5.32914 1.31507 0
M  V30 10437 H 1010.48 -4.41796 -0.163824 0
M  V30 10438 N 1009.54 -0.859717 -1.32086 0
M  V30 10439 C 1010.79 -0.464662 -1.96686 0
M  V30 10440 C 1011.11 0.98412 -1.68345 0
M  V30 10441 O 1010.38 1.68847 -0.993361 0
M  V30 10442 H 1008.96 -0.168838 -0.727669 0
M  V30 10443 H 1011.62 -1.09726 -1.61079 0
M  V30 10444 H 1010.72 -0.613904 -3.06003 0
M  V30 10445 N 1011.02 1.44971 -0.618145 0
M  V30 10446 C 1012.27 2.0176 -0.11725 0
M  V30 10447 C 1012.59 1.48773 1.26062 0
M  V30 10448 O 1011.86 0.686152 1.83491 0
M  V30 10449 H 1010.44 0.745909 -0.0403545 0
M  V30 10450 H 1013.1 1.77638 -0.801923 0
M  V30 10451 H 1012.2 3.1201 -0.0750477 0
M  V30 10452 N 1012.5 0.357919 1.53482 0
M  V30 10453 C 1013.43 -0.526753 2.23065 0
M  V30 10454 C 1014.44 -1.05239 1.24212 0
M  V30 10455 O 1015.63 -0.960078 1.50482 0
M  V30 10456 C 1012.73 -1.73919 2.9087 0
M  V30 10457 C 1011.91 -1.34638 4.16163 0
M  V30 10458 C 1010.96 -2.42005 4.67247 0
M  V30 10459 O 1009.99 -2.04714 5.31113 0
M  V30 10460 N 1011.19 -3.73478 4.44404 0
M  V30 10461 H 1013.96 0.0692386 2.9962 0
M  V30 10462 H 1011.52 0.182726 1.60866 0
M  V30 10463 H 1013.51 -2.45207 3.21956 0
M  V30 10464 H 1012.08 -2.24223 2.17814 0
M  V30 10465 H 1011.3 -0.463667 3.91464 0
M  V30 10466 H 1012.59 -1.06012 4.97633 0
M  V30 10467 H 1011.99 -4.06555 3.93357 0
M  V30 10468 H 1010.54 -4.40893 4.80059 0
M  V30 10469 N 1013.98 -1.5736 0.0868897 0
M  V30 10470 C 1015.25 -1.85495 -0.620561 0
M  V30 10471 C 1015.63 -0.982218 -1.86857 0
M  V30 10472 O 1014.98 -0.0524529 -2.2844 0
M  V30 10473 C 1015.19 -3.35996 -0.943798 0
M  V30 10474 C 1016.54 -4.03861 -1.31079 0
M  V30 10475 O 1017.56 -3.4083 -1.03507 0
M  V30 10476 O 1016.42 -5.15062 -1.82683 0
M  V30 10477 H 1013.52 -0.766822 -0.309697 0
M  V30 10478 H 1016.06 -1.69282 0.118966 0
M  V30 10479 H 1014.83 -3.91257 -0.0580628 0
M  V30 10480 H 1014.46 -3.57525 -1.73958 0
M  V30 10481 N 1015.45 0.186762 -1.56489 0
M  V30 10482 C 1016.39 1.25565 -1.91745 0
M  V30 10483 C 1017.4 1.4128 -0.80894 0
M  V30 10484 O 1018.59 1.41558 -1.08737 0
M  V30 10485 C 1015.69 2.62662 -2.14154 0
M  V30 10486 C 1014.86 2.68448 -3.45333 0
M  V30 10487 C 1013.92 3.86798 -3.56754 0
M  V30 10488 O 1012.95 3.73514 -4.29507 0
M  V30 10489 N 1014.15 5.02607 -2.90459 0
M  V30 10490 H 1016.91 0.956351 -2.84032 0
M  V30 10491 H 1014.47 0.376631 -1.57458 0
M  V30 10492 H 1016.47 3.40277 -2.19075 0
M  V30 10493 H 1015.04 2.85046 -1.28326 0
M  V30 10494 H 1014.26 1.77044 -3.52206 0
M  V30 10495 H 1015.54 2.69311 -4.31682 0
M  V30 10496 H 1014.94 5.163 -2.31194 0
M  V30 10497 H 1013.5 5.78139 -3.00996 0
M  V30 10498 N 1016.93 1.50896 0.454776 0
M  V30 10499 C 1017.88 1.70947 1.55067 0
M  V30 10500 C 1018.85 0.550899 1.56698 0
M  V30 10501 O 1020.03 0.783352 1.73978 0
M  V30 10502 C 1017.17 1.82455 2.92924 0
M  V30 10503 C 1016.29 3.09919 3.00956 0
M  V30 10504 C 1015.42 3.12125 4.29827 0
M  V30 10505 C 1014.46 4.33975 4.31662 0
M  V30 10506 N 1013.6 4.33828 5.5203 0
M  V30 10507 H 1018.44 2.645 1.37273 0
M  V30 10508 H 1015.98 1.31101 0.667148 0
M  V30 10509 H 1017.93 1.87108 3.72889 0
M  V30 10510 H 1016.56 0.92327 3.09315 0
M  V30 10511 H 1015.62 3.14659 2.13761 0
M  V30 10512 H 1016.93 3.99869 2.98172 0
M  V30 10513 H 1016.08 3.15598 5.18154 0
M  V30 10514 H 1014.82 2.20033 4.35243 0
M  V30 10515 H 1013.83 4.30697 3.41731 0
M  V30 10516 H 1015.05 5.27312 4.27924 0
M  V30 10517 H 1013 3.44598 5.58201 0
M  V30 10518 H 1012.91 5.17566 5.51055 0
M  V30 10519 H 1014.18 4.4147 6.42437 0
M  V30 10520 N 1018.41 -0.709066 1.40748 0
M  V30 10521 C 1019.69 -1.4626 1.29874 0
M  V30 10522 C 1020.07 -2.10949 -0.0799322 0
M  V30 10523 O 1019.42 -2.00651 -1.09323 0
M  V30 10524 C 1019.63 -2.49302 2.44232 0
M  V30 10525 C 1020.97 -3.14945 2.84771 0
M  V30 10526 O 1022 -2.59623 2.43873 0
M  V30 10527 O 1020.86 -4.15111 3.5545 0
M  V30 10528 H 1017.95 -0.650716 0.51039 0
M  V30 10529 H 1020.5 -0.740687 1.52682 0
M  V30 10530 H 1019.27 -2.00063 3.36289 0
M  V30 10531 H 1018.89 -3.29021 2.23229 0
M  V30 10532 N 1019.89 -1.26353 -0.941956 0
M  V30 10533 C 1021.11 -1.14731 -1.72776 0
M  V30 10534 C 1021.54 0.293766 -1.85792 0
M  V30 10535 O 1020.9 1.21284 -1.34759 0
M  V30 10536 C 1020.95 -1.82041 -3.11277 0
M  V30 10537 O 1020.05 -1.10867 -3.97218 0
M  V30 10538 H 1019.39 -0.399823 -0.53013 0
M  V30 10539 H 1021.92 -1.67157 -1.17981 0
M  V30 10540 H 1021.93 -1.88834 -3.61671 0
M  V30 10541 H 1020.61 -2.86879 -3.0112 0
M  V30 10542 H 1019.18 -1.12044 -3.55669 0
M  V30 10543 N 1021.37 1.14642 -1.08144 0
M  V30 10544 C 1022.78 1.6719 -0.830923 0
M  V30 10545 C 1023.13 1.85373 0.642749 0
M  V30 10546 O 1022.25 1.56293 1.49671 0
M  V30 10547 C 1022.85 3.03697 -1.50179 0
M  V30 10548 C 1021.41 3.5329 -1.29858 0
M  V30 10549 C 1020.56 2.28828 -1.5663 0
M  V30 10550 H 1023.51 0.987441 -1.24239 0
M  V30 10551 H 1023.53 3.69023 -0.9275 0
M  V30 10552 H 1023.04 2.90431 -2.57432 0
M  V30 10553 H 1021.14 3.71783 -0.246626 0
M  V30 10554 H 1021.25 4.34231 -2.02436 0
M  V30 10555 H 1019.62 2.34769 -0.987716 0
M  V30 10556 H 1020.4 2.18141 -2.65084 0
M  V30 10557 N 1022.85 0.866709 1.31628 0
M  V30 10558 C 1024.09 0.476731 1.97117 0
M  V30 10559 C 1024.42 -0.967813 1.68366 0
M  V30 10560 O 1023.7 -1.68101 0.978377 0
M  V30 10561 C 1023.98 0.730561 3.52611 0
M  V30 10562 C 1023.84 2.2244 3.90948 0
M  V30 10563 C 1025.15 0.19488 4.39668 0
M  V30 10564 H 1022.27 0.174682 0.715999 0
M  V30 10565 H 1024.92 1.08735 1.5581 0
M  V30 10566 H 1023.07 0.210834 3.87927 0
M  V30 10567 H 1024.74 2.81113 3.6575 0
M  V30 10568 H 1022.98 2.69824 3.39673 0
M  V30 10569 H 1023.65 2.35266 4.99353 0
M  V30 10570 H 1026.13 0.639478 4.11157 0
M  V30 10571 H 1025 0.401958 5.47426 0
M  V30 10572 H 1025.26 -0.90302 4.32779 0
M  V30 10573 N 1024.32 -1.44642 0.625825 0
M  V30 10574 C 1025.29 -2.29085 -0.072526 0
M  V30 10575 C 1026.29 -1.40755 -0.777467 0
M  V30 10576 O 1027.48 -1.62684 -0.622861 0
M  V30 10577 C 1024.61 -3.22212 -1.1132 0
M  V30 10578 H 1025.8 -2.92317 0.670124 0
M  V30 10579 H 1023.35 -1.51466 0.38571 0
M  V30 10580 H 1024.09 -2.63819 -1.88601 0
M  V30 10581 H 1023.87 -3.87299 -0.611709 0
M  V30 10582 H 1025.36 -3.8566 -1.60175 0
M  V30 10583 N 1025.8 -0.366053 -1.5329 0
M  V30 10584 C 1027.05 0.224614 -2.00445 0
M  V30 10585 C 1027.36 1.49829 -1.2574 0
M  V30 10586 O 1028.57 2.16759 -1.63487 0
M  V30 10587 C 1027.03 0.450818 -3.57065 0
M  V30 10588 C 1026.63 -0.808257 -4.40649 0
M  V30 10589 C 1028.38 0.999116 -4.12575 0
M  V30 10590 C 1026.28 -0.551612 -5.88822 0
M  V30 10591 H 1025.21 0.0877114 -0.748881 0
M  V30 10592 H 1027.87 -0.484866 -1.76978 0
M  V30 10593 H 1026.25 1.22157 -3.76688 0
M  V30 10594 H 1027.42 -1.58184 -4.32798 0
M  V30 10595 H 1025.74 -1.27981 -3.96245 0
M  V30 10596 H 1028.33 1.20646 -5.20911 0
M  V30 10597 H 1028.68 1.96139 -3.67199 0
M  V30 10598 H 1029.21 0.288518 -3.96752 0
M  V30 10599 H 1025.95 -1.48423 -6.38475 0
M  V30 10600 H 1025.47 0.183462 -5.99519 0
M  V30 10601 H 1027.15 -0.177307 -6.46757 0
M  V30 10602 N 1027.28 1.57312 -0.0952337 0
M  V30 10603 C 1028.69 1.81589 0.433875 0
M  V30 10604 C 1029.04 1.01086 1.68155 0
M  V30 10605 O 1028.17 0.240272 2.15062 0
M  V30 10606 C 1028.76 3.29366 0.793931 0
M  V30 10607 C 1027.32 3.54407 1.26778 0
M  V30 10608 C 1026.47 2.76035 0.264518 0
M  V30 10609 H 1029.42 1.55426 -0.320675 0
M  V30 10610 H 1029.44 3.42697 1.65345 0
M  V30 10611 H 1028.95 3.87932 -0.114334 0
M  V30 10612 H 1027.05 3.01173 2.19376 0
M  V30 10613 H 1027.17 4.63055 1.22952 0
M  V30 10614 H 1025.53 2.43509 0.746691 0
M  V30 10615 H 1026.31 3.37349 -0.636429 0
M  V30 10616 N 1028.76 -0.17846 1.56586 0
M  V30 10617 C 1029.69 -1.2496 1.90946 0
M  V30 10618 C 1030.67 -1.43136 0.771424 0
M  V30 10619 O 1031.85 -1.58258 1.02405 0
M  V30 10620 C 1028.98 -2.61368 2.15417 0
M  V30 10621 C 1028.03 -2.59969 3.3811 0
M  V30 10622 S 1028.86 -2.09756 4.9271 0
M  V30 10623 C 1030.01 -3.47956 5.20267 0
M  V30 10624 H 1030.25 -0.956287 2.815 0
M  V30 10625 H 1027.78 -0.382709 1.49582 0
M  V30 10626 H 1029.74 -3.39882 2.30197 0
M  V30 10627 H 1028.4 -2.87903 1.25582 0
M  V30 10628 H 1027.59 -3.60309 3.52411 0
M  V30 10629 H 1027.19 -1.89547 3.2241 0
M  V30 10630 H 1029.49 -4.43914 5.11807 0
M  V30 10631 H 1030.43 -3.38536 6.21932 0
M  V30 10632 H 1030.84 -3.43637 4.47855 0
M  V30 10633 N 1030.24 -1.51135 -0.446768 0
M  V30 10634 C 1031.46 -1.67411 -1.22427 0
M  V30 10635 C 1031.89 -0.367009 -1.84485 0
M  V30 10636 O 1031.24 0.67185 -1.68392 0
M  V30 10637 C 1031.29 -2.78473 -2.29096 0
M  V30 10638 O 1030.4 -2.41419 -3.34351 0
M  V30 10639 H 1029.74 -0.558512 -0.359111 0
M  V30 10640 H 1032.27 -1.97648 -0.5288 0
M  V30 10641 H 1032.28 -3.02277 -2.7403 0
M  V30 10642 H 1030.95 -3.73326 -1.83304 0
M  V30 10643 H 1029.53 -2.28152 -2.9496 0
M  V30 10644 N 1031.71 0.701592 -1.41122 0
M  V30 10645 C 1032.94 1.49553 -1.43696 0
M  V30 10646 C 1033.36 1.88053 -0.0421865 0
M  V30 10647 O 1032.72 1.54223 0.953144 0
M  V30 10648 C 1032.77 2.73834 -2.34622 0
M  V30 10649 O 1031.87 3.71088 -1.7991 0
M  V30 10650 H 1031.21 0.450352 -0.487933 0
M  V30 10651 H 1033.74 0.862886 -1.85514 0
M  V30 10652 H 1033.75 3.22209 -2.5029 0
M  V30 10653 H 1032.43 2.45149 -3.35969 0
M  V30 10654 H 1031.01 3.29994 -1.73661 0
M  V30 10655 N 1033.19 1.2685 0.935242 0
M  V30 10656 C 1034.44 1.12522 1.67878 0
M  V30 10657 C 1034.76 -0.330894 1.92172 0
M  V30 10658 O 1034.03 -1.23259 1.52263 0
M  V30 10659 H 1032.61 0.413418 0.622169 0
M  V30 10660 H 1035.27 1.59267 1.12339 0
M  V30 10661 H 1034.37 1.64853 2.65009 0
M  V30 10662 N 1034.67 -1.14067 1.0875 0
M  V30 10663 C 1035.95 -1.81389 0.73195 0
M  V30 10664 C 1036.33 -1.96005 -0.78391 0
M  V30 10665 O 1035.68 -1.52267 -1.70373 0
M  V30 10666 C 1035.89 -3.16858 1.46294 0
M  V30 10667 C 1037.23 -3.92305 1.62426 0
M  V30 10668 O 1038.26 -3.26459 1.42488 0
M  V30 10669 O 1037.12 -5.10393 1.9535 0
M  V30 10670 H 1034.21 -0.784354 0.262141 0
M  V30 10671 H 1036.76 -1.21054 1.18929 0
M  V30 10672 H 1035.53 -3.01404 2.49542 0
M  V30 10673 H 1035.15 -3.84889 0.997318 0
M  V30 10674 N 1036.15 -0.873678 -1.31166 0
M  V30 10675 C 1037.38 -0.501043 -2.00742 0
M  V30 10676 C 1037.79 0.907477 -1.65561 0
M  V30 10677 O 1037.15 1.59507 -0.886771 0
M  V30 10678 C 1037.2 -0.652877 -3.55556 0
M  V30 10679 O 1036.92 -2.00593 -3.89479 0
M  V30 10680 C 1038.42 -0.281742 -4.42404 0
M  V30 10681 H 1035.64 -0.194829 -0.642092 0
M  V30 10682 H 1038.19 -1.17587 -1.67313 0
M  V30 10683 H 1036.34 -0.0255627 -3.87392 0
M  V30 10684 H 1036.75 -2.01638 -4.84193 0
M  V30 10685 H 1038.23 -0.43892 -5.50252 0
M  V30 10686 H 1038.71 0.779389 -4.32229 0
M  V30 10687 H 1039.31 -0.88491 -4.15992 0
M  V30 10688 N 1037.63 1.44308 -0.633487 0
M  V30 10689 C 1038.54 2.34492 0.0711787 0
M  V30 10690 C 1039.55 1.52754 0.8332 0
M  V30 10691 O 1040.73 1.85475 0.784929 0
M  V30 10692 C 1037.79 3.30767 1.03895 0
M  V30 10693 C 1036.85 4.28412 0.276043 0
M  V30 10694 C 1036.09 5.20087 1.19772 0
M  V30 10695 O 1036.31 5.15743 2.4365 0
M  V30 10696 O 1035.24 5.98038 0.680764 0
M  V30 10697 H 1039.07 2.96203 -0.67063 0
M  V30 10698 H 1036.66 1.4412 -0.393678 0
M  V30 10699 H 1038.54 3.90021 1.59566 0
M  V30 10700 H 1037.21 2.71586 1.76133 0
M  V30 10701 H 1036.12 3.72696 -0.32377 0
M  V30 10702 H 1037.45 4.9052 -0.406364 0
M  V30 10703 N 1039.1 0.374177 1.53094 0
M  V30 10704 C 1040.38 -0.269632 1.93733 0
M  V30 10705 C 1040.76 -1.6566 1.30843 0
M  V30 10706 O 1040.11 -2.23598 0.470759 0
M  V30 10707 C 1040.32 -0.311204 3.4761 0
M  V30 10708 C 1041.67 -0.547432 4.21056 0
M  V30 10709 O 1042.69 -0.392053 3.54036 0
M  V30 10710 O 1041.55 -0.850645 5.39839 0
M  V30 10711 H 1038.64 -0.163723 0.810632 0
M  V30 10712 H 1041.19 0.427586 1.64225 0
M  V30 10713 H 1039.96 0.660897 3.85678 0
M  V30 10714 H 1039.59 -1.05397 3.83376 0
M  V30 10715 N 1040.58 -1.57259 0.103575 0
M  V30 10716 C 1041.99 -1.81816 -0.424239 0
M  V30 10717 C 1042.34 -1.01976 -1.67617 0
M  V30 10718 O 1041.47 -0.251673 -2.14932 0
M  V30 10719 C 1042.06 -3.29783 -0.776453 0
M  V30 10720 C 1040.62 -3.55074 -1.24897 0
M  V30 10721 C 1039.77 -2.76172 -0.249875 0
M  V30 10722 H 1042.72 -1.55254 0.328913 0
M  V30 10723 H 1042.74 -3.43569 -1.63526 0
M  V30 10724 H 1042.25 -3.87865 0.134906 0
M  V30 10725 H 1040.36 -3.02332 -2.17775 0
M  V30 10726 H 1040.47 -4.637 -1.20495 0
M  V30 10727 H 1038.83 -2.43902 -0.733767 0
M  V30 10728 H 1039.62 -3.37007 0.65431 0
M  V30 10729 N 1042.06 0.170153 -1.56679 0
M  V30 10730 C 1043.31 0.884841 -1.817 0
M  V30 10731 C 1043.63 1.82731 -0.680763 0
M  V30 10732 O 1042.9 1.936 0.299294 0
M  V30 10733 H 1041.48 0.329738 -0.670285 0
M  V30 10734 H 1044.14 0.169691 -1.9416 0
M  V30 10735 H 1043.24 1.46104 -2.7579 0
M  V30 10736 N 1043.54 1.5137 0.438746 0
M  V30 10737 C 1044.78 1.64211 1.19006 0
M  V30 10738 C 1045.12 0.356607 1.90898 0
M  V30 10739 O 1044.39 -0.643722 1.83539 0
M  V30 10740 C 1044.68 2.8445 2.20817 0
M  V30 10741 C 1044.53 4.22972 1.53018 0
M  V30 10742 C 1045.85 3.00207 3.21813 0
M  V30 10743 H 1042.97 0.597628 0.431288 0
M  V30 10744 H 1045.61 1.8385 0.479487 0
M  V30 10745 H 1043.76 2.67836 2.81418 0
M  V30 10746 H 1045.43 4.5125 0.957654 0
M  V30 10747 H 1043.67 4.25736 0.832556 0
M  V30 10748 H 1044.34 5.03094 2.27158 0
M  V30 10749 H 1046.82 3.15522 2.71266 0
M  V30 10750 H 1045.7 3.85904 3.90345 0
M  V30 10751 H 1045.96 2.12216 3.87836 0
M  V30 10752 N 1045.02 -0.694098 1.41492 0
M  V30 10753 C 1045.98 -1.78976 1.43179 0
M  V30 10754 C 1046.98 -1.57539 0.322191 0
M  V30 10755 O 1048.17 -1.64185 0.582138 0
M  V30 10756 C 1045.3 -3.17368 1.2446 0
M  V30 10757 H 1046.49 -1.78874 2.40716 0
M  V30 10758 H 1044.05 -0.901867 1.27656 0
M  V30 10759 H 1044.78 -3.23109 0.277691 0
M  V30 10760 H 1044.57 -3.3433 2.04856 0
M  V30 10761 H 1046.06 -3.97345 1.28479 0
M  V30 10762 N 1046.49 -1.27344 -0.928501 0
M  V30 10763 C 1047.72 -1.16557 -1.7155 0
M  V30 10764 C 1048.14 0.274044 -1.86093 0
M  V30 10765 O 1047.5 1.19847 -1.36038 0
M  V30 10766 C 1047.55 -1.85332 -3.09329 0
M  V30 10767 O 1046.65 -1.15074 -3.9602 0
M  V30 10768 H 1046 -0.405423 -0.525859 0
M  V30 10769 H 1048.53 -1.68399 -1.16202 0
M  V30 10770 H 1048.54 -1.92659 -3.59648 0
M  V30 10771 H 1047.21 -2.90056 -2.98061 0
M  V30 10772 H 1045.79 -1.1581 -3.54461 0
M  V30 10773 N 1047.97 1.13488 -1.09353 0
M  V30 10774 C 1049.22 1.84383 -0.827488 0
M  V30 10775 C 1049.54 1.83892 0.648745 0
M  V30 10776 O 1048.81 1.29415 1.47066 0
M  V30 10777 H 1047.39 0.682732 -0.303127 0
M  V30 10778 H 1050.05 1.37477 -1.38152 0
M  V30 10779 H 1049.15 2.88919 -1.18035 0
M  V30 10780 N 1049.45 0.880621 1.30701 0
M  V30 10781 C 1050.68 0.51094 2.00182 0
M  V30 10782 C 1051.09 -0.903914 1.66211 0
M  V30 10783 O 1050.43 -1.60529 0.893089 0
M  V30 10784 C 1050.49 0.600775 3.54445 0
M  V30 10785 C 1050.16 1.97915 4.1192 0
M  V30 10786 C 1051.16 2.94802 4.28238 0
M  V30 10787 C 1048.84 2.28336 4.47401 0
M  V30 10788 C 1050.83 4.20245 4.79242 0
M  V30 10789 C 1048.52 3.54026 4.98105 0
M  V30 10790 C 1049.52 4.49796 5.13978 0
M  V30 10791 O 1049.21 5.73256 5.63589 0
M  V30 10792 H 1048.94 0.196477 0.646818 0
M  V30 10793 H 1051.49 1.18659 1.67658 0
M  V30 10794 H 1049.72 -0.131832 3.86475 0
M  V30 10795 H 1051.41 0.242996 4.05172 0
M  V30 10796 H 1052.18 2.7261 4.01134 0
M  V30 10797 H 1048.06 1.54564 4.34317 0
M  V30 10798 H 1051.6 4.95003 4.91546 0
M  V30 10799 H 1047.5 3.76057 5.24644 0
M  V30 10800 H 1048.27 5.75577 5.81939 0
M  V30 10801 N 1050.93 -1.4397 0.641131 0
M  V30 10802 C 1052.18 -2.02246 0.14985 0
M  V30 10803 C 1052.51 -1.50387 -1.22871 0
M  V30 10804 O 1051.78 -0.692003 -1.81773 0
M  V30 10805 C 1052.07 -3.59798 0.147449 0
M  V30 10806 C 1051.92 -4.21916 1.55907 0
M  V30 10807 C 1053.24 -4.36985 -0.522667 0
M  V30 10808 H 1050.36 -0.734875 0.0559274 0
M  V30 10809 H 1053 -1.71418 0.819513 0
M  V30 10810 H 1051.15 -3.86193 -0.422789 0
M  V30 10811 H 1052.82 -4.06594 2.17896 0
M  V30 10812 H 1051.06 -3.79028 2.10998 0
M  V30 10813 H 1051.74 -5.30964 1.50934 0
M  V30 10814 H 1054.21 -4.16083 -0.0376226 0
M  V30 10815 H 1053.09 -5.46676 -0.493572 0
M  V30 10816 H 1053.35 -4.12335 -1.59475 0
M  V30 10817 N 1052.41 -0.382291 -1.52893 0
M  V30 10818 C 1053.63 0.204961 -2.06385 0
M  V30 10819 C 1054.06 1.40316 -1.25271 0
M  V30 10820 O 1053.42 1.79187 -0.275969 0
M  V30 10821 C 1053.46 0.560205 -3.56222 0
M  V30 10822 O 1052.57 1.65515 -3.77728 0
M  V30 10823 H 1051.91 0.0258798 -0.663495 0
M  V30 10824 H 1054.44 -0.547733 -1.97132 0
M  V30 10825 H 1054.45 0.826501 -3.99541 0
M  V30 10826 H 1053.12 -0.31584 -4.14699 0
M  V30 10827 H 1051.7 1.38311 -3.46301 0
M  V30 10828 N 1053.89 1.57202 -0.111913 0
M  V30 10829 C 1055.11 1.99723 0.559054 0
M  V30 10830 C 1055.54 0.990968 1.59879 0
M  V30 10831 O 1054.89 -0.038311 1.8126 0
M  V30 10832 C 1054.94 3.41151 1.16826 0
M  V30 10833 O 1054.05 3.43383 2.2839 0
M  V30 10834 H 1053.39 0.649004 0.140319 0
M  V30 10835 H 1055.92 2.03637 -0.198295 0
M  V30 10836 H 1055.93 3.79208 1.50551 0
M  V30 10837 H 1054.6 4.13907 0.406637 0
M  V30 10838 H 1053.18 3.17138 1.96158 0
M  V30 10839 N 1055.36 -0.161842 1.56767 0
M  V30 10840 C 1056.33 -1.18404 1.96247 0
M  V30 10841 C 1057.33 -1.3667 0.84722 0
M  V30 10842 O 1058.52 -1.33915 1.11411 0
M  V30 10843 C 1055.65 -2.54728 2.26553 0
M  V30 10844 H 1056.84 -0.845703 2.87729 0
M  V30 10845 H 1054.39 -0.404645 1.50971 0
M  V30 10846 H 1055.13 -2.93559 1.37816 0
M  V30 10847 H 1054.91 -2.42834 3.07854 0
M  V30 10848 H 1056.4 -3.28378 2.57987 0
M  V30 10849 N 1056.84 -1.516 -0.430713 0
M  V30 10850 C 1058.12 -1.55142 -1.19123 0
M  V30 10851 C 1058.5 -0.319596 -2.08667 0
M  V30 10852 O 1057.85 0.694927 -2.17676 0
M  V30 10853 C 1058.06 -2.86891 -1.98732 0
M  V30 10854 C 1059.4 -3.39089 -2.55546 0
M  V30 10855 O 1060.43 -2.88486 -2.08936 0
M  V30 10856 O 1059.29 -4.27401 -3.40574 0
M  V30 10857 H 1056.38 -0.624019 -0.542705 0
M  V30 10858 H 1058.93 -1.63917 -0.439244 0
M  V30 10859 H 1057.7 -3.68002 -1.33005 0
M  V30 10860 H 1057.32 -2.81309 -2.80982 0
M  V30 10861 N 1058.32 0.686584 -1.41858 0
M  V30 10862 C 1059.25 1.81264 -1.47193 0
M  V30 10863 C 1060.23 1.66875 -0.329657 0
M  V30 10864 O 1061.42 1.86473 -0.542347 0
M  V30 10865 C 1058.55 3.19472 -1.36216 0
M  V30 10866 C 1057.5 3.4858 -2.48347 0
M  V30 10867 C 1056.83 4.86239 -2.22432 0
M  V30 10868 C 1058.13 3.46653 -3.90678 0
M  V30 10869 H 1059.82 1.77057 -2.41436 0
M  V30 10870 H 1057.37 0.850415 -1.16206 0
M  V30 10871 H 1059.32 3.97969 -1.38558 0
M  V30 10872 H 1058.04 3.24327 -0.384611 0
M  V30 10873 H 1056.7 2.72437 -2.45303 0
M  V30 10874 H 1056.35 4.8773 -1.22999 0
M  V30 10875 H 1056.05 5.06677 -2.97577 0
M  V30 10876 H 1057.57 5.67034 -2.26505 0
M  V30 10877 H 1058.99 4.15139 -3.95389 0
M  V30 10878 H 1057.38 3.78625 -4.65578 0
M  V30 10879 H 1058.45 2.45451 -4.18189 0
M  V30 10880 N 1059.8 1.27835 0.921735 0
M  V30 10881 C 1061.04 1.14692 1.67253 0
M  V30 10882 C 1061.38 -0.305384 1.91784 0
M  V30 10883 O 1060.65 -1.22286 1.51249 0
M  V30 10884 C 1060.93 1.93743 3.03539 0
M  V30 10885 C 1060.79 3.46991 2.86212 0
M  V30 10886 C 1062.11 1.74658 4.03959 0
M  V30 10887 H 1059.23 0.418021 0.606983 0
M  V30 10888 H 1061.87 1.5706 1.06922 0
M  V30 10889 H 1060.02 1.57738 3.55037 0
M  V30 10890 H 1061.69 3.92858 2.41785 0
M  V30 10891 H 1059.93 3.73029 2.21432 0
M  V30 10892 H 1060.6 3.97551 3.82958 0
M  V30 10893 H 1063.08 2.06063 3.61493 0
M  V30 10894 H 1061.96 2.32353 4.97296 0
M  V30 10895 H 1062.22 0.696019 4.36587 0
M  V30 10896 N 1061.28 -1.12907 1.09954 0
M  V30 10897 C 1062.52 -1.84306 0.838912 0
M  V30 10898 C 1062.85 -1.83825 -0.635508 0
M  V30 10899 O 1062.11 -1.27556 -1.48418 0
M  V30 10900 C 1062.4 -3.31885 1.32616 0
M  V30 10901 C 1062.07 -3.52542 2.81114 0
M  V30 10902 C 1060.73 -3.57888 3.21667 0
M  V30 10903 C 1063.08 -3.60065 3.76833 0
M  V30 10904 C 1060.41 -3.68296 4.567 0
M  V30 10905 C 1062.76 -3.72001 5.11662 0
M  V30 10906 C 1061.43 -3.75602 5.51797 0
M  V30 10907 H 1060.7 -0.674422 0.30698 0
M  V30 10908 H 1063.35 -1.33261 1.37527 0
M  V30 10909 H 1061.65 -3.85318 0.709719 0
M  V30 10910 H 1063.35 -3.85588 1.10105 0
M  V30 10911 H 1059.94 -3.4904 2.48735 0
M  V30 10912 H 1064.12 -3.55209 3.46612 0
M  V30 10913 H 1059.38 -3.69352 4.87226 0
M  V30 10914 H 1063.55 -3.76765 5.8568 0
M  V30 10915 H 1061.18 -3.83419 6.56425 0
M  V30 10916 N 1062.75 -0.88754 -1.30232 0
M  V30 10917 C 1063.98 -0.522306 -2.00199 0
M  V30 10918 C 1064.4 0.889866 -1.66514 0
M  V30 10919 O 1063.75 1.58558 -0.903639 0
M  V30 10920 C 1063.8 -0.690551 -3.54843 0
M  V30 10921 O 1063.53 -2.04713 -3.8733 0
M  V30 10922 C 1065.03 -0.328649 -4.4208 0
M  V30 10923 H 1062.25 -0.201628 -0.63999 0
M  V30 10924 H 1064.79 -1.19355 -1.66056 0
M  V30 10925 H 1062.95 -0.0666493 -3.87343 0
M  V30 10926 H 1063.36 -2.06762 -4.82027 0
M  V30 10927 H 1064.83 -0.497257 -5.49756 0
M  V30 10928 H 1065.31 0.733502 -4.33032 0
M  V30 10929 H 1065.92 -0.928982 -4.1503 0
M  V30 10930 N 1064.23 1.43628 -0.648757 0
M  V30 10931 C 1065.64 1.85142 -0.24066 0
M  V30 10932 C 1065.99 1.54304 1.21181 0
M  V30 10933 O 1065.12 0.989792 1.92437 0
M  V30 10934 C 1065.71 3.3606 -0.429999 0
M  V30 10935 C 1064.27 3.76323 -0.0762588 0
M  V30 10936 C 1063.42 2.67382 -0.734999 0
M  V30 10937 H 1066.37 1.33844 -0.852734 0
M  V30 10938 H 1066.39 3.79102 0.325836 0
M  V30 10939 H 1065.9 3.58474 -1.48721 0
M  V30 10940 H 1064.01 3.59521 0.978529 0
M  V30 10941 H 1064.12 4.76498 -0.498612 0
M  V30 10942 H 1062.48 2.54141 -0.168644 0
M  V30 10943 H 1063.27 2.92625 -1.79515 0
M  V30 10944 N 1065.71 0.390394 1.52688 0
M  V30 10945 C 1066.66 -0.4591 2.28024 0
M  V30 10946 C 1067.65 -1.06212 1.31967 0
M  V30 10947 O 1068.86 -1.00247 1.49501 0
M  V30 10948 H 1065.23 -0.16681 0.733266 0
M  V30 10949 H 1067.2 0.197747 2.97744 0
M  V30 10950 C 1065.95 -1.5737 3.10048 0
M  V30 10951 H 1065.28 -1.11901 3.83821 0
M  V30 10952 H 1066.72 -2.1423 3.65898 0
M  V30 10953 C 1065.18 -2.53036 2.22429 0
M  V30 10954 O 1065.71 -3.5647 1.85181 0
M  V30 10955 N 1063.91 -2.22802 1.86567 0
M  V30 10956 H 1063.46 -1.38723 2.17057 0
M  V30 10957 H 1063.42 -2.87061 1.28233 0
M  V30 10958 N 1067.19 -1.57141 0.120249 0
M  V30 10959 C 1068.41 -2.00017 -0.548454 0
M  V30 10960 C 1068.84 -0.999433 -1.59352 0
M  V30 10961 O 1068.2 0.0286978 -1.81277 0
M  V30 10962 C 1068.24 -3.41766 -1.15015 0
M  V30 10963 O 1067.35 -3.44589 -2.26566 0
M  V30 10964 H 1066.69 -0.649739 -0.136875 0
M  V30 10965 H 1069.22 -2.03529 0.209092 0
M  V30 10966 H 1069.23 -3.80001 -1.48537 0
M  V30 10967 H 1067.9 -4.14117 -0.384681 0
M  V30 10968 H 1066.48 -3.18174 -1.94473 0
M  V30 10969 N 1068.67 0.153526 -1.5685 0
M  V30 10970 C 1069.91 0.865519 -1.82629 0
M  V30 10971 C 1070.24 1.81999 -0.700105 0
M  V30 10972 O 1069.51 1.93907 0.278744 0
M  V30 10973 H 1068.09 0.32261 -0.673745 0
M  V30 10974 H 1070.75 0.149088 -1.94329 0
M  V30 10975 H 1069.84 1.43171 -2.77324 0
M  V30 10976 N 1070.14 1.51827 0.422667 0
M  V30 10977 C 1071.11 1.7359 1.49663 0
M  V30 10978 C 1072.11 0.605811 1.48952 0
M  V30 10979 O 1073.3 0.87354 1.50715 0
M  V30 10980 C 1070.43 1.80585 2.8914 0
M  V30 10981 H 1071.62 2.69453 1.31664 0
M  V30 10982 H 1069.18 1.42038 0.652298 0
M  V30 10983 H 1069.91 0.865895 3.12526 0
M  V30 10984 H 1069.7 2.62729 2.9106 0
M  V30 10985 H 1071.19 1.99212 3.67021 0
M  V30 10986 N 1071.62 -0.679052 1.4222 0
M  V30 10987 C 1072.85 -1.47248 1.46058 0
M  V30 10988 C 1073.27 -1.87962 0.0720987 0
M  V30 10989 O 1072.63 -1.5572 -0.928488 0
M  V30 10990 C 1072.68 -2.70067 2.38948 0
M  V30 10991 O 1071.78 -3.68178 1.85791 0
M  V30 10992 H 1071.12 -0.442533 0.495036 0
M  V30 10993 H 1073.65 -0.833263 1.86863 0
M  V30 10994 H 1073.66 -3.18187 2.55385 0
M  V30 10995 H 1072.34 -2.39773 3.39826 0
M  V30 10996 H 1070.92 -3.2719 1.78889 0
M  V30 10997 N 1073.1 -1.28322 -0.914942 0
M  V30 10998 C 1074.33 -1.1837 -1.70304 0
M  V30 10999 C 1074.75 0.254291 -1.86373 0
M  V30 11000 O 1074.11 1.18398 -1.37301 0
M  V30 11001 C 1074.16 -1.88603 -3.07346 0
M  V30 11002 O 1073.26 -1.19268 -3.94777 0
M  V30 11003 H 1072.6 -0.410978 -0.52153 0
M  V30 11004 H 1075.13 -1.69622 -1.14409 0
M  V30 11005 H 1075.14 -1.96463 -3.57584 0
M  V30 11006 H 1073.82 -2.93201 -2.94967 0
M  V30 11007 H 1072.39 -1.19563 -3.53212 0
M  V30 11008 N 1074.58 1.12322 -1.10551 0
M  V30 11009 C 1075.82 1.8413 -0.849932 0
M  V30 11010 C 1076.16 1.83938 0.622946 0
M  V30 11011 O 1075.43 1.28579 1.45937 0
M  V30 11012 C 1075.72 3.31751 -1.40048 0
M  V30 11013 C 1075.57 3.40391 -2.9403 0
M  V30 11014 C 1076.89 4.27543 -1.04379 0
M  V30 11015 H 1074.01 0.668533 -0.310213 0
M  V30 11016 H 1076.65 1.31766 -1.36886 0
M  V30 11017 H 1074.8 3.76475 -0.959102 0
M  V30 11018 H 1076.47 3.04294 -3.46703 0
M  V30 11019 H 1074.71 2.809 -3.30571 0
M  V30 11020 H 1075.38 4.44252 -3.27635 0
M  V30 11021 H 1077.86 3.90951 -1.42466 0
M  V30 11022 H 1076.74 5.2924 -1.4559 0
M  V30 11023 H 1077 4.42075 0.0466316 0
M  V30 11024 N 1076.06 0.894434 1.2976 0
M  V30 11025 C 1077.28 0.5322 2.00455 0
M  V30 11026 C 1077.71 -0.874427 1.66539 0
M  V30 11027 O 1077.06 -1.58113 0.887129 0
M  V30 11028 C 1077.11 0.725264 3.53231 0
M  V30 11029 O 1076.22 -0.224612 4.11788 0
M  V30 11030 H 1075.56 0.208562 0.630395 0
M  V30 11031 H 1078.09 1.20458 1.65382 0
M  V30 11032 H 1078.1 0.627889 4.0314 0
M  V30 11033 H 1076.77 1.75079 3.77253 0
M  V30 11034 H 1075.35 -0.0801361 3.72814 0
M  V30 11035 N 1077.53 -1.43282 0.656365 0
M  V30 11036 C 1078.46 -2.33492 -0.0196962 0
M  V30 11037 C 1079.45 -1.49647 -0.80868 0
M  V30 11038 O 1080.63 -1.78303 -0.769529 0
M  V30 11039 C 1077.76 -3.33052 -0.984574 0
M  V30 11040 C 1076.71 -4.26908 -0.305483 0
M  V30 11041 C 1076.04 -5.16531 -1.38202 0
M  V30 11042 C 1077.34 -5.16073 0.804081 0
M  V30 11043 H 1079.03 -2.90272 0.733661 0
M  V30 11044 H 1076.58 -1.39574 0.354259 0
M  V30 11045 H 1078.53 -3.9506 -1.46647 0
M  V30 11046 H 1077.26 -2.74535 -1.76913 0
M  V30 11047 H 1075.92 -3.66268 0.155995 0
M  V30 11048 H 1075.56 -4.54351 -2.1581 0
M  V30 11049 H 1075.26 -5.80148 -0.932878 0
M  V30 11050 H 1076.79 -5.81414 -1.86522 0
M  V30 11051 H 1078.2 -5.71873 0.404212 0
M  V30 11052 H 1076.6 -5.88427 1.17789 0
M  V30 11053 H 1077.67 -4.55574 1.66073 0
M  V30 11054 N 1079.01 -0.398486 -1.52479 0
M  V30 11055 C 1080.26 0.181019 -2.0199 0
M  V30 11056 C 1080.59 1.45691 -1.28405 0
M  V30 11057 O 1079.87 1.90607 -0.387207 0
M  V30 11058 C 1080.15 0.439587 -3.57407 0
M  V30 11059 C 1080 -0.85223 -4.41653 0
M  V30 11060 C 1081.32 1.2263 -4.2267 0
M  V30 11061 H 1078.44 0.0643164 -0.734188 0
M  V30 11062 H 1081.08 -0.52986 -1.82462 0
M  V30 11063 H 1079.23 1.04516 -3.74177 0
M  V30 11064 H 1080.91 -1.48879 -4.36615 0
M  V30 11065 H 1079.15 -1.46555 -4.08294 0
M  V30 11066 H 1079.82 -0.625839 -5.48441 0
M  V30 11067 H 1082.3 0.713722 -4.09933 0
M  V30 11068 H 1081.17 1.37596 -5.31374 0
M  V30 11069 H 1081.43 2.24403 -3.80914 0
M  V30 11070 N 1080.49 1.57075 -0.12858 0
M  V30 11071 C 1081.9 1.82468 0.39526 0
M  V30 11072 C 1082.25 1.0463 1.65973 0
M  V30 11073 O 1081.38 0.285835 2.14504 0
M  V30 11074 C 1081.97 3.30976 0.723889 0
M  V30 11075 C 1080.53 3.57016 1.19232 0
M  V30 11076 C 1079.68 2.76534 0.205907 0
M  V30 11077 H 1082.63 1.54711 -0.353571 0
M  V30 11078 H 1082.65 3.46127 1.58039 0
M  V30 11079 H 1082.16 3.87602 -0.196595 0
M  V30 11080 H 1080.26 3.05758 2.12938 0
M  V30 11081 H 1080.38 4.65558 1.13103 0
M  V30 11082 H 1078.74 2.45038 0.694872 0
M  V30 11083 H 1079.52 3.35923 -0.707842 0
M  V30 11084 N 1081.97 -0.145205 1.5693 0
M  V30 11085 C 1083.19 -0.876386 1.87974 0
M  V30 11086 C 1083.62 -1.73866 0.717795 0
M  V30 11087 O 1082.98 -1.78224 -0.332551 0
M  V30 11088 C 1083.03 -1.70746 3.17613 0
M  V30 11089 O 1082.13 -2.81188 3.01674 0
M  V30 11090 H 1081.47 -0.243987 0.617549 0
M  V30 11091 H 1084 -0.135482 2.04151 0
M  V30 11092 H 1084.01 -2.1021 3.49679 0
M  V30 11093 H 1082.69 -1.07429 4.01786 0
M  V30 11094 H 1081.26 -2.45117 2.81019 0
M  V30 11095 N 1083.45 -1.52049 -0.414609 0
M  V30 11096 C 1084.38 -1.77956 -1.51175 0
M  V30 11097 C 1085.36 -0.630282 -1.57992 0
M  V30 11098 O 1086.54 -0.875324 -1.73354 0
M  V30 11099 C 1083.67 -1.92527 -2.89051 0
M  V30 11100 C 1082.63 -3.08096 -2.97087 0
M  V30 11101 C 1081.95 -3.07882 -4.37164 0
M  V30 11102 C 1083.25 -4.47656 -2.69075 0
M  V30 11103 H 1084.95 -2.69827 -1.29746 0
M  V30 11104 H 1082.49 -1.29839 -0.62273 0
M  V30 11105 H 1084.45 -2.09234 -3.65786 0
M  V30 11106 H 1083.17 -0.973235 -3.11762 0
M  V30 11107 H 1081.83 -2.91131 -2.22797 0
M  V30 11108 H 1081.48 -2.10411 -4.56877 0
M  V30 11109 H 1081.18 -3.85501 -4.43467 0
M  V30 11110 H 1082.7 -3.26712 -5.15841 0
M  V30 11111 H 1084.12 -4.64855 -3.35534 0
M  V30 11112 H 1082.51 -5.27151 -2.8676 0
M  V30 11113 H 1083.58 -4.56129 -1.64544 0
M  V30 11114 N 1084.93 0.6715 -1.42579 0
M  V30 11115 C 1086.17 1.42871 -1.42941 0
M  V30 11116 C 1086.49 1.94941 -0.0480483 0
M  V30 11117 O 1085.76 1.73275 0.913921 0
M  V30 11118 H 1084.34 0.530189 -0.526221 0
M  V30 11119 H 1087.01 0.793219 -1.78028 0
M  V30 11120 H 1086.1 2.2801 -2.13114 0
M  V30 11121 N 1086.4 1.28806 0.908124 0
M  V30 11122 C 1087.33 1.15758 2.02787 0
M  V30 11123 C 1088.31 0.053911 1.70015 0
M  V30 11124 O 1089.5 0.231901 1.9281 0
M  V30 11125 C 1086.63 0.824526 3.37371 0
M  V30 11126 C 1085.58 1.88359 3.84324 0
M  V30 11127 C 1084.91 1.40404 5.15937 0
M  V30 11128 C 1086.21 3.29108 4.05568 0
M  V30 11129 H 1087.9 2.09431 2.13961 0
M  V30 11130 H 1085.45 1.00831 1.02806 0
M  V30 11131 H 1087.4 0.71999 4.15204 0
M  V30 11132 H 1086.13 -0.147902 3.26265 0
M  V30 11133 H 1084.79 1.97736 3.087 0
M  V30 11134 H 1084.43 0.420515 5.01239 0
M  V30 11135 H 1084.13 2.11224 5.48323 0
M  V30 11136 H 1085.66 1.31283 5.9632 0
M  V30 11137 H 1087.07 3.2262 4.73909 0
M  V30 11138 H 1085.47 3.97812 4.49294 0
M  V30 11139 H 1086.54 3.72709 3.10187 0
M  V30 11140 N 1087.88 -1.11734 1.11145 0
M  V30 11141 C 1089.29 -1.64928 0.874959 0
M  V30 11142 C 1089.64 -1.87012 -0.593375 0
M  V30 11143 O 1088.77 -1.60206 -1.45475 0
M  V30 11144 C 1089.36 -2.99608 1.58178 0
M  V30 11145 C 1087.92 -3.49723 1.39179 0
M  V30 11146 C 1087.07 -2.24595 1.62642 0
M  V30 11147 H 1090.02 -0.954154 1.26813 0
M  V30 11148 H 1090.04 -3.66434 1.02501 0
M  V30 11149 H 1089.55 -2.83504 2.65042 0
M  V30 11150 H 1087.65 -3.70998 0.345111 0
M  V30 11151 H 1087.77 -4.28711 2.13878 0
M  V30 11152 H 1086.13 -2.32067 1.04961 0
M  V30 11153 H 1086.91 -2.11036 2.70774 0
M  V30 11154 N 1089.36 -0.901303 -1.29284 0
M  V30 11155 C 1090.58 -0.542823 -2.0017 0
M  V30 11156 C 1091.01 0.865583 -1.67001 0
M  V30 11157 O 1090.37 1.5764 -0.895502 0
M  V30 11158 C 1090.42 -0.743987 -3.52842 0
M  V30 11159 O 1089.52 0.202771 -4.11901 0
M  V30 11160 H 1088.86 -0.211903 -0.62928 0
M  V30 11161 H 1091.39 -1.21333 -1.64741 0
M  V30 11162 H 1091.4 -0.64926 -4.02801 0
M  V30 11163 H 1090.08 -1.77077 -3.7632 0
M  V30 11164 H 1088.65 0.0603637 -3.72851 0
M  V30 11165 N 1090.84 1.42931 -0.663954 0
M  V30 11166 C 1092.11 1.95284 -0.111174 0
M  V30 11167 C 1092.49 1.60484 1.37142 0
M  V30 11168 O 1091.84 0.895425 2.10225 0
M  V30 11169 C 1092.05 3.47046 -0.368789 0
M  V30 11170 C 1093.4 4.23679 -0.279473 0
M  V30 11171 O 1094.42 3.54918 -0.301937 0
M  V30 11172 O 1093.28 5.46087 -0.21236 0
M  V30 11173 H 1090.38 0.826993 0.00341718 0
M  V30 11174 H 1092.92 1.52816 -0.737935 0
M  V30 11175 H 1091.7 3.65541 -1.39626 0
M  V30 11176 H 1091.32 3.96537 0.290514 0
M  V30 11177 N 1092.32 0.406567 1.52266 0
M  V30 11178 C 1093.25 -0.45552 2.24628 0
M  V30 11179 C 1094.26 -1.01234 1.27497 0
M  V30 11180 O 1095.45 -0.911718 1.5346 0
M  V30 11181 C 1092.55 -1.64578 2.96256 0
M  V30 11182 C 1091.72 -1.2133 4.20235 0
M  V30 11183 C 1090.78 -2.27018 4.7471 0
M  V30 11184 O 1089.81 -1.87714 5.37357 0
M  V30 11185 N 1091.01 -3.5915 4.56061 0
M  V30 11186 H 1093.77 0.164525 2.99248 0
M  V30 11187 H 1091.34 0.233812 1.60203 0
M  V30 11188 H 1093.33 -2.3484 3.29594 0
M  V30 11189 H 1091.9 -2.1718 2.24837 0
M  V30 11190 H 1091.12 -0.338892 3.92741 0
M  V30 11191 H 1092.41 -0.901268 5.00754 0
M  V30 11192 H 1091.8 -3.93834 4.06092 0
M  V30 11193 H 1090.36 -4.25397 4.93843 0
M  V30 11194 N 1093.79 -1.57004 0.136909 0
M  V30 11195 C 1095.02 -2.00156 -0.523936 0
M  V30 11196 C 1095.44 -1.01688 -1.59075 0
M  V30 11197 O 1094.79 -0.0123678 -1.82496 0
M  V30 11198 C 1094.85 -3.4326 -1.13379 0
M  V30 11199 O 1094.57 -4.37963 -0.109598 0
M  V30 11200 C 1096.07 -4.01637 -1.87623 0
M  V30 11201 H 1093.29 -0.65681 -0.137263 0
M  V30 11202 H 1095.83 -2.03219 0.228522 0
M  V30 11203 H 1093.99 -3.4108 -1.83693 0
M  V30 11204 H 1094.4 -5.21555 -0.55503 0
M  V30 11205 H 1095.87 -5.03795 -2.25597 0
M  V30 11206 H 1096.35 -3.41781 -2.75831 0
M  V30 11207 H 1096.96 -4.07417 -1.22031 0
M  V30 11208 N 1095.27 0.136881 -1.57004 0
M  V30 11209 C 1096.68 0.695911 -1.73245 0
M  V30 11210 C 1097.03 1.8118 -0.75288 0
M  V30 11211 O 1096.16 2.16258 0.0782477 0
M  V30 11212 C 1096.75 1.26914 -3.14131 0
M  V30 11213 C 1095.31 1.77463 -3.31939 0
M  V30 11214 C 1094.46 0.667128 -2.69156 0
M  V30 11215 H 1097.41 -0.0888841 -1.58451 0
M  V30 11216 H 1097.43 2.13892 -3.14691 0
M  V30 11217 H 1096.94 0.456754 -3.85403 0
M  V30 11218 H 1095.05 2.61236 -2.65681 0
M  V30 11219 H 1095.16 1.89638 -4.39971 0
M  V30 11220 H 1093.52 1.09629 -2.29899 0
M  V30 11221 H 1094.31 -0.13398 -3.43038 0
M  V30 11222 N 1096.75 1.52266 0.40654 0
M  V30 11223 C 1097.98 1.70598 1.17945 0
M  V30 11224 C 1098.4 0.415793 1.83447 0
M  V30 11225 O 1097.76 -0.626968 1.70114 0
M  V30 11226 C 1097.81 2.84449 2.21633 0
M  V30 11227 O 1096.91 2.50199 3.27833 0
M  V30 11228 H 1096.25 0.567837 0.344177 0
M  V30 11229 H 1098.78 1.98981 0.476211 0
M  V30 11230 H 1098.79 3.09436 2.65919 0
M  V30 11231 H 1097.47 3.78055 1.73341 0
M  V30 11232 H 1096.04 2.35892 2.88807 0
M  V30 11233 N 1098.23 -0.663929 1.42933 0
M  V30 11234 C 1099.16 -1.78899 1.50058 0
M  V30 11235 C 1100.14 -1.66329 0.356164 0
M  V30 11236 O 1101.32 -1.85587 0.571944 0
M  V30 11237 C 1098.45 -3.17265 1.41281 0
M  V30 11238 C 1097.41 -3.44584 2.53861 0
M  V30 11239 C 1096.73 -4.82638 2.3014 0
M  V30 11240 C 1098.03 -3.40394 3.96143 0
M  V30 11241 H 1099.73 -1.73194 2.44222 0
M  V30 11242 H 1097.27 -0.83182 1.17545 0
M  V30 11243 H 1099.23 -3.95715 1.44872 0
M  V30 11244 H 1097.95 -3.23675 0.43616 0
M  V30 11245 H 1096.61 -2.685 2.49606 0
M  V30 11246 H 1096.26 -4.85711 1.30743 0
M  V30 11247 H 1095.96 -5.01879 3.056 0
M  V30 11248 H 1097.48 -5.63359 2.35497 0
M  V30 11249 H 1098.9 -4.08796 4.01943 0
M  V30 11250 H 1097.29 -3.7117 4.71543 0
M  V30 11251 H 1098.36 -2.38767 4.22041 0
M  V30 11252 N 1099.71 -1.29285 -0.901281 0
M  V30 11253 C 1100.95 -1.18431 -1.66594 0
M  V30 11254 C 1101.31 0.260312 -1.90227 0
M  V30 11255 O 1102.51 0.4918 -2.64263 0
M  V30 11256 C 1100.78 -1.97357 -2.97968 0
M  V30 11257 S 1102.34 -2.03019 -3.8901 0
M  V30 11258 H 1099.16 -0.422323 -0.571983 0
M  V30 11259 H 1101.76 -1.63551 -1.07105 0
M  V30 11260 H 1100.47 -3.01459 -2.78479 0
M  V30 11261 H 1100 -1.52836 -3.62498 0
M  V30 11262 H 1102.01 -1.14572 -4.82791 0
M  V30 11263 N 1101.18 1.11143 -1.11736 0
M  V30 11264 C 1102.6 1.64462 -0.883693 0
M  V30 11265 C 1102.95 1.87324 0.583448 0
M  V30 11266 O 1102.07 1.60975 1.44623 0
M  V30 11267 C 1102.67 2.98765 -1.59764 0
M  V30 11268 C 1101.23 3.4898 -1.41032 0
M  V30 11269 C 1100.37 2.23729 -1.63831 0
M  V30 11270 H 1103.32 0.947415 -1.27317 0
M  V30 11271 H 1103.34 3.65885 -1.04443 0
M  V30 11272 H 1102.86 2.82094 -2.66542 0
M  V30 11273 H 1100.96 3.7081 -0.364781 0
M  V30 11274 H 1101.07 4.27571 -2.16148 0
M  V30 11275 H 1099.43 2.31507 -1.06191 0
M  V30 11276 H 1100.22 2.09597 -2.7189 0
M  V30 11277 N 1102.66 0.908147 1.28804 0
M  V30 11278 C 1103.91 0.53734 1.94826 0
M  V30 11279 C 1104.23 -0.920962 1.71882 0
M  V30 11280 O 1103.5 -1.65043 1.05534 0
M  V30 11281 H 1102.08 0.195729 0.720902 0
M  V30 11282 H 1104.74 1.15628 1.56895 0
M  V30 11283 H 1103.84 0.727052 3.03513 0
M  V30 11284 N 1104.14 -1.42577 0.671525 0
M  V30 11285 C 1105.07 -2.33499 0.00506984 0
M  V30 11286 C 1106.05 -1.50497 -0.792763 0
M  V30 11287 O 1107.24 -1.79109 -0.750574 0
M  V30 11288 C 1104.37 -3.34077 -0.949194 0
M  V30 11289 C 1103.32 -4.27208 -0.260187 0
M  V30 11290 C 1102.65 -5.17968 -1.32716 0
M  V30 11291 C 1103.95 -5.15192 0.858772 0
M  V30 11292 H 1105.64 -2.89477 0.764407 0
M  V30 11293 H 1103.19 -1.39191 0.369043 0
M  V30 11294 H 1105.14 -3.96594 -1.42448 0
M  V30 11295 H 1103.86 -2.76396 -1.73991 0
M  V30 11296 H 1102.52 -3.66082 0.194834 0
M  V30 11297 H 1102.17 -4.56615 -2.10979 0
M  V30 11298 H 1101.87 -5.81104 -0.871293 0
M  V30 11299 H 1103.39 -5.83359 -1.80345 0
M  V30 11300 H 1104.81 -5.71412 0.464844 0
M  V30 11301 H 1103.21 -5.87144 1.24023 0
M  V30 11302 H 1104.28 -4.53787 1.70895 0
M  V30 11303 N 1105.62 -0.414636 -1.52048 0
M  V30 11304 C 1106.58 0.396285 -2.25748 0
M  V30 11305 C 1107.58 0.969003 -1.28324 0
M  V30 11306 O 1108.77 0.847016 -1.52221 0
M  V30 11307 C 1105.9 1.55838 -3.03195 0
M  V30 11308 H 1107.1 -0.249311 -2.98862 0
M  V30 11309 H 1104.65 -0.167276 -1.55402 0
M  V30 11310 H 1105.38 2.24068 -2.34444 0
M  V30 11311 H 1105.17 1.15414 -3.74729 0
M  V30 11312 H 1106.66 2.13187 -3.59084 0
M  V30 11313 N 1107.1 1.56929 -0.145233 0
M  V30 11314 C 1108.32 2.00864 0.516564 0
M  V30 11315 C 1108.75 1.02466 1.57741 0
M  V30 11316 O 1108.1 0.000145439 1.813 0
M  V30 11317 C 1108.15 3.43552 1.09563 0
M  V30 11318 O 1107.26 3.4815 2.21055 0
M  V30 11319 H 1106.6 0.651835 0.126521 0
M  V30 11320 H 1109.13 2.0317 -0.241445 0
M  V30 11321 H 1109.14 3.82316 1.42473 0
M  V30 11322 H 1107.81 4.14677 0.318749 0
M  V30 11323 H 1106.39 3.21228 1.89387 0
M  V30 11324 N 1108.58 -0.128553 1.57075 0
M  V30 11325 C 1109.82 -0.836355 1.83982 0
M  V30 11326 C 1110.14 -1.80862 0.728971 0
M  V30 11327 O 1109.41 -1.94326 -0.247859 0
M  V30 11328 H 1107.99 -0.31185 0.678792 0
M  V30 11329 H 1110.66 -0.118153 1.94542 0
M  V30 11330 H 1109.75 -1.38741 2.79567 0
M  V30 11331 N 1110.05 -1.5248 -0.398459 0
M  V30 11332 C 1111.46 -1.59107 -0.976817 0
M  V30 11333 C 1111.82 -0.438104 -1.91246 0
M  V30 11334 O 1110.94 0.440111 -2.11877 0
M  V30 11335 C 1111.54 -2.88373 -1.77838 0
M  V30 11336 C 1110.09 -2.97445 -2.30659 0
M  V30 11337 C 1109.24 -2.5414 -1.10942 0
M  V30 11338 H 1112.19 -1.57695 -0.178324 0
M  V30 11339 H 1112.21 -2.74327 -2.63676 0
M  V30 11340 H 1111.73 -3.72269 -1.09714 0
M  V30 11341 H 1109.83 -2.18066 -3.02123 0
M  V30 11342 H 1109.94 -4.019 -2.60794 0
M  V30 11343 H 1108.3 -2.08237 -1.46661 0
M  V30 11344 H 1109.09 -3.40421 -0.443684 0
M  V30 11345 N 1111.53 0.65634 -1.43283 0
M  V30 11346 C 1112.94 1.23744 -1.39801 0
M  V30 11347 C 1113.29 1.95942 -0.100507 0
M  V30 11348 O 1112.42 2.01063 0.800161 0
M  V30 11349 C 1113.01 2.25062 -2.53244 0
M  V30 11350 C 1111.57 2.78657 -2.53036 0
M  V30 11351 C 1110.72 1.53251 -2.31105 0
M  V30 11352 H 1113.67 0.448553 -1.52229 0
M  V30 11353 H 1113.69 3.07174 -2.24553 0
M  V30 11354 H 1113.2 1.72487 -3.47664 0
M  V30 11355 H 1111.3 3.35304 -1.62487 0
M  V30 11356 H 1111.42 3.26414 -3.507 0
M  V30 11357 H 1109.78 1.80487 -1.79713 0
M  V30 11358 H 1110.56 1.02615 -3.27605 0
M  V30 11359 N 1113.01 1.29761 0.894412 0
M  V30 11360 C 1114.26 1.17806 1.64214 0
M  V30 11361 C 1114.58 -0.269588 1.93127 0
M  V30 11362 O 1113.85 -1.18352 1.56107 0
M  V30 11363 H 1112.43 0.433002 0.608702 0
M  V30 11364 H 1115.09 1.6276 1.07216 0
M  V30 11365 H 1114.19 1.73201 2.5963 0
M  V30 11366 N 1114.49 -1.10549 1.12324 0
M  V30 11367 C 1115.45 -2.15039 0.793156 0
M  V30 11368 C 1116.45 -1.59651 -0.19192 0
M  V30 11369 O 1117.64 -1.74167 0.0337262 0
M  V30 11370 C 1114.77 -3.40433 0.17842 0
M  V30 11371 H 1115.97 -2.4575 1.71892 0
M  V30 11372 H 1113.52 -1.25892 0.926333 0
M  V30 11373 H 1114.25 -3.15338 -0.757122 0
M  V30 11374 H 1114.04 -3.81921 0.887645 0
M  V30 11375 H 1115.53 -4.17584 -0.0360724 0
M  V30 11376 N 1115.97 -0.914965 -1.28321 0
M  V30 11377 C 1117.38 -0.59512 -1.76961 0
M  V30 11378 C 1117.73 0.88958 -1.74874 0
M  V30 11379 O 1116.85 1.6959 -1.34418 0
M  V30 11380 C 1117.45 -1.07353 -3.21342 0
M  V30 11381 C 1116.01 -0.804577 -3.677 0
M  V30 11382 C 1115.15 -1.23955 -2.48053 0
M  V30 11383 H 1118.1 -1.0961 -1.14767 0
M  V30 11384 H 1118.13 -0.415506 -3.78225 0
M  V30 11385 H 1117.64 -2.15413 -3.22829 0
M  V30 11386 H 1115.74 0.26277 -3.71672 0
M  V30 11387 H 1115.85 -1.41317 -4.57784 0
M  V30 11388 H 1114.22 -0.658274 -2.46046 0
M  V30 11389 H 1115 -2.32853 -2.52258 0
M  V30 11390 N 1117.44 1.42219 -0.679077 0
M  V30 11391 C 1118.69 2.01081 -0.202718 0
M  V30 11392 C 1119.01 1.53986 1.19639 0
M  V30 11393 O 1118.28 0.763359 1.80415 0
M  V30 11394 H 1116.86 0.743526 -0.0719547 0
M  V30 11395 H 1119.52 1.74077 -0.876544 0
M  V30 11396 H 1118.62 3.11411 -0.207314 0
M  V30 11397 N 1118.92 0.422693 1.51826 0
M  V30 11398 C 1120.33 -0.0438129 1.86649 0
M  V30 11399 C 1120.68 -1.43246 1.34071 0
M  V30 11400 O 1119.81 -2.05256 0.685501 0
M  V30 11401 C 1120.4 -0.0862802 3.3869 0
M  V30 11402 C 1118.96 -0.497157 3.73102 0
M  V30 11403 C 1118.11 0.319655 2.75451 0
M  V30 11404 H 1121.06 0.639181 1.45259 0
M  V30 11405 H 1121.08 -0.8988 3.69732 0
M  V30 11406 H 1120.59 0.924525 3.76927 0
M  V30 11407 H 1118.69 -1.51411 3.40449 0
M  V30 11408 H 1118.81 -0.232125 4.78537 0
M  V30 11409 H 1117.17 -0.219963 2.53748 0
M  V30 11410 H 1117.95 1.32906 3.16529 0
M  V30 11411 N 1120.4 -1.5685 0.153553 0
M  V30 11412 C 1121.65 -1.96625 -0.49665 0
M  V30 11413 C 1121.98 -1.03877 -1.64083 0
M  V30 11414 O 1121.25 -0.0824112 -1.94325 0
M  V30 11415 C 1121.54 -3.46035 -0.996585 0
M  V30 11416 C 1121.39 -4.49561 0.146551 0
M  V30 11417 C 1122.71 -3.98104 -1.8762 0
M  V30 11418 H 1119.83 -0.714917 -0.179059 0
M  V30 11419 H 1122.47 -1.88527 0.236104 0
M  V30 11420 H 1120.62 -3.53066 -1.621 0
M  V30 11421 H 1122.29 -4.54604 0.783108 0
M  V30 11422 H 1120.53 -4.26271 0.804727 0
M  V30 11423 H 1121.21 -5.51456 -0.245078 0
M  V30 11424 H 1123.68 -3.93593 -1.34997 0
M  V30 11425 H 1122.56 -5.03098 -2.19508 0
M  V30 11426 H 1122.82 -3.40852 -2.81554 0
M  V30 11427 N 1121.88 0.120221 -1.57141 0
M  V30 11428 C 1122.82 1.14751 -2.00252 0
M  V30 11429 C 1123.79 1.41217 -0.874462 0
M  V30 11430 O 1124.98 1.53104 -1.13859 0
M  V30 11431 C 1122.12 2.46923 -2.41087 0
M  V30 11432 C 1121.23 2.27403 -3.67303 0
M  V30 11433 C 1120.37 3.52797 -3.97125 0
M  V30 11434 C 1119.41 3.28429 -5.16528 0
M  V30 11435 N 1118.54 4.46022 -5.42226 0
M  V30 11436 H 1123.38 0.772884 -2.87803 0
M  V30 11437 H 1120.92 0.370137 -1.42367 0
M  V30 11438 H 1122.88 3.24025 -2.62799 0
M  V30 11439 H 1121.51 2.82281 -1.5658 0
M  V30 11440 H 1120.56 1.41224 -3.53214 0
M  V30 11441 H 1121.87 2.05373 -4.54558 0
M  V30 11442 H 1121.03 4.38318 -4.19479 0
M  V30 11443 H 1119.77 3.77857 -3.08343 0
M  V30 11444 H 1118.77 2.41299 -4.94019 0
M  V30 11445 H 1120 3.0474 -6.06886 0
M  V30 11446 H 1117.94 4.71205 -4.56401 0
M  V30 11447 H 1117.86 4.27092 -6.23802 0
M  V30 11448 H 1119.13 5.3268 -5.69098 0
M  V30 11449 N 1123.36 1.52689 0.390367 0
M  V30 11450 C 1124.58 1.71839 1.16129 0
M  V30 11451 C 1125.01 0.435226 1.82996 0
M  V30 11452 O 1124.36 -0.60889 1.70769 0
M  V30 11453 C 1124.41 2.86784 2.18603 0
M  V30 11454 O 1123.52 2.53662 3.25161 0
M  V30 11455 H 1122.86 0.571455 0.338135 0
M  V30 11456 H 1125.39 1.99475 0.45508 0
M  V30 11457 H 1125.4 3.12239 2.62622 0
M  V30 11458 H 1124.07 3.79872 1.69322 0
M  V30 11459 H 1122.65 2.38942 2.86289 0
M  V30 11460 N 1124.83 -0.648732 1.43629 0
M  V30 11461 C 1126.08 -1.40579 1.45196 0
M  V30 11462 C 1126.4 -1.9484 0.0790556 0
M  V30 11463 O 1125.67 -1.74707 -0.886239 0
M  V30 11464 H 1124.25 -0.52175 0.53459 0
M  V30 11465 H 1126.92 -0.764796 1.79268 0
M  V30 11466 H 1126.01 -2.24591 2.16715 0
M  V30 11467 N 1126.31 -1.30234 -0.887518 0
M  V30 11468 C 1127.56 -1.1891 -1.6391 0
M  V30 11469 C 1127.89 0.256749 -1.92798 0
M  V30 11470 O 1127.14 1.20047 -1.54555 0
M  V30 11471 C 1127.44 -1.96046 -2.98832 0
M  V30 11472 C 1127.11 -3.45683 -2.89507 0
M  V30 11473 C 1125.77 -3.86489 -2.8667 0
M  V30 11474 C 1128.12 -4.40983 -2.7782 0
M  V30 11475 C 1125.45 -5.2089 -2.69982 0
M  V30 11476 C 1127.8 -5.75489 -2.6267 0
M  V30 11477 C 1126.47 -6.15537 -2.58207 0
M  V30 11478 H 1125.74 -0.435123 -0.599791 0
M  V30 11479 H 1128.38 -1.61308 -1.03209 0
M  V30 11480 H 1126.69 -1.46275 -3.6347 0
M  V30 11481 H 1128.38 -1.84678 -3.55942 0
M  V30 11482 H 1124.97 -3.13255 -2.92523 0
M  V30 11483 H 1129.16 -4.10401 -2.79079 0
M  V30 11484 H 1124.41 -5.51014 -2.6494 0
M  V30 11485 H 1128.59 -6.48973 -2.526 0
M  V30 11486 H 1126.22 -7.19627 -2.45034 0
M  V30 11487 N 1127.79 1.09952 -1.12909 0
M  V30 11488 C 1128.7 2.19999 -0.81471 0
M  V30 11489 C 1129.72 1.72864 0.19851 0
M  V30 11490 O 1130.89 2.01376 0.0308832 0
M  V30 11491 C 1127.96 3.45573 -0.279363 0
M  V30 11492 C 1127.02 4.07417 -1.35314 0
M  V30 11493 C 1126.25 5.26996 -0.843247 0
M  V30 11494 O 1126.47 5.69495 0.321164 0
M  V30 11495 O 1125.41 5.79826 -1.61511 0
M  V30 11496 H 1129.23 2.49333 -1.73398 0
M  V30 11497 H 1126.82 1.18784 -0.906128 0
M  V30 11498 H 1128.7 4.21398 0.0140531 0
M  V30 11499 H 1127.38 3.17854 0.612401 0
M  V30 11500 H 1126.28 3.33253 -1.6998 0
M  V30 11501 H 1127.62 4.39349 -2.21885 0
M  V30 11502 N 1129.27 0.921757 1.27833 0
M  V30 11503 C 1130.52 0.557974 1.94245 0
M  V30 11504 C 1130.84 -0.90268 1.72849 0
M  V30 11505 O 1130.11 -1.63915 1.07279 0
M  V30 11506 H 1128.69 0.203364 0.718785 0
M  V30 11507 H 1131.35 1.17286 1.5566 0
M  V30 11508 H 1130.45 0.759202 3.02725 0
M  V30 11509 N 1130.75 -1.41857 0.686609 0
M  V30 11510 C 1131.98 -2.05401 0.222238 0
M  V30 11511 C 1132.38 -1.51731 -1.13023 0
M  V30 11512 O 1131.73 -0.656701 -1.71561 0
M  V30 11513 C 1131.79 -3.59381 0.0926608 0
M  V30 11514 C 1131.45 -4.35801 1.37573 0
M  V30 11515 C 1132.45 -4.65678 2.31171 0
M  V30 11516 C 1130.14 -4.75233 1.62661 0
M  V30 11517 C 1132.13 -5.33936 3.48125 0
M  V30 11518 C 1129.82 -5.43229 2.79902 0
M  V30 11519 C 1130.81 -5.72507 3.72458 0
M  V30 11520 O 1130.5 -6.39106 4.87646 0
M  V30 11521 H 1130.23 -0.668126 0.102876 0
M  V30 11522 H 1132.79 -1.82775 0.93714 0
M  V30 11523 H 1131.02 -3.80711 -0.67793 0
M  V30 11524 H 1132.71 -4.04529 -0.333364 0
M  V30 11525 H 1133.47 -4.35704 2.13042 0
M  V30 11526 H 1129.35 -4.51831 0.914862 0
M  V30 11527 H 1132.9 -5.56706 4.20386 0
M  V30 11528 H 1128.79 -5.72621 2.97951 0
M  V30 11529 H 1129.56 -6.576 4.87344 0
M  V30 11530 N 1132.22 -0.430739 -1.51599 0
M  V30 11531 C 1133.47 0.138133 -2.02329 0
M  V30 11532 C 1133.8 1.42934 -1.31466 0
M  V30 11533 O 1133.08 1.89743 -0.427551 0
M  V30 11534 C 1133.36 0.363677 -3.58259 0
M  V30 11535 C 1133.21 -0.94572 -4.39746 0
M  V30 11536 C 1134.53 1.13637 -4.25176 0
M  V30 11537 H 1131.65 0.0487287 -0.735387 0
M  V30 11538 H 1134.29 -0.568444 -1.81297 0
M  V30 11539 H 1132.44 0.965552 -3.7631 0
M  V30 11540 H 1134.12 -1.58107 -4.33359 0
M  V30 11541 H 1132.36 -1.55183 -4.05094 0
M  V30 11542 H 1133.03 -0.742031 -5.4699 0
M  V30 11543 H 1135.51 0.626608 -4.11355 0
M  V30 11544 H 1134.38 1.26294 -5.34173 0
M  V30 11545 H 1134.64 2.16273 -3.85588 0
M  V30 11546 N 1133.7 1.56767 -0.161869 0
M  V30 11547 C 1134.61 2.21083 0.784814 0
M  V30 11548 C 1135.63 1.19959 1.26039 0
M  V30 11549 O 1136.8 1.52588 1.31449 0
M  V30 11550 C 1133.87 2.83153 2.00063 0
M  V30 11551 C 1132.93 3.9945 1.57285 0
M  V30 11552 C 1132.16 4.5855 2.7307 0
M  V30 11553 O 1132.39 4.16534 3.89686 0
M  V30 11554 O 1131.32 5.48575 2.47688 0
M  V30 11555 H 1135.15 3.02522 0.267243 0
M  V30 11556 H 1132.73 1.49255 0.0658783 0
M  V30 11557 H 1134.61 3.22546 2.71186 0
M  V30 11558 H 1133.29 2.04718 2.50744 0
M  V30 11559 H 1132.2 3.64745 0.831393 0
M  V30 11560 H 1133.53 4.7945 1.11304 0
M  V30 11561 N 1135.18 -0.111886 1.57202 0
M  V30 11562 C 1136.11 -1.13796 2.03894 0
M  V30 11563 C 1137.09 -1.4277 0.924696 0
M  V30 11564 O 1138.28 -1.53089 1.19488 0
M  V30 11565 C 1135.41 -2.46229 2.44925 0
M  V30 11566 C 1134.36 -2.31702 3.59859 0
M  V30 11567 C 1133.69 -3.69161 3.86813 0
M  V30 11568 C 1134.99 -1.77158 4.91337 0
M  V30 11569 H 1136.68 -0.749581 2.89865 0
M  V30 11570 H 1134.23 -0.359126 1.3945 0
M  V30 11571 H 1136.18 -3.18267 2.76195 0
M  V30 11572 H 1134.9 -2.86971 1.55933 0
M  V30 11573 H 1133.56 -1.62112 3.28809 0
M  V30 11574 H 1133.21 -4.07401 2.95015 0
M  V30 11575 H 1132.91 -3.60292 4.6418 0
M  V30 11576 H 1134.43 -4.42693 4.20542 0
M  V30 11577 H 1135.85 -2.3902 5.21097 0
M  V30 11578 H 1134.25 -1.79091 5.72753 0
M  V30 11579 H 1135.32 -0.729675 4.79379 0
M  V30 11580 N 1136.66 -1.52894 -0.382264 0
M  V30 11581 C 1138.07 -1.60135 -0.959887 0
M  V30 11582 C 1138.42 -0.458363 -1.90771 0
M  V30 11583 O 1137.55 0.417614 -2.12332 0
M  V30 11584 C 1138.14 -2.90243 -1.74769 0
M  V30 11585 C 1136.7 -2.99874 -2.27491 0
M  V30 11586 C 1135.85 -2.55302 -1.0824 0
M  V30 11587 H 1138.8 -1.57875 -0.161589 0
M  V30 11588 H 1138.82 -2.77108 -2.60751 0
M  V30 11589 H 1138.33 -3.73412 -1.0576 0
M  V30 11590 H 1136.43 -2.21258 -2.99793 0
M  V30 11591 H 1136.54 -4.04643 -2.56516 0
M  V30 11592 H 1134.91 -2.09781 -1.44444 0
M  V30 11593 H 1135.69 -3.40872 -0.407553 0
M  V30 11594 N 1138.14 0.641106 -1.43971 0
M  V30 11595 C 1139.55 1.22254 -1.41106 0
M  V30 11596 C 1139.9 1.95825 -0.121284 0
M  V30 11597 O 1139.02 2.01901 0.77879 0
M  V30 11598 C 1139.62 2.22364 -2.55617 0
M  V30 11599 C 1138.18 2.75957 -2.55978 0
M  V30 11600 C 1137.33 1.50792 -2.32717 0
M  V30 11601 H 1140.28 0.432381 -1.52696 0
M  V30 11602 H 1140.3 3.04775 -2.27799 0
M  V30 11603 H 1139.81 1.68789 -3.49474 0
M  V30 11604 H 1137.91 3.33562 -1.66034 0
M  V30 11605 H 1138.02 3.22676 -3.54142 0
M  V30 11606 H 1136.39 1.7857 -1.81617 0
M  V30 11607 H 1137.17 0.991343 -3.28675 0
M  V30 11608 N 1139.62 1.30703 0.880598 0
M  V30 11609 C 1140.86 1.19142 1.62752 0
M  V30 11610 C 1141.18 -0.251795 1.93973 0
M  V30 11611 O 1142.38 -0.488971 2.67061 0
M  V30 11612 C 1140.84 2.08503 2.93351 0
M  V30 11613 C 1140.45 3.57758 2.69653 0
M  V30 11614 C 1142.19 2.05715 3.71324 0
M  V30 11615 C 1140.1 4.39161 3.96096 0
M  V30 11616 H 1139.03 0.442332 0.610622 0
M  V30 11617 H 1141.68 1.55483 0.974547 0
M  V30 11618 H 1140.06 1.65049 3.59965 0
M  V30 11619 H 1141.24 4.09388 2.11513 0
M  V30 11620 H 1139.55 3.62414 2.0505 0
M  V30 11621 H 1142.15 2.63783 4.65105 0
M  V30 11622 H 1142.49 1.04168 4.03057 0
M  V30 11623 H 1143.02 2.47313 3.11579 0
M  V30 11624 H 1139.76 5.4142 3.69519 0
M  V30 11625 H 1139.28 3.92293 4.53725 0
M  V30 11626 H 1140.96 4.50823 4.64077 0
M  V30 11627 N 1141.09 -1.09351 1.1349 0
M  V30 11628 C 1142 -2.19564 0.826366 0
M  V30 11629 C 1143.02 -1.72967 -0.189339 0
M  V30 11630 O 1144.2 -2.0139 -0.0202033 0
M  V30 11631 C 1141.26 -3.4542 0.297685 0
M  V30 11632 C 1140.32 -4.06694 1.37473 0
M  V30 11633 C 1139.55 -5.26542 0.871183 0
M  V30 11634 O 1139.78 -5.69657 -0.290958 0
M  V30 11635 O 1138.71 -5.78961 1.64584 0
M  V30 11636 H 1142.54 -2.4841 1.74718 0
M  V30 11637 H 1140.12 -1.18302 0.912414 0
M  V30 11638 H 1142 -4.21399 0.00829479 0
M  V30 11639 H 1140.68 -3.18175 -0.595536 0
M  V30 11640 H 1139.59 -3.32347 1.71745 0
M  V30 11641 H 1140.92 -4.38166 2.24212 0
M  V30 11642 N 1142.57 -0.928524 -1.27343 0
M  V30 11643 C 1143.82 -0.568267 -1.93946 0
M  V30 11644 C 1144.14 0.893501 -1.73325 0
M  V30 11645 O 1143.41 1.63344 -1.08147 0
M  V30 11646 H 1141.99 -0.207173 -0.717696 0
M  V30 11647 H 1144.65 -1.1811 -1.55036 0
M  V30 11648 H 1143.75 -0.775246 -3.02318 0
M  V30 11649 N 1144.05 1.41491 -0.694123 0
M  V30 11650 C 1145.47 1.55358 -0.365532 0
M  V30 11651 C 1145.67 1.66994 1.12762 0
M  V30 11652 O 1144.72 1.64756 1.91342 0
M  V30 11653 C 1146.03 2.79352 -1.11279 0
M  V30 11654 C 1147.58 2.93147 -1.097 0
M  V30 11655 C 1148.06 4.20027 -1.82597 0
M  V30 11656 N 1149.55 4.26981 -1.7956 0
M  V30 11657 C 1150.28 5.24013 -2.32805 0
M  V30 11658 N 1149.78 6.27083 -2.94515 0
M  V30 11659 N 1151.57 5.15943 -2.23069 0
M  V30 11660 H 1143.72 1.32183 -1.66257 0
M  V30 11661 H 1145.99 0.637624 -0.701527 0
M  V30 11662 H 1145.69 2.76958 -2.16765 0
M  V30 11663 H 1145.57 3.70827 -0.690439 0
M  V30 11664 H 1147.95 2.95057 -0.0504037 0
M  V30 11665 H 1148.03 2.02849 -1.55839 0
M  V30 11666 H 1147.68 4.18878 -2.87235 0
M  V30 11667 H 1147.61 5.09294 -1.33893 0
M  V30 11668 H 1150.1 3.53129 -1.34567 0
M  V30 11669 H 1150.41 6.97511 -3.32714 0
M  V30 11670 H 1148.76 6.27589 -2.98592 0
M  V30 11671 H 1151.95 4.34346 -1.74532 0
M  V30 11672 H 1152.12 5.91396 -2.64868 0
M  V30 11673 N 1145.53 0.438773 1.51369 0
M  V30 11674 C 1146.75 -0.128221 2.07003 0
M  V30 11675 C 1147.18 -1.3557 1.30393 0
M  V30 11676 O 1146.54 -1.7804 0.342283 0
M  V30 11677 C 1146.58 -0.42761 3.58056 0
M  V30 11678 O 1145.69 -1.51382 3.83611 0
M  V30 11679 H 1145.03 -0.00123679 0.663999 0
M  V30 11680 H 1147.56 0.62052 1.94963 0
M  V30 11681 H 1147.57 -0.677645 4.02333 0
M  V30 11682 H 1146.24 0.469535 4.13241 0
M  V30 11683 H 1144.82 -1.25363 3.51196 0
M  V30 11684 N 1147.01 -1.56678 0.170181 0
M  V30 11685 C 1148.42 -1.83452 -0.346742 0
M  V30 11686 C 1148.77 -1.08993 -1.63141 0
M  V30 11687 O 1147.89 -0.342607 -2.13671 0
M  V30 11688 C 1148.49 -3.32779 -0.635882 0
M  V30 11689 C 1147.05 -3.60052 -1.09725 0
M  V30 11690 C 1146.19 -2.76983 -0.132516 0
M  V30 11691 H 1149.14 -1.53719 0.394465 0
M  V30 11692 H 1149.17 -3.50195 -1.48806 0
M  V30 11693 H 1148.68 -3.86944 0.299291 0
M  V30 11694 H 1146.78 -3.11297 -2.04756 0
M  V30 11695 H 1146.89 -4.68393 -1.00719 0
M  V30 11696 H 1145.26 -2.46794 -0.62966 0
M  V30 11697 H 1146.04 -3.33929 0.796658 0
M  V30 11698 N 1148.48 0.103547 -1.57259 0
M  V30 11699 C 1149.9 0.457527 -1.52901 0
M  V30 11700 C 1150.1 1.80995 -0.8856 0
M  V30 11701 O 1149.16 2.48001 -0.474504 0
M  V30 11702 C 1150.47 0.427793 -2.97641 0
M  V30 11703 C 1152.02 0.51025 -3.08813 0
M  V30 11704 C 1152.49 0.51075 -4.55143 0
M  V30 11705 N 1153.98 0.571748 -4.59658 0
M  V30 11706 C 1154.72 0.593836 -5.70317 0
M  V30 11707 N 1154.21 0.572638 -6.90429 0
M  V30 11708 N 1156.01 0.638011 -5.58467 0
M  V30 11709 H 1148.16 -0.782408 -1.97464 0
M  V30 11710 H 1150.42 -0.290324 -0.90245 0
M  V30 11711 H 1150.13 -0.498608 -3.48148 0
M  V30 11712 H 1150 1.24991 -3.55889 0
M  V30 11713 H 1152.39 1.42707 -2.583 0
M  V30 11714 H 1152.47 -0.339846 -2.53532 0
M  V30 11715 H 1152.11 -0.40209 -5.06306 0
M  V30 11716 H 1152.04 1.37794 -5.08252 0
M  V30 11717 H 1154.53 0.593668 -3.73208 0
M  V30 11718 H 1154.85 0.592542 -7.70525 0
M  V30 11719 H 1153.19 0.539818 -6.929 0
M  V30 11720 H 1156.38 0.652042 -4.63536 0
M  V30 11721 H 1156.56 0.651756 -6.44714 0
M  V30 11722 N 1149.96 1.53094 0.37415 0
M  V30 11723 C 1151.19 1.73061 1.143 0
M  V30 11724 C 1151.61 0.454611 1.82524 0
M  V30 11725 O 1150.97 -0.590743 1.71406 0
M  V30 11726 C 1151.02 2.89086 2.15549 0
M  V30 11727 O 1150.12 2.57096 3.22452 0
M  V30 11728 H 1149.46 0.575009 0.332055 0
M  V30 11729 H 1151.99 1.99946 0.433897 0
M  V30 11730 H 1152 3.15007 2.59296 0
M  V30 11731 H 1150.68 3.81647 1.65283 0
M  V30 11732 H 1149.25 2.41965 2.83738 0
M  V30 11733 N 1151.44 -0.633461 1.44309 0
M  V30 11734 C 1152.85 -1.21504 1.41752 0
M  V30 11735 C 1153.2 -1.95758 0.131667 0
M  V30 11736 O 1152.33 -2.02311 -0.768072 0
M  V30 11737 C 1152.92 -2.21005 2.56792 0
M  V30 11738 C 1151.48 -2.74596 2.57438 0
M  V30 11739 C 1150.63 -1.49555 2.33513 0
M  V30 11740 H 1153.58 -0.424277 1.52923 0
M  V30 11741 H 1153.6 -3.03563 2.29412 0
M  V30 11742 H 1153.11 -1.66934 3.50364 0
M  V30 11743 H 1151.21 -3.32676 1.67801 0
M  V30 11744 H 1151.33 -3.20794 3.55849 0
M  V30 11745 H 1149.69 -1.77605 1.82561 0
M  V30 11746 H 1150.47 -0.973899 3.29196 0
M  V30 11747 N 1152.92 -1.31168 -0.873655 0
M  V30 11748 C 1154.33 -1.09745 -1.1588 0
M  V30 11749 C 1154.53 0.134471 -2.01051 0
M  V30 11750 O 1153.59 0.824857 -2.38647 0
M  V30 11751 C 1154.9 -2.36704 -1.85451 0
M  V30 11752 C 1156.45 -2.42278 -1.98167 0
M  V30 11753 C 1156.93 -3.69108 -2.71152 0
M  V30 11754 N 1158.42 -3.69981 -2.7869 0
M  V30 11755 C 1159.15 -4.64811 -3.35765 0
M  V30 11756 N 1158.65 -5.69995 -3.938 0
M  V30 11757 N 1160.44 -4.52337 -3.33688 0
M  V30 11758 H 1152.59 -2.10184 -0.306021 0
M  V30 11759 H 1154.86 -0.927058 -0.198159 0
M  V30 11760 H 1154.56 -3.26666 -1.30316 0
M  V30 11761 H 1154.44 -2.46219 -2.85755 0
M  V30 11762 H 1156.82 -1.52787 -2.52468 0
M  V30 11763 H 1156.9 -2.3673 -0.969164 0
M  V30 11764 H 1156.55 -4.58963 -2.1752 0
M  V30 11765 H 1156.48 -3.71922 -3.72803 0
M  V30 11766 H 1158.97 -2.93944 -2.37498 0
M  V30 11767 H 1159.28 -6.38438 -4.3545 0
M  V30 11768 H 1157.63 -5.73773 -3.92186 0
M  V30 11769 H 1160.82 -3.69341 -2.87584 0
M  V30 11770 H 1160.99 -5.2642 -3.77871 0
M  V30 11771 N 1154.4 1.08748 -1.14068 0
M  V30 11772 C 1155.34 2.17667 -0.819981 0
M  V30 11773 C 1156.34 1.68207 0.200654 0
M  V30 11774 O 1157.54 1.79909 0.0571014 0
M  V30 11775 H 1153.92 0.710129 -0.247427 0
M  V30 11776 H 1155.89 2.41944 -1.74659 0
M  V30 11777 C 1154.64 3.46315 -0.309985 0
M  V30 11778 H 1153.96 3.84748 -1.08669 0
M  V30 11779 H 1155.4 4.23818 -0.124094 0
M  V30 11780 C 1153.86 3.22762 0.965724 0
M  V30 11781 O 1154.39 3.46034 2.04018 0
M  V30 11782 N 1152.6 2.76326 0.899576 0
M  V30 11783 H 1152.14 2.57588 0.0250598 0
M  V30 11784 H 1152.1 2.60945 1.75371 0
M  V30 11785 N 1155.87 0.935264 1.26849 0
M  V30 11786 C 1156.82 0.430895 2.28574 0
M  V30 11787 C 1157.82 -0.488739 1.62196 0
M  V30 11788 O 1159.02 -0.367605 1.76206 0
M  V30 11789 H 1155.4 0.120793 0.742235 0
M  V30 11790 H 1157.37 1.3015 2.68521 0
M  V30 11791 C 1156.12 -0.294053 3.46454 0
M  V30 11792 H 1155.44 0.404416 3.97749 0
M  V30 11793 H 1156.88 -0.611272 4.19571 0
M  V30 11794 C 1155.34 -1.50975 3.01178 0
M  V30 11795 O 1155.87 -2.60826 3.05504 0
M  V30 11796 N 1154.08 -1.36423 2.56587 0
M  V30 11797 H 1153.62 -0.470483 2.53267 0
M  V30 11798 H 1153.58 -2.17886 2.26656 0
M  V30 11799 N 1157.35 -1.41121 0.701616 0
M  V30 11800 C 1158.76 -1.84122 0.309208 0
M  V30 11801 C 1159.11 -1.58695 -1.15371 0
M  V30 11802 O 1158.24 -1.06053 -1.88631 0
M  V30 11803 C 1158.83 -3.34233 0.554429 0
M  V30 11804 C 1157.39 -3.7578 0.215876 0
M  V30 11805 C 1156.54 -2.6447 0.833729 0
M  V30 11806 H 1159.49 -1.30587 0.901822 0
M  V30 11807 H 1159.51 -3.8005 -0.18491 0
M  V30 11808 H 1159.02 -3.52707 1.61923 0
M  V30 11809 H 1157.13 -3.62905 -0.844421 0
M  V30 11810 H 1157.24 -4.74319 0.675118 0
M  V30 11811 H 1155.6 -2.5334 0.262851 0
M  V30 11812 H 1156.39 -2.85761 1.90252 0
M  V30 11813 N 1158.83 -0.446794 -1.51134 0
M  V30 11814 C 1160.08 0.116666 -2.02464 0
M  V30 11815 C 1160.41 1.41532 -1.32975 0
M  V30 11816 O 1159.68 1.89278 -0.447651 0
M  V30 11817 C 1159.97 0.325659 -3.58624 0
M  V30 11818 C 1159.82 -0.992307 -4.38718 0
M  V30 11819 C 1161.14 1.09121 -4.26357 0
M  V30 11820 H 1158.26 0.0409262 -0.735863 0
M  V30 11821 H 1160.9 -0.587641 -1.80684 0
M  V30 11822 H 1159.05 0.925585 -3.77313 0
M  V30 11823 H 1160.72 -1.62694 -4.31658 0
M  V30 11824 H 1158.97 -1.5947 -4.03425 0
M  V30 11825 H 1159.64 -0.800005 -5.46172 0
M  V30 11826 H 1162.11 0.582944 -4.11996 0
M  V30 11827 H 1160.99 1.20621 -5.35483 0
M  V30 11828 H 1161.25 2.12171 -3.87861 0
M  V30 11829 N 1160.31 1.56586 -0.178487 0
M  V30 11830 C 1161.72 1.83633 0.337009 0
M  V30 11831 C 1162.07 1.09857 1.6256 0
M  V30 11832 O 1161.2 0.353933 2.13486 0
M  V30 11833 C 1161.79 3.33112 0.618225 0
M  V30 11834 C 1160.35 3.60629 1.07814 0
M  V30 11835 C 1159.5 2.7705 0.117825 0
M  V30 11836 H 1162.45 1.53508 -0.402612 0
M  V30 11837 H 1162.47 3.5098 1.46947 0
M  V30 11838 H 1161.98 3.8678 -0.319808 0
M  V30 11839 H 1160.08 3.12378 2.03103 0
M  V30 11840 H 1160.19 4.68921 0.982339 0
M  V30 11841 H 1158.56 2.47125 0.616563 0
M  V30 11842 H 1159.34 3.33501 -0.814356 0
M  V30 11843 N 1161.79 -0.095206 1.57312 0
M  V30 11844 C 1163.2 -0.649733 1.7503 0
M  V30 11845 C 1163.55 -1.7912 0.800652 0
M  V30 11846 O 1162.67 -2.1639 -0.0208831 0
M  V30 11847 C 1163.27 -1.18541 3.17386 0
M  V30 11848 C 1161.83 -1.686 3.36528 0
M  V30 11849 C 1160.97 -0.595531 2.7083 0
M  V30 11850 H 1163.93 0.130863 1.5816 0
M  V30 11851 H 1163.95 -2.05473 3.20252 0
M  V30 11852 H 1163.46 -0.35441 3.86478 0
M  V30 11853 H 1161.56 -2.541 2.72514 0
M  V30 11854 H 1161.67 -1.77907 4.44844 0
M  V30 11855 H 1160.04 -1.03495 2.32725 0
M  V30 11856 H 1160.82 0.224883 3.42563 0
M  V30 11857 N 1163.26 -1.53291 -0.366026 0
M  V30 11858 C 1164.17 -1.82656 -1.47221 0
M  V30 11859 C 1165.19 -0.71491 -1.58635 0
M  V30 11860 O 1166.37 -1.00492 -1.74538 0
M  V30 11861 C 1163.43 -2.00995 -2.82492 0
M  V30 11862 C 1162.49 -3.24895 -2.8061 0
M  V30 11863 C 1161.73 -3.4235 -4.09429 0
M  V30 11864 O 1161.95 -2.6411 -5.05571 0
M  V30 11865 O 1160.88 -4.35702 -4.15268 0
M  V30 11866 H 1164.71 -2.76634 -1.2533 0
M  V30 11867 H 1162.29 -1.38665 -0.556084 0
M  V30 11868 H 1164.18 -2.14632 -3.62645 0
M  V30 11869 H 1162.85 -1.10207 -3.04362 0
M  V30 11870 H 1161.76 -3.16682 -1.99157 0
M  V30 11871 H 1163.09 -4.15604 -2.63694 0
M  V30 11872 N 1164.74 0.6258 -1.44643 0
M  V30 11873 C 1165.71 1.71941 -1.51555 0
M  V30 11874 C 1166.71 1.55822 -0.396988 0
M  V30 11875 O 1167.9 1.61221 -0.65981 0
M  V30 11876 C 1165.03 3.11068 -1.39461 0
M  V30 11877 H 1166.22 1.67185 -2.48976 0
M  V30 11878 H 1163.77 0.839934 -1.31814 0
M  V30 11879 H 1164.51 3.21416 -0.431534 0
M  V30 11880 H 1164.29 3.24175 -2.20574 0
M  V30 11881 H 1165.78 3.90762 -1.4729 0
M  V30 11882 N 1166.22 1.31629 0.866686 0
M  V30 11883 C 1167.17 1.19556 1.97421 0
M  V30 11884 C 1168.14 0.0805578 1.65905 0
M  V30 11885 O 1169.32 0.253997 1.89102 0
M  V30 11886 C 1166.46 0.912234 3.32825 0
M  V30 11887 C 1165.58 2.11088 3.76916 0
M  V30 11888 C 1164.71 1.76406 5.01053 0
M  V30 11889 C 1163.75 2.9266 5.37602 0
M  V30 11890 N 1162.89 2.58152 6.52918 0
M  V30 11891 H 1167.73 2.14294 2.0708 0
M  V30 11892 H 1165.26 1.06595 1.0137 0
M  V30 11893 H 1167.22 0.72851 4.1079 0
M  V30 11894 H 1165.85 0.00167404 3.228 0
M  V30 11895 H 1164.9 2.40527 2.94705 0
M  V30 11896 H 1166.22 2.98089 3.99931 0
M  V30 11897 H 1165.37 1.54515 5.86694 0
M  V30 11898 H 1164.11 0.866018 4.79949 0
M  V30 11899 H 1163.11 3.15196 4.50479 0
M  V30 11900 H 1164.34 3.83179 5.6067 0
M  V30 11901 H 1162.28 1.70874 6.33355 0
M  V30 11902 H 1162.2 3.38682 6.75892 0
M  V30 11903 H 1163.47 2.39662 7.41743 0
M  V30 11904 N 1167.7 -1.08142 1.14644 0
M  V30 11905 C 1168.92 -1.84857 0.940349 0
M  V30 11906 C 1169.35 -1.81163 -0.506117 0
M  V30 11907 O 1168.71 -1.19869 -1.36019 0
M  V30 11908 C 1168.76 -3.30198 1.4492 0
M  V30 11909 O 1167.86 -4.07355 0.64308 0
M  V30 11910 H 1167.2 -0.572711 0.336003 0
M  V30 11911 H 1169.73 -1.36475 1.52432 0
M  V30 11912 H 1169.74 -3.81039 1.45854 0
M  V30 11913 H 1168.42 -3.32202 2.50229 0
M  V30 11914 H 1166.99 -3.66219 0.702698 0
M  V30 11915 N 1169.18 -0.941978 -1.26351 0
M  V30 11916 C 1170.59 -0.632522 -1.75659 0
M  V30 11917 C 1170.94 0.852287 -1.76722 0
M  V30 11918 O 1170.06 1.66701 -1.37985 0
M  V30 11919 C 1170.66 -1.14145 -3.18993 0
M  V30 11920 C 1169.22 -0.882391 -3.65911 0
M  V30 11921 C 1168.37 -1.29189 -2.45368 0
M  V30 11922 H 1171.32 -1.12019 -1.12416 0
M  V30 11923 H 1171.34 -0.495639 -3.77258 0
M  V30 11924 H 1170.85 -2.22213 -3.18187 0
M  V30 11925 H 1168.95 0.183873 -3.72146 0
M  V30 11926 H 1169.06 -1.50996 -4.54683 0
M  V30 11927 H 1167.43 -0.710316 -2.44595 0
M  V30 11928 H 1168.21 -2.38152 -2.47262 0
M  V30 11929 N 1170.66 1.40747 -0.709091 0
M  V30 11930 C 1171.9 2.013 -0.246174 0
M  V30 11931 C 1172.23 1.56078 1.15556 0
M  V30 11932 O 1171.51 0.777941 1.78265 0
M  V30 11933 C 1171.79 3.58685 -0.318945 0
M  V30 11934 C 1171.65 4.13997 -1.75859 0
M  V30 11935 C 1172.96 4.38981 0.31358 0
M  V30 11936 H 1170.08 0.73137 -0.0909255 0
M  V30 11937 H 1172.73 1.67312 -0.900365 0
M  V30 11938 H 1170.88 3.8777 0.23805 0
M  V30 11939 H 1172.55 3.95735 -2.37047 0
M  V30 11940 H 1170.79 3.6853 -2.28841 0
M  V30 11941 H 1171.46 5.23158 -1.76095 0
M  V30 11942 H 1173.94 4.15789 -0.160939 0
M  V30 11943 H 1172.81 5.48409 0.232184 0
M  V30 11944 H 1173.07 4.19474 1.39621 0
M  V30 11945 N 1172.13 0.454803 1.50895 0
M  V30 11946 C 1173.06 -0.337982 2.31041 0
M  V30 11947 C 1174.04 -1.00523 1.37219 0
M  V30 11948 O 1175.23 -1.00553 1.66141 0
M  V30 11949 C 1172.36 -1.42964 3.1651 0
M  V30 11950 C 1171.31 -0.884907 4.18752 0
M  V30 11951 C 1170.64 -2.07363 4.92854 0
M  V30 11952 C 1171.94 0.0926716 5.22218 0
M  V30 11953 H 1173.63 0.33089 2.97566 0
M  V30 11954 H 1171.18 0.160577 1.43102 0
M  V30 11955 H 1173.13 -1.9916 3.71367 0
M  V30 11956 H 1171.86 -2.12705 2.47839 0
M  V30 11957 H 1170.52 -0.345031 3.64973 0
M  V30 11958 H 1170.16 -2.75764 4.2067 0
M  V30 11959 H 1169.86 -1.71545 5.62002 0
M  V30 11960 H 1171.39 -2.6408 5.5054 0
M  V30 11961 H 1172.8 -0.379568 5.72042 0
M  V30 11962 H 1171.2 0.3643 5.98993 0
M  V30 11963 H 1172.27 1.02383 4.73968 0
M  V30 11964 N 1173.61 -1.56489 0.186789 0
M  V30 11965 C 1174.56 -2.20034 -0.754164 0
M  V30 11966 C 1175.55 -1.16899 -1.22601 0
M  V30 11967 O 1176.76 -1.35064 -1.18987 0
M  V30 11968 H 1173.13 -0.705058 -0.261529 0
M  V30 11969 H 1175.11 -2.97766 -0.194418 0
M  V30 11970 C 1173.85 -2.86733 -1.9667 0
M  V30 11971 H 1173.18 -3.65831 -1.61268 0
M  V30 11972 H 1174.62 -3.34645 -2.60363 0
M  V30 11973 C 1173.08 -1.87325 -2.8002 0
M  V30 11974 O 1173.61 -1.36835 -3.77676 0
M  V30 11975 N 1171.81 -1.55738 -2.45345 0
M  V30 11976 H 1171.36 -1.9699 -1.6599 0
M  V30 11977 H 1171.32 -0.894805 -3.01398 0
M  V30 11978 N 1175.09 0.086862 -1.5736 0
M  V30 11979 C 1176.5 0.640442 -1.75372 0
M  V30 11980 C 1176.85 1.78693 -0.81014 0
M  V30 11981 O 1175.98 2.16398 0.00940712 0
M  V30 11982 C 1176.57 1.16856 -3.1801 0
M  V30 11983 C 1175.13 1.66813 -3.37417 0
M  V30 11984 C 1174.28 0.58116 -2.71142 0
M  V30 11985 H 1177.23 -0.139249 -1.58088 0
M  V30 11986 H 1177.25 2.03772 -3.21337 0
M  V30 11987 H 1176.76 0.333909 -3.86661 0
M  V30 11988 H 1174.86 2.52652 -2.73858 0
M  V30 11989 H 1174.98 1.75545 -4.45781 0
M  V30 11990 H 1173.34 1.0226 -2.3327 0
M  V30 11991 H 1174.12 -0.243047 -3.42439 0
M  V30 11992 N 1176.57 1.53483 0.357892 0
M  V30 11993 C 1177.82 1.69701 1.09754 0
M  V30 11994 C 1178.14 0.455389 1.89608 0
M  V30 11995 O 1177.41 -0.530623 1.88577 0
M  V30 11996 H 1175.99 0.62562 0.408178 0
M  V30 11997 H 1178.65 1.90696 0.402641 0
M  V30 11998 H 1177.74 2.56154 1.78302 0
M  V30 11999 N 1178.05 -0.61812 1.44973 0
M  V30 12000 C 1178.96 -1.7579 1.55355 0
M  V30 12001 C 1179.97 -1.68384 0.438512 0
M  V30 12002 O 1181.15 -1.88928 0.697715 0
M  V30 12003 C 1178.21 -3.1222 1.50729 0
M  V30 12004 C 1177.27 -3.3116 2.73188 0
M  V30 12005 C 1176.51 -4.61082 2.68774 0
M  V30 12006 O 1176.73 -5.42728 1.75507 0
M  V30 12007 O 1175.66 -4.82506 3.59821 0
M  V30 12008 H 1179.49 -1.69983 2.51674 0
M  V30 12009 H 1177.07 -0.780934 1.27365 0
M  V30 12010 H 1178.96 -3.93524 1.5072 0
M  V30 12011 H 1177.63 -3.18541 0.575587 0
M  V30 12012 H 1176.54 -2.49485 2.78762 0
M  V30 12013 H 1177.87 -3.29709 3.65449 0
M  V30 12014 N 1179.52 -1.32087 -0.859693 0
M  V30 12015 C 1180.94 -1.10968 -1.14709 0
M  V30 12016 C 1181.14 0.113139 -2.01182 0
M  V30 12017 O 1180.2 0.799499 -2.39508 0
M  V30 12018 C 1181.51 -2.38657 -1.8293 0
M  V30 12019 C 1183.06 -2.44366 -1.95587 0
M  V30 12020 C 1183.53 -3.71963 -2.67222 0
M  V30 12021 N 1185.02 -3.72916 -2.7475 0
M  V30 12022 C 1185.76 -4.68346 -3.30816 0
M  V30 12023 N 1185.25 -5.74139 -3.87732 0
M  V30 12024 N 1187.05 -4.55851 -3.28872 0
M  V30 12025 H 1179.2 -2.10497 -0.283711 0
M  V30 12026 H 1181.46 -0.929108 -0.188315 0
M  V30 12027 H 1181.17 -3.2803 -1.26844 0
M  V30 12028 H 1181.04 -2.49236 -2.83128 0
M  V30 12029 H 1183.43 -1.55456 -2.50833 0
M  V30 12030 H 1183.51 -2.37744 -0.944001 0
M  V30 12031 H 1183.15 -4.61245 -2.1264 0
M  V30 12032 H 1183.08 -3.75855 -3.68837 0
M  V30 12033 H 1185.57 -2.96447 -2.34367 0
M  V30 12034 H 1185.89 -6.43021 -4.28654 0
M  V30 12035 H 1184.23 -5.779 -3.86078 0
M  V30 12036 H 1187.42 -3.72371 -2.83651 0
M  V30 12037 H 1187.6 -5.30398 -3.72266 0
M  V30 12038 N 1181 1.07532 -1.15215 0
M  V30 12039 C 1182.41 1.61567 -0.935568 0
M  V30 12040 C 1182.76 1.89085 0.523557 0
M  V30 12041 O 1181.89 1.65495 1.39429 0
M  V30 12042 C 1182.48 2.93531 -1.69189 0
M  V30 12043 C 1181.04 3.44316 -1.52063 0
M  V30 12044 C 1180.19 2.18404 -1.70866 0
M  V30 12045 H 1183.14 0.906431 -1.30267 0
M  V30 12046 H 1183.16 3.62377 -1.16031 0
M  V30 12047 H 1182.67 2.73471 -2.75381 0
M  V30 12048 H 1180.77 3.69462 -0.482567 0
M  V30 12049 H 1180.89 4.20478 -2.29642 0
M  V30 12050 H 1179.25 2.28012 -1.13502 0
M  V30 12051 H 1180.03 2.00841 -2.7842 0
M  V30 12052 N 1182.48 0.948665 1.2585 0
M  V30 12053 C 1183.44 0.468673 2.24357 0
M  V30 12054 C 1184.44 -0.424355 1.551 0
M  V30 12055 O 1185.63 -0.222481 1.72773 0
M  V30 12056 C 1182.77 -0.32359 3.39361 0
M  V30 12057 H 1183.96 1.33928 2.68334 0
M  V30 12058 H 1181.51 0.731357 1.38133 0
M  V30 12059 H 1182.25 -1.21212 3.00796 0
M  V30 12060 H 1182.03 0.316998 3.90816 0
M  V30 12061 H 1183.52 -0.649087 4.12525 0
M  V30 12062 N 1183.96 -1.40369 0.716545 0
M  V30 12063 C 1185.24 -1.94737 0.183576 0
M  V30 12064 C 1185.62 -1.65464 -1.31092 0
M  V30 12065 O 1184.96 -0.972832 -2.06756 0
M  V30 12066 C 1185.17 -3.45438 0.497339 0
M  V30 12067 C 1186.52 -4.2235 0.436526 0
M  V30 12068 O 1187.55 -3.53553 0.433454 0
M  V30 12069 O 1186.4 -5.44923 0.41489 0
M  V30 12070 H 1183.5 -0.82655 0.0272785 0
M  V30 12071 H 1186.04 -1.49972 0.794143 0
M  V30 12072 H 1184.82 -3.60107 1.53097 0
M  V30 12073 H 1184.44 -3.97342 -0.143141 0
M  V30 12074 N 1185.44 -0.462799 -1.50652 0
M  V30 12075 C 1186.68 0.0951853 -2.02576 0
M  V30 12076 C 1187.02 1.40113 -1.34469 0
M  V30 12077 O 1186.29 1.88793 -0.467702 0
M  V30 12078 C 1186.57 0.287603 -3.5895 0
M  V30 12079 C 1186.43 -1.03878 -4.37641 0
M  V30 12080 C 1187.75 1.04593 -4.27491 0
M  V30 12081 H 1184.86 0.0331191 -0.736255 0
M  V30 12082 H 1187.51 -0.606772 -1.80051 0
M  V30 12083 H 1185.66 0.885514 -3.78274 0
M  V30 12084 H 1187.33 -1.67263 -4.29908 0
M  V30 12085 H 1185.57 -1.6374 -4.01711 0
M  V30 12086 H 1186.24 -0.857889 -5.45293 0
M  V30 12087 H 1188.72 0.539213 -4.12591 0
M  V30 12088 H 1187.59 1.14935 -5.36732 0
M  V30 12089 H 1187.86 2.08045 -3.90089 0
M  V30 12090 N 1186.91 1.56388 -0.195085 0
M  V30 12091 C 1188.14 2.02406 0.452399 0
M  V30 12092 C 1188.56 1.07432 1.54402 0
M  V30 12093 O 1187.92 0.0578246 1.81208 0
M  V30 12094 C 1187.97 3.46864 0.985778 0
M  V30 12095 O 1187.07 3.55007 2.09867 0
M  V30 12096 H 1186.42 0.65553 0.105719 0
M  V30 12097 H 1188.95 2.02299 -0.30596 0
M  V30 12098 H 1188.96 3.86655 1.30238 0
M  V30 12099 H 1187.63 4.15481 0.186662 0
M  V30 12100 H 1186.21 3.2709 1.79071 0
M  V30 12101 N 1188.39 -0.0785156 1.57404 0
M  V30 12102 C 1189.8 -0.631132 1.75709 0
M  V30 12103 C 1190.15 -1.78261 0.819605 0
M  V30 12104 O 1189.28 -2.164 0.00206912 0
M  V30 12105 C 1189.87 -1.15168 3.18625 0
M  V30 12106 C 1188.43 -1.65021 3.38297 0
M  V30 12107 C 1187.58 -0.566773 2.71446 0
M  V30 12108 H 1190.53 0.147631 1.58012 0
M  V30 12109 H 1190.55 -2.02065 3.22413 0
M  V30 12110 H 1190.06 -0.313399 3.86833 0
M  V30 12111 H 1188.17 -2.51196 2.75194 0
M  V30 12112 H 1188.28 -1.73179 4.46706 0
M  V30 12113 H 1186.64 -1.01021 2.33809 0
M  V30 12114 H 1187.43 0.261204 3.42305 0
M  V30 12115 N 1189.87 -1.5367 -0.349747 0
M  V30 12116 C 1191.1 -1.74547 -1.11089 0
M  V30 12117 C 1191.51 -0.481741 -1.82551 0
M  V30 12118 O 1190.87 0.546272 -1.74132 0
M  V30 12119 C 1190.92 -2.92148 -2.12913 0
M  V30 12120 O 1190.64 -4.13633 -1.44358 0
M  V30 12121 C 1192.14 -3.25027 -3.01451 0
M  V30 12122 H 1189.36 -0.583376 -0.331532 0
M  V30 12123 H 1191.91 -2.00473 -0.403841 0
M  V30 12124 H 1190.06 -2.68572 -2.79192 0
M  V30 12125 H 1190.48 -4.79601 -2.12329 0
M  V30 12126 H 1191.95 -4.10679 -3.68845 0
M  V30 12127 H 1192.43 -2.41064 -3.67131 0
M  V30 12128 H 1193.03 -3.50586 -2.40768 0
M  V30 12129 N 1191.35 0.610423 -1.45298 0
M  V30 12130 C 1192.57 1.40112 -1.52917 0
M  V30 12131 C 1193 1.87404 -0.161696 0
M  V30 12132 O 1192.36 1.59973 0.853135 0
M  V30 12133 C 1192.4 2.58359 -2.51561 0
M  V30 12134 O 1191.51 3.58895 -2.03146 0
M  V30 12135 H 1190.85 0.41841 -0.515586 0
M  V30 12136 H 1193.38 0.743159 -1.90626 0
M  V30 12137 H 1193.39 3.0564 -2.70275 0
M  V30 12138 H 1192.06 2.23286 -3.50879 0
M  V30 12139 H 1190.64 3.18282 -1.94296 0
M  V30 12140 N 1192.83 1.32541 0.852676 0
M  V30 12141 C 1194.24 1.20863 1.42299 0
M  V30 12142 C 1194.59 -0.178051 1.9539 0
M  V30 12143 O 1193.71 -1.07689 1.87702 0
M  V30 12144 C 1194.31 2.18811 2.58664 0
M  V30 12145 C 1192.87 2.11015 3.11689 0
M  V30 12146 C 1192.01 2.07067 1.84441 0
M  V30 12147 H 1194.97 1.44341 0.659657 0
M  V30 12148 H 1194.99 1.78779 3.35884 0
M  V30 12149 H 1194.5 3.19726 2.19993 0
M  V30 12150 H 1192.6 1.13354 3.54939 0
M  V30 12151 H 1192.71 3.00929 3.72799 0
M  V30 12152 H 1191.08 1.52335 2.04123 0
M  V30 12153 H 1191.86 3.09767 1.47984 0
M  V30 12154 N 1194.3 -1.0692 1.15784 0
M  V30 12155 C 1195.24 -2.14168 0.816375 0
M  V30 12156 C 1196.25 -1.61872 -0.17357 0
M  V30 12157 O 1197.44 -1.78429 0.0502973 0
M  V30 12158 C 1194.54 -3.38346 0.193682 0
M  V30 12159 C 1193.71 -4.19979 1.22215 0
M  V30 12160 C 1192.77 -5.2253 0.620424 0
M  V30 12161 O 1191.8 -5.54446 1.28757 0
M  V30 12162 N 1193 -5.77434 -0.595811 0
M  V30 12163 H 1195.76 -2.44062 1.73937 0
M  V30 12164 H 1193.32 -1.22865 1.05431 0
M  V30 12165 H 1195.32 -4.04092 -0.22174 0
M  V30 12166 H 1193.89 -3.06129 -0.632735 0
M  V30 12167 H 1193.11 -3.49984 1.81397 0
M  V30 12168 H 1194.39 -4.71329 1.91641 0
M  V30 12169 H 1193.79 -5.5376 -1.15611 0
M  V30 12170 H 1192.35 -6.44788 -0.953529 0
M  V30 12171 N 1195.78 -0.955326 -1.25345 0
M  V30 12172 C 1197.19 -0.651118 -1.74978 0
M  V30 12173 C 1197.54 0.833495 -1.77616 0
M  V30 12174 O 1196.67 1.65228 -1.39745 0
M  V30 12175 C 1197.26 -1.17521 -3.17764 0
M  V30 12176 C 1195.82 -0.921151 -3.64954 0
M  V30 12177 C 1194.97 -1.31784 -2.43984 0
M  V30 12178 H 1197.92 -1.13205 -1.11222 0
M  V30 12179 H 1197.94 -0.535625 -3.76711 0
M  V30 12180 H 1197.45 -2.25575 -3.15813 0
M  V30 12181 H 1195.56 0.144392 -3.7232 0
M  V30 12182 H 1195.67 -1.5581 -4.53056 0
M  V30 12183 H 1194.03 -0.736219 -2.43828 0
M  V30 12184 H 1194.82 -2.40761 -2.44723 0
M  V30 12185 N 1197.26 1.39987 -0.723979 0
M  V30 12186 C 1198.17 2.3447 -0.0780936 0
M  V30 12187 C 1199.19 1.57744 0.734368 0
M  V30 12188 O 1200.36 1.90091 0.665385 0
M  V30 12189 C 1197.43 3.36705 0.826492 0
M  V30 12190 C 1196.49 4.293 0.00303036 0
M  V30 12191 C 1195.72 5.26651 0.864535 0
M  V30 12192 O 1195.95 5.30194 2.10357 0
M  V30 12193 O 1194.88 6.01157 0.299057 0
M  V30 12194 H 1198.71 2.91338 -0.857646 0
M  V30 12195 H 1196.29 1.41324 -0.484536 0
M  V30 12196 H 1198.17 3.9938 1.34439 0
M  V30 12197 H 1196.85 2.82237 1.58505 0
M  V30 12198 H 1195.75 3.69883 -0.560136 0
M  V30 12199 H 1197.09 4.86942 -0.717494 0
M  V30 12200 N 1198.74 0.470782 1.50404 0
M  V30 12201 C 1199.99 -0.0841494 2.01925 0
M  V30 12202 C 1200.31 -1.40244 1.35487 0
M  V30 12203 O 1199.58 -1.89409 0.500111 0
M  V30 12204 H 1198.16 -0.0340884 0.746222 0
M  V30 12205 H 1200.82 0.621133 1.84738 0
M  V30 12206 H 1199.92 -0.235877 3.11207 0
M  V30 12207 N 1200.22 -1.56282 0.203376 0
M  V30 12208 C 1201.15 -2.2247 -0.709183 0
M  V30 12209 C 1202.13 -1.19046 -1.21499 0
M  V30 12210 O 1203.31 -1.47578 -1.26231 0
M  V30 12211 C 1200.44 -2.8905 -1.92529 0
M  V30 12212 C 1199.4 -3.98789 -1.55407 0
M  V30 12213 C 1198.72 -4.52574 -2.84747 0
M  V30 12214 C 1200.02 -5.16774 -0.75775 0
M  V30 12215 H 1201.72 -2.98986 -0.157392 0
M  V30 12216 H 1199.26 -1.43808 -0.0742613 0
M  V30 12217 H 1201.22 -3.34038 -2.56898 0
M  V30 12218 H 1199.94 -2.09952 -2.50175 0
M  V30 12219 H 1198.6 -3.54504 -0.933928 0
M  V30 12220 H 1198.25 -3.70229 -3.40499 0
M  V30 12221 H 1197.95 -5.26627 -2.6065 0
M  V30 12222 H 1199.47 -5.00269 -3.5009 0
M  V30 12223 H 1200.89 -5.58256 -1.30472 0
M  V30 12224 H 1199.28 -5.96945 -0.614583 0
M  V30 12225 H 1200.35 -4.84308 0.239476 0
M  V30 12226 N 1201.7 0.070167 -1.57444 0
M  V30 12227 C 1202.63 1.08351 -2.06839 0
M  V30 12228 C 1203.61 1.40269 -0.962224 0
M  V30 12229 O 1204.79 1.49867 -1.23505 0
M  V30 12230 C 1201.92 2.39649 -2.51368 0
M  V30 12231 C 1200.88 2.22079 -3.65875 0
M  V30 12232 C 1200.2 3.58776 -3.96464 0
M  V30 12233 C 1201.5 1.64069 -4.95862 0
M  V30 12234 H 1203.2 0.672465 -2.9175 0
M  V30 12235 H 1200.74 0.322027 -1.40353 0
M  V30 12236 H 1202.69 3.10833 -2.84537 0
M  V30 12237 H 1201.42 2.82736 -1.63487 0
M  V30 12238 H 1200.08 1.53337 -3.32992 0
M  V30 12239 H 1199.73 3.99436 -3.05712 0
M  V30 12240 H 1199.43 3.47859 -4.7357 0
M  V30 12241 H 1200.95 4.31387 -4.32131 0
M  V30 12242 H 1202.36 2.2512 -5.27251 0
M  V30 12243 H 1200.76 1.63843 -5.773 0
M  V30 12244 H 1201.83 0.60232 -4.81145 0
M  V30 12245 N 1203.17 1.53854 0.341593 0
M  V30 12246 C 1204.42 1.71447 1.08322 0
M  V30 12247 C 1204.75 0.477289 1.88243 0
M  V30 12248 O 1204.03 -0.525695 1.87261 0
M  V30 12249 C 1204.31 2.97917 2.02281 0
M  V30 12250 C 1204.16 4.31847 1.25809 0
M  V30 12251 C 1205.48 3.20065 3.0207 0
M  V30 12252 H 1202.6 0.623847 0.392408 0
M  V30 12253 H 1205.24 1.86527 0.361594 0
M  V30 12254 H 1203.39 2.85191 2.63815 0
M  V30 12255 H 1205.07 4.56427 0.668737 0
M  V30 12256 H 1203.31 4.30169 0.560119 0
M  V30 12257 H 1203.98 5.16522 1.94704 0
M  V30 12258 H 1206.46 3.32135 2.50651 0
M  V30 12259 H 1205.33 4.09947 3.65013 0
M  V30 12260 H 1205.59 2.36452 3.73554 0
M  V30 12261 N 1204.65 -0.602709 1.4562 0
M  V30 12262 C 1205.58 -1.72374 1.5751 0
M  V30 12263 C 1206.56 -1.64669 0.426389 0
M  V30 12264 O 1207.75 -1.82994 0.650143 0
M  V30 12265 C 1204.88 -3.10987 1.5461 0
M  V30 12266 C 1203.83 -3.33507 2.68248 0
M  V30 12267 C 1203.16 -4.72443 2.50403 0
M  V30 12268 C 1204.46 -3.23285 4.10224 0
M  V30 12269 H 1206.15 -1.62679 2.51348 0
M  V30 12270 H 1203.7 -0.781217 1.20967 0
M  V30 12271 H 1205.65 -3.89214 1.61525 0
M  V30 12272 H 1204.37 -3.21533 0.573049 0
M  V30 12273 H 1203.03 -2.57672 2.60769 0
M  V30 12274 H 1202.68 -4.79729 1.51226 0
M  V30 12275 H 1202.38 -4.88466 3.26611 0
M  V30 12276 H 1203.91 -5.52864 2.59179 0
M  V30 12277 H 1205.32 -3.91381 4.1892 0
M  V30 12278 H 1203.72 -3.50837 4.86861 0
M  V30 12279 H 1204.79 -2.20652 4.31788 0
M  V30 12280 N 1206.13 -1.32992 -0.845635 0
M  V30 12281 C 1207.06 -1.18513 -1.96182 0
M  V30 12282 C 1208.07 -0.11781 -1.62373 0
M  V30 12283 O 1209.26 -0.36761 -1.74674 0
M  V30 12284 C 1206.36 -0.793812 -3.29472 0
M  V30 12285 C 1205.54 -1.95134 -3.91461 0
M  V30 12286 C 1204.6 -1.54209 -5.03096 0
M  V30 12287 O 1203.62 -2.25545 -5.22607 0
M  V30 12288 N 1204.82 -0.443235 -5.78805 0
M  V30 12289 H 1207.59 -2.14663 -2.09141 0
M  V30 12290 H 1205.15 -1.25648 -1.02099 0
M  V30 12291 H 1207.14 -0.502263 -4.01571 0
M  V30 12292 H 1205.71 0.0768031 -3.12506 0
M  V30 12293 H 1204.93 -2.40889 -3.12035 0
M  V30 12294 H 1206.22 -2.72604 -4.2961 0
M  V30 12295 H 1205.62 0.150298 -5.655 0
M  V30 12296 H 1204.17 -0.211331 -6.51457 0
M  V30 12297 N 1207.61 1.06304 -1.1635 0
M  V30 12298 C 1208.54 2.13732 -0.827721 0
M  V30 12299 C 1209.55 1.61962 0.164983 0
M  V30 12300 O 1210.74 1.784 -0.0597591 0
M  V30 12301 C 1207.84 3.38239 -0.211623 0
M  V30 12302 C 1207.01 4.19325 -1.2444 0
M  V30 12303 C 1206.07 5.22193 -0.648127 0
M  V30 12304 O 1205.1 5.53755 -1.31695 0
M  V30 12305 N 1206.3 5.77742 0.565179 0
M  V30 12306 H 1209.07 2.43136 -1.75228 0
M  V30 12307 H 1206.63 1.22304 -1.06081 0
M  V30 12308 H 1208.62 4.04204 0.200306 0
M  V30 12309 H 1207.19 3.06461 0.616491 0
M  V30 12310 H 1206.41 3.49017 -1.83251 0
M  V30 12311 H 1207.7 4.70306 -1.94138 0
M  V30 12312 H 1207.1 5.54366 1.12673 0
M  V30 12313 H 1205.65 6.45284 0.919321 0
M  V30 12314 N 1209.09 0.96196 1.24836 0
M  V30 12315 C 1210.33 0.621634 1.93038 0
M  V30 12316 C 1210.66 -0.840257 1.75081 0
M  V30 12317 O 1209.94 -1.60381 1.10038 0
M  V30 12318 C 1210.22 0.990107 3.46221 0
M  V30 12319 C 1210.08 2.50827 3.73371 0
M  V30 12320 C 1211.39 0.520478 4.37011 0
M  V30 12321 H 1208.51 0.227312 0.701069 0
M  V30 12322 H 1211.16 1.19993 1.47315 0
M  V30 12323 H 1209.31 0.498008 3.85295 0
M  V30 12324 H 1210.98 3.07469 3.4389 0
M  V30 12325 H 1209.22 2.94277 3.18722 0
M  V30 12326 H 1209.89 2.71659 4.80526 0
M  V30 12327 H 1212.37 0.942703 4.05281 0
M  V30 12328 H 1211.24 0.806918 5.42937 0
M  V30 12329 H 1211.5 -0.579507 4.38285 0
M  V30 12330 N 1210.56 -1.39601 0.731392 0
M  V30 12331 C 1211.81 -2.0019 0.277208 0
M  V30 12332 C 1212.13 -1.5832 -1.13841 0
M  V30 12333 O 1211.4 -0.829793 -1.77458 0
M  V30 12334 H 1209.98 -0.740344 0.0995006 0
M  V30 12335 H 1212.64 -1.70704 0.940547 0
M  V30 12336 H 1211.74 -3.10427 0.322749 0
M  V30 12337 N 1212.04 -0.478751 -1.50152 0
M  V30 12338 C 1213.32 0.135533 -1.9513 0
M  V30 12339 C 1213.7 1.56253 -1.41944 0
M  V30 12340 O 1213.05 2.19824 -0.623673 0
M  V30 12341 C 1213.26 0.0710037 -3.48928 0
M  V30 12342 C 1214.61 0.256075 -4.23827 0
M  V30 12343 O 1215.63 0.147234 -3.55896 0
M  V30 12344 O 1214.49 0.476741 -5.44417 0
M  V30 12345 H 1211.58 0.107491 -0.819985 0
M  V30 12346 H 1214.13 -0.539701 -1.60889 0
M  V30 12347 H 1212.9 -0.925012 -3.80209 0
M  V30 12348 H 1212.52 0.787362 -3.89726 0
M  V30 12349 N 1213.52 1.56172 -0.211661 0
M  V30 12350 C 1214.75 2.02135 0.427222 0
M  V30 12351 C 1215.16 1.09084 1.54587 0
M  V30 12352 O 1214.5 0.090906 1.83475 0
M  V30 12353 C 1214.56 3.44459 1.029 0
M  V30 12354 C 1214.23 4.56976 0.0470243 0
M  V30 12355 C 1215.22 5.14466 -0.749724 0
M  V30 12356 C 1212.91 5.02253 -0.0688634 0
M  V30 12357 C 1214.9 6.15696 -1.64916 0
M  V30 12358 C 1212.59 6.03323 -0.971844 0
M  V30 12359 C 1213.59 6.5992 -1.76055 0
M  V30 12360 O 1213.28 7.59024 -2.64837 0
M  V30 12361 H 1213.01 0.667008 0.109894 0
M  V30 12362 H 1215.56 2.02851 -0.322595 0
M  V30 12363 H 1213.79 3.4078 1.82772 0
M  V30 12364 H 1215.48 3.74128 1.57425 0
M  V30 12365 H 1216.25 4.80342 -0.670588 0
M  V30 12366 H 1212.13 4.57886 0.534889 0
M  V30 12367 H 1215.67 6.59798 -2.26521 0
M  V30 12368 H 1211.57 6.36869 -1.05203 0
M  V30 12369 H 1212.34 7.76508 -2.58801 0
M  V30 12370 N 1215 -0.0618163 1.57479 0
M  V30 12371 C 1216.24 -0.764296 1.89573 0
M  V30 12372 C 1216.6 -1.74235 0.806605 0
M  V30 12373 O 1217.8 -2.49067 1.0109 0
M  V30 12374 C 1216.07 -1.44503 3.26885 0
M  V30 12375 S 1217.63 -2.1812 3.80748 0
M  V30 12376 H 1214.45 -0.253946 0.664103 0
M  V30 12377 H 1217.05 -0.0200064 1.9549 0
M  V30 12378 H 1215.76 -0.719525 4.04043 0
M  V30 12379 H 1215.29 -2.22855 3.2419 0
M  V30 12380 H 1217.3 -3.44793 3.56837 0
M  V30 12381 N 1216.48 -1.54033 -0.333429 0
M  V30 12382 C 1217.72 -1.71765 -1.07252 0
M  V30 12383 C 1218.05 -0.486135 -1.88327 0
M  V30 12384 O 1217.31 0.532135 -1.88326 0
M  V30 12385 C 1217.61 -2.93926 -2.03328 0
M  V30 12386 C 1217.27 -4.29107 -1.38486 0
M  V30 12387 C 1215.93 -4.6586 -1.20532 0
M  V30 12388 C 1218.29 -5.13041 -0.918624 0
M  V30 12389 C 1215.61 -5.84155 -0.545881 0
M  V30 12390 C 1217.97 -6.3201 -0.273055 0
M  V30 12391 C 1216.63 -6.67451 -0.0812815 0
M  V30 12392 H 1215.9 -0.628532 -0.392464 0
M  V30 12393 H 1218.55 -1.88261 -0.350709 0
M  V30 12394 H 1216.85 -2.72075 -2.81926 0
M  V30 12395 H 1218.55 -3.0484 -2.60526 0
M  V30 12396 H 1215.14 -4.00185 -1.5346 0
M  V30 12397 H 1219.32 -4.8517 -1.04515 0
M  V30 12398 H 1214.58 -6.1018 -0.386009 0
M  V30 12399 H 1218.75 -6.96333 0.0962582 0
M  V30 12400 H 1216.38 -7.58973 0.431734 0
M  V30 12401 N 1217.95 0.594978 -1.45938 0
M  V30 12402 C 1218.88 1.71536 -1.58422 0
M  V30 12403 C 1219.87 1.64441 -0.435116 0
M  V30 12404 O 1221.05 1.82647 -0.659839 0
M  V30 12405 C 1218.18 3.10163 -1.56257 0
M  V30 12406 C 1217.13 3.3208 -2.70013 0
M  V30 12407 C 1216.46 4.71108 -2.52905 0
M  V30 12408 C 1217.76 3.21105 -4.11933 0
M  V30 12409 H 1219.45 1.61344 -2.52207 0
M  V30 12410 H 1217 0.774791 -1.2138 0
M  V30 12411 H 1218.95 3.88352 -1.63587 0
M  V30 12412 H 1217.68 3.21225 -0.590093 0
M  V30 12413 H 1216.34 2.56286 -2.62132 0
M  V30 12414 H 1215.98 4.7892 -1.53768 0
M  V30 12415 H 1215.68 4.86727 -3.29197 0
M  V30 12416 H 1217.21 5.51482 -2.62107 0
M  V30 12417 H 1218.62 3.89153 -4.2099 0
M  V30 12418 H 1217.02 3.4825 -4.88715 0
M  V30 12419 H 1218.09 2.18359 -4.32952 0
M  V30 12420 N 1219.43 1.33438 0.838571 0
M  V30 12421 C 1220.84 1.22366 1.41009 0
M  V30 12422 C 1221.19 -0.157317 1.95568 0
M  V30 12423 O 1220.32 -1.05692 1.88834 0
M  V30 12424 C 1220.91 2.21542 2.56329 0
M  V30 12425 C 1219.47 2.14309 3.09433 0
M  V30 12426 C 1218.62 2.09012 1.82235 0
M  V30 12427 H 1221.57 1.45032 0.64431 0
M  V30 12428 H 1221.59 1.82332 3.33969 0
M  V30 12429 H 1221.1 3.22042 2.16589 0
M  V30 12430 H 1219.21 1.17113 3.53717 0
M  V30 12431 H 1219.32 3.04866 3.69586 0
M  V30 12432 H 1217.68 1.54492 2.02495 0
M  V30 12433 H 1218.47 3.11319 1.4469 0
M  V30 12434 N 1220.91 -1.05686 1.16912 0
M  V30 12435 C 1222.16 -1.78244 0.95254 0
M  V30 12436 C 1222.48 -1.87924 -0.520525 0
M  V30 12437 O 1221.75 -1.39239 -1.37802 0
M  V30 12438 H 1220.33 -0.660228 0.349439 0
M  V30 12439 H 1222.99 -1.27634 1.47294 0
M  V30 12440 H 1222.09 -2.80102 1.37657 0
M  V30 12441 N 1222.39 -0.968567 -1.24324 0
M  V30 12442 C 1223.32 -0.518323 -2.27674 0
M  V30 12443 C 1224.3 0.442479 -1.64244 0
M  V30 12444 O 1225.48 0.338416 -1.91229 0
M  V30 12445 C 1222.61 0.191459 -3.46772 0
M  V30 12446 C 1221.57 -0.685449 -4.22476 0
M  V30 12447 C 1220.89 0.155873 -5.34473 0
M  V30 12448 C 1222.19 -1.97047 -4.83704 0
M  V30 12449 H 1223.89 -1.38215 -2.65588 0
M  V30 12450 H 1221.43 -0.66604 -1.27671 0
M  V30 12451 H 1223.39 0.517667 -4.18208 0
M  V30 12452 H 1222.11 1.08965 -3.07887 0
M  V30 12453 H 1220.77 -0.994942 -3.52841 0
M  V30 12454 H 1220.42 1.05424 -4.91828 0
M  V30 12455 H 1220.12 -0.427655 -5.86042 0
M  V30 12456 H 1221.64 0.476733 -6.08736 0
M  V30 12457 H 1223.06 -1.70979 -5.4721 0
M  V30 12458 H 1221.45 -2.50079 -5.45509 0
M  V30 12459 H 1222.52 -2.66484 -4.0511 0
M  V30 12460 N 1223.87 1.39211 -0.738786 0
M  V30 12461 C 1225.11 2.0004 -0.28782 0
M  V30 12462 C 1225.44 1.58921 1.13 0
M  V30 12463 O 1224.71 0.839193 1.77015 0
M  V30 12464 H 1223.29 0.739805 -0.103425 0
M  V30 12465 H 1225.95 1.70202 -0.949587 0
M  V30 12466 H 1225.04 3.10251 -0.339208 0
M  V30 12467 N 1225.34 0.486708 1.49896 0
M  V30 12468 C 1226.76 0.0353906 1.86666 0
M  V30 12469 C 1227.11 -1.3743 1.40026 0
M  V30 12470 O 1226.23 -2.02163 0.77194 0
M  V30 12471 C 1226.83 0.0574475 3.38751 0
M  V30 12472 C 1225.39 -0.338464 3.74875 0
M  V30 12473 C 1224.53 0.436196 2.73848 0
M  V30 12474 H 1227.48 0.700215 1.42417 0
M  V30 12475 H 1227.5 -0.741175 3.73212 0
M  V30 12476 H 1227.02 1.08356 3.72667 0
M  V30 12477 H 1225.12 -1.36835 3.46565 0
M  V30 12478 H 1225.23 -0.0289519 4.79091 0
M  V30 12479 H 1223.59 -0.112141 2.54453 0
M  V30 12480 H 1224.38 1.46212 3.10608 0
M  V30 12481 N 1226.82 -1.56058 0.219941 0
M  V30 12482 C 1228.07 -1.97869 -0.411383 0
M  V30 12483 C 1228.39 -1.10878 -1.60409 0
M  V30 12484 O 1227.66 -0.185454 -1.9502 0
M  V30 12485 H 1226.24 -0.730747 -0.154979 0
M  V30 12486 H 1228.9 -1.92379 0.312461 0
M  V30 12487 H 1228 -3.0323 -0.738798 0
M  V30 12488 N 1228.3 0.053464 -1.57509 0
M  V30 12489 C 1229.71 0.603099 -1.76691 0
M  V30 12490 C 1230.06 1.76934 -0.847861 0
M  V30 12491 O 1229.19 2.16369 -0.0364962 0
M  V30 12492 C 1229.78 1.10084 -3.20417 0
M  V30 12493 C 1228.34 1.59618 -3.4088 0
M  V30 12494 C 1227.49 0.523516 -2.72313 0
M  V30 12495 H 1230.44 -0.172751 -1.57757 0
M  V30 12496 H 1230.46 1.9691 -3.25587 0
M  V30 12497 H 1229.97 0.251818 -3.87282 0
M  V30 12498 H 1228.07 2.46786 -2.79155 0
M  V30 12499 H 1228.19 1.6605 -4.49404 0
M  V30 12500 H 1226.55 0.972886 -2.35387 0
M  V30 12501 H 1227.33 -0.315629 -3.41846 0
M  V30 12502 N 1229.78 1.54207 0.325255 0
M  V30 12503 C 1230.71 1.86467 1.40543 0
M  V30 12504 C 1231.69 0.721324 1.54048 0
M  V30 12505 O 1232.88 0.974905 1.67956 0
M  V30 12506 C 1230.01 2.09052 2.77335 0
M  V30 12507 C 1228.96 3.24893 2.78619 0
M  V30 12508 C 1228.29 3.32846 4.1847 0
M  V30 12509 C 1229.59 4.62582 2.42518 0
M  V30 12510 H 1231.28 2.76932 1.13794 0
M  V30 12511 H 1228.83 1.33248 0.545971 0
M  V30 12512 H 1230.78 2.30204 3.52964 0
M  V30 12513 H 1229.5 1.15335 3.05558 0
M  V30 12514 H 1228.16 3.03625 2.05444 0
M  V30 12515 H 1227.81 2.3669 4.43832 0
M  V30 12516 H 1227.51 4.10701 4.20237 0
M  V30 12517 H 1229.03 3.56231 4.95915 0
M  V30 12518 H 1230.45 4.83627 3.07861 0
M  V30 12519 H 1228.84 5.42974 2.55538 0
M  V30 12520 H 1229.91 4.64946 1.3767 0
M  V30 12521 N 1231.26 -0.58723 1.46251 0
M  V30 12522 C 1232.48 -1.37661 1.55126 0
M  V30 12523 C 1232.91 -1.87123 0.191489 0
M  V30 12524 O 1232.27 -1.6131 -0.827576 0
M  V30 12525 C 1232.31 -2.54324 2.5564 0
M  V30 12526 O 1231.42 -3.55617 2.0883 0
M  V30 12527 H 1230.76 -0.410154 0.522178 0
M  V30 12528 H 1233.29 -0.712738 1.91784 0
M  V30 12529 H 1233.3 -3.01301 2.75103 0
M  V30 12530 H 1231.97 -2.17675 3.54387 0
M  V30 12531 H 1230.55 -3.15151 1.99335 0
M  V30 12532 N 1232.74 -1.33881 -0.831482 0
M  V30 12533 C 1233.67 -1.27384 -1.95693 0
M  V30 12534 C 1234.65 -0.152943 -1.69411 0
M  V30 12535 O 1235.83 -0.34392 -1.9113 0
M  V30 12536 C 1232.96 -1.01982 -3.31989 0
M  V30 12537 C 1231.92 -2.10445 -3.72689 0
M  V30 12538 C 1231.24 -1.70245 -5.06873 0
M  V30 12539 C 1232.54 -3.52194 -3.8569 0
M  V30 12540 H 1234.24 -2.21549 -2.01386 0
M  V30 12541 H 1231.78 -1.06653 -0.967526 0
M  V30 12542 H 1233.73 -0.960841 -4.103 0
M  V30 12543 H 1232.46 -0.0425709 -3.26572 0
M  V30 12544 H 1231.12 -2.15398 -2.96647 0
M  V30 12545 H 1230.77 -0.712036 -4.97935 0
M  V30 12546 H 1230.47 -2.42834 -5.35075 0
M  V30 12547 H 1231.99 -1.65827 -5.87651 0
M  V30 12548 H 1233.4 -3.49701 -4.54293 0
M  V30 12549 H 1231.8 -4.23331 -4.25336 0
M  V30 12550 H 1232.87 -3.9016 -2.87929 0
M  V30 12551 N 1234.21 1.05064 -1.1747 0
M  V30 12552 C 1235.63 1.30256 -0.922248 0
M  V30 12553 C 1235.83 1.97119 0.417896 0
M  V30 12554 O 1234.89 2.24557 1.15457 0
M  V30 12555 C 1236.2 2.17109 -2.08049 0
M  V30 12556 C 1237.75 2.30487 -2.11766 0
M  V30 12557 C 1238.22 3.20701 -3.26979 0
M  V30 12558 N 1239.71 3.28287 -3.26775 0
M  V30 12559 C 1240.45 3.98218 -4.12565 0
M  V30 12560 N 1239.94 4.70567 -5.08467 0
M  V30 12561 N 1241.74 3.94395 -4.00511 0
M  V30 12562 H 1233.89 0.600653 -2.0373 0
M  V30 12563 H 1236.15 0.327475 -0.889643 0
M  V30 12564 H 1235.86 1.75273 -3.04914 0
M  V30 12565 H 1235.73 3.1775 -2.03261 0
M  V30 12566 H 1238.12 2.71564 -1.15486 0
M  V30 12567 H 1238.2 1.29471 -2.20615 0
M  V30 12568 H 1237.84 2.80337 -4.23525 0
M  V30 12569 H 1237.77 4.21725 -3.15366 0
M  V30 12570 H 1240.26 2.76739 -2.5734 0
M  V30 12571 H 1240.58 5.21492 -5.70321 0
M  V30 12572 H 1238.92 4.69505 -5.12436 0
M  V30 12573 H 1242.11 3.37 -3.24882 0
M  V30 12574 H 1242.29 4.48626 -4.67588 0
M  V30 12575 N 1235.69 0.975146 1.23809 0
M  V30 12576 C 1236.92 0.658605 1.96665 0
M  V30 12577 C 1237.34 -0.766744 1.71763 0
M  V30 12578 O 1236.7 -1.52151 0.985887 0
M  V30 12579 C 1236.75 0.948438 3.47904 0
M  V30 12580 O 1235.85 0.0377241 4.12383 0
M  V30 12581 H 1235.19 0.248231 0.615855 0
M  V30 12582 H 1237.72 1.30732 1.57386 0
M  V30 12583 H 1237.73 0.883 3.9833 0
M  V30 12584 H 1236.41 1.98717 3.65355 0
M  V30 12585 H 1234.98 0.157122 3.72569 0
M  V30 12586 N 1237.17 -1.38817 0.746158 0
M  V30 12587 C 1238.12 -2.30521 0.113517 0
M  V30 12588 C 1239.09 -1.49795 -0.717682 0
M  V30 12589 O 1240.27 -1.78448 -0.675345 0
M  V30 12590 C 1237.41 -3.36185 -0.779343 0
M  V30 12591 C 1236.52 -4.3195 0.0656784 0
M  V30 12592 C 1235.66 -5.24684 -0.829492 0
M  V30 12593 C 1234.7 -6.12097 0.0196112 0
M  V30 12594 N 1233.84 -6.97152 -0.832107 0
M  V30 12595 H 1238.68 -2.84048 0.901136 0
M  V30 12596 H 1236.21 -1.39853 0.456025 0
M  V30 12597 H 1238.17 -3.96048 -1.31156 0
M  V30 12598 H 1236.8 -2.84085 -1.53282 0
M  V30 12599 H 1235.85 -3.73611 0.715445 0
M  V30 12600 H 1237.16 -4.93551 0.721735 0
M  V30 12601 H 1236.32 -5.89627 -1.42915 0
M  V30 12602 H 1235.06 -4.63431 -1.5193 0
M  V30 12603 H 1234.06 -5.46156 0.631991 0
M  V30 12604 H 1235.29 -6.75416 0.706369 0
M  V30 12605 H 1233.23 -6.38456 -1.507 0
M  V30 12606 H 1233.15 -7.55642 -0.232782 0
M  V30 12607 H 1234.42 -7.66513 -1.41697 0
M  V30 12608 N 1238.65 -0.49465 -1.49636 0
M  V30 12609 C 1240.06 -0.0452894 -1.86645 0
M  V30 12610 C 1240.41 1.36686 -1.40753 0
M  V30 12611 O 1239.53 2.01751 -0.78265 0
M  V30 12612 C 1240.13 -0.0754115 -3.38716 0
M  V30 12613 C 1238.69 0.318579 -3.75049 0
M  V30 12614 C 1237.84 -0.450712 -2.73613 0
M  V30 12615 H 1240.79 -0.707758 -1.42044 0
M  V30 12616 H 1240.81 0.721372 -3.73599 0
M  V30 12617 H 1240.32 -1.10331 -3.72087 0
M  V30 12618 H 1238.42 1.34995 -3.47285 0
M  V30 12619 H 1238.53 0.00354416 -4.791 0
M  V30 12620 H 1236.9 0.0986455 -2.54509 0
M  V30 12621 H 1237.68 -1.47857 -3.09828 0
M  V30 12622 N 1240.13 1.55939 -0.228214 0
M  V30 12623 C 1241.35 2.0332 0.409364 0
M  V30 12624 C 1241.78 1.10683 1.52088 0
M  V30 12625 O 1241.13 0.0962484 1.81044 0
M  V30 12626 C 1241.18 3.48877 0.911981 0
M  V30 12627 O 1240.29 3.59378 2.02289 0
M  V30 12628 H 1239.63 0.657625 0.0917909 0
M  V30 12629 H 1242.16 2.01605 -0.348802 0
M  V30 12630 H 1242.17 3.89331 1.22007 0
M  V30 12631 H 1240.84 4.15783 0.0984902 0
M  V30 12632 H 1239.42 3.30815 1.72093 0
M  V30 12633 N 1241.6 -0.0451101 1.57535 0
M  V30 12634 C 1242.83 -0.755068 1.93167 0
M  V30 12635 C 1243.25 -1.68949 0.826915 0
M  V30 12636 O 1242.61 -1.79978 -0.218534 0
M  V30 12637 C 1242.66 -1.50201 3.27829 0
M  V30 12638 O 1241.76 -2.61434 3.18945 0
M  V30 12639 H 1241.11 -0.204219 0.631815 0
M  V30 12640 H 1243.64 -0.00537504 2.04599 0
M  V30 12641 H 1243.65 -1.87547 3.6234 0
M  V30 12642 H 1242.32 -0.816591 4.07805 0
M  V30 12643 H 1240.9 -2.26749 2.96039 0
M  V30 12644 N 1243.08 -1.54377 -0.317073 0
M  V30 12645 C 1244.49 -1.64062 -0.891105 0
M  V30 12646 C 1244.84 -0.538863 -1.88655 0
M  V30 12647 O 1243.97 0.32718 -2.13912 0
M  V30 12648 C 1244.56 -2.97395 -1.62302 0
M  V30 12649 C 1243.12 -3.09253 -2.14568 0
M  V30 12650 C 1242.27 -2.59664 -0.973146 0
M  V30 12651 H 1245.22 -1.58418 -0.0944829 0
M  V30 12652 H 1245.24 -2.87918 -2.48764 0
M  V30 12653 H 1244.75 -3.77562 -0.898268 0
M  V30 12654 H 1242.86 -2.33774 -2.90139 0
M  V30 12655 H 1242.97 -4.15159 -2.39123 0
M  V30 12656 H 1241.33 -2.15719 -1.35416 0
M  V30 12657 H 1242.12 -3.42294 -0.262611 0
M  V30 12658 N 1244.56 0.579466 -1.4656 0
M  V30 12659 C 1245.81 1.33492 -1.51738 0
M  V30 12660 C 1246.13 1.94241 -0.171926 0
M  V30 12661 O 1245.4 1.78737 0.801875 0
M  V30 12662 H 1243.98 0.49565 -0.558874 0
M  V30 12663 H 1246.64 0.678394 -1.82712 0
M  V30 12664 H 1245.74 2.13995 -2.27183 0
M  V30 12665 N 1246.04 1.3432 0.824371 0
M  V30 12666 C 1247.45 1.23855 1.39703 0
M  V30 12667 C 1247.8 -0.136566 1.95724 0
M  V30 12668 O 1246.93 -1.03683 1.89944 0
M  V30 12669 C 1247.52 2.24249 2.53965 0
M  V30 12670 C 1246.08 2.17578 3.07143 0
M  V30 12671 C 1245.23 2.10933 1.80008 0
M  V30 12672 H 1248.18 1.45707 0.628891 0
M  V30 12673 H 1248.2 1.85864 3.32016 0
M  V30 12674 H 1247.71 3.24321 2.13161 0
M  V30 12675 H 1245.81 1.20858 3.52455 0
M  V30 12676 H 1245.92 3.08769 3.66331 0
M  V30 12677 H 1244.29 1.56631 2.00845 0
M  V30 12678 H 1245.07 3.12836 1.4138 0
M  V30 12679 N 1247.52 -1.0444 1.18026 0
M  V30 12680 C 1248.76 -1.77224 0.971391 0
M  V30 12681 C 1249.09 -1.88466 -0.500564 0
M  V30 12682 O 1248.36 -1.40692 -1.36317 0
M  V30 12683 H 1246.94 -0.656485 0.356422 0
M  V30 12684 H 1249.6 -1.26064 1.4864 0
M  V30 12685 H 1248.69 -2.78626 1.4062 0
M  V30 12686 N 1248.99 -0.981699 -1.2329 0
M  V30 12687 C 1250.41 -0.688087 -1.73558 0
M  V30 12688 C 1250.76 0.795633 -1.79344 0
M  V30 12689 O 1249.88 1.62227 -1.43218 0
M  V30 12690 C 1250.48 -1.24235 -3.152 0
M  V30 12691 C 1249.04 -0.998356 -3.62918 0
M  V30 12692 C 1248.18 -1.3693 -2.41134 0
M  V30 12693 H 1251.13 -1.15539 -1.08795 0
M  V30 12694 H 1251.15 -0.61541 -3.7549 0
M  V30 12695 H 1250.67 -2.32223 -3.10957 0
M  V30 12696 H 1248.77 0.0653847 -3.72543 0
M  V30 12697 H 1248.88 -1.65385 -4.49649 0
M  V30 12698 H 1247.24 -0.787773 -2.42211 0
M  V30 12699 H 1248.03 -2.45898 -2.39561 0
M  V30 12700 N 1250.47 1.3842 -0.753509 0
M  V30 12701 C 1251.38 2.34252 -0.127811 0
M  V30 12702 C 1252.4 1.59266 0.700743 0
M  V30 12703 O 1253.57 1.9146 0.624914 0
M  V30 12704 C 1250.64 3.38382 0.754886 0
M  V30 12705 C 1249.7 4.2921 -0.0880312 0
M  V30 12706 C 1248.93 5.28367 0.75263 0
M  V30 12707 O 1249.16 5.34537 1.99064 0
M  V30 12708 O 1248.09 6.01656 0.171475 0
M  V30 12709 H 1251.92 2.89454 -0.91925 0
M  V30 12710 H 1249.5 1.40265 -0.514404 0
M  V30 12711 H 1251.38 4.02141 1.25938 0
M  V30 12712 H 1250.06 2.85536 1.52482 0
M  V30 12713 H 1248.97 3.68611 -0.638468 0
M  V30 12714 H 1250.3 4.85311 -0.82062 0
M  V30 12715 N 1251.95 0.502579 1.49372 0
M  V30 12716 C 1253.2 -0.0432341 2.01654 0
M  V30 12717 C 1253.51 -1.379 1.38719 0
M  V30 12718 O 1254.72 -2.01159 1.82338 0
M  V30 12719 C 1253.17 -0.127509 3.59674 0
M  V30 12720 C 1252.78 1.20171 4.31582 0
M  V30 12721 C 1254.53 -0.623603 4.19895 0
M  V30 12722 C 1252.43 1.07951 5.81464 0
M  V30 12723 H 1251.36 -0.0199308 0.753737 0
M  V30 12724 H 1254.01 0.642237 1.71894 0
M  V30 12725 H 1252.4 -0.877465 3.86156 0
M  V30 12726 H 1253.57 1.96508 4.16799 0
M  V30 12727 H 1251.89 1.63136 3.83113 0
M  V30 12728 H 1254.48 -0.732562 5.29658 0
M  V30 12729 H 1254.83 -1.62282 3.83367 0
M  V30 12730 H 1255.36 0.0698641 3.97739 0
M  V30 12731 H 1252.1 2.05304 6.22519 0
M  V30 12732 H 1251.62 0.357051 5.98736 0
M  V30 12733 H 1253.3 0.758885 6.42534 0
M  V30 12734 N 1253.43 -1.55816 0.23648 0
M  V30 12735 C 1254.38 -2.20938 -0.66745 0
M  V30 12736 C 1255.35 -1.16982 -1.17917 0
M  V30 12737 O 1256.53 -1.45392 -1.23555 0
M  V30 12738 C 1253.67 -2.90469 -1.86337 0
M  V30 12739 C 1252.78 -4.09056 -1.38915 0
M  V30 12740 C 1251.92 -4.6633 -2.54382 0
M  V30 12741 C 1250.96 -5.77187 -2.0377 0
M  V30 12742 N 1250.09 -6.28688 -3.12564 0
M  V30 12743 H 1254.93 -2.97814 -0.105411 0
M  V30 12744 H 1252.47 -1.47045 -0.0402712 0
M  V30 12745 H 1254.43 -3.28975 -2.56576 0
M  V30 12746 H 1253.06 -2.16086 -2.39806 0
M  V30 12747 H 1252.11 -3.75934 -0.581173 0
M  V30 12748 H 1253.42 -4.89115 -0.978152 0
M  V30 12749 H 1252.58 -5.07355 -3.32679 0
M  V30 12750 H 1251.32 -3.85464 -2.98778 0
M  V30 12751 H 1250.32 -5.35648 -1.23939 0
M  V30 12752 H 1251.55 -6.59896 -1.60355 0
M  V30 12753 H 1249.49 -5.50731 -3.56414 0
M  V30 12754 H 1249.41 -7.03911 -2.75762 0
M  V30 12755 H 1250.68 -6.74371 -3.90952 0
M  V30 12756 N 1254.91 0.036755 -1.57557 0
M  V30 12757 C 1255.85 1.05823 -2.07133 0
M  V30 12758 C 1256.85 1.37923 -0.983546 0
M  V30 12759 O 1258.05 1.36918 -1.16848 0
M  V30 12760 H 1254.43 0.358761 -0.660905 0
M  V30 12761 H 1256.4 0.614232 -2.9201 0
M  V30 12762 C 1255.15 2.35302 -2.55985 0
M  V30 12763 H 1254.47 2.11461 -3.393 0
M  V30 12764 H 1255.91 3.05139 -2.94391 0
M  V30 12765 C 1254.37 3.0373 -1.45773 0
M  V30 12766 O 1254.9 3.9325 -0.819587 0
M  V30 12767 N 1253.11 2.64931 -1.19416 0
M  V30 12768 H 1252.65 1.92219 -1.71492 0
M  V30 12769 H 1252.61 3.11033 -0.458865 0
M  V30 12770 N 1256.39 1.54543 0.308881 0
M  V30 12771 C 1257.32 1.87947 1.38557 0
M  V30 12772 C 1258.3 0.737622 1.53275 0
M  V30 12773 O 1259.48 0.992664 1.66913 0
M  V30 12774 C 1256.61 2.11982 2.75102 0
M  V30 12775 C 1255.57 3.2783 2.75158 0
M  V30 12776 C 1254.89 3.37266 4.14917 0
M  V30 12777 C 1256.19 4.65129 2.37598 0
M  V30 12778 H 1257.89 2.78123 1.1085 0
M  V30 12779 H 1255.43 1.3382 0.531808 0
M  V30 12780 H 1257.38 2.33935 3.50503 0
M  V30 12781 H 1256.11 1.18569 3.04317 0
M  V30 12782 H 1254.77 3.05787 2.02212 0
M  V30 12783 H 1254.42 2.41384 4.41296 0
M  V30 12784 H 1254.12 4.15135 4.15857 0
M  V30 12785 H 1255.64 3.61471 4.92109 0
M  V30 12786 H 1257.05 4.86865 3.02714 0
M  V30 12787 H 1255.45 5.45653 2.49765 0
M  V30 12788 H 1256.52 4.6638 1.32731 0
M  V30 12789 N 1257.86 -0.571685 1.46866 0
M  V30 12790 C 1259.14 -1.33216 1.43223 0
M  V30 12791 C 1259.52 -2.1075 0.121495 0
M  V30 12792 O 1258.87 -2.10157 -0.897003 0
M  V30 12793 C 1259.08 -2.24888 2.66882 0
M  V30 12794 C 1260.43 -2.86369 3.13493 0
M  V30 12795 O 1261.45 -2.35197 2.67509 0
M  V30 12796 O 1260.31 -3.79342 3.93398 0
M  V30 12797 H 1257.4 -0.599106 0.570089 0
M  V30 12798 H 1259.95 -0.591788 1.59047 0
M  V30 12799 H 1258.72 -1.67099 3.53827 0
M  V30 12800 H 1258.34 -3.06246 2.53573 0
M  V30 12801 N 1259.34 -1.34755 -0.817236 0
M  V30 12802 C 1260.27 -1.22648 -1.93624 0
M  V30 12803 C 1261.29 -0.152226 -1.62087 0
M  V30 12804 O 1262.48 -0.404578 -1.73855 0
M  V30 12805 C 1259.58 -0.863519 -3.27714 0
M  V30 12806 C 1258.75 -2.03394 -3.87233 0
M  V30 12807 C 1257.81 -1.64846 -4.99712 0
M  V30 12808 O 1256.83 -2.3658 -5.17705 0
M  V30 12809 N 1258.04 -0.565909 -5.77735 0
M  V30 12810 H 1260.8 -2.19051 -2.0454 0
M  V30 12811 H 1258.36 -1.27785 -0.994113 0
M  V30 12812 H 1260.35 -0.58733 -4.00415 0
M  V30 12813 H 1258.92 0.0104987 -3.12598 0
M  V30 12814 H 1258.14 -2.47454 -3.06856 0
M  V30 12815 H 1259.43 -2.81655 -4.23731 0
M  V30 12816 H 1258.83 0.030313 -5.65692 0
M  V30 12817 H 1257.39 -0.349467 -6.50862 0
M  V30 12818 N 1260.82 1.03812 -1.18578 0
M  V30 12819 C 1261.78 2.10049 -0.91718 0
M  V30 12820 C 1262.78 1.60498 0.0985122 0
M  V30 12821 O 1263.97 1.73674 -0.135213 0
M  V30 12822 C 1261.1 3.38813 -0.376599 0
M  V30 12823 H 1262.3 2.3531 -1.85927 0
M  V30 12824 H 1259.85 1.20277 -0.998156 0
M  V30 12825 H 1260.59 3.19216 0.571983 0
M  V30 12826 H 1260.37 3.76096 -1.10881 0
M  V30 12827 H 1261.86 4.17084 -0.207453 0
M  V30 12828 N 1262.3 0.988223 1.22768 0
M  V30 12829 C 1263.54 0.661461 1.91392 0
M  V30 12830 C 1263.87 -0.805942 1.77016 0
M  V30 12831 O 1263.13 -1.5978 1.12999 0
M  V30 12832 C 1263.43 1.00744 3.42907 0
M  V30 12833 C 1263.09 2.46634 3.77469 0
M  V30 12834 C 1261.75 2.86503 3.86613 0
M  V30 12835 C 1264.11 3.41217 3.9398 0
M  V30 12836 C 1261.43 4.19954 4.09702 0
M  V30 12837 C 1263.79 4.74321 4.18572 0
M  V30 12838 C 1262.45 5.13938 4.25939 0
M  V30 12839 H 1261.72 0.242046 0.700353 0
M  V30 12840 H 1264.37 1.24354 1.45631 0
M  V30 12841 H 1262.67 0.34338 3.90292 0
M  V30 12842 H 1264.37 0.732714 3.94249 0
M  V30 12843 H 1260.96 2.14729 3.70931 0
M  V30 12844 H 1265.14 3.11589 3.86298 0
M  V30 12845 H 1260.4 4.50243 4.13631 0
M  V30 12846 H 1264.57 5.47561 4.30291 0
M  V30 12847 H 1262.2 6.17364 4.43583 0
M  V30 12848 N 1263.78 -1.38018 0.760839 0
M  V30 12849 C 1264.71 -2.2899 0.0980916 0
M  V30 12850 C 1265.72 -1.48102 -0.675985 0
M  V30 12851 O 1266.91 -1.70883 -0.515878 0
M  V30 12852 C 1264.01 -3.27142 -0.884959 0
M  V30 12853 C 1263.18 -4.37081 -0.167 0
M  V30 12854 C 1262.24 -5.15375 -1.06184 0
M  V30 12855 O 1261.27 -5.6673 -0.529667 0
M  V30 12856 N 1262.47 -5.29052 -2.38924 0
M  V30 12857 H 1265.23 -2.86508 0.879403 0
M  V30 12858 H 1262.8 -1.49877 0.612245 0
M  V30 12859 H 1264.79 -3.764 -1.48678 0
M  V30 12860 H 1263.36 -2.70471 -1.5673 0
M  V30 12861 H 1262.58 -3.89363 0.615617 0
M  V30 12862 H 1263.87 -5.07732 0.329525 0
M  V30 12863 H 1263.26 -4.88892 -2.84607 0
M  V30 12864 H 1261.82 -5.81658 -2.94139 0
M  V30 12865 N 1265.25 -0.510493 -1.49103 0
M  V30 12866 C 1266.5 0.030689 -2.02777 0
M  V30 12867 C 1266.83 1.35765 -1.38858 0
M  V30 12868 O 1266.11 1.87209 -0.527528 0
M  V30 12869 C 1266.39 0.173261 -3.59683 0
M  V30 12870 C 1266.24 -1.17749 -4.34114 0
M  V30 12871 C 1267.56 0.909395 -4.30602 0
M  V30 12872 H 1264.68 0.0096789 -0.736936 0
M  V30 12873 H 1267.32 -0.663746 -1.78029 0
M  V30 12874 H 1265.47 0.764721 -3.80899 0
M  V30 12875 H 1267.15 -1.80856 -4.24369 0
M  V30 12876 H 1265.39 -1.76438 -3.96298 0
M  V30 12877 H 1266.06 -1.03094 -5.42287 0
M  V30 12878 H 1268.54 0.407677 -4.14098 0
M  V30 12879 H 1267.41 0.978012 -5.40117 0
M  V30 12880 H 1267.67 1.9553 -3.96511 0
M  V30 12881 N 1266.73 1.55688 -0.24474 0
M  V30 12882 C 1267.68 2.21289 0.655723 0
M  V30 12883 C 1268.65 1.17606 1.17295 0
M  V30 12884 O 1269.83 1.46045 1.22782 0
M  V30 12885 C 1266.97 2.91453 1.84794 0
M  V30 12886 C 1266.09 4.09787 1.36744 0
M  V30 12887 C 1265.22 4.67672 2.51905 0
M  V30 12888 C 1264.26 5.78259 2.00706 0
M  V30 12889 N 1263.4 6.30336 3.09225 0
M  V30 12890 H 1268.24 2.97865 0.0896156 0
M  V30 12891 H 1265.77 1.47064 0.0324725 0
M  V30 12892 H 1267.73 3.30331 2.54828 0
M  V30 12893 H 1266.36 2.17355 2.38656 0
M  V30 12894 H 1265.41 3.76237 0.561228 0
M  V30 12895 H 1266.73 4.89627 0.952199 0
M  V30 12896 H 1265.88 5.09113 3.29984 0
M  V30 12897 H 1264.62 3.87044 2.9673 0
M  V30 12898 H 1263.62 5.36298 1.21097 0
M  V30 12899 H 1264.85 6.60737 1.56853 0
M  V30 12900 H 1262.8 5.52614 3.53489 0
M  V30 12901 H 1262.71 7.05364 2.72025 0
M  V30 12902 H 1263.98 6.76435 3.8737 0
M  V30 12903 N 1268.21 -0.0283989 1.57574 0
M  V30 12904 C 1269.16 -1.02881 2.06601 0
M  V30 12905 C 1270.13 -1.35879 0.955308 0
M  V30 12906 O 1271.31 -1.46205 1.22592 0
M  V30 12907 C 1268.45 -2.32447 2.55073 0
M  V30 12908 C 1267.56 -2.05602 3.79937 0
M  V30 12909 C 1266.7 -3.29043 4.17018 0
M  V30 12910 C 1265.74 -2.97755 5.34797 0
M  V30 12911 N 1264.88 -4.1365 5.67308 0
M  V30 12912 H 1269.72 -0.603772 2.91819 0
M  V30 12913 H 1267.25 -0.286503 1.44283 0
M  V30 12914 H 1269.21 -3.08152 2.81244 0
M  V30 12915 H 1267.84 -2.72672 1.72771 0
M  V30 12916 H 1266.89 -1.2039 3.60847 0
M  V30 12917 H 1268.2 -1.78522 4.65759 0
M  V30 12918 H 1267.36 -4.13115 4.4432 0
M  V30 12919 H 1266.1 -3.59237 3.29849 0
M  V30 12920 H 1265.1 -2.12085 5.07247 0
M  V30 12921 H 1266.33 -2.68839 6.23621 0
M  V30 12922 H 1264.27 -4.43794 4.83097 0
M  V30 12923 H 1264.19 -3.89996 6.47641 0
M  V30 12924 H 1265.46 -4.98594 5.99186 0
M  V30 12925 N 1269.69 -1.54705 -0.300681 0
M  V30 12926 C 1271.1 -1.64998 -0.873654 0
M  V30 12927 C 1271.45 -0.558842 -1.88073 0
M  V30 12928 O 1270.57 0.304474 -2.14247 0
M  V30 12929 C 1271.17 -2.99099 -1.59138 0
M  V30 12930 C 1269.73 -3.11512 -2.11276 0
M  V30 12931 C 1268.88 -2.60681 -0.945551 0
M  V30 12932 H 1271.83 -1.5851 -0.0776752 0
M  V30 12933 H 1271.85 -2.9054 -2.45696 0
M  V30 12934 H 1271.36 -3.78493 -0.858172 0
M  V30 12935 H 1269.46 -2.36838 -2.87643 0
M  V30 12936 H 1269.57 -4.17672 -2.34707 0
M  V30 12937 H 1267.94 -2.17143 -1.33121 0
M  V30 12938 H 1268.72 -3.42553 -0.226291 0
M  V30 12939 N 1271.17 0.563888 -1.47167 0
M  V30 12940 C 1272.58 1.14603 -1.47388 0
M  V30 12941 C 1272.93 1.94907 -0.224916 0
M  V30 12942 O 1272.05 2.05745 0.670672 0
M  V30 12943 C 1272.65 2.08501 -2.67044 0
M  V30 12944 C 1271.21 2.62 -2.70246 0
M  V30 12945 C 1270.35 1.38244 -2.40383 0
M  V30 12946 H 1273.31 0.350833 -1.54774 0
M  V30 12947 H 1273.33 2.92272 -2.43634 0
M  V30 12948 H 1272.84 1.50027 -3.57929 0
M  V30 12949 H 1270.94 3.24292 -1.83482 0
M  V30 12950 H 1271.05 3.0345 -3.70749 0
M  V30 12951 H 1269.42 1.68692 -1.90827 0
M  V30 12952 H 1270.2 0.815726 -3.33468 0
M  V30 12953 N 1272.64 1.35187 0.810078 0
M  V30 12954 C 1273.89 1.28011 1.56389 0
M  V30 12955 C 1274.21 -0.14622 1.94451 0
M  V30 12956 O 1273.48 -1.08185 1.63318 0
M  V30 12957 H 1272.06 0.470837 0.579932 0
M  V30 12958 H 1274.73 1.69249 0.966476 0
M  V30 12959 H 1273.82 1.89362 2.4809 0
M  V30 12960 N 1274.12 -1.03182 1.19127 0
M  V30 12961 C 1275.05 -2.11462 0.884098 0
M  V30 12962 C 1276.07 -1.62342 -0.121984 0
M  V30 12963 O 1277.26 -1.78179 0.107038 0
M  V30 12964 C 1274.36 -3.37559 0.301227 0
M  V30 12965 C 1273.53 -4.15878 1.35514 0
M  V30 12966 C 1272.59 -5.20291 0.786349 0
M  V30 12967 O 1271.61 -5.50069 1.46331 0
M  V30 12968 N 1272.82 -5.79038 -0.411803 0
M  V30 12969 H 1275.58 -2.38405 1.81613 0
M  V30 12970 H 1273.14 -1.19449 1.09287 0
M  V30 12971 H 1275.13 -4.04593 -0.0930685 0
M  V30 12972 H 1273.7 -3.07987 -0.535022 0
M  V30 12973 H 1272.92 -3.44036 1.9244 0
M  V30 12974 H 1274.21 -4.64993 2.06539 0
M  V30 12975 H 1273.61 -5.57158 -0.979353 0
M  V30 12976 H 1272.17 -6.47495 -0.747912 0
M  V30 12977 N 1275.6 -0.99472 -1.22242 0
M  V30 12978 C 1276.56 -0.551619 -2.22463 0
M  V30 12979 C 1277.56 0.366498 -1.56568 0
M  V30 12980 O 1278.75 0.158204 -1.7348 0
M  V30 12981 C 1275.89 0.197416 -3.40328 0
M  V30 12982 H 1277.08 -1.43795 -2.63179 0
M  V30 12983 H 1274.63 -0.782121 -1.35324 0
M  V30 12984 H 1275.37 1.09965 -3.05087 0
M  V30 12985 H 1275.15 -0.461829 -3.89371 0
M  V30 12986 H 1276.64 0.495534 -4.1465 0
M  V30 12987 N 1277.08 1.37613 -0.768148 0
M  V30 12988 C 1278.32 2.00075 -0.331331 0
M  V30 12989 C 1278.66 1.60839 1.08833 0
M  V30 12990 O 1277.93 0.852849 1.74805 0
M  V30 12991 C 1278.22 3.57009 -0.470789 0
M  V30 12992 C 1278.07 4.06166 -1.9326 0
M  V30 12993 C 1279.39 4.39916 0.127111 0
M  V30 12994 H 1276.51 0.726855 -0.121864 0
M  V30 12995 H 1279.15 1.63343 -0.970518 0
M  V30 12996 H 1277.3 3.88431 0.0733688 0
M  V30 12997 H 1278.97 3.85325 -2.53618 0
M  V30 12998 H 1277.21 3.58492 -2.44266 0
M  V30 12999 H 1277.88 5.15219 -1.98125 0
M  V30 13000 H 1280.36 4.14732 -0.337144 0
M  V30 13001 H 1279.24 5.489 -0.000624226 0
M  V30 13002 H 1279.5 4.25018 1.21704 0
M  V30 13003 N 1278.56 0.518393 1.4883 0
M  V30 13004 C 1279.97 0.0749773 1.86549 0
M  V30 13005 C 1280.32 -1.34429 1.4291 0
M  V30 13006 O 1279.44 -2.00481 0.814648 0
M  V30 13007 C 1280.04 0.129289 3.38553 0
M  V30 13008 C 1278.6 -0.258871 3.75509 0
M  V30 13009 C 1277.74 0.494185 2.72861 0
M  V30 13010 H 1280.7 0.730266 1.409 0
M  V30 13011 H 1280.72 -0.661844 3.747 0
M  V30 13012 H 1280.23 1.16237 3.70285 0
M  V30 13013 H 1278.33 -1.29453 3.49389 0
M  V30 13014 H 1278.44 0.0726769 4.79045 0
M  V30 13015 H 1276.81 -0.0581428 2.54634 0
M  V30 13016 H 1277.59 1.52767 3.07436 0
M  V30 13017 N 1280.03 -1.55556 0.252993 0
M  V30 13018 C 1280.97 -2.18978 -0.676837 0
M  V30 13019 C 1281.98 -1.16788 -1.13421 0
M  V30 13020 O 1283.17 -1.43623 -1.05993 0
M  V30 13021 C 1280.27 -2.78404 -1.93248 0
M  V30 13022 C 1279.44 -4.06072 -1.62555 0
M  V30 13023 C 1278.5 -4.49757 -2.7314 0
M  V30 13024 O 1277.53 -5.16005 -2.40266 0
M  V30 13025 N 1278.73 -4.18049 -4.0276 0
M  V30 13026 H 1281.49 -2.994 -0.134142 0
M  V30 13027 H 1279.05 -1.61734 0.0731965 0
M  V30 13028 H 1281.05 -3.04583 -2.6648 0
M  V30 13029 H 1279.62 -2.02104 -2.3848 0
M  V30 13030 H 1278.84 -3.87417 -0.728115 0
M  V30 13031 H 1280.12 -4.89297 -1.39521 0
M  V30 13032 H 1279.52 -3.64876 -4.32298 0
M  V30 13033 H 1278.08 -4.4905 -4.72438 0
M  V30 13034 N 1281.51 0.0200419 -1.57587 0
M  V30 13035 C 1282.76 0.710078 -1.89962 0
M  V30 13036 C 1283.09 1.74521 -0.851829 0
M  V30 13037 O 1282.37 1.94052 0.132005 0
M  V30 13038 C 1282.65 1.37145 -3.32961 0
M  V30 13039 C 1282.5 0.349221 -4.48442 0
M  V30 13040 C 1283.82 2.30304 -3.75031 0
M  V30 13041 H 1280.94 0.25667 -0.690862 0
M  V30 13042 H 1283.58 -0.0271362 -1.89981 0
M  V30 13043 H 1281.73 1.99981 -3.33076 0
M  V30 13044 H 1283.4 -0.277916 -4.60462 0
M  V30 13045 H 1281.65 -0.330594 -4.32538 0
M  V30 13046 H 1282.32 0.850636 -5.45406 0
M  V30 13047 H 1284.79 1.77503 -3.7634 0
M  V30 13048 H 1283.67 2.73555 -4.75877 0
M  V30 13049 H 1283.93 3.17364 -3.07786 0
M  V30 13050 N 1282.99 1.54862 0.292472 0
M  V30 13051 C 1284.4 1.65459 0.864891 0
M  V30 13052 C 1284.75 0.568808 1.87774 0
M  V30 13053 O 1283.88 -0.293107 2.14406 0
M  V30 13054 C 1284.47 2.99939 1.5755 0
M  V30 13055 C 1283.03 3.12628 2.09621 0
M  V30 13056 C 1282.18 2.61179 0.931713 0
M  V30 13057 H 1285.13 1.58549 0.0692679 0
M  V30 13058 H 1285.15 2.91839 2.44152 0
M  V30 13059 H 1284.66 3.78943 0.838088 0
M  V30 13060 H 1282.76 2.3836 2.86383 0
M  V30 13061 H 1282.88 4.18911 2.32488 0
M  V30 13062 H 1281.24 2.17846 1.31967 0
M  V30 13063 H 1282.02 3.42669 0.208121 0
M  V30 13064 N 1284.47 -0.556076 1.47464 0
M  V30 13065 C 1285.71 -1.31515 1.54375 0
M  V30 13066 C 1286.05 -1.93106 0.205837 0
M  V30 13067 O 1285.32 -1.77927 -0.785643 0
M  V30 13068 C 1285.61 -2.4244 2.66261 0
M  V30 13069 C 1285.46 -1.8571 4.09673 0
M  V30 13070 C 1286.78 -3.4436 2.74051 0
M  V30 13071 H 1283.9 -0.476817 0.561974 0
M  V30 13072 H 1286.54 -0.622157 1.79525 0
M  V30 13073 H 1284.69 -3.01551 2.44948 0
M  V30 13074 H 1286.36 -1.30851 4.42353 0
M  V30 13075 H 1284.6 -1.16379 4.17898 0
M  V30 13076 H 1285.27 -2.65904 4.83735 0
M  V30 13077 H 1287.75 -2.95169 2.93282 0
M  V30 13078 H 1286.63 -4.194 3.54111 0
M  V30 13079 H 1286.89 -4.03281 1.81155 0
M  V30 13080 N 1285.95 -1.35615 -0.802897 0
M  V30 13081 C 1287.2 -1.28428 -1.55528 0
M  V30 13082 C 1287.51 0.138275 -1.95111 0
M  V30 13083 O 1288.72 0.332435 -2.69457 0
M  V30 13084 C 1287.17 -2.25251 -2.80696 0
M  V30 13085 C 1286.78 -3.72871 -2.48336 0
M  V30 13086 C 1288.52 -2.27014 -3.58699 0
M  V30 13087 C 1286.43 -4.61507 -3.69817 0
M  V30 13088 H 1285.36 -0.47718 -0.583794 0
M  V30 13089 H 1288.01 -1.609 -0.882238 0
M  V30 13090 H 1286.39 -1.85755 -3.4973 0
M  V30 13091 H 1287.57 -4.21024 -1.87285 0
M  V30 13092 H 1285.88 -3.73752 -1.83571 0
M  V30 13093 H 1288.48 -2.90451 -4.48935 0
M  V30 13094 H 1288.82 -1.27491 -3.96298 0
M  V30 13095 H 1289.36 -2.65058 -2.9663 0
M  V30 13096 H 1286.09 -5.62043 -3.37324 0
M  V30 13097 H 1285.61 -4.18079 -4.30081 0
M  V30 13098 H 1287.29 -4.77113 -4.37004 0
M  V30 13099 N 1287.43 1.02549 -1.19673 0
M  V30 13100 C 1288.36 2.10991 -0.8953 0
M  V30 13101 C 1289.37 1.62405 0.113373 0
M  V30 13102 O 1290.56 1.7812 -0.116485 0
M  V30 13103 C 1287.66 3.37394 -0.319124 0
M  V30 13104 C 1286.83 4.15154 -1.37718 0
M  V30 13105 C 1285.89 5.19867 -0.81393 0
M  V30 13106 O 1284.92 5.49285 -1.49246 0
M  V30 13107 N 1286.12 5.79248 0.381089 0
M  V30 13108 H 1288.88 2.37438 -1.82875 0
M  V30 13109 H 1286.45 1.18867 -1.09919 0
M  V30 13110 H 1288.44 4.04637 0.0716106 0
M  V30 13111 H 1287.01 3.08267 0.518681 0
M  V30 13112 H 1286.23 3.4301 -1.94262 0
M  V30 13113 H 1287.52 4.63892 -2.09003 0
M  V30 13114 H 1286.91 5.5767 0.949791 0
M  V30 13115 H 1285.47 6.47882 0.713563 0
M  V30 13116 N 1288.9 1.00119 1.21713 0
M  V30 13117 C 1289.83 0.578504 2.2622 0
M  V30 13118 C 1290.81 -0.398777 1.6536 0
M  V30 13119 O 1292 -0.287596 1.92059 0
M  V30 13120 C 1289.13 -0.0994508 3.47158 0
M  V30 13121 C 1288.08 0.79722 4.2051 0
M  V30 13122 C 1287.41 -0.0141125 5.34698 0
M  V30 13123 C 1288.71 2.09802 4.7831 0
M  V30 13124 H 1290.4 1.45208 2.6183 0
M  V30 13125 H 1287.95 0.699656 1.2586 0
M  V30 13126 H 1289.9 -0.406605 4.19434 0
M  V30 13127 H 1288.63 -1.00763 3.10667 0
M  V30 13128 H 1287.29 1.08814 3.50079 0
M  V30 13129 H 1286.93 -0.923468 4.9445 0
M  V30 13130 H 1286.63 0.582883 5.84702 0
M  V30 13131 H 1288.16 -0.31517 6.09786 0
M  V30 13132 H 1289.57 1.85427 5.42485 0
M  V30 13133 H 1287.97 2.64455 5.38687 0
M  V30 13134 H 1289.04 2.77132 3.97902 0
M  V30 13135 N 1290.38 -1.37203 0.775435 0
M  V30 13136 C 1291.63 -1.99601 0.341431 0
M  V30 13137 C 1291.96 -1.61555 -1.08306 0
M  V30 13138 O 1291.21 -0.855126 -1.76029 0
M  V30 13139 C 1291.51 -3.54725 0.436426 0
M  V30 13140 C 1291.18 -4.1255 1.8197 0
M  V30 13141 C 1289.84 -4.28056 2.19822 0
M  V30 13142 C 1292.19 -4.44222 2.7261 0
M  V30 13143 C 1289.52 -4.72538 3.47742 0
M  V30 13144 C 1291.87 -4.90131 3.99943 0
M  V30 13145 C 1290.53 -5.03842 4.37835 0
M  V30 13146 H 1289.8 -0.730391 0.124938 0
M  V30 13147 H 1292.45 -1.63914 0.990177 0
M  V30 13148 H 1290.76 -3.90681 -0.295852 0
M  V30 13149 H 1292.45 -4.00916 0.0818664 0
M  V30 13150 H 1289.04 -4.00911 1.51553 0
M  V30 13151 H 1293.23 -4.31824 2.44625 0
M  V30 13152 H 1288.48 -4.81341 3.76989 0
M  V30 13153 H 1292.66 -5.13604 4.70302 0
M  V30 13154 H 1290.28 -5.3807 5.37015 0
M  V30 13155 N 1291.86 -0.526279 -1.48553 0
M  V30 13156 C 1292.81 0.238513 -2.29564 0
M  V30 13157 C 1293.78 0.937222 -1.37133 0
M  V30 13158 O 1294.96 0.93897 -1.66096 0
M  V30 13159 C 1292.1 1.28173 -3.20415 0
M  V30 13160 C 1291.21 0.592244 -4.27921 0
M  V30 13161 C 1290.35 1.61808 -5.05956 0
M  V30 13162 C 1289.39 0.911846 -6.0527 0
M  V30 13163 N 1288.53 1.88305 -6.76377 0
M  V30 13164 H 1293.37 -0.458502 -2.94452 0
M  V30 13165 H 1290.9 -0.237948 -1.45163 0
M  V30 13166 H 1292.86 1.89883 -3.71484 0
M  V30 13167 H 1291.49 1.94718 -2.57458 0
M  V30 13168 H 1290.54 -0.138714 -3.80147 0
M  V30 13169 H 1291.85 0.0375427 -4.98786 0
M  V30 13170 H 1291.01 2.30956 -5.61021 0
M  V30 13171 H 1289.75 2.20667 -4.34922 0
M  V30 13172 H 1288.75 0.206273 -5.49413 0
M  V30 13173 H 1289.98 0.329415 -6.78301 0
M  V30 13174 H 1287.92 2.46079 -6.08096 0
M  V30 13175 H 1287.84 1.37969 -7.43304 0
M  V30 13176 H 1289.11 2.56663 -7.36033 0
M  V30 13177 N 1293.34 1.5542 -0.261239 0
M  V30 13178 C 1294.3 2.20683 0.619011 0
M  V30 13179 C 1295.3 1.18042 1.09192 0
M  V30 13180 O 1296.49 1.43035 0.99432 0
M  V30 13181 C 1293.62 2.86179 1.85242 0
M  V30 13182 H 1294.82 2.99859 0.0493924 0
M  V30 13183 H 1292.37 1.56296 -0.0117687 0
M  V30 13184 H 1293.1 2.10978 2.4629 0
M  V30 13185 H 1292.89 3.61381 1.52138 0
M  V30 13186 H 1294.38 3.36081 2.47869 0
M  V30 13187 N 1294.82 -0.0116844 1.57596 0
M  V30 13188 C 1295.75 -1.00599 2.10718 0
M  V30 13189 C 1296.73 -1.36601 1.01362 0
M  V30 13190 O 1297.91 -1.4518 1.28982 0
M  V30 13191 C 1295.04 -2.30155 2.60089 0
M  V30 13192 C 1294 -2.08347 3.73866 0
M  V30 13193 C 1293.32 -3.43814 4.09507 0
M  V30 13194 C 1294.62 -1.45552 5.01609 0
M  V30 13195 H 1296.32 -0.563721 2.94045 0
M  V30 13196 H 1293.86 -0.269714 1.41452 0
M  V30 13197 H 1295.81 -3.00058 2.95877 0
M  V30 13198 H 1294.54 -2.76473 1.73868 0
M  V30 13199 H 1293.2 -1.40872 3.38453 0
M  V30 13200 H 1292.85 -3.87814 3.20326 0
M  V30 13201 H 1292.55 -3.30043 4.86154 0
M  V30 13202 H 1294.07 -4.15052 4.47844 0
M  V30 13203 H 1295.48 -2.05396 5.35243 0
M  V30 13204 H 1293.88 -1.42304 5.82983 0
M  V30 13205 H 1294.95 -0.423331 4.83049 0
M  V30 13206 N 1296.29 -1.55015 -0.284256 0
M  V30 13207 C 1297.24 -1.87122 -1.35107 0
M  V30 13208 C 1298.21 -0.721638 -1.49605 0
M  V30 13209 O 1299.4 -0.971855 -1.64194 0
M  V30 13210 C 1296.54 -2.1388 -2.70831 0
M  V30 13211 C 1295.65 -3.41447 -2.64647 0
M  V30 13212 C 1294.78 -3.57961 -3.92476 0
M  V30 13213 C 1293.82 -4.79261 -3.80757 0
M  V30 13214 N 1292.96 -4.92492 -5.00395 0
M  V30 13215 H 1297.8 -2.78117 -1.07027 0
M  V30 13216 H 1295.34 -1.37704 -0.517311 0
M  V30 13217 H 1297.29 -2.27391 -3.49784 0
M  V30 13218 H 1295.92 -1.26132 -2.97137 0
M  V30 13219 H 1294.98 -3.36467 -1.77466 0
M  V30 13220 H 1296.29 -4.3053 -2.51884 0
M  V30 13221 H 1295.44 -3.71229 -4.79868 0
M  V30 13222 H 1294.18 -2.67042 -4.08093 0
M  V30 13223 H 1293.19 -4.66008 -2.91747 0
M  V30 13224 H 1294.41 -5.71604 -3.66669 0
M  V30 13225 H 1292.36 -4.04501 -5.16445 0
M  V30 13226 H 1292.27 -5.75603 -4.9012 0
M  V30 13227 H 1293.54 -5.10134 -5.89392 0
M  V30 13228 N 1297.77 0.548248 -1.47757 0
M  V30 13229 C 1298.7 1.66999 -1.56984 0
M  V30 13230 C 1299.72 1.56302 -0.455372 0
M  V30 13231 O 1300.91 1.63096 -0.725399 0
M  V30 13232 C 1298.01 3.0553 -1.46645 0
M  V30 13233 C 1297.18 3.41892 -2.72816 0
M  V30 13234 C 1296.24 4.59624 -2.56187 0
M  V30 13235 O 1295.26 4.63757 -3.30028 0
M  V30 13236 N 1296.47 5.56675 -1.64601 0
M  V30 13237 H 1299.23 1.59527 -2.53715 0
M  V30 13238 H 1296.79 0.735101 -1.44249 0
M  V30 13239 H 1298.78 3.82137 -1.33242 0
M  V30 13240 H 1297.35 3.0718 -0.57961 0
M  V30 13241 H 1296.57 2.54644 -3.00916 0
M  V30 13242 H 1297.86 3.62965 -3.56559 0
M  V30 13243 H 1297.26 5.561 -1.03778 0
M  V30 13244 H 1295.82 6.32573 -1.57146 0
M  V30 13245 N 1299.25 1.36039 0.795694 0
M  V30 13246 C 1300.18 1.25713 1.91648 0
M  V30 13247 C 1301.19 0.177993 1.61824 0
M  V30 13248 O 1302.38 0.432186 1.73189 0
M  V30 13249 C 1299.48 0.915546 3.26299 0
M  V30 13250 C 1298.66 2.09528 3.83949 0
M  V30 13251 C 1297.72 1.72775 4.97026 0
M  V30 13252 O 1296.74 2.44786 5.13876 0
M  V30 13253 N 1297.94 0.65775 5.76762 0
M  V30 13254 H 1300.71 2.22277 2.01029 0
M  V30 13255 H 1298.27 1.2935 0.973657 0
M  V30 13256 H 1300.26 0.650958 3.9943 0
M  V30 13257 H 1298.83 0.0392343 3.12575 0
M  V30 13258 H 1298.05 2.52304 3.0288 0
M  V30 13259 H 1299.34 2.88361 4.19196 0
M  V30 13260 H 1298.74 0.0596875 5.65669 0
M  V30 13261 H 1297.29 0.45297 6.50224 0
M  V30 13262 N 1300.73 -1.01913 1.20215 0
M  V30 13263 C 1302.01 -1.7262 0.919867 0
M  V30 13264 C 1302.39 -2.03203 -0.572001 0
M  V30 13265 O 1301.73 -1.69448 -1.53296 0
M  V30 13266 C 1301.94 -2.9959 1.79016 0
M  V30 13267 C 1303.29 -3.72905 2.03045 0
M  V30 13268 O 1304.32 -3.0954 1.76249 0
M  V30 13269 O 1303.17 -4.86844 2.48285 0
M  V30 13270 H 1300.27 -0.752194 0.343705 0
M  V30 13271 H 1302.81 -1.07783 1.31076 0
M  V30 13272 H 1301.59 -2.73292 2.80048 0
M  V30 13273 H 1301.21 -3.72168 1.39918 0
M  V30 13274 N 1302.21 -1.00763 -1.2118 0
M  V30 13275 C 1303.44 -0.709715 -1.94027 0
M  V30 13276 C 1303.84 0.732135 -1.7446 0
M  V30 13277 O 1303.19 1.50731 -1.05004 0
M  V30 13278 C 1303.25 -0.95427 -3.46603 0
M  V30 13279 C 1302.91 -2.38347 -3.89923 0
M  V30 13280 C 1303.91 -3.36383 -3.96412 0
M  V30 13281 C 1301.6 -2.72183 -4.22163 0
M  V30 13282 C 1303.59 -4.66321 -4.34538 0
M  V30 13283 C 1301.28 -4.02336 -4.59966 0
M  V30 13284 C 1302.27 -4.99216 -4.66125 0
M  V30 13285 O 1301.96 -6.27041 -5.03065 0
M  V30 13286 H 1301.69 -0.260545 -0.623773 0
M  V30 13287 H 1304.25 -1.34922 -1.54872 0
M  V30 13288 H 1302.48 -0.257599 -3.85841 0
M  V30 13289 H 1304.17 -0.649333 -4.00673 0
M  V30 13290 H 1304.93 -3.11578 -3.71677 0
M  V30 13291 H 1300.81 -1.97468 -4.16566 0
M  V30 13292 H 1304.36 -5.41938 -4.3926 0
M  V30 13293 H 1300.25 -4.26924 -4.84155 0
M  V30 13294 H 1301.02 -6.31196 -5.21089 0
M  V30 13295 N 1303.68 1.3679 -0.7827 0
M  V30 13296 C 1304.61 2.32721 -0.190604 0
M  V30 13297 C 1305.6 1.56321 0.670663 0
M  V30 13298 O 1306.78 1.84507 0.605871 0
M  V30 13299 C 1303.91 3.40564 0.680717 0
M  V30 13300 C 1302.86 4.27925 -0.080118 0
M  V30 13301 C 1302.19 5.26876 0.911361 0
M  V30 13302 C 1303.49 5.06738 -1.26545 0
M  V30 13303 H 1305.18 2.82488 -0.992023 0
M  V30 13304 H 1302.73 1.35818 -0.478484 0
M  V30 13305 H 1304.68 4.06659 1.10482 0
M  V30 13306 H 1303.41 2.89348 1.51477 0
M  V30 13307 H 1302.07 3.63376 -0.485125 0
M  V30 13308 H 1301.71 4.71936 1.74026 0
M  V30 13309 H 1301.41 5.8619 0.406762 0
M  V30 13310 H 1302.94 5.95846 1.33418 0
M  V30 13311 H 1304.35 5.65911 -0.917448 0
M  V30 13312 H 1302.75 5.75432 -1.70289 0
M  V30 13313 H 1303.82 4.38772 -2.06415 0
M  V30 13314 N 1305.16 0.53415 1.48272 0
M  V30 13315 C 1306.39 0.00368464 2.074 0
M  V30 13316 C 1306.81 -1.27003 1.38751 0
M  V30 13317 O 1306.17 -1.75502 0.454817 0
M  V30 13318 C 1306.22 -0.199034 3.6005 0
M  V30 13319 O 1305.32 -1.26679 3.92462 0
M  V30 13320 H 1304.66 0.0409936 0.662733 0
M  V30 13321 H 1307.19 0.743253 1.90622 0
M  V30 13322 H 1307.2 -0.420404 4.05828 0
M  V30 13323 H 1305.88 0.731391 4.09418 0
M  V30 13324 H 1304.46 -1.02775 3.58457 0
M  V30 13325 N 1306.64 -1.55279 0.269478 0
M  V30 13326 C 1307.57 -2.25278 -0.614188 0
M  V30 13327 C 1308.55 -1.24092 -1.1634 0
M  V30 13328 O 1309.74 -1.52799 -1.19858 0
M  V30 13329 C 1306.87 -2.96956 -1.80096 0
M  V30 13330 C 1305.82 -4.05021 -1.38353 0
M  V30 13331 C 1305.15 -4.64244 -2.65295 0
M  V30 13332 C 1306.45 -5.19523 -0.537886 0
M  V30 13333 H 1308.14 -2.99385 -0.0304397 0
M  V30 13334 H 1305.69 -1.43994 -0.0132004 0
M  V30 13335 H 1307.64 -3.44633 -2.42499 0
M  V30 13336 H 1306.36 -2.20374 -2.41045 0
M  V30 13337 H 1305.02 -3.58146 -0.78273 0
M  V30 13338 H 1304.67 -3.84337 -3.2449 0
M  V30 13339 H 1304.37 -5.37208 -2.38079 0
M  V30 13340 H 1305.89 -5.14668 -3.28557 0
M  V30 13341 H 1307.31 -5.63287 -1.06677 0
M  V30 13342 H 1305.71 -5.99014 -0.360845 0
M  V30 13343 H 1306.78 -4.82857 0.444672 0
M  V30 13344 N 1308.12 0.00332656 -1.576 0
M  V30 13345 C 1309.53 0.546581 -1.7852 0
M  V30 13346 C 1309.88 1.74147 -0.903722 0
M  V30 13347 O 1309.01 2.16144 -0.105314 0
M  V30 13348 C 1309.6 0.998344 -3.23757 0
M  V30 13349 C 1308.16 1.48693 -3.45785 0
M  V30 13350 C 1307.31 0.436617 -2.73841 0
M  V30 13351 H 1310.26 -0.222852 -1.57128 0
M  V30 13352 H 1310.28 1.86452 -3.31686 0
M  V30 13353 H 1309.79 0.128479 -3.87887 0
M  V30 13354 H 1307.89 2.3778 -2.86865 0
M  V30 13355 H 1308 1.51668 -4.5446 0
M  V30 13356 H 1306.37 0.897506 -2.38363 0
M  V30 13357 H 1307.15 -0.424225 -3.40669 0
M  V30 13358 N 1309.6 1.55164 0.276031 0
M  V30 13359 C 1311.01 1.66367 0.847293 0
M  V30 13360 C 1311.36 0.588692 1.8716 0
M  V30 13361 O 1310.48 -0.27035 2.14705 0
M  V30 13362 C 1311.08 3.01593 1.5436 0
M  V30 13363 C 1309.64 3.14833 2.06293 0
M  V30 13364 C 1308.78 2.62152 0.903959 0
M  V30 13365 H 1311.74 1.58613 0.0524478 0
M  V30 13366 H 1311.76 2.94412 2.41043 0
M  V30 13367 H 1311.27 3.7981 0.797849 0
M  V30 13368 H 1309.37 2.41384 2.83839 0
M  V30 13369 H 1309.48 4.21353 2.28032 0
M  V30 13370 H 1307.85 2.19233 1.29649 0
M  V30 13371 H 1308.63 3.4287 0.171765 0
M  V30 13372 N 1311.07 -0.540404 1.48045 0
M  V30 13373 C 1312.32 -1.29628 1.56742 0
M  V30 13374 C 1312.68 -1.90975 0.233761 0
M  V30 13375 O 1311.97 -1.75781 -0.762333 0
M  V30 13376 C 1312.16 -2.41517 2.63447 0
M  V30 13377 C 1311.99 -1.91137 4.07059 0
M  V30 13378 C 1310.76 -1.74214 4.74318 0
M  V30 13379 C 1312.96 -1.44598 4.93554 0
M  V30 13380 N 1310.94 -1.1835 6.02384 0
M  V30 13381 C 1312.31 -1.00612 6.11782 0
M  V30 13382 C 1314.37 -1.32805 4.79862 0
M  V30 13383 C 1313.07 -0.460024 7.17827 0
M  V30 13384 C 1315.1 -0.795956 5.86019 0
M  V30 13385 C 1314.46 -0.36611 7.03448 0
M  V30 13386 H 1310.56 -0.46575 0.628173 0
M  V30 13387 H 1313.14 -0.610609 1.84877 0
M  V30 13388 H 1311.31 -3.07594 2.37151 0
M  V30 13389 H 1313.04 -3.08539 2.61889 0
M  V30 13390 H 1309.8 -1.97429 4.30487 0
M  V30 13391 H 1310.22 -0.924579 6.70657 0
M  V30 13392 H 1314.87 -1.64645 3.89425 0
M  V30 13393 H 1312.58 -0.129275 8.07997 0
M  V30 13394 H 1316.17 -0.708026 5.77476 0
M  V30 13395 H 1315.05 0.0392247 7.8419 0
M  V30 13396 N 1312.55 -1.36459 -0.788468 0
M  V30 13397 C 1313.46 -1.33017 -1.93245 0
M  V30 13398 C 1314.48 -0.232212 -1.72444 0
M  V30 13399 O 1315.65 -0.464743 -1.95965 0
M  V30 13400 C 1312.72 -1.1197 -3.28121 0
M  V30 13401 C 1311.78 -2.3125 -3.61693 0
M  V30 13402 C 1311.01 -2.11197 -4.90134 0
M  V30 13403 O 1311.24 -1.08764 -5.59934 0
M  V30 13404 O 1310.17 -2.98996 -5.22384 0
M  V30 13405 H 1314 -2.29333 -1.99098 0
M  V30 13406 H 1311.58 -1.17016 -0.928856 0
M  V30 13407 H 1313.46 -1.02154 -4.08831 0
M  V30 13408 H 1312.14 -0.187171 -3.23158 0
M  V30 13409 H 1311.05 -2.46635 -2.81286 0
M  V30 13410 H 1312.38 -3.23012 -3.71381 0
M  V30 13411 N 1314.03 1.01274 -1.20754 0
M  V30 13412 C 1315.28 1.75191 -1.02156 0
M  V30 13413 C 1315.61 1.89038 0.444791 0
M  V30 13414 O 1314.88 1.41903 1.33018 0
M  V30 13415 C 1315.17 3.16892 -1.71031 0
M  V30 13416 C 1315.02 3.10816 -3.25136 0
M  V30 13417 C 1316.34 4.15648 -1.44654 0
M  V30 13418 H 1313.46 0.635922 -0.372521 0
M  V30 13419 H 1316.1 1.18119 -1.48822 0
M  V30 13420 H 1314.25 3.6562 -1.31357 0
M  V30 13421 H 1315.92 2.69863 -3.74128 0
M  V30 13422 H 1314.17 2.48113 -3.5584 0
M  V30 13423 H 1314.84 4.11001 -3.68487 0
M  V30 13424 H 1317.31 3.75592 -1.7908 0
M  V30 13425 H 1316.19 5.12954 -1.95371 0
M  V30 13426 H 1316.45 4.40507 -0.37494 0
M  V30 13427 N 1315.51 1.01404 1.20644 0
M  V30 13428 C 1316.46 0.575388 2.25371 0
M  V30 13429 C 1317.45 -0.384598 1.64976 0
M  V30 13430 O 1318.66 -0.2548 1.78187 0
M  V30 13431 H 1315.03 0.167752 0.733051 0
M  V30 13432 H 1317 1.46964 2.597 0
M  V30 13433 C 1315.75 -0.0731257 3.47623 0
M  V30 13434 H 1315.08 0.656551 3.94372 0
M  V30 13435 H 1316.52 -0.343203 4.22609 0
M  V30 13436 C 1314.97 -1.31515 3.1017 0
M  V30 13437 O 1315.5 -2.40869 3.21473 0
M  V30 13438 N 1313.71 -1.19829 2.64744 0
M  V30 13439 H 1313.26 -0.308463 2.55746 0
M  V30 13440 H 1313.22 -2.0303 2.40054 0
M  V30 13441 N 1316.99 -1.36373 0.789944 0
M  V30 13442 C 1317.93 -2.30043 0.186798 0
M  V30 13443 C 1318.9 -1.52002 -0.669663 0
M  V30 13444 O 1320.09 -1.80506 -0.618232 0
M  V30 13445 C 1317.23 -3.38494 -0.671994 0
M  V30 13446 C 1316.34 -4.31522 0.203067 0
M  V30 13447 C 1315.48 -5.27057 -0.662148 0
M  V30 13448 C 1314.52 -6.11725 0.214335 0
M  V30 13449 N 1313.65 -6.99446 -0.609892 0
M  V30 13450 H 1318.49 -2.81038 0.991048 0
M  V30 13451 H 1316.03 -1.38331 0.500288 0
M  V30 13452 H 1317.99 -4.0002 -1.1849 0
M  V30 13453 H 1316.62 -2.88818 -1.44167 0
M  V30 13454 H 1315.67 -3.71146 0.833945 0
M  V30 13455 H 1316.98 -4.91005 0.878389 0
M  V30 13456 H 1316.14 -5.93875 -1.24084 0
M  V30 13457 H 1314.88 -4.6803 -1.37109 0
M  V30 13458 H 1313.88 -5.43868 0.805426 0
M  V30 13459 H 1315.11 -6.72827 0.92089 0
M  V30 13460 H 1313.05 -6.42927 -1.30312 0
M  V30 13461 H 1312.97 -7.56 0.00773786 0
M  V30 13462 H 1314.24 -7.70633 -1.1724 0
M  V30 13463 N 1318.47 -0.542005 -1.47987 0
M  V30 13464 C 1319.88 -0.104646 -1.86406 0
M  V30 13465 C 1320.23 1.32139 -1.4503 0
M  V30 13466 O 1319.35 1.99159 -0.846439 0
M  V30 13467 C 1319.95 -0.183133 -3.38305 0
M  V30 13468 C 1318.51 0.199098 -3.75873 0
M  V30 13469 C 1317.65 -0.537532 -2.7204 0
M  V30 13470 H 1320.6 -0.75259 -1.3972 0
M  V30 13471 H 1320.63 0.602149 -3.75705 0
M  V30 13472 H 1320.14 -1.22113 -3.68389 0
M  V30 13473 H 1318.24 1.23878 -3.51404 0
M  V30 13474 H 1318.35 -0.14888 -4.78869 0
M  V30 13475 H 1316.72 0.0176255 -2.54694 0
M  V30 13476 H 1317.5 -1.57639 -3.04967 0
M  V30 13477 N 1319.94 1.55134 -0.277709 0
M  V30 13478 C 1321.19 1.99259 0.337662 0
M  V30 13479 C 1321.51 1.16755 1.56183 0
M  V30 13480 O 1320.78 0.257707 1.94198 0
M  V30 13481 H 1319.36 0.735995 0.127751 0
M  V30 13482 H 1322.02 1.91087 -0.383646 0
M  V30 13483 H 1321.12 3.05763 0.625747 0
M  V30 13484 N 1321.42 0.00503138 1.57599 0
M  V30 13485 C 1322.33 -1.00097 2.12174 0
M  V30 13486 C 1323.35 -1.37353 1.06818 0
M  V30 13487 O 1324.52 -1.45984 1.38747 0
M  V30 13488 C 1321.59 -2.27252 2.61835 0
M  V30 13489 C 1320.65 -1.96262 3.81811 0
M  V30 13490 C 1319.88 -3.17355 4.29094 0
M  V30 13491 O 1320.11 -4.2921 3.75679 0
M  V30 13492 O 1319.04 -3.01059 5.21198 0
M  V30 13493 H 1322.87 -0.567024 2.9836 0
M  V30 13494 H 1320.45 -0.214109 1.47858 0
M  V30 13495 H 1322.33 -3.01944 2.93952 0
M  V30 13496 H 1321.01 -2.69875 1.78744 0
M  V30 13497 H 1319.91 -1.19031 3.54658 0
M  V30 13498 H 1321.25 -1.58473 4.65991 0
M  V30 13499 N 1322.9 -1.55308 -0.267798 0
M  V30 13500 C 1324.15 -1.7642 -1.00019 0
M  V30 13501 C 1324.48 -0.566559 -1.85752 0
M  V30 13502 O 1323.75 0.435752 -1.89556 0
M  V30 13503 C 1324.04 -3.07229 -1.87836 0
M  V30 13504 C 1323.89 -4.37358 -1.05061 0
M  V30 13505 C 1325.21 -3.34113 -2.86455 0
M  V30 13506 H 1322.33 -0.641859 -0.362197 0
M  V30 13507 H 1324.97 -1.8804 -0.272188 0
M  V30 13508 H 1323.12 -2.97454 -2.49907 0
M  V30 13509 H 1324.79 -4.59098 -0.450208 0
M  V30 13510 H 1323.03 -4.32351 -0.354242 0
M  V30 13511 H 1323.71 -5.25223 -1.69838 0
M  V30 13512 H 1326.18 -3.43715 -2.34519 0
M  V30 13513 H 1325.06 -4.26896 -3.45038 0
M  V30 13514 H 1325.32 -2.54005 -3.61848 0
M  V30 13515 N 1324.38 0.532545 -1.4833 0
M  V30 13516 C 1325.62 1.29902 -1.57812 0
M  V30 13517 C 1325.98 1.90427 -0.245283 0
M  V30 13518 O 1327.18 2.67938 -0.215083 0
M  V30 13519 C 1325.45 2.36119 -2.68296 0
M  V30 13520 S 1327.01 3.22526 -2.97527 0
M  V30 13521 H 1323.83 0.441908 -0.55699 0
M  V30 13522 H 1326.43 0.606983 -1.85839 0
M  V30 13523 H 1325.14 1.90131 -3.63701 0
M  V30 13524 H 1324.67 3.10033 -2.42163 0
M  V30 13525 H 1326.68 4.36144 -2.36628 0
M  V30 13526 O 1325.89 1.46602 0.677498 0
M  V30 13527 H 1326.59 1.40814 1.33008 0
M  V30 END ATOM
M  V30 BEGIN BOND
M  V30 END BOND
M  V30 END CTAB
M  END
$$$$
