drugbank_target|P33032 Melanocortin receptor 5 (DB11653)
 OpenBabel12092121203D

  0  0  0     0  0            999 V3000
M  V30 BEGIN CTAB
M  V30 COUNTS 5180 5238 0 0 0
M  V30 BEGIN ATOM
M  V30 1 H -0.908 1.98254 -0.117106 0
M  V30 2 N 0 1.576 0 0
M  V30 3 C 0.933 2.03868 1.02534 0
M  V30 4 C 1.911 0.928543 1.3348 0
M  V30 5 O 3.095 1.19667 1.45644 0
M  V30 6 C 0.222 2.43627 2.35294 0
M  V30 7 C -0.732 3.65373 2.2001 0
M  V30 8 S 0.101 5.13292 1.52614 0
M  V30 9 C 1.257 5.56322 2.86805 0
M  V30 10 H 1.49 2.90518 0.631377 0
M  V30 11 H -0.977 1.52953 0.210867 0
M  V30 12 H 0.981 2.67203 3.11629 0
M  V30 13 H -0.358 1.57376 2.7183 0
M  V30 14 H -1.165 3.90944 3.18086 0
M  V30 15 H -1.563 3.418 1.51819 0
M  V30 16 H 0.729 5.58782 3.83104 0
M  V30 17 H 1.672 6.56266 2.65933 0
M  V30 18 H 2.08 4.83886 2.90714 0
M  V30 19 N 1.4781 -0.272755 1.55222 0
M  V30 20 C 2.4261 -1.35705 1.88909 0
M  V30 21 C 3.4201 -1.5112 0.765456 0
M  V30 22 O 4.6261 -1.52901 0.949802 0
M  V30 23 H 1.0011 -0.453868 0.59959 0
M  V30 24 H 2.9721 -1.04544 2.79487 0
M  V30 25 C 1.7211 -2.71049 2.17779 0
M  V30 26 H 1.0441 -2.59979 3.03728 0
M  V30 27 H 2.4841 -3.45858 2.45272 0
M  V30 28 C 0.9431 -3.22165 0.985473 0
M  V30 29 O 1.4731 -4.01096 0.220233 0
M  V30 30 N -0.3209 -2.7985 0.783108 0
M  V30 31 H -0.7739 -2.15775 1.40708 0
M  V30 32 H -0.8159 -3.14397 -0.0130392 0
M  V30 33 N 2.9562 -1.48159 -0.537278 0
M  V30 34 C 4.1812 -1.59707 -1.32319 0
M  V30 35 C 4.6062 -0.254859 -1.86365 0
M  V30 36 O 3.9642 0.772378 -1.64024 0
M  V30 37 C 4.0122 -2.6412 -2.45505 0
M  V30 38 O 3.1162 -2.20774 -3.48328 0
M  V30 39 H 2.4572 -0.535791 -0.392204 0
M  V30 40 H 4.9872 -1.94092 -0.647268 0
M  V30 41 H 4.9972 -2.85166 -2.91795 0
M  V30 42 H 3.6722 -3.61567 -2.05528 0
M  V30 43 H 2.2492 -2.09911 -3.08207 0
M  V30 44 N 4.4343 0.785586 -1.36625 0
M  V30 45 C 5.6593 1.57963 -1.34397 0
M  V30 46 C 6.0843 1.87964 0.071526 0
M  V30 47 O 5.4423 1.48182 1.0446 0
M  V30 48 C 5.4903 2.87511 -2.17646 0
M  V30 49 O 4.5943 3.81281 -1.57158 0
M  V30 50 H 3.9353 0.479014 -0.459828 0
M  V30 51 H 6.4653 0.973411 -1.79961 0
M  V30 52 H 6.4753 3.36745 -2.30362 0
M  V30 53 H 5.1503 2.65002 -3.20541 0
M  V30 54 H 3.7273 3.39885 -1.53403 0
M  V30 55 N 5.9124 1.20967 1.01018 0
M  V30 56 C 7.1594 1.02374 1.74716 0
M  V30 57 C 7.4874 -0.443375 1.89379 0
M  V30 58 O 6.7424 -1.34535 1.42123 0
M  V30 59 C 7.0414 1.65997 3.16512 0
M  V30 60 C 6.7074 3.15831 3.2181 0
M  V30 61 C 5.3694 3.56719 3.22963 0
M  V30 62 C 7.7214 4.11816 3.19464 0
M  V30 63 C 5.0494 4.92107 3.19449 0
M  V30 64 C 7.4014 5.47158 3.17491 0
M  V30 65 C 6.0654 5.87451 3.16951 0
M  V30 66 H 5.3354 0.374614 0.639332 0
M  V30 67 H 7.9824 1.50485 1.18434 0
M  V30 68 H 6.2874 1.10166 3.75993 0
M  V30 69 H 7.9844 1.49119 3.72242 0
M  V30 70 H 4.5744 2.83263 3.21652 0
M  V30 71 H 8.7584 3.81257 3.17737 0
M  V30 72 H 4.0144 5.22579 3.17366 0
M  V30 73 H 8.1884 6.21274 3.14629 0
M  V30 74 H 5.8154 6.92329 3.13983 0
M  V30 75 N 7.3905 -1.2043 1.01659 0
M  V30 76 C 8.3405 -2.21076 0.557623 0
M  V30 77 C 9.3245 -1.56176 -0.387029 0
M  V30 78 O 10.5165 -1.7575 -0.209996 0
M  V30 79 C 7.6455 -3.43146 -0.102707 0
M  V30 80 C 6.7315 -4.15213 0.863652 0
M  V30 81 N 7.1225 -4.63662 2.02117 0
M  V30 82 C 5.4205 -4.40716 0.684472 0
M  V30 83 C 6.1215 -5.18868 2.62966 0
M  V30 84 N 5.0975 -5.0893 1.91027 0
M  V30 85 H 8.8995 -2.56201 1.44008 0
M  V30 86 H 6.4135 -1.36366 0.881931 0
M  V30 87 H 8.4105 -4.14475 -0.449054 0
M  V30 88 H 7.0705 -3.09526 -0.981003 0
M  V30 89 H 8.0815 -4.58877 2.40109 0
M  V30 90 H 4.7585 -4.17245 -0.14577 0
M  V30 91 H 6.1485 -5.6673 3.60924 0
M  V30 92 N 8.8686 -0.792821 -1.36206 0
M  V30 93 C 9.7986 -0.207853 -2.32573 0
M  V30 94 C 10.7796 0.659055 -1.56813 0
M  V30 95 O 11.9646 0.592176 -1.84951 0
M  V30 96 C 9.0946 0.655449 -3.41059 0
M  V30 97 C 8.0486 -0.111842 -4.27854 0
M  V30 98 C 7.3746 0.872274 -5.27537 0
M  V30 99 C 8.6746 -1.30299 -5.05786 0
M  V30 100 H 10.3686 -1.01294 -2.81744 0
M  V30 101 H 7.9146 -0.48854 -1.3546 0
M  V30 102 H 9.8676 1.07464 -4.07467 0
M  V30 103 H 8.5916 1.49328 -2.90463 0
M  V30 104 H 7.2506 -0.512053 -3.63006 0
M  V30 105 H 6.8986 1.70523 -4.73214 0
M  V30 106 H 6.5986 0.363291 -5.86476 0
M  V30 107 H 8.1226 1.28996 -5.96818 0
M  V30 108 H 9.5366 -0.959379 -5.65216 0
M  V30 109 H 7.9336 -1.7455 -5.74154 0
M  V30 110 H 9.0036 -2.09663 -4.37229 0
M  V30 111 N 10.3467 1.47872 -0.545128 0
M  V30 112 C 11.2967 2.26842 0.229456 0
M  V30 113 C 12.2807 1.33626 0.896267 0
M  V30 114 O 13.4727 1.58063 0.79657 0
M  V30 115 C 10.6017 3.19089 1.26638 0
M  V30 116 C 9.6877 4.19783 0.603598 0
M  V30 117 N 10.0787 5.0479 -0.319405 0
M  V30 118 C 8.3767 4.3765 0.858989 0
M  V30 119 C 9.0777 5.77433 -0.703241 0
M  V30 120 N 8.0537 5.43566 -0.0608309 0
M  V30 121 H 11.8557 2.89947 -0.480391 0
M  V30 122 H 9.3697 1.58263 -0.364209 0
M  V30 123 H 11.3667 3.74337 1.83515 0
M  V30 124 H 10.0267 2.5754 1.97745 0
M  V30 125 H 11.0377 5.13244 -0.692889 0
M  V30 126 H 7.7147 3.87281 1.55948 0
M  V30 127 H 9.1047 6.55824 -1.46098 0
M  V30 128 N 11.8248 0.280983 1.55075 0
M  V30 129 C 13.0718 -0.334115 1.99725 0
M  V30 130 C 13.3998 -1.5542 1.1694 0
M  V30 131 O 12.6548 -1.94361 0.228531 0
M  V30 132 C 12.9538 -0.754656 3.49342 0
M  V30 133 C 12.6198 0.361445 4.49449 0
M  V30 134 C 11.2818 0.667893 4.76542 0
M  V30 135 C 13.6338 1.11322 5.09173 0
M  V30 136 C 10.9618 1.7296 5.60626 0
M  V30 137 C 13.3138 2.1647 5.9441 0
M  V30 138 C 11.9778 2.47742 6.19822 0
M  V30 139 H 11.2478 -0.122261 0.730844 0
M  V30 140 H 13.8948 0.395917 1.87363 0
M  V30 141 H 12.1998 -1.56446 3.5921 0
M  V30 142 H 13.8968 -1.24142 3.813 0
M  V30 143 H 10.4868 0.112481 4.28452 0
M  V30 144 H 14.6708 0.88973 4.8826 0
M  V30 145 H 9.9268 1.97684 5.78559 0
M  V30 146 H 14.1008 2.75193 6.3972 0
M  V30 147 H 11.7278 3.30145 6.84769 0
M  V30 148 N 13.3029 -1.57598 0.00835791 0
M  V30 149 C 14.2329 -2.1198 -0.979113 0
M  V30 150 C 15.2139 -1.03091 -1.35301 0
M  V30 151 O 16.3989 -1.30818 -1.43528 0
M  V30 152 C 13.5289 -2.62995 -2.26828 0
M  V30 153 C 12.4829 -3.76485 -2.03576 0
M  V30 154 C 11.8089 -4.13846 -3.38579 0
M  V30 155 C 13.1089 -5.0342 -1.39161 0
M  V30 156 H 14.8029 -2.94738 -0.526281 0
M  V30 157 H 12.3489 -1.41783 -0.251704 0
M  V30 158 H 14.3019 -2.99669 -2.96271 0
M  V30 159 H 13.0259 -1.7737 -2.7424 0
M  V30 160 H 11.6849 -3.40217 -1.36557 0
M  V30 161 H 11.3329 -3.25232 -3.83709 0
M  V30 162 H 11.0329 -4.90312 -3.23834 0
M  V30 163 H 12.5569 -4.53086 -4.09323 0
M  V30 164 H 13.9709 -5.37812 -1.98573 0
M  V30 165 H 12.3679 -5.84746 -1.34878 0
M  V30 166 H 13.4379 -4.83548 -0.361868 0
M  V30 167 N 14.781 0.264519 -1.55364 0
M  V30 168 C 16.058 1.01677 -1.67096 0
M  V30 169 C 16.438 2.03996 -0.543015 0
M  V30 170 O 15.786 2.23907 0.45585 0
M  V30 171 C 15.996 1.66596 -3.0667 0
M  V30 172 C 17.344 2.17442 -3.64697 0
M  V30 173 O 18.368 1.76568 -3.09358 0
M  V30 174 O 17.227 2.92439 -4.61673 0
M  V30 175 H 14.321 0.472161 -0.678965 0
M  V30 176 H 16.867 0.259703 -1.67701 0
M  V30 177 H 15.639 0.924962 -3.80211 0
M  V30 178 H 15.262 2.48968 -3.10001 0
M  V30 179 N 16.2591 1.48442 0.529413 0
M  V30 180 C 17.1891 1.65902 1.64313 0
M  V30 181 C 18.1701 0.507897 1.6234 0
M  V30 182 O 19.3551 0.740503 1.79528 0
M  V30 183 C 16.4851 1.69911 3.02898 0
M  V30 184 C 15.4391 2.8453 3.19729 0
M  V30 185 C 14.7651 2.73629 4.59381 0
M  V30 186 C 16.0651 4.25821 3.02447 0
M  V30 187 H 17.7591 2.5914 1.49955 0
M  V30 188 H 15.3051 1.24709 0.719982 0
M  V30 189 H 17.2581 1.80715 3.80684 0
M  V30 190 H 15.9821 0.732524 3.18279 0
M  V30 191 H 14.6411 2.73283 2.44361 0
M  V30 192 H 14.2891 1.74938 4.71599 0
M  V30 193 H 13.9891 3.50541 4.71588 0
M  V30 194 H 15.5131 2.86401 5.39265 0
M  V30 195 H 16.9271 4.37898 3.70024 0
M  V30 196 H 15.3241 5.03735 3.26146 0
M  V30 197 H 16.3941 4.42244 1.98867 0
M  V30 198 N 17.7372 -0.778329 1.37039 0
M  V30 199 C 18.6852 -1.91278 1.32345 0
M  V30 200 C 19.6792 -1.68051 0.213331 0
M  V30 201 O 20.8852 -1.75922 0.38098 0
M  V30 202 H 17.2602 -0.628909 0.412283 0
M  V30 203 H 19.2312 -1.92355 2.28127 0
M  V30 204 C 17.9802 -3.28455 1.14073 0
M  V30 205 H 17.3032 -3.46901 1.98746 0
M  V30 206 H 18.7432 -4.08152 1.14837 0
M  V30 207 C 17.2022 -3.36548 -0.154015 0
M  V30 208 O 17.7322 -3.85186 -1.13993 0
M  V30 209 N 15.9382 -2.89894 -0.202475 0
M  V30 210 H 15.4852 -2.50504 0.600476 0
M  V30 211 H 15.4432 -2.9569 -1.06841 0
M  V30 212 N 19.2153 -1.21501 -1.00376 0
M  V30 213 C 20.1453 -0.999478 -2.11028 0
M  V30 214 C 21.1263 0.0759671 -1.6993 0
M  V30 215 O 22.3113 -0.0841106 -1.94018 0
M  V30 216 C 19.4413 -0.564709 -3.42678 0
M  V30 217 C 18.3953 -1.58486 -3.97576 0
M  V30 218 C 17.7213 -1.00628 -5.25146 0
M  V30 219 C 19.0213 -2.97204 -4.29496 0
M  V30 220 H 20.7153 -1.92495 -2.29317 0
M  V30 221 H 18.2613 -0.92693 -1.102 0
M  V30 222 H 20.2143 -0.401091 -4.19487 0
M  V30 223 H 18.9383 0.396411 -3.24185 0
M  V30 224 H 17.5973 -1.73606 -3.22888 0
M  V30 225 H 17.2453 -0.0368439 -5.02987 0
M  V30 226 H 16.9453 -1.68771 -5.62841 0
M  V30 227 H 18.4693 -0.854015 -6.04598 0
M  V30 228 H 19.8833 -2.8552 -4.97143 0
M  V30 229 H 18.2803 -3.62372 -4.78338 0
M  V30 230 H 19.3503 -3.47956 -3.3772 0
M  V30 231 N 20.6934 1.19889 -1.02296 0
M  V30 232 C 21.6414 2.24938 -0.592081 0
M  V30 233 C 22.6354 1.65257 0.372357 0
M  V30 234 O 23.8414 1.78371 0.241583 0
M  V30 235 H 20.2164 0.731787 -0.173182 0
M  V30 236 H 22.1874 2.58603 -1.48885 0
M  V30 237 C 20.9364 3.47668 0.047351 0
M  V30 238 H 20.2594 3.93875 -0.685772 0
M  V30 239 H 21.6994 4.22852 0.311862 0
M  V30 240 C 20.1584 3.11136 1.29212 0
M  V30 241 O 20.6884 3.2325 2.38479 0
M  V30 242 N 18.8944 2.65625 1.17863 0
M  V30 243 H 18.4414 2.55968 0.289493 0
M  V30 244 H 18.3994 2.41553 2.01245 0
M  V30 245 N 22.1715 0.800033 1.35784 0
M  V30 246 C 23.1345 0.211565 2.28221 0
M  V30 247 C 24.1345 -0.59728 1.49296 0
M  V30 248 O 25.3245 -0.416721 1.69142 0
M  V30 249 C 22.4565 -0.705846 3.33513 0
M  V30 250 H 23.6495 1.02677 2.81776 0
M  V30 251 H 21.2025 0.570211 1.45528 0
M  V30 252 H 21.9375 -1.54498 2.85133 0
M  V30 253 H 21.7225 -0.127655 3.91892 0
M  V30 254 H 23.2125 -1.11211 4.02519 0
M  V30 255 N 23.6496 -1.47581 0.552962 0
M  V30 256 C 24.8776 -2.06875 0.0320556 0
M  V30 257 C 25.2926 -1.40625 -1.25976 0
M  V30 258 O 24.6496 -0.501349 -1.75479 0
M  V30 259 C 24.7006 -3.61092 -0.17167 0
M  V30 260 O 24.4216 -4.24858 1.06899 0
M  V30 261 C 25.9226 -4.37242 -0.730344 0
M  V30 262 H 23.1426 -0.669561 0.043915 0
M  V30 263 H 25.6866 -1.89646 0.765163 0
M  V30 264 H 23.8416 -3.7785 -0.854894 0
M  V30 265 H 24.2556 -5.17334 0.864059 0
M  V30 266 H 25.7296 -5.45842 -0.822203 0
M  V30 267 H 26.2066 -4.03235 -1.74064 0
M  V30 268 H 26.8126 -4.25219 -0.0829543 0
M  V30 269 N 25.1277 -0.289203 -1.54924 0
M  V30 270 C 26.0377 0.601863 -2.26748 0
M  V30 271 C 27.0537 1.15834 -1.2984 0
M  V30 272 O 28.2297 1.18564 -1.62802 0
M  V30 273 C 25.2947 1.76299 -2.98529 0
M  V30 274 C 24.3557 1.24178 -4.10948 0
M  V30 275 C 23.5887 2.34757 -4.79296 0
M  V30 276 O 23.8117 3.54411 -4.46933 0
M  V30 277 O 22.7457 2.02115 -5.66951 0
M  V30 278 H 26.5717 0.0195879 -3.03694 0
M  V30 279 H 24.1567 -0.0560868 -1.49295 0
M  V30 280 H 26.0387 2.43973 -3.43592 0
M  V30 281 H 24.7137 2.33209 -2.24488 0
M  V30 282 H 23.6207 0.531104 -3.70311 0
M  V30 283 H 24.9537 0.718252 -4.86931 0
M  V30 284 N 26.6058 1.57591 -0.0167156 0
M  V30 285 C 27.8538 1.90906 0.663285 0
M  V30 286 C 28.1748 0.892509 1.73376 0
M  V30 287 O 27.4448 -0.0677623 1.95783 0
M  V30 288 H 26.0248 0.704637 0.247983 0
M  V30 289 H 28.6868 1.94803 -0.0615909 0
M  V30 290 H 27.7828 2.9116 1.12393 0
M  V30 291 N 28.0839 -0.256276 1.55502 0
M  V30 292 C 29.0319 -1.33694 1.90338 0
M  V30 293 C 30.0259 -1.50299 0.781441 0
M  V30 294 O 31.2319 -1.51885 0.965966 0
M  V30 295 H 27.6069 -0.447483 0.60437 0
M  V30 296 H 29.5779 -1.01574 2.8058 0
M  V30 297 C 28.3269 -2.68724 2.20642 0
M  V30 298 H 27.6499 -2.56743 3.06469 0
M  V30 299 H 29.0899 -3.43237 2.48926 0
M  V30 300 C 27.5489 -3.21101 1.01959 0
M  V30 301 O 28.0789 -4.0084 0.262762 0
M  V30 302 N 26.2849 -2.79003 0.812746 0
M  V30 303 H 25.8319 -2.14271 1.42989 0
M  V30 304 H 25.7899 -3.14393 0.0203076 0
M  V30 305 N 29.562 -1.4872 -0.521534 0
M  V30 306 C 30.492 -1.66771 -1.63431 0
M  V30 307 C 31.473 -0.516499 -1.62069 0
M  V30 308 O 32.658 -0.750013 -1.79132 0
M  V30 309 C 29.788 -1.71515 -3.01993 0
M  V30 310 C 28.742 -2.86222 -3.18216 0
M  V30 311 C 28.068 -2.76061 -4.57924 0
M  V30 312 C 29.368 -4.27419 -3.00184 0
M  V30 313 H 31.062 -2.59932 -1.48579 0
M  V30 314 H 28.608 -1.25089 -0.713358 0
M  V30 315 H 30.561 -1.82731 -3.7972 0
M  V30 316 H 29.285 -0.749393 -3.17886 0
M  V30 317 H 27.944 -2.74575 -2.42908 0
M  V30 318 H 27.592 -1.77437 -4.70665 0
M  V30 319 H 27.292 -3.53037 -4.69722 0
M  V30 320 H 28.816 -2.89256 -5.37739 0
M  V30 321 H 30.23 -4.39855 -3.67697 0
M  V30 322 H 28.627 -5.05458 -3.2347 0
M  V30 323 H 29.697 -4.43293 -1.96518 0
M  V30 324 N 31.0401 0.771051 -1.3745 0
M  V30 325 C 32.2651 1.56529 -1.36065 0
M  V30 326 C 32.6901 1.88029 0.0515859 0
M  V30 327 O 32.0481 1.49282 1.02882 0
M  V30 328 C 32.0961 2.85187 -2.20683 0
M  V30 329 O 31.2001 3.79593 -1.61193 0
M  V30 330 H 30.5411 0.47411 -0.464883 0
M  V30 331 H 33.0711 0.954269 -1.80983 0
M  V30 332 H 33.0811 3.34283 -2.33921 0
M  V30 333 H 31.7561 2.61588 -3.23334 0
M  V30 334 H 30.3331 3.38239 -1.56999 0
M  V30 335 N 32.5182 1.22032 0.997298 0
M  V30 336 C 33.7662 1.04016 1.73278 0
M  V30 337 C 34.0872 -0.426255 1.90284 0
M  V30 338 O 33.3572 -1.30694 1.45931 0
M  V30 339 H 31.9372 0.381897 0.642 0
M  V30 340 H 34.5992 1.5347 1.20137 0
M  V30 341 H 33.6952 1.51441 2.72896 0
M  V30 342 N 33.9963 -1.19345 1.0293 0
M  V30 343 C 35.4073 -1.70725 0.755633 0
M  V30 344 C 35.7583 -1.82326 -0.724676 0
M  V30 345 O 34.8833 -1.49471 -1.56484 0
M  V30 346 C 35.4783 -3.10084 1.36503 0
M  V30 347 C 34.0373 -3.58723 1.13994 0
M  V30 348 C 33.1843 -2.35577 1.46283 0
M  V30 349 H 36.1353 -1.0418 1.19718 0
M  V30 350 H 36.1563 -3.72787 0.762217 0
M  V30 351 H 35.6683 -3.01609 2.44241 0
M  V30 352 H 33.7693 -3.72512 0.0807901 0
M  V30 353 H 33.8823 -4.42816 1.82894 0
M  V30 354 H 32.2463 -2.38935 0.88217 0
M  V30 355 H 33.0293 -2.29731 2.55105 0
M  V30 356 N 35.4744 -0.807222 -1.35358 0
M  V30 357 C 36.4224 -0.20614 -2.31685 0
M  V30 358 C 37.4164 0.644445 -1.56663 0
M  V30 359 O 38.6224 0.537538 -1.71786 0
M  V30 360 H 34.9974 -0.0479006 -0.750473 0
M  V30 361 H 36.9684 -1.03369 -2.79924 0
M  V30 362 C 35.7174 0.630212 -3.41941 0
M  V30 363 H 35.0404 -0.0149558 -3.99797 0
M  V30 364 H 36.4804 1.01716 -4.11619 0
M  V30 365 C 34.9394 1.79601 -2.85035 0
M  V30 366 O 35.4694 2.89351 -2.78637 0
M  V30 367 N 33.6754 1.60774 -2.42074 0
M  V30 368 H 33.2224 0.715009 -2.47478 0
M  V30 369 H 33.1804 2.38933 -2.04349 0
M  V30 370 N 36.9525 1.47285 -0.560781 0
M  V30 371 C 38.1985 2.02764 -0.0381184 0
M  V30 372 C 38.5315 1.43384 1.30976 0
M  V30 373 O 37.8065 0.590733 1.85312 0
M  V30 374 C 38.0895 3.60064 0.0511427 0
M  V30 375 C 37.9425 4.2987 -1.32408 0
M  V30 376 C 39.2615 4.33439 0.762795 0
M  V30 377 H 36.3805 0.736841 -0.0153264 0
M  V30 378 H 39.0225 1.75675 -0.723759 0
M  V30 379 H 37.1725 3.83274 0.635065 0
M  V30 380 H 38.8445 4.17989 -1.95148 0
M  V30 381 H 37.0875 3.90085 -1.8978 0
M  V30 382 H 37.7585 5.38478 -1.21431 0
M  V30 383 H 40.2345 4.15243 0.266965 0
M  V30 384 H 39.1105 5.43124 0.794221 0
M  V30 385 H 39.3715 4.02915 1.81966 0
M  V30 386 N 38.4306 0.297415 1.54768 0
M  V30 387 C 39.3776 -0.580276 2.23386 0
M  V30 388 C 40.3476 -1.13238 1.21517 0
M  V30 389 O 41.5326 -1.17757 1.50126 0
M  V30 390 C 38.6726 -1.74801 2.97555 0
M  V30 391 C 37.7856 -1.22764 4.1419 0
M  V30 392 C 36.9206 -2.35895 4.75949 0
M  V30 393 C 35.9596 -1.80974 5.84735 0
M  V30 394 N 35.0966 -2.87664 6.40464 0
M  V30 395 H 39.9366 0.0114833 2.97998 0
M  V30 396 H 37.4736 0.0174361 1.4709 0
M  V30 397 H 39.4316 -2.43475 3.38786 0
M  V30 398 H 38.0616 -2.31145 2.25326 0
M  V30 399 H 37.1136 -0.433271 3.77924 0
M  V30 400 H 38.4256 -0.785551 4.92575 0
M  V30 401 H 37.5796 -3.12523 5.20014 0
M  V30 402 H 36.3186 -2.83429 3.96887 0
M  V30 403 H 35.3236 -1.02834 5.40097 0
M  V30 404 H 36.5486 -1.34348 6.65678 0
M  V30 405 H 34.4946 -3.34538 5.64287 0
M  V30 406 H 34.4116 -2.4794 7.14186 0
M  V30 407 H 35.6796 -3.642 6.89187 0
M  V30 408 N 39.9087 -1.5758 0.0250728 0
M  V30 409 C 40.8567 -2.11125 -0.97617 0
M  V30 410 C 41.8507 -1.03689 -1.33959 0
M  V30 411 O 43.0567 -1.22128 -1.3223 0
M  V30 412 H 39.4317 -0.674468 -0.332561 0
M  V30 413 H 41.4027 -2.94194 -0.499223 0
M  V30 414 C 40.1517 -2.65017 -2.2508 0
M  V30 415 H 39.4747 -3.47333 -1.9799 0
M  V30 416 H 40.9147 -3.06133 -2.93357 0
M  V30 417 C 39.3737 -1.57574 -2.97779 0
M  V30 418 O 39.9037 -0.973203 -3.89733 0
M  V30 419 N 38.1097 -1.29716 -2.60043 0
M  V30 420 H 37.6567 -1.789 -1.85345 0
M  V30 421 H 37.6147 -0.58051 -3.08994 0
M  V30 422 N 41.3868 0.248026 -1.55636 0
M  V30 423 C 42.3338 1.30707 -1.90222 0
M  V30 424 C 43.3038 1.47881 -0.756332 0
M  V30 425 O 44.4888 1.61883 -1.00988 0
M  V30 426 C 41.6288 2.65769 -2.20138 0
M  V30 427 C 40.7418 2.56612 -3.47526 0
M  V30 428 C 39.8768 3.8402 -3.67017 0
M  V30 429 C 38.9158 3.69476 -4.8801 0
M  V30 430 N 38.0528 4.88774 -5.04029 0
M  V30 431 H 42.8928 1.00512 -2.80538 0
M  V30 432 H 40.4298 0.485055 -1.38873 0
M  V30 433 H 42.3878 3.44386 -2.35487 0
M  V30 434 H 41.0178 2.94115 -1.33027 0
M  V30 435 H 40.0698 1.69571 -3.40514 0
M  V30 436 H 41.3818 2.41774 -4.36287 0
M  V30 437 H 40.5358 4.7108 -3.8232 0
M  V30 438 H 39.2748 4.01754 -2.76487 0
M  V30 439 H 38.2798 2.80799 -4.72686 0
M  V30 440 H 39.5048 3.53238 -5.8 0
M  V30 441 H 37.4508 5.0687 -4.16435 0
M  V30 442 H 37.3678 4.76562 -5.86877 0
M  V30 443 H 38.6358 5.77335 -5.23741 0
M  V30 444 N 42.8649 1.48995 0.513639 0
M  V30 445 C 44.0899 1.61792 1.29762 0
M  V30 446 C 44.5149 0.284475 1.85936 0
M  V30 447 O 43.8729 -0.746185 1.65232 0
M  V30 448 C 43.9209 2.67993 2.41272 0
M  V30 449 O 43.0249 2.26287 3.44772 0
M  V30 450 H 42.3659 0.541963 0.38363 0
M  V30 451 H 44.8959 1.95097 0.616307 0
M  V30 452 H 44.9059 2.89772 2.87221 0
M  V30 453 H 43.5809 3.64791 1.9975 0
M  V30 454 H 42.1579 2.14788 3.04829 0
M  V30 455 N 44.343 -0.763751 1.37857 0
M  V30 456 C 45.568 -1.55805 1.36893 0
M  V30 457 C 45.993 -1.88054 -0.0416135 0
M  V30 458 O 45.351 -1.49825 -1.02089 0
M  V30 459 C 45.399 -2.84012 2.22192 0
M  V30 460 O 44.503 -3.78732 1.63204 0
M  V30 461 H 43.844 -0.471638 0.46739 0
M  V30 462 H 46.374 -0.944657 1.81487 0
M  V30 463 H 46.384 -3.33037 2.35691 0
M  V30 464 H 45.059 -2.59869 3.24716 0
M  V30 465 H 43.636 -3.37402 1.58791 0
M  V30 466 N 45.8211 -1.22559 -0.990812 0
M  V30 467 C 47.2321 -1.04791 -1.54518 0
M  V30 468 C 47.5831 0.387998 -1.92325 0
M  V30 469 O 46.7081 1.27328 -1.74976 0
M  V30 470 C 47.3031 -1.896 -2.80779 0
M  V30 471 C 45.8621 -1.76124 -3.32652 0
M  V30 472 C 45.0091 -1.8594 -2.05722 0
M  V30 473 H 47.9601 -1.36374 -0.811662 0
M  V30 474 H 47.9811 -1.41464 -3.53225 0
M  V30 475 H 47.4931 -2.94101 -2.53231 0
M  V30 476 H 45.5941 -0.743643 -3.65104 0
M  V30 477 H 45.7071 -2.58913 -4.03114 0
M  V30 478 H 44.0711 -1.29403 -2.19379 0
M  V30 479 H 44.8541 -2.91976 -1.80568 0
M  V30 480 N 47.2992 1.18797 -1.03562 0
M  V30 481 C 48.5392 1.90346 -0.744832 0
M  V30 482 C 48.9032 1.78231 0.713972 0
M  V30 483 O 50.1042 2.44441 1.11813 0
M  V30 484 C 48.3752 3.36942 -1.19184 0
M  V30 485 S 49.9342 4.26638 -1.02593 0
M  V30 486 H 46.7522 0.657343 -0.270963 0
M  V30 487 H 49.3542 1.43579 -1.32685 0
M  V30 488 H 48.0582 3.43287 -2.24905 0
M  V30 489 H 47.5892 3.88745 -0.603397 0
M  V30 490 H 49.6042 4.96164 0.0596033 0
M  V30 491 N 48.7773 0.814389 1.34928 0
M  V30 492 C 49.6873 0.231978 2.3345 0
M  V30 493 C 50.7033 -0.629139 1.62228 0
M  V30 494 O 51.8793 -0.539052 1.94052 0
M  V30 495 C 48.9443 -0.603482 3.41407 0
M  V30 496 C 48.0053 0.279037 4.28392 0
M  V30 497 C 47.2383 -0.516643 5.31193 0
M  V30 498 O 47.4613 -1.75068 5.4287 0
M  V30 499 O 46.3953 0.0965652 6.01823 0
M  V30 500 H 50.2213 1.04721 2.85074 0
M  V30 501 H 47.8063 0.576343 1.37836 0
M  V30 502 H 49.6883 -1.07908 4.0735 0
M  V30 503 H 48.3633 -1.39618 2.92042 0
M  V30 504 H 47.2703 0.801948 3.65403 0
M  V30 505 H 48.6033 1.03588 4.81176 0
M  V30 506 N 50.2554 -1.46986 0.568584 0
M  V30 507 C 51.5324 -1.95592 -0.0174074 0
M  V30 508 C 51.9124 -1.51124 -1.47393 0
M  V30 509 O 51.2604 -0.755329 -2.15655 0
M  V30 510 C 51.4704 -3.48719 0.139913 0
M  V30 511 C 52.8184 -4.246 0.000426376 0
M  V30 512 O 53.8424 -3.56135 0.0680316 0
M  V30 513 O 52.7014 -5.46302 -0.146988 0
M  V30 514 H 49.7954 -0.82498 -0.0577599 0
M  V30 515 H 52.3414 -1.57335 0.635909 0
M  V30 516 H 51.1134 -3.73927 1.15301 0
M  V30 517 H 50.7364 -3.93771 -0.550491 0
M  V30 518 N 51.7335 -0.305618 -1.54608 0
M  V30 519 C 52.6665 0.610536 -2.19881 0
M  V30 520 C 53.6445 1.1294 -1.16976 0
M  V30 521 O 54.8285 1.19673 -1.45638 0
M  V30 522 C 51.9555 1.83583 -2.84631 0
M  V30 523 C 51.0015 1.4498 -4.01102 0
M  V30 524 S 51.8345 0.501793 -5.33144 0
M  V30 525 C 52.9905 1.73478 -6.01379 0
M  V30 526 H 53.2235 0.0560177 -2.97247 0
M  V30 527 H 50.7565 -0.0897434 -1.54139 0
M  V30 528 H 52.7145 2.53898 -3.22562 0
M  V30 529 H 51.3755 2.36152 -2.07102 0
M  V30 530 H 50.5685 2.36236 -4.45206 0
M  V30 531 H 50.1705 0.826553 -3.64752 0
M  V30 532 H 52.4625 2.67473 -6.22467 0
M  V30 533 H 53.4055 1.33622 -6.95378 0
M  V30 534 H 53.8135 1.9136 -5.31076 0
M  V30 535 N 53.2116 1.57565 -0.0334293 0
M  V30 536 C 54.4596 1.91598 0.642999 0
M  V30 537 C 54.7806 0.910847 1.7242 0
M  V30 538 O 54.0506 -0.0469931 1.95844 0
M  V30 539 H 52.6306 0.707228 0.240496 0
M  V30 540 H 55.2926 1.94726 -0.0822488 0
M  V30 541 H 54.3886 2.92336 1.09298 0
M  V30 542 N 54.6897 -0.239769 1.55765 0
M  V30 543 C 55.9387 -0.964754 1.77131 0
M  V30 544 C 56.2517 -1.86213 0.59868 0
M  V30 545 O 57.4577 -2.6244 0.695522 0
M  V30 546 C 55.9137 -1.76552 3.1362 0
M  V30 547 C 55.5217 -0.915185 4.38553 0
M  V30 548 C 57.2657 -2.48281 3.44321 0
M  V30 549 C 55.1727 -1.71225 5.66071 0
M  V30 550 H 54.1027 -0.363953 0.660344 0
M  V30 551 H 56.7537 -0.219181 1.82186 0
M  V30 552 H 55.1357 -2.55331 3.02691 0
M  V30 553 H 56.3097 -0.169217 4.60489 0
M  V30 554 H 54.6247 -0.310889 4.15238 0
M  V30 555 H 57.2217 -3.08382 4.36812 0
M  V30 556 H 57.5647 -3.20256 2.65973 0
M  V30 557 H 58.0977 -1.76507 3.56497 0
M  V30 558 H 54.8367 -1.03612 6.4726 0
M  V30 559 H 54.3567 -2.43331 5.48224 0
M  V30 560 H 56.0357 -2.27758 6.05587 0
M  V30 561 N 56.1678 -1.49265 -0.50573 0
M  V30 562 C 57.1308 -1.65075 -1.59006 0
M  V30 563 C 58.1308 -0.522768 -1.52065 0
M  V30 564 O 59.3208 -0.789117 -1.55302 0
M  V30 565 C 56.4528 -1.64369 -2.98656 0
M  V30 566 H 57.6458 -2.61784 -1.46319 0
M  V30 567 H 55.1988 -1.38226 -0.729616 0
M  V30 568 H 55.9338 -0.692272 -3.16825 0
M  V30 569 H 55.7188 -2.46282 -3.05103 0
M  V30 570 H 57.2088 -1.78674 -3.77446 0
M  V30 571 N 57.6459 0.756429 -1.3826 0
M  V30 572 C 58.8919 1.51772 -1.34511 0
M  V30 573 C 59.2249 1.94089 0.0656691 0
M  V30 574 O 58.4999 1.65221 1.02626 0
M  V30 575 C 58.7829 2.77226 -2.29821 0
M  V30 576 C 58.6359 2.41065 -3.79747 0
M  V30 577 C 59.9549 3.79236 -2.23312 0
M  V30 578 H 57.0739 0.550578 -0.489931 0
M  V30 579 H 59.7159 0.866607 -1.69086 0
M  V30 580 H 57.8659 3.32784 -2.00467 0
M  V30 581 H 59.5379 1.91303 -4.19763 0
M  V30 582 H 57.7809 1.7356 -3.97567 0
M  V30 583 H 58.4519 3.3081 -4.41892 0
M  V30 584 H 60.9279 3.3321 -2.49219 0
M  V30 585 H 59.8039 4.64714 -2.92116 0
M  V30 586 H 60.0649 4.24615 -1.23102 0
M  V30 587 N 59.124 1.23083 0.984299 0
M  V30 588 C 60.034 1.02515 2.11016 0
M  V30 589 C 61.05 -0.0291702 1.73976 0
M  V30 590 O 62.226 0.165434 2.00719 0
M  V30 591 C 59.291 0.614673 3.41208 0
M  V30 592 C 58.352 1.74359 3.92297 0
M  V30 593 C 57.585 1.35261 5.16275 0
M  V30 594 O 57.808 0.235136 5.69915 0
M  V30 595 O 56.742 2.17227 5.61334 0
M  V30 596 H 60.568 1.96862 2.31255 0
M  V30 597 H 58.153 1.01753 1.09392 0
M  V30 598 H 60.035 0.396518 4.1953 0
M  V30 599 H 58.71 -0.299851 3.22308 0
M  V30 600 H 57.617 2.01635 3.1511 0
M  V30 601 H 58.95 2.63629 4.15645 0
M  V30 602 N 60.6021 -1.18246 1.0419 0
M  V30 603 C 61.8481 -1.88536 0.747122 0
M  V30 604 C 62.1811 -1.80223 -0.723409 0
M  V30 605 O 61.4561 -1.20337 -1.52804 0
M  V30 606 C 61.7391 -3.38968 1.21544 0
M  V30 607 C 61.5921 -3.56084 2.74816 0
M  V30 608 C 62.9111 -4.32648 0.806482 0
M  V30 609 H 60.0301 -0.684619 0.272883 0
M  V30 610 H 62.6721 -1.39113 1.29413 0
M  V30 611 H 60.8221 -3.8119 0.750081 0
M  V30 612 H 62.4941 -3.22946 3.29399 0
M  V30 613 H 60.7371 -2.98699 3.14582 0
M  V30 614 H 61.4081 -4.61639 3.02644 0
M  V30 615 H 63.8841 -3.98211 1.20695 0
M  V30 616 H 62.7601 -5.36462 1.1619 0
M  V30 617 H 63.0211 -4.41146 -0.29029 0
M  V30 618 N 62.0802 -0.821533 -1.34494 0
M  V30 619 C 63.3272 -0.408946 -1.98328 0
M  V30 620 C 63.6552 1.02764 -1.65136 0
M  V30 621 O 62.9102 1.73026 -0.914349 0
M  V30 622 C 63.2092 -0.556512 -3.53041 0
M  V30 623 C 62.8752 -1.95861 -4.0614 0
M  V30 624 C 61.5372 -2.34217 -4.20352 0
M  V30 625 C 63.8892 -2.87523 -4.34718 0
M  V30 626 C 61.2172 -3.63572 -4.6047 0
M  V30 627 C 63.5692 -4.1634 -4.76281 0
M  V30 628 C 62.2332 -4.54675 -4.88699 0
M  V30 629 H 61.5032 -0.149644 -0.725732 0
M  V30 630 H 64.1502 -1.04521 -1.6046 0
M  V30 631 H 62.4552 0.163148 -3.9146 0
M  V30 632 H 64.1522 -0.217826 -4.00408 0
M  V30 633 H 60.7422 -1.65066 -3.95539 0
M  V30 634 H 64.9262 -2.59133 -4.23277 0
M  V30 635 H 60.1822 -3.93101 -4.68275 0
M  V30 636 H 64.3562 -4.87455 -4.97354 0
M  V30 637 H 61.9832 -5.54959 -5.19542 0
M  V30 638 N 63.5583 1.46682 -0.576371 0
M  V30 639 C 64.4883 2.33028 0.148397 0
M  V30 640 C 65.4693 1.44961 0.889956 0
M  V30 641 O 66.6543 1.73789 0.866662 0
M  V30 642 C 63.7843 3.27117 1.1667 0
M  V30 643 C 62.7383 4.24575 0.540386 0
M  V30 644 C 62.0643 5.08126 1.6647 0
M  V30 645 C 63.3643 5.19722 -0.518331 0
M  V30 646 H 65.0583 2.93875 -0.572509 0
M  V30 647 H 62.6043 1.41315 -0.276768 0
M  V30 648 H 64.5573 3.86374 1.68204 0
M  V30 649 H 63.2813 2.64364 1.9178 0
M  V30 650 H 61.9403 3.66571 0.0461769 0
M  V30 651 H 61.5883 4.41762 2.40531 0
M  V30 652 H 61.2883 5.74122 1.25131 0
M  V30 653 H 62.8123 5.70246 2.18293 0
M  V30 654 H 64.2263 5.73232 -0.0883058 0
M  V30 655 H 62.6233 5.94026 -0.851679 0
M  V30 656 H 63.6933 4.64037 -1.40703 0
M  V30 657 N 65.0364 0.313813 1.54444 0
M  V30 658 C 66.2644 -0.293918 2.04802 0
M  V30 659 C 66.6794 -1.46537 1.19047 0
M  V30 660 O 66.0364 -1.81182 0.218939 0
M  V30 661 C 66.0874 -0.737806 3.53891 0
M  V30 662 O 65.8084 0.387038 4.36387 0
M  V30 663 C 67.3094 -1.40936 4.203 0
M  V30 664 H 64.5294 -0.0620057 0.668129 0
M  V30 665 H 67.0734 0.457169 1.99324 0
M  V30 666 H 65.2284 -1.43889 3.59687 0
M  V30 667 H 65.6424 0.0391274 5.24485 0
M  V30 668 H 67.1164 -1.67099 5.26101 0
M  V30 669 H 67.5934 -2.35355 3.70816 0
M  V30 670 H 68.1994 -0.751117 4.18615 0
M  V30 671 N 66.5145 -1.57545 0.0417849 0
M  V30 672 C 67.4445 -2.14009 -0.933929 0
M  V30 673 C 68.4255 -1.05938 -1.33083 0
M  V30 674 O 69.6105 -1.33833 -1.40721 0
M  V30 675 C 66.7405 -2.67747 -2.21199 0
M  V30 676 C 65.6945 -3.80718 -1.95544 0
M  V30 677 C 65.0205 -4.20935 -3.29724 0
M  V30 678 C 66.3205 -5.06258 -1.28452 0
M  V30 679 H 68.0145 -2.95788 -0.463645 0
M  V30 680 H 65.5605 -1.42285 -0.221573 0
M  V30 681 H 67.5135 -3.05886 -2.89848 0
M  V30 682 H 66.2375 -1.83147 -2.70416 0
M  V30 683 H 64.8965 -3.43037 -1.2931 0
M  V30 684 H 64.5445 -3.33298 -3.76724 0
M  V30 685 H 64.2445 -4.9707 -3.13361 0
M  V30 686 H 65.7685 -4.61666 -3.9962 0
M  V30 687 H 67.1825 -5.41903 -1.8712 0
M  V30 688 H 65.5795 -5.87475 -1.22445 0
M  V30 689 H 66.6495 -4.84207 -0.259219 0
M  V30 690 N 67.9926 0.231505 -1.5589 0
M  V30 691 C 69.2406 0.955461 -1.78088 0
M  V30 692 C 69.5616 1.85262 -0.608533 0
M  V30 693 O 68.8316 1.92277 0.375035 0
M  V30 694 H 67.4116 0.355787 -0.656829 0
M  V30 695 H 70.0736 0.245751 -1.93344 0
M  V30 696 H 69.1696 1.56814 -2.69844 0
M  V30 697 N 69.4707 1.49531 0.497807 0
M  V30 698 C 70.7167 1.59415 1.25358 0
M  V30 699 C 71.0497 0.281422 1.9215 0
M  V30 700 O 70.3247 -0.715249 1.80871 0
M  V30 701 C 70.6077 2.75566 2.3181 0
M  V30 702 C 70.4607 4.16642 1.69498 0
M  V30 703 C 71.7797 2.87347 3.33346 0
M  V30 704 H 68.8987 0.580244 0.454408 0
M  V30 705 H 71.5407 1.81827 0.551262 0
M  V30 706 H 69.6907 2.56587 2.91711 0
M  V30 707 H 71.3627 4.47145 1.13399 0
M  V30 708 H 69.6057 4.22141 0.998978 0
M  V30 709 H 70.2767 4.93792 2.46725 0
M  V30 710 H 72.7527 3.04634 2.83438 0
M  V30 711 H 71.6287 3.70289 4.05188 0
M  V30 712 H 71.8897 1.96834 3.95865 0
M  V30 713 N 70.9488 -0.749086 1.3866 0
M  V30 714 C 72.1978 -1.50371 1.3443 0
M  V30 715 C 72.5108 -1.95503 -0.0616397 0
M  V30 716 O 73.7168 -2.70554 -0.226489 0
M  V30 717 C 72.1728 -2.71644 2.36088 0
M  V30 718 C 71.7808 -2.3352 3.82325 0
M  V30 719 C 73.5248 -3.49518 2.40909 0
M  V30 720 C 71.4318 -3.51431 4.75658 0
M  V30 721 H 70.3618 -0.564628 0.499712 0
M  V30 722 H 73.0128 -0.818449 1.64237 0
M  V30 723 H 71.3948 -3.42175 1.9933 0
M  V30 724 H 72.5688 -1.70627 4.28046 0
M  V30 725 H 70.8838 -1.6877 3.80665 0
M  V30 726 H 73.4808 -4.37197 3.07836 0
M  V30 727 H 73.8238 -3.90992 1.42937 0
M  V30 728 H 74.3568 -2.86005 2.76489 0
M  V30 729 H 71.0958 -3.15019 5.74842 0
M  V30 730 H 70.6158 -4.13352 4.34627 0
M  V30 731 H 72.2948 -4.17953 4.93887 0
M  V30 732 N 72.4269 -1.23603 -0.977757 0
M  V30 733 C 73.6519 -1.09735 -1.75991 0
M  V30 734 C 74.0769 0.346858 -1.84874 0
M  V30 735 O 73.4349 1.25093 -1.3123 0
M  V30 736 C 73.4829 -1.73051 -3.16363 0
M  V30 737 O 72.5869 -0.994452 -4.0023 0
M  V30 738 H 71.9279 -0.384476 -0.541364 0
M  V30 739 H 74.4579 -1.6371 -1.2272 0
M  V30 740 H 74.4679 -1.78398 -3.66931 0
M  V30 741 H 73.1429 -2.78137 -3.09213 0
M  V30 742 H 71.7199 -1.01812 -3.58732 0
M  V30 743 N 73.905 1.17692 -1.04816 0
M  V30 744 C 74.835 2.23777 -0.666791 0
M  V30 745 C 75.816 1.66796 0.33361 0
M  V30 746 O 77.001 1.93039 0.212042 0
M  V30 747 C 74.131 3.47281 -0.0367933 0
M  V30 748 C 73.085 4.17059 -0.961546 0
M  V30 749 C 72.411 5.34342 -0.195626 0
M  V30 750 C 73.711 4.69713 -2.28402 0
M  V30 751 H 75.405 2.55933 -1.55367 0
M  V30 752 H 72.951 1.23019 -0.748484 0
M  V30 753 H 74.904 4.20706 0.241775 0
M  V30 754 H 73.628 3.14381 0.885004 0
M  V30 755 H 72.287 3.45541 -1.22462 0
M  V30 756 H 71.935 4.97692 0.728816 0
M  V30 757 H 71.635 5.81966 -0.811775 0
M  V30 758 H 73.159 6.10553 0.0757473 0
M  V30 759 H 74.573 5.34794 -2.06563 0
M  V30 760 H 72.97 5.279 -2.8538 0
M  V30 761 H 74.04 3.86726 -2.92525 0
M  V30 762 N 75.3831 0.828654 1.34056 0
M  V30 763 C 76.3131 0.269443 2.3194 0
M  V30 764 C 77.2941 -0.617247 1.58506 0
M  V30 765 O 78.4791 -0.542931 1.86456 0
M  V30 766 C 75.6091 -0.564793 3.42677 0
M  V30 767 C 74.5631 0.225241 4.27407 0
M  V30 768 C 73.8891 -0.7321 5.29664 0
M  V30 769 C 75.1891 1.43663 5.02154 0
M  V30 770 H 76.8831 1.08728 2.7896 0
M  V30 771 H 74.4291 0.524283 1.34117 0
M  V30 772 H 76.3821 -0.966233 4.10173 0
M  V30 773 H 75.1061 -1.41574 2.9432 0
M  V30 774 H 73.7651 0.608117 3.61521 0
M  V30 775 H 73.4131 -1.57916 4.77568 0
M  V30 776 H 73.1131 -0.20767 5.87233 0
M  V30 777 H 74.6371 -1.13128 6.00029 0
M  V30 778 H 76.0511 1.1089 5.62473 0
M  V30 779 H 74.4481 1.89711 5.69324 0
M  V30 780 H 75.5181 2.21181 4.31517 0
M  V30 781 N 76.8612 -1.46375 0.584142 0
M  V30 782 C 77.7712 -2.34115 -0.150728 0
M  V30 783 C 78.7872 -1.49838 -0.884567 0
M  V30 784 O 79.9632 -1.82704 -0.847429 0
M  V30 785 C 77.0282 -3.2705 -1.15062 0
M  V30 786 C 76.0892 -4.27228 -0.421293 0
M  V30 787 C 75.3222 -5.15722 -1.37355 0
M  V30 788 O 75.5452 -5.07176 -2.61014 0
M  V30 789 O 74.4792 -5.95383 -0.883355 0
M  V30 790 H 78.3052 -2.98309 0.569708 0
M  V30 791 H 75.8902 -1.45373 0.344535 0
M  V30 792 H 77.7722 -3.84381 -1.72712 0
M  V30 793 H 76.4472 -2.65451 -1.8525 0
M  V30 794 H 75.3542 -3.7358 0.197085 0
M  V30 795 H 76.6872 -4.91616 0.239641 0
M  V30 796 N 78.3393 -0.321999 -1.54275 0
M  V30 797 C 79.2873 0.560206 -2.25753 0
M  V30 798 C 80.2813 1.11984 -1.27106 0
M  V30 799 O 81.4873 1.06806 -1.44888 0
M  V30 800 H 77.8623 0.199304 -0.725108 0
M  V30 801 H 79.8333 -0.0649365 -2.98329 0
M  V30 802 C 78.5823 1.71023 -3.02731 0
M  V30 803 H 77.9053 1.28885 -3.78456 0
M  V30 804 H 79.3453 2.30314 -3.55993 0
M  V30 805 C 77.8043 2.62692 -2.10938 0
M  V30 806 O 78.3343 3.64364 -1.6912 0
M  V30 807 N 76.5403 2.30891 -1.76459 0
M  V30 808 H 76.0873 1.48253 -2.10663 0
M  V30 809 H 76.0453 2.92487 -1.1532 0
M  V30 810 N 79.8174 1.5752 -0.0501392 0
M  V30 811 C 81.0664 1.91827 0.623328 0
M  V30 812 C 81.3794 0.930222 1.72065 0
M  V30 813 O 82.5854 1.1653 2.4522 0
M  V30 814 C 81.0414 3.40692 1.16003 0
M  V30 815 C 80.6494 4.479 0.0948811 0
M  V30 816 C 82.3934 3.84034 1.80881 0
M  V30 817 C 80.3004 5.87879 0.644411 0
M  V30 818 H 79.2304 0.715918 0.236596 0
M  V30 819 H 81.8814 1.83115 -0.118861 0
M  V30 820 H 80.2634 3.44405 1.9545 0
M  V30 821 H 81.4374 4.55775 -0.678675 0
M  V30 822 H 79.7524 4.13892 -0.45637 0
M  V30 823 H 82.3494 4.85984 2.22988 0
M  V30 824 H 82.6924 3.20225 2.6601 0
M  V30 825 H 83.2254 3.82833 1.0809 0
M  V30 826 H 79.9644 6.55282 -0.169229 0
M  V30 827 H 79.4844 5.83567 1.38598 0
M  V30 828 H 81.1634 6.37098 1.12763 0
M  V30 829 N 81.2955 -0.223234 1.56011 0
M  V30 830 C 82.2255 -1.27988 1.95298 0
M  V30 831 C 83.2065 -1.48976 0.820979 0
M  V30 832 O 84.3915 -1.61188 1.08315 0
M  V30 833 C 81.5215 -2.63 2.26822 0
M  V30 834 C 80.4755 -2.56671 3.42497 0
M  V30 835 C 79.8015 -3.95697 3.59622 0
M  V30 836 C 81.1015 -2.11601 4.77517 0
M  V30 837 H 82.7955 -0.953525 2.8381 0
M  V30 838 H 80.3415 -0.457244 1.36548 0
M  V30 839 H 82.2945 -3.37077 2.52898 0
M  V30 840 H 81.0185 -2.9732 1.35161 0
M  V30 841 H 79.6775 -1.85051 3.16467 0
M  V30 842 H 79.3255 -4.27322 2.6534 0
M  V30 843 H 79.0255 -3.92345 4.37424 0
M  V30 844 H 80.5495 -4.71438 3.88044 0
M  V30 845 H 81.9635 -2.7542 5.02809 0
M  V30 846 H 80.3605 -2.19311 5.5859 0
M  V30 847 H 81.4305 -1.06824 4.72987 0
M  V30 848 N 82.7736 -1.49793 -0.48987 0
M  V30 849 C 84.0196 -1.60078 -1.24511 0
M  V30 850 C 84.3526 -0.291608 -1.91998 0
M  V30 851 O 83.6276 0.705647 -1.81248 0
M  V30 852 C 83.9106 -2.76791 -2.30345 0
M  V30 853 C 83.7636 -4.17535 -1.67286 0
M  V30 854 C 85.0826 -2.89111 -3.31817 0
M  V30 855 H 82.2016 -0.582645 -0.451324 0
M  V30 856 H 84.8436 -1.82117 -0.541612 0
M  V30 857 H 82.9936 -2.5813 -2.90346 0
M  V30 858 H 84.6656 -4.4774 -1.11026 0
M  V30 859 H 82.9086 -4.22665 -0.976577 0
M  V30 860 H 83.5796 -4.95094 -2.44103 0
M  V30 861 H 86.0556 -3.06133 -2.81819 0
M  V30 862 H 84.9316 -3.72433 -4.03219 0
M  V30 863 H 85.1926 -1.9893 -3.94815 0
M  V30 864 N 84.2517 0.741722 -1.39055 0
M  V30 865 C 85.5007 1.49656 -1.35225 0
M  V30 866 C 85.8137 1.95533 0.0512708 0
M  V30 867 O 87.0197 2.7067 0.212138 0
M  V30 868 C 85.4757 2.70389 -2.37525 0
M  V30 869 C 85.0837 2.31489 -3.83558 0
M  V30 870 C 86.8277 3.48236 -2.42759 0
M  V30 871 C 84.7347 3.48903 -4.77515 0
M  V30 872 H 83.6647 0.56197 -0.502699 0
M  V30 873 H 86.3157 0.809727 -1.64668 0
M  V30 874 H 84.6977 3.41113 -2.01142 0
M  V30 875 H 85.8717 1.68354 -4.28945 0
M  V30 876 H 84.1867 1.66749 -3.81554 0
M  V30 877 H 86.7837 4.35558 -3.1015 0
M  V30 878 H 87.1267 3.90229 -1.45008 0
M  V30 879 H 87.6597 2.84535 -2.78002 0
M  V30 880 H 84.3987 3.11966 -5.76504 0
M  V30 881 H 83.9187 4.11041 -4.36813 0
M  V30 882 H 85.5977 4.15328 -4.96096 0
M  V30 883 N 85.7298 1.2412 0.971189 0
M  V30 884 C 86.9778 1.07668 1.71032 0
M  V30 885 C 87.2988 -0.385797 1.91146 0
M  V30 886 O 86.5688 -1.27569 1.4867 0
M  V30 887 H 85.1488 0.395429 0.633755 0
M  V30 888 H 87.8108 1.55984 1.16855 0
M  V30 889 H 86.9068 1.57195 2.69622 0
M  V30 890 N 87.2079 -1.17134 1.05439 0
M  V30 891 C 88.1709 -2.19439 0.661764 0
M  V30 892 C 89.1709 -1.58199 -0.288042 0
M  V30 893 O 90.3609 -1.74053 -0.0715803 0
M  V30 894 C 87.4929 -3.40889 -0.0276209 0
M  V30 895 H 88.6859 -2.55688 1.56728 0
M  V30 896 H 86.2389 -1.31259 0.848567 0
M  V30 897 H 86.9739 -3.10187 -0.94629 0
M  V30 898 H 86.7589 -3.86586 0.655238 0
M  V30 899 H 88.2489 -4.16603 -0.288342 0
M  V30 900 N 88.686 -0.835752 -1.33615 0
M  V30 901 C 89.935 -0.426289 -1.97144 0
M  V30 902 C 90.248 1.01912 -1.66953 0
M  V30 903 O 91.454 1.53311 -2.24072 0
M  V30 904 C 89.91 -0.711321 -3.52801 0
M  V30 905 C 89.518 -2.1712 -3.91871 0
M  V30 906 C 91.262 -0.368654 -4.22896 0
M  V30 907 C 89.169 -2.40044 -5.40493 0
M  V30 908 H 88.099 -0.15567 -0.737755 0
M  V30 909 H 90.75 -1.0239 -1.52278 0
M  V30 910 H 89.132 -0.0433766 -3.95976 0
M  V30 911 H 90.306 -2.87936 -3.59763 0
M  V30 912 H 88.621 -2.47654 -3.34749 0
M  V30 913 H 91.218 -0.517601 -5.32189 0
M  V30 914 H 91.561 0.688078 -4.10574 0
M  V30 915 H 92.094 -0.991702 -3.8524 0
M  V30 916 H 88.833 -3.44271 -5.57815 0
M  V30 917 H 88.353 -1.73785 -5.74072 0
M  V30 918 H 90.032 -2.23042 -6.0734 0
M  V30 919 N 90.1641 1.46063 -0.591896 0
M  V30 920 C 91.4101 2.02638 -0.0811191 0
M  V30 921 C 91.7431 1.4613 1.27905 0
M  V30 922 O 91.0181 0.629908 1.84017 0
M  V30 923 C 91.3011 3.60091 -0.0252436 0
M  V30 924 C 91.1541 4.26965 -1.41496 0
M  V30 925 C 92.4731 4.3496 0.670685 0
M  V30 926 H 89.5921 0.73635 -0.0309524 0
M  V30 927 H 92.2341 1.741 -0.760859 0
M  V30 928 H 90.3841 3.84535 0.553624 0
M  V30 929 H 92.0561 4.13756 -2.0397 0
M  V30 930 H 90.2991 3.85971 -1.98011 0
M  V30 931 H 90.9701 5.35781 -1.32825 0
M  V30 932 H 93.4461 4.15716 0.178825 0
M  V30 933 H 92.3221 5.44686 0.678837 0
M  V30 934 H 92.5831 4.06685 1.73379 0
M  V30 935 N 91.6422 0.330177 1.54103 0
M  V30 936 C 92.5892 -0.532762 2.24567 0
M  V30 937 C 93.5592 -1.10635 1.23892 0
M  V30 938 O 94.7442 -1.14546 1.5259 0
M  V30 939 C 91.8842 -1.6845 3.01195 0
M  V30 940 C 90.9972 -1.13951 4.167 0
M  V30 941 C 90.1322 -2.25746 4.80845 0
M  V30 942 C 89.1712 -1.6853 5.88442 0
M  V30 943 N 88.3082 -2.74014 6.46421 0
M  V30 944 H 93.1482 0.0746905 2.97906 0
M  V30 945 H 90.6852 0.048632 1.4702 0
M  V30 946 H 92.6432 -2.36234 3.43874 0
M  V30 947 H 91.2732 -2.26314 2.30178 0
M  V30 948 H 90.3252 -0.35301 3.78758 0
M  V30 949 H 91.6372 -0.680892 4.94131 0
M  V30 950 H 90.7912 -3.01422 5.26526 0
M  V30 951 H 89.5302 -2.74947 4.0281 0
M  V30 952 H 88.5352 -0.913543 5.42157 0
M  V30 953 H 89.7602 -1.20198 6.68378 0
M  V30 954 H 87.7062 -3.22494 5.71256 0
M  V30 955 H 87.6232 -2.32735 7.19285 0
M  V30 956 H 88.8912 -3.49499 6.96757 0
M  V30 957 N 93.1203 -1.57491 0.0584922 0
M  V30 958 C 94.0683 -2.13148 -0.931168 0
M  V30 959 C 95.0623 -1.06507 -1.31729 0
M  V30 960 O 96.2683 -1.24906 -1.29609 0
M  V30 961 H 92.6433 -0.68137 -0.31818 0
M  V30 962 H 94.6143 -2.95187 -0.436707 0
M  V30 963 C 93.3633 -2.69732 -2.19408 0
M  V30 964 H 92.6863 -3.51454 -1.90578 0
M  V30 965 H 94.1263 -3.12287 -2.86798 0
M  V30 966 C 92.5853 -1.63855 -2.94369 0
M  V30 967 O 93.1153 -1.05565 -3.87581 0
M  V30 968 N 91.3213 -1.35202 -2.57233 0
M  V30 969 H 90.8683 -1.82791 -1.81508 0
M  V30 970 H 90.8263 -0.645922 -3.07693 0
M  V30 971 N 94.5984 0.214957 -1.56127 0
M  V30 972 C 95.5454 1.26642 -1.92952 0
M  V30 973 C 96.5154 1.46244 -0.78753 0
M  V30 974 O 97.7004 1.59704 -1.04399 0
M  V30 975 C 94.8404 2.6104 -2.25726 0
M  V30 976 C 93.9534 2.49183 -3.52891 0
M  V30 977 C 93.0884 3.76149 -3.7508 0
M  V30 978 C 92.1274 3.59041 -4.95738 0
M  V30 979 N 91.2644 4.77972 -5.14283 0
M  V30 980 H 96.1044 0.945384 -2.82607 0
M  V30 981 H 93.6414 0.455489 -1.3987 0
M  V30 982 H 95.5994 3.39313 -2.42739 0
M  V30 983 H 94.2294 2.91227 -1.39236 0
M  V30 984 H 93.2814 1.6231 -3.44034 0
M  V30 985 H 94.5934 2.32466 -4.41318 0
M  V30 986 H 93.7474 4.62865 -3.92226 0
M  V30 987 H 92.4864 3.95799 -2.84947 0
M  V30 988 H 91.4914 2.7071 -4.78535 0
M  V30 989 H 92.7164 3.40856 -5.87362 0
M  V30 990 H 90.6624 4.97923 -4.27093 0
M  V30 991 H 90.5794 4.64006 -5.96853 0
M  V30 992 H 91.8474 5.66096 -5.35869 0
M  V30 993 N 96.0765 1.50051 0.48192 0
M  V30 994 C 97.0245 1.68635 1.60203 0
M  V30 995 C 98.0185 0.552184 1.60148 0
M  V30 996 O 99.2245 0.732377 1.64427 0
M  V30 997 H 95.5995 0.532081 0.531407 0
M  V30 998 H 97.5705 2.62616 1.41688 0
M  V30 999 C 96.3195 1.78775 2.9822 0
M  V30 1000 H 95.6425 2.6543 2.98976 0
M  V30 1001 H 97.0825 1.95806 3.7608 0
M  V30 1002 C 95.5415 0.536849 3.32595 0
M  V30 1003 O 96.0715 -0.328897 4.00351 0
M  V30 1004 N 94.2775 0.394091 2.87915 0
M  V30 1005 H 93.8245 1.09962 2.32951 0
M  V30 1006 H 93.7825 -0.441737 3.11281 0
M  V30 1007 N 97.5546 -0.734337 1.39446 0
M  V30 1008 C 98.4846 -1.86155 1.40955 0
M  V30 1009 C 99.4656 -1.67898 0.272827 0
M  V30 1010 O 100.651 -1.88207 0.478743 0
M  V30 1011 C 97.7806 -3.23912 1.25294 0
M  V30 1012 C 96.7346 -3.56808 2.36373 0
M  V30 1013 C 96.0606 -4.93508 2.058 0
M  V30 1014 C 97.3606 -3.59713 3.78687 0
M  V30 1015 H 99.0546 -1.8515 2.35287 0
M  V30 1016 H 96.6006 -0.889367 1.13253 0
M  V30 1017 H 98.5536 -4.02443 1.2497 0
M  V30 1018 H 97.2776 -3.25446 0.274308 0
M  V30 1019 H 95.9366 -2.80606 2.35914 0
M  V30 1020 H 95.5846 -4.91623 1.06374 0
M  V30 1021 H 95.2846 -5.16486 2.80208 0
M  V30 1022 H 96.8086 -5.74396 2.07128 0
M  V30 1023 H 98.2226 -4.2832 3.81071 0
M  V30 1024 H 96.6196 -3.94209 4.52459 0
M  V30 1025 H 97.6896 -2.59504 4.09617 0
M  V30 1026 N 99.0327 -1.24633 -0.964593 0
M  V30 1027 C 99.9827 -1.00841 -2.04487 0
M  V30 1028 C 100.967 0.0512468 -1.60818 0
M  V30 1029 O 102.159 -0.162865 -1.76249 0
M  V30 1030 C 99.2877 -0.618474 -3.37683 0
M  V30 1031 C 98.3737 -1.71437 -3.87905 0
M  V30 1032 N 98.7647 -2.9477 -4.11029 0
M  V30 1033 C 97.0627 -1.5926 -4.16596 0
M  V30 1034 C 97.7637 -3.65834 -4.52261 0
M  V30 1035 N 96.7397 -2.9341 -4.57615 0
M  V30 1036 H 100.542 -1.94487 -2.20345 0
M  V30 1037 H 98.0557 -1.14805 -1.14863 0
M  V30 1038 H 100.053 -0.429247 -4.14684 0
M  V30 1039 H 98.7127 0.310766 -3.23209 0
M  V30 1040 H 99.7237 -3.30917 -3.9839 0
M  V30 1041 H 96.4007 -0.731606 -4.1104 0
M  V30 1042 H 97.7907 -4.71646 -4.78539 0
M  V30 1043 N 100.511 1.16574 -1.06058 0
M  V30 1044 C 101.736 1.91493 -0.796562 0
M  V30 1045 C 102.161 1.76773 0.642868 0
M  V30 1046 O 101.519 1.09142 1.44768 0
M  V30 1047 C 101.567 3.40293 -1.19303 0
M  V30 1048 O 100.671 4.11074 -0.330394 0
M  V30 1049 H 100.012 0.596678 -0.291326 0
M  V30 1050 H 102.542 1.47708 -1.41575 0
M  V30 1051 H 102.552 3.91057 -1.16356 0
M  V30 1052 H 101.227 3.50326 -2.24153 0
M  V30 1053 H 99.8038 3.70513 -0.421225 0
M  V30 1054 N 101.989 0.842826 1.3317 0
M  V30 1055 C 103.4 0.496651 1.79973 0
M  V30 1056 C 103.751 -0.984641 1.69703 0
M  V30 1057 O 102.876 -1.76743 1.24863 0
M  V30 1058 C 103.471 0.894727 3.26772 0
M  V30 1059 C 102.03 0.600629 3.71577 0
M  V30 1060 C 101.177 1.10091 2.5451 0
M  V30 1061 H 104.128 1.03116 1.20635 0
M  V30 1062 H 104.149 0.206347 3.7994 0
M  V30 1063 H 103.661 1.97287 3.34215 0
M  V30 1064 H 101.762 -0.467284 3.69658 0
M  V30 1065 H 101.875 1.15863 4.64879 0
M  V30 1066 H 100.239 0.52162 2.49301 0
M  V30 1067 H 101.022 2.18591 2.64713 0
M  V30 1068 N 103.467 -1.45747 0.599634 0
M  V30 1069 C 104.4 -2.27547 -0.172552 0
M  V30 1070 C 105.378 -1.36657 -0.881116 0
M  V30 1071 O 106.562 -1.66081 -0.891595 0
M  V30 1072 C 103.689 -3.14829 -1.24903 0
M  V30 1073 C 102.735 -4.21603 -0.644465 0
M  V30 1074 S 103.568 -5.32754 0.541606 0
M  V30 1075 C 104.724 -6.23604 -0.535656 0
M  V30 1076 H 104.957 -2.92691 0.521468 0
M  V30 1077 H 102.49 -1.49473 0.386947 0
M  V30 1078 H 104.448 -3.65675 -1.86527 0
M  V30 1079 H 103.109 -2.48965 -1.91508 0
M  V30 1080 H 102.302 -4.82566 -1.45417 0
M  V30 1081 H 101.904 -3.73857 -0.103534 0
M  V30 1082 H 104.196 -6.62519 -1.41686 0
M  V30 1083 H 105.139 -7.0809 0.0376246 0
M  V30 1084 H 105.547 -5.58103 -0.84741 0
M  V30 1085 N 104.945 -0.338344 -1.53925 0
M  V30 1086 C 106.175 0.260919 -2.04946 0
M  V30 1087 C 106.583 1.45174 -1.2133 0
M  V30 1088 O 105.926 1.82122 -0.240262 0
M  V30 1089 C 105.988 0.744596 -3.51704 0
M  V30 1090 C 105.652 -0.325883 -4.55837 0
M  V30 1091 C 106.649 -1.16687 -5.06636 0
M  V30 1092 C 104.334 -0.478317 -5.00017 0
M  V30 1093 C 106.328 -2.14588 -6.00192 0
M  V30 1094 C 104.015 -1.46073 -5.93385 0
M  V30 1095 C 105.013 -2.29297 -6.4336 0
M  V30 1096 O 104.701 -3.25867 -7.34892 0
M  V30 1097 H 104.433 0.0551207 -0.673749 0
M  V30 1098 H 106.987 -0.486984 -1.99544 0
M  V30 1099 H 105.217 1.54366 -3.54553 0
M  V30 1100 H 106.906 1.26383 -3.85723 0
M  V30 1101 H 107.672 -1.06016 -4.73271 0
M  V30 1102 H 103.551 0.159613 -4.60724 0
M  V30 1103 H 107.095 -2.79585 -6.39123 0
M  V30 1104 H 102.992 -1.56802 -6.26166 0
M  V30 1105 H 103.76 -3.21278 -7.5281 0
M  V30 1106 N 106.423 1.57458 -0.0668435 0
M  V30 1107 C 107.67 1.93301 0.603406 0
M  V30 1108 C 107.998 0.946486 1.69917 0
M  V30 1109 O 107.253 -0.0387021 1.95662 0
M  V30 1110 C 107.552 3.35784 1.22409 0
M  V30 1111 C 107.218 4.50179 0.254955 0
M  V30 1112 C 105.88 4.81199 -0.0116746 0
M  V30 1113 C 108.232 5.19598 -0.408338 0
M  V30 1114 C 105.56 5.78978 -0.94877 0
M  V30 1115 C 107.912 6.18381 -1.33372 0
M  V30 1116 C 106.576 6.47821 -1.60887 0
M  V30 1117 H 105.846 0.707338 0.220802 0
M  V30 1118 H 108.493 1.91012 -0.136665 0
M  V30 1119 H 106.798 3.34515 2.03978 0
M  V30 1120 H 108.495 3.60804 1.74989 0
M  V30 1121 H 105.085 4.25983 0.472954 0
M  V30 1122 H 109.269 4.95832 -0.215456 0
M  V30 1123 H 104.525 6.00115 -1.16925 0
M  V30 1124 H 108.699 6.71277 -1.85367 0
M  V30 1125 H 106.326 7.23399 -2.33661 0
M  V30 1126 N 107.901 -0.206675 1.56239 0
M  V30 1127 C 109.148 -0.928842 1.79941 0
M  V30 1128 C 109.476 -1.83734 0.638131 0
M  V30 1129 O 108.731 -1.92039 -0.376746 0
M  V30 1130 C 109.03 -1.78675 3.09532 0
M  V30 1131 C 108.696 -1.03022 4.38973 0
M  V30 1132 C 107.358 -0.821302 4.74139 0
M  V30 1133 C 109.71 -0.497081 5.18824 0
M  V30 1134 C 107.038 -0.0675719 5.86661 0
M  V30 1135 C 109.39 0.24338 6.32132 0
M  V30 1136 C 108.054 0.463422 6.65889 0
M  V30 1137 H 107.324 -0.339887 0.658451 0
M  V30 1138 H 109.971 -0.195977 1.90495 0
M  V30 1139 H 108.276 -2.58794 2.94165 0
M  V30 1140 H 109.973 -2.34792 3.25075 0
M  V30 1141 H 106.563 -1.20306 4.11369 0
M  V30 1142 H 110.747 -0.645921 4.92079 0
M  V30 1143 H 106.003 0.112995 6.11296 0
M  V30 1144 H 110.177 0.66393 6.93228 0
M  V30 1145 H 107.804 1.04938 7.52922 0
M  V30 1146 N 109.379 -1.50304 -0.473955 0
M  V30 1147 C 110.625 -1.61389 -1.22806 0
M  V30 1148 C 110.958 -0.311955 -1.91678 0
M  V30 1149 O 110.233 0.686384 -1.81986 0
M  V30 1150 C 110.516 -2.79219 -2.27396 0
M  V30 1151 C 110.369 -4.19286 -1.62848 0
M  V30 1152 C 111.688 -2.92614 -3.28732 0
M  V30 1153 H 108.807 -0.587399 -0.445119 0
M  V30 1154 H 111.449 -1.82681 -0.522265 0
M  V30 1155 H 109.599 -2.61195 -2.87592 0
M  V30 1156 H 111.271 -4.48892 -1.06271 0
M  V30 1157 H 109.514 -4.23677 -0.931693 0
M  V30 1158 H 110.185 -4.97655 -2.38838 0
M  V30 1159 H 112.661 -3.09105 -2.78556 0
M  V30 1160 H 111.537 -3.76688 -3.99246 0
M  V30 1161 H 111.798 -2.03107 -3.92683 0
M  V30 1162 N 110.857 0.726932 -1.39834 0
M  V30 1163 C 112.097 1.4992 -1.38936 0
M  V30 1164 C 112.461 1.91996 0.0126883 0
M  V30 1165 O 113.662 2.68399 0.146715 0
M  V30 1166 C 111.933 2.70013 -2.34153 0
M  V30 1167 S 113.492 3.59563 -2.51515 0
M  V30 1168 H 110.31 0.51271 -0.492595 0
M  V30 1169 H 112.912 0.85107 -1.76003 0
M  V30 1170 H 111.616 2.37254 -3.34871 0
M  V30 1171 H 111.147 3.39748 -1.98331 0
M  V30 1172 H 113.162 4.63973 -1.75909 0
M  V30 1173 N 112.336 1.25143 0.95797 0
M  V30 1174 C 113.561 1.12521 1.74223 0
M  V30 1175 C 113.986 -0.317402 1.85403 0
M  V30 1176 O 113.344 -1.2299 1.33204 0
M  V30 1177 C 113.392 1.78062 3.1357 0
M  V30 1178 O 112.496 1.058 3.98598 0
M  V30 1179 H 111.837 0.39304 0.535178 0
M  V30 1180 H 114.367 1.65641 1.201 0
M  V30 1181 H 114.377 1.84213 3.64046 0
M  V30 1182 H 113.052 2.83021 3.04749 0
M  V30 1183 H 111.629 1.07506 3.57067 0
M  V30 1184 N 113.814 -1.1601 1.06675 0
M  V30 1185 C 114.744 -2.22688 0.702307 0
M  V30 1186 C 115.725 -1.67306 -0.307032 0
M  V30 1187 O 116.91 -1.93352 -0.181305 0
M  V30 1188 C 114.04 -3.47178 0.092038 0
M  V30 1189 C 112.994 -4.15477 1.02777 0
M  V30 1190 C 112.32 -5.33963 0.28061 0
M  V30 1191 C 113.62 -4.66019 2.35846 0
M  V30 1192 H 115.314 -2.53429 1.59419 0
M  V30 1193 H 112.86 -1.21813 0.767961 0
M  V30 1194 H 114.813 -4.21037 -0.174814 0
M  V30 1195 H 113.537 -3.15749 -0.834877 0
M  V30 1196 H 112.196 -3.43549 1.27944 0
M  V30 1197 H 111.844 -4.98788 -0.649545 0
M  V30 1198 H 111.544 -5.806 0.904258 0
M  V30 1199 H 113.068 -6.10596 0.021396 0
M  V30 1200 H 114.482 -5.3144 2.15045 0
M  V30 1201 H 112.879 -5.23293 2.93743 0
M  V30 1202 H 113.949 -3.82023 2.98641 0
M  V30 1203 N 115.292 -0.849877 -1.32721 0
M  V30 1204 C 116.255 -0.296122 -2.27279 0
M  V30 1205 C 117.255 0.541458 -1.5141 0
M  V30 1206 O 118.445 0.353658 -1.70572 0
M  V30 1207 C 115.577 0.581579 -3.35902 0
M  V30 1208 H 116.77 -1.13064 -2.77771 0
M  V30 1209 H 114.323 -0.62383 -1.43311 0
M  V30 1210 H 115.058 1.43809 -2.9067 0
M  V30 1211 H 114.843 -0.0178814 -3.92096 0
M  V30 1212 H 116.333 0.961951 -4.0637 0
M  V30 1213 N 116.77 1.45427 -0.607355 0
M  V30 1214 C 118.016 2.0254 -0.102607 0
M  V30 1215 C 118.349 1.47478 1.26348 0
M  V30 1216 O 117.624 0.64939 1.83339 0
M  V30 1217 C 117.907 3.60044 -0.0634347 0
M  V30 1218 C 117.76 4.2544 -1.46017 0
M  V30 1219 C 119.079 4.35646 0.624514 0
M  V30 1220 H 116.198 0.73598 -0.0387607 0
M  V30 1221 H 118.84 1.73284 -0.779282 0
M  V30 1222 H 116.99 3.85101 0.512808 0
M  V30 1223 H 118.662 4.11569 -2.08347 0
M  V30 1224 H 116.905 3.83849 -2.02094 0
M  V30 1225 H 117.576 5.34342 -1.385 0
M  V30 1226 H 120.052 4.15882 0.134723 0
M  V30 1227 H 118.928 5.45376 0.621028 0
M  V30 1228 H 119.189 4.08501 1.69055 0
M  V30 1229 N 118.248 0.346503 1.53744 0
M  V30 1230 C 119.211 -0.496439 2.23759 0
M  V30 1231 C 120.211 -1.0252 1.2388 0
M  V30 1232 O 121.401 -0.913974 1.48297 0
M  V30 1233 C 118.533 -1.69187 2.95954 0
M  V30 1234 H 119.726 0.115952 2.99676 0
M  V30 1235 H 117.279 0.0978939 1.55993 0
M  V30 1236 H 118.014 -2.34288 2.24231 0
M  V30 1237 H 117.799 -1.31989 3.69217 0
M  V30 1238 H 119.289 -2.28969 3.49232 0
M  V30 1239 N 119.726 -1.57421 0.075193 0
M  V30 1240 C 121.003 -1.85029 -0.634329 0
M  V30 1241 C 121.383 -0.968305 -1.87582 0
M  V30 1242 O 120.731 -0.0354749 -2.28472 0
M  V30 1243 C 120.941 -3.35286 -0.968742 0
M  V30 1244 C 122.289 -4.02875 -1.34077 0
M  V30 1245 O 123.313 -3.40051 -1.06037 0
M  V30 1246 O 122.172 -5.13691 -1.86506 0
M  V30 1247 H 119.266 -0.7645 -0.315387 0
M  V30 1248 H 121.812 -1.69366 0.106382 0
M  V30 1249 H 120.584 -3.91203 -0.0871376 0
M  V30 1250 H 120.207 -3.56223 -1.7661 0
M  V30 1251 N 121.204 0.198386 -1.56346 0
M  V30 1252 C 122.137 1.27381 -1.89339 0
M  V30 1253 C 123.115 1.44106 -0.753134 0
M  V30 1254 O 124.299 1.59549 -1.00381 0
M  V30 1255 C 121.426 2.6409 -2.12071 0
M  V30 1256 C 120.472 2.64253 -3.34772 0
M  V30 1257 S 121.305 2.16013 -4.89999 0
M  V30 1258 C 122.461 3.54553 -5.15794 0
M  V30 1259 H 122.694 0.992058 -2.8026 0
M  V30 1260 H 120.227 0.401726 -1.49082 0
M  V30 1261 H 122.185 3.42786 -2.2585 0
M  V30 1262 H 120.846 2.89478 -1.21906 0
M  V30 1263 H 120.039 3.64768 -3.47794 0
M  V30 1264 H 119.641 1.93637 -3.1997 0
M  V30 1265 H 121.933 4.50396 -5.06112 0
M  V30 1266 H 122.876 3.46428 -6.1757 0
M  V30 1267 H 123.284 3.49313 -4.43442 0
M  V30 1268 N 122.682 1.50554 0.465978 0
M  V30 1269 C 123.612 1.72722 1.57128 0
M  V30 1270 C 124.593 0.576294 1.6004 0
M  V30 1271 O 125.778 0.81598 1.76225 0
M  V30 1272 C 122.908 1.82605 2.95419 0
M  V30 1273 C 121.862 2.97835 3.07373 0
M  V30 1274 C 121.188 2.92867 4.47363 0
M  V30 1275 C 122.488 4.38265 2.84114 0
M  V30 1276 H 124.182 2.65267 1.38829 0
M  V30 1277 H 121.728 1.2765 0.666441 0
M  V30 1278 H 123.681 1.96698 3.72677 0
M  V30 1279 H 122.405 0.866858 3.14886 0
M  V30 1280 H 121.064 2.83401 2.3255 0
M  V30 1281 H 120.712 1.94783 4.63755 0
M  V30 1282 H 120.412 3.70227 4.56296 0
M  V30 1283 H 121.936 3.09015 5.26633 0
M  V30 1284 H 123.35 4.53198 3.51118 0
M  V30 1285 H 121.747 5.17115 3.04487 0
M  V30 1286 H 122.817 4.50281 1.7993 0
M  V30 1287 N 124.16 -0.719506 1.40217 0
M  V30 1288 C 125.406 -1.48152 1.38488 0
M  V30 1289 C 125.739 -1.94195 -0.0141867 0
M  V30 1290 O 125.014 -1.67884 -0.982096 0
M  V30 1291 C 125.297 -2.71035 2.37091 0
M  V30 1292 C 125.15 -2.30912 3.86005 0
M  V30 1293 C 126.469 -3.73182 2.33288 0
M  V30 1294 H 123.588 -0.537395 0.504357 0
M  V30 1295 H 126.23 -0.821472 1.71324 0
M  V30 1296 H 124.38 -3.27352 2.0922 0
M  V30 1297 H 126.052 -1.80107 4.24687 0
M  V30 1298 H 124.295 -1.62958 4.02029 0
M  V30 1299 H 124.966 -3.18978 4.50508 0
M  V30 1300 H 127.442 -3.26485 2.57966 0
M  V30 1301 H 126.318 -4.56806 3.04334 0
M  V30 1302 H 126.579 -4.21202 1.34317 0
M  V30 1303 N 125.638 -1.25649 -0.95132 0
M  V30 1304 C 126.863 -1.13443 -1.73624 0
M  V30 1305 C 127.288 0.307565 -1.85568 0
M  V30 1306 O 126.646 1.22282 -1.33854 0
M  V30 1307 C 126.694 -1.79723 -3.12621 0
M  V30 1308 O 125.798 -1.07912 -3.98031 0
M  V30 1309 H 125.139 -0.395872 -0.533086 0
M  V30 1310 H 127.669 -1.66276 -1.1922 0
M  V30 1311 H 127.679 -1.86141 -3.63064 0
M  V30 1312 H 126.354 -2.84633 -3.03244 0
M  V30 1313 H 124.931 -1.09398 -3.56492 0
M  V30 1314 N 127.117 1.15442 -1.07289 0
M  V30 1315 C 128.05 2.19135 -0.636798 0
M  V30 1316 C 129.028 1.58884 0.34562 0
M  V30 1317 O 130.212 1.86805 0.252195 0
M  V30 1318 C 127.339 3.38638 0.0650014 0
M  V30 1319 C 126.385 4.17412 -0.87576 0
M  V30 1320 S 127.218 4.79882 -2.37642 0
M  V30 1321 C 128.374 6.02753 -1.6864 0
M  V30 1322 H 128.607 2.55787 -1.51526 0
M  V30 1323 H 126.14 1.26394 -0.886793 0
M  V30 1324 H 128.098 4.07873 0.463664 0
M  V30 1325 H 126.759 3.00331 0.919801 0
M  V30 1326 H 125.952 5.02909 -0.33143 0
M  V30 1327 H 125.554 3.53722 -1.21478 0
M  V30 1328 H 127.846 6.70113 -0.997753 0
M  V30 1329 H 128.789 6.61754 -2.51967 0
M  V30 1330 H 129.197 5.52355 -1.16465 0
M  V30 1331 N 128.595 0.856903 1.32268 0
M  V30 1332 C 129.82 0.474569 2.01897 0
M  V30 1333 C 130.245 -0.921766 1.63967 0
M  V30 1334 O 129.603 -1.60589 0.84148 0
M  V30 1335 C 129.651 0.623799 3.55164 0
M  V30 1336 O 128.755 -0.342459 4.10976 0
M  V30 1337 H 128.096 0.190422 0.63611 0
M  V30 1338 H 130.626 1.15672 1.68764 0
M  V30 1339 H 130.636 0.512169 4.04773 0
M  V30 1340 H 129.311 1.64202 3.82113 0
M  V30 1341 H 127.888 -0.18688 3.72431 0
M  V30 1342 N 130.073 -1.45103 0.615059 0
M  V30 1343 C 131.298 -2.07064 0.117988 0
M  V30 1344 C 131.723 -1.4554 -1.19163 0
M  V30 1345 O 131.081 -0.550855 -1.72729 0
M  V30 1346 C 131.129 -3.606 -0.000288387 0
M  V30 1347 O 130.233 -3.98847 -1.04856 0
M  V30 1348 H 129.574 -0.659467 0.0774581 0
M  V30 1349 H 132.104 -1.86236 0.847186 0
M  V30 1350 H 132.114 -4.07529 -0.196091 0
M  V30 1351 H 130.789 -4.04765 0.955932 0
M  V30 1352 H 129.366 -3.63577 -0.828619 0
M  V30 1353 N 131.551 -0.354651 -1.53558 0
M  V30 1354 C 132.514 0.484566 -2.24019 0
M  V30 1355 C 133.514 1.01861 -1.24422 0
M  V30 1356 O 134.704 0.906097 -1.4878 0
M  V30 1357 C 131.836 1.67615 -2.96847 0
M  V30 1358 H 133.029 -0.131843 -2.9961 0
M  V30 1359 H 130.582 -0.106165 -1.55939 0
M  V30 1360 H 131.317 2.33095 -2.25471 0
M  V30 1361 H 131.102 1.30029 -3.69912 0
M  V30 1362 H 132.592 2.27114 -3.50441 0
M  V30 1363 N 133.029 1.57378 -0.0835403 0
M  V30 1364 C 134.275 1.95025 0.577664 0
M  V30 1365 C 134.63 0.964049 1.66505 0
M  V30 1366 O 133.923 -0.0118235 1.91596 0
M  V30 1367 C 134.117 3.37063 1.1884 0
M  V30 1368 C 133.946 4.49409 0.16171 0
M  V30 1369 C 132.716 5.04642 -0.257756 0
M  V30 1370 C 134.914 5.10722 -0.605634 0
M  V30 1371 N 132.896 6.00537 -1.27393 0
M  V30 1372 C 134.267 6.02225 -1.47395 0
M  V30 1373 C 136.322 4.93501 -0.660418 0
M  V30 1374 C 135.025 6.78355 -2.39221 0
M  V30 1375 C 137.051 5.70283 -1.56623 0
M  V30 1376 C 136.413 6.61444 -2.4222 0
M  V30 1377 H 132.512 0.760512 0.182058 0
M  V30 1378 H 135.096 1.94013 -0.163419 0
M  V30 1379 H 133.267 3.3879 1.89936 0
M  V30 1380 H 134.999 3.61917 1.81103 0
M  V30 1381 H 131.754 4.73428 0.127702 0
M  V30 1382 H 132.178 6.53184 -1.77987 0
M  V30 1383 H 136.82 4.22798 -0.0128221 0
M  V30 1384 H 134.538 7.48327 -3.05011 0
M  V30 1385 H 138.124 5.58976 -1.61361 0
M  V30 1386 H 137.004 7.1982 -3.11174 0
M  V30 1387 N 134.507 -0.190092 1.56449 0
M  V30 1388 C 135.417 -1.25591 1.98152 0
M  V30 1389 C 136.433 -1.49519 0.889944 0
M  V30 1390 O 137.609 -1.62036 1.19609 0
M  V30 1391 C 134.674 -2.57916 2.3169 0
M  V30 1392 C 133.735 -2.42015 3.5458 0
M  V30 1393 C 132.968 -3.6803 3.8651 0
M  V30 1394 O 133.191 -4.72413 3.1966 0
M  V30 1395 O 132.125 -3.6326 4.79923 0
M  V30 1396 H 135.951 -0.931988 2.89046 0
M  V30 1397 H 133.536 -0.395488 1.4407 0
M  V30 1398 H 135.418 -3.36008 2.54316 0
M  V30 1399 H 134.093 -2.89925 1.43963 0
M  V30 1400 H 133 -1.62017 3.37196 0
M  V30 1401 H 134.333 -2.14937 4.4279 0
M  V30 1402 N 135.985 -1.50799 -0.457987 0
M  V30 1403 C 137.213 -1.66218 -1.23203 0
M  V30 1404 C 137.628 -0.350894 -1.85511 0
M  V30 1405 O 136.985 0.668546 -1.69814 0
M  V30 1406 C 137.036 -2.76291 -2.33121 0
M  V30 1407 O 136.757 -4.02338 -1.73366 0
M  V30 1408 C 138.258 -3.028 -3.2377 0
M  V30 1409 H 135.478 -0.558361 -0.372121 0
M  V30 1410 H 138.022 -1.97099 -0.545179 0
M  V30 1411 H 136.177 -2.48068 -2.97558 0
M  V30 1412 H 136.591 -4.63312 -2.4585 0
M  V30 1413 H 138.065 -3.8345 -3.97077 0
M  V30 1414 H 138.542 -2.14385 -3.83322 0
M  V30 1415 H 139.148 -3.32604 -2.65056 0
M  V30 1416 N 137.463 0.71206 -1.40597 0
M  V30 1417 C 138.712 1.46754 -1.38369 0
M  V30 1418 C 139.025 1.95598 0.0097839 0
M  V30 1419 O 140.231 2.71059 0.154677 0
M  V30 1420 C 138.687 2.65289 -2.43207 0
M  V30 1421 C 138.295 2.23301 -3.88382 0
M  V30 1422 C 140.039 3.43008 -2.50091 0
M  V30 1423 C 137.946 3.38696 -4.84808 0
M  V30 1424 H 136.876 0.55118 -0.514506 0
M  V30 1425 H 139.527 0.774616 -1.66349 0
M  V30 1426 H 137.909 3.36769 -2.08332 0
M  V30 1427 H 139.083 1.59218 -4.32419 0
M  V30 1428 H 137.398 1.58618 -3.85006 0
M  V30 1429 H 139.995 4.28881 -3.1932 0
M  V30 1430 H 140.338 3.87065 -1.53253 0
M  V30 1431 H 140.871 2.78574 -2.83974 0
M  V30 1432 H 137.61 2.99668 -5.82992 0
M  V30 1433 H 137.13 4.01683 -4.45433 0
M  V30 1434 H 138.809 4.04712 -5.04794 0
M  V30 1435 N 138.941 1.26152 0.944643 0
M  V30 1436 C 140.169 1.14259 1.72489 0
M  V30 1437 C 140.584 -0.302555 1.8636 0
M  V30 1438 O 139.941 -1.20741 1.36849 0
M  V30 1439 C 139.992 1.80266 3.13347 0
M  V30 1440 O 139.713 3.19133 3.00143 0
M  V30 1441 C 141.214 1.74283 4.07603 0
M  V30 1442 H 138.434 0.398051 0.540181 0
M  V30 1443 H 140.978 1.66706 1.18446 0
M  V30 1444 H 139.133 1.31766 3.64303 0
M  V30 1445 H 139.547 3.51744 3.89071 0
M  V30 1446 H 141.021 2.25111 5.04013 0
M  V30 1447 H 141.498 0.708631 4.33446 0
M  V30 1448 H 142.104 2.22319 3.62567 0
M  V30 1449 N 140.419 -1.14872 1.07899 0
M  V30 1450 C 141.668 -1.85135 0.800499 0
M  V30 1451 C 141.981 -1.83547 -0.676014 0
M  V30 1452 O 143.187 -2.49548 -1.06948 0
M  V30 1453 C 141.643 -3.3231 1.38197 0
M  V30 1454 C 141.251 -3.42329 2.8899 0
M  V30 1455 C 142.995 -4.0772 1.18174 0
M  V30 1456 C 140.902 -4.83684 3.403 0
M  V30 1457 H 139.832 -0.693563 0.29578 0
M  V30 1458 H 142.483 -1.29532 1.29976 0
M  V30 1459 H 140.865 -3.87618 0.810431 0
M  V30 1460 H 142.039 -2.97097 3.52236 0
M  V30 1461 H 140.354 -2.80369 3.07867 0
M  V30 1462 H 142.951 -5.12049 1.5398 0
M  V30 1463 H 143.294 -4.16124 0.12117 0
M  V30 1464 H 143.827 -3.58696 1.71994 0
M  V30 1465 H 140.566 -4.80465 4.45907 0
M  V30 1466 H 140.086 -5.29474 2.81811 0
M  V30 1467 H 141.765 -5.52558 3.36584 0
M  V30 1468 N 141.898 -0.863906 -1.31812 0
M  V30 1469 C 143.128 -0.485406 -2.00817 0
M  V30 1470 C 143.536 0.925007 -1.65046 0
M  V30 1471 O 142.879 1.61653 -0.872574 0
M  V30 1472 C 142.941 -0.555589 -3.55181 0
M  V30 1473 C 142.605 -1.92654 -4.14407 0
M  V30 1474 C 143.602 -2.89324 -4.31958 0
M  V30 1475 C 141.287 -2.2262 -4.50273 0
M  V30 1476 C 143.281 -4.14108 -4.84555 0
M  V30 1477 C 140.968 -3.47654 -5.02573 0
M  V30 1478 C 141.966 -4.43214 -5.19664 0
M  V30 1479 O 141.654 -5.66033 -5.70843 0
M  V30 1480 H 141.386 -0.188224 -0.649267 0
M  V30 1481 H 143.94 -1.16514 -1.69156 0
M  V30 1482 H 142.17 0.181037 -3.86276 0
M  V30 1483 H 143.859 -0.19138 -4.05449 0
M  V30 1484 H 144.625 -2.6748 -4.04573 0
M  V30 1485 H 140.504 -1.4902 -4.3625 0
M  V30 1486 H 144.048 -4.88703 -4.9781 0
M  V30 1487 H 139.945 -3.69345 -5.29391 0
M  V30 1488 H 140.713 -5.6812 -5.89222 0
M  V30 1489 N 143.376 1.44774 -0.622745 0
M  V30 1490 C 144.306 2.33382 0.0741861 0
M  V30 1491 C 145.287 1.47719 0.843387 0
M  V30 1492 O 146.472 1.76458 0.810934 0
M  V30 1493 C 143.602 3.30663 1.06204 0
M  V30 1494 C 142.556 4.26079 0.405037 0
M  V30 1495 C 141.882 5.13165 1.5022 0
M  V30 1496 C 143.182 5.1781 -0.683414 0
M  V30 1497 H 144.876 2.91905 -0.665713 0
M  V30 1498 H 142.422 1.40363 -0.321587 0
M  V30 1499 H 144.375 3.9153 1.55827 0
M  V30 1500 H 143.099 2.70331 1.83272 0
M  V30 1501 H 141.758 3.66532 -0.0704683 0
M  V30 1502 H 141.406 4.49191 2.26355 0
M  V30 1503 H 141.106 5.77812 1.06803 0
M  V30 1504 H 142.63 5.76902 2.00041 0
M  V30 1505 H 144.044 5.72661 -0.270631 0
M  V30 1506 H 142.441 5.91015 -1.04023 0
M  V30 1507 H 143.511 4.59326 -1.55395 0
M  V30 1508 N 144.854 0.36279 1.53368 0
M  V30 1509 C 145.784 -0.476976 2.28576 0
M  V30 1510 C 146.765 -1.08631 1.30894 0
M  V30 1511 O 147.95 -1.10409 1.59761 0
M  V30 1512 C 145.08 -1.61828 3.07293 0
M  V30 1513 C 144.034 -1.13633 4.1264 0
M  V30 1514 C 143.36 -2.36766 4.79423 0
M  V30 1515 C 144.66 -0.223061 5.21823 0
M  V30 1516 H 146.354 0.150474 2.99022 0
M  V30 1517 H 143.9 0.0738103 1.43811 0
M  V30 1518 H 145.853 -2.21237 3.58653 0
M  V30 1519 H 144.577 -2.27292 2.34533 0
M  V30 1520 H 143.236 -0.564945 3.62221 0
M  V30 1521 H 142.884 -3.0068 4.03238 0
M  V30 1522 H 142.584 -2.05192 5.50609 0
M  V30 1523 H 144.108 -2.96865 5.33576 0
M  V30 1524 H 145.522 -0.724545 5.68703 0
M  V30 1525 H 143.919 0.001678 6.001 0
M  V30 1526 H 144.989 0.735553 4.79289 0
M  V30 1527 N 146.332 -1.57332 0.0918853 0
M  V30 1528 C 147.28 -2.15075 -0.885747 0
M  V30 1529 C 148.274 -1.09277 -1.29441 0
M  V30 1530 O 149.48 -1.27627 -1.26931 0
M  V30 1531 H 145.855 -0.687966 -0.303656 0
M  V30 1532 H 147.826 -2.96047 -0.373995 0
M  V30 1533 C 146.575 -2.74325 -2.13638 0
M  V30 1534 H 145.898 -3.55418 -1.8308 0
M  V30 1535 H 147.338 -3.183 -2.80109 0
M  V30 1536 C 145.797 -1.70062 -2.90827 0
M  V30 1537 O 146.327 -1.13763 -3.85254 0
M  V30 1538 N 144.533 -1.40628 -2.54307 0
M  V30 1539 H 144.08 -1.866 -1.7759 0
M  V30 1540 H 144.038 -0.711043 -3.06254 0
M  V30 1541 N 147.81 0.181792 -1.56548 0
M  V30 1542 C 148.758 1.24461 -1.965 0
M  V30 1543 C 149.752 1.464 -0.852261 0
M  V30 1544 O 150.958 1.47103 -1.03733 0
M  V30 1545 H 147.333 0.418138 -0.625031 0
M  V30 1546 H 149.304 0.880714 -2.85107 0
M  V30 1547 C 148.053 2.57891 -2.33212 0
M  V30 1548 H 147.376 2.41829 -3.18369 0
M  V30 1549 H 148.816 3.3097 -2.65019 0
M  V30 1550 C 147.275 3.15871 -1.17163 0
M  V30 1551 O 147.805 3.9913 -0.453708 0
M  V30 1552 N 146.011 2.74808 -0.944936 0
M  V30 1553 H 145.558 2.07205 -1.53049 0
M  V30 1554 H 145.516 3.13939 -0.170286 0
M  V30 1555 N 149.288 1.51039 0.449983 0
M  V30 1556 C 150.235 1.71439 1.54523 0
M  V30 1557 C 151.205 0.555871 1.56522 0
M  V30 1558 O 152.39 0.788871 1.73728 0
M  V30 1559 C 149.53 1.83384 2.92343 0
M  V30 1560 C 148.643 3.10873 2.9997 0
M  V30 1561 C 147.778 3.13488 4.28834 0
M  V30 1562 C 146.817 4.35343 4.30282 0
M  V30 1563 N 145.954 4.35579 5.5065 0
M  V30 1564 H 150.794 2.64934 1.36433 0
M  V30 1565 H 148.331 1.31312 0.662982 0
M  V30 1566 H 150.289 1.88291 3.72293 0
M  V30 1567 H 148.919 0.933086 3.0902 0
M  V30 1568 H 147.971 3.15336 2.12761 0
M  V30 1569 H 149.283 4.00814 2.96901 0
M  V30 1570 H 148.437 3.17241 5.17149 0
M  V30 1571 H 147.176 2.21414 4.34543 0
M  V30 1572 H 146.181 4.3178 3.40362 0
M  V30 1573 H 147.406 5.28668 4.26248 0
M  V30 1574 H 145.352 3.46369 5.57104 0
M  V30 1575 H 145.269 5.19313 5.49409 0
M  V30 1576 H 146.537 4.43507 6.41032 0
M  V30 1577 N 150.766 -0.704594 1.40972 0
M  V30 1578 C 151.716 -1.81051 1.38581 0
M  V30 1579 C 152.7 -1.58759 0.261585 0
M  V30 1580 O 153.892 -1.69745 0.501556 0
M  V30 1581 C 151.021 -3.19279 1.26157 0
M  V30 1582 C 150.107 -3.47296 2.43405 0
M  V30 1583 N 150.498 -3.46064 3.68881 0
M  V30 1584 C 148.796 -3.77804 2.37023 0
M  V30 1585 C 149.497 -3.72733 4.46592 0
M  V30 1586 N 148.473 -3.9203 3.76581 0
M  V30 1587 H 152.275 -1.78448 2.33525 0
M  V30 1588 H 149.789 -0.904198 1.349 0
M  V30 1589 H 151.786 -3.98488 1.22526 0
M  V30 1590 H 150.446 -3.231 0.321902 0
M  V30 1591 H 151.457 -3.26656 4.01891 0
M  V30 1592 H 148.134 -3.8905 1.51481 0
M  V30 1593 H 149.524 -3.77993 5.55492 0
M  V30 1594 N 152.244 -1.26651 -0.937939 0
M  V30 1595 C 153.174 -1.10993 -2.05433 0
M  V30 1596 C 154.155 -0.0142161 -1.70094 0
M  V30 1597 O 155.34 -0.186837 -1.93299 0
M  V30 1598 C 152.47 -0.745561 -3.39203 0
M  V30 1599 C 151.424 -1.79337 -3.88616 0
M  V30 1600 C 150.75 -1.28324 -5.19073 0
M  V30 1601 C 152.05 -3.19553 -4.13138 0
M  V30 1602 H 153.744 -2.0438 -2.1879 0
M  V30 1603 H 151.29 -0.984041 -1.05131 0
M  V30 1604 H 153.243 -0.622888 -4.16771 0
M  V30 1605 H 151.967 0.22401 -3.25831 0
M  V30 1606 H 150.626 -1.90477 -3.13231 0
M  V30 1607 H 150.274 -0.303414 -5.02084 0
M  V30 1608 H 149.974 -1.98369 -5.53103 0
M  V30 1609 H 151.498 -1.1733 -5.99221 0
M  V30 1610 H 152.912 -3.11471 -4.81309 0
M  V30 1611 H 151.309 -3.87218 -4.58457 0
M  V30 1612 H 152.379 -3.65368 -3.18801 0
M  V30 1613 N 153.722 1.14298 -1.08507 0
M  V30 1614 C 154.968 1.85633 -0.816581 0
M  V30 1615 C 155.301 1.82784 0.656021 0
M  V30 1616 O 154.576 1.25926 1.48233 0
M  V30 1617 C 154.859 3.34223 -1.34041 0
M  V30 1618 C 154.712 3.45639 -2.87843 0
M  V30 1619 C 156.031 4.29356 -0.9665 0
M  V30 1620 H 153.15 0.67402 -0.298104 0
M  V30 1621 H 155.792 1.34214 -1.34487 0
M  V30 1622 H 153.942 3.78144 -0.89104 0
M  V30 1623 H 155.614 3.10498 -3.41158 0
M  V30 1624 H 153.857 2.86817 -3.25451 0
M  V30 1625 H 154.528 4.50089 -3.19569 0
M  V30 1626 H 157.004 3.93457 -1.35391 0
M  V30 1627 H 155.88 5.3178 -1.3602 0
M  V30 1628 H 156.141 4.41919 0.126362 0
M  V30 1629 N 155.201 0.870884 1.31352 0
M  V30 1630 C 156.45 0.478408 1.95944 0
M  V30 1631 C 156.763 -0.974493 1.69597 0
M  V30 1632 O 157.969 -1.47316 2.28058 0
M  V30 1633 C 156.425 0.804609 3.50791 0
M  V30 1634 C 156.033 2.27433 3.85977 0
M  V30 1635 C 157.777 0.480648 4.2177 0
M  V30 1636 C 155.684 2.5429 5.33939 0
M  V30 1637 H 154.614 0.175175 0.733369 0
M  V30 1638 H 157.265 1.06391 1.4951 0
M  V30 1639 H 155.647 0.148347 3.95722 0
M  V30 1640 H 156.821 2.97373 3.52002 0
M  V30 1641 H 155.136 2.56442 3.28065 0
M  V30 1642 H 157.733 0.658519 5.30629 0
M  V30 1643 H 158.076 -0.578979 4.12254 0
M  V30 1644 H 158.609 1.09349 3.82476 0
M  V30 1645 H 155.348 3.58939 5.48491 0
M  V30 1646 H 154.868 1.88945 5.69263 0
M  V30 1647 H 156.547 2.39066 6.01212 0
M  V30 1648 N 156.679 -1.44442 0.630414 0
M  V30 1649 C 157.642 -2.29107 -0.0652523 0
M  V30 1650 C 158.642 -1.41002 -0.772995 0
M  V30 1651 O 159.832 -1.62881 -0.617692 0
M  V30 1652 C 156.964 -3.22564 -1.10296 0
M  V30 1653 H 158.157 -2.92103 0.679401 0
M  V30 1654 H 155.71 -1.51343 0.390517 0
M  V30 1655 H 156.445 -2.64416 -1.87762 0
M  V30 1656 H 156.23 -3.87491 -0.59941 0
M  V30 1657 H 157.72 -3.86167 -1.5895 0
M  V30 1658 N 158.157 -0.370918 -1.53173 0
M  V30 1659 C 159.434 0.273754 -1.93675 0
M  V30 1660 C 159.814 1.65938 -1.3049 0
M  V30 1661 O 159.162 2.23698 -0.465999 0
M  V30 1662 C 159.372 0.318602 -3.47543 0
M  V30 1663 C 160.72 0.556392 -4.20939 0
M  V30 1664 O 161.744 0.399587 -3.53952 0
M  V30 1665 O 160.603 0.862133 -5.39657 0
M  V30 1666 H 157.697 0.165448 -0.810281 0
M  V30 1667 H 160.243 -0.42409 -1.64315 0
M  V30 1668 H 159.015 -0.652687 -3.85818 0
M  V30 1669 H 158.638 1.06212 -3.83151 0
M  V30 1670 N 159.635 1.57281 -0.100228 0
M  V30 1671 C 160.598 2.13158 0.842398 0
M  V30 1672 C 161.598 1.06202 1.20738 0
M  V30 1673 O 162.788 1.32066 1.13597 0
M  V30 1674 C 159.92 2.65639 2.13655 0
M  V30 1675 H 161.113 2.97766 0.357114 0
M  V30 1676 H 158.666 1.5559 0.148823 0
M  V30 1677 H 159.401 1.84566 2.66657 0
M  V30 1678 H 159.186 3.43844 1.88451 0
M  V30 1679 H 160.676 3.08846 2.81077 0
M  V30 1680 N 161.113 -0.173488 1.56642 0
M  V30 1681 C 162.36 -0.890465 1.81871 0
M  V30 1682 C 162.688 -1.82339 0.67696 0
M  V30 1683 O 161.943 -1.92795 -0.335926 0
M  V30 1684 C 162.242 -1.72069 3.13252 0
M  V30 1685 C 161.908 -0.936878 4.41059 0
M  V30 1686 C 160.57 -0.720545 4.75775 0
M  V30 1687 C 162.922 -0.386919 5.19762 0
M  V30 1688 C 160.25 0.0568829 5.86672 0
M  V30 1689 C 162.602 0.37741 6.31473 0
M  V30 1690 C 161.266 0.604563 6.64757 0
M  V30 1691 H 160.536 -0.325844 0.665512 0
M  V30 1692 H 163.183 -0.155527 1.90867 0
M  V30 1693 H 161.488 -2.52496 2.99588 0
M  V30 1694 H 163.185 -2.27844 3.29982 0
M  V30 1695 H 159.775 -1.11553 4.13828 0
M  V30 1696 H 163.959 -0.541398 4.93338 0
M  V30 1697 H 159.215 0.242635 6.10918 0
M  V30 1698 H 163.389 0.810825 6.91664 0
M  V30 1699 H 161.016 1.20885 7.50527 0
M  V30 1700 N 162.591 -1.51276 -0.441967 0
M  V30 1701 C 163.837 -1.63958 -1.19355 0
M  V30 1702 C 164.17 -0.352543 -1.90973 0
M  V30 1703 O 163.445 0.647627 -1.83401 0
M  V30 1704 C 163.728 -2.83979 -2.21422 0
M  V30 1705 C 163.581 -4.22646 -1.53918 0
M  V30 1706 C 164.9 -2.99521 -3.22451 0
M  V30 1707 H 162.019 -0.596709 -0.432559 0
M  V30 1708 H 164.661 -1.83748 -0.483398 0
M  V30 1709 H 162.811 -2.67237 -2.81987 0
M  V30 1710 H 164.483 -4.51045 -0.967256 0
M  V30 1711 H 162.726 -4.25558 -0.841615 0
M  V30 1712 H 163.397 -5.02609 -2.28229 0
M  V30 1713 H 165.873 -3.14944 -2.71937 0
M  V30 1714 H 164.749 -3.85072 -3.91166 0
M  V30 1715 H 165.01 -2.11391 -3.88287 0
M  V30 1716 N 164.069 0.697108 -1.41344 0
M  V30 1717 C 165.485 1.00751 -1.2378 0
M  V30 1718 C 165.685 2.01105 -0.126066 0
M  V30 1719 O 164.741 2.47295 0.51004 0
M  V30 1720 C 166.054 1.53359 -2.58653 0
M  V30 1721 C 167.602 1.6525 -2.65822 0
M  V30 1722 C 168.077 2.2126 -4.01009 0
M  V30 1723 N 169.568 2.28622 -4.02847 0
M  V30 1724 C 170.303 2.72984 -5.04249 0
M  V30 1725 N 169.799 3.16962 -6.16041 0
M  V30 1726 N 171.592 2.72534 -4.91611 0
M  V30 1727 H 163.743 0.0322662 -2.12375 0
M  V30 1728 H 166.006 0.0768853 -0.944877 0
M  V30 1729 H 165.712 0.870773 -3.4075 0
M  V30 1730 H 165.586 2.51597 -2.81032 0
M  V30 1731 H 167.973 2.30644 -1.84086 0
M  V30 1732 H 168.054 0.655614 -2.47256 0
M  V30 1733 H 167.698 1.56482 -4.83193 0
M  V30 1734 H 167.628 3.21698 -4.16915 0
M  V30 1735 H 170.119 1.97585 -3.22131 0
M  V30 1736 H 170.432 3.49434 -6.89287 0
M  V30 1737 H 168.777 3.14875 -6.1958 0
M  V30 1738 H 171.968 2.37525 -4.0336 0
M  V30 1739 H 172.141 3.06789 -5.70775 0
M  V30 1740 N 165.547 1.27147 0.931209 0
M  V30 1741 C 166.497 1.06227 2.01742 0
M  V30 1742 C 167.481 -0.00859065 1.60898 0
M  V30 1743 O 168.673 0.209537 1.75755 0
M  V30 1744 C 165.802 0.707787 3.35924 0
M  V30 1745 C 164.888 1.81661 3.83223 0
M  V30 1746 N 165.279 3.05564 4.03069 0
M  V30 1747 C 163.577 1.70249 4.12227 0
M  V30 1748 C 164.278 3.77697 4.42403 0
M  V30 1749 N 163.254 3.0544 4.49675 0
M  V30 1750 H 167.056 2.00261 2.15111 0
M  V30 1751 H 164.57 1.1781 1.11779 0
M  V30 1752 H 166.567 0.539043 4.134 0
M  V30 1753 H 165.227 -0.224964 3.2392 0
M  V30 1754 H 166.238 3.41363 3.89476 0
M  V30 1755 H 162.915 0.840329 4.08956 0
M  V30 1756 H 164.305 4.84168 4.65866 0
M  V30 1757 N 167.025 -1.13721 1.09112 0
M  V30 1758 C 168.274 -1.84275 0.82009 0
M  V30 1759 C 168.587 -1.84253 -0.656509 0
M  V30 1760 O 169.793 -2.50668 -1.04296 0
M  V30 1761 C 168.249 -3.30825 1.41714 0
M  V30 1762 C 167.857 -3.39244 2.92605 0
M  V30 1763 C 169.601 -4.06443 1.22492 0
M  V30 1764 C 167.508 -4.80047 3.45411 0
M  V30 1765 H 166.438 -0.690387 0.30312 0
M  V30 1766 H 169.089 -1.28146 1.31343 0
M  V30 1767 H 167.471 -3.86737 0.851498 0
M  V30 1768 H 168.645 -2.93344 3.55367 0
M  V30 1769 H 166.96 -2.77088 3.10823 0
M  V30 1770 H 169.557 -5.10387 1.59402 0
M  V30 1771 H 169.9 -4.15972 0.165299 0
M  V30 1772 H 170.433 -3.56852 1.75788 0
M  V30 1773 H 167.172 -4.75709 4.50978 0
M  V30 1774 H 166.692 -5.26455 2.87411 0
M  V30 1775 H 168.371 -5.48957 3.42425 0
M  V30 1776 N 168.503 -0.877838 -1.30888 0
M  V30 1777 C 169.78 -0.413052 -1.91189 0
M  V30 1778 C 170.16 1.1056 -1.79832 0
M  V30 1779 O 169.508 1.93771 -1.21099 0
M  V30 1780 C 169.718 -0.903191 -3.3711 0
M  V30 1781 C 171.066 -0.93395 -4.14201 0
M  V30 1782 O 172.09 -0.849373 -3.45925 0
M  V30 1783 O 170.949 -1.05772 -5.36167 0
M  V30 1784 H 168.043 -0.125035 -0.817493 0
M  V30 1785 H 170.589 -0.966269 -1.39504 0
M  V30 1786 H 169.361 -1.94692 -3.39427 0
M  V30 1787 H 168.984 -0.328732 -3.96239 0
M  V30 1788 N 169.982 1.44106 -0.638065 0
M  V30 1789 C 170.93 2.3248 0.0748149 0
M  V30 1790 C 171.924 1.47746 0.828702 0
M  V30 1791 O 173.13 1.64049 0.740816 0
M  V30 1792 H 169.505 0.750771 0.0429686 0
M  V30 1793 H 171.476 2.90348 -0.688504 0
M  V30 1794 C 170.225 3.31843 1.03805 0
M  V30 1795 H 169.548 3.97059 0.467375 0
M  V30 1796 H 170.988 3.96345 1.50622 0
M  V30 1797 C 169.447 2.61291 2.1267 0
M  V30 1798 O 169.977 2.41702 3.20847 0
M  V30 1799 N 168.183 2.20915 1.88798 0
M  V30 1800 H 167.73 2.37047 1.00829 0
M  V30 1801 H 167.688 1.74038 2.61836 0
M  V30 1802 N 171.46 0.379036 1.52974 0
M  V30 1803 C 172.706 -0.206727 2.01744 0
M  V30 1804 C 173.039 -1.47314 1.26539 0
M  V30 1805 O 172.314 -1.91084 0.362903 0
M  V30 1806 C 172.597 -0.485066 3.56818 0
M  V30 1807 C 172.45 0.795919 4.42702 0
M  V30 1808 C 173.769 -1.28003 4.21074 0
M  V30 1809 H 170.888 -0.0736607 0.73331 0
M  V30 1810 H 173.53 0.506581 1.83122 0
M  V30 1811 H 171.68 -1.09272 3.72816 0
M  V30 1812 H 173.352 1.43307 4.38476 0
M  V30 1813 H 171.595 1.41344 4.10127 0
M  V30 1814 H 172.266 0.555947 5.49193 0
M  V30 1815 H 174.742 -0.765867 4.08991 0
M  V30 1816 H 173.618 -1.44352 5.29579 0
M  V30 1817 H 173.879 -2.29236 3.78026 0
M  V30 1818 N 172.938 -1.57226 0.108567 0
M  V30 1819 C 174.185 -1.94833 -0.551943 0
M  V30 1820 C 174.513 -0.991204 -1.67348 0
M  V30 1821 O 173.768 -0.0131878 -1.95696 0
M  V30 1822 C 174.067 -3.38911 -1.13463 0
M  V30 1823 C 173.733 -4.50696 -0.135509 0
M  V30 1824 C 172.395 -4.80998 0.139252 0
M  V30 1825 C 174.747 -5.18333 0.545957 0
M  V30 1826 C 172.075 -5.76259 1.10194 0
M  V30 1827 C 174.427 -6.14627 1.49721 0
M  V30 1828 C 173.091 -6.43327 1.78006 0
M  V30 1829 H 172.361 -0.712944 -0.20197 0
M  V30 1830 H 175.008 -1.90582 0.18726 0
M  V30 1831 H 173.313 -3.39805 -1.95037 0
M  V30 1832 H 175.01 -3.65317 -1.65362 0
M  V30 1833 H 171.6 -4.27087 -0.359846 0
M  V30 1834 H 175.784 -4.95087 0.346842 0
M  V30 1835 H 171.04 -5.96804 1.32795 0
M  V30 1836 H 175.214 -6.66126 2.03099 0
M  V30 1837 H 172.841 -7.1695 2.52759 0
M  V30 1838 N 174.416 0.165178 -1.56732 0
M  V30 1839 C 175.693 0.908443 -1.73224 0
M  V30 1840 C 176.073 2.0013 -0.67165 0
M  V30 1841 O 175.421 2.26353 0.31253 0
M  V30 1842 C 175.631 1.46756 -3.16644 0
M  V30 1843 C 176.979 1.93809 -3.77787 0
M  V30 1844 O 178.003 1.56537 -3.1996 0
M  V30 1845 O 176.862 2.62486 -4.79336 0
M  V30 1846 H 173.956 0.428025 -0.707618 0
M  V30 1847 H 176.502 0.152526 -1.69013 0
M  V30 1848 H 175.274 0.68129 -3.85323 0
M  V30 1849 H 174.897 2.28749 -3.25207 0
M  V30 1850 N 175.894 1.51508 0.433938 0
M  V30 1851 C 177.119 1.68443 1.21003 0
M  V30 1852 C 177.544 0.382636 1.84167 0
M  V30 1853 O 176.902 -0.65755 1.68956 0
M  V30 1854 C 176.95 2.80405 2.26727 0
M  V30 1855 O 176.054 2.44245 3.32292 0
M  V30 1856 H 175.395 0.561536 0.354363 0
M  V30 1857 H 177.925 1.9809 0.512024 0
M  V30 1858 H 177.935 3.0459 2.71457 0
M  V30 1859 H 176.61 3.74867 1.80132 0
M  V30 1860 H 175.187 2.30644 2.93015 0
M  V30 1861 N 177.372 -0.689602 1.41712 0
M  V30 1862 C 178.305 -1.81403 1.3845 0
M  V30 1863 C 179.283 -1.60653 0.250874 0
M  V30 1864 O 180.467 -1.83323 0.43874 0
M  V30 1865 C 177.594 -3.18176 1.1611 0
M  V30 1866 C 176.64 -3.57705 2.3227 0
M  V30 1867 S 177.473 -3.61827 3.94767 0
M  V30 1868 C 178.629 -5.01318 3.74742 0
M  V30 1869 H 178.862 -1.83893 2.33603 0
M  V30 1870 H 176.395 -0.858878 1.28307 0
M  V30 1871 H 178.353 -3.97132 1.03907 0
M  V30 1872 H 177.014 -3.13288 0.225668 0
M  V30 1873 H 176.207 -4.57082 2.12349 0
M  V30 1874 H 175.809 -2.86073 2.40911 0
M  V30 1875 H 178.101 -5.88986 3.34817 0
M  V30 1876 H 179.044 -5.26283 4.73743 0
M  V30 1877 H 179.452 -4.73138 3.07898 0
M  V30 1878 N 178.85 -1.27639 -0.924453 0
M  V30 1879 C 180.099 -1.13549 -1.66702 0
M  V30 1880 C 180.412 0.317487 -1.93006 0
M  V30 1881 O 181.618 0.579333 -2.65247 0
M  V30 1882 C 180.074 -1.98426 -3.00259 0
M  V30 1883 C 179.682 -3.484 -2.81641 0
M  V30 1884 C 181.426 -1.92993 -3.78092 0
M  V30 1885 C 179.333 -4.25464 -4.10773 0
M  V30 1886 H 178.263 -0.421351 -0.625283 0
M  V30 1887 H 180.914 -1.52085 -1.02676 0
M  V30 1888 H 179.296 -1.52736 -3.6536 0
M  V30 1889 H 180.47 -4.01973 -2.25287 0
M  V30 1890 H 178.785 -3.55245 -2.17232 0
M  V30 1891 H 181.382 -2.47844 -4.7379 0
M  V30 1892 H 181.725 -0.904281 -4.0636 0
M  V30 1893 H 182.258 -2.36595 -3.19793 0
M  V30 1894 H 178.997 -5.28566 -3.87683 0
M  V30 1895 H 178.517 -3.76667 -4.66779 0
M  V30 1896 H 180.196 -4.34812 -4.79111 0
M  V30 1897 N 180.328 1.1314 -1.09713 0
M  V30 1898 C 181.568 1.8613 -0.844683 0
M  V30 1899 C 181.932 1.81765 0.618491 0
M  V30 1900 O 183.133 2.50024 0.98699 0
M  V30 1901 C 181.404 3.30151 -1.36877 0
M  V30 1902 S 182.963 4.206 -1.25064 0
M  V30 1903 H 179.781 0.642056 -0.305427 0
M  V30 1904 H 182.383 1.36343 -1.4011 0
M  V30 1905 H 181.087 3.30883 -2.42786 0
M  V30 1906 H 180.618 3.85 -0.808614 0
M  V30 1907 H 182.633 4.95783 -0.203486 0
M  V30 1908 N 181.806 0.884767 1.30421 0
M  V30 1909 C 183.055 0.499164 1.95426 0
M  V30 1910 C 183.368 -0.95645 1.70621 0
M  V30 1911 O 184.574 -1.44889 2.29607 0
M  V30 1912 C 183.03 0.84177 3.49917 0
M  V30 1913 C 182.638 2.31514 3.83543 0
M  V30 1914 C 184.382 0.525355 4.21237 0
M  V30 1915 C 182.289 2.59939 5.31212 0
M  V30 1916 H 181.219 0.182944 0.73147 0
M  V30 1917 H 183.87 1.07971 1.48373 0
M  V30 1918 H 182.252 0.190311 3.95542 0
M  V30 1919 H 183.426 3.0109 3.48829 0
M  V30 1920 H 181.741 2.59907 3.25326 0
M  V30 1921 H 184.338 0.714762 5.29901 0
M  V30 1922 H 184.681 -0.535222 4.12845 0
M  V30 1923 H 185.214 1.134 3.81294 0
M  V30 1924 H 181.953 3.64736 5.44654 0
M  V30 1925 H 181.473 1.94972 5.67227 0
M  V30 1926 H 183.152 2.45429 5.98643 0
M  V30 1927 N 183.284 -1.43765 0.645699 0
M  V30 1928 C 184.509 -2.06767 0.161883 0
M  V30 1929 C 184.934 -1.48034 -1.16049 0
M  V30 1930 O 184.292 -0.587369 -1.71522 0
M  V30 1931 C 184.34 -3.60519 0.0762003 0
M  V30 1932 O 183.444 -4.00982 -0.963721 0
M  V30 1933 H 182.785 -0.657675 0.091429 0
M  V30 1934 H 185.315 -1.84397 0.886499 0
M  V30 1935 H 185.325 -4.07853 -0.109604 0
M  V30 1936 H 184 -4.02646 1.04157 0
M  V30 1937 H 182.577 -3.65253 -0.751312 0
M  V30 1938 N 184.763 -0.387143 -1.52771 0
M  V30 1939 C 186.009 0.196025 -2.0185 0
M  V30 1940 C 186.342 1.46641 -1.27319 0
M  V30 1941 O 185.617 1.90889 -0.373032 0
M  V30 1942 C 185.9 0.466136 -3.5707 0
M  V30 1943 C 185.753 -0.819385 -4.42274 0
M  V30 1944 C 187.072 1.25768 -4.21747 0
M  V30 1945 H 184.191 0.0697708 -0.73369 0
M  V30 1946 H 186.833 -0.516286 -1.82851 0
M  V30 1947 H 184.983 1.07293 -3.7339 0
M  V30 1948 H 186.655 -1.4563 -4.37709 0
M  V30 1949 H 184.898 -1.43517 -4.09372 0
M  V30 1950 H 185.569 -0.585065 -5.48891 0
M  V30 1951 H 188.045 0.744167 -4.09391 0
M  V30 1952 H 186.921 1.41541 -5.30337 0
M  V30 1953 H 187.182 2.27228 -3.79236 0
M  V30 1954 N 186.241 1.57166 -0.116904 0
M  V30 1955 C 187.487 1.95412 0.542405 0
M  V30 1956 C 187.82 1.00019 1.66463 0
M  V30 1957 O 187.095 0.0370346 1.94465 0
M  V30 1958 C 187.378 3.43615 1.07708 0
M  V30 1959 C 187.231 4.49781 -0.0415868 0
M  V30 1960 C 188.55 3.93616 1.96861 0
M  V30 1961 H 185.669 0.710543 0.195696 0
M  V30 1962 H 188.311 1.89027 -0.192038 0
M  V30 1963 H 186.461 3.49187 1.70296 0
M  V30 1964 H 188.133 4.56308 -0.676793 0
M  V30 1965 H 186.376 4.28033 -0.705019 0
M  V30 1966 H 187.047 5.50733 0.373717 0
M  V30 1967 H 189.523 3.90335 1.44146 0
M  V30 1968 H 188.399 4.97838 2.3119 0
M  V30 1969 H 188.66 3.34188 2.89432 0
M  V30 1970 N 187.719 -0.156864 1.56817 0
M  V30 1971 C 188.682 -1.17781 1.96622 0
M  V30 1972 C 189.682 -1.36401 0.851555 0
M  V30 1973 O 190.872 -1.33561 1.11836 0
M  V30 1974 C 188.004 -2.54008 2.27361 0
M  V30 1975 H 189.197 -0.836564 2.87996 0
M  V30 1976 H 186.75 -0.39985 1.51099 0
M  V30 1977 H 187.485 -2.9312 1.38748 0
M  V30 1978 H 187.27 -2.41856 3.08623 0
M  V30 1979 H 188.76 -3.27558 2.59029 0
M  V30 1980 N 189.197 -1.51736 -0.425897 0
M  V30 1981 C 190.422 -1.69082 -1.20108 0
M  V30 1982 C 190.847 -0.392398 -1.83962 0
M  V30 1983 O 190.205 0.64858 -1.69302 0
M  V30 1984 C 190.253 -2.81604 -2.25237 0
M  V30 1985 O 189.357 -2.46004 -3.30992 0
M  V30 1986 H 188.698 -0.563408 -0.35138 0
M  V30 1987 H 191.228 -1.98358 -0.501512 0
M  V30 1988 H 191.238 -3.06025 -2.69838 0
M  V30 1989 H 189.913 -3.75817 -1.78142 0
M  V30 1990 H 188.49 -2.32195 -2.91787 0
M  V30 1991 N 190.675 0.682077 -1.42076 0
M  V30 1992 C 191.608 1.80666 -1.3941 0
M  V30 1993 C 192.586 1.60518 -0.25939 0
M  V30 1994 O 193.77 1.83088 -0.448456 0
M  V30 1995 C 190.897 3.17556 -1.17796 0
M  V30 1996 C 189.943 3.56468 -2.34164 0
M  V30 1997 S 190.776 3.59729 -3.96681 0
M  V30 1998 C 191.932 4.99323 -3.77395 0
M  V30 1999 H 192.165 1.82652 -2.34575 0
M  V30 2000 H 189.698 0.852062 -1.2876 0
M  V30 2001 H 191.656 3.96575 -1.06012 0
M  V30 2002 H 190.317 3.13164 -0.242279 0
M  V30 2003 H 189.51 4.5595 -2.1477 0
M  V30 2004 H 189.112 2.84792 -2.42425 0
M  V30 2005 H 191.404 5.87202 -3.37935 0
M  V30 2006 H 192.347 5.23763 -4.76527 0
M  V30 2007 H 192.755 4.71498 -3.10403 0
M  V30 2008 N 192.153 1.28127 0.917671 0
M  V30 2009 C 193.393 1.163 1.68088 0
M  V30 2010 C 193.757 -0.284515 1.8988 0
M  V30 2011 O 194.958 -0.525413 2.63615 0
M  V30 2012 C 193.229 1.93546 3.00457 0
M  V30 2013 S 194.788 1.98048 3.91564 0
M  V30 2014 H 191.606 0.415005 0.577315 0
M  V30 2015 H 194.208 1.62173 1.09179 0
M  V30 2016 H 192.912 2.97888 2.82295 0
M  V30 2017 H 192.443 1.48207 3.64415 0
M  V30 2018 H 194.458 1.08415 4.84211 0
M  V30 2019 N 193.631 -1.12557 1.10312 0
M  V30 2020 C 194.856 -1.88405 0.867085 0
M  V30 2021 C 195.281 -1.79038 -0.576817 0
M  V30 2022 O 194.639 -1.14439 -1.40618 0
M  V30 2023 C 194.687 -3.3563 1.31851 0
M  V30 2024 O 193.791 -4.09565 0.482734 0
M  V30 2025 H 193.132 -0.585455 0.313271 0
M  V30 2026 H 195.662 -1.42352 1.4696 0
M  V30 2027 H 195.672 -3.86469 1.3079 0
M  V30 2028 H 194.347 -3.41765 2.37001 0
M  V30 2029 H 192.924 -3.68695 0.558448 0
M  V30 2030 N 195.109 -0.891671 -1.2995 0
M  V30 2031 C 196.039 -0.379797 -2.30391 0
M  V30 2032 C 197.02 0.540919 -1.6127 0
M  V30 2033 O 198.205 0.453352 -1.88834 0
M  V30 2034 C 195.335 0.400654 -3.44981 0
M  V30 2035 C 194.289 -0.428905 -4.25846 0
M  V30 2036 C 193.615 0.478557 -5.32554 0
M  V30 2037 C 194.915 -1.67458 -4.94727 0
M  V30 2038 H 196.609 -1.21914 -2.73454 0
M  V30 2039 H 194.155 -0.587675 -1.31462 0
M  V30 2040 H 196.108 0.769434 -4.14316 0
M  V30 2041 H 194.832 1.27371 -3.0074 0
M  V30 2042 H 193.491 -0.779911 -3.58208 0
M  V30 2043 H 193.139 1.34951 -4.84559 0
M  V30 2044 H 192.839 -0.0727433 -5.87555 0
M  V30 2045 H 194.363 0.843705 -6.04743 0
M  V30 2046 H 195.777 -1.376 -5.56542 0
M  V30 2047 H 194.174 -2.16659 -5.59624 0
M  V30 2048 H 195.244 -2.41518 -4.20473 0
M  V30 2049 N 196.587 1.43421 -0.653314 0
M  V30 2050 C 197.517 2.33487 0.0246656 0
M  V30 2051 C 198.498 1.49475 0.811863 0
M  V30 2052 O 199.683 1.78139 0.773322 0
M  V30 2053 C 196.813 3.32841 0.99166 0
M  V30 2054 C 195.767 4.26842 0.314568 0
M  V30 2055 C 195.093 5.16236 1.39302 0
M  V30 2056 C 196.393 5.16243 -0.793095 0
M  V30 2057 H 198.087 2.90427 -0.727481 0
M  V30 2058 H 195.633 1.39649 -0.351287 0
M  V30 2059 H 197.586 3.94747 1.47487 0
M  V30 2060 H 196.31 2.74158 1.77497 0
M  V30 2061 H 194.969 3.663 -0.148199 0
M  V30 2062 H 194.617 4.53891 2.16776 0
M  V30 2063 H 194.317 5.79948 0.945223 0
M  V30 2064 H 195.841 5.81015 1.87759 0
M  V30 2065 H 197.255 5.71958 -0.392039 0
M  V30 2066 H 195.652 5.88676 -1.16536 0
M  V30 2067 H 196.722 4.55927 -1.65103 0
M  V30 2068 N 198.065 0.39524 1.52563 0
M  V30 2069 C 199.028 -0.425001 2.25225 0
M  V30 2070 C 200.028 -0.985266 1.27079 0
M  V30 2071 O 201.218 -0.866332 1.5113 0
M  V30 2072 C 198.35 -1.59686 3.01186 0
M  V30 2073 H 199.543 0.211233 2.99155 0
M  V30 2074 H 197.096 0.147472 1.55603 0
M  V30 2075 H 197.831 -2.27035 2.31572 0
M  V30 2076 H 197.616 -1.20176 3.73229 0
M  V30 2077 H 199.106 -2.17743 3.5634 0
M  V30 2078 N 199.544 -1.57102 0.125237 0
M  V30 2079 C 200.793 -1.94582 -0.531095 0
M  V30 2080 C 201.106 -1.01126 -1.6743 0
M  V30 2081 O 202.312 -1.28097 -2.39381 0
M  V30 2082 C 200.768 -3.45839 -0.996164 0
M  V30 2083 C 200.376 -4.47842 0.118926 0
M  V30 2084 C 202.12 -3.92227 -1.62352 0
M  V30 2085 C 200.027 -5.90284 -0.363192 0
M  V30 2086 H 198.957 -0.726391 -0.20217 0
M  V30 2087 H 201.608 -1.82339 0.206092 0
M  V30 2088 H 199.99 -3.53338 -1.78796 0
M  V30 2089 H 201.164 -4.52018 0.895358 0
M  V30 2090 H 199.479 -4.11243 0.653324 0
M  V30 2091 H 202.076 -4.96069 -1.99548 0
M  V30 2092 H 202.419 -3.32552 -2.50429 0
M  V30 2093 H 202.952 -3.87554 -0.897019 0
M  V30 2094 H 199.691 -6.53728 0.481679 0
M  V30 2095 H 199.211 -5.89515 -1.10597 0
M  V30 2096 H 200.89 -6.41752 -0.822377 0
M  V30 2097 N 201.022 0.148545 -1.56898 0
M  V30 2098 C 201.985 1.16736 -1.97244 0
M  V30 2099 C 202.985 1.35947 -0.858777 0
M  V30 2100 O 204.175 1.32966 -1.12542 0
M  V30 2101 C 201.307 2.52798 -2.28705 0
M  V30 2102 H 202.5 0.821279 -2.88435 0
M  V30 2103 H 200.053 0.391831 -1.51309 0
M  V30 2104 H 200.788 2.92381 -1.403 0
M  V30 2105 H 200.573 2.40216 -3.09901 0
M  V30 2106 H 202.063 3.26179 -2.60762 0
M  V30 2107 N 202.5 1.5196 0.417844 0
M  V30 2108 C 203.746 1.65836 1.16732 0
M  V30 2109 C 204.079 0.382881 1.90388 0
M  V30 2110 O 203.354 -0.618368 1.84408 0
M  V30 2111 C 203.637 2.87466 2.16876 0
M  V30 2112 C 203.49 4.25041 1.47174 0
M  V30 2113 C 204.809 3.04613 3.17646 0
M  V30 2114 H 201.928 0.603515 0.423011 0
M  V30 2115 H 204.57 1.84494 0.454105 0
M  V30 2116 H 202.72 2.71689 2.777 0
M  V30 2117 H 204.392 4.52527 0.895376 0
M  V30 2118 H 202.635 4.26843 0.773806 0
M  V30 2119 H 203.306 5.06176 2.20204 0
M  V30 2120 H 205.782 3.1923 2.66892 0
M  V30 2121 H 204.658 3.91247 3.8499 0
M  V30 2122 H 204.919 2.17541 3.84874 0
M  V30 2123 N 203.978 -0.674533 1.42435 0
M  V30 2124 C 205.255 -1.4305 1.33402 0
M  V30 2125 C 205.635 -2.11081 -0.0284674 0
M  V30 2126 O 204.983 -2.03257 -1.04397 0
M  V30 2127 C 205.193 -2.43272 2.50239 0
M  V30 2128 C 206.541 -3.07907 2.92367 0
M  V30 2129 O 207.565 -2.53599 2.50132 0
M  V30 2130 O 206.424 -4.0632 3.65467 0
M  V30 2131 H 203.518 -0.638076 0.526106 0
M  V30 2132 H 206.064 -0.703235 1.54443 0
M  V30 2133 H 204.836 -1.91803 3.41068 0
M  V30 2134 H 204.459 -3.23479 2.31186 0
M  V30 2135 N 205.456 -1.28612 -0.910864 0
M  V30 2136 C 206.872 -1.06381 -1.18976 0
M  V30 2137 C 207.072 0.191998 -2.00583 0
M  V30 2138 O 206.128 0.892869 -2.36187 0
M  V30 2139 C 207.441 -2.31295 -1.92154 0
M  V30 2140 C 208.989 -2.36503 -2.05025 0
M  V30 2141 C 209.464 -3.61191 -2.81612 0
M  V30 2142 N 210.955 -3.61847 -2.89172 0
M  V30 2143 C 211.69 -4.55004 -3.4894 0
M  V30 2144 N 211.186 -5.58482 -4.09963 0
M  V30 2145 N 212.979 -4.42594 -3.46506 0
M  V30 2146 H 205.13 -2.09221 -0.366094 0
M  V30 2147 H 207.393 -0.921003 -0.224629 0
M  V30 2148 H 207.099 -3.228 -1.39618 0
M  V30 2149 H 206.973 -2.37934 -2.9269 0
M  V30 2150 H 209.36 -1.45494 -2.5674 0
M  V30 2151 H 209.441 -2.33857 -1.03657 0
M  V30 2152 H 209.085 -4.52545 -2.30576 0
M  V30 2153 H 209.015 -3.61092 -3.83302 0
M  V30 2154 H 211.506 -2.87022 -2.45819 0
M  V30 2155 H 211.819 -6.25704 -4.53557 0
M  V30 2156 H 210.164 -5.62305 -4.08459 0
M  V30 2157 H 213.355 -3.60953 -2.98045 0
M  V30 2158 H 213.528 -5.15381 -3.92793 0
M  V30 2159 N 206.934 1.1197 -1.10907 0
M  V30 2160 C 208.164 1.8713 -0.875553 0
M  V30 2161 C 208.572 1.8016 0.577843 0
M  V30 2162 O 207.915 1.17699 1.41042 0
M  V30 2163 C 207.977 3.37005 -1.2517 0
M  V30 2164 C 207.641 3.67748 -2.71313 0
M  V30 2165 C 208.638 3.65698 -3.69542 0
M  V30 2166 C 206.323 3.96928 -3.07821 0
M  V30 2167 C 208.317 3.92395 -5.023 0
M  V30 2168 C 206.004 4.23284 -4.40765 0
M  V30 2169 C 207.002 4.21005 -5.37814 0
M  V30 2170 O 206.69 4.46704 -6.68364 0
M  V30 2171 H 206.422 0.598786 -0.313737 0
M  V30 2172 H 208.976 1.42568 -1.47863 0
M  V30 2173 H 207.206 3.82146 -0.591741 0
M  V30 2174 H 208.895 3.93519 -0.994877 0
M  V30 2175 H 209.661 3.43211 -3.42682 0
M  V30 2176 H 205.54 3.97841 -2.32902 0
M  V30 2177 H 209.084 3.90531 -5.78041 0
M  V30 2178 H 204.981 4.45246 -4.67361 0
M  V30 2179 H 205.749 4.64299 -6.74069 0
M  V30 2180 N 208.412 0.89855 1.29475 0
M  V30 2181 C 209.658 0.524658 1.95896 0
M  V30 2182 C 209.991 -0.926468 1.70676 0
M  V30 2183 O 209.266 -1.65665 1.01908 0
M  V30 2184 C 209.549 0.81633 3.50725 0
M  V30 2185 C 209.402 2.31907 3.85408 0
M  V30 2186 C 210.721 0.302038 4.39062 0
M  V30 2187 H 207.84 0.19209 0.711527 0
M  V30 2188 H 210.482 1.12502 1.53112 0
M  V30 2189 H 208.632 0.305369 3.87298 0
M  V30 2190 H 210.304 2.89949 3.58786 0
M  V30 2191 H 208.547 2.78027 3.32992 0
M  V30 2192 H 209.218 2.47373 4.93468 0
M  V30 2193 H 211.694 0.739551 4.09475 0
M  V30 2194 H 210.57 0.535331 5.46283 0
M  V30 2195 H 210.831 -0.797216 4.34853 0
M  V30 2196 N 209.89 -1.43072 0.660911 0
M  V30 2197 C 211.118 -2.06067 0.185422 0
M  V30 2198 C 211.533 -1.49582 -1.15198 0
M  V30 2199 O 210.89 -0.630134 -1.71276 0
M  V30 2200 C 210.941 -3.61371 0.0966523 0
M  V30 2201 O 210.662 -4.15758 1.38119 0
M  V30 2202 C 212.163 -4.41455 -0.403996 0
M  V30 2203 H 209.383 -0.664459 0.0934604 0
M  V30 2204 H 211.927 -1.83447 0.90373 0
M  V30 2205 H 210.082 -3.8315 -0.572259 0
M  V30 2206 H 210.496 -5.09499 1.24542 0
M  V30 2207 H 211.97 -5.50437 -0.415045 0
M  V30 2208 H 212.447 -4.15036 -1.43674 0
M  V30 2209 H 213.053 -4.24663 0.232691 0
M  V30 2210 N 211.368 -0.403325 -1.52352 0
M  V30 2211 C 212.617 0.175668 -2.00934 0
M  V30 2212 C 212.93 1.46718 -1.29356 0
M  V30 2213 O 214.136 2.12708 -1.68724 0
M  V30 2214 C 212.592 0.363612 -3.58058 0
M  V30 2215 C 212.2 -0.915472 -4.38547 0
M  V30 2216 C 213.944 0.89821 -4.14888 0
M  V30 2217 C 211.851 -0.695035 -5.87302 0
M  V30 2218 H 210.781 0.0694234 -0.750797 0
M  V30 2219 H 213.432 -0.527879 -1.75743 0
M  V30 2220 H 211.814 1.12935 -3.79555 0
M  V30 2221 H 212.988 -1.68691 -4.28812 0
M  V30 2222 H 211.303 -1.37606 -3.93006 0
M  V30 2223 H 213.9 1.07907 -5.23699 0
M  V30 2224 H 214.243 1.87126 -3.71873 0
M  V30 2225 H 214.776 0.191681 -3.97338 0
M  V30 2226 H 211.515 -1.63948 -6.34666 0
M  V30 2227 H 211.035 0.0372116 -5.99788 0
M  V30 2228 H 212.714 -0.33497 -6.46132 0
M  V30 2229 N 212.846 1.57033 -0.133567 0
M  V30 2230 C 214.093 1.95686 0.520877 0
M  V30 2231 C 214.421 1.0177 1.6575 0
M  V30 2232 O 213.676 0.0443195 1.9565 0
M  V30 2233 C 213.975 3.40674 1.08057 0
M  V30 2234 C 213.641 4.50855 0.0637899 0
M  V30 2235 C 212.303 4.80716 -0.215757 0
M  V30 2236 C 214.655 5.17398 -0.62835 0
M  V30 2237 C 211.983 5.74433 -1.19348 0
M  V30 2238 C 214.335 6.12167 -1.5948 0
M  V30 2239 C 212.999 6.40414 -1.88218 0
M  V30 2240 H 212.269 0.716067 0.190602 0
M  V30 2241 H 214.916 1.9026 -0.217556 0
M  V30 2242 H 213.221 3.42865 1.89606 0
M  V30 2243 H 214.918 3.67902 1.59529 0
M  V30 2244 H 211.508 4.27605 0.291855 0
M  V30 2245 H 215.692 4.94472 -0.425562 0
M  V30 2246 H 210.948 5.94616 -1.42272 0
M  V30 2247 H 215.122 6.6281 -2.13671 0
M  V30 2248 H 212.749 7.12838 -2.64133 0
M  V30 2249 N 214.325 -0.140222 1.56975 0
M  V30 2250 C 215.555 -0.865181 1.87612 0
M  V30 2251 C 215.963 -1.74942 0.72055 0
M  V30 2252 O 215.306 -1.80917 -0.318561 0
M  V30 2253 C 215.368 -1.76782 3.13031 0
M  V30 2254 C 215.032 -1.06005 4.44536 0
M  V30 2255 C 216.029 -0.410768 5.18275 0
M  V30 2256 C 213.714 -1.04754 4.91255 0
M  V30 2257 C 215.708 0.241572 6.36942 0
M  V30 2258 C 213.395 -0.391394 6.09845 0
M  V30 2259 C 214.393 0.252029 6.82535 0
M  V30 2260 O 214.081 0.897757 7.98871 0
M  V30 2261 H 213.813 -0.255188 0.625983 0
M  V30 2262 H 216.367 -0.135653 2.04952 0
M  V30 2263 H 214.597 -2.53846 2.91718 0
M  V30 2264 H 216.286 -2.36533 3.29859 0
M  V30 2265 H 217.052 -0.412195 4.83245 0
M  V30 2266 H 212.931 -1.53777 4.34596 0
M  V30 2267 H 216.475 0.744375 6.93617 0
M  V30 2268 H 212.372 -0.387656 6.44335 0
M  V30 2269 H 213.14 0.800102 8.1458 0
M  V30 2270 N 215.803 -1.52179 -0.40978 0
M  V30 2271 C 216.766 -1.74853 -1.48186 0
M  V30 2272 C 217.766 -0.618417 -1.48433 0
M  V30 2273 O 218.956 -0.886286 -1.49969 0
M  V30 2274 C 216.088 -1.8303 -2.87598 0
M  V30 2275 H 217.281 -2.70559 -1.29374 0
M  V30 2276 H 214.834 -1.42586 -0.640233 0
M  V30 2277 H 215.569 -0.89236 -3.11781 0
M  V30 2278 H 215.354 -2.65187 -2.88822 0
M  V30 2279 H 216.844 -2.02316 -3.65319 0
M  V30 2280 N 217.281 0.66697 -1.42791 0
M  V30 2281 C 218.211 1.79218 -1.49677 0
M  V30 2282 C 219.192 1.66405 -0.352623 0
M  V30 2283 O 220.377 1.85708 -0.567993 0
M  V30 2284 C 217.507 3.17565 -1.40605 0
M  V30 2285 C 216.461 3.45124 -2.53127 0
M  V30 2286 C 215.787 4.83127 -2.29112 0
M  V30 2287 C 217.087 3.41236 -3.95418 0
M  V30 2288 H 218.781 1.73713 -2.43853 0
M  V30 2289 H 216.327 0.83432 -1.17367 0
M  V30 2290 H 218.28 3.96022 -1.44029 0
M  V30 2291 H 217.004 3.23767 -0.429271 0
M  V30 2292 H 215.663 2.69031 -2.49034 0
M  V30 2293 H 215.311 4.85988 -1.29709 0
M  V30 2294 H 215.011 5.02528 -3.04531 0
M  V30 2295 H 216.535 5.63859 -2.34297 0
M  V30 2296 H 217.949 4.09651 -4.01073 0
M  V30 2297 H 216.346 3.72173 -4.70752 0
M  V30 2298 H 217.416 2.39665 -4.21532 0
M  V30 2299 N 218.759 1.29093 0.90403 0
M  V30 2300 C 220.175 1.07011 1.1841 0
M  V30 2301 C 220.375 -0.181358 2.00682 0
M  V30 2302 O 219.431 -0.880331 2.36657 0
M  V30 2303 C 220.744 2.32311 1.90924 0
M  V30 2304 C 222.292 2.37587 2.03768 0
M  V30 2305 C 222.767 3.62679 2.79693 0
M  V30 2306 N 224.258 3.63376 2.87249 0
M  V30 2307 C 224.993 4.56848 3.46522 0
M  V30 2308 N 224.489 5.60648 4.06996 0
M  V30 2309 N 226.282 4.44426 3.44154 0
M  V30 2310 H 218.433 2.09412 0.354993 0
M  V30 2311 H 220.696 0.922181 0.219742 0
M  V30 2312 H 220.402 3.23536 1.37905 0
M  V30 2313 H 220.276 2.39483 2.91424 0
M  V30 2314 H 222.663 1.46853 2.55965 0
M  V30 2315 H 222.744 2.34403 1.02415 0
M  V30 2316 H 222.388 4.53762 2.28173 0
M  V30 2317 H 222.318 3.63119 3.81381 0
M  V30 2318 H 224.809 2.88321 2.44293 0
M  V30 2319 H 225.122 6.28101 4.50232 0
M  V30 2320 H 223.467 5.64463 4.05471 0
M  V30 2321 H 226.658 3.62529 2.96126 0
M  V30 2322 H 226.831 5.17457 3.90054 0
M  V30 2323 N 220.237 -1.11381 1.11499 0
M  V30 2324 C 221.467 -1.86663 0.885464 0
M  V30 2325 C 221.875 -1.80464 -0.568281 0
M  V30 2326 O 221.218 -1.18445 -1.40415 0
M  V30 2327 C 221.28 -3.36337 1.26956 0
M  V30 2328 C 220.944 -3.66304 2.73259 0
M  V30 2329 C 221.941 -3.63733 3.71476 0
M  V30 2330 C 219.626 -3.9529 3.09921 0
M  V30 2331 C 221.62 -3.89725 5.04374 0
M  V30 2332 C 219.307 -4.20941 4.43004 0
M  V30 2333 C 220.305 -4.18147 5.40039 0
M  V30 2334 O 219.993 -4.43153 6.70724 0
M  V30 2335 H 219.725 -0.597114 0.316908 0
M  V30 2336 H 222.279 -1.41782 1.48617 0
M  V30 2337 H 220.509 -3.81826 0.611999 0
M  V30 2338 H 222.198 -3.92986 1.01573 0
M  V30 2339 H 222.964 -3.41389 3.44498 0
M  V30 2340 H 218.843 -3.966 2.35009 0
M  V30 2341 H 222.387 -3.8746 5.80104 0
M  V30 2342 H 218.284 -4.42761 4.69716 0
M  V30 2343 H 219.052 -4.60717 6.76522 0
M  V30 2344 N 221.715 -0.905404 -1.28997 0
M  V30 2345 C 222.665 -0.358713 -2.25161 0
M  V30 2346 C 223.649 0.524449 -1.52113 0
M  V30 2347 O 224.841 0.365534 -1.73184 0
M  V30 2348 C 221.97 0.407609 -3.40872 0
M  V30 2349 C 221.056 -0.490797 -4.21251 0
M  V30 2350 N 221.447 -1.60061 -4.79806 0
M  V30 2351 C 219.745 -0.289636 -4.45059 0
M  V30 2352 C 220.446 -2.15757 -5.40207 0
M  V30 2353 N 219.422 -1.44988 -5.23908 0
M  V30 2354 H 223.224 -1.20642 -2.67998 0
M  V30 2355 H 220.738 -0.757103 -1.43672 0
M  V30 2356 H 222.735 0.816046 -4.08835 0
M  V30 2357 H 221.395 1.25251 -2.9957 0
M  V30 2358 H 222.406 -1.98329 -4.7842 0
M  V30 2359 H 219.083 0.51643 -4.14294 0
M  V30 2360 H 220.473 -3.09069 -5.96595 0
M  V30 2361 N 223.193 1.4272 -0.668489 0
M  V30 2362 C 224.143 2.27971 0.0363806 0
M  V30 2363 C 225.127 1.40741 0.779794 0
M  V30 2364 O 226.319 1.64245 0.659745 0
M  V30 2365 C 223.448 3.28673 0.991398 0
M  V30 2366 C 222.534 4.23388 0.245658 0
M  V30 2367 N 222.925 5.00267 -0.746069 0
M  V30 2368 C 221.223 4.43355 0.484988 0
M  V30 2369 C 221.924 5.69396 -1.19009 0
M  V30 2370 N 220.9 5.41095 -0.521287 0
M  V30 2371 H 224.702 2.84833 -0.724394 0
M  V30 2372 H 222.216 1.54607 -0.497028 0
M  V30 2373 H 224.213 3.88543 1.51129 0
M  V30 2374 H 222.873 2.73373 1.75207 0
M  V30 2375 H 223.884 5.05525 -1.12537 0
M  V30 2376 H 220.561 3.99104 1.22565 0
M  V30 2377 H 221.951 6.41083 -2.01153 0
M  V30 2378 N 224.671 0.411399 1.52136 0
M  V30 2379 C 225.92 -0.165009 2.01024 0
M  V30 2380 C 226.233 -1.4603 1.30133 0
M  V30 2381 O 227.439 -2.1181 1.69849 0
M  V30 2382 C 225.895 -0.344618 3.58246 0
M  V30 2383 C 225.503 0.938716 4.38055 0
M  V30 2384 C 227.247 -0.876195 4.15359 0
M  V30 2385 C 225.154 0.726172 5.86925 0
M  V30 2386 H 224.084 -0.0654407 0.751155 0
M  V30 2387 H 226.735 0.537192 1.75461 0
M  V30 2388 H 225.117 -1.10921 3.80148 0
M  V30 2389 H 226.291 1.70963 4.27912 0
M  V30 2390 H 224.606 1.39688 3.92271 0
M  V30 2391 H 227.203 -1.05128 5.24263 0
M  V30 2392 H 227.546 -1.85152 3.7286 0
M  V30 2393 H 228.079 -0.170607 3.97434 0
M  V30 2394 H 224.818 1.67312 6.33788 0
M  V30 2395 H 224.338 -0.00540283 5.998 0
M  V30 2396 H 226.017 0.369231 6.45946 0
M  V30 2397 N 226.149 -1.5696 0.141893 0
M  V30 2398 C 227.082 -2.12271 -0.837627 0
M  V30 2399 C 228.06 -1.04495 -1.24578 0
M  V30 2400 O 229.244 -1.32293 -1.34278 0
M  V30 2401 C 226.371 -2.63822 -2.12404 0
M  V30 2402 C 225.417 -3.83698 -1.86221 0
M  V30 2403 S 226.25 -5.24948 -1.05781 0
M  V30 2404 C 227.406 -5.79884 -2.35552 0
M  V30 2405 H 227.639 -2.95023 -0.367249 0
M  V30 2406 H 225.172 -1.54231 -0.0723014 0
M  V30 2407 H 227.13 -2.94175 -2.86307 0
M  V30 2408 H 225.791 -1.8121 -2.56557 0
M  V30 2409 H 224.984 -4.17995 -2.81596 0
M  V30 2410 H 224.586 -3.5408 -1.20429 0
M  V30 2411 H 226.878 -5.91005 -3.31239 0
M  V30 2412 H 227.821 -6.77544 -2.05767 0
M  V30 2413 H 228.229 -5.08095 -2.45967 0
M  V30 2414 N 227.627 0.131896 -1.57047 0
M  V30 2415 C 228.855 0.856461 -1.88341 0
M  V30 2416 C 229.27 1.74042 -0.731757 0
M  V30 2417 O 228.627 1.80051 0.297945 0
M  V30 2418 C 228.678 1.70064 -3.18999 0
M  V30 2419 O 228.399 0.852278 -4.2973 0
M  V30 2420 C 229.9 2.53148 -3.63911 0
M  V30 2421 H 227.12 0.246885 -0.62393 0
M  V30 2422 H 229.664 0.120152 -2.04147 0
M  V30 2423 H 227.819 2.38984 -3.04902 0
M  V30 2424 H 228.233 1.43329 -5.04537 0
M  V30 2425 H 229.707 3.07931 -4.58129 0
M  V30 2426 H 230.184 3.29901 -2.89935 0
M  V30 2427 H 230.79 1.89492 -3.80753 0
M  V30 2428 N 229.106 1.52395 0.401703 0
M  V30 2429 C 230.069 1.75636 1.47257 0
M  V30 2430 C 231.069 0.62628 1.48103 0
M  V30 2431 O 232.259 0.894227 1.49497 0
M  V30 2432 C 229.391 1.84553 2.86624 0
M  V30 2433 H 230.584 2.71241 1.27938 0
M  V30 2434 H 228.137 1.42923 0.632662 0
M  V30 2435 H 228.872 0.908882 3.11303 0
M  V30 2436 H 228.657 2.66715 2.87412 0
M  V30 2437 H 230.147 2.04251 3.64241 0
M  V30 2438 N 230.584 -0.659388 1.43143 0
M  V30 2439 C 232 -0.974337 1.26407 0
M  V30 2440 C 232.2 -2.007 0.179341 0
M  V30 2441 O 231.256 -2.4856 -0.444295 0
M  V30 2442 C 232.569 -1.46447 2.62628 0
M  V30 2443 C 234.117 -1.58144 2.7011 0
M  V30 2444 C 234.592 -2.1055 4.06734 0
M  V30 2445 N 236.083 -2.17861 4.08767 0
M  V30 2446 C 236.818 -2.59519 5.1131 0
M  V30 2447 N 236.314 -3.00518 6.24228 0
M  V30 2448 N 238.107 -2.59404 4.98664 0
M  V30 2449 H 230.258 0.0240528 2.12386 0
M  V30 2450 H 232.521 -0.0518065 0.946583 0
M  V30 2451 H 232.227 -0.780123 3.42939 0
M  V30 2452 H 232.101 -2.44058 2.87603 0
M  V30 2453 H 234.488 -2.25682 1.90136 0
M  V30 2454 H 234.569 -0.589828 2.48907 0
M  V30 2455 H 234.213 -1.43616 4.87172 0
M  V30 2456 H 234.143 -3.10531 4.25298 0
M  V30 2457 H 236.634 -1.88975 3.27257 0
M  V30 2458 H 236.947 -3.31036 6.98309 0
M  V30 2459 H 235.292 -2.98337 6.2771 0
M  V30 2460 H 238.483 -2.26747 4.09516 0
M  V30 2461 H 238.656 -2.91548 5.78709 0
M  V30 2462 N 232.062 -1.29571 -0.897171 0
M  V30 2463 C 233.478 -1.07637 -1.17841 0
M  V30 2464 C 233.678 0.170713 -2.00776 0
M  V30 2465 O 232.734 0.867768 -2.3712 0
M  V30 2466 C 234.047 -2.3332 -1.8969 0
M  V30 2467 C 235.595 -2.38664 -2.02505 0
M  V30 2468 C 236.07 -3.64157 -2.77765 0
M  V30 2469 N 237.561 -3.64894 -2.85318 0
M  V30 2470 C 238.296 -4.58679 -3.44094 0
M  V30 2471 N 237.792 -5.62799 -4.04017 0
M  V30 2472 N 239.585 -4.46245 -3.41793 0
M  V30 2473 H 231.736 -2.09598 -0.343883 0
M  V30 2474 H 233.999 -0.923333 -0.214848 0
M  V30 2475 H 233.705 -3.24262 -1.36187 0
M  V30 2476 H 233.579 -2.41025 -2.9015 0
M  V30 2477 H 235.966 -1.48208 -2.55183 0
M  V30 2478 H 236.047 -2.34943 -1.01171 0
M  V30 2479 H 235.691 -4.54965 -2.25763 0
M  V30 2480 H 235.621 -3.65137 -3.7945 0
M  V30 2481 H 238.112 -2.89613 -2.42761 0
M  V30 2482 H 238.425 -6.3048 -4.46895 0
M  V30 2483 H 236.77 -5.66605 -4.02472 0
M  V30 2484 H 239.961 -3.64094 -2.94199 0
M  V30 2485 H 240.134 -5.19518 -3.87304 0
M  V30 2486 N 233.54 1.10788 -1.12088 0
M  V30 2487 C 234.765 1.87002 -0.896949 0
M  V30 2488 C 235.19 1.79933 0.548261 0
M  V30 2489 O 234.548 1.16662 1.38779 0
M  V30 2490 C 234.596 3.3349 -1.37174 0
M  V30 2491 O 233.7 4.08745 -0.547831 0
M  V30 2492 H 233.041 0.580397 -0.322545 0
M  V30 2493 H 235.571 1.39996 -1.49206 0
M  V30 2494 H 235.581 3.84339 -1.36922 0
M  V30 2495 H 234.256 3.37951 -2.42408 0
M  V30 2496 H 232.833 3.6776 -0.617034 0
M  V30 2497 N 235.018 0.912232 1.28515 0
M  V30 2498 C 236.266 0.543523 1.94654 0
M  V30 2499 C 236.587 -0.9155 1.72173 0
M  V30 2500 O 235.857 -1.64708 1.06058 0
M  V30 2501 H 234.437 0.198017 0.720277 0
M  V30 2502 H 237.099 1.16126 1.56527 0
M  V30 2503 H 236.195 0.736684 3.03281 0
M  V30 2504 N 236.496 -1.42363 0.676048 0
M  V30 2505 C 237.459 -2.29199 0.00766941 0
M  V30 2506 C 238.459 -1.43389 -0.727745 0
M  V30 2507 O 239.649 -1.64764 -0.56556 0
M  V30 2508 C 236.781 -3.2591 -0.999785 0
M  V30 2509 H 237.974 -2.89794 0.771988 0
M  V30 2510 H 235.527 -1.50024 0.438468 0
M  V30 2511 H 236.262 -2.70256 -1.79255 0
M  V30 2512 H 236.047 -3.89202 -0.475829 0
M  V30 2513 H 237.537 -3.91028 -1.46583 0
M  V30 2514 N 237.974 -0.419461 -1.51915 0
M  V30 2515 C 239.223 0.154346 -2.01109 0
M  V30 2516 C 239.536 1.45338 -1.30905 0
M  V30 2517 O 240.742 2.10906 -1.7097 0
M  V30 2518 C 239.198 0.325615 -3.58424 0
M  V30 2519 C 238.806 -0.961934 -4.37551 0
M  V30 2520 C 240.55 0.854155 -4.15818 0
M  V30 2521 C 238.457 -0.757287 -5.86531 0
M  V30 2522 H 237.387 0.0614563 -0.751491 0
M  V30 2523 H 240.038 -0.54649 -1.75173 0
M  V30 2524 H 238.42 1.08903 -3.80731 0
M  V30 2525 H 239.594 -1.7323 -4.26999 0
M  V30 2526 H 237.909 -1.41766 -3.91524 0
M  V30 2527 H 240.506 1.02346 -5.24814 0
M  V30 2528 H 240.849 1.83172 -3.73837 0
M  V30 2529 H 241.382 0.149528 -3.97519 0
M  V30 2530 H 238.121 -1.70671 -6.32892 0
M  V30 2531 H 237.641 -0.0264061 -5.99794 0
M  V30 2532 H 239.32 -0.403482 -6.45741 0
M  V30 2533 N 239.452 1.56882 -0.150215 0
M  V30 2534 C 240.701 1.95403 0.500071 0
M  V30 2535 C 241.014 1.03777 1.658 0
M  V30 2536 O 242.22 1.31889 2.37313 0
M  V30 2537 C 240.676 3.4738 0.941018 0
M  V30 2538 C 240.284 4.47596 -0.190158 0
M  V30 2539 C 242.028 3.9476 1.56091 0
M  V30 2540 C 239.935 5.90787 0.269237 0
M  V30 2541 H 238.865 0.729515 0.190588 0
M  V30 2542 H 241.516 1.81988 -0.235074 0
M  V30 2543 H 239.898 3.56138 1.73152 0
M  V30 2544 H 241.072 4.50536 -0.967157 0
M  V30 2545 H 239.387 4.10151 -0.718666 0
M  V30 2546 H 241.984 4.99181 1.9163 0
M  V30 2547 H 242.327 3.36494 2.45107 0
M  V30 2548 H 242.86 3.88932 0.835249 0
M  V30 2549 H 239.599 6.52879 -0.585621 0
M  V30 2550 H 239.119 5.912 1.01204 0
M  V30 2551 H 240.798 6.42979 0.720176 0
M  V30 2552 N 240.93 -0.123565 1.57115 0
M  V30 2553 C 241.893 -1.13583 1.99076 0
M  V30 2554 C 242.893 -1.34564 0.880296 0
M  V30 2555 O 244.083 -1.31158 1.14644 0
M  V30 2556 C 241.215 -2.49128 2.32698 0
M  V30 2557 H 242.408 -0.775287 2.89706 0
M  V30 2558 H 239.961 -0.36771 1.51913 0
M  V30 2559 H 240.696 -2.90111 1.44934 0
M  V30 2560 H 240.481 -2.35255 3.13684 0
M  V30 2561 H 241.971 -3.2199 2.65918 0
M  V30 2562 N 242.408 -1.52605 -0.393616 0
M  V30 2563 C 243.656 -1.67093 -1.13685 0
M  V30 2564 C 243.977 -0.411011 -1.90619 0
M  V30 2565 O 243.247 0.574491 -1.87287 0
M  V30 2566 H 241.827 -0.615923 -0.422668 0
M  V30 2567 H 244.489 -1.89704 -0.447039 0
M  V30 2568 H 243.585 -2.51922 -1.84232 0
M  V30 2569 N 243.887 0.651787 -1.4349 0
M  V30 2570 C 245.136 1.40754 -1.44469 0
M  V30 2571 C 245.449 1.95463 -0.0731845 0
M  V30 2572 O 246.655 2.71471 0.0395721 0
M  V30 2573 C 245.111 2.54735 -2.5424 0
M  V30 2574 C 244.719 2.06628 -3.97504 0
M  V30 2575 C 246.463 3.32092 -2.64414 0
M  V30 2576 C 244.37 3.17829 -4.98737 0
M  V30 2577 H 243.3 0.528862 -0.53742 0
M  V30 2578 H 245.951 0.703365 -1.69485 0
M  V30 2579 H 244.333 3.2763 -2.22428 0
M  V30 2580 H 245.507 1.40734 -4.38783 0
M  V30 2581 H 243.822 1.42146 -3.91387 0
M  V30 2582 H 246.419 4.14952 -3.37223 0
M  V30 2583 H 246.762 3.80217 -1.69532 0
M  V30 2584 H 247.295 2.66279 -2.95534 0
M  V30 2585 H 244.034 2.74671 -5.95177 0
M  V30 2586 H 243.554 3.82429 -4.62069 0
M  V30 2587 H 245.233 3.82937 -5.21505 0
M  V30 2588 N 245.365 1.30045 0.890287 0
M  V30 2589 C 246.611 1.19747 1.64415 0
M  V30 2590 C 246.966 -0.246591 1.90813 0
M  V30 2591 O 246.259 -1.174 1.51419 0
M  V30 2592 C 246.453 1.95409 2.99249 0
M  V30 2593 C 246.282 3.47025 2.86013 0
M  V30 2594 C 245.052 4.1638 2.86279 0
M  V30 2595 C 247.25 4.42353 2.62351 0
M  V30 2596 N 245.232 5.54293 2.63879 0
M  V30 2597 C 246.603 5.67792 2.49022 0
M  V30 2598 C 248.658 4.32009 2.47533 0
M  V30 2599 C 247.361 6.8406 2.22383 0
M  V30 2600 C 249.387 5.48038 2.22279 0
M  V30 2601 C 248.749 6.72455 2.09722 0
M  V30 2602 H 244.848 0.493223 0.60684 0
M  V30 2603 H 247.432 1.6399 1.04954 0
M  V30 2604 H 245.603 1.53565 3.56752 0
M  V30 2605 H 247.335 1.77298 3.63796 0
M  V30 2606 H 244.09 3.68164 2.97913 0
M  V30 2607 H 244.514 6.26852 2.55706 0
M  V30 2608 H 249.156 3.36503 2.55979 0
M  V30 2609 H 246.874 7.79612 2.12675 0
M  V30 2610 H 250.46 5.41939 2.11643 0
M  V30 2611 H 249.34 7.60722 1.90453 0
M  V30 2612 N 246.843 -1.10192 1.12674 0
M  V30 2613 C 247.806 -2.14786 0.799979 0
M  V30 2614 C 248.806 -1.59711 -0.18685 0
M  V30 2615 O 249.996 -1.74156 0.0392558 0
M  V30 2616 C 247.128 -3.40374 0.189228 0
M  V30 2617 H 248.321 -2.45203 1.72671 0
M  V30 2618 H 245.874 -1.25597 0.930326 0
M  V30 2619 H 246.609 -3.15577 -0.747107 0
M  V30 2620 H 246.394 -3.81637 0.899766 0
M  V30 2621 H 247.884 -4.17594 -0.0228143 0
M  V30 2622 N 248.321 -0.919034 -1.28029 0
M  V30 2623 C 249.568 -0.554934 -1.94748 0
M  V30 2624 C 249.896 0.90231 -1.72304 0
M  V30 2625 O 249.151 1.65767 -1.04018 0
M  V30 2626 C 249.45 -0.816855 -3.4794 0
M  V30 2627 C 249.116 -2.25448 -3.90492 0
M  V30 2628 C 247.778 -2.64752 -4.01821 0
M  V30 2629 C 250.13 -3.18977 -4.12193 0
M  V30 2630 C 247.458 -3.96727 -4.32232 0
M  V30 2631 C 249.81 -4.50523 -4.44086 0
M  V30 2632 C 248.474 -4.89673 -4.53626 0
M  V30 2633 H 247.744 -0.203065 -0.712633 0
M  V30 2634 H 250.391 -1.16136 -1.52265 0
M  V30 2635 H 248.696 -0.127677 -3.91592 0
M  V30 2636 H 250.393 -0.514238 -3.97689 0
M  V30 2637 H 246.983 -1.93952 -3.82205 0
M  V30 2638 H 251.167 -2.89817 -4.02889 0
M  V30 2639 H 246.423 -4.26754 -4.37825 0
M  V30 2640 H 250.597 -5.23005 -4.59825 0
M  V30 2641 H 248.224 -5.91969 -4.76946 0
M  V30 2642 N 249.799 1.42003 -0.683588 0
M  V30 2643 C 251.039 2.03282 -0.213513 0
M  V30 2644 C 251.403 1.52924 1.16097 0
M  V30 2645 O 252.604 2.06048 1.7262 0
M  V30 2646 C 250.875 3.56483 -0.255856 0
M  V30 2647 S 252.434 4.3857 0.14193 0
M  V30 2648 H 249.252 0.705659 -0.0869853 0
M  V30 2649 H 251.854 1.73619 -0.8987 0
M  V30 2650 H 250.558 3.90631 -1.25841 0
M  V30 2651 H 250.089 3.90831 0.448875 0
M  V30 2652 H 252.104 4.76828 1.37295 0
M  V30 2653 N 251.277 0.427512 1.51691 0
M  V30 2654 C 252.505 -0.141191 2.06418 0
M  V30 2655 C 252.92 -1.37303 1.29589 0
M  V30 2656 O 252.277 -1.79059 0.352732 0
M  V30 2657 C 252.328 -0.473266 3.58389 0
M  V30 2658 O 252.049 0.709673 4.32314 0
M  V30 2659 C 253.55 -1.09371 4.29596 0
M  V30 2660 H 250.77 -0.0122747 0.670888 0
M  V30 2661 H 253.314 0.603764 1.95384 0
M  V30 2662 H 251.469 -1.16812 3.69369 0
M  V30 2663 H 251.883 0.42807 5.2275 0
M  V30 2664 H 253.357 -1.27613 5.37046 0
M  V30 2665 H 253.834 -2.072 3.87253 0
M  V30 2666 H 254.44 -0.43853 4.23033 0
M  V30 2667 N 252.755 -1.56801 0.158532 0
M  V30 2668 C 254.003 -1.96102 -0.488712 0
M  V30 2669 C 254.324 -1.04498 -1.64636 0
M  V30 2670 O 253.594 -0.108783 -1.95598 0
M  V30 2671 H 252.174 -0.724102 -0.183535 0
M  V30 2672 H 254.836 -1.93457 0.236728 0
M  V30 2673 H 253.932 -3.00097 -0.857219 0
M  V30 2674 N 254.233 0.115231 -1.57178 0
M  V30 2675 C 255.473 0.828199 -1.8687 0
M  V30 2676 C 255.837 1.76873 -0.747002 0
M  V30 2677 O 257.038 2.52354 -0.925785 0
M  V30 2678 C 255.309 1.55515 -3.21792 0
M  V30 2679 S 256.868 2.30917 -3.73125 0
M  V30 2680 H 253.686 0.27634 -0.655101 0
M  V30 2681 H 256.288 0.0863469 -1.95309 0
M  V30 2682 H 254.992 0.856248 -4.01368 0
M  V30 2683 H 254.523 2.3373 -3.16439 0
M  V30 2684 H 256.538 3.56705 -3.44929 0
M  V30 2685 N 255.711 1.52812 0.385517 0
M  V30 2686 C 256.959 1.67694 1.12797 0
M  V30 2687 C 257.28 0.421115 1.90399 0
M  V30 2688 O 256.55 -0.564551 1.87589 0
M  V30 2689 H 255.13 0.618155 0.419396 0
M  V30 2690 H 257.792 1.89938 0.436972 0
M  V30 2691 H 256.888 2.52896 1.82894 0
M  V30 2692 N 257.189 -0.644168 1.43834 0
M  V30 2693 C 258.438 -1.39985 1.45214 0
M  V30 2694 C 258.751 -1.95421 0.0835494 0
M  V30 2695 O 259.957 -2.71488 -0.0251748 0
M  V30 2696 C 258.413 -2.53384 2.55587 0
M  V30 2697 C 258.021 -2.04517 3.98594 0
M  V30 2698 C 259.765 -3.30685 2.66172 0
M  V30 2699 C 257.672 -3.1518 5.00416 0
M  V30 2700 H 256.602 -0.526005 0.540218 0
M  V30 2701 H 259.253 -0.694367 1.69855 0
M  V30 2702 H 257.635 -3.26446 2.24163 0
M  V30 2703 H 258.809 -1.38405 4.39523 0
M  V30 2704 H 257.124 -1.40068 3.92135 0
M  V30 2705 H 259.721 -4.13158 3.39418 0
M  V30 2706 H 260.064 -3.79312 1.71546 0
M  V30 2707 H 260.597 -2.64708 2.96942 0
M  V30 2708 H 257.336 -2.71511 5.96625 0
M  V30 2709 H 256.856 -3.79974 4.64091 0
M  V30 2710 H 258.535 -3.80166 5.23529 0
M  V30 2711 N 258.668 -1.30515 -0.883378 0
M  V30 2712 C 259.914 -1.19607 -1.63774 0
M  V30 2713 C 260.247 0.248314 -1.92606 0
M  V30 2714 O 259.522 1.17742 -1.54813 0
M  V30 2715 C 259.805 -2.02669 -2.97653 0
M  V30 2716 C 259.658 -3.55335 -2.75784 0
M  V30 2717 C 260.977 -1.86573 -3.98596 0
M  V30 2718 H 258.096 -0.435856 -0.594305 0
M  V30 2719 H 260.738 -1.60165 -1.02212 0
M  V30 2720 H 258.888 -1.68208 -3.50197 0
M  V30 2721 H 260.56 -3.99863 -2.30016 0
M  V30 2722 H 258.803 -3.79438 -2.1026 0
M  V30 2723 H 259.474 -4.08745 -3.70988 0
M  V30 2724 H 261.95 -2.16703 -3.55217 0
M  V30 2725 H 260.826 -2.47014 -4.90179 0
M  V30 2726 H 261.087 -0.825321 -4.34328 0
M  V30 2727 N 260.146 1.09593 -1.13257 0
M  V30 2728 C 261.393 1.81734 -0.893257 0
M  V30 2729 C 261.721 1.8563 0.580656 0
M  V30 2730 O 260.976 1.31906 1.44566 0
M  V30 2731 C 261.275 3.27802 -1.42411 0
M  V30 2732 C 260.941 3.44041 -2.91456 0
M  V30 2733 C 259.603 3.48181 -3.3215 0
M  V30 2734 C 261.955 3.48719 -3.87356 0
M  V30 2735 C 259.283 3.54575 -4.67433 0
M  V30 2736 C 261.635 3.56648 -5.2248 0
M  V30 2737 C 260.299 3.59055 -5.62704 0
M  V30 2738 H 259.569 0.665011 -0.326866 0
M  V30 2739 H 262.216 1.2912 -1.41422 0
M  V30 2740 H 260.521 3.83042 -0.823795 0
M  V30 2741 H 262.218 3.82149 -1.21503 0
M  V30 2742 H 258.808 3.41502 -2.58987 0
M  V30 2743 H 262.992 3.44763 -3.57004 0
M  V30 2744 H 258.248 3.54725 -4.97976 0
M  V30 2745 H 262.422 3.59212 -5.96607 0
M  V30 2746 H 260.049 3.63763 -6.67518 0
M  V30 2747 N 261.624 0.925811 1.2754 0
M  V30 2748 C 262.873 0.561084 1.93739 0
M  V30 2749 C 263.186 -0.901685 1.73577 0
M  V30 2750 O 264.392 -1.37511 2.34101 0
M  V30 2751 C 262.848 0.952668 3.47062 0
M  V30 2752 C 262.456 2.43599 3.75983 0
M  V30 2753 C 264.2 0.659103 4.19352 0
M  V30 2754 C 262.107 2.76707 5.22673 0
M  V30 2755 H 261.037 0.206122 0.725279 0
M  V30 2756 H 263.688 1.12637 1.44863 0
M  V30 2757 H 262.07 0.316053 3.94737 0
M  V30 2758 H 263.244 3.12035 3.39073 0
M  V30 2759 H 261.559 2.70125 3.16893 0
M  V30 2760 H 264.156 0.882985 5.27359 0
M  V30 2761 H 264.499 -0.403607 4.14339 0
M  V30 2762 H 265.032 1.25473 3.77494 0
M  V30 2763 H 261.771 3.8188 5.32774 0
M  V30 2764 H 261.291 2.12919 5.60737 0
M  V30 2765 H 262.97 2.6435 5.90532 0
M  V30 2766 N 263.102 -1.41638 0.69111 0
M  V30 2767 C 264.032 -2.3347 0.037248 0
M  V30 2768 C 265.013 -1.51575 -0.771947 0
M  V30 2769 O 266.198 -1.80126 -0.72582 0
M  V30 2770 C 263.328 -3.35354 -0.903064 0
M  V30 2771 C 262.282 -4.27526 -0.201288 0
M  V30 2772 C 261.608 -5.19747 -1.25565 0
M  V30 2773 C 262.908 -5.13959 0.929689 0
M  V30 2774 H 264.602 -2.88397 0.804227 0
M  V30 2775 H 262.148 -1.38669 0.388189 0
M  V30 2776 H 264.101 -3.98519 -1.36969 0
M  V30 2777 H 262.825 -2.78767 -1.70166 0
M  V30 2778 H 261.484 -3.65779 0.245265 0
M  V30 2779 H 261.132 -4.59479 -2.04666 0
M  V30 2780 H 260.832 -5.8225 -0.791128 0
M  V30 2781 H 262.356 -5.85789 -1.72288 0
M  V30 2782 H 263.77 -5.70718 0.543546 0
M  V30 2783 H 262.167 -5.85379 1.32103 0
M  V30 2784 H 263.237 -4.51389 1.77133 0
M  V30 2785 N 264.58 -0.43555 -1.51462 0
M  V30 2786 C 265.81 0.130053 -2.0619 0
M  V30 2787 C 266.218 1.37164 -1.30317 0
M  V30 2788 O 265.561 1.80225 -0.355598 0
M  V30 2789 C 265.623 0.519418 -3.55728 0
M  V30 2790 C 265.287 -0.615119 -4.52841 0
M  V30 2791 C 266.284 -1.48671 -4.9819 0
M  V30 2792 C 263.969 -0.795341 -4.95963 0
M  V30 2793 C 265.963 -2.52324 -5.8533 0
M  V30 2794 C 263.65 -1.83514 -5.82894 0
M  V30 2795 C 264.648 -2.69748 -6.27475 0
M  V30 2796 O 264.336 -3.71944 -7.1268 0
M  V30 2797 H 264.068 0.0121612 -0.675891 0
M  V30 2798 H 266.622 -0.6129 -1.96043 0
M  V30 2799 H 264.852 1.31505 -3.63653 0
M  V30 2800 H 266.541 1.01597 -3.92979 0
M  V30 2801 H 267.307 -1.359 -4.65571 0
M  V30 2802 H 263.186 -0.133713 -4.60806 0
M  V30 2803 H 266.73 -3.19665 -6.20048 0
M  V30 2804 H 262.627 -1.96306 -6.14926 0
M  V30 2805 H 263.395 -3.68503 -7.30854 0
M  V30 2806 N 266.058 1.56714 -0.166846 0
M  V30 2807 C 267.283 2.01557 0.488833 0
M  V30 2808 C 267.708 1.0463 1.56314 0
M  V30 2809 O 267.066 0.0251304 1.81283 0
M  V30 2810 C 267.114 3.4503 1.04818 0
M  V30 2811 O 266.218 3.51163 2.16236 0
M  V30 2812 H 265.559 0.653516 0.117526 0
M  V30 2813 H 268.089 2.02818 -0.269421 0
M  V30 2814 H 268.099 3.84243 1.37191 0
M  V30 2815 H 266.774 4.15077 0.261572 0
M  V30 2816 H 265.351 3.23807 1.84942 0
M  V30 2817 N 267.536 -0.106894 1.57237 0
M  V30 2818 C 268.446 -1.14911 2.0453 0
M  V30 2819 C 269.462 -1.44592 0.96795 0
M  V30 2820 O 270.638 -1.55468 1.2803 0
M  V30 2821 C 267.703 -2.45272 2.45036 0
M  V30 2822 C 266.764 -2.22879 3.66911 0
M  V30 2823 C 265.997 -3.47024 4.05475 0
M  V30 2824 O 266.22 -4.54804 3.44252 0
M  V30 2825 O 265.154 -3.3731 4.98504 0
M  V30 2826 H 268.98 -0.777461 2.9358 0
M  V30 2827 H 266.565 -0.318563 1.45964 0
M  V30 2828 H 268.447 -3.22055 2.71769 0
M  V30 2829 H 267.122 -2.81886 1.59129 0
M  V30 2830 H 266.029 -1.43915 3.45311 0
M  V30 2831 H 267.362 -1.91163 4.53561 0
M  V30 2832 N 269.014 -1.53014 -0.377408 0
M  V30 2833 C 270.239 -1.72818 -1.14668 0
M  V30 2834 C 270.664 -0.450725 -1.8262 0
M  V30 2835 O 270.022 0.59439 -1.7128 0
M  V30 2836 C 270.07 -2.88627 -2.16164 0
M  V30 2837 O 269.174 -2.56409 -3.22998 0
M  V30 2838 H 268.515 -0.574301 -0.333278 0
M  V30 2839 H 271.045 -1.99853 -0.438152 0
M  V30 2840 H 271.055 -3.14455 -2.59966 0
M  V30 2841 H 269.73 -3.81294 -1.66095 0
M  V30 2842 H 268.307 -2.4136 -2.84253 0
M  V30 2843 N 270.492 0.636531 -1.44174 0
M  V30 2844 C 271.72 1.42353 -1.50144 0
M  V30 2845 C 272.135 1.88389 -0.124575 0
M  V30 2846 O 271.492 1.6051 0.868489 0
M  V30 2847 C 271.543 2.64744 -2.46156 0
M  V30 2848 O 271.264 2.20629 -3.7849 0
M  V30 2849 C 272.765 3.57929 -2.61537 0
M  V30 2850 H 269.985 0.436752 -0.5094 0
M  V30 2851 H 272.529 0.778933 -1.89084 0
M  V30 2852 H 270.684 3.25307 -2.10366 0
M  V30 2853 H 271.098 2.99938 -4.30276 0
M  V30 2854 H 272.572 4.40428 -3.32757 0
M  V30 2855 H 273.049 4.06382 -1.66585 0
M  V30 2856 H 273.655 3.03238 -2.98206 0
M  V30 2857 N 271.97 1.30982 0.876444 0
M  V30 2858 C 273.2 1.23063 1.65949 0
M  V30 2859 C 273.608 -0.207537 1.88058 0
M  V30 2860 O 272.951 -1.14781 1.43426 0
M  V30 2861 C 273.013 1.89768 3.05333 0
M  V30 2862 C 272.677 3.39106 3.0636 0
M  V30 2863 C 273.674 4.3496 2.84791 0
M  V30 2864 C 271.359 3.80693 3.27686 0
M  V30 2865 C 273.353 5.70375 2.84519 0
M  V30 2866 C 271.04 5.16223 3.27043 0
M  V30 2867 C 272.038 6.10875 3.05485 0
M  V30 2868 O 271.726 7.43928 3.04674 0
M  V30 2869 H 271.458 0.426685 0.524324 0
M  V30 2870 H 274.012 1.7329 1.10271 0
M  V30 2871 H 272.242 1.34082 3.6271 0
M  V30 2872 H 273.931 1.75853 3.65829 0
M  V30 2873 H 274.697 4.0416 2.68103 0
M  V30 2874 H 270.576 3.07457 3.43499 0
M  V30 2875 H 274.12 6.44228 2.67611 0
M  V30 2876 H 270.017 5.4666 3.43269 0
M  V30 2877 H 270.785 7.53022 3.2078 0
M  V30 2878 N 273.449 -1.08991 1.13837 0
M  V30 2879 C 274.695 -1.81526 0.90422 0
M  V30 2880 C 275.028 -1.85706 -0.568066 0
M  V30 2881 O 274.303 -1.32855 -1.42056 0
M  V30 2882 C 274.586 -3.27447 1.49835 0
M  V30 2883 C 274.439 -3.31512 3.04006 0
M  V30 2884 C 275.758 -4.24256 1.17025 0
M  V30 2885 H 272.877 -0.659029 0.329923 0
M  V30 2886 H 275.519 -1.27644 1.40737 0
M  V30 2887 H 273.669 -3.73462 1.07044 0
M  V30 2888 H 275.341 -2.93867 3.55584 0
M  V30 2889 H 273.584 -2.70963 3.38765 0
M  V30 2890 H 274.255 -4.34329 3.40679 0
M  V30 2891 H 276.731 -3.86549 1.54009 0
M  V30 2892 H 275.607 -5.24684 1.61237 0
M  V30 2893 H 275.868 -4.42019 0.0846274 0
M  V30 2894 N 274.927 -0.932562 -1.27047 0
M  V30 2895 C 276.176 -0.571351 -1.93439 0
M  V30 2896 C 276.489 0.892467 -1.74053 0
M  V30 2897 O 277.695 1.36267 -2.34826 0
M  V30 2898 C 276.151 -0.97106 -3.46552 0
M  V30 2899 C 275.759 -2.4559 -3.74686 0
M  V30 2900 C 277.503 -0.681333 -4.18997 0
M  V30 2901 C 275.41 -2.79475 -5.21198 0
M  V30 2902 H 274.34 -0.209966 -0.724176 0
M  V30 2903 H 276.991 -1.13403 -1.44263 0
M  V30 2904 H 275.373 -0.336983 -3.94564 0
M  V30 2905 H 276.547 -3.13829 -3.37414 0
M  V30 2906 H 274.862 -2.71802 -3.15456 0
M  V30 2907 H 277.459 -0.910939 -5.26883 0
M  V30 2908 H 277.802 0.381628 -4.14547 0
M  V30 2909 H 278.335 -1.27473 -3.76823 0
M  V30 2910 H 275.074 -3.847 -5.30741 0
M  V30 2911 H 274.594 -2.1589 -5.596 0
M  V30 2912 H 276.273 -2.67478 -5.89122 0
M  V30 2913 N 276.405 1.4127 -0.698611 0
M  V30 2914 C 277.335 2.33447 -0.049629 0
M  V30 2915 C 278.316 1.51982 0.763898 0
M  V30 2916 O 279.501 1.80509 0.716257 0
M  V30 2917 C 276.631 3.35828 0.885267 0
M  V30 2918 C 275.585 4.27627 0.178613 0
M  V30 2919 C 274.911 5.20406 1.22807 0
M  V30 2920 C 276.211 5.13459 -0.956933 0
M  V30 2921 H 277.905 2.87966 -0.81951 0
M  V30 2922 H 275.451 1.38461 -0.395538 0
M  V30 2923 H 277.404 3.9924 1.34854 0
M  V30 2924 H 276.128 2.79666 1.68685 0
M  V30 2925 H 274.787 3.65643 -0.26466 0
M  V30 2926 H 274.435 4.60558 2.02226 0
M  V30 2927 H 274.135 5.82661 0.760239 0
M  V30 2928 H 275.659 5.86695 1.69179 0
M  V30 2929 H 277.073 5.70421 -0.573805 0
M  V30 2930 H 275.47 5.8467 -1.35205 0
M  V30 2931 H 276.54 4.50443 -1.79524 0
M  V30 2932 N 277.883 0.443576 1.51229 0
M  V30 2933 C 279.123 -0.119889 2.04048 0
M  V30 2934 C 279.487 -1.39418 1.32009 0
M  V30 2935 O 280.688 -2.03829 1.75235 0
M  V30 2936 C 278.959 -0.327233 3.55899 0
M  V30 2937 S 280.518 -0.853208 4.30425 0
M  V30 2938 H 277.336 -0.028921 0.710412 0
M  V30 2939 H 279.938 0.604413 1.85922 0
M  V30 2940 H 278.642 0.606445 4.05895 0
M  V30 2941 H 278.173 -1.07844 3.7833 0
M  V30 2942 H 280.188 -2.13005 4.48155 0
M  V30 2943 N 279.361 -1.56624 0.175154 0
M  V30 2944 C 280.291 -2.21155 -0.749195 0
M  V30 2945 C 281.272 -1.16836 -1.23626 0
M  V30 2946 O 282.457 -1.45277 -1.28873 0
M  V30 2947 C 279.587 -2.8553 -1.97711 0
M  V30 2948 C 278.541 -3.95921 -1.62575 0
M  V30 2949 C 277.867 -4.47365 -2.92864 0
M  V30 2950 C 279.167 -5.15323 -0.850838 0
M  V30 2951 H 280.861 -2.98653 -0.211295 0
M  V30 2952 H 278.407 -1.43651 -0.100188 0
M  V30 2953 H 280.36 -3.2935 -2.62881 0
M  V30 2954 H 279.084 -2.05406 -2.53921 0
M  V30 2955 H 277.743 -3.52762 -0.997719 0
M  V30 2956 H 277.391 -3.64027 -3.47122 0
M  V30 2957 H 277.091 -5.21839 -2.70106 0
M  V30 2958 H 278.615 -4.93873 -3.59056 0
M  V30 2959 H 280.029 -5.55812 -1.40521 0
M  V30 2960 H 278.426 -5.95739 -0.722154 0
M  V30 2961 H 279.496 -4.84661 0.152082 0
M  V30 2962 N 280.839 0.0985539 -1.57292 0
M  V30 2963 C 282.088 0.801358 -1.85098 0
M  V30 2964 C 282.401 1.80066 -0.763902 0
M  V30 2965 O 283.607 2.55112 -0.928981 0
M  V30 2966 C 282.063 1.47599 -3.28242 0
M  V30 2967 C 281.671 0.516624 -4.45011 0
M  V30 2968 C 283.415 2.16272 -3.65276 0
M  V30 2969 C 281.322 1.19564 -5.79188 0
M  V30 2970 H 280.252 0.303022 -0.69043 0
M  V30 2971 H 282.903 0.0542623 -1.8342 0
M  V30 2972 H 281.285 2.27042 -3.2445 0
M  V30 2973 H 282.459 -0.246065 -4.60143 0
M  V30 2974 H 280.774 -0.064227 -4.1635 0
M  V30 2975 H 283.371 2.67802 -4.62803 0
M  V30 2976 H 283.714 2.95009 -2.93727 0
M  V30 2977 H 284.247 1.43693 -3.70941 0
M  V30 2978 H 280.986 0.449157 -6.53959 0
M  V30 2979 H 280.506 1.92984 -5.67906 0
M  V30 2980 H 282.185 1.7231 -6.23633 0
M  V30 2981 N 282.317 1.53212 0.369288 0
M  V30 2982 C 283.542 1.73423 1.1375 0
M  V30 2983 C 283.967 0.460404 1.82378 0
M  V30 2984 O 283.325 -0.585298 1.71592 0
M  V30 2985 C 283.373 2.89769 2.1463 0
M  V30 2986 O 282.477 2.58119 3.21634 0
M  V30 2987 H 281.818 0.576061 0.330227 0
M  V30 2988 H 284.348 2.00083 0.427547 0
M  V30 2989 H 284.358 3.15829 2.58294 0
M  V30 2990 H 283.033 3.8217 1.64071 0
M  V30 2991 H 281.61 2.42864 2.82969 0
M  V30 2992 N 283.795 -0.628877 1.44509 0
M  V30 2993 C 284.728 -1.75367 1.46019 0
M  V30 2994 C 285.706 -1.59444 0.318787 0
M  V30 2995 O 286.89 -1.81297 0.516099 0
M  V30 2996 C 284.017 -3.12965 1.29501 0
M  V30 2997 C 283.063 -3.47532 2.47233 0
M  V30 2998 S 283.896 -3.44758 4.09758 0
M  V30 2999 C 285.052 -4.84973 3.95667 0
M  V30 3000 H 285.285 -1.7382 2.41193 0
M  V30 3001 H 282.818 -0.803686 1.31834 0
M  V30 3002 H 284.776 -3.92367 1.20658 0
M  V30 3003 H 283.437 -3.12049 0.358341 0
M  V30 3004 H 282.63 -4.47664 2.31544 0
M  V30 3005 H 282.232 -2.75598 2.52828 0
M  V30 3006 H 284.524 -5.74255 3.59496 0
M  V30 3007 H 285.467 -5.05716 4.95638 0
M  V30 3008 H 285.875 -4.59653 3.27688 0
M  V30 3009 N 285.273 -1.31445 -0.869486 0
M  V30 3010 C 286.52 -1.21158 -1.62256 0
M  V30 3011 C 286.848 0.230155 -1.93133 0
M  V30 3012 O 286.103 1.17906 -1.56194 0
M  V30 3013 C 286.402 -2.00145 -2.96102 0
M  V30 3014 C 286.068 -3.4964 -2.84715 0
M  V30 3015 C 284.73 -3.90403 -2.81317 0
M  V30 3016 C 287.082 -4.44769 -2.71716 0
M  V30 3017 C 284.41 -5.24561 -2.62778 0
M  V30 3018 C 286.762 -5.79054 -2.54714 0
M  V30 3019 C 285.426 -6.19037 -2.49699 0
M  V30 3020 H 284.696 -0.443348 -0.593737 0
M  V30 3021 H 287.343 -1.62715 -1.00976 0
M  V30 3022 H 285.648 -1.5127 -3.6142 0
M  V30 3023 H 287.345 -1.89566 -3.53363 0
M  V30 3024 H 283.935 -3.17256 -2.88178 0
M  V30 3025 H 288.119 -4.14208 -2.73397 0
M  V30 3026 H 283.375 -5.54613 -2.57321 0
M  V30 3027 H 287.549 -6.52393 -2.43632 0
M  V30 3028 H 285.176 -7.22935 -2.35093 0
M  V30 3029 N 286.751 1.08385 -1.14413 0
M  V30 3030 C 287.998 1.80776 -0.912482 0
M  V30 3031 C 288.326 1.86236 0.560934 0
M  V30 3032 O 287.581 1.33431 1.43159 0
M  V30 3033 C 287.88 3.26273 -1.45879 0
M  V30 3034 C 287.546 3.4093 -2.95089 0
M  V30 3035 C 286.208 3.44638 -3.35824 0
M  V30 3036 C 288.56 3.44591 -3.91033 0
M  V30 3037 C 285.888 3.49597 -4.71167 0
M  V30 3038 C 288.24 3.51086 -5.26233 0
M  V30 3039 C 286.904 3.53067 -5.6648 0
M  V30 3040 H 286.174 0.661507 -0.333901 0
M  V30 3041 H 288.821 1.27613 -1.42784 0
M  V30 3042 H 287.126 3.82146 -0.864376 0
M  V30 3043 H 288.823 3.80839 -1.2555 0
M  V30 3044 H 285.413 3.38736 -2.62594 0
M  V30 3045 H 289.597 3.40957 -3.60641 0
M  V30 3046 H 284.853 3.49424 -5.0171 0
M  V30 3047 H 289.027 3.52864 -6.00383 0
M  V30 3048 H 286.654 3.56662 -6.71339 0
M  V30 3049 N 288.23 0.939286 1.26551 0
M  V30 3050 C 289.193 0.451987 2.24699 0
M  V30 3051 C 290.193 -0.435869 1.5478 0
M  V30 3052 O 291.383 -0.235314 1.72603 0
M  V30 3053 C 288.515 -0.348801 3.39111 0
M  V30 3054 H 289.708 1.3193 2.69322 0
M  V30 3055 H 287.261 0.721072 1.38673 0
M  V30 3056 H 287.996 -1.23444 2.99887 0
M  V30 3057 H 287.781 0.287945 3.91041 0
M  V30 3058 H 289.271 -0.679726 4.12031 0
M  V30 3059 N 289.708 -1.40897 0.706093 0
M  V30 3060 C 290.641 -2.282 -0.00328781 0
M  V30 3061 C 291.619 -1.42816 -0.77732 0
M  V30 3062 O 292.803 -1.72237 -0.765944 0
M  V30 3063 C 289.93 -3.23226 -1.01205 0
M  V30 3064 C 288.976 -4.25222 -0.329955 0
M  V30 3065 S 289.809 -5.27269 0.935298 0
M  V30 3066 C 290.965 -6.25859 -0.0716061 0
M  V30 3067 H 291.198 -2.88016 0.737143 0
M  V30 3068 H 288.731 -1.46191 0.496756 0
M  V30 3069 H 290.689 -3.78503 -1.58888 0
M  V30 3070 H 289.35 -2.62485 -1.72513 0
M  V30 3071 H 288.543 -4.92023 -1.09221 0
M  V30 3072 H 288.145 -3.73595 0.174069 0
M  V30 3073 H 290.437 -6.71204 -0.921521 0
M  V30 3074 H 291.38 -7.0586 0.562765 0
M  V30 3075 H 291.788 -5.62852 -0.431088 0
M  V30 3076 N 291.186 -0.45159 -1.50991 0
M  V30 3077 C 292.116 0.342898 -2.30969 0
M  V30 3078 C 293.097 1.00815 -1.37005 0
M  V30 3079 O 294.282 1.00907 -1.65926 0
M  V30 3080 C 291.412 1.43637 -3.16205 0
M  V30 3081 C 290.366 0.893818 -4.18563 0
M  V30 3082 C 289.692 2.08411 -4.92411 0
M  V30 3083 C 290.992 -0.0815568 -5.22236 0
M  V30 3084 H 292.686 -0.324556 -2.97636 0
M  V30 3085 H 290.232 -0.157531 -1.43136 0
M  V30 3086 H 292.185 1.9995 -3.70942 0
M  V30 3087 H 290.909 2.13232 -2.47386 0
M  V30 3088 H 289.568 0.352798 -3.64898 0
M  V30 3089 H 289.216 2.76658 -4.20082 0
M  V30 3090 H 288.916 1.72741 -5.61636 0
M  V30 3091 H 290.44 2.65251 -5.49976 0
M  V30 3092 H 291.854 0.391742 -5.7196 0
M  V30 3093 H 290.251 -0.351551 -5.99069 0
M  V30 3094 H 291.321 -1.01374 -4.74185 0
M  V30 3095 N 292.664 1.56529 -0.183458 0
M  V30 3096 C 293.911 1.97244 0.458357 0
M  V30 3097 C 294.239 1.06992 1.62428 0
M  V30 3098 O 293.494 0.106542 1.9541 0
M  V30 3099 C 293.793 3.43939 0.971637 0
M  V30 3100 C 293.459 4.5083 -0.0796784 0
M  V30 3101 C 292.121 4.79786 -0.368584 0
M  V30 3102 C 294.473 5.15138 -0.792638 0
M  V30 3103 C 291.801 5.70345 -1.37563 0
M  V30 3104 C 294.153 6.06784 -1.78875 0
M  V30 3105 C 292.817 6.34102 -2.08497 0
M  V30 3106 H 292.087 0.721768 0.167725 0
M  V30 3107 H 294.734 1.89472 -0.277976 0
M  V30 3108 H 293.039 3.48724 1.78602 0
M  V30 3109 H 294.736 3.72791 1.47744 0
M  V30 3110 H 291.326 4.28317 0.155668 0
M  V30 3111 H 295.51 4.92868 -0.582659 0
M  V30 3112 H 290.766 5.89789 -1.61118 0
M  V30 3113 H 294.94 6.55677 -2.3465 0
M  V30 3114 H 292.567 7.04074 -2.86678 0
M  V30 3115 N 294.142 -0.090211 1.57342 0
M  V30 3116 C 295.072 -1.10976 2.05443 0
M  V30 3117 C 296.053 -1.41482 0.944284 0
M  V30 3118 O 297.238 -1.51428 1.21586 0
M  V30 3119 C 294.368 -2.42831 2.48295 0
M  V30 3120 C 293.322 -2.26721 3.63018 0
M  V30 3121 C 292.648 -3.63796 3.91863 0
M  V30 3122 C 293.948 -1.7037 4.93732 0
M  V30 3123 H 295.642 -0.709564 2.9087 0
M  V30 3124 H 293.188 -0.339874 1.39932 0
M  V30 3125 H 295.141 -3.14431 2.80555 0
M  V30 3126 H 293.865 -2.84795 1.59873 0
M  V30 3127 H 292.524 -1.57565 3.31012 0
M  V30 3128 H 292.172 -4.03297 3.00601 0
M  V30 3129 H 291.872 -3.53861 4.69101 0
M  V30 3130 H 293.396 -4.36855 4.26603 0
M  V30 3131 H 294.81 -2.31816 5.24342 0
M  V30 3132 H 293.207 -1.71181 5.75167 0
M  V30 3133 H 294.277 -0.663542 4.80339 0
M  V30 3134 N 295.62 -1.53406 -0.361157 0
M  V30 3135 C 296.55 -1.83136 -1.44857 0
M  V30 3136 C 297.531 -0.685174 -1.5569 0
M  V30 3137 O 298.716 -0.93544 -1.70186 0
M  V30 3138 C 295.846 -2.02522 -2.82138 0
M  V30 3139 C 294.8 -3.18302 -2.86126 0
M  V30 3140 C 294.126 -3.22989 -4.26125 0
M  V30 3141 C 295.426 -4.56796 -2.53248 0
M  V30 3142 H 297.12 -2.74201 -1.20226 0
M  V30 3143 H 294.666 -1.31938 -0.576922 0
M  V30 3144 H 296.619 -2.21904 -3.58241 0
M  V30 3145 H 295.343 -1.08172 -3.08166 0
M  V30 3146 H 294.002 -2.98747 -2.12475 0
M  V30 3147 H 293.65 -2.26267 -4.49235 0
M  V30 3148 H 293.35 -4.00781 -4.29708 0
M  V30 3149 H 294.874 -3.44559 -5.04094 0
M  V30 3150 H 296.288 -4.7631 -3.19064 0
M  V30 3151 H 294.685 -5.36862 -2.68141 0
M  V30 3152 H 295.755 -4.61606 -1.48484 0
M  V30 3153 N 297.098 0.621204 -1.44841 0
M  V30 3154 C 298.344 1.3826 -1.48365 0
M  V30 3155 C 298.677 1.93831 -0.119624 0
M  V30 3156 O 297.952 1.74251 0.864111 0
M  V30 3157 C 298.235 2.54058 -2.55199 0
M  V30 3158 C 298.088 2.03772 -4.00995 0
M  V30 3159 C 299.407 3.56225 -2.58442 0
M  V30 3160 H 296.526 0.501374 -0.540179 0
M  V30 3161 H 299.168 0.7015 -1.76576 0
M  V30 3162 H 297.318 3.12162 -2.31274 0
M  V30 3163 H 298.99 1.50423 -4.36086 0
M  V30 3164 H 297.233 1.34876 -4.12299 0
M  V30 3165 H 297.904 2.87185 -4.71411 0
M  V30 3166 H 300.38 3.07939 -2.79844 0
M  V30 3167 H 299.256 4.34756 -3.3508 0
M  V30 3168 H 299.517 4.10949 -1.63013 0
M  V30 3169 N 298.576 1.31904 0.862503 0
M  V30 3170 C 299.801 1.25135 1.65397 0
M  V30 3171 C 300.226 -0.179 1.87246 0
M  V30 3172 O 299.584 -1.1277 1.4196 0
M  V30 3173 C 299.632 2.00832 2.99498 0
M  V30 3174 O 298.736 1.35075 3.89652 0
M  V30 3175 H 298.077 0.431655 0.504549 0
M  V30 3176 H 300.607 1.74094 1.07483 0
M  V30 3177 H 300.617 2.10709 3.49379 0
M  V30 3178 H 299.292 3.04847 2.82916 0
M  V30 3179 H 297.869 1.33696 3.48109 0
M  V30 3180 N 300.054 -1.07777 1.14986 0
M  V30 3181 C 300.984 -2.16865 0.865557 0
M  V30 3182 C 301.965 -1.69123 -0.182083 0
M  V30 3183 O 303.15 -1.94164 -0.0373815 0
M  V30 3184 C 300.28 -3.45539 0.349313 0
M  V30 3185 C 299.234 -4.06708 1.33313 0
M  V30 3186 C 298.56 -5.30411 0.675918 0
M  V30 3187 C 299.86 -4.47241 2.69764 0
M  V30 3188 H 301.554 -2.40905 1.77778 0
M  V30 3189 H 299.1 -1.15781 0.856203 0
M  V30 3190 H 301.053 -4.21174 0.137983 0
M  V30 3191 H 299.777 -3.21072 -0.598362 0
M  V30 3192 H 298.436 -3.33112 1.53075 0
M  V30 3193 H 298.084 -5.02232 -0.277767 0
M  V30 3194 H 297.784 -5.72293 1.33244 0
M  V30 3195 H 299.308 -6.08755 0.474262 0
M  V30 3196 H 300.722 -5.14025 2.53873 0
M  V30 3197 H 299.119 -5.00062 3.3175 0
M  V30 3198 H 300.189 -3.58818 3.26156 0
M  V30 3199 N 301.532 -0.945985 -1.26051 0
M  V30 3200 C 302.762 -0.612136 -1.97323 0
M  V30 3201 C 303.17 0.818171 -1.70595 0
M  V30 3202 O 302.513 1.55777 -0.973613 0
M  V30 3203 C 302.575 -0.780347 -3.50929 0
M  V30 3204 C 302.239 -2.18619 -4.01317 0
M  V30 3205 C 303.236 -3.16209 -4.12683 0
M  V30 3206 C 300.921 -2.50805 -4.35203 0
M  V30 3207 C 302.915 -4.44085 -4.57238 0
M  V30 3208 C 300.602 -3.78912 -4.79446 0
M  V30 3209 C 301.6 -4.75365 -4.90425 0
M  V30 3210 O 301.288 -6.01191 -5.3369 0
M  V30 3211 H 301.02 -0.229134 -0.635982 0
M  V30 3212 H 303.574 -1.27036 -1.61404 0
M  V30 3213 H 301.804 -0.0649864 -3.86645 0
M  V30 3214 H 303.493 -0.448842 -4.03411 0
M  V30 3215 H 304.259 -2.92668 -3.86744 0
M  V30 3216 H 300.138 -1.76463 -4.2589 0
M  V30 3217 H 303.682 -5.19373 -4.65723 0
M  V30 3218 H 299.579 -4.02265 -5.0483 0
M  V30 3219 H 300.347 -6.04442 -5.51899 0
M  V30 3220 N 303.011 1.40521 -0.713556 0
M  V30 3221 C 304.26 2.00155 -0.249192 0
M  V30 3222 C 304.573 1.57224 1.16362 0
M  V30 3223 O 305.779 2.09542 1.72639 0
M  V30 3224 C 304.235 3.5773 -0.3946 0
M  V30 3225 C 303.843 4.09635 -1.81392 0
M  V30 3226 C 305.587 4.24499 0.00907364 0
M  V30 3227 C 303.494 5.59707 -1.91003 0
M  V30 3228 H 302.424 0.74868 -0.0894114 0
M  V30 3229 H 305.075 1.60784 -0.884352 0
M  V30 3230 H 303.457 3.94792 0.30911 0
M  V30 3231 H 304.631 3.83955 -2.54785 0
M  V30 3232 H 302.946 3.55456 -2.16888 0
M  V30 3233 H 305.543 5.34683 -0.0420404 0
M  V30 3234 H 305.886 4.02824 1.05065 0
M  V30 3235 H 306.419 3.92536 -0.645007 0
M  V30 3236 H 303.158 5.86234 -2.93275 0
M  V30 3237 H 302.678 5.87258 -1.22019 0
M  V30 3238 H 304.357 6.24776 -1.6812 0
M  V30 3239 N 304.489 0.459591 1.5075 0
M  V30 3240 C 305.439 -0.358926 2.25157 0
M  V30 3241 C 306.423 -0.971285 1.28276 0
M  V30 3242 O 307.615 -0.885739 1.53244 0
M  V30 3243 C 304.744 -1.44695 3.11317 0
M  V30 3244 C 303.83 -0.842894 4.15639 0
M  V30 3245 N 304.221 0.0299373 5.05791 0
M  V30 3246 C 302.519 -1.10809 4.32015 0
M  V30 3247 C 303.22 0.371563 5.80512 0
M  V30 3248 N 302.196 -0.250409 5.43023 0
M  V30 3249 H 305.998 0.313636 2.92222 0
M  V30 3250 H 303.512 0.273021 1.60089 0
M  V30 3251 H 305.509 -2.04641 3.63218 0
M  V30 3252 H 304.169 -2.12162 2.45799 0
M  V30 3253 H 305.18 0.39797 5.16369 0
M  V30 3254 H 301.857 -1.7786 3.77719 0
M  V30 3255 H 303.247 1.08319 6.63111 0
M  V30 3256 N 305.967 -1.56429 0.191757 0
M  V30 3257 C 306.9 -2.14829 -0.76967 0
M  V30 3258 C 307.878 -1.08405 -1.2119 0
M  V30 3259 O 309.062 -1.36498 -1.30002 0
M  V30 3260 C 306.189 -2.70446 -2.03903 0
M  V30 3261 C 305.235 -3.89428 -1.7392 0
M  V30 3262 S 306.068 -5.28048 -0.890265 0
M  V30 3263 C 307.224 -5.87085 -2.16984 0
M  V30 3264 H 307.457 -2.96042 -0.273204 0
M  V30 3265 H 304.99 -1.54383 -0.0231975 0
M  V30 3266 H 306.948 -3.03134 -2.76803 0
M  V30 3267 H 305.609 -1.89281 -2.50662 0
M  V30 3268 H 304.802 -4.26742 -2.68155 0
M  V30 3269 H 304.404 -3.57732 -1.09103 0
M  V30 3270 H 306.696 -6.01244 -3.12269 0
M  V30 3271 H 307.639 -6.83747 -1.84108 0
M  V30 3272 H 308.047 -5.15663 -2.29678 0
M  V30 3273 N 307.445 0.0818655 -1.57387 0
M  V30 3274 C 308.692 0.782914 -1.86753 0
M  V30 3275 C 309.02 1.78082 -0.782118 0
M  V30 3276 O 308.275 1.94426 0.22295 0
M  V30 3277 C 308.574 1.53513 -3.22752 0
M  V30 3278 C 308.24 0.678134 -4.45771 0
M  V30 3279 C 306.902 0.441929 -4.79166 0
M  V30 3280 C 309.254 0.0832243 -5.21134 0
M  V30 3281 C 306.582 -0.398833 -5.85343 0
M  V30 3282 C 308.934 -0.744935 -6.28199 0
M  V30 3283 C 307.598 -0.991107 -6.60101 0
M  V30 3284 H 306.868 0.286489 -0.683378 0
M  V30 3285 H 309.515 0.0439808 -1.91449 0
M  V30 3286 H 307.82 2.34599 -3.138 0
M  V30 3287 H 309.517 2.08218 -3.42705 0
M  V30 3288 H 306.107 0.872357 -4.19628 0
M  V30 3289 H 310.291 0.252847 -4.95655 0
M  V30 3290 H 305.547 -0.598405 -6.08465 0
M  V30 3291 H 309.721 -1.21271 -6.8576 0
M  V30 3292 H 307.348 -1.64437 -7.42202 0
M  V30 3293 N 308.923 1.53595 0.353017 0
M  V30 3294 C 309.853 1.83902 1.43883 0
M  V30 3295 C 310.834 0.693421 1.55324 0
M  V30 3296 O 312.019 0.944452 1.69687 0
M  V30 3297 C 309.149 2.04016 2.8106 0
M  V30 3298 C 308.103 3.19814 2.84434 0
M  V30 3299 C 307.429 3.25244 4.24406 0
M  V30 3300 C 308.729 4.58133 2.50822 0
M  V30 3301 H 310.423 2.74835 1.1877 0
M  V30 3302 H 307.969 1.32242 0.569917 0
M  V30 3303 H 309.922 2.238 3.57059 0
M  V30 3304 H 308.646 1.09804 3.07588 0
M  V30 3305 H 307.305 2.9987 2.10887 0
M  V30 3306 H 306.953 2.28646 4.48029 0
M  V30 3307 H 306.653 4.03054 4.27576 0
M  V30 3308 H 308.177 3.47228 5.0226 0
M  V30 3309 H 309.591 4.77995 3.16534 0
M  V30 3310 H 307.988 5.38276 2.6529 0
M  V30 3311 H 309.058 4.62387 1.46034 0
M  V30 3312 N 310.401 -0.613514 1.45168 0
M  V30 3313 C 311.331 -1.7354 1.56225 0
M  V30 3314 C 312.312 -1.64981 0.41414 0
M  V30 3315 O 313.497 -1.83472 0.636526 0
M  V30 3316 C 310.627 -3.12128 1.52295 0
M  V30 3317 C 309.581 -3.35491 2.65762 0
M  V30 3318 C 308.907 -4.74291 2.46885 0
M  V30 3319 C 310.207 -3.26325 4.0781 0
M  V30 3320 H 311.901 -1.64543 2.50132 0
M  V30 3321 H 309.447 -0.790185 1.20383 0
M  V30 3322 H 311.4 -3.90404 1.58628 0
M  V30 3323 H 310.124 -3.2195 0.549139 0
M  V30 3324 H 308.783 -2.59603 2.58847 0
M  V30 3325 H 308.431 -4.80839 1.47657 0
M  V30 3326 H 308.131 -4.9088 3.22972 0
M  V30 3327 H 309.655 -5.54775 2.55063 0
M  V30 3328 H 311.069 -3.94483 4.16 0
M  V30 3329 H 309.466 -3.54445 4.8424 0
M  V30 3330 H 310.536 -2.23855 4.30136 0
M  V30 3331 N 311.879 -1.3236 -0.855495 0
M  V30 3332 C 312.842 -1.21164 -1.94556 0
M  V30 3333 C 313.842 -0.134908 -1.60233 0
M  V30 3334 O 315.032 -0.385249 -1.69887 0
M  V30 3335 C 312.164 -0.863192 -3.29791 0
M  V30 3336 H 313.357 -2.18038 -2.05911 0
M  V30 3337 H 310.91 -1.16179 -1.04557 0
M  V30 3338 H 311.645 0.103769 -3.24134 0
M  V30 3339 H 311.43 -1.64166 -3.56078 0
M  V30 3340 H 312.92 -0.809156 -4.09686 0
M  V30 3341 N 313.357 1.07166 -1.15556 0
M  V30 3342 C 314.773 1.31899 -0.898603 0
M  V30 3343 C 314.973 1.96333 0.453383 0
M  V30 3344 O 314.029 2.22438 1.19489 0
M  V30 3345 C 315.342 2.20826 -2.04099 0
M  V30 3346 C 316.89 2.34269 -2.07574 0
M  V30 3347 C 317.365 3.26546 -3.21141 0
M  V30 3348 N 318.856 3.34127 -3.20801 0
M  V30 3349 C 319.591 4.05595 -4.05315 0
M  V30 3350 N 319.087 4.79661 -4.99897 0
M  V30 3351 N 320.88 4.01555 -3.93332 0
M  V30 3352 H 313.031 0.637302 -2.02613 0
M  V30 3353 H 315.294 0.343468 -0.883591 0
M  V30 3354 H 315 1.80744 -3.01703 0
M  V30 3355 H 314.874 3.21364 -1.97496 0
M  V30 3356 H 317.261 2.73603 -1.10568 0
M  V30 3357 H 317.342 1.33429 -2.18244 0
M  V30 3358 H 316.986 2.87931 -4.184 0
M  V30 3359 H 316.916 4.27345 -3.07708 0
M  V30 3360 H 319.407 2.81336 -2.52306 0
M  V30 3361 H 319.72 5.31694 -5.60822 0
M  V30 3362 H 318.065 4.78671 -5.03884 0
M  V30 3363 H 321.256 3.42806 -3.18751 0
M  V30 3364 H 321.429 4.56987 -4.5942 0
M  V30 3365 N 314.835 0.952656 1.25548 0
M  V30 3366 C 316.063 0.623496 1.97282 0
M  V30 3367 C 316.478 -0.803987 1.70826 0
M  V30 3368 O 315.835 -1.53755 0.983147 0
M  V30 3369 C 315.886 0.870209 3.5087 0
M  V30 3370 O 315.607 2.24156 3.76412 0
M  V30 3371 C 317.108 0.553164 4.39835 0
M  V30 3372 H 314.328 0.233931 0.628902 0
M  V30 3373 H 316.872 1.27649 1.59768 0
M  V30 3374 H 315.027 0.263652 3.86502 0
M  V30 3375 H 315.441 2.31021 4.70882 0
M  V30 3376 H 316.915 0.776342 5.46513 0
M  V30 3377 H 317.392 -0.512215 4.36203 0
M  V30 3378 H 317.998 1.13896 4.09766 0
M  V30 3379 N 316.313 -1.40141 0.720998 0
M  V30 3380 C 317.263 -2.27949 0.0482544 0
M  V30 3381 C 318.247 -1.43538 -0.727021 0
M  V30 3382 O 319.439 -1.6658 -0.598332 0
M  V30 3383 C 316.568 -3.32126 -0.868729 0
M  V30 3384 C 315.654 -4.24008 -0.0883515 0
M  V30 3385 N 316.045 -4.97154 0.931226 0
M  V30 3386 C 314.343 -4.4485 -0.320105 0
M  V30 3387 C 315.044 -5.64587 1.4006 0
M  V30 3388 N 314.02 -5.38787 0.721752 0
M  V30 3389 H 317.822 -2.81948 0.829609 0
M  V30 3390 H 315.336 -1.52656 0.554067 0
M  V30 3391 H 317.333 -3.93884 -1.36605 0
M  V30 3392 H 315.993 -2.79687 -1.6494 0
M  V30 3393 H 317.004 -5.01 1.31222 0
M  V30 3394 H 313.681 -4.03378 -1.07668 0
M  V30 3395 H 315.071 -6.33175 2.24808 0
M  V30 3396 N 317.792 -0.46758 -1.50504 0
M  V30 3397 C 319.038 0.0887532 -2.02606 0
M  V30 3398 C 319.371 1.39686 -1.34913 0
M  V30 3399 O 318.646 1.88644 -0.473694 0
M  V30 3400 C 318.929 0.276206 -3.59039 0
M  V30 3401 C 318.782 -1.05267 -4.37309 0
M  V30 3402 C 320.101 1.03235 -4.27821 0
M  V30 3403 H 317.22 0.0307814 -0.736357 0
M  V30 3404 H 319.862 -0.612485 -1.79857 0
M  V30 3405 H 318.012 0.8735 -3.78553 0
M  V30 3406 H 319.684 -1.68628 -4.29374 0
M  V30 3407 H 317.927 -1.65015 -4.01189 0
M  V30 3408 H 318.598 -0.875197 -5.45018 0
M  V30 3409 H 321.074 0.526111 -4.12761 0
M  V30 3410 H 319.95 1.1323 -5.37094 0
M  V30 3411 H 320.211 2.06806 -3.90748 0
M  V30 3412 N 319.27 1.56325 -0.20005 0
M  V30 3413 C 320.217 2.1932 0.718833 0
M  V30 3414 C 321.187 1.14198 1.20615 0
M  V30 3415 O 322.372 1.42469 1.26914 0
M  V30 3416 C 319.512 2.86041 1.93066 0
M  V30 3417 C 318.625 4.05702 1.48425 0
M  V30 3418 C 317.76 4.60266 2.65196 0
M  V30 3419 C 316.799 5.72273 2.17185 0
M  V30 3420 N 315.936 6.21221 3.27152 0
M  V30 3421 H 320.776 2.97486 0.17489 0
M  V30 3422 H 318.313 1.46911 0.0745794 0
M  V30 3423 H 320.271 3.22897 2.64184 0
M  V30 3424 H 318.901 2.1043 2.44783 0
M  V30 3425 H 317.953 3.74475 0.668755 0
M  V30 3426 H 319.265 4.86699 1.09204 0
M  V30 3427 H 318.419 4.99453 3.4443 0
M  V30 3428 H 317.158 3.78386 3.07693 0
M  V30 3429 H 316.163 5.3261 1.36407 0
M  V30 3430 H 317.388 6.55974 1.75713 0
M  V30 3431 H 315.334 5.42263 3.69171 0
M  V30 3432 H 315.251 6.97284 2.92116 0
M  V30 3433 H 316.519 6.65063 4.06585 0
M  V30 3434 N 320.748 -0.0735177 1.57428 0
M  V30 3435 C 322.164 -0.428264 1.53747 0
M  V30 3436 C 322.364 -1.79272 0.91998 0
M  V30 3437 O 321.42 -2.47051 0.521745 0
M  V30 3438 C 322.733 -0.370914 2.98404 0
M  V30 3439 C 324.281 -0.451224 3.0973 0
M  V30 3440 C 324.756 -0.4238 4.56035 0
M  V30 3441 N 326.247 -0.483925 4.60665 0
M  V30 3442 C 326.982 -0.484891 5.71346 0
M  V30 3443 N 326.478 -0.440775 6.91396 0
M  V30 3444 N 328.271 -0.531319 5.59583 0
M  V30 3445 H 320.422 0.819949 1.95935 0
M  V30 3446 H 322.685 0.307493 0.896745 0
M  V30 3447 H 322.391 0.564956 3.47133 0
M  V30 3448 H 322.265 -1.18176 3.5821 0
M  V30 3449 H 324.652 -1.37752 2.60976 0
M  V30 3450 H 324.733 0.388167 2.52838 0
M  V30 3451 H 324.377 0.498638 5.05446 0
M  V30 3452 H 324.307 -1.2807 5.10789 0
M  V30 3453 H 326.798 -0.522338 3.74273 0
M  V30 3454 H 327.111 -0.44539 7.71515 0
M  V30 3455 H 325.456 -0.40749 6.93804 0
M  V30 3456 H 328.647 -0.563464 4.64696 0
M  V30 3457 H 328.82 -0.528603 6.4584 0
M  V30 3458 N 322.226 -1.5378 -0.344866 0
M  V30 3459 C 323.475 -1.7018 -1.08267 0
M  V30 3460 C 323.788 -0.471 -1.89845 0
M  V30 3461 O 324.994 -0.515917 -2.66553 0
M  V30 3462 C 323.45 -3.00923 -1.97417 0
M  V30 3463 C 323.058 -4.31335 -1.21053 0
M  V30 3464 C 324.802 -3.26688 -2.71063 0
M  V30 3465 C 322.709 -5.53153 -2.09225 0
M  V30 3466 H 321.639 -0.634138 -0.407903 0
M  V30 3467 H 324.29 -1.8028 -0.342246 0
M  V30 3468 H 322.672 -2.84676 -2.75274 0
M  V30 3469 H 323.846 -4.58281 -0.481159 0
M  V30 3470 H 322.161 -4.12173 -0.591813 0
M  V30 3471 H 324.758 -4.1489 -3.37299 0
M  V30 3472 H 325.101 -2.43639 -3.37558 0
M  V30 3473 H 325.634 -3.43705 -2.0028 0
M  V30 3474 H 322.373 -6.38741 -1.47274 0
M  V30 3475 H 321.893 -5.30458 -2.79955 0
M  V30 3476 H 323.572 -5.88744 -2.68308 0
M  V30 3477 N 323.704 0.605807 -1.45491 0
M  V30 3478 C 324.667 1.69836 -1.5391 0
M  V30 3479 C 325.667 1.55261 -0.418424 0
M  V30 3480 O 326.857 1.60296 -0.681965 0
M  V30 3481 C 323.989 3.09117 -1.43734 0
M  V30 3482 H 325.182 1.63738 -2.51257 0
M  V30 3483 H 322.735 0.821689 -1.32959 0
M  V30 3484 H 323.47 3.20791 -0.475788 0
M  V30 3485 H 323.255 3.21104 -2.25021 0
M  V30 3486 H 324.745 3.88696 -1.52661 0
M  V30 3487 N 325.182 1.32811 0.848464 0
M  V30 3488 C 326.145 1.22194 1.9391 0
M  V30 3489 C 327.145 0.143404 1.60159 0
M  V30 3490 O 328.335 0.394253 1.6968 0
M  V30 3491 C 325.467 0.88067 3.29328 0
M  V30 3492 H 326.66 2.19127 2.04752 0
M  V30 3493 H 324.213 1.16731 1.0394 0
M  V30 3494 H 324.948 -0.0865776 3.24184 0
M  V30 3495 H 324.733 1.66052 3.55203 0
M  V30 3496 H 326.223 0.830871 4.09251 0
M  V30 3497 N 326.66 -1.06551 1.16123 0
M  V30 3498 C 327.59 -2.15935 0.88851 0
M  V30 3499 C 328.571 -1.69306 -0.164135 0
M  V30 3500 O 329.756 -1.94193 -0.0167857 0
M  V30 3501 C 326.886 -3.45149 0.385942 0
M  V30 3502 C 325.84 -4.05271 1.3762 0
M  V30 3503 C 325.166 -5.29664 0.732137 0
M  V30 3504 C 326.466 -4.44355 2.74493 0
M  V30 3505 H 328.16 -2.39006 1.80323 0
M  V30 3506 H 325.706 -1.14866 0.868435 0
M  V30 3507 H 327.659 -4.21004 0.182647 0
M  V30 3508 H 326.383 -3.21689 -0.564274 0
M  V30 3509 H 325.042 -3.3147 1.56599 0
M  V30 3510 H 324.69 -5.02499 -0.224483 0
M  V30 3511 H 324.39 -5.70848 1.39307 0
M  V30 3512 H 325.914 -6.08218 0.538802 0
M  V30 3513 H 327.328 -5.11303 2.59311 0
M  V30 3514 H 325.725 -4.96515 3.37035 0
M  V30 3515 H 326.795 -3.55339 3.29943 0
M  V30 3516 N 328.138 -0.959301 -1.25041 0
M  V30 3517 C 329.549 -0.65667 -1.74771 0
M  V30 3518 C 329.9 0.827852 -1.77879 0
M  V30 3519 O 329.025 1.64783 -1.40269 0
M  V30 3520 C 329.62 -1.1853 -3.1739 0
M  V30 3521 C 328.179 -0.932734 -3.6466 0
M  V30 3522 C 327.326 -1.32558 -2.43564 0
M  V30 3523 H 330.277 -1.13558 -1.10862 0
M  V30 3524 H 330.298 -0.547582 -3.76539 0
M  V30 3525 H 329.81 -2.26576 -3.15095 0
M  V30 3526 H 327.911 0.13257 -3.72364 0
M  V30 3527 H 328.024 -1.57248 -4.52559 0
M  V30 3528 H 326.388 -0.743956 -2.43593 0
M  V30 3529 H 327.171 -2.41537 -2.43957 0
M  V30 3530 N 329.616 1.39756 -0.72842 0
M  V30 3531 C 330.864 2.00248 -0.272946 0
M  V30 3532 C 331.185 1.58077 1.14178 0
M  V30 3533 O 330.455 0.826014 1.77634 0
M  V30 3534 H 329.035 0.740554 -0.0979247 0
M  V30 3535 H 331.697 1.70903 -0.936912 0
M  V30 3536 H 330.793 3.10495 -0.316142 0
M  V30 3537 N 331.094 0.475555 1.50254 0
M  V30 3538 C 332.057 -0.305016 2.27161 0
M  V30 3539 C 333.057 -0.916519 1.32123 0
M  V30 3540 O 334.247 -0.785003 1.5551 0
M  V30 3541 C 331.379 -1.43496 3.09227 0
M  V30 3542 H 332.572 0.369511 2.97615 0
M  V30 3543 H 330.125 0.229747 1.54602 0
M  V30 3544 H 330.86 -2.14441 2.43281 0
M  V30 3545 H 330.645 -1.00223 3.79075 0
M  V30 3546 H 332.135 -1.98548 3.67381 0
M  V30 3547 N 332.573 -1.56217 0.208337 0
M  V30 3548 C 333.798 -2.02782 -0.435222 0
M  V30 3549 C 334.223 -1.08738 -1.53485 0
M  V30 3550 O 333.581 -0.0731855 -1.81152 0
M  V30 3551 C 333.629 -3.47687 -0.956335 0
M  V30 3552 O 332.733 -3.56773 -2.06849 0
M  V30 3553 H 332.074 -0.656403 -0.100158 0
M  V30 3554 H 334.604 -2.02033 0.3231 0
M  V30 3555 H 334.614 -3.87745 -1.26955 0
M  V30 3556 H 333.289 -4.15624 -0.15143 0
M  V30 3557 H 331.866 -3.28597 -1.76292 0
M  V30 3558 N 334.051 0.0651679 -1.57465 0
M  V30 3559 C 335.276 0.779605 -1.9219 0
M  V30 3560 C 335.701 1.69988 -0.805333 0
M  V30 3561 O 335.059 1.79685 0.241435 0
M  V30 3562 C 335.107 1.54364 -3.2589 0
M  V30 3563 O 334.211 2.65474 -3.1559 0
M  V30 3564 H 333.552 0.212249 -0.629163 0
M  V30 3565 H 336.082 0.0314294 -2.04576 0
M  V30 3566 H 336.092 1.92146 -3.59922 0
M  V30 3567 H 334.767 0.868457 -4.06732 0
M  V30 3568 H 333.344 2.30501 -2.93128 0
M  V30 3569 N 335.529 1.53961 0.336706 0
M  V30 3570 C 336.492 1.81724 1.39675 0
M  V30 3571 C 337.492 0.688532 1.45313 0
M  V30 3572 O 338.682 0.956829 1.45569 0
M  V30 3573 C 335.814 1.96543 2.78538 0
M  V30 3574 H 337.007 2.76424 1.16318 0
M  V30 3575 H 334.56 1.45478 0.571474 0
M  V30 3576 H 335.295 1.0401 3.07168 0
M  V30 3577 H 335.08 2.78665 2.75841 0
M  V30 3578 H 336.57 2.19516 3.5525 0
M  V30 3579 N 337.007 -0.598083 1.45811 0
M  V30 3580 C 338.423 -0.919847 1.30426 0
M  V30 3581 C 338.623 -1.99759 0.264303 0
M  V30 3582 O 337.679 -2.50221 -0.338472 0
M  V30 3583 C 338.992 -1.35176 2.68603 0
M  V30 3584 C 340.54 -1.46546 2.76574 0
M  V30 3585 C 341.015 -1.9311 4.15298 0
M  V30 3586 N 342.506 -2.00328 4.1764 0
M  V30 3587 C 343.241 -2.37599 5.21856 0
M  V30 3588 N 342.737 -2.73771 6.36413 0
M  V30 3589 N 344.53 -2.38021 5.09218 0
M  V30 3590 H 336.681 0.114111 2.12093 0
M  V30 3591 H 338.944 -0.0116121 0.947929 0
M  V30 3592 H 338.65 -0.633969 3.45939 0
M  V30 3593 H 338.524 -2.3164 2.97696 0
M  V30 3594 H 340.911 -2.17415 1.99537 0
M  V30 3595 H 340.992 -0.483727 2.51185 0
M  V30 3596 H 340.636 -1.22824 4.92825 0
M  V30 3597 H 340.566 -2.92213 4.38086 0
M  V30 3598 H 343.057 -1.74925 3.34977 0
M  V30 3599 H 343.37 -3.0112 7.11721 0
M  V30 3600 H 341.715 -2.71445 6.39799 0
M  V30 3601 H 344.906 -2.09174 4.18765 0
M  V30 3602 H 345.079 -2.66741 5.90554 0
M  V30 3603 N 338.485 -1.33259 -0.841409 0
M  V30 3604 C 339.417 -1.19136 -1.95804 0
M  V30 3605 C 340.43 -0.122965 -1.62335 0
M  V30 3606 O 341.619 -0.373154 -1.74556 0
M  V30 3607 C 338.719 -0.804268 -3.29218 0
M  V30 3608 C 337.892 -1.96376 -3.90839 0
M  V30 3609 C 336.951 -1.55806 -5.02604 0
M  V30 3610 O 335.977 -2.27203 -5.21888 0
M  V30 3611 N 337.179 -0.461609 -5.78662 0
M  V30 3612 H 339.944 -2.15326 -2.08458 0
M  V30 3613 H 337.505 -1.25971 -1.017 0
M  V30 3614 H 339.497 -0.51501 -4.0141 0
M  V30 3615 H 338.067 0.0668809 -3.12528 0
M  V30 3616 H 337.287 -2.41879 -3.11269 0
M  V30 3617 H 338.575 -2.73966 -4.28742 0
M  V30 3618 H 337.973 0.132343 -5.65545 0
M  V30 3619 H 336.53 -0.232013 -6.51387 0
M  V30 3620 N 339.963 1.05934 -1.16686 0
M  V30 3621 C 341.379 1.30938 -0.912542 0
M  V30 3622 C 341.579 1.96803 0.432533 0
M  V30 3623 O 340.635 2.23693 1.17123 0
M  V30 3624 C 341.948 2.18649 -2.06429 0
M  V30 3625 C 343.496 2.32055 -2.10047 0
M  V30 3626 C 343.971 3.23122 -3.24586 0
M  V30 3627 N 345.462 3.30706 -3.24327 0
M  V30 3628 C 346.197 4.01273 -4.09594 0
M  V30 3629 N 345.693 4.74332 -5.04956 0
M  V30 3630 N 347.486 3.97361 -3.97569 0
M  V30 3631 H 339.637 0.615777 -2.03278 0
M  V30 3632 H 341.9 0.334077 -0.887185 0
M  V30 3633 H 341.606 1.77534 -3.03603 0
M  V30 3634 H 341.48 3.19252 -2.00894 0
M  V30 3635 H 343.867 2.72415 -1.13464 0
M  V30 3636 H 343.948 1.31107 -2.19647 0
M  V30 3637 H 343.592 2.83477 -4.2143 0
M  V30 3638 H 343.522 4.24057 -3.12223 0
M  V30 3639 H 346.013 2.78644 -2.55276 0
M  V30 3640 H 346.326 5.25716 -5.6643 0
M  V30 3641 H 344.671 4.733 -5.08933 0
M  V30 3642 H 347.862 3.39405 -3.22369 0
M  V30 3643 H 348.035 4.52089 -4.64241 0
M  V30 3644 N 341.441 0.965919 1.2453 0
M  V30 3645 C 342.669 0.644385 1.96609 0
M  V30 3646 C 343.084 -0.785823 1.71669 0
M  V30 3647 O 342.441 -1.52703 0.999399 0
M  V30 3648 C 342.492 0.907375 3.49927 0
M  V30 3649 O 342.213 2.28136 3.74013 0
M  V30 3650 C 343.714 0.599784 4.39224 0
M  V30 3651 H 340.934 0.240588 0.626385 0
M  V30 3652 H 343.478 1.29337 1.58405 0
M  V30 3653 H 341.633 0.304631 3.862 0
M  V30 3654 H 342.047 2.36002 4.68405 0
M  V30 3655 H 343.521 0.834263 5.45659 0
M  V30 3656 H 343.998 -0.465921 4.36722 0
M  V30 3657 H 344.604 1.18235 4.08535 0
M  V30 3658 N 342.919 -1.39368 0.735821 0
M  V30 3659 C 344.144 -2.05319 0.293052 0
M  V30 3660 C 344.569 -1.55115 -1.064 0
M  V30 3661 O 343.927 -0.695261 -1.67439 0
M  V30 3662 C 343.975 -3.59305 0.305323 0
M  V30 3663 O 343.079 -4.06299 -0.706761 0
M  V30 3664 H 342.42 -0.650529 0.13307 0
M  V30 3665 H 344.95 -1.78386 1.00197 0
M  V30 3666 H 344.96 -4.07724 0.149997 0
M  V30 3667 H 343.635 -3.95207 1.29553 0
M  V30 3668 H 342.212 -3.69292 -0.517504 0
M  V30 3669 N 344.397 -0.483516 -1.5 0
M  V30 3670 C 345.33 0.350427 -2.25493 0
M  V30 3671 C 346.308 0.985549 -1.29328 0
M  V30 3672 O 347.492 1.01906 -1.58579 0
M  V30 3673 C 344.619 1.49202 -3.04066 0
M  V30 3674 C 343.665 0.973036 -4.15252 0
M  V30 3675 S 344.498 -0.122237 -5.3536 0
M  V30 3676 C 345.654 1.02294 -6.17484 0
M  V30 3677 H 345.887 -0.290381 -2.95878 0
M  V30 3678 H 343.42 -0.268562 -1.52046 0
M  V30 3679 H 345.378 2.14623 -3.49925 0
M  V30 3680 H 344.039 2.10438 -2.33183 0
M  V30 3681 H 343.232 1.82804 -4.69679 0
M  V30 3682 H 342.834 0.396335 -3.71894 0
M  V30 3683 H 345.126 1.93195 -6.49371 0
M  V30 3684 H 346.069 0.517664 -7.06205 0
M  V30 3685 H 346.477 1.28238 -5.49741 0
M  V30 3686 N 345.875 1.56104 -0.216619 0
M  V30 3687 C 346.807 2.17339 0.72776 0
M  V30 3688 C 347.82 1.14109 1.16116 0
M  V30 3689 O 349.009 1.4111 1.09317 0
M  V30 3690 C 346.109 2.73818 1.99693 0
M  V30 3691 C 345.282 4.02168 1.71988 0
M  V30 3692 C 344.341 4.43259 2.83562 0
M  V30 3693 O 343.367 5.10257 2.52244 0
M  V30 3694 N 344.569 4.08535 4.12407 0
M  V30 3695 H 347.334 2.99005 0.203983 0
M  V30 3696 H 344.895 1.61861 -0.0354289 0
M  V30 3697 H 346.887 2.9828 2.73516 0
M  V30 3698 H 345.457 1.96483 2.43132 0
M  V30 3699 H 344.677 3.85612 0.818337 0
M  V30 3700 H 345.965 4.85907 1.50903 0
M  V30 3701 H 345.363 3.54687 4.40696 0
M  V30 3702 H 343.92 4.37901 4.8279 0
M  V30 3703 N 347.353 -0.0568162 1.57498 0
M  V30 3704 C 348.601 -0.751617 1.87604 0
M  V30 3705 C 348.922 -1.77351 0.81066 0
M  V30 3706 O 348.192 -1.95254 -0.159018 0
M  V30 3707 H 346.772 -0.280583 0.692302 0
M  V30 3708 H 349.434 -0.0293483 1.94878 0
M  V30 3709 H 348.53 -1.25852 2.856 0
M  V30 3710 N 348.832 -1.54138 -0.328536 0
M  V30 3711 C 349.795 -1.82462 -1.38709 0
M  V30 3712 C 350.795 -0.696229 -1.44946 0
M  V30 3713 O 351.985 -0.964535 -1.4506 0
M  V30 3714 C 349.117 -1.98018 -2.77492 0
M  V30 3715 H 350.31 -2.77037 -1.14851 0
M  V30 3716 H 347.863 -1.45779 -0.563751 0
M  V30 3717 H 348.598 -1.05637 -3.06613 0
M  V30 3718 H 348.383 -2.80124 -2.74359 0
M  V30 3719 H 349.873 -2.21396 -3.54081 0
M  V30 3720 N 350.31 0.590341 -1.46126 0
M  V30 3721 C 351.556 1.35082 -1.51264 0
M  V30 3722 C 351.889 1.93534 -0.160711 0
M  V30 3723 O 351.164 1.76045 0.826956 0
M  V30 3724 C 351.447 2.48588 -2.6053 0
M  V30 3725 C 351.3 1.95221 -4.05227 0
M  V30 3726 C 352.619 3.50662 -2.6594 0
M  V30 3727 H 349.738 0.489803 -0.550692 0
M  V30 3728 H 352.38 0.663887 -1.78024 0
M  V30 3729 H 350.53 3.07186 -2.37843 0
M  V30 3730 H 352.202 1.41139 -4.39178 0
M  V30 3731 H 350.445 1.26101 -4.15068 0
M  V30 3732 H 351.116 2.77121 -4.77397 0
M  V30 3733 H 353.592 3.01934 -2.86313 0
M  V30 3734 H 352.468 4.27551 -3.44226 0
M  V30 3735 H 352.729 4.07399 -1.71694 0
M  V30 3736 N 351.788 1.33704 0.83433 0
M  V30 3737 C 353.016 1.28467 1.62185 0
M  V30 3738 C 353.431 -0.143526 1.88254 0
M  V30 3739 O 352.788 -1.08709 1.4659 0
M  V30 3740 C 352.839 2.06174 2.96942 0
M  V30 3741 O 352.56 3.43422 2.72016 0
M  V30 3742 C 354.061 2.08201 3.91366 0
M  V30 3743 H 351.281 0.4424 0.504503 0
M  V30 3744 H 353.825 1.76145 1.03891 0
M  V30 3745 H 351.98 1.62167 3.51825 0
M  V30 3746 H 352.394 3.83453 3.57861 0
M  V30 3747 H 353.868 2.67017 4.83121 0
M  V30 3748 H 354.345 1.07343 4.2588 0
M  V30 3749 H 354.951 2.52246 3.42421 0
M  V30 3750 N 353.266 -1.05314 1.17247 0
M  V30 3751 C 354.512 -1.78557 0.961513 0
M  V30 3752 C 354.845 -1.87419 -0.508697 0
M  V30 3753 O 354.12 -1.37307 -1.37757 0
M  V30 3754 C 354.403 -3.22514 1.60176 0
M  V30 3755 C 354.256 -3.21673 3.14399 0
M  V30 3756 C 355.575 -4.20318 1.30463 0
M  V30 3757 H 352.694 -0.6482 0.350723 0
M  V30 3758 H 355.336 -1.23102 1.44727 0
M  V30 3759 H 353.486 -3.69867 1.18871 0
M  V30 3760 H 355.158 -2.82405 3.64753 0
M  V30 3761 H 353.401 -2.60048 3.47214 0
M  V30 3762 H 354.072 -4.23271 3.54324 0
M  V30 3763 H 356.548 -3.81454 1.66229 0
M  V30 3764 H 355.424 -5.19289 1.77848 0
M  V30 3765 H 355.685 -4.41526 0.22521 0
M  V30 3766 N 354.744 -0.972509 -1.24016 0
M  V30 3767 C 355.972 -0.654803 -1.96265 0
M  V30 3768 C 356.387 0.776708 -1.72083 0
M  V30 3769 O 355.744 1.52171 -1.00748 0
M  V30 3770 C 355.795 -0.92592 -3.49441 0
M  V30 3771 O 355.516 -2.30116 -3.72798 0
M  V30 3772 C 357.017 -0.623068 -4.38899 0
M  V30 3773 H 354.237 -0.243907 -0.6251 0
M  V30 3774 H 356.781 -1.30175 -1.57717 0
M  V30 3775 H 354.936 -0.325108 -3.86033 0
M  V30 3776 H 355.35 -2.38483 -4.67147 0
M  V30 3777 H 356.824 -0.863189 -5.45209 0
M  V30 3778 H 357.301 0.442754 -4.36963 0
M  V30 3779 H 357.907 -1.204 -4.07902 0
M  V30 3780 N 356.222 1.38976 -0.743202 0
M  V30 3781 C 357.155 2.28128 -0.0572165 0
M  V30 3782 C 358.133 1.44827 0.739182 0
M  V30 3783 O 359.317 1.74207 0.720009 0
M  V30 3784 C 356.444 3.25796 0.926001 0
M  V30 3785 C 355.49 4.25947 0.217099 0
M  V30 3786 S 356.323 5.24604 -1.07477 0
M  V30 3787 C 357.479 6.25829 -0.0943545 0
M  V30 3788 H 357.712 2.85961 -0.813246 0
M  V30 3789 H 355.245 1.44822 -0.535341 0
M  V30 3790 H 357.203 3.82583 1.48797 0
M  V30 3791 H 355.864 2.66966 1.65493 0
M  V30 3792 H 355.057 4.94746 0.961372 0
M  V30 3793 H 354.659 3.73002 -0.273059 0
M  V30 3794 H 356.951 6.73411 0.743239 0
M  V30 3795 H 357.894 7.0412 -0.749713 0
M  V30 3796 H 358.302 5.63797 0.281706 0
M  V30 3797 N 357.7 0.491464 1.49741 0
M  V30 3798 C 358.63 -0.28154 2.31796 0
M  V30 3799 C 359.611 -0.971473 1.3963 0
M  V30 3800 O 360.796 -0.964719 1.68543 0
M  V30 3801 C 357.926 -1.35203 3.19902 0
M  V30 3802 C 356.88 -0.782529 4.20786 0
M  V30 3803 C 356.206 -1.95283 4.97764 0
M  V30 3804 C 357.506 0.21999 5.21837 0
M  V30 3805 H 359.2 0.403355 2.96671 0
M  V30 3806 H 356.746 0.195425 1.42668 0
M  V30 3807 H 358.699 -1.90045 3.76113 0
M  V30 3808 H 357.423 -2.06598 2.52953 0
M  V30 3809 H 356.082 -0.255928 3.65706 0
M  V30 3810 H 355.73 -2.65423 4.2727 0
M  V30 3811 H 355.43 -1.57789 5.66018 0
M  V30 3812 H 356.954 -2.50577 5.56816 0
M  V30 3813 H 358.368 -0.23996 5.72798 0
M  V30 3814 H 356.765 0.51026 5.97927 0
M  V30 3815 H 357.835 1.13911 4.7133 0
M  V30 3816 N 359.178 -1.55987 0.224894 0
M  V30 3817 C 360.108 -2.23426 -0.678457 0
M  V30 3818 C 361.089 -1.20709 -1.19847 0
M  V30 3819 O 362.274 -1.49304 -1.24186 0
M  V30 3820 C 359.404 -2.91676 -1.88527 0
M  V30 3821 C 358.358 -4.00893 -1.49896 0
M  V30 3822 C 357.684 -4.56455 -2.78483 0
M  V30 3823 C 358.984 -5.17769 -0.686461 0
M  V30 3824 H 360.678 -2.99175 -0.116173 0
M  V30 3825 H 358.224 -1.43897 -0.054436 0
M  V30 3826 H 360.177 -3.37547 -2.5227 0
M  V30 3827 H 358.901 -2.1338 -2.47258 0
M  V30 3828 H 357.56 -3.55758 -0.884985 0
M  V30 3829 H 357.208 -3.74886 -3.35365 0
M  V30 3830 H 356.908 -5.30169 -2.53368 0
M  V30 3831 H 358.432 -5.05047 -3.43162 0
M  V30 3832 H 359.846 -5.60001 -1.22767 0
M  V30 3833 H 358.243 -5.97735 -0.532259 0
M  V30 3834 H 359.313 -4.83932 0.306196 0
M  V30 3835 N 360.656 0.0484629 -1.57525 0
M  V30 3836 C 361.904 0.741657 -1.88 0
M  V30 3837 C 362.225 1.76918 -0.820054 0
M  V30 3838 O 361.495 1.95335 0.148661 0
M  V30 3839 H 360.075 0.276908 -0.69378 0
M  V30 3840 H 362.737 0.019013 -1.94891 0
M  V30 3841 H 361.833 1.24336 -2.86264 0
M  V30 3842 N 362.134 1.5431 0.320358 0
M  V30 3843 C 363.38 1.72924 1.05949 0
M  V30 3844 C 363.713 0.503185 1.87568 0
M  V30 3845 O 362.988 -0.499839 1.87968 0
M  V30 3846 C 363.271 3.00676 1.98156 0
M  V30 3847 C 363.124 4.3354 1.19845 0
M  V30 3848 C 364.443 3.24198 2.9763 0
M  V30 3849 H 361.562 0.629195 0.383774 0
M  V30 3850 H 364.204 1.87008 0.335854 0
M  V30 3851 H 362.354 2.888 2.59859 0
M  V30 3852 H 364.026 4.57305 0.605773 0
M  V30 3853 H 362.269 4.309 0.500784 0
M  V30 3854 H 362.94 5.19156 1.87567 0
M  V30 3855 H 365.416 3.35557 2.4605 0
M  V30 3856 H 364.292 4.14938 3.59329 0
M  V30 3857 H 364.553 2.41577 3.7026 0
M  V30 3858 N 363.613 -0.582584 1.46437 0
M  V30 3859 C 364.86 -1.34079 1.51753 0
M  V30 3860 C 365.188 -1.93762 0.169299 0
M  V30 3861 O 364.443 -1.76989 -0.835062 0
M  V30 3862 C 364.742 -2.48964 2.56421 0
M  V30 3863 C 364.408 -2.07273 4.00436 0
M  V30 3864 C 363.07 -1.95618 4.39644 0
M  V30 3865 C 365.422 -1.75111 4.90903 0
M  V30 3866 C 362.75 -1.5006 5.67185 0
M  V30 3867 C 365.102 -1.31032 6.18881 0
M  V30 3868 C 363.766 -1.17954 6.56996 0
M  V30 3869 H 363.036 -0.49063 0.555304 0
M  V30 3870 H 365.683 -0.656007 1.79913 0
M  V30 3871 H 363.988 -3.22889 2.21923 0
M  V30 3872 H 365.685 -3.07178 2.57765 0
M  V30 3873 H 362.275 -2.17279 3.69443 0
M  V30 3874 H 366.459 -1.83001 4.61329 0
M  V30 3875 H 361.715 -1.38577 5.95488 0
M  V30 3876 H 365.889 -1.052 6.88408 0
M  V30 3877 H 363.516 -0.824279 7.55718 0
M  V30 3878 N 365.091 -1.34144 -0.827227 0
M  V30 3879 C 366.319 -1.29325 -1.61501 0
M  V30 3880 C 366.734 0.13354 -1.88327 0
M  V30 3881 O 366.091 1.0793 -1.47164 0
M  V30 3882 C 366.142 -2.07746 -2.95844 0
M  V30 3883 O 365.863 -3.4486 -2.70191 0
M  V30 3884 C 367.364 -2.10273 -3.90256 0
M  V30 3885 H 364.584 -0.445069 -0.50215 0
M  V30 3886 H 367.128 -1.76693 -1.02955 0
M  V30 3887 H 365.283 -1.6403 -3.5096 0
M  V30 3888 H 365.697 -3.85345 -3.55822 0
M  V30 3889 H 367.171 -2.69575 -4.81698 0
M  V30 3890 H 367.648 -1.096 -4.25305 0
M  V30 3891 H 368.254 -2.54059 -3.41078 0
M  V30 3892 N 366.569 1.04691 -1.17803 0
M  V30 3893 C 367.815 1.78045 -0.970969 0
M  V30 3894 C 368.148 1.87686 0.498751 0
M  V30 3895 O 367.423 1.38035 1.37027 0
M  V30 3896 C 367.706 3.2166 -1.61884 0
M  V30 3897 C 367.559 3.20001 -3.161 0
M  V30 3898 C 368.878 4.1962 -1.3269 0
M  V30 3899 H 365.997 0.64633 -0.354155 0
M  V30 3900 H 368.639 1.22333 -1.45378 0
M  V30 3901 H 366.789 3.69232 -1.20831 0
M  V30 3902 H 368.461 2.80467 -3.66246 0
M  V30 3903 H 366.704 2.58203 -3.48588 0
M  V30 3904 H 367.375 4.21386 -3.56564 0
M  V30 3905 H 369.851 3.80567 -1.68249 0
M  V30 3906 H 368.727 5.18339 -1.80599 0
M  V30 3907 H 368.988 4.414 -0.248622 0
M  V30 3908 N 368.047 0.979072 1.23499 0
M  V30 3909 C 369.287 0.655228 1.93613 0
M  V30 3910 C 369.651 -0.796336 1.74707 0
M  V30 3911 O 370.852 -1.23094 2.38959 0
M  V30 3912 C 369.123 1.03337 3.42135 0
M  V30 3913 S 370.682 0.825793 4.3096 0
M  V30 3914 H 367.5 0.240004 0.669267 0
M  V30 3915 H 370.102 1.25843 1.49612 0
M  V30 3916 H 368.806 2.08646 3.53405 0
M  V30 3917 H 368.337 0.421397 3.91137 0
M  V30 3918 H 370.352 -0.290991 4.95346 0
M  V30 3919 N 369.525 -1.3858 0.750561 0
M  V30 3920 C 370.771 -2.0095 0.31477 0
M  V30 3921 C 371.126 -1.58509 -1.09053 0
M  V30 3922 O 370.419 -0.8112 -1.7358 0
M  V30 3923 C 370.613 -3.55455 0.372373 0
M  V30 3924 C 370.442 -4.12898 1.78173 0
M  V30 3925 C 369.212 -4.44797 2.39757 0
M  V30 3926 C 371.41 -4.35366 2.7379 0
M  V30 3927 N 369.392 -4.87831 3.72685 0
M  V30 3928 C 370.763 -4.80775 3.91478 0
M  V30 3929 C 372.818 -4.1746 2.71351 0
M  V30 3930 C 371.521 -5.10155 5.07084 0
M  V30 3931 C 373.547 -4.47963 3.86113 0
M  V30 3932 C 372.909 -4.93593 5.02539 0
M  V30 3933 H 369.008 -0.765083 0.161776 0
M  V30 3934 H 371.592 -1.68246 0.979867 0
M  V30 3935 H 369.763 -3.87512 -0.26244 0
M  V30 3936 H 371.495 -4.04614 -0.0834479 0
M  V30 3937 H 368.25 -4.33135 1.91548 0
M  V30 3938 H 368.674 -5.13685 4.40972 0
M  V30 3939 H 373.316 -3.81372 1.82524 0
M  V30 3940 H 371.034 -5.45141 5.96529 0
M  V30 3941 H 374.62 -4.35717 3.85542 0
M  V30 3942 H 373.5 -5.16746 5.89867 0
M  V30 3943 N 371.003 -0.499398 -1.49478 0
M  V30 3944 C 371.966 0.268838 -2.27618 0
M  V30 3945 C 372.966 0.895383 -1.33565 0
M  V30 3946 O 374.156 0.760164 -1.56739 0
M  V30 3947 C 371.288 1.38559 -3.11471 0
M  V30 3948 H 372.481 -0.416812 -2.96989 0
M  V30 3949 H 370.034 -0.254313 -1.54217 0
M  V30 3950 H 370.769 2.10544 -2.46661 0
M  V30 3951 H 370.554 0.941797 -3.80621 0
M  V30 3952 H 372.044 1.92678 -3.70493 0
M  V30 3953 N 372.481 1.55866 -0.233164 0
M  V30 3954 C 373.892 1.847 0.272554 0
M  V30 3955 C 374.243 1.15477 1.58617 0
M  V30 3956 O 373.368 0.42841 2.12117 0
M  V30 3957 C 373.963 3.35071 0.501299 0
M  V30 3958 C 372.522 3.6418 0.951304 0
M  V30 3959 C 371.669 2.77292 0.0208209 0
M  V30 3960 H 374.62 1.52005 -0.456074 0
M  V30 3961 H 374.641 3.55906 1.34577 0
M  V30 3962 H 374.153 3.85424 -0.454936 0
M  V30 3963 H 372.254 3.19293 1.92049 0
M  V30 3964 H 372.367 4.72071 0.817675 0
M  V30 3965 H 370.731 2.49131 0.529723 0
M  V30 3966 H 371.514 3.30448 -0.93054 0
M  V30 3967 N 373.959 -0.0401083 1.57549 0
M  V30 3968 C 375.206 -0.733125 1.88763 0
M  V30 3969 C 375.534 -1.75946 0.829058 0
M  V30 3970 O 374.789 -1.94949 -0.171323 0
M  V30 3971 C 375.088 -1.44902 3.26708 0
M  V30 3972 C 374.754 -0.559707 4.47413 0
M  V30 3973 C 373.416 -0.314731 4.8017 0
M  V30 3974 C 375.768 0.0549743 5.21171 0
M  V30 3975 C 373.096 0.553886 5.8408 0
M  V30 3976 C 375.448 0.911229 6.26003 0
M  V30 3977 C 374.112 1.16577 6.57241 0
M  V30 3978 H 373.382 -0.268269 0.690733 0
M  V30 3979 H 376.029 0.00679408 1.91499 0
M  V30 3980 H 374.334 -2.26197 3.1991 0
M  V30 3981 H 376.031 -1.99058 3.48105 0
M  V30 3982 H 372.621 -0.760793 4.21794 0
M  V30 3983 H 376.805 -0.121344 4.96152 0
M  V30 3984 H 372.061 0.759518 6.06664 0
M  V30 3985 H 376.235 1.3941 6.82303 0
M  V30 3986 H 373.862 1.84058 7.37582 0
M  V30 3987 N 375.437 -1.54477 -0.31217 0
M  V30 3988 C 376.684 -1.73227 -1.04875 0
M  V30 3989 C 377.012 -0.512042 -1.87639 0
M  V30 3990 O 376.267 0.506131 -1.89042 0
M  V30 3991 C 376.566 -2.967 -1.99258 0
M  V30 3992 C 376.232 -4.30974 -1.32559 0
M  V30 3993 C 374.894 -4.67477 -1.141 0
M  V30 3994 C 377.246 -5.14258 -0.847835 0
M  V30 3995 C 374.574 -5.84852 -0.465326 0
M  V30 3996 C 376.926 -6.32327 -0.185931 0
M  V30 3997 C 375.59 -6.67499 0.0107077 0
M  V30 3998 H 374.86 -0.633881 -0.383765 0
M  V30 3999 H 377.507 -1.88727 -0.324731 0
M  V30 4000 H 375.812 -2.75935 -2.7815 0
M  V30 4001 H 377.509 -3.08401 -2.563 0
M  V30 4002 H 374.099 -4.02262 -1.4793 0
M  V30 4003 H 378.283 -4.86565 -0.978192 0
M  V30 4004 H 373.539 -6.10654 -0.301883 0
M  V30 4005 H 377.713 -6.96135 0.192211 0
M  V30 4006 H 375.34 -7.58306 0.536287 0
M  V30 4007 N 376.915 0.57481 -1.46744 0
M  V30 4008 C 377.845 1.69337 -1.60771 0
M  V30 4009 C 378.826 1.63825 -0.457736 0
M  V30 4010 O 380.011 1.8172 -0.684947 0
M  V30 4011 C 377.141 3.0798 -1.60517 0
M  V30 4012 C 376.095 3.28327 -2.74564 0
M  V30 4013 C 375.421 4.67578 -2.59373 0
M  V30 4014 C 376.721 3.15398 -4.16319 0
M  V30 4015 H 378.415 1.57853 -2.54407 0
M  V30 4016 H 375.961 0.75799 -1.22436 0
M  V30 4017 H 377.914 3.86061 -1.68923 0
M  V30 4018 H 376.638 3.20381 -0.634305 0
M  V30 4019 H 375.297 2.52649 -2.65639 0
M  V30 4020 H 374.945 4.76755 -1.60353 0
M  V30 4021 H 374.645 4.82144 -3.35873 0
M  V30 4022 H 376.169 5.47817 -2.69682 0
M  V30 4023 H 377.583 3.83315 -4.26313 0
M  V30 4024 H 375.98 3.41482 -4.93468 0
M  V30 4025 H 377.05 2.12372 -4.3592 0
M  V30 4026 N 378.394 1.34581 0.820102 0
M  V30 4027 C 379.344 1.22943 1.92013 0
M  V30 4028 C 380.328 0.127802 1.60392 0
M  V30 4029 O 381.52 0.357737 1.73347 0
M  V30 4030 C 378.649 0.989938 3.28717 0
M  V30 4031 C 377.735 2.13486 3.66449 0
M  V30 4032 N 378.126 3.38625 3.75722 0
M  V30 4033 C 376.424 2.04573 3.96315 0
M  V30 4034 C 377.125 4.13832 4.08801 0
M  V30 4035 N 376.101 3.42451 4.22171 0
M  V30 4036 H 379.903 2.17771 1.97365 0
M  V30 4037 H 377.417 1.2686 1.01392 0
M  V30 4038 H 379.414 0.887462 4.07345 0
M  V30 4039 H 378.074 0.0503691 3.24661 0
M  V30 4040 H 379.085 3.73143 3.59144 0
M  V30 4041 H 375.762 1.1839 4.00362 0
M  V30 4042 H 377.152 5.21909 4.23156 0
M  V30 4043 N 379.872 -1.04064 1.18357 0
M  V30 4044 C 380.802 -2.14001 0.934113 0
M  V30 4045 C 381.783 -1.69616 -0.128186 0
M  V30 4046 O 382.968 -1.94185 0.0244093 0
M  V30 4047 C 380.098 -3.44253 0.459066 0
M  V30 4048 C 379.052 -4.02261 1.46185 0
M  V30 4049 C 378.378 -5.27992 0.844322 0
M  V30 4050 C 379.678 -4.38432 2.83856 0
M  V30 4051 H 381.372 -2.35127 1.85352 0
M  V30 4052 H 378.918 -1.12998 0.892604 0
M  V30 4053 H 380.871 -4.20522 0.271907 0
M  V30 4054 H 379.595 -3.22813 -0.495912 0
M  V30 4055 H 378.254 -3.28074 1.63595 0
M  V30 4056 H 377.902 -5.02862 -0.117845 0
M  V30 4057 H 377.602 -5.67765 1.51384 0
M  V30 4058 H 379.126 -6.06938 0.667693 0
M  V30 4059 H 380.54 -5.05688 2.70098 0
M  V30 4060 H 378.937 -4.89254 3.47491 0
M  V30 4061 H 380.007 -3.4826 3.37406 0
M  V30 4062 N 381.35 -0.985608 -1.22978 0
M  V30 4063 C 382.578 -0.675582 -1.95559 0
M  V30 4064 C 382.993 0.758413 -1.72897 0
M  V30 4065 O 382.35 1.51094 -1.02357 0
M  V30 4066 C 382.401 -0.96293 -3.48439 0
M  V30 4067 O 382.122 -2.34057 -3.70336 0
M  V30 4068 C 383.623 -0.669585 -4.38214 0
M  V30 4069 H 380.843 -0.250523 -0.622478 0
M  V30 4070 H 383.387 -1.3184 -1.56328 0
M  V30 4071 H 381.542 -0.366033 -3.85667 0
M  V30 4072 H 381.956 -2.43424 -4.64591 0
M  V30 4073 H 383.43 -0.920967 -5.44263 0
M  V30 4074 H 383.907 0.396383 -4.37408 0
M  V30 4075 H 384.513 -1.2472 -4.06602 0
M  V30 4076 N 382.828 1.3818 -0.7579 0
M  V30 4077 C 383.758 2.33027 -0.148597 0
M  V30 4078 C 384.739 1.55085 0.69875 0
M  V30 4079 O 385.924 1.83384 0.639053 0
M  V30 4080 C 383.054 3.3928 0.742034 0
M  V30 4081 C 382.008 4.28 -0.00291946 0
M  V30 4082 C 381.334 5.25146 1.00625 0
M  V30 4083 C 382.634 5.08938 -1.17385 0
M  V30 4084 H 384.328 2.84231 -0.940909 0
M  V30 4085 H 381.874 1.36659 -0.453908 0
M  V30 4086 H 383.827 4.046 1.17799 0
M  V30 4087 H 382.551 2.86569 1.56671 0
M  V30 4088 H 381.21 3.64192 -0.419504 0
M  V30 4089 H 380.858 4.68721 1.8251 0
M  V30 4090 H 380.558 5.85361 0.512428 0
M  V30 4091 H 382.082 5.93342 1.44143 0
M  V30 4092 H 383.496 5.67474 -0.815224 0
M  V30 4093 H 381.893 5.7841 -1.59882 0
M  V30 4094 H 382.963 4.42424 -1.98468 0
M  V30 4095 N 384.306 0.507319 1.49211 0
M  V30 4096 C 385.239 -0.314509 2.26022 0
M  V30 4097 C 386.217 -0.964849 1.30879 0
M  V30 4098 O 387.401 -0.993707 1.6018 0
M  V30 4099 C 384.528 -1.44346 3.06402 0
M  V30 4100 C 383.574 -0.90685 4.16748 0
M  V30 4101 S 384.407 0.207392 5.35098 0
M  V30 4102 C 385.563 -0.924573 6.19033 0
M  V30 4103 H 385.796 0.337416 2.95379 0
M  V30 4104 H 383.329 0.292718 1.516 0
M  V30 4105 H 385.287 -2.09029 3.53295 0
M  V30 4106 H 383.948 -2.06702 2.36502 0
M  V30 4107 H 383.141 -1.75309 4.72528 0
M  V30 4108 H 382.743 -0.33712 3.72478 0
M  V30 4109 H 385.035 -1.82839 6.52362 0
M  V30 4110 H 385.978 -0.405248 7.06939 0
M  V30 4111 H 386.386 -1.19476 5.51712 0
M  V30 4112 N 385.784 -1.5574 0.241426 0
M  V30 4113 C 386.714 -2.24133 -0.654722 0
M  V30 4114 C 387.695 -1.21974 -1.1856 0
M  V30 4115 O 388.88 -1.50612 -1.22595 0
M  V30 4116 C 386.01 -2.93659 -1.85423 0
M  V30 4117 C 384.964 -4.0246 -1.45636 0
M  V30 4118 C 384.29 -4.59383 -2.73626 0
M  V30 4119 C 385.59 -5.18468 -0.631506 0
M  V30 4120 H 387.284 -2.99281 -0.0844353 0
M  V30 4121 H 384.83 -1.43947 -0.0391707 0
M  V30 4122 H 386.783 -3.40203 -2.48676 0
M  V30 4123 H 385.507 -2.15991 -2.44981 0
M  V30 4124 H 384.166 -3.56676 -0.847202 0
M  V30 4125 H 383.814 -3.78422 -3.3137 0
M  V30 4126 H 383.514 -5.32826 -2.4773 0
M  V30 4127 H 385.038 -5.08658 -3.37786 0
M  V30 4128 H 386.452 -5.61272 -1.1682 0
M  V30 4129 H 384.849 -5.98266 -0.468831 0
M  V30 4130 H 385.919 -4.8358 0.357506 0
M  V30 4131 N 387.262 0.0317525 -1.57568 0
M  V30 4132 C 388.487 0.738664 -1.938 0
M  V30 4133 C 388.912 1.68242 -0.841208 0
M  V30 4134 O 388.27 1.80157 0.203267 0
M  V30 4135 C 388.318 1.47417 -3.29091 0
M  V30 4136 O 387.422 2.5872 -3.2115 0
M  V30 4137 H 386.763 0.198856 -0.633524 0
M  V30 4138 H 389.293 -0.0119713 -2.04596 0
M  V30 4139 H 389.303 1.84468 -3.63917 0
M  V30 4140 H 387.978 0.781988 -4.08482 0
M  V30 4141 H 386.555 2.24231 -2.97951 0
M  V30 4142 N 388.74 1.54641 0.303973 0
M  V30 4143 C 389.98 1.75516 1.04755 0
M  V30 4144 C 390.344 0.528211 1.84591 0
M  V30 4145 O 391.545 0.614645 2.61678 0
M  V30 4146 C 389.816 3.00685 1.93193 0
M  V30 4147 S 391.375 3.42549 2.74237 0
M  V30 4148 H 388.193 0.616987 0.353339 0
M  V30 4149 H 390.795 1.92842 0.321292 0
M  V30 4150 H 389.499 3.8811 1.33411 0
M  V30 4151 H 389.03 2.85937 2.70191 0
M  V30 4152 H 391.045 2.99386 3.95705 0
M  V30 4153 N 390.218 -0.567019 1.47046 0
M  V30 4154 C 391.629 -1.14916 1.47143 0
M  V30 4155 C 391.98 -1.94954 0.220767 0
M  V30 4156 O 391.105 -2.05602 -0.67505 0
M  V30 4157 C 391.7 -2.09069 2.666 0
M  V30 4158 C 390.259 -2.62575 2.69687 0
M  V30 4159 C 389.406 -1.38755 2.40088 0
M  V30 4160 H 392.357 -0.354126 1.54699 0
M  V30 4161 H 392.378 -2.92789 2.43011 0
M  V30 4162 H 391.89 -1.50789 3.57609 0
M  V30 4163 H 389.991 -3.24681 1.82792 0
M  V30 4164 H 390.104 -3.04239 3.70102 0
M  V30 4165 H 388.468 -1.69098 1.90468 0
M  V30 4166 H 389.251 -0.822822 3.33293 0
M  V30 4167 N 391.696 -1.35014 -0.812953 0
M  V30 4168 C 392.628 -1.23262 -1.93233 0
M  V30 4169 C 393.641 -0.157371 -1.62038 0
M  V30 4170 O 394.83 -0.410096 -1.73725 0
M  V30 4171 C 391.93 -0.87392 -3.27438 0
M  V30 4172 C 391.103 -2.04622 -3.86586 0
M  V30 4173 C 390.162 -1.66432 -4.99186 0
M  V30 4174 O 389.188 -2.38222 -5.16951 0
M  V30 4175 N 390.39 -0.584248 -5.77552 0
M  V30 4176 H 393.155 -2.19699 -2.03844 0
M  V30 4177 H 390.716 -1.281 -0.99005 0
M  V30 4178 H 392.708 -0.600039 -4.00227 0
M  V30 4179 H 391.278 0.00057392 -3.126 0
M  V30 4180 H 390.498 -2.48427 -3.06068 0
M  V30 4181 H 391.786 -2.82999 -4.22835 0
M  V30 4182 H 391.184 0.0123526 -5.65699 0
M  V30 4183 H 389.741 -0.37013 -6.50748 0
M  V30 4184 N 393.175 1.03435 -1.18907 0
M  V30 4185 C 394.123 2.13703 -0.918353 0
M  V30 4186 C 395.117 1.68947 0.123767 0
M  V30 4187 O 396.323 1.79983 -0.0249701 0
M  V30 4188 H 392.698 0.698112 -0.279542 0
M  V30 4189 H 394.669 2.33731 -1.85506 0
M  V30 4190 C 393.418 3.44542 -0.467532 0
M  V30 4191 H 392.741 3.79394 -1.26095 0
M  V30 4192 H 394.181 4.22812 -0.317164 0
M  V30 4193 C 392.64 3.26829 0.817588 0
M  V30 4194 O 393.17 3.54975 1.88031 0
M  V30 4195 N 391.376 2.80139 0.772677 0
M  V30 4196 H 390.923 2.57434 -0.0923883 0
M  V30 4197 H 390.881 2.68668 1.63294 0
M  V30 4198 N 394.653 0.992116 1.22453 0
M  V30 4199 C 395.583 0.561677 2.26644 0
M  V30 4200 C 396.564 -0.411055 1.65059 0
M  V30 4201 O 397.749 -0.301861 1.9184 0
M  V30 4202 C 394.879 -0.125247 3.47074 0
M  V30 4203 C 393.833 0.765948 4.21091 0
M  V30 4204 C 393.159 -0.0538484 5.34673 0
M  V30 4205 C 394.459 2.06242 4.79856 0
M  V30 4206 H 396.153 1.43259 2.62902 0
M  V30 4207 H 393.699 0.690283 1.26377 0
M  V30 4208 H 395.652 -0.437764 4.1912 0
M  V30 4209 H 394.376 -1.03069 3.0991 0
M  V30 4210 H 393.035 1.0621 3.50878 0
M  V30 4211 H 392.683 -0.960188 4.9375 0
M  V30 4212 H 392.383 0.539415 5.85119 0
M  V30 4213 H 393.907 -0.360477 6.09535 0
M  V30 4214 H 395.321 1.8139 5.43848 0
M  V30 4215 H 393.718 2.60444 5.40638 0
M  V30 4216 H 394.788 2.74167 3.99951 0
M  V30 4217 N 396.131 -1.37776 0.765217 0
M  V30 4218 C 397.361 -2.03828 0.337277 0
M  V30 4219 C 397.769 -1.57841 -1.04321 0
M  V30 4220 O 397.112 -0.752043 -1.67601 0
M  V30 4221 C 397.174 -3.58292 0.294407 0
M  V30 4222 C 396.838 -4.27384 1.61838 0
M  V30 4223 C 397.835 -4.51956 2.56967 0
M  V30 4224 C 395.52 -4.65345 1.89102 0
M  V30 4225 C 397.514 -5.13536 3.77571 0
M  V30 4226 C 395.201 -5.26647 3.09978 0
M  V30 4227 C 396.199 -5.50679 4.04032 0
M  V30 4228 O 395.887 -6.10702 5.2278 0
M  V30 4229 H 395.619 -0.661292 0.140248 0
M  V30 4230 H 398.173 -1.77222 1.03834 0
M  V30 4231 H 396.403 -3.83918 -0.462983 0
M  V30 4232 H 398.092 -4.05763 -0.105581 0
M  V30 4233 H 398.858 -4.23048 2.37183 0
M  V30 4234 H 394.737 -4.45978 1.16725 0
M  V30 4235 H 398.281 -5.3221 4.50997 0
M  V30 4236 H 394.178 -5.54979 3.29649 0
M  V30 4237 H 394.946 -6.29183 5.23517 0
M  V30 4238 N 397.609 -0.515225 -1.4894 0
M  V30 4239 C 398.849 0.0223983 -2.04388 0
M  V30 4240 C 399.213 1.32961 -1.38511 0
M  V30 4241 O 400.414 1.95236 -1.8476 0
M  V30 4242 C 398.685 0.157056 -3.57055 0
M  V30 4243 S 400.244 0.646875 -4.34006 0
M  V30 4244 H 397.062 -0.00500662 -0.710982 0
M  V30 4245 H 399.664 -0.69243 -1.82827 0
M  V30 4246 H 398.368 -0.799412 -4.02539 0
M  V30 4247 H 397.899 0.896704 -3.83044 0
M  V30 4248 H 399.914 1.91381 -4.57808 0
M  V30 4249 N 399.087 1.5561 -0.249682 0
M  V30 4250 C 400.312 2.03865 0.381305 0
M  V30 4251 C 400.737 1.12769 1.50548 0
M  V30 4252 O 400.095 0.121189 1.80895 0
M  V30 4253 C 400.143 3.50101 0.863816 0
M  V30 4254 O 399.247 3.62132 1.97318 0
M  V30 4255 H 398.588 0.658827 0.0827194 0
M  V30 4256 H 401.118 2.01105 -0.376552 0
M  V30 4257 H 401.128 3.90975 1.1663 0
M  V30 4258 H 399.803 4.1588 0.0411816 0
M  V30 4259 H 398.38 3.33155 1.67517 0
M  V30 4260 N 400.565 -0.0233959 1.57583 0
M  V30 4261 C 401.981 -0.379134 1.55031 0
M  V30 4262 C 402.181 -1.76255 0.976548 0
M  V30 4263 O 401.237 -2.45266 0.600078 0
M  V30 4264 C 402.55 -0.275792 2.99433 0
M  V30 4265 C 404.098 -0.352458 3.11009 0
M  V30 4266 C 404.573 -0.278501 4.57152 0
M  V30 4267 N 406.064 -0.337123 4.61972 0
M  V30 4268 C 406.799 -0.302876 5.726 0
M  V30 4269 N 406.295 -0.220589 6.92449 0
M  V30 4270 N 408.088 -0.353023 5.6099 0
M  V30 4271 H 400.239 0.881869 1.93227 0
M  V30 4272 H 402.502 0.335867 0.886509 0
M  V30 4273 H 402.208 0.675108 3.4516 0
M  V30 4274 H 402.082 -1.06721 3.61788 0
M  V30 4275 H 404.469 -1.29379 2.65226 0
M  V30 4276 H 404.55 0.468409 2.51475 0
M  V30 4277 H 404.194 0.659189 5.03604 0
M  V30 4278 H 404.124 -1.11755 5.14605 0
M  V30 4279 H 406.615 -0.403002 3.75745 0
M  V30 4280 H 406.928 -0.199713 7.72542 0
M  V30 4281 H 405.273 -0.186555 6.9475 0
M  V30 4282 H 408.464 -0.415339 4.66254 0
M  V30 4283 H 408.637 -0.322866 6.47195 0
M  V30 4284 N 402.043 -1.548 -0.295768 0
M  V30 4285 C 403.29 -1.74329 -1.03032 0
M  V30 4286 C 403.618 -0.531915 -1.87085 0
M  V30 4287 O 402.873 0.486052 -1.89568 0
M  V30 4288 C 403.172 -2.98797 -1.961 0
M  V30 4289 C 402.838 -4.32356 -1.2798 0
M  V30 4290 C 401.5 -4.68661 -1.09135 0
M  V30 4291 C 403.852 -5.15128 -0.793243 0
M  V30 4292 C 401.18 -5.85312 -0.403269 0
M  V30 4293 C 403.532 -6.32488 -0.118854 0
M  V30 4294 C 402.196 -6.6745 0.0815043 0
M  V30 4295 H 401.466 -0.637916 -0.37702 0
M  V30 4296 H 404.113 -1.8906 -0.304696 0
M  V30 4297 H 402.418 -2.78869 -2.75207 0
M  V30 4298 H 404.115 -3.11102 -2.53015 0
M  V30 4299 H 400.705 -4.03808 -1.43655 0
M  V30 4300 H 404.889 -4.87575 -0.92653 0
M  V30 4301 H 400.145 -6.1094 -0.237098 0
M  V30 4302 H 404.319 -6.95892 0.266035 0
M  V30 4303 H 401.946 -7.57695 0.616685 0
M  V30 4304 N 403.521 0.559213 -1.47345 0
M  V30 4305 C 404.454 1.68201 -1.5422 0
M  V30 4306 C 405.432 1.57742 -0.394497 0
M  V30 4307 O 406.616 1.78628 -0.60201 0
M  V30 4308 C 403.743 3.0643 -1.44285 0
M  V30 4309 C 402.789 3.3534 -2.63532 0
M  V30 4310 S 403.622 3.24816 -4.25741 0
M  V30 4311 C 404.778 4.65542 -4.18355 0
M  V30 4312 H 405.011 1.62114 -2.49211 0
M  V30 4313 H 402.544 0.739871 -1.35519 0
M  V30 4314 H 404.502 3.86164 -1.3924 0
M  V30 4315 H 403.163 3.09984 -0.506816 0
M  V30 4316 H 402.356 4.36107 -2.52639 0
M  V30 4317 H 401.958 2.63221 -2.65689 0
M  V30 4318 H 404.25 5.56449 -3.86485 0
M  V30 4319 H 405.193 4.81493 -5.19202 0
M  V30 4320 H 405.601 4.43495 -3.49246 0
M  V30 4321 N 404.999 1.35443 0.805782 0
M  V30 4322 C 406.224 1.32037 1.59941 0
M  V30 4323 C 406.649 -0.0994215 1.87837 0
M  V30 4324 O 406.007 -1.06648 1.46615 0
M  V30 4325 C 406.055 2.13354 2.90711 0
M  V30 4326 O 405.159 1.5148 3.83572 0
M  V30 4327 H 404.5 0.452666 0.485787 0
M  V30 4328 H 407.03 1.78496 1.00002 0
M  V30 4329 H 407.04 2.25338 3.40128 0
M  V30 4330 H 405.715 3.16572 2.69732 0
M  V30 4331 H 404.292 1.4834 3.42125 0
M  V30 4332 N 406.477 -1.02803 1.19454 0
M  V30 4333 C 407.427 -2.0945 0.900827 0
M  V30 4334 C 408.411 -1.60335 -0.134715 0
M  V30 4335 O 409.603 -1.76857 0.0710924 0
M  V30 4336 C 406.732 -3.4044 0.442229 0
M  V30 4337 C 405.818 -3.96286 1.51056 0
M  V30 4338 N 406.209 -4.25785 2.73021 0
M  V30 4339 C 404.507 -4.24307 1.37404 0
M  V30 4340 C 405.208 -4.70654 3.41848 0
M  V30 4341 N 404.184 -4.72238 2.69243 0
M  V30 4342 H 407.986 -2.3015 1.82779 0
M  V30 4343 H 405.5 -1.20672 1.08683 0
M  V30 4344 H 407.497 -4.16354 0.21326 0
M  V30 4345 H 406.157 -3.21159 -0.478238 0
M  V30 4346 H 407.168 -4.15041 3.09776 0
M  V30 4347 H 403.845 -4.14285 0.517103 0
M  V30 4348 H 405.235 -5.02392 4.46152 0
M  V30 4349 N 407.956 -0.998596 -1.21925 0
M  V30 4350 C 409.203 -0.677663 -1.90824 0
M  V30 4351 C 409.531 0.790905 -1.77693 0
M  V30 4352 O 408.786 1.58817 -1.14349 0
M  V30 4353 C 409.085 -1.03648 -3.42041 0
M  V30 4354 C 408.751 -2.49825 -3.75364 0
M  V30 4355 C 407.413 -2.8977 -3.8417 0
M  V30 4356 C 409.765 -3.44545 -3.91073 0
M  V30 4357 C 407.093 -4.23412 -4.06127 0
M  V30 4358 C 409.445 -4.77853 -4.14535 0
M  V30 4359 C 408.109 -5.17531 -4.21566 0
M  V30 4360 H 407.379 -0.247975 -0.698276 0
M  V30 4361 H 410.026 -1.25584 -1.44571 0
M  V30 4362 H 408.331 -0.376457 -3.89987 0
M  V30 4363 H 410.028 -0.766113 -3.93614 0
M  V30 4364 H 406.618 -2.17866 -3.69097 0
M  V30 4365 H 410.802 -3.14853 -3.83642 0
M  V30 4366 H 406.058 -4.53734 -4.09799 0
M  V30 4367 H 410.232 -5.51189 -4.25633 0
M  V30 4368 H 407.859 -6.21102 -4.38333 0
M  V30 4369 N 409.434 1.37368 -0.772513 0
M  V30 4370 C 410.382 2.32134 -0.147111 0
M  V30 4371 C 411.376 1.54972 0.684106 0
M  V30 4372 O 412.582 1.70363 0.581083 0
M  V30 4373 H 408.957 0.751449 -0.028786 0
M  V30 4374 H 410.928 2.82464 -0.962112 0
M  V30 4375 C 409.677 3.40226 0.71703 0
M  V30 4376 H 409 3.99706 0.0867951 0
M  V30 4377 H 410.44 4.08897 1.12159 0
M  V30 4378 C 408.899 2.80372 1.86797 0
M  V30 4379 O 409.429 2.71183 2.96349 0
M  V30 4380 N 407.635 2.37904 1.66883 0
M  V30 4381 H 407.182 2.45578 0.777759 0
M  V30 4382 H 407.14 1.98202 2.44056 0
M  V30 4383 N 410.912 0.523116 1.48665 0
M  V30 4384 C 411.845 -0.290518 2.26343 0
M  V30 4385 C 412.823 -0.950913 1.31895 0
M  V30 4386 O 414.007 -0.976662 1.61225 0
M  V30 4387 C 411.134 -1.41088 3.07915 0
M  V30 4388 C 410.18 -0.862597 4.17686 0
M  V30 4389 S 411.013 0.264135 5.34848 0
M  V30 4390 C 412.169 -0.858864 6.19979 0
M  V30 4391 H 412.402 0.368726 2.95005 0
M  V30 4392 H 409.935 0.30878 1.51281 0
M  V30 4393 H 411.893 -2.0527 3.55492 0
M  V30 4394 H 410.554 -2.04182 2.38681 0
M  V30 4395 H 409.747 -1.70287 4.74361 0
M  V30 4396 H 409.349 -0.297595 3.72814 0
M  V30 4397 H 411.641 -1.7591 6.54264 0
M  V30 4398 H 412.584 -0.330244 7.07329 0
M  V30 4399 H 412.992 -1.13617 5.52948 0
M  V30 4400 N 412.39 -1.55475 0.257931 0
M  V30 4401 C 413.62 -2.03314 -0.367026 0
M  V30 4402 C 414.028 -1.13625 -1.51281 0
M  V30 4403 O 413.371 -0.145334 -1.83124 0
M  V30 4404 C 413.433 -3.47362 -0.926284 0
M  V30 4405 C 413.097 -4.56914 0.0886584 0
M  V30 4406 C 414.094 -5.12013 0.902123 0
M  V30 4407 C 411.779 -5.01827 0.217936 0
M  V30 4408 C 413.773 -6.10529 1.83122 0
M  V30 4409 C 411.46 -6.00172 1.15052 0
M  V30 4410 C 412.458 -6.54402 1.95568 0
M  V30 4411 O 412.146 -7.50827 2.87253 0
M  V30 4412 H 411.878 -0.669976 -0.0900443 0
M  V30 4413 H 414.432 -2.01804 0.382673 0
M  V30 4414 H 412.662 -3.46056 -1.72575 0
M  V30 4415 H 414.351 -3.78637 -1.46249 0
M  V30 4416 H 415.117 -4.78139 0.812891 0
M  V30 4417 H 410.996 -4.59272 -0.398721 0
M  V30 4418 H 414.54 -6.52783 2.46008 0
M  V30 4419 H 410.437 -6.33465 1.24064 0
M  V30 4420 H 411.205 -7.68483 2.81739 0
M  V30 4421 N 413.868 0.0150385 -1.57593 0
M  V30 4422 C 414.798 1.01047 -2.10503 0
M  V30 4423 C 415.779 1.36816 -1.01071 0
M  V30 4424 O 416.964 1.45455 -1.28672 0
M  V30 4425 C 414.094 2.30708 -2.59598 0
M  V30 4426 C 413.048 2.09142 -3.73421 0
M  V30 4427 C 412.374 3.44685 -4.08774 0
M  V30 4428 C 413.674 1.46619 -5.01298 0
M  V30 4429 H 415.368 0.569978 -2.93925 0
M  V30 4430 H 412.914 0.272724 -1.41394 0
M  V30 4431 H 414.867 3.00687 -2.95238 0
M  V30 4432 H 413.591 2.76843 -1.73279 0
M  V30 4433 H 412.25 1.41592 -3.38153 0
M  V30 4434 H 411.898 3.88495 -3.195 0
M  V30 4435 H 411.598 3.31077 -4.8545 0
M  V30 4436 H 413.122 4.16004 -4.4696 0
M  V30 4437 H 414.536 2.06535 -5.34805 0
M  V30 4438 H 412.933 1.43544 -5.82679 0
M  V30 4439 H 414.003 0.433611 -4.82957 0
M  V30 4440 N 415.346 1.54954 0.287554 0
M  V30 4441 C 416.595 1.74081 1.01877 0
M  V30 4442 C 416.908 0.541135 1.87966 0
M  V30 4443 O 418.114 0.614491 2.64455 0
M  V30 4444 C 416.57 3.08042 1.86113 0
M  V30 4445 C 416.178 4.35531 1.04961 0
M  V30 4446 C 417.922 3.36523 2.58752 0
M  V30 4447 C 415.829 5.60538 1.88551 0
M  V30 4448 H 414.759 0.64884 0.384087 0
M  V30 4449 H 417.41 1.81426 0.275101 0
M  V30 4450 H 415.792 2.94696 2.64519 0
M  V30 4451 H 416.966 4.59751 0.31074 0
M  V30 4452 H 415.281 4.14085 0.43843 0
M  V30 4453 H 417.878 4.27122 3.21668 0
M  V30 4454 H 418.221 2.56 3.28283 0
M  V30 4455 H 418.754 3.50901 1.87386 0
M  V30 4456 H 415.493 6.43767 1.23466 0
M  V30 4457 H 415.013 5.40483 2.60074 0
M  V30 4458 H 416.692 5.98297 2.46273 0
M  V30 4459 N 416.824 -0.551391 1.4764 0
M  V30 4460 C 417.754 -1.66757 1.63445 0
M  V30 4461 C 418.735 -1.63077 0.483742 0
M  V30 4462 O 419.92 -1.80607 0.71377 0
M  V30 4463 C 417.05 -3.05387 1.65396 0
M  V30 4464 C 416.004 -3.23918 2.79752 0
M  V30 4465 C 415.33 -4.63393 2.66779 0
M  V30 4466 C 416.63 -3.08735 4.21284 0
M  V30 4467 H 418.324 -1.53786 2.56886 0
M  V30 4468 H 415.87 -0.738415 1.23626 0
M  V30 4469 H 417.823 -3.83325 1.75043 0
M  V30 4470 H 416.547 -3.19332 0.685195 0
M  V30 4471 H 415.206 -2.48391 2.69625 0
M  V30 4472 H 414.854 -4.74144 1.67918 0
M  V30 4473 H 414.554 -4.7674 3.43501 0
M  V30 4474 H 416.078 -5.43458 2.78364 0
M  V30 4475 H 417.492 -3.76484 4.32357 0
M  V30 4476 H 415.889 -3.33588 4.98838 0
M  V30 4477 H 416.959 -2.0541 4.39243 0
M  V30 4478 N 418.302 -1.35869 -0.798587 0
M  V30 4479 C 419.551 -1.28921 -1.5512 0
M  V30 4480 C 419.864 0.13208 -1.95154 0
M  V30 4481 O 421.07 0.323879 -2.69561 0
M  V30 4482 C 419.526 -2.26141 -2.79979 0
M  V30 4483 C 419.134 -3.73658 -2.47151 0
M  V30 4484 C 420.878 -2.28152 -3.57976 0
M  V30 4485 C 418.785 -4.62679 -3.6835 0
M  V30 4486 H 417.715 -0.479031 -0.582276 0
M  V30 4487 H 420.366 -1.61179 -0.877125 0
M  V30 4488 H 418.748 -1.86865 -3.49138 0
M  V30 4489 H 419.922 -4.21616 -1.85947 0
M  V30 4490 H 418.237 -3.74333 -1.82383 0
M  V30 4491 H 420.834 -2.91875 -4.4801 0
M  V30 4492 H 421.177 -1.28748 -3.95891 0
M  V30 4493 H 421.71 -2.65998 -2.95787 0
M  V30 4494 H 418.449 -5.63111 -3.35538 0
M  V30 4495 H 417.969 -4.19442 -4.28752 0
M  V30 4496 H 419.648 -4.78498 -4.35487 0
M  V30 4497 N 419.78 1.02168 -1.19998 0
M  V30 4498 C 420.713 2.10232 -0.887558 0
M  V30 4499 C 421.691 1.61827 0.158317 0
M  V30 4500 O 422.875 1.88471 0.0330249 0
M  V30 4501 C 420.002 3.37092 -0.32964 0
M  V30 4502 C 419.048 4.0438 -1.3557 0
M  V30 4503 S 419.881 4.48956 -2.91888 0
M  V30 4504 C 421.037 5.79024 -2.37658 0
M  V30 4505 H 421.27 2.36409 -1.80272 0
M  V30 4506 H 418.803 1.15211 -1.0279 0
M  V30 4507 H 420.761 4.10498 -0.0142824 0
M  V30 4508 H 419.422 3.08996 0.563941 0
M  V30 4509 H 418.615 4.95632 -0.9146 0
M  V30 4510 H 418.217 3.37176 -1.61828 0
M  V30 4511 H 420.509 6.53942 -1.77103 0
M  V30 4512 H 421.452 6.27924 -3.27287 0
M  V30 4513 H 421.86 5.35043 -1.79971 0
M  V30 4514 N 421.258 1.00505 1.21394 0
M  V30 4515 C 422.498 0.696149 1.9218 0
M  V30 4516 C 422.862 -0.759099 1.76357 0
M  V30 4517 O 424.063 -1.17998 2.41516 0
M  V30 4518 C 422.334 1.10571 3.39866 0
M  V30 4519 S 423.893 0.91702 4.29111 0
M  V30 4520 H 420.711 0.254147 0.664026 0
M  V30 4521 H 423.313 1.28988 1.46909 0
M  V30 4522 H 422.017 2.16096 3.489 0
M  V30 4523 H 421.548 0.504268 3.90155 0
M  V30 4524 H 423.563 -0.185855 4.95852 0
M  V30 4525 N 422.737 -1.36956 0.779787 0
M  V30 4526 C 423.685 -2.32053 0.15942 0
M  V30 4527 C 424.679 -1.55333 -0.675878 0
M  V30 4528 O 425.885 -1.70668 -0.57204 0
M  V30 4529 H 422.26 -0.751286 0.0327707 0
M  V30 4530 H 424.231 -2.8195 0.977078 0
M  V30 4531 C 422.98 -3.40602 -0.698977 0
M  V30 4532 H 422.303 -3.99746 -0.0655966 0
M  V30 4533 H 423.743 -4.09486 -1.09989 0
M  V30 4534 C 422.202 -2.81359 -1.85307 0
M  V30 4535 O 422.732 -2.72751 -2.94906 0
M  V30 4536 N 420.938 -2.38786 -1.65619 0
M  V30 4537 H 420.485 -2.45987 -0.764725 0
M  V30 4538 H 420.443 -1.99493 -2.43002 0
M  V30 4539 N 424.215 -0.530993 -1.48385 0
M  V30 4540 C 425.44 0.000729535 -2.074 0
M  V30 4541 C 425.865 1.27298 -1.3848 0
M  V30 4542 O 425.223 1.75599 -0.451081 0
M  V30 4543 C 425.271 0.206697 -3.60007 0
M  V30 4544 O 424.375 1.27514 -3.92191 0
M  V30 4545 H 423.716 -0.039583 -0.662819 0
M  V30 4546 H 426.246 -0.739194 -1.9078 0
M  V30 4547 H 426.256 0.42904 -4.05738 0
M  V30 4548 H 424.931 -0.722675 -4.09573 0
M  V30 4549 H 423.508 1.03537 -3.58238 0
M  V30 4550 N 425.693 1.55336 -0.266172 0
M  V30 4551 C 426.939 1.99692 0.353681 0
M  V30 4552 C 427.272 1.1543 1.56172 0
M  V30 4553 O 426.547 0.222218 1.93226 0
M  V30 4554 C 426.83 3.52316 0.74466 0
M  V30 4555 C 426.683 4.47337 -0.470101 0
M  V30 4556 C 428.002 4.10588 1.58447 0
M  V30 4557 H 425.121 0.725961 0.12708 0
M  V30 4558 H 427.763 1.86336 -0.371333 0
M  V30 4559 H 425.913 3.63829 1.36239 0
M  V30 4560 H 427.585 4.4778 -1.10864 0
M  V30 4561 H 425.828 4.19364 -1.10978 0
M  V30 4562 H 426.499 5.51788 -0.15291 0
M  V30 4563 H 428.975 4.02297 1.06286 0
M  V30 4564 H 427.851 5.17607 1.82686 0
M  V30 4565 H 428.112 3.60253 2.56262 0
M  V30 4566 N 427.171 -0.0066808 1.57599 0
M  V30 4567 C 428.104 -1.03397 2.03431 0
M  V30 4568 C 429.082 -1.33872 0.922877 0
M  V30 4569 O 430.266 -1.4615 1.19048 0
M  V30 4570 C 427.393 -2.36325 2.42628 0
M  V30 4571 C 426.439 -2.21557 3.64438 0
M  V30 4572 S 427.272 -1.54789 5.12641 0
M  V30 4573 C 428.428 -2.8916 5.55101 0
M  V30 4574 H 428.661 -0.643687 2.90248 0
M  V30 4575 H 426.194 -0.217349 1.52863 0
M  V30 4576 H 428.152 -3.12759 2.65879 0
M  V30 4577 H 426.813 -2.72495 1.56222 0
M  V30 4578 H 426.006 -3.1974 3.89592 0
M  V30 4579 H 425.608 -1.53267 3.41153 0
M  V30 4580 H 427.9 -3.8547 5.57153 0
M  V30 4581 H 428.843 -2.68713 6.55133 0
M  V30 4582 H 429.251 -2.92762 4.82649 0
M  V30 4583 N 428.649 -1.55105 -0.279332 0
M  V30 4584 C 429.926 -1.66119 -1.03267 0
M  V30 4585 C 430.306 -0.523525 -2.04505 0
M  V30 4586 O 429.654 0.477194 -2.23462 0
M  V30 4587 C 429.864 -3.05067 -1.69515 0
M  V30 4588 C 431.212 -3.62606 -2.20912 0
M  V30 4589 O 432.236 -3.07659 -1.79512 0
M  V30 4590 O 431.095 -4.58861 -2.96831 0
M  V30 4591 H 428.189 -0.674429 -0.478618 0
M  V30 4592 H 430.735 -1.67446 -0.275694 0
M  V30 4593 H 429.507 -3.79311 -0.9612 0
M  V30 4594 H 429.13 -3.07611 -2.51915 0
M  V30 4595 N 430.127 0.543554 -1.4793 0
M  V30 4596 C 431.538 1.12561 -1.48953 0
M  V30 4597 C 431.889 1.94578 -0.251754 0
M  V30 4598 O 431.014 2.0665 0.642255 0
M  V30 4599 C 431.609 2.04801 -2.69892 0
M  V30 4600 C 430.168 2.58251 -2.73831 0
M  V30 4601 C 429.315 1.34918 -2.42265 0
M  V30 4602 H 432.266 0.32947 -1.55242 0
M  V30 4603 H 432.287 2.88886 -2.47639 0
M  V30 4604 H 431.799 1.4508 -3.59963 0
M  V30 4605 H 429.9 3.21732 -1.87934 0
M  V30 4606 H 430.013 2.98312 -3.74895 0
M  V30 4607 H 428.377 1.66046 -1.93134 0
M  V30 4608 H 429.16 0.769693 -3.3456 0
M  V30 4609 N 431.605 1.3629 0.791371 0
M  V30 4610 C 432.535 1.33137 1.91825 0
M  V30 4611 C 433.516 0.203168 1.68882 0
M  V30 4612 O 434.701 0.400509 1.90025 0
M  V30 4613 C 431.831 1.11793 3.28816 0
M  V30 4614 C 430.785 2.21417 3.66277 0
M  V30 4615 C 430.111 1.85218 5.01596 0
M  V30 4616 C 431.411 3.63489 3.75064 0
M  V30 4617 H 433.105 2.2743 1.9472 0
M  V30 4618 H 430.651 1.09479 0.935437 0
M  V30 4619 H 432.604 1.08222 4.07266 0
M  V30 4620 H 431.328 0.139501 3.26302 0
M  V30 4621 H 429.987 2.2411 2.90121 0
M  V30 4622 H 429.635 0.859544 4.95602 0
M  V30 4623 H 429.335 2.58611 5.27631 0
M  V30 4624 H 430.859 1.832 5.82469 0
M  V30 4625 H 432.273 3.63034 4.43711 0
M  V30 4626 H 430.67 4.35771 4.12582 0
M  V30 4627 H 431.74 3.98536 2.76219 0
M  V30 4628 N 433.083 -1.0153 1.20538 0
M  V30 4629 C 434.332 -1.74558 1.01057 0
M  V30 4630 C 434.645 -1.90168 -0.457756 0
M  V30 4631 O 435.851 -2.60301 -0.771722 0
M  V30 4632 C 434.307 -3.13963 1.75941 0
M  V30 4633 C 433.915 -3.06361 3.26875 0
M  V30 4634 C 435.659 -3.91191 1.64832 0
M  V30 4635 C 433.566 -4.40782 3.94291 0
M  V30 4636 H 432.496 -0.654417 0.374505 0
M  V30 4637 H 435.147 -1.13521 1.44171 0
M  V30 4638 H 433.529 -3.75549 1.25614 0
M  V30 4639 H 434.703 -2.54074 3.84425 0
M  V30 4640 H 433.018 -2.42625 3.38411 0
M  V30 4641 H 435.615 -4.90644 2.12539 0
M  V30 4642 H 435.958 -4.11884 0.604745 0
M  V30 4643 H 436.491 -3.36236 2.12579 0
M  V30 4644 H 433.23 -4.25292 4.98805 0
M  V30 4645 H 432.75 -4.9307 3.41529 0
M  V30 4646 H 434.429 -5.09621 3.98617 0
M  V30 4647 N 434.561 -1.01147 -1.20859 0
M  V30 4648 C 435.791 -0.715872 -1.93801 0
M  V30 4649 C 436.199 0.726592 -1.74692 0
M  V30 4650 O 435.542 1.50397 -1.05482 0
M  V30 4651 C 435.604 -0.965269 -3.46299 0
M  V30 4652 C 435.268 -2.39584 -3.89164 0
M  V30 4653 C 436.265 -3.3764 -3.95342 0
M  V30 4654 C 433.95 -2.73522 -4.21297 0
M  V30 4655 C 435.944 -4.67698 -4.33056 0
M  V30 4656 C 433.631 -4.03794 -4.58687 0
M  V30 4657 C 434.629 -5.00693 -4.64538 0
M  V30 4658 O 434.317 -6.28635 -5.01072 0
M  V30 4659 H 434.049 -0.262524 -0.622942 0
M  V30 4660 H 436.603 -1.35413 -1.54443 0
M  V30 4661 H 434.833 -0.269847 -3.85757 0
M  V30 4662 H 436.522 -0.662051 -4.00464 0
M  V30 4663 H 437.288 -3.12757 -3.70686 0
M  V30 4664 H 433.167 -1.9879 -4.15937 0
M  V30 4665 H 436.711 -5.4333 -4.37537 0
M  V30 4666 H 432.608 -4.28459 -4.82797 0
M  V30 4667 H 433.376 -6.32847 -5.19083 0
M  V30 4668 N 436.039 1.36541 -0.78704 0
M  V30 4669 C 437.002 2.28413 -0.189778 0
M  V30 4670 C 438.002 1.48719 0.611499 0
M  V30 4671 O 439.192 1.68737 0.432842 0
M  V30 4672 C 436.324 3.32824 0.737638 0
M  V30 4673 H 437.517 2.82743 -0.999831 0
M  V30 4674 H 435.07 1.46065 -0.556298 0
M  V30 4675 H 435.805 2.83646 1.57212 0
M  V30 4676 H 435.59 3.91752 0.165044 0
M  V30 4677 H 437.08 4.0144 1.15047 0
M  V30 4678 N 437.518 0.538854 1.48102 0
M  V30 4679 C 438.765 0.0080018 2.02498 0
M  V30 4680 C 439.093 -1.33437 1.41509 0
M  V30 4681 O 438.348 -1.87709 0.553507 0
M  V30 4682 C 438.647 -0.153808 3.57069 0
M  V30 4683 C 438.313 1.11533 4.36888 0
M  V30 4684 C 436.975 1.46314 4.58417 0
M  V30 4685 C 439.327 1.95718 4.83057 0
M  V30 4686 C 436.655 2.6516 5.23361 0
M  V30 4687 C 439.007 3.13751 5.49312 0
M  V30 4688 C 437.671 3.48866 5.69077 0
M  V30 4689 H 436.941 0.00292807 0.740994 0
M  V30 4690 H 439.588 0.706668 1.77984 0
M  V30 4691 H 437.893 -0.935309 3.80472 0
M  V30 4692 H 439.59 -0.579607 3.96789 0
M  V30 4693 H 436.18 0.834484 4.20398 0
M  V30 4694 H 440.364 1.70158 4.66219 0
M  V30 4695 H 435.62 2.92558 5.36861 0
M  V30 4696 H 439.794 3.79282 5.84053 0
M  V30 4697 H 437.421 4.41054 6.19173 0
M  V30 4698 N 438.996 -1.55193 0.274407 0
M  V30 4699 C 440.412 -1.59401 -0.0797543 0
M  V30 4700 C 440.612 -1.29162 -1.54659 0
M  V30 4701 O 439.668 -1.05215 -2.29534 0
M  V30 4702 C 440.981 -2.99257 0.294238 0
M  V30 4703 C 442.529 -3.12072 0.240796 0
M  V30 4704 C 443.004 -4.54194 0.589218 0
M  V30 4705 N 444.495 -4.60033 0.540744 0
M  V30 4706 C 445.23 -5.68027 0.783147 0
M  V30 4707 N 444.726 -6.8417 1.09013 0
M  V30 4708 N 446.519 -5.57572 0.711993 0
M  V30 4709 H 438.67 -1.73113 1.23067 0
M  V30 4710 H 440.933 -0.807197 0.497129 0
M  V30 4711 H 440.639 -3.26217 1.31435 0
M  V30 4712 H 440.513 -3.75427 -0.365281 0
M  V30 4713 H 442.9 -2.84877 -0.770024 0
M  V30 4714 H 442.981 -2.38117 0.934563 0
M  V30 4715 H 442.625 -4.82115 1.59772 0
M  V30 4716 H 442.555 -5.26448 -0.126331 0
M  V30 4717 H 445.046 -3.76599 0.313327 0
M  V30 4718 H 445.359 -7.6243 1.26178 0
M  V30 4719 H 443.704 -6.85787 1.12789 0
M  V30 4720 H 446.895 -4.65714 0.472014 0
M  V30 4721 H 447.068 -6.41659 0.90429 0
M  V30 4722 N 440.474 -0.00167713 -1.576 0
M  V30 4723 C 441.699 0.69739 -1.95323 0
M  V30 4724 C 442.124 1.6642 -0.876706 0
M  V30 4725 O 441.482 1.80548 0.165007 0
M  V30 4726 C 441.53 1.40403 -3.32144 0
M  V30 4727 O 440.634 2.5185 -3.26566 0
M  V30 4728 H 439.975 0.185373 -0.637599 0
M  V30 4729 H 442.505 -0.0553665 -2.04525 0
M  V30 4730 H 442.515 1.76707 -3.67748 0
M  V30 4731 H 441.19 0.695167 -4.10049 0
M  V30 4732 H 439.767 2.17861 -3.0264 0
M  V30 4733 N 441.952 1.55251 0.271103 0
M  V30 4734 C 442.884 1.84675 1.35749 0
M  V30 4735 C 443.897 0.731366 1.45447 0
M  V30 4736 O 445.086 1.00924 1.4723 0
M  V30 4737 C 442.186 1.99638 2.73857 0
M  V30 4738 C 441.359 3.30312 2.86727 0
M  V30 4739 C 440.418 3.35318 4.05522 0
M  V30 4740 O 439.444 4.08682 3.96191 0
M  V30 4741 N 440.646 2.62857 5.17577 0
M  V30 4742 H 443.411 2.78445 1.10853 0
M  V30 4743 H 440.972 1.55191 0.461218 0
M  V30 4744 H 442.964 2.00355 3.51625 0
M  V30 4745 H 441.534 1.12725 2.91568 0
M  V30 4746 H 440.754 3.42118 1.95829 0
M  V30 4747 H 442.042 4.16488 2.92258 0
M  V30 4748 H 441.44 2.02939 5.28046 0
M  V30 4749 H 439.997 2.69295 5.93568 0
M  V30 4750 N 443.43 -0.535701 1.48216 0
M  V30 4751 C 444.34 -1.66785 1.64985 0
M  V30 4752 C 445.356 -1.65654 0.532414 0
M  V30 4753 O 446.532 -1.8471 0.80275 0
M  V30 4754 C 443.597 -3.0326 1.68031 0
M  V30 4755 C 442.658 -3.1529 2.9136 0
M  V30 4756 C 441.891 -4.45255 2.94252 0
M  V30 4757 O 442.114 -5.32011 2.05719 0
M  V30 4758 O 441.048 -4.6153 3.86359 0
M  V30 4759 H 444.874 -1.55576 2.60825 0
M  V30 4760 H 442.459 -0.70815 1.31551 0
M  V30 4761 H 444.341 -3.84436 1.72589 0
M  V30 4762 H 443.016 -3.14805 0.753628 0
M  V30 4763 H 441.923 -2.3343 2.92337 0
M  V30 4764 H 443.256 -3.08658 3.83394 0
M  V30 4765 N 444.908 -1.36708 -0.784132 0
M  V30 4766 C 445.841 -1.25827 -1.90375 0
M  V30 4767 C 446.819 -0.141331 -1.61985 0
M  V30 4768 O 448.003 -0.313389 -1.85877 0
M  V30 4769 C 445.13 -0.942621 -3.25319 0
M  V30 4770 C 444.176 -2.07474 -3.72635 0
M  V30 4771 S 445.009 -3.69317 -3.8777 0
M  V30 4772 C 446.165 -3.39876 -5.25581 0
M  V30 4773 H 446.398 -2.20593 -1.99314 0
M  V30 4774 H 443.931 -1.22186 -0.943926 0
M  V30 4775 H 445.889 -0.767321 -4.03265 0
M  V30 4776 H 444.55 -0.0126566 -3.14097 0
M  V30 4777 H 443.743 -1.80858 -4.70432 0
M  V30 4778 H 443.345 -2.20953 -3.01754 0
M  V30 4779 H 445.637 -2.94097 -6.10339 0
M  V30 4780 H 446.58 -4.36956 -5.57203 0
M  V30 4781 H 446.988 -2.75098 -4.92931 0
M  V30 4782 N 446.386 1.0089 -1.21074 0
M  V30 4783 C 447.802 1.2695 -0.967257 0
M  V30 4784 C 448.002 1.9846 0.348673 0
M  V30 4785 O 447.058 2.28459 1.0753 0
M  V30 4786 C 448.371 2.09697 -2.15517 0
M  V30 4787 C 449.919 2.22937 -2.197 0
M  V30 4788 C 450.394 3.09064 -3.37999 0
M  V30 4789 N 451.885 3.16653 -3.38061 0
M  V30 4790 C 452.62 3.8354 -4.26245 0
M  V30 4791 N 452.116 4.52488 -5.2462 0
M  V30 4792 N 453.909 3.80141 -4.14064 0
M  V30 4793 H 446.06 0.529005 -2.05707 0
M  V30 4794 H 448.323 0.296148 -0.900556 0
M  V30 4795 H 448.029 1.64497 -3.10859 0
M  V30 4796 H 447.903 3.10444 -2.14253 0
M  V30 4797 H 450.29 2.67357 -1.24916 0
M  V30 4798 H 450.371 1.21673 -2.2501 0
M  V30 4799 H 450.015 2.65347 -4.33074 0
M  V30 4800 H 449.945 4.10433 -3.29928 0
M  V30 4801 H 452.436 2.67566 -2.66865 0
M  V30 4802 H 452.749 5.01219 -5.88217 0
M  V30 4803 H 451.094 4.51288 -5.28549 0
M  V30 4804 H 454.285 3.25427 -3.36474 0
M  V30 4805 H 454.458 4.31992 -4.82998 0
M  V30 4806 N 447.864 1.01787 1.20321 0
M  V30 4807 C 448.811 0.589197 2.23153 0
M  V30 4808 C 449.781 -0.391367 1.61423 0
M  V30 4809 O 450.966 -0.290518 1.88575 0
M  V30 4810 C 448.106 -0.0650747 3.45039 0
M  V30 4811 C 447.219 0.960207 4.21194 0
M  V30 4812 C 446.354 0.276854 5.30478 0
M  V30 4813 C 445.393 1.2888 5.98378 0
M  V30 4814 N 444.53 0.632031 6.99249 0
M  V30 4815 H 449.37 1.47071 2.59179 0
M  V30 4816 H 446.907 0.736192 1.27352 0
M  V30 4817 H 448.865 -0.461552 4.14639 0
M  V30 4818 H 447.495 -0.910233 3.09701 0
M  V30 4819 H 446.547 1.47484 3.50646 0
M  V30 4820 H 447.859 1.72977 4.67847 0
M  V30 4821 H 447.013 -0.175056 6.06447 0
M  V30 4822 H 445.752 -0.525004 4.84866 0
M  V30 4823 H 444.757 1.75109 5.21169 0
M  V30 4824 H 445.982 2.09196 6.46076 0
M  V30 4825 H 443.928 -0.149935 6.55829 0
M  V30 4826 H 443.845 1.33964 7.44036 0
M  V30 4827 H 445.113 0.203755 7.79234 0
M  V30 4828 N 449.342 -1.36122 0.79427 0
M  V30 4829 C 450.57 -2.03362 0.380989 0
M  V30 4830 C 450.985 -1.59881 -1.00416 0
M  V30 4831 O 450.342 -0.790515 -1.6449 0
M  V30 4832 C 450.393 -3.58804 0.440649 0
M  V30 4833 O 450.114 -4.007 1.77118 0
M  V30 4834 C 451.615 -4.43296 0.0186117 0
M  V30 4835 H 448.835 -0.652526 0.156367 0
M  V30 4836 H 451.379 -1.73998 1.07447 0
M  V30 4837 H 449.534 -3.8686 -0.204458 0
M  V30 4838 H 449.948 -4.95309 1.72538 0
M  V30 4839 H 451.422 -5.51887 0.111488 0
M  V30 4840 H 451.899 -4.2684 -1.03461 0
M  V30 4841 H 452.505 -4.20512 0.636395 0
M  V30 4842 N 450.82 -0.546701 -1.47814 0
M  V30 4843 C 452.067 -0.0187407 -2.02491 0
M  V30 4844 C 452.395 1.32685 -1.42215 0
M  V30 4845 O 451.65 1.87413 -0.563454 0
M  V30 4846 C 451.949 0.134869 -3.57145 0
M  V30 4847 C 451.615 -1.13849 -4.3629 0
M  V30 4848 C 450.277 -1.48743 -4.57634 0
M  V30 4849 C 452.629 -1.98277 -4.82012 0
M  V30 4850 C 449.957 -2.67932 -5.21948 0
M  V30 4851 C 452.309 -3.16659 -5.4764 0
M  V30 4852 C 450.973 -3.51879 -5.67219 0
M  V30 4853 H 450.243 -0.0068577 -0.740968 0
M  V30 4854 H 452.89 -0.716097 -1.77607 0
M  V30 4855 H 451.195 0.915118 -3.80963 0
M  V30 4856 H 452.892 0.558556 -3.97091 0
M  V30 4857 H 449.482 -0.856767 -4.19949 0
M  V30 4858 H 453.666 -1.72628 -4.6531 0
M  V30 4859 H 448.922 -2.95401 -5.35302 0
M  V30 4860 H 453.096 -3.82374 -5.82033 0
M  V30 4861 H 450.723 -4.44331 -6.16825 0
M  V30 4862 N 452.299 1.55045 -0.282633 0
M  V30 4863 C 453.246 2.22822 0.601566 0
M  V30 4864 C 454.216 1.20431 1.14392 0
M  V30 4865 O 455.401 1.48996 1.19184 0
M  V30 4866 C 452.541 2.95873 1.77632 0
M  V30 4867 C 451.654 4.12999 1.26711 0
M  V30 4868 C 450.789 4.73676 2.40426 0
M  V30 4869 C 449.828 5.82981 1.86545 0
M  V30 4870 N 448.965 6.3769 2.93762 0
M  V30 4871 H 453.805 2.97995 0.0169528 0
M  V30 4872 H 451.342 1.471 -0.00339964 0
M  V30 4873 H 453.3 3.36447 2.46697 0
M  V30 4874 H 451.93 2.2311 2.33285 0
M  V30 4875 H 450.982 3.77494 0.469314 0
M  V30 4876 H 452.294 4.91803 0.832518 0
M  V30 4877 H 451.448 5.17008 3.17471 0
M  V30 4878 H 450.187 3.94164 2.87203 0
M  V30 4879 H 449.192 5.39092 1.07983 0
M  V30 4880 H 450.417 6.64366 1.40694 0
M  V30 4881 H 448.363 5.61069 3.39908 0
M  V30 4882 H 448.28 7.11788 2.54744 0
M  V30 4883 H 449.548 6.8568 3.7076 0
M  V30 4884 N 453.777 0.010035 1.57597 0
M  V30 4885 C 454.687 -0.994226 2.12491 0
M  V30 4886 C 455.703 -1.37013 1.07254 0
M  V30 4887 O 456.879 -1.45542 1.3921 0
M  V30 4888 C 453.944 -2.2642 2.62555 0
M  V30 4889 C 453.005 -1.95049 3.82432 0
M  V30 4890 C 452.238 -3.15991 4.30099 0
M  V30 4891 O 452.461 -4.28015 3.7704 0
M  V30 4892 O 451.395 -2.99403 5.22151 0
M  V30 4893 H 455.221 -0.557549 2.98538 0
M  V30 4894 H 452.806 -0.209413 1.47925 0
M  V30 4895 H 454.688 -3.01009 2.9491 0
M  V30 4896 H 453.363 -2.69306 1.796 0
M  V30 4897 H 452.27 -1.17904 3.55034 0
M  V30 4898 H 453.603 -1.56992 4.66491 0
M  V30 4899 N 455.255 -1.55392 -0.262866 0
M  V30 4900 C 456.504 -1.75679 -0.990943 0
M  V30 4901 C 456.817 -0.57097 -1.87081 0
M  V30 4902 O 458.023 -0.656486 -2.63444 0
M  V30 4903 C 456.479 -3.10964 -1.81188 0
M  V30 4904 C 456.087 -4.37146 -0.980188 0
M  V30 4905 C 457.831 -3.40597 -2.53365 0
M  V30 4906 C 455.738 -5.63466 -1.7961 0
M  V30 4907 H 454.668 -0.654868 -0.373716 0
M  V30 4908 H 457.319 -1.81841 -0.246203 0
M  V30 4909 H 455.701 -2.98867 -2.59797 0
M  V30 4910 H 456.875 -4.60187 -0.237558 0
M  V30 4911 H 455.19 -4.14731 -0.372497 0
M  V30 4912 H 457.787 -4.32186 -3.14833 0
M  V30 4913 H 458.13 -2.6119 -3.24169 0
M  V30 4914 H 458.663 -3.53838 -1.81779 0
M  V30 4915 H 455.402 -6.4565 -1.13209 0
M  V30 4916 H 454.922 -5.44552 -2.51443 0
M  V30 4917 H 456.601 -6.02139 -2.36723 0
M  V30 4918 N 456.733 0.527833 -1.48498 0
M  V30 4919 C 457.982 1.28003 -1.55878 0
M  V30 4920 C 458.295 1.9414 -0.238577 0
M  V30 4921 O 459.501 2.7083 -0.190643 0
M  V30 4922 C 457.957 2.32272 -2.74914 0
M  V30 4923 C 457.565 1.72196 -4.13585 0
M  V30 4924 C 459.309 3.08488 -2.91608 0
M  V30 4925 C 457.216 2.74417 -5.23879 0
M  V30 4926 H 456.146 0.481413 -0.580308 0
M  V30 4927 H 458.797 0.557195 -1.74836 0
M  V30 4928 H 457.179 3.07601 -2.49395 0
M  V30 4929 H 458.353 1.03041 -4.49132 0
M  V30 4930 H 456.668 1.08464 -4.02025 0
M  V30 4931 H 459.265 3.84879 -3.71177 0
M  V30 4932 H 459.608 3.64481 -2.01145 0
M  V30 4933 H 460.141 2.40274 -3.17038 0
M  V30 4934 H 456.88 2.23242 -6.16314 0
M  V30 4935 H 456.4 3.41893 -4.92818 0
M  V30 4936 H 458.079 3.37362 -5.52083 0
M  V30 4937 N 458.211 1.37122 0.776871 0
M  V30 4938 C 459.451 1.33441 1.54831 0
M  V30 4939 C 459.815 -0.0818963 1.91825 0
M  V30 4940 O 461.016 -0.24338 2.67696 0
M  V30 4941 C 459.287 2.24267 2.78279 0
M  V30 4942 S 460.846 2.38389 3.68397 0
M  V30 4943 H 457.664 0.473791 0.530135 0
M  V30 4944 H 460.266 1.7282 0.913968 0
M  V30 4945 H 458.97 3.261 2.49173 0
M  V30 4946 H 458.501 1.85953 3.46677 0
M  V30 4947 H 460.516 1.59068 4.70013 0
M  V30 4948 N 459.689 -1.00246 1.21608 0
M  V30 4949 C 460.929 -1.75589 1.04631 0
M  V30 4950 C 461.293 -1.87513 -0.412648 0
M  V30 4951 O 462.494 -2.59444 -0.703003 0
M  V30 4952 C 460.765 -3.12893 1.72722 0
M  V30 4953 S 462.324 -4.04095 1.71034 0
M  V30 4954 H 459.142 -0.604133 0.374892 0
M  V30 4955 H 461.744 -1.19927 1.54395 0
M  V30 4956 H 460.448 -3.0185 2.78055 0
M  V30 4957 H 459.979 -3.73628 1.23149 0
M  V30 4958 H 461.994 -4.9045 0.753231 0
M  V30 4959 N 461.167 -1.02423 -1.1978 0
M  V30 4960 C 462.583 -0.740459 -1.41384 0
M  V30 4961 C 462.783 0.676827 -1.89793 0
M  V30 4962 O 461.839 1.4435 -2.0717 0
M  V30 4963 C 463.152 -1.77264 -2.42895 0
M  V30 4964 C 464.7 -1.79165 -2.56649 0
M  V30 4965 C 465.175 -2.8133 -3.6141 0
M  V30 4966 N 466.666 -2.80118 -3.68901 0
M  V30 4967 C 467.401 -3.55824 -4.49641 0
M  V30 4968 N 466.897 -4.41231 -5.34123 0
M  V30 4969 N 468.69 -3.44387 -4.44246 0
M  V30 4970 H 460.841 -1.9391 -0.866764 0
M  V30 4971 H 463.104 -0.838074 -0.443098 0
M  V30 4972 H 462.81 -2.7884 -2.14339 0
M  V30 4973 H 462.684 -1.59108 -3.42001 0
M  V30 4974 H 465.071 -0.782702 -2.84531 0
M  V30 4975 H 465.152 -2.01396 -1.57713 0
M  V30 4976 H 464.796 -3.82394 -3.34271 0
M  V30 4977 H 464.726 -2.56359 -4.59986 0
M  V30 4978 H 467.217 -2.1817 -3.08562 0
M  V30 4979 H 467.53 -4.95747 -5.92836 0
M  V30 4980 H 465.875 -4.45306 -5.33599 0
M  V30 4981 H 469.066 -2.7708 -3.77285 0
M  V30 4982 H 469.239 -4.0364 -5.06931 0
M  V30 4983 N 462.645 1.35699 -0.801477 0
M  V30 4984 C 463.893 1.9852 -0.37871 0
M  V30 4985 C 464.214 1.63907 1.05638 0
M  V30 4986 O 463.484 0.919013 1.73006 0
M  V30 4987 H 462.064 0.734322 -0.137042 0
M  V30 4988 H 464.726 1.65697 -1.02619 0
M  V30 4989 H 463.822 3.08382 -0.480284 0
M  V30 4990 N 464.123 0.554532 1.47522 0
M  V30 4991 C 465.37 0.029479 2.02479 0
M  V30 4992 C 465.698 -1.31929 1.42916 0
M  V30 4993 O 464.953 -1.87112 0.573385 0
M  V30 4994 C 465.252 -0.115927 3.57212 0
M  V30 4995 C 464.918 1.16161 4.3568 0
M  V30 4996 C 463.58 1.51168 4.56839 0
M  V30 4997 C 465.932 2.0083 4.80954 0
M  V30 4998 C 463.26 2.70696 5.2052 0
M  V30 4999 C 465.612 3.19559 5.45953 0
M  V30 5000 C 464.276 3.54882 5.65345 0
M  V30 5001 H 463.546 0.0107871 0.740921 0
M  V30 5002 H 466.193 0.725506 1.77225 0
M  V30 5003 H 464.498 -0.894902 3.81443 0
M  V30 5004 H 466.195 -0.53749 3.97381 0
M  V30 5005 H 462.785 0.879026 4.19489 0
M  V30 5006 H 466.969 1.75093 4.64388 0
M  V30 5007 H 462.225 2.98236 5.33728 0
M  V30 5008 H 466.399 3.85456 5.79997 0
M  V30 5009 H 464.026 4.47596 6.1446 0
M  V30 5010 N 465.601 -1.54893 0.290851 0
M  V30 5011 C 467.017 -1.59476 -0.0628432 0
M  V30 5012 C 467.217 -1.30795 -1.5328 0
M  V30 5013 O 466.273 -1.07644 -2.28406 0
M  V30 5014 C 467.586 -2.98928 0.325962 0
M  V30 5015 C 469.134 -3.11799 0.273882 0
M  V30 5016 C 469.609 -4.53544 0.637359 0
M  V30 5017 N 471.1 -4.59433 0.589507 0
M  V30 5018 C 471.835 -5.67164 0.84335 0
M  V30 5019 N 471.331 -6.82975 1.16263 0
M  V30 5020 N 473.124 -5.56786 0.771091 0
M  V30 5021 H 465.275 -1.71798 1.24896 0
M  V30 5022 H 467.538 -0.801879 0.505663 0
M  V30 5023 H 467.244 -3.24805 1.34887 0
M  V30 5024 H 467.118 -3.75793 -0.325441 0
M  V30 5025 H 469.505 -2.85677 -0.739765 0
M  V30 5026 H 469.586 -2.37112 0.959766 0
M  V30 5027 H 469.23 -4.80394 1.64877 0
M  V30 5028 H 469.16 -5.26553 -0.0704866 0
M  V30 5029 H 471.651 -3.76245 0.353252 0
M  V30 5030 H 471.964 -7.61048 1.34257 0
M  V30 5031 H 470.309 -6.84552 1.20057 0
M  V30 5032 H 473.5 -4.65187 0.521383 0
M  V30 5033 H 473.673 -6.40664 0.972295 0
M  V30 5034 N 467.08 -0.0183926 -1.57589 0
M  V30 5035 C 468.329 0.66185 -1.90532 0
M  V30 5036 C 468.642 1.73904 -0.895366 0
M  V30 5037 O 469.848 2.47518 -1.11566 0
M  V30 5038 C 468.304 1.22844 -3.38286 0
M  V30 5039 C 467.912 0.185103 -4.47617 0
M  V30 5040 C 469.656 1.88581 -3.80312 0
M  V30 5041 C 467.563 0.762723 -5.86461 0
M  V30 5042 H 466.493 0.250972 -0.711006 0
M  V30 5043 H 469.144 -0.0819435 -1.83317 0
M  V30 5044 H 467.526 2.0235 -3.40398 0
M  V30 5045 H 468.7 -0.58671 -4.5705 0
M  V30 5046 H 467.015 -0.372889 -4.14727 0
M  V30 5047 H 469.612 2.32735 -4.81392 0
M  V30 5048 H 469.955 2.72408 -3.14801 0
M  V30 5049 H 470.488 1.15782 -3.80578 0
M  V30 5050 H 467.227 -0.0371713 -6.55489 0
M  V30 5051 H 466.747 1.50327 -5.80656 0
M  V30 5052 H 468.426 1.25576 -6.34697 0
M  V30 5053 N 468.558 1.5553 0.254621 0
M  V30 5054 C 469.521 1.88872 1.29846 0
M  V30 5055 C 470.521 0.764591 1.41459 0
M  V30 5056 O 471.711 1.03265 1.40293 0
M  V30 5057 C 468.843 2.11032 2.67728 0
M  V30 5058 H 470.036 2.82201 1.01502 0
M  V30 5059 H 467.589 1.48303 0.493556 0
M  V30 5060 H 468.324 1.20146 3.01223 0
M  V30 5061 H 468.109 2.92895 2.60682 0
M  V30 5062 H 469.599 2.38038 3.43115 0
M  V30 5063 N 470.036 -0.519951 1.48776 0
M  V30 5064 C 471.276 -1.2856 1.58908 0
M  V30 5065 C 471.64 -1.90212 0.261418 0
M  V30 5066 O 472.841 -2.67746 0.237791 0
M  V30 5067 C 471.112 -2.33836 2.70288 0
M  V30 5068 S 472.671 -3.19992 3.0025 0
M  V30 5069 H 469.489 -0.43717 0.560717 0
M  V30 5070 H 472.091 -0.591205 1.86346 0
M  V30 5071 H 470.795 -1.87041 3.653 0
M  V30 5072 H 470.326 -3.07969 2.44783 0
M  V30 5073 H 472.341 -4.34122 2.40317 0
M  V30 5074 N 471.514 -1.37532 -0.769588 0
M  V30 5075 C 472.739 -1.36231 -1.56384 0
M  V30 5076 C 473.164 0.0495849 -1.88035 0
M  V30 5077 O 472.522 1.02723 -1.49391 0
M  V30 5078 C 472.57 -2.20986 -2.84952 0
M  V30 5079 O 471.674 -1.61597 -3.79421 0
M  V30 5080 H 471.015 -0.465387 -0.473615 0
M  V30 5081 H 473.545 -1.81085 -0.952342 0
M  V30 5082 H 473.555 -2.34277 -3.34034 0
M  V30 5083 H 472.23 -3.23612 -2.61243 0
M  V30 5084 H 470.807 -1.57359 -3.38072 0
M  V30 5085 N 472.992 0.995999 -1.22138 0
M  V30 5086 C 474.239 1.7351 -1.04406 0
M  V30 5087 C 474.567 1.89884 0.421244 0
M  V30 5088 O 473.822 1.43683 1.32867 0
M  V30 5089 C 474.121 3.14553 -1.6968 0
M  V30 5090 C 473.787 3.18102 -3.19565 0
M  V30 5091 C 472.449 3.18778 -3.60464 0
M  V30 5092 C 474.801 3.14636 -4.15516 0
M  V30 5093 C 472.129 3.13684 -4.95801 0
M  V30 5094 C 474.481 3.11084 -5.50826 0
M  V30 5095 C 473.145 3.10074 -5.91109 0
M  V30 5096 H 472.415 0.634916 -0.38205 0
M  V30 5097 H 475.062 1.1667 -1.51857 0
M  V30 5098 H 473.367 3.74682 -1.14546 0
M  V30 5099 H 475.064 3.70477 -1.53454 0
M  V30 5100 H 471.654 3.18324 -2.86998 0
M  V30 5101 H 475.838 3.13266 -3.84939 0
M  V30 5102 H 471.094 3.11245 -5.26247 0
M  V30 5103 H 475.268 3.07357 -6.24904 0
M  V30 5104 H 472.895 3.05882 -6.95946 0
M  V30 5105 N 474.47 1.03057 1.19235 0
M  V30 5106 C 475.881 0.757449 1.70645 0
M  V30 5107 C 476.232 -0.722735 1.82403 0
M  V30 5108 O 475.357 -1.56325 1.49638 0
M  V30 5109 C 475.952 1.36833 3.09939 0
M  V30 5110 C 474.511 1.14375 3.58602 0
M  V30 5111 C 473.658 1.46533 2.35422 0
M  V30 5112 H 476.609 1.19828 1.04052 0
M  V30 5113 H 476.63 0.766184 3.72706 0
M  V30 5114 H 476.142 2.44562 3.01349 0
M  V30 5115 H 474.243 0.0847542 3.72504 0
M  V30 5116 H 474.356 1.83366 4.42622 0
M  V30 5117 H 472.72 0.884712 2.38841 0
M  V30 5118 H 473.503 2.55349 2.2946 0
M  V30 5119 N 475.948 -1.35272 0.808662 0
M  V30 5120 C 477.364 -1.51806 0.492653 0
M  V30 5121 C 477.564 -1.7574 -0.985778 0
M  V30 5122 O 476.62 -1.80003 -1.77074 0
M  V30 5123 C 477.933 -2.69202 1.33981 0
M  V30 5124 C 479.481 -2.8308 1.33547 0
M  V30 5125 C 479.956 -4.03502 2.16679 0
M  V30 5126 N 481.447 -4.10684 2.14227 0
M  V30 5127 C 482.182 -5.02984 2.75308 0
M  V30 5128 N 481.678 -6.00603 3.45323 0
M  V30 5129 N 483.471 -4.95746 2.64938 0
M  V30 5130 H 475.622 -1.17993 1.76611 0
M  V30 5131 H 477.885 -0.577476 0.751814 0
M  V30 5132 H 477.591 -2.581 2.38909 0
M  V30 5133 H 477.465 -3.63854 0.994491 0
M  V30 5134 H 479.852 -2.93631 0.294036 0
M  V30 5135 H 479.933 -1.89278 1.72068 0
M  V30 5136 H 479.577 -3.93711 3.20864 0
M  V30 5137 H 479.507 -4.96489 1.75517 0
M  V30 5138 H 481.998 -3.40802 1.63285 0
M  V30 5139 H 482.311 -6.67633 3.89212 0
M  V30 5140 H 480.656 -6.0077 3.49428 0
M  V30 5141 H 483.847 -4.18439 2.09825 0
M  V30 5142 H 484.02 -5.67487 3.12829 0
M  V30 5143 N 477.426 -0.562348 -1.47226 0
M  V30 5144 C 478.842 -0.222492 -1.58042 0
M  V30 5145 C 479.042 1.27505 -1.56028 0
M  V30 5146 O 478.098 2.05555 -1.46641 0
M  V30 5147 C 479.411 -0.853694 -2.88327 0
M  V30 5148 C 480.959 -0.825397 -3.01921 0
M  V30 5149 C 481.434 -1.43576 -4.34914 0
M  V30 5150 N 482.925 -1.39918 -4.41562 0
M  V30 5151 C 483.66 -1.84103 -5.43041 0
M  V30 5152 N 483.156 -2.36167 -6.51304 0
M  V30 5153 N 484.949 -1.75142 -5.34118 0
M  V30 5154 H 477.1 -1.53525 -1.46778 0
M  V30 5155 H 479.363 -0.640527 -0.698877 0
M  V30 5156 H 479.069 -1.90635 -2.95552 0
M  V30 5157 H 478.943 -0.34977 -3.75575 0
M  V30 5158 H 481.33 0.218583 -2.94289 0
M  V30 5159 H 481.411 -1.36713 -2.16202 0
M  V30 5160 H 481.055 -2.47884 -4.43301 0
M  V30 5161 H 480.985 -0.869427 -5.19373 0
M  V30 5162 H 483.476 -1.0184 -3.63919 0
M  V30 5163 H 483.789 -2.67793 -7.24919 0
M  V30 5164 H 482.134 -2.40181 -6.52179 0
M  V30 5165 H 485.325 -1.34241 -4.48439 0
M  V30 5166 H 485.498 -2.09895 -6.13065 0
M  V30 5167 N 478.904 1.54736 -0.299062 0
M  V30 5168 C 480.181 1.92187 0.363802 0
M  V30 5169 C 480.561 1.22607 1.71845 0
M  V30 5170 O 479.909 0.361141 2.25628 0
M  V30 5171 C 480.119 3.45678 0.480377 0
M  V30 5172 C 481.467 4.17885 0.752147 0
M  V30 5173 O 482.491 3.51702 0.564264 0
M  V30 5174 O 481.35 5.35048 1.11294 0
M  V30 5175 H 478.444 0.801681 0.203066 0
M  V30 5176 H 480.99 1.66115 -0.346978 0
M  V30 5177 H 479.762 3.88443 -0.471999 0
M  V30 5178 H 479.385 3.77779 1.2397 0
M  V30 5179 O 480.421 0.165592 1.60649 0
M  V30 5180 H 481.112 -0.425141 1.88977 0
M  V30 END ATOM
M  V30 BEGIN BOND
M  V30 END BOND
M  V30 END CTAB
M  END
$$$$
