drugbank_target|P33447 Tyrosine aminotransferase (DB04083)
 OpenBabel12092120283D

  0  0  0     0  0            999 V3000
M  V30 BEGIN CTAB
M  V30 COUNTS 6479 6556 0 0 0
M  V30 BEGIN ATOM
M  V30 1 H -0.908 1.98254 -0.117106 0
M  V30 2 N 0 1.576 0 0
M  V30 3 C 0.933 2.03868 1.02534 0
M  V30 4 C 1.911 0.928543 1.3348 0
M  V30 5 O 3.095 1.19667 1.45644 0
M  V30 6 C 0.222 2.43627 2.35294 0
M  V30 7 C -0.732 3.65373 2.2001 0
M  V30 8 S 0.101 5.13292 1.52614 0
M  V30 9 C 1.257 5.56322 2.86805 0
M  V30 10 H 1.49 2.90518 0.631377 0
M  V30 11 H -0.977 1.52953 0.210867 0
M  V30 12 H 0.981 2.67203 3.11629 0
M  V30 13 H -0.358 1.57376 2.7183 0
M  V30 14 H -1.165 3.90944 3.18086 0
M  V30 15 H -1.563 3.418 1.51819 0
M  V30 16 H 0.729 5.58782 3.83104 0
M  V30 17 H 1.672 6.56266 2.65933 0
M  V30 18 H 2.08 4.83886 2.90714 0
M  V30 19 N 1.4781 -0.272755 1.55222 0
M  V30 20 C 2.7031 -1.02683 1.80197 0
M  V30 21 C 3.1281 -1.79142 0.573551 0
M  V30 22 O 2.4861 -1.74917 -0.476849 0
M  V30 23 C 2.5341 -1.9609 3.02624 0
M  V30 24 O 1.6381 -3.04863 2.77727 0
M  V30 25 H 0.9791 -0.293557 0.595584 0
M  V30 26 H 3.5091 -0.30159 2.02365 0
M  V30 27 H 3.5191 -2.38039 3.31363 0
M  V30 28 H 2.1941 -1.39851 3.91682 0
M  V30 29 H 0.7711 -2.67228 2.60084 0
M  V30 30 N 2.9562 -1.48159 -0.537278 0
M  V30 31 C 4.1812 -1.59707 -1.32319 0
M  V30 32 C 4.6062 -0.254859 -1.86365 0
M  V30 33 O 3.9642 0.772378 -1.64024 0
M  V30 34 C 4.0122 -2.6412 -2.45505 0
M  V30 35 O 3.1162 -2.20774 -3.48328 0
M  V30 36 H 2.4572 -0.535791 -0.392204 0
M  V30 37 H 4.9872 -1.94092 -0.647268 0
M  V30 38 H 4.9972 -2.85166 -2.91795 0
M  V30 39 H 3.6722 -3.61567 -2.05528 0
M  V30 40 H 2.2492 -2.09911 -3.08207 0
M  V30 41 N 4.4343 0.785586 -1.36625 0
M  V30 42 C 5.6803 1.5452 -1.32269 0
M  V30 43 C 6.0353 1.92159 0.0962266 0
M  V30 44 O 5.3283 1.60158 1.05167 0
M  V30 45 C 5.5223 2.83007 -2.1827 0
M  V30 46 C 5.3513 2.57925 -3.68382 0
M  V30 47 C 4.1213 2.52752 -4.37544 0
M  V30 48 C 6.3193 2.26861 -4.61561 0
M  V30 49 N 4.3013 2.19608 -5.73276 0
M  V30 50 C 5.6723 2.03738 -5.85569 0
M  V30 51 C 7.7273 2.129 -4.50087 0
M  V30 52 C 6.4303 1.68065 -6.9939 0
M  V30 53 C 8.4563 1.78626 -5.63779 0
M  V30 54 C 7.8183 1.56353 -6.86828 0
M  V30 55 H 3.9173 0.566301 -0.539283 0
M  V30 56 H 6.5013 0.917736 -1.71714 0
M  V30 57 H 4.6723 3.43614 -1.81063 0
M  V30 58 H 6.4043 3.48775 -2.05275 0
M  V30 59 H 3.1593 2.6813 -3.90389 0
M  V30 60 H 3.5833 2.05771 -6.44971 0
M  V30 61 H 8.2253 2.28808 -3.55537 0
M  V30 62 H 5.9433 1.50895 -7.93887 0
M  V30 63 H 9.5293 1.68502 -5.56865 0
M  V30 64 H 8.4093 1.30223 -7.73312 0
M  V30 65 N 5.9124 1.20967 1.01018 0
M  V30 66 C 7.1894 0.93264 1.71934 0
M  V30 67 C 7.5694 -0.55692 2.03621 0
M  V30 68 O 6.9174 -1.52035 1.7058 0
M  V30 69 C 7.1274 1.81233 2.98254 0
M  V30 70 C 8.4754 2.05804 3.71389 0
M  V30 71 O 9.4994 1.78539 3.08225 0
M  V30 72 O 8.3584 2.51888 4.84989 0
M  V30 73 H 5.4524 0.349272 0.749625 0
M  V30 74 H 7.9984 1.31871 1.06808 0
M  V30 75 H 6.7704 2.82067 2.71208 0
M  V30 76 H 6.3934 1.42674 3.7112 0
M  V30 77 N 7.3905 -1.2043 1.01659 0
M  V30 78 C 8.6365 -1.90079 0.706963 0
M  V30 79 C 8.9695 -1.78648 -0.761474 0
M  V30 80 O 8.2445 -1.17069 -1.55323 0
M  V30 81 C 8.5275 -3.41469 1.14327 0
M  V30 82 C 8.3805 -3.61833 2.67201 0
M  V30 83 C 9.6995 -4.34261 0.714529 0
M  V30 84 H 6.8185 -0.690254 0.2583 0
M  V30 85 H 9.4605 -1.41826 1.26433 0
M  V30 86 H 7.6105 -3.82696 0.669056 0
M  V30 87 H 9.2825 -3.2986 3.22475 0
M  V30 88 H 7.5255 -3.05304 3.08175 0
M  V30 89 H 8.1965 -4.67955 2.92783 0
M  V30 90 H 10.6725 -4.00682 1.12221 0
M  V30 91 H 9.5485 -5.38806 1.04784 0
M  V30 92 H 9.8095 -4.40431 -0.383799 0
M  V30 93 N 8.8686 -0.792821 -1.36206 0
M  V30 94 C 10.0936 -0.377701 -2.03932 0
M  V30 95 C 10.5186 0.998947 -1.59382 0
M  V30 96 O 9.8766 1.64421 -0.763903 0
M  V30 97 C 9.9246 -0.453635 -3.57735 0
M  V30 98 O 9.0286 0.538151 -4.08874 0
M  V30 99 H 8.3696 -0.159855 -0.644471 0
M  V30 100 H 10.8996 -1.07488 -1.7409 0
M  V30 101 H 10.9096 -0.318464 -4.06755 0
M  V30 102 H 9.5846 -1.45784 -3.89512 0
M  V30 103 H 8.1616 0.364359 -3.71116 0
M  V30 104 N 10.3467 1.47872 -0.545128 0
M  V30 105 C 11.2797 2.2675 0.256885 0
M  V30 106 C 12.2577 1.33293 0.931228 0
M  V30 107 O 13.4417 1.62657 0.95262 0
M  V30 108 C 10.5687 3.09976 1.36501 0
M  V30 109 C 9.6147 4.1892 0.800496 0
M  V30 110 S 10.4477 5.34397 -0.343505 0
M  V30 111 C 11.6037 6.21186 0.766733 0
M  V30 112 H 11.8367 2.94425 -0.412479 0
M  V30 113 H 9.3697 1.50806 -0.331204 0
M  V30 114 H 11.3277 3.585 1.9997 0
M  V30 115 H 9.9887 2.41686 2.00616 0
M  V30 116 H 9.1817 4.76836 1.63227 0
M  V30 117 H 8.7837 3.73215 0.242217 0
M  V30 118 H 11.0757 6.56804 1.66178 0
M  V30 119 H 12.0187 7.07742 0.225204 0
M  V30 120 H 12.4267 5.54574 1.05396 0
M  V30 121 N 11.8248 0.280983 1.55075 0
M  V30 122 C 13.0498 -0.340154 2.04592 0
M  V30 123 C 13.4748 -1.48246 1.15779 0
M  V30 124 O 12.8328 -1.80614 0.15761 0
M  V30 125 C 12.8808 -0.793104 3.5177 0
M  V30 126 O 11.9848 -1.89981 3.66034 0
M  V30 127 H 11.3258 -0.0694289 0.66036 0
M  V30 128 H 13.8558 0.416993 2.00306 0
M  V30 129 H 13.8658 -1.08729 3.93245 0
M  V30 130 H 12.5408 0.0426163 4.15878 0
M  V30 131 H 11.1178 -1.60771 3.36463 0
M  V30 132 N 13.3029 -1.57598 0.00835791 0
M  V30 133 C 14.2509 -2.10078 -0.998508 0
M  V30 134 C 15.2449 -1.02262 -1.35051 0
M  V30 135 O 16.4509 -1.20719 -1.33518 0
M  V30 136 H 12.8259 -0.670903 -0.339696 0
M  V30 137 H 14.7969 -2.93648 -0.530398 0
M  V30 138 C 13.5459 -2.62615 -2.27879 0
M  V30 139 H 12.8689 -3.45213 -2.01662 0
M  V30 140 H 14.3089 -3.03004 -2.96588 0
M  V30 141 C 12.7679 -1.54407 -2.99433 0
M  V30 142 O 13.2979 -0.931812 -3.90743 0
M  V30 143 N 11.5039 -1.2695 -2.61404 0
M  V30 144 H 11.0509 -1.76924 -1.87232 0
M  V30 145 H 11.0089 -0.547704 -3.09593 0
M  V30 146 N 14.781 0.264519 -1.55364 0
M  V30 147 C 15.731 1.32966 -1.85214 0
M  V30 148 C 16.715 1.44306 -0.711653 0
M  V30 149 O 17.907 1.47844 -0.973192 0
M  V30 150 C 15.036 2.68839 -2.13495 0
M  V30 151 C 14.122 2.61575 -3.33825 0
M  V30 152 N 14.513 2.23933 -4.53528 0
M  V30 153 C 12.811 2.92621 -3.36584 0
M  V30 154 C 13.512 2.26868 -5.35636 0
M  V30 155 N 12.488 2.65677 -4.74254 0
M  V30 156 H 16.29 1.02884 -2.75304 0
M  V30 157 H 13.804 0.473157 -1.55354 0
M  V30 158 H 15.801 3.45685 -2.33039 0
M  V30 159 H 14.461 2.99802 -1.24694 0
M  V30 160 H 15.472 1.95769 -4.79474 0
M  V30 161 H 12.149 3.2824 -2.58002 0
M  V30 162 H 13.539 2.00254 -6.41364 0
M  V30 163 N 16.2591 1.48442 0.529413 0
M  V30 164 C 17.2221 1.62524 1.61612 0
M  V30 165 C 18.2221 0.498509 1.52877 0
M  V30 166 O 19.4121 0.76431 1.56537 0
M  V30 167 C 16.5441 1.59597 3.01233 0
M  V30 168 H 17.7371 2.59423 1.50465 0
M  V30 169 H 15.2901 1.37047 0.751514 0
M  V30 170 H 16.0251 0.641781 3.17886 0
M  V30 171 H 15.8101 2.41397 3.08982 0
M  V30 172 H 17.3001 1.72646 3.80241 0
M  V30 173 N 17.7372 -0.778329 1.37039 0
M  V30 174 C 18.9852 -1.53361 1.31623 0
M  V30 175 C 19.3062 -1.94739 -0.100831 0
M  V30 176 O 18.5762 -1.65797 -1.04347 0
M  V30 177 H 17.1562 -0.568794 0.484234 0
M  V30 178 H 19.8182 -0.926742 1.71457 0
M  V30 179 H 18.9142 -2.43606 1.95096 0
M  V30 180 N 19.2153 -1.21501 -1.00376 0
M  V30 181 C 20.1453 -0.999478 -2.11028 0
M  V30 182 C 21.1263 0.0759671 -1.6993 0
M  V30 183 O 22.3113 -0.0841106 -1.94018 0
M  V30 184 C 19.4413 -0.564709 -3.42678 0
M  V30 185 C 18.3953 -1.58486 -3.97576 0
M  V30 186 C 17.7213 -1.00628 -5.25146 0
M  V30 187 C 19.0213 -2.97204 -4.29496 0
M  V30 188 H 20.7153 -1.92495 -2.29317 0
M  V30 189 H 18.2613 -0.92693 -1.102 0
M  V30 190 H 20.2143 -0.401091 -4.19487 0
M  V30 191 H 18.9383 0.396411 -3.24185 0
M  V30 192 H 17.5973 -1.73606 -3.22888 0
M  V30 193 H 17.2453 -0.0368439 -5.02987 0
M  V30 194 H 16.9453 -1.68771 -5.62841 0
M  V30 195 H 18.4693 -0.854015 -6.04598 0
M  V30 196 H 19.8833 -2.8552 -4.97143 0
M  V30 197 H 18.2803 -3.62372 -4.78338 0
M  V30 198 H 19.3503 -3.47956 -3.3772 0
M  V30 199 N 20.6934 1.19889 -1.02296 0
M  V30 200 C 21.9394 1.89701 -0.717033 0
M  V30 201 C 22.2724 1.7905 0.751989 0
M  V30 202 O 21.5474 1.17891 1.547 0
M  V30 203 C 21.8304 3.40858 -1.16136 0
M  V30 204 C 21.6834 3.60411 -2.69117 0
M  V30 205 C 23.0024 4.33876 -0.737549 0
M  V30 206 H 20.1214 0.688874 -0.261957 0
M  V30 207 H 22.7634 1.41154 -1.27183 0
M  V30 208 H 20.9134 3.82335 -0.689342 0
M  V30 209 H 22.5854 3.28145 -3.2422 0
M  V30 210 H 20.8284 3.03665 -3.0979 0
M  V30 211 H 21.4994 4.66396 -2.95261 0
M  V30 212 H 23.9754 4.00081 -1.14344 0
M  V30 213 H 22.8514 5.38242 -1.0764 0
M  V30 214 H 23.1124 4.40628 0.360436 0
M  V30 215 N 22.1715 0.800033 1.35784 0
M  V30 216 C 23.4185 0.377342 1.98953 0
M  V30 217 C 23.7465 -1.05378 1.6348 0
M  V30 218 O 23.0015 -1.74459 0.886707 0
M  V30 219 C 23.3005 0.500276 3.53881 0
M  V30 220 C 22.9665 1.89375 4.09204 0
M  V30 221 C 21.6285 2.27499 4.24025 0
M  V30 222 C 23.9805 2.8057 4.39238 0
M  V30 223 C 21.3085 3.562 4.66195 0
M  V30 224 C 23.6605 4.0871 4.82844 0
M  V30 225 C 22.3245 4.46843 4.95871 0
M  V30 226 H 21.5945 0.138079 0.728021 0
M  V30 227 H 24.2415 1.01955 1.62103 0
M  V30 228 H 22.5465 -0.225405 3.91151 0
M  V30 229 H 24.2435 0.154097 4.00704 0
M  V30 230 H 20.8335 1.58753 3.98115 0
M  V30 231 H 25.0175 2.52367 4.27346 0
M  V30 232 H 20.2735 3.85602 4.74469 0
M  V30 233 H 24.4475 4.79481 5.05046 0
M  V30 234 H 22.0745 5.46623 5.28306 0
M  V30 235 N 23.6496 -1.47581 0.552962 0
M  V30 236 C 24.5976 -2.31648 -0.21023 0
M  V30 237 C 25.5916 -1.42663 -0.913432 0
M  V30 238 O 26.7976 -1.5945 -0.835201 0
M  V30 239 H 23.1726 -0.746989 -0.0866676 0
M  V30 240 H 25.1436 -2.93869 0.518051 0
M  V30 241 C 23.8926 -3.25226 -1.22976 0
M  V30 242 H 23.2156 -3.93658 -0.698077 0
M  V30 243 H 24.6556 -3.86889 -1.73473 0
M  V30 244 C 23.1146 -2.48448 -2.27542 0
M  V30 245 O 23.6446 -2.22585 -3.34393 0
M  V30 246 N 21.8506 -2.09532 -2.01357 0
M  V30 247 H 21.3976 -2.30765 -1.14478 0
M  V30 248 H 21.3556 -1.58476 -2.71538 0
M  V30 249 N 25.1277 -0.289203 -1.54924 0
M  V30 250 C 26.5387 0.205791 -1.85562 0
M  V30 251 C 26.8897 1.54351 -1.2112 0
M  V30 252 O 26.0147 2.10435 -0.504601 0
M  V30 253 C 26.6097 0.380177 -3.3666 0
M  V30 254 C 25.1687 0.819395 -3.67373 0
M  V30 255 C 24.3157 -0.079159 -2.77187 0
M  V30 256 H 27.2667 -0.510577 -1.50262 0
M  V30 257 H 27.2877 1.21659 -3.60526 0
M  V30 258 H 26.7997 -0.593589 -3.83534 0
M  V30 259 H 24.9007 1.80413 -3.26009 0
M  V30 260 H 25.0137 0.646957 -4.74712 0
M  V30 261 H 23.3777 0.439565 -2.50878 0
M  V30 262 H 24.1607 -1.04906 -3.26878 0
M  V30 263 N 26.6058 1.57591 -0.0167156 0
M  V30 264 C 27.8548 1.90461 0.663877 0
M  V30 265 C 28.1678 0.893515 1.73999 0
M  V30 266 O 29.3738 1.11302 2.47637 0
M  V30 267 C 27.8298 3.38155 1.23204 0
M  V30 268 C 27.4378 4.47597 0.189866 0
M  V30 269 C 29.1818 3.80111 1.88986 0
M  V30 270 C 27.0888 5.86379 0.768964 0
M  V30 271 H 26.0188 0.710738 0.251729 0
M  V30 272 H 28.6698 1.83326 -0.0799926 0
M  V30 273 H 27.0518 3.40182 2.02712 0
M  V30 274 H 28.2258 4.57112 -0.581846 0
M  V30 275 H 26.5408 4.14766 -0.368475 0
M  V30 276 H 29.1378 4.81145 2.33247 0
M  V30 277 H 29.4808 3.14511 2.72743 0
M  V30 278 H 30.0138 3.80454 1.16187 0
M  V30 279 H 26.7528 6.55493 -0.0301957 0
M  V30 280 H 26.2728 5.80496 1.50945 0
M  V30 281 H 27.9518 6.34563 1.26251 0
M  V30 282 N 28.0839 -0.256276 1.55502 0
M  V30 283 C 29.4999 -0.604325 1.47716 0
M  V30 284 C 29.6999 -1.88763 0.705039 0
M  V30 285 O 28.7559 -2.51445 0.230613 0
M  V30 286 C 30.0689 -0.715756 2.92057 0
M  V30 287 C 31.6169 -0.808706 3.02372 0
M  V30 288 C 32.0919 -0.951777 4.48001 0
M  V30 289 N 33.5829 -1.01688 4.519 0
M  V30 290 C 34.3179 -1.14668 5.61817 0
M  V30 291 N 33.8139 -1.24261 6.81565 0
M  V30 292 N 35.6069 -1.1791 5.49594 0
M  V30 293 H 27.7579 0.586291 2.04148 0
M  V30 294 H 30.0209 0.201015 0.926443 0
M  V30 295 H 29.7269 0.157027 3.51349 0
M  V30 296 H 29.6009 -1.59071 3.42018 0
M  V30 297 H 31.9879 -1.67195 2.43166 0
M  V30 298 H 32.0689 0.0912063 2.55637 0
M  V30 299 H 31.7129 -0.0931291 5.07815 0
M  V30 300 H 31.6429 -1.86659 4.92408 0
M  V30 301 H 34.1339 -0.954468 3.65648 0
M  V30 302 H 34.4469 -1.34046 7.61086 0
M  V30 303 H 32.7919 -1.21236 6.84344 0
M  V30 304 H 35.9829 -1.10057 4.54978 0
M  V30 305 H 36.1559 -1.27681 6.35296 0
M  V30 306 N 29.562 -1.4872 -0.521534 0
M  V30 307 C 30.79 -1.60843 -1.30142 0
M  V30 308 C 31.205 -0.271897 -1.86832 0
M  V30 309 O 30.562 0.739969 -1.66825 0
M  V30 310 C 30.613 -2.66155 -2.4463 0
M  V30 311 O 30.334 -3.94623 -1.90275 0
M  V30 312 C 31.835 -2.88795 -3.36322 0
M  V30 313 H 29.055 -0.542075 -0.395468 0
M  V30 314 H 31.599 -1.94609 -0.628285 0
M  V30 315 H 29.754 -2.35224 -3.07812 0
M  V30 316 H 30.168 -4.52468 -2.65279 0
M  V30 317 H 31.642 -3.66264 -4.12983 0
M  V30 318 H 32.119 -1.97934 -3.9207 0
M  V30 319 H 32.725 -3.21063 -2.78924 0
M  V30 320 N 31.0401 0.771051 -1.3745 0
M  V30 321 C 32.2861 1.5319 -1.32894 0
M  V30 322 C 32.6191 1.94008 0.0862511 0
M  V30 323 O 31.8941 1.64124 1.04373 0
M  V30 324 C 32.1771 2.79648 -2.26868 0
M  V30 325 C 32.0301 2.45079 -3.77169 0
M  V30 326 C 33.3491 3.81583 -2.19277 0
M  V30 327 H 30.4681 0.555744 -0.484064 0
M  V30 328 H 33.1101 0.884492 -1.68157 0
M  V30 329 H 31.2601 3.34891 -1.96926 0
M  V30 330 H 32.9321 1.95745 -4.1771 0
M  V30 331 H 31.1751 1.77767 -3.95704 0
M  V30 332 H 31.8461 3.35478 -4.38359 0
M  V30 333 H 34.3221 3.35835 -2.45671 0
M  V30 334 H 33.1981 4.67787 -2.87171 0
M  V30 335 H 33.4591 4.25897 -1.18592 0
M  V30 336 N 32.5182 1.22032 0.997298 0
M  V30 337 C 33.7432 1.06921 1.77715 0
M  V30 338 C 34.1682 -0.376226 1.84299 0
M  V30 339 O 33.5262 -1.27165 1.29223 0
M  V30 340 C 33.5742 1.67996 3.19076 0
M  V30 341 O 32.6782 0.930653 4.01762 0
M  V30 342 H 32.0192 0.375814 0.547412 0
M  V30 343 H 34.5492 1.61737 1.25309 0
M  V30 344 H 34.5592 1.72538 3.69723 0
M  V30 345 H 33.2342 2.73182 3.13599 0
M  V30 346 H 31.8112 0.960917 3.60307 0
M  V30 347 N 33.9963 -1.19345 1.0293 0
M  V30 348 C 35.2733 -1.84811 0.640642 0
M  V30 349 C 35.6533 -1.91855 -0.88062 0
M  V30 350 O 35.0013 -1.43587 -1.7775 0
M  V30 351 C 35.2113 -3.23755 1.30321 0
M  V30 352 C 36.5593 -3.99912 1.42673 0
M  V30 353 O 37.5833 -3.33155 1.26041 0
M  V30 354 O 36.4423 -5.19494 1.6967 0
M  V30 355 H 33.5363 -0.796443 0.222726 0
M  V30 356 H 36.0823 -1.26831 1.12748 0
M  V30 357 H 34.8543 -3.13466 2.34211 0
M  V30 358 H 34.4773 -3.89381 0.804261 0
M  V30 359 N 35.4744 -0.807222 -1.35358 0
M  V30 360 C 36.4224 -0.20614 -2.31685 0
M  V30 361 C 37.4164 0.644445 -1.56663 0
M  V30 362 O 38.6224 0.537538 -1.71786 0
M  V30 363 H 34.9974 -0.0479006 -0.750473 0
M  V30 364 H 36.9684 -1.03369 -2.79924 0
M  V30 365 C 35.7174 0.630212 -3.41941 0
M  V30 366 H 35.0404 -0.0149558 -3.99797 0
M  V30 367 H 36.4804 1.01716 -4.11619 0
M  V30 368 C 34.9394 1.79601 -2.85035 0
M  V30 369 O 35.4694 2.89351 -2.78637 0
M  V30 370 N 33.6754 1.60774 -2.42074 0
M  V30 371 H 33.2224 0.715009 -2.47478 0
M  V30 372 H 33.1804 2.38933 -2.04349 0
M  V30 373 N 36.9525 1.47285 -0.560781 0
M  V30 374 C 37.9155 2.28535 0.174488 0
M  V30 375 C 38.9155 1.37153 0.839388 0
M  V30 376 O 40.1055 1.59748 0.694702 0
M  V30 377 C 37.2375 3.16934 1.25561 0
M  V30 378 H 38.4305 2.95012 -0.539262 0
M  V30 379 H 35.9835 1.53034 -0.317865 0
M  V30 380 H 36.7185 2.55157 2.00164 0
M  V30 381 H 36.5035 3.8419 0.783604 0
M  V30 382 H 37.9935 3.78143 1.77193 0
M  V30 383 N 38.4306 0.297415 1.54768 0
M  V30 384 C 39.3776 -0.580276 2.23386 0
M  V30 385 C 40.3476 -1.13238 1.21517 0
M  V30 386 O 41.5326 -1.17757 1.50126 0
M  V30 387 C 38.6726 -1.74801 2.97555 0
M  V30 388 C 37.7856 -1.22764 4.1419 0
M  V30 389 C 36.9206 -2.35895 4.75949 0
M  V30 390 C 35.9596 -1.80974 5.84735 0
M  V30 391 N 35.0966 -2.87664 6.40464 0
M  V30 392 H 39.9366 0.0114833 2.97998 0
M  V30 393 H 37.4736 0.0174361 1.4709 0
M  V30 394 H 39.4316 -2.43475 3.38786 0
M  V30 395 H 38.0616 -2.31145 2.25326 0
M  V30 396 H 37.1136 -0.433271 3.77924 0
M  V30 397 H 38.4256 -0.785551 4.92575 0
M  V30 398 H 37.5796 -3.12523 5.20014 0
M  V30 399 H 36.3186 -2.83429 3.96887 0
M  V30 400 H 35.3236 -1.02834 5.40097 0
M  V30 401 H 36.5486 -1.34348 6.65678 0
M  V30 402 H 34.4946 -3.34538 5.64287 0
M  V30 403 H 34.4116 -2.4794 7.14186 0
M  V30 404 H 35.6796 -3.642 6.89187 0
M  V30 405 N 39.9087 -1.5758 0.0250728 0
M  V30 406 C 41.3197 -1.79476 -0.514323 0
M  V30 407 C 41.6707 -0.934956 -1.72491 0
M  V30 408 O 40.7957 -0.144245 -2.15919 0
M  V30 409 C 41.3907 -3.25503 -0.939842 0
M  V30 410 C 39.9497 -3.48408 -1.42438 0
M  V30 411 C 39.0967 -2.74583 -0.387201 0
M  V30 412 H 42.0477 -1.567 0.25113 0
M  V30 413 H 42.0687 -3.34992 -1.80445 0
M  V30 414 H 41.5807 -3.88056 -0.0585628 0
M  V30 415 H 39.6817 -2.91103 -2.32572 0
M  V30 416 H 39.7947 -4.57119 -1.43455 0
M  V30 417 H 38.1587 -2.39942 -0.854409 0
M  V30 418 H 38.9417 -3.39849 0.485543 0
M  V30 419 N 41.3868 0.248026 -1.55636 0
M  V30 420 C 42.6118 0.998028 -1.81808 0
M  V30 421 C 43.0368 1.78207 -0.601979 0
M  V30 422 O 42.3948 1.75653 0.448961 0
M  V30 423 C 42.4428 1.9125 -3.05705 0
M  V30 424 O 41.5468 3.00406 -2.82542 0
M  V30 425 H 40.8878 0.284045 -0.600179 0
M  V30 426 H 43.4178 0.269357 -2.02819 0
M  V30 427 H 43.4278 2.32737 -3.35108 0
M  V30 428 H 42.1028 1.33602 -3.93857 0
M  V30 429 H 40.6798 2.63056 -2.64303 0
M  V30 430 N 42.8649 1.48995 0.513639 0
M  V30 431 C 44.2759 1.5119 1.09537 0
M  V30 432 C 44.6269 0.290906 1.94031 0
M  V30 433 O 43.7519 -0.60049 2.07902 0
M  V30 434 C 44.3469 2.73964 1.99322 0
M  V30 435 C 42.9059 2.78978 2.52682 0
M  V30 436 C 42.0529 2.44934 1.30009 0
M  V30 437 H 45.0039 1.55875 0.298125 0
M  V30 438 H 45.0249 2.53409 2.83838 0
M  V30 439 H 44.5369 3.62813 1.37799 0
M  V30 440 H 42.6379 1.94378 3.1788 0
M  V30 441 H 42.7509 3.8083 2.90698 0
M  V30 442 H 41.1149 1.9644 1.62122 0
M  V30 443 H 41.8979 3.36043 0.702131 0
M  V30 444 N 44.343 -0.763751 1.37857 0
M  V30 445 C 45.568 -1.55805 1.36893 0
M  V30 446 C 45.993 -1.88054 -0.0416135 0
M  V30 447 O 45.351 -1.49825 -1.02089 0
M  V30 448 C 45.399 -2.84012 2.22192 0
M  V30 449 O 44.503 -3.78732 1.63204 0
M  V30 450 H 43.844 -0.471638 0.46739 0
M  V30 451 H 46.374 -0.944657 1.81487 0
M  V30 452 H 46.384 -3.33037 2.35691 0
M  V30 453 H 45.059 -2.59869 3.24716 0
M  V30 454 H 43.636 -3.37402 1.58791 0
M  V30 455 N 45.8211 -1.22559 -0.990812 0
M  V30 456 C 47.2321 -1.04791 -1.54518 0
M  V30 457 C 47.5831 0.387998 -1.92325 0
M  V30 458 O 46.7081 1.27328 -1.74976 0
M  V30 459 C 47.3031 -1.896 -2.80779 0
M  V30 460 C 45.8621 -1.76124 -3.32652 0
M  V30 461 C 45.0091 -1.8594 -2.05722 0
M  V30 462 H 47.9601 -1.36374 -0.811662 0
M  V30 463 H 47.9811 -1.41464 -3.53225 0
M  V30 464 H 47.4931 -2.94101 -2.53231 0
M  V30 465 H 45.5941 -0.743643 -3.65104 0
M  V30 466 H 45.7071 -2.58913 -4.03114 0
M  V30 467 H 44.0711 -1.29403 -2.19379 0
M  V30 468 H 44.8541 -2.91976 -1.80568 0
M  V30 469 N 47.2992 1.18797 -1.03562 0
M  V30 470 C 48.2462 2.22253 -0.622259 0
M  V30 471 C 49.2162 1.61987 0.36736 0
M  V30 472 O 50.4012 1.88986 0.262492 0
M  V30 473 C 47.5412 3.45097 0.0138462 0
M  V30 474 C 46.6542 4.19722 -1.02263 0
M  V30 475 C 45.7892 5.30009 -0.355573 0
M  V30 476 C 44.8282 5.96399 -1.37749 0
M  V30 477 N 43.9652 6.98234 -0.735766 0
M  V30 478 H 48.8052 2.56968 -1.50903 0
M  V30 479 H 46.3422 1.26245 -0.755017 0
M  V30 480 H 48.3002 4.15279 0.399948 0
M  V30 481 H 46.9302 3.11018 0.864158 0
M  V30 482 H 45.9822 3.48418 -1.52673 0
M  V30 483 H 47.2942 4.65227 -1.79903 0
M  V30 484 H 46.4482 6.0664 0.0850095 0
M  V30 485 H 45.1872 4.85592 0.452967 0
M  V30 486 H 44.1922 5.18512 -1.82826 0
M  V30 487 H 45.4172 6.42899 -2.18764 0
M  V30 488 H 43.3632 6.55979 0.0525597 0
M  V30 489 H 43.2802 7.41965 -1.44995 0
M  V30 490 H 44.5482 7.78845 -0.31941 0
M  V30 491 N 48.7773 0.814389 1.34928 0
M  V30 492 C 50.1883 0.458364 1.80986 0
M  V30 493 C 50.5393 -1.02042 1.67577 0
M  V30 494 O 49.6643 -1.79352 1.21086 0
M  V30 495 C 50.2593 0.825212 3.28597 0
M  V30 496 C 48.8183 0.521677 3.72767 0
M  V30 497 C 47.9653 1.04668 2.56788 0
M  V30 498 H 50.9163 1.00533 1.22795 0
M  V30 499 H 50.9373 0.12571 3.80292 0
M  V30 500 H 50.4493 1.90154 3.38324 0
M  V30 501 H 48.5503 -0.545589 3.68584 0
M  V30 502 H 48.6633 1.05977 4.67232 0
M  V30 503 H 47.0273 0.468622 2.50352 0
M  V30 504 H 47.8103 2.12927 2.6929 0
M  V30 505 N 50.2554 -1.46986 0.568584 0
M  V30 506 C 51.5044 -2.01646 0.0465894 0
M  V30 507 C 51.8174 -1.44721 -1.31587 0
M  V30 508 O 53.0234 -1.91113 -1.92842 0
M  V30 509 C 51.4794 -3.59885 0.032752 0
M  V30 510 C 51.0874 -4.25804 1.39266 0
M  V30 511 C 52.8314 -4.22255 -0.436038 0
M  V30 512 C 50.7384 -5.76081 1.33732 0
M  V30 513 H 49.6684 -0.753876 0.013647 0
M  V30 514 H 52.3194 -1.68864 0.718131 0
M  V30 515 H 50.7014 -3.8968 -0.704669 0
M  V30 516 H 51.8754 -4.07637 2.1487 0
M  V30 517 H 50.1904 -3.7547 1.80032 0
M  V30 518 H 52.7874 -5.32394 -0.49602 0
M  V30 519 H 53.1304 -3.90212 -1.45053 0
M  V30 520 H 53.6634 -3.97033 0.246877 0
M  V30 521 H 50.4024 -6.12761 2.32817 0
M  V30 522 H 49.9224 -5.96553 0.623267 0
M  V30 523 H 51.6014 -6.38518 1.0442 0
M  V30 524 N 51.7335 -0.305618 -1.54608 0
M  V30 525 C 52.9825 0.303098 -1.9941 0
M  V30 526 C 53.2955 1.54648 -1.19764 0
M  V30 527 O 54.5015 2.23007 -1.54855 0
M  V30 528 C 52.9575 0.590588 -3.55021 0
M  V30 529 C 52.5655 -0.634719 -4.43481 0
M  V30 530 C 54.3095 1.16025 -4.08336 0
M  V30 531 C 52.2165 -0.320126 -5.90533 0
M  V30 532 H 51.1465 0.117031 -0.744862 0
M  V30 533 H 53.7975 -0.415045 -1.78745 0
M  V30 534 H 52.1795 1.36845 -3.71604 0
M  V30 535 H 53.3535 -1.41079 -4.38672 0
M  V30 536 H 51.6685 -1.12333 -4.00962 0
M  V30 537 H 54.2655 1.40994 -5.15776 0
M  V30 538 H 54.6085 2.10397 -3.5922 0
M  V30 539 H 55.1415 0.443985 -3.95315 0
M  V30 540 H 51.8805 -1.23254 -6.43808 0
M  V30 541 H 51.4005 0.418579 -5.98338 0
M  V30 542 H 53.0795 0.0766241 -6.46955 0
M  V30 543 N 53.2116 1.57565 -0.0334293 0
M  V30 544 C 54.1586 2.10478 0.946981 0
M  V30 545 C 55.1286 1.00787 1.32027 0
M  V30 546 O 56.3136 1.28232 1.41284 0
M  V30 547 C 53.4536 2.63994 2.22263 0
M  V30 548 C 52.5666 3.87709 1.90541 0
M  V30 549 C 51.7016 4.29604 3.12433 0
M  V30 550 C 50.7406 5.46065 2.76549 0
M  V30 551 N 49.8776 5.83096 3.9108 0
M  V30 552 H 54.7176 2.93963 0.488846 0
M  V30 553 H 52.2546 1.45296 0.22969 0
M  V30 554 H 54.2126 2.93114 2.96884 0
M  V30 555 H 52.8426 1.83333 2.65685 0
M  V30 556 H 51.8946 3.65291 1.06144 0
M  V30 557 H 53.2066 4.72403 1.60116 0
M  V30 558 H 52.3606 4.60182 3.9537 0
M  V30 559 H 51.0996 3.43685 3.46023 0
M  V30 560 H 50.1046 5.15176 1.92026 0
M  V30 561 H 51.3296 6.33685 2.44171 0
M  V30 562 H 49.2756 5.00132 4.24504 0
M  V30 563 H 49.1926 6.6244 3.64293 0
M  V30 564 H 50.4606 6.18282 4.74708 0
M  V30 565 N 54.6897 -0.239769 1.55765 0
M  V30 566 C 55.6197 -1.30052 1.9393 0
M  V30 567 C 56.6007 -1.49839 0.805132 0
M  V30 568 O 57.7857 -1.62328 1.06599 0
M  V30 569 C 54.9157 -2.65391 2.2402 0
M  V30 570 C 53.8697 -2.60289 3.39755 0
M  V30 571 C 53.1957 -3.99489 3.55405 0
M  V30 572 C 54.4957 -2.16654 4.75246 0
M  V30 573 H 56.1897 -0.983573 2.82783 0
M  V30 574 H 53.7357 -0.471701 1.36055 0
M  V30 575 H 55.6887 -3.3974 2.49308 0
M  V30 576 H 54.4127 -2.98736 1.32 0
M  V30 577 H 53.0717 -1.88398 3.14487 0
M  V30 578 H 52.7197 -4.30112 2.60793 0
M  V30 579 H 52.4197 -3.96962 4.33238 0
M  V30 580 H 53.9437 -4.75528 3.83022 0
M  V30 581 H 55.3577 -2.80737 4.99859 0
M  V30 582 H 53.7547 -2.25223 5.56232 0
M  V30 583 H 54.8247 -1.11835 4.71827 0
M  V30 584 N 56.1678 -1.49265 -0.50573 0
M  V30 585 C 57.3928 -1.62478 -1.28902 0
M  V30 586 C 57.8178 -0.294332 -1.85783 0
M  V30 587 O 57.1758 0.737412 -1.65626 0
M  V30 588 C 57.2238 -2.69268 -2.39848 0
M  V30 589 O 56.3278 -2.28113 -3.43567 0
M  V30 590 H 55.6688 -0.54399 -0.380751 0
M  V30 591 H 58.1988 -1.95421 -0.605952 0
M  V30 592 H 58.2088 -2.91291 -2.85681 0
M  V30 593 H 56.8838 -3.65846 -1.97812 0
M  V30 594 H 55.4608 -2.16401 -3.03685 0
M  V30 595 N 57.6459 0.756429 -1.3826 0
M  V30 596 C 58.8919 1.51772 -1.34511 0
M  V30 597 C 59.2249 1.94089 0.0656691 0
M  V30 598 O 58.4999 1.65221 1.02626 0
M  V30 599 C 58.7829 2.77226 -2.29821 0
M  V30 600 C 58.6359 2.41065 -3.79747 0
M  V30 601 C 59.9549 3.79236 -2.23312 0
M  V30 602 H 57.0739 0.550578 -0.489931 0
M  V30 603 H 59.7159 0.866607 -1.69086 0
M  V30 604 H 57.8659 3.32784 -2.00467 0
M  V30 605 H 59.5379 1.91303 -4.19763 0
M  V30 606 H 57.7809 1.7356 -3.97567 0
M  V30 607 H 58.4519 3.3081 -4.41892 0
M  V30 608 H 60.9279 3.3321 -2.49219 0
M  V30 609 H 59.8039 4.64714 -2.92116 0
M  V30 610 H 60.0649 4.24615 -1.23102 0
M  V30 611 N 59.124 1.23083 0.984299 0
M  V30 612 C 60.372 1.05848 1.72165 0
M  V30 613 C 60.693 -0.406049 1.90726 0
M  V30 614 O 59.963 -1.29139 1.47309 0
M  V30 615 H 58.543 0.388685 0.637913 0
M  V30 616 H 61.205 1.54736 1.18503 0
M  V30 617 H 60.301 1.54327 2.71274 0
M  V30 618 N 60.6021 -1.18246 1.0419 0
M  V30 619 C 61.8791 -1.84121 0.660208 0
M  V30 620 C 62.2591 -1.92778 -0.860221 0
M  V30 621 O 61.6071 -1.45464 -1.76217 0
M  V30 622 C 61.8171 -3.22355 1.33747 0
M  V30 623 C 63.1651 -3.98376 1.46906 0
M  V30 624 O 64.1891 -3.31799 1.29568 0
M  V30 625 O 63.0481 -5.17665 1.75171 0
M  V30 626 H 60.1421 -0.794036 0.231161 0
M  V30 627 H 62.6881 -1.25628 1.14087 0
M  V30 628 H 61.4601 -3.10964 2.37522 0
M  V30 629 H 61.0831 -3.88506 0.845515 0
M  V30 630 N 62.0802 -0.821533 -1.34494 0
M  V30 631 C 63.4912 -0.467956 -1.8074 0
M  V30 632 C 63.8422 1.01151 -1.68116 0
M  V30 633 O 62.9672 1.78707 -1.22036 0
M  V30 634 C 63.5622 -0.842627 -3.28154 0
M  V30 635 C 62.1212 -0.541439 -3.72485 0
M  V30 636 C 61.2682 -1.06028 -2.56229 0
M  V30 637 H 64.2192 -1.01183 -1.22261 0
M  V30 638 H 64.2402 -0.145876 -3.8022 0
M  V30 639 H 63.7522 -1.91945 -3.37311 0
M  V30 640 H 61.8532 0.526034 -3.68868 0
M  V30 641 H 61.9662 -1.08453 -4.66663 0
M  V30 642 H 60.3302 -0.481892 -2.501 0
M  V30 643 H 61.1132 -2.14352 -2.68157 0
M  V30 644 N 63.5583 1.46682 -0.576371 0
M  V30 645 C 64.7863 2.06798 -0.0649635 0
M  V30 646 C 65.2013 1.42612 1.23723 0
M  V30 647 O 64.5583 0.529203 1.74659 0
M  V30 648 C 64.6093 3.6132 0.114202 0
M  V30 649 O 64.3303 4.23104 -1.13644 0
M  V30 650 C 65.8313 4.38349 0.66069 0
M  V30 651 H 63.0513 0.668778 -0.0545616 0
M  V30 652 H 65.5953 1.88404 -0.795237 0
M  V30 653 H 63.7503 3.79162 0.794673 0
M  V30 654 H 64.1643 5.15894 -0.946253 0
M  V30 655 H 65.6383 5.47081 0.73526 0
M  V30 656 H 66.1153 4.05953 1.67627 0
M  V30 657 H 66.7213 4.25297 0.0152951 0
M  V30 658 N 65.0364 0.313813 1.54444 0
M  V30 659 C 65.9664 -0.549454 2.26943 0
M  V30 660 C 66.9474 -1.12741 1.27372 0
M  V30 661 O 68.1324 -1.15436 1.56167 0
M  V30 662 C 65.2624 -1.71523 3.01989 0
M  V30 663 C 64.2164 -1.26703 4.08816 0
M  V30 664 C 63.5424 -2.51898 4.71647 0
M  V30 665 C 64.8424 -0.388962 5.2085 0
M  V30 666 H 66.5364 0.0552661 2.99349 0
M  V30 667 H 64.0824 0.0280207 1.43973 0
M  V30 668 H 66.0354 -2.32535 3.51433 0
M  V30 669 H 64.7594 -2.34639 2.27183 0
M  V30 670 H 63.4184 -0.679896 3.6024 0
M  V30 671 H 63.0664 -3.13356 3.93468 0
M  V30 672 H 62.7664 -2.22605 5.43802 0
M  V30 673 H 64.2904 -3.1369 5.23861 0
M  V30 674 H 65.7044 -0.905107 5.6611 0
M  V30 675 H 64.1014 -0.18924 5.99802 0
M  V30 676 H 65.1714 0.582699 4.81386 0
M  V30 677 N 66.5145 -1.57545 0.0417849 0
M  V30 678 C 67.7915 -1.83642 -0.673433 0
M  V30 679 C 68.1715 -0.928298 -1.89594 0
M  V30 680 O 67.5195 0.0129955 -2.28496 0
M  V30 681 C 67.7295 -3.33155 -1.03964 0
M  V30 682 C 69.0775 -3.99941 -1.42592 0
M  V30 683 O 70.1015 -3.37725 -1.13226 0
M  V30 684 O 68.9605 -5.09619 -1.9736 0
M  V30 685 H 66.0545 -0.757638 -0.331533 0
M  V30 686 H 68.6005 -1.69554 0.070433 0
M  V30 687 H 67.3725 -3.9093 -0.170098 0
M  V30 688 H 66.9955 -3.52396 -1.84126 0
M  V30 689 N 67.9926 0.231505 -1.5589 0
M  V30 690 C 68.9396 1.28682 -1.91598 0
M  V30 691 C 69.9096 1.47071 -0.771974 0
M  V30 692 O 71.0946 1.60802 -1.027 0
M  V30 693 C 68.2346 2.6342 -2.22944 0
M  V30 694 C 67.3476 2.52912 -3.50228 0
M  V30 695 C 66.4826 3.80106 -3.7107 0
M  V30 696 C 65.5216 3.64279 -4.91902 0
M  V30 697 N 64.6586 4.834 -5.09184 0
M  V30 698 H 69.4986 0.975305 -2.81588 0
M  V30 699 H 67.0356 0.470299 -1.39379 0
M  V30 700 H 68.9936 3.41869 -2.39126 0
M  V30 701 H 67.6236 2.92687 -1.36139 0
M  V30 702 H 66.6756 1.6595 -3.42294 0
M  V30 703 H 67.9876 2.37133 -4.38827 0
M  V30 704 H 67.1416 4.66999 -3.87295 0
M  V30 705 H 65.8806 3.98799 -2.80733 0
M  V30 706 H 64.8856 2.7577 -4.75637 0
M  V30 707 H 66.1106 3.47067 -5.83714 0
M  V30 708 H 64.0566 5.02425 -4.21788 0
M  V30 709 H 63.9736 4.70311 -5.91898 0
M  V30 710 H 65.2416 5.71747 -5.29835 0
M  V30 711 N 69.4707 1.49531 0.497807 0
M  V30 712 C 70.4187 1.66926 1.61983 0
M  V30 713 C 71.4127 0.535167 1.60724 0
M  V30 714 O 72.6187 0.714896 1.65195 0
M  V30 715 H 68.9937 0.526415 0.537021 0
M  V30 716 H 70.9647 2.61098 1.44465 0
M  V30 717 C 69.7137 1.75602 3.00099 0
M  V30 718 H 69.0367 2.62244 3.01775 0
M  V30 719 H 70.4767 1.91807 3.78135 0
M  V30 720 C 68.9357 0.501543 3.33146 0
M  V30 721 O 69.4657 -0.371342 3.9998 0
M  V30 722 N 67.6717 0.363531 2.88317 0
M  V30 723 H 67.2187 1.07485 2.34104 0
M  V30 724 H 67.1767 -0.474728 3.10795 0
M  V30 725 N 70.9488 -0.749086 1.3866 0
M  V30 726 C 71.8788 -1.8764 1.38973 0
M  V30 727 C 72.8598 -1.68178 0.255004 0
M  V30 728 O 74.0448 -1.88704 0.458754 0
M  V30 729 C 71.1748 -3.25222 1.21851 0
M  V30 730 C 70.1288 -3.59295 2.32575 0
M  V30 731 C 69.4548 -4.95663 2.00555 0
M  V30 732 C 70.7548 -3.63709 3.7485 0
M  V30 733 H 72.4488 -1.87635 2.3331 0
M  V30 734 H 69.9948 -0.901329 1.12303 0
M  V30 735 H 71.9478 -4.03746 1.20695 0
M  V30 736 H 70.6718 -3.25719 0.239775 0
M  V30 737 H 69.3308 -2.83093 2.32925 0
M  V30 738 H 68.9788 -4.92724 1.01154 0
M  V30 739 H 68.6788 -5.19429 2.74714 0
M  V30 740 H 70.2028 -5.7656 2.01024 0
M  V30 741 H 71.6168 -4.32338 3.76506 0
M  V30 742 H 70.0138 -3.98986 4.48252 0
M  V30 743 H 71.0838 -2.63834 4.06841 0
M  V30 744 N 72.4269 -1.23603 -0.977757 0
M  V30 745 C 73.3569 -1.04401 -2.0886 0
M  V30 746 C 74.3379 0.0399052 -1.70053 0
M  V30 747 O 75.5229 -0.125246 -1.93796 0
M  V30 748 C 72.6529 -0.637269 -3.41403 0
M  V30 749 C 71.6069 -1.66883 -3.94124 0
M  V30 750 C 70.9329 -1.11745 -5.22893 0
M  V30 751 C 72.2329 -3.06247 -4.23096 0
M  V30 752 H 73.9269 -1.97316 -2.25182 0
M  V30 753 H 71.4729 -0.950096 -1.08209 0
M  V30 754 H 73.4259 -0.48998 -4.18542 0
M  V30 755 H 72.1499 0.327557 -3.24953 0
M  V30 756 H 70.8089 -1.80416 -3.19133 0
M  V30 757 H 70.4569 -0.143527 -5.02795 0
M  V30 758 H 70.1569 -1.80672 -5.59134 0
M  V30 759 H 71.6809 -0.982067 -6.02651 0
M  V30 760 H 73.0949 -2.96001 -4.90975 0
M  V30 761 H 71.4919 -3.72436 -4.70544 0
M  V30 762 H 72.5619 -3.55041 -3.30263 0
M  V30 763 N 73.905 1.17692 -1.04816 0
M  V30 764 C 75.133 1.91786 -0.776254 0
M  V30 765 C 75.548 1.76604 0.667577 0
M  V30 766 O 74.905 1.10067 1.45573 0
M  V30 767 C 74.956 3.42967 -1.14263 0
M  V30 768 O 74.677 3.57678 -2.52978 0
M  V30 769 C 76.178 4.34144 -0.896311 0
M  V30 770 H 73.398 0.608624 -0.282519 0
M  V30 771 H 75.942 1.49268 -1.39783 0
M  V30 772 H 74.097 3.83245 -0.565874 0
M  V30 773 H 74.511 4.51319 -2.67229 0
M  V30 774 H 75.985 5.38744 -1.20244 0
M  V30 775 H 76.462 4.38876 0.168636 0
M  V30 776 H 77.068 3.99574 -1.45672 0
M  V30 777 N 75.3831 0.828654 1.34056 0
M  V30 778 C 76.6081 0.431637 2.02859 0
M  V30 779 C 77.0331 -0.956339 1.61975 0
M  V30 780 O 76.3911 -1.62338 0.807228 0
M  V30 781 C 76.4391 0.548323 3.56407 0
M  V30 782 O 75.5431 -0.429556 4.10157 0
M  V30 783 H 74.8841 0.176886 0.640006 0
M  V30 784 H 77.4141 1.12066 1.71179 0
M  V30 785 H 77.4241 0.426196 4.05768 0
M  V30 786 H 76.0991 1.5606 3.8551 0
M  V30 787 H 74.6761 -0.265836 3.71951 0
M  V30 788 N 76.8612 -1.46375 0.584142 0
M  V30 789 C 77.8242 -2.28784 -0.138108 0
M  V30 790 C 78.8242 -1.38471 -0.817462 0
M  V30 791 O 80.0142 -1.60833 -0.669199 0
M  V30 792 C 77.1462 -3.18892 -1.20503 0
M  V30 793 H 78.3392 -2.94117 0.586127 0
M  V30 794 H 75.8922 -1.52509 0.342171 0
M  V30 795 H 76.6272 -2.58309 -1.96079 0
M  V30 796 H 76.4122 -3.85388 -0.722384 0
M  V30 797 H 77.9022 -3.80914 -1.71155 0
M  V30 798 N 78.3393 -0.321999 -1.54275 0
M  V30 799 C 79.3023 0.531975 -2.22941 0
M  V30 800 C 80.3023 1.04478 -1.22234 0
M  V30 801 O 81.4923 0.937452 -1.46825 0
M  V30 802 C 78.6243 1.73874 -2.93224 0
M  V30 803 H 79.8173 -0.0682612 -2.99822 0
M  V30 804 H 77.3703 -0.0730644 -1.56129 0
M  V30 805 H 78.1053 2.37825 -2.20476 0
M  V30 806 H 77.8903 1.37847 -3.6707 0
M  V30 807 H 79.3803 2.34496 -3.45545 0
M  V30 808 N 79.8174 1.5752 -0.0501392 0
M  V30 809 C 80.7494 2.08413 0.95376 0
M  V30 810 C 81.7624 1.01175 1.27544 0
M  V30 811 O 82.9514 1.28744 1.23641 0
M  V30 812 C 80.0514 2.51138 2.27559 0
M  V30 813 C 79.2244 3.817 2.13598 0
M  V30 814 C 78.2834 4.10749 3.28895 0
M  V30 815 O 77.3094 4.80685 3.04845 0
M  V30 816 N 78.5114 3.62579 4.5334 0
M  V30 817 H 81.2764 2.95165 0.519383 0
M  V30 818 H 78.8374 1.61327 0.136127 0
M  V30 819 H 80.8294 2.67648 3.03557 0
M  V30 820 H 79.3994 1.6964 2.62567 0
M  V30 821 H 78.6194 3.74782 1.22197 0
M  V30 822 H 79.9074 4.67201 2.01496 0
M  V30 823 H 79.3054 3.06039 4.75769 0
M  V30 824 H 77.8624 3.84329 5.26436 0
M  V30 825 N 81.2955 -0.223234 1.56011 0
M  V30 826 C 82.5445 -0.945912 1.78144 0
M  V30 827 C 82.8575 -1.85567 0.618396 0
M  V30 828 O 84.0635 -2.61688 0.723318 0
M  V30 829 C 82.5195 -1.73216 3.15475 0
M  V30 830 C 82.1275 -0.868619 4.39499 0
M  V30 831 C 83.8715 -2.44615 3.46935 0
M  V30 832 C 81.7785 -1.65212 5.67855 0
M  V30 833 H 80.7085 -0.356929 0.664167 0
M  V30 834 H 83.3595 -0.199845 1.82409 0
M  V30 835 H 81.7415 -2.52107 3.05382 0
M  V30 836 H 82.9155 -0.120366 4.60643 0
M  V30 837 H 81.2305 -0.26683 4.15544 0
M  V30 838 H 83.8275 -3.03732 4.40058 0
M  V30 839 H 84.1705 -3.17417 2.69355 0
M  V30 840 H 84.7035 -1.72715 3.58349 0
M  V30 841 H 81.4425 -0.967407 6.48322 0
M  V30 842 H 80.9625 -2.37503 5.50774 0
M  V30 843 H 82.6415 -2.21322 6.07968 0
M  V30 844 N 82.7736 -1.49793 -0.48987 0
M  V30 845 C 83.7206 -1.67281 -1.59014 0
M  V30 846 C 84.6906 -0.514177 -1.57941 0
M  V30 847 O 85.8756 -0.742533 -1.75759 0
M  V30 848 C 83.0156 -1.75569 -2.97102 0
M  V30 849 C 82.1286 -3.0281 -3.08107 0
M  V30 850 C 81.2636 -3.02008 -4.36995 0
M  V30 851 C 80.3026 -4.23782 -4.41673 0
M  V30 852 N 79.4396 -4.20826 -5.62005 0
M  V30 853 H 84.2796 -2.61224 -1.43409 0
M  V30 854 H 81.8166 -1.29508 -0.697565 0
M  V30 855 H 83.7746 -1.78354 -3.77155 0
M  V30 856 H 82.4046 -0.850827 -3.11385 0
M  V30 857 H 81.4566 -3.09584 -2.21047 0
M  V30 858 H 82.7686 -3.92801 -3.07423 0
M  V30 859 H 81.9226 -3.03418 -5.25378 0
M  V30 860 H 80.6616 -2.09815 -4.4026 0
M  V30 861 H 79.6666 -4.22604 -3.5169 0
M  V30 862 H 80.8916 -5.17181 -4.40115 0
M  V30 863 H 78.8376 -3.31476 -5.66091 0
M  V30 864 H 78.7546 -5.04564 -5.62984 0
M  V30 865 H 80.0226 -4.26355 -6.52565 0
M  V30 866 N 84.2517 0.741722 -1.39055 0
M  V30 867 C 85.1987 1.85566 -1.37237 0
M  V30 868 C 86.1687 1.64457 -0.233072 0
M  V30 869 O 87.3537 1.85957 -0.427147 0
M  V30 870 C 84.4937 3.23004 -1.215 0
M  V30 871 C 83.6067 3.55864 -2.44918 0
M  V30 872 C 82.7417 4.82669 -2.21821 0
M  V30 873 C 81.7807 5.08351 -3.40948 0
M  V30 874 N 80.9177 6.26356 -3.17211 0
M  V30 875 H 85.7577 1.86455 -2.32462 0
M  V30 876 H 83.2947 0.911176 -1.15482 0
M  V30 877 H 85.2527 4.02331 -1.10389 0
M  V30 878 H 83.8827 3.21411 -0.29908 0
M  V30 879 H 82.9347 2.7129 -2.66657 0
M  V30 880 H 84.2467 3.70765 -3.33668 0
M  V30 881 H 83.4007 5.69962 -2.07914 0
M  V30 882 H 82.1397 4.69929 -1.30454 0
M  V30 883 H 81.1447 4.19522 -3.55361 0
M  V30 884 H 82.3697 5.22981 -4.33207 0
M  V30 885 H 80.3157 6.14917 -2.28502 0
M  V30 886 H 80.2327 6.41813 -3.99515 0
M  V30 887 H 81.5007 7.16506 -3.06984 0
M  V30 888 N 85.7298 1.2412 0.971189 0
M  V30 889 C 86.6598 1.05508 2.08304 0
M  V30 890 C 87.6408 -0.0308864 1.70072 0
M  V30 891 O 88.8258 0.135521 1.93727 0
M  V30 892 C 85.9558 0.655365 3.4106 0
M  V30 893 C 84.9098 1.68971 3.93234 0
M  V30 894 C 84.2358 1.14516 5.22293 0
M  V30 895 C 85.5358 3.08487 4.21465 0
M  V30 896 H 87.2298 1.98507 2.24132 0
M  V30 897 H 84.7758 0.955821 1.07704 0
M  V30 898 H 86.7288 0.51217 4.18276 0
M  V30 899 H 85.4528 -0.31032 3.25122 0
M  V30 900 H 84.1118 1.82106 3.18171 0
M  V30 901 H 83.7598 0.170189 5.02712 0
M  V30 902 H 83.4598 1.83635 5.58168 0
M  V30 903 H 84.9838 1.01401 6.02121 0
M  V30 904 H 86.3978 2.98601 4.89398 0
M  V30 905 H 84.7948 3.74926 4.68562 0
M  V30 906 H 85.8648 3.56787 3.28376 0
M  V30 907 N 87.2079 -1.17134 1.05439 0
M  V30 908 C 88.1549 -2.21235 0.657539 0
M  V30 909 C 89.1249 -1.62551 -0.341543 0
M  V30 910 O 90.3099 -1.89379 -0.232393 0
M  V30 911 C 87.4499 -3.45076 0.0410575 0
M  V30 912 C 86.5629 -4.18042 1.08927 0
M  V30 913 C 85.6979 -5.29376 0.439848 0
M  V30 914 C 84.7369 -5.94132 1.4722 0
M  V30 915 N 83.8739 -6.96975 0.846756 0
M  V30 916 H 88.7139 -2.54534 1.54972 0
M  V30 917 H 86.2509 -1.25028 0.775006 0
M  V30 918 H 88.2089 -4.15862 -0.33383 0
M  V30 919 H 86.8389 -3.12353 -0.814568 0
M  V30 920 H 85.8909 -3.45945 1.58196 0
M  V30 921 H 87.2029 -4.62306 1.87282 0
M  V30 922 H 86.3569 -6.06699 0.0115125 0
M  V30 923 H 85.0959 -4.86251 -0.375656 0
M  V30 924 H 84.1009 -5.15538 1.91052 0
M  V30 925 H 85.3259 -6.39337 2.28965 0
M  V30 926 H 83.2719 -6.5598 0.0518075 0
M  V30 927 H 83.1889 -7.39565 1.5678 0
M  V30 928 H 84.4569 -7.78239 0.443277 0
M  V30 929 N 88.686 -0.835752 -1.33615 0
M  V30 930 C 89.596 -0.269088 -2.33052 0
M  V30 931 C 90.612 0.603251 -1.63208 0
M  V30 932 O 91.788 0.508112 -1.94885 0
M  V30 933 C 88.853 0.549091 -3.42324 0
M  V30 934 C 87.914 -0.347156 -4.27894 0
M  V30 935 C 87.147 0.43207 -5.31948 0
M  V30 936 O 87.37 1.66409 -5.45586 0
M  V30 937 O 86.304 -0.192298 -6.01593 0
M  V30 938 H 90.13 -1.09243 -2.83372 0
M  V30 939 H 87.715 -0.598198 -1.36901 0
M  V30 940 H 89.597 1.01414 -4.09015 0
M  V30 941 H 88.272 1.34955 -2.94226 0
M  V30 942 H 87.179 -0.859979 -3.64081 0
M  V30 943 H 88.512 -1.1123 -4.79467 0
M  V30 944 N 90.1641 1.46063 -0.591896 0
M  V30 945 C 91.1271 2.28854 0.125973 0
M  V30 946 C 92.1271 1.38903 0.810107 0
M  V30 947 O 93.3171 1.61186 0.66066 0
M  V30 948 C 90.4491 3.19526 1.1881 0
M  V30 949 H 91.6421 2.93802 -0.601717 0
M  V30 950 H 89.1951 1.52325 -0.350254 0
M  V30 951 H 89.9301 2.59345 1.94707 0
M  V30 952 H 89.7151 3.85766 0.701936 0
M  V30 953 H 91.2051 3.81817 1.69132 0
M  V30 954 N 91.6422 0.330177 1.54103 0
M  V30 955 C 92.8912 -0.271336 1.99867 0
M  V30 956 C 93.2042 -1.52723 1.22209 0
M  V30 957 O 94.4102 -2.20515 1.58383 0
M  V30 958 C 92.8662 -0.534032 3.55916 0
M  V30 959 C 92.4742 0.705193 4.42415 0
M  V30 960 C 94.2182 -1.09514 4.1013 0
M  V30 961 C 92.1252 0.414035 5.89949 0
M  V30 962 H 91.0552 -0.105166 0.74663 0
M  V30 963 H 93.7062 0.443429 1.78062 0
M  V30 964 H 92.0882 -1.30915 3.73734 0
M  V30 965 H 93.2622 1.4804 4.36372 0
M  V30 966 H 91.5772 1.18698 3.99124 0
M  V30 967 H 94.1742 -1.3277 5.17954 0
M  V30 968 H 94.5172 -2.04656 3.62521 0
M  V30 969 H 95.0502 -0.381038 3.95971 0
M  V30 970 H 91.7892 1.33481 6.41766 0
M  V30 971 H 91.3092 -0.323336 5.98928 0
M  V30 972 H 92.9882 0.0263105 6.46995 0
M  V30 973 N 93.1203 -1.57491 0.0584922 0
M  V30 974 C 94.3973 -1.84346 -0.653918 0
M  V30 975 C 94.7773 -0.948355 -1.88599 0
M  V30 976 O 94.1253 -0.0112403 -2.28497 0
M  V30 977 C 94.3353 -3.34239 -1.00425 0
M  V30 978 C 95.6833 -4.01431 -1.38342 0
M  V30 979 O 96.7073 -3.38907 -1.09637 0
M  V30 980 O 95.5663 -5.11683 -1.91943 0
M  V30 981 H 92.6603 -0.761112 -0.323478 0
M  V30 982 H 95.2063 -1.6947 0.0884125 0
M  V30 983 H 93.9783 -3.91089 -0.128625 0
M  V30 984 H 93.6013 -3.54329 -1.80378 0
M  V30 985 N 94.5984 0.214957 -1.56127 0
M  V30 986 C 95.8234 0.95924 -1.83884 0
M  V30 987 C 96.2484 1.7689 -0.639644 0
M  V30 988 O 95.6064 1.76566 0.411601 0
M  V30 989 C 95.6544 1.84723 -3.09693 0
M  V30 990 O 94.7584 2.94346 -2.8885 0
M  V30 991 H 94.0994 0.27125 -0.606069 0
M  V30 992 H 96.6294 0.226276 -2.03345 0
M  V30 993 H 96.6394 2.25576 -3.39969 0
M  V30 994 H 95.3144 1.25218 -3.96602 0
M  V30 995 H 93.8914 2.57391 -2.69823 0
M  V30 996 N 96.0765 1.50051 0.48192 0
M  V30 997 C 97.0085 1.64263 1.59844 0
M  V30 998 C 98.0215 0.52451 1.54119 0
M  V30 999 O 99.2105 0.797293 1.59704 0
M  V30 1000 C 96.3105 1.60102 2.98698 0
M  V30 1001 C 95.4835 2.87767 3.29407 0
M  V30 1002 C 94.5425 2.76397 4.47762 0
M  V30 1003 O 93.5685 3.50348 4.48603 0
M  V30 1004 N 94.7705 1.89222 5.48794 0
M  V30 1005 H 97.5355 2.60566 1.48073 0
M  V30 1006 H 95.0965 1.47379 0.670149 0
M  V30 1007 H 97.0885 1.50123 3.75826 0
M  V30 1008 H 95.6585 0.715798 3.04294 0
M  V30 1009 H 94.8785 3.11954 2.40994 0
M  V30 1010 H 96.1665 3.72365 3.4673 0
M  V30 1011 H 95.5645 1.28434 5.50928 0
M  V30 1012 H 94.1215 1.85154 6.24949 0
M  V30 1013 N 97.5546 -0.734337 1.39446 0
M  V30 1014 C 98.4646 -1.87879 1.40495 0
M  V30 1015 C 99.4806 -1.714 0.299672 0
M  V30 1016 O 100.657 -1.93991 0.541249 0
M  V30 1017 C 97.7216 -3.23477 1.24754 0
M  V30 1018 C 96.7826 -3.52344 2.45259 0
M  V30 1019 C 96.0156 -4.81473 2.30259 0
M  V30 1020 O 96.2386 -5.55237 1.30643 0
M  V30 1021 O 95.1726 -5.10254 3.19256 0
M  V30 1022 H 98.9986 -1.89949 2.36966 0
M  V30 1023 H 96.5836 -0.882243 1.20569 0
M  V30 1024 H 98.4656 -4.04509 1.18111 0
M  V30 1025 H 97.1406 -3.22176 0.313781 0
M  V30 1026 H 96.0476 -2.71396 2.57478 0
M  V30 1027 H 97.3806 -3.58426 3.37331 0
M  V30 1028 N 99.0327 -1.24633 -0.964593 0
M  V30 1029 C 100.273 -1.09981 -1.72289 0
M  V30 1030 C 100.637 0.354792 -1.88693 0
M  V30 1031 O 101.838 0.62289 -2.61483 0
M  V30 1032 C 100.109 -1.82262 -3.07434 0
M  V30 1033 S 101.668 -1.83379 -3.98645 0
M  V30 1034 H 98.4857 -0.393292 -0.59232 0
M  V30 1035 H 101.088 -1.58009 -1.15123 0
M  V30 1036 H 99.7917 -2.87206 -2.93157 0
M  V30 1037 H 99.3227 -1.3458 -3.69664 0
M  V30 1038 H 101.338 -0.903691 -4.87901 0
M  V30 1039 N 100.511 1.16574 -1.06058 0
M  V30 1040 C 101.459 2.22941 -0.663343 0
M  V30 1041 C 102.453 1.66358 0.319593 0
M  V30 1042 O 103.659 1.7905 0.184713 0
M  V30 1043 H 100.034 0.725907 -0.196376 0
M  V30 1044 H 102.005 2.53736 -1.57037 0
M  V30 1045 C 100.754 3.47642 -0.0632808 0
M  V30 1046 H 100.077 3.91493 -0.810733 0
M  V30 1047 H 101.517 4.2363 0.177177 0
M  V30 1048 C 99.9758 3.1509 1.19248 0
M  V30 1049 O 100.506 3.30673 2.28075 0
M  V30 1050 N 98.7118 2.6924 1.09353 0
M  V30 1051 H 98.2588 2.5676 0.207912 0
M  V30 1052 H 98.2168 2.47833 1.93458 0
M  V30 1053 N 101.989 0.842826 1.3317 0
M  V30 1054 C 103.237 0.439577 1.97262 0
M  V30 1055 C 103.558 -1.00548 1.67078 0
M  V30 1056 O 102.828 -1.70098 0.971779 0
M  V30 1057 H 101.408 0.159558 0.72976 0
M  V30 1058 H 104.07 1.07665 1.62463 0
M  V30 1059 H 103.166 0.574886 3.0676 0
M  V30 1060 N 103.467 -1.45747 0.599634 0
M  V30 1061 C 104.697 -2.06369 0.0977132 0
M  V30 1062 C 105.105 -1.44624 -1.21985 0
M  V30 1063 O 104.448 -0.551831 -1.75216 0
M  V30 1064 C 104.51 -3.59284 -0.124673 0
M  V30 1065 C 104.174 -4.43318 1.10987 0
M  V30 1066 C 105.171 -4.78796 2.02609 0
M  V30 1067 C 102.856 -4.84194 1.33647 0
M  V30 1068 C 104.85 -5.53997 3.15224 0
M  V30 1069 C 102.537 -5.5915 2.46565 0
M  V30 1070 C 103.535 -5.93968 3.37182 0
M  V30 1071 O 103.223 -6.67405 4.48136 0
M  V30 1072 H 102.955 -0.673122 0.0623153 0
M  V30 1073 H 105.509 -1.88104 0.824981 0
M  V30 1074 H 103.739 -3.75919 -0.906745 0
M  V30 1075 H 105.428 -4.01775 -0.577201 0
M  V30 1076 H 106.194 -4.47781 1.86325 0
M  V30 1077 H 102.073 -4.56534 0.64016 0
M  V30 1078 H 105.617 -5.81091 3.85978 0
M  V30 1079 H 101.514 -5.89579 2.62805 0
M  V30 1080 H 102.282 -6.85847 4.46717 0
M  V30 1081 N 104.945 -0.338344 -1.53925 0
M  V30 1082 C 106.192 0.259758 -2.00827 0
M  V30 1083 C 106.52 1.50973 -1.22628 0
M  V30 1084 O 105.775 1.93379 -0.300509 0
M  V30 1085 C 106.074 0.62448 -3.51902 0
M  V30 1086 C 105.74 -0.528006 -4.47798 0
M  V30 1087 C 104.402 -0.844298 -4.73735 0
M  V30 1088 C 106.754 -1.30143 -5.0469 0
M  V30 1089 C 104.082 -1.93648 -5.53821 0
M  V30 1090 C 106.434 -2.38382 -5.85967 0
M  V30 1091 C 105.098 -2.70576 -6.10201 0
M  V30 1092 H 104.368 0.0950523 -0.734878 0
M  V30 1093 H 107.015 -0.465182 -1.85764 0
M  V30 1094 H 105.32 1.43006 -3.64769 0
M  V30 1095 H 107.017 1.09905 -3.85645 0
M  V30 1096 H 103.607 -0.271421 -4.2774 0
M  V30 1097 H 107.791 -1.07033 -4.84621 0
M  V30 1098 H 103.047 -2.19021 -5.70824 0
M  V30 1099 H 107.221 -2.98746 -6.29066 0
M  V30 1100 H 104.848 -3.55333 -6.72044 0
M  V30 1101 N 106.423 1.57458 -0.0668435 0
M  V30 1102 C 107.834 1.80776 0.466558 0
M  V30 1103 C 108.185 0.980361 1.69951 0
M  V30 1104 O 107.31 0.201441 2.1546 0
M  V30 1105 C 107.905 3.27881 0.85321 0
M  V30 1106 C 106.464 3.52062 1.3315 0
M  V30 1107 C 105.611 2.75513 0.314264 0
M  V30 1108 H 108.562 1.5598 -0.292588 0
M  V30 1109 H 108.583 3.39659 1.715 0
M  V30 1110 H 108.095 3.88075 -0.0443439 0
M  V30 1111 H 106.196 2.97167 2.24772 0
M  V30 1112 H 106.309 4.60762 1.31285 0
M  V30 1113 H 104.673 2.42123 0.790492 0
M  V30 1114 H 105.456 3.38442 -0.575477 0
M  V30 1115 N 107.901 -0.206675 1.56239 0
M  V30 1116 C 109.129 -0.945345 1.8404 0
M  V30 1117 C 109.544 -1.77336 0.647885 0
M  V30 1118 O 108.901 -1.78425 -0.383511 0
M  V30 1119 C 108.952 -1.8509 3.10522 0
M  V30 1120 O 108.673 -1.05634 4.25174 0
M  V30 1121 C 110.174 -2.70222 3.51418 0
M  V30 1122 H 107.394 -0.276372 0.61144 0
M  V30 1123 H 109.938 -0.217417 2.03341 0
M  V30 1124 H 108.093 -2.53259 2.93153 0
M  V30 1125 H 108.507 -1.67238 4.97124 0
M  V30 1126 H 109.981 -3.29438 4.42916 0
M  V30 1127 H 110.458 -3.43358 2.73864 0
M  V30 1128 H 111.064 -2.07443 3.71278 0
M  V30 1129 N 109.379 -1.50304 -0.473955 0
M  V30 1130 C 110.625 -1.61389 -1.22806 0
M  V30 1131 C 110.958 -0.311955 -1.91678 0
M  V30 1132 O 110.233 0.686384 -1.81986 0
M  V30 1133 C 110.516 -2.79219 -2.27396 0
M  V30 1134 C 110.369 -4.19286 -1.62848 0
M  V30 1135 C 111.688 -2.92614 -3.28732 0
M  V30 1136 H 108.807 -0.587399 -0.445119 0
M  V30 1137 H 111.449 -1.82681 -0.522265 0
M  V30 1138 H 109.599 -2.61195 -2.87592 0
M  V30 1139 H 111.271 -4.48892 -1.06271 0
M  V30 1140 H 109.514 -4.23677 -0.931693 0
M  V30 1141 H 110.185 -4.97655 -2.38838 0
M  V30 1142 H 112.661 -3.09105 -2.78556 0
M  V30 1143 H 111.537 -3.76688 -3.99246 0
M  V30 1144 H 111.798 -2.03107 -3.92683 0
M  V30 1145 N 110.857 0.726932 -1.39834 0
M  V30 1146 C 112.105 1.4837 -1.37225 0
M  V30 1147 C 112.426 1.94979 0.0284857 0
M  V30 1148 O 111.696 1.69555 0.981213 0
M  V30 1149 H 110.276 0.55043 -0.505011 0
M  V30 1150 H 112.938 0.862468 -1.74778 0
M  V30 1151 H 112.034 2.36198 -2.04003 0
M  V30 1152 N 112.336 1.25143 0.95797 0
M  V30 1153 C 113.561 1.12521 1.74223 0
M  V30 1154 C 113.986 -0.317402 1.85403 0
M  V30 1155 O 113.344 -1.2299 1.33204 0
M  V30 1156 C 113.392 1.78062 3.1357 0
M  V30 1157 O 112.496 1.058 3.98598 0
M  V30 1158 H 111.837 0.39304 0.535178 0
M  V30 1159 H 114.367 1.65641 1.201 0
M  V30 1160 H 114.377 1.84213 3.64046 0
M  V30 1161 H 113.052 2.83021 3.04749 0
M  V30 1162 H 111.629 1.07506 3.57067 0
M  V30 1163 N 113.814 -1.1601 1.06675 0
M  V30 1164 C 115.225 -1.68235 0.809565 0
M  V30 1165 C 115.576 -1.8454 -0.666303 0
M  V30 1166 O 114.701 -1.54374 -1.5165 0
M  V30 1167 C 115.296 -3.05585 1.46299 0
M  V30 1168 C 113.855 -3.54915 1.25349 0
M  V30 1169 C 113.002 -2.30804 1.53703 0
M  V30 1170 H 115.953 -1.00318 1.22971 0
M  V30 1171 H 115.974 -3.70174 0.880431 0
M  V30 1172 H 115.486 -2.93686 2.53713 0
M  V30 1173 H 113.587 -3.72067 0.199261 0
M  V30 1174 H 113.7 -4.36774 1.9689 0
M  V30 1175 H 112.064 -2.36007 0.957739 0
M  V30 1176 H 112.847 -2.21499 2.62284 0
M  V30 1177 N 115.292 -0.849877 -1.32721 0
M  V30 1178 C 116.202 -0.293791 -2.32753 0
M  V30 1179 C 117.218 0.585906 -1.63839 0
M  V30 1180 O 118.394 0.487413 -1.95413 0
M  V30 1181 C 115.459 0.512752 -3.42887 0
M  V30 1182 C 114.52 -0.39252 -4.27502 0
M  V30 1183 C 113.753 0.375625 -5.32377 0
M  V30 1184 O 113.976 1.60613 -5.4732 0
M  V30 1185 O 112.91 -0.256094 -6.01355 0
M  V30 1186 H 116.736 -1.12242 -2.82197 0
M  V30 1187 H 114.321 -0.612685 -1.36259 0
M  V30 1188 H 116.203 0.970704 -4.10067 0
M  V30 1189 H 114.878 1.31826 -2.95641 0
M  V30 1190 H 113.785 -0.898547 -3.63149 0
M  V30 1191 H 115.118 -1.16309 -4.7826 0
M  V30 1192 N 116.77 1.45427 -0.607355 0
M  V30 1193 C 117.733 2.28974 0.101693 0
M  V30 1194 C 118.733 1.39754 0.795329 0
M  V30 1195 O 119.923 1.61878 0.643527 0
M  V30 1196 C 117.055 3.20768 1.15414 0
M  V30 1197 H 118.248 2.93147 -0.632844 0
M  V30 1198 H 115.801 1.51945 -0.366391 0
M  V30 1199 H 116.536 2.61395 1.91945 0
M  V30 1200 H 116.321 3.86489 0.66098 0
M  V30 1201 H 117.811 3.83589 1.65073 0
M  V30 1202 N 118.248 0.346503 1.53744 0
M  V30 1203 C 119.664 -0.00530975 1.59599 0
M  V30 1204 C 119.864 -1.48465 1.36236 0
M  V30 1205 O 118.92 -2.24376 1.15808 0
M  V30 1206 C 120.233 0.433516 2.97559 0
M  V30 1207 C 121.781 0.386111 3.10609 0
M  V30 1208 C 122.256 0.800451 4.50951 0
M  V30 1209 N 123.747 0.754753 4.5701 0
M  V30 1210 C 124.482 1.04727 5.63755 0
M  V30 1211 N 123.978 1.4081 6.7834 0
M  V30 1212 N 125.771 0.971316 5.53644 0
M  V30 1213 H 117.922 1.31009 1.67184 0
M  V30 1214 H 120.185 0.534242 0.783128 0
M  V30 1215 H 119.891 1.46509 3.19731 0
M  V30 1216 H 119.765 -0.189753 3.76722 0
M  V30 1217 H 122.152 -0.636295 2.88158 0
M  V30 1218 H 122.233 1.04462 2.33498 0
M  V30 1219 H 121.877 1.82088 4.74137 0
M  V30 1220 H 121.807 0.119386 5.26465 0
M  V30 1221 H 124.298 0.488662 3.74727 0
M  V30 1222 H 124.611 1.61607 7.55714 0
M  V30 1223 H 122.956 1.44657 6.79779 0
M  V30 1224 H 126.147 0.688748 4.63005 0
M  V30 1225 H 126.32 1.20263 6.36742 0
M  V30 1226 N 119.726 -1.57421 0.075193 0
M  V30 1227 C 120.636 -2.1642 -0.905511 0
M  V30 1228 C 121.652 -1.12828 -1.32461 0
M  V30 1229 O 122.828 -1.45109 -1.39661 0
M  V30 1230 C 119.893 -2.71693 -2.15369 0
M  V30 1231 C 118.954 -3.90171 -1.79068 0
M  V30 1232 C 118.187 -4.42798 -2.97936 0
M  V30 1233 O 118.41 -3.94416 -4.12058 0
M  V30 1234 O 117.344 -5.34085 -2.77555 0
M  V30 1235 H 121.17 -3.00588 -0.433626 0
M  V30 1236 H 118.755 -1.48664 -0.148067 0
M  V30 1237 H 120.637 -3.07104 -2.88557 0
M  V30 1238 H 119.312 -1.90582 -2.61649 0
M  V30 1239 H 118.219 -3.59606 -1.03122 0
M  V30 1240 H 119.552 -4.72584 -1.37569 0
M  V30 1241 N 121.204 0.198386 -1.56346 0
M  V30 1242 C 122.167 1.22952 -1.93431 0
M  V30 1243 C 123.167 1.38611 -0.815092 0
M  V30 1244 O 124.357 1.36479 -1.08255 0
M  V30 1245 C 121.489 2.59946 -2.20546 0
M  V30 1246 H 122.682 0.912626 -2.85677 0
M  V30 1247 H 120.235 0.43977 -1.49986 0
M  V30 1248 H 120.97 2.96696 -1.30927 0
M  V30 1249 H 120.755 2.49953 -3.02102 0
M  V30 1250 H 122.245 3.3431 -2.50253 0
M  V30 1251 N 122.682 1.50554 0.465978 0
M  V30 1252 C 123.928 1.62038 1.21949 0
M  V30 1253 C 124.261 0.322116 1.9151 0
M  V30 1254 O 123.536 -0.676723 1.82348 0
M  V30 1255 C 123.819 2.80421 2.25912 0
M  V30 1256 C 123.672 4.20144 1.60622 0
M  V30 1257 C 124.991 2.94354 3.27176 0
M  V30 1258 H 122.11 0.589752 0.441998 0
M  V30 1259 H 124.752 1.82956 0.51257 0
M  V30 1260 H 122.902 2.62717 2.86203 0
M  V30 1261 H 124.574 4.49449 1.03889 0
M  V30 1262 H 122.817 4.24165 0.909211 0
M  V30 1263 H 123.488 4.98914 2.36196 0
M  V30 1264 H 125.964 3.10578 2.76913 0
M  V30 1265 H 124.84 3.788 3.97242 0
M  V30 1266 H 125.101 2.05186 3.916 0
M  V30 1267 N 124.16 -0.719506 1.40217 0
M  V30 1268 C 125.123 -1.8153 1.39927 0
M  V30 1269 C 126.123 -1.58095 0.293723 0
M  V30 1270 O 127.313 -1.65209 0.552429 0
M  V30 1271 C 124.445 -3.19561 1.18716 0
M  V30 1272 H 125.638 -1.83186 2.37451 0
M  V30 1273 H 123.191 -0.924746 1.26008 0
M  V30 1274 H 123.926 -3.23557 0.219366 0
M  V30 1275 H 123.711 -3.3797 1.98793 0
M  V30 1276 H 125.201 -3.99598 1.21291 0
M  V30 1277 N 125.638 -1.25649 -0.95132 0
M  V30 1278 C 126.866 -1.13343 -1.73092 0
M  V30 1279 C 127.281 0.312434 -1.86197 0
M  V30 1280 O 126.638 1.21465 -1.36207 0
M  V30 1281 C 126.689 -1.78602 -3.14299 0
M  V30 1282 O 126.41 -3.17537 -3.01831 0
M  V30 1283 C 127.911 -1.72119 -4.08522 0
M  V30 1284 H 125.131 -0.395181 -0.542285 0
M  V30 1285 H 127.675 -1.66076 -1.19328 0
M  V30 1286 H 125.83 -1.29832 -3.64996 0
M  V30 1287 H 126.244 -3.49676 -3.90931 0
M  V30 1288 H 127.718 -2.22435 -5.052 0
M  V30 1289 H 128.195 -0.685635 -4.33815 0
M  V30 1290 H 128.801 -2.20393 -3.63741 0
M  V30 1291 N 127.117 1.15442 -1.07289 0
M  V30 1292 C 128.363 1.8672 -0.806679 0
M  V30 1293 C 128.718 1.80723 0.660084 0
M  V30 1294 O 128.011 1.21902 1.47819 0
M  V30 1295 C 128.205 3.3489 -1.24834 0
M  V30 1296 C 128.034 3.55313 -2.7565 0
M  V30 1297 C 126.804 3.7082 -3.4325 0
M  V30 1298 C 129.002 3.53188 -3.73848 0
M  V30 1299 N 126.984 3.7929 -4.82713 0
M  V30 1300 C 128.355 3.67765 -4.99149 0
M  V30 1301 C 130.41 3.36459 -3.67015 0
M  V30 1302 C 129.113 3.6734 -6.18428 0
M  V30 1303 C 131.139 3.37333 -4.85758 0
M  V30 1304 C 130.501 3.52438 -6.09891 0
M  V30 1305 H 126.6 0.700433 -0.347733 0
M  V30 1306 H 129.184 1.38441 -1.36902 0
M  V30 1307 H 127.355 3.81786 -0.713713 0
M  V30 1308 H 129.087 3.93875 -0.929745 0
M  V30 1309 H 125.842 3.71568 -2.93656 0
M  V30 1310 H 126.266 3.8727 -5.55294 0
M  V30 1311 H 130.908 3.237 -2.71989 0
M  V30 1312 H 128.626 3.78878 -7.13777 0
M  V30 1313 H 132.212 3.25617 -4.82146 0
M  V30 1314 H 131.092 3.53047 -7.00234 0
M  V30 1315 N 128.595 0.856903 1.32268 0
M  V30 1316 C 129.841 0.471355 1.97863 0
M  V30 1317 C 130.196 -0.962896 1.66572 0
M  V30 1318 O 129.489 -1.66686 0.944797 0
M  V30 1319 C 129.683 0.649919 3.51441 0
M  V30 1320 C 129.512 2.09997 3.97657 0
M  V30 1321 C 128.282 2.73893 4.2463 0
M  V30 1322 C 130.48 3.07081 4.1256 0
M  V30 1323 N 128.462 4.09786 4.57109 0
M  V30 1324 C 129.833 4.27968 4.48602 0
M  V30 1325 C 131.888 3.03247 3.949 0
M  V30 1326 C 130.591 5.45521 4.68827 0
M  V30 1327 C 132.617 4.20046 4.16311 0
M  V30 1328 C 131.979 5.39692 4.52672 0
M  V30 1329 H 128.078 0.221263 0.750044 0
M  V30 1330 H 130.662 1.10876 1.60045 0
M  V30 1331 H 128.833 0.0421938 3.88377 0
M  V30 1332 H 130.565 0.234044 4.04023 0
M  V30 1333 H 127.32 2.24918 4.16784 0
M  V30 1334 H 127.744 4.7989 4.7753 0
M  V30 1335 H 132.386 2.11863 3.65888 0
M  V30 1336 H 130.104 6.37434 4.96693 0
M  V30 1337 H 133.69 4.18517 4.04147 0
M  V30 1338 H 132.57 6.28566 4.68907 0
M  V30 1339 N 130.073 -1.45103 0.615059 0
M  V30 1340 C 131.489 -1.57137 0.279322 0
M  V30 1341 C 131.689 -1.60523 -1.21797 0
M  V30 1342 O 130.745 -1.53956 -2.00134 0
M  V30 1343 C 132.058 -2.85062 0.957083 0
M  V30 1344 C 133.606 -2.98749 0.933706 0
M  V30 1345 C 134.081 -4.29455 1.59162 0
M  V30 1346 N 135.572 -4.36231 1.55746 0
M  V30 1347 C 136.307 -5.36051 2.0356 0
M  V30 1348 N 135.803 -6.42367 2.59494 0
M  V30 1349 N 137.596 -5.27456 1.94284 0
M  V30 1350 H 129.747 -1.41148 1.58717 0
M  V30 1351 H 132.01 -0.675331 0.665306 0
M  V30 1352 H 131.716 -2.88488 2.01166 0
M  V30 1353 H 131.59 -3.7407 0.48494 0
M  V30 1354 H 133.977 -2.94886 -0.112347 0
M  V30 1355 H 134.058 -2.11132 1.44419 0
M  V30 1356 H 133.702 -4.34077 2.63704 0
M  V30 1357 H 133.632 -5.15901 1.0561 0
M  V30 1358 H 136.123 -3.60011 1.14893 0
M  V30 1359 H 136.436 -7.14793 2.93752 0
M  V30 1360 H 134.781 -6.43097 2.63537 0
M  V30 1361 H 137.972 -4.43308 1.5032 0
M  V30 1362 H 138.145 -6.05099 2.3186 0
M  V30 1363 N 131.551 -0.354651 -1.53558 0
M  V30 1364 C 132.499 0.512195 -2.26891 0
M  V30 1365 C 133.493 1.09263 -1.29452 0
M  V30 1366 O 134.699 1.03709 -1.47121 0
M  V30 1367 H 131.074 0.183878 -0.729173 0
M  V30 1368 H 133.045 -0.128202 -2.98124 0
M  V30 1369 C 131.794 1.64563 -3.06291 0
M  V30 1370 H 131.117 1.20829 -3.81104 0
M  V30 1371 H 132.557 2.22711 -3.60799 0
M  V30 1372 C 131.016 2.58158 -2.16462 0
M  V30 1373 O 131.546 3.60695 -1.76811 0
M  V30 1374 N 129.752 2.27096 -1.81317 0
M  V30 1375 H 129.299 1.43751 -2.1376 0
M  V30 1376 H 129.257 2.89975 -1.21498 0
M  V30 1377 N 133.029 1.57378 -0.0835403 0
M  V30 1378 C 134.254 1.98682 0.594987 0
M  V30 1379 C 134.679 0.961969 1.61641 0
M  V30 1380 O 134.037 -0.0709989 1.81161 0
M  V30 1381 C 134.085 3.38988 1.2296 0
M  V30 1382 O 133.189 3.39208 2.34546 0
M  V30 1383 H 132.53 0.646368 0.152002 0
M  V30 1384 H 135.06 2.03961 -0.161533 0
M  V30 1385 H 135.07 3.76431 1.57366 0
M  V30 1386 H 133.745 4.13107 0.481228 0
M  V30 1387 H 132.322 3.13548 2.01846 0
M  V30 1388 N 134.507 -0.190092 1.56449 0
M  V30 1389 C 135.754 -0.909705 1.80916 0
M  V30 1390 C 136.082 -1.83047 0.657583 0
M  V30 1391 O 135.337 -1.92428 -0.356356 0
M  V30 1392 C 135.636 -1.75382 3.1141 0
M  V30 1393 C 135.302 -0.983606 4.40041 0
M  V30 1394 C 133.964 -0.770967 4.74984 0
M  V30 1395 C 136.316 -0.442024 5.19322 0
M  V30 1396 C 133.644 -0.0053448 5.867 0
M  V30 1397 C 135.996 0.310412 6.31838 0
M  V30 1398 C 134.66 0.534023 6.6536 0
M  V30 1399 H 133.93 -0.332885 0.662019 0
M  V30 1400 H 136.577 -0.175762 1.90692 0
M  V30 1401 H 134.882 -2.55659 2.96893 0
M  V30 1402 H 136.579 -2.31331 3.27547 0
M  V30 1403 H 133.169 -1.15936 4.12622 0
M  V30 1404 H 137.353 -0.593693 4.92736 0
M  V30 1405 H 132.609 0.177825 6.11141 0
M  V30 1406 H 136.783 0.737419 6.92485 0
M  V30 1407 H 134.41 1.12918 7.51767 0
M  V30 1408 N 135.985 -1.50799 -0.457987 0
M  V30 1409 C 137.231 -1.62683 -1.21088 0
M  V30 1410 C 137.564 -0.332268 -1.91336 0
M  V30 1411 O 136.839 0.667043 -1.82704 0
M  V30 1412 C 137.122 -2.81615 -2.24422 0
M  V30 1413 C 136.975 -4.20989 -1.58392 0
M  V30 1414 C 138.294 -2.96085 -3.2561 0
M  V30 1415 H 135.413 -0.592087 -0.438864 0
M  V30 1416 H 138.055 -1.83225 -0.50286 0
M  V30 1417 H 136.205 -2.64231 -2.84806 0
M  V30 1418 H 137.877 -4.49994 -1.01504 0
M  V30 1419 H 136.12 -4.24641 -0.886704 0
M  V30 1420 H 136.791 -5.0016 -2.33547 0
M  V30 1421 H 139.267 -3.12042 -2.75262 0
M  V30 1422 H 138.143 -3.80902 -3.95228 0
M  V30 1423 H 138.404 -2.0726 -3.90507 0
M  V30 1424 N 137.463 0.71206 -1.40597 0
M  V30 1425 C 138.413 1.81783 -1.37619 0
M  V30 1426 C 139.397 1.58896 -0.253162 0
M  V30 1427 O 140.589 1.70009 -0.492547 0
M  V30 1428 C 137.718 3.19944 -1.24462 0
M  V30 1429 C 136.804 3.48582 -2.4156 0
M  V30 1430 N 137.195 3.48016 -3.67041 0
M  V30 1431 C 135.493 3.79056 -2.35016 0
M  V30 1432 C 136.194 3.75096 -4.44609 0
M  V30 1433 N 135.17 3.94022 -3.74497 0
M  V30 1434 H 138.972 1.79683 -2.32575 0
M  V30 1435 H 136.486 0.91134 -1.34419 0
M  V30 1436 H 138.483 3.99133 -1.20411 0
M  V30 1437 H 137.143 3.23267 -0.304762 0
M  V30 1438 H 138.154 3.28782 -4.00153 0
M  V30 1439 H 134.831 3.89848 -1.49415 0
M  V30 1440 H 136.221 3.80934 -5.53479 0
M  V30 1441 N 138.941 1.26152 0.944643 0
M  V30 1442 C 139.888 1.07408 2.04285 0
M  V30 1443 C 140.858 -0.0198413 1.66088 0
M  V30 1444 O 142.043 0.139264 1.90291 0
M  V30 1445 C 139.183 0.70945 3.37729 0
M  V30 1446 C 138.296 1.87926 3.88983 0
M  V30 1447 C 137.431 1.45807 5.10797 0
M  V30 1448 C 136.47 2.5964 5.54305 0
M  V30 1449 N 135.607 2.18226 6.67324 0
M  V30 1450 H 140.447 2.01389 2.1965 0
M  V30 1451 H 137.984 1.00275 1.07626 0
M  V30 1452 H 139.942 0.478948 4.14442 0
M  V30 1453 H 138.572 -0.193389 3.2222 0
M  V30 1454 H 137.624 2.22279 3.08701 0
M  V30 1455 H 138.936 2.73377 4.17213 0
M  V30 1456 H 138.09 1.18781 5.94959 0
M  V30 1457 H 136.829 0.574414 4.84305 0
M  V30 1458 H 135.834 2.87399 4.68702 0
M  V30 1459 H 137.059 3.48599 5.828 0
M  V30 1460 H 135.005 1.3229 6.42523 0
M  V30 1461 H 134.922 2.97221 6.95123 0
M  V30 1462 H 136.19 1.94403 7.54869 0
M  V30 1463 N 140.419 -1.14872 1.07899 0
M  V30 1464 C 141.329 -2.2341 0.715915 0
M  V30 1465 C 142.345 -1.71808 -0.275306 0
M  V30 1466 O 143.521 -2.01039 -0.120545 0
M  V30 1467 C 140.586 -3.46474 0.125168 0
M  V30 1468 C 139.647 -4.13039 1.17034 0
M  V30 1469 C 138.88 -5.30229 0.607688 0
M  V30 1470 O 139.103 -5.675 -0.574497 0
M  V30 1471 O 138.037 -5.86444 1.35526 0
M  V30 1472 H 141.863 -2.56808 1.62121 0
M  V30 1473 H 139.448 -1.22702 0.852322 0
M  V30 1474 H 141.33 -4.20917 -0.201729 0
M  V30 1475 H 140.005 -3.14811 -0.753364 0
M  V30 1476 H 138.912 -3.40493 1.54968 0
M  V30 1477 H 140.245 -4.48796 2.02097 0
M  V30 1478 N 141.898 -0.863906 -1.31812 0
M  V30 1479 C 142.808 -0.318461 -2.32428 0
M  V30 1480 C 143.824 0.568496 -1.64451 0
M  V30 1481 O 145 0.46666 -1.95919 0
M  V30 1482 C 142.065 0.476355 -3.43412 0
M  V30 1483 C 141.126 -0.43784 -4.27061 0
M  V30 1484 C 140.359 0.319138 -5.32745 0
M  V30 1485 O 140.582 1.54799 -5.48993 0
M  V30 1486 O 139.516 -0.319861 -6.01049 0
M  V30 1487 H 143.342 -1.15229 -2.80991 0
M  V30 1488 H 140.927 -0.627103 -1.35602 0
M  V30 1489 H 142.809 0.927156 -4.11074 0
M  V30 1490 H 141.484 1.28683 -2.97022 0
M  V30 1491 H 140.391 -0.937013 -3.62175 0
M  V30 1492 H 141.724 -1.21375 -4.77 0
M  V30 1493 N 143.376 1.44774 -0.622745 0
M  V30 1494 C 144.306 2.33382 0.0741861 0
M  V30 1495 C 145.287 1.47719 0.843387 0
M  V30 1496 O 146.472 1.76458 0.810934 0
M  V30 1497 C 143.602 3.30663 1.06204 0
M  V30 1498 C 142.556 4.26079 0.405037 0
M  V30 1499 C 141.882 5.13165 1.5022 0
M  V30 1500 C 143.182 5.1781 -0.683414 0
M  V30 1501 H 144.876 2.91905 -0.665713 0
M  V30 1502 H 142.422 1.40363 -0.321587 0
M  V30 1503 H 144.375 3.9153 1.55827 0
M  V30 1504 H 143.099 2.70331 1.83272 0
M  V30 1505 H 141.758 3.66532 -0.0704683 0
M  V30 1506 H 141.406 4.49191 2.26355 0
M  V30 1507 H 141.106 5.77812 1.06803 0
M  V30 1508 H 142.63 5.76902 2.00041 0
M  V30 1509 H 144.044 5.72661 -0.270631 0
M  V30 1510 H 142.441 5.91015 -1.04023 0
M  V30 1511 H 143.511 4.59326 -1.55395 0
M  V30 1512 N 144.854 0.36279 1.53368 0
M  V30 1513 C 145.801 -0.485008 2.25646 0
M  V30 1514 C 146.771 -1.07982 1.2621 0
M  V30 1515 O 147.956 -1.11284 1.54986 0
M  V30 1516 C 145.096 -1.62023 3.04701 0
M  V30 1517 C 144.209 -1.05086 4.19024 0
M  V30 1518 C 143.344 -2.15496 4.85525 0
M  V30 1519 C 142.383 -1.5601 5.91884 0
M  V30 1520 N 141.52 -2.60241 6.52088 0
M  V30 1521 H 146.36 0.137864 2.97681 0
M  V30 1522 H 143.897 0.0798061 1.46883 0
M  V30 1523 H 145.855 -2.28887 3.48807 0
M  V30 1524 H 144.485 -2.2138 2.34927 0
M  V30 1525 H 143.537 -0.27259 3.79422 0
M  V30 1526 H 144.849 -0.575926 4.95464 0
M  V30 1527 H 144.003 -2.90186 5.32801 0
M  V30 1528 H 142.742 -2.66341 4.08551 0
M  V30 1529 H 141.747 -0.798338 5.43973 0
M  V30 1530 H 142.972 -1.05994 6.70777 0
M  V30 1531 H 140.918 -3.10304 5.77968 0
M  V30 1532 H 140.835 -2.17426 7.24059 0
M  V30 1533 H 142.103 -3.34641 7.04014 0
M  V30 1534 N 146.332 -1.57332 0.0918853 0
M  V30 1535 C 147.557 -1.98995 -0.584442 0
M  V30 1536 C 147.982 -0.970528 -1.61128 0
M  V30 1537 O 147.34 0.0613904 -1.81196 0
M  V30 1538 C 147.388 -3.39636 -1.21161 0
M  V30 1539 O 146.492 -3.40447 -2.32744 0
M  V30 1540 H 145.833 -0.647165 -0.148572 0
M  V30 1541 H 148.363 -2.03873 0.172347 0
M  V30 1542 H 148.373 -3.7726 -1.55367 0
M  V30 1543 H 147.048 -4.13356 -0.459313 0
M  V30 1544 H 145.625 -3.14614 -2.0018 0
M  V30 1545 N 147.81 0.181792 -1.56548 0
M  V30 1546 C 149.038 0.915947 -1.85521 0
M  V30 1547 C 149.453 1.76282 -0.676016 0
M  V30 1548 O 148.81 1.79012 0.355077 0
M  V30 1549 C 148.861 1.80126 -3.13427 0
M  V30 1550 O 148.582 0.988562 -4.26801 0
M  V30 1551 C 150.083 2.64597 -3.55673 0
M  V30 1552 H 147.303 0.26661 -0.61576 0
M  V30 1553 H 149.847 0.185039 -2.03661 0
M  V30 1554 H 148.002 2.48563 -2.97145 0
M  V30 1555 H 148.416 1.59308 -4.99721 0
M  V30 1556 H 149.89 3.2235 -4.48101 0
M  V30 1557 H 150.367 3.38958 -2.79292 0
M  V30 1558 H 150.973 2.0151 -3.74532 0
M  V30 1559 N 149.288 1.51039 0.449983 0
M  V30 1560 C 150.537 1.62317 1.19733 0
M  V30 1561 C 150.85 0.339101 1.92638 0
M  V30 1562 O 152.056 0.331069 2.69474 0
M  V30 1563 C 150.512 2.86608 2.17678 0
M  V30 1564 C 150.12 4.21972 1.50479 0
M  V30 1565 C 151.864 3.07239 2.92924 0
M  V30 1566 C 149.771 5.37426 2.46834 0
M  V30 1567 H 148.701 0.604532 0.450619 0
M  V30 1568 H 151.352 1.77494 0.465625 0
M  V30 1569 H 149.734 2.65037 2.94231 0
M  V30 1570 H 150.908 4.53878 0.795716 0
M  V30 1571 H 149.223 4.07117 0.874344 0
M  V30 1572 H 151.82 3.90668 3.65079 0
M  V30 1573 H 152.163 2.19807 3.5354 0
M  V30 1574 H 152.696 3.29091 2.23481 0
M  V30 1575 H 149.435 6.27079 1.90926 0
M  V30 1576 H 148.955 5.09912 3.15832 0
M  V30 1577 H 150.634 5.68862 3.08228 0
M  V30 1578 N 150.766 -0.704594 1.40972 0
M  V30 1579 C 152.012 -1.46675 1.40051 0
M  V30 1580 C 152.345 -1.94199 0.00641102 0
M  V30 1581 O 151.62 -1.68916 -0.964235 0
M  V30 1582 C 151.903 -2.68505 2.39952 0
M  V30 1583 C 151.756 -2.26805 3.88432 0
M  V30 1584 C 153.075 -3.70686 2.37233 0
M  V30 1585 H 150.194 -0.532015 0.510028 0
M  V30 1586 H 152.836 -0.803255 1.72185 0
M  V30 1587 H 150.986 -3.25114 2.1268 0
M  V30 1588 H 152.658 -1.75592 4.26574 0
M  V30 1589 H 150.901 -1.58685 4.03734 0
M  V30 1590 H 151.572 -3.14181 4.53866 0
M  V30 1591 H 154.048 -3.23731 2.61415 0
M  V30 1592 H 152.924 -4.53553 3.09162 0
M  V30 1593 H 153.185 -4.19754 1.38777 0
M  V30 1594 N 152.244 -1.26651 -0.937939 0
M  V30 1595 C 153.191 -1.0849 -2.03712 0
M  V30 1596 C 154.161 0.011033 -1.66096 0
M  V30 1597 O 155.346 -0.149353 -1.90215 0
M  V30 1598 C 152.486 -0.72735 -3.37348 0
M  V30 1599 C 151.599 -1.89986 -3.87981 0
M  V30 1600 C 150.734 -1.48513 -5.10017 0
M  V30 1601 C 149.773 -2.62575 -5.5292 0
M  V30 1602 N 148.91 -2.21762 -6.66158 0
M  V30 1603 H 153.75 -2.02551 -2.18579 0
M  V30 1604 H 151.287 -1.00844 -1.07093 0
M  V30 1605 H 153.245 -0.50092 -4.14182 0
M  V30 1606 H 151.875 0.176298 -3.22318 0
M  V30 1607 H 150.927 -2.23913 -3.07518 0
M  V30 1608 H 152.239 -2.75586 -4.15757 0
M  V30 1609 H 151.393 -1.21934 -5.94321 0
M  V30 1610 H 150.132 -0.60009 -4.83994 0
M  V30 1611 H 149.137 -2.8988 -4.67172 0
M  V30 1612 H 150.362 -3.51685 -5.80943 0
M  V30 1613 H 148.308 -1.35696 -6.41812 0
M  V30 1614 H 148.225 -3.00903 -6.93537 0
M  V30 1615 H 149.493 -1.98403 -7.53828 0
M  V30 1616 N 153.722 1.14298 -1.08507 0
M  V30 1617 C 154.999 1.81544 -0.728088 0
M  V30 1618 C 155.379 1.95838 0.78808 0
M  V30 1619 O 154.727 1.51904 1.70697 0
M  V30 1620 C 154.937 3.17169 -1.45619 0
M  V30 1621 C 156.285 3.9265 -1.61591 0
M  V30 1622 O 157.309 3.26762 -1.41793 0
M  V30 1623 O 156.168 5.10807 -1.94263 0
M  V30 1624 H 153.262 0.78491 -0.260471 0
M  V30 1625 H 155.808 1.21307 -1.18671 0
M  V30 1626 H 154.58 3.01934 -2.489 0
M  V30 1627 H 154.203 3.851 -0.989124 0
M  V30 1628 N 155.201 0.870884 1.31352 0
M  V30 1629 C 156.149 0.316445 2.30437 0
M  V30 1630 C 157.143 -0.568965 1.59559 0
M  V30 1631 O 158.349 -0.454964 1.74155 0
M  V30 1632 H 154.724 0.0836521 0.747333 0
M  V30 1633 H 156.695 1.16606 2.74673 0
M  V30 1634 C 155.444 -0.46635 3.44558 0
M  V30 1635 H 154.767 0.205687 3.99271 0
M  V30 1636 H 156.207 -0.819614 4.16003 0
M  V30 1637 C 154.666 -1.65797 2.9328 0
M  V30 1638 O 155.196 -2.75728 2.92125 0
M  V30 1639 N 153.402 -1.49041 2.4947 0
M  V30 1640 H 152.949 -0.59612 2.50608 0
M  V30 1641 H 152.907 -2.28911 2.15516 0
M  V30 1642 N 156.679 -1.44442 0.630414 0
M  V30 1643 C 157.925 -2.02351 0.134816 0
M  V30 1644 C 158.258 -1.4947 -1.23986 0
M  V30 1645 O 157.533 -0.678475 -1.82283 0
M  V30 1646 C 157.816 -3.59898 0.120707 0
M  V30 1647 C 157.669 -4.23063 1.52767 0
M  V30 1648 C 158.988 -4.36585 -0.555127 0
M  V30 1649 H 156.107 -0.73527 0.0504646 0
M  V30 1650 H 158.749 -1.72022 0.806751 0
M  V30 1651 H 156.899 -3.85868 -0.451477 0
M  V30 1652 H 158.571 -4.08202 2.14869 0
M  V30 1653 H 156.814 -3.80586 2.08175 0
M  V30 1654 H 157.485 -5.32071 1.46984 0
M  V30 1655 H 159.961 -4.16044 -0.0685429 0
M  V30 1656 H 158.837 -5.46294 -0.534185 0
M  V30 1657 H 159.098 -4.11138 -1.62535 0
M  V30 1658 N 158.157 -0.370918 -1.53173 0
M  V30 1659 C 159.403 0.217423 -2.01631 0
M  V30 1660 C 159.736 1.47983 -1.25756 0
M  V30 1661 O 159.011 1.91274 -0.352764 0
M  V30 1662 C 159.294 0.503982 -3.56556 0
M  V30 1663 C 159.147 -0.77243 -4.43118 0
M  V30 1664 C 160.466 1.30234 -4.20389 0
M  V30 1665 H 157.585 0.0775486 -0.732909 0
M  V30 1666 H 160.227 -0.496863 -1.83388 0
M  V30 1667 H 158.377 1.11248 -3.72231 0
M  V30 1668 H 160.049 -1.4098 -4.39229 0
M  V30 1669 H 158.292 -1.39167 -4.10871 0
M  V30 1670 H 158.963 -0.526815 -5.4948 0
M  V30 1671 H 161.439 0.787546 -4.08579 0
M  V30 1672 H 160.315 1.47158 -5.28806 0
M  V30 1673 H 160.576 2.31237 -3.76805 0
M  V30 1674 N 159.635 1.57281 -0.100228 0
M  V30 1675 C 160.565 2.17328 0.853857 0
M  V30 1676 C 161.546 1.10804 1.2906 0
M  V30 1677 O 162.731 1.38963 1.35657 0
M  V30 1678 C 159.861 2.75772 2.11109 0
M  V30 1679 C 158.815 3.87713 1.81279 0
M  V30 1680 C 158.141 4.32882 3.13874 0
M  V30 1681 C 159.441 5.10677 1.09574 0
M  V30 1682 H 161.135 2.97305 0.353545 0
M  V30 1683 H 158.681 1.43009 0.168612 0
M  V30 1684 H 160.634 3.16433 2.78296 0
M  V30 1685 H 159.358 1.93057 2.63432 0
M  V30 1686 H 158.017 3.476 1.16489 0
M  V30 1687 H 157.665 3.47051 3.64095 0
M  V30 1688 H 157.365 5.08358 2.94696 0
M  V30 1689 H 158.889 4.7618 3.82211 0
M  V30 1690 H 160.303 5.48474 1.66879 0
M  V30 1691 H 158.7 5.91615 1.00557 0
M  V30 1692 H 159.77 4.84835 0.0793299 0
M  V30 1693 N 161.113 -0.173488 1.56642 0
M  V30 1694 C 162.353 -0.896984 1.83667 0
M  V30 1695 C 162.717 -1.79523 0.680842 0
M  V30 1696 O 163.918 -2.55616 0.831488 0
M  V30 1697 C 162.189 -1.67351 3.15798 0
M  V30 1698 S 163.748 -2.44607 3.64298 0
M  V30 1699 H 160.566 -0.300464 0.644393 0
M  V30 1700 H 163.168 -0.158775 1.94854 0
M  V30 1701 H 161.872 -1.00462 3.97914 0
M  V30 1702 H 161.403 -2.45313 3.07546 0
M  V30 1703 H 163.418 -3.69261 3.31452 0
M  V30 1704 N 162.591 -1.51276 -0.441967 0
M  V30 1705 C 163.816 -1.67799 -1.21895 0
M  V30 1706 C 164.241 -0.372864 -1.84367 0
M  V30 1707 O 163.599 0.666501 -1.68604 0
M  V30 1708 C 163.647 -2.79199 -2.28211 0
M  V30 1709 O 162.751 -2.42479 -3.33583 0
M  V30 1710 H 162.092 -0.559649 -0.357336 0
M  V30 1711 H 164.622 -1.97815 -0.522522 0
M  V30 1712 H 164.632 -3.03146 -2.73069 0
M  V30 1713 H 163.307 -3.73906 -1.82118 0
M  V30 1714 H 161.884 -2.29087 -2.94234 0
M  V30 1715 N 164.069 0.697108 -1.41344 0
M  V30 1716 C 165.317 1.45426 -1.40341 0
M  V30 1717 C 165.638 1.94996 -0.0128787 0
M  V30 1718 O 164.908 1.71599 0.945027 0
M  V30 1719 H 163.488 0.539594 -0.516573 0
M  V30 1720 H 166.15 0.825201 -1.76569 0
M  V30 1721 H 165.246 2.31817 -2.08967 0
M  V30 1722 N 165.547 1.27147 0.931209 0
M  V30 1723 C 166.795 1.13055 1.6752 0
M  V30 1724 C 167.116 -0.324791 1.92276 0
M  V30 1725 O 166.386 -1.22775 1.52654 0
M  V30 1726 H 164.966 0.415391 0.620854 0
M  V30 1727 H 167.628 1.59623 1.11833 0
M  V30 1728 H 166.724 1.65694 2.64485 0
M  V30 1729 N 167.025 -1.13721 1.09112 0
M  V30 1730 C 168.25 -1.89314 0.847053 0
M  V30 1731 C 168.675 -1.78416 -0.595774 0
M  V30 1732 O 168.033 -1.12942 -1.41823 0
M  V30 1733 C 168.081 -3.3701 1.28284 0
M  V30 1734 O 167.185 -4.10054 0.439267 0
M  V30 1735 H 166.526 -0.588745 0.307044 0
M  V30 1736 H 169.056 -1.43902 1.45442 0
M  V30 1737 H 169.066 -3.87834 1.26683 0
M  V30 1738 H 167.741 -3.4426 2.33363 0
M  V30 1739 H 166.318 -3.69266 0.519312 0
M  V30 1740 N 168.503 -0.877838 -1.30888 0
M  V30 1741 C 169.453 -0.310872 -2.25871 0
M  V30 1742 C 170.437 0.556596 -1.50966 0
M  V30 1743 O 171.629 0.402187 -1.7237 0
M  V30 1744 C 168.758 0.479821 -3.3993 0
M  V30 1745 C 167.844 -0.401333 -4.22197 0
M  V30 1746 N 168.235 -1.49848 -4.83093 0
M  V30 1747 C 166.533 -0.195167 -4.45573 0
M  V30 1748 C 167.234 -2.0425 -5.44662 0
M  V30 1749 N 166.21 -1.33843 -5.26865 0
M  V30 1750 H 170.012 -1.1493 -2.70496 0
M  V30 1751 H 167.526 -0.726458 -1.45246 0
M  V30 1752 H 169.523 0.902582 -4.07012 0
M  V30 1753 H 168.183 1.31577 -2.96846 0
M  V30 1754 H 169.194 -1.88137 -4.82519 0
M  V30 1755 H 165.871 0.604192 -4.13105 0
M  V30 1756 H 167.261 -2.96345 -6.03017 0
M  V30 1757 N 169.982 1.44106 -0.638065 0
M  V30 1758 C 171.23 2.01579 -0.145043 0
M  V30 1759 C 171.551 1.50496 1.24 0
M  V30 1760 O 170.821 0.711374 1.82527 0
M  V30 1761 H 169.401 0.745282 -0.05063 0
M  V30 1762 H 172.063 1.76516 -0.826327 0
M  V30 1763 H 171.159 3.11877 -0.118039 0
M  V30 1764 N 171.46 0.379036 1.52974 0
M  V30 1765 C 172.709 -0.207612 2.00629 0
M  V30 1766 C 173.022 -1.48758 1.27006 0
M  V30 1767 O 174.228 -2.15365 1.65318 0
M  V30 1768 C 172.684 -0.42053 3.57435 0
M  V30 1769 C 172.292 0.845587 4.39948 0
M  V30 1770 C 174.036 -0.964102 4.13407 0
M  V30 1771 C 171.943 0.601513 5.88333 0
M  V30 1772 H 170.873 -0.0813591 0.749598 0
M  V30 1773 H 173.524 0.499853 1.76561 0
M  V30 1774 H 171.906 -1.18959 3.7771 0
M  V30 1775 H 173.08 1.61848 4.31442 0
M  V30 1776 H 171.395 1.31336 3.95145 0
M  V30 1777 H 173.992 -1.16225 5.21916 0
M  V30 1778 H 174.335 -1.93019 3.68849 0
M  V30 1779 H 174.868 -0.25487 3.96983 0
M  V30 1780 H 171.607 1.53831 6.37194 0
M  V30 1781 H 171.127 -0.132628 5.99653 0
M  V30 1782 H 172.806 0.232134 6.46583 0
M  V30 1783 N 172.938 -1.57226 0.108567 0
M  V30 1784 C 173.868 -2.17778 -0.84232 0
M  V30 1785 C 174.849 -1.11487 -1.2847 0
M  V30 1786 O 176.034 -1.39681 -1.34918 0
M  V30 1787 C 173.164 -2.76888 -2.09644 0
M  V30 1788 C 172.118 -3.88669 -1.79221 0
M  V30 1789 C 171.444 -4.34541 -3.11574 0
M  V30 1790 C 172.744 -5.11251 -1.06864 0
M  V30 1791 H 174.438 -2.97489 -0.337774 0
M  V30 1792 H 171.984 -1.43097 -0.161025 0
M  V30 1793 H 173.937 -3.17904 -2.76614 0
M  V30 1794 H 172.661 -1.94451 -2.62405 0
M  V30 1795 H 171.32 -3.48213 -1.14644 0
M  V30 1796 H 170.968 -3.48977 -3.62249 0
M  V30 1797 H 170.668 -5.09914 -2.91996 0
M  V30 1798 H 172.192 -4.782 -3.7968 0
M  V30 1799 H 173.606 -5.49352 -1.63968 0
M  V30 1800 H 172.003 -5.9214 -0.974178 0
M  V30 1801 H 173.073 -4.8487 -0.0536168 0
M  V30 1802 N 174.416 0.165178 -1.56732 0
M  V30 1803 C 175.349 1.23336 -1.91998 0
M  V30 1804 C 176.327 1.42476 -0.783531 0
M  V30 1805 O 177.511 1.57384 -1.03743 0
M  V30 1806 C 174.638 2.59533 -2.17625 0
M  V30 1807 C 173.684 2.57093 -3.40302 0
M  V30 1808 S 174.517 2.05571 -4.9447 0
M  V30 1809 C 175.673 3.43532 -5.23198 0
M  V30 1810 H 175.906 0.932387 -2.82301 0
M  V30 1811 H 173.439 0.370013 -1.49901 0
M  V30 1812 H 175.397 3.37918 -2.3307 0
M  V30 1813 H 174.058 2.86827 -1.28019 0
M  V30 1814 H 173.251 3.57308 -3.55453 0
M  V30 1815 H 172.853 1.86806 -3.24005 0
M  V30 1816 H 175.145 4.39559 -5.15552 0
M  V30 1817 H 176.088 3.33251 -6.2478 0
M  V30 1818 H 176.496 3.39828 -4.50752 0
M  V30 1819 N 175.894 1.51508 0.433938 0
M  V30 1820 C 176.857 1.72473 1.50949 0
M  V30 1821 C 177.857 0.594725 1.49398 0
M  V30 1822 O 179.047 0.862315 1.5136 0
M  V30 1823 C 176.179 1.78431 2.90474 0
M  V30 1824 H 177.372 2.68467 1.33662 0
M  V30 1825 H 174.925 1.41549 0.662836 0
M  V30 1826 H 175.66 0.842645 3.13161 0
M  V30 1827 H 175.445 2.60558 2.93005 0
M  V30 1828 H 176.935 1.96479 3.68491 0
M  V30 1829 N 177.372 -0.689602 1.41712 0
M  V30 1830 C 178.621 -1.44534 1.40686 0
M  V30 1831 C 178.934 -1.95588 0.0213352 0
M  V30 1832 O 180.14 -2.71271 -0.111534 0
M  V30 1833 C 178.596 -2.61387 2.47396 0
M  V30 1834 C 178.204 -2.17094 3.91885 0
M  V30 1835 C 179.948 -3.38986 2.55517 0
M  V30 1836 C 177.855 -3.3094 4.90135 0
M  V30 1837 H 176.785 -0.542925 0.52321 0
M  V30 1838 H 179.436 -0.748054 1.6756 0
M  V30 1839 H 177.818 -3.33412 2.13664 0
M  V30 1840 H 178.992 -1.52318 4.34897 0
M  V30 1841 H 177.307 -1.52473 3.8748 0
M  V30 1842 H 179.904 -4.23747 3.26102 0
M  V30 1843 H 180.247 -3.84578 1.59391 0
M  V30 1844 H 180.78 -2.74021 2.8837 0
M  V30 1845 H 177.519 -2.90355 5.87685 0
M  V30 1846 H 177.039 -3.94546 4.51767 0
M  V30 1847 H 178.718 -3.9663 5.11169 0
M  V30 1848 N 178.85 -1.27639 -0.924453 0
M  V30 1849 C 180.078 -1.16989 -1.70649 0
M  V30 1850 C 180.493 0.272869 -1.86818 0
M  V30 1851 O 179.85 1.18549 -1.38753 0
M  V30 1852 C 179.901 -1.85229 -3.10439 0
M  V30 1853 O 179.622 -3.23868 -2.95028 0
M  V30 1854 C 181.123 -1.80746 -4.04779 0
M  V30 1855 H 178.343 -0.406595 -0.53378 0
M  V30 1856 H 180.887 -1.68569 -1.15778 0
M  V30 1857 H 179.042 -1.37545 -3.6216 0
M  V30 1858 H 179.456 -3.57889 -3.83426 0
M  V30 1859 H 180.93 -2.33101 -5.00368 0
M  V30 1860 H 181.407 -0.777499 -4.32263 0
M  V30 1861 H 182.013 -2.28059 -3.58984 0
M  V30 1862 N 180.328 1.1314 -1.09713 0
M  V30 1863 C 181.291 2.16831 -0.742751 0
M  V30 1864 C 182.291 1.59159 0.229129 0
M  V30 1865 O 183.481 1.74199 0.00693237 0
M  V30 1866 C 180.613 3.40756 -0.0989168 0
M  V30 1867 H 181.806 2.49695 -1.66109 0
M  V30 1868 H 179.359 1.2802 -0.896699 0
M  V30 1869 H 180.094 3.13485 0.830514 0
M  V30 1870 H 179.879 3.83888 -0.798265 0
M  V30 1871 H 181.369 4.17386 0.133524 0
M  V30 1872 N 181.806 0.884767 1.30421 0
M  V30 1873 C 183.055 0.499164 1.95426 0
M  V30 1874 C 183.368 -0.95645 1.70621 0
M  V30 1875 O 184.574 -1.44889 2.29607 0
M  V30 1876 C 183.03 0.84177 3.49917 0
M  V30 1877 C 182.638 2.31514 3.83543 0
M  V30 1878 C 184.382 0.525355 4.21237 0
M  V30 1879 C 182.289 2.59939 5.31212 0
M  V30 1880 H 181.219 0.182944 0.73147 0
M  V30 1881 H 183.87 1.07971 1.48373 0
M  V30 1882 H 182.252 0.190311 3.95542 0
M  V30 1883 H 183.426 3.0109 3.48829 0
M  V30 1884 H 181.741 2.59907 3.25326 0
M  V30 1885 H 184.338 0.714762 5.29901 0
M  V30 1886 H 184.681 -0.535222 4.12845 0
M  V30 1887 H 185.214 1.134 3.81294 0
M  V30 1888 H 181.953 3.64736 5.44654 0
M  V30 1889 H 181.473 1.94972 5.67227 0
M  V30 1890 H 183.152 2.45429 5.98643 0
M  V30 1891 N 183.284 -1.43765 0.645699 0
M  V30 1892 C 184.524 -2.03776 0.159542 0
M  V30 1893 C 184.888 -1.49792 -1.2011 0
M  V30 1894 O 186.089 -2.01398 -1.78023 0
M  V30 1895 C 184.36 -3.57036 0.161251 0
M  V30 1896 S 185.919 -4.3804 -0.258159 0
M  V30 1897 H 182.737 -0.707717 0.0682454 0
M  V30 1898 H 185.339 -1.75941 0.852352 0
M  V30 1899 H 184.043 -3.9383 1.15439 0
M  V30 1900 H 183.574 -3.89503 -0.552339 0
M  V30 1901 H 185.589 -4.7302 -1.49889 0
M  V30 1902 N 184.763 -0.387143 -1.52771 0
M  V30 1903 C 186.04 0.253197 -1.93954 0
M  V30 1904 C 186.42 1.64545 -1.32243 0
M  V30 1905 O 185.768 2.23191 -0.489699 0
M  V30 1906 C 185.978 0.281722 -3.47861 0
M  V30 1907 C 187.326 0.511715 -4.21505 0
M  V30 1908 O 188.35 0.362023 -3.54356 0
M  V30 1909 O 187.209 0.804847 -5.40541 0
M  V30 1910 H 184.303 0.156845 -0.811991 0
M  V30 1911 H 186.849 -0.441494 -1.63856 0
M  V30 1912 H 185.621 -0.693571 -3.85104 0
M  V30 1913 H 185.244 1.02142 -3.84256 0
M  V30 1914 N 186.241 1.57166 -0.116904 0
M  V30 1915 C 187.204 2.14039 0.819742 0
M  V30 1916 C 188.204 1.07477 1.19605 0
M  V30 1917 O 189.394 1.33263 1.1219 0
M  V30 1918 C 186.526 2.67891 2.10826 0
M  V30 1919 H 187.719 2.98128 0.325511 0
M  V30 1920 H 185.272 1.55739 0.132312 0
M  V30 1921 H 186.007 1.87384 2.64685 0
M  V30 1922 H 185.792 3.45823 1.84793 0
M  V30 1923 H 187.282 3.11809 2.77785 0
M  V30 1924 N 187.719 -0.156864 1.56817 0
M  V30 1925 C 188.967 -0.869404 1.82444 0
M  V30 1926 C 189.288 -1.82147 0.69623 0
M  V30 1927 O 188.558 -1.93847 -0.28287 0
M  V30 1928 H 187.138 -0.324043 0.673056 0
M  V30 1929 H 189.8 -0.153224 1.94297 0
M  V30 1930 H 188.896 -1.43761 2.77019 0
M  V30 1931 N 189.197 -1.51736 -0.425897 0
M  V30 1932 C 190.474 -1.55519 -1.1863 0
M  V30 1933 C 190.854 -0.326219 -2.08564 0
M  V30 1934 O 190.202 0.688012 -2.17896 0
M  V30 1935 C 190.412 -2.87521 -1.9782 0
M  V30 1936 C 191.76 -3.39899 -2.54468 0
M  V30 1937 O 192.784 -2.89148 -2.08019 0
M  V30 1938 O 191.643 -4.2848 -3.39215 0
M  V30 1939 H 188.737 -0.625739 -0.540721 0
M  V30 1940 H 191.283 -1.64055 -0.434038 0
M  V30 1941 H 190.055 -3.68422 -1.31836 0
M  V30 1942 H 189.678 -2.822 -2.80088 0
M  V30 1943 N 190.675 0.682077 -1.42076 0
M  V30 1944 C 191.905 1.46844 -1.45329 0
M  V30 1945 C 192.313 1.89102 -0.0609328 0
M  V30 1946 O 191.656 1.58238 0.933082 0
M  V30 1947 C 191.718 2.75375 -2.31104 0
M  V30 1948 C 191.382 2.55238 -3.79081 0
M  V30 1949 C 192.379 2.20309 -4.70914 0
M  V30 1950 C 190.064 2.70459 -4.2327 0
M  V30 1951 C 192.058 2.00859 -6.04925 0
M  V30 1952 C 189.745 2.50624 -5.57343 0
M  V30 1953 C 190.743 2.15876 -6.47986 0
M  V30 1954 O 190.431 1.96227 -7.79583 0
M  V30 1955 H 190.163 0.4586 -0.496651 0
M  V30 1956 H 192.717 0.846131 -1.87162 0
M  V30 1957 H 190.947 3.40061 -1.84107 0
M  V30 1958 H 192.636 3.37231 -2.25898 0
M  V30 1959 H 193.402 2.08153 -4.38061 0
M  V30 1960 H 189.281 2.96485 -3.53012 0
M  V30 1961 H 192.825 1.7366 -6.75639 0
M  V30 1962 H 188.722 2.62375 -5.89771 0
M  V30 1963 H 189.49 2.10883 -7.90867 0
M  V30 1964 N 192.153 1.28127 0.917671 0
M  V30 1965 C 193.116 1.11744 2.00115 0
M  V30 1966 C 194.116 0.0583052 1.60694 0
M  V30 1967 O 195.306 0.303755 1.71531 0
M  V30 1968 C 192.438 0.704862 3.33533 0
M  V30 1969 H 193.631 2.07966 2.16079 0
M  V30 1970 H 191.184 1.11058 1.09981 0
M  V30 1971 H 191.919 -0.258299 3.2327 0
M  V30 1972 H 191.704 1.4699 3.63505 0
M  V30 1973 H 193.194 0.612768 4.1308 0
M  V30 1974 N 193.631 -1.12557 1.10312 0
M  V30 1975 C 194.561 -2.20341 0.772798 0
M  V30 1976 C 195.542 -1.68198 -0.25365 0
M  V30 1977 O 196.727 -1.93831 -0.119699 0
M  V30 1978 C 193.857 -3.46709 0.202443 0
M  V30 1979 C 192.811 -4.11996 1.15943 0
M  V30 1980 C 192.137 -5.328 0.450345 0
M  V30 1981 C 193.437 -4.5828 2.50552 0
M  V30 1982 H 195.131 -2.48229 1.674 0
M  V30 1983 H 192.677 -1.19308 0.806326 0
M  V30 1984 H 194.63 -4.2138 -0.0407752 0
M  V30 1985 H 193.354 -3.18245 -0.734001 0
M  V30 1986 H 192.013 -3.39305 1.38808 0
M  V30 1987 H 191.661 -5.00602 -0.490531 0
M  V30 1988 H 191.361 -5.7743 1.08851 0
M  V30 1989 H 192.885 -6.10219 0.215642 0
M  V30 1990 H 194.299 -5.2433 2.31843 0
M  V30 1991 H 192.696 -5.13683 3.10242 0
M  V30 1992 H 193.766 -3.72329 3.10643 0
M  V30 1993 N 195.109 -0.891671 -1.2995 0
M  V30 1994 C 196.355 -0.514261 -1.96171 0
M  V30 1995 C 196.688 0.935506 -1.70182 0
M  V30 1996 O 195.963 1.66204 -1.01028 0
M  V30 1997 C 196.246 -0.797719 -3.51153 0
M  V30 1998 C 196.099 -2.2986 -3.86632 0
M  V30 1999 C 197.418 -0.278749 -4.39216 0
M  V30 2000 H 194.537 -0.188314 -0.712535 0
M  V30 2001 H 197.179 -1.11689 -1.53706 0
M  V30 2002 H 195.329 -0.284826 -3.87455 0
M  V30 2003 H 197.001 -2.88042 -3.60319 0
M  V30 2004 H 195.244 -2.76257 -3.34462 0
M  V30 2005 H 195.915 -2.44753 -4.94773 0
M  V30 2006 H 198.391 -0.717825 -4.09862 0
M  V30 2007 H 197.267 -0.506353 -5.46559 0
M  V30 2008 H 197.528 0.820266 -4.34424 0
M  V30 2009 N 196.587 1.43421 -0.653314 0
M  V30 2010 C 197.998 1.85065 -0.246537 0
M  V30 2011 C 198.349 1.54688 1.2069 0
M  V30 2012 O 197.474 0.995896 1.92122 0
M  V30 2013 C 198.069 3.35922 -0.440666 0
M  V30 2014 C 196.628 3.76297 -0.0882064 0
M  V30 2015 C 195.775 2.67147 -0.743484 0
M  V30 2016 H 198.726 1.33572 -0.856979 0
M  V30 2017 H 198.747 3.79204 0.313798 0
M  V30 2018 H 198.259 3.58 -1.49858 0
M  V30 2019 H 196.36 3.5983 0.96711 0
M  V30 2020 H 196.473 4.76338 -0.513738 0
M  V30 2021 H 194.837 2.54086 -0.176712 0
M  V30 2022 H 195.62 2.92053 -1.80443 0
M  V30 2023 N 198.065 0.39524 1.52563 0
M  V30 2024 C 198.997 -0.472201 2.24283 0
M  V30 2025 C 200.01 -1.02178 1.26742 0
M  V30 2026 O 201.199 -0.923097 1.52778 0
M  V30 2027 C 198.299 -1.66775 2.95024 0
M  V30 2028 C 197.472 -1.2445 4.19322 0
M  V30 2029 C 196.531 -2.30539 4.7301 0
M  V30 2030 O 195.557 -1.91702 5.35947 0
M  V30 2031 N 196.759 -3.6253 4.53379 0
M  V30 2032 H 199.524 0.142282 2.99362 0
M  V30 2033 H 197.085 0.2219 1.60372 0
M  V30 2034 H 199.077 -2.37283 3.27839 0
M  V30 2035 H 197.647 -2.18845 2.23217 0
M  V30 2036 H 196.867 -0.368069 3.92478 0
M  V30 2037 H 198.155 -0.938457 5.0007 0
M  V30 2038 H 197.553 -3.96841 4.03154 0
M  V30 2039 H 196.11 -4.29055 4.90668 0
M  V30 2040 N 199.544 -1.57102 0.125237 0
M  V30 2041 C 200.955 -1.82384 -0.399142 0
M  V30 2042 C 201.306 -1.04276 -1.66195 0
M  V30 2043 O 200.431 -0.281269 -2.14564 0
M  V30 2044 C 201.026 -3.30821 -0.730932 0
M  V30 2045 C 199.585 -3.56762 -1.19992 0
M  V30 2046 C 198.732 -2.7649 -0.211792 0
M  V30 2047 H 201.683 -1.54786 0.350277 0
M  V30 2048 H 201.704 -3.4579 -1.58775 0
M  V30 2049 H 201.216 -3.87643 0.188345 0
M  V30 2050 H 199.317 -3.05305 -2.13588 0
M  V30 2051 H 199.43 -4.65317 -1.14093 0
M  V30 2052 H 197.794 -2.4489 -0.700085 0
M  V30 2053 H 198.577 -3.36073 0.700691 0
M  V30 2054 N 201.022 0.148545 -1.56898 0
M  V30 2055 C 202.27 0.859717 -1.82902 0
M  V30 2056 C 202.591 1.81775 -0.70588 0
M  V30 2057 O 201.861 1.93994 0.272586 0
M  V30 2058 H 200.441 0.320469 -0.674766 0
M  V30 2059 H 203.103 0.142918 -1.94375 0
M  V30 2060 H 202.199 1.4229 -2.77777 0
M  V30 2061 N 202.5 1.5196 0.417844 0
M  V30 2062 C 203.747 1.65591 1.16559 0
M  V30 2063 C 204.075 0.381565 1.90721 0
M  V30 2064 O 203.33 -0.635156 1.85106 0
M  V30 2065 C 203.629 2.82269 2.19223 0
M  V30 2066 C 203.295 4.20819 1.61933 0
M  V30 2067 C 201.957 4.58506 1.46033 0
M  V30 2068 C 204.309 5.07196 1.20008 0
M  V30 2069 C 201.637 5.80257 0.867113 0
M  V30 2070 C 203.989 6.29544 0.621086 0
M  V30 2071 C 202.653 6.65987 0.449144 0
M  V30 2072 H 201.923 0.605939 0.42652 0
M  V30 2073 H 204.57 1.86041 0.45397 0
M  V30 2074 H 202.875 2.56118 2.96498 0
M  V30 2075 H 204.572 2.90012 2.76936 0
M  V30 2076 H 201.162 3.91116 1.7529 0
M  V30 2077 H 205.346 4.7867 1.31105 0
M  V30 2078 H 200.602 6.07124 0.721833 0
M  V30 2079 H 204.776 6.95805 0.287798 0
M  V30 2080 H 202.403 7.60199 -0.012632 0
M  V30 2081 N 203.978 -0.674533 1.42435 0
M  V30 2082 C 205.389 -1.25514 1.38214 0
M  V30 2083 C 205.74 -1.96055 0.0755464 0
M  V30 2084 O 204.865 -2.00028 -0.8257 0
M  V30 2085 C 205.46 -2.28269 2.50357 0
M  V30 2086 C 204.019 -2.81856 2.49467 0
M  V30 2087 C 203.166 -1.56182 2.29134 0
M  V30 2088 H 206.117 -0.467902 1.51646 0
M  V30 2089 H 206.138 -3.10009 2.20624 0
M  V30 2090 H 205.65 -1.769 3.45439 0
M  V30 2091 H 203.751 -3.37346 1.58204 0
M  V30 2092 H 203.864 -3.30854 3.46515 0
M  V30 2093 H 202.228 -1.82761 1.774 0
M  V30 2094 H 203.011 -1.06778 3.26272 0
M  V30 2095 N 205.456 -1.28612 -0.910864 0
M  V30 2096 C 206.406 -1.09423 -2.00026 0
M  V30 2097 C 207.39 -0.0170079 -1.60891 0
M  V30 2098 O 208.582 -0.237472 -1.754 0
M  V30 2099 C 205.711 -0.76114 -3.34756 0
M  V30 2100 C 204.797 -1.87735 -3.80285 0
M  V30 2101 N 205.188 -3.11938 -3.98156 0
M  V30 2102 C 203.486 -1.76786 -4.09467 0
M  V30 2103 C 204.187 -3.84687 -4.36338 0
M  V30 2104 N 203.163 -3.12555 -4.44759 0
M  V30 2105 H 206.965 -2.03658 -2.11898 0
M  V30 2106 H 204.479 -1.19573 -1.09891 0
M  V30 2107 H 206.476 -0.604743 -4.12491 0
M  V30 2108 H 205.136 0.173403 -3.24237 0
M  V30 2109 H 206.147 -3.47516 -3.83996 0
M  V30 2110 H 202.824 -0.905284 -4.07567 0
M  V30 2111 H 204.214 -4.91518 -4.58104 0
M  V30 2112 N 206.934 1.1197 -1.10907 0
M  V30 2113 C 208.164 1.8713 -0.875553 0
M  V30 2114 C 208.572 1.8016 0.577843 0
M  V30 2115 O 207.915 1.17699 1.41042 0
M  V30 2116 C 207.977 3.37005 -1.2517 0
M  V30 2117 C 207.641 3.67748 -2.71313 0
M  V30 2118 C 208.638 3.65698 -3.69542 0
M  V30 2119 C 206.323 3.96928 -3.07821 0
M  V30 2120 C 208.317 3.92395 -5.023 0
M  V30 2121 C 206.004 4.23284 -4.40765 0
M  V30 2122 C 207.002 4.21005 -5.37814 0
M  V30 2123 O 206.69 4.46704 -6.68364 0
M  V30 2124 H 206.422 0.598786 -0.313737 0
M  V30 2125 H 208.976 1.42568 -1.47863 0
M  V30 2126 H 207.206 3.82146 -0.591741 0
M  V30 2127 H 208.895 3.93519 -0.994877 0
M  V30 2128 H 209.661 3.43211 -3.42682 0
M  V30 2129 H 205.54 3.97841 -2.32902 0
M  V30 2130 H 209.084 3.90531 -5.78041 0
M  V30 2131 H 204.981 4.45246 -4.67361 0
M  V30 2132 H 205.749 4.64299 -6.74069 0
M  V30 2133 N 208.412 0.89855 1.29475 0
M  V30 2134 C 209.322 0.379974 2.31502 0
M  V30 2135 C 210.338 -0.524695 1.659 0
M  V30 2136 O 211.514 -0.414551 1.97087 0
M  V30 2137 C 208.579 -0.385138 3.44554 0
M  V30 2138 C 207.64 0.550914 4.2575 0
M  V30 2139 C 206.873 -0.177778 5.33404 0
M  V30 2140 O 207.096 -1.40189 5.52904 0
M  V30 2141 O 206.03 0.479106 5.9999 0
M  V30 2142 H 209.856 1.22639 2.77837 0
M  V30 2143 H 207.441 0.662834 1.33891 0
M  V30 2144 H 209.323 -0.817841 4.13388 0
M  V30 2145 H 207.998 -1.20763 3.0033 0
M  V30 2146 H 206.905 1.03271 3.59564 0
M  V30 2147 H 208.238 1.33979 4.73614 0
M  V30 2148 N 209.89 -1.43072 0.660911 0
M  V30 2149 C 211.118 -2.06067 0.185422 0
M  V30 2150 C 211.533 -1.49582 -1.15198 0
M  V30 2151 O 210.89 -0.630134 -1.71276 0
M  V30 2152 C 210.941 -3.61371 0.0966523 0
M  V30 2153 O 210.662 -4.15758 1.38119 0
M  V30 2154 C 212.163 -4.41455 -0.403996 0
M  V30 2155 H 209.383 -0.664459 0.0934604 0
M  V30 2156 H 211.927 -1.83447 0.90373 0
M  V30 2157 H 210.082 -3.8315 -0.572259 0
M  V30 2158 H 210.496 -5.09499 1.24542 0
M  V30 2159 H 211.97 -5.50437 -0.415045 0
M  V30 2160 H 212.447 -4.15036 -1.43674 0
M  V30 2161 H 213.053 -4.24663 0.232691 0
M  V30 2162 N 211.368 -0.403325 -1.52352 0
M  V30 2163 C 212.614 0.174605 -2.02047 0
M  V30 2164 C 212.947 1.45282 -1.28867 0
M  V30 2165 O 212.222 1.90483 -0.393257 0
M  V30 2166 C 212.505 0.428238 -3.57545 0
M  V30 2167 C 212.358 -0.866248 -4.4138 0
M  V30 2168 C 213.677 1.21287 -4.23057 0
M  V30 2169 H 210.796 0.0619851 -0.734389 0
M  V30 2170 H 213.438 -0.53565 -1.82293 0
M  V30 2171 H 211.588 1.03327 -3.74507 0
M  V30 2172 H 213.26 -1.50265 -4.3614 0
M  V30 2173 H 211.503 -1.47851 -4.07827 0
M  V30 2174 H 212.174 -0.643249 -5.48239 0
M  V30 2175 H 214.65 0.700703 -4.10158 0
M  V30 2176 H 213.526 1.35909 -5.31808 0
M  V30 2177 H 213.787 2.23193 -3.81625 0
M  V30 2178 N 212.846 1.57033 -0.133567 0
M  V30 2179 C 214.086 1.97575 0.523789 0
M  V30 2180 C 214.45 1.01605 1.62912 0
M  V30 2181 O 215.651 1.3114 2.3464 0
M  V30 2182 C 213.922 3.42256 1.02935 0
M  V30 2183 S 215.481 4.04817 1.69319 0
M  V30 2184 H 212.299 0.690427 0.169799 0
M  V30 2185 H 214.901 1.94234 -0.222101 0
M  V30 2186 H 213.605 4.09842 0.213917 0
M  V30 2187 H 213.136 3.4928 1.81017 0
M  V30 2188 H 215.151 3.96767 2.97977 0
M  V30 2189 N 214.325 -0.140222 1.56975 0
M  V30 2190 C 215.272 -1.17292 1.98774 0
M  V30 2191 C 216.242 -1.4232 0.856408 0
M  V30 2192 O 217.427 -1.54541 1.119 0
M  V30 2193 C 214.567 -2.49973 2.37923 0
M  V30 2194 C 213.68 -2.32062 3.64378 0
M  V30 2195 C 212.815 -3.57825 3.926 0
M  V30 2196 C 211.854 -3.3498 5.12303 0
M  V30 2197 N 210.991 -4.52891 5.36502 0
M  V30 2198 H 215.831 -0.809472 2.86795 0
M  V30 2199 H 213.368 -0.388237 1.41884 0
M  V30 2200 H 215.326 -3.27346 2.58652 0
M  V30 2201 H 213.956 -2.84252 1.52972 0
M  V30 2202 H 213.008 -1.45711 3.51387 0
M  V30 2203 H 214.32 -2.11145 4.51906 0
M  V30 2204 H 213.474 -4.43624 4.13863 0
M  V30 2205 H 212.213 -3.81753 3.03506 0
M  V30 2206 H 211.218 -2.4757 4.90906 0
M  V30 2207 H 212.443 -3.12444 6.02956 0
M  V30 2208 H 210.389 -4.76979 4.50363 0
M  V30 2209 H 210.306 -4.35001 6.18312 0
M  V30 2210 H 211.574 -5.39884 5.62268 0
M  V30 2211 N 215.803 -1.52179 -0.40978 0
M  V30 2212 C 216.766 -1.74853 -1.48186 0
M  V30 2213 C 217.766 -0.618417 -1.48433 0
M  V30 2214 O 218.956 -0.886286 -1.49969 0
M  V30 2215 C 216.088 -1.8303 -2.87598 0
M  V30 2216 H 217.281 -2.70559 -1.29374 0
M  V30 2217 H 214.834 -1.42586 -0.640233 0
M  V30 2218 H 215.569 -0.89236 -3.11781 0
M  V30 2219 H 215.354 -2.65187 -2.88822 0
M  V30 2220 H 216.844 -2.02316 -3.65319 0
M  V30 2221 N 217.281 0.66697 -1.42791 0
M  V30 2222 C 218.511 1.45294 -1.46878 0
M  V30 2223 C 218.919 1.89027 -0.0809861 0
M  V30 2224 O 218.262 1.59219 0.916246 0
M  V30 2225 C 218.324 2.72908 -2.34012 0
M  V30 2226 C 217.988 2.51203 -3.81767 0
M  V30 2227 C 218.985 2.15302 -4.73224 0
M  V30 2228 C 216.67 2.65954 -4.26115 0
M  V30 2229 C 218.664 1.94431 -6.07022 0
M  V30 2230 C 216.351 2.44699 -5.59969 0
M  V30 2231 C 217.349 2.08992 -6.5024 0
M  V30 2232 O 217.037 1.87948 -7.81621 0
M  V30 2233 H 216.769 0.453306 -0.501487 0
M  V30 2234 H 219.323 0.826232 -1.88049 0
M  V30 2235 H 217.553 3.38089 -1.87703 0
M  V30 2236 H 219.242 3.34816 -2.29462 0
M  V30 2237 H 220.008 2.03495 -4.40244 0
M  V30 2238 H 215.887 2.92724 -3.56137 0
M  V30 2239 H 219.431 1.66484 -6.77443 0
M  V30 2240 H 215.328 2.56105 -5.9252 0
M  V30 2241 H 216.096 2.02483 -7.93059 0
M  V30 2242 N 218.759 1.29093 0.90403 0
M  V30 2243 C 220.007 1.16583 1.65085 0
M  V30 2244 C 220.328 -0.283933 1.92922 0
M  V30 2245 O 219.598 -1.19509 1.55224 0
M  V30 2246 H 218.178 0.428467 0.611903 0
M  V30 2247 H 220.84 1.61959 1.08422 0
M  V30 2248 H 219.936 1.71266 2.6091 0
M  V30 2249 N 220.237 -1.11381 1.11499 0
M  V30 2250 C 221.486 -1.82494 0.858993 0
M  V30 2251 C 221.799 -1.85605 -0.617278 0
M  V30 2252 O 223.005 -2.52824 -0.989552 0
M  V30 2253 C 221.461 -3.27745 1.48699 0
M  V30 2254 C 221.069 -3.32961 2.99735 0
M  V30 2255 C 222.813 -4.03754 1.31085 0
M  V30 2256 C 220.72 -4.72612 3.55516 0
M  V30 2257 H 219.65 -0.683802 0.317696 0
M  V30 2258 H 222.301 -1.25331 1.34031 0
M  V30 2259 H 220.683 -3.84844 0.933339 0
M  V30 2260 H 221.857 -2.85741 3.61509 0
M  V30 2261 H 220.172 -2.70433 3.16631 0
M  V30 2262 H 222.769 -5.06891 1.70192 0
M  V30 2263 H 223.112 -4.15527 0.253496 0
M  V30 2264 H 223.645 -3.53043 1.83318 0
M  V30 2265 H 220.384 -4.66036 4.60967 0
M  V30 2266 H 219.904 -5.2024 2.98513 0
M  V30 2267 H 221.583 -5.4157 3.53992 0
M  V30 2268 N 221.715 -0.905404 -1.28997 0
M  V30 2269 C 222.963 -0.533192 -1.9494 0
M  V30 2270 C 223.284 0.924618 -1.71685 0
M  V30 2271 O 222.554 1.65268 -1.05183 0
M  V30 2272 H 221.134 -0.194194 -0.721317 0
M  V30 2273 H 223.796 -1.15294 -1.57141 0
M  V30 2274 H 222.892 -0.72059 -3.03667 0
M  V30 2275 N 223.193 1.4272 -0.668489 0
M  V30 2276 C 224.126 2.28111 0.0637898 0
M  V30 2277 C 225.104 1.40705 0.814912 0
M  V30 2278 O 226.288 1.70146 0.81134 0
M  V30 2279 C 223.415 3.20429 1.0974 0
M  V30 2280 C 222.461 4.24197 0.442579 0
M  V30 2281 S 223.294 5.29563 -0.795173 0
M  V30 2282 C 224.45 6.25449 0.237516 0
M  V30 2283 H 224.683 2.8987 -0.660521 0
M  V30 2284 H 222.216 1.47456 -0.457821 0
M  V30 2285 H 224.174 3.74158 1.68868 0
M  V30 2286 H 222.835 2.57818 1.79411 0
M  V30 2287 H 222.028 4.88954 1.22227 0
M  V30 2288 H 221.63 3.73925 -0.0749554 0
M  V30 2289 H 223.922 6.68524 1.09915 0
M  V30 2290 H 224.865 7.07104 -0.375421 0
M  V30 2291 H 225.273 5.61511 0.580167 0
M  V30 2292 N 224.671 0.411399 1.52136 0
M  V30 2293 C 225.621 -0.430376 2.23901 0
M  V30 2294 C 226.605 -1.0116 1.25121 0
M  V30 2295 O 227.797 -0.934044 1.50348 0
M  V30 2296 C 224.926 -1.54527 3.06556 0
M  V30 2297 C 224.012 -0.9747 4.12747 0
M  V30 2298 N 224.403 -0.130991 5.0563 0
M  V30 2299 C 222.701 -1.24497 4.28271 0
M  V30 2300 C 223.402 0.186689 5.814 0
M  V30 2301 N 222.378 -0.42304 5.41951 0
M  V30 2302 H 226.18 0.220509 2.93072 0
M  V30 2303 H 223.694 0.221952 1.60876 0
M  V30 2304 H 225.691 -2.16093 3.56524 0
M  V30 2305 H 224.351 -2.19875 2.38925 0
M  V30 2306 H 225.362 0.23349 5.17373 0
M  V30 2307 H 222.039 -1.89787 3.7187 0
M  V30 2308 H 223.429 0.871673 6.66222 0
M  V30 2309 N 226.149 -1.5696 0.141893 0
M  V30 2310 C 227.396 -1.9596 -0.510492 0
M  V30 2311 C 227.724 -1.02648 -1.65208 0
M  V30 2312 O 226.979 -0.0546947 -1.95624 0
M  V30 2313 C 227.278 -3.41242 -1.06249 0
M  V30 2314 C 226.944 -4.50882 -0.0398791 0
M  V30 2315 C 225.606 -4.80595 0.241247 0
M  V30 2316 C 227.958 -5.17058 0.65578 0
M  V30 2317 C 225.286 -5.73792 1.22393 0
M  V30 2318 C 227.638 -6.11313 1.62724 0
M  V30 2319 C 226.302 -6.39407 1.91612 0
M  V30 2320 H 225.572 -0.717068 -0.186802 0
M  V30 2321 H 228.219 -1.90142 0.227643 0
M  V30 2322 H 226.524 -3.43866 -1.87785 0
M  V30 2323 H 228.221 -3.68742 -1.57576 0
M  V30 2324 H 224.811 -4.27754 -0.269174 0
M  V30 2325 H 228.995 -4.94239 0.451779 0
M  V30 2326 H 224.251 -5.93853 1.45424 0
M  V30 2327 H 228.425 -6.61668 2.17183 0
M  V30 2328 H 226.052 -7.11427 2.6791 0
M  V30 2329 N 227.627 0.131896 -1.57047 0
M  V30 2330 C 228.857 0.855219 -1.88068 0
M  V30 2331 C 229.265 1.74557 -0.729817 0
M  V30 2332 O 228.608 1.81083 0.308962 0
M  V30 2333 C 228.67 1.75119 -3.13964 0
M  V30 2334 C 228.334 1.03646 -4.45091 0
M  V30 2335 C 229.331 0.383276 -5.18485 0
M  V30 2336 C 227.016 1.02148 -4.91804 0
M  V30 2337 C 229.01 -0.275347 -6.36805 0
M  V30 2338 C 226.697 0.359047 -6.10044 0
M  V30 2339 C 227.695 -0.288222 -6.82392 0
M  V30 2340 O 227.383 -0.94011 -7.98384 0
M  V30 2341 H 227.115 0.251864 -0.627328 0
M  V30 2342 H 229.669 0.124782 -2.05021 0
M  V30 2343 H 227.899 2.52295 -2.9306 0
M  V30 2344 H 229.588 2.3478 -3.31109 0
M  V30 2345 H 230.354 0.386562 -4.83457 0
M  V30 2346 H 226.233 1.5147 -4.35405 0
M  V30 2347 H 229.777 -0.781148 -6.93213 0
M  V30 2348 H 225.674 0.35348 -6.44531 0
M  V30 2349 H 226.442 -0.84329 -8.14144 0
M  V30 2350 N 229.106 1.52395 0.401703 0
M  V30 2351 C 230.054 1.7689 1.51039 0
M  V30 2352 C 231.048 0.636298 1.56996 0
M  V30 2353 O 232.254 0.818507 1.60314 0
M  V30 2354 H 228.629 0.559502 0.502456 0
M  V30 2355 H 230.6 2.69757 1.27568 0
M  V30 2356 C 229.349 1.94331 2.88324 0
M  V30 2357 H 228.672 2.80905 2.84486 0
M  V30 2358 H 230.112 2.15466 3.65172 0
M  V30 2359 C 228.571 0.712396 3.29282 0
M  V30 2360 O 229.101 -0.116218 4.01532 0
M  V30 2361 N 227.307 0.546154 2.85422 0
M  V30 2362 H 226.854 1.22156 2.26794 0
M  V30 2363 H 226.812 -0.276113 3.13185 0
M  V30 2364 N 230.584 -0.659388 1.43143 0
M  V30 2365 C 231.824 -1.43121 1.45931 0
M  V30 2366 C 232.188 -1.91838 0.0789298 0
M  V30 2367 O 233.389 -2.68794 -0.018491 0
M  V30 2368 C 231.66 -2.58534 2.46769 0
M  V30 2369 S 233.219 -3.47154 2.68384 0
M  V30 2370 H 230.037 -0.488624 0.516496 0
M  V30 2371 H 232.639 -0.766128 1.79863 0
M  V30 2372 H 231.343 -2.21007 3.45809 0
M  V30 2373 H 230.874 -3.29898 2.14315 0
M  V30 2374 H 232.889 -4.55051 1.97845 0
M  V30 2375 N 232.062 -1.29571 -0.897171 0
M  V30 2376 C 233.478 -1.07637 -1.17841 0
M  V30 2377 C 233.678 0.170713 -2.00776 0
M  V30 2378 O 232.734 0.867768 -2.3712 0
M  V30 2379 C 234.047 -2.3332 -1.8969 0
M  V30 2380 C 235.595 -2.38664 -2.02505 0
M  V30 2381 C 236.07 -3.64157 -2.77765 0
M  V30 2382 N 237.561 -3.64894 -2.85318 0
M  V30 2383 C 238.296 -4.58679 -3.44094 0
M  V30 2384 N 237.792 -5.62799 -4.04017 0
M  V30 2385 N 239.585 -4.46245 -3.41793 0
M  V30 2386 H 231.736 -2.09598 -0.343883 0
M  V30 2387 H 233.999 -0.923333 -0.214848 0
M  V30 2388 H 233.705 -3.24262 -1.36187 0
M  V30 2389 H 233.579 -2.41025 -2.9015 0
M  V30 2390 H 235.966 -1.48208 -2.55183 0
M  V30 2391 H 236.047 -2.34943 -1.01171 0
M  V30 2392 H 235.691 -4.54965 -2.25763 0
M  V30 2393 H 235.621 -3.65137 -3.7945 0
M  V30 2394 H 238.112 -2.89613 -2.42761 0
M  V30 2395 H 238.425 -6.3048 -4.46895 0
M  V30 2396 H 236.77 -5.66605 -4.02472 0
M  V30 2397 H 239.961 -3.64094 -2.94199 0
M  V30 2398 H 240.134 -5.19518 -3.87304 0
M  V30 2399 N 233.54 1.10788 -1.12088 0
M  V30 2400 C 234.951 1.64181 -0.88891 0
M  V30 2401 C 235.302 1.87508 0.577498 0
M  V30 2402 O 234.427 1.61434 1.44112 0
M  V30 2403 C 235.022 2.98257 -1.60712 0
M  V30 2404 C 233.581 3.4853 -1.42139 0
M  V30 2405 C 232.728 2.23208 -1.6454 0
M  V30 2406 H 235.679 0.943368 -1.27618 0
M  V30 2407 H 235.7 3.65552 -1.05604 0
M  V30 2408 H 235.212 2.81246 -2.67436 0
M  V30 2409 H 233.313 3.70692 -0.376552 0
M  V30 2410 H 233.426 4.26882 -2.17505 0
M  V30 2411 H 231.79 2.31169 -1.06925 0
M  V30 2412 H 232.573 2.08733 -2.72554 0
M  V30 2413 N 235.018 0.912232 1.28515 0
M  V30 2414 C 235.928 0.404506 2.31086 0
M  V30 2415 C 236.944 -0.50707 1.66448 0
M  V30 2416 O 238.12 -0.393624 1.97516 0
M  V30 2417 C 235.185 -0.348572 3.44943 0
M  V30 2418 C 234.246 0.59604 4.25142 0
M  V30 2419 C 233.479 -0.121194 5.33562 0
M  V30 2420 O 233.702 -1.34317 5.5436 0
M  V30 2421 O 232.636 0.542716 5.99448 0
M  V30 2422 H 236.462 1.25579 2.76521 0
M  V30 2423 H 234.047 0.676998 1.33181 0
M  V30 2424 H 235.929 -0.77395 4.14232 0
M  V30 2425 H 234.604 -1.17571 3.01594 0
M  V30 2426 H 233.511 1.07079 3.58448 0
M  V30 2427 H 234.844 1.38995 4.72167 0
M  V30 2428 N 236.496 -1.42363 0.676048 0
M  V30 2429 C 237.444 -2.32596 -0.0131507 0
M  V30 2430 C 238.438 -1.49891 -0.789238 0
M  V30 2431 O 239.644 -1.65955 -0.697061 0
M  V30 2432 H 236.019 -0.751647 -0.0230481 0
M  V30 2433 H 237.99 -2.88421 0.765243 0
M  V30 2434 C 236.739 -3.34479 -0.949702 0
M  V30 2435 H 236.062 -3.98158 -0.361938 0
M  V30 2436 H 237.502 -4.00199 -1.4006 0
M  V30 2437 C 235.961 -2.66838 -2.05667 0
M  V30 2438 O 236.491 -2.50124 -3.14326 0
M  V30 2439 N 234.697 -2.25843 -1.82875 0
M  V30 2440 H 234.244 -2.39637 -0.945085 0
M  V30 2441 H 234.202 -1.80918 -2.5713 0
M  V30 2442 N 237.974 -0.419461 -1.51915 0
M  V30 2443 C 239.251 0.211999 -1.94448 0
M  V30 2444 C 239.631 1.61703 -1.35703 0
M  V30 2445 O 238.979 2.22102 -0.536931 0
M  V30 2446 C 239.189 0.207872 -3.4838 0
M  V30 2447 C 240.537 0.422192 -4.22496 0
M  V30 2448 O 241.561 0.286778 -3.55044 0
M  V30 2449 O 240.42 0.690009 -5.42126 0
M  V30 2450 H 237.514 0.139586 -0.815135 0
M  V30 2451 H 240.06 -0.476151 -1.62883 0
M  V30 2452 H 238.832 -0.775102 -3.83546 0
M  V30 2453 H 238.455 0.939688 -3.86336 0
M  V30 2454 N 239.452 1.56882 -0.150215 0
M  V30 2455 C 240.698 1.97299 0.494427 0
M  V30 2456 C 241.053 1.0338 1.62266 0
M  V30 2457 O 240.346 0.0694497 1.91474 0
M  V30 2458 C 240.54 3.41801 1.04437 0
M  V30 2459 C 240.369 4.49691 -0.0290451 0
M  V30 2460 C 239.139 5.03095 -0.47156 0
M  V30 2461 C 241.337 5.07693 -0.821703 0
M  V30 2462 N 239.319 5.94593 -1.52749 0
M  V30 2463 C 240.69 5.95431 -1.72805 0
M  V30 2464 C 242.745 4.90256 -0.869134 0
M  V30 2465 C 241.448 6.67599 -2.67777 0
M  V30 2466 C 243.474 5.63127 -1.8067 0
M  V30 2467 C 242.836 6.50576 -2.70057 0
M  V30 2468 H 238.935 0.76755 0.149639 0
M  V30 2469 H 241.519 1.93145 -0.24556 0
M  V30 2470 H 239.69 3.46541 1.75396 0
M  V30 2471 H 241.422 3.69272 1.6559 0
M  V30 2472 H 238.177 4.73543 -0.0732101 0
M  V30 2473 H 238.601 6.45047 -2.05531 0
M  V30 2474 H 243.243 4.22363 -0.192134 0
M  V30 2475 H 240.961 7.34717 -3.36476 0
M  V30 2476 H 244.547 5.51629 -1.84924 0
M  V30 2477 H 243.427 7.05974 -3.41424 0
M  V30 2478 N 240.93 -0.123565 1.57115 0
M  V30 2479 C 241.84 -1.17074 2.033 0
M  V30 2480 C 242.856 -1.4561 0.952559 0
M  V30 2481 O 244.032 -1.56817 1.26374 0
M  V30 2482 C 241.097 -2.47857 2.42421 0
M  V30 2483 C 240.158 -2.26758 3.64526 0
M  V30 2484 C 239.391 -3.51305 4.01771 0
M  V30 2485 O 239.614 -4.5843 3.39409 0
M  V30 2486 O 238.548 -3.42578 4.94898 0
M  V30 2487 H 242.374 -0.808555 2.92739 0
M  V30 2488 H 239.959 -0.334027 1.45618 0
M  V30 2489 H 241.841 -3.2492 2.68338 0
M  V30 2490 H 240.516 -2.83558 1.5613 0
M  V30 2491 H 239.423 -1.47569 3.43765 0
M  V30 2492 H 240.756 -1.95963 4.51508 0
M  V30 2493 N 242.408 -1.52605 -0.393616 0
M  V30 2494 C 243.371 -1.76415 -1.46323 0
M  V30 2495 C 244.371 -0.634126 -1.47768 0
M  V30 2496 O 245.561 -0.902142 -1.4902 0
M  V30 2497 C 242.693 -1.8607 -2.85641 0
M  V30 2498 H 243.886 -2.71916 -1.26498 0
M  V30 2499 H 241.439 -1.43257 -0.625073 0
M  V30 2500 H 242.174 -0.925378 -3.10817 0
M  V30 2501 H 241.959 -2.68235 -2.85993 0
M  V30 2502 H 243.449 -2.06179 -3.63153 0
M  V30 2503 N 243.887 0.651787 -1.4349 0
M  V30 2504 C 245.164 1.40909 -1.35661 0
M  V30 2505 C 245.544 2.11099 -0.00511733 0
M  V30 2506 O 244.892 2.04892 1.0115 0
M  V30 2507 C 245.102 2.3926 -2.54078 0
M  V30 2508 C 246.45 3.03217 -2.97228 0
M  V30 2509 O 247.474 2.49588 -2.54135 0
M  V30 2510 O 246.333 4.00455 -3.71885 0
M  V30 2511 H 243.427 0.629625 -0.536191 0
M  V30 2512 H 245.973 0.678575 -1.55542 0
M  V30 2513 H 244.745 1.86352 -3.44076 0
M  V30 2514 H 244.368 3.1976 -2.36303 0
M  V30 2515 N 245.365 1.30045 0.890287 0
M  V30 2516 C 246.295 1.18541 2.01172 0
M  V30 2517 C 247.276 0.0773356 1.69924 0
M  V30 2518 O 248.461 0.25845 1.92473 0
M  V30 2519 C 245.591 0.870941 3.36202 0
M  V30 2520 C 244.545 1.93637 3.81692 0
M  V30 2521 C 243.871 1.475 5.13953 0
M  V30 2522 C 245.171 3.34666 4.00994 0
M  V30 2523 H 246.865 2.12359 2.11054 0
M  V30 2524 H 244.411 1.02238 1.01407 0
M  V30 2525 H 246.364 0.777141 4.14172 0
M  V30 2526 H 245.088 -0.102926 3.26438 0
M  V30 2527 H 243.747 2.01972 3.05946 0
M  V30 2528 H 243.395 0.489551 5.00612 0
M  V30 2529 H 243.095 2.1876 5.4536 0
M  V30 2530 H 244.619 1.39489 5.94454 0
M  V30 2531 H 246.033 3.2912 4.69417 0
M  V30 2532 H 244.43 4.03966 4.43769 0
M  V30 2533 H 245.5 3.76949 3.05021 0
M  V30 2534 N 246.843 -1.10192 1.12674 0
M  V30 2535 C 248.12 -1.78717 0.794965 0
M  V30 2536 C 248.5 -1.98628 -0.714853 0
M  V30 2537 O 247.848 -1.58135 -1.64941 0
M  V30 2538 C 248.058 -3.11546 1.5729 0
M  V30 2539 C 249.406 -3.86382 1.76052 0
M  V30 2540 O 250.43 -3.21274 1.53823 0
M  V30 2541 O 249.289 -5.03246 2.13087 0
M  V30 2542 H 246.383 -0.774702 0.289423 0
M  V30 2543 H 248.929 -1.16819 1.23091 0
M  V30 2544 H 247.701 -2.92489 2.59935 0
M  V30 2545 H 247.324 -3.81164 1.13137 0
M  V30 2546 N 248.321 -0.919034 -1.28029 0
M  V30 2547 C 249.231 -0.416756 -2.30869 0
M  V30 2548 C 250.247 0.498235 -1.66714 0
M  V30 2549 O 251.423 0.383144 -1.97722 0
M  V30 2550 C 248.488 0.330274 -3.45123 0
M  V30 2551 C 247.549 -0.618578 -4.2482 0
M  V30 2552 C 246.782 0.0928959 -5.33619 0
M  V30 2553 O 247.005 1.31375 -5.55065 0
M  V30 2554 O 245.939 -0.574499 -5.99152 0
M  V30 2555 H 249.765 -1.27043 -2.75851 0
M  V30 2556 H 247.35 -0.684052 -1.3282 0
M  V30 2557 H 249.232 0.751972 -4.14636 0
M  V30 2558 H 247.907 1.1597 -3.02213 0
M  V30 2559 H 246.814 -1.08978 -3.57875 0
M  V30 2560 H 248.147 -1.41497 -4.71423 0
M  V30 2561 N 249.799 1.42003 -0.683588 0
M  V30 2562 C 251.048 2.00638 -0.206681 0
M  V30 2563 C 251.361 1.5472 1.19671 0
M  V30 2564 O 252.567 2.05833 1.77045 0
M  V30 2565 C 251.023 3.58487 -0.318632 0
M  V30 2566 C 250.631 4.1339 -1.72663 0
M  V30 2567 C 252.375 4.24384 0.0991141 0
M  V30 2568 C 250.282 5.63633 -1.79087 0
M  V30 2569 H 249.212 0.750408 -0.0735107 0
M  V30 2570 H 251.863 1.62624 -0.850048 0
M  V30 2571 H 250.245 3.94047 0.392781 0
M  V30 2572 H 251.419 3.89273 -2.46583 0
M  V30 2573 H 249.734 3.59976 -2.09299 0
M  V30 2574 H 252.331 5.34652 0.0713833 0
M  V30 2575 H 252.674 4.00505 1.13586 0
M  V30 2576 H 253.207 3.93816 -0.561599 0
M  V30 2577 H 249.946 5.92323 -2.80774 0
M  V30 2578 H 249.466 5.89714 -1.09535 0
M  V30 2579 H 251.145 6.28201 -1.5483 0
M  V30 2580 N 251.277 0.427512 1.51691 0
M  V30 2581 C 252.693 0.0792977 1.59403 0
M  V30 2582 C 252.893 -1.41035 1.43914 0
M  V30 2583 O 251.949 -2.17922 1.27539 0
M  V30 2584 C 253.262 0.590636 2.94842 0
M  V30 2585 C 254.81 0.550215 3.08126 0
M  V30 2586 C 255.285 1.03836 4.46074 0
M  V30 2587 N 256.776 0.995943 4.52366 0
M  V30 2588 C 257.511 1.34463 5.57411 0
M  V30 2589 N 257.007 1.76569 6.69922 0
M  V30 2590 N 258.8 1.26343 5.47717 0
M  V30 2591 H 250.951 1.39687 1.60004 0
M  V30 2592 H 253.214 0.575003 0.753708 0
M  V30 2593 H 252.92 1.63251 3.11516 0
M  V30 2594 H 252.794 0.0102061 3.77199 0
M  V30 2595 H 255.181 -0.482654 2.91126 0
M  V30 2596 H 255.262 1.16693 2.27632 0
M  V30 2597 H 254.906 2.06965 4.63819 0
M  V30 2598 H 254.836 0.398286 5.25092 0
M  V30 2599 H 257.327 0.68661 3.7161 0
M  V30 2600 H 257.64 2.01438 7.46085 0
M  V30 2601 H 255.985 1.80488 6.71155 0
M  V30 2602 H 259.176 0.933209 4.58703 0
M  V30 2603 H 259.349 1.53846 6.29472 0
M  V30 2604 N 252.755 -1.56801 0.158532 0
M  V30 2605 C 254.171 -1.5837 -0.197774 0
M  V30 2606 C 254.371 -1.17334 -1.63814 0
M  V30 2607 O 253.427 -0.878988 -2.36707 0
M  V30 2608 C 254.74 -3.00615 0.0714459 0
M  V30 2609 C 256.288 -3.12999 0.00864533 0
M  V30 2610 C 256.763 -4.57313 0.250685 0
M  V30 2611 N 258.254 -4.62777 0.198014 0
M  V30 2612 C 258.989 -5.72271 0.359642 0
M  V30 2613 N 258.485 -6.90371 0.579625 0
M  V30 2614 N 260.278 -5.61318 0.296438 0
M  V30 2615 H 252.429 -1.81765 1.09887 0
M  V30 2616 H 254.692 -0.841849 0.435884 0
M  V30 2617 H 254.398 -3.35068 1.06874 0
M  V30 2618 H 254.272 -3.71683 -0.642757 0
M  V30 2619 H 256.659 -2.7838 -0.979217 0
M  V30 2620 H 256.74 -2.44393 0.755359 0
M  V30 2621 H 256.384 -4.92639 1.2357 0
M  V30 2622 H 256.314 -5.24061 -0.516489 0
M  V30 2623 H 258.805 -3.77885 0.0331115 0
M  V30 2624 H 259.118 -7.69689 0.69275 0
M  V30 2625 H 257.463 -6.92264 0.616087 0
M  V30 2626 H 260.654 -4.67932 0.125258 0
M  V30 2627 H 260.827 -6.46599 0.425831 0
M  V30 2628 N 254.233 0.115231 -1.57178 0
M  V30 2629 C 255.163 1.1423 -2.03651 0
M  V30 2630 C 256.144 1.42967 -0.921655 0
M  V30 2631 O 257.329 1.53343 -1.19162 0
M  V30 2632 C 254.459 2.4675 -2.44401 0
M  V30 2633 C 253.413 2.32467 -3.59365 0
M  V30 2634 C 252.739 3.69984 -3.86026 0
M  V30 2635 C 254.039 1.78203 -4.90959 0
M  V30 2636 H 255.733 0.755749 -2.89705 0
M  V30 2637 H 253.279 0.362093 -1.39373 0
M  V30 2638 H 255.232 3.18854 -2.75517 0
M  V30 2639 H 253.956 2.87302 -1.55322 0
M  V30 2640 H 252.615 1.62811 -3.28463 0
M  V30 2641 H 252.263 4.08028 -2.94147 0
M  V30 2642 H 251.963 3.61279 -4.63412 0
M  V30 2643 H 253.487 4.43587 -4.19599 0
M  V30 2644 H 254.901 2.40128 -5.20587 0
M  V30 2645 H 253.298 1.8031 -5.72371 0
M  V30 2646 H 254.368 0.739876 -4.79222 0
M  V30 2647 N 255.711 1.52812 0.385517 0
M  V30 2648 C 256.658 1.77838 1.47113 0
M  V30 2649 C 257.628 0.621757 1.54024 0
M  V30 2650 O 258.813 0.861846 1.70226 0
M  V30 2651 C 255.953 1.95618 2.84302 0
M  V30 2652 C 255.066 3.23316 2.86515 0
M  V30 2653 C 254.201 3.31394 4.15152 0
M  V30 2654 C 253.24 4.53201 4.1143 0
M  V30 2655 N 252.377 4.58542 5.3168 0
M  V30 2656 H 257.217 2.70482 1.25073 0
M  V30 2657 H 254.754 1.34006 0.606692 0
M  V30 2658 H 256.712 2.03912 3.63972 0
M  V30 2659 H 255.342 1.06331 3.04784 0
M  V30 2660 H 254.394 3.24076 1.99195 0
M  V30 2661 H 255.706 4.13045 2.79634 0
M  V30 2662 H 254.86 3.3889 5.03228 0
M  V30 2663 H 253.599 2.39645 4.24761 0
M  V30 2664 H 252.604 4.45827 3.21742 0
M  V30 2665 H 253.829 5.46271 4.03442 0
M  V30 2666 H 251.775 3.69686 5.41912 0
M  V30 2667 H 251.692 5.42148 5.26889 0
M  V30 2668 H 252.96 4.70296 6.21644 0
M  V30 2669 N 257.189 -0.644168 1.43834 0
M  V30 2670 C 258.466 -1.40188 1.36406 0
M  V30 2671 C 258.846 -2.11094 0.0163124 0
M  V30 2672 O 258.194 -2.05426 -1.00062 0
M  V30 2673 C 258.404 -2.3791 2.55343 0
M  V30 2674 C 259.752 -3.01637 2.98832 0
M  V30 2675 O 260.776 -2.48237 2.55455 0
M  V30 2676 O 259.635 -3.98477 3.74003 0
M  V30 2677 H 256.729 -0.626773 0.539523 0
M  V30 2678 H 259.275 -0.670317 1.559 0
M  V30 2679 H 258.047 -1.84525 3.4506 0
M  V30 2680 H 257.67 -3.18503 2.37995 0
M  V30 2681 N 258.668 -1.30515 -0.883378 0
M  V30 2682 C 259.945 -1.10086 -1.6168 0
M  V30 2683 C 260.325 0.349269 -2.08191 0
M  V30 2684 O 259.673 1.34105 -1.85008 0
M  V30 2685 C 259.883 -2.10315 -2.78511 0
M  V30 2686 C 261.231 -2.42119 -3.48803 0
M  V30 2687 O 262.255 -2.08638 -2.88702 0
M  V30 2688 O 261.114 -2.99396 -4.57192 0
M  V30 2689 H 258.208 -0.422907 -0.710689 0
M  V30 2690 H 260.754 -1.41947 -0.930015 0
M  V30 2691 H 259.526 -3.07917 -2.41459 0
M  V30 2692 H 259.149 -1.79282 -3.54886 0
M  V30 2693 N 260.146 1.09593 -1.13257 0
M  V30 2694 C 261.093 2.1618 -0.808381 0
M  V30 2695 C 262.063 1.64517 0.228754 0
M  V30 2696 O 263.248 1.9053 0.101381 0
M  V30 2697 C 260.388 3.43973 -0.278675 0
M  V30 2698 C 259.501 4.09545 -1.37466 0
M  V30 2699 C 258.636 5.25088 -0.803479 0
M  V30 2700 C 257.675 5.82579 -1.87799 0
M  V30 2701 N 256.812 6.89486 -1.32488 0
M  V30 2702 H 261.652 2.43254 -1.72138 0
M  V30 2703 H 259.189 1.19392 -0.859294 0
M  V30 2704 H 261.147 4.17174 0.0465583 0
M  V30 2705 H 259.777 3.17223 0.597459 0
M  V30 2706 H 258.829 3.34226 -1.81652 0
M  V30 2707 H 260.141 4.48307 -2.18684 0
M  V30 2708 H 259.295 6.05178 -0.429427 0
M  V30 2709 H 258.034 4.87684 0.0397956 0
M  V30 2710 H 257.039 5.01152 -2.26113 0
M  V30 2711 H 258.264 6.22045 -2.72463 0
M  V30 2712 H 256.21 6.54064 -0.503575 0
M  V30 2713 H 256.127 7.27007 -2.07355 0
M  V30 2714 H 257.395 7.73336 -0.978336 0
M  V30 2715 N 261.624 0.925811 1.2754 0
M  V30 2716 C 262.852 0.581509 1.9856 0
M  V30 2717 C 263.267 -0.840041 1.69082 0
M  V30 2718 O 262.624 -1.55805 0.950312 0
M  V30 2719 C 262.675 0.795589 3.52637 0
M  V30 2720 O 262.396 2.16121 3.81082 0
M  V30 2721 C 263.897 0.459744 4.4091 0
M  V30 2722 H 261.117 0.220538 0.633722 0
M  V30 2723 H 263.661 1.24232 1.6244 0
M  V30 2724 H 261.816 0.18161 3.86974 0
M  V30 2725 H 262.23 2.2098 4.75676 0
M  V30 2726 H 263.704 0.660244 5.48037 0
M  V30 2727 H 264.181 -0.604625 4.35018 0
M  V30 2728 H 264.787 1.05178 4.12089 0
M  V30 2729 N 263.102 -1.41638 0.69111 0
M  V30 2730 C 264.049 -2.30789 0.0229705 0
M  V30 2731 C 265.019 -1.46863 -0.775911 0
M  V30 2732 O 266.204 -1.75661 -0.74485 0
M  V30 2733 C 263.344 -3.32868 -0.910666 0
M  V30 2734 C 262.457 -4.31875 -0.103874 0
M  V30 2735 C 261.592 -5.21024 -1.03475 0
M  V30 2736 C 260.631 -6.11702 -0.220598 0
M  V30 2737 N 259.768 -6.93349 -1.10504 0
M  V30 2738 H 264.608 -2.87366 0.788978 0
M  V30 2739 H 262.145 -1.41535 0.400794 0
M  V30 2740 H 264.103 -3.90596 -1.46597 0
M  V30 2741 H 262.733 -2.77851 -1.64312 0
M  V30 2742 H 261.785 -3.76131 0.568285 0
M  V30 2743 H 263.097 -4.96003 0.527504 0
M  V30 2744 H 262.251 -5.83565 -1.65943 0
M  V30 2745 H 260.99 -4.57112 -1.69999 0
M  V30 2746 H 259.995 -5.48215 0.417187 0
M  V30 2747 H 261.22 -6.77668 0.440784 0
M  V30 2748 H 259.166 -6.3205 -1.75638 0
M  V30 2749 H 259.083 -7.54146 -0.529125 0
M  V30 2750 H 260.351 -7.60362 -1.71667 0
M  V30 2751 N 264.58 -0.43555 -1.51462 0
M  V30 2752 C 265.51 0.367376 -2.30592 0
M  V30 2753 C 266.491 1.02263 -1.35928 0
M  V30 2754 O 267.676 1.02661 -1.64847 0
M  V30 2755 C 264.806 1.46983 -3.14664 0
M  V30 2756 C 263.76 0.938161 -4.17591 0
M  V30 2757 C 263.086 2.13622 -4.90173 0
M  V30 2758 C 264.386 -0.0261621 -5.22293 0
M  V30 2759 H 266.08 -0.292969 -2.97963 0
M  V30 2760 H 263.626 -0.14234 -1.43295 0
M  V30 2761 H 265.579 2.03873 -3.688 0
M  V30 2762 H 264.303 2.15843 -2.4511 0
M  V30 2763 H 262.962 0.391481 -3.64504 0
M  V30 2764 H 262.61 2.81098 -4.17124 0
M  V30 2765 H 262.31 1.78688 -5.59772 0
M  V30 2766 H 263.834 2.7107 -5.47132 0
M  V30 2767 H 265.248 0.452384 -5.71512 0
M  V30 2768 H 263.645 -0.287992 -5.99409 0
M  V30 2769 H 264.715 -0.963391 -4.75233 0
M  V30 2770 N 266.058 1.56714 -0.166846 0
M  V30 2771 C 266.988 2.20754 0.760913 0
M  V30 2772 C 267.969 1.16178 1.24244 0
M  V30 2773 O 269.154 1.44592 1.29641 0
M  V30 2774 C 266.284 2.84478 1.99223 0
M  V30 2775 C 265.238 3.95053 1.64672 0
M  V30 2776 C 264.564 4.45805 2.95232 0
M  V30 2777 C 265.864 5.14865 0.878155 0
M  V30 2778 H 267.558 2.98537 0.22713 0
M  V30 2779 H 265.104 1.43596 0.107805 0
M  V30 2780 H 267.057 3.27951 2.64624 0
M  V30 2781 H 265.781 2.04056 2.55007 0
M  V30 2782 H 264.44 3.52228 1.01641 0
M  V30 2783 H 264.088 3.62181 3.49047 0
M  V30 2784 H 263.788 5.204 2.7287 0
M  V30 2785 H 265.312 4.91962 3.6167 0
M  V30 2786 H 266.726 5.55059 1.43466 0
M  V30 2787 H 265.123 5.95348 0.753738 0
M  V30 2788 H 266.193 4.84735 -0.126377 0
M  V30 2789 N 267.536 -0.106894 1.57237 0
M  V30 2790 C 268.785 -0.811163 1.8467 0
M  V30 2791 C 269.098 -1.80469 0.754342 0
M  V30 2792 O 270.304 -2.55601 0.915439 0
M  V30 2793 C 268.76 -1.49337 3.27454 0
M  V30 2794 C 268.368 -0.540217 4.44731 0
M  V30 2795 C 270.112 -2.18206 3.64124 0
M  V30 2796 C 268.019 -1.22634 5.78545 0
M  V30 2797 H 266.949 -0.306679 0.688813 0
M  V30 2798 H 269.6 -0.0639887 1.83388 0
M  V30 2799 H 267.982 -2.2876 3.23241 0
M  V30 2800 H 269.156 0.221659 4.60267 0
M  V30 2801 H 267.471 0.042146 4.16379 0
M  V30 2802 H 270.068 -2.70253 4.61376 0
M  V30 2803 H 270.411 -2.96562 2.92158 0
M  V30 2804 H 270.944 -1.45658 3.70174 0
M  V30 2805 H 267.683 -0.483832 6.53712 0
M  V30 2806 H 267.203 -1.95993 5.66874 0
M  V30 2807 H 268.882 -1.75615 6.2271 0
M  V30 2808 N 269.014 -1.53014 -0.377408 0
M  V30 2809 C 270.26 -1.68872 -1.12294 0
M  V30 2810 C 270.593 -0.433224 -1.89306 0
M  V30 2811 O 269.868 0.569258 -1.85983 0
M  V30 2812 C 270.151 -2.93115 -2.09179 0
M  V30 2813 C 270.004 -4.28794 -1.35853 0
M  V30 2814 C 271.323 -3.12928 -3.09458 0
M  V30 2815 H 268.442 -0.614518 -0.406862 0
M  V30 2816 H 271.084 -1.85633 -0.40503 0
M  V30 2817 H 269.234 -2.78956 -2.70399 0
M  V30 2818 H 270.906 -4.54742 -0.775082 0
M  V30 2819 H 269.149 -4.28744 -0.660364 0
M  V30 2820 H 269.82 -5.11837 -2.06706 0
M  V30 2821 H 272.296 -3.26194 -2.58334 0
M  V30 2822 H 271.172 -4.01316 -3.74482 0
M  V30 2823 H 271.433 -2.27669 -3.78971 0
M  V30 2824 N 270.492 0.636531 -1.44174 0
M  V30 2825 C 271.72 1.42353 -1.50144 0
M  V30 2826 C 272.135 1.88389 -0.124575 0
M  V30 2827 O 271.492 1.6051 0.868489 0
M  V30 2828 C 271.543 2.64744 -2.46156 0
M  V30 2829 O 271.264 2.20629 -3.7849 0
M  V30 2830 C 272.765 3.57929 -2.61537 0
M  V30 2831 H 269.985 0.436752 -0.5094 0
M  V30 2832 H 272.529 0.778933 -1.89084 0
M  V30 2833 H 270.684 3.25307 -2.10366 0
M  V30 2834 H 271.098 2.99938 -4.30276 0
M  V30 2835 H 272.572 4.40428 -3.32757 0
M  V30 2836 H 273.049 4.06382 -1.66585 0
M  V30 2837 H 273.655 3.03238 -2.98206 0
M  V30 2838 N 271.97 1.30982 0.876444 0
M  V30 2839 C 272.918 1.18006 2.00443 0
M  V30 2840 C 273.912 0.0898871 1.69161 0
M  V30 2841 O 275.118 0.251333 1.78237 0
M  V30 2842 H 271.493 0.365196 0.65737 0
M  V30 2843 H 273.464 2.13453 2.0852 0
M  V30 2844 C 272.213 0.897521 3.35916 0
M  V30 2845 H 271.536 1.7285 3.60504 0
M  V30 2846 H 272.976 0.846874 4.15456 0
M  V30 2847 C 271.435 -0.399674 3.34521 0
M  V30 2848 O 271.965 -1.41852 3.7582 0
M  V30 2849 N 270.171 -0.413893 2.87637 0
M  V30 2850 H 269.718 0.41571 2.54224 0
M  V30 2851 H 269.676 -1.28175 2.87086 0
M  V30 2852 N 273.449 -1.08991 1.13837 0
M  V30 2853 C 274.86 -1.62746 0.914917 0
M  V30 2854 C 275.211 -1.88403 -0.547594 0
M  V30 2855 O 274.336 -1.63706 -1.41525 0
M  V30 2856 C 274.931 -2.95662 1.65437 0
M  V30 2857 C 273.49 -3.46225 1.47666 0
M  V30 2858 C 272.637 -2.20562 1.6807 0
M  V30 2859 H 275.588 -0.922946 1.29102 0
M  V30 2860 H 275.609 -3.63825 1.11407 0
M  V30 2861 H 275.121 -2.76956 2.71877 0
M  V30 2862 H 273.222 -3.70046 0.435478 0
M  V30 2863 H 273.335 -4.23368 2.24268 0
M  V30 2864 H 271.699 -2.29439 1.10589 0
M  V30 2865 H 272.482 -2.0437 2.7584 0
M  V30 2866 N 274.927 -0.932562 -1.27047 0
M  V30 2867 C 276.152 -0.591474 -1.98787 0
M  V30 2868 C 276.577 0.824601 -1.69062 0
M  V30 2869 O 275.935 1.5541 -0.933677 0
M  V30 2870 C 275.983 -0.829808 -3.50922 0
M  V30 2871 O 275.087 0.102266 -4.12273 0
M  V30 2872 H 274.428 -0.227185 -0.623926 0
M  V30 2873 H 276.958 -1.25314 -1.61733 0
M  V30 2874 H 276.968 -0.747292 -4.01098 0
M  V30 2875 H 275.643 -1.86201 -3.7189 0
M  V30 2876 H 274.22 -0.0305761 -3.72887 0
M  V30 2877 N 276.405 1.4127 -0.698611 0
M  V30 2878 C 277.353 2.32588 -0.023855 0
M  V30 2879 C 278.347 1.51128 0.765292 0
M  V30 2880 O 279.553 1.67043 0.670571 0
M  V30 2881 H 275.928 0.751918 0.0110871 0
M  V30 2882 H 277.899 2.87167 -0.811031 0
M  V30 2883 C 276.648 3.35947 0.896369 0
M  V30 2884 H 275.971 3.98684 0.298548 0
M  V30 2885 H 277.411 4.02376 1.33676 0
M  V30 2886 C 275.87 2.70076 2.01396 0
M  V30 2887 O 276.4 2.55093 3.10307 0
M  V30 2888 N 274.606 2.28724 1.79259 0
M  V30 2889 H 274.153 2.4111 0.906841 0
M  V30 2890 H 274.111 1.84986 2.54219 0
M  V30 2891 N 277.883 0.443576 1.51229 0
M  V30 2892 C 279.294 -0.0180867 1.86691 0
M  V30 2893 C 279.645 -1.41384 1.36033 0
M  V30 2894 O 278.77 -2.04291 0.713722 0
M  V30 2895 C 279.365 -0.039597 3.38777 0
M  V30 2896 C 277.924 -0.445692 3.73752 0
M  V30 2897 C 277.071 0.357584 2.74985 0
M  V30 2898 H 280.022 0.659138 1.44364 0
M  V30 2899 H 280.043 -0.847761 3.70936 0
M  V30 2900 H 279.555 0.976382 3.75617 0
M  V30 2901 H 277.656 -1.46704 3.42503 0
M  V30 2902 H 277.769 -0.166155 4.78812 0
M  V30 2903 H 276.133 -0.184973 2.54027 0
M  V30 2904 H 276.916 1.37256 3.14668 0
M  V30 2905 N 279.361 -1.56624 0.175154 0
M  V30 2906 C 280.601 -1.98894 -0.471221 0
M  V30 2907 C 280.965 -1.05889 -1.60161 0
M  V30 2908 O 282.166 -1.37315 -2.3108 0
M  V30 2909 C 280.437 -3.44865 -0.938241 0
M  V30 2910 S 281.996 -4.09164 -1.58526 0
M  V30 2911 H 278.814 -0.694686 -0.151434 0
M  V30 2912 H 281.416 -1.93577 0.27352 0
M  V30 2913 H 280.12 -4.10265 -0.10518 0
M  V30 2914 H 279.651 -3.53956 -1.71693 0
M  V30 2915 H 281.666 -4.04528 -2.87352 0
M  V30 2916 N 280.839 0.0985539 -1.57292 0
M  V30 2917 C 282.087 0.801092 -1.85545 0
M  V30 2918 C 282.408 1.79438 -0.763353 0
M  V30 2919 O 281.678 1.94763 0.21073 0
M  V30 2920 H 280.258 0.29884 -0.684619 0
M  V30 2921 H 282.92 0.0810064 -1.94732 0
M  V30 2922 H 282.016 1.3338 -2.82163 0
M  V30 2923 N 282.317 1.53212 0.369288 0
M  V30 2924 C 283.542 1.73423 1.1375 0
M  V30 2925 C 283.967 0.460404 1.82378 0
M  V30 2926 O 283.325 -0.585298 1.71592 0
M  V30 2927 C 283.373 2.89769 2.1463 0
M  V30 2928 O 282.477 2.58119 3.21634 0
M  V30 2929 H 281.818 0.576061 0.330227 0
M  V30 2930 H 284.348 2.00083 0.427547 0
M  V30 2931 H 284.358 3.15829 2.58294 0
M  V30 2932 H 283.033 3.8217 1.64071 0
M  V30 2933 H 281.61 2.42864 2.82969 0
M  V30 2934 N 283.795 -0.628877 1.44509 0
M  V30 2935 C 284.743 -1.76193 1.51852 0
M  V30 2936 C 285.737 -1.64849 0.390042 0
M  V30 2937 O 286.943 -1.709 0.565082 0
M  V30 2938 H 283.318 -0.581728 0.476547 0
M  V30 2939 H 285.289 -1.67123 2.47209 0
M  V30 2940 C 284.038 -3.14533 1.48204 0
M  V30 2941 H 283.361 -3.23911 2.34354 0
M  V30 2942 H 284.801 -3.93701 1.57402 0
M  V30 2943 C 283.26 -3.36287 0.203142 0
M  V30 2944 O 283.79 -3.9509 -0.725745 0
M  V30 2945 N 281.996 -2.90408 0.105563 0
M  V30 2946 H 281.543 -2.42739 0.862301 0
M  V30 2947 H 281.501 -3.05339 -0.749371 0
M  V30 2948 N 285.273 -1.31445 -0.869486 0
M  V30 2949 C 286.52 -1.21158 -1.62256 0
M  V30 2950 C 286.848 0.230155 -1.93133 0
M  V30 2951 O 286.103 1.17906 -1.56194 0
M  V30 2952 C 286.402 -2.00145 -2.96102 0
M  V30 2953 C 286.068 -3.4964 -2.84715 0
M  V30 2954 C 284.73 -3.90403 -2.81317 0
M  V30 2955 C 287.082 -4.44769 -2.71716 0
M  V30 2956 C 284.41 -5.24561 -2.62778 0
M  V30 2957 C 286.762 -5.79054 -2.54714 0
M  V30 2958 C 285.426 -6.19037 -2.49699 0
M  V30 2959 H 284.696 -0.443348 -0.593737 0
M  V30 2960 H 287.343 -1.62715 -1.00976 0
M  V30 2961 H 285.648 -1.5127 -3.6142 0
M  V30 2962 H 287.345 -1.89566 -3.53363 0
M  V30 2963 H 283.935 -3.17256 -2.88178 0
M  V30 2964 H 288.119 -4.14208 -2.73397 0
M  V30 2965 H 283.375 -5.54613 -2.57321 0
M  V30 2966 H 287.549 -6.52393 -2.43632 0
M  V30 2967 H 285.176 -7.22935 -2.35093 0
M  V30 2968 N 286.751 1.08385 -1.14413 0
M  V30 2969 C 287.976 1.85057 -0.936413 0
M  V30 2970 C 288.401 1.81055 0.509971 0
M  V30 2971 O 287.759 1.1958 1.36273 0
M  V30 2972 C 287.807 3.30505 -1.44217 0
M  V30 2973 O 286.911 4.07491 -0.634409 0
M  V30 2974 H 286.252 0.573425 -0.334784 0
M  V30 2975 H 288.782 1.36799 -1.52142 0
M  V30 2976 H 288.792 3.81348 -1.45043 0
M  V30 2977 H 287.467 3.32734 -2.49522 0
M  V30 2978 H 286.044 3.66368 -0.694902 0
M  V30 2979 N 288.23 0.939286 1.26551 0
M  V30 2980 C 289.646 0.641304 1.46149 0
M  V30 2981 C 289.846 -0.805964 1.84679 0
M  V30 2982 O 288.902 -1.58278 1.96734 0
M  V30 2983 C 290.215 1.6011 2.54529 0
M  V30 2984 C 291.763 1.6106 2.68382 0
M  V30 2985 C 292.238 2.55765 3.79932 0
M  V30 2986 N 293.729 2.5404 3.87322 0
M  V30 2987 C 294.464 3.24004 4.73085 0
M  V30 2988 N 293.96 4.03388 5.63249 0
M  V30 2989 N 295.753 3.12965 4.66914 0
M  V30 2990 H 287.904 1.87478 0.998285 0
M  V30 2991 H 290.167 0.805559 0.499779 0
M  V30 2992 H 289.873 2.63412 2.33039 0
M  V30 2993 H 289.747 1.35171 3.52149 0
M  V30 2994 H 292.134 0.584835 2.89247 0
M  V30 2995 H 292.215 1.90053 1.71212 0
M  V30 2996 H 291.859 3.58458 3.5982 0
M  V30 2997 H 291.789 2.24063 4.76554 0
M  V30 2998 H 294.28 1.96396 3.22858 0
M  V30 2999 H 294.593 4.5373 6.25579 0
M  V30 3000 H 292.938 4.07489 5.63008 0
M  V30 3001 H 296.129 2.50432 3.95476 0
M  V30 3002 H 296.302 3.67759 5.33533 0
M  V30 3003 N 289.708 -1.40897 0.706093 0
M  V30 3004 C 290.655 -2.30751 0.0474474 0
M  V30 3005 C 291.625 -1.47678 -0.76029 0
M  V30 3006 O 292.81 -1.76441 -0.726177 0
M  V30 3007 C 289.95 -3.33815 -0.875309 0
M  V30 3008 C 289.063 -4.31961 -0.0580623 0
M  V30 3009 C 288.198 -5.22093 -0.979425 0
M  V30 3010 C 287.237 -6.11902 -0.155706 0
M  V30 3011 N 286.374 -6.94482 -1.03144 0
M  V30 3012 H 291.214 -2.86513 0.819413 0
M  V30 3013 H 288.751 -1.41102 0.415783 0
M  V30 3014 H 290.709 -3.92129 -1.42446 0
M  V30 3015 H 289.339 -2.79579 -1.61356 0
M  V30 3016 H 288.391 -3.75507 0.608147 0
M  V30 3017 H 289.703 -4.95415 0.580082 0
M  V30 3018 H 288.857 -5.85292 -1.59744 0
M  V30 3019 H 287.596 -4.5889 -1.65141 0
M  V30 3020 H 286.601 -5.47742 0.475309 0
M  V30 3021 H 287.826 -6.77162 0.512635 0
M  V30 3022 H 285.772 -6.33877 -1.68924 0
M  V30 3023 H 285.689 -7.54665 -0.449108 0
M  V30 3024 H 286.957 -7.6214 -1.63593 0
M  V30 3025 N 291.186 -0.45159 -1.50991 0
M  V30 3026 C 292.136 0.370861 -2.24964 0
M  V30 3027 C 293.12 0.978074 -1.2776 0
M  V30 3028 O 294.312 0.893854 -1.52772 0
M  V30 3029 C 291.441 1.46344 -3.10545 0
M  V30 3030 C 290.527 0.864924 -4.15187 0
M  V30 3031 N 290.918 -0.00311354 -5.058 0
M  V30 3032 C 289.216 1.13099 -4.31422 0
M  V30 3033 C 289.917 -0.340772 -5.80701 0
M  V30 3034 N 288.893 0.279203 -5.42883 0
M  V30 3035 H 292.695 -0.298134 -2.92384 0
M  V30 3036 H 290.209 -0.264528 -1.60231 0
M  V30 3037 H 292.206 2.06565 -3.62128 0
M  V30 3038 H 290.866 2.13463 -2.4467 0
M  V30 3039 H 291.877 -0.37058 -5.16572 0
M  V30 3040 H 288.554 1.79861 -3.76771 0
M  V30 3041 H 289.944 -1.048 -6.63677 0
M  V30 3042 N 292.664 1.56529 -0.183458 0
M  V30 3043 C 293.91 1.97537 0.459036 0
M  V30 3044 C 294.243 1.06989 1.62071 0
M  V30 3045 O 293.518 0.11948 1.94133 0
M  V30 3046 C 293.801 3.47874 0.930368 0
M  V30 3047 C 293.654 4.492 -0.232317 0
M  V30 3048 C 294.973 4.01612 1.79989 0
M  V30 3049 H 292.092 0.718204 0.165383 0
M  V30 3050 H 294.734 1.88042 -0.272038 0
M  V30 3051 H 292.884 3.56095 1.55333 0
M  V30 3052 H 294.556 4.53027 -0.86972 0
M  V30 3053 H 292.799 4.24657 -0.885928 0
M  V30 3054 H 293.47 5.51823 0.139796 0
M  V30 3055 H 295.946 3.96097 1.27461 0
M  V30 3056 H 294.822 5.07195 2.09867 0
M  V30 3057 H 295.083 3.46163 2.74998 0
M  V30 3058 N 294.142 -0.090211 1.57342 0
M  V30 3059 C 295.052 -1.12735 2.05738 0
M  V30 3060 C 296.068 -1.43557 0.983231 0
M  V30 3061 O 297.244 -1.54101 1.29672 0
M  V30 3062 C 294.309 -2.42659 2.47624 0
M  V30 3063 C 293.37 -2.18975 3.69254 0
M  V30 3064 C 292.603 -3.42704 4.09133 0
M  V30 3065 O 292.826 -4.51127 3.49057 0
M  V30 3066 O 291.76 -3.32003 5.02053 0
M  V30 3067 H 295.586 -0.746279 2.94388 0
M  V30 3068 H 293.171 -0.303064 1.46294 0
M  V30 3069 H 295.053 -3.19155 2.7517 0
M  V30 3070 H 293.728 -2.80182 1.62109 0
M  V30 3071 H 292.635 -1.40244 3.46818 0
M  V30 3072 H 293.968 -1.86342 4.55563 0
M  V30 3073 N 295.62 -1.53406 -0.361157 0
M  V30 3074 C 296.897 -1.60411 -1.11927 0
M  V30 3075 C 297.277 -0.414385 -2.06993 0
M  V30 3076 O 296.625 0.594976 -2.20618 0
M  V30 3077 C 296.835 -2.95652 -1.85448 0
M  V30 3078 C 298.183 -3.50386 -2.39823 0
M  V30 3079 O 299.207 -2.97711 -1.95568 0
M  V30 3080 O 298.066 -4.42482 -3.20737 0
M  V30 3081 H 295.16 -0.64811 -0.513695 0
M  V30 3082 H 297.706 -1.65749 -0.364065 0
M  V30 3083 H 296.478 -3.73682 -1.16091 0
M  V30 3084 H 296.101 -2.93825 -2.67866 0
M  V30 3085 N 297.098 0.621204 -1.44841 0
M  V30 3086 C 298.347 1.37658 -1.47422 0
M  V30 3087 C 298.66 1.95264 -0.114629 0
M  V30 3088 O 299.866 2.71494 -0.0180199 0
M  V30 3089 C 298.322 2.49285 -2.59586 0
M  V30 3090 C 297.93 1.98149 -4.01797 0
M  V30 3091 C 299.674 3.26409 -2.71399 0
M  V30 3092 C 297.581 3.07178 -5.05367 0
M  V30 3093 H 296.511 0.517344 -0.548517 0
M  V30 3094 H 299.162 0.667257 -1.70938 0
M  V30 3095 H 297.544 3.22839 -2.29328 0
M  V30 3096 H 298.718 1.31395 -4.41669 0
M  V30 3097 H 297.033 1.33812 -3.94314 0
M  V30 3098 H 299.63 4.07706 -3.45948 0
M  V30 3099 H 299.973 3.76535 -1.77559 0
M  V30 3100 H 300.506 2.5995 -3.01116 0
M  V30 3101 H 297.245 2.61985 -6.00869 0
M  V30 3102 H 296.765 3.72542 -4.70077 0
M  V30 3103 H 298.444 3.71789 -5.29511 0
M  V30 3104 N 298.576 1.31904 0.862503 0
M  V30 3105 C 299.822 1.22197 1.61851 0
M  V30 3106 C 300.155 -0.217641 1.92977 0
M  V30 3107 O 299.43 -1.15264 1.56666 0
M  V30 3108 C 299.713 2.07378 2.94391 0
M  V30 3109 C 299.566 3.59678 2.70096 0
M  V30 3110 C 300.885 1.92891 3.95577 0
M  V30 3111 H 298.004 0.445255 0.587296 0
M  V30 3112 H 300.646 1.6177 0.99651 0
M  V30 3113 H 298.796 1.73758 3.47477 0
M  V30 3114 H 300.468 4.03472 2.23625 0
M  V30 3115 H 298.711 3.82735 2.04197 0
M  V30 3116 H 299.382 4.14595 3.64438 0
M  V30 3117 H 301.858 2.22327 3.51724 0
M  V30 3118 H 300.734 2.54781 4.86187 0
M  V30 3119 H 300.995 0.894315 4.3296 0
M  V30 3120 N 300.054 -1.07777 1.14986 0
M  V30 3121 C 301.47 -1.32373 0.891596 0
M  V30 3122 C 301.67 -1.9609 -0.463788 0
M  V30 3123 O 300.726 -2.21801 -1.20667 0
M  V30 3124 C 302.039 -2.21905 2.02925 0
M  V30 3125 C 303.587 -2.35367 2.06329 0
M  V30 3126 C 304.062 -3.28245 3.19405 0
M  V30 3127 N 305.553 -3.35824 3.19024 0
M  V30 3128 C 306.288 -4.07739 4.03158 0
M  V30 3129 N 305.784 -4.82306 4.97346 0
M  V30 3130 N 307.577 -4.03635 3.91197 0
M  V30 3131 H 299.728 -0.648039 2.02273 0
M  V30 3132 H 301.991 -0.348149 0.881757 0
M  V30 3133 H 301.697 -1.82342 3.0074 0
M  V30 3134 H 301.571 -3.22407 1.95789 0
M  V30 3135 H 303.958 -2.74186 1.09116 0
M  V30 3136 H 304.039 -1.34585 2.17533 0
M  V30 3137 H 303.683 -2.90146 4.16867 0
M  V30 3138 H 303.613 -4.28971 3.05437 0
M  V30 3139 H 306.104 -2.8267 2.50811 0
M  V30 3140 H 306.417 -5.34661 5.57994 0
M  V30 3141 H 304.762 -4.81337 5.01338 0
M  V30 3142 H 307.953 -3.44491 3.16928 0
M  V30 3143 H 308.126 -4.59417 4.5699 0
M  V30 3144 N 301.532 -0.945985 -1.26051 0
M  V30 3145 C 302.462 -0.477172 -2.28572 0
M  V30 3146 C 303.443 0.472032 -1.63419 0
M  V30 3147 O 304.628 0.372853 -1.90587 0
M  V30 3148 C 301.758 0.253975 -3.4637 0
M  V30 3149 C 300.712 -0.609135 -4.23643 0
M  V30 3150 C 300.038 0.252252 -5.34105 0
M  V30 3151 C 301.338 -1.8829 -4.8718 0
M  V30 3152 H 303.032 -1.33402 -2.68038 0
M  V30 3153 H 300.578 -0.642904 -1.28852 0
M  V30 3154 H 302.531 0.593016 -4.17207 0
M  V30 3155 H 301.255 1.145 -3.05871 0
M  V30 3156 H 299.914 -0.931138 -3.54578 0
M  V30 3157 H 299.562 1.14278 -4.89846 0
M  V30 3158 H 299.262 -0.32188 -5.86718 0
M  V30 3159 H 300.786 0.586454 -6.07777 0
M  V30 3160 H 302.2 -1.61081 -5.50205 0
M  V30 3161 H 300.597 -2.40199 -5.49931 0
M  V30 3162 H 301.667 -2.59134 -4.09851 0
M  V30 3163 N 303.011 1.40521 -0.713556 0
M  V30 3164 C 303.974 2.29098 -0.0684347 0
M  V30 3165 C 304.974 1.45268 0.689472 0
M  V30 3166 O 306.164 1.66205 0.521677 0
M  V30 3167 C 303.296 3.28446 0.913024 0
M  V30 3168 H 304.489 2.87645 -0.84855 0
M  V30 3169 H 302.042 1.48809 -0.47809 0
M  V30 3170 H 302.777 2.74913 1.72027 0
M  V30 3171 H 302.562 3.90327 0.372472 0
M  V30 3172 H 304.052 3.94777 1.36165 0
M  V30 3173 N 304.489 0.459591 1.5075 0
M  V30 3174 C 305.399 -0.34613 2.32033 0
M  V30 3175 C 306.415 -1.00686 1.41909 0
M  V30 3176 O 307.591 -0.997361 1.7497 0
M  V30 3177 C 304.656 -1.42029 3.16273 0
M  V30 3178 C 303.717 -0.777362 4.22203 0
M  V30 3179 C 302.95 -1.80034 5.02418 0
M  V30 3180 O 303.173 -3.02544 4.83553 0
M  V30 3181 O 302.107 -1.37853 5.85901 0
M  V30 3182 H 305.933 0.318054 3.0203 0
M  V30 3183 H 303.518 0.221663 1.47746 0
M  V30 3184 H 305.4 -2.04275 3.68578 0
M  V30 3185 H 304.075 -2.06815 2.49016 0
M  V30 3186 H 302.982 -0.116256 3.73919 0
M  V30 3187 H 304.315 -0.172634 4.91897 0
M  V30 3188 N 305.967 -1.56429 0.191757 0
M  V30 3189 C 306.877 -2.22541 -0.742481 0
M  V30 3190 C 307.893 -1.22342 -1.23727 0
M  V30 3191 O 309.069 -1.55069 -1.28513 0
M  V30 3192 C 306.134 -2.8692 -1.94623 0
M  V30 3193 C 305.195 -4.02378 -1.49633 0
M  V30 3194 C 304.428 -4.63678 -2.6427 0
M  V30 3195 O 304.651 -4.23895 -3.81666 0
M  V30 3196 O 303.585 -5.53202 -2.37174 0
M  V30 3197 H 307.411 -3.02977 -0.209462 0
M  V30 3198 H 304.996 -1.49353 -0.0373832 0
M  V30 3199 H 306.878 -3.27663 -2.64982 0
M  V30 3200 H 305.553 -2.09466 -2.46791 0
M  V30 3201 H 304.46 -3.66265 -0.761636 0
M  V30 3202 H 305.793 -4.81487 -1.02134 0
M  V30 3203 N 307.445 0.0818655 -1.57387 0
M  V30 3204 C 308.375 1.09885 -2.06028 0
M  V30 3205 C 309.356 1.4098 -0.951774 0
M  V30 3206 O 310.541 1.50781 -1.22387 0
M  V30 3207 C 307.671 2.4151 -2.4958 0
M  V30 3208 C 306.625 2.24792 -3.64215 0
M  V30 3209 C 305.951 3.61712 -3.93787 0
M  V30 3210 C 307.251 1.67749 -4.94629 0
M  V30 3211 H 308.945 0.694128 -2.91243 0
M  V30 3212 H 306.491 0.332448 -1.4011 0
M  V30 3213 H 308.444 3.12939 -2.82219 0
M  V30 3214 H 307.168 2.83943 -1.61381 0
M  V30 3215 H 305.827 1.55807 -3.31843 0
M  V30 3216 H 305.475 4.01697 -3.02735 0
M  V30 3217 H 305.175 3.51368 -4.70971 0
M  V30 3218 H 306.699 4.34587 -4.28913 0
M  V30 3219 H 308.113 2.29032 -5.25564 0
M  V30 3220 H 306.51 1.68128 -5.76067 0
M  V30 3221 H 307.58 0.638059 -4.80684 0
M  V30 3222 N 308.923 1.53595 0.353017 0
M  V30 3223 C 310.339 1.43648 0.695516 0
M  V30 3224 C 310.539 0.585617 1.92802 0
M  V30 3225 O 309.595 0.0729223 2.52395 0
M  V30 3226 C 310.908 2.8701 0.896991 0
M  V30 3227 C 312.456 2.96723 0.996209 0
M  V30 3228 C 312.931 4.41173 1.23007 0
M  V30 3229 N 314.422 4.44657 1.29749 0
M  V30 3230 C 315.157 5.53547 1.49577 0
M  V30 3231 N 314.653 6.72461 1.66639 0
M  V30 3232 N 316.446 5.41145 1.52048 0
M  V30 3233 H 308.597 2.07415 -0.457481 0
M  V30 3234 H 310.86 0.9372 -0.142687 0
M  V30 3235 H 310.566 3.51644 0.0629938 0
M  V30 3236 H 310.44 3.31401 1.80148 0
M  V30 3237 H 312.827 2.32235 1.82074 0
M  V30 3238 H 312.908 2.55707 0.0688331 0
M  V30 3239 H 312.552 5.06238 0.410505 0
M  V30 3240 H 312.482 4.79772 2.17086 0
M  V30 3241 H 314.973 3.58963 1.18126 0
M  V30 3242 H 315.286 7.51214 1.81378 0
M  V30 3243 H 313.631 6.75423 1.63794 0
M  V30 3244 H 316.822 4.47205 1.38294 0
M  V30 3245 H 316.995 6.26068 1.67159 0
M  V30 3246 N 310.401 -0.613514 1.45168 0
M  V30 3247 C 311.331 -1.7354 1.56225 0
M  V30 3248 C 312.312 -1.64981 0.41414 0
M  V30 3249 O 313.497 -1.83472 0.636526 0
M  V30 3250 C 310.627 -3.12128 1.52295 0
M  V30 3251 C 309.581 -3.35491 2.65762 0
M  V30 3252 C 308.907 -4.74291 2.46885 0
M  V30 3253 C 310.207 -3.26325 4.0781 0
M  V30 3254 H 311.901 -1.64543 2.50132 0
M  V30 3255 H 309.447 -0.790185 1.20383 0
M  V30 3256 H 311.4 -3.90404 1.58628 0
M  V30 3257 H 310.124 -3.2195 0.549139 0
M  V30 3258 H 308.783 -2.59603 2.58847 0
M  V30 3259 H 308.431 -4.80839 1.47657 0
M  V30 3260 H 308.131 -4.9088 3.22972 0
M  V30 3261 H 309.655 -5.54775 2.55063 0
M  V30 3262 H 311.069 -3.94483 4.16 0
M  V30 3263 H 309.466 -3.54445 4.8424 0
M  V30 3264 H 310.536 -2.23855 4.30136 0
M  V30 3265 N 311.879 -1.3236 -0.855495 0
M  V30 3266 C 313.29 -1.2056 -1.42556 0
M  V30 3267 C 313.641 0.182209 -1.95352 0
M  V30 3268 O 312.766 1.08088 -1.87472 0
M  V30 3269 C 313.361 -2.1826 -2.59129 0
M  V30 3270 C 311.92 -2.10351 -3.12137 0
M  V30 3271 C 311.067 -2.06674 -1.84882 0
M  V30 3272 H 314.018 -1.442 -0.662727 0
M  V30 3273 H 314.039 -1.78064 -3.36264 0
M  V30 3274 H 313.551 -3.19257 -2.20673 0
M  V30 3275 H 311.652 -1.12599 -3.55179 0
M  V30 3276 H 311.765 -3.00135 -3.73438 0
M  V30 3277 H 310.129 -1.51901 -2.04446 0
M  V30 3278 H 310.912 -3.09451 -1.48643 0
M  V30 3279 N 313.357 1.07166 -1.15556 0
M  V30 3280 C 314.287 2.16403 -0.877046 0
M  V30 3281 C 315.268 1.69217 0.173111 0
M  V30 3282 O 316.453 1.94181 0.027084 0
M  V30 3283 C 313.583 3.45349 -0.367632 0
M  V30 3284 C 312.537 4.05995 -1.35468 0
M  V30 3285 C 311.863 5.30045 -0.704038 0
M  V30 3286 C 313.163 4.45804 -2.72132 0
M  V30 3287 H 314.857 2.39959 -1.79053 0
M  V30 3288 H 312.403 1.15325 -0.862331 0
M  V30 3289 H 314.356 4.21095 -0.160317 0
M  V30 3290 H 313.08 3.21385 0.581326 0
M  V30 3291 H 311.739 3.32296 -1.54839 0
M  V30 3292 H 311.387 5.02373 0.251128 0
M  V30 3293 H 311.087 5.71579 -1.36277 0
M  V30 3294 H 312.611 6.08495 -0.50654 0
M  V30 3295 H 314.025 5.12671 -2.56595 0
M  V30 3296 H 312.422 4.98296 -3.34397 0
M  V30 3297 H 313.492 3.57083 -3.28054 0
M  V30 3298 N 314.835 0.952656 1.25548 0
M  V30 3299 C 316.082 0.606373 1.93208 0
M  V30 3300 C 316.41 -0.85631 1.74636 0
M  V30 3301 O 315.665 -1.62951 1.08376 0
M  V30 3302 C 315.964 0.908818 3.45652 0
M  V30 3303 C 315.63 2.35722 3.84378 0
M  V30 3304 C 314.292 2.75312 3.9466 0
M  V30 3305 C 316.644 3.29793 4.03591 0
M  V30 3306 C 313.972 4.08047 4.21562 0
M  V30 3307 C 316.324 4.62138 4.31985 0
M  V30 3308 C 314.988 5.01528 4.40484 0
M  V30 3309 H 314.258 0.221888 0.706998 0
M  V30 3310 H 316.905 1.20132 1.49133 0
M  V30 3311 H 315.21 0.231456 3.91116 0
M  V30 3312 H 316.907 0.619498 3.96186 0
M  V30 3313 H 313.497 2.04017 3.76928 0
M  V30 3314 H 317.681 3.00397 3.95064 0
M  V30 3315 H 312.937 4.38212 4.26357 0
M  V30 3316 H 317.111 5.35012 4.45797 0
M  V30 3317 H 314.738 6.04406 4.61083 0
M  V30 3318 N 316.313 -1.40141 0.720998 0
M  V30 3319 C 317.538 -2.05618 0.271258 0
M  V30 3320 C 317.963 -1.53978 -1.08039 0
M  V30 3321 O 317.321 -0.677463 -1.68167 0
M  V30 3322 C 317.369 -3.59609 0.267197 0
M  V30 3323 O 316.473 -4.05526 -0.749814 0
M  V30 3324 H 315.814 -0.651904 0.126162 0
M  V30 3325 H 318.344 -1.79439 0.982997 0
M  V30 3326 H 318.354 -4.0786 0.106744 0
M  V30 3327 H 317.029 -3.96559 1.25354 0
M  V30 3328 H 315.606 -3.68722 -0.556644 0
M  V30 3329 N 317.792 -0.46758 -1.50504 0
M  V30 3330 C 319.069 0.15003 -1.95024 0
M  V30 3331 C 319.449 1.57304 -1.40779 0
M  V30 3332 O 318.797 2.20281 -0.607319 0
M  V30 3333 C 319.007 0.0969324 -3.48865 0
M  V30 3334 C 320.355 0.287565 -4.23625 0
M  V30 3335 O 321.379 0.173678 -3.55776 0
M  V30 3336 O 320.238 0.517186 -5.44047 0
M  V30 3337 H 317.332 0.113582 -0.819163 0
M  V30 3338 H 319.878 -0.52773 -1.61286 0
M  V30 3339 H 318.65 -0.896732 -3.80886 0
M  V30 3340 H 318.273 0.816303 -3.8913 0
M  V30 3341 N 319.27 1.56325 -0.20005 0
M  V30 3342 C 320.18 2.22931 0.730668 0
M  V30 3343 C 321.196 1.22997 1.23076 0
M  V30 3344 O 322.372 1.55748 1.27689 0
M  V30 3345 C 319.437 2.87948 1.93098 0
M  V30 3346 C 318.498 4.03166 1.47497 0
M  V30 3347 C 317.731 4.65073 2.61807 0
M  V30 3348 O 317.954 4.25913 3.79413 0
M  V30 3349 O 316.888 5.54452 2.34237 0
M  V30 3350 H 320.714 3.03084 0.193391 0
M  V30 3351 H 318.299 1.49371 0.0294621 0
M  V30 3352 H 320.181 3.29063 2.6324 0
M  V30 3353 H 318.856 2.10771 2.45677 0
M  V30 3354 H 317.763 3.66664 0.742201 0
M  V30 3355 H 319.096 4.82022 0.995796 0
M  V30 3356 N 320.748 -0.0735177 1.57428 0
M  V30 3357 C 321.997 -0.771809 1.86349 0
M  V30 3358 C 322.31 -1.78828 0.792452 0
M  V30 3359 O 323.516 -2.53602 0.96945 0
M  V30 3360 C 321.972 -1.42358 3.30548 0
M  V30 3361 C 321.58 -0.445761 4.45777 0
M  V30 3362 C 323.324 -2.10434 3.6867 0
M  V30 3363 C 321.231 -1.10335 5.81016 0
M  V30 3364 H 320.161 -0.291999 0.695164 0
M  V30 3365 H 322.812 -0.0250749 1.83483 0
M  V30 3366 H 321.194 -2.21852 3.28021 0
M  V30 3367 H 322.368 0.319239 4.59693 0
M  V30 3368 H 320.683 0.130457 4.16196 0
M  V30 3369 H 323.28 -2.60405 4.67004 0
M  V30 3370 H 323.623 -2.90298 2.98383 0
M  V30 3371 H 324.156 -1.37773 3.7318 0
M  V30 3372 H 320.895 -0.345061 6.54591 0
M  V30 3373 H 320.415 -1.83925 5.70904 0
M  V30 3374 H 322.094 -1.62367 6.26295 0
M  V30 3375 N 322.226 -1.5378 -0.344866 0
M  V30 3376 C 323.456 -1.74646 -1.10374 0
M  V30 3377 C 323.864 -0.48491 -1.8288 0
M  V30 3378 O 323.207 0.553062 -1.75177 0
M  V30 3379 C 323.269 -2.87145 -2.16306 0
M  V30 3380 C 322.933 -4.26795 -1.63386 0
M  V30 3381 C 323.93 -5.08412 -1.08688 0
M  V30 3382 C 321.615 -4.73276 -1.68272 0
M  V30 3383 C 323.609 -6.34609 -0.595792 0
M  V30 3384 C 321.296 -5.99446 -1.18776 0
M  V30 3385 C 322.294 -6.79946 -0.645215 0
M  V30 3386 O 321.982 -8.03745 -0.157626 0
M  V30 3387 H 321.714 -0.587112 -0.335075 0
M  V30 3388 H 324.268 -2.01403 -0.403252 0
M  V30 3389 H 322.498 -2.55909 -2.89909 0
M  V30 3390 H 324.187 -2.95992 -2.77747 0
M  V30 3391 H 324.953 -4.73666 -1.04236 0
M  V30 3392 H 320.832 -4.10677 -2.09442 0
M  V30 3393 H 324.376 -6.97389 -0.171654 0
M  V30 3394 H 320.273 -6.33687 -1.22928 0
M  V30 3395 H 321.041 -8.18038 -0.275037 0
M  V30 3396 N 323.704 0.605807 -1.45491 0
M  V30 3397 C 324.667 1.69836 -1.5391 0
M  V30 3398 C 325.667 1.55261 -0.418424 0
M  V30 3399 O 326.857 1.60296 -0.681965 0
M  V30 3400 C 323.989 3.09117 -1.43734 0
M  V30 3401 H 325.182 1.63738 -2.51257 0
M  V30 3402 H 322.735 0.821689 -1.32959 0
M  V30 3403 H 323.47 3.20791 -0.475788 0
M  V30 3404 H 323.255 3.21104 -2.25021 0
M  V30 3405 H 324.745 3.88696 -1.52661 0
M  V30 3406 N 325.182 1.32811 0.848464 0
M  V30 3407 C 326.43 1.23479 1.59991 0
M  V30 3408 C 326.751 -0.201853 1.93952 0
M  V30 3409 O 326.021 -1.12818 1.60153 0
M  V30 3410 H 324.601 0.454034 0.593179 0
M  V30 3411 H 327.263 1.66412 1.01455 0
M  V30 3412 H 326.359 1.82178 2.53412 0
M  V30 3413 N 326.66 -1.06551 1.16123 0
M  V30 3414 C 327.593 -2.13382 0.80892 0
M  V30 3415 C 328.571 -1.61128 -0.21827 0
M  V30 3416 O 329.755 -1.88219 -0.102952 0
M  V30 3417 C 326.882 -3.38083 0.204303 0
M  V30 3418 C 325.928 -4.09133 1.20469 0
M  V30 3419 S 326.761 -4.5948 2.75024 0
M  V30 3420 C 327.917 -5.87446 2.16005 0
M  V30 3421 H 328.15 -2.42937 1.71373 0
M  V30 3422 H 325.683 -1.18947 0.984428 0
M  V30 3423 H 327.641 -4.10268 -0.138081 0
M  V30 3424 H 326.302 -3.0669 -0.678234 0
M  V30 3425 H 325.495 -4.98685 0.730019 0
M  V30 3426 H 325.097 -3.4295 1.49202 0
M  V30 3427 H 327.389 -6.60065 1.5271 0
M  V30 3428 H 328.332 -6.39639 3.03756 0
M  V30 3429 H 328.74 -5.41354 1.59989 0
M  V30 3430 N 328.138 -0.959301 -1.25041 0
M  V30 3431 C 329.384 -0.617525 -1.9317 0
M  V30 3432 C 329.717 0.843981 -1.74902 0
M  V30 3433 O 328.992 1.60615 -1.09696 0
M  V30 3434 C 329.275 -0.982736 -3.46431 0
M  V30 3435 C 329.128 -2.50032 -3.73904 0
M  V30 3436 C 330.447 -0.511176 -4.37121 0
M  V30 3437 H 327.566 -0.22582 -0.701552 0
M  V30 3438 H 330.208 -1.19679 -1.4757 0
M  V30 3439 H 328.358 -0.489806 -3.854 0
M  V30 3440 H 330.03 -3.06737 -3.44544 0
M  V30 3441 H 328.273 -2.93598 -3.19348 0
M  V30 3442 H 328.944 -2.70635 -4.81103 0
M  V30 3443 H 331.42 -0.934075 -4.0548 0
M  V30 3444 H 330.296 -0.795361 -5.43107 0
M  V30 3445 H 330.557 0.588834 -4.38161 0
M  V30 3446 N 329.616 1.39756 -0.72842 0
M  V30 3447 C 330.863 2.00645 -0.273487 0
M  V30 3448 C 331.191 1.57786 1.13727 0
M  V30 3449 O 330.446 0.794886 1.7883 0
M  V30 3450 C 330.745 3.56002 -0.315776 0
M  V30 3451 C 330.411 4.18489 -1.67863 0
M  V30 3452 C 329.073 4.3527 -2.05166 0
M  V30 3453 C 331.425 4.53219 -2.57375 0
M  V30 3454 C 328.753 4.84069 -3.31503 0
M  V30 3455 C 331.105 5.03423 -3.83077 0
M  V30 3456 C 329.769 5.18413 -4.20481 0
M  V30 3457 H 329.039 0.734211 -0.100076 0
M  V30 3458 H 331.686 1.6718 -0.933972 0
M  V30 3459 H 329.991 3.89452 0.428285 0
M  V30 3460 H 331.688 4.00963 0.0542575 0
M  V30 3461 H 328.278 4.05824 -1.37858 0
M  V30 3462 H 332.462 4.39878 -2.29827 0
M  V30 3463 H 327.718 4.93859 -3.60435 0
M  V30 3464 H 331.892 5.2927 -4.52599 0
M  V30 3465 H 329.519 5.55987 -5.18443 0
M  V30 3466 N 331.094 0.475555 1.50254 0
M  V30 3467 C 332.041 -0.316293 2.28622 0
M  V30 3468 C 333.011 -0.983227 1.33873 0
M  V30 3469 O 334.196 -0.994805 1.62814 0
M  V30 3470 C 331.336 -1.38975 3.1588 0
M  V30 3471 C 330.449 -0.737146 4.25664 0
M  V30 3472 C 329.584 -1.78887 5.00173 0
M  V30 3473 C 328.623 -1.11676 6.01826 0
M  V30 3474 N 327.76 -2.11154 6.69596 0
M  V30 3475 H 332.6 0.358297 2.95838 0
M  V30 3476 H 330.137 0.188541 1.45887 0
M  V30 3477 H 332.095 -2.02383 3.64825 0
M  V30 3478 H 330.725 -2.03344 2.50701 0
M  V30 3479 H 329.777 0.0096065 3.80399 0
M  V30 3480 H 331.089 -0.206816 4.98371 0
M  V30 3481 H 330.243 -2.49865 5.52859 0
M  V30 3482 H 328.982 -2.35302 4.27182 0
M  V30 3483 H 327.987 -0.392633 5.48396 0
M  V30 3484 H 329.212 -0.55945 6.76792 0
M  V30 3485 H 327.158 -2.66577 5.99394 0
M  V30 3486 H 327.075 -1.63118 7.38193 0
M  V30 3487 H 328.343 -2.81497 7.26897 0
M  V30 3488 N 332.573 -1.56217 0.208337 0
M  V30 3489 C 333.821 -1.97558 -0.426076 0
M  V30 3490 C 334.142 -1.09683 -1.61229 0
M  V30 3491 O 333.412 -0.170956 -1.95153 0
M  V30 3492 H 331.992 -0.729575 -0.160405 0
M  V30 3493 H 334.654 -1.92606 0.298155 0
M  V30 3494 H 333.75 -3.02672 -0.761312 0
M  V30 3495 N 334.051 0.0651679 -1.57465 0
M  V30 3496 C 334.998 1.07675 -2.04144 0
M  V30 3497 C 335.968 1.38071 -0.923335 0
M  V30 3498 O 337.153 1.49026 -1.19146 0
M  V30 3499 C 334.293 2.38337 -2.49579 0
M  V30 3500 C 333.406 2.14413 -3.75035 0
M  V30 3501 C 332.541 3.38686 -4.09225 0
M  V30 3502 C 331.58 3.10156 -5.27702 0
M  V30 3503 N 330.717 4.26778 -5.57499 0
M  V30 3504 H 335.557 0.671716 -2.90331 0
M  V30 3505 H 333.094 0.3201 -1.43575 0
M  V30 3506 H 335.052 3.14632 -2.73975 0
M  V30 3507 H 333.682 2.7663 -1.6636 0
M  V30 3508 H 332.734 1.2878 -3.57939 0
M  V30 3509 H 334.046 1.89344 -4.61466 0
M  V30 3510 H 333.2 4.23373 -4.34558 0
M  V30 3511 H 331.939 3.66837 -3.21374 0
M  V30 3512 H 330.944 2.23866 -5.02159 0
M  V30 3513 H 332.169 2.8332 -6.17176 0
M  V30 3514 H 330.115 4.54948 -4.72608 0
M  V30 3515 H 330.032 4.05005 -6.38362 0
M  V30 3516 H 331.3 5.12443 -5.87386 0
M  V30 3517 N 335.529 1.53961 0.336706 0
M  V30 3518 C 336.806 1.62171 1.09361 0
M  V30 3519 C 337.186 0.447263 2.06307 0
M  V30 3520 O 336.534 -0.559802 2.21537 0
M  V30 3521 C 336.744 2.98565 1.80721 0
M  V30 3522 C 338.092 3.54157 2.34218 0
M  V30 3523 O 339.116 3.00784 1.90807 0
M  V30 3524 O 337.975 4.47528 3.13657 0
M  V30 3525 H 335.069 0.6562 0.503319 0
M  V30 3526 H 337.615 1.66307 0.33765 0
M  V30 3527 H 336.387 3.75482 1.10132 0
M  V30 3528 H 336.01 2.9805 2.63158 0
M  V30 3529 N 337.007 -0.598083 1.45811 0
M  V30 3530 C 338.418 -1.18011 1.44673 0
M  V30 3531 C 338.769 -1.95378 0.179364 0
M  V30 3532 O 337.894 -2.04124 -0.718509 0
M  V30 3533 C 338.489 -2.14677 2.62105 0
M  V30 3534 C 337.048 -2.68236 2.64057 0
M  V30 3535 C 336.195 -1.43816 2.37091 0
M  V30 3536 H 339.146 -0.38686 1.53913 0
M  V30 3537 H 339.167 -2.97878 2.36746 0
M  V30 3538 H 338.679 -1.5834 3.5433 0
M  V30 3539 H 336.78 -3.28486 1.75864 0
M  V30 3540 H 336.893 -3.12021 3.63566 0
M  V30 3541 H 335.257 -1.731 1.86838 0
M  V30 3542 H 336.04 -0.893333 3.31473 0
M  V30 3543 N 338.485 -1.33259 -0.841409 0
M  V30 3544 C 339.433 -1.23279 -1.97244 0
M  V30 3545 C 340.427 -0.134706 -1.68864 0
M  V30 3546 O 341.633 -0.298501 -1.77508 0
M  V30 3547 H 338.008 -0.382497 -0.647457 0
M  V30 3548 H 339.979 -2.18906 -2.02787 0
M  V30 3549 C 338.728 -0.986268 -3.33419 0
M  V30 3550 H 338.051 -1.82347 -3.55794 0
M  V30 3551 H 339.491 -0.956728 -4.13065 0
M  V30 3552 C 337.95 0.310842 -3.35463 0
M  V30 3553 O 338.48 1.31838 -3.79449 0
M  V30 3554 N 336.686 0.337485 -2.88634 0
M  V30 3555 H 336.233 -0.482967 -2.53032 0
M  V30 3556 H 336.191 1.20518 -2.90384 0
M  V30 3557 N 339.963 1.05934 -1.16686 0
M  V30 3558 C 340.926 2.11669 -0.879144 0
M  V30 3559 C 341.926 1.60294 0.127445 0
M  V30 3560 O 343.116 1.7389 -0.103865 0
M  V30 3561 C 340.248 3.39438 -0.315425 0
M  V30 3562 H 341.441 2.38626 -1.81653 0
M  V30 3563 H 338.994 1.22058 -0.976299 0
M  V30 3564 H 339.729 3.18132 0.629468 0
M  V30 3565 H 339.514 3.78034 -1.04079 0
M  V30 3566 H 341.004 4.17391 -0.132189 0
M  V30 3567 N 341.441 0.965919 1.2453 0
M  V30 3568 C 342.669 0.644385 1.96609 0
M  V30 3569 C 343.084 -0.785823 1.71669 0
M  V30 3570 O 342.441 -1.52703 0.999399 0
M  V30 3571 C 342.492 0.907375 3.49927 0
M  V30 3572 O 342.213 2.28136 3.74013 0
M  V30 3573 C 343.714 0.599784 4.39224 0
M  V30 3574 H 340.934 0.240588 0.626385 0
M  V30 3575 H 343.478 1.29337 1.58405 0
M  V30 3576 H 341.633 0.304631 3.862 0
M  V30 3577 H 342.047 2.36002 4.68405 0
M  V30 3578 H 343.521 0.834263 5.45659 0
M  V30 3579 H 343.998 -0.465921 4.36722 0
M  V30 3580 H 344.604 1.18235 4.08535 0
M  V30 3581 N 342.919 -1.39368 0.735821 0
M  V30 3582 C 344.166 -2.00497 0.284123 0
M  V30 3583 C 344.494 -1.58387 -1.12889 0
M  V30 3584 O 343.749 -0.804359 -1.78406 0
M  V30 3585 C 344.048 -3.5583 0.334651 0
M  V30 3586 C 343.714 -4.17593 1.7008 0
M  V30 3587 C 342.376 -4.34176 2.07472 0
M  V30 3588 C 344.728 -4.51848 2.59775 0
M  V30 3589 C 342.056 -4.82304 3.34065 0
M  V30 3590 C 344.408 -5.01384 3.85741 0
M  V30 3591 C 343.072 -5.16175 4.23225 0
M  V30 3592 H 342.342 -0.73367 0.103968 0
M  V30 3593 H 344.989 -1.66683 0.942825 0
M  V30 3594 H 343.294 -3.89674 -0.407625 0
M  V30 3595 H 344.991 -4.00986 -0.0329927 0
M  V30 3596 H 341.581 -4.05087 1.40008 0
M  V30 3597 H 345.765 -4.38653 2.32157 0
M  V30 3598 H 341.021 -4.91941 3.63049 0
M  V30 3599 H 345.195 -5.26863 4.55399 0
M  V30 3600 H 342.822 -5.5323 5.21384 0
M  V30 3601 N 344.397 -0.483516 -1.5 0
M  V30 3602 C 345.625 0.0644831 -2.06799 0
M  V30 3603 C 346.04 1.32399 -1.34596 0
M  V30 3604 O 345.397 1.77626 -0.418946 0
M  V30 3605 C 345.448 0.339927 -3.59898 0
M  V30 3606 O 345.169 -0.869635 -4.29382 0
M  V30 3607 C 346.67 0.933515 -4.33359 0
M  V30 3608 H 343.89 -0.0126333 -0.670881 0
M  V30 3609 H 346.434 -0.675864 -1.93009 0
M  V30 3610 H 344.589 1.03022 -3.7345 0
M  V30 3611 H 345.003 -0.62179 -5.20801 0
M  V30 3612 H 346.477 1.07593 -5.41413 0
M  V30 3613 H 346.954 1.92685 -3.94676 0
M  V30 3614 H 347.56 0.281221 -4.24369 0
M  V30 3615 N 345.875 1.56104 -0.216619 0
M  V30 3616 C 347.1 2.0301 0.424462 0
M  V30 3617 C 347.525 1.0955 1.52907 0
M  V30 3618 O 346.883 0.0827914 1.81111 0
M  V30 3619 C 346.931 3.4819 0.937883 0
M  V30 3620 O 346.035 3.57865 2.04955 0
M  V30 3621 H 345.376 0.656925 0.0966755 0
M  V30 3622 H 347.906 2.01859 -0.33381 0
M  V30 3623 H 347.916 3.88413 1.24897 0
M  V30 3624 H 346.591 4.15699 0.129387 0
M  V30 3625 H 345.168 3.29527 1.74546 0
M  V30 3626 N 347.353 -0.0568162 1.57498 0
M  V30 3627 C 348.599 -0.75422 1.88253 0
M  V30 3628 C 348.932 -1.76461 0.810865 0
M  V30 3629 O 348.207 -1.93691 -0.177259 0
M  V30 3630 C 348.49 -1.44878 3.2967 0
M  V30 3631 C 348.343 -0.453789 4.47505 0
M  V30 3632 C 349.662 -2.38994 3.69554 0
M  V30 3633 H 346.781 -0.272724 0.684683 0
M  V30 3634 H 349.423 -0.0172113 1.89992 0
M  V30 3635 H 347.573 -2.077 3.28318 0
M  V30 3636 H 349.245 0.170371 4.60985 0
M  V30 3637 H 347.488 0.229552 4.33192 0
M  V30 3638 H 348.159 -0.977699 5.43273 0
M  V30 3639 H 350.635 -1.86239 3.72095 0
M  V30 3640 H 349.511 -2.84587 4.69363 0
M  V30 3641 H 349.772 -3.24461 3.00296 0
M  V30 3642 N 348.832 -1.54138 -0.328536 0
M  V30 3643 C 349.795 -1.82462 -1.38709 0
M  V30 3644 C 350.795 -0.696229 -1.44946 0
M  V30 3645 O 351.985 -0.964535 -1.4506 0
M  V30 3646 C 349.117 -1.98018 -2.77492 0
M  V30 3647 H 350.31 -2.77037 -1.14851 0
M  V30 3648 H 347.863 -1.45779 -0.563751 0
M  V30 3649 H 348.598 -1.05637 -3.06613 0
M  V30 3650 H 348.383 -2.80124 -2.74359 0
M  V30 3651 H 349.873 -2.21396 -3.54081 0
M  V30 3652 N 350.31 0.590341 -1.46126 0
M  V30 3653 C 351.587 1.35029 -1.41515 0
M  V30 3654 C 351.967 2.10888 -0.0946472 0
M  V30 3655 O 351.315 2.08998 0.923693 0
M  V30 3656 C 351.525 2.28269 -2.63997 0
M  V30 3657 C 352.873 2.90338 -3.09821 0
M  V30 3658 O 353.897 2.38585 -2.64492 0
M  V30 3659 O 352.756 3.84321 -3.88535 0
M  V30 3660 H 349.85 0.606317 -0.562413 0
M  V30 3661 H 352.396 0.611994 -1.58281 0
M  V30 3662 H 351.168 1.71591 -3.51671 0
M  V30 3663 H 350.791 3.0945 -2.49652 0
M  V30 3664 N 351.788 1.33704 0.83433 0
M  V30 3665 C 353.035 1.25417 1.58987 0
M  V30 3666 C 353.363 -0.178869 1.93676 0
M  V30 3667 O 352.618 -1.13723 1.59265 0
M  V30 3668 C 352.917 2.07926 2.90692 0
M  V30 3669 C 352.583 3.57066 2.75345 0
M  V30 3670 C 351.245 3.97724 2.70867 0
M  V30 3671 C 353.597 4.51817 2.59828 0
M  V30 3672 C 350.925 5.31344 2.48778 0
M  V30 3673 C 353.277 5.85604 2.39272 0
M  V30 3674 C 351.941 6.25439 2.33199 0
M  V30 3675 H 351.211 0.458934 0.581774 0
M  V30 3676 H 353.858 1.65335 0.966261 0
M  V30 3677 H 352.163 1.608 3.57282 0
M  V30 3678 H 353.86 1.98868 3.48213 0
M  V30 3679 H 350.45 3.24785 2.79665 0
M  V30 3680 H 354.634 4.21311 2.62319 0
M  V30 3681 H 349.89 5.61241 2.42526 0
M  V30 3682 H 354.064 6.58623 2.2625 0
M  V30 3683 H 351.691 7.28914 2.15843 0
M  V30 3684 N 353.266 -1.05314 1.17247 0
M  V30 3685 C 354.176 -2.16538 0.90268 0
M  V30 3686 C 355.192 -1.73523 -0.128707 0
M  V30 3687 O 356.368 -2.01337 0.0502701 0
M  V30 3688 C 353.433 -3.44167 0.418356 0
M  V30 3689 C 352.494 -4.01635 1.51618 0
M  V30 3690 C 351.727 -5.23171 1.05487 0
M  V30 3691 O 351.95 -5.70327 -0.0914715 0
M  V30 3692 O 350.884 -5.72848 1.8474 0
M  V30 3693 H 354.71 -2.42145 1.83302 0
M  V30 3694 H 352.295 -1.15037 0.953246 0
M  V30 3695 H 354.177 -4.21112 0.155726 0
M  V30 3696 H 352.852 -3.20063 -0.48385 0
M  V30 3697 H 351.759 -3.26135 1.83268 0
M  V30 3698 H 353.092 -4.30053 2.39405 0
M  V30 3699 N 354.744 -0.972509 -1.24016 0
M  V30 3700 C 355.972 -0.654803 -1.96265 0
M  V30 3701 C 356.387 0.776708 -1.72083 0
M  V30 3702 O 355.744 1.52171 -1.00748 0
M  V30 3703 C 355.795 -0.92592 -3.49441 0
M  V30 3704 O 355.516 -2.30116 -3.72798 0
M  V30 3705 C 357.017 -0.623068 -4.38899 0
M  V30 3706 H 354.237 -0.243907 -0.6251 0
M  V30 3707 H 356.781 -1.30175 -1.57717 0
M  V30 3708 H 354.936 -0.325108 -3.86033 0
M  V30 3709 H 355.35 -2.38483 -4.67147 0
M  V30 3710 H 356.824 -0.863189 -5.45209 0
M  V30 3711 H 357.301 0.442754 -4.36963 0
M  V30 3712 H 357.907 -1.204 -4.07902 0
M  V30 3713 N 356.222 1.38976 -0.743202 0
M  V30 3714 C 357.45 2.04636 -0.30525 0
M  V30 3715 C 357.865 1.56044 1.06281 0
M  V30 3716 O 357.222 0.728921 1.67311 0
M  V30 3717 C 357.273 3.60193 -0.307177 0
M  V30 3718 O 356.994 4.06998 -1.62124 0
M  V30 3719 C 358.495 4.4306 0.145928 0
M  V30 3720 H 355.715 0.65788 -0.132041 0
M  V30 3721 H 358.259 1.77866 -1.00915 0
M  V30 3722 H 356.414 3.85835 0.347898 0
M  V30 3723 H 356.828 5.01371 -1.54036 0
M  V30 3724 H 358.302 5.51921 0.0934183 0
M  V30 3725 H 358.779 4.22706 1.19231 0
M  V30 3726 H 359.385 4.22584 -0.479886 0
M  V30 3727 N 357.7 0.491464 1.49741 0
M  V30 3728 C 358.946 -0.0565092 2.02721 0
M  V30 3729 C 359.279 -1.37522 1.37118 0
M  V30 3730 O 358.554 -1.87866 0.503645 0
M  V30 3731 C 358.837 -0.219051 3.59433 0
M  V30 3732 C 358.69 1.12211 4.35579 0
M  V30 3733 C 360.009 -0.964157 4.29409 0
M  V30 3734 H 357.128 -0.0190627 0.736753 0
M  V30 3735 H 359.77 0.641021 1.7886 0
M  V30 3736 H 357.92 -0.813165 3.79895 0
M  V30 3737 H 359.592 1.75437 4.26637 0
M  V30 3738 H 357.835 1.71377 3.98513 0
M  V30 3739 H 358.506 0.961794 5.43556 0
M  V30 3740 H 360.982 -0.460378 4.13545 0
M  V30 3741 H 359.858 -1.04671 5.38828 0
M  V30 3742 H 360.119 -2.00563 3.93988 0
M  V30 3743 N 359.178 -1.55987 0.224894 0
M  V30 3744 C 360.589 -1.84553 -0.282345 0
M  V30 3745 C 360.94 -1.14634 -1.59227 0
M  V30 3746 O 360.065 -0.417155 -2.12341 0
M  V30 3747 C 360.66 -3.348 -0.519062 0
M  V30 3748 C 359.219 -3.63671 -0.970604 0
M  V30 3749 C 358.366 -2.77277 -0.0355261 0
M  V30 3750 H 361.317 -1.52245 0.448006 0
M  V30 3751 H 361.338 -3.55187 -1.36463 0
M  V30 3752 H 360.85 -3.8566 0.43449 0
M  V30 3753 H 358.951 -3.1827 -1.9374 0
M  V30 3754 H 359.064 -4.71631 -0.842698 0
M  V30 3755 H 357.428 -2.48846 -0.542927 0
M  V30 3756 H 358.211 -3.30937 0.913003 0
M  V30 3757 N 360.656 0.0484629 -1.57525 0
M  V30 3758 C 362.072 0.40375 -1.54409 0
M  V30 3759 C 362.272 1.77786 -0.948384 0
M  V30 3760 O 361.328 2.46189 -0.560983 0
M  V30 3761 C 362.641 0.323394 -2.98956 0
M  V30 3762 C 364.189 0.401892 -3.10409 0
M  V30 3763 C 364.664 0.351195 -4.56652 0
M  V30 3764 N 366.155 0.410576 -4.61377 0
M  V30 3765 C 366.89 0.393933 -5.72045 0
M  V30 3766 N 366.386 0.330724 -6.9201 0
M  V30 3767 N 368.179 0.442227 -5.60358 0
M  V30 3768 H 360.33 -0.851016 -1.94606 0
M  V30 3769 H 362.593 -0.321721 -0.89174 0
M  V30 3770 H 362.299 -0.62011 -3.4619 0
M  V30 3771 H 362.173 1.12463 -3.60044 0
M  V30 3772 H 364.56 1.33582 -2.63134 0
M  V30 3773 H 364.641 -0.428342 -2.52188 0
M  V30 3774 H 364.285 -0.578987 -5.04589 0
M  V30 3775 H 364.215 1.19928 -5.12762 0
M  V30 3776 H 366.706 0.462729 -3.75056 0
M  V30 3777 H 367.019 0.322592 -7.72126 0
M  V30 3778 H 365.364 0.29706 -6.94365 0
M  V30 3779 H 368.555 0.489464 -4.65534 0
M  V30 3780 H 368.728 0.425788 -6.466 0
M  V30 3781 N 362.134 1.5431 0.320358 0
M  V30 3782 C 363.38 1.72924 1.05949 0
M  V30 3783 C 363.713 0.503185 1.87568 0
M  V30 3784 O 362.988 -0.499839 1.87968 0
M  V30 3785 C 363.271 3.00676 1.98156 0
M  V30 3786 C 363.124 4.3354 1.19845 0
M  V30 3787 C 364.443 3.24198 2.9763 0
M  V30 3788 H 361.562 0.629195 0.383774 0
M  V30 3789 H 364.204 1.87008 0.335854 0
M  V30 3790 H 362.354 2.888 2.59859 0
M  V30 3791 H 364.026 4.57305 0.605773 0
M  V30 3792 H 362.269 4.309 0.500784 0
M  V30 3793 H 362.94 5.19156 1.87567 0
M  V30 3794 H 365.416 3.35557 2.4605 0
M  V30 3795 H 364.292 4.14938 3.59329 0
M  V30 3796 H 364.553 2.41577 3.7026 0
M  V30 3797 N 363.613 -0.582584 1.46437 0
M  V30 3798 C 364.862 -1.337 1.5102 0
M  V30 3799 C 365.175 -1.94891 0.166359 0
M  V30 3800 O 366.381 -2.71351 0.0899954 0
M  V30 3801 C 364.837 -2.42315 2.66104 0
M  V30 3802 C 364.445 -1.87427 4.06909 0
M  V30 3803 C 366.189 -3.19099 2.79958 0
M  V30 3804 C 364.096 -2.93672 5.13333 0
M  V30 3805 H 363.026 -0.502619 0.562041 0
M  V30 3806 H 365.677 -0.621701 1.72647 0
M  V30 3807 H 364.059 -3.16645 2.37807 0
M  V30 3808 H 365.233 -1.19639 4.44998 0
M  V30 3809 H 363.548 -1.2331 3.97723 0
M  V30 3810 H 366.145 -3.9839 3.56636 0
M  V30 3811 H 366.488 -3.71695 1.87479 0
M  V30 3812 H 367.021 -2.51875 3.07902 0
M  V30 3813 H 363.76 -2.45962 6.07604 0
M  V30 3814 H 363.28 -3.59948 4.79789 0
M  V30 3815 H 364.959 -3.5762 5.39182 0
M  V30 3816 N 365.091 -1.34144 -0.827227 0
M  V30 3817 C 366.021 -1.28005 -1.95287 0
M  V30 3818 C 367.002 -0.158321 -1.69362 0
M  V30 3819 O 368.187 -0.349987 -1.9102 0
M  V30 3820 C 365.317 -1.03036 -3.31664 0
M  V30 3821 C 364.271 -2.11628 -3.72019 0
M  V30 3822 C 363.597 -1.71854 -5.0633 0
M  V30 3823 C 364.897 -3.53417 -3.8457 0
M  V30 3824 H 366.591 -2.22187 -2.00682 0
M  V30 3825 H 364.137 -1.0696 -0.964135 0
M  V30 3826 H 366.09 -0.973863 -4.09993 0
M  V30 3827 H 364.814 -0.0529391 -3.26557 0
M  V30 3828 H 363.473 -2.16339 -2.95961 0
M  V30 3829 H 363.121 -0.727841 -4.97706 0
M  V30 3830 H 362.821 -2.44531 -5.34302 0
M  V30 3831 H 364.345 -1.67692 -5.87122 0
M  V30 3832 H 365.759 -3.51142 -4.5318 0
M  V30 3833 H 364.156 -4.24679 -4.2399 0
M  V30 3834 H 365.226 -3.91072 -2.86689 0
M  V30 3835 N 366.569 1.04691 -1.17803 0
M  V30 3836 C 367.817 1.7743 -0.967617 0
M  V30 3837 C 368.138 1.88359 0.504574 0
M  V30 3838 O 367.408 1.40402 1.36617 0
M  V30 3839 H 365.988 0.657242 -0.355024 0
M  V30 3840 H 368.65 1.2638 -1.48371 0
M  V30 3841 H 367.746 2.78924 -1.40027 0
M  V30 3842 N 368.047 0.979072 1.23499 0
M  V30 3843 C 369.295 0.645941 1.91499 0
M  V30 3844 C 369.616 -0.822948 1.76784 0
M  V30 3845 O 368.886 -1.58854 1.14639 0
M  V30 3846 H 367.466 0.235919 0.708767 0
M  V30 3847 H 370.128 1.2426 1.50152 0
M  V30 3848 H 369.224 0.896411 2.9895 0
M  V30 3849 N 369.525 -1.3858 0.750561 0
M  V30 3850 C 370.753 -2.04471 0.316098 0
M  V30 3851 C 371.168 -1.56606 -1.05452 0
M  V30 3852 O 370.525 -0.737784 -1.66922 0
M  V30 3853 C 370.576 -3.60025 0.326275 0
M  V30 3854 O 370.297 -4.06133 1.6428 0
M  V30 3855 C 371.798 -4.43131 -0.122429 0
M  V30 3856 H 369.018 -0.65717 0.135528 0
M  V30 3857 H 371.562 -1.77329 1.01857 0
M  V30 3858 H 369.717 -3.86014 -0.327431 0
M  V30 3859 H 370.131 -5.00547 1.56693 0
M  V30 3860 H 371.605 -5.51963 -0.0641473 0
M  V30 3861 H 372.082 -4.23333 -1.16988 0
M  V30 3862 H 372.688 -4.22323 0.50229 0
M  V30 3863 N 371.003 -0.499398 -1.49478 0
M  V30 3864 C 371.966 0.268838 -2.27618 0
M  V30 3865 C 372.966 0.895383 -1.33565 0
M  V30 3866 O 374.156 0.760164 -1.56739 0
M  V30 3867 C 371.288 1.38559 -3.11471 0
M  V30 3868 H 372.481 -0.416812 -2.96989 0
M  V30 3869 H 370.034 -0.254313 -1.54217 0
M  V30 3870 H 370.769 2.10544 -2.46661 0
M  V30 3871 H 370.554 0.941797 -3.80621 0
M  V30 3872 H 372.044 1.92678 -3.70493 0
M  V30 3873 N 372.481 1.55866 -0.233164 0
M  V30 3874 C 373.428 2.20796 0.67215 0
M  V30 3875 C 374.398 1.16731 1.18166 0
M  V30 3876 O 375.583 1.45129 1.23864 0
M  V30 3877 C 372.723 2.90072 1.86955 0
M  V30 3878 C 371.836 4.08759 1.39786 0
M  V30 3879 C 370.971 4.65787 2.55374 0
M  V30 3880 C 370.01 5.76752 2.04998 0
M  V30 3881 N 369.147 6.28021 3.13901 0
M  V30 3882 H 373.987 2.9779 0.111749 0
M  V30 3883 H 371.524 1.47036 0.0434007 0
M  V30 3884 H 373.482 3.28428 2.57276 0
M  V30 3885 H 372.112 2.15575 2.40265 0
M  V30 3886 H 371.164 3.7581 0.589173 0
M  V30 3887 H 372.476 4.88906 0.98856 0
M  V30 3888 H 371.63 5.06646 3.33758 0
M  V30 3889 H 370.369 3.84828 2.99598 0
M  V30 3890 H 369.374 5.35383 1.25079 0
M  V30 3891 H 370.599 6.59553 1.61759 0
M  V30 3892 H 368.545 5.49971 3.57586 0
M  V30 3893 H 368.462 7.03323 2.7726 0
M  V30 3894 H 369.73 6.73538 3.92386 0
M  V30 3895 N 373.959 -0.0401083 1.57549 0
M  V30 3896 C 374.907 -1.06264 2.06908 0
M  V30 3897 C 375.901 -1.38132 0.980608 0
M  V30 3898 O 377.107 -1.37167 1.16556 0
M  V30 3899 H 373.482 -0.360166 0.660139 0
M  V30 3900 H 375.453 -0.620445 2.91878 0
M  V30 3901 C 374.202 -2.35846 2.55483 0
M  V30 3902 H 373.525 -2.12183 3.38849 0
M  V30 3903 H 374.965 -3.05765 2.93741 0
M  V30 3904 C 373.424 -3.0404 1.45126 0
M  V30 3905 O 373.954 -3.93424 0.811216 0
M  V30 3906 N 372.16 -2.65184 1.18852 0
M  V30 3907 H 371.707 -1.92584 1.71083 0
M  V30 3908 H 371.665 -3.1113 0.452244 0
M  V30 3909 N 375.437 -1.54477 -0.31217 0
M  V30 3910 C 376.367 -1.87652 -1.38957 0
M  V30 3911 C 377.348 -0.734358 -1.53431 0
M  V30 3912 O 378.533 -0.98911 -1.67123 0
M  V30 3913 C 375.663 -2.11396 -2.75552 0
M  V30 3914 C 374.617 -3.27243 -2.75855 0
M  V30 3915 C 373.943 -3.36382 -4.15633 0
M  V30 3916 C 375.243 -4.64622 -2.38587 0
M  V30 3917 H 376.937 -2.77887 -1.11442 0
M  V30 3918 H 374.483 -1.33707 -0.534655 0
M  V30 3919 H 376.436 -2.33189 -3.51 0
M  V30 3920 H 375.16 -1.17921 -3.04569 0
M  V30 3921 H 373.819 -3.05356 -2.02863 0
M  V30 3922 H 373.467 -2.40445 -4.41809 0
M  V30 3923 H 373.167 -4.14249 -4.1674 0
M  V30 3924 H 374.691 -3.60422 -4.92877 0
M  V30 3925 H 376.105 -4.86219 -3.03749 0
M  V30 3926 H 374.502 -5.45121 -2.50925 0
M  V30 3927 H 375.572 -4.66097 -1.33723 0
M  V30 3928 N 376.915 0.57481 -1.46744 0
M  V30 3929 C 378.161 1.3347 -1.52688 0
M  V30 3930 C 378.494 1.93353 -0.181229 0
M  V30 3931 O 377.769 1.76912 0.808237 0
M  V30 3932 C 378.052 2.45811 -2.63152 0
M  V30 3933 C 377.905 1.90912 -4.07275 0
M  V30 3934 C 379.224 3.47822 -2.69644 0
M  V30 3935 H 376.343 0.483935 -0.555856 0
M  V30 3936 H 378.985 0.644968 -1.78718 0
M  V30 3937 H 377.135 3.04646 -2.41088 0
M  V30 3938 H 378.807 1.36473 -4.4065 0
M  V30 3939 H 377.05 1.21691 -4.16382 0
M  V30 3940 H 377.721 2.72042 -4.80309 0
M  V30 3941 H 380.197 2.9888 -2.895 0
M  V30 3942 H 379.073 4.23876 -3.48742 0
M  V30 3943 H 379.334 4.05555 -1.76005 0
M  V30 3944 N 378.394 1.34581 0.820102 0
M  V30 3945 C 379.64 1.27285 1.57881 0
M  V30 3946 C 379.973 -0.156137 1.93571 0
M  V30 3947 O 379.248 -1.10222 1.60254 0
M  V30 3948 C 379.531 2.16639 2.87645 0
M  V30 3949 C 379.384 3.68088 2.58517 0
M  V30 3950 C 380.703 2.05378 3.8924 0
M  V30 3951 H 377.822 0.463714 0.572833 0
M  V30 3952 H 380.464 1.64859 0.944539 0
M  V30 3953 H 378.614 1.84725 3.41773 0
M  V30 3954 H 380.286 4.10382 2.10676 0
M  V30 3955 H 378.529 3.89038 1.91917 0
M  V30 3956 H 379.2 4.2598 3.51063 0
M  V30 3957 H 381.676 2.33404 3.44473 0
M  V30 3958 H 380.552 2.7012 4.77835 0
M  V30 3959 H 380.813 1.0316 4.29896 0
M  V30 3960 N 379.872 -1.04064 1.18357 0
M  V30 3961 C 381.283 -1.58719 0.98312 0
M  V30 3962 C 381.634 -1.90556 -0.467193 0
M  V30 3963 O 380.759 -1.69561 -1.34454 0
M  V30 3964 C 381.354 -2.88379 1.77828 0
M  V30 3965 C 379.913 -3.3965 1.62218 0
M  V30 3966 C 379.06 -2.13235 1.77274 0
M  V30 3967 H 382.011 -0.867359 1.32901 0
M  V30 3968 H 382.032 -3.58773 1.26737 0
M  V30 3969 H 381.544 -2.65176 2.83379 0
M  V30 3970 H 379.645 -3.67866 0.592036 0
M  V30 3971 H 379.758 -4.13475 2.42023 0
M  V30 3972 H 378.122 -2.24542 1.20221 0
M  V30 3973 H 378.905 -1.92487 2.8426 0
M  V30 3974 N 381.35 -0.985608 -1.22978 0
M  V30 3975 C 382.598 -0.656087 -1.91154 0
M  V30 3976 C 382.919 0.813561 -1.77218 0
M  V30 3977 O 382.189 1.58244 -1.1548 0
M  V30 3978 H 380.769 -0.239674 -0.707506 0
M  V30 3979 H 383.431 -1.25054 -1.49491 0
M  V30 3980 H 382.527 -0.912253 -2.9847 0
M  V30 3981 N 382.828 1.3818 -0.7579 0
M  V30 3982 C 384.074 2.0078 -0.325423 0
M  V30 3983 C 384.429 1.59085 1.08211 0
M  V30 3984 O 383.722 0.820394 1.73148 0
M  V30 3985 C 383.916 3.55252 -0.391218 0
M  V30 3986 C 383.745 4.11947 -1.8036 0
M  V30 3987 C 382.515 4.43519 -2.42113 0
M  V30 3988 C 384.713 4.33908 -2.76095 0
M  V30 3989 N 382.695 4.85847 -3.75267 0
M  V30 3990 C 384.066 4.78692 -3.94023 0
M  V30 3991 C 386.121 4.16015 -2.73561 0
M  V30 3992 C 384.824 5.07459 -5.09782 0
M  V30 3993 C 386.85 4.45909 -3.88483 0
M  V30 3994 C 386.212 4.90921 -5.0515 0
M  V30 3995 H 382.311 0.764215 -0.165831 0
M  V30 3996 H 384.895 1.67724 -0.988776 0
M  V30 3997 H 383.066 3.87646 0.241886 0
M  V30 3998 H 384.798 4.04653 0.061989 0
M  V30 3999 H 381.553 4.32113 -1.93842 0
M  V30 4000 H 381.977 5.11339 -4.4369 0
M  V30 4001 H 386.619 3.80399 -1.84544 0
M  V30 4002 H 384.337 5.4197 -5.99412 0
M  V30 4003 H 387.923 4.33666 -3.87847 0
M  V30 4004 H 386.803 5.1361 -5.92599 0
M  V30 4005 N 384.306 0.507319 1.49211 0
M  V30 4006 C 385.722 0.163682 1.58758 0
M  V30 4007 C 385.922 -1.33208 1.51188 0
M  V30 4008 O 384.978 -2.10855 1.38911 0
M  V30 4009 C 386.291 0.746095 2.91297 0
M  V30 4010 C 387.839 0.712773 3.04776 0
M  V30 4011 C 388.314 1.27336 4.39943 0
M  V30 4012 N 389.805 1.23433 4.46451 0
M  V30 4013 C 390.54 1.63821 5.495 0
M  V30 4014 N 390.036 2.11832 6.5962 0
M  V30 4015 N 391.829 1.55198 5.4025 0
M  V30 4016 H 383.98 1.47972 1.52375 0
M  V30 4017 H 386.243 0.614147 0.722168 0
M  V30 4018 H 385.949 1.79534 3.02424 0
M  V30 4019 H 385.823 0.210137 3.76614 0
M  V30 4020 H 388.21 -0.327656 2.93275 0
M  V30 4021 H 388.291 1.28595 2.21127 0
M  V30 4022 H 387.935 2.3126 4.52196 0
M  V30 4023 H 387.865 0.676066 5.22242 0
M  V30 4024 H 390.356 0.882627 3.67448 0
M  V30 4025 H 390.669 2.40703 7.34358 0
M  V30 4026 H 389.014 2.1581 6.60644 0
M  V30 4027 H 392.205 1.17505 4.53112 0
M  V30 4028 H 392.378 1.86997 6.20432 0
M  V30 4029 N 385.784 -1.5574 0.241426 0
M  V30 4030 C 386.714 -2.24133 -0.654722 0
M  V30 4031 C 387.695 -1.21974 -1.1856 0
M  V30 4032 O 388.88 -1.50612 -1.22595 0
M  V30 4033 C 386.01 -2.93659 -1.85423 0
M  V30 4034 C 384.964 -4.0246 -1.45636 0
M  V30 4035 C 384.29 -4.59383 -2.73626 0
M  V30 4036 C 385.59 -5.18468 -0.631506 0
M  V30 4037 H 387.284 -2.99281 -0.0844353 0
M  V30 4038 H 384.83 -1.43947 -0.0391707 0
M  V30 4039 H 386.783 -3.40203 -2.48676 0
M  V30 4040 H 385.507 -2.15991 -2.44981 0
M  V30 4041 H 384.166 -3.56676 -0.847202 0
M  V30 4042 H 383.814 -3.78422 -3.3137 0
M  V30 4043 H 383.514 -5.32826 -2.4773 0
M  V30 4044 H 385.038 -5.08658 -3.37786 0
M  V30 4045 H 386.452 -5.61272 -1.1682 0
M  V30 4046 H 384.849 -5.98266 -0.468831 0
M  V30 4047 H 385.919 -4.8358 0.357506 0
M  V30 4048 N 387.262 0.0317525 -1.57568 0
M  V30 4049 C 388.51 0.721676 -1.88776 0
M  V30 4050 C 388.831 1.76039 -0.838772 0
M  V30 4051 O 388.101 1.95482 0.127935 0
M  V30 4052 H 386.681 0.269534 -0.696678 0
M  V30 4053 H 389.343 -0.00165879 -1.949 0
M  V30 4054 H 388.439 1.21293 -2.87566 0
M  V30 4055 N 388.74 1.54641 0.303973 0
M  V30 4056 C 389.986 1.74969 1.03718 0
M  V30 4057 C 390.341 0.527461 1.85029 0
M  V30 4058 O 389.634 -0.480143 1.85486 0
M  V30 4059 C 389.828 2.97753 1.97681 0
M  V30 4060 C 389.657 4.318 1.25613 0
M  V30 4061 C 388.427 4.95616 0.984518 0
M  V30 4062 C 390.625 5.10021 0.662081 0
M  V30 4063 N 388.607 6.13455 0.233794 0
M  V30 4064 C 389.978 6.19984 0.0439736 0
M  V30 4065 C 392.033 4.94663 0.566835 0
M  V30 4066 C 390.736 7.16264 -0.66016 0
M  V30 4067 C 392.762 5.91271 -0.123637 0
M  V30 4068 C 392.124 7.00601 -0.730608 0
M  V30 4069 H 388.223 0.692873 0.362562 0
M  V30 4070 H 390.807 1.92116 0.316135 0
M  V30 4071 H 388.978 2.82036 2.6704 0
M  V30 4072 H 390.71 3.06621 2.64132 0
M  V30 4073 H 387.465 4.55921 1.28191 0
M  V30 4074 H 387.889 6.76879 -0.127996 0
M  V30 4075 H 392.531 4.10267 1.02181 0
M  V30 4076 H 390.249 8.00204 -1.12691 0
M  V30 4077 H 393.835 5.81466 -0.197236 0
M  V30 4078 H 392.715 7.7407 -1.2564 0
M  V30 4079 N 390.218 -0.567019 1.47046 0
M  V30 4080 C 391.148 -1.68482 1.61667 0
M  V30 4081 C 392.129 -1.6358 0.466418 0
M  V30 4082 O 393.314 -1.81354 0.694574 0
M  V30 4083 C 390.444 -3.07124 1.62148 0
M  V30 4084 C 389.398 -3.26867 2.76301 0
M  V30 4085 C 388.724 -4.66196 2.61849 0
M  V30 4086 C 390.024 -3.13186 4.17986 0
M  V30 4087 H 391.718 -1.56502 2.5524 0
M  V30 4088 H 389.264 -0.751486 1.22836 0
M  V30 4089 H 391.217 -3.8516 1.70968 0
M  V30 4090 H 389.941 -3.2004 0.651287 0
M  V30 4091 H 388.6 -2.51237 2.66975 0
M  V30 4092 H 388.248 -4.75898 1.62879 0
M  V30 4093 H 387.948 -4.80356 3.38425 0
M  V30 4094 H 389.472 -5.46379 2.72584 0
M  V30 4095 H 390.886 -3.81049 4.2834 0
M  V30 4096 H 389.283 -3.3886 4.95272 0
M  V30 4097 H 390.353 -2.10057 4.3704 0
M  V30 4098 N 391.696 -1.35014 -0.812953 0
M  V30 4099 C 392.626 -1.30069 -1.93919 0
M  V30 4100 C 393.607 -0.176275 -1.69184 0
M  V30 4101 O 394.792 -0.370227 -1.90638 0
M  V30 4102 C 391.922 -1.06547 -3.30552 0
M  V30 4103 C 390.876 -2.15561 -3.69753 0
M  V30 4104 C 390.202 -1.77214 -5.04479 0
M  V30 4105 C 391.502 -3.57476 -3.808 0
M  V30 4106 H 393.196 -2.24303 -1.98314 0
M  V30 4107 H 390.742 -1.07977 -0.952736 0
M  V30 4108 H 392.695 -1.01729 -4.08937 0
M  V30 4109 H 391.419 -0.0875719 -3.26483 0
M  V30 4110 H 390.078 -2.19466 -2.9365 0
M  V30 4111 H 389.726 -0.780589 -4.96906 0
M  V30 4112 H 389.426 -2.50184 -5.31678 0
M  V30 4113 H 390.95 -1.7391 -5.8531 0
M  V30 4114 H 392.364 -3.55929 -4.4943 0
M  V30 4115 H 390.761 -4.29152 -4.19462 0
M  V30 4116 H 391.831 -3.94091 -2.82525 0
M  V30 4117 N 393.175 1.03435 -1.18907 0
M  V30 4118 C 394.405 1.8012 -1.01195 0
M  V30 4119 C 394.813 1.8395 0.442613 0
M  V30 4120 O 394.156 1.27836 1.31923 0
M  V30 4121 C 394.218 3.26792 -1.49823 0
M  V30 4122 C 393.882 3.46609 -2.97844 0
M  V30 4123 C 394.879 3.37278 -3.95651 0
M  V30 4124 C 392.564 3.73001 -3.36416 0
M  V30 4125 C 394.558 3.54054 -5.30023 0
M  V30 4126 C 392.245 3.89423 -4.70949 0
M  V30 4127 C 393.243 3.79951 -5.67562 0
M  V30 4128 O 392.931 3.95895 -6.99659 0
M  V30 4129 H 392.663 0.573865 -0.357289 0
M  V30 4130 H 395.217 1.31207 -1.58031 0
M  V30 4131 H 393.447 3.76703 -0.873578 0
M  V30 4132 H 395.136 3.85055 -1.28404 0
M  V30 4133 H 395.902 3.16846 -3.67197 0
M  V30 4134 H 391.781 3.79469 -2.61772 0
M  V30 4135 H 395.325 3.46577 -6.05417 0
M  V30 4136 H 391.222 4.09351 -4.99101 0
M  V30 4137 H 391.99 4.13019 -7.06653 0
M  V30 4138 N 394.653 0.992116 1.22453 0
M  V30 4139 C 395.899 0.668523 1.91464 0
M  V30 4140 C 396.232 -0.797313 1.77078 0
M  V30 4141 O 395.507 -1.5765 1.13916 0
M  V30 4142 C 395.79 1.07424 3.43703 0
M  V30 4143 C 395.643 2.59857 3.67143 0
M  V30 4144 C 396.962 0.626891 4.35612 0
M  V30 4145 H 394.081 0.244341 0.695318 0
M  V30 4146 H 396.723 1.2355 1.44345 0
M  V30 4147 H 394.873 0.591816 3.83966 0
M  V30 4148 H 396.545 3.15764 3.3629 0
M  V30 4149 H 394.788 3.01961 3.11451 0
M  V30 4150 H 395.459 2.83296 4.73759 0
M  V30 4151 H 397.935 1.04125 4.02861 0
M  V30 4152 H 396.811 0.939076 5.40807 0
M  V30 4153 H 397.072 -0.472457 4.39568 0
M  V30 4154 N 396.131 -1.37776 0.765217 0
M  V30 4155 C 397.408 -1.93975 0.251596 0
M  V30 4156 C 397.788 -1.69949 -1.25222 0
M  V30 4157 O 397.136 -1.04457 -2.03226 0
M  V30 4158 C 397.346 -3.43487 0.617895 0
M  V30 4159 C 398.694 -4.20564 0.584029 0
M  V30 4160 O 399.718 -3.5182 0.556888 0
M  V30 4161 O 398.577 -5.43138 0.605291 0
M  V30 4162 H 395.671 -0.82509 0.0561806 0
M  V30 4163 H 398.217 -1.47101 0.846128 0
M  V30 4164 H 396.989 -3.5453 1.65602 0
M  V30 4165 H 396.612 -3.976 -0.00403411 0
M  V30 4166 N 397.609 -0.515225 -1.4894 0
M  V30 4167 C 399.02 -0.0710067 -1.86565 0
M  V30 4168 C 399.371 1.34733 -1.42623 0
M  V30 4169 O 398.496 2.00653 -0.810379 0
M  V30 4170 C 399.091 -0.122083 -3.3858 0
M  V30 4171 C 397.65 0.266863 -3.75453 0
M  V30 4172 C 396.797 -0.488376 -2.72966 0
M  V30 4173 H 399.748 -0.727266 -1.41055 0
M  V30 4174 H 399.769 0.669818 -3.74558 0
M  V30 4175 H 399.281 -1.15448 -3.70531 0
M  V30 4176 H 397.382 1.30196 -3.49113 0
M  V30 4177 H 397.495 -0.0624811 -4.79059 0
M  V30 4178 H 395.859 0.0635622 -2.54621 0
M  V30 4179 H 396.642 -1.52113 -3.07761 0
M  V30 4180 N 399.087 1.5561 -0.249682 0
M  V30 4181 C 400.037 2.18157 0.662673 0
M  V30 4182 C 401.021 1.1383 1.13717 0
M  V30 4183 O 402.213 1.39731 1.08648 0
M  V30 4184 C 399.342 2.88672 1.85805 0
M  V30 4185 C 398.428 4.00258 1.40193 0
M  V30 4186 N 398.819 5.01473 0.660213 0
M  V30 4187 C 397.117 4.12864 1.68698 0
M  V30 4188 C 397.818 5.80155 0.423695 0
M  V30 4189 N 396.794 5.34533 0.988721 0
M  V30 4190 H 400.596 2.93769 0.0878688 0
M  V30 4191 H 398.11 1.62316 -0.0521183 0
M  V30 4192 H 400.107 3.31912 2.5227 0
M  V30 4193 H 398.767 2.14564 2.43705 0
M  V30 4194 H 399.778 5.16971 0.310047 0
M  V30 4195 H 396.455 3.4993 2.27717 0
M  V30 4196 H 397.845 6.71688 -0.168616 0
M  V30 4197 N 400.565 -0.0233959 1.57583 0
M  V30 4198 C 401.813 -0.711654 1.89156 0
M  V30 4199 C 402.134 -1.75591 0.848096 0
M  V30 4200 O 401.404 -1.95547 -0.117566 0
M  V30 4201 H 399.984 -0.265835 0.698098 0
M  V30 4202 H 402.646 0.0119948 1.94896 0
M  V30 4203 H 401.742 -1.19766 2.88206 0
M  V30 4204 N 402.043 -1.548 -0.295768 0
M  V30 4205 C 402.991 -1.86874 -1.38495 0
M  V30 4206 C 403.985 -0.742938 -1.52239 0
M  V30 4207 O 405.191 -0.926999 -1.54294 0
M  V30 4208 H 401.566 -0.592786 -0.462719 0
M  V30 4209 H 403.537 -2.77904 -1.08682 0
M  V30 4210 C 402.286 -2.13732 -2.74252 0
M  V30 4211 H 401.609 -2.99835 -2.64459 0
M  V30 4212 H 403.049 -2.4011 -3.49461 0
M  V30 4213 C 401.508 -0.937539 -3.23592 0
M  V30 4214 O 402.038 -0.160665 -4.01379 0
M  V30 4215 N 400.244 -0.741478 -2.80981 0
M  V30 4216 H 399.791 -1.37489 -2.1784 0
M  V30 4217 H 399.749 0.0597103 -3.14343 0
M  V30 4218 N 403.521 0.559213 -1.47345 0
M  V30 4219 C 404.769 1.31388 -1.53563 0
M  V30 4220 C 405.09 1.93985 -0.198678 0
M  V30 4221 O 404.36 1.79825 0.777167 0
M  V30 4222 H 402.94 0.487901 -0.565652 0
M  V30 4223 H 405.602 0.65315 -1.8363 0
M  V30 4224 H 404.698 2.10844 -2.30111 0
M  V30 4225 N 404.999 1.35443 0.805782 0
M  V30 4226 C 406.41 1.25768 1.37983 0
M  V30 4227 C 406.761 -0.10958 1.95894 0
M  V30 4228 O 405.886 -1.01056 1.91355 0
M  V30 4229 C 406.481 2.27727 2.5085 0
M  V30 4230 C 405.04 2.2179 3.04115 0
M  V30 4231 C 404.187 2.13393 1.77084 0
M  V30 4232 H 407.138 1.4656 0.608752 0
M  V30 4233 H 407.159 1.90422 3.29424 0
M  V30 4234 H 406.671 3.27227 2.08671 0
M  V30 4235 H 404.772 1.25703 3.50756 0
M  V30 4236 H 404.885 3.13788 3.62042 0
M  V30 4237 H 403.249 1.59384 1.98668 0
M  V30 4238 H 404.032 3.14755 1.37056 0
M  V30 4239 N 406.477 -1.02803 1.19454 0
M  V30 4240 C 407.702 -1.80378 1.02364 0
M  V30 4241 C 408.127 -1.83282 -0.423007 0
M  V30 4242 O 407.485 -1.25945 -1.30413 0
M  V30 4243 C 407.533 -3.23248 1.59821 0
M  V30 4244 O 406.637 -4.04 0.828105 0
M  V30 4245 H 405.978 -0.556799 0.361761 0
M  V30 4246 H 408.508 -1.29385 1.58495 0
M  V30 4247 H 408.518 -3.73994 1.63073 0
M  V30 4248 H 407.193 -3.2045 2.65113 0
M  V30 4249 H 405.77 -3.62635 0.86891 0
M  V30 4250 N 407.956 -0.998596 -1.21925 0
M  V30 4251 C 409.203 -0.677663 -1.90824 0
M  V30 4252 C 409.531 0.790905 -1.77693 0
M  V30 4253 O 408.786 1.58817 -1.14349 0
M  V30 4254 C 409.085 -1.03648 -3.42041 0
M  V30 4255 C 408.751 -2.49825 -3.75364 0
M  V30 4256 C 407.413 -2.8977 -3.8417 0
M  V30 4257 C 409.765 -3.44545 -3.91073 0
M  V30 4258 C 407.093 -4.23412 -4.06127 0
M  V30 4259 C 409.445 -4.77853 -4.14535 0
M  V30 4260 C 408.109 -5.17531 -4.21566 0
M  V30 4261 H 407.379 -0.247975 -0.698276 0
M  V30 4262 H 410.026 -1.25584 -1.44571 0
M  V30 4263 H 408.331 -0.376457 -3.89987 0
M  V30 4264 H 410.028 -0.766113 -3.93614 0
M  V30 4265 H 406.618 -2.17866 -3.69097 0
M  V30 4266 H 410.802 -3.14853 -3.83642 0
M  V30 4267 H 406.058 -4.53734 -4.09799 0
M  V30 4268 H 410.232 -5.51189 -4.25633 0
M  V30 4269 H 407.859 -6.21102 -4.38333 0
M  V30 4270 N 409.434 1.37368 -0.772513 0
M  V30 4271 C 410.364 2.32856 -0.173304 0
M  V30 4272 C 411.345 1.55818 0.682262 0
M  V30 4273 O 412.53 1.84052 0.619566 0
M  V30 4274 C 409.66 3.40048 0.706007 0
M  V30 4275 C 408.614 4.27973 -0.0483144 0
M  V30 4276 C 407.94 5.26184 0.950491 0
M  V30 4277 C 409.24 5.07665 -1.22776 0
M  V30 4278 H 410.934 2.83217 -0.971002 0
M  V30 4279 H 408.48 1.3617 -0.468377 0
M  V30 4280 H 410.433 4.05827 1.13501 0
M  V30 4281 H 409.157 2.88214 1.53623 0
M  V30 4282 H 407.816 3.63726 -0.458107 0
M  V30 4283 H 407.464 4.7063 1.77529 0
M  V30 4284 H 407.164 5.85872 0.450314 0
M  V30 4285 H 408.688 5.94838 1.37842 0
M  V30 4286 H 410.102 5.66578 -0.875366 0
M  V30 4287 H 408.499 5.76681 -1.66007 0
M  V30 4288 H 409.569 4.40294 -2.03149 0
M  V30 4289 N 410.912 0.523116 1.48665 0
M  V30 4290 C 411.822 -0.247406 2.33292 0
M  V30 4291 C 412.838 -0.945769 1.46052 0
M  V30 4292 O 414.014 -0.922253 1.79043 0
M  V30 4293 C 411.079 -1.28487 3.22012 0
M  V30 4294 C 410.14 -0.597592 4.2512 0
M  V30 4295 C 409.373 -1.58563 5.09601 0
M  V30 4296 O 409.596 -2.81763 4.95949 0
M  V30 4297 O 408.53 -1.12879 5.91221 0
M  V30 4298 H 412.356 0.445869 3.00409 0
M  V30 4299 H 409.941 0.284128 1.46673 0
M  V30 4300 H 411.823 -1.88459 3.7691 0
M  V30 4301 H 410.498 -1.96068 2.57564 0
M  V30 4302 H 409.405 0.0424407 3.74076 0
M  V30 4303 H 410.738 0.0361517 4.92187 0
M  V30 4304 N 412.39 -1.55475 0.257931 0
M  V30 4305 C 413.638 -1.98813 -0.363009 0
M  V30 4306 C 413.959 -1.14757 -1.57657 0
M  V30 4307 O 413.229 -0.232956 -1.9451 0
M  V30 4308 H 411.809 -0.734308 -0.137113 0
M  V30 4309 H 414.471 -1.9156 0.359281 0
M  V30 4310 H 413.567 -3.04941 -0.664634 0
M  V30 4311 N 413.868 0.0150385 -1.57593 0
M  V30 4312 C 414.798 1.01047 -2.10503 0
M  V30 4313 C 415.779 1.36816 -1.01071 0
M  V30 4314 O 416.964 1.45455 -1.28672 0
M  V30 4315 C 414.094 2.30708 -2.59598 0
M  V30 4316 C 413.048 2.09142 -3.73421 0
M  V30 4317 C 412.374 3.44685 -4.08774 0
M  V30 4318 C 413.674 1.46619 -5.01298 0
M  V30 4319 H 415.368 0.569978 -2.93925 0
M  V30 4320 H 412.914 0.272724 -1.41394 0
M  V30 4321 H 414.867 3.00687 -2.95238 0
M  V30 4322 H 413.591 2.76843 -1.73279 0
M  V30 4323 H 412.25 1.41592 -3.38153 0
M  V30 4324 H 411.898 3.88495 -3.195 0
M  V30 4325 H 411.598 3.31077 -4.8545 0
M  V30 4326 H 413.122 4.16004 -4.4696 0
M  V30 4327 H 414.536 2.06535 -5.34805 0
M  V30 4328 H 412.933 1.43544 -5.82679 0
M  V30 4329 H 414.003 0.433611 -4.82957 0
M  V30 4330 N 415.346 1.54954 0.287554 0
M  V30 4331 C 416.293 1.86834 1.35505 0
M  V30 4332 C 417.263 0.718452 1.49758 0
M  V30 4333 O 418.448 0.968358 1.644 0
M  V30 4334 C 415.588 2.13303 2.71286 0
M  V30 4335 C 414.701 3.40883 2.65373 0
M  V30 4336 C 413.836 3.57125 3.93236 0
M  V30 4337 C 412.875 4.78449 3.81776 0
M  V30 4338 N 412.012 4.91426 5.01443 0
M  V30 4339 H 416.852 2.77889 1.07619 0
M  V30 4340 H 414.389 1.37593 0.520241 0
M  V30 4341 H 416.347 2.26646 3.50267 0
M  V30 4342 H 414.977 1.25499 2.97405 0
M  V30 4343 H 414.029 3.36088 1.78182 0
M  V30 4344 H 415.341 4.29993 2.52799 0
M  V30 4345 H 414.495 3.70207 4.80658 0
M  V30 4346 H 413.234 2.66173 4.0866 0
M  V30 4347 H 412.239 4.65386 2.92738 0
M  V30 4348 H 413.464 5.70822 3.67884 0
M  V30 4349 H 411.41 4.03401 5.17304 0
M  V30 4350 H 411.327 5.74559 4.91343 0
M  V30 4351 H 412.595 5.08879 5.90477 0
M  V30 4352 N 416.824 -0.551391 1.4764 0
M  V30 4353 C 418.24 -0.877887 1.33287 0
M  V30 4354 C 418.44 -1.98817 0.327721 0
M  V30 4355 O 417.496 -2.51171 -0.258695 0
M  V30 4356 C 418.809 -1.26563 2.72768 0
M  V30 4357 C 420.357 -1.37673 2.81097 0
M  V30 4358 C 420.832 -1.79799 4.21232 0
M  V30 4359 N 422.323 -1.8694 4.23802 0
M  V30 4360 C 423.058 -2.20876 5.29151 0
M  V30 4361 N 422.554 -2.53386 6.448 0
M  V30 4362 N 424.347 -2.217 5.16532 0
M  V30 4363 H 416.498 0.18153 2.11623 0
M  V30 4364 H 418.761 0.0185514 0.947818 0
M  V30 4365 H 418.467 -0.523591 3.47781 0
M  V30 4366 H 418.341 -2.22052 3.04915 0
M  V30 4367 H 420.728 -2.10956 2.06353 0
M  V30 4368 H 420.809 -0.40357 2.52596 0
M  V30 4369 H 420.453 -1.07083 4.96483 0
M  V30 4370 H 420.383 -2.78128 4.4716 0
M  V30 4371 H 422.874 -1.64179 3.40373 0
M  V30 4372 H 423.187 -2.78325 7.20941 0
M  V30 4373 H 421.532 -2.50953 6.48111 0
M  V30 4374 H 424.723 -1.95745 4.25207 0
M  V30 4375 H 424.896 -2.47818 5.98741 0
M  V30 4376 N 418.302 -1.35869 -0.798587 0
M  V30 4377 C 419.548 -1.2978 -1.55836 0
M  V30 4378 C 419.881 0.125322 -1.93795 0
M  V30 4379 O 419.156 1.07658 -1.61987 0
M  V30 4380 C 419.439 -2.21188 -2.84162 0
M  V30 4381 C 419.292 -3.72155 -2.52628 0
M  V30 4382 C 420.611 -2.11545 -3.85923 0
M  V30 4383 H 417.73 -0.472769 -0.565383 0
M  V30 4384 H 420.372 -1.66341 -0.918192 0
M  V30 4385 H 418.522 -1.90139 -3.38791 0
M  V30 4386 H 420.194 -4.13682 -2.04121 0
M  V30 4387 H 418.437 -3.92042 -1.85704 0
M  V30 4388 H 419.108 -4.31511 -3.44242 0
M  V30 4389 H 421.584 -2.38855 -3.40716 0
M  V30 4390 H 420.46 -2.77688 -4.73477 0
M  V30 4391 H 420.721 -1.09987 -4.282 0
M  V30 4392 N 419.78 1.02168 -1.19998 0
M  V30 4393 C 421.028 1.75338 -1.00504 0
M  V30 4394 C 421.349 1.89387 0.464506 0
M  V30 4395 O 420.619 1.43268 1.33608 0
M  V30 4396 H 419.199 0.649564 -0.368885 0
M  V30 4397 H 421.861 1.23205 -1.51018 0
M  V30 4398 H 420.957 2.75892 -1.45912 0
M  V30 4399 N 421.258 1.00505 1.21394 0
M  V30 4400 C 422.191 0.51032 2.22421 0
M  V30 4401 C 423.169 -0.436 1.56645 0
M  V30 4402 O 424.353 -0.358709 1.85055 0
M  V30 4403 C 421.48 -0.258733 3.3771 0
M  V30 4404 C 420.526 0.635395 4.2174 0
M  V30 4405 S 421.359 2.09783 4.92698 0
M  V30 4406 C 422.515 1.33862 6.11418 0
M  V30 4407 H 422.748 1.36637 2.64041 0
M  V30 4408 H 420.281 0.812991 1.31262 0
M  V30 4409 H 422.239 -0.696372 4.0455 0
M  V30 4410 H 420.9 -1.0902 2.94573 0
M  V30 4411 H 420.093 0.0430189 5.03982 0
M  V30 4412 H 419.695 1.01031 3.60095 0
M  V30 4413 H 421.987 0.612541 6.74725 0
M  V30 4414 H 422.93 2.13675 6.75092 0
M  V30 4415 H 423.338 0.846568 5.58116 0
M  V30 4416 N 422.737 -1.36956 0.779787 0
M  V30 4417 C 423.667 -2.32761 0.185651 0
M  V30 4418 C 424.648 -1.56177 -0.673989 0
M  V30 4419 O 425.833 -1.84378 -0.609797 0
M  V30 4420 C 422.963 -3.40418 -0.687964 0
M  V30 4421 C 421.917 -4.27941 0.0710102 0
M  V30 4422 C 421.243 -5.26681 -0.922573 0
M  V30 4423 C 422.543 -5.07006 1.25467 0
M  V30 4424 H 424.237 -2.82698 0.986008 0
M  V30 4425 H 421.783 -1.3592 0.475592 0
M  V30 4426 H 423.736 -4.06423 -1.11348 0
M  V30 4427 H 422.46 -2.89025 -1.52093 0
M  V30 4428 H 421.119 -3.63478 0.47739 0
M  V30 4429 H 420.767 -4.71565 -1.7503 0
M  V30 4430 H 420.467 -5.86103 -0.419237 0
M  V30 4431 H 421.991 -5.9556 -1.34686 0
M  V30 4432 H 423.405 -5.66105 0.905401 0
M  V30 4433 H 421.802 -5.75793 1.69063 0
M  V30 4434 H 422.872 -4.3921 2.05481 0
M  V30 4435 N 424.215 -0.530993 -1.48385 0
M  V30 4436 C 425.461 0.00274135 -2.028 0
M  V30 4437 C 425.794 1.33838 -1.40716 0
M  V30 4438 O 425.069 1.86465 -0.553277 0
M  V30 4439 C 425.352 0.123676 -3.59888 0
M  V30 4440 C 425.205 -1.2372 -4.3245 0
M  V30 4441 C 426.524 0.849967 -4.31814 0
M  V30 4442 H 423.643 -0.000477758 -0.737 0
M  V30 4443 H 426.285 -0.688217 -1.77098 0
M  V30 4444 H 424.435 0.712157 -3.81917 0
M  V30 4445 H 426.107 -1.86687 -4.21836 0
M  V30 4446 H 424.35 -1.81882 -3.93829 0
M  V30 4447 H 425.021 -1.10557 -5.40815 0
M  V30 4448 H 427.497 0.350572 -4.14621 0
M  V30 4449 H 426.373 0.903486 -5.41413 0
M  V30 4450 H 426.634 1.90047 -3.99167 0
M  V30 4451 N 425.693 1.55336 -0.266172 0
M  V30 4452 C 426.933 2.01303 0.354459 0
M  V30 4453 C 427.297 1.15046 1.53715 0
M  V30 4454 O 428.498 1.50554 2.22681 0
M  V30 4455 C 426.769 3.49748 0.735579 0
M  V30 4456 S 428.328 4.1771 1.34401 0
M  V30 4457 H 425.146 0.702333 0.110674 0
M  V30 4458 H 427.748 1.91653 -0.385916 0
M  V30 4459 H 426.452 4.10181 -0.134196 0
M  V30 4460 H 425.983 3.63364 1.50764 0
M  V30 4461 H 427.998 4.20594 2.63278 0
M  V30 4462 N 427.171 -0.0066808 1.57599 0
M  V30 4463 C 428.419 -0.691552 1.899 0
M  V30 4464 C 428.74 -1.74682 0.866672 0
M  V30 4465 O 428.01 -1.95661 -0.0968189 0
M  V30 4466 H 426.59 -0.258416 0.700878 0
M  V30 4467 H 429.252 0.0326655 1.94873 0
M  V30 4468 H 428.348 -1.16702 2.8946 0
M  V30 4469 N 428.649 -1.55105 -0.279332 0
M  V30 4470 C 430.06 -1.66186 -0.850832 0
M  V30 4471 C 430.411 -0.584707 -1.87285 0
M  V30 4472 O 429.536 0.274919 -2.14647 0
M  V30 4473 C 430.131 -3.01264 -1.55001 0
M  V30 4474 C 428.69 -3.14394 -2.06963 0
M  V30 4475 C 427.837 -2.61959 -0.909536 0
M  V30 4476 H 430.788 -1.58602 -0.0558235 0
M  V30 4477 H 430.809 -2.93899 -2.41669 0
M  V30 4478 H 430.321 -3.7964 -0.805931 0
M  V30 4479 H 428.422 -2.4078 -2.84352 0
M  V30 4480 H 428.535 -4.20867 -2.28928 0
M  V30 4481 H 426.899 -2.18957 -1.30116 0
M  V30 4482 H 427.682 -3.42833 -0.179062 0
M  V30 4483 N 430.127 0.543554 -1.4793 0
M  V30 4484 C 431.367 1.31072 -1.56843 0
M  V30 4485 C 431.731 1.90604 -0.231124 0
M  V30 4486 O 432.932 2.68091 -0.195165 0
M  V30 4487 C 431.203 2.38106 -2.66533 0
M  V30 4488 S 432.762 3.24729 -2.95122 0
M  V30 4489 H 429.58 0.446035 -0.553691 0
M  V30 4490 H 432.182 0.620777 -1.85382 0
M  V30 4491 H 430.886 1.92828 -3.62278 0
M  V30 4492 H 430.417 3.11824 -2.39852 0
M  V30 4493 H 432.432 4.37891 -2.3338 0
M  V30 4494 N 431.605 1.3629 0.791371 0
M  V30 4495 C 432.833 1.33562 1.58016 0
M  V30 4496 C 433.248 -0.0835616 1.88615 0
M  V30 4497 O 432.605 -1.0399 1.49974 0
M  V30 4498 C 432.656 2.15517 2.90232 0
M  V30 4499 O 432.377 3.51902 2.60953 0
M  V30 4500 C 433.878 2.20546 3.84544 0
M  V30 4501 H 431.098 0.458226 0.490173 0
M  V30 4502 H 433.642 1.79361 0.982345 0
M  V30 4503 H 431.797 1.73278 3.46487 0
M  V30 4504 H 432.211 3.94644 3.4548 0
M  V30 4505 H 433.685 2.82252 4.74382 0
M  V30 4506 H 434.162 1.20838 4.2225 0
M  V30 4507 H 434.768 2.63013 3.34222 0
M  V30 4508 N 433.083 -1.0153 1.20538 0
M  V30 4509 C 434.329 -1.75408 1.01783 0
M  V30 4510 C 434.662 -1.88943 -0.448814 0
M  V30 4511 O 433.937 -1.4162 -1.33319 0
M  V30 4512 C 434.22 -3.17255 1.70356 0
M  V30 4513 C 434.073 -3.11508 3.24473 0
M  V30 4514 C 435.392 -4.15955 1.43769 0
M  V30 4515 H 432.511 -0.636713 0.371167 0
M  V30 4516 H 435.153 -1.18436 1.4857 0
M  V30 4517 H 433.303 -3.65898 1.30578 0
M  V30 4518 H 434.975 -2.70658 3.73553 0
M  V30 4519 H 433.218 -2.4887 3.55311 0
M  V30 4520 H 433.889 -4.11784 3.67611 0
M  V30 4521 H 436.365 -3.75973 1.7828 0
M  V30 4522 H 435.241 -5.13368 1.94279 0
M  V30 4523 H 435.502 -4.40586 0.365564 0
M  V30 4524 N 434.561 -1.01147 -1.20859 0
M  V30 4525 C 435.807 -0.698899 -1.90377 0
M  V30 4526 C 436.14 0.76904 -1.78324 0
M  V30 4527 O 435.415 1.55817 -1.16409 0
M  V30 4528 C 435.698 -1.12878 -3.41951 0
M  V30 4529 C 435.551 -2.65665 -3.62963 0
M  V30 4530 C 436.87 -0.696114 -4.3456 0
M  V30 4531 H 433.989 -0.255372 -0.691342 0
M  V30 4532 H 436.631 -1.25831 -1.42361 0
M  V30 4533 H 434.781 -0.652827 -3.82976 0
M  V30 4534 H 436.453 -3.21074 -3.31224 0
M  V30 4535 H 434.696 -3.06878 -3.06608 0
M  V30 4536 H 435.367 -2.90797 -4.69192 0
M  V30 4537 H 437.843 -1.10521 -4.01154 0
M  V30 4538 H 436.719 -1.025 -5.39245 0
M  V30 4539 H 436.98 0.402465 -4.40264 0
M  V30 4540 N 436.039 1.36541 -0.78704 0
M  V30 4541 C 436.971 2.28761 -0.141773 0
M  V30 4542 C 437.984 1.49365 0.647599 0
M  V30 4543 O 439.173 1.71836 0.483173 0
M  V30 4544 C 436.273 3.28771 0.822368 0
M  V30 4545 C 435.446 4.3732 0.0835594 0
M  V30 4546 C 434.505 5.17307 0.963296 0
M  V30 4547 O 433.531 5.67638 0.421419 0
M  V30 4548 N 434.733 5.33515 2.28784 0
M  V30 4549 H 437.498 2.84777 -0.933919 0
M  V30 4550 H 435.059 1.48682 -0.640735 0
M  V30 4551 H 437.051 3.79169 1.41468 0
M  V30 4552 H 435.621 2.73412 1.5154 0
M  V30 4553 H 434.841 3.88118 -0.689809 0
M  V30 4554 H 436.129 5.0701 -0.426358 0
M  V30 4555 H 435.527 4.94234 2.75226 0
M  V30 4556 H 434.084 5.87165 2.82985 0
M  V30 4557 N 437.518 0.538854 1.48102 0
M  V30 4558 C 438.481 -0.208395 2.28251 0
M  V30 4559 C 439.481 -0.859656 1.35892 0
M  V30 4560 O 440.671 -0.71834 1.58699 0
M  V30 4561 C 437.803 -1.30252 3.15035 0
M  V30 4562 H 438.996 0.495407 2.9578 0
M  V30 4563 H 436.549 0.295112 1.53489 0
M  V30 4564 H 437.284 -2.0393 2.52157 0
M  V30 4565 H 437.069 -0.840551 3.82985 0
M  V30 4566 H 438.559 -1.82787 3.75471 0
M  V30 4567 N 438.996 -1.55193 0.274407 0
M  V30 4568 C 439.959 -2.212 -0.600279 0
M  V30 4569 C 440.959 -1.18963 -1.08187 0
M  V30 4570 O 442.149 -1.43873 -0.982158 0
M  V30 4571 C 439.281 -2.87739 -1.82809 0
M  V30 4572 H 440.474 -2.9989 -0.0239682 0
M  V30 4573 H 438.027 -1.5628 0.0250192 0
M  V30 4574 H 438.762 -2.13058 -2.44493 0
M  V30 4575 H 438.547 -3.62658 -1.49069 0
M  V30 4576 H 440.037 -3.38171 -2.45011 0
M  V30 4577 N 440.474 -0.00167713 -1.576 0
M  V30 4578 C 441.404 0.988091 -2.11563 0
M  V30 4579 C 442.385 1.35736 -1.02517 0
M  V30 4580 O 443.57 1.44082 -1.30208 0
M  V30 4581 C 440.7 2.27941 -2.62031 0
M  V30 4582 C 439.654 2.0517 -3.75619 0
M  V30 4583 C 438.98 3.4033 -4.12407 0
M  V30 4584 C 440.28 1.41294 -5.02825 0
M  V30 4585 H 441.974 0.538771 -2.94513 0
M  V30 4586 H 439.52 0.257712 -1.41675 0
M  V30 4587 H 441.473 2.97539 -2.9841 0
M  V30 4588 H 440.197 2.74989 -1.76205 0
M  V30 4589 H 438.856 1.37998 -3.39635 0
M  V30 4590 H 438.504 3.85085 -3.23603 0
M  V30 4591 H 438.204 3.25909 -4.88935 0
M  V30 4592 H 439.728 4.1124 -4.51347 0
M  V30 4593 H 441.142 2.00851 -5.36965 0
M  V30 4594 H 439.539 1.37356 -5.84169 0
M  V30 4595 H 440.609 0.382362 -4.8339 0
M  V30 4596 N 441.952 1.55251 0.271103 0
M  V30 4597 C 443.2 1.75599 1.00047 0
M  V30 4598 C 443.521 0.561188 1.8675 0
M  V30 4599 O 442.791 -0.423846 1.9126 0
M  V30 4600 H 441.371 0.647562 0.372387 0
M  V30 4601 H 444.033 1.92656 0.294876 0
M  V30 4602 H 443.129 2.65766 1.6363 0
M  V30 4603 N 443.43 -0.535701 1.48216 0
M  V30 4604 C 444.34 -1.66785 1.64985 0
M  V30 4605 C 445.356 -1.65654 0.532414 0
M  V30 4606 O 446.532 -1.8471 0.80275 0
M  V30 4607 C 443.597 -3.0326 1.68031 0
M  V30 4608 C 442.658 -3.1529 2.9136 0
M  V30 4609 C 441.891 -4.45255 2.94252 0
M  V30 4610 O 442.114 -5.32011 2.05719 0
M  V30 4611 O 441.048 -4.6153 3.86359 0
M  V30 4612 H 444.874 -1.55576 2.60825 0
M  V30 4613 H 442.459 -0.70815 1.31551 0
M  V30 4614 H 444.341 -3.84436 1.72589 0
M  V30 4615 H 443.016 -3.14805 0.753628 0
M  V30 4616 H 441.923 -2.3343 2.92337 0
M  V30 4617 H 443.256 -3.08658 3.83394 0
M  V30 4618 N 444.908 -1.36708 -0.784132 0
M  V30 4619 C 445.871 -1.31307 -1.87859 0
M  V30 4620 C 446.871 -0.219654 -1.59293 0
M  V30 4621 O 448.061 -0.47476 -1.67606 0
M  V30 4622 C 445.193 -1.03679 -3.24751 0
M  V30 4623 H 446.386 -2.28647 -1.94064 0
M  V30 4624 H 443.939 -1.21558 -0.98252 0
M  V30 4625 H 444.674 -0.0681936 -3.24228 0
M  V30 4626 H 444.459 -1.82811 -3.46876 0
M  V30 4627 H 445.949 -1.02518 -4.04821 0
M  V30 4628 N 446.386 1.0089 -1.21074 0
M  V30 4629 C 447.316 2.1145 -0.990523 0
M  V30 4630 C 448.297 1.69897 0.0831699 0
M  V30 4631 O 449.482 1.94052 -0.0758853 0
M  V30 4632 C 446.612 3.42914 -0.550177 0
M  V30 4633 C 445.566 3.98244 -1.56799 0
M  V30 4634 C 444.892 5.25568 -0.984013 0
M  V30 4635 C 446.192 4.30752 -2.95381 0
M  V30 4636 H 447.886 2.3013 -1.91521 0
M  V30 4637 H 445.432 1.10592 -0.92225 0
M  V30 4638 H 447.385 4.19653 -0.383305 0
M  V30 4639 H 446.109 3.24014 0.41015 0
M  V30 4640 H 444.768 3.23621 -1.72236 0
M  V30 4641 H 444.416 5.02998 -0.0155216 0
M  V30 4642 H 444.116 5.63551 -1.66384 0
M  V30 4643 H 445.64 6.04955 -0.828378 0
M  V30 4644 H 447.054 4.98349 -2.8341 0
M  V30 4645 H 445.451 4.79869 -3.60341 0
M  V30 4646 H 446.521 3.39192 -3.46521 0
M  V30 4647 N 447.864 1.01787 1.20321 0
M  V30 4648 C 448.794 0.609625 2.25401 0
M  V30 4649 C 449.775 -0.375951 1.65893 0
M  V30 4650 O 450.96 -0.261101 1.92437 0
M  V30 4651 C 448.09 -0.0515995 3.47262 0
M  V30 4652 C 447.044 0.855095 4.19371 0
M  V30 4653 C 446.37 0.0595757 5.34667 0
M  V30 4654 C 447.67 2.16374 4.75373 0
M  V30 4655 H 449.364 1.48803 2.59804 0
M  V30 4656 H 446.91 0.716934 1.24884 0
M  V30 4657 H 448.863 -0.348764 4.19954 0
M  V30 4658 H 447.587 -0.964726 3.12027 0
M  V30 4659 H 446.246 1.13628 3.48546 0
M  V30 4660 H 445.894 -0.85524 4.95676 0
M  V30 4661 H 445.594 0.663406 5.83843 0
M  V30 4662 H 447.118 -0.231105 6.10162 0
M  V30 4663 H 448.532 1.92885 5.39878 0
M  V30 4664 H 446.929 2.71853 5.34991 0
M  V30 4665 H 447.999 2.82589 3.94045 0
M  V30 4666 N 449.342 -1.36122 0.79427 0
M  V30 4667 C 450.29 -2.31871 0.184023 0
M  V30 4668 C 451.284 -1.56041 -0.659365 0
M  V30 4669 O 452.49 -1.71266 -0.553906 0
M  V30 4670 H 448.865 -0.750896 0.0407373 0
M  V30 4671 H 450.836 -2.80898 1.00693 0
M  V30 4672 C 449.585 -3.41324 -0.662813 0
M  V30 4673 H 448.908 -3.99793 -0.0231944 0
M  V30 4674 H 450.348 -4.10629 -1.05639 0
M  V30 4675 C 448.807 -2.83308 -1.82313 0
M  V30 4676 O 449.337 -2.75863 -2.91997 0
M  V30 4677 N 447.543 -2.40529 -1.63077 0
M  V30 4678 H 447.09 -2.46785 -0.738591 0
M  V30 4679 H 447.048 -2.02059 -2.40872 0
M  V30 4680 N 450.82 -0.546701 -1.47814 0
M  V30 4681 C 452.048 -0.0232857 -2.06887 0
M  V30 4682 C 452.463 1.26571 -1.4009 0
M  V30 4683 O 451.82 1.7569 -0.493906 0
M  V30 4684 C 451.871 0.186975 -3.61016 0
M  V30 4685 O 451.592 -1.05097 -4.25307 0
M  V30 4686 C 453.093 0.748872 -4.36929 0
M  V30 4687 H 450.313 -0.0410763 -0.669742 0
M  V30 4688 H 452.857 -0.757117 -1.89968 0
M  V30 4689 H 451.012 0.870903 -3.77484 0
M  V30 4690 H 451.426 -0.842121 -5.17695 0
M  V30 4691 H 452.9 0.845334 -5.45489 0
M  V30 4692 H 453.377 1.75772 -4.02493 0
M  V30 4693 H 453.983 0.100979 -4.2518 0
M  V30 4694 N 452.299 1.55045 -0.282633 0
M  V30 4695 C 453.71 1.85473 0.213655 0
M  V30 4696 C 454.061 1.20465 1.54863 0
M  V30 4697 O 453.186 0.495676 2.10647 0
M  V30 4698 C 453.781 3.36496 0.394445 0
M  V30 4699 C 452.34 3.67022 0.834961 0
M  V30 4700 C 451.487 2.77218 -0.0674081 0
M  V30 4701 H 454.438 1.50478 -0.504202 0
M  V30 4702 H 454.459 3.60007 1.23186 0
M  V30 4703 H 453.971 3.83782 -0.577326 0
M  V30 4704 H 452.072 3.25241 1.81794 0
M  V30 4705 H 452.185 4.74433 0.667075 0
M  V30 4706 H 450.549 2.5069 0.450196 0
M  V30 4707 H 451.332 3.2732 -1.0352 0
M  V30 4708 N 453.777 0.010035 1.57597 0
M  V30 4709 C 454.709 -1.00649 2.05918 0
M  V30 4710 C 455.722 -1.30077 0.978964 0
M  V30 4711 O 456.911 -1.26878 1.25556 0
M  V30 4712 C 454.011 -2.33876 2.45265 0
M  V30 4713 C 453.184 -2.23242 3.7614 0
M  V30 4714 C 452.243 -3.39242 4.02245 0
M  V30 4715 O 451.269 -3.1698 4.72771 0
M  V30 4716 N 452.471 -4.6242 3.50924 0
M  V30 4717 H 455.236 -0.594333 2.93748 0
M  V30 4718 H 452.797 -0.17714 1.60928 0
M  V30 4719 H 454.789 -3.1027 2.59836 0
M  V30 4720 H 453.359 -2.66799 1.62902 0
M  V30 4721 H 452.579 -1.31696 3.71551 0
M  V30 4722 H 453.867 -2.13321 4.61922 0
M  V30 4723 H 453.265 -4.83404 2.93832 0
M  V30 4724 H 451.822 -5.36046 3.70807 0
M  V30 4725 N 455.255 -1.55392 -0.262866 0
M  V30 4726 C 456.165 -1.92077 -1.34698 0
M  V30 4727 C 457.181 -0.819227 -1.53508 0
M  V30 4728 O 458.357 -1.11921 -1.67439 0
M  V30 4729 C 455.422 -2.19407 -2.68443 0
M  V30 4730 C 454.483 -3.42905 -2.58292 0
M  V30 4731 C 453.716 -3.68921 -3.85659 0
M  V30 4732 O 453.939 -2.97275 -4.8681 0
M  V30 4733 O 452.873 -4.62455 -3.85252 0
M  V30 4734 H 456.699 -2.84384 -1.06581 0
M  V30 4735 H 454.284 -1.42069 -0.462264 0
M  V30 4736 H 456.166 -2.38365 -3.47506 0
M  V30 4737 H 454.841 -1.30282 -2.96325 0
M  V30 4738 H 453.748 -3.29272 -1.7757 0
M  V30 4739 H 455.081 -4.32282 -2.35358 0
M  V30 4740 N 456.733 0.527833 -1.48498 0
M  V30 4741 C 457.683 1.62844 -1.5958 0
M  V30 4742 C 458.667 1.54397 -0.452809 0
M  V30 4743 O 459.859 1.62381 -0.704364 0
M  V30 4744 C 456.988 3.01557 -1.64067 0
M  V30 4745 C 456.074 3.151 -2.83853 0
M  V30 4746 N 456.465 2.9861 -4.08247 0
M  V30 4747 C 454.763 3.46158 -2.8123 0
M  V30 4748 C 455.464 3.15626 -4.88626 0
M  V30 4749 N 454.44 3.43298 -4.21483 0
M  V30 4750 H 458.242 1.48708 -2.53502 0
M  V30 4751 H 455.756 0.733343 -1.44899 0
M  V30 4752 H 457.753 3.8062 -1.70101 0
M  V30 4753 H 456.413 3.16783 -0.712636 0
M  V30 4754 H 457.424 2.75329 -4.3865 0
M  V30 4755 H 454.101 3.67728 -1.97692 0
M  V30 4756 H 455.491 3.07596 -5.97356 0
M  V30 4757 N 458.211 1.37122 0.776871 0
M  V30 4758 C 459.141 1.35164 1.90402 0
M  V30 4759 C 460.122 0.221069 1.68657 0
M  V30 4760 O 461.307 0.420642 1.8959 0
M  V30 4761 C 458.437 1.15274 3.27611 0
M  V30 4762 C 457.391 2.25289 3.63908 0
M  V30 4763 C 456.717 1.90527 4.99603 0
M  V30 4764 C 458.017 3.67446 3.71188 0
M  V30 4765 H 459.711 2.29482 1.92297 0
M  V30 4766 H 457.257 1.10465 0.923773 0
M  V30 4767 H 459.21 1.12536 4.06096 0
M  V30 4768 H 457.934 0.174102 3.26136 0
M  V30 4769 H 456.593 2.27174 2.87728 0
M  V30 4770 H 456.241 0.91206 4.94662 0
M  V30 4771 H 455.941 2.64193 5.24858 0
M  V30 4772 H 457.465 1.89367 5.80493 0
M  V30 4773 H 458.879 3.67719 4.39836 0
M  V30 4774 H 457.276 4.40123 4.07936 0
M  V30 4775 H 458.346 4.01443 2.71977 0
M  V30 4776 N 459.689 -1.00246 1.21608 0
M  V30 4777 C 460.966 -1.71336 0.943568 0
M  V30 4778 C 461.346 -2.03972 -0.543943 0
M  V30 4779 O 460.694 -1.71545 -1.50946 0
M  V30 4780 C 460.904 -2.97094 1.83128 0
M  V30 4781 C 462.252 -3.70071 2.08165 0
M  V30 4782 O 463.276 -3.07081 1.80498 0
M  V30 4783 O 462.135 -4.83376 2.54971 0
M  V30 4784 H 459.229 -0.747386 0.354039 0
M  V30 4785 H 461.775 -1.05967 1.32549 0
M  V30 4786 H 460.547 -2.69407 2.83788 0
M  V30 4787 H 460.17 -3.70204 1.45034 0
M  V30 4788 N 461.167 -1.02423 -1.1978 0
M  V30 4789 C 462.099 -0.559152 -2.22275 0
M  V30 4790 C 463.112 0.36251 -1.58713 0
M  V30 4791 O 464.301 0.159641 -1.77785 0
M  V30 4792 C 461.401 0.205094 -3.38279 0
M  V30 4793 C 460.574 -0.720361 -4.31427 0
M  V30 4794 C 459.633 -0.00234368 -5.262 0
M  V30 4795 O 458.659 -0.627378 -5.65732 0
M  V30 4796 N 459.861 1.26996 -5.66438 0
M  V30 4797 H 462.626 -1.44064 -2.62804 0
M  V30 4798 H 460.187 -0.902692 -1.34399 0
M  V30 4799 H 462.179 0.694868 -3.9869 0
M  V30 4800 H 460.749 0.987947 -2.96578 0
M  V30 4801 H 459.969 -1.39031 -3.68869 0
M  V30 4802 H 461.257 -1.3495 -4.90577 0
M  V30 4803 H 460.655 1.79858 -5.36347 0
M  V30 4804 H 459.212 1.70432 -6.29123 0
M  V30 4805 N 462.645 1.35699 -0.801477 0
M  V30 4806 C 463.894 1.98165 -0.375979 0
M  V30 4807 C 464.207 1.64306 1.06127 0
M  V30 4808 O 465.413 2.20097 1.58964 0
M  V30 4809 C 463.869 3.54497 -0.621305 0
M  V30 4810 C 463.477 3.9727 -2.07076 0
M  V30 4811 C 465.221 4.23697 -0.26091 0
M  V30 4812 C 463.128 5.46427 -2.26211 0
M  V30 4813 H 462.058 0.741478 -0.136844 0
M  V30 4814 H 464.709 1.54834 -0.984814 0
M  V30 4815 H 463.091 3.95958 0.0574112 0
M  V30 4816 H 464.265 3.66974 -2.78687 0
M  V30 4817 H 462.58 3.40943 -2.39054 0
M  V30 4818 H 465.177 5.33334 -0.381994 0
M  V30 4819 H 465.52 4.0869 0.792344 0
M  V30 4820 H 466.053 3.87639 -0.893339 0
M  V30 4821 H 462.792 5.66396 -3.29963 0
M  V30 4822 H 462.312 5.78309 -1.59119 0
M  V30 4823 H 463.991 6.12819 -2.07513 0
M  V30 4824 N 464.123 0.554532 1.47522 0
M  V30 4825 C 465.369 0.0295227 2.02779 0
M  V30 4826 C 465.702 -1.31582 1.42828 0
M  V30 4827 O 464.977 -1.85561 0.582872 0
M  V30 4828 C 465.26 -0.0664057 3.60039 0
M  V30 4829 C 465.113 1.30585 4.30427 0
M  V30 4830 C 466.432 -0.781162 4.33112 0
M  V30 4831 H 463.551 0.0122027 0.736899 0
M  V30 4832 H 466.193 0.716305 1.7598 0
M  V30 4833 H 464.343 -0.651307 3.83002 0
M  V30 4834 H 466.015 1.93374 4.18813 0
M  V30 4835 H 464.258 1.88125 3.90886 0
M  V30 4836 H 464.929 1.19147 5.38988 0
M  V30 4837 H 467.405 -0.284565 4.15126 0
M  V30 4838 H 466.281 -0.817237 5.42782 0
M  V30 4839 H 466.542 -1.83672 4.0214 0
M  V30 4840 N 465.601 -1.54893 0.290851 0
M  V30 4841 C 466.564 -2.21824 -0.576784 0
M  V30 4842 C 467.564 -1.20104 -1.06919 0
M  V30 4843 O 468.754 -1.44906 -0.966843 0
M  V30 4844 C 465.886 -2.89662 -1.79747 0
M  V30 4845 H 467.079 -2.99899 0.00784051 0
M  V30 4846 H 464.632 -1.56245 0.0415934 0
M  V30 4847 H 465.367 -2.15639 -2.42219 0
M  V30 4848 H 465.152 -3.64219 -1.45214 0
M  V30 4849 H 466.642 -3.4075 -2.4141 0
M  V30 4850 N 467.08 -0.0183926 -1.57589 0
M  V30 4851 C 468.027 0.967022 -2.09565 0
M  V30 4852 C 468.997 1.32983 -0.995225 0
M  V30 4853 O 470.182 1.42501 -1.26878 0
M  V30 4854 C 467.322 2.24772 -2.61861 0
M  V30 4855 C 466.435 1.94232 -3.85873 0
M  V30 4856 C 465.57 3.16518 -4.26603 0
M  V30 4857 C 464.609 2.81748 -5.43401 0
M  V30 4858 N 463.746 3.96626 -5.79338 0
M  V30 4859 H 468.586 0.516874 -2.93483 0
M  V30 4860 H 466.123 0.243544 -1.4507 0
M  V30 4861 H 468.081 2.99667 -2.90268 0
M  V30 4862 H 466.711 2.67423 -1.8079 0
M  V30 4863 H 465.763 1.09625 -3.64262 0
M  V30 4864 H 467.075 1.64616 -4.70853 0
M  V30 4865 H 466.229 3.99743 -4.56389 0
M  V30 4866 H 464.968 3.49286 -3.40368 0
M  V30 4867 H 463.973 1.96933 -5.1332 0
M  V30 4868 H 465.198 2.50207 -6.31327 0
M  V30 4869 H 463.144 4.29257 -4.96059 0
M  V30 4870 H 463.061 3.70598 -6.58933 0
M  V30 4871 H 464.329 4.80586 -6.13724 0
M  V30 4872 N 468.558 1.5553 0.254621 0
M  V30 4873 C 469.807 1.76202 0.981612 0
M  V30 4874 C 470.12 0.580883 1.86776 0
M  V30 4875 O 471.326 0.670448 2.63092 0
M  V30 4876 C 469.782 3.11921 1.79537 0
M  V30 4877 C 469.39 4.37659 0.956991 0
M  V30 4878 C 471.134 3.41936 2.51555 0
M  V30 4879 C 469.041 5.64411 1.76619 0
M  V30 4880 H 467.971 0.656841 0.370237 0
M  V30 4881 H 470.622 1.81969 0.236556 0
M  V30 4882 H 469.004 3.00241 2.58208 0
M  V30 4883 H 470.178 4.60307 0.21315 0
M  V30 4884 H 468.493 4.14922 0.350497 0
M  V30 4885 H 471.09 4.33849 3.12536 0
M  V30 4886 H 471.433 2.62905 3.22779 0
M  V30 4887 H 471.966 3.54797 1.799 0
M  V30 4888 H 468.705 6.46241 1.09783 0
M  V30 4889 H 468.225 5.45877 2.48551 0
M  V30 4890 H 469.904 6.03386 2.33527 0
M  V30 4891 N 470.036 -0.519951 1.48776 0
M  V30 4892 C 470.946 -1.65025 1.66745 0
M  V30 4893 C 471.962 -1.6508 0.549954 0
M  V30 4894 O 473.138 -1.83848 0.822295 0
M  V30 4895 C 470.203 -3.0146 1.71238 0
M  V30 4896 C 469.264 -3.12182 2.94688 0
M  V30 4897 C 468.497 -4.42109 2.98958 0
M  V30 4898 O 468.72 -5.29799 2.1135 0
M  V30 4899 O 467.654 -4.57406 3.91233 0
M  V30 4900 H 471.48 -1.52801 2.62461 0
M  V30 4901 H 469.065 -0.694157 1.32294 0
M  V30 4902 H 470.947 -3.82584 1.76657 0
M  V30 4903 H 469.622 -3.13988 0.786975 0
M  V30 4904 H 468.529 -2.30316 2.94797 0
M  V30 4905 H 469.862 -3.04574 3.86646 0
M  V30 4906 N 471.514 -1.37532 -0.769588 0
M  V30 4907 C 472.424 -1.35668 -1.91393 0
M  V30 4908 C 473.44 -0.255954 -1.72107 0
M  V30 4909 O 474.616 -0.491704 -1.95305 0
M  V30 4910 C 471.681 -1.16481 -3.26547 0
M  V30 4911 C 470.742 -2.36212 -3.58472 0
M  V30 4912 C 469.975 -2.17932 -4.87177 0
M  V30 4913 O 470.198 -1.1647 -5.58382 0
M  V30 4914 O 469.132 -3.06167 -5.18214 0
M  V30 4915 H 472.958 -2.32055 -1.95918 0
M  V30 4916 H 470.543 -1.18284 -0.912641 0
M  V30 4917 H 472.425 -1.07778 -4.07384 0
M  V30 4918 H 471.1 -0.231687 -3.2287 0
M  V30 4919 H 470.007 -2.50488 -2.77861 0
M  V30 4920 H 471.34 -3.281 -3.66894 0
M  V30 4921 N 472.992 0.995999 -1.22138 0
M  V30 4922 C 474.217 1.77601 -1.0711 0
M  V30 4923 C 474.642 1.84339 0.374264 0
M  V30 4924 O 474 1.29359 1.27028 0
M  V30 4925 C 474.048 3.18897 -1.68336 0
M  V30 4926 O 473.152 4.01663 -0.934928 0
M  V30 4927 H 472.493 0.547011 -0.376397 0
M  V30 4928 H 475.023 1.25137 -1.6187 0
M  V30 4929 H 475.033 3.69539 -1.72931 0
M  V30 4930 H 473.708 3.13308 -2.73516 0
M  V30 4931 H 472.285 3.60204 -0.964751 0
M  V30 4932 N 474.47 1.03057 1.19235 0
M  V30 4933 C 475.433 0.617418 2.20727 0
M  V30 4934 C 476.433 -0.319856 1.57587 0
M  V30 4935 O 477.623 -0.106633 1.73873 0
M  V30 4936 C 474.755 -0.096296 3.40764 0
M  V30 4937 H 475.948 1.51544 2.58794 0
M  V30 4938 H 473.501 0.821949 1.32942 0
M  V30 4939 H 474.236 -1.00859 3.08217 0
M  V30 4940 H 474.021 0.577217 3.87828 0
M  V30 4941 H 475.511 -0.372219 4.15938 0
M  V30 4942 N 475.948 -1.35272 0.808662 0
M  V30 4943 C 476.881 -2.27595 0.165994 0
M  V30 4944 C 477.859 -1.48189 -0.669241 0
M  V30 4945 O 479.043 -1.77444 -0.636073 0
M  V30 4946 C 476.17 -3.29843 -0.769505 0
M  V30 4947 C 475.216 -4.26498 -0.0136267 0
M  V30 4948 S 476.049 -5.18878 1.32384 0
M  V30 4949 C 477.205 -6.24666 0.392838 0
M  V30 4950 H 477.438 -2.81755 0.948756 0
M  V30 4951 H 474.971 -1.42103 0.603828 0
M  V30 4952 H 476.929 -3.89247 -1.30374 0
M  V30 4953 H 475.59 -2.74558 -1.52567 0
M  V30 4954 H 474.783 -4.98769 -0.724227 0
M  V30 4955 H 474.385 -3.71274 0.450713 0
M  V30 4956 H 476.677 -6.7619 -0.4211 0
M  V30 4957 H 477.62 -6.99741 1.0848 0
M  V30 4958 H 478.028 -5.64499 -0.0123908 0
M  V30 4959 N 477.426 -0.562348 -1.47226 0
M  V30 4960 C 478.656 -0.0451619 -2.06551 0
M  V30 4961 C 479.064 1.25626 -1.41473 0
M  V30 4962 O 478.407 1.76563 -0.507061 0
M  V30 4963 C 478.469 0.216068 -3.5885 0
M  V30 4964 C 478.133 -0.996691 -4.45999 0
M  V30 4965 C 479.13 -1.90358 -4.83797 0
M  V30 4966 C 476.815 -1.21281 -4.87438 0
M  V30 4967 C 478.809 -3.01023 -5.6184 0
M  V30 4968 C 476.496 -2.32255 -5.65244 0
M  V30 4969 C 477.494 -3.21956 -6.02356 0
M  V30 4970 O 477.182 -4.31005 -6.78594 0
M  V30 4971 H 476.914 -0.0451646 -0.67449 0
M  V30 4972 H 479.468 -0.776842 -1.90143 0
M  V30 4973 H 477.698 1.00212 -3.7349 0
M  V30 4974 H 479.387 0.679264 -4.00176 0
M  V30 4975 H 480.153 -1.74868 -4.52378 0
M  V30 4976 H 476.032 -0.523767 -4.58015 0
M  V30 4977 H 479.576 -3.71064 -5.90726 0
M  V30 4978 H 475.473 -2.47715 -5.96077 0
M  V30 4979 H 476.241 -4.29118 -6.96994 0
M  V30 4980 N 478.904 1.54736 -0.299062 0
M  V30 4981 C 479.834 2.26409 0.571085 0
M  V30 4982 C 480.815 1.2629 1.13951 0
M  V30 4983 O 482 1.55059 1.16921 0
M  V30 4984 C 479.13 3.00338 1.74396 0
M  V30 4985 C 478.084 4.07588 1.30599 0
M  V30 4986 C 477.41 4.69222 2.56387 0
M  V30 4987 C 478.71 5.20455 0.438645 0
M  V30 4988 H 480.404 2.99388 -0.0266991 0
M  V30 4989 H 477.95 1.43993 -0.0142812 0
M  V30 4990 H 479.903 3.49198 2.35878 0
M  V30 4991 H 478.627 2.24934 2.36796 0
M  V30 4992 H 477.286 3.59575 0.71424 0
M  V30 4993 H 476.934 3.9046 3.17097 0
M  V30 4994 H 476.634 5.41653 2.27784 0
M  V30 4995 H 478.158 5.20844 3.18675 0
M  V30 4996 H 479.572 5.65221 0.959085 0
M  V30 4997 H 477.969 5.99594 0.246466 0
M  V30 4998 H 479.039 4.8192 -0.536738 0
M  V30 4999 N 480.382 0.0267497 1.57577 0
M  V30 5000 C 481.612 -0.6617 1.95717 0
M  V30 5001 C 482.02 -1.66331 0.901706 0
M  V30 5002 O 481.363 -1.83273 -0.125241 0
M  V30 5003 C 481.425 -1.42649 3.29987 0
M  V30 5004 C 481.089 -0.583482 4.5326 0
M  V30 5005 C 482.086 0.140221 5.19711 0
M  V30 5006 C 479.771 -0.521581 4.99585 0
M  V30 5007 C 481.765 0.914523 6.30805 0
M  V30 5008 C 479.452 0.256428 6.10562 0
M  V30 5009 C 480.45 0.973189 6.76031 0
M  V30 5010 O 480.138 1.73845 7.84878 0
M  V30 5011 H 479.87 -0.187483 0.649481 0
M  V30 5012 H 482.424 0.0820847 2.05236 0
M  V30 5013 H 480.654 -2.21536 3.16952 0
M  V30 5014 H 482.343 -2.00282 3.53047 0
M  V30 5015 H 483.109 0.101716 4.84893 0
M  V30 5016 H 478.988 -1.06904 4.48433 0
M  V30 5017 H 482.532 1.4745 6.81839 0
M  V30 5018 H 478.429 0.296657 6.44818 0
M  V30 5019 H 479.197 1.65797 8.01532 0
M  V30 5020 N 481.861 -1.55662 -0.24637 0
M  V30 5021 C 482.809 -1.91186 -1.3248 0
M  V30 5022 C 483.803 -0.790996 -1.49799 0
M  V30 5023 O 485.009 -0.975617 -1.51267 0
M  V30 5024 H 481.384 -0.607207 -0.443626 0
M  V30 5025 H 483.355 -2.81221 -0.997853 0
M  V30 5026 C 482.104 -2.22349 -2.67313 0
M  V30 5027 H 481.427 -3.08097 -2.54786 0
M  V30 5028 H 482.867 -2.51107 -3.41645 0
M  V30 5029 C 481.326 -1.04001 -3.20446 0
M  V30 5030 O 481.856 -0.28828 -4.00664 0
M  V30 5031 N 480.062 -0.830494 -2.7848 0
M  V30 5032 H 479.609 -1.4435 -2.13356 0
M  V30 5033 H 479.567 -0.0403258 -3.14374 0
M  V30 5034 N 483.339 0.512053 -1.4905 0
M  V30 5035 C 484.289 1.61142 -1.61298 0
M  V30 5036 C 485.273 1.53908 -0.46916 0
M  V30 5037 O 486.465 1.61625 -0.721547 0
M  V30 5038 C 483.594 2.998 -1.67256 0
M  V30 5039 C 482.68 3.12072 -2.87179 0
M  V30 5040 N 483.071 2.94263 -4.11391 0
M  V30 5041 C 481.369 3.43156 -2.84886 0
M  V30 5042 C 482.07 3.10426 -4.91946 0
M  V30 5043 N 481.046 3.38808 -4.251 0
M  V30 5044 H 484.848 1.46011 -2.55065 0
M  V30 5045 H 482.362 0.717934 -1.45669 0
M  V30 5046 H 484.359 3.78794 -1.74128 0
M  V30 5047 H 483.019 3.1601 -0.746195 0
M  V30 5048 H 484.03 2.70661 -4.41546 0
M  V30 5049 H 480.707 3.65611 -2.01581 0
M  V30 5050 H 482.097 3.01243 -6.00585 0
M  V30 5051 N 484.817 1.37938 0.762283 0
M  V30 5052 C 486.066 1.32989 1.51647 0
M  V30 5053 C 486.379 -0.0802922 1.95435 0
M  V30 5054 O 487.585 -0.252295 2.70325 0
M  V30 5055 C 486.041 2.33485 2.73885 0
M  V30 5056 C 485.649 3.80079 2.37157 0
M  V30 5057 C 487.393 2.37563 3.51801 0
M  V30 5058 C 485.3 4.72283 3.55954 0
M  V30 5059 H 484.23 0.494301 0.56937 0
M  V30 5060 H 486.881 1.63448 0.834083 0
M  V30 5061 H 485.263 1.96056 3.44061 0
M  V30 5062 H 486.437 4.26398 1.74704 0
M  V30 5063 H 484.752 3.79037 1.72395 0
M  V30 5064 H 487.349 3.0365 4.40114 0
M  V30 5065 H 487.692 1.39199 3.92338 0
M  V30 5066 H 488.225 2.73747 2.8863 0
M  V30 5067 H 484.964 5.7181 3.2049 0
M  V30 5068 H 484.484 4.30663 4.1748 0
M  V30 5069 H 486.163 4.89876 4.22647 0
M  V30 5070 N 486.295 -0.989507 1.22664 0
M  V30 5071 C 487.543 -1.72612 1.05117 0
M  V30 5072 C 487.864 -1.90552 -0.414131 0
M  V30 5073 O 487.134 -1.4676 -1.29762 0
M  V30 5074 H 485.714 -0.639555 0.385977 0
M  V30 5075 H 488.376 -1.19158 1.54232 0
M  V30 5076 H 487.472 -2.71926 1.53175 0
M  V30 5077 N 487.773 -1.03688 -1.18687 0
M  V30 5078 C 488.683 -0.634908 -2.25845 0
M  V30 5079 C 489.699 0.337065 -1.70704 0
M  V30 5080 O 490.875 0.192943 -2.00474 0
M  V30 5081 C 487.94 -0.000180054 -3.467 0
M  V30 5082 C 487.001 -1.02067 -4.1699 0
M  V30 5083 C 486.234 -0.41614 -5.32075 0
M  V30 5084 O 486.457 0.778712 -5.65059 0
M  V30 5085 O 485.391 -1.14296 -5.90948 0
M  V30 5086 H 489.217 -1.52757 -2.62486 0
M  V30 5087 H 486.802 -0.807533 -1.25695 0
M  V30 5088 H 488.684 0.353342 -4.19916 0
M  V30 5089 H 487.359 0.866367 -3.11891 0
M  V30 5090 H 486.266 -1.42592 -3.45859 0
M  V30 5091 H 487.599 -1.85786 -4.5579 0
M  V30 5092 N 489.251 1.34841 -0.815825 0
M  V30 5093 C 490.491 2.00321 -0.406297 0
M  V30 5094 C 490.855 1.63293 1.00992 0
M  V30 5095 O 492.056 2.21563 1.52195 0
M  V30 5096 C 490.327 3.52421 -0.594469 0
M  V30 5097 S 491.886 4.37926 -0.276735 0
M  V30 5098 H 488.704 0.694155 -0.153848 0
M  V30 5099 H 491.306 1.64263 -1.06009 0
M  V30 5100 H 490.01 3.76858 -1.625 0
M  V30 5101 H 489.541 3.9333 0.0743157 0
M  V30 5102 H 491.556 4.87743 0.912215 0
M  V30 5103 N 490.729 0.570148 1.46925 0
M  V30 5104 C 491.978 0.0487352 2.01641 0
M  V30 5105 C 492.291 -1.31433 1.44861 0
M  V30 5106 O 493.497 -1.92638 1.91318 0
M  V30 5107 C 491.953 0.0365817 3.59881 0
M  V30 5108 C 491.561 1.39719 4.25655 0
M  V30 5109 C 493.305 -0.431545 4.22301 0
M  V30 5110 C 491.212 1.34345 5.75939 0
M  V30 5111 H 490.142 0.0144492 0.753862 0
M  V30 5112 H 492.793 0.719928 1.68788 0
M  V30 5113 H 491.175 -0.700522 3.89755 0
M  V30 5114 H 492.349 2.15303 4.07408 0
M  V30 5115 H 490.664 1.80431 3.75278 0
M  V30 5116 H 493.261 -0.490354 5.32447 0
M  V30 5117 H 493.604 -1.44638 3.90366 0
M  V30 5118 H 494.137 0.251102 3.97007 0
M  V30 5119 H 490.876 2.33469 6.12513 0
M  V30 5120 H 490.396 0.629615 5.96486 0
M  V30 5121 H 492.075 1.051 6.38407 0
M  V30 5122 N 492.207 -1.54576 0.307264 0
M  V30 5123 C 493.455 -1.99867 -0.299574 0
M  V30 5124 C 493.776 -1.19714 -1.53927 0
M  V30 5125 O 493.046 -0.29472 -1.9367 0
M  V30 5126 H 491.626 -0.738299 -0.113683 0
M  V30 5127 H 494.288 -1.9032 0.420042 0
M  V30 5128 H 493.384 -3.06901 -0.567283 0
M  V30 5129 N 493.685 -0.035106 -1.57561 0
M  V30 5130 C 494.615 0.942993 -2.13612 0
M  V30 5131 C 495.596 1.33531 -1.05373 0
M  V30 5132 O 496.781 1.41287 -1.33235 0
M  V30 5133 C 493.911 2.22332 -2.66807 0
M  V30 5134 C 492.865 1.97156 -3.79886 0
M  V30 5135 C 492.191 3.31506 -4.19533 0
M  V30 5136 C 493.491 1.30596 -5.05709 0
M  V30 5137 H 495.185 0.476179 -2.95589 0
M  V30 5138 H 492.731 0.227602 -1.4219 0
M  V30 5139 H 494.684 2.91142 -3.04654 0
M  V30 5140 H 493.408 2.7119 -1.81999 0
M  V30 5141 H 492.067 1.30763 -3.42486 0
M  V30 5142 H 491.715 3.78134 -3.31698 0
M  V30 5143 H 491.415 3.15465 -4.95738 0
M  V30 5144 H 492.939 4.01574 -4.59968 0
M  V30 5145 H 494.353 1.89416 -5.41105 0
M  V30 5146 H 492.75 1.24934 -5.86951 0
M  V30 5147 H 493.82 0.279742 -4.84092 0
M  V30 5148 N 495.163 1.55791 0.238111 0
M  V30 5149 C 496.126 1.90239 1.27835 0
M  V30 5150 C 497.126 0.779552 1.4064 0
M  V30 5151 O 498.316 1.04747 1.3919 0
M  V30 5152 C 495.448 2.13859 2.65475 0
M  V30 5153 H 496.641 2.83262 0.985034 0
M  V30 5154 H 494.194 1.48818 0.477799 0
M  V30 5155 H 494.929 1.23334 2.99932 0
M  V30 5156 H 494.714 2.95643 2.57561 0
M  V30 5157 H 496.204 2.41664 3.40571 0
M  V30 5158 N 496.642 -0.504142 1.49319 0
M  V30 5159 C 498.053 -1.08572 1.51885 0
M  V30 5160 C 498.404 -1.93842 0.303255 0
M  V30 5161 O 497.529 -2.0828 -0.58724 0
M  V30 5162 C 498.124 -1.97574 2.75227 0
M  V30 5163 C 496.683 -2.509 2.80581 0
M  V30 5164 C 495.83 -1.28447 2.45757 0
M  V30 5165 H 498.781 -0.288194 1.56061 0
M  V30 5166 H 498.802 -2.82219 2.55211 0
M  V30 5167 H 498.314 -1.35486 3.63683 0
M  V30 5168 H 496.415 -3.16636 1.96398 0
M  V30 5169 H 496.528 -2.88268 3.82673 0
M  V30 5170 H 494.892 -1.60868 1.97468 0
M  V30 5171 H 495.675 -0.68072 3.36483 0
M  V30 5172 N 498.12 -1.38341 -0.754957 0
M  V30 5173 C 499.348 -1.37704 -1.54419 0
M  V30 5174 C 499.763 0.0335243 -1.8877 0
M  V30 5175 O 499.12 0.999773 -1.52679 0
M  V30 5176 C 499.171 -2.23136 -2.84416 0
M  V30 5177 O 498.892 -3.58697 -2.51531 0
M  V30 5178 C 500.393 -2.30664 -3.78562 0
M  V30 5179 H 497.613 -0.471061 -0.477852 0
M  V30 5180 H 500.157 -1.81902 -0.934446 0
M  V30 5181 H 498.312 -1.82403 -3.41772 0
M  V30 5182 H 498.726 -4.03665 -3.34896 0
M  V30 5183 H 500.2 -2.9473 -4.66732 0
M  V30 5184 H 500.677 -1.3199 -4.18898 0
M  V30 5185 H 501.283 -2.71781 -3.27131 0
M  V30 5186 N 499.598 0.982988 -1.23187 0
M  V30 5187 C 500.531 2.07302 -0.953993 0
M  V30 5188 C 501.509 1.62249 0.106753 0
M  V30 5189 O 502.693 1.88481 -0.0269525 0
M  V30 5190 C 499.82 3.35873 -0.436716 0
M  V30 5191 C 498.866 3.99862 -1.48367 0
M  V30 5192 S 499.699 4.39443 -3.06023 0
M  V30 5193 C 500.855 5.7117 -2.55959 0
M  V30 5194 H 501.088 2.30554 -1.87702 0
M  V30 5195 H 498.621 1.11883 -1.06403 0
M  V30 5196 H 500.579 4.10244 -0.144872 0
M  V30 5197 H 499.24 3.10634 0.465351 0
M  V30 5198 H 498.433 4.92471 -1.07182 0
M  V30 5199 H 498.035 3.31857 -1.72473 0
M  V30 5200 H 500.327 6.47977 -1.97818 0
M  V30 5201 H 501.27 6.17194 -3.47098 0
M  V30 5202 H 501.678 5.29046 -1.96902 0
M  V30 5203 N 501.076 1.04316 1.18135 0
M  V30 5204 C 502.487 0.775505 1.69832 0
M  V30 5205 C 502.838 -0.703348 1.8316 0
M  V30 5206 O 501.963 -1.54729 1.51287 0
M  V30 5207 C 502.558 1.40112 3.0847 0
M  V30 5208 C 501.117 1.18172 3.57368 0
M  V30 5209 C 500.264 1.49022 2.33854 0
M  V30 5210 H 503.215 1.20925 1.02775 0
M  V30 5211 H 503.236 0.805672 3.71873 0
M  V30 5212 H 502.748 2.47744 2.98738 0
M  V30 5213 H 500.849 0.124258 3.72393 0
M  V30 5214 H 500.962 1.8805 4.40652 0
M  V30 5215 H 499.326 0.909995 2.37889 0
M  V30 5216 H 500.109 2.57768 2.26738 0
M  V30 5217 N 502.554 -1.34406 0.822964 0
M  V30 5218 C 503.97 -1.51275 0.508727 0
M  V30 5219 C 504.17 -1.76776 -0.967083 0
M  V30 5220 O 503.226 -1.81871 -1.75155 0
M  V30 5221 C 504.539 -2.67765 1.36829 0
M  V30 5222 C 506.087 -2.81647 1.36542 0
M  V30 5223 C 506.562 -4.01181 2.20947 0
M  V30 5224 N 508.053 -4.08388 2.18571 0
M  V30 5225 C 508.788 -5.00036 2.80627 0
M  V30 5226 N 508.284 -5.96906 3.51674 0
M  V30 5227 N 510.077 -4.92908 2.70181 0
M  V30 5228 H 502.228 -1.16113 1.77852 0
M  V30 5229 H 504.491 -0.56947 0.757897 0
M  V30 5230 H 504.197 -2.55551 2.41633 0
M  V30 5231 H 504.071 -3.62779 1.03303 0
M  V30 5232 H 506.458 -2.93303 0.325163 0
M  V30 5233 H 506.539 -1.87443 1.74066 0
M  V30 5234 H 506.183 -3.90286 3.25022 0
M  V30 5235 H 506.113 -4.94599 1.80774 0
M  V30 5236 H 508.604 -3.39051 1.66891 0
M  V30 5237 H 508.917 -6.63468 3.96271 0
M  V30 5238 H 507.262 -5.9703 3.5578 0
M  V30 5239 H 510.453 -4.1619 2.14251 0
M  V30 5240 H 510.626 -5.64137 3.18831 0
M  V30 5241 N 504.032 -0.577932 -1.46621 0
M  V30 5242 C 505.28 -0.061566 -2.02006 0
M  V30 5243 C 505.601 1.30117 -1.4524 0
M  V30 5244 O 504.871 1.85313 -0.63529 0
M  V30 5245 H 503.451 -0.0197692 -0.746738 0
M  V30 5246 H 506.113 -0.752631 -1.79782 0
M  V30 5247 H 505.209 0.0110238 -3.12098 0
M  V30 5248 N 505.51 1.54411 -0.315457 0
M  V30 5249 C 506.473 2.22713 0.54142 0
M  V30 5250 C 507.473 1.2179 1.04995 0
M  V30 5251 O 508.663 1.46426 0.943667 0
M  V30 5252 C 505.795 2.92485 1.75116 0
M  V30 5253 H 506.988 2.99849 -0.0555508 0
M  V30 5254 H 504.541 1.56159 -0.0664453 0
M  V30 5255 H 505.276 2.19466 2.38758 0
M  V30 5256 H 505.061 3.66483 1.39401 0
M  V30 5257 H 506.551 3.44548 2.35959 0
M  V30 5258 N 506.988 0.0434614 1.5754 0
M  V30 5259 C 507.921 -0.968729 2.06618 0
M  V30 5260 C 508.899 -1.30868 0.965 0
M  V30 5261 O 510.083 -1.42288 1.23638 0
M  V30 5262 C 507.21 -2.28486 2.50023 0
M  V30 5263 C 506.256 -2.09851 3.71302 0
M  V30 5264 S 507.089 -1.38401 5.17306 0
M  V30 5265 C 508.245 -2.71354 5.64019 0
M  V30 5266 H 508.478 -0.551021 2.92149 0
M  V30 5267 H 506.011 -0.168607 1.53477 0
M  V30 5268 H 507.969 -3.04142 2.75695 0
M  V30 5269 H 506.63 -2.67387 1.64812 0
M  V30 5270 H 505.823 -3.07184 3.99567 0
M  V30 5271 H 505.425 -1.42336 3.45856 0
M  V30 5272 H 507.717 -3.67549 5.69134 0
M  V30 5273 H 508.66 -2.47734 6.6335 0
M  V30 5274 H 509.068 -2.77259 4.91719 0
M  V30 5275 N 508.466 -1.55915 -0.229846 0
M  V30 5276 C 509.696 -1.82352 -0.971152 0
M  V30 5277 C 510.104 -0.619231 -1.7878 0
M  V30 5278 O 509.447 0.421597 -1.78797 0
M  V30 5279 C 509.509 -3.02399 -1.9441 0
M  V30 5280 C 509.173 -4.37739 -1.31277 0
M  V30 5281 C 510.17 -5.15074 -0.706757 0
M  V30 5282 C 507.855 -4.84454 -1.32702 0
M  V30 5283 C 509.849 -6.37281 -0.123413 0
M  V30 5284 C 507.536 -6.06605 -0.739831 0
M  V30 5285 C 508.534 -6.82858 -0.139071 0
M  V30 5286 O 508.222 -8.027 0.439007 0
M  V30 5287 H 507.954 -0.61035 -0.290601 0
M  V30 5288 H 510.508 -2.03839 -0.252746 0
M  V30 5289 H 508.738 -2.76709 -2.70128 0
M  V30 5290 H 510.427 -3.15779 -2.55026 0
M  V30 5291 H 511.193 -4.80093 -0.688131 0
M  V30 5292 H 507.072 -4.25081 -1.78402 0
M  V30 5293 H 510.616 -6.96741 0.346124 0
M  V30 5294 H 506.513 -6.4106 -0.755841 0
M  V30 5295 H 507.281 -8.17824 0.332521 0
M  V30 5296 N 509.944 0.496216 -1.49584 0
M  V30 5297 C 510.874 1.60576 -1.69521 0
M  V30 5298 C 511.855 1.61169 -0.543933 0
M  V30 5299 O 513.04 1.77834 -0.78031 0
M  V30 5300 C 510.17 2.99038 -1.76616 0
M  V30 5301 C 509.124 3.13312 -2.91581 0
M  V30 5302 C 508.45 4.53172 -2.83794 0
M  V30 5303 C 509.75 2.92886 -4.32452 0
M  V30 5304 H 511.444 1.44146 -2.62416 0
M  V30 5305 H 508.99 0.692024 -1.26282 0
M  V30 5306 H 510.943 3.76564 -1.8915 0
M  V30 5307 H 509.667 3.16568 -0.80324 0
M  V30 5308 H 508.326 2.38213 -2.78658 0
M  V30 5309 H 507.974 4.67585 -1.854 0
M  V30 5310 H 507.674 4.63662 -3.60958 0
M  V30 5311 H 509.198 5.32752 -2.98342 0
M  V30 5312 H 510.612 3.60178 -4.46032 0
M  V30 5313 H 509.009 3.14844 -5.10875 0
M  V30 5314 H 510.079 1.88966 -4.46565 0
M  V30 5315 N 511.423 1.38739 0.74761 0
M  V30 5316 C 512.356 1.3083 1.86972 0
M  V30 5317 C 513.334 0.184229 1.61553 0
M  V30 5318 O 514.518 0.36256 1.8498 0
M  V30 5319 C 511.645 1.02854 3.22705 0
M  V30 5320 C 510.691 2.17281 3.67003 0
M  V30 5321 S 511.524 3.79468 3.77842 0
M  V30 5322 C 512.68 3.53692 5.16385 0
M  V30 5323 H 512.913 2.258 1.93395 0
M  V30 5324 H 510.446 1.24646 0.911199 0
M  V30 5325 H 512.404 0.87397 4.01089 0
M  V30 5326 H 511.065 0.0959295 3.13953 0
M  V30 5327 H 510.258 1.93267 4.65472 0
M  V30 5328 H 509.86 2.28876 2.9579 0
M  V30 5329 H 512.152 3.10176 6.02327 0
M  V30 5330 H 513.095 4.51576 5.45422 0
M  V30 5331 H 513.503 2.8807 4.85464 0
M  V30 5332 N 512.901 -0.976442 1.23707 0
M  V30 5333 C 514.126 -1.75875 1.09922 0
M  V30 5334 C 514.551 -1.84911 -0.34489 0
M  V30 5335 O 513.909 -1.31363 -1.24954 0
M  V30 5336 C 513.957 -3.16179 1.73388 0
M  V30 5337 O 513.061 -4.00124 0.99871 0
M  V30 5338 H 512.402 -0.540954 0.385052 0
M  V30 5339 H 514.932 -1.22546 1.6384 0
M  V30 5340 H 514.942 -3.66741 1.78788 0
M  V30 5341 H 513.617 -3.08917 2.78466 0
M  V30 5342 H 512.194 -3.58624 1.02193 0
M  V30 5343 N 514.379 -1.04941 -1.1758 0
M  V30 5344 C 515.795 -0.770282 -1.39781 0
M  V30 5345 C 515.995 0.636417 -1.91186 0
M  V30 5346 O 515.051 1.39923 -2.10185 0
M  V30 5347 C 516.364 -1.82376 -2.3908 0
M  V30 5348 C 517.912 -1.84569 -2.52791 0
M  V30 5349 C 518.387 -2.88933 -3.55361 0
M  V30 5350 N 519.878 -2.8788 -3.62877 0
M  V30 5351 C 520.613 -3.65282 -4.41992 0
M  V30 5352 N 520.109 -4.52461 -5.24643 0
M  V30 5353 N 521.902 -3.53732 -4.36841 0
M  V30 5354 H 514.053 -1.95705 -0.825438 0
M  V30 5355 H 516.316 -0.847284 -0.425222 0
M  V30 5356 H 516.022 -2.83323 -2.08376 0
M  V30 5357 H 515.896 -1.66327 -3.38549 0
M  V30 5358 H 518.283 -0.842879 -2.82807 0
M  V30 5359 H 518.364 -2.04696 -1.53406 0
M  V30 5360 H 518.008 -3.89398 -3.26085 0
M  V30 5361 H 517.938 -2.66059 -4.54445 0
M  V30 5362 H 520.429 -2.24666 -3.03864 0
M  V30 5363 H 520.742 -5.08211 -5.82187 0
M  V30 5364 H 519.087 -4.56524 -5.24033 0
M  V30 5365 H 522.278 -2.85021 -3.71323 0
M  V30 5366 H 522.451 -4.14302 -4.98255 0
M  V30 5367 N 515.857 1.33968 -0.830081 0
M  V30 5368 C 517.106 1.97323 -0.417928 0
M  V30 5369 C 517.419 1.6652 1.02618 0
M  V30 5370 O 518.625 2.2342 1.54259 0
M  V30 5371 C 517.081 3.53099 -0.696359 0
M  V30 5372 C 516.689 3.92788 -2.15457 0
M  V30 5373 C 518.433 4.23049 -0.350724 0
M  V30 5374 C 516.34 5.41506 -2.37751 0
M  V30 5375 H 515.27 0.738409 -0.152541 0
M  V30 5376 H 517.921 1.52711 -1.01744 0
M  V30 5377 H 516.303 3.95991 -0.0265904 0
M  V30 5378 H 517.477 3.6098 -2.86408 0
M  V30 5379 H 515.792 3.35795 -2.46232 0
M  V30 5380 H 518.389 5.32403 -0.495036 0
M  V30 5381 H 518.732 4.10279 0.705476 0
M  V30 5382 H 519.265 3.85657 -0.975362 0
M  V30 5383 H 516.004 5.5927 -3.41903 0
M  V30 5384 H 515.524 5.74804 -1.7135 0
M  V30 5385 H 517.203 6.0828 -2.20465 0
M  V30 5386 N 517.335 0.585699 1.46312 0
M  V30 5387 C 518.612 0.00542031 1.95599 0
M  V30 5388 C 518.992 -1.45619 1.52834 0
M  V30 5389 O 518.34 -2.14759 0.780446 0
M  V30 5390 C 518.55 0.180601 3.48532 0
M  V30 5391 C 519.898 0.049979 4.24571 0
M  V30 5392 O 520.922 0.109589 3.56031 0
M  V30 5393 O 519.781 -0.0832226 5.46437 0
M  V30 5394 H 516.875 -0.0481281 0.825598 0
M  V30 5395 H 519.421 0.654227 1.56582 0
M  V30 5396 H 518.193 1.19657 3.72556 0
M  V30 5397 H 517.816 -0.504498 3.94386 0
M  V30 5398 N 518.813 -1.54241 0.323641 0
M  V30 5399 C 519.743 -2.27289 -0.534993 0
M  V30 5400 C 520.724 -1.28087 -1.11927 0
M  V30 5401 O 521.909 -1.56899 -1.14439 0
M  V30 5402 C 519.039 -3.03075 -1.69596 0
M  V30 5403 C 517.993 -4.09614 -1.24098 0
M  V30 5404 C 517.319 -4.73242 -2.4889 0
M  V30 5405 C 518.619 -5.21087 -0.355789 0
M  V30 5406 H 520.313 -2.99308 0.0743257 0
M  V30 5407 H 517.859 -1.43952 0.0371874 0
M  V30 5408 H 519.812 -3.52907 -2.30293 0
M  V30 5409 H 518.536 -2.28673 -2.33187 0
M  V30 5410 H 517.195 -3.60666 -0.656945 0
M  V30 5411 H 516.843 -3.95455 -3.10845 0
M  V30 5412 H 516.543 -5.45209 -2.19138 0
M  V30 5413 H 518.067 -5.25848 -3.10348 0
M  V30 5414 H 519.481 -5.66675 -0.869042 0
M  V30 5415 H 517.878 -5.9991 -0.151045 0
M  V30 5416 H 518.948 -4.81005 0.613339 0
M  V30 5417 N 520.291 -0.0518155 -1.57515 0
M  V30 5418 C 521.201 0.937539 -2.15052 0
M  V30 5419 C 522.217 1.34121 -1.10849 0
M  V30 5420 O 523.393 1.418 -1.4302 0
M  V30 5421 C 520.458 2.19379 -2.68466 0
M  V30 5422 C 519.519 1.84841 -3.87469 0
M  V30 5423 C 518.752 3.04477 -4.38326 0
M  V30 5424 O 518.975 4.17868 -3.88256 0
M  V30 5425 O 517.909 2.85453 -5.29906 0
M  V30 5426 H 521.735 0.478201 -2.99912 0
M  V30 5427 H 519.32 0.17012 -1.48428 0
M  V30 5428 H 521.202 2.93084 -3.02787 0
M  V30 5429 H 519.877 2.64449 -1.86677 0
M  V30 5430 H 518.784 1.08449 -3.58036 0
M  V30 5431 H 520.117 1.44569 -4.7049 0
M  V30 5432 N 521.769 1.56035 0.221574 0
M  V30 5433 C 522.716 1.92413 1.27459 0
M  V30 5434 C 523.686 0.781323 1.46576 0
M  V30 5435 O 524.871 1.03721 1.60145 0
M  V30 5436 C 522.011 2.24617 2.61995 0
M  V30 5437 C 521.124 3.51831 2.50677 0
M  V30 5438 C 520.259 3.73482 3.77736 0
M  V30 5439 C 519.298 4.94211 3.6114 0
M  V30 5440 N 518.435 5.12252 4.80148 0
M  V30 5441 H 523.275 2.82203 0.957355 0
M  V30 5442 H 520.812 1.39676 0.461415 0
M  V30 5443 H 522.77 2.41298 3.40339 0
M  V30 5444 H 521.4 1.38 2.91815 0
M  V30 5445 H 520.452 3.43343 1.63767 0
M  V30 5446 H 521.764 4.40328 2.34334 0
M  V30 5447 H 520.918 3.9026 4.64523 0
M  V30 5448 H 519.657 2.83266 3.97003 0
M  V30 5449 H 518.662 4.77384 2.72736 0
M  V30 5450 H 519.887 5.85912 3.43343 0
M  V30 5451 H 517.833 4.24978 4.99729 0
M  V30 5452 H 517.75 5.94881 4.66532 0
M  V30 5453 H 519.018 5.33465 5.68362 0
M  V30 5454 N 523.247 -0.488276 1.49845 0
M  V30 5455 C 524.477 -1.26344 1.63465 0
M  V30 5456 C 524.885 -1.86637 0.310379 0
M  V30 5457 O 524.228 -1.69184 -0.715712 0
M  V30 5458 C 524.29 -2.42407 2.65479 0
M  V30 5459 C 523.954 -2.02886 4.09495 0
M  V30 5460 C 524.951 -1.56124 4.95904 0
M  V30 5461 C 522.636 -2.12131 4.55308 0
M  V30 5462 C 524.63 -1.19129 6.26169 0
M  V30 5463 C 522.317 -1.74747 5.85582 0
M  V30 5464 C 523.315 -1.28322 6.70837 0
M  V30 5465 O 523.003 -0.914491 7.98682 0
M  V30 5466 H 522.735 -0.388921 0.552916 0
M  V30 5467 H 525.289 -0.591288 1.96705 0
M  V30 5468 H 523.519 -3.12739 2.27445 0
M  V30 5469 H 525.208 -3.04409 2.68495 0
M  V30 5470 H 525.974 -1.48417 4.61733 0
M  V30 5471 H 521.853 -2.47217 3.89107 0
M  V30 5472 H 525.397 -0.828211 6.92666 0
M  V30 5473 H 521.294 -1.82109 6.19279 0
M  V30 5474 H 522.062 -1.04485 8.11804 0
M  V30 5475 N 524.725 -1.39134 -0.740242 0
M  V30 5476 C 526.141 -1.20623 -1.0451 0
M  V30 5477 C 526.341 -0.0641651 -2.01398 0
M  V30 5478 O 525.397 0.585843 -2.4561 0
M  V30 5479 C 526.71 -2.53815 -1.6124 0
M  V30 5480 C 528.258 -2.60615 -1.73346 0
M  V30 5481 C 528.733 -3.94015 -2.33486 0
M  V30 5482 N 530.224 -3.95627 -2.40902 0
M  V30 5483 C 530.959 -4.95616 -2.88361 0
M  V30 5484 N 530.455 -6.06003 -3.35756 0
M  V30 5485 N 532.248 -4.82998 -2.87523 0
M  V30 5486 H 524.399 -2.12176 -0.0975576 0
M  V30 5487 H 526.662 -0.942066 -0.105904 0
M  V30 5488 H 526.368 -3.37911 -0.975144 0
M  V30 5489 H 526.242 -2.73162 -2.6012 0
M  V30 5490 H 528.629 -1.76906 -2.36195 0
M  V30 5491 H 528.71 -2.45123 -0.731336 0
M  V30 5492 H 528.354 -4.78153 -1.71267 0
M  V30 5493 H 528.284 -4.06825 -3.34366 0
M  V30 5494 H 530.775 -3.15903 -2.07398 0
M  V30 5495 H 531.088 -6.78215 -3.70464 0
M  V30 5496 H 529.433 -6.09604 -3.33778 0
M  V30 5497 H 532.624 -3.95866 -2.49816 0
M  V30 5498 H 532.797 -5.61072 -3.24196 0
M  V30 5499 N 526.204 0.969867 -1.24223 0
M  V30 5500 C 527.481 1.68774 -0.988664 0
M  V30 5501 C 527.861 2.05342 0.489673 0
M  V30 5502 O 527.209 1.75486 1.46345 0
M  V30 5503 C 527.419 2.92135 -1.90941 0
M  V30 5504 C 528.767 3.64422 -2.17903 0
M  V30 5505 O 529.791 3.02188 -1.88576 0
M  V30 5506 O 528.65 4.76446 -2.67697 0
M  V30 5507 H 525.744 0.737736 -0.37373 0
M  V30 5508 H 528.29 1.02415 -1.35312 0
M  V30 5509 H 527.062 2.61788 -2.90831 0
M  V30 5510 H 526.685 3.66228 -1.54798 0
M  V30 5511 N 527.682 1.05563 1.17022 0
M  V30 5512 C 528.931 0.763036 1.8671 0
M  V30 5513 C 529.244 -0.712857 1.82147 0
M  V30 5514 O 530.45 -1.11955 2.47343 0
M  V30 5515 C 528.906 1.31474 3.35026 0
M  V30 5516 C 528.514 2.82034 3.48081 0
M  V30 5517 C 530.258 1.09935 4.10018 0
M  V30 5518 C 528.165 3.30486 4.90442 0
M  V30 5519 H 527.095 0.281747 0.699382 0
M  V30 5520 H 529.746 1.2734 1.32124 0
M  V30 5521 H 528.128 0.732171 3.89173 0
M  V30 5522 H 529.302 3.46178 3.04133 0
M  V30 5523 H 527.617 3.02156 2.86515 0
M  V30 5524 H 530.214 1.43632 5.15048 0
M  V30 5525 H 530.557 0.0373072 4.16283 0
M  V30 5526 H 531.09 1.64732 3.62089 0
M  V30 5527 H 527.829 4.36137 4.89352 0
M  V30 5528 H 527.349 2.71086 5.35044 0
M  V30 5529 H 529.028 3.25382 5.59227 0
M  V30 5530 N 529.16 -1.33526 0.837174 0
M  V30 5531 C 530.107 -2.29248 0.267169 0
M  V30 5532 C 531.077 -1.54252 -0.616071 0
M  V30 5533 O 532.262 -1.82559 -0.554699 0
M  V30 5534 C 529.402 -3.40638 -0.553152 0
M  V30 5535 C 528.515 -4.30548 0.353921 0
M  V30 5536 C 527.65 -5.29051 -0.477339 0
M  V30 5537 C 526.689 -6.106 0.42823 0
M  V30 5538 N 525.826 -7.01152 -0.364801 0
M  V30 5539 H 530.666 -2.77398 1.08877 0
M  V30 5540 H 528.203 -1.36496 0.54838 0
M  V30 5541 H 530.161 -4.03921 -1.04422 0
M  V30 5542 H 528.791 -2.93685 -1.33973 0
M  V30 5543 H 527.843 -3.68001 0.963289 0
M  V30 5544 H 529.155 -4.87631 1.04964 0
M  V30 5545 H 528.309 -5.97853 -1.0323 0
M  V30 5546 H 527.048 -4.72541 -1.2065 0
M  V30 5547 H 526.053 -5.40718 0.995219 0
M  V30 5548 H 527.278 -6.69193 1.15573 0
M  V30 5549 H 525.224 -6.47092 -1.07738 0
M  V30 5550 H 525.141 -7.5551 0.272238 0
M  V30 5551 H 526.409 -7.74263 -0.902054 0
M  V30 5552 N 530.638 -0.59345 -1.46 0
M  V30 5553 C 531.866 -0.0890934 -2.06708 0
M  V30 5554 C 532.281 1.2205 -1.44046 0
M  V30 5555 O 531.638 1.74029 -0.549551 0
M  V30 5556 C 531.689 0.0720263 -3.61428 0
M  V30 5557 O 531.41 -1.18574 -4.21748 0
M  V30 5558 C 532.911 0.609487 -4.3909 0
M  V30 5559 H 530.131 -0.0623628 -0.668096 0
M  V30 5560 H 532.675 -0.817171 -1.87464 0
M  V30 5561 H 530.83 0.750369 -3.80063 0
M  V30 5562 H 531.244 -1.0064 -5.14754 0
M  V30 5563 H 532.718 0.671363 -5.47902 0
M  V30 5564 H 533.195 1.62878 -4.07882 0
M  V30 5565 H 533.801 -0.03434 -4.25286 0
M  V30 5566 N 532.116 1.54067 -0.331816 0
M  V30 5567 C 533.393 1.92915 0.322955 0
M  V30 5568 C 533.773 1.26225 1.69205 0
M  V30 5569 O 533.121 0.408919 2.24811 0
M  V30 5570 C 533.331 3.46619 0.406946 0
M  V30 5571 C 534.679 4.19386 0.663339 0
M  V30 5572 O 535.703 3.5282 0.489536 0
M  V30 5573 O 534.562 5.37288 0.999193 0
M  V30 5574 H 531.656 0.805808 0.186016 0
M  V30 5575 H 534.202 1.65342 -0.382135 0
M  V30 5576 H 532.974 3.87354 -0.554287 0
M  V30 5577 H 532.597 3.80324 1.15929 0
M  V30 5578 N 533.594 0.0601682 1.57485 0
M  V30 5579 C 534.84 -0.612501 1.93329 0
M  V30 5580 C 535.173 -1.6996 0.939526 0
M  V30 5581 O 534.448 -1.94472 -0.0330957 0
M  V30 5582 C 534.731 -1.20025 3.39508 0
M  V30 5583 C 534.584 -0.12059 4.49638 0
M  V30 5584 C 535.903 -2.10923 3.86264 0
M  V30 5585 H 533.022 -0.221185 0.703027 0
M  V30 5586 H 535.664 0.123768 1.89596 0
M  V30 5587 H 533.814 -1.82774 3.42821 0
M  V30 5588 H 535.486 0.51185 4.58452 0
M  V30 5589 H 533.729 0.550251 4.30296 0
M  V30 5590 H 534.4 -0.572019 5.49028 0
M  V30 5591 H 536.876 -1.58124 3.84884 0
M  V30 5592 H 535.752 -2.48987 4.8918 0
M  V30 5593 H 536.013 -3.01292 3.23536 0
M  V30 5594 N 535.072 -1.5615 -0.213296 0
M  V30 5595 C 535.982 -1.96265 -1.28519 0
M  V30 5596 C 536.998 -0.86765 -1.50824 0
M  V30 5597 O 538.174 -1.17191 -1.63793 0
M  V30 5598 C 535.239 -2.27836 -2.61327 0
M  V30 5599 C 534.3 -3.50949 -2.47252 0
M  V30 5600 C 533.533 -3.81004 -3.73727 0
M  V30 5601 O 533.756 -3.12612 -4.77106 0
M  V30 5602 O 532.69 -4.74477 -3.70344 0
M  V30 5603 H 536.516 -2.87631 -0.974795 0
M  V30 5604 H 534.101 -1.43467 -0.416832 0
M  V30 5605 H 535.983 -2.49299 -3.39747 0
M  V30 5606 H 534.658 -1.39643 -2.9203 0
M  V30 5607 H 533.565 -3.34754 -1.67004 0
M  V30 5608 H 534.898 -4.39551 -2.21486 0
M  V30 5609 N 536.55 0.480323 -1.50102 0
M  V30 5610 C 537.797 1.23307 -1.60629 0
M  V30 5611 C 538.125 1.92135 -0.302375 0
M  V30 5612 O 537.38 1.82321 0.711154 0
M  V30 5613 C 537.679 2.30708 -2.72963 0
M  V30 5614 C 537.345 1.79195 -4.13763 0
M  V30 5615 C 536.007 1.64867 -4.52076 0
M  V30 5616 C 538.359 1.40878 -5.018 0
M  V30 5617 C 535.687 1.10631 -5.76175 0
M  V30 5618 C 538.039 0.880872 -6.26437 0
M  V30 5619 C 536.703 0.724146 -6.6356 0
M  V30 5620 H 535.973 0.451211 -0.587784 0
M  V30 5621 H 538.62 0.53051 -1.84005 0
M  V30 5622 H 536.925 3.06834 -2.43639 0
M  V30 5623 H 538.622 2.88692 -2.78313 0
M  V30 5624 H 535.212 1.91313 -3.83533 0
M  V30 5625 H 539.396 1.50786 -4.7284 0
M  V30 5626 H 534.652 0.972263 -6.0362 0
M  V30 5627 H 538.826 0.575269 -6.9402 0
M  V30 5628 H 536.453 0.301722 -7.59601 0
M  V30 5629 N 538.028 1.39524 0.732853 0
M  V30 5630 C 539.275 1.36865 1.49246 0
M  V30 5631 C 539.603 -0.0347118 1.94469 0
M  V30 5632 O 538.858 -1.01596 1.67262 0
M  V30 5633 C 539.157 2.28916 2.74468 0
M  V30 5634 C 538.823 3.76506 2.481 0
M  V30 5635 C 537.485 4.16721 2.40619 0
M  V30 5636 C 539.837 4.69846 2.25598 0
M  V30 5637 C 537.165 5.48334 2.08679 0
M  V30 5638 C 539.517 6.01739 1.95174 0
M  V30 5639 C 538.181 6.41015 1.86163 0
M  V30 5640 H 537.451 0.500824 0.546129 0
M  V30 5641 H 540.098 1.72047 0.840958 0
M  V30 5642 H 538.403 1.86859 3.4437 0
M  V30 5643 H 540.1 2.2415 3.32502 0
M  V30 5644 H 536.69 3.44635 2.54803 0
M  V30 5645 H 540.874 4.39608 2.30344 0
M  V30 5646 H 536.13 5.77685 2.00226 0
M  V30 5647 H 540.304 6.73591 1.76771 0
M  V30 5648 H 537.931 7.42917 1.61179 0
M  V30 5649 N 539.506 -0.963266 1.24736 0
M  V30 5650 C 540.416 -2.09246 1.06082 0
M  V30 5651 C 541.432 -1.74 0.000363101 0
M  V30 5652 O 542.608 -2.0041 0.199479 0
M  V30 5653 C 539.673 -3.40115 0.672498 0
M  V30 5654 C 538.734 -3.89282 1.80993 0
M  V30 5655 C 537.967 -5.13905 1.44004 0
M  V30 5656 O 538.19 -5.69434 0.331835 0
M  V30 5657 O 537.124 -5.57566 2.26723 0
M  V30 5658 H 540.95 -2.27881 2.00759 0
M  V30 5659 H 538.535 -1.07649 1.03595 0
M  V30 5660 H 540.417 -4.18797 0.467668 0
M  V30 5661 H 539.092 -3.22771 -0.245102 0
M  V30 5662 H 537.999 -3.11642 2.06955 0
M  V30 5663 H 539.332 -4.1111 2.70646 0
M  V30 5664 N 540.985 -1.06182 -1.16461 0
M  V30 5665 C 541.932 -0.671613 -2.20812 0
M  V30 5666 C 542.902 0.331186 -1.62765 0
M  V30 5667 O 544.087 0.22033 -1.89524 0
M  V30 5668 C 541.227 -0.063029 -3.45042 0
M  V30 5669 C 540.34 -1.11587 -4.1734 0
M  V30 5670 C 539.475 -0.473546 -5.29085 0
M  V30 5671 C 538.514 -1.51 -5.93182 0
M  V30 5672 N 537.651 -0.891118 -6.96422 0
M  V30 5673 H 542.491 -1.56589 -2.53542 0
M  V30 5674 H 540.028 -0.782951 -1.24532 0
M  V30 5675 H 541.986 0.307344 -4.16066 0
M  V30 5676 H 540.616 0.794663 -3.12866 0
M  V30 5677 H 539.668 -1.60396 -3.44931 0
M  V30 5678 H 540.98 -1.90221 -4.61104 0
M  V30 5679 H 540.134 -0.0501432 -6.06679 0
M  V30 5680 H 538.873 0.344687 -4.8648 0
M  V30 5681 H 537.878 -1.94331 -5.14311 0
M  V30 5682 H 539.103 -2.33031 -6.37866 0
M  V30 5683 H 537.049 -0.0935753 -6.55933 0
M  V30 5684 H 536.966 -1.61486 -7.38551 0
M  V30 5685 H 538.234 -0.492822 -7.77941 0
M  V30 5686 N 542.463 1.3308 -0.844243 0
M  V30 5687 C 543.393 2.3161 -0.296493 0
M  V30 5688 C 544.374 1.59215 0.598707 0
M  V30 5689 O 545.559 1.87077 0.521134 0
M  V30 5690 C 542.689 3.43313 0.524762 0
M  V30 5691 C 541.643 4.27115 -0.275106 0
M  V30 5692 C 540.969 5.30483 0.670236 0
M  V30 5693 C 542.269 5.00443 -1.49514 0
M  V30 5694 H 543.963 2.77672 -1.11976 0
M  V30 5695 H 541.509 1.33496 -0.539899 0
M  V30 5696 H 543.462 4.11273 0.918298 0
M  V30 5697 H 542.186 2.95952 1.3813 0
M  V30 5698 H 540.845 3.60787 -0.650267 0
M  V30 5699 H 540.493 4.79379 1.52332 0
M  V30 5700 H 540.193 5.87435 0.139123 0
M  V30 5701 H 541.717 6.01308 1.06117 0
M  V30 5702 H 543.131 5.61141 -1.17447 0
M  V30 5703 H 541.528 5.67071 -1.96343 0
M  V30 5704 H 542.598 4.28906 -2.26202 0
M  V30 5705 N 543.941 0.601185 1.45683 0
M  V30 5706 C 544.871 -0.108824 2.33246 0
M  V30 5707 C 545.852 -0.865223 1.46451 0
M  V30 5708 O 547.037 -0.83704 1.75235 0
M  V30 5709 C 544.167 -1.11101 3.2905 0
M  V30 5710 C 543.121 -0.468244 4.25431 0
M  V30 5711 C 542.447 -1.57822 5.10878 0
M  V30 5712 C 543.747 0.606469 5.18767 0
M  V30 5713 H 545.441 0.622306 2.92861 0
M  V30 5714 H 542.987 0.300714 1.40825 0
M  V30 5715 H 544.94 -1.61622 3.89174 0
M  V30 5716 H 543.664 -1.87265 2.67581 0
M  V30 5717 H 542.323 0.0160484 3.66596 0
M  V30 5718 H 541.971 -2.32998 4.45781 0
M  V30 5719 H 541.671 -1.15369 5.76163 0
M  V30 5720 H 543.195 -2.08583 5.73869 0
M  V30 5721 H 544.609 0.185589 5.73 0
M  V30 5722 H 543.006 0.952381 5.92494 0
M  V30 5723 H 544.076 1.48559 4.61582 0
M  V30 5724 N 545.419 -1.53889 0.339982 0
M  V30 5725 C 546.329 -2.28604 -0.526988 0
M  V30 5726 C 547.345 -1.33578 -1.11503 0
M  V30 5727 O 548.521 -1.66612 -1.13148 0
M  V30 5728 C 545.586 -3.04164 -1.66389 0
M  V30 5729 C 544.647 -4.14809 -1.10599 0
M  V30 5730 C 543.88 -4.86756 -2.18871 0
M  V30 5731 O 544.103 -4.58343 -3.39526 0
M  V30 5732 O 543.037 -5.73289 -1.83366 0
M  V30 5733 H 546.863 -3.03594 0.0802707 0
M  V30 5734 H 544.448 -1.4903 0.105141 0
M  V30 5735 H 546.33 -3.51427 -2.32544 0
M  V30 5736 H 545.005 -2.32035 -2.25703 0
M  V30 5737 H 543.912 -3.71857 -0.409067 0
M  V30 5738 H 545.245 -4.89029 -0.557771 0
M  V30 5739 N 546.897 -0.0685191 -1.57451 0
M  V30 5740 C 547.807 0.914677 -2.16034 0
M  V30 5741 C 548.823 1.32938 -1.12265 0
M  V30 5742 O 549.999 1.40275 -1.44516 0
M  V30 5743 C 547.064 2.16519 -2.70777 0
M  V30 5744 C 546.125 1.80721 -3.89408 0
M  V30 5745 C 545.358 2.9981 -4.41531 0
M  V30 5746 O 545.581 4.13727 -3.92666 0
M  V30 5747 O 544.515 2.79817 -5.32903 0
M  V30 5748 H 548.341 0.446364 -3.00402 0
M  V30 5749 H 545.926 0.154367 -1.486 0
M  V30 5750 H 547.808 2.89856 -3.05878 0
M  V30 5751 H 546.483 2.62454 -1.89471 0
M  V30 5752 H 545.39 1.04646 -3.59166 0
M  V30 5753 H 546.723 1.39571 -4.71997 0
M  V30 5754 N 548.375 1.56261 0.205012 0
M  V30 5755 C 549.285 1.96944 1.27476 0
M  V30 5756 C 550.301 0.875636 1.50362 0
M  V30 5757 O 551.477 1.18058 1.6317 0
M  V30 5758 C 548.542 2.29219 2.60115 0
M  V30 5759 C 547.603 3.52255 2.45387 0
M  V30 5760 C 546.836 3.8298 3.71701 0
M  V30 5761 O 547.059 3.15138 4.75441 0
M  V30 5762 O 545.993 4.76435 3.67823 0
M  V30 5763 H 549.819 2.88144 0.959527 0
M  V30 5764 H 547.404 1.43686 0.409217 0
M  V30 5765 H 549.286 2.51098 3.3842 0
M  V30 5766 H 547.961 1.4119 2.91285 0
M  V30 5767 H 546.868 3.35635 1.65227 0
M  V30 5768 H 548.201 4.40719 2.19152 0
M  V30 5769 N 549.853 -0.472356 1.50355 0
M  V30 5770 C 550.801 -1.59126 1.69651 0
M  V30 5771 C 551.795 -1.59793 0.56237 0
M  V30 5772 O 553.001 -1.63957 0.742832 0
M  V30 5773 H 549.376 -0.528008 0.535454 0
M  V30 5774 H 551.347 -1.40013 2.63513 0
M  V30 5775 C 550.096 -2.97075 1.8067 0
M  V30 5776 H 549.419 -2.9728 2.67329 0
M  V30 5777 H 550.859 -3.74825 1.98197 0
M  V30 5778 C 549.318 -3.32247 0.558016 0
M  V30 5779 O 549.848 -4.00553 -0.303399 0
M  V30 5780 N 548.054 -2.87659 0.412415 0
M  V30 5781 H 547.601 -2.32246 1.11443 0
M  V30 5782 H 547.559 -3.11556 -0.421908 0
M  V30 5783 N 551.331 -1.39911 -0.725443 0
M  V30 5784 C 552.577 -1.37858 -1.48738 0
M  V30 5785 C 552.91 0.0224187 -1.94187 0
M  V30 5786 O 552.185 0.989204 -1.67466 0
M  V30 5787 C 552.468 -2.3594 -2.72038 0
M  V30 5788 C 552.321 -3.85023 -2.32546 0
M  V30 5789 C 553.64 -2.31704 -3.74167 0
M  V30 5790 H 550.759 -0.502074 -0.539528 0
M  V30 5791 H 553.401 -1.70974 -0.828728 0
M  V30 5792 H 551.551 -2.0783 -3.28236 0
M  V30 5793 H 553.223 -4.2392 -1.81905 0
M  V30 5794 H 551.466 -4.01334 -1.64661 0
M  V30 5795 H 552.137 -4.49152 -3.20884 0
M  V30 5796 H 554.613 -2.5658 -3.27576 0
M  V30 5797 H 553.489 -3.02395 -4.58092 0
M  V30 5798 H 553.75 -1.3253 -4.21768 0
M  V30 5799 N 552.809 0.956637 -1.25245 0
M  V30 5800 C 553.741 2.05628 -1.01242 0
M  V30 5801 C 554.754 1.62785 0.0219579 0
M  V30 5802 O 555.943 1.77184 -0.216365 0
M  V30 5803 C 553.043 3.35069 -0.508161 0
M  V30 5804 C 552.216 4.06761 -1.60823 0
M  V30 5805 C 551.275 5.14473 -1.1047 0
M  V30 5806 O 550.301 5.40033 -1.79868 0
M  V30 5807 N 551.503 5.80474 0.0550773 0
M  V30 5808 H 554.268 2.2679 -1.95925 0
M  V30 5809 H 551.829 1.12505 -1.16423 0
M  V30 5810 H 553.821 4.044 -0.155819 0
M  V30 5811 H 552.391 3.10694 0.344683 0
M  V30 5812 H 551.611 3.31555 -2.13224 0
M  V30 5813 H 552.899 4.51418 -2.34733 0
M  V30 5814 H 552.297 5.62125 0.635004 0
M  V30 5815 H 550.854 6.50868 0.348469 0
M  V30 5816 N 554.287 1.06798 1.15896 0
M  V30 5817 C 555.533 0.788934 1.86825 0
M  V30 5818 C 555.866 -0.683084 1.8179 0
M  V30 5819 O 555.141 -1.50086 1.23711 0
M  V30 5820 C 555.424 1.29065 3.36176 0
M  V30 5821 C 555.277 2.8268 3.49874 0
M  V30 5822 C 556.596 0.902655 4.30744 0
M  V30 5823 H 553.715 0.288066 0.678371 0
M  V30 5824 H 556.357 1.32479 1.36195 0
M  V30 5825 H 554.507 0.834806 3.79425 0
M  V30 5826 H 556.179 3.36511 3.15528 0
M  V30 5827 H 554.422 3.21157 2.91617 0
M  V30 5828 H 555.093 3.12852 4.54783 0
M  V30 5829 H 557.569 1.29535 3.95424 0
M  V30 5830 H 556.445 1.28111 5.3374 0
M  V30 5831 H 556.706 -0.191951 4.41683 0
M  V30 5832 N 555.766 -1.3263 0.851289 0
M  V30 5833 C 556.696 -2.31449 0.308771 0
M  V30 5834 C 557.677 -1.59531 -0.590255 0
M  V30 5835 O 558.862 -1.87351 -0.511205 0
M  V30 5836 C 555.992 -3.43586 -0.506548 0
M  V30 5837 C 554.946 -4.26963 0.297753 0
M  V30 5838 C 554.272 -5.30831 -0.642094 0
M  V30 5839 C 555.572 -4.99643 1.52166 0
M  V30 5840 H 557.266 -2.77074 1.13447 0
M  V30 5841 H 554.812 -1.33207 0.546971 0
M  V30 5842 H 556.765 -4.11754 -0.896474 0
M  V30 5843 H 555.489 -2.96681 -1.36558 0
M  V30 5844 H 554.148 -3.60437 0.669391 0
M  V30 5845 H 553.796 -4.8018 -1.49788 0
M  V30 5846 H 553.496 -5.87501 -0.107968 0
M  V30 5847 H 555.02 -6.01862 -1.02927 0
M  V30 5848 H 556.434 -5.6051 1.20421 0
M  V30 5849 H 554.831 -5.66022 1.99347 0
M  V30 5850 H 555.901 -4.27701 2.28474 0
M  V30 5851 N 557.244 -0.608902 -1.45362 0
M  V30 5852 C 558.655 -0.189511 -1.85736 0
M  V30 5853 C 559.006 1.2539 -1.50903 0
M  V30 5854 O 558.131 1.95094 -0.936347 0
M  V30 5855 C 558.726 -0.33716 -3.37118 0
M  V30 5856 C 557.285 0.0275487 -3.7639 0
M  V30 5857 C 556.432 -0.660983 -2.69307 0
M  V30 5858 H 559.383 -0.815499 -1.36144 0
M  V30 5859 H 559.404 0.430257 -3.7806 0
M  V30 5860 H 558.916 -1.38779 -3.62439 0
M  V30 5861 H 557.017 1.0773 -3.56686 0
M  V30 5862 H 557.13 -0.367018 -4.77692 0
M  V30 5863 H 555.494 -0.0984958 -2.54509 0
M  V30 5864 H 556.277 -1.71377 -2.97464 0
M  V30 5865 N 558.722 1.53707 -0.348139 0
M  V30 5866 C 559.97 2.00591 0.246478 0
M  V30 5867 C 560.291 1.23753 1.50699 0
M  V30 5868 O 559.561 0.345964 1.92821 0
M  V30 5869 H 558.141 0.741053 0.0940679 0
M  V30 5870 H 560.803 1.89139 -0.470354 0
M  V30 5871 H 559.899 3.08297 0.485714 0
M  V30 5872 N 560.2 0.0768682 1.57412 0
M  V30 5873 C 561.428 -0.59997 1.9801 0
M  V30 5874 C 561.843 -1.62842 0.955408 0
M  V30 5875 O 561.2 -1.8241 -0.057314 0
M  V30 5876 C 561.251 -1.26401 3.38681 0
M  V30 5877 O 560.972 -0.276723 4.37225 0
M  V30 5878 C 562.473 -2.0282 3.94182 0
M  V30 5879 H 559.693 -0.162239 0.651091 0
M  V30 5880 H 562.237 0.150771 2.03943 0
M  V30 5881 H 560.392 -1.96581 3.33819 0
M  V30 5882 H 560.806 -0.753744 5.19056 0
M  V30 5883 H 562.28 -2.44667 4.94815 0
M  V30 5884 H 562.757 -2.88678 3.31001 0
M  V30 5885 H 563.363 -1.37496 4.02461 0
M  V30 5886 N 561.678 -1.56367 -0.196722 0
M  V30 5887 C 562.927 -1.79724 -0.915539 0
M  V30 5888 C 563.24 -0.649804 -1.84491 0
M  V30 5889 O 564.446 -0.767631 -2.60422 0
M  V30 5890 C 562.902 -3.18369 -1.67836 0
M  V30 5891 C 562.51 -4.4091 -0.793897 0
M  V30 5892 C 564.254 -3.51037 -2.38691 0
M  V30 5893 C 562.161 -5.70577 -1.55549 0
M  V30 5894 H 561.091 -0.67013 -0.345604 0
M  V30 5895 H 563.742 -1.82721 -0.168856 0
M  V30 5896 H 562.124 -3.09617 -2.46887 0
M  V30 5897 H 563.298 -4.60781 -0.042163 0
M  V30 5898 H 561.613 -4.15937 -0.19626 0
M  V30 5899 H 564.21 -4.4515 -2.96219 0
M  V30 5900 H 564.553 -2.74704 -3.12799 0
M  V30 5901 H 565.086 -3.61229 -1.66608 0
M  V30 5902 H 561.825 -6.49871 -0.857226 0
M  V30 5903 H 561.345 -5.54726 -2.2812 0
M  V30 5904 H 563.024 -6.11637 -2.10971 0
M  V30 5905 N 563.156 0.464375 -1.50603 0
M  V30 5906 C 564.403 1.21596 -1.61928 0
M  V30 5907 C 564.731 1.91804 -0.322737 0
M  V30 5908 O 563.986 1.83065 0.691776 0
M  V30 5909 C 564.285 2.278 -2.75394 0
M  V30 5910 C 563.951 1.74797 -4.1564 0
M  V30 5911 C 562.613 1.60063 -4.53799 0
M  V30 5912 C 564.965 1.35548 -5.03266 0
M  V30 5913 C 562.293 1.04514 -5.77316 0
M  V30 5914 C 564.645 0.814381 -6.27336 0
M  V30 5915 C 563.309 0.653726 -6.64291 0
M  V30 5916 H 562.579 0.444951 -0.592536 0
M  V30 5917 H 565.226 0.510964 -1.84557 0
M  V30 5918 H 563.531 3.04233 -2.46879 0
M  V30 5919 H 565.228 2.85723 -2.81359 0
M  V30 5920 H 561.818 1.87234 -3.8554 0
M  V30 5921 H 566.002 1.45763 -4.74412 0
M  V30 5922 H 561.258 0.908186 -6.04617 0
M  V30 5923 H 565.432 0.501626 -6.94591 0
M  V30 5924 H 563.059 0.22114 -7.59878 0
M  V30 5925 N 564.634 1.40294 0.718013 0
M  V30 5926 C 565.584 1.36847 1.82365 0
M  V30 5927 C 566.568 0.246424 1.59002 0
M  V30 5928 O 567.76 0.485336 1.70216 0
M  V30 5929 C 564.889 1.23105 3.20469 0
M  V30 5930 C 563.975 2.4008 3.49603 0
M  V30 5931 N 564.366 3.65562 3.49568 0
M  V30 5932 C 562.664 2.33407 3.80049 0
M  V30 5933 C 563.365 4.43015 3.76978 0
M  V30 5934 N 562.341 3.72823 3.95606 0
M  V30 5935 H 566.143 2.31811 1.80668 0
M  V30 5936 H 563.657 1.34031 0.91703 0
M  V30 5937 H 565.654 1.18718 3.9964 0
M  V30 5938 H 564.314 0.291056 3.23393 0
M  V30 5939 H 565.325 3.98756 3.30476 0
M  V30 5940 H 562.002 1.47762 3.90478 0
M  V30 5941 H 563.392 5.51859 3.83276 0
M  V30 5942 N 566.112 -0.949982 1.2575 0
M  V30 5943 C 567.075 -2.02894 1.06615 0
M  V30 5944 C 568.075 -1.60791 0.0173905 0
M  V30 5945 O 569.265 -1.72249 0.260003 0
M  V30 5946 C 566.397 -3.35219 0.619751 0
M  V30 5947 H 567.59 -2.21302 2.02399 0
M  V30 5948 H 565.143 -1.12772 1.08223 0
M  V30 5949 H 565.878 -3.22508 -0.340486 0
M  V30 5950 H 565.663 -3.67129 1.37692 0
M  V30 5951 H 567.153 -4.14505 0.507443 0
M  V30 5952 N 567.59 -1.07411 -1.15328 0
M  V30 5953 C 569.001 -0.820261 -1.67716 0
M  V30 5954 C 569.352 0.654539 -1.8496 0
M  V30 5955 O 568.477 1.50664 -1.55337 0
M  V30 5956 C 569.072 -1.48242 -3.04647 0
M  V30 5957 C 567.631 -1.27606 -3.5411 0
M  V30 5958 C 566.778 -1.5517 -2.29821 0
M  V30 5959 H 569.729 -1.23608 -0.995332 0
M  V30 5960 H 569.75 -0.903984 -3.69606 0
M  V30 5961 H 569.262 -2.55578 -2.92064 0
M  V30 5962 H 567.363 -0.222948 -3.71932 0
M  V30 5963 H 567.476 -1.99667 -4.35511 0
M  V30 5964 H 565.84 -0.972747 -2.35393 0
M  V30 5965 H 566.623 -2.63689 -2.19824 0
M  V30 5966 N 569.068 1.32177 -0.85831 0
M  V30 5967 C 570.316 1.96735 -0.462568 0
M  V30 5968 C 570.637 1.6824 0.985911 0
M  V30 5969 O 569.907 0.991564 1.68952 0
M  V30 5970 H 568.487 0.727849 -0.168064 0
M  V30 5971 H 571.149 1.61195 -1.09554 0
M  V30 5972 H 570.245 3.06068 -0.610647 0
M  V30 5973 N 570.547 0.616602 1.45037 0
M  V30 5974 C 571.794 0.115331 2.02171 0
M  V30 5975 C 572.122 -1.25748 1.48383 0
M  V30 5976 O 571.377 -1.84511 0.652229 0
M  V30 5977 C 571.676 0.0356829 3.57382 0
M  V30 5978 C 571.342 1.34535 4.30362 0
M  V30 5979 C 570.004 1.70408 4.50016 0
M  V30 5980 C 572.356 2.21049 4.72003 0
M  V30 5981 C 569.684 2.92529 5.0857 0
M  V30 5982 C 572.036 3.42427 5.31908 0
M  V30 5983 C 570.7 3.78541 5.49784 0
M  V30 5984 H 569.97 0.0422024 0.739797 0
M  V30 5985 H 572.617 0.80002 1.73988 0
M  V30 5986 H 570.922 -0.732314 3.84895 0
M  V30 5987 H 572.619 -0.368463 3.99304 0
M  V30 5988 H 569.209 1.05615 4.15383 0
M  V30 5989 H 573.393 1.94632 4.56544 0
M  V30 5990 H 568.649 3.20605 5.20598 0
M  V30 5991 H 572.823 4.09709 5.63127 0
M  V30 5992 H 570.45 4.73255 5.94923 0
M  V30 5993 N 572.025 -1.5352 0.356285 0
M  V30 5994 C 573.253 -2.05534 -0.237328 0
M  V30 5995 C 573.668 -1.23043 -1.43199 0
M  V30 5996 O 573.025 -0.268821 -1.80509 0
M  V30 5997 C 573.076 -3.55791 -0.639933 0
M  V30 5998 O 572.797 -4.35154 0.507233 0
M  V30 5999 C 574.298 -4.24027 -1.29292 0
M  V30 6000 H 571.518 -0.669585 -0.0435572 0
M  V30 6001 H 574.062 -1.97988 0.511963 0
M  V30 6002 H 572.217 -3.63518 -1.33915 0
M  V30 6003 H 572.631 -5.24178 0.18375 0
M  V30 6004 H 574.105 -5.30509 -1.52527 0
M  V30 6005 H 574.582 -3.77166 -2.25039 0
M  V30 6006 H 575.188 -4.20527 -0.63539 0
M  V30 6007 N 573.503 -0.0852151 -1.57369 0
M  V30 6008 C 574.919 0.271436 -1.57275 0
M  V30 6009 C 575.119 1.69109 -1.09565 0
M  V30 6010 O 574.175 2.40549 -0.767611 0
M  V30 6011 C 575.488 0.0688638 -3.00621 0
M  V30 6012 C 577.036 0.137373 -3.12698 0
M  V30 6013 C 577.511 -0.0370832 -4.57985 0
M  V30 6014 N 579.002 0.0180794 -4.63196 0
M  V30 6015 C 579.737 -0.0922953 -5.73326 0
M  V30 6016 N 579.233 -0.256948 -6.92323 0
M  V30 6017 N 581.026 -0.0342702 -5.6209 0
M  V30 6018 H 573.177 -1.01288 -1.86693 0
M  V30 6019 H 575.44 -0.396138 -0.861266 0
M  V30 6020 H 575.146 -0.911277 -3.39689 0
M  V30 6021 H 575.02 0.815442 -3.6828 0
M  V30 6022 H 577.407 1.10801 -2.73509 0
M  V30 6023 H 577.488 -0.640532 -2.47651 0
M  V30 6024 H 577.132 -1.00455 -4.97867 0
M  V30 6025 H 577.062 0.760392 -5.21081 0
M  V30 6026 H 579.553 0.143202 -3.77629 0
M  V30 6027 H 579.866 -0.332949 -7.72082 0
M  V30 6028 H 578.211 -0.292487 -6.94384 0
M  V30 6029 H 581.402 0.0931605 -4.68007 0
M  V30 6030 H 581.575 -0.12374 -6.47882 0
M  V30 6031 N 574.981 1.5647 0.188427 0
M  V30 6032 C 575.911 1.98101 1.23606 0
M  V30 6033 C 576.892 0.853961 1.47111 0
M  V30 6034 O 578.077 1.11879 1.58735 0
M  V30 6035 C 575.207 2.32624 2.57882 0
M  V30 6036 C 574.161 3.48129 2.48978 0
M  V30 6037 C 573.487 3.68347 3.87588 0
M  V30 6038 C 574.787 4.82112 2.00911 0
M  V30 6039 H 576.481 2.85864 0.890068 0
M  V30 6040 H 574.027 1.37532 0.426714 0
M  V30 6041 H 575.98 2.60343 3.3136 0
M  V30 6042 H 574.704 1.41751 2.94235 0
M  V30 6043 H 573.363 3.20511 1.77956 0
M  V30 6044 H 573.011 2.74793 4.21305 0
M  V30 6045 H 572.711 4.46055 3.82503 0
M  V30 6046 H 574.235 3.98449 4.62678 0
M  V30 6047 H 575.649 5.08819 2.64151 0
M  V30 6048 H 574.046 5.63337 2.06814 0
M  V30 6049 H 575.116 4.75249 0.96262 0
M  V30 6050 N 576.459 -0.456382 1.50847 0
M  V30 6051 C 577.687 -1.23026 1.66349 0
M  V30 6052 C 578.102 -1.85473 0.352868 0
M  V30 6053 O 577.459 -1.69885 -0.666739 0
M  V30 6054 C 577.51 -2.32827 2.76539 0
M  V30 6055 O 577.231 -1.72938 4.02522 0
M  V30 6056 C 578.732 -3.23448 3.03144 0
M  V30 6057 H 575.952 -0.371527 0.558756 0
M  V30 6058 H 578.496 -0.543082 1.97157 0
M  V30 6059 H 576.651 -2.97294 2.48384 0
M  V30 6060 H 577.065 -2.45357 4.63573 0
M  V30 6061 H 578.539 -3.96669 3.83872 0
M  V30 6062 H 579.016 -3.83094 2.14793 0
M  V30 6063 H 579.622 -2.64702 3.32886 0
M  V30 6064 N 577.937 -1.40673 -0.710563 0
M  V30 6065 C 579.165 -1.42547 -1.4996 0
M  V30 6066 C 579.58 -0.0265485 -1.88781 0
M  V30 6067 O 578.937 0.950694 -1.55782 0
M  V30 6068 C 578.988 -2.32071 -2.77173 0
M  V30 6069 O 578.709 -3.66518 -2.39992 0
M  V30 6070 C 580.21 -2.42591 -3.71032 0
M  V30 6071 H 577.43 -0.486025 -0.462623 0
M  V30 6072 H 579.974 -1.84783 -0.876102 0
M  V30 6073 H 578.129 -1.93184 -3.35795 0
M  V30 6074 H 578.543 -4.14115 -3.21884 0
M  V30 6075 H 580.017 -3.09429 -4.57119 0
M  V30 6076 H 580.494 -1.4525 -4.14486 0
M  V30 6077 H 581.1 -2.82051 -3.18319 0
M  V30 6078 N 579.415 0.9433 -1.26252 0
M  V30 6079 C 580.643 1.72367 -1.14443 0
M  V30 6080 C 581.058 1.86392 0.300572 0
M  V30 6081 O 580.415 1.36978 1.20596 0
M  V30 6082 C 580.466 3.13155 -1.806 0
M  V30 6083 O 580.187 2.99803 -3.19452 0
M  V30 6084 C 581.688 4.07417 -1.74717 0
M  V30 6085 H 578.908 0.539758 -0.398626 0
M  V30 6086 H 581.452 1.18268 -1.66832 0
M  V30 6087 H 579.607 3.64162 -1.32154 0
M  V30 6088 H 580.021 3.88697 -3.52158 0
M  V30 6089 H 581.495 5.03773 -2.25647 0
M  V30 6090 H 581.972 4.3337 -0.713244 0
M  V30 6091 H 582.578 3.6233 -2.22704 0
M  V30 6092 N 580.893 1.08022 1.14757 0
M  V30 6093 C 582.309 0.807072 1.3769 0
M  V30 6094 C 582.509 -0.585504 1.92806 0
M  V30 6095 O 581.565 -1.34301 2.13821 0
M  V30 6096 C 582.878 1.88651 2.34161 0
M  V30 6097 C 584.426 1.91206 2.47809 0
M  V30 6098 C 584.901 2.98253 3.47576 0
M  V30 6099 N 586.392 2.974 3.55117 0
M  V30 6100 C 587.127 3.76872 4.32152 0
M  V30 6101 N 586.623 4.66212 5.12463 0
M  V30 6102 N 588.416 3.6519 4.27309 0
M  V30 6103 H 580.567 1.97824 0.77326 0
M  V30 6104 H 582.83 0.85826 0.402608 0
M  V30 6105 H 582.536 2.88749 2.00791 0
M  V30 6106 H 582.41 1.75244 3.3402 0
M  V30 6107 H 584.797 0.917564 2.80472 0
M  V30 6108 H 584.878 2.08691 1.47925 0
M  V30 6109 H 584.522 3.97907 3.15646 0
M  V30 6110 H 584.452 2.78014 4.47231 0
M  V30 6111 H 586.943 2.32643 2.97801 0
M  V30 6112 H 587.256 5.23468 5.68508 0
M  V30 6113 H 585.601 4.70257 5.11745 0
M  V30 6114 H 588.792 2.94765 3.63636 0
M  V30 6115 H 588.965 4.27366 4.87095 0
M  V30 6116 N 582.371 -1.3172 0.865308 0
M  V30 6117 C 583.782 -1.79104 0.527126 0
M  V30 6118 C 584.133 -1.7135 -0.955695 0
M  V30 6119 O 583.258 -1.27845 -1.74598 0
M  V30 6120 C 583.853 -3.25207 0.950061 0
M  V30 6121 C 582.412 -3.70504 0.663611 0
M  V30 6122 C 581.559 -2.52605 1.14395 0
M  V30 6123 H 584.51 -1.18868 1.05148 0
M  V30 6124 H 584.531 -3.79535 0.270805 0
M  V30 6125 H 584.043 -3.30818 2.02931 0
M  V30 6126 H 582.144 -3.70398 -0.404474 0
M  V30 6127 H 582.257 -4.62845 1.23737 0
M  V30 6128 H 580.621 -2.4838 0.563859 0
M  V30 6129 H 581.404 -2.60964 2.23053 0
M  V30 6130 N 583.85 -0.624285 -1.44708 0
M  V30 6131 C 585.096 -0.126237 -2.02407 0
M  V30 6132 C 585.428 1.24618 -1.48943 0
M  V30 6133 O 584.704 1.82569 -0.670742 0
M  V30 6134 C 584.986 -0.105449 -3.59946 0
M  V30 6135 C 584.84 -1.50972 -4.23707 0
M  V30 6136 C 586.159 0.573629 -4.36346 0
M  V30 6137 H 583.278 -0.0473472 -0.735478 0
M  V30 6138 H 585.92 -0.799452 -1.72362 0
M  V30 6139 H 584.07 0.46783 -3.85673 0
M  V30 6140 H 585.742 -2.13136 -4.0911 0
M  V30 6141 H 583.985 -2.0656 -3.81465 0
M  V30 6142 H 584.656 -1.44727 -5.32689 0
M  V30 6143 H 587.132 0.0861787 -4.16011 0
M  V30 6144 H 586.008 0.557338 -5.46063 0
M  V30 6145 H 586.269 1.64276 -4.10446 0
M  V30 6146 N 585.328 1.53329 -0.364422 0
M  V30 6147 C 586.238 2.29414 0.490552 0
M  V30 6148 C 587.254 1.35335 1.09363 0
M  V30 6149 O 588.43 1.68391 1.10483 0
M  V30 6150 C 585.495 3.06772 1.61529 0
M  V30 6151 C 584.556 4.16516 1.03986 0
M  V30 6152 C 583.789 4.90176 2.111 0
M  V30 6153 O 584.012 4.63687 3.32191 0
M  V30 6154 O 582.946 5.76134 1.74222 0
M  V30 6155 H 586.772 3.03428 -0.12856 0
M  V30 6156 H 584.357 1.48843 -0.128837 0
M  V30 6157 H 586.239 3.55082 2.26924 0
M  V30 6158 H 584.914 2.35596 2.21983 0
M  V30 6159 H 583.821 3.7246 0.349856 0
M  V30 6160 H 585.154 4.89855 0.4799 0
M  V30 6161 N 586.806 0.0935595 1.57322 0
M  V30 6162 C 588.052 -0.571355 1.94585 0
M  V30 6163 C 588.385 -1.67929 0.975366 0
M  V30 6164 O 587.66 -1.94498 0.00816206 0
M  V30 6165 C 587.943 -1.12797 3.41978 0
M  V30 6166 C 587.796 -0.0251881 4.49793 0
M  V30 6167 C 589.115 -2.02682 3.90651 0
M  V30 6168 H 586.234 -0.206223 0.70756 0
M  V30 6169 H 588.876 0.163956 1.89291 0
M  V30 6170 H 587.026 -1.75461 3.4662 0
M  V30 6171 H 588.698 0.608979 4.57263 0
M  V30 6172 H 586.941 0.641399 4.29032 0
M  V30 6173 H 587.612 -0.455433 5.50118 0
M  V30 6174 H 590.088 -1.49925 3.88152 0
M  V30 6175 H 588.964 -2.38555 4.94351 0
M  V30 6176 H 589.225 -2.94362 3.29854 0
M  V30 6177 N 588.284 -1.56567 -0.180126 0
M  V30 6178 C 589.514 -1.85349 -0.912647 0
M  V30 6179 C 589.922 -0.675795 -1.76719 0
M  V30 6180 O 589.265 0.3645 -1.80047 0
M  V30 6181 C 589.327 -3.08431 -1.84691 0
M  V30 6182 C 588.991 -4.41694 -1.17284 0
M  V30 6183 C 589.988 -5.17062 -0.542532 0
M  V30 6184 C 587.673 -4.8843 -1.17223 0
M  V30 6185 C 589.667 -6.37351 0.0793953 0
M  V30 6186 C 587.354 -6.08652 -0.54647 0
M  V30 6187 C 588.352 -6.82955 0.0782458 0
M  V30 6188 O 588.04 -8.00897 0.694158 0
M  V30 6189 H 587.772 -0.619286 -0.271036 0
M  V30 6190 H 590.326 -2.0454 -0.187768 0
M  V30 6191 H 588.556 -2.85163 -2.61188 0
M  V30 6192 H 590.245 -3.23733 -2.44851 0
M  V30 6193 H 591.011 -4.8204 -0.535045 0
M  V30 6194 H 586.89 -4.30542 -1.64788 0
M  V30 6195 H 590.434 -6.95287 0.567612 0
M  V30 6196 H 586.331 -6.4314 -0.55151 0
M  V30 6197 H 587.099 -8.16352 0.592537 0
M  V30 6198 N 589.762 0.448376 -1.51087 0
M  V30 6199 C 591.178 0.783984 -1.39017 0
M  V30 6200 C 591.378 1.96087 -0.463904 0
M  V30 6201 O 590.434 2.52357 0.0850534 0
M  V30 6202 C 591.747 1.07471 -2.80839 0
M  V30 6203 C 593.295 1.17981 -2.89913 0
M  V30 6204 C 593.77 1.50354 -4.32617 0
M  V30 6205 N 595.261 1.57301 -4.35673 0
M  V30 6206 C 595.996 1.839 -5.4311 0
M  V30 6207 N 595.492 2.08365 -6.60724 0
M  V30 6208 N 597.285 1.8559 -5.30578 0
M  V30 6209 H 589.436 -0.326881 -2.0987 0
M  V30 6210 H 591.699 -0.0838006 -0.944289 0
M  V30 6211 H 591.405 0.282768 -3.50561 0
M  V30 6212 H 591.279 2.00519 -3.19487 0
M  V30 6213 H 593.666 1.9624 -2.20395 0
M  V30 6214 H 593.747 0.228603 -2.54776 0
M  V30 6215 H 593.391 0.726273 -5.0268 0
M  V30 6216 H 593.321 2.46663 -4.65258 0
M  V30 6217 H 595.812 1.40342 -3.50874 0
M  V30 6218 H 596.125 2.27999 -7.38401 0
M  V30 6219 H 594.47 2.0571 -6.63859 0
M  V30 6220 H 597.661 1.65989 -4.37682 0
M  V30 6221 H 597.834 2.05983 -6.1439 0
M  V30 6222 N 591.24 1.41047 0.703093 0
M  V30 6223 C 592.15 1.44645 1.84703 0
M  V30 6224 C 593.166 0.337778 1.7069 0
M  V30 6225 O 594.342 0.584327 1.92737 0
M  V30 6226 C 591.407 1.31928 3.20618 0
M  V30 6227 C 590.468 2.53047 3.46794 0
M  V30 6228 C 589.701 2.40927 4.76224 0
M  V30 6229 O 589.924 1.42978 5.5219 0
M  V30 6230 O 588.858 3.30543 5.03016 0
M  V30 6231 H 592.684 2.41139 1.84624 0
M  V30 6232 H 590.269 1.22504 0.855167 0
M  V30 6233 H 592.151 1.27092 4.01778 0
M  V30 6234 H 590.826 0.385469 3.21397 0
M  V30 6235 H 589.733 2.6346 2.65593 0
M  V30 6236 H 591.066 3.45231 3.50822 0
M  V30 6237 N 592.718 -0.936591 1.26751 0
M  V30 6238 C 593.681 -2.01752 1.08761 0
M  V30 6239 C 594.681 -1.60763 0.0344435 0
M  V30 6240 O 595.871 -1.71963 0.278258 0
M  V30 6241 C 593.003 -3.34543 0.655271 0
M  V30 6242 H 594.196 -2.19143 2.04735 0
M  V30 6243 H 591.749 -1.11618 1.09413 0
M  V30 6244 H 592.484 -3.22851 -0.30626 0
M  V30 6245 H 592.269 -3.65647 1.41578 0
M  V30 6246 H 593.759 -4.13944 0.551378 0
M  V30 6247 N 594.196 -1.08629 -1.14182 0
M  V30 6248 C 595.442 -0.818556 -1.85546 0
M  V30 6249 C 595.775 0.654076 -1.82854 0
M  V30 6250 O 595.05 1.48099 -1.26083 0
M  V30 6251 C 595.333 -1.34397 -3.3408 0
M  V30 6252 C 595.186 -2.8821 -3.45333 0
M  V30 6253 C 596.505 -0.971069 -4.29253 0
M  V30 6254 H 593.624 -0.298821 -0.673702 0
M  V30 6255 H 596.266 -1.34629 -1.34071 0
M  V30 6256 H 594.416 -0.895064 -3.78049 0
M  V30 6257 H 596.088 -3.41488 -3.10134 0
M  V30 6258 H 594.331 -3.25756 -2.86471 0
M  V30 6259 H 595.002 -3.20047 -4.49749 0
M  V30 6260 H 597.478 -1.35809 -3.93313 0
M  V30 6261 H 596.354 -1.36586 -5.31635 0
M  V30 6262 H 596.615 0.121659 -4.41933 0
M  V30 6263 N 595.674 1.31259 -0.872281 0
M  V30 6264 C 596.584 2.32221 -0.333255 0
M  V30 6265 C 597.6 1.6481 0.558013 0
M  V30 6266 O 598.776 1.96212 0.454175 0
M  V30 6267 C 595.841 3.43708 0.454479 0
M  V30 6268 C 594.902 4.26774 -0.465024 0
M  V30 6269 C 594.135 5.32937 0.28521 0
M  V30 6270 O 594.358 5.49968 1.513 0
M  V30 6271 O 593.292 6.00834 -0.358126 0
M  V30 6272 H 597.118 2.80252 -1.17016 0
M  V30 6273 H 594.703 1.352 -0.635724 0
M  V30 6274 H 596.585 4.11656 0.900963 0
M  V30 6275 H 595.26 2.97836 1.26789 0
M  V30 6276 H 594.167 3.61571 -0.960055 0
M  V30 6277 H 595.5 4.76217 -1.2441 0
M  V30 6278 N 597.152 0.631951 1.44375 0
M  V30 6279 C 598.568 0.297642 1.568 0
M  V30 6280 C 598.768 -1.19916 1.61934 0
M  V30 6281 O 597.824 -1.98324 1.56281 0
M  V30 6282 C 599.137 0.990286 2.83926 0
M  V30 6283 C 600.685 0.968507 2.97639 0
M  V30 6284 C 601.16 1.64163 4.27568 0
M  V30 6285 N 602.651 1.60826 4.34384 0
M  V30 6286 C 603.386 2.09802 5.33639 0
M  V30 6287 N 602.882 2.66973 6.39294 0
M  V30 6288 N 604.675 2.00426 5.25153 0
M  V30 6289 H 596.826 1.60353 1.39286 0
M  V30 6290 H 599.089 0.673142 0.667521 0
M  V30 6291 H 598.795 2.04519 2.8612 0
M  V30 6292 H 598.669 0.528563 3.73478 0
M  V30 6293 H 601.056 -0.0779247 2.94997 0
M  V30 6294 H 601.137 1.46873 2.09433 0
M  V30 6295 H 600.781 2.68752 4.3097 0
M  V30 6296 H 600.711 1.11624 5.14634 0
M  V30 6297 H 603.202 1.19087 3.58646 0
M  V30 6298 H 603.515 3.02074 7.11316 0
M  V30 6299 H 601.86 2.71024 6.39977 0
M  V30 6300 H 605.051 1.55483 4.41523 0
M  V30 6301 H 605.224 2.38906 6.02352 0
M  V30 6302 N 598.631 -1.53133 0.372548 0
M  V30 6303 C 599.88 -2.00539 -0.216115 0
M  V30 6304 C 600.193 -1.26374 -1.49295 0
M  V30 6305 O 601.399 -1.64404 -2.16064 0
M  V30 6306 C 599.855 -3.57253 -0.435678 0
M  V30 6307 C 599.463 -4.40302 0.82693 0
M  V30 6308 C 601.207 -4.12995 -0.981618 0
M  V30 6309 C 599.114 -5.88583 0.576567 0
M  V30 6310 H 598.044 -0.749246 -0.084536 0
M  V30 6311 H 600.695 -1.76771 0.492364 0
M  V30 6312 H 599.077 -3.77202 -1.20559 0
M  V30 6313 H 600.251 -4.32124 1.60017 0
M  V30 6314 H 598.566 -3.95699 1.29659 0
M  V30 6315 H 601.163 -5.21418 -1.18436 0
M  V30 6316 H 601.506 -3.68027 -1.94581 0
M  V30 6317 H 602.039 -3.96871 -0.271696 0
M  V30 6318 H 598.778 -6.37841 1.51128 0
M  V30 6319 H 598.298 -5.99592 -0.158047 0
M  V30 6320 H 599.977 -6.46676 0.204722 0
M  V30 6321 N 600.109 -0.101901 -1.5727 0
M  V30 6322 C 601.056 0.854577 -2.14396 0
M  V30 6323 C 602.026 1.27521 -1.06432 0
M  V30 6324 O 603.211 1.35575 -1.34253 0
M  V30 6325 C 600.351 2.10576 -2.73408 0
M  V30 6326 C 599.464 1.73504 -3.95626 0
M  V30 6327 C 598.599 2.9346 -4.42781 0
M  V30 6328 C 597.638 2.52547 -5.57572 0
M  V30 6329 N 596.775 3.65359 -5.99547 0
M  V30 6330 H 601.615 0.360578 -2.9581 0
M  V30 6331 H 599.152 0.166303 -1.46157 0
M  V30 6332 H 601.11 2.83859 -3.05745 0
M  V30 6333 H 599.74 2.57463 -1.94711 0
M  V30 6334 H 598.792 0.901622 -3.6956 0
M  V30 6335 H 600.104 1.39426 -4.78917 0
M  V30 6336 H 599.258 3.74988 -4.76937 0
M  V30 6337 H 597.997 3.30753 -3.58404 0
M  V30 6338 H 597.002 1.69446 -5.23037 0
M  V30 6339 H 598.227 2.1639 -6.43702 0
M  V30 6340 H 596.173 4.02358 -5.18116 0
M  V30 6341 H 596.09 3.35148 -6.77652 0
M  V30 6342 H 597.358 4.47378 -6.38336 0
M  V30 6343 N 601.587 1.56661 0.17182 0
M  V30 6344 C 602.55 1.9549 1.19651 0
M  V30 6345 C 603.55 0.838501 1.37207 0
M  V30 6346 O 604.74 1.10556 1.34622 0
M  V30 6347 C 601.872 2.24927 2.56166 0
M  V30 6348 H 603.065 2.87184 0.864007 0
M  V30 6349 H 600.618 1.50711 0.41425 0
M  V30 6350 H 601.353 1.35944 2.94431 0
M  V30 6351 H 601.138 3.06301 2.4479 0
M  V30 6352 H 602.628 2.55891 3.30014 0
M  V30 6353 N 603.065 -0.440357 1.51323 0
M  V30 6354 C 604.312 -1.19004 1.63842 0
M  V30 6355 C 604.64 -1.91266 0.35321 0
M  V30 6356 O 603.895 -1.84143 -0.662565 0
M  V30 6357 C 604.194 -2.2339 2.78984 0
M  V30 6358 C 603.86 -1.68162 4.18369 0
M  V30 6359 C 602.522 -1.52823 4.56288 0
M  V30 6360 C 604.874 -1.27524 5.05358 0
M  V30 6361 C 602.202 -0.953157 5.78906 0
M  V30 6362 C 604.554 -0.714474 6.28552 0
M  V30 6363 C 603.218 -0.547961 6.65247 0
M  V30 6364 H 602.488 -0.435468 0.59954 0
M  V30 6365 H 605.135 -0.481538 1.85347 0
M  V30 6366 H 603.44 -3.00267 2.51688 0
M  V30 6367 H 605.137 -2.81211 2.85869 0
M  V30 6368 H 601.727 -1.81077 3.8847 0
M  V30 6369 H 605.911 -1.38197 4.76671 0
M  V30 6370 H 601.167 -0.811882 6.05986 0
M  V30 6371 H 605.341 -0.391059 6.95301 0
M  V30 6372 H 602.968 -0.100222 7.60134 0
M  V30 6373 N 604.543 -1.41418 -0.695603 0
M  V30 6374 C 605.783 -1.42241 -1.46788 0
M  V30 6375 C 606.147 -0.0300827 -1.91976 0
M  V30 6376 O 607.348 0.0868914 -2.6866 0
M  V30 6377 C 605.619 -2.4011 -2.6473 0
M  V30 6378 S 607.178 -2.59462 -3.53871 0
M  V30 6379 H 603.996 -0.503893 -0.50161 0
M  V30 6380 H 606.598 -1.77855 -0.811654 0
M  V30 6381 H 605.302 -3.40073 -2.29736 0
M  V30 6382 H 604.833 -2.05849 -3.35246 0
M  V30 6383 H 606.848 -1.862 -4.59939 0
M  V30 6384 N 606.021 0.929856 -1.27246 0
M  V30 6385 C 606.953 2.03434 -1.0558 0
M  V30 6386 C 607.966 1.62795 -0.0125762 0
M  V30 6387 O 609.155 1.76685 -0.2539 0
M  V30 6388 C 606.255 3.33915 -0.57912 0
M  V30 6389 C 605.428 4.03259 -1.69415 0
M  V30 6390 C 604.487 5.12014 -1.21357 0
M  V30 6391 O 603.513 5.36097 -1.91282 0
M  V30 6392 N 604.715 5.8046 -0.0680622 0
M  V30 6393 H 607.48 2.22583 -2.00691 0
M  V30 6394 H 605.041 1.1001 -1.18783 0
M  V30 6395 H 607.033 4.03978 -0.241563 0
M  V30 6396 H 605.603 3.11355 0.278703 0
M  V30 6397 H 604.823 3.26958 -2.20209 0
M  V30 6398 H 606.111 4.46337 -2.44255 0
M  V30 6399 H 605.509 5.63345 0.515626 0
M  V30 6400 H 604.066 6.51461 0.210332 0
M  V30 6401 N 607.499 1.09233 1.13605 0
M  V30 6402 C 608.915 0.82163 1.36826 0
M  V30 6403 C 609.115 -0.565021 1.93416 0
M  V30 6404 O 608.171 -1.32026 2.15234 0
M  V30 6405 C 609.484 1.91124 2.32147 0
M  V30 6406 C 611.032 1.93824 2.45767 0
M  V30 6407 C 611.507 3.01923 3.44393 0
M  V30 6408 N 612.998 3.01149 3.51942 0
M  V30 6409 C 613.733 3.81434 4.2813 0
M  V30 6410 N 613.229 4.71621 5.07489 0
M  V30 6411 N 615.022 3.69702 4.23411 0
M  V30 6412 H 607.173 1.98633 0.752234 0
M  V30 6413 H 609.436 0.862482 0.393482 0
M  V30 6414 H 609.142 2.90862 1.97717 0
M  V30 6415 H 609.016 1.78777 3.32142 0
M  V30 6416 H 611.403 0.94726 2.79483 0
M  V30 6417 H 611.484 2.10248 1.45703 0
M  V30 6418 H 611.128 4.01232 3.11408 0
M  V30 6419 H 611.058 2.82742 4.44257 0
M  V30 6420 H 613.549 2.35789 2.95317 0
M  V30 6421 H 613.862 5.29468 5.62924 0
M  V30 6422 H 612.207 4.75658 5.06729 0
M  V30 6423 H 615.398 2.98606 3.60489 0
M  V30 6424 H 615.571 4.32509 4.82535 0
M  V30 6425 N 608.977 -1.30795 0.87923 0
M  V30 6426 C 609.927 -2.25838 0.313276 0
M  V30 6427 C 610.911 -1.51025 -0.55499 0
M  V30 6428 O 612.103 -1.72413 -0.400353 0
M  V30 6429 C 609.232 -3.39981 -0.476204 0
M  V30 6430 C 608.318 -4.22154 0.405826 0
M  V30 6431 N 608.709 -4.82934 1.50362 0
M  V30 6432 C 607.007 -4.45552 0.199909 0
M  V30 6433 C 607.708 -5.44444 2.0483 0
M  V30 6434 N 606.684 -5.26723 1.34403 0
M  V30 6435 H 610.486 -2.70374 1.15218 0
M  V30 6436 H 608 -1.45168 0.728003 0
M  V30 6437 H 609.997 -4.07108 -0.898251 0
M  V30 6438 H 608.657 -2.96986 -1.31261 0
M  V30 6439 H 609.668 -4.82319 1.8865 0
M  V30 6440 H 606.345 -4.13169 -0.599795 0
M  V30 6441 H 607.735 -6.02701 2.96986 0
M  V30 6442 N 610.455 -0.639598 -1.44038 0
M  V30 6443 C 611.418 0.0506628 -2.29144 0
M  V30 6444 C 612.418 0.764001 -1.41491 0
M  V30 6445 O 613.608 0.607309 -1.63271 0
M  V30 6446 C 610.74 1.0824 -3.2326 0
M  V30 6447 H 611.933 -0.697987 -2.91664 0
M  V30 6448 H 609.486 -0.400146 -1.51091 0
M  V30 6449 H 610.221 1.86075 -2.65606 0
M  V30 6450 H 610.006 0.574725 -3.87865 0
M  V30 6451 H 611.496 1.56487 -3.87171 0
M  V30 6452 N 611.933 1.52934 -0.380664 0
M  V30 6453 C 612.896 2.24809 0.446473 0
M  V30 6454 C 613.896 1.26133 0.997347 0
M  V30 6455 O 615.086 1.50297 0.880714 0
M  V30 6456 C 612.218 2.99649 1.62553 0
M  V30 6457 H 613.411 2.99343 -0.182677 0
M  V30 6458 H 610.964 1.55736 -0.132618 0
M  V30 6459 H 611.699 2.29395 2.29235 0
M  V30 6460 H 611.484 3.72066 1.23732 0
M  V30 6461 H 612.974 3.54246 2.21133 0
M  V30 6462 N 613.412 0.11024 1.57214 0
M  V30 6463 C 614.658 -0.550684 1.9518 0
M  V30 6464 C 614.991 -1.66885 0.993122 0
M  V30 6465 O 614.266 -1.94479 0.0287907 0
M  V30 6466 C 614.549 -1.09163 3.43155 0
M  V30 6467 C 614.402 0.0225198 4.49794 0
M  V30 6468 C 615.721 -1.98527 3.92778 0
M  V30 6469 H 612.84 -0.198706 0.709708 0
M  V30 6470 H 615.482 0.184024 1.89107 0
M  V30 6471 H 613.632 -1.71775 3.48462 0
M  V30 6472 H 615.304 0.657443 4.56591 0
M  V30 6473 H 613.547 0.686868 4.28328 0
M  V30 6474 H 614.218 -0.39706 5.5057 0
M  V30 6475 H 616.694 -1.458 3.8972 0
M  V30 6476 H 615.57 -2.33298 4.96853 0
M  V30 6477 H 615.831 -2.90846 3.32958 0
M  V30 6478 O 614.929 -1.61473 -0.0293866 0
M  V30 6479 H 615.62 -1.82469 -0.649975 0
M  V30 END ATOM
M  V30 BEGIN BOND
M  V30 END BOND
M  V30 END CTAB
M  END
$$$$
