drugbank_target|P33590 Nickel-binding periplasmic protein (DB03374)
 OpenBabel12092120523D

  0  0  0     0  0            999 V3000
M  V30 BEGIN CTAB
M  V30 COUNTS 8268 8376 0 0 0
M  V30 BEGIN ATOM
M  V30 1 H -0.908 1.98254 -0.117106 0
M  V30 2 N 0 1.576 0 0
M  V30 3 C 0.933 2.03868 1.02534 0
M  V30 4 C 1.911 0.928543 1.3348 0
M  V30 5 O 3.095 1.19667 1.45644 0
M  V30 6 C 0.222 2.43627 2.35294 0
M  V30 7 C -0.732 3.65373 2.2001 0
M  V30 8 S 0.101 5.13292 1.52614 0
M  V30 9 C 1.257 5.56322 2.86805 0
M  V30 10 H 1.49 2.90518 0.631377 0
M  V30 11 H -0.977 1.52953 0.210867 0
M  V30 12 H 0.981 2.67203 3.11629 0
M  V30 13 H -0.358 1.57376 2.7183 0
M  V30 14 H -1.165 3.90944 3.18086 0
M  V30 15 H -1.563 3.418 1.51819 0
M  V30 16 H 0.729 5.58782 3.83104 0
M  V30 17 H 1.672 6.56266 2.65933 0
M  V30 18 H 2.08 4.83886 2.90714 0
M  V30 19 N 1.4781 -0.272755 1.55222 0
M  V30 20 C 2.4081 -1.34136 1.91127 0
M  V30 21 C 3.3891 -1.51513 0.773168 0
M  V30 22 O 4.5741 -1.64552 1.03132 0
M  V30 23 C 1.7041 -2.70083 2.1834 0
M  V30 24 C 0.6581 -2.67437 3.34158 0
M  V30 25 C -0.0159 -4.06938 3.46851 0
M  V30 26 C 1.2841 -2.26686 4.70543 0
M  V30 27 H 2.9781 -1.04333 2.80633 0
M  V30 28 H 0.5241 -0.500454 1.35024 0
M  V30 29 H 2.4771 -3.44952 2.42046 0
M  V30 30 H 1.2011 -3.01469 1.25634 0
M  V30 31 H -0.1399 -1.95026 3.1042 0
M  V30 32 H -0.4919 -4.35547 2.51611 0
M  V30 33 H -0.7919 -4.06062 4.2472 0
M  V30 34 H 0.7321 -4.83545 3.72849 0
M  V30 35 H 2.1461 -2.91277 4.93792 0
M  V30 36 H 0.5431 -2.36971 5.5133 0
M  V30 37 H 1.6131 -1.21818 4.69349 0
M  V30 38 N 2.9562 -1.48159 -0.537278 0
M  V30 39 C 4.1812 -1.59707 -1.32319 0
M  V30 40 C 4.6062 -0.254859 -1.86365 0
M  V30 41 O 3.9642 0.772378 -1.64024 0
M  V30 42 C 4.0122 -2.6412 -2.45505 0
M  V30 43 O 3.1162 -2.20774 -3.48328 0
M  V30 44 H 2.4572 -0.535791 -0.392204 0
M  V30 45 H 4.9872 -1.94092 -0.647268 0
M  V30 46 H 4.9972 -2.85166 -2.91795 0
M  V30 47 H 3.6722 -3.61567 -2.05528 0
M  V30 48 H 2.2492 -2.09911 -3.08207 0
M  V30 49 N 4.4343 0.785586 -1.36625 0
M  V30 50 C 5.6623 1.57448 -1.3423 0
M  V30 51 C 6.0773 1.88649 0.0755653 0
M  V30 52 O 5.4343 1.50414 1.03354 0
M  V30 53 C 5.4853 2.89316 -2.16745 0
M  V30 54 O 5.2063 2.59459 -3.53005 0
M  V30 55 C 6.7073 3.83606 -2.22174 0
M  V30 56 H 3.9273 0.488226 -0.4603 0
M  V30 57 H 6.4713 0.974733 -1.79775 0
M  V30 58 H 4.6263 3.4575 -1.74745 0
M  V30 59 H 5.0403 3.43804 -3.96105 0
M  V30 60 H 6.5143 4.73181 -2.8426 0
M  V30 61 H 6.9913 4.21734 -1.22627 0
M  V30 62 H 7.5973 3.33104 -2.64427 0
M  V30 63 N 5.9124 1.20967 1.01018 0
M  V30 64 C 6.8424 0.988272 2.11555 0
M  V30 65 C 7.8234 -0.0849778 1.69888 0
M  V30 66 O 9.0084 0.0738202 1.9406 0
M  V30 67 C 6.1384 0.546528 3.42973 0
M  V30 68 C 5.0924 1.56375 3.9841 0
M  V30 69 C 4.4184 0.97842 5.25672 0
M  V30 70 C 5.7184 2.94922 4.31066 0
M  V30 71 H 7.4124 1.91276 2.30334 0
M  V30 72 H 4.9584 0.921073 1.1069 0
M  V30 73 H 6.9114 0.378839 4.19694 0
M  V30 74 H 5.6354 -0.413598 3.23971 0
M  V30 75 H 4.2944 1.71891 3.23804 0
M  V30 76 H 3.9424 0.0101688 5.02999 0
M  V30 77 H 3.6424 1.65784 5.63728 0
M  V30 78 H 5.1664 0.821939 6.05043 0
M  V30 79 H 6.5804 2.8288 4.9865 0
M  V30 80 H 4.9774 3.5983 4.80253 0
M  V30 81 H 6.0474 3.4616 3.39561 0
M  V30 82 N 7.3905 -1.2043 1.01659 0
M  V30 83 C 8.8065 -1.41852 0.731442 0
M  V30 84 C 9.0065 -1.89358 -0.688898 0
M  V30 85 O 8.0625 -2.06247 -1.45666 0
M  V30 86 C 9.3755 -2.44019 1.75714 0
M  V30 87 C 10.9235 -2.57785 1.77527 0
M  V30 88 C 11.3985 -3.63194 2.79023 0
M  V30 89 N 12.8895 -3.70678 2.77763 0
M  V30 90 C 13.6245 -4.51897 3.52954 0
M  V30 91 N 13.1205 -5.36921 4.37821 0
M  V30 92 N 14.9135 -4.4643 3.41551 0
M  V30 93 H 7.0645 -0.879093 1.93354 0
M  V30 94 H 9.3275 -0.448425 0.835236 0
M  V30 95 H 9.0335 -2.1611 2.77469 0
M  V30 96 H 8.9075 -3.43007 1.56927 0
M  V30 97 H 11.2945 -2.85023 0.764569 0
M  V30 98 H 11.3755 -1.58992 2.00387 0
M  V30 99 H 11.0195 -3.36699 3.80258 0
M  V30 100 H 10.9495 -4.61609 2.53425 0
M  V30 101 H 13.4405 -3.09944 2.16201 0
M  V30 102 H 13.7535 -5.95981 4.91962 0
M  V30 103 H 12.0985 -5.36424 4.41899 0
M  V30 104 H 15.2895 -3.79042 2.74672 0
M  V30 105 H 15.4625 -5.09491 4.00404 0
M  V30 106 N 8.8686 -0.792821 -1.36206 0
M  V30 107 C 10.2846 -0.474903 -1.52371 0
M  V30 108 C 10.4846 1.00622 -1.74578 0
M  V30 109 O 9.5406 1.79162 -1.77924 0
M  V30 110 C 10.8536 -1.3083 -2.70747 0
M  V30 111 C 12.4016 -1.30234 -2.84619 0
M  V30 112 C 12.8766 -2.11956 -4.06004 0
M  V30 113 N 14.3676 -2.09419 -4.13156 0
M  V30 114 C 15.1026 -2.69419 -5.06163 0
M  V30 115 N 14.5986 -3.3829 -6.04592 0
M  V30 116 N 16.3916 -2.59134 -4.98804 0
M  V30 117 H 8.5426 -1.75222 -1.20046 0
M  V30 118 H 10.8056 -0.745024 -0.586211 0
M  V30 119 H 10.5116 -2.35881 -2.6087 0
M  V30 120 H 10.3856 -0.95196 -3.6499 0
M  V30 121 H 12.7726 -0.259748 -2.93955 0
M  V30 122 H 12.8536 -1.69847 -1.91274 0
M  V30 123 H 12.4976 -3.16248 -3.97429 0
M  V30 124 H 12.4276 -1.69711 -4.98503 0
M  V30 125 H 14.9186 -1.59297 -3.42685 0
M  V30 126 H 15.2316 -3.81394 -6.7213 0
M  V30 127 H 13.5766 -3.42393 -6.04807 0
M  V30 128 H 16.7676 -2.04927 -4.20859 0
M  V30 129 H 16.9406 -3.06185 -5.711 0
M  V30 130 N 10.3467 1.47872 -0.545128 0
M  V30 131 C 11.5747 2.06889 -0.021084 0
M  V30 132 C 11.9897 1.39955 1.2672 0
M  V30 133 O 11.3467 0.492036 1.75742 0
M  V30 134 C 11.3977 3.60996 0.190817 0
M  V30 135 O 11.1187 4.25419 -1.04644 0
M  V30 136 C 12.6197 4.36849 0.753521 0
M  V30 137 H 9.8397 0.669785 -0.0403635 0
M  V30 138 H 12.3837 1.90049 -0.755095 0
M  V30 139 H 10.5387 3.77391 0.87492 0
M  V30 140 H 10.9527 5.17785 -0.836611 0
M  V30 141 H 12.4267 5.45399 0.851139 0
M  V30 142 H 12.9037 4.02306 1.762 0
M  V30 143 H 13.5097 4.25169 0.105503 0
M  V30 144 N 11.8248 0.280983 1.55075 0
M  V30 145 C 12.7548 -0.597469 2.25727 0
M  V30 146 C 13.7358 -1.15417 1.24952 0
M  V30 147 O 14.9208 -1.18722 1.53684 0
M  V30 148 C 12.0508 -1.7789 2.98283 0
M  V30 149 C 11.0048 -1.35347 4.06036 0
M  V30 150 C 10.3308 -2.61846 4.66198 0
M  V30 151 C 11.6308 -0.499354 5.19907 0
M  V30 152 H 13.3248 -0.00824265 2.99399 0
M  V30 153 H 10.8708 -0.0025244 1.44 0
M  V30 154 H 12.8238 -2.39937 3.46422 0
M  V30 155 H 11.5478 -2.39405 2.22155 0
M  V30 156 H 10.2068 -0.756156 3.58717 0
M  V30 157 H 9.8548 -3.21632 3.86732 0
M  V30 158 H 9.5548 -2.3409 5.38958 0
M  V30 159 H 11.0788 -3.24732 5.1709 0
M  V30 160 H 12.4928 -1.02498 5.64063 0
M  V30 161 H 10.8898 -0.316424 5.99265 0
M  V30 162 H 11.9598 0.480459 4.82514 0
M  V30 163 N 13.3029 -1.57598 0.00835791 0
M  V30 164 C 14.5499 -1.90928 -0.674732 0
M  V30 165 C 14.8779 -0.88277 -1.73313 0
M  V30 166 O 14.1329 0.111294 -1.95383 0
M  V30 167 C 14.4319 -3.3101 -1.34787 0
M  V30 168 C 14.0979 -4.48922 -0.421861 0
M  V30 169 C 12.7599 -4.8091 -0.166927 0
M  V30 170 C 15.1119 -5.20755 0.215211 0
M  V30 171 C 12.4399 -5.821 0.733232 0
M  V30 172 C 14.7919 -6.22905 1.1033 0
M  V30 173 C 13.4559 -6.53346 1.36733 0
M  V30 174 H 12.7259 -0.698656 -0.246902 0
M  V30 175 H 15.3729 -1.91387 0.0656779 0
M  V30 176 H 13.6779 -3.26714 -2.16253 0
M  V30 177 H 15.3749 -3.54061 -1.8826 0
M  V30 178 H 11.9649 -4.23934 -0.630729 0
M  V30 179 H 16.1489 -4.9629 0.0312829 0
M  V30 180 H 11.4049 -6.04042 0.945712 0
M  V30 181 H 15.5789 -6.77694 1.60325 0
M  V30 182 H 13.2059 -7.31573 2.06652 0
M  V30 183 N 14.781 0.264519 -1.55364 0
M  V30 184 C 15.744 1.31046 -1.88042 0
M  V30 185 C 16.744 1.41943 -0.755569 0
M  V30 186 O 17.934 1.40947 -1.02369 0
M  V30 187 C 15.066 2.69067 -2.09323 0
M  V30 188 H 16.259 1.03297 -2.81549 0
M  V30 189 H 13.812 0.502989 -1.47986 0
M  V30 190 H 14.547 3.01982 -1.18226 0
M  V30 191 H 14.332 2.62542 -2.91229 0
M  V30 192 H 15.822 3.44623 -2.35848 0
M  V30 193 N 16.2591 1.48442 0.529413 0
M  V30 194 C 17.1891 1.65902 1.64313 0
M  V30 195 C 18.1701 0.507897 1.6234 0
M  V30 196 O 19.3551 0.740503 1.79528 0
M  V30 197 C 16.4851 1.69911 3.02898 0
M  V30 198 C 15.4391 2.8453 3.19729 0
M  V30 199 C 14.7651 2.73629 4.59381 0
M  V30 200 C 16.0651 4.25821 3.02447 0
M  V30 201 H 17.7591 2.5914 1.49955 0
M  V30 202 H 15.3051 1.24709 0.719982 0
M  V30 203 H 17.2581 1.80715 3.80684 0
M  V30 204 H 15.9821 0.732524 3.18279 0
M  V30 205 H 14.6411 2.73283 2.44361 0
M  V30 206 H 14.2891 1.74938 4.71599 0
M  V30 207 H 13.9891 3.50541 4.71588 0
M  V30 208 H 15.5131 2.86401 5.39265 0
M  V30 209 H 16.9271 4.37898 3.70024 0
M  V30 210 H 15.3241 5.03735 3.26146 0
M  V30 211 H 16.3941 4.42244 1.98867 0
M  V30 212 N 17.7372 -0.778329 1.37039 0
M  V30 213 C 18.6672 -1.90546 1.34962 0
M  V30 214 C 19.6482 -1.68681 0.219274 0
M  V30 215 O 20.8332 -1.89634 0.418624 0
M  V30 216 C 17.9632 -3.27734 1.14925 0
M  V30 217 C 16.9172 -3.64147 2.24902 0
M  V30 218 C 16.2432 -4.99806 1.89996 0
M  V30 219 C 17.5432 -3.71579 3.67051 0
M  V30 220 H 19.2372 -1.92541 2.29277 0
M  V30 221 H 16.7832 -0.924948 1.10366 0
M  V30 222 H 18.7362 -4.06215 1.12104 0
M  V30 223 H 17.4602 -3.26154 0.170631 0
M  V30 224 H 16.1192 -2.8797 2.26868 0
M  V30 225 H 15.7672 -4.94759 0.906796 0
M  V30 226 H 15.4672 -5.25139 2.63634 0
M  V30 227 H 16.9912 -5.80694 1.88749 0
M  V30 228 H 18.4052 -4.40227 3.67251 0
M  V30 229 H 16.8022 -4.08405 4.39688 0
M  V30 230 H 17.8722 -2.72404 4.01154 0
M  V30 231 N 19.2153 -1.21501 -1.00376 0
M  V30 232 C 20.1783 -0.976927 -2.07337 0
M  V30 233 C 21.1783 0.0525322 -1.60714 0
M  V30 234 O 22.3683 -0.184869 -1.73216 0
M  V30 235 C 19.5003 -0.473423 -3.37597 0
M  V30 236 H 20.6933 -1.92587 -2.29892 0
M  V30 237 H 18.2463 -1.03217 -1.17371 0
M  V30 238 H 18.9813 0.480379 -3.20722 0
M  V30 239 H 18.7663 -1.216 -3.72768 0
M  V30 240 H 20.2563 -0.32675 -4.1632 0
M  V30 241 N 20.6934 1.19889 -1.02296 0
M  V30 242 C 21.9334 1.91125 -0.724602 0
M  V30 243 C 22.2974 1.77464 0.732835 0
M  V30 244 O 23.4984 2.43241 1.144 0
M  V30 245 C 21.7694 3.38187 -1.15604 0
M  V30 246 S 23.3284 4.27702 -0.980621 0
M  V30 247 H 20.1464 0.66018 -0.263976 0
M  V30 248 H 22.7484 1.44978 -1.31155 0
M  V30 249 H 21.4524 3.45653 -2.21251 0
M  V30 250 H 20.9834 3.89363 -0.562131 0
M  V30 251 H 22.9984 4.96073 0.112225 0
M  V30 252 N 22.1715 0.800033 1.35784 0
M  V30 253 C 23.1345 0.211565 2.28221 0
M  V30 254 C 24.1345 -0.59728 1.49296 0
M  V30 255 O 25.3245 -0.416721 1.69142 0
M  V30 256 C 22.4565 -0.705846 3.33513 0
M  V30 257 H 23.6495 1.02677 2.81776 0
M  V30 258 H 21.2025 0.570211 1.45528 0
M  V30 259 H 21.9375 -1.54498 2.85133 0
M  V30 260 H 21.7225 -0.127655 3.91892 0
M  V30 261 H 23.2125 -1.11211 4.02519 0
M  V30 262 N 23.6496 -1.47581 0.552962 0
M  V30 263 C 24.8746 -2.07378 0.0300593 0
M  V30 264 C 25.2996 -1.40355 -1.25229 0
M  V30 265 O 24.6576 -0.477099 -1.7491 0
M  V30 266 C 24.7056 -3.60274 -0.153231 0
M  V30 267 O 23.8096 -3.94041 -1.21678 0
M  V30 268 H 23.1506 -0.662158 0.0494182 0
M  V30 269 H 25.6806 -1.89662 0.767434 0
M  V30 270 H 25.6906 -4.0633 -0.368761 0
M  V30 271 H 24.3656 -4.08455 0.783397 0
M  V30 272 H 22.9426 -3.59735 -0.982079 0
M  V30 273 N 25.1277 -0.289203 -1.54924 0
M  V30 274 C 26.3747 0.323519 -1.99899 0
M  V30 275 C 26.7027 1.54797 -1.17762 0
M  V30 276 O 25.9577 1.94237 -0.238835 0
M  V30 277 C 26.2567 0.736119 -3.49737 0
M  V30 278 C 25.9227 -0.385276 -4.49251 0
M  V30 279 C 24.5847 -0.693156 -4.76181 0
M  V30 280 C 26.9367 -1.14021 -5.08575 0
M  V30 281 C 24.2647 -1.7593 -5.59701 0
M  V30 282 C 26.6167 -2.19619 -5.93254 0
M  V30 283 C 25.2807 -2.51026 -6.185 0
M  V30 284 H 24.5507 0.118384 -0.731482 0
M  V30 285 H 27.1977 -0.405847 -1.8715 0
M  V30 286 H 25.5027 1.54539 -3.60035 0
M  V30 287 H 27.1997 1.22118 -3.81953 0
M  V30 288 H 23.7897 -0.135202 -4.28387 0
M  V30 289 H 27.9737 -0.915611 -4.87781 0
M  V30 290 H 23.2297 -2.0075 -5.77503 0
M  V30 291 H 27.4037 -2.78581 -6.38252 0
M  V30 292 H 25.0307 -3.33772 -6.83008 0
M  V30 293 N 26.6058 1.57591 -0.0167156 0
M  V30 294 C 27.8548 1.90461 0.663877 0
M  V30 295 C 28.1678 0.893515 1.73999 0
M  V30 296 O 29.3738 1.11302 2.47637 0
M  V30 297 C 27.8298 3.38155 1.23204 0
M  V30 298 C 27.4378 4.47597 0.189866 0
M  V30 299 C 29.1818 3.80111 1.88986 0
M  V30 300 C 27.0888 5.86379 0.768964 0
M  V30 301 H 26.0188 0.710738 0.251729 0
M  V30 302 H 28.6698 1.83326 -0.0799926 0
M  V30 303 H 27.0518 3.40182 2.02712 0
M  V30 304 H 28.2258 4.57112 -0.581846 0
M  V30 305 H 26.5408 4.14766 -0.368475 0
M  V30 306 H 29.1378 4.81145 2.33247 0
M  V30 307 H 29.4808 3.14511 2.72743 0
M  V30 308 H 30.0138 3.80454 1.16187 0
M  V30 309 H 26.7528 6.55493 -0.0301957 0
M  V30 310 H 26.2728 5.80496 1.50945 0
M  V30 311 H 27.9518 6.34563 1.26251 0
M  V30 312 N 28.0839 -0.256276 1.55502 0
M  V30 313 C 29.3299 -0.987079 1.77157 0
M  V30 314 C 29.6629 -1.85327 0.580315 0
M  V30 315 O 28.9379 -1.89874 -0.421686 0
M  V30 316 C 29.2209 -1.85553 3.08613 0
M  V30 317 C 29.0739 -1.01816 4.38125 0
M  V30 318 C 30.3929 -2.8397 3.36228 0
M  V30 319 H 27.5119 -0.357428 0.644526 0
M  V30 320 H 30.1539 -0.258239 1.88237 0
M  V30 321 H 28.3039 -2.47695 2.99298 0
M  V30 322 H 29.9759 -0.416159 4.59419 0
M  V30 323 H 28.2189 -0.322178 4.32602 0
M  V30 324 H 28.8899 -1.65939 5.26468 0
M  V30 325 H 31.3659 -2.31964 3.45445 0
M  V30 326 H 30.2419 -3.41864 4.29442 0
M  V30 327 H 30.5029 -3.59955 2.56681 0
M  V30 328 N 29.562 -1.4872 -0.521534 0
M  V30 329 C 30.512 -1.60269 -1.62166 0
M  V30 330 C 31.496 -0.45935 -1.54204 0
M  V30 331 O 32.688 -0.711241 -1.62081 0
M  V30 332 C 29.817 -1.65344 -3.00859 0
M  V30 333 C 28.903 -2.85187 -3.13894 0
M  V30 334 N 29.294 -4.09509 -2.96877 0
M  V30 335 C 27.592 -2.82695 -3.44963 0
M  V30 336 C 28.293 -4.89959 -3.13552 0
M  V30 337 N 27.269 -4.22934 -3.41508 0
M  V30 338 H 31.071 -2.5413 -1.47632 0
M  V30 339 H 28.585 -1.45209 -0.727194 0
M  V30 340 H 30.582 -1.71713 -3.79895 0
M  V30 341 H 29.242 -0.726058 -3.16478 0
M  V30 342 H 30.253 -4.39814 -2.73467 0
M  V30 343 H 26.93 -1.99249 -3.66887 0
M  V30 344 H 28.32 -5.98654 -3.05061 0
M  V30 345 N 31.0401 0.771051 -1.3745 0
M  V30 346 C 32.0031 1.86598 -1.33093 0
M  V30 347 C 33.0031 1.59076 -0.234845 0
M  V30 348 O 34.1931 1.67145 -0.490732 0
M  V30 349 C 31.3251 3.23747 -1.06773 0
M  V30 350 H 32.5181 1.91873 -2.30488 0
M  V30 351 H 30.0711 0.970876 -1.2249 0
M  V30 352 H 30.8061 3.24148 -0.099129 0
M  V30 353 H 30.5911 3.45115 -1.86112 0
M  V30 354 H 32.0811 4.03824 -1.06377 0
M  V30 355 N 32.5182 1.22032 0.997298 0
M  V30 356 C 33.4812 0.987909 2.06816 0
M  V30 357 C 34.4812 -0.0440084 1.6074 0
M  V30 358 O 35.6712 0.194053 1.73116 0
M  V30 359 C 32.8032 0.49132 3.37341 0
M  V30 360 H 33.9962 1.93803 2.28868 0
M  V30 361 H 31.5492 1.03838 1.16822 0
M  V30 362 H 32.2842 -0.463364 3.20973 0
M  V30 363 H 32.0692 1.23575 3.72118 0
M  V30 364 H 33.5592 0.348824 4.16141 0
M  V30 365 N 33.9963 -1.19345 1.0293 0
M  V30 366 C 34.9593 -2.20793 0.615069 0
M  V30 367 C 35.9593 -1.57553 -0.321533 0
M  V30 368 O 37.1493 -1.73862 -0.108483 0
M  V30 369 C 34.2813 -3.40754 -0.0999222 0
M  V30 370 H 35.4743 -2.58955 1.51269 0
M  V30 371 H 33.0273 -1.3303 0.820534 0
M  V30 372 H 33.7623 -3.0811 -1.01187 0
M  V30 373 H 33.5473 -3.87889 0.57309 0
M  V30 374 H 35.0373 -4.15898 -0.376645 0
M  V30 375 N 35.4744 -0.807222 -1.35358 0
M  V30 376 C 36.8854 -0.44876 -1.81226 0
M  V30 377 C 37.2364 1.02929 -1.67033 0
M  V30 378 O 36.3614 1.79991 -1.20133 0
M  V30 379 C 36.9564 -0.807774 -3.2903 0
M  V30 380 C 35.5154 -0.501901 -3.73039 0
M  V30 381 C 34.6624 -1.03304 -2.57339 0
M  V30 382 H 37.6134 -0.998808 -1.23327 0
M  V30 383 H 37.6344 -0.10554 -3.80354 0
M  V30 384 H 37.1464 -1.88357 -3.39328 0
M  V30 385 H 35.2474 0.565128 -3.68289 0
M  V30 386 H 35.3604 -1.03497 -4.67787 0
M  V30 387 H 33.7244 -0.455339 -2.50597 0
M  V30 388 H 34.5074 -2.11496 -2.70415 0
M  V30 389 N 36.9525 1.47285 -0.560781 0
M  V30 390 C 38.2295 1.9558 0.0277798 0
M  V30 391 C 38.6095 1.5034 1.48192 0
M  V30 392 O 37.9575 0.743882 2.16052 0
M  V30 393 C 38.1675 3.48789 -0.121418 0
M  V30 394 C 39.5155 4.24594 0.0220912 0
M  V30 395 O 40.5395 3.56166 -0.0491439 0
M  V30 396 O 39.3985 5.46217 0.175958 0
M  V30 397 H 36.4925 0.824663 0.0621342 0
M  V30 398 H 39.0385 1.5767 -0.627556 0
M  V30 399 H 37.8105 3.74533 -1.13316 0
M  V30 400 H 37.4335 3.93473 0.571366 0
M  V30 401 N 38.4306 0.297415 1.54768 0
M  V30 402 C 39.3406 -0.58983 2.27064 0
M  V30 403 C 40.3566 -1.15144 1.30453 0
M  V30 404 O 41.5326 -1.17699 1.63428 0
M  V30 405 C 38.5976 -1.74714 2.9946 0
M  V30 406 C 37.6586 -1.21997 4.11601 0
M  V30 407 C 36.8916 -2.32212 4.80535 0
M  V30 408 O 37.1146 -3.52036 4.48806 0
M  V30 409 O 36.0486 -1.99106 5.68014 0
M  V30 410 H 39.8746 -0.00348199 3.037 0
M  V30 411 H 37.4596 0.0640035 1.49263 0
M  V30 412 H 39.3416 -2.42147 3.44881 0
M  V30 413 H 38.0166 -2.32016 2.25722 0
M  V30 414 H 36.9236 -0.511458 3.70587 0
M  V30 415 H 38.2566 -0.692419 4.87305 0
M  V30 416 N 39.9087 -1.5758 0.0250728 0
M  V30 417 C 41.1577 -1.90811 -0.653767 0
M  V30 418 C 41.4707 -0.90273 -1.73523 0
M  V30 419 O 42.6767 -1.12614 -2.47043 0
M  V30 420 C 41.1327 -3.38804 -1.21409 0
M  V30 421 C 40.7407 -4.47692 -0.166126 0
M  V30 422 C 42.4847 -3.81108 -1.86967 0
M  V30 423 C 40.3917 -5.86779 -0.737856 0
M  V30 424 H 39.3217 -0.712063 -0.247956 0
M  V30 425 H 41.9727 -1.83281 0.0897137 0
M  V30 426 H 40.3547 -3.41252 -2.00905 0
M  V30 427 H 41.5287 -4.56797 0.606079 0
M  V30 428 H 39.8437 -4.14565 0.390466 0
M  V30 429 H 42.4407 -4.82375 -2.30692 0
M  V30 430 H 42.7837 -3.15953 -2.71071 0
M  V30 431 H 43.3167 -3.81065 -1.14167 0
M  V30 432 H 40.0557 -6.55468 0.0649577 0
M  V30 433 H 39.5757 -5.81288 -1.47864 0
M  V30 434 H 41.2547 -6.35223 -1.22884 0
M  V30 435 N 41.3868 0.248026 -1.55636 0
M  V30 436 C 42.6148 0.993808 -1.81469 0
M  V30 437 C 43.0298 1.78991 -0.60064 0
M  V30 438 O 42.3868 1.77345 0.430682 0
M  V30 439 C 42.4378 1.93258 -3.05506 0
M  V30 440 O 42.1588 1.16869 -4.22224 0
M  V30 441 C 43.6598 2.79444 -3.4413 0
M  V30 442 H 40.8798 0.292486 -0.603898 0
M  V30 443 H 43.4238 0.271253 -2.02693 0
M  V30 444 H 41.5788 2.60943 -2.86335 0
M  V30 445 H 41.9928 1.80359 -4.92515 0
M  V30 446 H 43.4668 3.41066 -4.34026 0
M  V30 447 H 43.9438 3.50499 -2.64665 0
M  V30 448 H 44.5498 2.17214 -3.65648 0
M  V30 449 N 42.8649 1.48995 0.513639 0
M  V30 450 C 44.0929 1.61531 1.29288 0
M  V30 451 C 44.5079 0.281801 1.86685 0
M  V30 452 O 43.8649 -0.731111 1.67215 0
M  V30 453 C 43.9159 2.67449 2.43215 0
M  V30 454 O 43.6369 3.95626 1.88179 0
M  V30 455 C 45.1379 2.90575 3.34785 0
M  V30 456 H 42.3579 0.544165 0.392588 0
M  V30 457 H 44.9019 1.9494 0.617956 0
M  V30 458 H 43.0569 2.36853 3.0656 0
M  V30 459 H 43.4709 4.53868 2.62876 0
M  V30 460 H 44.9449 3.68449 4.11035 0
M  V30 461 H 45.4219 2.00011 3.91015 0
M  V30 462 H 46.0279 3.22538 2.77218 0
M  V30 463 N 44.343 -0.763751 1.37857 0
M  V30 464 C 45.306 -1.85889 1.34081 0
M  V30 465 C 46.306 -1.58949 0.243277 0
M  V30 466 O 47.496 -1.66882 0.499589 0
M  V30 467 C 44.628 -3.23176 1.08489 0
M  V30 468 H 45.821 -1.90648 2.31502 0
M  V30 469 H 43.374 -0.964367 1.23003 0
M  V30 470 H 44.109 -3.24091 0.116318 0
M  V30 471 H 43.894 -3.44124 1.8794 0
M  V30 472 H 45.384 -4.03254 1.08517 0
M  V30 473 N 45.8211 -1.22559 -0.990812 0
M  V30 474 C 47.0671 -1.06303 -1.73411 0
M  V30 475 C 47.4221 0.397442 -1.8825 0
M  V30 476 O 46.7151 1.29062 -1.41611 0
M  V30 477 C 46.9091 -1.71011 -3.13831 0
M  V30 478 C 46.7381 -3.232 -3.12685 0
M  V30 479 C 45.5081 -3.92314 -3.18461 0
M  V30 480 C 47.7061 -4.20107 -2.96673 0
M  V30 481 N 45.6881 -5.31571 -3.07091 0
M  V30 482 C 47.0591 -5.46208 -2.93354 0
M  V30 483 C 49.1141 -4.10973 -2.8108 0
M  V30 484 C 47.8171 -6.64225 -2.76039 0
M  V30 485 C 49.8431 -5.28642 -2.65126 0
M  V30 486 C 49.2051 -6.53663 -2.62496 0
M  V30 487 H 45.3041 -0.443441 -0.644115 0
M  V30 488 H 47.8881 -1.55131 -1.17654 0
M  V30 489 H 46.0591 -1.2473 -3.67827 0
M  V30 490 H 47.7911 -1.47828 -3.76735 0
M  V30 491 H 44.5461 -3.43326 -3.26227 0
M  V30 492 H 44.9701 -6.0455 -3.0471 0
M  V30 493 H 49.6121 -3.15098 -2.8191 0
M  V30 494 H 47.3301 -7.60246 -2.73954 0
M  V30 495 H 50.9161 -5.23407 -2.54039 0
M  V30 496 H 49.7961 -7.43182 -2.50302 0
M  V30 497 N 47.2992 1.18797 -1.03562 0
M  V30 498 C 48.7102 1.70322 -0.764676 0
M  V30 499 C 49.0612 1.82708 0.714996 0
M  V30 500 O 48.1862 1.50299 1.55689 0
M  V30 501 C 48.7812 3.09356 -1.38145 0
M  V30 502 C 47.3402 3.58114 -1.15895 0
M  V30 503 C 46.4872 2.34798 -1.4753 0
M  V30 504 H 49.4382 1.03543 -1.20268 0
M  V30 505 H 49.4592 3.72378 -0.781977 0
M  V30 506 H 48.9712 3.00309 -2.45837 0
M  V30 507 H 47.0722 3.72464 -0.100544 0
M  V30 508 H 47.1852 4.4184 -1.8524 0
M  V30 509 H 45.5492 2.38464 -0.894829 0
M  V30 510 H 46.3322 2.28375 -2.56319 0
M  V30 511 N 48.7773 0.814389 1.34928 0
M  V30 512 C 50.0233 0.399013 1.98836 0
M  V30 513 C 50.3563 -1.03314 1.64438 0
M  V30 514 O 49.6313 -1.71811 0.911659 0
M  V30 515 C 49.9143 0.591629 3.55207 0
M  V30 516 C 49.7673 2.06928 3.99376 0
M  V30 517 C 51.0863 0.022199 4.40094 0
M  V30 518 H 48.2053 0.146451 0.722303 0
M  V30 519 H 50.8473 1.02537 1.59957 0
M  V30 520 H 48.9973 0.0584441 3.88456 0
M  V30 521 H 50.6693 2.66544 3.76499 0
M  V30 522 H 48.9123 2.56287 3.49999 0
M  V30 523 H 49.5833 2.1549 5.08201 0
M  V30 524 H 52.0593 0.477643 4.13349 0
M  V30 525 H 50.9353 0.186832 5.48582 0
M  V30 526 H 51.1963 -1.07215 4.28902 0
M  V30 527 N 50.2554 -1.46986 0.568584 0
M  V30 528 C 51.2034 -2.31858 -0.185649 0
M  V30 529 C 52.1974 -1.43624 -0.898249 0
M  V30 530 O 53.4034 -1.60327 -0.818242 0
M  V30 531 H 49.7784 -0.747866 -0.0787399 0
M  V30 532 H 51.7494 -2.93303 0.549191 0
M  V30 533 C 50.4984 -3.26513 -1.19519 0
M  V30 534 H 49.8214 -3.94377 -0.656285 0
M  V30 535 H 51.2614 -3.88707 -1.6936 0
M  V30 536 C 49.7204 -2.50847 -2.24894 0
M  V30 537 O 50.2504 -2.26119 -3.32014 0
M  V30 538 N 48.4564 -2.11656 -1.99124 0
M  V30 539 H 48.0034 -2.31966 -1.12024 0
M  V30 540 H 47.9614 -1.61347 -2.69842 0
M  V30 541 N 51.7335 -0.305618 -1.54608 0
M  V30 542 C 52.9795 0.302746 -2.00528 0
M  V30 543 C 53.3125 1.53184 -1.19367 0
M  V30 544 O 52.5875 1.92598 -0.271321 0
M  V30 545 C 52.8705 0.654756 -3.54097 0
M  V30 546 C 52.7235 -0.583793 -4.45995 0
M  V30 547 C 54.0425 1.47947 -4.14487 0
M  V30 548 H 51.1615 0.108564 -0.72896 0
M  V30 549 H 53.8035 -0.418634 -1.85331 0
M  V30 550 H 51.9535 1.26935 -3.67178 0
M  V30 551 H 53.6255 -1.22224 -4.44814 0
M  V30 552 H 51.8685 -1.21615 -4.16404 0
M  V30 553 H 52.5395 -0.293287 -5.5122 0
M  V30 554 H 55.0155 0.96013 -4.04871 0
M  V30 555 H 53.8915 1.69454 -5.22088 0
M  V30 556 H 54.1525 2.47011 -3.66658 0
M  V30 557 N 53.2116 1.57565 -0.0334293 0
M  V30 558 C 54.4596 1.91598 0.642999 0
M  V30 559 C 54.7806 0.910847 1.7242 0
M  V30 560 O 54.0506 -0.0469931 1.95844 0
M  V30 561 H 52.6306 0.707228 0.240496 0
M  V30 562 H 55.2926 1.94726 -0.0822488 0
M  V30 563 H 54.3886 2.92336 1.09298 0
M  V30 564 N 54.6897 -0.239769 1.55765 0
M  V30 565 C 56.1007 -0.808263 1.68297 0
M  V30 566 C 56.4517 -1.85736 0.632181 0
M  V30 567 O 55.5767 -2.15277 -0.220204 0
M  V30 568 C 56.1717 -1.47284 3.05111 0
M  V30 569 C 54.7307 -1.98895 3.19559 0
M  V30 570 C 53.8777 -0.842575 2.64189 0
M  V30 571 H 56.8287 -0.0154422 1.58692 0
M  V30 572 H 56.8497 -2.34111 2.99954 0
M  V30 573 H 56.3617 -0.709053 3.81568 0
M  V30 574 H 54.4627 -2.78132 2.47938 0
M  V30 575 H 54.5757 -2.18143 4.26556 0
M  V30 576 H 52.9397 -1.24501 2.22197 0
M  V30 577 H 53.7227 -0.0917552 3.43177 0
M  V30 578 N 56.1678 -1.49265 -0.50573 0
M  V30 579 C 57.0978 -1.68495 -1.61653 0
M  V30 580 C 58.0788 -0.53366 -1.61512 0
M  V30 581 O 59.2638 -0.76897 -1.78327 0
M  V30 582 C 56.3938 -1.74709 -3.00157 0
M  V30 583 C 55.3478 -2.89581 -3.15162 0
M  V30 584 C 54.6738 -2.80903 -4.5497 0
M  V30 585 C 55.9738 -4.30578 -2.95634 0
M  V30 586 H 57.6678 -2.61493 -1.45814 0
M  V30 587 H 55.2138 -1.25838 -0.70005 0
M  V30 588 H 57.1668 -1.86748 -3.77761 0
M  V30 589 H 55.8908 -0.783067 -3.17074 0
M  V30 590 H 54.5498 -2.77136 -2.39982 0
M  V30 591 H 54.1978 -1.82419 -4.68756 0
M  V30 592 H 53.8978 -3.57999 -4.65951 0
M  V30 593 H 55.4218 -2.94944 -5.34641 0
M  V30 594 H 56.8358 -4.4373 -3.63011 0
M  V30 595 H 55.2328 -5.0886 -3.18091 0
M  V30 596 H 56.3028 -4.45352 -1.91806 0
M  V30 597 N 57.6459 0.756429 -1.3826 0
M  V30 598 C 58.5939 1.89149 -1.35372 0
M  V30 599 C 59.5879 1.67691 -0.24004 0
M  V30 600 O 60.7939 1.75294 -0.408919 0
M  V30 601 H 57.1689 0.622271 -0.422236 0
M  V30 602 H 59.1399 1.88701 -2.31159 0
M  V30 603 C 57.8889 3.26599 -1.19284 0
M  V30 604 H 57.2119 3.43695 -2.0424 0
M  V30 605 H 58.6519 4.06274 -1.21316 0
M  V30 606 C 57.1109 3.3675 0.100454 0
M  V30 607 O 57.6409 3.86951 1.07851 0
M  V30 608 N 55.8469 2.90179 0.15633 0
M  V30 609 H 55.3939 2.49517 -0.640253 0
M  V30 610 H 55.3519 2.97352 1.02123 0
M  V30 611 N 59.124 1.23083 0.984299 0
M  V30 612 C 60.535 1.05609 1.5396 0
M  V30 613 C 60.886 -0.377793 1.92528 0
M  V30 614 O 60.011 -1.26398 1.75649 0
M  V30 615 C 60.606 1.91087 2.7977 0
M  V30 616 C 59.165 1.77885 3.31713 0
M  V30 617 C 58.312 1.87028 2.04733 0
M  V30 618 H 61.263 1.36802 0.804419 0
M  V30 619 H 61.284 1.43336 3.5247 0
M  V30 620 H 60.796 2.9544 2.51668 0
M  V30 621 H 58.897 0.762995 3.64704 0
M  V30 622 H 59.01 2.61047 4.01735 0
M  V30 623 H 57.374 1.30565 2.18689 0
M  V30 624 H 58.157 2.92929 1.79017 0
M  V30 625 N 60.6021 -1.18246 1.0419 0
M  V30 626 C 61.5521 -2.19843 0.604392 0
M  V30 627 C 62.5361 -1.56962 -0.353814 0
M  V30 628 O 63.7281 -1.76156 -0.17267 0
M  V30 629 C 60.8571 -3.43287 -0.0298975 0
M  V30 630 C 59.9431 -4.13288 0.951531 0
M  V30 631 N 60.3341 -4.59271 2.11906 0
M  V30 632 C 58.6321 -4.39165 0.7778 0
M  V30 633 C 59.3331 -5.13173 2.73912 0
M  V30 634 N 58.3091 -5.04763 2.01779 0
M  V30 635 H 62.1111 -2.53089 1.4941 0
M  V30 636 H 59.6251 -1.34465 0.910658 0
M  V30 637 H 61.6221 -4.15334 -0.361037 0
M  V30 638 H 60.2821 -3.11537 -0.915127 0
M  V30 639 H 61.2931 -4.5368 2.49789 0
M  V30 640 H 57.9701 -4.17461 -0.0572331 0
M  V30 641 H 59.3601 -5.58947 3.72864 0
M  V30 642 N 62.0802 -0.821533 -1.34494 0
M  V30 643 C 63.0102 -0.257138 -2.3208 0
M  V30 644 C 63.9912 0.625645 -1.58176 0
M  V30 645 O 65.1762 0.552811 -1.86166 0
M  V30 646 C 62.3062 0.582958 -3.42372 0
M  V30 647 C 61.2602 -0.202571 -4.2752 0
M  V30 648 C 60.5862 0.760179 -5.29269 0
M  V30 649 C 61.8862 -1.40998 -5.02908 0
M  V30 650 H 63.5802 -1.07247 -2.79532 0
M  V30 651 H 61.1262 -0.517163 -1.34393 0
M  V30 652 H 63.0792 0.987972 -4.09655 0
M  V30 653 H 61.8032 1.43133 -2.93565 0
M  V30 654 H 60.4622 -0.588936 -3.61838 0
M  V30 655 H 60.1102 1.60447 -4.76724 0
M  V30 656 H 59.8102 0.238809 -5.87115 0
M  V30 657 H 61.3342 1.16308 -5.9942 0
M  V30 658 H 62.7482 -1.07905 -5.63054 0
M  V30 659 H 61.1452 -1.86689 -5.70322 0
M  V30 660 H 62.2152 -2.1889 -4.32684 0
M  V30 661 N 63.5583 1.46682 -0.576371 0
M  V30 662 C 64.7883 2.06498 -0.0648694 0
M  V30 663 C 65.1963 1.42665 1.24271 0
M  V30 664 O 64.5393 0.523886 1.76071 0
M  V30 665 C 64.6013 3.5904 0.181816 0
M  V30 666 C 64.2653 4.45028 -1.0392 0
M  V30 667 C 65.2623 4.81959 -1.94966 0
M  V30 668 C 62.9473 4.86259 -1.25927 0
M  V30 669 C 64.9413 5.58942 -3.06371 0
M  V30 670 C 62.6283 5.63002 -2.37638 0
M  V30 671 C 63.6263 5.99257 -3.2769 0
M  V30 672 O 63.3143 6.7445 -4.37461 0
M  V30 673 H 63.0463 0.674028 -0.0515987 0
M  V30 674 H 65.6003 1.89393 -0.794951 0
M  V30 675 H 63.8303 3.74429 0.966436 0
M  V30 676 H 65.5193 4.00806 0.641047 0
M  V30 677 H 66.2853 4.50689 -1.79177 0
M  V30 678 H 62.1643 4.57494 -0.567448 0
M  V30 679 H 65.7083 5.87158 -3.76684 0
M  V30 680 H 61.6053 5.93686 -2.53392 0
M  V30 681 H 62.3733 6.92867 -4.35749 0
M  V30 682 N 65.0364 0.313813 1.54444 0
M  V30 683 C 66.2644 -0.293918 2.04802 0
M  V30 684 C 66.6794 -1.46537 1.19047 0
M  V30 685 O 66.0364 -1.81182 0.218939 0
M  V30 686 C 66.0874 -0.737806 3.53891 0
M  V30 687 O 65.8084 0.387038 4.36387 0
M  V30 688 C 67.3094 -1.40936 4.203 0
M  V30 689 H 64.5294 -0.0620057 0.668129 0
M  V30 690 H 67.0734 0.457169 1.99324 0
M  V30 691 H 65.2284 -1.43889 3.59687 0
M  V30 692 H 65.6424 0.0391274 5.24485 0
M  V30 693 H 67.1164 -1.67099 5.26101 0
M  V30 694 H 67.5934 -2.35355 3.70816 0
M  V30 695 H 68.1994 -0.751117 4.18615 0
M  V30 696 N 66.5145 -1.57545 0.0417849 0
M  V30 697 C 67.9255 -1.80011 -0.495259 0
M  V30 698 C 68.2765 -0.953199 -1.71489 0
M  V30 699 O 67.4015 -0.167138 -2.15754 0
M  V30 700 C 67.9965 -3.26482 -0.905265 0
M  V30 701 C 66.5555 -3.499 -1.38734 0
M  V30 702 C 65.7025 -2.74979 -0.358056 0
M  V30 703 H 68.6535 -1.56425 0.267736 0
M  V30 704 H 68.6745 -3.36887 -1.76882 0
M  V30 705 H 68.1865 -3.88096 -0.017401 0
M  V30 706 H 66.2875 -2.93553 -2.29471 0
M  V30 707 H 66.4005 -4.58615 -1.38598 0
M  V30 708 H 64.7645 -2.40834 -0.828912 0
M  V30 709 H 65.5475 -3.39315 0.521561 0
M  V30 710 N 67.9926 0.231505 -1.5589 0
M  V30 711 C 68.9406 1.30649 -1.92441 0
M  V30 712 C 69.9346 1.49037 -0.805254 0
M  V30 713 O 71.1406 1.50329 -0.990007 0
M  V30 714 H 67.5156 0.437812 -0.611412 0
M  V30 715 H 69.4866 0.970973 -2.82161 0
M  V30 716 C 68.2356 2.65179 -2.24889 0
M  V30 717 H 67.5586 2.51835 -3.10514 0
M  V30 718 H 68.9986 3.39234 -2.54355 0
M  V30 719 C 67.4576 3.19439 -1.07054 0
M  V30 720 O 67.9876 4.00371 -0.326499 0
M  V30 721 N 66.1936 2.77675 -0.85703 0
M  V30 722 H 65.7406 2.11969 -1.46379 0
M  V30 723 H 65.6986 3.14321 -0.0703223 0
M  V30 724 N 69.4707 1.49531 0.497807 0
M  V30 725 C 70.4027 1.62559 1.61578 0
M  V30 726 C 71.4157 0.508134 1.54667 0
M  V30 727 O 72.6047 0.780309 1.60541 0
M  V30 728 C 69.7047 1.56925 3.00379 0
M  V30 729 C 68.8777 2.84257 3.3244 0
M  V30 730 C 67.9367 2.71632 4.50669 0
M  V30 731 O 66.9627 3.4557 4.52294 0
M  V30 732 N 68.1647 1.83391 5.5077 0
M  V30 733 H 70.9297 2.58981 1.50828 0
M  V30 734 H 68.4907 1.4666 0.685743 0
M  V30 735 H 70.4827 1.46129 3.77397 0
M  V30 736 H 69.0527 0.683483 3.05037 0
M  V30 737 H 68.2727 3.09381 2.44289 0
M  V30 738 H 69.5607 3.68666 3.5066 0
M  V30 739 H 68.9587 1.22583 5.52259 0
M  V30 740 H 67.5157 1.78515 6.26878 0
M  V30 741 N 70.9488 -0.749086 1.3866 0
M  V30 742 C 71.8818 -1.87111 1.30631 0
M  V30 743 C 72.8598 -1.61572 0.18251 0
M  V30 744 O 74.0438 -1.85019 0.360592 0
M  V30 745 C 71.1708 -3.22815 1.02511 0
M  V30 746 C 70.2168 -3.67234 2.1689 0
M  V30 747 S 71.0498 -3.78245 3.79066 0
M  V30 748 C 72.2058 -5.16761 3.53142 0
M  V30 749 H 72.4388 -1.93636 2.25594 0
M  V30 750 H 69.9718 -0.912525 1.24549 0
M  V30 751 H 71.9298 -4.01181 0.869701 0
M  V30 752 H 70.5908 -3.13964 0.0925884 0
M  V30 753 H 69.7838 -4.65677 1.92771 0
M  V30 754 H 69.3858 -2.96034 2.28561 0
M  V30 755 H 71.6778 -6.02656 3.09534 0
M  V30 756 H 72.6208 -5.45902 4.50995 0
M  V30 757 H 73.0288 -4.85771 2.87554 0
M  V30 758 N 72.4269 -1.23603 -0.977757 0
M  V30 759 C 73.6739 -1.06971 -1.71941 0
M  V30 760 C 74.0019 0.393009 -1.90488 0
M  V30 761 O 73.2569 1.30719 -1.4564 0
M  V30 762 C 73.5559 -1.7433 -3.11999 0
M  V30 763 C 73.2219 -3.24252 -3.13323 0
M  V30 764 C 71.8839 -3.65156 -3.13392 0
M  V30 765 C 74.2359 -4.20141 -3.08433 0
M  V30 766 C 71.5639 -5.00403 -3.0629 0
M  V30 767 C 73.9159 -5.55384 -3.02873 0
M  V30 768 C 72.5799 -5.95647 -3.01265 0
M  V30 769 H 71.8499 -0.391433 -0.629175 0
M  V30 770 H 74.4969 -1.53572 -1.14403 0
M  V30 771 H 72.8019 -1.20096 -3.7294 0
M  V30 772 H 74.4989 -1.58936 -3.68158 0
M  V30 773 H 71.0889 -2.91692 -3.14029 0
M  V30 774 H 75.2729 -3.89547 -3.07517 0
M  V30 775 H 70.5289 -5.3081 -3.03399 0
M  V30 776 H 74.7029 -6.29398 -2.98046 0
M  V30 777 H 72.3299 -7.0041 -2.95516 0
M  V30 778 N 73.905 1.17692 -1.04816 0
M  V30 779 C 74.868 2.19787 -0.650117 0
M  V30 780 C 75.868 1.58044 0.296427 0
M  V30 781 O 77.058 1.74012 0.0808097 0
M  V30 782 C 74.19 3.40869 0.0456987 0
M  V30 783 H 75.383 2.56516 -1.5537 0
M  V30 784 H 72.936 1.31708 -0.841594 0
M  V30 785 H 73.671 3.09681 0.962726 0
M  V30 786 H 73.456 3.86928 -0.634727 0
M  V30 787 H 74.946 4.16445 0.310432 0
M  V30 788 N 75.3831 0.828654 1.34056 0
M  V30 789 C 76.3151 0.212052 2.28217 0
M  V30 790 C 77.3281 -0.601362 1.51286 0
M  V30 791 O 78.5171 -0.430104 1.73241 0
M  V30 792 C 75.6171 -0.72088 3.31144 0
M  V30 793 C 74.7901 0.0509587 4.3737 0
M  V30 794 C 73.8491 -0.803766 5.20025 0
M  V30 795 O 72.8751 -0.246667 5.68665 0
M  V30 796 N 74.0771 -2.1227 5.40298 0
M  V30 797 H 76.8421 1.02105 2.81771 0
M  V30 798 H 74.4031 0.686153 1.46641 0
M  V30 799 H 76.3951 -1.29742 3.8334 0
M  V30 800 H 74.9651 -1.43061 2.77943 0
M  V30 801 H 74.1851 0.808831 3.85813 0
M  V30 802 H 75.4731 0.582065 5.0546 0
M  V30 803 H 74.8711 -2.59898 5.02464 0
M  V30 804 H 73.4281 -2.64796 5.95589 0
M  V30 805 N 76.8612 -1.46375 0.584142 0
M  V30 806 C 78.0862 -2.07268 0.0740405 0
M  V30 807 C 78.5112 -1.42979 -1.22223 0
M  V30 808 O 77.8692 -0.514092 -1.73859 0
M  V30 809 C 77.9172 -3.60518 -0.0767769 0
M  V30 810 O 77.0212 -3.96533 -1.13292 0
M  V30 811 H 76.3622 -0.660961 0.0634524 0
M  V30 812 H 78.8922 -1.87991 0.807492 0
M  V30 813 H 78.9022 -4.07021 -0.282489 0
M  V30 814 H 77.5772 -4.06702 0.86986 0
M  V30 815 H 76.1542 -3.61738 -0.905553 0
M  V30 816 N 78.3393 -0.321999 -1.54275 0
M  V30 817 C 79.2723 0.58718 -2.20516 0
M  V30 818 C 80.2503 1.11693 -1.18167 0
M  V30 819 O 81.4343 1.18122 -1.46899 0
M  V30 820 C 78.5613 1.80554 -2.86562 0
M  V30 821 C 77.6073 1.40718 -4.02617 0
M  V30 822 S 78.4403 0.445218 -5.33646 0
M  V30 823 C 79.5963 1.6709 -6.03185 0
M  V30 824 H 79.8293 0.0244875 -2.9729 0
M  V30 825 H 77.3623 -0.106087 -1.54035 0
M  V30 826 H 79.3203 2.50462 -3.25237 0
M  V30 827 H 77.9813 2.33942 -2.09595 0
M  V30 828 H 77.1743 2.31501 -4.47687 0
M  V30 829 H 76.7763 0.78782 -3.65608 0
M  V30 830 H 79.0683 2.60856 -6.25268 0
M  V30 831 H 80.0113 1.26239 -6.96756 0
M  V30 832 H 80.4193 1.85716 -5.33076 0
M  V30 833 N 79.8174 1.5752 -0.0501392 0
M  V30 834 C 81.0634 1.92936 0.624798 0
M  V30 835 C 81.3964 0.928685 1.70555 0
M  V30 836 O 80.6714 -0.0454779 1.94447 0
M  V30 837 C 80.9544 3.38737 1.22185 0
M  V30 838 C 80.8074 4.49552 0.149218 0
M  V30 839 C 82.1264 3.84913 2.13378 0
M  V30 840 H 79.2454 0.701604 0.225657 0
M  V30 841 H 81.8874 1.89671 -0.111693 0
M  V30 842 H 80.0374 3.4165 1.84953 0
M  V30 843 H 81.7094 4.58768 -0.482648 0
M  V30 844 H 79.9524 4.30638 -0.522841 0
M  V30 845 H 80.6234 5.48653 0.606966 0
M  V30 846 H 83.0994 3.8387 1.60572 0
M  V30 847 H 81.9754 4.87584 2.52097 0
M  V30 848 H 82.2364 3.21611 3.03346 0
M  V30 849 N 81.2955 -0.223234 1.56011 0
M  V30 850 C 82.5255 -0.963413 1.82762 0
M  V30 851 C 82.9335 -1.78516 0.626804 0
M  V30 852 O 82.2765 -1.78974 -0.414014 0
M  V30 853 C 82.3385 -1.93126 3.0322 0
M  V30 854 C 82.0025 -1.2942 4.38291 0
M  V30 855 C 82.9995 -0.684916 5.15369 0
M  V30 856 C 80.6845 -1.30647 4.85012 0
M  V30 857 C 82.6785 -0.0963971 6.37327 0
M  V30 858 C 80.3655 -0.71411 6.06913 0
M  V30 859 C 81.3635 -0.110123 6.82911 0
M  V30 860 O 81.0515 0.47303 8.02507 0
M  V30 861 H 80.7835 -0.288011 0.611576 0
M  V30 862 H 83.3375 -0.244103 2.03944 0
M  V30 863 H 81.5675 -2.68952 2.77852 0
M  V30 864 H 83.2565 -2.53685 3.16857 0
M  V30 865 H 84.0225 -0.667774 4.80381 0
M  V30 866 H 79.9015 -1.76598 4.25833 0
M  V30 867 H 83.4455 0.375657 6.96588 0
M  V30 868 H 79.3425 -0.728659 6.41374 0
M  V30 869 H 80.1105 0.367186 8.17676 0
M  V30 870 N 82.7736 -1.49793 -0.48987 0
M  V30 871 C 83.6836 -1.70036 -1.61632 0
M  V30 872 C 84.6996 -0.583102 -1.63939 0
M  V30 873 O 85.8756 -0.859169 -1.82154 0
M  V30 874 C 82.9406 -1.77277 -2.97949 0
M  V30 875 C 82.0016 -3.00918 -3.06181 0
M  V30 876 C 81.2346 -3.07804 -4.35996 0
M  V30 877 O 81.4576 -2.21982 -5.25433 0
M  V30 878 O 80.3916 -4.00369 -4.49431 0
M  V30 879 H 84.2176 -2.65486 -1.47482 0
M  V30 880 H 81.8026 -1.33666 -0.667362 0
M  V30 881 H 83.6846 -1.84329 -3.78947 0
M  V30 882 H 82.3596 -0.850076 -3.12339 0
M  V30 883 H 81.2666 -2.99377 -2.2433 0
M  V30 884 H 82.5996 -3.92704 -2.96723 0
M  V30 885 N 84.2517 0.741722 -1.39055 0
M  V30 886 C 85.6627 1.31966 -1.32068 0
M  V30 887 C 86.0137 1.96192 0.0180797 0
M  V30 888 O 85.1387 1.95861 0.920196 0
M  V30 889 C 85.7337 2.39954 -2.39181 0
M  V30 890 C 84.2927 2.93438 -2.35735 0
M  V30 891 C 83.4397 1.66936 -2.21422 0
M  V30 892 H 86.3907 0.539721 -1.4924 0
M  V30 893 H 86.4117 3.20182 -2.05581 0
M  V30 894 H 85.9237 1.9318 -3.36605 0
M  V30 895 H 84.0247 3.4451 -1.41929 0
M  V30 896 H 84.1377 3.4701 -3.30335 0
M  V30 897 H 82.5017 1.91016 -1.68478 0
M  V30 898 H 83.2847 1.22224 -3.20806 0
M  V30 899 N 85.7298 1.2412 0.971189 0
M  V30 900 C 86.6598 1.05508 2.08304 0
M  V30 901 C 87.6408 -0.0308864 1.70072 0
M  V30 902 O 88.8258 0.135521 1.93727 0
M  V30 903 C 85.9558 0.655365 3.4106 0
M  V30 904 C 84.9098 1.68971 3.93234 0
M  V30 905 C 84.2358 1.14516 5.22293 0
M  V30 906 C 85.5358 3.08487 4.21465 0
M  V30 907 H 87.2298 1.98507 2.24132 0
M  V30 908 H 84.7758 0.955821 1.07704 0
M  V30 909 H 86.7288 0.51217 4.18276 0
M  V30 910 H 85.4528 -0.31032 3.25122 0
M  V30 911 H 84.1118 1.82106 3.18171 0
M  V30 912 H 83.7598 0.170189 5.02712 0
M  V30 913 H 83.4598 1.83635 5.58168 0
M  V30 914 H 84.9838 1.01401 6.02121 0
M  V30 915 H 86.3978 2.98601 4.89398 0
M  V30 916 H 84.7948 3.74926 4.68562 0
M  V30 917 H 85.8648 3.56787 3.28376 0
M  V30 918 N 87.2079 -1.17134 1.05439 0
M  V30 919 C 88.4539 -1.87733 0.767077 0
M  V30 920 C 88.7869 -1.8098 -0.704253 0
M  V30 921 O 88.0619 -1.21951 -1.5152 0
M  V30 922 C 88.3449 -3.37659 1.25133 0
M  V30 923 C 88.1979 -3.53149 2.78578 0
M  V30 924 C 89.5169 -4.31768 0.852324 0
M  V30 925 H 86.6359 -0.681687 0.280129 0
M  V30 926 H 89.2779 -1.37732 1.30881 0
M  V30 927 H 87.4279 -3.80373 0.790469 0
M  V30 928 H 89.0999 -3.19434 3.32806 0
M  V30 929 H 87.3429 -2.95345 3.17732 0
M  V30 930 H 88.0139 -4.58403 3.07523 0
M  V30 931 H 90.4899 -3.96909 1.24911 0
M  V30 932 H 89.3659 -5.35199 1.21873 0
M  V30 933 H 89.6269 -4.41429 -0.243485 0
M  V30 934 N 88.686 -0.835752 -1.33615 0
M  V30 935 C 89.633 -0.26473 -2.29277 0
M  V30 936 C 90.603 0.617712 -1.54187 0
M  V30 937 O 91.788 0.556641 -1.825 0
M  V30 938 C 88.928 0.556777 -3.40579 0
M  V30 939 C 88.041 -0.349339 -4.30585 0
M  V30 940 C 87.176 0.482969 -5.29 0
M  V30 941 C 86.215 -0.421732 -6.10645 0
M  V30 942 N 85.352 0.372262 -7.01112 0
M  V30 943 H 90.192 -1.08582 -2.77514 0
M  V30 944 H 87.729 -0.546927 -1.36554 0
M  V30 945 H 89.687 1.04852 -4.03809 0
M  V30 946 H 88.317 1.34286 -2.93542 0
M  V30 947 H 87.369 -0.959372 -3.68104 0
M  V30 948 H 88.681 -1.04445 -4.87742 0
M  V30 949 H 87.835 1.03866 -5.97743 0
M  V30 950 H 86.574 1.21153 -4.72412 0
M  V30 951 H 85.579 -0.989464 -5.40823 0
M  V30 952 H 86.804 -1.14861 -6.69316 0
M  V30 953 H 84.75 1.08426 -6.46977 0
M  V30 954 H 84.667 -0.264198 -7.55538 0
M  V30 955 H 85.935 0.910293 -7.74167 0
M  V30 956 N 90.1641 1.46063 -0.591896 0
M  V30 957 C 91.3941 2.06418 -0.0867676 0
M  V30 958 C 91.8021 1.43975 1.22751 0
M  V30 959 O 91.1451 0.542531 1.75506 0
M  V30 960 C 91.2071 3.59213 0.143725 0
M  V30 961 C 90.8711 4.439 -1.08635 0
M  V30 962 C 91.8681 4.79864 -2.00067 0
M  V30 963 C 89.5531 4.84896 -1.31077 0
M  V30 964 C 91.5471 5.55661 -3.12282 0
M  V30 965 C 89.2341 5.6045 -2.43596 0
M  V30 966 C 90.2321 5.95747 -3.34027 0
M  V30 967 O 89.9201 6.69772 -4.4459 0
M  V30 968 H 89.6521 0.673443 -0.0587447 0
M  V30 969 H 92.2061 1.88539 -0.814994 0
M  V30 970 H 90.4361 3.75433 0.926668 0
M  V30 971 H 92.1251 4.01463 0.5985 0
M  V30 972 H 92.8911 4.48763 -1.83947 0
M  V30 973 H 88.7701 4.56867 -0.61594 0
M  V30 974 H 92.3141 5.8313 -3.82891 0
M  V30 975 H 88.2111 5.90965 -2.59674 0
M  V30 976 H 88.9791 6.88207 -4.43073 0
M  V30 977 N 91.6422 0.330177 1.54103 0
M  V30 978 C 92.5742 -0.566902 2.22079 0
M  V30 979 C 93.5872 -1.07462 1.22294 0
M  V30 980 O 94.7762 -0.987065 1.48726 0
M  V30 981 C 91.8762 -1.79138 2.87685 0
M  V30 982 C 91.0492 -1.42123 4.13666 0
M  V30 983 C 90.1082 -2.50394 4.62806 0
M  V30 984 O 89.1342 -2.14261 5.27334 0
M  V30 985 N 90.3362 -3.81433 4.37595 0
M  V30 986 H 93.1012 0.0151844 2.99696 0
M  V30 987 H 90.6622 0.153681 1.61169 0
M  V30 988 H 92.6542 -2.50975 3.1748 0
M  V30 989 H 91.2242 -2.28115 2.13734 0
M  V30 990 H 90.4442 -0.534201 3.90564 0
M  V30 991 H 91.7322 -1.14971 4.9564 0
M  V30 992 H 91.1302 -4.13584 3.8596 0
M  V30 993 H 89.6872 -4.4948 4.72029 0
M  V30 994 N 93.1203 -1.57491 0.0584922 0
M  V30 995 C 94.0833 -2.1085 -0.898617 0
M  V30 996 C 95.0833 -1.02964 -1.23511 0
M  V30 997 O 96.2733 -1.29007 -1.17059 0
M  V30 998 C 93.4053 -2.59881 -2.20623 0
M  V30 999 H 94.5983 -2.96715 -0.435936 0
M  V30 1000 H 92.1513 -1.55141 -0.190023 0
M  V30 1001 H 92.8863 -1.77431 -2.71457 0
M  V30 1002 H 92.6713 -3.38727 -1.97501 0
M  V30 1003 H 94.1613 -3.01285 -2.89166 0
M  V30 1004 N 94.5984 0.214957 -1.56127 0
M  V30 1005 C 95.8754 0.963093 -1.70247 0
M  V30 1006 C 96.2554 2.02166 -0.60764 0
M  V30 1007 O 95.6034 2.25244 0.384385 0
M  V30 1008 C 95.8134 1.56756 -3.11815 0
M  V30 1009 C 97.1614 2.0573 -3.7143 0
M  V30 1010 O 98.1854 1.66637 -3.14818 0
M  V30 1011 O 97.0444 2.77603 -4.70743 0
M  V30 1012 H 94.1384 0.450321 -0.693643 0
M  V30 1013 H 96.6844 0.206219 -1.68442 0
M  V30 1014 H 95.4564 0.803533 -3.82961 0
M  V30 1015 H 95.0794 2.3898 -3.17765 0
M  V30 1016 N 96.0765 1.50051 0.48192 0
M  V30 1017 C 97.3245 1.60181 1.23234 0
M  V30 1018 C 97.6455 0.299176 1.92691 0
M  V30 1019 O 96.9155 -0.682708 1.83619 0
M  V30 1020 H 95.4955 0.590232 0.457859 0
M  V30 1021 H 98.1575 1.86775 0.556881 0
M  V30 1022 H 97.2535 2.40753 1.98607 0
M  V30 1023 N 97.5546 -0.734337 1.39446 0
M  V30 1024 C 98.7796 -1.52866 1.40167 0
M  V30 1025 C 99.2046 -1.881 -0.00171513 0
M  V30 1026 O 98.5626 -1.51957 -0.988879 0
M  V30 1027 C 98.6106 -2.79235 2.28167 0
M  V30 1028 O 97.7146 -3.75185 1.71201 0
M  V30 1029 H 97.0556 -0.461618 0.477289 0
M  V30 1030 H 99.5856 -0.905949 1.8345 0
M  V30 1031 H 99.5956 -3.27963 2.42702 0
M  V30 1032 H 98.2706 -2.52923 3.30156 0
M  V30 1033 H 96.8476 -3.33958 1.65912 0
M  V30 1034 N 99.0327 -1.24633 -0.964593 0
M  V30 1035 C 100.279 -1.08949 -1.71049 0
M  V30 1036 C 100.612 0.370302 -1.90637 0
M  V30 1037 O 99.8867 1.27349 -1.47011 0
M  V30 1038 C 100.17 -1.83329 -3.0994 0
M  V30 1039 C 100.023 -3.37077 -2.97824 0
M  V30 1040 C 101.342 -1.60846 -4.09654 0
M  V30 1041 H 98.4607 -0.397178 -0.620821 0
M  V30 1042 H 101.103 -1.5334 -1.12191 0
M  V30 1043 H 99.2527 -1.45597 -3.60186 0
M  V30 1044 H 100.925 -3.84425 -2.5498 0
M  V30 1045 H 99.1677 -3.65298 -2.33965 0
M  V30 1046 H 99.8387 -3.84324 -3.96231 0
M  V30 1047 H 102.315 -1.93674 -3.68279 0
M  V30 1048 H 101.191 -2.1534 -5.04896 0
M  V30 1049 H 101.452 -0.547434 -4.38698 0
M  V30 1050 N 100.511 1.16574 -1.06058 0
M  V30 1051 C 101.76 1.86385 -0.770944 0
M  V30 1052 C 102.073 1.82448 0.705129 0
M  V30 1053 O 103.279 2.47815 1.10905 0
M  V30 1054 C 101.735 3.34466 -1.32893 0
M  V30 1055 C 101.343 3.46883 -2.83507 0
M  V30 1056 C 103.087 4.09548 -1.11672 0
M  V30 1057 C 100.994 4.89036 -3.32562 0
M  V30 1058 H 99.9238 0.698181 -0.284709 0
M  V30 1059 H 102.575 1.31583 -1.27899 0
M  V30 1060 H 100.957 3.88859 -0.748662 0
M  V30 1061 H 102.131 3.02663 -3.47465 0
M  V30 1062 H 100.446 2.85232 -3.03368 0
M  V30 1063 H 103.043 5.14434 -1.45814 0
M  V30 1064 H 103.386 4.16264 -0.0549535 0
M  V30 1065 H 103.919 3.61387 -1.66265 0
M  V30 1066 H 100.658 4.87499 -4.38207 0
M  V30 1067 H 100.178 5.3389 -2.73351 0
M  V30 1068 H 101.857 5.57843 -3.2775 0
M  V30 1069 N 101.989 0.842826 1.3317 0
M  V30 1070 C 103.4 0.496651 1.79973 0
M  V30 1071 C 103.751 -0.984641 1.69703 0
M  V30 1072 O 102.876 -1.76743 1.24863 0
M  V30 1073 C 103.471 0.894727 3.26772 0
M  V30 1074 C 102.03 0.600629 3.71577 0
M  V30 1075 C 101.177 1.10091 2.5451 0
M  V30 1076 H 104.128 1.03116 1.20635 0
M  V30 1077 H 104.149 0.206347 3.7994 0
M  V30 1078 H 103.661 1.97287 3.34215 0
M  V30 1079 H 101.762 -0.467284 3.69658 0
M  V30 1080 H 101.875 1.15863 4.64879 0
M  V30 1081 H 100.239 0.52162 2.49301 0
M  V30 1082 H 101.022 2.18591 2.64713 0
M  V30 1083 N 103.467 -1.45747 0.599634 0
M  V30 1084 C 104.713 -2.03153 0.100263 0
M  V30 1085 C 105.068 -1.46073 -1.25221 0
M  V30 1086 O 104.361 -0.622878 -1.81193 0
M  V30 1087 C 104.555 -3.57399 -0.00602758 0
M  V30 1088 C 104.384 -4.2944 1.3346 0
M  V30 1089 C 103.154 -4.6768 1.91321 0
M  V30 1090 C 105.352 -4.61905 2.2616 0
M  V30 1091 N 103.334 -5.24544 3.18946 0
M  V30 1092 C 104.705 -5.19518 3.3838 0
M  V30 1093 C 106.76 -4.43841 2.25631 0
M  V30 1094 C 105.463 -5.60972 4.50226 0
M  V30 1095 C 107.489 -4.86322 3.36518 0
M  V30 1096 C 106.851 -5.44021 4.4746 0
M  V30 1097 H 102.95 -0.777911 0.0798696 0
M  V30 1098 H 105.534 -1.77674 0.796244 0
M  V30 1099 H 103.705 -3.82556 -0.671212 0
M  V30 1100 H 105.437 -4.01457 -0.51133 0
M  V30 1101 H 102.192 -4.5098 1.44617 0
M  V30 1102 H 102.616 -5.57483 3.84112 0
M  V30 1103 H 107.258 -3.98552 1.41123 0
M  V30 1104 H 104.976 -6.0523 5.35464 0
M  V30 1105 H 108.562 -4.74084 3.37247 0
M  V30 1106 H 107.442 -5.76289 5.31846 0
M  V30 1107 N 104.945 -0.338344 -1.53925 0
M  V30 1108 C 105.875 0.51328 -2.27789 0
M  V30 1109 C 106.856 1.107 -1.29149 0
M  V30 1110 O 108.041 1.12937 -1.57984 0
M  V30 1111 C 105.171 1.66697 -3.04679 0
M  V30 1112 C 104.125 1.20183 -4.1078 0
M  V30 1113 C 103.451 2.44363 -4.75595 0
M  V30 1114 C 104.751 0.30605 -5.21403 0
M  V30 1115 H 106.445 -0.102883 -2.99223 0
M  V30 1116 H 103.991 -0.0509219 -1.4391 0
M  V30 1117 H 105.944 2.26915 -3.55088 0
M  V30 1118 H 104.668 2.30995 -2.30887 0
M  V30 1119 H 103.327 0.622499 -3.61276 0
M  V30 1120 H 102.975 3.07057 -3.98403 0
M  V30 1121 H 102.675 2.13925 -5.47275 0
M  V30 1122 H 104.199 3.05317 -5.28786 0
M  V30 1123 H 105.613 0.814929 -5.67478 0
M  V30 1124 H 104.01 0.0937929 -6.00027 0
M  V30 1125 H 105.08 -0.65921 -4.80398 0
M  V30 1126 N 106.423 1.57458 -0.0668435 0
M  V30 1127 C 107.386 2.11323 0.887422 0
M  V30 1128 C 108.386 1.03618 1.22964 0
M  V30 1129 O 109.576 1.29626 1.16373 0
M  V30 1130 C 106.708 2.61048 2.19242 0
M  V30 1131 H 107.901 2.96942 0.420194 0
M  V30 1132 H 105.454 1.55239 0.181793 0
M  V30 1133 H 106.189 1.78868 2.70512 0
M  V30 1134 H 105.974 3.39769 1.95702 0
M  V30 1135 H 107.464 3.02814 2.87565 0
M  V30 1136 N 107.901 -0.206675 1.56239 0
M  V30 1137 C 108.848 -1.25617 1.93621 0
M  V30 1138 C 109.818 -1.45824 0.795274 0
M  V30 1139 O 111.003 -1.59148 1.05245 0
M  V30 1140 C 108.143 -2.59839 2.27107 0
M  V30 1141 C 107.256 -2.47308 3.54207 0
M  V30 1142 C 106.391 -3.74155 3.7707 0
M  V30 1143 C 105.43 -3.56407 4.97635 0
M  V30 1144 N 104.567 -4.75238 5.1681 0
M  V30 1145 H 109.407 -0.930383 2.83104 0
M  V30 1146 H 106.944 -0.448065 1.4011 0
M  V30 1147 H 108.902 -3.38021 2.44535 0
M  V30 1148 H 107.532 -2.90485 1.40778 0
M  V30 1149 H 106.584 -1.60483 3.4489 0
M  V30 1150 H 107.896 -2.30122 4.42544 0
M  V30 1151 H 107.05 -4.60778 3.94675 0
M  V30 1152 H 105.789 -3.94282 2.87042 0
M  V30 1153 H 104.794 -2.68168 4.79964 0
M  V30 1154 H 106.019 -3.37736 5.89161 0
M  V30 1155 H 103.965 -4.95651 4.29728 0
M  V30 1156 H 103.882 -4.60835 5.99306 0
M  V30 1157 H 105.15 -5.63246 5.38864 0
M  V30 1158 N 109.379 -1.50304 -0.473955 0
M  V30 1159 C 110.604 -1.65175 -1.25427 0
M  V30 1160 C 111.029 -0.333673 -1.85117 0
M  V30 1161 O 110.387 0.702114 -1.67153 0
M  V30 1162 C 110.435 -2.74295 -2.34082 0
M  V30 1163 O 109.539 -2.35349 -3.38651 0
M  V30 1164 H 108.88 -0.551944 -0.369126 0
M  V30 1165 H 111.41 -1.96662 -0.564364 0
M  V30 1166 H 111.42 -2.97285 -2.79438 0
M  V30 1167 H 110.095 -3.69959 -1.90008 0
M  V30 1168 H 108.672 -2.22794 -2.99027 0
M  V30 1169 N 110.857 0.726932 -1.39834 0
M  V30 1170 C 112.103 1.48771 -1.38704 0
M  V30 1171 C 112.458 1.92394 0.0146387 0
M  V30 1172 O 111.751 1.64474 0.982797 0
M  V30 1173 C 111.945 2.73495 -2.30077 0
M  V30 1174 C 111.774 2.42068 -3.78989 0
M  V30 1175 C 110.544 2.33966 -4.4787 0
M  V30 1176 C 112.742 2.0708 -4.70768 0
M  V30 1177 N 110.724 1.95095 -5.82075 0
M  V30 1178 C 112.095 1.78719 -5.93683 0
M  V30 1179 C 114.15 1.93618 -4.58712 0
M  V30 1180 C 112.853 1.3825 -7.05889 0
M  V30 1181 C 114.879 1.54553 -5.70848 0
M  V30 1182 C 114.241 1.27082 -6.92842 0
M  V30 1183 H 110.34 0.542919 -0.562817 0
M  V30 1184 H 112.924 0.84408 -1.75452 0
M  V30 1185 H 111.095 3.35625 -1.95474 0
M  V30 1186 H 112.827 3.39755 -2.19883 0
M  V30 1187 H 109.582 2.51331 -4.0141 0
M  V30 1188 H 110.006 1.7823 -6.53118 0
M  V30 1189 H 114.648 2.13522 -3.64922 0
M  V30 1190 H 112.366 1.17088 -7.99572 0
M  V30 1191 H 115.952 1.44731 -5.6351 0
M  V30 1192 H 114.832 0.973069 -7.78139 0
M  V30 1193 N 112.336 1.25143 0.95797 0
M  V30 1194 C 113.564 1.12424 1.73691 0
M  V30 1195 C 113.979 -0.322304 1.86029 0
M  V30 1196 O 113.336 -1.22186 1.35561 0
M  V30 1197 C 113.387 1.76933 3.15241 0
M  V30 1198 O 113.108 3.15932 3.03511 0
M  V30 1199 C 114.609 1.6995 4.09429 0
M  V30 1200 H 111.829 0.3923 0.544373 0
M  V30 1201 H 114.373 1.6544 1.20207 0
M  V30 1202 H 112.528 1.27895 3.6568 0
M  V30 1203 H 112.942 3.47598 3.9278 0
M  V30 1204 H 114.416 2.19753 5.06372 0
M  V30 1205 H 114.893 0.662619 4.34173 0
M  V30 1206 H 115.499 2.18461 3.64904 0
M  V30 1207 N 113.814 -1.1601 1.06675 0
M  V30 1208 C 114.764 -2.18512 0.650888 0
M  V30 1209 C 115.748 -1.57677 -0.320441 0
M  V30 1210 O 116.94 -1.76482 -0.135266 0
M  V30 1211 C 114.069 -3.43273 0.0429255 0
M  V30 1212 C 113.155 -4.11176 1.03898 0
M  V30 1213 N 113.546 -4.54672 2.216 0
M  V30 1214 C 111.844 -4.37417 0.870779 0
M  V30 1215 C 112.545 -5.07248 2.84736 0
M  V30 1216 N 111.521 -5.0037 2.12441 0
M  V30 1217 H 115.323 -2.49863 1.54745 0
M  V30 1218 H 112.837 -1.32503 0.938975 0
M  V30 1219 H 114.834 -4.16006 -0.272857 0
M  V30 1220 H 113.494 -3.13408 -0.84884 0
M  V30 1221 H 114.505 -4.4828 2.59356 0
M  V30 1222 H 111.182 -4.17488 0.0313293 0
M  V30 1223 H 112.572 -5.50912 3.84636 0
M  V30 1224 N 115.292 -0.849877 -1.32721 0
M  V30 1225 C 116.517 -0.463856 -2.02146 0
M  V30 1226 C 116.942 0.930449 -1.63476 0
M  V30 1227 O 116.3 1.61033 -0.832952 0
M  V30 1228 C 116.348 -0.604955 -3.55489 0
M  V30 1229 O 115.452 0.36425 -4.10788 0
M  V30 1230 H 114.793 -0.187046 -0.637111 0
M  V30 1231 H 117.323 -1.14775 -1.69375 0
M  V30 1232 H 117.333 -0.490696 -4.05038 0
M  V30 1233 H 116.008 -1.62174 -3.82978 0
M  V30 1234 H 114.585 0.206628 -3.72327 0
M  V30 1235 N 116.77 1.45427 -0.607355 0
M  V30 1236 C 117.68 2.34325 0.113463 0
M  V30 1237 C 118.696 1.51226 0.860617 0
M  V30 1238 O 119.872 1.84029 0.818255 0
M  V30 1239 C 116.937 3.28839 1.09844 0
M  V30 1240 C 115.998 4.27844 0.353271 0
M  V30 1241 C 115.231 5.17842 1.29133 0
M  V30 1242 O 115.454 5.11264 2.52913 0
M  V30 1243 O 114.388 5.96713 0.788523 0
M  V30 1244 H 118.214 2.97364 -0.617094 0
M  V30 1245 H 115.799 1.44807 -0.367619 0
M  V30 1246 H 117.681 3.8708 1.66575 0
M  V30 1247 H 116.356 2.68365 1.81003 0
M  V30 1248 H 115.263 3.7322 -0.256494 0
M  V30 1249 H 116.596 4.91173 -0.317822 0
M  V30 1250 N 118.248 0.346503 1.53744 0
M  V30 1251 C 119.525 -0.304532 1.93215 0
M  V30 1252 C 119.905 -1.67993 1.27834 0
M  V30 1253 O 119.253 -2.24411 0.430352 0
M  V30 1254 C 119.463 -0.373852 3.46992 0
M  V30 1255 C 120.811 -0.62329 4.2 0
M  V30 1256 O 121.835 -0.455847 3.53271 0
M  V30 1257 O 120.694 -0.947879 5.38217 0
M  V30 1258 H 117.788 -0.178318 0.807547 0
M  V30 1259 H 120.334 0.397895 1.64969 0
M  V30 1260 H 119.106 0.591224 3.86808 0
M  V30 1261 H 118.729 -1.12294 3.81413 0
M  V30 1262 N 119.726 -1.57421 0.075193 0
M  V30 1263 C 120.974 -1.93236 -0.591974 0
M  V30 1264 C 121.295 -0.956241 -1.69944 0
M  V30 1265 O 120.565 -0.00494792 -1.95899 0
M  V30 1266 H 119.145 -0.713355 -0.22166 0
M  V30 1267 H 121.807 -1.9444 0.133848 0
M  V30 1268 H 120.903 -2.95131 -1.01509 0
M  V30 1269 N 121.204 0.198386 -1.56346 0
M  V30 1270 C 122.151 1.24589 -1.94284 0
M  V30 1271 C 123.121 1.454 -0.802997 0
M  V30 1272 O 124.306 1.58588 -1.06087 0
M  V30 1273 C 121.446 2.58631 -2.28482 0
M  V30 1274 C 120.559 2.45426 -3.55514 0
M  V30 1275 C 119.694 3.7215 -3.79049 0
M  V30 1276 C 118.733 3.53763 -4.99518 0
M  V30 1277 N 117.87 4.72491 -5.19323 0
M  V30 1278 H 122.71 0.915356 -2.83593 0
M  V30 1279 H 120.247 0.440629 -1.40346 0
M  V30 1280 H 122.205 3.3672 -2.46324 0
M  V30 1281 H 120.835 2.89734 -1.42317 0
M  V30 1282 H 119.887 1.58652 -3.45737 0
M  V30 1283 H 121.199 2.27772 -4.43758 0
M  V30 1284 H 120.353 4.58679 -3.97113 0
M  V30 1285 H 119.092 3.92754 -2.89129 0
M  V30 1286 H 118.097 2.65619 -4.8138 0
M  V30 1287 H 119.322 3.34607 -5.90944 0
M  V30 1288 H 117.268 4.93365 -4.3235 0
M  V30 1289 H 117.185 4.5765 -6.01741 0
M  V30 1290 H 118.453 5.6038 -5.41843 0
M  V30 1291 N 122.682 1.50554 0.465978 0
M  V30 1292 C 123.91 1.65563 1.24083 0
M  V30 1293 C 124.325 0.341051 1.85694 0
M  V30 1294 O 123.682 -0.677543 1.69457 0
M  V30 1295 C 123.733 2.75051 2.34583 0
M  V30 1296 O 123.454 4.01413 1.75497 0
M  V30 1297 C 124.955 3.01078 3.25372 0
M  V30 1298 H 122.175 0.55638 0.375077 0
M  V30 1299 H 124.719 1.96807 0.555624 0
M  V30 1300 H 122.874 2.46486 2.9887 0
M  V30 1301 H 123.288 4.62002 2.48303 0
M  V30 1302 H 124.762 3.81339 3.99105 0
M  V30 1303 H 125.239 2.12349 3.84453 0
M  V30 1304 H 125.845 3.31194 2.66816 0
M  V30 1305 N 124.16 -0.719506 1.40217 0
M  V30 1306 C 125.406 -1.48034 1.39491 0
M  V30 1307 C 125.761 -1.92399 -0.00443536 0
M  V30 1308 O 125.054 -1.64993 -0.974061 0
M  V30 1309 C 125.248 -2.72271 2.31524 0
M  V30 1310 C 125.077 -2.40055 3.80268 0
M  V30 1311 C 123.847 -2.31588 4.49105 0
M  V30 1312 C 126.045 -2.04581 4.71859 0
M  V30 1313 N 124.027 -1.92006 5.83101 0
M  V30 1314 C 125.398 -1.75568 5.94623 0
M  V30 1315 C 127.453 -1.91183 4.59732 0
M  V30 1316 C 126.156 -1.34505 7.06612 0
M  V30 1317 C 128.182 -1.51524 5.71659 0
M  V30 1318 C 127.544 -1.23406 6.93506 0
M  V30 1319 H 123.643 -0.539927 0.565688 0
M  V30 1320 H 126.227 -0.834764 1.75897 0
M  V30 1321 H 124.398 -3.34584 1.97251 0
M  V30 1322 H 126.13 -3.38584 2.21682 0
M  V30 1323 H 122.885 -2.49199 4.02737 0
M  V30 1324 H 123.309 -1.74764 6.54054 0
M  V30 1325 H 127.951 -2.11584 3.66049 0
M  V30 1326 H 125.669 -1.12846 8.00182 0
M  V30 1327 H 129.255 -1.41741 5.6427 0
M  V30 1328 H 128.135 -0.931788 7.78645 0
M  V30 1329 N 125.638 -1.25649 -0.95132 0
M  V30 1330 C 126.866 -1.13343 -1.73092 0
M  V30 1331 C 127.281 0.312434 -1.86197 0
M  V30 1332 O 126.638 1.21465 -1.36207 0
M  V30 1333 C 126.689 -1.78602 -3.14299 0
M  V30 1334 O 126.41 -3.17537 -3.01831 0
M  V30 1335 C 127.911 -1.72119 -4.08522 0
M  V30 1336 H 125.131 -0.395181 -0.542285 0
M  V30 1337 H 127.675 -1.66076 -1.19328 0
M  V30 1338 H 125.83 -1.29832 -3.64996 0
M  V30 1339 H 126.244 -3.49676 -3.90931 0
M  V30 1340 H 127.718 -2.22435 -5.052 0
M  V30 1341 H 128.195 -0.685635 -4.33815 0
M  V30 1342 H 128.801 -2.20393 -3.63741 0
M  V30 1343 N 127.117 1.15442 -1.07289 0
M  V30 1344 C 128.364 1.86213 -0.795668 0
M  V30 1345 C 128.692 1.82291 0.678238 0
M  V30 1346 O 127.947 1.24057 1.51355 0
M  V30 1347 C 128.246 3.3489 -1.24834 0
M  V30 1348 C 127.912 3.59007 -2.72809 0
M  V30 1349 C 126.574 3.65298 -3.13227 0
M  V30 1350 C 128.926 3.68762 -3.68326 0
M  V30 1351 C 126.254 3.78854 -4.4798 0
M  V30 1352 C 128.606 3.83842 -5.0284 0
M  V30 1353 C 127.27 3.88378 -5.4288 0
M  V30 1354 H 126.54 0.681403 -0.291155 0
M  V30 1355 H 129.187 1.36435 -1.34379 0
M  V30 1356 H 127.492 3.8687 -0.619595 0
M  V30 1357 H 129.189 3.88052 -1.01076 0
M  V30 1358 H 125.779 3.5475 -2.40521 0
M  V30 1359 H 129.963 3.63202 -3.38227 0
M  V30 1360 H 125.219 3.80623 -4.78472 0
M  V30 1361 H 129.393 3.90332 -5.76727 0
M  V30 1362 H 127.02 3.98635 -6.47298 0
M  V30 1363 N 128.595 0.856903 1.32268 0
M  V30 1364 C 129.823 0.475439 2.01363 0
M  V30 1365 C 130.238 -0.928486 1.64392 0
M  V30 1366 O 129.595 -1.60624 0.866387 0
M  V30 1367 C 129.646 0.607545 3.56358 0
M  V30 1368 O 129.367 1.95617 3.92002 0
M  V30 1369 C 130.868 0.225382 4.42727 0
M  V30 1370 H 128.088 0.186636 0.644521 0
M  V30 1371 H 130.632 1.15446 1.68797 0
M  V30 1372 H 128.787 -0.0237719 3.87393 0
M  V30 1373 H 129.201 1.95455 4.86721 0
M  V30 1374 H 130.675 0.368813 5.50767 0
M  V30 1375 H 131.152 -0.834369 4.31202 0
M  V30 1376 H 131.758 0.831864 4.17085 0
M  V30 1377 N 130.073 -1.45103 0.615059 0
M  V30 1378 C 131.003 -2.33339 -0.0865619 0
M  V30 1379 C 131.984 -1.4727 -0.851209 0
M  V30 1380 O 133.169 -1.76026 -0.820281 0
M  V30 1381 C 130.299 -3.30095 -1.07956 0
M  V30 1382 C 129.253 -4.25858 -0.427628 0
M  V30 1383 C 128.579 -5.12361 -1.5294 0
M  V30 1384 C 129.879 -5.18165 0.655944 0
M  V30 1385 H 131.573 -2.92254 0.650224 0
M  V30 1386 H 129.119 -1.40532 0.314138 0
M  V30 1387 H 131.072 -3.90698 -1.57901 0
M  V30 1388 H 129.796 -2.69355 -1.84703 0
M  V30 1389 H 128.455 -3.66564 0.0510292 0
M  V30 1390 H 128.103 -4.47984 -2.28734 0
M  V30 1391 H 127.803 -5.77238 -1.09865 0
M  V30 1392 H 129.327 -5.75833 -2.03098 0
M  V30 1393 H 130.741 -5.72796 0.240257 0
M  V30 1394 H 129.138 -5.91559 1.00888 0
M  V30 1395 H 130.208 -4.60144 1.52957 0
M  V30 1396 N 131.551 -0.354651 -1.53558 0
M  V30 1397 C 132.967 -0.00315426 -1.596 0
M  V30 1398 C 133.167 1.47741 -1.37021 0
M  V30 1399 O 132.223 2.23759 -1.16996 0
M  V30 1400 C 133.536 -0.44929 -2.97325 0
M  V30 1401 C 135.084 -0.402578 -3.104 0
M  V30 1402 C 135.559 -0.824355 -4.5052 0
M  V30 1403 N 137.05 -0.778979 -4.56603 0
M  V30 1404 C 137.785 -1.07715 -5.63192 0
M  V30 1405 N 137.281 -1.44405 -6.77583 0
M  V30 1406 N 139.074 -1.00066 -5.53121 0
M  V30 1407 H 131.225 -1.31893 -1.66487 0
M  V30 1408 H 133.488 -0.538388 -0.780284 0
M  V30 1409 H 133.194 -1.48202 -3.1895 0
M  V30 1410 H 133.068 0.169772 -3.76818 0
M  V30 1411 H 135.455 0.621004 -2.88492 0
M  V30 1412 H 135.536 -1.05699 -2.32941 0
M  V30 1413 H 135.18 -1.846 -4.73165 0
M  V30 1414 H 135.11 -0.147304 -5.26394 0
M  V30 1415 H 137.601 -0.508528 -3.74463 0
M  V30 1416 H 137.914 -1.65612 -7.54846 0
M  V30 1417 H 136.259 -1.4826 -6.79002 0
M  V30 1418 H 139.45 -0.713293 -4.62633 0
M  V30 1419 H 139.623 -1.23638 -6.36096 0
M  V30 1420 N 133.029 1.57378 -0.0835403 0
M  V30 1421 C 134.306 1.85363 0.624507 0
M  V30 1422 C 134.686 0.978239 1.87066 0
M  V30 1423 O 134.034 0.0475908 2.2845 0
M  V30 1424 C 134.244 3.35795 0.950947 0
M  V30 1425 C 135.592 4.03581 1.31939 0
M  V30 1426 O 136.616 3.40609 1.04232 0
M  V30 1427 O 135.475 5.14672 1.83779 0
M  V30 1428 H 132.569 0.766162 0.311329 0
M  V30 1429 H 135.115 1.69307 -0.115362 0
M  V30 1430 H 133.887 3.91244 0.0663899 0
M  V30 1431 H 133.51 3.57154 1.74719 0
M  V30 1432 N 134.507 -0.190092 1.56449 0
M  V30 1433 C 135.784 -0.935886 1.71757 0
M  V30 1434 C 136.164 -2.01173 0.639726 0
M  V30 1435 O 135.512 -2.25827 -0.348502 0
M  V30 1436 C 135.722 -1.51775 3.1427 0
M  V30 1437 C 137.07 -1.99794 3.74656 0
M  V30 1438 O 138.094 -1.61607 3.1743 0
M  V30 1439 O 136.953 -2.70079 4.751 0
M  V30 1440 H 134.047 -0.439229 0.700719 0
M  V30 1441 H 136.593 -0.179395 1.68749 0
M  V30 1442 H 135.365 -0.742505 3.84191 0
M  V30 1443 H 134.988 -2.33894 3.21527 0
M  V30 1444 N 135.985 -1.50799 -0.457987 0
M  V30 1445 C 137.231 -1.62683 -1.21088 0
M  V30 1446 C 137.564 -0.332268 -1.91336 0
M  V30 1447 O 136.839 0.667043 -1.82704 0
M  V30 1448 C 137.122 -2.81615 -2.24422 0
M  V30 1449 C 136.975 -4.20989 -1.58392 0
M  V30 1450 C 138.294 -2.96085 -3.2561 0
M  V30 1451 H 135.413 -0.592087 -0.438864 0
M  V30 1452 H 138.055 -1.83225 -0.50286 0
M  V30 1453 H 136.205 -2.64231 -2.84806 0
M  V30 1454 H 137.877 -4.49994 -1.01504 0
M  V30 1455 H 136.12 -4.24641 -0.886704 0
M  V30 1456 H 136.791 -5.0016 -2.33547 0
M  V30 1457 H 139.267 -3.12042 -2.75262 0
M  V30 1458 H 138.143 -3.80902 -3.95228 0
M  V30 1459 H 138.404 -2.0726 -3.90507 0
M  V30 1460 N 137.463 0.71206 -1.40597 0
M  V30 1461 C 138.41 1.82613 -1.41142 0
M  V30 1462 C 139.38 1.63925 -0.267903 0
M  V30 1463 O 140.565 1.85009 -0.466495 0
M  V30 1464 C 137.705 3.20354 -1.28324 0
M  V30 1465 C 136.818 3.50589 -2.52411 0
M  V30 1466 C 135.953 4.77855 -2.32009 0
M  V30 1467 C 134.992 5.01005 -3.51654 0
M  V30 1468 N 134.129 6.19487 -3.30425 0
M  V30 1469 H 138.969 1.81482 -2.36365 0
M  V30 1470 H 136.506 0.886475 -1.17388 0
M  V30 1471 H 138.464 3.99899 -1.18899 0
M  V30 1472 H 137.094 3.20705 -0.367189 0
M  V30 1473 H 136.146 2.65573 -2.72351 0
M  V30 1474 H 137.458 3.63604 -3.41458 0
M  V30 1475 H 136.612 5.65424 -2.19956 0
M  V30 1476 H 135.351 4.67056 -1.40392 0
M  V30 1477 H 134.356 4.1189 -3.64179 0
M  V30 1478 H 135.581 5.13674 -4.44202 0
M  V30 1479 H 133.527 6.09932 -2.41494 0
M  V30 1480 H 133.444 6.33194 -4.13039 0
M  V30 1481 H 134.712 7.09834 -3.22113 0
M  V30 1482 N 138.941 1.26152 0.944643 0
M  V30 1483 C 140.188 1.11492 1.69044 0
M  V30 1484 C 140.516 -0.342366 1.91463 0
M  V30 1485 O 139.771 -1.26812 1.49054 0
M  V30 1486 C 140.07 1.82541 3.07268 0
M  V30 1487 C 139.736 3.32445 3.04616 0
M  V30 1488 C 138.398 3.73337 3.036 0
M  V30 1489 C 140.75 4.28171 2.97185 0
M  V30 1490 C 138.078 5.08348 2.92915 0
M  V30 1491 C 140.43 5.63218 2.88041 0
M  V30 1492 C 139.094 6.03426 2.85366 0
M  V30 1493 H 138.364 0.407977 0.618576 0
M  V30 1494 H 141.011 1.56551 1.10291 0
M  V30 1495 H 139.316 1.29941 3.69625 0
M  V30 1496 H 141.013 1.68642 3.63815 0
M  V30 1497 H 137.603 2.99915 3.06185 0
M  V30 1498 H 141.787 3.97563 2.97081 0
M  V30 1499 H 137.043 5.38667 2.89219 0
M  V30 1500 H 141.217 6.37078 2.81254 0
M  V30 1501 H 138.844 7.07999 2.76842 0
M  V30 1502 N 140.419 -1.14872 1.07899 0
M  V30 1503 C 141.644 -1.90202 0.826926 0
M  V30 1504 C 142.069 -1.77774 -0.614664 0
M  V30 1505 O 141.427 -1.11431 -1.43013 0
M  V30 1506 C 141.475 -3.38352 1.24702 0
M  V30 1507 O 140.579 -4.10497 0.39575 0
M  V30 1508 H 139.92 -0.591968 0.300782 0
M  V30 1509 H 142.45 -1.45437 1.43907 0
M  V30 1510 H 142.46 -3.89156 1.22563 0
M  V30 1511 H 141.135 -3.46715 2.29698 0
M  V30 1512 H 139.712 -3.69796 0.480117 0
M  V30 1513 N 141.898 -0.863906 -1.31812 0
M  V30 1514 C 142.846 -0.30422 -2.30602 0
M  V30 1515 C 143.84 0.577419 -1.59255 0
M  V30 1516 O 145.046 0.464194 -1.73912 0
M  V30 1517 H 141.421 -0.0796877 -0.747766 0
M  V30 1518 H 143.392 -1.15148 -2.75288 0
M  V30 1519 C 142.141 0.484617 -3.44306 0
M  V30 1520 H 141.464 -0.18451 -3.99374 0
M  V30 1521 H 142.904 0.841664 -4.15562 0
M  V30 1522 C 141.363 1.6735 -2.92396 0
M  V30 1523 O 141.893 2.77273 -2.90659 0
M  V30 1524 N 140.099 1.50362 -2.48676 0
M  V30 1525 H 139.646 0.609402 -2.50288 0
M  V30 1526 H 139.604 2.30051 -2.14299 0
M  V30 1527 N 143.376 1.44774 -0.622745 0
M  V30 1528 C 144.624 2.01721 -0.123655 0
M  V30 1529 C 144.945 1.49172 1.25589 0
M  V30 1530 O 144.215 0.691974 1.83272 0
M  V30 1531 H 142.795 0.745777 -0.0427225 0
M  V30 1532 H 145.457 1.77382 -0.807559 0
M  V30 1533 H 144.553 3.11984 -0.0849534 0
M  V30 1534 N 144.854 0.36279 1.53368 0
M  V30 1535 C 145.764 -0.492994 2.29362 0
M  V30 1536 C 146.78 -1.09507 1.35219 0
M  V30 1537 O 147.956 -1.10662 1.68273 0
M  V30 1538 C 145.021 -1.61855 3.066 0
M  V30 1539 C 144.082 -1.04429 4.16405 0
M  V30 1540 C 143.315 -2.11621 4.89951 0
M  V30 1541 O 143.538 -3.32684 4.63333 0
M  V30 1542 O 142.472 -1.74835 5.75948 0
M  V30 1543 H 146.298 0.125331 3.03441 0
M  V30 1544 H 143.883 0.127253 1.48857 0
M  V30 1545 H 145.765 -2.27302 3.54841 0
M  V30 1546 H 144.44 -2.22233 2.3536 0
M  V30 1547 H 143.347 -0.353819 3.72423 0
M  V30 1548 H 144.68 -0.485113 4.89804 0
M  V30 1549 N 146.332 -1.57332 0.0918853 0
M  V30 1550 C 147.743 -1.81496 -0.437739 0
M  V30 1551 C 148.094 -1.00727 -1.6837 0
M  V30 1552 O 147.219 -0.235694 -2.15113 0
M  V30 1553 C 147.814 -3.29197 -0.800939 0
M  V30 1554 C 146.373 -3.54136 -1.27532 0
M  V30 1555 C 145.52 -2.75979 -0.270392 0
M  V30 1556 H 148.471 -1.55494 0.317366 0
M  V30 1557 H 148.492 -3.42344 -1.66074 0
M  V30 1558 H 148.004 -3.87955 0.106078 0
M  V30 1559 H 146.105 -3.00705 -2.20016 0
M  V30 1560 H 146.218 -4.62792 -1.23938 0
M  V30 1561 H 144.582 -2.43349 -0.751872 0
M  V30 1562 H 145.365 -3.37484 0.629248 0
M  V30 1563 N 147.81 0.181792 -1.56548 0
M  V30 1564 C 149.057 0.900097 -1.81396 0
M  V30 1565 C 149.385 1.82695 -0.667281 0
M  V30 1566 O 148.64 1.92614 0.346146 0
M  V30 1567 C 148.939 1.73728 -3.12335 0
M  V30 1568 C 148.605 0.960255 -4.40556 0
M  V30 1569 C 147.267 0.745766 -4.75386 0
M  V30 1570 C 149.619 0.414477 -5.19549 0
M  V30 1571 C 146.947 -0.0257694 -5.86694 0
M  V30 1572 C 149.299 -0.343916 -6.31664 0
M  V30 1573 C 147.963 -0.569301 -6.65068 0
M  V30 1574 H 147.233 0.329369 -0.663775 0
M  V30 1575 H 149.88 0.165647 -1.90782 0
M  V30 1576 H 148.185 2.54081 -2.98245 0
M  V30 1577 H 149.882 2.29591 -3.28769 0
M  V30 1578 H 146.472 1.13746 -4.13231 0
M  V30 1579 H 150.656 0.567554 -4.93044 0
M  V30 1580 H 145.912 -0.210233 -6.11038 0
M  V30 1581 H 150.086 -0.774133 -6.92084 0
M  V30 1582 H 147.713 -1.16903 -7.51158 0
M  V30 1583 N 149.288 1.51039 0.449983 0
M  V30 1584 C 150.565 1.53612 1.21089 0
M  V30 1585 C 150.945 0.292997 2.09057 0
M  V30 1586 O 150.293 -0.72259 2.16774 0
M  V30 1587 C 150.503 2.84337 2.0237 0
M  V30 1588 C 151.851 3.35807 2.59843 0
M  V30 1589 O 152.875 2.85802 2.12593 0
M  V30 1590 O 151.734 4.23029 3.45989 0
M  V30 1591 H 148.828 0.617057 0.550608 0
M  V30 1592 H 151.374 1.63344 0.460082 0
M  V30 1593 H 150.146 3.66278 1.37681 0
M  V30 1594 H 149.769 2.77708 2.84542 0
M  V30 1595 N 150.766 -0.704594 1.40972 0
M  V30 1596 C 151.729 -1.80035 1.41845 0
M  V30 1597 C 152.729 -1.57774 0.310474 0
M  V30 1598 O 153.919 -1.64613 0.56992 0
M  V30 1599 C 151.051 -3.18284 1.22098 0
M  V30 1600 H 152.244 -1.80658 2.3938 0
M  V30 1601 H 149.797 -0.911329 1.26982 0
M  V30 1602 H 150.532 -3.23306 0.253672 0
M  V30 1603 H 150.317 -3.35843 2.02366 0
M  V30 1604 H 151.807 -3.98289 1.25522 0
M  V30 1605 N 152.244 -1.26651 -0.937939 0
M  V30 1606 C 153.154 -1.10276 -2.07066 0
M  V30 1607 C 154.17 -0.0354197 -1.73964 0
M  V30 1608 O 155.346 -0.239816 -1.99967 0
M  V30 1609 C 152.411 -0.740887 -3.38691 0
M  V30 1610 C 151.472 -1.88799 -3.85556 0
M  V30 1611 C 150.705 -1.54329 -5.10899 0
M  V30 1612 O 150.928 -0.446494 -5.6865 0
M  V30 1613 O 149.862 -2.37911 -5.52885 0
M  V30 1614 H 153.688 -2.05309 -2.23789 0
M  V30 1615 H 151.273 -1.05743 -1.0554 0
M  V30 1616 H 153.155 -0.55195 -4.1777 0
M  V30 1617 H 151.83 0.180022 -3.23199 0
M  V30 1618 H 150.737 -2.13191 -3.07409 0
M  V30 1619 H 152.07 -2.78874 -4.05574 0
M  V30 1620 N 153.722 1.14298 -1.08507 0
M  V30 1621 C 154.685 2.17607 -0.719711 0
M  V30 1622 C 155.685 1.58907 0.245997 0
M  V30 1623 O 156.875 1.74181 0.0254081 0
M  V30 1624 C 154.007 3.40842 -0.0627695 0
M  V30 1625 H 155.2 2.51443 -1.63452 0
M  V30 1626 H 152.753 1.28963 -0.88307 0
M  V30 1627 H 153.488 3.12587 0.863716 0
M  V30 1628 H 153.273 3.84713 -0.757504 0
M  V30 1629 H 154.763 4.17221 0.177786 0
M  V30 1630 N 155.201 0.870884 1.31352 0
M  V30 1631 C 156.164 0.332243 2.26779 0
M  V30 1632 C 157.164 -0.517302 1.52252 0
M  V30 1633 O 158.354 -0.326477 1.71113 0
M  V30 1634 C 155.486 -0.528066 3.36785 0
M  V30 1635 H 156.679 1.17469 2.75937 0
M  V30 1636 H 154.232 0.64655 1.423 0
M  V30 1637 H 154.967 -1.39167 2.92922 0
M  V30 1638 H 154.752 0.0802582 3.92018 0
M  V30 1639 H 156.242 -0.897179 4.07849 0
M  V30 1640 N 156.679 -1.44442 0.630414 0
M  V30 1641 C 157.642 -2.29107 -0.0652523 0
M  V30 1642 C 158.642 -1.41002 -0.772995 0
M  V30 1643 O 159.832 -1.62881 -0.617692 0
M  V30 1644 C 156.964 -3.22564 -1.10296 0
M  V30 1645 H 158.157 -2.92103 0.679401 0
M  V30 1646 H 155.71 -1.51343 0.390517 0
M  V30 1647 H 156.445 -2.64416 -1.87762 0
M  V30 1648 H 156.23 -3.87491 -0.59941 0
M  V30 1649 H 157.72 -3.86167 -1.5895 0
M  V30 1650 N 158.157 -0.370918 -1.53173 0
M  V30 1651 C 159.067 0.480823 -2.2962 0
M  V30 1652 C 160.083 1.08789 -1.35798 0
M  V30 1653 O 161.259 1.09768 -1.68858 0
M  V30 1654 C 158.324 1.60227 -3.07454 0
M  V30 1655 C 157.385 1.0222 -4.16953 0
M  V30 1656 C 156.618 2.0902 -4.91066 0
M  V30 1657 O 156.841 3.30222 -4.65091 0
M  V30 1658 O 155.775 1.71778 -5.76867 0
M  V30 1659 H 159.601 -0.141421 -3.03371 0
M  V30 1660 H 157.186 -0.135146 -1.48787 0
M  V30 1661 H 159.068 2.25417 -3.56041 0
M  V30 1662 H 157.743 2.20982 -2.36535 0
M  V30 1663 H 156.65 0.334064 -3.72605 0
M  V30 1664 H 157.983 0.459131 -4.90054 0
M  V30 1665 N 159.635 1.57281 -0.100228 0
M  V30 1666 C 160.583 2.15542 0.874328 0
M  V30 1667 C 161.577 1.09962 1.28859 0
M  V30 1668 O 162.783 1.28298 1.26252 0
M  V30 1669 H 159.158 0.689567 0.300003 0
M  V30 1670 H 161.129 2.96241 0.35829 0
M  V30 1671 C 159.878 2.75454 2.1218 0
M  V30 1672 H 159.201 3.56384 1.81193 0
M  V30 1673 H 160.641 3.19781 2.78417 0
M  V30 1674 C 159.1 1.71602 2.89921 0
M  V30 1675 O 159.63 1.15804 3.84646 0
M  V30 1676 N 157.836 1.41975 2.53558 0
M  V30 1677 H 157.383 1.87539 1.76598 0
M  V30 1678 H 157.341 0.727274 3.05873 0
M  V30 1679 N 161.113 -0.173488 1.56642 0
M  V30 1680 C 162.36 -0.890465 1.81871 0
M  V30 1681 C 162.688 -1.82339 0.67696 0
M  V30 1682 O 161.943 -1.92795 -0.335926 0
M  V30 1683 C 162.242 -1.72069 3.13252 0
M  V30 1684 C 161.908 -0.936878 4.41059 0
M  V30 1685 C 160.57 -0.720545 4.75775 0
M  V30 1686 C 162.922 -0.386919 5.19762 0
M  V30 1687 C 160.25 0.0568829 5.86672 0
M  V30 1688 C 162.602 0.37741 6.31473 0
M  V30 1689 C 161.266 0.604563 6.64757 0
M  V30 1690 H 160.536 -0.325844 0.665512 0
M  V30 1691 H 163.183 -0.155527 1.90867 0
M  V30 1692 H 161.488 -2.52496 2.99588 0
M  V30 1693 H 163.185 -2.27844 3.29982 0
M  V30 1694 H 159.775 -1.11553 4.13828 0
M  V30 1695 H 163.959 -0.541398 4.93338 0
M  V30 1696 H 159.215 0.242635 6.10918 0
M  V30 1697 H 163.389 0.810825 6.91664 0
M  V30 1698 H 161.016 1.20885 7.50527 0
M  V30 1699 N 162.591 -1.51276 -0.441967 0
M  V30 1700 C 164.007 -1.39349 -0.778083 0
M  V30 1701 C 164.207 -0.472212 -1.95889 0
M  V30 1702 O 163.263 0.0743551 -2.5239 0
M  V30 1703 C 164.576 -2.81292 -1.0628 0
M  V30 1704 C 166.124 -2.9041 -1.16751 0
M  V30 1705 C 166.599 -4.33251 -1.48519 0
M  V30 1706 N 168.09 -4.36336 -1.55453 0
M  V30 1707 C 168.825 -5.43885 -1.81596 0
M  V30 1708 N 168.321 -6.61601 -2.05562 0
M  V30 1709 N 170.114 -5.3136 -1.8334 0
M  V30 1710 H 162.265 -2.09729 0.335774 0
M  V30 1711 H 164.528 -0.943925 0.0878028 0
M  V30 1712 H 164.234 -3.50678 -0.267905 0
M  V30 1713 H 164.108 -3.20334 -1.99163 0
M  V30 1714 H 166.495 -2.21225 -1.95304 0
M  V30 1715 H 166.576 -2.54871 -0.217801 0
M  V30 1716 H 166.22 -5.02984 -0.704958 0
M  V30 1717 H 166.15 -4.66299 -2.44689 0
M  V30 1718 H 168.641 -3.51466 -1.38853 0
M  V30 1719 H 168.954 -7.39361 -2.24867 0
M  V30 1720 H 167.299 -6.64725 -2.02894 0
M  V30 1721 H 170.49 -4.38382 -1.64132 0
M  V30 1722 H 170.663 -6.15258 -2.03377 0
M  V30 1723 N 164.069 0.697108 -1.41344 0
M  V30 1724 C 165.032 1.79281 -1.42797 0
M  V30 1725 C 166.032 1.57607 -0.318837 0
M  V30 1726 O 167.222 1.64309 -0.578642 0
M  V30 1727 C 164.354 3.17632 -1.23785 0
M  V30 1728 H 165.547 1.79385 -2.40335 0
M  V30 1729 H 163.1 0.904582 -1.27464 0
M  V30 1730 H 163.835 3.23167 -0.270814 0
M  V30 1731 H 163.62 3.34765 -2.04144 0
M  V30 1732 H 165.11 3.97617 -1.27633 0
M  V30 1733 N 165.547 1.27147 0.931209 0
M  V30 1734 C 166.793 1.13446 1.68101 0
M  V30 1735 C 167.126 -0.319628 1.91552 0
M  V30 1736 O 166.401 -1.23407 1.50336 0
M  V30 1737 C 166.684 1.91482 3.0497 0
M  V30 1738 C 166.537 3.44855 2.88782 0
M  V30 1739 C 167.856 1.71651 4.05246 0
M  V30 1740 H 164.975 0.413498 0.610072 0
M  V30 1741 H 167.617 1.56261 1.08086 0
M  V30 1742 H 165.767 1.55095 3.56199 0
M  V30 1743 H 167.439 3.9105 2.44698 0
M  V30 1744 H 165.682 3.71373 2.24198 0
M  V30 1745 H 166.353 3.94694 3.85902 0
M  V30 1746 H 168.829 2.0337 3.63015 0
M  V30 1747 H 167.705 2.28651 4.99009 0
M  V30 1748 H 167.966 0.663555 4.37092 0
M  V30 1749 N 167.025 -1.13721 1.09112 0
M  V30 1750 C 167.955 -2.21148 0.749385 0
M  V30 1751 C 168.936 -1.6792 -0.271475 0
M  V30 1752 O 170.121 -1.93693 -0.140251 0
M  V30 1753 C 167.251 -3.46905 0.165659 0
M  V30 1754 C 166.205 -4.13203 1.11567 0
M  V30 1755 C 165.531 -5.33248 0.393809 0
M  V30 1756 C 166.831 -4.60912 2.45678 0
M  V30 1757 H 168.525 -2.4999 1.64758 0
M  V30 1758 H 166.071 -1.20156 0.793626 0
M  V30 1759 H 168.024 -4.21313 -0.085466 0
M  V30 1760 H 166.748 -3.17449 -0.767714 0
M  V30 1761 H 165.407 -3.40758 1.35202 0
M  V30 1762 H 165.055 -5.00054 -0.543599 0
M  V30 1763 H 164.755 -5.78552 1.02721 0
M  V30 1764 H 166.279 -6.10413 0.150908 0
M  V30 1765 H 167.693 -5.26759 2.26269 0
M  V30 1766 H 166.09 -5.16944 3.04776 0
M  V30 1767 H 167.16 -3.75603 3.06677 0
M  V30 1768 N 168.503 -0.877838 -1.30888 0
M  V30 1769 C 169.78 -0.413052 -1.91189 0
M  V30 1770 C 170.16 1.1056 -1.79832 0
M  V30 1771 O 169.508 1.93771 -1.21099 0
M  V30 1772 C 169.718 -0.903191 -3.3711 0
M  V30 1773 C 171.066 -0.93395 -4.14201 0
M  V30 1774 O 172.09 -0.849373 -3.45925 0
M  V30 1775 O 170.949 -1.05772 -5.36167 0
M  V30 1776 H 168.043 -0.125035 -0.817493 0
M  V30 1777 H 170.589 -0.966269 -1.39504 0
M  V30 1778 H 169.361 -1.94692 -3.39427 0
M  V30 1779 H 168.984 -0.328732 -3.96239 0
M  V30 1780 N 169.982 1.44106 -0.638065 0
M  V30 1781 C 170.93 2.3248 0.0748149 0
M  V30 1782 C 171.924 1.47746 0.828702 0
M  V30 1783 O 173.13 1.64049 0.740816 0
M  V30 1784 H 169.505 0.750771 0.0429686 0
M  V30 1785 H 171.476 2.90348 -0.688504 0
M  V30 1786 C 170.225 3.31843 1.03805 0
M  V30 1787 H 169.548 3.97059 0.467375 0
M  V30 1788 H 170.988 3.96345 1.50622 0
M  V30 1789 C 169.447 2.61291 2.1267 0
M  V30 1790 O 169.977 2.41702 3.20847 0
M  V30 1791 N 168.183 2.20915 1.88798 0
M  V30 1792 H 167.73 2.37047 1.00829 0
M  V30 1793 H 167.688 1.74038 2.61836 0
M  V30 1794 N 171.46 0.379036 1.52974 0
M  V30 1795 C 172.876 0.0285448 1.59574 0
M  V30 1796 C 173.076 -1.45542 1.39355 0
M  V30 1797 O 172.132 -2.2187 1.20541 0
M  V30 1798 C 173.445 0.496535 2.96572 0
M  V30 1799 C 174.993 0.451909 3.0972 0
M  V30 1800 C 175.468 0.895924 4.49152 0
M  V30 1801 N 176.959 0.851522 4.55306 0
M  V30 1802 C 177.694 1.16661 5.61407 0
M  V30 1803 N 177.19 1.55166 6.752 0
M  V30 1804 N 178.983 1.08853 5.51459 0
M  V30 1805 H 171.134 1.34525 1.64367 0
M  V30 1806 H 173.397 0.550733 0.771619 0
M  V30 1807 H 173.103 1.53258 3.16552 0
M  V30 1808 H 172.977 -0.109802 3.7704 0
M  V30 1809 H 175.364 -0.575029 2.89443 0
M  V30 1810 H 175.445 1.09392 2.3123 0
M  V30 1811 H 175.089 1.92104 4.70168 0
M  V30 1812 H 175.019 0.23103 5.26093 0
M  V30 1813 H 177.51 0.568038 3.73606 0
M  V30 1814 H 177.823 1.776 7.52116 0
M  V30 1815 H 176.168 1.59044 6.76557 0
M  V30 1816 H 179.359 0.786803 4.6144 0
M  V30 1817 H 179.532 1.33742 6.34048 0
M  V30 1818 N 172.938 -1.57226 0.108567 0
M  V30 1819 C 173.87 -2.11809 -0.875752 0
M  V30 1820 C 174.883 -1.05839 -1.23701 0
M  V30 1821 O 176.072 -1.33245 -1.18778 0
M  V30 1822 C 173.172 -2.59411 -2.18081 0
M  V30 1823 C 172.345 -3.89364 -1.99284 0
M  V30 1824 C 171.404 -4.22672 -3.13424 0
M  V30 1825 O 170.43 -4.91668 -2.86795 0
M  V30 1826 N 171.632 -3.79154 -4.3957 0
M  V30 1827 H 174.397 -2.9689 -0.409477 0
M  V30 1828 H 171.958 -1.61721 -0.076158 0
M  V30 1829 H 173.95 -2.7873 -2.93414 0
M  V30 1830 H 172.52 -1.79268 -2.5609 0
M  V30 1831 H 171.74 -3.79059 -1.08203 0
M  V30 1832 H 173.028 -4.74358 -1.84017 0
M  V30 1833 H 172.426 -3.23486 -4.64083 0
M  V30 1834 H 170.983 -4.03602 -5.11809 0
M  V30 1835 N 174.416 0.165178 -1.56732 0
M  V30 1836 C 175.832 0.517174 -1.50988 0
M  V30 1837 C 176.032 1.84331 -0.813894 0
M  V30 1838 O 175.088 2.49672 -0.37682 0
M  V30 1839 C 176.401 0.544261 -2.95733 0
M  V30 1840 C 177.949 0.631039 -3.06573 0
M  V30 1841 C 178.424 0.68896 -4.52788 0
M  V30 1842 N 179.915 0.751683 -4.5706 0
M  V30 1843 C 180.65 0.817177 -5.67547 0
M  V30 1844 N 180.146 0.843129 -6.8765 0
M  V30 1845 N 181.939 0.856668 -5.55534 0
M  V30 1846 H 174.09 -0.704318 -2.00382 0
M  V30 1847 H 176.353 -0.254687 -0.913148 0
M  V30 1848 H 176.059 -0.361607 -3.49836 0
M  V30 1849 H 175.933 1.3886 -3.5071 0
M  V30 1850 H 178.32 1.52733 -2.52501 0
M  V30 1851 H 178.401 -0.240095 -2.54671 0
M  V30 1852 H 178.045 -0.2031 -5.07494 0
M  V30 1853 H 177.975 1.57633 -5.02454 0
M  V30 1854 H 180.466 0.739661 -3.70591 0
M  V30 1855 H 180.779 0.894448 -7.67606 0
M  V30 1856 H 179.124 0.811304 -6.90248 0
M  V30 1857 H 182.315 0.833437 -4.60621 0
M  V30 1858 H 182.488 0.904247 -6.4166 0
M  V30 1859 N 175.894 1.51508 0.433938 0
M  V30 1860 C 176.844 1.69451 1.52546 0
M  V30 1861 C 177.828 0.548474 1.51263 0
M  V30 1862 O 179.02 0.804529 1.57659 0
M  V30 1863 C 176.149 1.82604 2.90707 0
M  V30 1864 C 175.235 3.03002 2.96733 0
M  V30 1865 N 175.626 4.26121 2.72496 0
M  V30 1866 C 173.924 3.02327 3.27894 0
M  V30 1867 C 174.625 5.07407 2.84452 0
M  V30 1868 N 173.601 4.42126 3.16269 0
M  V30 1869 H 177.403 2.62305 1.32564 0
M  V30 1870 H 174.917 1.49202 0.641297 0
M  V30 1871 H 176.914 1.93569 3.69238 0
M  V30 1872 H 175.574 0.909339 3.11707 0
M  V30 1873 H 176.585 4.55009 2.4736 0
M  V30 1874 H 173.262 2.20301 3.54646 0
M  V30 1875 H 174.652 6.15422 2.69639 0
M  V30 1876 N 177.372 -0.689602 1.41712 0
M  V30 1877 C 178.335 -1.78521 1.43746 0
M  V30 1878 C 179.335 -1.57436 0.327191 0
M  V30 1879 O 180.525 -1.64 0.587348 0
M  V30 1880 C 177.657 -3.16971 1.25467 0
M  V30 1881 H 178.85 -1.78108 2.41283 0
M  V30 1882 H 176.403 -0.89781 1.27942 0
M  V30 1883 H 177.138 -3.23019 0.287948 0
M  V30 1884 H 176.923 -3.33678 2.05917 0
M  V30 1885 H 178.413 -3.96935 1.2974 0
M  V30 1886 N 178.85 -1.27639 -0.924453 0
M  V30 1887 C 180.096 -1.15345 -1.67532 0
M  V30 1888 C 180.451 0.297096 -1.90092 0
M  V30 1889 O 179.744 1.21374 -1.48253 0
M  V30 1890 C 179.938 -1.87407 -3.04325 0
M  V30 1891 C 179.767 -3.3932 -2.95114 0
M  V30 1892 C 178.537 -4.08644 -2.97218 0
M  V30 1893 C 180.735 -4.35242 -2.73987 0
M  V30 1894 N 178.717 -5.47102 -2.78482 0
M  V30 1895 C 180.088 -5.6099 -2.63988 0
M  V30 1896 C 182.143 -4.25294 -2.589 0
M  V30 1897 C 180.846 -6.77924 -2.40442 0
M  V30 1898 C 182.872 -5.41952 -2.36731 0
M  V30 1899 C 182.234 -6.66658 -2.27478 0
M  V30 1900 H 178.333 -0.47696 -0.619704 0
M  V30 1901 H 180.917 -1.6115 -1.09265 0
M  V30 1902 H 179.088 -1.44053 -3.60699 0
M  V30 1903 H 180.82 -1.6759 -3.68369 0
M  V30 1904 H 177.575 -3.60136 -3.07569 0
M  V30 1905 H 177.999 -6.19852 -2.72236 0
M  V30 1906 H 182.641 -3.29598 -2.64811 0
M  V30 1907 H 180.359 -7.73699 -2.3327 0
M  V30 1908 H 183.945 -5.36137 -2.25938 0
M  V30 1909 H 182.825 -7.55405 -2.10555 0
M  V30 1910 N 180.328 1.1314 -1.09713 0
M  V30 1911 C 181.258 2.20748 -0.761102 0
M  V30 1912 C 182.239 1.68061 0.262566 0
M  V30 1913 O 183.424 1.93765 0.129977 0
M  V30 1914 C 180.554 3.46812 -0.184054 0
M  V30 1915 C 179.508 4.12606 -1.13757 0
M  V30 1916 C 178.834 5.33031 -0.422083 0
M  V30 1917 C 180.134 4.59603 -2.48118 0
M  V30 1918 H 181.828 2.49113 -1.66082 0
M  V30 1919 H 179.374 1.19734 -0.799987 0
M  V30 1920 H 181.327 4.21353 0.0631215 0
M  V30 1921 H 180.051 3.17851 0.750868 0
M  V30 1922 H 178.71 3.40036 -1.37007 0
M  V30 1923 H 178.358 5.00335 0.517072 0
M  V30 1924 H 178.058 5.77999 -1.05788 0
M  V30 1925 H 179.582 6.10325 -0.183277 0
M  V30 1926 H 180.996 5.25552 -2.29059 0
M  V30 1927 H 179.393 5.15321 -3.07514 0
M  V30 1928 H 180.463 3.73971 -3.08665 0
M  V30 1929 N 181.806 0.884767 1.30421 0
M  V30 1930 C 182.716 0.355398 2.31892 0
M  V30 1931 C 183.732 -0.542261 1.65335 0
M  V30 1932 O 184.908 -0.435432 1.96637 0
M  V30 1933 C 181.973 -0.421661 3.44126 0
M  V30 1934 C 181.034 0.505727 4.26311 0
M  V30 1935 C 180.267 -0.234343 5.33185 0
M  V30 1936 O 180.49 -1.46045 5.51386 0
M  V30 1937 O 179.424 0.415443 6.00465 0
M  V30 1938 H 183.25 1.19685 2.79122 0
M  V30 1939 H 180.835 0.648596 1.34587 0
M  V30 1940 H 182.717 -0.861641 4.12497 0
M  V30 1941 H 181.392 -1.23942 2.99032 0
M  V30 1942 H 180.299 0.994513 3.60639 0
M  V30 1943 H 181.632 1.28948 4.75009 0
M  V30 1944 N 183.284 -1.43765 0.645699 0
M  V30 1945 C 184.214 -2.33471 -0.0370477 0
M  V30 1946 C 185.195 -1.49042 -0.819779 0
M  V30 1947 O 186.38 -1.77726 -0.782758 0
M  V30 1948 C 183.51 -3.32311 -1.0093 0
M  V30 1949 C 182.464 -4.2667 -0.337201 0
M  V30 1950 C 181.79 -5.1549 -1.42037 0
M  V30 1951 C 183.09 -5.16657 0.765706 0
M  V30 1952 H 184.784 -2.90809 0.712069 0
M  V30 1953 H 182.33 -1.39834 0.343876 0
M  V30 1954 H 184.283 -3.9396 -1.49578 0
M  V30 1955 H 183.007 -2.73213 -1.78948 0
M  V30 1956 H 181.666 -3.66374 0.128771 0
M  V30 1957 H 181.314 -4.52735 -2.1918 0
M  V30 1958 H 181.014 -5.79438 -0.975966 0
M  V30 1959 H 182.538 -5.80012 -1.90838 0
M  V30 1960 H 183.952 -5.72158 0.361702 0
M  V30 1961 H 182.349 -5.89286 1.13413 0
M  V30 1962 H 183.419 -4.56796 1.62683 0
M  V30 1963 N 184.763 -0.387143 -1.52771 0
M  V30 1964 C 185.726 0.436939 -2.24997 0
M  V30 1965 C 186.726 0.991991 -1.26555 0
M  V30 1966 O 187.916 0.874335 -1.50669 0
M  V30 1967 C 185.048 1.61281 -3.00335 0
M  V30 1968 H 186.241 -0.195365 -2.99263 0
M  V30 1969 H 183.794 -0.139218 -1.55679 0
M  V30 1970 H 184.529 2.2826 -2.30364 0
M  V30 1971 H 184.314 1.22154 -3.72587 0
M  V30 1972 H 185.804 2.19629 -3.5518 0
M  V30 1973 N 186.241 1.57166 -0.116904 0
M  V30 1974 C 187.189 2.16457 0.851418 0
M  V30 1975 C 188.183 1.11323 1.27686 0
M  V30 1976 O 189.389 1.2963 1.24884 0
M  V30 1977 H 185.764 0.69271 0.292672 0
M  V30 1978 H 187.735 2.96605 0.32685 0
M  V30 1979 C 186.484 2.77689 2.09246 0
M  V30 1980 H 185.807 3.58285 1.77402 0
M  V30 1981 H 187.247 3.22716 2.7501 0
M  V30 1982 C 185.706 1.74667 2.88085 0
M  V30 1983 O 186.236 1.19877 3.83396 0
M  V30 1984 N 184.442 1.44656 2.52038 0
M  V30 1985 H 183.989 1.89402 1.74599 0
M  V30 1986 H 183.947 0.759675 3.05084 0
M  V30 1987 N 187.719 -0.156864 1.56817 0
M  V30 1988 C 188.651 -1.21883 1.94106 0
M  V30 1989 C 189.664 -1.3971 0.835754 0
M  V30 1990 O 190.853 -1.39457 1.11418 0
M  V30 1991 C 187.953 -2.58527 2.19127 0
M  V30 1992 C 187.126 -2.61809 3.50393 0
M  V30 1993 C 186.185 -3.7992 3.64071 0
M  V30 1994 O 185.211 -3.65249 4.36557 0
M  V30 1995 N 186.413 -4.96973 2.99997 0
M  V30 1996 H 189.178 -0.901974 2.85805 0
M  V30 1997 H 186.739 -0.346513 1.58148 0
M  V30 1998 H 188.731 -3.36034 2.25529 0
M  V30 1999 H 187.301 -2.82545 1.33742 0
M  V30 2000 H 186.521 -1.7029 3.5552 0
M  V30 2001 H 187.809 -2.61024 4.36742 0
M  V30 2002 H 187.207 -5.11794 2.41004 0
M  V30 2003 H 185.764 -5.7229 3.11974 0
M  V30 2004 N 189.197 -1.51736 -0.425897 0
M  V30 2005 C 190.446 -1.64201 -1.17136 0
M  V30 2006 C 190.759 -0.369705 -1.92074 0
M  V30 2007 O 191.965 -0.373898 -2.68913 0
M  V30 2008 C 190.421 -2.90035 -2.13091 0
M  V30 2009 C 190.029 -4.24312 -1.43747 0
M  V30 2010 C 191.773 -3.1186 -2.87999 0
M  V30 2011 C 189.68 -5.41285 -2.38253 0
M  V30 2012 H 188.61 -0.611624 -0.440944 0
M  V30 2013 H 191.261 -1.78212 -0.437328 0
M  V30 2014 H 189.643 -2.69684 -2.89977 0
M  V30 2015 H 190.817 -4.55086 -0.723408 0
M  V30 2016 H 189.132 -4.08456 -0.809465 0
M  V30 2017 H 191.729 -3.96427 -3.58817 0
M  V30 2018 H 192.072 -2.25403 -3.49999 0
M  V30 2019 H 192.605 -3.32605 -2.18217 0
M  V30 2020 H 189.344 -6.30037 -1.80925 0
M  V30 2021 H 188.864 -5.14872 -3.0768 0
M  V30 2022 H 190.543 -5.73694 -2.99139 0
M  V30 2023 N 190.675 0.682077 -1.42076 0
M  V30 2024 C 191.921 1.44428 -1.42367 0
M  V30 2025 C 192.254 1.94164 -0.0373056 0
M  V30 2026 O 191.529 1.70429 0.937239 0
M  V30 2027 C 191.812 2.64654 -2.44194 0
M  V30 2028 C 191.665 2.20596 -3.91991 0
M  V30 2029 C 192.984 3.66865 -2.431 0
M  V30 2030 H 190.103 0.523834 -0.518428 0
M  V30 2031 H 192.745 0.77576 -1.73442 0
M  V30 2032 H 190.895 3.2169 -2.17826 0
M  V30 2033 H 192.567 1.68783 -4.29313 0
M  V30 2034 H 190.81 1.52242 -4.06208 0
M  V30 2035 H 191.481 3.06921 -4.58807 0
M  V30 2036 H 193.957 3.19531 -2.66532 0
M  V30 2037 H 192.833 4.48577 -3.16339 0
M  V30 2038 H 193.094 4.17493 -1.45437 0
M  V30 2039 N 192.153 1.28127 0.917671 0
M  V30 2040 C 193.43 1.05761 1.64542 0
M  V30 2041 C 193.81 -0.404344 2.07191 0
M  V30 2042 O 193.158 -1.38963 1.81388 0
M  V30 2043 C 193.368 2.02857 2.83989 0
M  V30 2044 C 194.716 2.32786 3.551 0
M  V30 2045 O 195.74 2.0091 2.94132 0
M  V30 2046 O 194.599 2.87169 4.64969 0
M  V30 2047 H 191.693 0.403916 0.721652 0
M  V30 2048 H 194.239 1.39431 0.967322 0
M  V30 2049 H 193.011 3.01407 2.49538 0
M  V30 2050 H 192.634 1.69809 3.59514 0
M  V30 2051 N 193.631 -1.12557 1.10312 0
M  V30 2052 C 194.877 -1.84311 0.846011 0
M  V30 2053 C 195.21 -1.83805 -0.626859 0
M  V30 2054 O 194.485 -1.28268 -1.46211 0
M  V30 2055 C 194.768 -3.32048 1.39341 0
M  V30 2056 C 194.621 -3.41016 2.93305 0
M  V30 2057 C 195.94 -4.27764 1.03468 0
M  V30 2058 H 193.059 -0.669192 0.30879 0
M  V30 2059 H 195.701 -1.32057 1.36605 0
M  V30 2060 H 193.851 -3.76678 0.951087 0
M  V30 2061 H 195.523 -3.05031 3.46055 0
M  V30 2062 H 193.766 -2.81603 3.29973 0
M  V30 2063 H 194.437 -4.44948 3.26689 0
M  V30 2064 H 196.913 -3.91253 1.41633 0
M  V30 2065 H 195.789 -5.29549 1.44463 0
M  V30 2066 H 196.05 -4.42064 -0.0560404 0
M  V30 2067 N 195.109 -0.891671 -1.2995 0
M  V30 2068 C 196.056 -0.361736 -2.27948 0
M  V30 2069 C 197.026 0.551761 -1.56668 0
M  V30 2070 O 198.211 0.478736 -1.84696 0
M  V30 2071 C 195.351 0.411825 -3.42634 0
M  V30 2072 C 194.464 -0.531651 -4.28716 0
M  V30 2073 C 193.599 0.258167 -5.30572 0
M  V30 2074 C 192.638 -0.680349 -6.08307 0
M  V30 2075 N 191.775 0.0745613 -7.0206 0
M  V30 2076 H 196.615 -1.20254 -2.72659 0
M  V30 2077 H 194.152 -0.604352 -1.34112 0
M  V30 2078 H 196.11 0.876304 -4.07893 0
M  V30 2079 H 194.74 1.21715 -2.98974 0
M  V30 2080 H 193.792 -1.11463 -3.63703 0
M  V30 2081 H 195.104 -1.25038 -4.82874 0
M  V30 2082 H 194.258 0.784204 -6.0161 0
M  V30 2083 H 192.997 1.01008 -4.77126 0
M  V30 2084 H 192.002 -1.21796 -5.3614 0
M  V30 2085 H 193.227 -1.43145 -6.63842 0
M  V30 2086 H 191.173 0.808883 -6.50994 0
M  V30 2087 H 191.09 -0.584409 -7.53738 0
M  V30 2088 H 192.358 0.581123 -7.77331 0
M  V30 2089 N 196.587 1.43421 -0.653314 0
M  V30 2090 C 197.55 2.29182 0.0287951 0
M  V30 2091 C 198.55 1.42213 0.750465 0
M  V30 2092 O 199.74 1.63843 0.591701 0
M  V30 2093 C 196.872 3.24278 1.05151 0
M  V30 2094 H 198.065 2.90985 -0.725786 0
M  V30 2095 H 195.618 1.50702 -0.414545 0
M  V30 2096 H 196.353 2.6737 1.83532 0
M  V30 2097 H 196.138 3.88396 0.537687 0
M  V30 2098 H 197.628 3.88647 1.52786 0
M  V30 2099 N 198.065 0.39524 1.52563 0
M  V30 2100 C 198.995 -0.428384 2.29537 0
M  V30 2101 C 199.976 -1.05831 1.33169 0
M  V30 2102 O 201.161 -1.06995 1.62067 0
M  V30 2103 C 198.291 -1.55274 3.10656 0
M  V30 2104 C 197.245 -1.04855 4.14957 0
M  V30 2105 C 196.571 -2.26543 4.84337 0
M  V30 2106 C 197.871 -0.112324 5.22179 0
M  V30 2107 H 199.565 0.213867 2.98635 0
M  V30 2108 H 197.111 0.104298 1.43622 0
M  V30 2109 H 199.064 -2.1358 3.63265 0
M  V30 2110 H 197.788 -2.22266 2.39302 0
M  V30 2111 H 196.447 -0.487985 3.63338 0
M  V30 2112 H 196.095 -2.92059 4.09525 0
M  V30 2113 H 195.795 -1.93466 5.54837 0
M  V30 2114 H 197.319 -2.85481 5.39753 0
M  V30 2115 H 198.733 -0.603752 5.70112 0
M  V30 2116 H 197.13 0.128968 5.99961 0
M  V30 2117 H 198.2 0.837052 4.77621 0
M  V30 2118 N 199.544 -1.57102 0.125237 0
M  V30 2119 C 200.769 -2.0019 -0.542101 0
M  V30 2120 C 201.194 -1.00449 -1.59034 0
M  V30 2121 O 200.552 0.0229423 -1.81285 0
M  V30 2122 C 200.6 -3.42129 -1.13929 0
M  V30 2123 O 199.704 -3.45307 -2.2547 0
M  V30 2124 H 199.045 -0.650171 -0.134812 0
M  V30 2125 H 201.575 -2.03461 0.215553 0
M  V30 2126 H 201.585 -3.80471 -1.4733 0
M  V30 2127 H 200.26 -4.14237 -0.371531 0
M  V30 2128 H 198.837 -3.1879 -1.93462 0
M  V30 2129 N 201.022 0.148545 -1.56898 0
M  V30 2130 C 201.969 1.18345 -1.98149 0
M  V30 2131 C 202.939 1.42772 -0.848848 0
M  V30 2132 O 204.124 1.55132 -1.11079 0
M  V30 2133 C 201.264 2.51231 -2.36594 0
M  V30 2134 C 200.377 2.33991 -3.63142 0
M  V30 2135 C 199.512 3.59902 -3.90697 0
M  V30 2136 C 198.551 3.37692 -5.1052 0
M  V30 2137 N 197.688 4.5573 -5.34092 0
M  V30 2138 H 202.528 0.82467 -2.86362 0
M  V30 2139 H 200.065 0.395756 -1.41676 0
M  V30 2140 H 202.023 3.28713 -2.56912 0
M  V30 2141 H 200.653 2.85059 -1.51463 0
M  V30 2142 H 199.705 1.47572 -3.50609 0
M  V30 2143 H 201.017 2.13539 -4.5078 0
M  V30 2144 H 200.171 4.45813 -4.11505 0
M  V30 2145 H 198.91 3.83357 -3.01477 0
M  V30 2146 H 197.915 2.5017 -4.89587 0
M  V30 2147 H 199.14 3.15637 -6.0129 0
M  V30 2148 H 197.086 4.79361 -4.47827 0
M  V30 2149 H 197.003 4.38274 -6.15996 0
M  V30 2150 H 198.271 5.42858 -5.59397 0
M  V30 2151 N 202.5 1.5196 0.417844 0
M  V30 2152 C 203.728 1.69426 1.18753 0
M  V30 2153 C 204.143 0.399955 1.84515 0
M  V30 2154 O 203.5 -0.623288 1.71527 0
M  V30 2155 C 203.551 2.82375 2.25714 0
M  V30 2156 O 203.272 4.06793 1.62638 0
M  V30 2157 C 204.773 3.11277 3.15628 0
M  V30 2158 H 201.993 0.568031 0.357186 0
M  V30 2159 H 204.537 1.98475 0.49273 0
M  V30 2160 H 202.692 2.5587 2.90877 0
M  V30 2161 H 203.106 4.69667 2.3348 0
M  V30 2162 H 204.58 3.93843 3.86771 0
M  V30 2163 H 205.057 2.24473 3.77503 0
M  V30 2164 H 205.663 3.39515 2.56144 0
M  V30 2165 N 203.978 -0.674533 1.42435 0
M  V30 2166 C 204.888 -1.81751 1.48337 0
M  V30 2167 C 205.904 -1.69975 0.372099 0
M  V30 2168 O 207.08 -1.91521 0.62304 0
M  V30 2169 C 204.145 -3.17895 1.38361 0
M  V30 2170 C 203.206 -3.41625 2.59982 0
M  V30 2171 C 202.439 -4.71274 2.50473 0
M  V30 2172 O 202.662 -5.49197 1.54075 0
M  V30 2173 O 201.596 -4.96254 3.4061 0
M  V30 2174 H 205.422 -1.79728 2.44809 0
M  V30 2175 H 203.007 -0.830312 1.24202 0
M  V30 2176 H 204.889 -3.99136 1.35161 0
M  V30 2177 H 203.564 -3.20555 0.450144 0
M  V30 2178 H 202.471 -2.60231 2.68757 0
M  V30 2179 H 203.804 -3.43796 3.52229 0
M  V30 2180 N 205.456 -1.28612 -0.910864 0
M  V30 2181 C 206.386 -1.15326 -2.03032 0
M  V30 2182 C 207.367 -0.0502924 -1.70026 0
M  V30 2183 O 208.552 -0.227797 -1.92859 0
M  V30 2184 C 205.682 -0.817343 -3.37545 0
M  V30 2185 C 204.636 -1.8754 -3.84724 0
M  V30 2186 C 203.962 -1.39305 -5.16235 0
M  V30 2187 C 205.262 -3.28244 -4.06267 0
M  V30 2188 H 206.956 -2.08975 -2.14406 0
M  V30 2189 H 204.502 -1.00612 -1.03021 0
M  V30 2190 H 206.455 -0.711151 -4.15356 0
M  V30 2191 H 205.179 0.154846 -3.26233 0
M  V30 2192 H 203.838 -1.97079 -3.09121 0
M  V30 2193 H 203.486 -0.409846 -5.01328 0
M  V30 2194 H 203.186 -2.10057 -5.48771 0
M  V30 2195 H 204.71 -1.30014 -5.96598 0
M  V30 2196 H 206.124 -3.21611 -4.74594 0
M  V30 2197 H 204.521 -3.96855 -4.5014 0
M  V30 2198 H 205.591 -3.72048 -3.10979 0
M  V30 2199 N 206.934 1.1197 -1.10907 0
M  V30 2200 C 207.866 2.17592 -0.720175 0
M  V30 2201 C 208.879 1.60938 0.245495 0
M  V30 2202 O 210.068 1.78476 0.0292245 0
M  V30 2203 C 207.168 3.38873 -0.0427917 0
M  V30 2204 C 206.341 4.25006 -1.03388 0
M  V30 2205 C 205.4 5.24774 -0.387075 0
M  V30 2206 O 204.426 5.59631 -1.03934 0
M  V30 2207 N 205.628 5.74208 0.852407 0
M  V30 2208 H 208.393 2.51567 -1.62893 0
M  V30 2209 H 205.954 1.27439 -0.998543 0
M  V30 2210 H 207.946 4.02703 0.401501 0
M  V30 2211 H 206.516 3.03007 0.768456 0
M  V30 2212 H 205.736 3.57716 -1.65629 0
M  V30 2213 H 207.024 4.79397 -1.70458 0
M  V30 2214 H 206.422 5.48062 1.40161 0
M  V30 2215 H 204.979 6.39901 1.23977 0
M  V30 2216 N 208.412 0.89855 1.29475 0
M  V30 2217 C 209.661 0.519863 1.94885 0
M  V30 2218 C 209.974 -0.9383 1.71625 0
M  V30 2219 O 211.18 -1.42445 2.31131 0
M  V30 2220 C 209.636 0.878836 3.49005 0
M  V30 2221 C 209.244 2.35569 3.81066 0
M  V30 2222 C 210.988 0.570004 4.20656 0
M  V30 2223 C 208.895 2.65558 5.28425 0
M  V30 2224 H 207.825 0.190692 0.729488 0
M  V30 2225 H 210.476 1.09539 1.47219 0
M  V30 2226 H 208.858 0.232253 3.95318 0
M  V30 2227 H 210.032 3.04773 3.45616 0
M  V30 2228 H 208.347 2.63343 3.22552 0
M  V30 2229 H 210.944 0.770925 5.29113 0
M  V30 2230 H 211.287 -0.491404 4.1339 0
M  V30 2231 H 211.82 1.17438 3.8007 0
M  V30 2232 H 208.559 3.70493 5.40754 0
M  V30 2233 H 208.079 2.00977 5.65127 0
M  V30 2234 H 209.758 2.51765 5.96006 0
M  V30 2235 N 209.89 -1.43072 0.660911 0
M  V30 2236 C 211.118 -2.06067 0.185422 0
M  V30 2237 C 211.533 -1.49582 -1.15198 0
M  V30 2238 O 210.89 -0.630134 -1.71276 0
M  V30 2239 C 210.941 -3.61371 0.0966523 0
M  V30 2240 O 210.662 -4.15758 1.38119 0
M  V30 2241 C 212.163 -4.41455 -0.403996 0
M  V30 2242 H 209.383 -0.664459 0.0934604 0
M  V30 2243 H 211.927 -1.83447 0.90373 0
M  V30 2244 H 210.082 -3.8315 -0.572259 0
M  V30 2245 H 210.496 -5.09499 1.24542 0
M  V30 2246 H 211.97 -5.50437 -0.415045 0
M  V30 2247 H 212.447 -4.15036 -1.43674 0
M  V30 2248 H 213.053 -4.24663 0.232691 0
M  V30 2249 N 211.368 -0.403325 -1.52352 0
M  V30 2250 C 212.298 0.416205 -2.29761 0
M  V30 2251 C 213.279 1.05123 -1.33728 0
M  V30 2252 O 214.464 1.06134 -1.62632 0
M  V30 2253 C 211.594 1.53624 -3.11475 0
M  V30 2254 C 210.548 1.02653 -4.15507 0
M  V30 2255 C 209.874 2.23971 -4.85532 0
M  V30 2256 C 211.174 0.08463 -5.22231 0
M  V30 2257 H 212.868 -0.229701 -2.98518 0
M  V30 2258 H 210.414 -0.111913 -1.43564 0
M  V30 2259 H 212.367 2.1165 -3.64393 0
M  V30 2260 H 211.091 2.20994 -2.40477 0
M  V30 2261 H 209.75 0.46871 -3.63591 0
M  V30 2262 H 209.398 2.89883 -4.11068 0
M  V30 2263 H 209.098 1.90521 -5.55856 0
M  V30 2264 H 210.622 2.82614 -5.41259 0
M  V30 2265 H 212.036 0.573509 -5.70424 0
M  V30 2266 H 210.433 -0.160783 -5.99885 0
M  V30 2267 H 211.503 -0.86237 -4.7717 0
M  V30 2268 N 212.846 1.57033 -0.133567 0
M  V30 2269 C 213.793 2.16074 0.811208 0
M  V30 2270 C 214.763 1.08979 1.2535 0
M  V30 2271 O 215.948 1.36958 1.32843 0
M  V30 2272 C 213.088 2.77595 2.05024 0
M  V30 2273 C 212.201 3.99042 1.65498 0
M  V30 2274 C 211.336 4.48603 2.84479 0
M  V30 2275 C 210.375 5.62547 2.41262 0
M  V30 2276 N 209.512 6.06787 3.53206 0
M  V30 2277 H 214.352 2.96477 0.300906 0
M  V30 2278 H 211.889 1.46462 0.136822 0
M  V30 2279 H 213.847 3.11402 2.77642 0
M  V30 2280 H 212.477 1.99859 2.53488 0
M  V30 2281 H 211.529 3.71302 0.826981 0
M  V30 2282 H 212.841 4.81629 1.29748 0
M  V30 2283 H 211.995 4.84395 3.65303 0
M  V30 2284 H 210.734 3.64995 3.23465 0
M  V30 2285 H 209.739 5.26345 1.58874 0
M  V30 2286 H 210.964 6.47931 2.03377 0
M  V30 2287 H 208.91 5.26117 3.91838 0
M  V30 2288 H 208.827 6.84266 3.21427 0
M  V30 2289 H 210.095 6.4722 4.34427 0
M  V30 2290 N 214.325 -0.140222 1.56975 0
M  V30 2291 C 215.55 -0.870414 1.88251 0
M  V30 2292 C 215.975 -1.73637 0.723312 0
M  V30 2293 O 215.333 -1.78329 -0.32689 0
M  V30 2294 C 215.381 -1.69737 3.18154 0
M  V30 2295 O 214.485 -2.80229 3.02565 0
M  V30 2296 H 213.826 -0.242025 0.61832 0
M  V30 2297 H 216.356 -0.128999 2.04193 0
M  V30 2298 H 216.366 -2.09099 3.50345 0
M  V30 2299 H 215.041 -1.06152 4.02125 0
M  V30 2300 H 213.618 -2.44224 2.81796 0
M  V30 2301 N 215.803 -1.52179 -0.40978 0
M  V30 2302 C 216.766 -1.74853 -1.48186 0
M  V30 2303 C 217.766 -0.618417 -1.48433 0
M  V30 2304 O 218.956 -0.886286 -1.49969 0
M  V30 2305 C 216.088 -1.8303 -2.87598 0
M  V30 2306 H 217.281 -2.70559 -1.29374 0
M  V30 2307 H 214.834 -1.42586 -0.640233 0
M  V30 2308 H 215.569 -0.89236 -3.11781 0
M  V30 2309 H 215.354 -2.65187 -2.88822 0
M  V30 2310 H 216.844 -2.02316 -3.65319 0
M  V30 2311 N 217.281 0.66697 -1.42791 0
M  V30 2312 C 218.511 1.45294 -1.46878 0
M  V30 2313 C 218.919 1.89027 -0.0809861 0
M  V30 2314 O 218.262 1.59219 0.916246 0
M  V30 2315 C 218.324 2.72908 -2.34012 0
M  V30 2316 C 217.988 2.51203 -3.81767 0
M  V30 2317 C 218.985 2.15302 -4.73224 0
M  V30 2318 C 216.67 2.65954 -4.26115 0
M  V30 2319 C 218.664 1.94431 -6.07022 0
M  V30 2320 C 216.351 2.44699 -5.59969 0
M  V30 2321 C 217.349 2.08992 -6.5024 0
M  V30 2322 O 217.037 1.87948 -7.81621 0
M  V30 2323 H 216.769 0.453306 -0.501487 0
M  V30 2324 H 219.323 0.826232 -1.88049 0
M  V30 2325 H 217.553 3.38089 -1.87703 0
M  V30 2326 H 219.242 3.34816 -2.29462 0
M  V30 2327 H 220.008 2.03495 -4.40244 0
M  V30 2328 H 215.887 2.92724 -3.56137 0
M  V30 2329 H 219.431 1.66484 -6.77443 0
M  V30 2330 H 215.328 2.56105 -5.9252 0
M  V30 2331 H 216.096 2.02483 -7.93059 0
M  V30 2332 N 218.759 1.29093 0.90403 0
M  V30 2333 C 219.989 1.19516 1.68522 0
M  V30 2334 C 220.397 -0.24738 1.87576 0
M  V30 2335 O 219.74 -1.17798 1.40959 0
M  V30 2336 C 219.802 1.83249 3.0929 0
M  V30 2337 C 219.466 3.32531 3.13484 0
M  V30 2338 C 220.463 4.28821 2.93953 0
M  V30 2339 C 218.148 3.73656 3.35688 0
M  V30 2340 C 220.142 5.64212 2.96553 0
M  V30 2341 C 217.829 5.0917 3.37919 0
M  V30 2342 C 218.827 6.04258 3.18373 0
M  V30 2343 O 218.515 7.37298 3.20385 0
M  V30 2344 H 218.247 0.415467 0.533257 0
M  V30 2345 H 220.801 1.70912 1.13922 0
M  V30 2346 H 219.031 1.26358 3.65473 0
M  V30 2347 H 220.72 1.68054 3.69476 0
M  V30 2348 H 221.486 3.98382 2.76616 0
M  V30 2349 H 217.365 3.00101 3.49943 0
M  V30 2350 H 220.909 6.38407 2.81216 0
M  V30 2351 H 216.806 5.39256 3.54787 0
M  V30 2352 H 217.574 7.46048 3.36681 0
M  V30 2353 N 220.237 -1.11381 1.11499 0
M  V30 2354 C 221.648 -1.6465 0.880191 0
M  V30 2355 C 221.999 -1.87199 -0.587434 0
M  V30 2356 O 221.124 -1.60667 -1.44966 0
M  V30 2357 C 221.719 -2.99105 1.59128 0
M  V30 2358 C 220.278 -3.49279 1.40289 0
M  V30 2359 C 219.425 -2.24077 1.63354 0
M  V30 2360 H 222.376 -0.950123 1.27116 0
M  V30 2361 H 222.397 -3.66107 1.03664 0
M  V30 2362 H 221.909 -2.82661 2.65941 0
M  V30 2363 H 220.01 -3.70887 0.356888 0
M  V30 2364 H 220.123 -4.2803 2.15238 0
M  V30 2365 H 218.487 -2.31733 1.05698 0
M  V30 2366 H 219.27 -2.10175 2.71443 0
M  V30 2367 N 221.715 -0.905404 -1.28997 0
M  V30 2368 C 222.962 -0.534248 -1.95325 0
M  V30 2369 C 223.29 0.920535 -1.71337 0
M  V30 2370 O 222.545 1.66861 -1.02254 0
M  V30 2371 C 222.844 -0.779906 -3.48787 0
M  V30 2372 C 222.51 -2.21293 -3.92861 0
M  V30 2373 C 221.172 -2.60475 -4.04606 0
M  V30 2374 C 223.524 -3.14587 -4.15553 0
M  V30 2375 C 220.852 -3.9212 -4.36416 0
M  V30 2376 C 223.204 -4.45787 -4.48839 0
M  V30 2377 C 221.868 -4.84834 -4.58794 0
M  V30 2378 H 221.138 -0.195495 -0.714747 0
M  V30 2379 H 223.785 -1.14514 -1.53488 0
M  V30 2380 H 222.09 -0.0861365 -3.91705 0
M  V30 2381 H 223.787 -0.472029 -3.98212 0
M  V30 2382 H 220.377 -1.89887 -3.84241 0
M  V30 2383 H 224.561 -2.85528 -4.0594 0
M  V30 2384 H 219.817 -4.22086 -4.42327 0
M  V30 2385 H 223.991 -5.18098 -4.65346 0
M  V30 2386 H 221.618 -5.86877 -4.83197 0
M  V30 2387 N 223.193 1.4272 -0.668489 0
M  V30 2388 C 224.123 2.335 -0.000100175 0
M  V30 2389 C 225.104 1.50328 0.795964 0
M  V30 2390 O 226.289 1.78949 0.754385 0
M  V30 2391 C 223.419 3.33874 0.956302 0
M  V30 2392 C 222.373 4.27152 0.269278 0
M  V30 2393 C 221.699 5.17684 1.33818 0
M  V30 2394 C 222.999 5.15373 -0.847805 0
M  V30 2395 H 224.693 2.89639 -0.758244 0
M  V30 2396 H 222.239 1.39269 -0.366079 0
M  V30 2397 H 224.192 3.9629 1.43292 0
M  V30 2398 H 222.916 2.76025 1.74579 0
M  V30 2399 H 221.575 3.66123 -0.187042 0
M  V30 2400 H 221.223 4.56165 2.1195 0
M  V30 2401 H 220.923 5.80918 0.883659 0
M  V30 2402 H 222.447 5.82974 1.81586 0
M  V30 2403 H 223.861 5.7151 -0.452681 0
M  V30 2404 H 222.258 5.87407 -1.22773 0
M  V30 2405 H 223.328 4.5415 -1.69929 0
M  V30 2406 N 224.671 0.411399 1.52136 0
M  V30 2407 C 225.603 -0.448386 2.24771 0
M  V30 2408 C 226.616 -1.00828 1.27818 0
M  V30 2409 O 227.805 -0.906841 1.53749 0
M  V30 2410 C 224.905 -1.63636 2.96777 0
M  V30 2411 C 224.078 -1.19995 4.20618 0
M  V30 2412 C 223.137 -2.25509 4.75428 0
M  V30 2413 O 222.163 -1.86007 5.3795 0
M  V30 2414 N 223.365 -3.577 4.57199 0
M  V30 2415 H 226.13 0.174025 2.99194 0
M  V30 2416 H 223.691 0.238897 1.60128 0
M  V30 2417 H 225.683 -2.33793 3.30338 0
M  V30 2418 H 224.253 -2.16465 2.25526 0
M  V30 2419 H 223.473 -0.326421 3.92846 0
M  V30 2420 H 224.761 -0.885365 5.01038 0
M  V30 2421 H 224.159 -3.92543 4.07341 0
M  V30 2422 H 222.716 -4.23827 4.95191 0
M  V30 2423 N 226.149 -1.5696 0.141893 0
M  V30 2424 C 227.059 -2.20066 -0.812905 0
M  V30 2425 C 228.075 -1.18344 -1.27557 0
M  V30 2426 O 229.251 -1.50902 -1.33381 0
M  V30 2427 C 226.316 -2.80583 -2.03652 0
M  V30 2428 C 225.377 -3.97414 -1.62359 0
M  V30 2429 C 224.61 -4.55036 -2.78887 0
M  V30 2430 O 224.833 -4.11538 -3.94959 0
M  V30 2431 O 223.767 -5.45376 -2.54653 0
M  V30 2432 H 227.593 -3.02157 -0.305746 0
M  V30 2433 H 225.178 -1.49159 -0.0848799 0
M  V30 2434 H 227.06 -3.19067 -2.75272 0
M  V30 2435 H 225.735 -2.01508 -2.5333 0
M  V30 2436 H 224.642 -3.63656 -0.877775 0
M  V30 2437 H 225.975 -4.77994 -1.17401 0
M  V30 2438 N 227.627 0.131896 -1.57047 0
M  V30 2439 C 228.557 1.16384 -2.02428 0
M  V30 2440 C 229.538 1.43936 -0.90644 0
M  V30 2441 O 230.723 1.54599 -1.17528 0
M  V30 2442 C 227.853 2.49328 -2.4177 0
M  V30 2443 C 226.807 2.36266 -3.56879 0
M  V30 2444 C 226.133 3.74057 -3.8208 0
M  V30 2445 C 227.433 1.834 -4.89042 0
M  V30 2446 H 229.127 0.786433 -2.88887 0
M  V30 2447 H 226.673 0.376855 -1.38981 0
M  V30 2448 H 228.626 3.21759 -2.7212 0
M  V30 2449 H 227.35 2.88934 -1.52266 0
M  V30 2450 H 226.009 1.66286 -3.26718 0
M  V30 2451 H 225.657 4.11125 -2.89803 0
M  V30 2452 H 225.357 3.66174 -4.59554 0
M  V30 2453 H 226.881 4.48012 -4.1487 0
M  V30 2454 H 228.295 2.45636 -5.18011 0
M  V30 2455 H 226.692 1.8637 -5.70426 0
M  V30 2456 H 227.762 0.790662 -4.7841 0
M  V30 2457 N 229.106 1.52395 0.401703 0
M  V30 2458 C 230.069 1.75636 1.47257 0
M  V30 2459 C 231.069 0.62628 1.48103 0
M  V30 2460 O 232.259 0.894227 1.49497 0
M  V30 2461 C 229.391 1.84553 2.86624 0
M  V30 2462 H 230.584 2.71241 1.27938 0
M  V30 2463 H 228.137 1.42923 0.632662 0
M  V30 2464 H 228.872 0.908882 3.11303 0
M  V30 2465 H 228.657 2.66715 2.87412 0
M  V30 2466 H 230.147 2.04251 3.64241 0
M  V30 2467 N 230.584 -0.659388 1.43143 0
M  V30 2468 C 231.514 -1.78422 1.50625 0
M  V30 2469 C 232.495 -1.66216 0.361443 0
M  V30 2470 O 233.68 -1.85404 0.577834 0
M  V30 2471 C 230.81 -3.16815 1.42287 0
M  V30 2472 C 229.764 -3.43777 2.54954 0
M  V30 2473 C 229.09 -4.81905 2.31671 0
M  V30 2474 C 230.39 -3.39134 3.97222 0
M  V30 2475 H 232.084 -1.72417 2.44771 0
M  V30 2476 H 229.63 -0.828084 1.17808 0
M  V30 2477 H 231.583 -3.95253 1.46127 0
M  V30 2478 H 230.307 -3.23534 0.446435 0
M  V30 2479 H 228.966 -2.67707 2.50457 0
M  V30 2480 H 228.614 -4.85294 1.32284 0
M  V30 2481 H 228.314 -5.00906 3.07192 0
M  V30 2482 H 229.838 -5.62609 2.37284 0
M  V30 2483 H 231.252 -4.07518 4.03239 0
M  V30 2484 H 229.649 -3.69671 4.72719 0
M  V30 2485 H 230.719 -2.37426 4.22797 0
M  V30 2486 N 232.062 -1.29571 -0.897171 0
M  V30 2487 C 233.473 -1.15964 -1.46319 0
M  V30 2488 C 233.824 0.244267 -1.94674 0
M  V30 2489 O 232.949 1.13998 -1.83939 0
M  V30 2490 C 233.544 -2.09906 -2.65942 0
M  V30 2491 C 232.103 -2.00314 -3.18671 0
M  V30 2492 C 231.25 -2.00687 -1.91363 0
M  V30 2493 H 234.201 -1.42019 -0.708268 0
M  V30 2494 H 234.222 -1.67276 -3.41759 0
M  V30 2495 H 233.734 -3.12075 -2.30718 0
M  V30 2496 H 231.835 -1.01242 -3.58582 0
M  V30 2497 H 231.948 -2.88102 -3.82798 0
M  V30 2498 H 230.312 -1.45319 -2.09175 0
M  V30 2499 H 231.095 -3.04566 -1.58413 0
M  V30 2500 N 233.54 1.10788 -1.12088 0
M  V30 2501 C 234.956 1.34691 -0.856186 0
M  V30 2502 C 235.156 1.94791 0.515615 0
M  V30 2503 O 234.212 2.18524 1.26505 0
M  V30 2504 C 235.525 2.27208 -1.9697 0
M  V30 2505 C 237.073 2.40755 -2.00016 0
M  V30 2506 C 237.548 3.36598 -3.1059 0
M  V30 2507 N 239.039 3.44164 -3.10008 0
M  V30 2508 C 239.774 4.18284 -3.92206 0
M  V30 2509 N 239.27 4.95322 -4.84384 0
M  V30 2510 N 241.063 4.13865 -3.80357 0
M  V30 2511 H 233.214 0.70144 -2.00483 0
M  V30 2512 H 235.477 0.371405 -0.872217 0
M  V30 2513 H 235.183 1.90251 -2.958 0
M  V30 2514 H 235.057 3.27485 -1.87172 0
M  V30 2515 H 237.444 2.76982 -1.01808 0
M  V30 2516 H 237.525 1.40305 -2.13888 0
M  V30 2517 H 237.169 3.01096 -4.09028 0
M  V30 2518 H 237.099 4.36918 -2.93956 0
M  V30 2519 H 239.59 2.8922 -2.43228 0
M  V30 2520 H 239.903 5.49267 -5.43623 0
M  V30 2521 H 238.248 4.94459 -4.884 0
M  V30 2522 H 241.439 3.52773 -3.07683 0
M  V30 2523 H 241.612 4.71372 -4.44649 0
M  V30 2524 N 235.018 0.912232 1.28515 0
M  V30 2525 C 236.429 0.591352 1.77087 0
M  V30 2526 C 236.78 -0.8933 1.74684 0
M  V30 2527 O 235.905 -1.69876 1.34056 0
M  V30 2528 C 236.5 1.06668 3.2157 0
M  V30 2529 C 235.059 0.79675 3.67871 0
M  V30 2530 C 234.206 1.23427 2.48316 0
M  V30 2531 H 237.157 1.09365 1.15 0
M  V30 2532 H 237.178 0.407455 3.78312 0
M  V30 2533 H 236.69 2.14726 3.23287 0
M  V30 2534 H 234.791 -0.270679 3.71616 0
M  V30 2535 H 234.904 1.40343 4.58084 0
M  V30 2536 H 233.268 0.653036 2.46186 0
M  V30 2537 H 234.051 2.32316 2.52753 0
M  V30 2538 N 236.496 -1.42363 0.676048 0
M  V30 2539 C 237.743 -2.01522 0.19883 0
M  V30 2540 C 238.071 -1.53456 -1.19505 0
M  V30 2541 O 237.326 -0.727967 -1.81657 0
M  V30 2542 C 237.625 -3.56929 0.183431 0
M  V30 2543 C 237.291 -4.24431 1.52215 0
M  V30 2544 C 235.953 -4.42585 1.8887 0
M  V30 2545 C 238.305 -4.62459 2.40377 0
M  V30 2546 C 235.633 -4.96039 3.13309 0
M  V30 2547 C 237.985 -5.17294 3.64129 0
M  V30 2548 C 236.649 -5.33661 4.00951 0
M  V30 2549 H 235.919 -0.737419 0.0727571 0
M  V30 2550 H 238.566 -1.70531 0.871281 0
M  V30 2551 H 236.871 -3.87594 -0.572532 0
M  V30 2552 H 238.568 -4.00486 -0.203035 0
M  V30 2553 H 235.158 -4.10661 1.22701 0
M  V30 2554 H 239.342 -4.48105 2.13343 0
M  V30 2555 H 234.598 -5.06896 3.41857 0
M  V30 2556 H 238.772 -5.45704 4.32644 0
M  V30 2557 H 236.399 -5.74845 4.9745 0
M  V30 2558 N 237.974 -0.419461 -1.51915 0
M  V30 2559 C 239.39 -0.0708431 -1.59443 0
M  V30 2560 C 239.59 1.41796 -1.43164 0
M  V30 2561 O 238.646 2.18596 -1.26381 0
M  V30 2562 C 239.959 -0.574991 -2.95151 0
M  V30 2563 C 241.507 -0.533867 -3.08413 0
M  V30 2564 C 241.982 -1.01469 -4.46618 0
M  V30 2565 N 243.473 -0.971939 -4.52888 0
M  V30 2566 C 244.208 -1.31505 -5.58116 0
M  V30 2567 N 243.704 -1.73014 -6.70849 0
M  V30 2568 N 245.497 -1.23436 -5.48379 0
M  V30 2569 H 237.648 -1.38836 -1.60743 0
M  V30 2570 H 239.911 -0.570998 -0.756747 0
M  V30 2571 H 239.617 -1.61597 -3.12377 0
M  V30 2572 H 239.491 0.00979777 -3.77199 0
M  V30 2573 H 241.878 0.498086 -2.90866 0
M  V30 2574 H 241.959 -1.15484 -2.28248 0
M  V30 2575 H 241.603 -2.04502 -4.6491 0
M  V30 2576 H 241.533 -0.370433 -5.25295 0
M  V30 2577 H 244.024 -0.666893 -3.71969 0
M  V30 2578 H 244.337 -1.97479 -7.47143 0
M  V30 2579 H 242.682 -1.76926 -6.72103 0
M  V30 2580 H 245.873 -0.908869 -4.59192 0
M  V30 2581 H 246.046 -1.50506 -6.30279 0
M  V30 2582 N 239.452 1.56882 -0.150215 0
M  V30 2583 C 240.699 1.96228 0.500093 0
M  V30 2584 C 241.027 1.03522 1.64661 0
M  V30 2585 O 240.282 0.0650683 1.95592 0
M  V30 2586 C 240.581 3.41801 1.04437 0
M  V30 2587 C 240.247 4.50897 0.0159671 0
M  V30 2588 C 238.909 4.8046 -0.266731 0
M  V30 2589 C 241.261 5.16703 -0.683192 0
M  V30 2590 C 238.589 5.73135 -1.25434 0
M  V30 2591 C 240.941 6.10441 -1.65964 0
M  V30 2592 C 239.605 6.38382 -1.95 0
M  V30 2593 H 238.875 0.718048 0.182997 0
M  V30 2594 H 241.522 1.90019 -0.237724 0
M  V30 2595 H 239.827 3.44857 1.85959 0
M  V30 2596 H 241.524 3.69573 1.55618 0
M  V30 2597 H 238.114 4.27891 0.246485 0
M  V30 2598 H 242.298 4.93993 -0.477983 0
M  V30 2599 H 237.554 5.93074 -1.48571 0
M  V30 2600 H 241.728 6.60507 -2.20689 0
M  V30 2601 H 239.355 7.09996 -2.71679 0
M  V30 2602 N 240.93 -0.123565 1.57115 0
M  V30 2603 C 242.179 -0.830704 1.83799 0
M  V30 2604 C 242.492 -1.81259 0.735158 0
M  V30 2605 O 243.698 -2.56558 0.888278 0
M  V30 2606 C 242.154 -1.52802 3.25852 0
M  V30 2607 C 241.762 -0.587356 4.44133 0
M  V30 2608 C 243.506 -2.22056 3.61789 0
M  V30 2609 C 241.413 -1.28764 5.77212 0
M  V30 2610 H 240.343 -0.313967 0.685522 0
M  V30 2611 H 242.994 -0.0834359 1.8331 0
M  V30 2612 H 241.376 -2.32175 3.20797 0
M  V30 2613 H 242.55 0.172829 4.60476 0
M  V30 2614 H 240.865 -0.00201892 4.164 0
M  V30 2615 H 243.462 -2.75131 4.58483 0
M  V30 2616 H 243.805 -2.99644 2.88997 0
M  V30 2617 H 244.338 -1.49576 3.68608 0
M  V30 2618 H 241.077 -0.55314 6.53162 0
M  V30 2619 H 240.597 -2.01995 5.64764 0
M  V30 2620 H 242.276 -1.8221 6.20813 0
M  V30 2621 N 242.408 -1.52605 -0.393616 0
M  V30 2622 C 243.371 -1.76415 -1.46323 0
M  V30 2623 C 244.371 -0.634126 -1.47768 0
M  V30 2624 O 245.561 -0.902142 -1.4902 0
M  V30 2625 C 242.693 -1.8607 -2.85641 0
M  V30 2626 H 243.886 -2.71916 -1.26498 0
M  V30 2627 H 241.439 -1.43257 -0.625073 0
M  V30 2628 H 242.174 -0.925378 -3.10817 0
M  V30 2629 H 241.959 -2.68235 -2.85993 0
M  V30 2630 H 243.449 -2.06179 -3.63153 0
M  V30 2631 N 243.887 0.651787 -1.4349 0
M  V30 2632 C 245.298 1.233 -1.40193 0
M  V30 2633 C 245.649 1.9591 -0.106727 0
M  V30 2634 O 244.774 2.01316 0.793773 0
M  V30 2635 C 245.369 2.24257 -2.53957 0
M  V30 2636 C 243.928 2.77852 -2.5392 0
M  V30 2637 C 243.075 1.52517 -2.3159 0
M  V30 2638 H 246.026 0.443717 -1.52371 0
M  V30 2639 H 246.047 3.0646 -2.25528 0
M  V30 2640 H 245.559 1.71382 -3.4821 0
M  V30 2641 H 243.66 3.34786 -1.63551 0
M  V30 2642 H 243.773 3.25299 -3.51735 0
M  V30 2643 H 242.137 1.79915 -1.80285 0
M  V30 2644 H 242.92 1.01574 -3.27929 0
M  V30 2645 N 245.365 1.30045 0.890287 0
M  V30 2646 C 246.59 1.21598 1.68014 0
M  V30 2647 C 247.015 -0.218678 1.86825 0
M  V30 2648 O 246.373 -1.15756 1.39536 0
M  V30 2649 C 246.421 1.94434 3.03691 0
M  V30 2650 O 245.525 1.2678 3.92429 0
M  V30 2651 H 244.866 0.420856 0.513592 0
M  V30 2652 H 247.396 1.71775 1.11151 0
M  V30 2653 H 247.406 2.03251 3.5377 0
M  V30 2654 H 246.081 2.98777 2.89318 0
M  V30 2655 H 244.658 1.26282 3.50866 0
M  V30 2656 N 246.843 -1.10192 1.12674 0
M  V30 2657 C 247.775 -2.16418 0.754701 0
M  V30 2658 C 248.788 -1.61309 -0.21986 0
M  V30 2659 O 249.977 -1.785 -0.000826841 0
M  V30 2660 C 247.077 -3.38762 0.096698 0
M  V30 2661 C 246.25 -4.23307 1.10136 0
M  V30 2662 C 245.309 -5.24092 0.470513 0
M  V30 2663 O 244.335 -5.57906 1.12824 0
M  V30 2664 N 245.537 -5.75491 -0.760948 0
M  V30 2665 H 248.302 -2.48943 1.66875 0
M  V30 2666 H 245.863 -1.25834 1.01869 0
M  V30 2667 H 247.855 -4.03291 -0.337384 0
M  V30 2668 H 246.425 -3.04192 -0.720153 0
M  V30 2669 H 245.645 -3.55036 1.71299 0
M  V30 2670 H 246.933 -4.76624 1.78064 0
M  V30 2671 H 246.331 -5.50222 -1.31424 0
M  V30 2672 H 244.888 -6.41792 -1.13781 0
M  V30 2673 N 248.321 -0.919034 -1.28029 0
M  V30 2674 C 249.568 -0.554934 -1.94748 0
M  V30 2675 C 249.896 0.90231 -1.72304 0
M  V30 2676 O 249.151 1.65767 -1.04018 0
M  V30 2677 C 249.45 -0.816855 -3.4794 0
M  V30 2678 C 249.116 -2.25448 -3.90492 0
M  V30 2679 C 247.778 -2.64752 -4.01821 0
M  V30 2680 C 250.13 -3.18977 -4.12193 0
M  V30 2681 C 247.458 -3.96727 -4.32232 0
M  V30 2682 C 249.81 -4.50523 -4.44086 0
M  V30 2683 C 248.474 -4.89673 -4.53626 0
M  V30 2684 H 247.744 -0.203065 -0.712633 0
M  V30 2685 H 250.391 -1.16136 -1.52265 0
M  V30 2686 H 248.696 -0.127677 -3.91592 0
M  V30 2687 H 250.393 -0.514238 -3.97689 0
M  V30 2688 H 246.983 -1.93952 -3.82205 0
M  V30 2689 H 251.167 -2.89817 -4.02889 0
M  V30 2690 H 246.423 -4.26754 -4.37825 0
M  V30 2691 H 250.597 -5.23005 -4.59825 0
M  V30 2692 H 248.224 -5.91969 -4.76946 0
M  V30 2693 N 249.799 1.42003 -0.683588 0
M  V30 2694 C 250.746 2.30798 -0.0107309 0
M  V30 2695 C 251.716 1.4645 0.783688 0
M  V30 2696 O 252.901 1.75263 0.754156 0
M  V30 2697 C 250.041 3.3238 0.928306 0
M  V30 2698 C 249.154 4.31814 0.126776 0
M  V30 2699 C 248.289 5.20468 1.06236 0
M  V30 2700 C 247.328 6.11577 0.253035 0
M  V30 2701 N 246.465 6.92754 1.14179 0
M  V30 2702 H 251.305 2.8778 -0.773727 0
M  V30 2703 H 248.842 1.41745 -0.393283 0
M  V30 2704 H 250.8 3.89813 1.48666 0
M  V30 2705 H 249.43 2.76976 1.65783 0
M  V30 2706 H 248.482 3.76427 -0.54833 0
M  V30 2707 H 249.794 4.96276 -0.501192 0
M  V30 2708 H 248.948 5.82677 1.69035 0
M  V30 2709 H 247.687 4.56204 1.7242 0
M  V30 2710 H 246.692 5.48428 -0.388108 0
M  V30 2711 H 247.917 6.77892 -0.404839 0
M  V30 2712 H 245.863 6.3111 1.78987 0
M  V30 2713 H 245.78 7.53855 0.569111 0
M  V30 2714 H 247.048 7.59441 1.75697 0
M  V30 2715 N 251.277 0.427512 1.51691 0
M  V30 2716 C 252.225 -0.403359 2.29076 0
M  V30 2717 C 253.219 -1.02962 1.34518 0
M  V30 2718 O 254.425 -0.965715 1.51901 0
M  V30 2719 H 250.8 -0.148879 0.737115 0
M  V30 2720 H 252.771 0.270295 2.97173 0
M  V30 2721 C 251.52 -1.49763 3.13794 0
M  V30 2722 H 250.843 -1.02508 3.86435 0
M  V30 2723 H 252.283 -2.05244 3.71014 0
M  V30 2724 C 250.742 -2.47536 2.28533 0
M  V30 2725 O 251.272 -3.51848 1.93819 0
M  V30 2726 N 249.478 -2.18187 1.91945 0
M  V30 2727 H 249.025 -1.33389 2.20375 0
M  V30 2728 H 248.983 -2.83848 1.35195 0
M  V30 2729 N 252.755 -1.56801 0.158532 0
M  V30 2730 C 253.705 -2.13923 -0.788738 0
M  V30 2731 C 254.689 -1.07006 -1.2016 0
M  V30 2732 O 255.881 -1.33159 -1.1661 0
M  V30 2733 C 253.01 -2.77348 -2.02319 0
M  V30 2734 C 252.096 -3.91404 -1.6329 0
M  V30 2735 N 252.487 -4.9677 -0.951463 0
M  V30 2736 C 250.785 -4.02326 -1.92482 0
M  V30 2737 C 251.486 -5.76698 -0.761221 0
M  V30 2738 N 250.462 -5.27859 -1.29869 0
M  V30 2739 H 254.264 -2.92757 -0.258995 0
M  V30 2740 H 251.778 -1.62344 -0.0426055 0
M  V30 2741 H 253.775 -3.16639 -2.71192 0
M  V30 2742 H 252.435 -1.99991 -2.558 0
M  V30 2743 H 253.446 -5.14284 -0.610928 0
M  V30 2744 H 250.123 -3.36059 -2.47732 0
M  V30 2745 H 251.513 -6.71529 -0.223284 0
M  V30 2746 N 254.233 0.115231 -1.57178 0
M  V30 2747 C 255.143 1.15994 -2.03918 0
M  V30 2748 C 256.159 1.45103 -0.960268 0
M  V30 2749 O 257.335 1.56144 -1.27204 0
M  V30 2750 C 254.4 2.46568 -2.43732 0
M  V30 2751 C 253.461 2.24822 -3.65723 0
M  V30 2752 C 252.694 3.4917 -4.03629 0
M  V30 2753 O 252.917 4.56623 -3.41835 0
M  V30 2754 O 251.851 3.39949 -4.96708 0
M  V30 2755 H 255.677 0.793019 -2.93164 0
M  V30 2756 H 253.262 0.3263 -1.45793 0
M  V30 2757 H 255.144 3.23492 -2.70057 0
M  V30 2758 H 253.819 2.82726 -1.57631 0
M  V30 2759 H 252.726 1.45744 -3.44542 0
M  V30 2760 H 254.059 1.93566 -4.52541 0
M  V30 2761 N 255.711 1.52812 0.385517 0
M  V30 2762 C 256.939 1.71907 1.15133 0
M  V30 2763 C 257.354 0.439004 1.83625 0
M  V30 2764 O 256.711 -0.586765 1.7281 0
M  V30 2765 C 256.762 2.87099 2.19673 0
M  V30 2766 O 256.483 4.10151 1.53973 0
M  V30 2767 C 257.984 3.17902 3.08955 0
M  V30 2768 H 255.204 0.575479 0.345057 0
M  V30 2769 H 257.748 1.99476 0.45052 0
M  V30 2770 H 255.903 2.61982 2.85384 0
M  V30 2771 H 256.317 4.74514 2.23465 0
M  V30 2772 H 257.791 4.01959 3.7833 0
M  V30 2773 H 258.268 2.3243 3.72657 0
M  V30 2774 H 258.874 3.44871 2.48885 0
M  V30 2775 N 257.189 -0.644168 1.43834 0
M  V30 2776 C 258.122 -1.76906 1.44151 0
M  V30 2777 C 259.1 -1.59774 0.301857 0
M  V30 2778 O 260.284 -1.81834 0.496841 0
M  V30 2779 C 257.411 -3.14321 1.26174 0
M  V30 2780 C 256.457 -3.50134 2.43533 0
M  V30 2781 S 257.29 -3.49085 4.06079 0
M  V30 2782 C 258.446 -4.89142 3.90501 0
M  V30 2783 H 258.679 -1.76368 2.39336 0
M  V30 2784 H 256.212 -0.817624 1.30974 0
M  V30 2785 H 258.17 -3.93625 1.16489 0
M  V30 2786 H 256.831 -3.12412 0.325224 0
M  V30 2787 H 256.024 -4.50095 2.26783 0
M  V30 2788 H 255.626 -2.78264 2.4989 0
M  V30 2789 H 257.918 -5.78036 3.53385 0
M  V30 2790 H 258.861 -5.10945 4.90246 0
M  V30 2791 H 259.269 -4.63102 3.22795 0
M  V30 2792 N 258.668 -1.30515 -0.883378 0
M  V30 2793 C 259.616 -1.16941 -2.01066 0
M  V30 2794 C 260.61 -0.0809148 -1.69207 0
M  V30 2795 O 261.816 -0.241877 -1.78367 0
M  V30 2796 H 258.191 -0.361705 -0.659298 0
M  V30 2797 H 260.162 -2.12344 -2.09649 0
M  V30 2798 C 258.911 -0.879694 -3.36388 0
M  V30 2799 H 258.234 -1.70936 -3.61415 0
M  V30 2800 H 259.674 -0.82483 -4.159 0
M  V30 2801 C 258.133 0.417409 -3.34304 0
M  V30 2802 O 258.663 1.43843 -3.75063 0
M  V30 2803 N 256.869 0.429141 -2.87414 0
M  V30 2804 H 256.416 -0.402222 -2.5444 0
M  V30 2805 H 256.374 1.29696 -2.86403 0
M  V30 2806 N 260.146 1.09593 -1.13257 0
M  V30 2807 C 261.394 1.81375 -0.891492 0
M  V30 2808 C 261.715 1.86049 0.584009 0
M  V30 2809 O 260.985 1.34481 1.42449 0
M  V30 2810 H 259.565 0.671708 -0.326828 0
M  V30 2811 H 262.227 1.3256 -1.42877 0
M  V30 2812 H 261.323 2.84612 -1.28071 0
M  V30 2813 N 261.624 0.925811 1.2754 0
M  V30 2814 C 262.873 0.561084 1.93739 0
M  V30 2815 C 263.186 -0.901685 1.73577 0
M  V30 2816 O 264.392 -1.37511 2.34101 0
M  V30 2817 C 262.848 0.952668 3.47062 0
M  V30 2818 C 262.456 2.43599 3.75983 0
M  V30 2819 C 264.2 0.659103 4.19352 0
M  V30 2820 C 262.107 2.76707 5.22673 0
M  V30 2821 H 261.037 0.206122 0.725279 0
M  V30 2822 H 263.688 1.12637 1.44863 0
M  V30 2823 H 262.07 0.316053 3.94737 0
M  V30 2824 H 263.244 3.12035 3.39073 0
M  V30 2825 H 261.559 2.70125 3.16893 0
M  V30 2826 H 264.156 0.882985 5.27359 0
M  V30 2827 H 264.499 -0.403607 4.14339 0
M  V30 2828 H 265.032 1.25473 3.77494 0
M  V30 2829 H 261.771 3.8188 5.32774 0
M  V30 2830 H 261.291 2.12919 5.60737 0
M  V30 2831 H 262.97 2.6435 5.90532 0
M  V30 2832 N 263.102 -1.41638 0.69111 0
M  V30 2833 C 264.049 -2.30789 0.0229705 0
M  V30 2834 C 265.019 -1.46863 -0.775911 0
M  V30 2835 O 266.204 -1.75661 -0.74485 0
M  V30 2836 C 263.344 -3.32868 -0.910666 0
M  V30 2837 C 262.457 -4.31875 -0.103874 0
M  V30 2838 C 261.592 -5.21024 -1.03475 0
M  V30 2839 C 260.631 -6.11702 -0.220598 0
M  V30 2840 N 259.768 -6.93349 -1.10504 0
M  V30 2841 H 264.608 -2.87366 0.788978 0
M  V30 2842 H 262.145 -1.41535 0.400794 0
M  V30 2843 H 264.103 -3.90596 -1.46597 0
M  V30 2844 H 262.733 -2.77851 -1.64312 0
M  V30 2845 H 261.785 -3.76131 0.568285 0
M  V30 2846 H 263.097 -4.96003 0.527504 0
M  V30 2847 H 262.251 -5.83565 -1.65943 0
M  V30 2848 H 260.99 -4.57112 -1.69999 0
M  V30 2849 H 259.995 -5.48215 0.417187 0
M  V30 2850 H 261.22 -6.77668 0.440784 0
M  V30 2851 H 259.166 -6.3205 -1.75638 0
M  V30 2852 H 259.083 -7.54146 -0.529125 0
M  V30 2853 H 260.351 -7.60362 -1.71667 0
M  V30 2854 N 264.58 -0.43555 -1.51462 0
M  V30 2855 C 265.543 0.365137 -2.26273 0
M  V30 2856 C 266.543 0.951227 -1.29647 0
M  V30 2857 O 267.733 0.825958 -1.53374 0
M  V30 2858 C 264.865 1.51645 -3.05314 0
M  V30 2859 H 266.058 -0.290474 -2.9849 0
M  V30 2860 H 263.611 -0.188676 -1.55157 0
M  V30 2861 H 264.346 2.20816 -2.3751 0
M  V30 2862 H 264.131 1.10238 -3.76284 0
M  V30 2863 H 265.621 2.08218 -3.61987 0
M  V30 2864 N 266.058 1.56714 -0.166846 0
M  V30 2865 C 267.469 1.83378 0.350646 0
M  V30 2866 C 267.82 1.08646 1.63372 0
M  V30 2867 O 266.945 0.338058 2.13743 0
M  V30 2868 C 267.54 3.32643 0.642963 0
M  V30 2869 C 266.099 3.59818 1.10491 0
M  V30 2870 C 265.246 2.76954 0.138411 0
M  V30 2871 H 268.197 1.53803 -0.391193 0
M  V30 2872 H 268.218 3.49878 1.49551 0
M  V30 2873 H 267.73 3.87007 -0.291055 0
M  V30 2874 H 265.831 3.1086 2.05418 0
M  V30 2875 H 265.944 4.68178 1.01716 0
M  V30 2876 H 264.308 2.4666 0.634911 0
M  V30 2877 H 265.091 3.34097 -0.789549 0
M  V30 2878 N 267.536 -0.106894 1.57237 0
M  V30 2879 C 268.785 -0.811163 1.8467 0
M  V30 2880 C 269.098 -1.80469 0.754342 0
M  V30 2881 O 270.304 -2.55601 0.915439 0
M  V30 2882 C 268.76 -1.49337 3.27454 0
M  V30 2883 C 268.368 -0.540217 4.44731 0
M  V30 2884 C 270.112 -2.18206 3.64124 0
M  V30 2885 C 268.019 -1.22634 5.78545 0
M  V30 2886 H 266.949 -0.306679 0.688813 0
M  V30 2887 H 269.6 -0.0639887 1.83388 0
M  V30 2888 H 267.982 -2.2876 3.23241 0
M  V30 2889 H 269.156 0.221659 4.60267 0
M  V30 2890 H 267.471 0.042146 4.16379 0
M  V30 2891 H 270.068 -2.70253 4.61376 0
M  V30 2892 H 270.411 -2.96562 2.92158 0
M  V30 2893 H 270.944 -1.45658 3.70174 0
M  V30 2894 H 267.683 -0.483832 6.53712 0
M  V30 2895 H 267.203 -1.95993 5.66874 0
M  V30 2896 H 268.882 -1.75615 6.2271 0
M  V30 2897 N 269.014 -1.53014 -0.377408 0
M  V30 2898 C 270.262 -1.6829 -1.11906 0
M  V30 2899 C 270.583 -0.431206 -1.90173 0
M  V30 2900 O 269.853 0.554595 -1.87886 0
M  V30 2901 H 268.433 -0.620371 -0.416112 0
M  V30 2902 H 271.095 -1.90167 -0.426893 0
M  V30 2903 H 270.191 -2.53862 -1.8155 0
M  V30 2904 N 270.492 0.636531 -1.44174 0
M  V30 2905 C 271.72 1.42353 -1.50144 0
M  V30 2906 C 272.135 1.88389 -0.124575 0
M  V30 2907 O 271.492 1.6051 0.868489 0
M  V30 2908 C 271.543 2.64744 -2.46156 0
M  V30 2909 O 271.264 2.20629 -3.7849 0
M  V30 2910 C 272.765 3.57929 -2.61537 0
M  V30 2911 H 269.985 0.436752 -0.5094 0
M  V30 2912 H 272.529 0.778933 -1.89084 0
M  V30 2913 H 270.684 3.25307 -2.10366 0
M  V30 2914 H 271.098 2.99938 -4.30276 0
M  V30 2915 H 272.572 4.40428 -3.32757 0
M  V30 2916 H 273.049 4.06382 -1.66585 0
M  V30 2917 H 273.655 3.03238 -2.98206 0
M  V30 2918 N 271.97 1.30982 0.876444 0
M  V30 2919 C 273.218 1.20058 1.62575 0
M  V30 2920 C 273.539 -0.242947 1.93481 0
M  V30 2921 O 272.809 -1.1619 1.57724 0
M  V30 2922 H 271.389 0.44135 0.602677 0
M  V30 2923 H 274.051 1.64222 1.04962 0
M  V30 2924 H 273.147 1.76762 2.57219 0
M  V30 2925 N 273.449 -1.08991 1.13837 0
M  V30 2926 C 274.86 -1.62746 0.914917 0
M  V30 2927 C 275.211 -1.88403 -0.547594 0
M  V30 2928 O 274.336 -1.63706 -1.41525 0
M  V30 2929 C 274.931 -2.95662 1.65437 0
M  V30 2930 C 273.49 -3.46225 1.47666 0
M  V30 2931 C 272.637 -2.20562 1.6807 0
M  V30 2932 H 275.588 -0.922946 1.29102 0
M  V30 2933 H 275.609 -3.63825 1.11407 0
M  V30 2934 H 275.121 -2.76956 2.71877 0
M  V30 2935 H 273.222 -3.70046 0.435478 0
M  V30 2936 H 273.335 -4.23368 2.24268 0
M  V30 2937 H 271.699 -2.29439 1.10589 0
M  V30 2938 H 272.482 -2.0437 2.7584 0
M  V30 2939 N 274.927 -0.932562 -1.27047 0
M  V30 2940 C 276.173 -0.585913 -1.94778 0
M  V30 2941 C 276.528 0.864142 -1.71902 0
M  V30 2942 O 275.821 1.60894 -1.04037 0
M  V30 2943 C 276.015 -0.853713 -3.47054 0
M  V30 2944 C 275.844 -2.32825 -3.84737 0
M  V30 2945 C 274.614 -2.98184 -4.07939 0
M  V30 2946 C 276.812 -3.30612 -3.93954 0
M  V30 2947 N 274.794 -4.3574 -4.3244 0
M  V30 2948 C 276.165 -4.53395 -4.22887 0
M  V30 2949 C 278.22 -3.25755 -3.76548 0
M  V30 2950 C 276.923 -5.71927 -4.36224 0
M  V30 2951 C 278.949 -4.43604 -3.91113 0
M  V30 2952 C 278.311 -5.65166 -4.20437 0
M  V30 2953 H 274.41 -0.264617 -0.735868 0
M  V30 2954 H 276.994 -1.20019 -1.53309 0
M  V30 2955 H 275.165 -0.268557 -3.8747 0
M  V30 2956 H 276.897 -0.469202 -4.01971 0
M  V30 2957 H 273.652 -2.48835 -4.02961 0
M  V30 2958 H 274.076 -5.06915 -4.48738 0
M  V30 2959 H 278.718 -2.32835 -3.52913 0
M  V30 2960 H 276.436 -6.65308 -4.58683 0
M  V30 2961 H 280.022 -4.41368 -3.79059 0
M  V30 2962 H 278.902 -6.54836 -4.31462 0
M  V30 2963 N 276.405 1.4127 -0.698611 0
M  V30 2964 C 277.654 2.00408 -0.227949 0
M  V30 2965 C 277.967 1.55981 1.18023 0
M  V30 2966 O 279.173 2.07699 1.74852 0
M  V30 2967 C 277.629 3.58129 -0.356636 0
M  V30 2968 C 277.237 4.11536 -1.77037 0
M  V30 2969 C 278.981 4.24466 0.0540969 0
M  V30 2970 C 276.888 5.61701 -1.85055 0
M  V30 2971 H 275.818 0.749586 -0.0814657 0
M  V30 2972 H 278.469 1.61713 -0.867249 0
M  V30 2973 H 276.851 3.94442 0.350965 0
M  V30 2974 H 278.025 3.86636 -2.50698 0
M  V30 2975 H 276.34 3.57736 -2.13105 0
M  V30 2976 H 278.937 5.34698 0.0146723 0
M  V30 2977 H 279.28 4.01687 1.09332 0
M  V30 2978 H 279.813 3.93198 -0.603337 0
M  V30 2979 H 276.552 5.89312 -2.8704 0
M  V30 2980 H 276.072 5.88519 -1.15783 0
M  V30 2981 H 277.751 6.26524 -1.61484 0
M  V30 2982 N 277.883 0.443576 1.51229 0
M  V30 2983 C 278.813 -0.355142 2.30783 0
M  V30 2984 C 279.794 -1.0154 1.36468 0
M  V30 2985 O 280.979 -1.01785 1.65389 0
M  V30 2986 C 278.109 -1.45312 3.15439 0
M  V30 2987 C 277.063 -0.916002 4.18083 0
M  V30 2988 C 276.389 -2.1102 4.91299 0
M  V30 2989 C 277.689 0.0538602 5.22272 0
M  V30 2990 H 279.383 0.308767 2.97804 0
M  V30 2991 H 276.929 0.149937 1.43217 0
M  V30 2992 H 278.882 -2.01914 3.69876 0
M  V30 2993 H 277.606 -2.14541 2.46252 0
M  V30 2994 H 276.265 -0.372145 3.64706 0
M  V30 2995 H 275.913 -2.78882 4.18609 0
M  V30 2996 H 275.613 -1.75717 5.60712 0
M  V30 2997 H 277.137 -2.68164 5.48562 0
M  V30 2998 H 278.551 -0.422069 5.71744 0
M  V30 2999 H 276.948 0.319776 5.99247 0
M  V30 3000 H 278.018 0.98858 4.74716 0
M  V30 3001 N 279.361 -1.56624 0.175154 0
M  V30 3002 C 280.293 -2.15333 -0.785128 0
M  V30 3003 C 281.306 -1.1099 -1.19101 0
M  V30 3004 O 282.495 -1.38162 -1.13019 0
M  V30 3005 C 279.595 -2.68427 -2.06882 0
M  V30 3006 C 278.768 -3.97466 -1.8259 0
M  V30 3007 C 277.827 -4.35585 -2.95215 0
M  V30 3008 O 276.853 -5.03389 -2.65684 0
M  V30 3009 N 278.055 -3.97457 -4.23094 0
M  V30 3010 H 280.82 -2.98359 -0.283187 0
M  V30 3011 H 278.381 -1.61898 -0.00749817 0
M  V30 3012 H 280.373 -2.90924 -2.81328 0
M  V30 3013 H 278.943 -1.89968 -2.48256 0
M  V30 3014 H 278.163 -3.83307 -0.920287 0
M  V30 3015 H 279.451 -4.81736 -1.63733 0
M  V30 3016 H 278.849 -3.42878 -4.49945 0
M  V30 3017 H 277.406 -4.24947 -4.9423 0
M  V30 3018 N 280.839 0.0985539 -1.57292 0
M  V30 3019 C 281.749 1.13824 -2.05137 0
M  V30 3020 C 282.765 1.44076 -0.975604 0
M  V30 3021 O 283.941 1.54786 -1.28853 0
M  V30 3022 C 281.006 2.43969 -2.46333 0
M  V30 3023 C 280.067 2.2093 -3.68087 0
M  V30 3024 C 279.3 3.44869 -4.0731 0
M  V30 3025 O 279.523 4.52972 -3.46659 0
M  V30 3026 O 278.457 3.34661 -5.00285 0
M  V30 3027 H 282.283 0.761881 -2.93988 0
M  V30 3028 H 279.868 0.310818 -1.46131 0
M  V30 3029 H 281.75 3.20609 -2.73473 0
M  V30 3030 H 280.425 2.81038 -1.60621 0
M  V30 3031 H 279.332 1.42081 -3.46069 0
M  V30 3032 H 280.665 1.88755 -4.54568 0
M  V30 3033 N 282.317 1.53212 0.369288 0
M  V30 3034 C 283.542 1.73423 1.1375 0
M  V30 3035 C 283.967 0.460404 1.82378 0
M  V30 3036 O 283.325 -0.585298 1.71592 0
M  V30 3037 C 283.373 2.89769 2.1463 0
M  V30 3038 O 282.477 2.58119 3.21634 0
M  V30 3039 H 281.818 0.576061 0.330227 0
M  V30 3040 H 284.348 2.00083 0.427547 0
M  V30 3041 H 284.358 3.15829 2.58294 0
M  V30 3042 H 283.033 3.8217 1.64071 0
M  V30 3043 H 281.61 2.42864 2.82969 0
M  V30 3044 N 283.795 -0.628877 1.44509 0
M  V30 3045 C 284.742 -1.74074 1.51549 0
M  V30 3046 C 285.712 -1.62084 0.363021 0
M  V30 3047 O 286.897 -1.81975 0.573567 0
M  V30 3048 C 284.037 -3.12328 1.46784 0
M  V30 3049 C 283.15 -3.35277 2.72422 0
M  V30 3050 C 282.285 -4.63515 2.59475 0
M  V30 3051 C 281.324 -4.7965 3.80266 0
M  V30 3052 N 280.461 -5.99168 3.65981 0
M  V30 3053 H 285.301 -1.67392 2.46544 0
M  V30 3054 H 282.838 -0.816527 1.22357 0
M  V30 3055 H 284.796 -3.92286 1.42012 0
M  V30 3056 H 283.426 -3.18018 0.553544 0
M  V30 3057 H 282.478 -2.49242 2.87372 0
M  V30 3058 H 283.79 -3.43078 3.62076 0
M  V30 3059 H 282.944 -5.51638 2.52548 0
M  V30 3060 H 281.683 -4.58076 1.67384 0
M  V30 3061 H 280.688 -3.89957 3.87574 0
M  V30 3062 H 281.913 -4.86902 4.73395 0
M  V30 3063 H 279.859 -5.94814 2.76644 0
M  V30 3064 H 279.776 -6.08035 4.49254 0
M  V30 3065 H 281.044 -6.89846 3.6295 0
M  V30 3066 N 285.273 -1.31445 -0.869486 0
M  V30 3067 C 286.203 -1.21727 -1.99261 0
M  V30 3068 C 287.184 -0.104359 -1.6978 0
M  V30 3069 O 288.369 -0.289038 -1.92037 0
M  V30 3070 C 285.499 -0.924317 -3.34774 0
M  V30 3071 C 284.453 -1.99685 -3.78563 0
M  V30 3072 C 283.779 -1.55658 -5.11541 0
M  V30 3073 C 285.079 -3.41003 -3.95619 0
M  V30 3074 H 286.773 -2.1569 -2.07649 0
M  V30 3075 H 284.319 -1.03839 -0.997675 0
M  V30 3076 H 286.272 -0.842934 -4.12883 0
M  V30 3077 H 284.996 0.0509793 -3.2656 0
M  V30 3078 H 283.655 -2.06813 -3.02694 0
M  V30 3079 H 283.303 -0.569132 -4.9977 0
M  V30 3080 H 283.003 -2.27409 -5.41811 0
M  V30 3081 H 284.527 -1.48928 -5.92159 0
M  V30 3082 H 285.941 -3.36547 -4.64122 0
M  V30 3083 H 284.338 -4.10975 -4.37286 0
M  V30 3084 H 285.408 -3.81754 -2.98985 0
M  V30 3085 N 286.751 1.08385 -1.14413 0
M  V30 3086 C 287.699 2.17406 -0.826888 0
M  V30 3087 C 288.693 1.6827 0.195312 0
M  V30 3088 O 289.899 1.79927 0.0513892 0
M  V30 3089 H 286.274 0.70934 -0.249681 0
M  V30 3090 H 288.245 2.41388 -1.75426 0
M  V30 3091 C 286.994 3.46215 -0.320979 0
M  V30 3092 H 286.317 3.84401 -1.0989 0
M  V30 3093 H 287.757 4.23777 -0.137549 0
M  V30 3094 C 286.216 3.23067 0.955472 0
M  V30 3095 O 286.746 3.4668 2.02918 0
M  V30 3096 N 284.952 2.7661 0.890798 0
M  V30 3097 H 284.499 2.57594 0.0168815 0
M  V30 3098 H 284.457 2.61501 1.74542 0
M  V30 3099 N 288.23 0.939286 1.26551 0
M  V30 3100 C 289.162 0.404704 2.25599 0
M  V30 3101 C 290.175 -0.470983 1.55838 0
M  V30 3102 O 291.364 -0.281734 1.76263 0
M  V30 3103 C 288.464 -0.43764 3.36062 0
M  V30 3104 C 287.637 0.421449 4.35365 0
M  V30 3105 C 286.696 -0.36015 5.24966 0
M  V30 3106 O 285.722 0.236167 5.6871 0
M  V30 3107 N 286.924 -1.65715 5.56344 0
M  V30 3108 H 289.689 1.25618 2.72103 0
M  V30 3109 H 287.25 0.807963 1.40298 0
M  V30 3110 H 289.242 -0.967866 3.92956 0
M  V30 3111 H 287.812 -1.18991 2.89067 0
M  V30 3112 H 287.032 1.1329 3.7757 0
M  V30 3113 H 288.32 1.00835 4.98708 0
M  V30 3114 H 287.718 -2.16378 5.22682 0
M  V30 3115 H 286.275 -2.13366 6.15888 0
M  V30 3116 N 289.708 -1.40897 0.706093 0
M  V30 3117 C 290.938 -2.05075 0.250523 0
M  V30 3118 C 291.346 -1.53275 -1.10921 0
M  V30 3119 O 290.689 -0.680281 -1.7064 0
M  V30 3120 C 290.751 -3.59219 0.142178 0
M  V30 3121 C 290.415 -4.33864 1.43566 0
M  V30 3122 C 291.412 -4.62448 2.37566 0
M  V30 3123 C 289.097 -4.72946 1.69195 0
M  V30 3124 C 291.091 -5.29088 3.5545 0
M  V30 3125 C 288.778 -5.3932 2.87362 0
M  V30 3126 C 289.776 -5.6732 3.80312 0
M  V30 3127 O 289.464 -6.32325 4.96408 0
M  V30 3128 H 289.196 -0.666645 0.112074 0
M  V30 3129 H 291.75 -1.81467 0.962239 0
M  V30 3130 H 289.98 -3.81609 -0.6254 0
M  V30 3131 H 291.669 -4.0495 -0.277584 0
M  V30 3132 H 292.435 -4.32727 2.19027 0
M  V30 3133 H 288.314 -4.50527 0.977042 0
M  V30 3134 H 291.858 -5.50859 4.28018 0
M  V30 3135 H 287.755 -5.68461 3.05814 0
M  V30 3136 H 288.523 -6.50821 4.9636 0
M  V30 3137 N 291.186 -0.45159 -1.50991 0
M  V30 3138 C 292.463 0.170707 -1.94854 0
M  V30 3139 C 292.843 1.58788 -1.39103 0
M  V30 3140 O 292.191 2.20913 -0.583921 0
M  V30 3141 C 292.401 0.133929 -3.48743 0
M  V30 3142 C 293.749 0.33248 -4.23296 0
M  V30 3143 O 294.773 0.211403 -3.55572 0
M  V30 3144 O 293.632 0.57486 -5.43468 0
M  V30 3145 H 290.726 0.122264 -0.817912 0
M  V30 3146 H 293.272 -0.510594 -1.61836 0
M  V30 3147 H 292.044 -0.856283 -3.81816 0
M  V30 3148 H 291.667 0.857529 -3.88242 0
M  V30 3149 N 292.664 1.56529 -0.183458 0
M  V30 3150 C 293.91 1.97537 0.459036 0
M  V30 3151 C 294.243 1.06989 1.62071 0
M  V30 3152 O 293.518 0.11948 1.94133 0
M  V30 3153 C 293.801 3.47874 0.930368 0
M  V30 3154 C 293.654 4.492 -0.232317 0
M  V30 3155 C 294.973 4.01612 1.79989 0
M  V30 3156 H 292.092 0.718204 0.165383 0
M  V30 3157 H 294.734 1.88042 -0.272038 0
M  V30 3158 H 292.884 3.56095 1.55333 0
M  V30 3159 H 294.556 4.53027 -0.86972 0
M  V30 3160 H 292.799 4.24657 -0.885928 0
M  V30 3161 H 293.47 5.51823 0.139796 0
M  V30 3162 H 295.946 3.96097 1.27461 0
M  V30 3163 H 294.822 5.07195 2.09867 0
M  V30 3164 H 295.083 3.46163 2.74998 0
M  V30 3165 N 294.142 -0.090211 1.57342 0
M  V30 3166 C 295.389 -0.792807 1.86335 0
M  V30 3167 C 295.717 -1.78494 0.772662 0
M  V30 3168 O 294.972 -1.94305 -0.233258 0
M  V30 3169 C 295.271 -1.55222 3.21933 0
M  V30 3170 C 294.937 -0.701765 4.45406 0
M  V30 3171 C 293.599 -0.467334 4.78925 0
M  V30 3172 C 295.951 -0.11086 5.21082 0
M  V30 3173 C 293.279 0.367785 5.85546 0
M  V30 3174 C 295.631 0.711609 6.28585 0
M  V30 3175 C 294.295 0.956086 6.60617 0
M  V30 3176 H 293.565 -0.290109 0.681849 0
M  V30 3177 H 296.212 -0.0541332 1.91423 0
M  V30 3178 H 294.517 -2.3626 3.12551 0
M  V30 3179 H 296.214 -2.10032 3.41595 0
M  V30 3180 H 292.804 -0.894598 4.1916 0
M  V30 3181 H 296.988 -0.279129 4.95514 0
M  V30 3182 H 292.244 0.566128 6.08773 0
M  V30 3183 H 296.418 1.17632 6.86393 0
M  V30 3184 H 294.045 1.60499 7.43064 0
M  V30 3185 N 295.62 -1.53406 -0.361157 0
M  V30 3186 C 296.866 -1.70054 -1.10496 0
M  V30 3187 C 297.199 -0.453278 -1.88836 0
M  V30 3188 O 296.474 0.5495 -1.86576 0
M  V30 3189 C 296.757 -2.95317 -2.06058 0
M  V30 3190 C 296.61 -4.3021 -1.31298 0
M  V30 3191 C 297.929 -3.16193 -3.06121 0
M  V30 3192 H 295.048 -0.618799 -0.400321 0
M  V30 3193 H 297.69 -1.86052 -0.385318 0
M  V30 3194 H 295.84 -2.81809 -2.67425 0
M  V30 3195 H 297.512 -4.55538 -0.726807 0
M  V30 3196 H 295.755 -4.29421 -0.614853 0
M  V30 3197 H 296.426 -5.14 -2.01265 0
M  V30 3198 H 298.902 -3.28916 -2.5486 0
M  V30 3199 H 297.778 -4.05266 -3.70204 0
M  V30 3200 H 298.039 -2.31676 -3.76535 0
M  V30 3201 N 297.098 0.621204 -1.44841 0
M  V30 3202 C 298.514 0.94048 -1.28946 0
M  V30 3203 C 298.714 2.00154 -0.23249 0
M  V30 3204 O 297.77 2.49651 0.378237 0
M  V30 3205 C 299.083 1.39433 -2.66419 0
M  V30 3206 C 300.631 1.50927 -2.74208 0
M  V30 3207 C 301.106 1.99692 -4.12174 0
M  V30 3208 N 302.597 2.06947 -4.144 0
M  V30 3209 C 303.332 2.45871 -5.1801 0
M  V30 3210 N 302.828 2.83862 -6.31977 0
M  V30 3211 N 304.621 2.46092 -5.05366 0
M  V30 3212 H 296.772 -0.0803548 -2.12248 0
M  V30 3213 H 299.035 0.0266913 -0.947624 0
M  V30 3214 H 298.741 0.688925 -3.44887 0
M  V30 3215 H 298.615 2.36347 -2.93973 0
M  V30 3216 H 301.002 2.20561 -1.96053 0
M  V30 3217 H 301.083 0.523627 -2.50383 0
M  V30 3218 H 300.727 1.30649 -4.90809 0
M  V30 3219 H 300.657 2.99146 -4.33381 0
M  V30 3220 H 303.148 1.80232 -3.32152 0
M  V30 3221 H 303.461 3.12405 -7.0684 0
M  V30 3222 H 301.806 2.8159 -6.35399 0
M  V30 3223 H 304.997 2.1581 -4.15384 0
M  V30 3224 H 305.17 2.76102 -5.86235 0
M  V30 3225 N 298.576 1.31904 0.862503 0
M  V30 3226 C 299.524 1.20125 1.9918 0
M  V30 3227 C 300.518 0.107824 1.69056 0
M  V30 3228 O 301.724 0.270223 1.7796 0
M  V30 3229 H 298.099 0.372148 0.65346 0
M  V30 3230 H 300.07 2.15652 2.06244 0
M  V30 3231 C 298.819 0.933099 3.34946 0
M  V30 3232 H 298.142 1.76664 3.5865 0
M  V30 3233 H 299.582 0.890892 4.14535 0
M  V30 3234 C 298.041 -0.364172 3.34926 0
M  V30 3235 O 298.571 -1.37858 3.77304 0
M  V30 3236 N 296.777 -0.383362 2.8806 0
M  V30 3237 H 296.324 0.442651 2.53768 0
M  V30 3238 H 296.282 -1.25123 2.8843 0
M  V30 3239 N 300.054 -1.07777 1.14986 0
M  V30 3240 C 300.964 -2.18404 0.856546 0
M  V30 3241 C 301.98 -1.73211 -0.165485 0
M  V30 3242 O 303.156 -2.01399 0.00755219 0
M  V30 3243 C 300.221 -3.44977 0.34526 0
M  V30 3244 C 299.282 -4.0476 1.43065 0
M  V30 3245 C 298.515 -5.25291 0.943663 0
M  V30 3246 O 298.738 -5.70004 -0.212426 0
M  V30 3247 O 297.672 -5.76638 1.72547 0
M  V30 3248 H 301.498 -2.45978 1.78125 0
M  V30 3249 H 299.083 -1.17033 0.928631 0
M  V30 3250 H 300.965 -4.21348 0.0663671 0
M  V30 3251 H 299.64 -3.18965 -0.551631 0
M  V30 3252 H 298.547 -3.29949 1.76309 0
M  V30 3253 H 299.88 -4.35035 2.30229 0
M  V30 3254 N 301.532 -0.945985 -1.26051 0
M  V30 3255 C 302.48 -0.450259 -2.282 0
M  V30 3256 C 303.474 0.47497 -1.62605 0
M  V30 3257 O 304.68 0.352653 -1.76512 0
M  V30 3258 H 301.055 -0.127081 -0.741184 0
M  V30 3259 H 303.026 -1.32422 -2.67408 0
M  V30 3260 C 301.775 0.26467 -3.46691 0
M  V30 3261 H 301.098 -0.438123 -3.97392 0
M  V30 3262 H 302.538 0.575678 -4.20074 0
M  V30 3263 C 300.997 1.48416 -3.02447 0
M  V30 3264 O 301.527 2.58227 -3.07704 0
M  V30 3265 N 299.733 1.34243 -2.57735 0
M  V30 3266 H 299.28 0.448994 -2.53657 0
M  V30 3267 H 299.238 2.15957 -2.28495 0
M  V30 3268 N 303.011 1.40521 -0.713556 0
M  V30 3269 C 304.241 2.0494 -0.261395 0
M  V30 3270 C 304.649 1.53861 1.10107 0
M  V30 3271 O 303.992 0.689321 1.70276 0
M  V30 3272 C 304.054 3.59138 -0.161227 0
M  V30 3273 C 303.718 4.33096 -1.45865 0
M  V30 3274 C 304.715 4.61182 -2.40016 0
M  V30 3275 C 302.4 4.72043 -1.71701 0
M  V30 3276 C 304.394 5.27196 -3.58251 0
M  V30 3277 C 302.081 5.37789 -2.90218 0
M  V30 3278 C 303.079 5.65295 -3.83315 0
M  V30 3279 O 302.767 6.29683 -4.99754 0
M  V30 3280 H 302.499 0.666041 -0.115608 0
M  V30 3281 H 305.053 1.80954 -0.971849 0
M  V30 3282 H 303.283 3.81936 0.605153 0
M  V30 3283 H 304.972 4.05091 0.256105 0
M  V30 3284 H 305.738 4.31559 -2.21318 0
M  V30 3285 H 301.617 4.50003 -1.00092 0
M  V30 3286 H 305.161 5.48582 -4.30934 0
M  V30 3287 H 301.058 5.66831 -3.08825 0
M  V30 3288 H 301.826 6.4818 -4.99805 0
M  V30 3289 N 304.489 0.459591 1.5075 0
M  V30 3290 C 305.735 -0.091664 2.03193 0
M  V30 3291 C 306.09 -1.38432 1.3362 0
M  V30 3292 O 305.383 -1.86257 0.449322 0
M  V30 3293 C 305.577 -0.342866 3.55752 0
M  V30 3294 C 305.406 0.923888 4.40107 0
M  V30 3295 C 304.176 1.46388 4.83631 0
M  V30 3296 C 306.374 1.81617 4.81165 0
M  V30 3297 N 304.356 2.68086 5.52271 0
M  V30 3298 C 305.727 2.87907 5.49099 0
M  V30 3299 C 307.782 1.82793 4.63132 0
M  V30 3300 C 306.485 3.95347 6.0091 0
M  V30 3301 C 308.511 2.89182 5.15876 0
M  V30 3302 C 307.873 3.94191 5.83774 0
M  V30 3303 H 303.972 0.00619247 0.781975 0
M  V30 3304 H 306.556 0.625233 1.84388 0
M  V30 3305 H 304.727 -1.0288 3.74527 0
M  V30 3306 H 306.459 -0.887445 3.9485 0
M  V30 3307 H 303.214 1.01466 4.62603 0
M  V30 3308 H 303.638 3.29857 5.91205 0
M  V30 3309 H 308.28 1.0293 4.1008 0
M  V30 3310 H 305.998 4.76035 6.53006 0
M  V30 3311 H 309.584 2.91061 5.0376 0
M  V30 3312 H 308.464 4.75161 6.23853 0
M  V30 3313 N 305.967 -1.56429 0.191757 0
M  V30 3314 C 307.215 -1.97095 -0.447006 0
M  V30 3315 C 307.536 -1.07967 -1.62383 0
M  V30 3316 O 306.806 -0.150248 -1.95323 0
M  V30 3317 H 305.386 -0.727832 -0.168135 0
M  V30 3318 H 308.048 -1.92911 0.27771 0
M  V30 3319 H 307.144 -3.01848 -0.793371 0
M  V30 3320 N 307.445 0.0818655 -1.57387 0
M  V30 3321 C 308.355 1.11642 -2.06333 0
M  V30 3322 C 309.371 1.43033 -0.99083 0
M  V30 3323 O 310.547 1.53411 -1.30488 0
M  V30 3324 C 307.612 2.41342 -2.48907 0
M  V30 3325 C 306.673 2.17014 -3.7041 0
M  V30 3326 C 305.906 3.4053 -4.10944 0
M  V30 3327 O 306.129 4.4927 -3.51444 0
M  V30 3328 O 305.063 3.29336 -5.03807 0
M  V30 3329 H 308.889 0.730657 -2.9478 0
M  V30 3330 H 306.474 0.295301 -1.46452 0
M  V30 3331 H 308.356 3.17691 -2.76858 0
M  V30 3332 H 307.031 2.79319 -1.63593 0
M  V30 3333 H 305.938 1.38403 -3.47556 0
M  V30 3334 H 307.271 1.83923 -4.56545 0
M  V30 3335 N 308.923 1.53595 0.353017 0
M  V30 3336 C 309.87 1.80919 1.43308 0
M  V30 3337 C 310.84 0.654288 1.5267 0
M  V30 3338 O 312.025 0.897759 1.6836 0
M  V30 3339 C 309.165 2.01605 2.80089 0
M  V30 3340 C 308.278 3.29321 2.79593 0
M  V30 3341 C 307.413 3.40125 4.0803 0
M  V30 3342 C 306.452 4.61826 4.01725 0
M  V30 3343 N 305.589 4.69716 5.21834 0
M  V30 3344 H 310.429 2.73074 1.19308 0
M  V30 3345 H 307.966 1.35263 0.578131 0
M  V30 3346 H 309.924 2.11586 3.59565 0
M  V30 3347 H 308.554 1.12772 3.0246 0
M  V30 3348 H 307.606 3.28229 1.92276 0
M  V30 3349 H 308.918 4.18884 2.70809 0
M  V30 3350 H 308.072 3.49488 4.95927 0
M  V30 3351 H 306.811 2.48601 4.19582 0
M  V30 3352 H 305.816 4.52552 3.12213 0
M  V30 3353 H 307.041 5.54705 3.91764 0
M  V30 3354 H 304.987 3.81097 5.33948 0
M  V30 3355 H 304.904 5.53202 5.1527 0
M  V30 3356 H 306.172 4.83376 6.11529 0
M  V30 3357 N 310.401 -0.613514 1.45168 0
M  V30 3358 C 311.812 -1.19539 1.43413 0
M  V30 3359 C 312.163 -1.95558 0.158632 0
M  V30 3360 O 311.288 -2.0335 -0.740119 0
M  V30 3361 C 311.883 -2.17445 2.59813 0
M  V30 3362 C 310.442 -2.71022 2.61197 0
M  V30 3363 C 309.589 -1.46323 2.35552 0
M  V30 3364 H 312.54 -0.403163 1.53494 0
M  V30 3365 H 312.561 -3.00373 2.33574 0
M  V30 3366 H 312.073 -1.62089 3.52631 0
M  V30 3367 H 310.174 -3.30332 1.7237 0
M  V30 3368 H 310.287 -3.15859 3.60236 0
M  V30 3369 H 308.651 -1.75072 1.84992 0
M  V30 3370 H 309.434 -0.92844 3.30507 0
M  V30 3371 N 311.879 -1.3236 -0.855495 0
M  V30 3372 C 312.842 -1.21164 -1.94556 0
M  V30 3373 C 313.842 -0.134908 -1.60233 0
M  V30 3374 O 315.032 -0.385249 -1.69887 0
M  V30 3375 C 312.164 -0.863192 -3.29791 0
M  V30 3376 H 313.357 -2.18038 -2.05911 0
M  V30 3377 H 310.91 -1.16179 -1.04557 0
M  V30 3378 H 311.645 0.103769 -3.24134 0
M  V30 3379 H 311.43 -1.64166 -3.56078 0
M  V30 3380 H 312.92 -0.809156 -4.09686 0
M  V30 3381 N 313.357 1.07166 -1.15556 0
M  V30 3382 C 314.606 1.79181 -0.926132 0
M  V30 3383 C 314.919 1.87768 0.547967 0
M  V30 3384 O 316.125 2.56323 0.895036 0
M  V30 3385 C 314.581 3.22 -1.60761 0
M  V30 3386 C 314.189 3.21607 -3.11886 0
M  V30 3387 C 315.933 3.9861 -1.4598 0
M  V30 3388 C 313.84 4.59092 -3.72812 0
M  V30 3389 H 312.77 0.67154 -0.342856 0
M  V30 3390 H 315.421 1.2027 -1.3859 0
M  V30 3391 H 313.803 3.81115 -1.07553 0
M  V30 3392 H 314.977 2.72127 -3.71865 0
M  V30 3393 H 313.292 2.58495 -3.2645 0
M  V30 3394 H 315.889 5.00225 -1.88888 0
M  V30 3395 H 316.232 4.143 -0.407541 0
M  V30 3396 H 316.765 3.45996 -1.96295 0
M  V30 3397 H 313.504 4.48606 -4.77946 0
M  V30 3398 H 313.024 5.08803 -3.17616 0
M  V30 3399 H 314.703 5.28059 -3.73848 0
M  V30 3400 N 314.835 0.952656 1.25548 0
M  V30 3401 C 315.782 0.47008 2.25962 0
M  V30 3402 C 316.752 -0.476384 1.59122 0
M  V30 3403 O 317.937 -0.39007 1.8677 0
M  V30 3404 C 315.077 -0.247881 3.44209 0
M  V30 3405 C 314.19 0.735591 4.25691 0
M  V30 3406 C 313.325 -0.0047306 5.312 0
M  V30 3407 C 312.364 0.969805 6.04368 0
M  V30 3408 N 311.501 0.260486 7.01617 0
M  V30 3409 H 316.341 1.33126 2.66611 0
M  V30 3410 H 313.878 0.66765 1.31076 0
M  V30 3411 H 315.836 -0.680695 4.1161 0
M  V30 3412 H 314.466 -1.07312 3.0444 0
M  V30 3413 H 313.518 1.28689 3.57971 0
M  V30 3414 H 314.83 1.47934 4.76358 0
M  V30 3415 H 313.984 -0.496275 6.04667 0
M  V30 3416 H 312.723 -0.781282 4.81401 0
M  V30 3417 H 311.728 1.47237 5.29718 0
M  V30 3418 H 312.953 1.74655 6.56256 0
M  V30 3419 H 310.899 -0.497364 6.54112 0
M  V30 3420 H 310.816 0.943362 7.50091 0
M  V30 3421 H 312.084 -0.209587 7.79218 0
M  V30 3422 N 316.313 -1.40141 0.720998 0
M  V30 3423 C 317.26 -2.30688 0.071919 0
M  V30 3424 C 318.23 -1.48476 -0.744584 0
M  V30 3425 O 319.415 -1.77201 -0.707423 0
M  V30 3426 C 316.555 -3.34724 -0.839855 0
M  V30 3427 C 315.668 -4.31998 -0.0122438 0
M  V30 3428 C 314.803 -5.23102 -0.923995 0
M  V30 3429 C 313.842 -6.12033 -0.0907969 0
M  V30 3430 N 312.979 -6.95537 -0.957718 0
M  V30 3431 H 317.819 -2.85628 0.849755 0
M  V30 3432 H 315.356 -1.40653 0.430726 0
M  V30 3433 H 317.314 -3.93618 -1.38279 0
M  V30 3434 H 315.944 -2.81274 -1.58381 0
M  V30 3435 H 314.996 -3.74841 0.64794 0
M  V30 3436 H 316.308 -4.94772 0.632595 0
M  V30 3437 H 315.462 -5.86953 -1.53527 0
M  V30 3438 H 314.201 -4.60615 -1.60264 0
M  V30 3439 H 313.206 -5.47207 0.533377 0
M  V30 3440 H 314.431 -6.76581 0.584428 0
M  V30 3441 H 312.377 -6.35633 -1.62192 0
M  V30 3442 H 312.294 -7.55099 -0.36904 0
M  V30 3443 H 313.562 -7.63832 -1.555 0
M  V30 3444 N 317.792 -0.46758 -1.50504 0
M  V30 3445 C 319.041 0.0902868 -2.01498 0
M  V30 3446 C 319.354 1.411 -1.35463 0
M  V30 3447 O 320.56 2.0536 -1.77594 0
M  V30 3448 C 319.016 0.21142 -3.59278 0
M  V30 3449 C 318.624 -1.10065 -4.34269 0
M  V30 3450 C 320.368 0.721433 -4.18325 0
M  V30 3451 C 318.275 -0.943505 -5.83825 0
M  V30 3452 H 317.205 0.037517 -0.753066 0
M  V30 3453 H 319.856 -0.601943 -1.73346 0
M  V30 3454 H 318.238 0.967352 -3.84003 0
M  V30 3455 H 319.412 -1.86726 -4.21272 0
M  V30 3456 H 317.727 -1.5415 -3.86816 0
M  V30 3457 H 320.324 0.85598 -5.27804 0
M  V30 3458 H 320.667 1.71186 -3.79475 0
M  V30 3459 H 321.2 0.0229843 -3.97793 0
M  V30 3460 H 317.939 -1.90719 -6.27141 0
M  V30 3461 H 317.459 -0.217213 -5.99407 0
M  V30 3462 H 319.138 -0.608715 -6.4413 0
M  V30 3463 N 319.27 1.56325 -0.20005 0
M  V30 3464 C 320.498 2.02105 0.442874 0
M  V30 3465 C 320.913 1.08014 1.5485 0
M  V30 3466 O 320.27 0.0858797 1.82298 0
M  V30 3467 C 320.321 3.47549 0.994583 0
M  V30 3468 O 320.042 4.38049 -0.0669322 0
M  V30 3469 C 321.543 4.0887 1.7129 0
M  V30 3470 H 318.763 0.661807 0.110691 0
M  V30 3471 H 321.307 2.02134 -0.310207 0
M  V30 3472 H 319.462 3.48204 1.69803 0
M  V30 3473 H 319.876 5.23368 0.344462 0
M  V30 3474 H 321.35 5.12475 2.05118 0
M  V30 3475 H 321.827 3.52615 2.61838 0
M  V30 3476 H 322.433 4.12002 1.05518 0
M  V30 3477 N 320.748 -0.0735177 1.57428 0
M  V30 3478 C 321.995 -0.772999 1.87166 0
M  V30 3479 C 322.323 -1.77665 0.791551 0
M  V30 3480 O 321.578 -1.94541 -0.212636 0
M  V30 3481 C 321.877 -1.51799 3.23561 0
M  V30 3482 C 321.543 -0.654484 4.46125 0
M  V30 3483 C 320.205 -0.416511 4.79394 0
M  V30 3484 C 322.557 -0.0555862 5.2117 0
M  V30 3485 C 319.885 0.429869 5.85123 0
M  V30 3486 C 322.237 0.778239 6.27795 0
M  V30 3487 C 320.901 1.0261 6.59566 0
M  V30 3488 H 320.171 -0.282861 0.684888 0
M  V30 3489 H 322.818 -0.0338272 1.9147 0
M  V30 3490 H 321.123 -2.32932 3.1504 0
M  V30 3491 H 322.82 -2.06397 3.43804 0
M  V30 3492 H 319.41 -0.850091 4.20085 0
M  V30 3493 H 323.594 -0.226558 4.95783 0
M  V30 3494 H 318.85 0.630665 6.08139 0
M  V30 3495 H 323.024 1.24906 6.85107 0
M  V30 3496 H 320.651 1.68371 7.4132 0
M  V30 3497 N 322.226 -1.5378 -0.344866 0
M  V30 3498 C 323.174 -1.82373 -1.4437 0
M  V30 3499 C 324.168 -0.694128 -1.54526 0
M  V30 3500 O 325.374 -0.877442 -1.57165 0
M  V30 3501 H 321.749 -0.577765 -0.481344 0
M  V30 3502 H 323.72 -2.74306 -1.17468 0
M  V30 3503 C 322.469 -2.04898 -2.80913 0
M  V30 3504 H 321.792 -2.9127 -2.73865 0
M  V30 3505 H 323.232 -2.28871 -3.56923 0
M  V30 3506 C 321.691 -0.834116 -3.26411 0
M  V30 3507 O 322.221 -0.0328885 -4.01687 0
M  V30 3508 N 320.427 -0.65171 -2.83198 0
M  V30 3509 H 319.974 -1.30489 -2.22104 0
M  V30 3510 H 319.932 0.159686 -3.13994 0
M  V30 3511 N 323.704 0.605807 -1.45491 0
M  V30 3512 C 324.95 1.36679 -1.49823 0
M  V30 3513 C 325.283 1.93693 -0.140175 0
M  V30 3514 O 324.558 1.75158 0.845581 0
M  V30 3515 C 324.841 2.51337 -2.57879 0
M  V30 3516 C 324.694 1.99508 -4.03134 0
M  V30 3517 C 326.013 3.53463 -2.62205 0
M  V30 3518 H 323.132 0.495617 -0.545466 0
M  V30 3519 H 325.774 0.682732 -1.7731 0
M  V30 3520 H 323.924 3.09691 -2.34571 0
M  V30 3521 H 325.596 1.45789 -4.37656 0
M  V30 3522 H 323.839 1.30496 -4.13707 0
M  V30 3523 H 324.51 2.82169 -4.74431 0
M  V30 3524 H 326.986 3.04953 -2.83095 0
M  V30 3525 H 325.862 4.31178 -3.39672 0
M  V30 3526 H 326.123 4.09197 -1.67363 0
M  V30 3527 N 325.182 1.32811 0.848464 0
M  V30 3528 C 326.431 1.23075 1.59798 0
M  V30 3529 C 326.744 -0.204419 1.94529 0
M  V30 3530 O 327.95 -0.423701 2.68173 0
M  V30 3531 C 326.406 2.15594 2.88179 0
M  V30 3532 C 326.014 3.64228 2.60849 0
M  V30 3533 C 327.758 2.14709 3.66197 0
M  V30 3534 C 325.665 4.48689 3.85269 0
M  V30 3535 H 324.595 0.457091 0.599653 0
M  V30 3536 H 327.246 1.57813 0.936342 0
M  V30 3537 H 325.628 1.73778 3.55833 0
M  V30 3538 H 326.802 4.14424 2.01467 0
M  V30 3539 H 325.117 3.67306 1.96151 0
M  V30 3540 H 327.714 2.75046 4.58534 0
M  V30 3541 H 328.057 1.13966 4.00397 0
M  V30 3542 H 328.59 2.54837 3.05455 0
M  V30 3543 H 325.329 5.5027 3.56207 0
M  V30 3544 H 324.849 4.03241 4.44024 0
M  V30 3545 H 326.528 4.62006 4.52946 0
M  V30 3546 N 326.66 -1.06551 1.16123 0
M  V30 3547 C 328.071 -1.60768 0.949232 0
M  V30 3548 C 328.422 -1.89523 -0.507508 0
M  V30 3549 O 327.547 -1.66671 -1.38021 0
M  V30 3550 C 328.142 -2.92086 1.71671 0
M  V30 3551 C 326.701 -3.43015 1.54977 0
M  V30 3552 C 325.848 -2.16947 1.72711 0
M  V30 3553 H 328.799 -0.895354 1.31031 0
M  V30 3554 H 328.82 -3.6138 1.19099 0
M  V30 3555 H 328.332 -2.71127 2.7769 0
M  V30 3556 H 326.433 -3.69039 0.513873 0
M  V30 3557 H 326.546 -4.18516 2.33198 0
M  V30 3558 H 324.91 -2.27041 1.15431 0
M  V30 3559 H 325.693 -1.98473 2.80113 0
M  V30 3560 N 328.138 -0.959301 -1.25041 0
M  V30 3561 C 329.415 -0.533805 -1.88175 0
M  V30 3562 C 329.795 0.988994 -1.865 0
M  V30 3563 O 329.143 1.85677 -1.33177 0
M  V30 3564 C 329.353 -1.11575 -3.30684 0
M  V30 3565 C 330.701 -1.19548 -4.07423 0
M  V30 3566 O 331.725 -1.06765 -3.39823 0
M  V30 3567 O 330.584 -1.39656 -5.28354 0
M  V30 3568 H 327.678 -0.176772 -0.807887 0
M  V30 3569 H 330.224 -1.05303 -1.33076 0
M  V30 3570 H 328.996 -2.15884 -3.26358 0
M  V30 3571 H 328.619 -0.580059 -3.93346 0
M  V30 3572 N 329.616 1.39756 -0.72842 0
M  V30 3573 C 331.027 1.83498 -0.344289 0
M  V30 3574 C 331.378 1.60868 1.12321 0
M  V30 3575 O 330.503 1.09634 1.86573 0
M  V30 3576 C 331.098 3.33114 -0.618112 0
M  V30 3577 C 329.657 3.753 -0.287549 0
M  V30 3578 C 328.804 2.62831 -0.884048 0
M  V30 3579 H 331.755 1.28842 -0.926578 0
M  V30 3580 H 331.776 3.80334 0.112349 0
M  V30 3581 H 331.288 3.49553 -1.68625 0
M  V30 3582 H 329.389 3.64451 0.775012 0
M  V30 3583 H 329.502 4.72945 -0.765512 0
M  V30 3584 H 327.866 2.52792 -0.311149 0
M  V30 3585 H 328.649 2.82078 -1.95671 0
M  V30 3586 N 331.094 0.475555 1.50254 0
M  V30 3587 C 332.322 -0.0754493 2.06762 0
M  V30 3588 C 332.737 -1.33111 1.33891 0
M  V30 3589 O 332.094 -1.77846 0.40952 0
M  V30 3590 C 332.145 -0.359008 3.59713 0
M  V30 3591 O 331.866 0.846851 4.29837 0
M  V30 3592 C 333.367 -0.956484 4.32858 0
M  V30 3593 H 330.587 0.00907525 0.670939 0
M  V30 3594 H 333.131 0.665618 1.93364 0
M  V30 3595 H 331.286 -1.05001 3.72899 0
M  V30 3596 H 331.7 0.594162 5.21124 0
M  V30 3597 H 333.174 -1.10463 5.40834 0
M  V30 3598 H 333.651 -1.94775 3.93649 0
M  V30 3599 H 334.257 -0.303723 4.24214 0
M  V30 3600 N 332.573 -1.56217 0.208337 0
M  V30 3601 C 333.801 -2.02337 -0.43215 0
M  V30 3602 C 334.216 -1.08834 -1.54275 0
M  V30 3603 O 333.573 -0.0955462 -1.8225 0
M  V30 3604 C 333.624 -3.48072 -0.976138 0
M  V30 3605 O 333.345 -4.38007 0.0901621 0
M  V30 3606 C 334.846 -4.09773 -1.69119 0
M  V30 3607 H 332.066 -0.662385 -0.10718 0
M  V30 3608 H 334.61 -2.01966 0.320923 0
M  V30 3609 H 332.765 -3.49099 -1.67954 0
M  V30 3610 H 333.179 -5.23543 -0.316701 0
M  V30 3611 H 334.653 -5.13556 -2.02397 0
M  V30 3612 H 335.13 -3.53999 -2.59964 0
M  V30 3613 H 335.736 -4.12556 -1.03332 0
M  V30 3614 N 334.051 0.0651679 -1.57465 0
M  V30 3615 C 335.467 0.420105 -1.53972 0
M  V30 3616 C 335.667 1.78782 -0.929474 0
M  V30 3617 O 334.723 2.46771 -0.534839 0
M  V30 3618 C 336.036 0.355084 -2.98596 0
M  V30 3619 C 337.584 0.434792 -3.09965 0
M  V30 3620 C 338.059 0.399609 -4.56253 0
M  V30 3621 N 339.55 0.459488 -4.60915 0
M  V30 3622 C 340.285 0.454584 -5.71595 0
M  V30 3623 N 339.781 0.404102 -6.9162 0
M  V30 3624 N 341.574 0.501635 -5.59857 0
M  V30 3625 H 333.725 -0.830328 -1.95498 0
M  V30 3626 H 335.988 -0.312244 -0.895102 0
M  V30 3627 H 335.694 -0.583357 -3.46828 0
M  V30 3628 H 335.568 1.16275 -3.58831 0
M  V30 3629 H 337.955 1.36366 -2.61703 0
M  V30 3630 H 338.036 -0.40157 -2.52628 0
M  V30 3631 H 337.68 -0.525436 -5.05175 0
M  V30 3632 H 337.61 1.25359 -5.11461 0
M  V30 3633 H 340.101 0.502482 -3.74544 0
M  V30 3634 H 340.414 0.404468 -7.71741 0
M  V30 3635 H 338.759 0.37069 -6.94011 0
M  V30 3636 H 341.95 0.538812 -4.64989 0
M  V30 3637 H 342.123 0.494345 -6.46112 0
M  V30 3638 N 335.529 1.53961 0.336706 0
M  V30 3639 C 336.492 1.81724 1.39675 0
M  V30 3640 C 337.492 0.688532 1.45313 0
M  V30 3641 O 338.682 0.956829 1.45569 0
M  V30 3642 C 335.814 1.96543 2.78538 0
M  V30 3643 H 337.007 2.76424 1.16318 0
M  V30 3644 H 334.56 1.45478 0.571474 0
M  V30 3645 H 335.295 1.0401 3.07168 0
M  V30 3646 H 335.08 2.78665 2.75841 0
M  V30 3647 H 336.57 2.19516 3.5525 0
M  V30 3648 N 337.007 -0.598083 1.45811 0
M  V30 3649 C 338.253 -1.35882 1.50545 0
M  V30 3650 C 338.586 -1.93616 0.150445 0
M  V30 3651 O 337.861 -1.75604 -0.83628 0
M  V30 3652 C 338.144 -2.49966 2.59208 0
M  V30 3653 C 337.997 -1.97367 4.04186 0
M  V30 3654 C 339.316 -3.52068 2.64076 0
M  V30 3655 H 336.435 -0.492717 0.548087 0
M  V30 3656 H 339.077 -0.673319 1.77669 0
M  V30 3657 H 337.227 -3.08443 2.3621 0
M  V30 3658 H 338.899 -1.43466 4.38423 0
M  V30 3659 H 337.142 -1.283 4.14393 0
M  V30 3660 H 337.813 -2.79649 4.75921 0
M  V30 3661 H 340.289 -3.03448 2.84708 0
M  V30 3662 H 339.165 -4.2937 3.41954 0
M  V30 3663 H 339.426 -4.08304 1.69531 0
M  V30 3664 N 338.485 -1.33259 -0.841409 0
M  V30 3665 C 339.448 -1.23221 -1.9326 0
M  V30 3666 C 340.448 -0.151895 -1.60081 0
M  V30 3667 O 341.638 -0.403246 -1.69468 0
M  V30 3668 C 338.77 -0.898123 -3.28856 0
M  V30 3669 H 339.963 -2.2021 -2.03587 0
M  V30 3670 H 337.516 -1.17281 -1.03319 0
M  V30 3671 H 338.251 0.0693841 -3.24226 0
M  V30 3672 H 338.036 -1.67934 -3.54317 0
M  V30 3673 H 339.526 -0.852563 -4.08805 0
M  V30 3674 N 339.963 1.05934 -1.16686 0
M  V30 3675 C 341.21 1.788 -0.950622 0
M  V30 3676 C 341.538 1.87384 0.521305 0
M  V30 3677 O 340.793 1.36438 1.40297 0
M  V30 3678 C 341.092 3.23105 -1.52767 0
M  V30 3679 C 340.758 3.34594 -3.02254 0
M  V30 3680 C 339.42 3.37437 -3.43059 0
M  V30 3681 C 341.772 3.36219 -3.98254 0
M  V30 3682 C 339.1 3.39525 -4.78477 0
M  V30 3683 C 341.452 3.39845 -5.33562 0
M  V30 3684 C 340.116 3.40971 -5.73842 0
M  V30 3685 H 339.386 0.654275 -0.347857 0
M  V30 3686 H 342.033 1.24555 -1.45459 0
M  V30 3687 H 340.338 3.80227 -0.94524 0
M  V30 3688 H 342.035 3.7809 -1.336 0
M  V30 3689 H 338.625 3.3309 -2.6972 0
M  V30 3690 H 342.809 3.33231 -3.67792 0
M  V30 3691 H 338.065 3.38703 -5.09009 0
M  V30 3692 H 342.239 3.4005 -6.07733 0
M  V30 3693 H 339.866 3.42342 -6.78753 0
M  V30 3694 N 341.441 0.965919 1.2453 0
M  V30 3695 C 342.351 0.502154 2.29163 0
M  V30 3696 C 343.367 -0.436017 1.68448 0
M  V30 3697 O 344.543 -0.309497 1.99008 0
M  V30 3698 C 341.608 -0.201956 3.46111 0
M  V30 3699 C 340.669 0.775821 4.22232 0
M  V30 3700 C 339.902 0.105217 5.33596 0
M  V30 3701 O 340.125 -1.10683 5.59558 0
M  V30 3702 O 339.059 0.796475 5.96607 0
M  V30 3703 H 342.885 1.37194 2.70946 0
M  V30 3704 H 340.47 0.732875 1.30189 0
M  V30 3705 H 342.352 -0.597564 4.17142 0
M  V30 3706 H 341.027 -1.04673 3.06309 0
M  V30 3707 H 339.934 1.22185 3.53584 0
M  V30 3708 H 341.267 1.58896 4.65846 0
M  V30 3709 N 342.919 -1.39368 0.735821 0
M  V30 3710 C 344.147 -2.04795 0.294393 0
M  V30 3711 C 344.562 -1.55478 -1.07107 0
M  V30 3712 O 343.919 -0.720038 -1.67695 0
M  V30 3713 C 343.97 -3.6035 0.288071 0
M  V30 3714 O 343.691 -4.07852 1.59963 0
M  V30 3715 C 345.192 -4.42976 -0.169422 0
M  V30 3716 H 342.412 -0.658571 0.128551 0
M  V30 3717 H 344.956 -1.78399 0.999701 0
M  V30 3718 H 343.111 -3.85645 -0.368355 0
M  V30 3719 H 343.525 -5.02181 1.51375 0
M  V30 3720 H 344.999 -5.51864 -0.122687 0
M  V30 3721 H 345.476 -4.22068 -1.21472 0
M  V30 3722 H 346.082 -4.22832 0.457469 0
M  V30 3723 N 344.397 -0.483516 -1.5 0
M  V30 3724 C 345.645 0.067027 -2.01989 0
M  V30 3725 C 345.966 1.3909 -1.36671 0
M  V30 3726 O 345.236 1.88978 -0.516152 0
M  V30 3727 H 343.816 0.0277606 -0.746484 0
M  V30 3728 H 346.478 -0.636773 -1.84204 0
M  V30 3729 H 345.574 0.209484 -3.11396 0
M  V30 3730 N 345.875 1.56104 -0.216619 0
M  V30 3731 C 347.152 1.89988 0.465165 0
M  V30 3732 C 347.532 1.13326 1.78102 0
M  V30 3733 O 346.88 0.241033 2.27225 0
M  V30 3734 C 347.09 3.42646 0.662939 0
M  V30 3735 C 348.438 4.13311 0.972602 0
M  V30 3736 O 349.462 3.48217 0.749901 0
M  V30 3737 O 348.321 5.28396 1.39499 0
M  V30 3738 H 345.415 0.78979 0.245276 0
M  V30 3739 H 347.961 1.67721 -0.258436 0
M  V30 3740 H 346.733 3.90399 -0.26543 0
M  V30 3741 H 346.356 3.70677 1.43821 0
M  V30 3742 N 347.353 -0.0568162 1.57498 0
M  V30 3743 C 348.602 -0.752001 1.87157 0
M  V30 3744 C 348.915 -1.77978 0.811375 0
M  V30 3745 O 350.121 -2.52559 0.996293 0
M  V30 3746 C 348.577 -1.38844 3.3204 0
M  V30 3747 C 348.185 -0.398456 4.46225 0
M  V30 3748 C 349.929 -2.06512 3.70882 0
M  V30 3749 C 347.836 -1.04166 5.82154 0
M  V30 3750 H 346.766 -0.28461 0.698222 0
M  V30 3751 H 349.417 -0.00561272 1.83499 0
M  V30 3752 H 347.799 -2.1836 3.30356 0
M  V30 3753 H 348.973 0.367977 4.59328 0
M  V30 3754 H 347.288 0.174592 4.16034 0
M  V30 3755 H 349.885 -2.55437 4.6974 0
M  V30 3756 H 350.228 -2.87117 3.01445 0
M  V30 3757 H 350.761 -1.33808 3.7462 0
M  V30 3758 H 347.5 -0.275614 6.5492 0
M  V30 3759 H 347.02 -1.7786 5.72823 0
M  V30 3760 H 348.699 -1.55715 6.27982 0
M  V30 3761 N 348.832 -1.54138 -0.328536 0
M  V30 3762 C 350.109 -1.62749 -1.08499 0
M  V30 3763 C 350.489 -0.458198 -2.06067 0
M  V30 3764 O 349.837 0.548046 -2.2183 0
M  V30 3765 C 350.047 -2.99519 -1.79135 0
M  V30 3766 C 351.395 -3.55394 -2.32337 0
M  V30 3767 O 352.419 -3.01792 -1.89209 0
M  V30 3768 O 351.278 -4.49186 -3.11279 0
M  V30 3769 H 348.372 -0.65886 -0.499832 0
M  V30 3770 H 350.918 -1.66484 -0.328826 0
M  V30 3771 H 349.69 -3.76061 -1.08139 0
M  V30 3772 H 349.313 -2.99441 -2.61574 0
M  V30 3773 N 350.31 0.590341 -1.46126 0
M  V30 3774 C 351.24 1.71032 -1.58966 0
M  V30 3775 C 352.221 1.64302 -0.440335 0
M  V30 3776 O 353.406 1.82436 -0.665634 0
M  V30 3777 C 350.536 3.09665 -1.57241 0
M  V30 3778 C 349.49 3.31221 -2.71066 0
M  V30 3779 C 348.816 4.70303 -2.54399 0
M  V30 3780 C 350.116 3.19796 -4.1295 0
M  V30 3781 H 351.81 1.60543 -2.52718 0
M  V30 3782 H 349.356 0.770933 -1.21625 0
M  V30 3783 H 351.309 3.87831 -1.64819 0
M  V30 3784 H 350.033 3.21036 -0.600289 0
M  V30 3785 H 348.692 2.55452 -2.62944 0
M  V30 3786 H 348.34 4.78429 -1.55288 0
M  V30 3787 H 348.04 4.85679 -3.30741 0
M  V30 3788 H 349.564 5.50647 -2.63857 0
M  V30 3789 H 350.978 3.87815 -4.22223 0
M  V30 3790 H 349.375 3.46696 -4.89818 0
M  V30 3791 H 350.445 2.16983 -4.33643 0
M  V30 3792 N 351.788 1.33704 0.83433 0
M  V30 3793 C 352.718 1.26967 1.95963 0
M  V30 3794 C 353.699 0.149337 1.69443 0
M  V30 3795 O 354.884 0.339852 1.91203 0
M  V30 3796 C 352.014 1.01275 3.32206 0
M  V30 3797 C 350.968 2.09652 3.73136 0
M  V30 3798 C 350.294 1.69166 5.07235 0
M  V30 3799 C 351.594 3.51372 3.86439 0
M  V30 3800 H 353.288 2.2112 2.01857 0
M  V30 3801 H 350.834 1.06447 0.969793 0
M  V30 3802 H 352.787 0.952106 4.10503 0
M  V30 3803 H 351.511 0.0356203 3.26581 0
M  V30 3804 H 350.17 2.14766 2.97104 0
M  V30 3805 H 349.818 0.701437 4.98085 0
M  V30 3806 H 349.518 2.41694 5.35591 0
M  V30 3807 H 351.042 1.64576 5.88003 0
M  V30 3808 H 352.456 3.48734 4.55036 0
M  V30 3809 H 350.853 4.22425 4.26236 0
M  V30 3810 H 351.923 3.89546 2.88759 0
M  V30 3811 N 353.266 -1.05314 1.17247 0
M  V30 3812 C 354.496 -1.81707 0.983166 0
M  V30 3813 C 354.904 -1.83222 -0.471822 0
M  V30 3814 O 354.247 -1.25721 -1.3394 0
M  V30 3815 C 354.309 -3.29134 1.44606 0
M  V30 3816 C 353.973 -3.51304 2.92292 0
M  V30 3817 C 354.97 -3.4353 3.90235 0
M  V30 3818 C 352.655 -3.78306 3.30439 0
M  V30 3819 C 354.649 -3.62442 5.24323 0
M  V30 3820 C 352.336 -3.96866 4.64694 0
M  V30 3821 C 353.334 -3.88933 5.61445 0
M  V30 3822 O 353.022 -4.06976 6.93272 0
M  V30 3823 H 352.754 -0.579476 0.348114 0
M  V30 3824 H 355.308 -1.33705 1.55924 0
M  V30 3825 H 353.538 -3.78046 0.813537 0
M  V30 3826 H 355.227 -3.87049 1.22262 0
M  V30 3827 H 355.993 -3.22648 3.62109 0
M  V30 3828 H 351.872 -3.83585 2.55702 0
M  V30 3829 H 355.416 -3.56165 5.99827 0
M  V30 3830 H 351.313 -4.1724 4.92525 0
M  V30 3831 H 352.081 -4.24209 6.99992 0
M  V30 3832 N 354.744 -0.972509 -1.24016 0
M  V30 3833 C 355.992 -0.635776 -1.91839 0
M  V30 3834 C 356.313 0.832312 -1.76345 0
M  V30 3835 O 355.583 1.5946 -1.13795 0
M  V30 3836 H 354.163 -0.232157 -0.710009 0
M  V30 3837 H 356.825 -1.23462 -1.50809 0
M  V30 3838 H 355.921 -0.880545 -2.99421 0
M  V30 3839 N 356.222 1.38976 -0.743202 0
M  V30 3840 C 357.17 2.32394 -0.0978389 0
M  V30 3841 C 358.164 1.53486 0.716824 0
M  V30 3842 O 359.37 1.69092 0.617088 0
M  V30 3843 H 355.745 0.75189 -0.0128402 0
M  V30 3844 H 357.716 2.84441 -0.901981 0
M  V30 3845 C 356.465 3.38629 0.789036 0
M  V30 3846 H 355.788 3.99432 0.171559 0
M  V30 3847 H 357.228 4.06426 1.20807 0
M  V30 3848 C 355.687 2.76347 1.92702 0
M  V30 3849 O 356.217 2.64836 3.02034 0
M  V30 3850 N 354.423 2.34311 1.71891 0
M  V30 3851 H 353.97 2.43873 0.829675 0
M  V30 3852 H 353.928 1.9298 2.48205 0
M  V30 3853 N 357.7 0.491464 1.49741 0
M  V30 3854 C 358.61 -0.296835 2.32715 0
M  V30 3855 C 359.626 -0.976536 1.44013 0
M  V30 3856 O 360.802 -0.960023 1.77047 0
M  V30 3857 C 357.867 -1.35288 3.19215 0
M  V30 3858 C 356.928 -0.687632 4.23757 0
M  V30 3859 C 356.161 -1.69336 5.06123 0
M  V30 3860 O 356.384 -2.92219 4.89861 0
M  V30 3861 O 355.318 -1.25394 5.88693 0
M  V30 3862 H 359.144 0.382048 3.01287 0
M  V30 3863 H 356.729 0.252953 1.47243 0
M  V30 3864 H 358.611 -1.96411 3.72828 0
M  V30 3865 H 357.286 -2.01487 2.53347 0
M  V30 3866 H 356.193 -0.0369159 3.74082 0
M  V30 3867 H 357.526 -0.0682566 4.92153 0
M  V30 3868 N 359.178 -1.55987 0.224894 0
M  V30 3869 C 360.426 -1.97998 -0.405099 0
M  V30 3870 C 360.747 -1.11387 -1.60056 0
M  V30 3871 O 360.017 -0.191645 -1.9496 0
M  V30 3872 H 358.597 -0.731235 -0.152658 0
M  V30 3873 H 361.259 -1.92279 0.318567 0
M  V30 3874 H 360.355 -3.03463 -0.729167 0
M  V30 3875 N 360.656 0.0484629 -1.57525 0
M  V30 3876 C 361.586 1.0549 -2.08313 0
M  V30 3877 C 362.567 1.38929 -0.981463 0
M  V30 3878 O 363.752 1.48151 -1.25558 0
M  V30 3879 C 360.882 2.36162 -2.54646 0
M  V30 3880 C 359.836 2.17016 -3.68901 0
M  V30 3881 C 359.162 3.53278 -4.01371 0
M  V30 3882 C 360.462 1.57219 -4.98076 0
M  V30 3883 H 362.156 0.632195 -2.92649 0
M  V30 3884 H 359.702 0.302654 -1.40784 0
M  V30 3885 H 361.655 3.06882 -2.88793 0
M  V30 3886 H 360.379 2.80456 -1.67368 0
M  V30 3887 H 359.038 1.48733 -3.35073 0
M  V30 3888 H 358.686 3.95185 -3.11188 0
M  V30 3889 H 358.386 3.41299 -4.78318 0
M  V30 3890 H 359.91 4.25391 -4.38035 0
M  V30 3891 H 361.324 2.17832 -5.30304 0
M  V30 3892 H 359.721 1.55871 -5.79503 0
M  V30 3893 H 360.791 0.535956 -4.81929 0
M  V30 3894 N 362.134 1.5431 0.320358 0
M  V30 3895 C 363.064 1.86912 1.3995 0
M  V30 3896 C 364.045 0.726211 1.53819 0
M  V30 3897 O 365.23 0.980233 1.67646 0
M  V30 3898 C 362.36 2.09932 2.7667 0
M  V30 3899 C 361.314 3.25776 2.77586 0
M  V30 3900 C 360.64 3.34173 4.17412 0
M  V30 3901 C 361.94 4.6335 2.41048 0
M  V30 3902 H 363.634 2.77292 1.12914 0
M  V30 3903 H 361.18 1.33421 0.541738 0
M  V30 3904 H 363.133 2.31324 3.52232 0
M  V30 3905 H 361.857 1.16304 3.0519 0
M  V30 3906 H 360.516 3.04276 2.04479 0
M  V30 3907 H 360.164 2.38098 4.43078 0
M  V30 3908 H 359.864 4.12033 4.18931 0
M  V30 3909 H 361.388 3.57803 4.94782 0
M  V30 3910 H 362.802 4.84602 3.06324 0
M  V30 3911 H 361.199 5.43782 2.53813 0
M  V30 3912 H 362.269 4.65381 1.36193 0
M  V30 3913 N 363.613 -0.582584 1.46437 0
M  V30 3914 C 365.024 -1.1647 1.45916 0
M  V30 3915 C 365.375 -1.95177 0.200077 0
M  V30 3916 O 364.5 -2.04874 -0.696819 0
M  V30 3917 C 365.095 -2.11885 2.64367 0
M  V30 3918 C 363.654 -2.65421 2.66887 0
M  V30 3919 C 362.801 -1.41294 2.38603 0
M  V30 3920 H 365.752 -0.370514 1.54314 0
M  V30 3921 H 365.773 -2.9535 2.39892 0
M  V30 3922 H 365.285 -1.54573 3.5599 0
M  V30 3923 H 363.386 -3.26602 1.79338 0
M  V30 3924 H 363.499 -3.08147 3.66854 0
M  V30 3925 H 361.863 -1.71109 1.88663 0
M  V30 3926 H 362.646 -0.858125 3.32402 0
M  V30 3927 N 365.091 -1.34144 -0.827227 0
M  V30 3928 C 366.021 -1.28005 -1.95287 0
M  V30 3929 C 367.002 -0.158321 -1.69362 0
M  V30 3930 O 368.187 -0.349987 -1.9102 0
M  V30 3931 C 365.317 -1.03036 -3.31664 0
M  V30 3932 C 364.271 -2.11628 -3.72019 0
M  V30 3933 C 363.597 -1.71854 -5.0633 0
M  V30 3934 C 364.897 -3.53417 -3.8457 0
M  V30 3935 H 366.591 -2.22187 -2.00682 0
M  V30 3936 H 364.137 -1.0696 -0.964135 0
M  V30 3937 H 366.09 -0.973863 -4.09993 0
M  V30 3938 H 364.814 -0.0529391 -3.26557 0
M  V30 3939 H 363.473 -2.16339 -2.95961 0
M  V30 3940 H 363.121 -0.727841 -4.97706 0
M  V30 3941 H 362.821 -2.44531 -5.34302 0
M  V30 3942 H 364.345 -1.67692 -5.87122 0
M  V30 3943 H 365.759 -3.51142 -4.5318 0
M  V30 3944 H 364.156 -4.24679 -4.2399 0
M  V30 3945 H 365.226 -3.91072 -2.86689 0
M  V30 3946 N 366.569 1.04691 -1.17803 0
M  V30 3947 C 367.846 1.7472 -0.879328 0
M  V30 3948 C 368.226 2.01812 0.619271 0
M  V30 3949 O 367.574 1.65824 1.57209 0
M  V30 3950 C 367.784 3.03686 -1.71976 0
M  V30 3951 C 369.132 3.77542 -1.94286 0
M  V30 3952 O 370.156 3.13569 -1.68976 0
M  V30 3953 O 369.015 4.92506 -2.36855 0
M  V30 3954 H 366.109 0.760011 -0.326056 0
M  V30 3955 H 368.655 1.10813 -1.28525 0
M  V30 3956 H 367.427 2.79754 -2.73594 0
M  V30 3957 H 367.05 3.75332 -1.31194 0
M  V30 3958 N 368.047 0.979072 1.23499 0
M  V30 3959 C 369.275 0.665202 1.95915 0
M  V30 3960 C 369.69 -0.767571 1.72493 0
M  V30 3961 O 369.047 -1.51635 1.01554 0
M  V30 3962 C 369.098 0.944438 3.48945 0
M  V30 3963 O 368.819 2.3209 3.71572 0
M  V30 3964 C 370.32 0.646336 4.38563 0
M  V30 3965 H 367.54 0.247218 0.623798 0
M  V30 3966 H 370.084 1.31009 1.57025 0
M  V30 3967 H 368.239 0.345575 3.85856 0
M  V30 3968 H 368.653 2.40957 4.65876 0
M  V30 3969 H 370.127 0.892091 5.44744 0
M  V30 3970 H 370.604 -0.419575 4.37191 0
M  V30 3971 H 371.21 1.22562 4.07258 0
M  V30 3972 N 369.525 -1.3858 0.750561 0
M  V30 3973 C 370.772 -2.00184 0.305373 0
M  V30 3974 C 371.1 -1.59575 -1.11203 0
M  V30 3975 O 370.355 -0.823236 -1.77542 0
M  V30 3976 C 370.654 -3.55455 0.372373 0
M  V30 3977 C 370.32 -4.15765 1.745 0
M  V30 3978 C 368.982 -4.31951 2.12065 0
M  V30 3979 C 371.334 -4.49067 2.64553 0
M  V30 3980 C 368.662 -4.78734 3.39162 0
M  V30 3981 C 371.014 -4.97265 3.91038 0
M  V30 3982 C 369.678 -5.11658 4.28676 0
M  V30 3983 H 368.948 -0.732526 0.111744 0
M  V30 3984 H 371.595 -1.65673 0.960451 0
M  V30 3985 H 369.9 -3.90084 -0.366272 0
M  V30 3986 H 371.597 -4.00999 0.00953918 0
M  V30 3987 H 368.187 -4.03579 1.44297 0
M  V30 3988 H 372.371 -4.36166 2.36796 0
M  V30 3989 H 367.627 -4.88062 3.68246 0
M  V30 3990 H 371.801 -5.22003 4.60962 0
M  V30 3991 H 369.428 -5.47668 5.27222 0
M  V30 3992 N 371.003 -0.499398 -1.49478 0
M  V30 3993 C 371.966 0.268838 -2.27618 0
M  V30 3994 C 372.966 0.895383 -1.33565 0
M  V30 3995 O 374.156 0.760164 -1.56739 0
M  V30 3996 C 371.288 1.38559 -3.11471 0
M  V30 3997 H 372.481 -0.416812 -2.96989 0
M  V30 3998 H 370.034 -0.254313 -1.54217 0
M  V30 3999 H 370.769 2.10544 -2.46661 0
M  V30 4000 H 370.554 0.941797 -3.80621 0
M  V30 4001 H 372.044 1.92678 -3.70493 0
M  V30 4002 N 372.481 1.55866 -0.233164 0
M  V30 4003 C 373.897 1.59133 0.121988 0
M  V30 4004 C 374.097 1.25016 1.58029 0
M  V30 4005 O 373.153 0.990922 2.32243 0
M  V30 4006 C 374.466 2.99932 -0.214792 0
M  V30 4007 C 376.014 3.12601 -0.157971 0
M  V30 4008 C 376.489 4.55597 -0.46859 0
M  V30 4009 N 377.98 4.61305 -0.418585 0
M  V30 4010 C 378.715 5.69903 -0.63227 0
M  V30 4011 N 378.211 6.86819 -0.90835 0
M  V30 4012 N 380.004 5.59264 -0.563913 0
M  V30 4013 H 372.155 1.76315 -1.18434 0
M  V30 4014 H 374.418 0.820093 -0.475553 0
M  V30 4015 H 374.124 3.29588 -1.22739 0
M  V30 4016 H 373.998 3.74327 0.464691 0
M  V30 4017 H 376.385 2.82735 0.845283 0
M  V30 4018 H 376.466 2.40511 -0.871102 0
M  V30 4019 H 376.11 4.86182 -1.46934 0
M  V30 4020 H 376.04 5.25928 0.265865 0
M  V30 4021 H 378.531 3.77297 -0.213368 0
M  V30 4022 H 378.844 7.65507 -1.05919 0
M  V30 4023 H 377.189 6.88536 -0.945673 0
M  V30 4024 H 380.38 4.66802 -0.348372 0
M  V30 4025 H 380.553 6.43831 -0.733847 0
M  V30 4026 N 373.959 -0.0401083 1.57549 0
M  V30 4027 C 375.206 -0.733125 1.88763 0
M  V30 4028 C 375.534 -1.75946 0.829058 0
M  V30 4029 O 374.789 -1.94949 -0.171323 0
M  V30 4030 C 375.088 -1.44902 3.26708 0
M  V30 4031 C 374.754 -0.559707 4.47413 0
M  V30 4032 C 373.416 -0.314731 4.8017 0
M  V30 4033 C 375.768 0.0549743 5.21171 0
M  V30 4034 C 373.096 0.553886 5.8408 0
M  V30 4035 C 375.448 0.911229 6.26003 0
M  V30 4036 C 374.112 1.16577 6.57241 0
M  V30 4037 H 373.382 -0.268269 0.690733 0
M  V30 4038 H 376.029 0.00679408 1.91499 0
M  V30 4039 H 374.334 -2.26197 3.1991 0
M  V30 4040 H 376.031 -1.99058 3.48105 0
M  V30 4041 H 372.621 -0.760793 4.21794 0
M  V30 4042 H 376.805 -0.121344 4.96152 0
M  V30 4043 H 372.061 0.759518 6.06664 0
M  V30 4044 H 376.235 1.3941 6.82303 0
M  V30 4045 H 373.862 1.84058 7.37582 0
M  V30 4046 N 375.437 -1.54477 -0.31217 0
M  V30 4047 C 376.662 -1.77526 -1.07235 0
M  V30 4048 C 377.087 -0.527775 -1.80544 0
M  V30 4049 O 376.445 0.52121 -1.73646 0
M  V30 4050 C 376.493 -2.97535 -2.03728 0
M  V30 4051 O 375.597 -2.69878 -3.11833 0
M  V30 4052 H 374.938 -0.58792 -0.30862 0
M  V30 4053 H 377.468 -2.01532 -0.352993 0
M  V30 4054 H 377.478 -3.25198 -2.46395 0
M  V30 4055 H 376.153 -3.87996 -1.49774 0
M  V30 4056 H 374.73 -2.53199 -2.7376 0
M  V30 4057 N 376.915 0.57481 -1.46744 0
M  V30 4058 C 377.847 1.69804 -1.53946 0
M  V30 4059 C 378.86 1.57098 -0.427106 0
M  V30 4060 O 380.049 1.64378 -0.695863 0
M  V30 4061 C 377.149 3.08125 -1.4111 0
M  V30 4062 C 376.322 3.46757 -2.66605 0
M  V30 4063 C 375.381 4.6417 -2.47855 0
M  V30 4064 O 374.407 4.69634 -3.21609 0
M  V30 4065 N 375.609 5.59553 -1.54534 0
M  V30 4066 H 378.374 1.64077 -2.50796 0
M  V30 4067 H 375.935 0.761 -1.429 0
M  V30 4068 H 377.927 3.84478 -1.26328 0
M  V30 4069 H 376.497 3.08175 -0.524109 0
M  V30 4070 H 375.717 2.6003 -2.96274 0
M  V30 4071 H 377.005 3.69337 -3.49954 0
M  V30 4072 H 376.403 5.57881 -0.937304 0
M  V30 4073 H 374.96 6.35304 -1.45711 0
M  V30 4074 N 378.394 1.34581 0.820102 0
M  V30 4075 C 379.342 1.26401 1.95258 0
M  V30 4076 C 380.336 0.161553 1.68628 0
M  V30 4077 O 381.542 0.326703 1.7701 0
M  V30 4078 H 377.917 0.392749 0.64129 0
M  V30 4079 H 379.888 2.22105 1.99279 0
M  V30 4080 C 378.637 1.03919 3.31807 0
M  V30 4081 H 377.96 1.87984 3.52848 0
M  V30 4082 H 379.4 1.02232 4.11491 0
M  V30 4083 C 377.859 -0.257433 3.35915 0
M  V30 4084 O 378.389 -1.25784 3.81499 0
M  V30 4085 N 376.595 -0.291524 2.89134 0
M  V30 4086 H 376.142 0.523161 2.52232 0
M  V30 4087 H 376.1 -1.15883 2.92264 0
M  V30 4088 N 379.872 -1.04064 1.18357 0
M  V30 4089 C 381.283 -1.58719 0.98312 0
M  V30 4090 C 381.634 -1.90556 -0.467193 0
M  V30 4091 O 380.759 -1.69561 -1.34454 0
M  V30 4092 C 381.354 -2.88379 1.77828 0
M  V30 4093 C 379.913 -3.3965 1.62218 0
M  V30 4094 C 379.06 -2.13235 1.77274 0
M  V30 4095 H 382.011 -0.867359 1.32901 0
M  V30 4096 H 382.032 -3.58773 1.26737 0
M  V30 4097 H 381.544 -2.65176 2.83379 0
M  V30 4098 H 379.645 -3.67866 0.592036 0
M  V30 4099 H 379.758 -4.13475 2.42023 0
M  V30 4100 H 378.122 -2.24542 1.20221 0
M  V30 4101 H 378.905 -1.92487 2.8426 0
M  V30 4102 N 381.35 -0.985608 -1.22978 0
M  V30 4103 C 382.313 -0.535071 -2.22867 0
M  V30 4104 C 383.313 0.378123 -1.56291 0
M  V30 4105 O 384.503 0.171092 -1.73358 0
M  V30 4106 C 381.635 0.222702 -3.40172 0
M  V30 4107 H 382.828 -1.41835 -2.6424 0
M  V30 4108 H 380.381 -0.772042 -1.35901 0
M  V30 4109 H 381.116 1.12229 -3.04262 0
M  V30 4110 H 380.901 -0.43288 -3.89703 0
M  V30 4111 H 382.391 0.526335 -4.1427 0
M  V30 4112 N 382.828 1.3818 -0.7579 0
M  V30 4113 C 384.058 2.04004 -0.326463 0
M  V30 4114 C 384.466 1.57286 1.05156 0
M  V30 4115 O 383.809 0.743144 1.67997 0
M  V30 4116 C 383.871 3.58444 -0.275402 0
M  V30 4117 C 383.535 4.28237 -1.59569 0
M  V30 4118 C 384.532 4.53312 -2.54566 0
M  V30 4119 C 382.217 4.66341 -1.86631 0
M  V30 4120 C 384.211 5.15531 -3.74842 0
M  V30 4121 C 381.898 5.28283 -3.0718 0
M  V30 4122 C 382.896 5.52814 -4.01106 0
M  V30 4123 O 382.584 6.13465 -5.19534 0
M  V30 4124 H 382.316 0.662026 -0.136739 0
M  V30 4125 H 384.87 1.7777 -1.02893 0
M  V30 4126 H 383.1 3.83667 0.483337 0
M  V30 4127 H 384.789 4.05701 0.127099 0
M  V30 4128 H 385.555 4.24299 -2.34936 0
M  V30 4129 H 381.434 4.46591 -1.14358 0
M  V30 4130 H 384.978 5.34594 -4.48168 0
M  V30 4131 H 380.875 5.56719 -3.26702 0
M  V30 4132 H 381.643 6.31951 -5.20173 0
M  V30 4133 N 384.306 0.507319 1.49211 0
M  V30 4134 C 385.256 -0.287112 2.26185 0
M  V30 4135 C 386.24 -0.929983 1.31302 0
M  V30 4136 O 387.432 -0.836538 1.55984 0
M  V30 4137 C 384.561 -1.34718 3.15763 0
M  V30 4138 C 383.647 -0.710235 4.18111 0
M  V30 4139 N 384.038 0.190836 5.0544 0
M  V30 4140 C 382.336 -0.97009 4.35322 0
M  V30 4141 C 383.037 0.55606 5.79036 0
M  V30 4142 N 382.013 -0.0775232 5.43545 0
M  V30 4143 H 385.815 0.406445 2.91076 0
M  V30 4144 H 383.329 0.323814 1.59139 0
M  V30 4145 H 385.326 -1.92982 3.69545 0
M  V30 4146 H 383.986 -2.04235 2.52424 0
M  V30 4147 H 384.997 0.562047 5.14841 0
M  V30 4148 H 381.674 -1.65753 3.83187 0
M  V30 4149 H 383.064 1.2936 6.5933 0
M  V30 4150 N 385.784 -1.5574 0.241426 0
M  V30 4151 C 387.012 -2.03208 -0.389134 0
M  V30 4152 C 387.427 -1.12082 -1.51931 0
M  V30 4153 O 386.784 -0.134183 -1.82006 0
M  V30 4154 C 386.835 -3.50064 -0.902087 0
M  V30 4155 O 386.556 -4.37717 0.18305 0
M  V30 4156 C 388.057 -4.13268 -1.60389 0
M  V30 4157 H 385.277 -0.664509 -0.0931053 0
M  V30 4158 H 387.821 -2.0124 0.36369 0
M  V30 4159 H 385.976 -3.52583 -1.60511 0
M  V30 4160 H 386.39 -5.24097 -0.205579 0
M  V30 4161 H 387.864 -5.17733 -1.91458 0
M  V30 4162 H 388.341 -3.59434 -2.52397 0
M  V30 4163 H 388.947 -4.14655 -0.945576 0
M  V30 4164 N 387.262 0.0317525 -1.57568 0
M  V30 4165 C 388.194 1.06073 -2.03178 0
M  V30 4166 C 389.207 1.32627 -0.944132 0
M  V30 4167 O 390.396 1.30162 -1.22148 0
M  V30 4168 C 387.496 2.40297 -2.38978 0
M  V30 4169 C 386.669 2.33137 -3.70089 0
M  V30 4170 C 385.728 3.49787 -3.9311 0
M  V30 4171 O 384.754 3.29403 -4.64201 0
M  V30 4172 N 385.956 4.71562 -3.38541 0
M  V30 4173 H 388.721 0.672006 -2.92069 0
M  V30 4174 H 386.282 0.219745 -1.60402 0
M  V30 4175 H 388.274 3.1705 -2.51518 0
M  V30 4176 H 386.844 2.71024 -1.55771 0
M  V30 4177 H 386.064 1.415 -3.67928 0
M  V30 4178 H 387.352 2.25493 -4.56104 0
M  V30 4179 H 386.75 4.91024 -2.80912 0
M  V30 4180 H 385.307 5.45689 -3.56464 0
M  V30 4181 N 388.74 1.54641 0.303973 0
M  V30 4182 C 389.67 1.88386 1.3796 0
M  V30 4183 C 390.651 0.742485 1.5304 0
M  V30 4184 O 391.836 0.997959 1.66597 0
M  V30 4185 C 388.966 2.12854 2.74427 0
M  V30 4186 C 387.92 3.28702 2.74115 0
M  V30 4187 C 387.246 3.38582 4.13844 0
M  V30 4188 C 388.546 4.65881 2.3612 0
M  V30 4189 H 390.24 2.78474 1.09966 0
M  V30 4190 H 387.786 1.33988 0.527556 0
M  V30 4191 H 389.739 2.35047 3.49758 0
M  V30 4192 H 388.463 1.19535 3.03939 0
M  V30 4193 H 387.122 3.06428 2.0124 0
M  V30 4194 H 386.77 2.42784 4.40528 0
M  V30 4195 H 386.47 4.16453 4.14537 0
M  V30 4196 H 387.994 3.63031 4.90959 0
M  V30 4197 H 389.408 4.87823 3.01167 0
M  V30 4198 H 387.805 5.46444 2.48031 0
M  V30 4199 H 388.875 4.66799 1.3125 0
M  V30 4200 N 390.218 -0.567019 1.47046 0
M  V30 4201 C 391.443 -1.3551 1.57009 0
M  V30 4202 C 391.868 -1.86841 0.217259 0
M  V30 4203 O 391.226 -1.62435 -0.805268 0
M  V30 4204 C 391.274 -2.50777 2.5912 0
M  V30 4205 O 390.378 -3.52706 2.13711 0
M  V30 4206 H 389.719 -0.402919 0.52778 0
M  V30 4207 H 392.249 -0.686241 1.92748 0
M  V30 4208 H 392.259 -2.97481 2.79229 0
M  V30 4209 H 390.934 -2.12771 3.57353 0
M  V30 4210 H 389.511 -3.12374 2.03659 0
M  V30 4211 N 391.696 -1.35014 -0.812953 0
M  V30 4212 C 392.628 -1.23262 -1.93233 0
M  V30 4213 C 393.641 -0.157371 -1.62038 0
M  V30 4214 O 394.83 -0.410096 -1.73725 0
M  V30 4215 C 391.93 -0.87392 -3.27438 0
M  V30 4216 C 391.103 -2.04622 -3.86586 0
M  V30 4217 C 390.162 -1.66432 -4.99186 0
M  V30 4218 O 389.188 -2.38222 -5.16951 0
M  V30 4219 N 390.39 -0.584248 -5.77552 0
M  V30 4220 H 393.155 -2.19699 -2.03844 0
M  V30 4221 H 390.716 -1.281 -0.99005 0
M  V30 4222 H 392.708 -0.600039 -4.00227 0
M  V30 4223 H 391.278 0.00057392 -3.126 0
M  V30 4224 H 390.498 -2.48427 -3.06068 0
M  V30 4225 H 391.786 -2.82999 -4.22835 0
M  V30 4226 H 391.184 0.0123526 -5.65699 0
M  V30 4227 H 389.741 -0.37013 -6.50748 0
M  V30 4228 N 393.175 1.03435 -1.18907 0
M  V30 4229 C 394.586 1.58195 -0.991523 0
M  V30 4230 C 394.937 1.90801 0.457081 0
M  V30 4231 O 394.062 1.70272 1.33553 0
M  V30 4232 C 394.657 2.87432 -1.79355 0
M  V30 4233 C 393.216 3.38785 -1.64017 0
M  V30 4234 C 392.363 2.12292 -1.78402 0
M  V30 4235 H 395.314 0.860299 -1.33359 0
M  V30 4236 H 395.335 3.58096 -1.28638 0
M  V30 4237 H 394.847 2.63669 -2.84781 0
M  V30 4238 H 392.948 3.67547 -0.611536 0
M  V30 4239 H 393.061 4.12186 -2.44212 0
M  V30 4240 H 391.425 2.23901 -1.2141 0
M  V30 4241 H 392.208 1.90977 -2.85277 0
M  V30 4242 N 394.653 0.992116 1.22453 0
M  V30 4243 C 395.902 0.662992 1.90492 0
M  V30 4244 C 396.215 -0.808407 1.78113 0
M  V30 4245 O 397.421 -1.24908 2.41061 0
M  V30 4246 C 395.877 1.1353 3.41524 0
M  V30 4247 C 395.485 2.63187 3.62542 0
M  V30 4248 C 397.229 0.880465 4.15269 0
M  V30 4249 C 395.136 3.04024 5.0727 0
M  V30 4250 H 394.066 0.244278 0.713333 0
M  V30 4251 H 396.717 1.20157 1.38688 0
M  V30 4252 H 395.099 0.52485 3.92506 0
M  V30 4253 H 396.273 3.2957 3.22056 0
M  V30 4254 H 394.588 2.86543 3.02129 0
M  V30 4255 H 397.185 1.16128 5.21937 0
M  V30 4256 H 397.528 -0.183408 4.15896 0
M  V30 4257 H 398.061 1.45307 3.70312 0
M  V30 4258 H 394.8 4.09584 5.11782 0
M  V30 4259 H 394.32 2.42343 5.48662 0
M  V30 4260 H 395.999 2.95282 5.75689 0
M  V30 4261 N 396.131 -1.37776 0.765217 0
M  V30 4262 C 397.041 -2.34135 0.147666 0
M  V30 4263 C 398.057 -1.59854 -0.687215 0
M  V30 4264 O 399.233 -1.91983 -0.608659 0
M  V30 4265 C 396.298 -3.3901 -0.72617 0
M  V30 4266 C 395.359 -4.2912 0.124417 0
M  V30 4267 C 394.592 -5.28986 -0.707807 0
M  V30 4268 O 394.815 -5.36205 -1.94525 0
M  V30 4269 O 393.749 -6.01779 -0.12046 0
M  V30 4270 H 397.575 -2.88664 0.943758 0
M  V30 4271 H 395.16 -1.39824 0.526277 0
M  V30 4272 H 397.042 -4.03195 -1.22524 0
M  V30 4273 H 395.717 -2.86819 -1.50056 0
M  V30 4274 H 394.624 -3.68057 0.669696 0
M  V30 4275 H 395.957 -4.84598 0.861736 0
M  V30 4276 N 397.609 -0.515225 -1.4894 0
M  V30 4277 C 398.837 0.0206034 -2.0689 0
M  V30 4278 C 399.252 1.29514 -1.37374 0
M  V30 4279 O 398.609 1.76698 -0.456529 0
M  V30 4280 C 398.66 0.26351 -3.60538 0
M  V30 4281 O 398.381 -0.960517 -4.27441 0
M  V30 4282 C 399.882 0.841383 -4.35242 0
M  V30 4283 H 397.102 -0.0268608 -0.670462 0
M  V30 4284 H 399.646 -0.716651 -1.91532 0
M  V30 4285 H 397.801 0.950777 -3.75552 0
M  V30 4286 H 398.215 -0.73212 -5.19365 0
M  V30 4287 H 399.689 0.96085 -5.43573 0
M  V30 4288 H 400.166 1.8427 -3.98674 0
M  V30 4289 H 400.772 0.191143 -4.2487 0
M  V30 4290 N 399.087 1.5561 -0.249682 0
M  V30 4291 C 400.333 1.99306 0.374841 0
M  V30 4292 C 400.666 1.13767 1.57387 0
M  V30 4293 O 399.941 0.201711 1.93451 0
M  V30 4294 C 400.224 3.51507 0.781986 0
M  V30 4295 C 400.077 4.4781 -0.422629 0
M  V30 4296 C 401.396 4.08884 1.62793 0
M  V30 4297 H 398.515 0.724572 0.134773 0
M  V30 4298 H 401.157 1.86719 -0.351549 0
M  V30 4299 H 399.307 3.62363 1.4009 0
M  V30 4300 H 400.979 4.48931 -1.06108 0
M  V30 4301 H 399.222 4.20518 -1.06524 0
M  V30 4302 H 399.893 5.51919 -0.0943766 0
M  V30 4303 H 402.369 4.01147 1.10547 0
M  V30 4304 H 401.245 5.1564 1.88166 0
M  V30 4305 H 401.506 3.57515 2.60068 0
M  V30 4306 N 400.565 -0.0233959 1.57583 0
M  V30 4307 C 401.498 -1.05549 2.02323 0
M  V30 4308 C 402.476 -1.34843 0.908626 0
M  V30 4309 O 403.66 -1.47404 1.17491 0
M  V30 4310 C 400.787 -2.38885 2.40108 0
M  V30 4311 C 399.833 -2.2541 3.62067 0
M  V30 4312 S 400.666 -1.60217 5.1097 0
M  V30 4313 C 401.822 -2.95032 5.52003 0
M  V30 4314 H 402.055 -0.674435 2.89549 0
M  V30 4315 H 399.588 -0.23355 1.52623 0
M  V30 4316 H 401.546 -3.15562 2.62547 0
M  V30 4317 H 400.207 -2.74137 1.53323 0
M  V30 4318 H 399.4 -3.23854 3.86179 0
M  V30 4319 H 399.002 -1.56876 3.39508 0
M  V30 4320 H 401.294 -3.91357 5.53033 0
M  V30 4321 H 402.237 -2.75646 6.52246 0
M  V30 4322 H 402.645 -2.97865 4.79517 0
M  V30 4323 N 402.043 -1.548 -0.295768 0
M  V30 4324 C 402.973 -1.89115 -1.36959 0
M  V30 4325 C 403.954 -0.75059 -1.52644 0
M  V30 4326 O 405.139 -1.00678 -1.66065 0
M  V30 4327 C 402.269 -2.14307 -2.73295 0
M  V30 4328 C 401.223 -3.30151 -2.72368 0
M  V30 4329 C 400.549 -3.40772 -4.12042 0
M  V30 4330 C 401.849 -4.67126 -2.33646 0
M  V30 4331 H 403.543 -2.79053 -1.08488 0
M  V30 4332 H 401.089 -1.34266 -0.520443 0
M  V30 4333 H 403.042 -2.36898 -3.48507 0
M  V30 4334 H 401.766 -1.21145 -3.03301 0
M  V30 4335 H 400.425 -3.0749 -1.99613 0
M  V30 4336 H 400.073 -2.45117 -4.39234 0
M  V30 4337 H 399.773 -4.18645 -4.12322 0
M  V30 4338 H 401.297 -3.6563 -4.89027 0
M  V30 4339 H 402.711 -4.89414 -2.98575 0
M  V30 4340 H 401.108 -5.47751 -2.45129 0
M  V30 4341 H 402.178 -4.67489 -1.28772 0
M  V30 4342 N 403.521 0.559213 -1.47345 0
M  V30 4343 C 404.484 1.64854 -1.59235 0
M  V30 4344 C 405.484 1.53851 -0.467607 0
M  V30 4345 O 406.674 1.58045 -0.732617 0
M  V30 4346 C 403.806 3.04388 -1.53496 0
M  V30 4347 H 404.999 1.55662 -2.56339 0
M  V30 4348 H 402.552 0.778973 -1.35505 0
M  V30 4349 H 403.287 3.19115 -0.577604 0
M  V30 4350 H 403.072 3.13783 -2.35123 0
M  V30 4351 H 404.562 3.83642 -1.6495 0
M  V30 4352 N 404.999 1.35443 0.805782 0
M  V30 4353 C 405.929 1.31095 1.93226 0
M  V30 4354 C 406.91 0.185244 1.69088 0
M  V30 4355 O 408.095 0.380332 1.90439 0
M  V30 4356 C 405.225 1.08299 3.29983 0
M  V30 4357 C 404.179 2.17519 3.68605 0
M  V30 4358 C 403.505 1.79887 5.03532 0
M  V30 4359 C 404.805 3.5949 3.78898 0
M  V30 4360 H 406.499 2.25352 1.97122 0
M  V30 4361 H 404.045 1.0848 0.946996 0
M  V30 4362 H 405.998 1.03897 4.08391 0
M  V30 4363 H 404.722 0.104885 3.26432 0
M  V30 4364 H 403.381 2.2102 2.92482 0
M  V30 4365 H 403.029 0.80693 4.96485 0
M  V30 4366 H 402.729 2.53001 5.30344 0
M  V30 4367 H 404.253 1.77011 5.84379 0
M  V30 4368 H 405.667 3.58307 4.47536 0
M  V30 4369 H 404.064 4.31371 4.1718 0
M  V30 4370 H 405.134 3.95584 2.80431 0
M  V30 4371 N 406.477 -1.02803 1.19454 0
M  V30 4372 C 407.425 -2.13213 0.929673 0
M  V30 4373 C 408.419 -1.69011 -0.114806 0
M  V30 4374 O 409.625 -1.79967 0.0345147 0
M  V30 4375 H 406 -0.69662 0.28324 0
M  V30 4376 H 407.971 -2.32744 1.86743 0
M  V30 4377 C 406.72 -3.4429 0.485797 0
M  V30 4378 H 406.043 -3.7872 1.28105 0
M  V30 4379 H 407.483 -4.22638 0.339582 0
M  V30 4380 C 405.942 -3.27258 -0.800244 0
M  V30 4381 O 406.472 -3.55967 -1.86146 0
M  V30 4382 N 404.678 -2.80545 -0.75781 0
M  V30 4383 H 404.225 -2.57382 0.106039 0
M  V30 4384 H 404.183 -2.6953 -1.61867 0
M  V30 4385 N 407.956 -0.998596 -1.21925 0
M  V30 4386 C 409.184 -0.696286 -1.94832 0
M  V30 4387 C 409.599 0.740032 -1.73692 0
M  V30 4388 O 408.956 1.5 -1.03953 0
M  V30 4389 C 409.007 -0.999833 -3.47398 0
M  V30 4390 O 408.728 -2.37972 -3.67833 0
M  V30 4391 C 410.229 -0.716025 -4.37479 0
M  V30 4392 H 407.449 -0.257111 -0.619786 0
M  V30 4393 H 409.993 -1.33491 -1.54921 0
M  V30 4394 H 408.148 -0.406918 -3.85257 0
M  V30 4395 H 408.562 -2.48338 -4.61983 0
M  V30 4396 H 410.036 -0.978642 -5.43256 0
M  V30 4397 H 410.513 0.349968 -4.37803 0
M  V30 4398 H 411.119 -1.29025 -4.05256 0
M  V30 4399 N 409.434 1.37368 -0.772513 0
M  V30 4400 C 410.397 2.28601 -0.165541 0
M  V30 4401 C 411.397 1.48062 0.627238 0
M  V30 4402 O 412.587 1.68268 0.450715 0
M  V30 4403 C 409.719 3.32023 0.772897 0
M  V30 4404 H 410.912 2.83787 -0.969787 0
M  V30 4405 H 408.465 1.46647 -0.540775 0
M  V30 4406 H 409.2 2.81962 1.60212 0
M  V30 4407 H 408.985 3.91555 0.206585 0
M  V30 4408 H 410.475 4.00197 1.19298 0
M  V30 4409 N 410.912 0.523116 1.48665 0
M  V30 4410 C 411.859 -0.243398 2.29513 0
M  V30 4411 C 412.829 -0.940139 1.36933 0
M  V30 4412 O 414.014 -0.942503 1.65896 0
M  V30 4413 C 411.154 -1.28855 3.20141 0
M  V30 4414 C 410.267 -0.60135 4.27794 0
M  V30 4415 C 409.402 -1.62884 5.05611 0
M  V30 4416 C 408.441 -0.924726 6.05075 0
M  V30 4417 N 407.578 -1.89744 6.75975 0
M  V30 4418 H 412.418 0.452234 2.94549 0
M  V30 4419 H 409.955 0.234858 1.45213 0
M  V30 4420 H 411.913 -1.90674 3.71079 0
M  V30 4421 H 410.543 -1.95266 2.57043 0
M  V30 4422 H 409.595 0.130623 3.80176 0
M  V30 4423 H 410.907 -0.0481585 4.98777 0
M  V30 4424 H 410.061 -2.32149 5.60528 0
M  V30 4425 H 408.8 -2.21592 4.34452 0
M  V30 4426 H 407.805 -0.217966 5.49368 0
M  V30 4427 H 409.03 -0.343851 6.78229 0
M  V30 4428 H 406.976 -2.47373 6.07571 0
M  V30 4429 H 406.893 -1.3955 7.43009 0
M  V30 4430 H 408.161 -2.58229 7.35485 0
M  V30 4431 N 412.39 -1.55475 0.257931 0
M  V30 4432 C 413.353 -2.20551 -0.623706 0
M  V30 4433 C 414.353 -1.17809 -1.09443 0
M  V30 4434 O 415.543 -1.42823 -0.997362 0
M  V30 4435 C 412.675 -2.85784 -1.8585 0
M  V30 4436 H 413.868 -2.99848 -0.0557743 0
M  V30 4437 H 411.421 -1.56298 0.0084422 0
M  V30 4438 H 412.156 -2.10453 -2.46739 0
M  V30 4439 H 411.941 -3.61057 -1.52907 0
M  V30 4440 H 413.431 -3.35553 -2.48584 0
M  V30 4441 N 413.868 0.0150385 -1.57593 0
M  V30 4442 C 415.279 0.559832 -1.78109 0
M  V30 4443 C 415.63 1.74814 -0.890756 0
M  V30 4444 O 414.755 2.16216 -0.0892482 0
M  V30 4445 C 415.35 1.02238 -3.23006 0
M  V30 4446 C 413.909 1.51258 -3.44671 0
M  V30 4447 C 413.056 0.456955 -2.73509 0
M  V30 4448 H 416.007 -0.211169 -1.57289 0
M  V30 4449 H 416.028 1.88912 -3.30292 0
M  V30 4450 H 415.54 0.157302 -3.87781 0
M  V30 4451 H 413.641 2.39905 -2.8509 0
M  V30 4452 H 413.754 1.55042 -4.5332 0
M  V30 4453 H 412.118 0.915196 -2.37689 0
M  V30 4454 H 412.901 -0.398896 -3.40975 0
M  V30 4455 N 415.346 1.54954 0.287554 0
M  V30 4456 C 416.574 1.78881 1.03967 0
M  V30 4457 C 416.989 0.554894 1.80462 0
M  V30 4458 O 416.346 -0.475676 1.76192 0
M  V30 4459 C 416.397 3.00488 2.0097 0
M  V30 4460 O 416.118 4.19113 1.27577 0
M  V30 4461 C 417.619 3.36907 2.88112 0
M  V30 4462 H 414.839 0.596259 0.307761 0
M  V30 4463 H 417.383 2.01937 0.322749 0
M  V30 4464 H 415.538 2.79601 2.68145 0
M  V30 4465 H 415.952 4.87765 1.92835 0
M  V30 4466 H 417.426 4.25205 3.52001 0
M  V30 4467 H 417.903 2.55659 3.57121 0
M  V30 4468 H 418.509 3.60001 2.26449 0
M  V30 4469 N 416.824 -0.551391 1.4764 0
M  V30 4470 C 417.772 -1.67896 1.60978 0
M  V30 4471 C 418.766 -1.62549 0.476877 0
M  V30 4472 O 419.972 -1.67664 0.654878 0
M  V30 4473 H 416.347 -0.555649 0.506713 0
M  V30 4474 H 418.318 -1.53784 2.55721 0
M  V30 4475 C 417.067 -3.06234 1.64669 0
M  V30 4476 H 416.39 -3.11033 2.51194 0
M  V30 4477 H 417.83 -3.84804 1.7805 0
M  V30 4478 C 416.289 -3.34737 0.381115 0
M  V30 4479 O 416.819 -3.98381 -0.515297 0
M  V30 4480 N 415.025 -2.8944 0.259354 0
M  V30 4481 H 414.572 -2.37827 0.98976 0
M  V30 4482 H 414.53 -3.08882 -0.586464 0
M  V30 4483 N 418.302 -1.35869 -0.798587 0
M  V30 4484 C 419.212 -1.31578 -1.94228 0
M  V30 4485 C 420.228 -0.21939 -1.72611 0
M  V30 4486 O 421.404 -0.450167 -1.96305 0
M  V30 4487 C 418.469 -1.09528 -3.28944 0
M  V30 4488 C 417.53 -2.28556 -3.63402 0
M  V30 4489 C 416.763 -2.07549 -4.9169 0
M  V30 4490 O 416.986 -1.046 -5.60727 0
M  V30 4491 O 415.92 -2.95106 -5.24591 0
M  V30 4492 H 419.746 -2.27847 -2.00796 0
M  V30 4493 H 417.331 -1.16322 -0.937526 0
M  V30 4494 H 419.213 -0.991127 -4.09579 0
M  V30 4495 H 417.888 -0.16315 -3.23289 0
M  V30 4496 H 416.795 -2.44538 -2.83112 0
M  V30 4497 H 418.128 -3.20244 -3.73771 0
M  V30 4498 N 419.78 1.02168 -1.19998 0
M  V30 4499 C 420.71 2.12488 -0.96804 0
M  V30 4500 C 421.691 1.69799 0.101185 0
M  V30 4501 O 422.876 1.94121 -0.0552993 0
M  V30 4502 C 420.006 3.43479 -0.513776 0
M  V30 4503 C 418.96 3.99884 -1.52566 0
M  V30 4504 C 418.286 5.26582 -0.928214 0
M  V30 4505 C 419.586 4.33861 -2.90795 0
M  V30 4506 H 421.28 2.32149 -1.89069 0
M  V30 4507 H 418.826 1.11564 -0.910468 0
M  V30 4508 H 420.779 4.20036 -0.338774 0
M  V30 4509 H 419.503 3.23561 0.444493 0
M  V30 4510 H 418.162 3.25429 -1.68794 0
M  V30 4511 H 417.81 5.02986 0.0378289 0
M  V30 4512 H 417.51 5.65284 -1.60397 0
M  V30 4513 H 419.034 6.05799 -0.764167 0
M  V30 4514 H 420.448 5.01327 -2.78109 0
M  V30 4515 H 418.845 4.83664 -3.55231 0
M  V30 4516 H 419.915 3.42848 -3.42904 0
M  V30 4517 N 421.258 1.00505 1.21394 0
M  V30 4518 C 422.221 0.570459 2.21987 0
M  V30 4519 C 423.221 -0.353211 1.56873 0
M  V30 4520 O 424.411 -0.14349 1.73608 0
M  V30 4521 C 421.543 -0.168555 3.40483 0
M  V30 4522 H 422.736 1.46021 2.6195 0
M  V30 4523 H 420.289 0.793565 1.34656 0
M  V30 4524 H 421.024 -1.07374 3.06009 0
M  V30 4525 H 420.809 0.494823 3.88965 0
M  V30 4526 H 422.299 -0.460362 4.15055 0
M  V30 4527 N 422.737 -1.36956 0.779787 0
M  V30 4528 C 423.983 -1.99787 0.348281 0
M  V30 4529 C 424.316 -1.61756 -1.07465 0
M  V30 4530 O 423.591 -0.867639 -1.74075 0
M  V30 4531 C 423.874 -3.56597 0.50104 0
M  V30 4532 C 423.727 -4.04513 1.96697 0
M  V30 4533 C 425.046 -4.40008 -0.0898097 0
M  V30 4534 H 422.165 -0.725796 0.128022 0
M  V30 4535 H 424.807 -1.62514 0.984331 0
M  V30 4536 H 422.957 -3.88479 -0.0404347 0
M  V30 4537 H 424.629 -3.83161 2.56876 0
M  V30 4538 H 422.872 -3.56408 2.47297 0
M  V30 4539 H 423.543 -5.1352 2.02486 0
M  V30 4540 H 426.019 -4.14431 0.372293 0
M  V30 4541 H 424.895 -5.4888 0.0471605 0
M  V30 4542 H 425.156 -4.26035 -1.18096 0
M  V30 4543 N 424.215 -0.530993 -1.48385 0
M  V30 4544 C 425.631 -0.188919 -1.58478 0
M  V30 4545 C 425.831 1.30786 -1.53288 0
M  V30 4546 O 424.887 2.08619 -1.42248 0
M  V30 4547 C 426.2 -0.792343 -2.90073 0
M  V30 4548 C 427.748 -0.76117 -3.03604 0
M  V30 4549 C 428.223 -1.34319 -4.37861 0
M  V30 4550 N 429.714 -1.3052 -4.44431 0
M  V30 4551 C 430.449 -1.72543 -5.46824 0
M  V30 4552 N 429.945 -2.22299 -6.56167 0
M  V30 4553 N 431.738 -1.63773 -5.37712 0
M  V30 4554 H 423.889 -1.50377 -1.50002 0
M  V30 4555 H 426.152 -0.625559 -0.712306 0
M  V30 4556 H 425.858 -1.84323 -2.99529 0
M  V30 4557 H 425.732 -0.270026 -3.76232 0
M  V30 4558 H 428.119 0.280957 -2.93759 0
M  V30 4559 H 428.2 -1.32097 -2.19053 0
M  V30 4560 H 427.844 -2.38425 -4.4846 0
M  V30 4561 H 427.774 -0.759064 -5.21101 0
M  V30 4562 H 430.265 -0.940973 -3.65997 0
M  V30 4563 H 430.578 -2.52356 -7.30436 0
M  V30 4564 H 428.923 -2.26293 -6.57127 0
M  V30 4565 H 432.114 -1.24698 -4.51185 0
M  V30 4566 H 432.287 -1.96844 -6.17379 0
M  V30 4567 N 425.693 1.55336 -0.266172 0
M  V30 4568 C 426.603 2.2583 0.635458 0
M  V30 4569 C 427.619 1.28106 1.17749 0
M  V30 4570 O 428.795 1.61024 1.20968 0
M  V30 4571 C 425.86 2.95879 1.80712 0
M  V30 4572 C 424.921 4.09059 1.30265 0
M  V30 4573 C 424.154 4.75759 2.41846 0
M  V30 4574 O 424.377 4.41622 3.61007 0
M  V30 4575 O 423.311 5.63888 2.1051 0
M  V30 4576 H 427.137 3.03631 0.0646693 0
M  V30 4577 H 424.722 1.49361 -0.0339177 0
M  V30 4578 H 426.604 3.39932 2.49047 0
M  V30 4579 H 425.279 2.21002 2.36516 0
M  V30 4580 H 424.186 3.69482 0.586019 0
M  V30 4581 H 425.519 4.85811 0.790458 0
M  V30 4582 N 427.171 -0.0066808 1.57599 0
M  V30 4583 C 428.134 -0.985035 2.06953 0
M  V30 4584 C 429.134 -1.27663 0.977687 0
M  V30 4585 O 430.324 -1.22293 1.24057 0
M  V30 4586 C 427.456 -2.3118 2.50536 0
M  V30 4587 H 428.649 -0.558255 2.94658 0
M  V30 4588 H 426.202 -0.254011 1.54222 0
M  V30 4589 H 426.937 -2.78561 1.66054 0
M  V30 4590 H 426.722 -2.11338 3.3027 0
M  V30 4591 H 428.212 -3.01377 2.8907 0
M  V30 4592 N 428.649 -1.55105 -0.279332 0
M  V30 4593 C 429.579 -1.90557 -1.34945 0
M  V30 4594 C 430.56 -0.766738 -1.51839 0
M  V30 4595 O 431.745 -1.02434 -1.64988 0
M  V30 4596 C 428.875 -2.17193 -2.71006 0
M  V30 4597 C 427.829 -3.33021 -2.68851 0
M  V30 4598 C 427.155 -3.45123 -4.08405 0
M  V30 4599 C 428.455 -4.69578 -2.28678 0
M  V30 4600 H 430.149 -2.80188 -1.05522 0
M  V30 4601 H 427.695 -1.34811 -0.506173 0
M  V30 4602 H 429.648 -2.40581 -3.45975 0
M  V30 4603 H 428.372 -1.24355 -3.01999 0
M  V30 4604 H 427.031 -3.0959 -1.9634 0
M  V30 4605 H 426.679 -2.49762 -4.3661 0
M  V30 4606 H 426.379 -4.22995 -4.07859 0
M  V30 4607 H 427.903 -3.70796 -4.85121 0
M  V30 4608 H 429.317 -4.92553 -2.93368 0
M  V30 4609 H 427.714 -5.5032 -2.39306 0
M  V30 4610 H 428.784 -4.68828 -1.23807 0
M  V30 4611 N 430.127 0.543554 -1.4793 0
M  V30 4612 C 431.075 1.67039 -1.61866 0
M  V30 4613 C 432.069 1.62294 -0.48549 0
M  V30 4614 O 433.275 1.67315 -0.66376 0
M  V30 4615 H 429.65 0.552954 -0.509652 0
M  V30 4616 H 431.621 1.52426 -2.56533 0
M  V30 4617 C 430.37 3.05357 -1.6629 0
M  V30 4618 H 429.693 3.09696 -2.5284 0
M  V30 4619 H 431.133 3.83855 -1.80088 0
M  V30 4620 C 429.592 3.34531 -0.398861 0
M  V30 4621 O 430.122 3.98649 0.494162 0
M  V30 4622 N 428.328 2.89299 -0.2747 0
M  V30 4623 H 427.875 2.37298 -1.00236 0
M  V30 4624 H 427.833 3.09188 0.570075 0
M  V30 4625 N 431.605 1.3629 0.791371 0
M  V30 4626 C 432.835 1.33368 1.57786 0
M  V30 4627 C 433.243 -0.0875188 1.88997 0
M  V30 4628 O 432.586 -1.05427 1.50435 0
M  V30 4629 C 432.648 2.08802 2.92646 0
M  V30 4630 C 432.312 3.57903 2.84174 0
M  V30 4631 C 433.309 4.52191 2.56553 0
M  V30 4632 C 430.994 4.00762 3.02812 0
M  V30 4633 C 432.988 5.87315 2.47669 0
M  V30 4634 C 430.675 5.35977 2.93551 0
M  V30 4635 C 431.673 6.29066 2.66017 0
M  V30 4636 O 431.361 7.61798 2.56746 0
M  V30 4637 H 431.093 0.459166 0.496128 0
M  V30 4638 H 433.647 1.79952 0.990269 0
M  V30 4639 H 431.877 1.56878 3.53449 0
M  V30 4640 H 433.566 1.98762 3.53904 0
M  V30 4641 H 434.332 4.20393 2.41858 0
M  V30 4642 H 430.211 3.2868 3.2325 0
M  V30 4643 H 433.755 6.59943 2.26099 0
M  V30 4644 H 429.652 5.67384 3.07808 0
M  V30 4645 H 430.42 7.71898 2.72242 0
M  V30 4646 N 433.083 -1.0153 1.20538 0
M  V30 4647 C 434.046 -2.0826 0.957098 0
M  V30 4648 C 435.046 -1.60657 -0.0678655 0
M  V30 4649 O 436.236 -1.73385 0.168332 0
M  V30 4650 C 433.368 -3.38033 0.441188 0
M  V30 4651 H 434.561 -2.31719 1.90384 0
M  V30 4652 H 432.114 -1.1835 1.02093 0
M  V30 4653 H 432.849 -3.20249 -0.510961 0
M  V30 4654 H 432.634 -3.73911 1.18038 0
M  V30 4655 H 434.124 -4.16613 0.287009 0
M  V30 4656 N 434.561 -1.01147 -1.20859 0
M  V30 4657 C 435.807 -0.698899 -1.90377 0
M  V30 4658 C 436.14 0.76904 -1.78324 0
M  V30 4659 O 435.415 1.55817 -1.16409 0
M  V30 4660 C 435.698 -1.12878 -3.41951 0
M  V30 4661 C 435.551 -2.65665 -3.62963 0
M  V30 4662 C 436.87 -0.696114 -4.3456 0
M  V30 4663 H 433.989 -0.255372 -0.691342 0
M  V30 4664 H 436.631 -1.25831 -1.42361 0
M  V30 4665 H 434.781 -0.652827 -3.82976 0
M  V30 4666 H 436.453 -3.21074 -3.31224 0
M  V30 4667 H 434.696 -3.06878 -3.06608 0
M  V30 4668 H 435.367 -2.90797 -4.69192 0
M  V30 4669 H 437.843 -1.10521 -4.01154 0
M  V30 4670 H 436.719 -1.025 -5.39245 0
M  V30 4671 H 436.98 0.402465 -4.40264 0
M  V30 4672 N 436.039 1.36541 -0.78704 0
M  V30 4673 C 436.987 2.31965 -0.171724 0
M  V30 4674 C 437.981 1.55689 0.667631 0
M  V30 4675 O 439.187 1.70969 0.562981 0
M  V30 4676 H 435.562 0.751101 -0.0367545 0
M  V30 4677 H 437.533 2.81428 -0.992017 0
M  V30 4678 C 436.282 3.40968 0.680904 0
M  V30 4679 H 435.605 3.99775 0.0443961 0
M  V30 4680 H 437.045 4.10063 1.07815 0
M  V30 4681 C 435.504 2.82338 1.83813 0
M  V30 4682 O 436.034 2.74311 2.93456 0
M  V30 4683 N 434.24 2.39661 1.6435 0
M  V30 4684 H 433.787 2.46389 0.751668 0
M  V30 4685 H 433.745 2.00779 2.4194 0
M  V30 4686 N 437.518 0.538854 1.48102 0
M  V30 4687 C 438.465 -0.219042 2.29758 0
M  V30 4688 C 439.435 -0.925562 1.37922 0
M  V30 4689 O 440.62 -0.924855 1.66886 0
M  V30 4690 C 437.76 -1.25452 3.2149 0
M  V30 4691 C 436.873 -0.555943 4.28408 0
M  V30 4692 C 436.008 -1.57512 5.0731 0
M  V30 4693 C 435.047 -0.860498 6.06021 0
M  V30 4694 N 434.184 -1.82564 6.77949 0
M  V30 4695 H 439.024 0.483449 2.94052 0
M  V30 4696 H 436.561 0.250247 1.44956 0
M  V30 4697 H 438.519 -1.86727 3.7308 0
M  V30 4698 H 437.149 -1.92528 2.591 0
M  V30 4699 H 436.201 0.170938 3.80016 0
M  V30 4700 H 437.513 0.00474616 4.988 0
M  V30 4701 H 436.667 -2.26191 5.62959 0
M  V30 4702 H 435.406 -2.16972 4.36778 0
M  V30 4703 H 434.411 -0.159686 5.49568 0
M  V30 4704 H 435.636 -0.271897 6.78555 0
M  V30 4705 H 433.582 -2.40915 6.10161 0
M  V30 4706 H 433.499 -1.31662 7.44447 0
M  V30 4707 H 434.767 -2.50414 7.38182 0
M  V30 4708 N 438.996 -1.55193 0.274407 0
M  V30 4709 C 439.943 -2.225 -0.613374 0
M  V30 4710 C 440.913 -1.19823 -1.15029 0
M  V30 4711 O 442.098 -1.48362 -1.19973 0
M  V30 4712 C 439.238 -2.94927 -1.79199 0
M  V30 4713 C 438.351 -4.12322 -1.28899 0
M  V30 4714 C 437.486 -4.72394 -2.42934 0
M  V30 4715 C 436.525 -5.81984 -1.89634 0
M  V30 4716 N 435.662 -6.36123 -2.9714 0
M  V30 4717 H 440.502 -2.97982 -0.032756 0
M  V30 4718 H 438.039 -1.47099 -0.00440146 0
M  V30 4719 H 439.997 -3.35134 -2.48478 0
M  V30 4720 H 438.627 -2.2187 -2.34465 0
M  V30 4721 H 437.679 -3.7724 -0.489327 0
M  V30 4722 H 438.991 -4.91355 -0.858587 0
M  V30 4723 H 438.145 -5.15317 -3.20208 0
M  V30 4724 H 436.884 -3.92636 -2.8929 0
M  V30 4725 H 435.889 -5.38511 -1.1084 0
M  V30 4726 H 437.114 -6.6361 -1.44215 0
M  V30 4727 H 435.06 -5.59259 -3.42878 0
M  V30 4728 H 434.977 -7.10427 -2.58515 0
M  V30 4729 H 436.245 -6.83704 -3.74391 0
M  V30 4730 N 440.474 -0.00167713 -1.576 0
M  V30 4731 C 441.699 0.69739 -1.95323 0
M  V30 4732 C 442.124 1.6642 -0.876706 0
M  V30 4733 O 441.482 1.80548 0.165007 0
M  V30 4734 C 441.53 1.40403 -3.32144 0
M  V30 4735 O 440.634 2.5185 -3.26566 0
M  V30 4736 H 439.975 0.185373 -0.637599 0
M  V30 4737 H 442.505 -0.0553665 -2.04525 0
M  V30 4738 H 442.515 1.76707 -3.67748 0
M  V30 4739 H 441.19 0.695167 -4.10049 0
M  V30 4740 H 439.767 2.17861 -3.0264 0
M  V30 4741 N 441.952 1.55251 0.271103 0
M  V30 4742 C 442.882 1.9127 1.33933 0
M  V30 4743 C 443.863 0.77478 1.5143 0
M  V30 4744 O 445.048 1.03307 1.64442 0
M  V30 4745 C 442.178 2.18627 2.69851 0
M  V30 4746 C 441.132 3.34442 2.67081 0
M  V30 4747 C 440.458 3.47284 4.06569 0
M  V30 4748 C 441.758 4.70784 2.26185 0
M  V30 4749 H 443.452 2.80744 1.04035 0
M  V30 4750 H 440.998 1.35077 0.499017 0
M  V30 4751 H 442.951 2.42413 3.44694 0
M  V30 4752 H 441.675 1.25955 3.01335 0
M  V30 4753 H 440.334 3.10627 1.94695 0
M  V30 4754 H 439.982 2.52074 4.35279 0
M  V30 4755 H 439.682 4.25152 4.0561 0
M  V30 4756 H 441.206 3.73363 4.83148 0
M  V30 4757 H 442.62 4.94102 2.90751 0
M  V30 4758 H 441.017 5.51582 2.36384 0
M  V30 4759 H 442.087 4.69478 1.21319 0
M  V30 4760 N 443.43 -0.535701 1.48216 0
M  V30 4761 C 444.679 -1.28828 1.55197 0
M  V30 4762 C 444.992 -1.94263 0.228278 0
M  V30 4763 O 446.198 -2.70927 0.176278 0
M  V30 4764 C 444.654 -2.33727 2.73678 0
M  V30 4765 C 444.262 -1.74386 4.12666 0
M  V30 4766 C 446.006 -3.1003 2.89968 0
M  V30 4767 C 443.913 -2.77192 5.22416 0
M  V30 4768 H 442.843 -0.484484 0.577747 0
M  V30 4769 H 445.494 -0.56646 1.74538 0
M  V30 4770 H 443.876 -3.08919 2.4776 0
M  V30 4771 H 445.05 -1.05421 4.48579 0
M  V30 4772 H 443.365 -1.10595 4.01445 0
M  V30 4773 H 445.962 -3.86842 3.6913 0
M  V30 4774 H 446.305 -3.65542 1.9921 0
M  V30 4775 H 446.838 -2.41952 3.15759 0
M  V30 4776 H 443.577 -2.26507 6.15122 0
M  V30 4777 H 443.097 -3.44502 4.90998 0
M  V30 4778 H 444.776 -3.40285 5.50286 0
M  V30 4779 N 444.908 -1.36708 -0.784132 0
M  V30 4780 C 446.185 -1.21776 -1.53069 0
M  V30 4781 C 446.565 0.193876 -2.10208 0
M  V30 4782 O 445.913 1.20012 -1.94446 0
M  V30 4783 C 446.123 -2.30395 -2.62143 0
M  V30 4784 C 447.471 -2.67325 -3.29882 0
M  V30 4785 O 448.495 -2.29478 -2.7243 0
M  V30 4786 O 447.354 -3.32485 -4.33724 0
M  V30 4787 H 444.448 -0.474459 -0.677361 0
M  V30 4788 H 446.994 -1.48454 -0.82216 0
M  V30 4789 H 445.766 -3.2498 -2.17953 0
M  V30 4790 H 445.389 -2.05112 -3.40609 0
M  V30 4791 N 446.386 1.0089 -1.21074 0
M  V30 4792 C 447.334 2.11707 -0.963476 0
M  V30 4793 C 448.328 1.69172 0.0879032 0
M  V30 4794 O 449.534 1.79889 -0.0631415 0
M  V30 4795 H 445.909 0.692026 -0.294287 0
M  V30 4796 H 447.88 2.29743 -1.90422 0
M  V30 4797 C 446.629 3.43473 -0.540509 0
M  V30 4798 H 445.952 3.76634 -1.34114 0
M  V30 4799 H 447.392 4.22044 -0.406777 0
M  V30 4800 C 445.851 3.2849 0.748079 0
M  V30 4801 O 446.381 3.58883 1.8046 0
M  V30 4802 N 444.587 2.81715 0.713081 0
M  V30 4803 H 444.134 2.5718 -0.146973 0
M  V30 4804 H 444.092 2.72071 1.57558 0
M  V30 4805 N 447.864 1.01787 1.20321 0
M  V30 4806 C 448.827 0.593972 2.2137 0
M  V30 4807 C 449.827 -0.336553 1.57239 0
M  V30 4808 O 451.017 -0.125069 1.7375 0
M  V30 4809 C 448.149 -0.132433 3.40643 0
M  V30 4810 H 449.342 1.48791 2.60387 0
M  V30 4811 H 446.895 0.807803 1.33807 0
M  V30 4812 H 447.63 -1.04123 3.0713 0
M  V30 4813 H 447.415 0.53605 3.88418 0
M  V30 4814 H 448.905 -0.416314 4.1552 0
M  V30 4815 N 449.342 -1.36122 0.79427 0
M  V30 4816 C 450.272 -2.32551 0.210328 0
M  V30 4817 C 451.253 -1.56884 -0.657386 0
M  V30 4818 O 452.438 -1.85014 -0.590207 0
M  V30 4819 C 449.568 -3.41128 -0.651819 0
M  V30 4820 C 448.522 -4.27842 0.116395 0
M  V30 4821 C 447.848 -5.2763 -0.86666 0
M  V30 4822 C 449.148 -5.05647 1.30837 0
M  V30 4823 H 450.842 -2.81636 1.01594 0
M  V30 4824 H 448.388 -1.35407 0.489981 0
M  V30 4825 H 450.341 -4.07581 -1.07031 0
M  V30 4826 H 449.065 -2.90622 -1.49019 0
M  V30 4827 H 447.724 -3.62952 0.515915 0
M  V30 4828 H 447.372 -4.73395 -1.70019 0
M  V30 4829 H 447.072 -5.86514 -0.35705 0
M  V30 4830 H 448.596 -5.96955 -1.28361 0
M  V30 4831 H 450.01 -5.65113 0.965393 0
M  V30 4832 H 448.407 -5.73967 1.75161 0
M  V30 4833 H 449.477 -4.37006 2.10128 0
M  V30 4834 N 450.82 -0.546701 -1.47814 0
M  V30 4835 C 452.05 -0.0232519 -2.06587 0
M  V30 4836 C 452.458 1.2712 -1.40133 0
M  V30 4837 O 451.801 1.77091 -0.488305 0
M  V30 4838 C 451.863 0.254117 -3.58601 0
M  V30 4839 C 451.527 -0.949331 -4.47031 0
M  V30 4840 C 452.524 -1.85216 -4.85789 0
M  V30 4841 C 450.209 -1.16104 -4.88697 0
M  V30 4842 C 452.203 -2.95047 -5.65001 0
M  V30 4843 C 449.89 -2.26247 -5.67676 0
M  V30 4844 C 450.888 -3.1555 -6.05737 0
M  V30 4845 O 450.576 -4.23784 -6.83127 0
M  V30 4846 H 450.308 -0.0380082 -0.674931 0
M  V30 4847 H 452.862 -0.756631 -1.90956 0
M  V30 4848 H 451.092 1.04168 -3.72406 0
M  V30 4849 H 452.781 0.72167 -3.99433 0
M  V30 4850 H 453.547 -1.70061 -4.54207 0
M  V30 4851 H 449.426 -0.475159 -4.58545 0
M  V30 4852 H 452.97 -3.64778 -5.94628 0
M  V30 4853 H 448.867 -2.41379 -5.98671 0
M  V30 4854 H 449.635 -4.21701 -7.01506 0
M  V30 4855 N 452.299 1.55045 -0.282633 0
M  V30 4856 C 453.547 1.99365 0.331334 0
M  V30 4857 C 453.868 1.1725 1.55812 0
M  V30 4858 O 453.138 0.263871 1.94115 0
M  V30 4859 H 451.718 0.736397 0.125414 0
M  V30 4860 H 454.38 1.90964 -0.389711 0
M  V30 4861 H 453.476 3.0596 0.616036 0
M  V30 4862 N 453.777 0.010035 1.57597 0
M  V30 4863 C 455.005 -0.683413 1.95287 0
M  V30 4864 C 455.42 -1.66747 0.885481 0
M  V30 4865 O 454.777 -1.82003 -0.134629 0
M  V30 4866 C 454.828 -1.40652 3.33015 0
M  V30 4867 O 454.549 -0.461916 4.35658 0
M  V30 4868 C 456.05 -2.19356 3.85225 0
M  V30 4869 H 453.27 -0.189708 0.643624 0
M  V30 4870 H 455.814 0.0641359 2.04399 0
M  V30 4871 H 453.969 -2.10562 3.2518 0
M  V30 4872 H 454.383 -0.973215 5.15392 0
M  V30 4873 H 455.857 -2.65433 4.83993 0
M  V30 4874 H 456.334 -3.02457 3.18459 0
M  V30 4875 H 456.94 -1.54442 3.96267 0
M  V30 4876 N 455.255 -1.55392 -0.262866 0
M  V30 4877 C 456.187 -1.85392 -1.34768 0
M  V30 4878 C 457.2 -0.739069 -1.45057 0
M  V30 4879 O 458.389 -1.01703 -1.46693 0
M  V30 4880 C 455.489 -2.01088 -2.72795 0
M  V30 4881 C 454.662 -3.31828 -2.84972 0
M  V30 4882 C 453.721 -3.37464 -4.03738 0
M  V30 4883 O 452.747 -4.10778 -3.94018 0
M  V30 4884 N 453.949 -2.65599 -5.16176 0
M  V30 4885 H 456.714 -2.79029 -1.09375 0
M  V30 4886 H 454.275 -1.55434 -0.452981 0
M  V30 4887 H 456.267 -2.02217 -3.50557 0
M  V30 4888 H 454.837 -1.1427 -2.90966 0
M  V30 4889 H 454.057 -3.43152 -1.94012 0
M  V30 4890 H 455.345 -4.18032 -2.90045 0
M  V30 4891 H 454.743 -2.05736 -5.26962 0
M  V30 4892 H 453.3 -2.72439 -5.92132 0
M  V30 4893 N 456.733 0.527833 -1.48498 0
M  V30 4894 C 457.665 1.6482 -1.5927 0
M  V30 4895 C 458.678 1.55659 -0.476869 0
M  V30 4896 O 459.867 1.62081 -0.747806 0
M  V30 4897 C 456.967 3.0348 -1.50842 0
M  V30 4898 C 456.14 3.381 -2.77502 0
M  V30 4899 C 455.199 4.5605 -2.62497 0
M  V30 4900 O 454.225 4.59165 -3.36387 0
M  V30 4901 N 455.427 5.54353 -1.72257 0
M  V30 4902 H 458.192 1.56015 -2.55889 0
M  V30 4903 H 455.753 0.715152 -1.45249 0
M  V30 4904 H 457.745 3.80264 -1.38496 0
M  V30 4905 H 456.315 3.06352 -0.621887 0
M  V30 4906 H 455.535 2.50473 -3.04396 0
M  V30 4907 H 456.823 3.58017 -3.61527 0
M  V30 4908 H 456.221 5.54617 -1.11431 0
M  V30 4909 H 454.778 6.30347 -1.65849 0
M  V30 4910 N 458.211 1.37122 0.776871 0
M  V30 4911 C 459.457 1.32243 1.53752 0
M  V30 4912 C 459.79 -0.0944745 1.9397 0
M  V30 4913 O 459.065 -1.05068 1.6368 0
M  V30 4914 C 459.348 2.25681 2.80607 0
M  V30 4915 C 459.201 3.76127 2.46676 0
M  V30 4916 C 460.52 2.17657 3.82509 0
M  V30 4917 H 457.639 0.481704 0.557791 0
M  V30 4918 H 460.281 1.6778 0.891612 0
M  V30 4919 H 458.431 1.95505 3.35723 0
M  V30 4920 H 460.103 4.16877 1.97513 0
M  V30 4921 H 458.346 3.94946 1.79443 0
M  V30 4922 H 459.017 4.36933 3.37333 0
M  V30 4923 H 461.493 2.44245 3.36873 0
M  V30 4924 H 460.369 2.85185 4.69 0
M  V30 4925 H 460.63 1.16785 4.26396 0
M  V30 4926 N 459.689 -1.00246 1.21608 0
M  V30 4927 C 460.652 -2.07233 0.979133 0
M  V30 4928 C 461.652 -1.6072 -0.0508219 0
M  V30 4929 O 462.842 -1.73196 0.186712 0
M  V30 4930 C 459.974 -3.37546 0.477016 0
M  V30 4931 H 461.167 -2.29687 1.92831 0
M  V30 4932 H 458.72 -1.17261 1.03342 0
M  V30 4933 H 459.455 -3.20773 -0.476966 0
M  V30 4934 H 459.24 -3.72638 1.21997 0
M  V30 4935 H 460.73 -4.16285 0.331181 0
M  V30 4936 N 461.167 -1.02423 -1.1978 0
M  V30 4937 C 462.444 -0.632802 -1.85081 0
M  V30 4938 C 462.824 0.888745 -1.9148 0
M  V30 4939 O 462.172 1.78357 -1.42832 0
M  V30 4940 C 462.382 -1.28947 -3.24305 0
M  V30 4941 C 463.73 -1.40976 -4.00513 0
M  V30 4942 O 464.754 -1.24628 -3.33686 0
M  V30 4943 O 463.613 -1.67467 -5.20209 0
M  V30 4944 H 460.707 -0.219348 -0.79738 0
M  V30 4945 H 463.253 -1.12209 -1.27307 0
M  V30 4946 H 462.025 -2.3288 -3.14456 0
M  V30 4947 H 461.648 -0.787748 -3.89718 0
M  V30 4948 N 462.645 1.35699 -0.801477 0
M  V30 4949 C 463.873 2.03157 -0.391768 0
M  V30 4950 C 464.288 1.60412 0.995668 0
M  V30 4951 O 463.645 0.799228 1.64069 0
M  V30 4952 C 463.696 3.58566 -0.459671 0
M  V30 4953 O 463.417 3.99756 -1.7924 0
M  V30 4954 C 464.918 4.4328 -0.0421205 0
M  V30 4955 H 462.138 0.651688 -0.159825 0
M  V30 4956 H 464.682 1.73426 -1.08368 0
M  V30 4957 H 462.837 3.86963 0.183939 0
M  V30 4958 H 463.251 4.94387 -1.75162 0
M  V30 4959 H 464.725 5.51821 -0.140754 0
M  V30 4960 H 465.202 4.27383 1.01196 0
M  V30 4961 H 465.808 4.20168 -0.658687 0
M  V30 4962 N 464.123 0.554532 1.47522 0
M  V30 4963 C 465.053 -0.182974 2.32782 0
M  V30 4964 C 466.034 -0.911377 1.43624 0
M  V30 4965 O 467.219 -0.892366 1.72483 0
M  V30 4966 C 464.349 -1.21513 3.25349 0
M  V30 4967 C 463.303 -0.603355 4.23726 0
M  V30 4968 C 462.629 -1.73995 5.05598 0
M  V30 4969 C 463.929 0.441121 5.20434 0
M  V30 4970 H 465.623 0.52882 2.94693 0
M  V30 4971 H 463.169 0.255759 1.41711 0
M  V30 4972 H 465.122 -1.73922 3.83835 0
M  V30 4973 H 463.846 -1.95683 2.61487 0
M  V30 4974 H 462.505 -0.10059 3.66462 0
M  V30 4975 H 462.153 -2.47063 4.38143 0
M  V30 4976 H 461.853 -1.3364 5.72201 0
M  V30 4977 H 463.377 -2.26735 5.66942 0
M  V30 4978 H 464.791 0.00319931 5.733 0
M  V30 4979 H 463.188 0.763402 5.95224 0
M  V30 4980 H 464.258 1.33799 4.66075 0
M  V30 4981 N 465.601 -1.54893 0.290851 0
M  V30 4982 C 466.848 -1.99933 -0.321391 0
M  V30 4983 C 467.176 -1.17927 -1.54672 0
M  V30 4984 O 466.431 -0.240902 -1.94212 0
M  V30 4985 C 466.73 -3.49815 -0.732397 0
M  V30 4986 C 466.396 -4.4921 0.390056 0
M  V30 4987 C 465.058 -4.76107 0.698223 0
M  V30 4988 C 467.41 -5.08453 1.14562 0
M  V30 4989 C 464.738 -5.59514 1.76526 0
M  V30 4990 C 467.09 -5.9302 2.2025 0
M  V30 4991 C 465.754 -6.18232 2.51684 0
M  V30 4992 H 465.024 -0.731608 -0.117605 0
M  V30 4993 H 467.671 -1.87107 0.407839 0
M  V30 4994 H 465.976 -3.60199 -1.54155 0
M  V30 4995 H 467.673 -3.82083 -1.21712 0
M  V30 4996 H 464.263 -4.28372 0.13976 0
M  V30 4997 H 468.447 -4.87683 0.920801 0
M  V30 4998 H 463.703 -5.77289 2.01364 0
M  V30 4999 H 467.877 -6.37955 2.7926 0
M  V30 5000 H 465.504 -6.82653 3.34499 0
M  V30 5001 N 467.08 -0.0183926 -1.57589 0
M  V30 5002 C 468.043 0.951986 -2.08494 0
M  V30 5003 C 469.043 1.26092 -0.997874 0
M  V30 5004 O 470.233 1.20304 -1.25987 0
M  V30 5005 C 467.365 2.27165 -2.54182 0
M  V30 5006 H 468.558 0.511307 -2.95509 0
M  V30 5007 H 466.111 0.229444 -1.54607 0
M  V30 5008 H 466.846 2.75884 -1.70465 0
M  V30 5009 H 466.631 2.06057 -3.33591 0
M  V30 5010 H 468.121 2.9674 -2.93828 0
M  V30 5011 N 468.558 1.5553 0.254621 0
M  V30 5012 C 469.969 1.67518 0.824286 0
M  V30 5013 C 470.32 0.614429 1.86331 0
M  V30 5014 O 469.445 -0.240736 2.15057 0
M  V30 5015 C 470.04 3.03692 1.50189 0
M  V30 5016 C 468.599 3.17646 2.01935 0
M  V30 5017 C 467.746 2.63373 0.867746 0
M  V30 5018 H 470.697 1.58671 0.0305843 0
M  V30 5019 H 470.718 2.97706 2.36962 0
M  V30 5020 H 470.23 3.80874 0.745431 0
M  V30 5021 H 468.331 2.45273 2.80485 0
M  V30 5022 H 468.444 4.24455 2.22204 0
M  V30 5023 H 466.808 2.20999 1.26616 0
M  V30 5024 H 467.591 3.43074 0.124498 0
M  V30 5025 N 470.036 -0.519951 1.48776 0
M  V30 5026 C 471.261 -1.30447 1.6124 0
M  V30 5027 C 471.686 -1.86055 0.276591 0
M  V30 5028 O 471.044 -1.64915 -0.753183 0
M  V30 5029 C 471.092 -2.42406 2.66967 0
M  V30 5030 O 470.196 -3.45728 2.24824 0
M  V30 5031 H 469.537 -0.385924 0.540332 0
M  V30 5032 H 472.067 -0.624572 1.94834 0
M  V30 5033 H 472.077 -2.88447 2.88552 0
M  V30 5034 H 470.752 -2.01294 3.63941 0
M  V30 5035 H 469.329 -3.05737 2.13494 0
M  V30 5036 N 471.514 -1.37532 -0.769588 0
M  V30 5037 C 472.76 -1.33057 -1.53048 0
M  V30 5038 C 473.093 0.0841865 -1.94017 0
M  V30 5039 O 472.368 1.04198 -1.64235 0
M  V30 5040 C 472.651 -2.27166 -2.79406 0
M  V30 5041 C 472.504 -3.77429 -2.44677 0
M  V30 5042 C 473.823 -2.19683 -3.81349 0
M  V30 5043 H 470.942 -0.484655 -0.555228 0
M  V30 5044 H 473.584 -1.68251 -0.882702 0
M  V30 5045 H 471.734 -1.97283 -3.34682 0
M  V30 5046 H 473.406 -4.17918 -1.953 0
M  V30 5047 H 471.649 -3.95892 -1.77346 0
M  V30 5048 H 472.32 -4.38716 -3.35011 0
M  V30 5049 H 474.796 -2.46029 -3.35573 0
M  V30 5050 H 473.672 -2.87668 -4.67481 0
M  V30 5051 H 473.933 -1.19045 -4.25771 0
M  V30 5052 N 472.992 0.995999 -1.22138 0
M  V30 5053 C 474.403 1.54961 -1.04135 0
M  V30 5054 C 474.754 1.92159 0.396147 0
M  V30 5055 O 473.879 1.74435 1.28069 0
M  V30 5056 C 474.474 2.81581 -1.88408 0
M  V30 5057 C 473.033 3.33396 -1.74712 0
M  V30 5058 C 472.18 2.06509 -1.85066 0
M  V30 5059 H 475.131 0.817436 -1.36028 0
M  V30 5060 H 475.152 3.53822 -1.39966 0
M  V30 5061 H 474.664 2.54476 -2.93025 0
M  V30 5062 H 472.765 3.65416 -0.728159 0
M  V30 5063 H 472.878 4.04208 -2.57202 0
M  V30 5064 H 471.242 2.19925 -1.28472 0
M  V30 5065 H 472.025 1.81804 -2.91208 0
M  V30 5066 N 474.47 1.03057 1.19235 0
M  V30 5067 C 475.7 0.746613 1.92638 0
M  V30 5068 C 476.108 -0.698708 1.75826 0
M  V30 5069 O 475.451 -1.487 1.07861 0
M  V30 5070 C 475.513 1.02024 3.44719 0
M  V30 5071 C 475.177 2.45745 3.85303 0
M  V30 5072 C 476.174 3.43887 3.8992 0
M  V30 5073 C 473.859 2.8019 4.16892 0
M  V30 5074 C 475.853 4.74529 4.2556 0
M  V30 5075 C 473.54 4.1104 4.52205 0
M  V30 5076 C 474.538 5.0802 4.56513 0
M  V30 5077 O 474.226 6.36527 4.91008 0
M  V30 5078 H 473.958 0.272401 0.618687 0
M  V30 5079 H 476.512 1.37853 1.52269 0
M  V30 5080 H 474.742 0.331184 3.85279 0
M  V30 5081 H 476.431 0.725677 3.9936 0
M  V30 5082 H 477.197 3.18614 3.65664 0
M  V30 5083 H 473.076 2.05382 4.12722 0
M  V30 5084 H 476.62 5.50222 4.28838 0
M  V30 5085 H 472.517 4.36086 4.7592 0
M  V30 5086 H 473.285 6.41025 5.08949 0
M  V30 5087 N 475.948 -1.35272 0.808662 0
M  V30 5088 C 476.911 -2.28082 0.226093 0
M  V30 5089 C 477.911 -1.49673 -0.587762 0
M  V30 5090 O 479.101 -1.69404 -0.405943 0
M  V30 5091 C 476.233 -3.33955 -0.684596 0
M  V30 5092 H 477.426 -2.81116 1.04469 0
M  V30 5093 H 474.979 -1.45162 0.579466 0
M  V30 5094 H 475.714 -2.86111 -1.5268 0
M  V30 5095 H 475.499 -3.91965 -0.102699 0
M  V30 5096 H 476.989 -4.03219 -1.08646 0
M  V30 5097 N 477.426 -0.562348 -1.47226 0
M  V30 5098 C 478.374 0.195476 -2.31777 0
M  V30 5099 C 479.368 0.90433 -1.43242 0
M  V30 5100 O 480.574 0.825031 -1.59979 0
M  V30 5101 H 476.949 0.0819095 -0.747526 0
M  V30 5102 H 478.92 -0.536753 -2.93533 0
M  V30 5103 C 477.669 1.20902 -3.26003 0
M  V30 5104 H 476.992 0.672997 -3.94095 0
M  V30 5105 H 478.432 1.71006 -3.87986 0
M  V30 5106 C 476.891 2.25955 -2.49891 0
M  V30 5107 O 477.421 3.32969 -2.2471 0
M  V30 5108 N 475.627 2.00019 -2.1081 0
M  V30 5109 H 475.174 1.13006 -2.31489 0
M  V30 5110 H 475.132 2.70523 -1.60201 0
M  V30 5111 N 478.904 1.54736 -0.299062 0
M  V30 5112 C 479.834 2.26409 0.571085 0
M  V30 5113 C 480.815 1.2629 1.13951 0
M  V30 5114 O 482 1.55059 1.16921 0
M  V30 5115 C 479.13 3.00338 1.74396 0
M  V30 5116 C 478.084 4.07588 1.30599 0
M  V30 5117 C 477.41 4.69222 2.56387 0
M  V30 5118 C 478.71 5.20455 0.438645 0
M  V30 5119 H 480.404 2.99388 -0.0266991 0
M  V30 5120 H 477.95 1.43993 -0.0142812 0
M  V30 5121 H 479.903 3.49198 2.35878 0
M  V30 5122 H 478.627 2.24934 2.36796 0
M  V30 5123 H 477.286 3.59575 0.71424 0
M  V30 5124 H 476.934 3.9046 3.17097 0
M  V30 5125 H 476.634 5.41653 2.27784 0
M  V30 5126 H 478.158 5.20844 3.18675 0
M  V30 5127 H 479.572 5.65221 0.959085 0
M  V30 5128 H 477.969 5.99594 0.246466 0
M  V30 5129 H 479.039 4.8192 -0.536738 0
M  V30 5130 N 480.382 0.0267497 1.57577 0
M  V30 5131 C 481.63 -0.651116 1.91324 0
M  V30 5132 C 481.951 -1.72804 0.90353 0
M  V30 5133 O 481.221 -1.95822 -0.0552946 0
M  V30 5134 H 479.801 -0.243491 0.706202 0
M  V30 5135 H 482.463 0.0739935 1.94759 0
M  V30 5136 H 481.559 -1.10536 2.9187 0
M  V30 5137 N 481.861 -1.55662 -0.24637 0
M  V30 5138 C 482.791 -1.93377 -1.30873 0
M  V30 5139 C 483.772 -0.798773 -1.50179 0
M  V30 5140 O 484.957 -1.0591 -1.62778 0
M  V30 5141 C 482.087 -2.22893 -2.66338 0
M  V30 5142 C 481.041 -3.38649 -2.61727 0
M  V30 5143 C 480.367 -3.53708 -4.00992 0
M  V30 5144 C 481.667 -4.74323 -2.18666 0
M  V30 5145 H 483.361 -2.82363 -0.995552 0
M  V30 5146 H 480.907 -1.35854 -0.477464 0
M  V30 5147 H 482.86 -2.47866 -3.40794 0
M  V30 5148 H 481.584 -1.30733 -2.99293 0
M  V30 5149 H 480.243 -3.13685 -1.89729 0
M  V30 5150 H 479.891 -2.58967 -4.31214 0
M  V30 5151 H 479.591 -4.31551 -3.98795 0
M  V30 5152 H 481.115 -3.81003 -4.77147 0
M  V30 5153 H 482.529 -4.98665 -2.82854 0
M  V30 5154 H 480.926 -5.55273 -2.27579 0
M  V30 5155 H 481.996 -4.71349 -1.13834 0
M  V30 5156 N 483.339 0.512053 -1.4905 0
M  V30 5157 C 484.286 1.6148 -1.64902 0
M  V30 5158 C 485.256 1.58687 -0.490673 0
M  V30 5159 O 486.441 1.76842 -0.71636 0
M  V30 5160 C 483.581 2.99676 -1.71139 0
M  V30 5161 C 482.694 3.12568 -2.98203 0
M  V30 5162 C 481.829 4.4143 -2.95487 0
M  V30 5163 C 480.868 4.47916 -4.17179 0
M  V30 5164 N 480.005 5.68191 -4.12437 0
M  V30 5165 H 484.845 1.47271 -2.59066 0
M  V30 5166 H 482.382 0.716713 -1.28459 0
M  V30 5167 H 484.34 3.79761 -1.72736 0
M  V30 5168 H 482.97 3.12614 -0.804508 0
M  V30 5169 H 482.022 2.25618 -3.06269 0
M  V30 5170 H 483.334 3.1322 -3.88194 0
M  V30 5171 H 482.488 5.29825 -2.95585 0
M  V30 5172 H 481.227 4.43326 -2.03256 0
M  V30 5173 H 480.232 3.57925 -4.17337 0
M  V30 5174 H 481.457 4.47744 -5.1059 0
M  V30 5175 H 479.403 5.7095 -3.23036 0
M  V30 5176 H 479.32 5.70413 -4.96151 0
M  V30 5177 H 480.588 6.58823 -4.16621 0
M  V30 5178 N 484.817 1.37938 0.762283 0
M  V30 5179 C 486.228 1.30094 1.33912 0
M  V30 5180 C 486.579 -0.0472026 1.96143 0
M  V30 5181 O 485.704 -0.94917 1.94473 0
M  V30 5182 C 486.299 2.35592 2.43478 0
M  V30 5183 C 484.858 2.31353 2.96905 0
M  V30 5184 C 484.005 2.18919 1.70205 0
M  V30 5185 H 486.956 1.48423 0.561816 0
M  V30 5186 H 486.977 2.00806 3.23199 0
M  V30 5187 H 486.489 3.33701 1.98155 0
M  V30 5188 H 484.59 1.36799 3.46579 0
M  V30 5189 H 484.703 3.25147 3.51875 0
M  V30 5190 H 483.067 1.65624 1.93496 0
M  V30 5191 H 483.85 3.18956 1.26973 0
M  V30 5192 N 486.295 -0.989507 1.22664 0
M  V30 5193 C 487.52 -1.77031 1.08051 0
M  V30 5194 C 487.945 -1.84535 -0.364483 0
M  V30 5195 O 487.303 -1.3003 -1.2634 0
M  V30 5196 C 487.351 -3.18 1.70024 0
M  V30 5197 O 486.455 -4.01161 0.956216 0
M  V30 5198 H 485.796 -0.545008 0.379292 0
M  V30 5199 H 488.326 -1.24277 1.62531 0
M  V30 5200 H 488.336 -3.68616 1.74888 0
M  V30 5201 H 487.011 -3.11853 2.75174 0
M  V30 5202 H 485.588 -3.59687 0.98384 0
M  V30 5203 N 487.773 -1.03688 -1.18687 0
M  V30 5204 C 488.705 -0.582696 -2.21669 0
M  V30 5205 C 489.718 0.345656 -1.59088 0
M  V30 5206 O 490.907 0.140776 -1.77944 0
M  V30 5207 C 488.007 0.169204 -3.38477 0
M  V30 5208 C 487.18 -0.766079 -4.30639 0
M  V30 5209 C 486.239 -0.0581541 -5.26168 0
M  V30 5210 O 485.265 -0.687346 -5.65035 0
M  V30 5211 N 486.467 1.20981 -5.67753 0
M  V30 5212 H 489.232 -1.46843 -2.61261 0
M  V30 5213 H 486.793 -0.916896 -1.33434 0
M  V30 5214 H 488.785 0.652543 -3.99405 0
M  V30 5215 H 487.355 0.956435 -2.97609 0
M  V30 5216 H 486.575 -1.42935 -3.67373 0
M  V30 5217 H 487.863 -1.40146 -4.89118 0
M  V30 5218 H 487.261 1.74159 -5.38224 0
M  V30 5219 H 485.818 1.6375 -6.30896 0
M  V30 5220 N 489.251 1.34841 -0.815825 0
M  V30 5221 C 490.481 2.02436 -0.412695 0
M  V30 5222 C 490.889 1.61604 0.983906 0
M  V30 5223 O 490.232 0.813729 1.64694 0
M  V30 5224 C 490.294 3.56953 -0.427182 0
M  V30 5225 C 489.958 4.21083 -1.77589 0
M  V30 5226 C 490.955 4.42107 -2.73564 0
M  V30 5227 C 488.64 4.58006 -2.06243 0
M  V30 5228 C 490.634 4.99169 -3.9637 0
M  V30 5229 C 488.321 5.1478 -3.2931 0
M  V30 5230 C 489.319 5.35304 -4.24191 0
M  V30 5231 O 489.007 5.90878 -5.45086 0
M  V30 5232 H 488.739 0.655631 -0.164695 0
M  V30 5233 H 491.293 1.73246 -1.1034 0
M  V30 5234 H 489.523 3.85372 0.320175 0
M  V30 5235 H 491.212 4.05875 -0.0450875 0
M  V30 5236 H 491.978 4.13953 -2.52721 0
M  V30 5237 H 487.857 4.41339 -1.33196 0
M  V30 5238 H 491.401 5.15105 -4.70439 0
M  V30 5239 H 487.298 5.42362 -3.5002 0
M  V30 5240 H 488.066 6.0932 -5.46508 0
M  V30 5241 N 490.729 0.570148 1.46925 0
M  V30 5242 C 492.006 -0.0153259 1.95594 0
M  V30 5243 C 492.386 -1.47232 1.51281 0
M  V30 5244 O 491.734 -2.15574 0.757624 0
M  V30 5245 C 491.944 0.143624 3.48704 0
M  V30 5246 C 493.292 0.00494484 4.246 0
M  V30 5247 O 494.316 0.0718214 3.56128 0
M  V30 5248 O 493.175 -0.141175 5.46318 0
M  V30 5249 H 490.269 -0.0568819 0.825041 0
M  V30 5250 H 492.815 0.637583 1.57267 0
M  V30 5251 H 491.587 1.15699 3.73804 0
M  V30 5252 H 491.21 -0.5463 3.93829 0
M  V30 5253 N 492.207 -1.54576 0.307264 0
M  V30 5254 C 493.618 -1.8579 -0.184121 0
M  V30 5255 C 493.969 -1.22914 -1.52927 0
M  V30 5256 O 493.094 -0.529126 -2.09831 0
M  V30 5257 C 493.689 -3.37081 -0.340862 0
M  V30 5258 C 492.248 -3.68304 -0.776465 0
M  V30 5259 C 491.395 -2.77076 0.111503 0
M  V30 5260 H 494.346 -1.49656 0.528078 0
M  V30 5261 H 494.367 -3.61922 -1.17443 0
M  V30 5262 H 493.879 -3.82815 0.638309 0
M  V30 5263 H 491.98 -3.28092 -1.76596 0
M  V30 5264 H 492.093 -4.75434 -0.591512 0
M  V30 5265 H 490.457 -2.51374 -0.410256 0
M  V30 5266 H 491.24 -3.25632 1.08714 0
M  V30 5267 N 493.685 -0.035106 -1.57561 0
M  V30 5268 C 494.617 0.973604 -2.07494 0
M  V30 5269 C 495.63 1.28504 -0.999534 0
M  V30 5270 O 496.819 1.24864 -1.27559 0
M  V30 5271 C 493.919 2.29945 -2.48955 0
M  V30 5272 C 493.092 2.1723 -3.79644 0
M  V30 5273 C 492.151 3.328 -4.07592 0
M  V30 5274 O 491.177 3.09418 -4.77754 0
M  V30 5275 N 492.379 4.56779 -3.58236 0
M  V30 5276 H 495.144 0.547525 -2.94656 0
M  V30 5277 H 492.705 0.151515 -1.61189 0
M  V30 5278 H 494.697 3.06097 -2.64739 0
M  V30 5279 H 493.267 2.64173 -1.67126 0
M  V30 5280 H 492.487 1.25768 -3.73599 0
M  V30 5281 H 493.775 2.05945 -4.65257 0
M  V30 5282 H 493.173 4.78668 -3.01485 0
M  V30 5283 H 491.73 5.30079 -3.79288 0
M  V30 5284 N 495.163 1.55791 0.238111 0
M  V30 5285 C 496.11 1.9105 1.29493 0
M  V30 5286 C 497.08 0.765733 1.47397 0
M  V30 5287 O 498.265 1.02017 1.61236 0
M  V30 5288 C 495.405 2.21826 2.64362 0
M  V30 5289 C 494.518 3.49153 2.54394 0
M  V30 5290 C 493.653 3.69455 3.81676 0
M  V30 5291 C 492.692 4.90353 3.66361 0
M  V30 5292 N 491.829 5.07131 4.85554 0
M  V30 5293 H 496.669 2.81172 0.987233 0
M  V30 5294 H 494.206 1.39179 0.476203 0
M  V30 5295 H 496.164 2.37675 3.4288 0
M  V30 5296 H 494.794 1.34897 2.93262 0
M  V30 5297 H 493.846 3.41587 1.67399 0
M  V30 5298 H 495.158 4.37818 2.38991 0
M  V30 5299 H 494.312 3.85311 4.68636 0
M  V30 5300 H 493.051 2.7904 3.99985 0
M  V30 5301 H 492.056 4.74464 2.77784 0
M  V30 5302 H 493.281 5.82237 3.49538 0
M  V30 5303 H 491.227 4.19654 5.04209 0
M  V30 5304 H 491.144 5.89899 4.72816 0
M  V30 5305 H 492.412 5.27407 5.73988 0
M  V30 5306 N 496.642 -0.504142 1.49319 0
M  V30 5307 C 497.605 -1.5883 1.65244 0
M  V30 5308 C 498.605 -1.52009 0.524386 0
M  V30 5309 O 499.795 -1.55218 0.79077 0
M  V30 5310 C 496.927 -2.98481 1.64687 0
M  V30 5311 H 498.12 -1.4604 2.61939 0
M  V30 5312 H 495.673 -0.728144 1.38303 0
M  V30 5313 H 496.408 -3.16751 0.695644 0
M  V30 5314 H 496.193 -3.0484 2.46607 0
M  V30 5315 H 497.683 -3.77256 1.79075 0
M  V30 5316 N 498.12 -1.38341 -0.754957 0
M  V30 5317 C 499.067 -1.3546 -1.86867 0
M  V30 5318 C 500.037 -0.217369 -1.64672 0
M  V30 5319 O 501.222 -0.409383 -1.86356 0
M  V30 5320 C 498.362 -1.18413 -3.24149 0
M  V30 5321 C 497.475 -2.41511 -3.58185 0
M  V30 5322 C 496.61 -2.17205 -4.84763 0
M  V30 5323 C 495.649 -3.36081 -5.11582 0
M  V30 5324 N 494.786 -3.11219 -6.29354 0
M  V30 5325 H 499.626 -2.30672 -1.88664 0
M  V30 5326 H 497.163 -1.14607 -0.922154 0
M  V30 5327 H 499.121 -1.06545 -4.03366 0
M  V30 5328 H 497.751 -0.268397 -3.21682 0
M  V30 5329 H 496.803 -2.64056 -2.73822 0
M  V30 5330 H 498.115 -3.30115 -3.73932 0
M  V30 5331 H 497.269 -2.02465 -5.7192 0
M  V30 5332 H 496.008 -1.25964 -4.71152 0
M  V30 5333 H 495.013 -3.51341 -4.22894 0
M  V30 5334 H 496.238 -4.28196 -5.27091 0
M  V30 5335 H 494.184 -2.22624 -6.17069 0
M  V30 5336 H 494.101 -3.93373 -6.45596 0
M  V30 5337 H 495.369 -3.00132 -7.19403 0
M  V30 5338 N 499.598 0.982988 -1.23187 0
M  V30 5339 C 500.561 2.05649 -1.01198 0
M  V30 5340 C 501.561 1.6078 0.0252464 0
M  V30 5341 O 502.751 1.72878 -0.214243 0
M  V30 5342 C 499.883 3.36744 -0.530656 0
M  V30 5343 H 501.076 2.2659 -1.96461 0
M  V30 5344 H 498.629 1.15602 -1.05195 0
M  V30 5345 H 499.364 3.21492 0.425873 0
M  V30 5346 H 499.149 3.7065 -1.2791 0
M  V30 5347 H 500.639 4.15705 -0.397366 0
M  V30 5348 N 501.076 1.04316 1.18135 0
M  V30 5349 C 502.006 0.657299 2.24058 0
M  V30 5350 C 502.987 -0.340678 1.66654 0
M  V30 5351 O 504.172 -0.220223 1.92947 0
M  V30 5352 C 501.302 0.0220715 3.47293 0
M  V30 5353 C 500.256 0.943857 4.17463 0
M  V30 5354 C 499.582 0.172973 5.3442 0
M  V30 5355 C 500.882 2.26409 4.70677 0
M  V30 5356 H 502.576 1.5428 2.56589 0
M  V30 5357 H 500.122 0.743263 1.23335 0
M  V30 5358 H 502.075 -0.259607 4.206 0
M  V30 5359 H 500.799 -0.898323 3.14003 0
M  V30 5360 H 499.458 1.20996 3.46057 0
M  V30 5361 H 499.106 -0.749907 4.97379 0
M  V30 5362 H 498.806 0.787098 5.82304 0
M  V30 5363 H 500.33 -0.101628 6.10515 0
M  V30 5364 H 501.744 2.04294 5.35665 0
M  V30 5365 H 500.141 2.8314 5.29105 0
M  V30 5366 H 501.211 2.90883 3.87962 0
M  V30 5367 N 502.554 -1.34406 0.822964 0
M  V30 5368 C 503.484 -2.32052 0.259608 0
M  V30 5369 C 504.465 -1.58243 -0.623961 0
M  V30 5370 O 505.65 -1.86224 -0.55083 0
M  V30 5371 C 502.78 -3.42434 -0.579314 0
M  V30 5372 C 501.734 -4.27499 0.20712 0
M  V30 5373 C 501.06 -5.29349 -0.754547 0
M  V30 5374 C 502.36 -5.02758 1.41533 0
M  V30 5375 H 504.054 -2.79418 1.07545 0
M  V30 5376 H 501.6 -1.34338 0.518593 0
M  V30 5377 H 503.553 -4.0976 -0.983612 0
M  V30 5378 H 502.277 -2.93717 -1.4282 0
M  V30 5379 H 500.936 -3.61776 0.592787 0
M  V30 5380 H 500.584 -4.76895 -1.59939 0
M  V30 5381 H 500.284 -5.8714 -0.232561 0
M  V30 5382 H 501.808 -5.99544 -1.1567 0
M  V30 5383 H 503.222 -5.62938 1.08504 0
M  V30 5384 H 501.619 -5.70123 1.87296 0
M  V30 5385 H 502.689 -4.32451 2.1935 0
M  V30 5386 N 504.032 -0.577932 -1.46621 0
M  V30 5387 C 504.942 0.160651 -2.34049 0
M  V30 5388 C 505.958 0.890911 -1.49462 0
M  V30 5389 O 507.134 0.855166 -1.82343 0
M  V30 5390 C 504.199 1.16447 -3.26559 0
M  V30 5391 C 503.26 0.4394 -4.27045 0
M  V30 5392 C 502.493 1.3954 -5.15135 0
M  V30 5393 O 502.716 2.63162 -5.06065 0
M  V30 5394 O 501.65 0.908585 -5.95003 0
M  V30 5395 H 505.476 -0.557057 -2.98547 0
M  V30 5396 H 503.061 -0.338369 -1.45518 0
M  V30 5397 H 504.943 1.7434 -3.83645 0
M  V30 5398 H 503.618 1.86373 -2.64663 0
M  V30 5399 H 502.525 -0.181247 -3.73661 0
M  V30 5400 H 503.858 -0.218799 -4.91713 0
M  V30 5401 N 505.51 1.54411 -0.315457 0
M  V30 5402 C 506.457 2.24048 0.554166 0
M  V30 5403 C 507.427 1.2283 1.11812 0
M  V30 5404 O 508.612 1.51491 1.15997 0
M  V30 5405 C 505.752 2.99574 1.71316 0
M  V30 5406 C 504.865 4.15594 1.17922 0
M  V30 5407 C 504 4.78669 2.30324 0
M  V30 5408 C 503.039 5.86807 1.74137 0
M  V30 5409 N 502.176 6.43777 2.8017 0
M  V30 5410 H 507.016 2.97964 -0.0462602 0
M  V30 5411 H 504.553 1.47059 -0.0346009 0
M  V30 5412 H 506.511 3.41604 2.39505 0
M  V30 5413 H 505.141 2.28008 2.285 0
M  V30 5414 H 504.193 3.78404 0.389136 0
M  V30 5415 H 505.505 4.93459 0.728012 0
M  V30 5416 H 504.659 5.23626 3.06433 0
M  V30 5417 H 503.398 4.00168 2.78778 0
M  V30 5418 H 502.403 5.41261 0.965236 0
M  V30 5419 H 503.628 6.67201 1.2657 0
M  V30 5420 H 501.574 5.68153 3.2793 0
M  V30 5421 H 501.491 7.17031 2.39588 0
M  V30 5422 H 502.759 6.9339 3.56132 0
M  V30 5423 N 506.988 0.0434614 1.5754 0
M  V30 5424 C 507.951 -0.918696 2.09982 0
M  V30 5425 C 508.951 -1.24488 1.01781 0
M  V30 5426 O 510.141 -1.18284 1.27885 0
M  V30 5427 C 507.273 -2.23093 2.57764 0
M  V30 5428 H 508.466 -0.464229 2.96285 0
M  V30 5429 H 506.019 -0.204818 1.54952 0
M  V30 5430 H 506.754 -2.73137 1.74832 0
M  V30 5431 H 506.539 -2.00724 3.36827 0
M  V30 5432 H 508.029 -2.92028 2.98512 0
M  V30 5433 N 508.466 -1.55915 -0.229846 0
M  V30 5434 C 509.714 -1.7819 -0.953565 0
M  V30 5435 C 510.035 -0.610504 -1.85197 0
M  V30 5436 O 509.305 0.372988 -1.92316 0
M  V30 5437 H 507.885 -0.657208 -0.355087 0
M  V30 5438 H 510.547 -1.9337 -0.243693 0
M  V30 5439 H 509.643 -2.70011 -1.56527 0
M  V30 5440 N 509.944 0.496216 -1.49584 0
M  V30 5441 C 511.19 1.24918 -1.60521 0
M  V30 5442 C 511.545 1.90197 -0.290352 0
M  V30 5443 O 510.838 1.77967 0.709813 0
M  V30 5444 C 511.032 2.3359 -2.705 0
M  V30 5445 C 510.861 1.78969 -4.12553 0
M  V30 5446 C 509.631 1.60057 -4.79281 0
M  V30 5447 C 511.829 1.29883 -4.97629 0
M  V30 5448 N 509.811 1.00415 -6.05632 0
M  V30 5449 C 511.182 0.824057 -6.14499 0
M  V30 5450 C 513.237 1.18501 -4.83593 0
M  V30 5451 C 511.94 0.246721 -7.18877 0
M  V30 5452 C 513.966 0.621634 -5.88124 0
M  V30 5453 C 513.328 0.157116 -7.04225 0
M  V30 5454 H 509.427 0.446896 -0.641722 0
M  V30 5455 H 512.011 0.555456 -1.86609 0
M  V30 5456 H 510.182 3.00418 -2.46178 0
M  V30 5457 H 511.914 3.00628 -2.70933 0
M  V30 5458 H 508.669 1.84562 -4.36158 0
M  V30 5459 H 509.093 0.725074 -6.73106 0
M  V30 5460 H 513.735 1.53012 -3.94141 0
M  V30 5461 H 511.453 -0.110651 -8.08024 0
M  V30 5462 H 515.039 0.536279 -5.79323 0
M  V30 5463 H 513.919 -0.272009 -7.83728 0
M  V30 5464 N 511.423 1.38739 0.74761 0
M  V30 5465 C 512.651 1.38521 1.53686 0
M  V30 5466 C 513.066 -0.0235129 1.88785 0
M  V30 5467 O 512.423 -0.991662 1.53207 0
M  V30 5468 C 512.474 2.24641 2.83229 0
M  V30 5469 O 512.195 3.60026 2.49625 0
M  V30 5470 C 513.696 2.32669 3.77333 0
M  V30 5471 H 510.916 0.473589 0.475347 0
M  V30 5472 H 513.46 1.82395 0.924786 0
M  V30 5473 H 511.615 1.84213 3.40799 0
M  V30 5474 H 512.029 4.05435 3.3275 0
M  V30 5475 H 513.503 2.97201 4.65162 0
M  V30 5476 H 513.98 1.3421 4.18192 0
M  V30 5477 H 514.586 2.73512 3.25685 0
M  V30 5478 N 512.901 -0.976442 1.23707 0
M  V30 5479 C 513.831 -2.08749 1.04624 0
M  V30 5480 C 514.812 -1.70057 -0.0380956 0
M  V30 5481 O 515.997 -1.93782 0.127308 0
M  V30 5482 C 513.127 -3.41335 0.640902 0
M  V30 5483 C 512.081 -3.93947 1.67302 0
M  V30 5484 C 511.407 -5.22774 1.12301 0
M  V30 5485 C 512.707 -4.22769 3.06697 0
M  V30 5486 H 514.401 -2.24972 1.97555 0
M  V30 5487 H 511.947 -1.08108 0.951247 0
M  V30 5488 H 513.9 -4.18489 0.494434 0
M  V30 5489 H 512.624 -3.24988 -0.324099 0
M  V30 5490 H 511.283 -3.18941 1.80755 0
M  V30 5491 H 510.931 -5.0278 0.148877 0
M  V30 5492 H 510.631 -5.58942 1.81267 0
M  V30 5493 H 512.155 -6.02546 0.988479 0
M  V30 5494 H 513.569 -4.90659 2.96524 0
M  V30 5495 H 511.966 -4.70147 3.72937 0
M  V30 5496 H 513.036 -3.29885 3.55392 0
M  V30 5497 N 514.379 -1.04941 -1.1758 0
M  V30 5498 C 515.79 -0.784501 -1.69418 0
M  V30 5499 C 516.141 0.693625 -1.8353 0
M  V30 5500 O 515.266 1.53925 -1.52106 0
M  V30 5501 C 515.861 -1.41746 -3.07723 0
M  V30 5502 C 514.42 -1.20066 -3.56737 0
M  V30 5503 C 513.567 -1.5026 -2.33061 0
M  V30 5504 H 516.518 -1.21469 -1.02133 0
M  V30 5505 H 516.539 -0.825381 -3.7144 0
M  V30 5506 H 516.051 -2.49325 -2.9742 0
M  V30 5507 H 514.152 -0.144006 -3.72322 0
M  V30 5508 H 514.265 -1.90384 -4.39648 0
M  V30 5509 H 512.629 -0.922598 -2.37403 0
M  V30 5510 H 513.412 -2.58967 -2.25368 0
M  V30 5511 N 515.857 1.33968 -0.830081 0
M  V30 5512 C 516.82 2.27694 -0.26235 0
M  V30 5513 C 517.82 1.50589 0.563876 0
M  V30 5514 O 519.01 1.70028 0.378941 0
M  V30 5515 C 516.142 3.35002 0.63138 0
M  V30 5516 H 517.335 2.79419 -1.08928 0
M  V30 5517 H 514.888 1.44221 -0.602486 0
M  V30 5518 H 515.623 2.88504 1.48109 0
M  V30 5519 H 515.408 3.92079 0.0403276 0
M  V30 5520 H 516.898 4.04897 1.02217 0
M  V30 5521 N 517.335 0.585699 1.46312 0
M  V30 5522 C 518.583 0.072278 2.01971 0
M  V30 5523 C 518.904 -1.29345 1.45928 0
M  V30 5524 O 518.174 -1.84973 0.645109 0
M  V30 5525 H 516.754 0.023729 0.746623 0
M  V30 5526 H 519.416 0.762155 1.7938 0
M  V30 5527 H 518.512 0.00552767 3.121 0
M  V30 5528 N 518.813 -1.54241 0.323641 0
M  V30 5529 C 519.76 -2.24339 -0.542277 0
M  V30 5530 C 520.73 -1.23421 -1.11159 0
M  V30 5531 O 521.915 -1.52104 -1.15192 0
M  V30 5532 C 519.055 -3.00479 -1.69725 0
M  V30 5533 C 518.168 -4.16214 -1.15716 0
M  V30 5534 C 517.303 -4.79884 -2.27783 0
M  V30 5535 C 516.342 -5.87722 -1.71023 0
M  V30 5536 N 515.479 -6.45254 -2.76752 0
M  V30 5537 H 520.319 -2.97935 0.0620613 0
M  V30 5538 H 517.856 -1.47039 0.0423993 0
M  V30 5539 H 519.814 -3.42869 -2.3769 0
M  V30 5540 H 518.444 -2.29217 -2.27288 0
M  V30 5541 H 517.496 -3.78605 -0.369063 0
M  V30 5542 H 518.808 -4.93838 -0.701832 0
M  V30 5543 H 517.962 -5.25243 -3.03651 0
M  V30 5544 H 516.701 -4.01641 -2.76652 0
M  V30 5545 H 515.706 -5.41765 -0.936518 0
M  V30 5546 H 516.931 -6.67863 -1.2303 0
M  V30 5547 H 514.877 -5.69884 -3.24912 0
M  V30 5548 H 514.794 -7.18292 -2.35782 0
M  V30 5549 H 516.062 -6.95269 -3.5245 0
M  V30 5550 N 520.291 -0.0518155 -1.57515 0
M  V30 5551 C 521.568 0.661727 -1.84067 0
M  V30 5552 C 521.948 1.88999 -0.940351 0
M  V30 5553 O 521.296 2.285 -0.00155404 0
M  V30 5554 C 521.506 1.01841 -3.3381 0
M  V30 5555 C 522.854 1.40043 -4.00841 0
M  V30 5556 O 523.878 1.11073 -3.38439 0
M  V30 5557 O 522.737 1.94111 -5.10865 0
M  V30 5558 H 519.831 0.326702 -0.759733 0
M  V30 5559 H 522.377 -0.0812277 -1.69505 0
M  V30 5560 H 521.149 0.145202 -3.91031 0
M  V30 5561 H 520.772 1.81879 -3.53562 0
M  V30 5562 N 521.769 1.56035 0.221574 0
M  V30 5563 C 523.018 1.78245 0.944016 0
M  V30 5564 C 523.331 0.620371 1.85501 0
M  V30 5565 O 524.537 0.726103 2.6161 0
M  V30 5566 C 522.993 3.15659 1.7288 0
M  V30 5567 C 522.601 4.39591 0.863942 0
M  V30 5568 C 524.345 3.47195 2.44246 0
M  V30 5569 C 522.252 5.6803 1.64607 0
M  V30 5570 H 521.182 0.664547 0.356222 0
M  V30 5571 H 523.833 1.8243 0.197904 0
M  V30 5572 H 522.215 3.0565 2.51781 0
M  V30 5573 H 523.389 4.60655 0.115464 0
M  V30 5574 H 521.704 4.15572 0.262407 0
M  V30 5575 H 524.301 4.40381 3.03263 0
M  V30 5576 H 524.644 2.69693 3.1713 0
M  V30 5577 H 525.177 3.58533 1.72334 0
M  V30 5578 H 521.916 6.48425 0.960507 0
M  V30 5579 H 521.436 5.51027 2.36917 0
M  V30 5580 H 523.115 6.08203 2.20675 0
M  V30 5581 N 523.247 -0.488276 1.49845 0
M  V30 5582 C 524.663 -0.820566 1.3689 0
M  V30 5583 C 524.863 -1.97248 0.411752 0
M  V30 5584 O 523.919 -2.52042 -0.151931 0
M  V30 5585 C 525.232 -1.1488 2.77891 0
M  V30 5586 C 526.78 -1.25626 2.86683 0
M  V30 5587 C 527.255 -1.61772 4.28479 0
M  V30 5588 N 528.746 -1.68797 4.31349 0
M  V30 5589 C 529.481 -1.98235 5.38043 0
M  V30 5590 N 528.977 -2.2581 6.54967 0
M  V30 5591 N 530.77 -1.99593 5.2547 0
M  V30 5592 H 522.921 0.271123 2.10662 0
M  V30 5593 H 525.184 0.058735 0.946179 0
M  V30 5594 H 524.89 -0.375614 3.49688 0
M  V30 5595 H 524.764 -2.08919 3.14058 0
M  V30 5596 H 527.151 -2.02014 2.15114 0
M  V30 5597 H 527.232 -0.296072 2.54081 0
M  V30 5598 H 526.876 -0.859295 5.00578 0
M  V30 5599 H 526.806 -2.58912 4.58554 0
M  V30 5600 H 529.297 -1.49595 3.4703 0
M  V30 5601 H 529.61 -2.47497 7.32096 0
M  V30 5602 H 527.955 -2.23239 6.58171 0
M  V30 5603 H 531.146 -1.77535 4.33127 0
M  V30 5604 H 531.319 -2.222 6.08713 0
M  V30 5605 N 524.725 -1.39134 -0.740242 0
M  V30 5606 C 525.635 -1.39697 -1.88473 0
M  V30 5607 C 526.651 -0.292403 -1.71526 0
M  V30 5608 O 527.827 -0.533021 -1.94219 0
M  V30 5609 C 524.892 -1.23382 -3.24003 0
M  V30 5610 C 523.953 -2.43763 -3.53381 0
M  V30 5611 C 523.186 -2.28216 -4.82445 0
M  V30 5612 O 523.409 -1.28288 -5.55786 0
M  V30 5613 O 522.343 -3.1709 -5.11603 0
M  V30 5614 H 526.169 -2.36159 -1.90952 0
M  V30 5615 H 523.754 -1.20194 -0.887346 0
M  V30 5616 H 525.636 -1.16395 -4.05006 0
M  V30 5617 H 524.311 -0.300121 -3.22306 0
M  V30 5618 H 523.218 -2.56325 -2.72485 0
M  V30 5619 H 524.551 -3.35808 -3.59852 0
M  V30 5620 N 526.204 0.969867 -1.24223 0
M  V30 5621 C 527.151 2.06407 -1.0327 0
M  V30 5622 C 528.121 1.66014 0.0533 0
M  V30 5623 O 529.306 1.90533 -0.100896 0
M  V30 5624 C 526.446 3.3909 -0.641262 0
M  V30 5625 C 525.559 3.9269 -1.80051 0
M  V30 5626 C 524.694 5.13631 -1.35486 0
M  V30 5627 C 523.733 5.59423 -2.48419 0
M  V30 5628 N 522.87 6.71586 -2.04737 0
M  V30 5629 H 527.71 2.23663 -1.96923 0
M  V30 5630 H 525.247 1.09624 -0.980862 0
M  V30 5631 H 527.205 4.15323 -0.395351 0
M  V30 5632 H 525.835 3.21765 0.258269 0
M  V30 5633 H 524.887 3.13116 -2.16014 0
M  V30 5634 H 526.199 4.22636 -2.64916 0
M  V30 5635 H 525.353 5.97231 -1.0677 0
M  V30 5636 H 524.092 4.85364 -0.476722 0
M  V30 5637 H 523.097 4.74398 -2.77897 0
M  V30 5638 H 524.322 5.89705 -3.36786 0
M  V30 5639 H 522.268 6.45058 -1.19318 0
M  V30 5640 H 522.185 7.0097 -2.83156 0
M  V30 5641 H 523.453 7.58633 -1.79154 0
M  V30 5642 N 527.682 1.05563 1.17022 0
M  V30 5643 C 528.63 0.653887 2.2322 0
M  V30 5644 C 529.624 -0.326642 1.66221 0
M  V30 5645 O 530.83 -0.192301 1.7897 0
M  V30 5646 H 527.205 0.193297 0.726733 0
M  V30 5647 H 529.176 1.5596 2.54399 0
M  V30 5648 C 527.925 0.0485434 3.47666 0
M  V30 5649 H 527.248 0.79413 3.91834 0
M  V30 5650 H 528.688 -0.195133 4.23551 0
M  V30 5651 C 527.147 -1.20583 3.14581 0
M  V30 5652 O 527.677 -2.29475 3.29703 0
M  V30 5653 N 525.883 -1.10493 2.68774 0
M  V30 5654 H 525.43 -0.218795 2.56669 0
M  V30 5655 H 525.388 -1.94507 2.47011 0
M  V30 5656 N 529.16 -1.33526 0.837174 0
M  V30 5657 C 530.408 -1.97446 0.431211 0
M  V30 5658 C 530.729 -1.6665 -1.01255 0
M  V30 5659 O 529.999 -0.964559 -1.70508 0
M  V30 5660 H 528.579 -0.73043 0.156463 0
M  V30 5661 H 531.241 -1.62918 1.06976 0
M  V30 5662 H 530.337 -3.07001 0.561877 0
M  V30 5663 N 530.638 -0.59345 -1.46 0
M  V30 5664 C 531.57 0.171569 -2.28557 0
M  V30 5665 C 532.583 0.845273 -1.39137 0
M  V30 5666 O 533.772 0.713033 -1.6364 0
M  V30 5667 C 530.872 1.26311 -3.14482 0
M  V30 5668 C 530.045 0.679258 -4.32094 0
M  V30 5669 C 529.104 1.65987 -4.99334 0
M  V30 5670 O 528.13 1.19171 -5.56585 0
M  V30 5671 N 529.332 2.99414 -4.97324 0
M  V30 5672 H 532.097 -0.536771 -2.94854 0
M  V30 5673 H 529.658 -0.431954 -1.56031 0
M  V30 5674 H 531.65 1.91863 -3.5633 0
M  V30 5675 H 530.22 1.87416 -2.50188 0
M  V30 5676 H 529.44 -0.153992 -3.93899 0
M  V30 5677 H 530.728 0.26916 -5.08088 0
M  V30 5678 H 530.126 3.40064 -4.52076 0
M  V30 5679 H 528.683 3.60426 -5.4308 0
M  V30 5680 N 532.116 1.54067 -0.331816 0
M  V30 5681 C 533.527 1.86059 0.15454 0
M  V30 5682 C 533.878 1.25331 1.50952 0
M  V30 5683 O 533.003 0.562441 2.08963 0
M  V30 5684 C 533.598 3.37581 0.287192 0
M  V30 5685 C 532.157 3.69493 0.717773 0
M  V30 5686 C 531.304 2.76863 -0.155569 0
M  V30 5687 H 534.255 1.48797 -0.55182 0
M  V30 5688 H 534.276 3.63744 1.11671 0
M  V30 5689 H 533.788 3.81751 -0.699131 0
M  V30 5690 H 531.889 3.3086 1.71354 0
M  V30 5691 H 532.002 4.76315 0.5158 0
M  V30 5692 H 530.366 2.51995 0.370213 0
M  V30 5693 H 531.149 3.23861 -1.13881 0
M  V30 5694 N 533.594 0.0601682 1.57485 0
M  V30 5695 C 534.524 -0.90889 2.15085 0
M  V30 5696 C 535.505 -1.31838 1.07484 0
M  V30 5697 O 536.69 -1.3915 1.35466 0
M  V30 5698 C 533.82 -2.18059 2.7031 0
M  V30 5699 C 532.774 -1.91088 3.82974 0
M  V30 5700 C 532.1 -3.24789 4.24754 0
M  V30 5701 C 533.4 -1.22535 5.07723 0
M  V30 5702 H 535.094 -0.429093 2.96309 0
M  V30 5703 H 532.64 -0.204952 1.42534 0
M  V30 5704 H 534.593 -2.86258 3.09248 0
M  V30 5705 H 533.317 -2.6826 1.8629 0
M  V30 5706 H 531.976 -1.25297 3.44523 0
M  V30 5707 H 531.624 -3.72809 3.37672 0
M  V30 5708 H 531.324 -3.07538 5.00694 0
M  V30 5709 H 532.848 -3.94205 4.66299 0
M  V30 5710 H 534.262 -1.80783 5.4405 0
M  V30 5711 H 532.659 -1.1558 5.88864 0
M  V30 5712 H 533.729 -0.202692 4.84476 0
M  V30 5713 N 535.072 -1.5615 -0.213296 0
M  V30 5714 C 536.488 -1.49327 -0.56336 0
M  V30 5715 C 536.688 -0.756826 -1.86747 0
M  V30 5716 O 535.744 -0.299866 -2.50713 0
M  V30 5717 C 537.057 -2.9392 -0.634944 0
M  V30 5718 C 538.605 -3.04487 -0.725013 0
M  V30 5719 C 539.08 -4.50456 -0.82787 0
M  V30 5720 N 540.571 -4.54533 -0.891876 0
M  V30 5721 C 541.306 -5.64766 -0.991315 0
M  V30 5722 N 540.802 -6.84733 -1.05419 0
M  V30 5723 N 542.595 -5.52637 -1.02709 0
M  V30 5724 H 534.746 -2.02453 0.642366 0
M  V30 5725 H 537.009 -0.920548 0.226487 0
M  V30 5726 H 536.715 -3.50783 0.253859 0
M  V30 5727 H 536.589 -3.46274 -1.49579 0
M  V30 5728 H 538.976 -2.47685 -1.60425 0
M  V30 5729 H 539.057 -2.55289 0.161669 0
M  V30 5730 H 538.701 -5.07878 0.0469464 0
M  V30 5731 H 538.631 -4.97369 -1.73009 0
M  V30 5732 H 541.122 -3.68141 -0.85327 0
M  V30 5733 H 541.435 -7.64493 -1.13007 0
M  V30 5734 H 539.78 -6.87427 -1.02318 0
M  V30 5735 H 542.971 -4.5784 -0.974687 0
M  V30 5736 H 543.144 -6.38576 -1.10113 0
M  V30 5737 N 536.55 0.480323 -1.50102 0
M  V30 5738 C 537.799 1.22979 -1.59872 0
M  V30 5739 C 538.112 1.93282 -0.30022 0
M  V30 5740 O 539.318 2.70086 -0.276709 0
M  V30 5741 C 537.774 2.23408 -2.82164 0
M  V30 5742 C 537.382 1.5895 -4.18854 0
M  V30 5743 C 539.126 2.99055 -3.01275 0
M  V30 5744 C 537.033 2.57611 -5.32344 0
M  V30 5745 H 535.963 0.462707 -0.59533 0
M  V30 5746 H 538.614 0.501291 -1.7652 0
M  V30 5747 H 536.996 2.99511 -2.59055 0
M  V30 5748 H 538.17 0.887 -4.52182 0
M  V30 5749 H 536.485 0.956191 -4.05273 0
M  V30 5750 H 539.082 3.72876 -3.83233 0
M  V30 5751 H 539.425 3.57897 -2.12639 0
M  V30 5752 H 539.958 2.30066 -3.24522 0
M  V30 5753 H 536.697 2.03521 -6.23105 0
M  V30 5754 H 536.217 3.26041 -5.03445 0
M  V30 5755 H 537.896 3.19627 -5.62537 0
M  V30 5756 N 538.028 1.39524 0.732853 0
M  V30 5757 C 538.938 1.40695 1.87729 0
M  V30 5758 C 539.954 0.301496 1.71368 0
M  V30 5759 O 541.13 0.543313 1.93933 0
M  V30 5760 C 538.195 1.25098 3.23344 0
M  V30 5761 C 537.256 2.45634 3.52083 0
M  V30 5762 C 536.489 2.30772 4.81228 0
M  V30 5763 O 536.712 1.31233 5.55098 0
M  V30 5764 O 535.646 3.19799 5.09914 0
M  V30 5765 H 539.472 2.37168 1.89697 0
M  V30 5766 H 537.057 1.20663 0.880959 0
M  V30 5767 H 538.939 1.18541 4.04383 0
M  V30 5768 H 537.614 0.317209 3.22142 0
M  V30 5769 H 536.521 2.57767 2.71122 0
M  V30 5770 H 537.854 3.37712 3.58066 0
M  V30 5771 N 539.506 -0.963266 1.24736 0
M  V30 5772 C 540.436 -2.07628 1.06832 0
M  V30 5773 C 541.417 -1.70088 -0.0200566 0
M  V30 5774 O 542.602 -1.93636 0.147854 0
M  V30 5775 C 539.732 -3.40636 0.677069 0
M  V30 5776 C 538.686 -3.9215 1.71471 0
M  V30 5777 C 538.012 -5.21553 1.1784 0
M  V30 5778 C 539.312 -4.19493 3.11164 0
M  V30 5779 H 541.006 -2.22864 1.9993 0
M  V30 5780 H 538.552 -1.07093 0.96266 0
M  V30 5781 H 540.505 -4.17941 0.538792 0
M  V30 5782 H 539.229 -3.25313 -0.289612 0
M  V30 5783 H 537.888 -3.17005 1.84128 0
M  V30 5784 H 537.536 -5.02593 0.202195 0
M  V30 5785 H 537.236 -5.56988 1.87185 0
M  V30 5786 H 538.76 -6.01463 1.05233 0
M  V30 5787 H 540.174 -4.87487 3.01711 0
M  V30 5788 H 538.571 -4.66165 3.77902 0
M  V30 5789 H 539.641 -3.26097 3.58871 0
M  V30 5790 N 540.985 -1.06182 -1.16461 0
M  V30 5791 C 542.21 -0.798599 -1.91408 0
M  V30 5792 C 542.635 0.640987 -1.76842 0
M  V30 5793 O 541.993 1.44652 -1.09296 0
M  V30 5794 C 542.041 -1.19665 -3.40165 0
M  V30 5795 O 541.145 -0.334768 -4.11039 0
M  V30 5796 H 540.486 -0.291961 -0.596368 0
M  V30 5797 H 543.016 -1.41732 -1.47557 0
M  V30 5798 H 543.026 -1.16772 -3.90933 0
M  V30 5799 H 541.701 -2.24526 -3.50087 0
M  V30 5800 H 540.278 -0.425168 -3.70468 0
M  V30 5801 N 542.463 1.3308 -0.844243 0
M  V30 5802 C 543.71 1.97605 -0.44255 0
M  V30 5803 C 544.038 1.66856 0.999458 0
M  V30 5804 O 543.293 0.943586 1.7145 0
M  V30 5805 C 543.592 3.52045 -0.616354 0
M  V30 5806 C 543.258 4.02757 -2.02726 0
M  V30 5807 C 541.92 4.16316 -2.41317 0
M  V30 5808 C 544.272 4.29776 -2.9486 0
M  V30 5809 C 541.6 4.54232 -3.71335 0
M  V30 5810 C 543.952 4.69146 -4.24364 0
M  V30 5811 C 542.616 4.80911 -4.62904 0
M  V30 5812 H 541.886 0.723088 -0.161941 0
M  V30 5813 H 544.533 1.58663 -1.0723 0
M  V30 5814 H 542.838 3.91681 0.0966812 0
M  V30 5815 H 544.535 3.99981 -0.285756 0
M  V30 5816 H 541.125 3.9268 -1.71756 0
M  V30 5817 H 545.309 4.18818 -2.6628 0
M  V30 5818 H 540.565 4.61535 -4.00993 0
M  V30 5819 H 544.739 4.89008 -4.95827 0
M  V30 5820 H 542.366 5.10048 -5.63698 0
M  V30 5821 N 543.941 0.601185 1.45683 0
M  V30 5822 C 545.19 0.0914953 2.01492 0
M  V30 5823 C 545.503 -1.28331 1.47616 0
M  V30 5824 O 546.709 -1.88537 1.95362 0
M  V30 5825 C 545.165 0.11291 3.59723 0
M  V30 5826 C 544.773 1.48717 4.22596 0
M  V30 5827 C 546.517 -0.341871 4.23121 0
M  V30 5828 C 544.424 1.46531 5.7296 0
M  V30 5829 H 543.354 0.0304365 0.753385 0
M  V30 5830 H 546.005 0.755568 1.67223 0
M  V30 5831 H 544.387 -0.617692 3.91153 0
M  V30 5832 H 545.561 2.23897 4.02749 0
M  V30 5833 H 543.876 1.88351 3.71366 0
M  V30 5834 H 546.473 -0.377304 5.33367 0
M  V30 5835 H 546.816 -1.36325 3.93346 0
M  V30 5836 H 547.349 0.335256 3.96385 0
M  V30 5837 H 544.088 2.46408 6.07423 0
M  V30 5838 H 543.608 0.755997 5.95017 0
M  V30 5839 H 545.287 1.18618 6.36034 0
M  V30 5840 N 545.419 -1.53889 0.339982 0
M  V30 5841 C 546.667 -2.00458 -0.257112 0
M  V30 5842 C 546.988 -1.22953 -1.51353 0
M  V30 5843 O 546.258 -0.335734 -1.93002 0
M  V30 5844 H 544.838 -0.740544 -0.0979965 0
M  V30 5845 H 547.5 -1.89386 0.460317 0
M  V30 5846 H 546.596 -3.08035 -0.502057 0
M  V30 5847 N 546.897 -0.0685191 -1.57451 0
M  V30 5848 C 548.125 0.610462 -1.97689 0
M  V30 5849 C 548.54 1.63346 -0.946758 0
M  V30 5850 O 547.897 1.82377 0.0669868 0
M  V30 5851 C 547.948 1.28196 -3.38006 0
M  V30 5852 O 547.669 0.299906 -4.37072 0
M  V30 5853 C 549.17 2.04907 -3.931 0
M  V30 5854 H 546.39 0.165689 -0.650222 0
M  V30 5855 H 548.934 -0.139953 -2.04021 0
M  V30 5856 H 547.089 1.98348 -3.32771 0
M  V30 5857 H 547.503 0.78126 -5.18649 0
M  V30 5858 H 548.977 2.47287 -4.93511 0
M  V30 5859 H 549.454 2.9043 -3.29465 0
M  V30 5860 H 550.06 1.39629 -4.01726 0
M  V30 5861 N 548.375 1.56261 0.205012 0
M  V30 5862 C 549.652 1.70856 0.952233 0
M  V30 5863 C 550.032 0.620501 2.01775 0
M  V30 5864 O 549.38 -0.370035 2.25484 0
M  V30 5865 C 549.59 3.12807 1.54767 0
M  V30 5866 C 550.938 3.72733 2.0336 0
M  V30 5867 O 551.962 3.15873 1.64629 0
M  V30 5868 O 550.821 4.72501 2.746 0
M  V30 5869 H 547.915 0.696496 0.445895 0
M  V30 5870 H 550.461 1.6857 0.195489 0
M  V30 5871 H 549.233 3.83465 0.779132 0
M  V30 5872 H 548.856 3.1928 2.36951 0
M  V30 5873 N 549.853 -0.472356 1.50355 0
M  V30 5874 C 550.816 -1.5529 1.68576 0
M  V30 5875 C 551.816 -1.50863 0.556511 0
M  V30 5876 O 553.006 -1.53505 0.823516 0
M  V30 5877 C 550.138 -2.94921 1.70981 0
M  V30 5878 H 551.331 -1.40451 2.64978 0
M  V30 5879 H 548.884 -0.698645 1.39816 0
M  V30 5880 H 549.619 -3.15204 0.762675 0
M  V30 5881 H 549.404 -2.99541 2.53017 0
M  V30 5882 H 550.894 -3.73372 1.87037 0
M  V30 5883 N 551.331 -1.39911 -0.725443 0
M  V30 5884 C 552.261 -1.42138 -1.85254 0
M  V30 5885 C 553.242 -0.283513 -1.67721 0
M  V30 5886 O 554.427 -0.490717 -1.87898 0
M  V30 5887 C 551.557 -1.27354 -3.23107 0
M  V30 5888 C 550.511 -2.3864 -3.55296 0
M  V30 5889 C 549.837 -2.08939 -4.92188 0
M  V30 5890 C 551.137 -3.8097 -3.57295 0
M  V30 5891 H 552.831 -2.36461 -1.83648 0
M  V30 5892 H 550.377 -1.13817 -0.882138 0
M  V30 5893 H 552.33 -1.2753 -4.01639 0
M  V30 5894 H 551.054 -0.295025 -3.25265 0
M  V30 5895 H 549.713 -2.37696 -2.79099 0
M  V30 5896 H 549.361 -1.09502 -4.90936 0
M  V30 5897 H 549.061 -2.83491 -5.14691 0
M  V30 5898 H 550.585 -2.10781 -5.73065 0
M  V30 5899 H 551.999 -3.8379 -4.25885 0
M  V30 5900 H 550.396 -4.5496 -3.9132 0
M  V30 5901 H 551.466 -4.11261 -2.5689 0
M  V30 5902 N 552.809 0.956637 -1.25245 0
M  V30 5903 C 554.034 1.74104 -1.12706 0
M  V30 5904 C 554.459 1.85436 0.315429 0
M  V30 5905 O 553.817 1.33334 1.22848 0
M  V30 5906 C 553.865 3.1338 -1.78396 0
M  V30 5907 O 552.969 3.98485 -1.06224 0
M  V30 5908 H 552.31 0.53476 -0.393609 0
M  V30 5909 H 554.84 1.19924 -1.65769 0
M  V30 5910 H 554.85 3.6385 -1.846 0
M  V30 5911 H 553.525 3.04448 -2.83345 0
M  V30 5912 H 552.102 3.56952 -1.07886 0
M  V30 5913 N 554.287 1.06798 1.15896 0
M  V30 5914 C 555.234 0.683314 2.20453 0
M  V30 5915 C 556.204 -0.32255 1.62938 0
M  V30 5916 O 557.389 -0.210276 1.89638 0
M  V30 5917 C 554.529 0.0813266 3.45004 0
M  V30 5918 C 553.642 1.13799 4.16742 0
M  V30 5919 C 552.777 0.501598 5.28826 0
M  V30 5920 C 551.816 1.54144 5.92373 0
M  V30 5921 N 550.953 0.928038 6.9594 0
M  V30 5922 H 555.793 1.57932 2.52708 0
M  V30 5923 H 553.33 0.789544 1.24115 0
M  V30 5924 H 555.288 -0.285274 4.16224 0
M  V30 5925 H 553.918 -0.77806 3.13283 0
M  V30 5926 H 552.97 1.62223 3.44075 0
M  V30 5927 H 554.282 1.92664 4.60089 0
M  V30 5928 H 553.436 0.0823162 6.06644 0
M  V30 5929 H 552.175 -0.318883 4.86656 0
M  V30 5930 H 551.18 1.97056 5.13273 0
M  V30 5931 H 552.405 2.3641 6.36621 0
M  V30 5932 H 550.351 0.12836 6.55874 0
M  V30 5933 H 550.268 1.65401 7.37685 0
M  V30 5934 H 551.536 0.534071 7.77668 0
M  V30 5935 N 555.766 -1.3263 0.851289 0
M  V30 5936 C 556.991 -2.02097 0.466006 0
M  V30 5937 C 557.416 -1.63574 -0.928709 0
M  V30 5938 O 556.774 -0.834665 -1.60944 0
M  V30 5939 C 556.822 -3.55425 0.608737 0
M  V30 5940 O 555.926 -4.10827 -0.359878 0
M  V30 5941 H 555.267 -0.636911 0.187724 0
M  V30 5942 H 557.797 -1.69253 1.14955 0
M  V30 5943 H 557.807 -4.04986 0.495006 0
M  V30 5944 H 556.482 -3.82806 1.62581 0
M  V30 5945 H 555.059 -3.72349 -0.202666 0
M  V30 5946 N 557.244 -0.608902 -1.45362 0
M  V30 5947 C 558.177 0.158059 -2.27652 0
M  V30 5948 C 559.155 0.872397 -1.37215 0
M  V30 5949 O 560.339 0.881002 -1.66645 0
M  V30 5950 C 557.466 1.22896 -3.15617 0
M  V30 5951 C 556.512 0.617607 -4.22005 0
M  V30 5952 S 557.345 -0.575518 -5.32398 0
M  V30 5953 C 558.501 0.495938 -6.23932 0
M  V30 5954 H 558.734 -0.540095 -2.92353 0
M  V30 5955 H 556.267 -0.396456 -1.49223 0
M  V30 5956 H 558.225 1.84195 -3.66855 0
M  V30 5957 H 556.886 1.89919 -2.50179 0
M  V30 5958 H 556.079 1.42341 -4.83482 0
M  V30 5959 H 555.681 0.0797273 -3.73915 0
M  V30 5960 H 557.973 1.37465 -6.63408 0
M  V30 5961 H 558.916 -0.0827108 -7.08052 0
M  V30 5962 H 559.324 0.811856 -5.58631 0
M  V30 5963 N 558.722 1.53707 -0.348139 0
M  V30 5964 C 559.685 2.23812 0.494058 0
M  V30 5965 C 560.685 1.23989 1.02388 0
M  V30 5966 O 561.875 1.48395 0.912396 0
M  V30 5967 C 559.007 2.96133 1.68872 0
M  V30 5968 H 560.2 2.99663 -0.119141 0
M  V30 5969 H 557.753 1.55983 -0.0995539 0
M  V30 5970 H 558.488 2.24481 2.34049 0
M  V30 5971 H 558.273 3.69357 1.31596 0
M  V30 5972 H 559.763 3.49475 2.28597 0
M  V30 5973 N 560.2 0.0768682 1.57412 0
M  V30 5974 C 561.11 -0.903207 2.16516 0
M  V30 5975 C 562.126 -1.32341 1.12968 0
M  V30 5976 O 563.302 -1.39507 1.45258 0
M  V30 5977 C 560.367 -2.1508 2.71922 0
M  V30 5978 C 559.428 -1.78653 3.90361 0
M  V30 5979 C 558.661 -2.97465 4.43114 0
M  V30 5980 O 558.884 -4.11638 3.94854 0
M  V30 5981 O 557.818 -2.76987 5.3438 0
M  V30 5982 H 561.644 -0.430427 3.00634 0
M  V30 5983 H 559.229 -0.146485 1.4868 0
M  V30 5984 H 561.111 -2.8823 3.07411 0
M  V30 5985 H 559.786 -2.61446 1.9086 0
M  V30 5986 H 558.693 -1.0274 3.59716 0
M  V30 5987 H 560.026 -1.37066 4.7273 0
M  V30 5988 N 561.678 -1.56367 -0.196722 0
M  V30 5989 C 562.927 -1.79724 -0.915539 0
M  V30 5990 C 563.24 -0.649804 -1.84491 0
M  V30 5991 O 564.446 -0.767631 -2.60422 0
M  V30 5992 C 562.902 -3.18369 -1.67836 0
M  V30 5993 C 562.51 -4.4091 -0.793897 0
M  V30 5994 C 564.254 -3.51037 -2.38691 0
M  V30 5995 C 562.161 -5.70577 -1.55549 0
M  V30 5996 H 561.091 -0.67013 -0.345604 0
M  V30 5997 H 563.742 -1.82721 -0.168856 0
M  V30 5998 H 562.124 -3.09617 -2.46887 0
M  V30 5999 H 563.298 -4.60781 -0.042163 0
M  V30 6000 H 561.613 -4.15937 -0.19626 0
M  V30 6001 H 564.21 -4.4515 -2.96219 0
M  V30 6002 H 564.553 -2.74704 -3.12799 0
M  V30 6003 H 565.086 -3.61229 -1.66608 0
M  V30 6004 H 561.825 -6.49871 -0.857226 0
M  V30 6005 H 561.345 -5.54726 -2.2812 0
M  V30 6006 H 563.024 -6.11637 -2.10971 0
M  V30 6007 N 563.156 0.464375 -1.50603 0
M  V30 6008 C 564.405 1.21277 -1.61167 0
M  V30 6009 C 564.718 1.92953 -0.320704 0
M  V30 6010 O 565.924 2.69778 -0.30534 0
M  V30 6011 C 564.38 2.20403 -2.84518 0
M  V30 6012 C 563.988 1.54499 -4.20516 0
M  V30 6013 C 565.732 2.95843 -3.0443 0
M  V30 6014 C 563.639 2.51951 -5.35047 0
M  V30 6015 H 562.569 0.456367 -0.600204 0
M  V30 6016 H 565.22 0.48254 -1.77042 0
M  V30 6017 H 563.602 2.96746 -2.62217 0
M  V30 6018 H 564.776 0.83899 -4.53098 0
M  V30 6019 H 563.091 0.913152 -4.06264 0
M  V30 6020 H 565.688 3.6879 -3.87167 0
M  V30 6021 H 566.031 3.55622 -2.16423 0
M  V30 6022 H 566.564 2.26611 -3.26944 0
M  V30 6023 H 563.303 1.96901 -6.25228 0
M  V30 6024 H 562.823 3.20683 -5.06875 0
M  V30 6025 H 564.502 3.13643 -5.65895 0
M  V30 6026 N 564.634 1.40294 0.718013 0
M  V30 6027 C 565.566 1.36281 1.84283 0
M  V30 6028 C 566.579 0.268621 1.60569 0
M  V30 6029 O 567.768 0.528798 1.70487 0
M  V30 6030 C 564.868 1.09741 3.2064 0
M  V30 6031 C 564.041 2.30767 3.71571 0
M  V30 6032 C 563.1 2.00424 4.86535 0
M  V30 6033 O 562.126 2.73268 4.99313 0
M  V30 6034 N 563.328 0.980724 5.72156 0
M  V30 6035 H 566.093 2.3322 1.88225 0
M  V30 6036 H 563.654 1.34616 0.899453 0
M  V30 6037 H 565.646 0.874322 3.95143 0
M  V30 6038 H 564.216 0.214771 3.11861 0
M  V30 6039 H 563.436 2.68921 2.88228 0
M  V30 6040 H 564.724 3.11455 4.02335 0
M  V30 6041 H 564.122 0.377375 5.6444 0
M  V30 6042 H 562.679 0.817538 6.46653 0
M  V30 6043 N 566.112 -0.949982 1.2575 0
M  V30 6044 C 567.075 -2.02894 1.06615 0
M  V30 6045 C 568.075 -1.60791 0.0173905 0
M  V30 6046 O 569.265 -1.72249 0.260003 0
M  V30 6047 C 566.397 -3.35219 0.619751 0
M  V30 6048 H 567.59 -2.21302 2.02399 0
M  V30 6049 H 565.143 -1.12772 1.08223 0
M  V30 6050 H 565.878 -3.22508 -0.340486 0
M  V30 6051 H 565.663 -3.67129 1.37692 0
M  V30 6052 H 567.153 -4.14505 0.507443 0
M  V30 6053 N 567.59 -1.07411 -1.15328 0
M  V30 6054 C 568.867 -0.710732 -1.82231 0
M  V30 6055 C 569.247 0.806732 -1.95077 0
M  V30 6056 O 568.595 1.72139 -1.50268 0
M  V30 6057 C 568.805 -1.42586 -3.18544 0
M  V30 6058 C 570.153 -1.57836 -3.94174 0
M  V30 6059 O 571.177 -1.38669 -3.281 0
M  V30 6060 O 570.036 -1.8938 -5.12638 0
M  V30 6061 H 567.13 -0.25297 -0.78736 0
M  V30 6062 H 569.676 -1.17508 -1.22434 0
M  V30 6063 H 568.448 -2.46008 -3.04296 0
M  V30 6064 H 568.071 -0.952332 -3.86026 0
M  V30 6065 N 569.068 1.32177 -0.85831 0
M  V30 6066 C 570.001 2.26823 -0.25035 0
M  V30 6067 C 570.979 1.50571 0.61378 0
M  V30 6068 O 572.163 1.79682 0.569777 0
M  V30 6069 C 569.29 3.32472 0.646556 0
M  V30 6070 C 568.336 4.26255 -0.144675 0
M  V30 6071 S 569.169 5.13608 -1.5155 0
M  V30 6072 C 570.325 6.22778 -0.624408 0
M  V30 6073 H 570.558 2.7804 -1.05267 0
M  V30 6074 H 568.091 1.39764 -0.656152 0
M  V30 6075 H 570.049 3.93817 1.15837 0
M  V30 6076 H 568.71 2.80031 1.42272 0
M  V30 6077 H 567.903 5.01114 0.538613 0
M  V30 6078 H 567.505 3.69346 -0.588198 0
M  V30 6079 H 569.797 6.77287 0.169846 0
M  V30 6080 H 570.74 6.95233 -1.34376 0
M  V30 6081 H 571.148 5.64156 -0.197128 0
M  V30 6082 N 570.547 0.616602 1.45037 0
M  V30 6083 C 571.963 0.280994 1.57107 0
M  V30 6084 C 572.163 -1.21627 1.60653 0
M  V30 6085 O 571.219 -1.9997 1.54169 0
M  V30 6086 C 572.532 0.960116 2.8496 0
M  V30 6087 C 574.08 0.936884 2.98649 0
M  V30 6088 C 574.555 1.59619 4.29285 0
M  V30 6089 N 576.046 1.5621 4.36065 0
M  V30 6090 C 576.781 2.04131 5.35834 0
M  V30 6091 N 576.277 2.60177 6.4209 0
M  V30 6092 N 578.07 1.94845 5.27249 0
M  V30 6093 H 570.221 1.58867 1.40979 0
M  V30 6094 H 572.484 0.666024 0.674623 0
M  V30 6095 H 572.19 2.01473 2.88273 0
M  V30 6096 H 572.064 0.488921 3.74018 0
M  V30 6097 H 574.451 -0.109209 2.94898 0
M  V30 6098 H 574.532 1.44643 2.10979 0
M  V30 6099 H 574.176 2.64166 4.33796 0
M  V30 6100 H 574.106 1.06159 5.15789 0
M  V30 6101 H 576.597 1.15276 3.59889 0
M  V30 6102 H 576.91 2.94513 7.1448 0
M  V30 6103 H 575.255 2.64221 6.42816 0
M  V30 6104 H 578.446 1.50792 4.43147 0
M  V30 6105 H 578.619 2.32504 6.04852 0
M  V30 6106 N 572.025 -1.5352 0.356285 0
M  V30 6107 C 572.957 -2.23009 -0.529127 0
M  V30 6108 C 573.97 -1.241 -1.05371 0
M  V30 6109 O 575.159 -1.50379 -0.961679 0
M  V30 6110 C 572.259 -2.90685 -1.74229 0
M  V30 6111 C 571.432 -4.16019 -1.35081 0
M  V30 6112 C 570.491 -4.66989 -2.42502 0
M  V30 6113 O 569.517 -5.30895 -2.05279 0
M  V30 6114 N 570.719 -4.44006 -3.7395 0
M  V30 6115 H 573.484 -2.99627 0.0660501 0
M  V30 6116 H 571.045 -1.60885 0.181014 0
M  V30 6117 H 573.037 -3.21695 -2.4555 0
M  V30 6118 H 571.607 -2.17575 -2.24454 0
M  V30 6119 H 570.827 -3.91414 -0.467833 0
M  V30 6120 H 572.115 -4.9752 -1.06542 0
M  V30 6121 H 571.513 -3.92924 -4.06973 0
M  V30 6122 H 570.07 -4.7959 -4.41403 0
M  V30 6123 N 573.503 -0.0852151 -1.57369 0
M  V30 6124 C 574.752 0.580443 -1.93168 0
M  V30 6125 C 575.065 1.6995 -0.968319 0
M  V30 6126 O 576.271 2.42564 -1.21963 0
M  V30 6127 C 574.727 1.08386 -3.43192 0
M  V30 6128 C 574.335 -0.00491388 -4.48 0
M  V30 6129 C 576.079 1.72281 -3.87968 0
M  V30 6130 C 573.986 0.513299 -5.89168 0
M  V30 6131 H 572.916 0.22059 -0.72101 0
M  V30 6132 H 575.567 -0.159621 -1.82804 0
M  V30 6133 H 573.949 1.8773 -3.48674 0
M  V30 6134 H 575.123 -0.780032 -4.5415 0
M  V30 6135 H 573.438 -0.548453 -4.12772 0
M  V30 6136 H 576.035 2.12108 -4.9083 0
M  V30 6137 H 576.378 2.58811 -3.26071 0
M  V30 6138 H 576.911 0.995359 -3.85146 0
M  V30 6139 H 573.65 -0.315153 -6.54742 0
M  V30 6140 H 573.17 1.25564 -5.8651 0
M  V30 6141 H 574.849 0.985433 -6.39451 0
M  V30 6142 N 574.981 1.5647 0.188427 0
M  V30 6143 C 576.229 1.80655 0.905986 0
M  V30 6144 C 576.55 0.659391 1.83513 0
M  V30 6145 O 575.82 -0.321868 1.93238 0
M  V30 6146 H 574.4 0.666391 0.337538 0
M  V30 6147 H 577.062 1.93949 0.192339 0
M  V30 6148 H 576.158 2.74066 1.49313 0
M  V30 6149 N 576.459 -0.456382 1.50847 0
M  V30 6150 C 577.422 -1.53493 1.70213 0
M  V30 6151 C 578.422 -1.50264 0.572481 0
M  V30 6152 O 579.612 -1.52623 0.839751 0
M  V30 6153 C 576.744 -2.93091 1.741 0
M  V30 6154 H 577.937 -1.37633 2.66453 0
M  V30 6155 H 575.49 -0.683776 1.4055 0
M  V30 6156 H 576.225 -3.14378 0.796063 0
M  V30 6157 H 576.01 -2.9684 2.5618 0
M  V30 6158 H 577.5 -3.71368 1.90987 0
M  V30 6159 N 577.937 -1.40673 -0.710563 0
M  V30 6160 C 579.214 -1.29718 -1.46398 0
M  V30 6161 C 579.594 0.082177 -2.1094 0
M  V30 6162 O 578.942 1.09536 -2.00534 0
M  V30 6163 C 579.152 -2.43967 -2.49562 0
M  V30 6164 C 580.5 -2.84436 -3.15248 0
M  V30 6165 O 581.524 -2.43597 -2.59883 0
M  V30 6166 O 580.383 -3.55008 -4.1549 0
M  V30 6167 H 577.477 -0.509697 -0.651258 0
M  V30 6168 H 580.023 -1.52603 -0.742312 0
M  V30 6169 H 578.795 -3.36076 -2.0042 0
M  V30 6170 H 578.418 -2.22879 -3.29258 0
M  V30 6171 N 579.415 0.9433 -1.26252 0
M  V30 6172 C 580.661 1.69175 -1.11837 0
M  V30 6173 C 580.994 1.91238 0.337891 0
M  V30 6174 O 580.269 1.49152 1.24836 0
M  V30 6175 C 580.552 3.06783 -1.88563 0
M  V30 6176 C 580.405 2.9206 -3.42083 0
M  V30 6177 C 581.724 4.06865 -1.67776 0
M  V30 6178 H 578.843 0.61399 -0.407658 0
M  V30 6179 H 581.485 1.09572 -1.55222 0
M  V30 6180 H 579.635 3.57663 -1.51689 0
M  V30 6181 H 581.307 2.48419 -3.88698 0
M  V30 6182 H 579.55 2.27731 -3.69217 0
M  V30 6183 H 580.221 3.89651 -3.90994 0
M  V30 6184 H 582.697 3.64939 -1.99897 0
M  V30 6185 H 581.573 5.01168 -2.23879 0
M  V30 6186 H 581.834 4.37705 -0.621816 0
M  V30 6187 N 580.893 1.08022 1.14757 0
M  V30 6188 C 582.118 0.82895 1.90114 0
M  V30 6189 C 582.543 -0.612772 1.77839 0
M  V30 6190 O 581.901 -1.42895 1.11583 0
M  V30 6191 C 581.949 1.25062 3.38219 0
M  V30 6192 O 581.053 0.400119 4.10454 0
M  V30 6193 H 580.394 0.301412 0.591648 0
M  V30 6194 H 582.924 1.44062 1.45284 0
M  V30 6195 H 582.934 1.22977 3.89025 0
M  V30 6196 H 581.609 2.30067 3.46471 0
M  V30 6197 H 580.186 0.484052 3.69745 0
M  V30 6198 N 582.371 -1.3172 0.865308 0
M  V30 6199 C 583.301 -2.31109 0.333302 0
M  V30 6200 C 584.282 -1.60148 -0.573301 0
M  V30 6201 O 585.467 -1.87882 -0.491305 0
M  V30 6202 C 582.597 -3.44104 -0.470078 0
M  V30 6203 C 581.551 -4.26623 0.343021 0
M  V30 6204 C 580.877 -5.31482 -0.585756 0
M  V30 6205 C 582.177 -4.98001 1.57456 0
M  V30 6206 H 583.871 -2.75855 1.1638 0
M  V30 6207 H 581.417 -1.3262 0.561069 0
M  V30 6208 H 583.37 -4.12682 -0.852752 0
M  V30 6209 H 582.094 -2.98112 -1.33404 0
M  V30 6210 H 580.753 -3.59707 0.707583 0
M  V30 6211 H 580.401 -4.81741 -1.44686 0
M  V30 6212 H 580.101 -5.87582 -0.0456494 0
M  V30 6213 H 581.625 -6.0292 -0.965375 0
M  V30 6214 H 583.039 -5.59201 1.26359 0
M  V30 6215 H 581.436 -5.63876 2.05339 0
M  V30 6216 H 582.506 -4.25253 2.32997 0
M  V30 6217 N 583.85 -0.624285 -1.44708 0
M  V30 6218 C 585.099 -0.123539 -2.01321 0
M  V30 6219 C 585.412 1.25966 -1.49639 0
M  V30 6220 O 586.618 1.85405 -1.98336 0
M  V30 6221 C 585.074 -0.170124 -3.59498 0
M  V30 6222 C 584.682 -1.55421 -4.20176 0
M  V30 6223 C 586.426 0.274513 -4.23611 0
M  V30 6224 C 584.332 -1.55628 -5.70556 0
M  V30 6225 H 583.263 -0.0424183 -0.752806 0
M  V30 6226 H 585.913 -0.782076 -1.65999 0
M  V30 6227 H 584.296 0.555385 -3.92086 0
M  V30 6228 H 585.47 -2.30276 -3.99136 0
M  V30 6229 H 583.784 -1.94235 -3.68323 0
M  V30 6230 H 586.382 0.292402 -5.339 0
M  V30 6231 H 586.725 1.3005 -3.95465 0
M  V30 6232 H 587.258 -0.398275 -3.95801 0
M  V30 6233 H 583.997 -2.56041 -6.03426 0
M  V30 6234 H 583.517 -0.850563 -5.93739 0
M  V30 6235 H 585.196 -1.28721 -6.34066 0
M  V30 6236 N 585.328 1.53329 -0.364422 0
M  V30 6237 C 586.576 2.00842 0.225189 0
M  V30 6238 C 586.897 1.25345 1.49378 0
M  V30 6239 O 586.167 0.366396 1.92443 0
M  V30 6240 H 584.747 0.742009 0.0862027 0
M  V30 6241 H 587.409 1.8863 -0.490389 0
M  V30 6242 H 586.505 3.08795 0.452987 0
M  V30 6243 N 586.806 0.0935595 1.57322 0
M  V30 6244 C 587.716 -0.880192 2.17462 0
M  V30 6245 C 588.732 -1.31135 1.14366 0
M  V30 6246 O 589.908 -1.37958 1.46729 0
M  V30 6247 C 586.973 -2.12184 2.74188 0
M  V30 6248 C 586.034 -1.74503 3.92234 0
M  V30 6249 C 585.267 -2.92748 4.46245 0
M  V30 6250 O 585.49 -4.07427 3.99198 0
M  V30 6251 O 584.424 -2.71303 5.37288 0
M  V30 6252 H 588.25 -0.398516 3.01074 0
M  V30 6253 H 585.835 -0.130707 1.48827 0
M  V30 6254 H 587.717 -2.84953 3.10451 0
M  V30 6255 H 586.392 -2.59407 1.93623 0
M  V30 6256 H 585.299 -0.989186 3.60785 0
M  V30 6257 H 586.632 -1.32044 4.74157 0
M  V30 6258 N 588.284 -1.56567 -0.180126 0
M  V30 6259 C 589.194 -1.98947 -1.24327 0
M  V30 6260 C 590.21 -0.899446 -1.4895 0
M  V30 6261 O 591.386 -1.20639 -1.61271 0
M  V30 6262 C 588.451 -2.33328 -2.56435 0
M  V30 6263 C 587.512 -3.56114 -2.39752 0
M  V30 6264 C 586.745 -3.88845 -3.65561 0
M  V30 6265 O 586.968 -3.22662 -4.70368 0
M  V30 6266 O 585.902 -4.82226 -3.60197 0
M  V30 6267 H 589.728 -2.89634 -0.913565 0
M  V30 6268 H 587.313 -1.44319 -0.386306 0
M  V30 6269 H 589.195 -2.5645 -3.34382 0
M  V30 6270 H 587.87 -1.45806 -2.89002 0
M  V30 6271 H 586.777 -3.38221 -1.59866 0
M  V30 6272 H 588.11 -4.4415 -2.12113 0
M  V30 6273 N 589.762 0.448376 -1.51087 0
M  V30 6274 C 590.672 1.56882 -1.74428 0
M  V30 6275 C 591.688 1.62268 -0.62809 0
M  V30 6276 O 592.864 1.79716 -0.909075 0
M  V30 6277 C 589.929 2.92947 -1.85426 0
M  V30 6278 C 588.99 2.97766 -3.09247 0
M  V30 6279 C 588.223 4.27341 -3.19711 0
M  V30 6280 O 588.446 5.19112 -2.36387 0
M  V30 6281 O 587.38 4.38219 -4.12611 0
M  V30 6282 H 591.206 1.40104 -2.69452 0
M  V30 6283 H 588.791 0.630247 -1.35456 0
M  V30 6284 H 590.673 3.73719 -1.94709 0
M  V30 6285 H 589.348 3.09876 -0.935887 0
M  V30 6286 H 588.255 2.15989 -3.0545 0
M  V30 6287 H 589.588 2.8578 -4.00738 0
M  V30 6288 N 591.24 1.41047 0.703093 0
M  V30 6289 C 592.465 1.43537 1.49706 0
M  V30 6290 C 592.89 0.0401853 1.88057 0
M  V30 6291 O 592.248 -0.954785 1.54122 0
M  V30 6292 C 592.296 2.3433 2.74084 0
M  V30 6293 O 591.4 1.79515 3.71279 0
M  V30 6294 H 590.741 0.487454 0.450871 0
M  V30 6295 H 593.271 1.85422 0.86486 0
M  V30 6296 H 593.281 2.49947 3.22476 0
M  V30 6297 H 591.956 3.35708 2.45506 0
M  V30 6298 H 590.533 1.7331 3.30179 0
M  V30 6299 N 592.718 -0.936591 1.26751 0
M  V30 6300 C 593.943 -1.72288 1.15462 0
M  V30 6301 C 594.368 -1.85915 -0.285887 0
M  V30 6302 O 593.726 -1.35272 -1.20711 0
M  V30 6303 C 593.774 -3.10503 1.83359 0
M  V30 6304 O 592.878 -3.96745 1.1255 0
M  V30 6305 H 592.219 -0.52843 0.402067 0
M  V30 6306 H 594.749 -1.17271 1.67656 0
M  V30 6307 H 594.759 -3.60867 1.90365 0
M  V30 6308 H 593.434 -2.99901 2.88153 0
M  V30 6309 H 592.011 -3.55191 1.13551 0
M  V30 6310 N 594.196 -1.08629 -1.14182 0
M  V30 6311 C 595.445 -0.812271 -1.84621 0
M  V30 6312 C 595.758 0.664313 -1.83973 0
M  V30 6313 O 596.964 1.05357 -2.50224 0
M  V30 6314 C 595.42 -1.4031 -3.31423 0
M  V30 6315 C 595.028 -2.91164 -3.40481 0
M  V30 6316 C 596.772 -1.20767 -4.06959 0
M  V30 6317 C 594.679 -3.43373 -4.81507 0
M  V30 6318 H 593.609 -0.30019 -0.691666 0
M  V30 6319 H 596.26 -1.30798 -1.28701 0
M  V30 6320 H 594.642 -0.835096 -3.87094 0
M  V30 6321 H 595.816 -3.5412 -2.94848 0
M  V30 6322 H 594.131 -3.09646 -2.78403 0
M  V30 6323 H 596.728 -1.57237 -5.11058 0
M  V30 6324 H 597.071 -0.147664 -4.16038 0
M  V30 6325 H 597.604 -1.74274 -3.57594 0
M  V30 6326 H 594.343 -4.48958 -4.77616 0
M  V30 6327 H 593.863 -2.85176 -5.27669 0
M  V30 6328 H 595.542 -3.40095 -5.50404 0
M  V30 6329 N 595.674 1.31259 -0.872281 0
M  V30 6330 C 596.904 2.00504 -0.498183 0
M  V30 6331 C 597.312 1.65632 0.914479 0
M  V30 6332 O 596.655 0.882849 1.61095 0
M  V30 6333 C 596.717 3.5482 -0.578194 0
M  V30 6334 C 596.381 4.13172 -1.95289 0
M  V30 6335 C 597.378 4.30107 -2.92069 0
M  V30 6336 C 595.063 4.48846 -2.25483 0
M  V30 6337 C 597.057 4.81908 -4.17185 0
M  V30 6338 C 594.744 5.00349 -3.50847 0
M  V30 6339 C 595.742 5.16831 -4.46514 0
M  V30 6340 O 595.43 5.67228 -5.69656 0
M  V30 6341 H 595.162 0.648055 -0.192354 0
M  V30 6342 H 597.716 1.6841 -1.17589 0
M  V30 6343 H 595.946 3.86383 0.156438 0
M  V30 6344 H 597.635 4.05318 -0.217192 0
M  V30 6345 H 598.401 4.02862 -2.7005 0
M  V30 6346 H 594.28 4.35292 -1.51795 0
M  V30 6347 H 597.824 4.94688 -4.91863 0
M  V30 6348 H 593.721 5.27028 -3.72708 0
M  V30 6349 H 594.489 5.85592 -5.7186 0
M  V30 6350 N 597.152 0.631951 1.44375 0
M  V30 6351 C 598.115 -0.0628142 2.29114 0
M  V30 6352 C 599.115 -0.771494 1.41084 0
M  V30 6353 O 600.305 -0.615959 1.62947 0
M  V30 6354 C 597.437 -1.09953 3.22681 0
M  V30 6355 H 598.63 0.682509 2.92031 0
M  V30 6356 H 596.183 0.392128 1.51301 0
M  V30 6357 H 596.918 -1.87481 2.64616 0
M  V30 6358 H 596.703 -0.595286 3.87555 0
M  V30 6359 H 598.193 -1.58538 3.86336 0
M  V30 6360 N 598.631 -1.53133 0.372548 0
M  V30 6361 C 600.047 -1.59585 0.02178 0
M  V30 6362 C 600.247 -1.38736 -1.46132 0
M  V30 6363 O 599.303 -1.19599 -2.22379 0
M  V30 6364 C 600.616 -2.9678 0.483959 0
M  V30 6365 C 602.164 -3.09909 0.438775 0
M  V30 6366 C 602.639 -4.49527 0.876876 0
M  V30 6367 N 604.13 -4.55663 0.832214 0
M  V30 6368 C 604.865 -5.61896 1.14281 0
M  V30 6369 N 604.361 -6.75852 1.52303 0
M  V30 6370 N 606.154 -5.51916 1.06515 0
M  V30 6371 H 598.305 -1.64936 1.33827 0
M  V30 6372 H 600.568 -0.773947 0.547458 0
M  V30 6373 H 600.274 -3.17198 1.51915 0
M  V30 6374 H 600.148 -3.7699 -0.125784 0
M  V30 6375 H 602.535 -2.89197 -0.587294 0
M  V30 6376 H 602.616 -2.31691 1.0841 0
M  V30 6377 H 602.26 -4.70979 1.90109 0
M  V30 6378 H 602.19 -5.26186 0.208727 0
M  V30 6379 H 604.681 -3.73844 0.552195 0
M  V30 6380 H 604.994 -7.52862 1.7441 0
M  V30 6381 H 603.339 -6.77226 1.56175 0
M  V30 6382 H 606.53 -4.6177 0.767235 0
M  V30 6383 H 606.703 -6.34609 1.31053 0
M  V30 6384 N 600.109 -0.101901 -1.5727 0
M  V30 6385 C 601.041 0.884723 -2.11436 0
M  V30 6386 C 602.054 1.24149 -1.05314 0
M  V30 6387 O 603.243 1.19341 -1.3274 0
M  V30 6388 C 600.343 2.19179 -2.58484 0
M  V30 6389 C 599.516 2.00933 -3.88516 0
M  V30 6390 C 598.575 3.15213 -4.2134 0
M  V30 6391 O 597.601 2.88877 -4.90448 0
M  V30 6392 N 598.803 4.41174 -3.77288 0
M  V30 6393 H 601.568 0.422058 -2.96713 0
M  V30 6394 H 599.129 0.0830128 -1.61687 0
M  V30 6395 H 601.121 2.94593 -2.77484 0
M  V30 6396 H 599.691 2.56847 -1.7818 0
M  V30 6397 H 598.911 1.09809 -3.78597 0
M  V30 6398 H 600.199 1.86026 -4.73573 0
M  V30 6399 H 599.597 4.6545 -3.21516 0
M  V30 6400 H 598.154 5.13515 -4.01429 0
M  V30 6401 N 601.587 1.56661 0.17182 0
M  V30 6402 C 603.003 1.50768 0.52357 0
M  V30 6403 C 603.203 0.806072 1.84675 0
M  V30 6404 O 602.259 0.366233 2.4983 0
M  V30 6405 C 603.572 2.955 0.556793 0
M  V30 6406 C 605.12 3.06303 0.644029 0
M  V30 6407 C 605.595 4.52492 0.708148 0
M  V30 6408 N 607.086 4.56737 0.771051 0
M  V30 6409 C 607.821 5.67196 0.841229 0
M  V30 6410 N 607.317 6.87287 0.872272 0
M  V30 6411 N 609.11 5.55165 0.88021 0
M  V30 6412 H 601.261 2.00679 -0.695817 0
M  V30 6413 H 603.524 0.914219 -0.250814 0
M  V30 6414 H 603.23 3.49986 -0.346774 0
M  V30 6415 H 603.104 3.50119 1.40346 0
M  V30 6416 H 605.491 2.51851 1.53802 0
M  V30 6417 H 605.572 2.5477 -0.229297 0
M  V30 6418 H 605.216 5.07575 -0.181585 0
M  V30 6419 H 605.146 5.01781 1.59761 0
M  V30 6420 H 607.637 3.70274 0.755364 0
M  V30 6421 H 607.95 7.6722 0.92698 0
M  V30 6422 H 606.295 6.89898 0.840557 0
M  V30 6423 H 609.486 4.60263 0.852956 0
M  V30 6424 H 609.659 6.41271 0.931439 0
M  V30 6425 N 603.065 -0.440357 1.51323 0
M  V30 6426 C 604.342 -1.20109 1.5438 0
M  V30 6427 C 604.722 -2.08866 0.306303 0
M  V30 6428 O 604.07 -2.1723 -0.708773 0
M  V30 6429 C 604.28 -2.00555 2.8562 0
M  V30 6430 C 605.628 -2.577 3.37455 0
M  V30 6431 O 606.652 -2.10769 2.8715 0
M  V30 6432 O 605.511 -3.43289 4.25224 0
M  V30 6433 H 602.605 -0.546668 0.620551 0
M  V30 6434 H 605.151 -0.449672 1.63634 0
M  V30 6435 H 603.923 -1.35346 3.67147 0
M  V30 6436 H 603.546 -2.82768 2.79514 0
M  V30 6437 N 604.543 -1.41418 -0.695603 0
M  V30 6438 C 605.791 -1.40496 -1.45277 0
M  V30 6439 C 606.112 -0.0149538 -1.94994 0
M  V30 6440 O 605.382 0.9432 -1.71699 0
M  V30 6441 H 603.962 -0.517147 -0.539044 0
M  V30 6442 H 606.624 -1.76656 -0.823321 0
M  V30 6443 H 605.72 -2.09214 -2.31595 0
M  V30 6444 N 606.021 0.929856 -1.27246 0
M  V30 6445 C 607.437 1.20542 -1.04603 0
M  V30 6446 C 607.637 2.00276 0.221754 0
M  V30 6447 O 606.693 2.34835 0.927833 0
M  V30 6448 C 608.006 1.95566 -2.28417 0
M  V30 6449 C 609.554 2.08513 -2.33433 0
M  V30 6450 C 610.029 2.86943 -3.5697 0
M  V30 6451 N 611.52 2.94512 -3.57515 0
M  V30 6452 C 612.255 3.55656 -4.49774 0
M  V30 6453 N 611.751 4.18209 -5.52334 0
M  V30 6454 N 613.544 3.53038 -4.37402 0
M  V30 6455 H 605.695 0.397113 -2.08655 0
M  V30 6456 H 607.958 0.238277 -0.917566 0
M  V30 6457 H 607.664 1.44395 -3.20691 0
M  V30 6458 H 607.538 2.9619 -2.33563 0
M  V30 6459 H 609.925 2.58872 -1.41666 0
M  V30 6460 H 610.006 1.07117 -2.32292 0
M  V30 6461 H 609.65 2.37268 -4.49072 0
M  V30 6462 H 609.58 3.8862 -3.55362 0
M  V30 6463 H 612.071 2.50053 -2.83341 0
M  V30 6464 H 612.384 4.62796 -6.18902 0
M  V30 6465 H 610.729 4.16761 -5.56179 0
M  V30 6466 H 613.92 3.0337 -3.56489 0
M  V30 6467 H 614.093 4.004 -5.09493 0
M  V30 6468 N 607.499 1.09233 1.13605 0
M  V30 6469 C 608.746 0.827159 1.84836 0
M  V30 6470 C 609.074 -0.647199 1.83416 0
M  V30 6471 O 608.329 -1.49228 1.26608 0
M  V30 6472 C 608.628 1.305 3.32723 0
M  V30 6473 C 608.294 2.78864 3.54325 0
M  V30 6474 C 606.956 3.19382 3.59928 0
M  V30 6475 C 609.308 3.74532 3.62457 0
M  V30 6476 C 606.636 4.54346 3.71196 0
M  V30 6477 C 608.988 5.09283 3.75252 0
M  V30 6478 C 607.652 5.49394 3.79108 0
M  V30 6479 H 606.922 0.302679 0.676363 0
M  V30 6480 H 609.569 1.36676 1.34134 0
M  V30 6481 H 607.874 0.68517 3.85762 0
M  V30 6482 H 609.571 1.07648 3.86281 0
M  V30 6483 H 606.161 2.46507 3.50617 0
M  V30 6484 H 610.345 3.44343 3.57409 0
M  V30 6485 H 605.601 4.84864 3.72447 0
M  V30 6486 H 609.775 5.83269 3.80487 0
M  V30 6487 H 607.402 6.5397 3.87591 0
M  V30 6488 N 608.977 -1.30795 0.87923 0
M  V30 6489 C 610.225 -1.95974 0.493809 0
M  V30 6490 C 610.546 -1.69787 -0.959021 0
M  V30 6491 O 609.816 -1.01832 -1.67353 0
M  V30 6492 H 608.396 -0.725083 0.179622 0
M  V30 6493 H 611.058 -1.59432 1.12105 0
M  V30 6494 H 610.154 -3.05058 0.659263 0
M  V30 6495 N 610.455 -0.639598 -1.44038 0
M  V30 6496 C 611.388 0.109736 -2.27936 0
M  V30 6497 C 612.366 0.843095 -1.39035 0
M  V30 6498 O 613.55 0.845456 -1.68476 0
M  V30 6499 C 610.677 1.16173 -3.18153 0
M  V30 6500 C 609.723 0.527954 -4.2322 0
M  V30 6501 S 610.556 -0.688318 -5.31058 0
M  V30 6502 C 611.712 0.363481 -6.24844 0
M  V30 6503 H 611.945 -0.601986 -2.91142 0
M  V30 6504 H 609.478 -0.42802 -1.48349 0
M  V30 6505 H 611.436 1.76372 -3.7068 0
M  V30 6506 H 610.097 1.84569 -2.54151 0
M  V30 6507 H 609.29 1.32054 -4.86393 0
M  V30 6508 H 608.892 0.000396444 -3.74 0
M  V30 6509 H 611.184 1.23362 -6.66174 0
M  V30 6510 H 612.127 -0.23288 -7.07717 0
M  V30 6511 H 612.535 0.693179 -5.60228 0
M  V30 6512 N 611.933 1.52934 -0.380664 0
M  V30 6513 C 613.182 2.00651 0.205477 0
M  V30 6514 C 613.495 1.27164 1.48623 0
M  V30 6515 O 614.701 1.65547 2.15189 0
M  V30 6516 C 613.157 3.57479 0.416726 0
M  V30 6517 C 612.765 4.39857 -0.850268 0
M  V30 6518 C 614.509 4.13509 0.959702 0
M  V30 6519 C 612.416 5.88269 -0.607773 0
M  V30 6520 H 611.346 0.749684 0.0805614 0
M  V30 6521 H 613.997 1.76508 -0.501732 0
M  V30 6522 H 612.379 3.77836 1.18557 0
M  V30 6523 H 613.553 4.31269 -1.62307 0
M  V30 6524 H 611.868 3.95005 -1.31756 0
M  V30 6525 H 614.465 5.22039 1.15669 0
M  V30 6526 H 614.808 3.69054 1.92626 0
M  V30 6527 H 615.341 3.9701 0.250645 0
M  V30 6528 H 612.08 6.3703 -1.54509 0
M  V30 6529 H 611.6 5.99667 0.126247 0
M  V30 6530 H 613.279 6.46558 -0.239014 0
M  V30 6531 N 613.412 0.11024 1.57214 0
M  V30 6532 C 614.659 -0.54987 1.94891 0
M  V30 6533 C 614.987 -1.67243 0.992984 0
M  V30 6534 O 614.242 -1.95694 0.0152703 0
M  V30 6535 C 614.541 -1.13102 3.39032 0
M  V30 6536 C 614.207 -0.130713 4.5071 0
M  V30 6537 C 612.869 0.14437 4.80983 0
M  V30 6538 C 615.221 0.551472 5.18274 0
M  V30 6539 C 612.549 1.10807 5.76141 0
M  V30 6540 C 614.901 1.50375 6.14467 0
M  V30 6541 C 613.565 1.78691 6.43138 0
M  V30 6542 H 612.835 -0.201212 0.713158 0
M  V30 6543 H 615.482 0.189288 1.90562 0
M  V30 6544 H 613.787 -1.94675 3.40013 0
M  V30 6545 H 615.484 -1.64973 3.65493 0
M  V30 6546 H 612.074 -0.355301 4.27125 0
M  V30 6547 H 616.258 0.35211 4.95049 0
M  V30 6548 H 611.514 1.3343 5.96663 0
M  V30 6549 H 615.688 2.03808 6.65909 0
M  V30 6550 H 613.315 2.53522 7.1668 0
M  V30 6551 N 614.89 -1.56749 -0.16351 0
M  V30 6552 C 615.84 -1.93424 -1.20712 0
M  V30 6553 C 616.824 -0.803469 -1.39403 0
M  V30 6554 O 618.016 -1.06675 -1.41243 0
M  V30 6555 C 615.145 -2.30431 -2.54473 0
M  V30 6556 C 614.231 -3.5004 -2.39443 0
M  V30 6557 N 614.622 -4.67058 -1.9414 0
M  V30 6558 C 612.92 -3.548 -2.70246 0
M  V30 6559 C 613.621 -5.49184 -1.9176 0
M  V30 6560 N 612.597 -4.9044 -2.34457 0
M  V30 6561 H 616.399 -2.8138 -0.848681 0
M  V30 6562 H 613.913 -1.58089 -0.371717 0
M  V30 6563 H 615.91 -2.54903 -3.29894 0
M  V30 6564 H 614.57 -1.43818 -2.91112 0
M  V30 6565 H 615.581 -4.91128 -1.64357 0
M  V30 6566 H 612.258 -2.78685 -3.10871 0
M  V30 6567 H 613.648 -6.5297 -1.58366 0
M  V30 6568 N 616.368 0.432326 -1.51554 0
M  V30 6569 C 617.784 0.769195 -1.39841 0
M  V30 6570 C 617.984 1.95584 -0.484675 0
M  V30 6571 O 617.04 2.52433 0.0582829 0
M  V30 6572 C 618.353 1.04487 -2.81963 0
M  V30 6573 C 619.901 1.149 -2.91148 0
M  V30 6574 C 620.376 1.45758 -4.34187 0
M  V30 6575 N 621.867 1.52671 -4.37317 0
M  V30 6576 C 622.602 1.78129 -5.4503 0
M  V30 6577 N 622.098 2.01345 -6.62897 0
M  V30 6578 N 623.891 1.79953 -5.32516 0
M  V30 6579 H 616.042 -0.349122 -2.09511 0
M  V30 6580 H 618.305 -0.0938113 -0.943347 0
M  V30 6581 H 618.011 0.24557 -3.50842 0
M  V30 6582 H 617.885 1.97119 -3.21596 0
M  V30 6583 H 620.272 1.93891 -2.22464 0
M  V30 6584 H 620.353 0.201568 -2.55005 0
M  V30 6585 H 619.997 0.672917 -5.03423 0
M  V30 6586 H 619.927 2.41715 -4.67848 0
M  V30 6587 H 622.418 1.36612 -3.52343 0
M  V30 6588 H 622.731 2.20155 -7.40778 0
M  V30 6589 H 621.076 1.98657 -6.66003 0
M  V30 6590 H 624.267 1.61337 -4.39418 0
M  V30 6591 H 624.44 1.99455 -6.1654 0
M  V30 6592 N 617.846 1.41785 0.688094 0
M  V30 6593 C 619.074 1.44915 1.47673 0
M  V30 6594 C 619.489 0.0565786 1.88715 0
M  V30 6595 O 618.846 -0.92579 1.57275 0
M  V30 6596 C 618.897 2.36452 2.73446 0
M  V30 6597 O 618.618 3.7029 2.34131 0
M  V30 6598 C 620.119 2.48463 3.67125 0
M  V30 6599 H 617.339 0.493324 0.454832 0
M  V30 6600 H 619.883 1.86153 0.846594 0
M  V30 6601 H 618.038 1.98502 3.3268 0
M  V30 6602 H 618.452 4.19183 3.15255 0
M  V30 6603 H 619.926 3.16662 4.52138 0
M  V30 6604 H 620.403 1.51826 4.12123 0
M  V30 6605 H 621.009 2.8708 3.13792 0
M  V30 6606 N 619.324 -0.923095 1.27737 0
M  V30 6607 C 620.57 -1.67409 1.15524 0
M  V30 6608 C 620.925 -1.90124 -0.295072 0
M  V30 6609 O 620.218 -1.48382 -1.21216 0
M  V30 6610 C 620.412 -3.04125 1.8773 0
M  V30 6611 C 620.241 -2.94752 3.39634 0
M  V30 6612 C 619.011 -2.96783 4.0896 0
M  V30 6613 C 621.209 -2.73524 4.35533 0
M  V30 6614 N 619.191 -2.779 5.47398 0
M  V30 6615 C 620.562 -2.63391 5.61271 0
M  V30 6616 C 622.617 -2.58447 4.2557 0
M  V30 6617 C 621.32 -2.3972 6.78179 0
M  V30 6618 C 623.346 -2.36154 5.42204 0
M  V30 6619 C 622.708 -2.26768 6.669 0
M  V30 6620 H 618.807 -0.619196 0.477619 0
M  V30 6621 H 621.391 -1.09094 1.61266 0
M  V30 6622 H 619.562 -3.60545 1.44436 0
M  V30 6623 H 621.294 -3.6819 1.67982 0
M  V30 6624 H 618.049 -3.07186 3.60463 0
M  V30 6625 H 618.473 -2.71576 6.20141 0
M  V30 6626 H 623.115 -2.6446 3.2988 0
M  V30 6627 H 620.833 -2.32447 7.73947 0
M  V30 6628 H 624.419 -2.25367 5.36378 0
M  V30 6629 H 623.299 -2.09751 7.55628 0
M  V30 6630 N 620.802 -1.09834 -1.13024 0
M  V30 6631 C 622.05 -0.835297 -1.8403 0
M  V30 6632 C 622.371 0.640944 -1.84165 0
M  V30 6633 O 621.641 1.46517 -1.30037 0
M  V30 6634 H 620.221 -0.306018 -0.681441 0
M  V30 6635 H 622.883 -1.38734 -1.36891 0
M  V30 6636 H 621.979 -1.19258 -2.88416 0
M  V30 6637 N 622.28 1.30327 -0.886154 0
M  V30 6638 C 623.243 2.26376 -0.358687 0
M  V30 6639 C 624.243 1.52845 0.499498 0
M  V30 6640 O 625.433 1.71483 0.306485 0
M  V30 6641 C 622.565 3.37379 0.488726 0
M  V30 6642 H 623.758 2.74547 -1.20681 0
M  V30 6643 H 621.311 1.41536 -0.663113 0
M  V30 6644 H 622.046 2.94526 1.35739 0
M  V30 6645 H 621.831 3.91897 -0.126003 0
M  V30 6646 H 623.321 4.08868 0.84952 0
M  V30 6647 N 623.758 0.647228 1.43697 0
M  V30 6648 C 625.169 0.238689 1.85168 0
M  V30 6649 C 625.52 -1.21345 1.54175 0
M  V30 6650 O 624.645 -1.92542 0.987743 0
M  V30 6651 C 625.24 0.426422 3.36106 0
M  V30 6652 C 623.799 0.0722541 3.76331 0
M  V30 6653 C 622.946 0.732153 2.6746 0
M  V30 6654 H 625.897 0.851309 1.33934 0
M  V30 6655 H 625.918 -0.32987 3.79067 0
M  V30 6656 H 625.43 1.48339 3.58632 0
M  V30 6657 H 623.531 -0.982355 3.59417 0
M  V30 6658 H 623.644 0.493541 4.76551 0
M  V30 6659 H 622.008 0.16594 2.54159 0
M  V30 6660 H 622.791 1.79204 2.92816 0
M  V30 6661 N 625.236 -1.5273 0.388769 0
M  V30 6662 C 626.466 -2.05693 -0.193397 0
M  V30 6663 C 626.874 -1.26038 -1.41107 0
M  V30 6664 O 626.217 -0.30001 -1.81234 0
M  V30 6665 C 626.279 -3.53962 -0.628561 0
M  V30 6666 C 625.943 -4.54519 0.475576 0
M  V30 6667 C 626.94 -5.02526 1.33281 0
M  V30 6668 C 624.625 -4.98174 0.642453 0
M  V30 6669 C 626.619 -5.92812 2.34205 0
M  V30 6670 C 624.306 -5.88262 1.65503 0
M  V30 6671 C 625.304 -6.35473 2.50325 0
M  V30 6672 O 624.992 -7.23781 3.49852 0
M  V30 6673 H 624.724 -0.675197 -0.0329395 0
M  V30 6674 H 627.278 -1.97835 0.552326 0
M  V30 6675 H 625.508 -3.59437 -1.42625 0
M  V30 6676 H 627.197 -3.89669 -1.13633 0
M  V30 6677 H 627.963 -4.6953 1.21519 0
M  V30 6678 H 623.842 -4.60999 -0.00805093 0
M  V30 6679 H 627.386 -6.29585 3.00447 0
M  V30 6680 H 623.283 -6.20672 1.77304 0
M  V30 6681 H 624.051 -7.4184 3.45855 0
M  V30 6682 N 626.714 -0.118576 -1.57153 0
M  V30 6683 C 627.991 0.583062 -1.86708 0
M  V30 6684 C 628.371 1.84841 -1.01967 0
M  V30 6685 O 627.719 2.28288 -0.0984673 0
M  V30 6686 C 627.929 0.875912 -3.3783 0
M  V30 6687 C 629.277 1.22916 -4.0642 0
M  V30 6688 O 630.301 0.966188 -3.42846 0
M  V30 6689 O 629.16 1.72269 -5.18638 0
M  V30 6690 H 626.254 0.294185 -0.772906 0
M  V30 6691 H 628.8 -0.153048 -1.69008 0
M  V30 6692 H 627.572 -0.0207776 -3.91294 0
M  V30 6693 H 627.195 1.66719 -3.60958 0
M  V30 6694 N 628.193 1.56834 0.155195 0
M  V30 6695 C 629.604 1.72421 0.716082 0
M  V30 6696 C 629.955 0.731685 1.82046 0
M  V30 6697 O 629.08 -0.103481 2.16152 0
M  V30 6698 C 629.675 3.12629 1.30571 0
M  V30 6699 C 628.234 3.29846 1.81325 0
M  V30 6700 C 627.381 2.68359 0.698494 0
M  V30 6701 H 630.332 1.58544 -0.0703861 0
M  V30 6702 H 630.353 3.12174 2.1755 0
M  V30 6703 H 629.865 3.84844 0.501701 0
M  V30 6704 H 627.966 2.62614 2.64319 0
M  V30 6705 H 628.079 4.37727 1.9476 0
M  V30 6706 H 626.443 2.28604 1.12305 0
M  V30 6707 H 627.226 3.43171 -0.0939366 0
M  V30 6708 N 629.671 -0.424282 1.51781 0
M  V30 6709 C 630.621 -1.51464 1.70419 0
M  V30 6710 C 631.605 -1.50911 0.558094 0
M  V30 6711 O 632.797 -1.57143 0.814552 0
M  V30 6712 C 629.926 -2.89539 1.84451 0
M  V30 6713 C 629.012 -2.94798 3.04886 0
M  V30 6714 N 629.403 -2.69778 4.27848 0
M  V30 6715 C 627.701 -3.25962 3.04408 0
M  V30 6716 C 628.402 -2.81216 5.09208 0
M  V30 6717 N 627.378 -3.13447 4.44131 0
M  V30 6718 H 631.18 -1.30892 2.63144 0
M  V30 6719 H 628.694 -0.631783 1.49607 0
M  V30 6720 H 630.691 -3.67998 1.95917 0
M  V30 6721 H 629.351 -3.11121 0.929168 0
M  V30 6722 H 630.362 -2.44458 4.56575 0
M  V30 6723 H 627.039 -3.53236 2.22555 0
M  V30 6724 H 628.429 -2.65715 6.17127 0
M  V30 6725 N 631.149 -1.42148 -0.680565 0
M  V30 6726 C 632.112 -1.4488 -1.77602 0
M  V30 6727 C 633.112 -0.337209 -1.57224 0
M  V30 6728 O 634.302 -0.597778 -1.63622 0
M  V30 6729 C 631.434 -1.27483 -3.16166 0
M  V30 6730 H 632.627 -2.42412 -1.76568 0
M  V30 6731 H 630.18 -1.28511 -0.889645 0
M  V30 6732 H 630.915 -0.30851 -3.22829 0
M  V30 6733 H 630.7 -2.08037 -3.3236 0
M  V30 6734 H 632.19 -1.32265 -3.96101 0
M  V30 6735 N 632.627 0.916307 -1.28225 0
M  V30 6736 C 633.874 1.66518 -1.1523 0
M  V30 6737 C 634.202 1.92178 0.299632 0
M  V30 6738 O 633.457 1.51842 1.2346 0
M  V30 6739 C 633.756 3.03125 -1.8934 0
M  V30 6740 C 633.422 2.97135 -3.39148 0
M  V30 6741 C 632.084 2.95208 -3.80007 0
M  V30 6742 C 634.436 2.87574 -4.34685 0
M  V30 6743 C 631.764 2.81518 -5.14747 0
M  V30 6744 C 634.116 2.75424 -5.69495 0
M  V30 6745 C 632.78 2.71854 -6.09632 0
M  V30 6746 H 632.05 0.609334 -0.421655 0
M  V30 6747 H 634.697 1.06776 -1.58969 0
M  V30 6748 H 633.002 3.66639 -1.38143 0
M  V30 6749 H 634.699 3.59968 -1.76704 0
M  V30 6750 H 631.289 2.99428 -3.06661 0
M  V30 6751 H 635.473 2.88152 -4.04082 0
M  V30 6752 H 630.729 2.77148 -5.44976 0
M  V30 6753 H 634.903 2.66993 -6.43185 0
M  V30 6754 H 632.53 2.61003 -7.1399 0
M  V30 6755 N 634.105 1.10431 1.1244 0
M  V30 6756 C 635.035 0.775143 2.20258 0
M  V30 6757 C 636.016 -0.25186 1.68225 0
M  V30 6758 O 637.201 -0.117637 1.93843 0
M  V30 6759 C 634.331 0.206133 3.46688 0
M  V30 6760 C 633.285 1.16382 4.11873 0
M  V30 6761 C 632.611 0.456014 5.32752 0
M  V30 6762 C 633.911 2.5104 4.58013 0
M  V30 6763 H 635.605 1.67665 2.4805 0
M  V30 6764 H 633.151 0.807595 1.19222 0
M  V30 6765 H 635.104 -0.036291 4.21384 0
M  V30 6766 H 633.828 -0.730614 3.18323 0
M  V30 6767 H 632.487 1.39169 3.39157 0
M  V30 6768 H 632.135 -0.485203 5.00654 0
M  V30 6769 H 631.835 1.09466 5.77314 0
M  V30 6770 H 633.359 0.222135 6.10196 0
M  V30 6771 H 634.773 2.32401 5.24083 0
M  V30 6772 H 633.17 3.10789 5.13352 0
M  V30 6773 H 634.24 3.11039 3.71998 0
M  V30 6774 N 635.583 -1.29855 0.893053 0
M  V30 6775 C 636.808 -2.00512 0.530066 0
M  V30 6776 C 637.233 -1.66446 -0.876199 0
M  V30 6777 O 636.591 -0.885446 -1.58207 0
M  V30 6778 C 636.639 -3.53308 0.721505 0
M  V30 6779 O 635.743 -4.11764 -0.228994 0
M  V30 6780 H 635.084 -0.630617 0.207891 0
M  V30 6781 H 637.614 -1.6551 1.20282 0
M  V30 6782 H 637.624 -4.03206 0.623599 0
M  V30 6783 H 636.299 -3.77439 1.74678 0
M  V30 6784 H 634.876 -3.72805 -0.0841034 0
M  V30 6785 N 637.061 -0.65484 -1.43351 0
M  V30 6786 C 638.286 -0.175046 -2.0666 0
M  V30 6787 C 638.711 1.15104 -1.4877 0
M  V30 6788 O 638.069 1.71144 -0.598279 0
M  V30 6789 C 638.117 -0.0991544 -3.60464 0
M  V30 6790 O 637.221 0.938169 -4.01587 0
M  V30 6791 H 636.562 -0.0956148 -0.65708 0
M  V30 6792 H 639.092 -0.898222 -1.83829 0
M  V30 6793 H 639.102 0.083632 -4.07914 0
M  V30 6794 H 637.777 -1.06719 -4.01975 0
M  V30 6795 H 636.354 0.72804 -3.65724 0
M  V30 6796 N 638.539 1.52521 -0.396863 0
M  V30 6797 C 639.472 2.23118 0.478926 0
M  V30 6798 C 640.45 1.23475 1.05796 0
M  V30 6799 O 641.634 1.52486 1.10817 0
M  V30 6800 C 638.761 2.95028 1.66362 0
M  V30 6801 C 637.807 4.09002 1.20913 0
M  V30 6802 S 638.64 5.35182 0.184407 0
M  V30 6803 C 639.796 6.10616 1.37471 0
M  V30 6804 H 640.029 2.97056 -0.120542 0
M  V30 6805 H 637.562 1.53334 -0.18109 0
M  V30 6806 H 639.52 3.37066 2.34301 0
M  V30 6807 H 638.181 2.20756 2.23441 0
M  V30 6808 H 637.374 4.58445 2.09389 0
M  V30 6809 H 636.976 3.69016 0.608559 0
M  V30 6810 H 639.268 6.37247 2.30048 0
M  V30 6811 H 640.211 7.02084 0.921051 0
M  V30 6812 H 640.619 5.41499 1.59495 0
M  V30 6813 N 640.017 0.126909 1.57088 0
M  V30 6814 C 641.433 -0.229641 1.57939 0
M  V30 6815 C 641.633 -1.66145 1.1401 0
M  V30 6816 O 640.689 -2.3843 0.831119 0
M  V30 6817 C 642.002 0.0108648 3.00698 0
M  V30 6818 C 643.55 -0.054418 3.12953 0
M  V30 6819 C 644.025 0.158497 4.57726 0
M  V30 6820 N 645.516 0.104735 4.63082 0
M  V30 6821 C 646.251 0.24427 5.72879 0
M  V30 6822 N 645.747 0.440415 6.91399 0
M  V30 6823 N 647.54 0.183286 5.61801 0
M  V30 6824 H 639.691 1.06203 1.83942 0
M  V30 6825 H 641.954 0.418834 0.85046 0
M  V30 6826 H 641.66 1.00102 3.37154 0
M  V30 6827 H 641.534 -0.717512 3.70313 0
M  V30 6828 H 643.921 -1.0351 2.7635 0
M  V30 6829 H 644.002 0.705967 2.45865 0
M  V30 6830 H 643.646 1.13619 4.95028 0
M  V30 6831 H 643.576 -0.62197 5.22914 0
M  V30 6832 H 646.067 -0.0430298 3.77876 0
M  V30 6833 H 646.38 0.537536 7.70928 0
M  V30 6834 H 644.725 0.476488 6.93365 0
M  V30 6835 H 647.916 0.0309561 4.6809 0
M  V30 6836 H 648.089 0.295471 6.47326 0
M  V30 6837 N 641.495 -1.56914 -0.146875 0
M  V30 6838 C 642.741 -1.83628 -0.860741 0
M  V30 6839 C 643.074 -0.708528 -1.80813 0
M  V30 6840 O 642.349 0.287838 -1.92358 0
M  V30 6841 C 642.632 -3.20836 -1.63511 0
M  V30 6842 C 642.485 -4.44174 -0.709199 0
M  V30 6843 C 643.804 -3.55268 -2.59756 0
M  V30 6844 H 640.923 -0.667949 -0.311468 0
M  V30 6845 H 643.565 -1.89582 -0.125936 0
M  V30 6846 H 641.715 -3.15891 -2.26153 0
M  V30 6847 H 643.387 -4.61205 -0.0937781 0
M  V30 6848 H 641.63 -4.33796 -0.0187856 0
M  V30 6849 H 642.301 -5.36785 -1.28707 0
M  V30 6850 H 644.777 -3.60824 -2.07232 0
M  V30 6851 H 643.653 -4.52303 -3.10987 0
M  V30 6852 H 643.914 -2.81231 -3.41118 0
M  V30 6853 N 642.974 0.416227 -1.52004 0
M  V30 6854 C 644.385 0.995319 -1.57957 0
M  V30 6855 C 644.736 1.91744 -0.415754 0
M  V30 6856 O 643.861 2.11349 0.464808 0
M  V30 6857 C 644.456 1.81191 -2.86278 0
M  V30 6858 C 643.015 2.34115 -2.94732 0
M  V30 6859 C 642.162 1.139 -2.52828 0
M  V30 6860 H 645.113 0.196716 -1.57476 0
M  V30 6861 H 645.134 2.66859 -2.71231 0
M  V30 6862 H 644.646 1.14051 -3.70963 0
M  V30 6863 H 642.747 3.04647 -2.14525 0
M  V30 6864 H 642.86 2.65466 -3.98829 0
M  V30 6865 H 641.224 1.49081 -2.06511 0
M  V30 6866 H 642.007 0.483383 -3.3988 0
M  V30 6867 N 644.452 1.42507 0.673017 0
M  V30 6868 C 645.677 1.4668 1.46627 0
M  V30 6869 C 646.102 0.080066 1.8793 0
M  V30 6870 O 645.46 -0.921879 1.56112 0
M  V30 6871 C 645.508 2.40091 2.69051 0
M  V30 6872 O 644.612 1.8735 3.67387 0
M  V30 6873 H 643.953 0.496908 0.44043 0
M  V30 6874 H 646.483 1.87215 0.825334 0
M  V30 6875 H 646.493 2.56731 3.17101 0
M  V30 6876 H 645.168 3.4084 2.3833 0
M  V30 6877 H 643.745 1.80274 3.26429 0
M  V30 6878 N 645.93 -0.909495 1.28709 0
M  V30 6879 C 646.88 -1.9991 1.09636 0
M  V30 6880 C 647.864 -1.60889 0.01872 0
M  V30 6881 O 649.056 -1.75374 0.239338 0
M  V30 6882 C 646.185 -3.34675 0.764702 0
M  V30 6883 C 645.271 -3.80085 1.8814 0
M  V30 6884 N 645.662 -3.97824 3.12361 0
M  V30 6885 C 643.96 -4.09278 1.77221 0
M  V30 6886 C 644.661 -4.35928 3.85151 0
M  V30 6887 N 643.637 -4.44426 3.13028 0
M  V30 6888 H 647.439 -2.11681 2.03883 0
M  V30 6889 H 644.953 -1.09763 1.1969 0
M  V30 6890 H 646.95 -4.12426 0.609132 0
M  V30 6891 H 645.61 -3.24255 -0.169952 0
M  V30 6892 H 646.621 -3.83626 3.47925 0
M  V30 6893 H 643.298 -4.0747 0.909621 0
M  V30 6894 H 644.688 -4.57581 4.92006 0
M  V30 6895 N 647.408 -1.11026 -1.11852 0
M  V30 6896 C 648.371 -0.768006 -2.1595 0
M  V30 6897 C 649.371 0.210538 -1.59416 0
M  V30 6898 O 650.561 -0.0133978 -1.74195 0
M  V30 6899 C 647.693 -0.138678 -3.40618 0
M  V30 6900 H 648.886 -1.69012 -2.4774 0
M  V30 6901 H 646.439 -0.911578 -1.26964 0
M  V30 6902 H 647.174 0.793872 -3.14433 0
M  V30 6903 H 646.959 -0.843012 -3.8293 0
M  V30 6904 H 648.449 0.0848039 -4.17514 0
M  V30 6905 N 648.886 1.2938 -0.899927 0
M  V30 6906 C 650.163 1.9046 -0.445443 0
M  V30 6907 C 650.543 1.81683 1.07492 0
M  V30 6908 O 649.891 1.24371 1.91688 0
M  V30 6909 C 650.101 3.35529 -0.960279 0
M  V30 6910 C 651.449 4.12556 -1.00412 0
M  V30 6911 O 652.473 3.44434 -0.907965 0
M  V30 6912 O 651.332 5.34294 -1.14857 0
M  V30 6913 H 648.426 0.815253 -0.138893 0
M  V30 6914 H 650.972 1.37844 -0.989808 0
M  V30 6915 H 649.744 3.36074 -2.00425 0
M  V30 6916 H 649.367 3.95624 -0.395939 0
M  V30 6917 N 650.364 0.662433 1.43002 0
M  V30 6918 C 651.611 0.179591 2.01702 0
M  V30 6919 C 651.939 -1.20964 1.52309 0
M  V30 6920 O 651.194 -1.82343 0.7106 0
M  V30 6921 C 651.493 0.149363 3.57088 0
M  V30 6922 C 651.159 1.48158 4.25864 0
M  V30 6923 C 649.821 1.84638 4.44367 0
M  V30 6924 C 652.173 2.35953 4.64732 0
M  V30 6925 C 649.501 3.08561 4.99006 0
M  V30 6926 C 651.853 3.59176 5.20745 0
M  V30 6927 C 650.517 3.95841 5.37463 0
M  V30 6928 H 649.787 0.0657172 0.73808 0
M  V30 6929 H 652.434 0.854968 1.71355 0
M  V30 6930 H 650.739 -0.609491 3.8703 0
M  V30 6931 H 652.436 -0.241241 4.00274 0
M  V30 6932 H 649.026 1.18777 4.11813 0
M  V30 6933 H 653.21 2.09058 4.50121 0
M  V30 6934 H 648.466 3.37005 5.10135 0
M  V30 6935 H 652.64 4.27417 5.49807 0
M  V30 6936 H 650.267 4.91942 5.79566 0
M  V30 6937 N 651.842 -1.52309 0.404946 0
M  V30 6938 C 652.774 -2.24579 -0.45791 0
M  V30 6939 C 653.787 -1.2739 -1.01369 0
M  V30 6940 O 654.976 -1.53363 -0.91335 0
M  V30 6941 C 652.076 -2.9608 -1.64893 0
M  V30 6942 C 651.249 -4.20106 -1.21777 0
M  V30 6943 C 650.308 -4.74468 -2.27523 0
M  V30 6944 O 649.334 -5.37157 -1.88285 0
M  V30 6945 N 650.536 -4.55678 -3.59635 0
M  V30 6946 H 653.301 -2.99265 0.161341 0
M  V30 6947 H 650.862 -1.60228 0.232107 0
M  V30 6948 H 652.854 -3.29344 -2.35191 0
M  V30 6949 H 651.424 -2.24606 -2.17419 0
M  V30 6950 H 650.644 -3.92704 -0.343071 0
M  V30 6951 H 651.932 -5.00658 -0.906596 0
M  V30 6952 H 651.33 -4.05673 -3.94266 0
M  V30 6953 H 649.887 -4.9339 -4.25922 0
M  V30 6954 N 653.32 -0.135238 -1.57019 0
M  V30 6955 C 654.283 0.794707 -2.14981 0
M  V30 6956 C 655.283 1.18342 -1.08866 0
M  V30 6957 O 656.473 1.10627 -1.34563 0
M  V30 6958 C 653.605 2.07685 -2.70333 0
M  V30 6959 H 654.798 0.290696 -2.98488 0
M  V30 6960 H 652.351 0.114128 -1.55883 0
M  V30 6961 H 653.086 2.6248 -1.9046 0
M  V30 6962 H 652.871 1.80745 -3.47957 0
M  V30 6963 H 654.361 2.74127 -3.1503 0
M  V30 6964 N 654.798 1.5699 0.138552 0
M  V30 6965 C 655.73 1.95515 1.1961 0
M  V30 6966 C 656.743 0.852002 1.38726 0
M  V30 6967 O 657.932 1.13038 1.38147 0
M  V30 6968 C 655.032 2.2213 2.55952 0
M  V30 6969 C 654.205 3.53424 2.57702 0
M  V30 6970 C 653.264 3.6848 3.75645 0
M  V30 6971 O 652.29 4.4079 3.60129 0
M  V30 6972 N 653.492 3.05777 4.93438 0
M  V30 6973 H 656.257 2.86838 0.868557 0
M  V30 6974 H 653.818 1.58542 0.328033 0
M  V30 6975 H 655.81 2.29435 3.33379 0
M  V30 6976 H 654.38 1.3703 2.80965 0
M  V30 6977 H 653.6 3.57484 1.6613 0
M  V30 6978 H 654.888 4.39759 2.55909 0
M  V30 6979 H 654.286 2.46961 5.08947 0
M  V30 6980 H 652.843 3.18631 5.6861 0
M  V30 6981 N 656.276 -0.40816 1.52223 0
M  V30 6982 C 657.208 -1.51642 1.71864 0
M  V30 6983 C 658.221 -1.51378 0.599056 0
M  V30 6984 O 659.41 -1.55626 0.874239 0
M  V30 6985 C 656.51 -2.90534 1.74481 0
M  V30 6986 C 655.683 -3.14979 3.03491 0
M  V30 6987 C 654.742 -4.33749 2.97907 0
M  V30 6988 O 653.768 -4.30982 3.71811 0
M  V30 6989 N 654.97 -5.38912 2.15764 0
M  V30 6990 H 657.735 -1.35188 2.67478 0
M  V30 6991 H 655.296 -0.597468 1.50472 0
M  V30 6992 H 657.288 -3.68056 1.68275 0
M  V30 6993 H 655.858 -3.00441 0.863363 0
M  V30 6994 H 655.078 -2.25492 3.23337 0
M  V30 6995 H 656.366 -3.28156 3.88833 0
M  V30 6996 H 655.764 -5.44008 1.55152 0
M  V30 6997 H 654.321 -6.15174 2.15415 0
M  V30 6998 N 657.755 -1.42862 -0.66545 0
M  V30 6999 C 659.003 -1.43546 -1.42264 0
M  V30 7000 C 659.324 -0.0563116 -1.94919 0
M  V30 7001 O 658.594 0.906568 -1.73661 0
M  V30 7002 H 657.174 -0.528464 -0.527953 0
M  V30 7003 H 659.836 -1.78363 -0.785665 0
M  V30 7004 H 658.932 -2.14079 -2.27105 0
M  V30 7005 N 659.233 0.902656 -1.29189 0
M  V30 7006 C 660.163 2.02294 -1.16616 0
M  V30 7007 C 661.144 1.6999 -0.0611175 0
M  V30 7008 O 662.329 1.9271 -0.240072 0
M  V30 7009 C 659.459 3.37018 -0.83882 0
M  V30 7010 C 658.413 3.83522 -1.89986 0
M  V30 7011 C 657.739 5.15337 -1.42589 0
M  V30 7012 C 659.039 4.04169 -3.30824 0
M  V30 7013 H 660.733 2.13071 -2.10336 0
M  V30 7014 H 658.279 1.02378 -1.01266 0
M  V30 7015 H 660.232 4.14895 -0.737584 0
M  V30 7016 H 658.956 3.26325 0.134071 0
M  V30 7017 H 657.615 3.07859 -1.99043 0
M  V30 7018 H 657.263 5.01056 -0.441759 0
M  V30 7019 H 656.963 5.47423 -2.13547 0
M  V30 7020 H 658.487 5.95758 -1.3381 0
M  V30 7021 H 659.901 4.72537 -3.24626 0
M  V30 7022 H 658.298 4.47604 -3.99713 0
M  V30 7023 H 659.368 3.08604 -3.74021 0
M  V30 7024 N 660.711 1.11618 1.11262 0
M  V30 7025 C 661.674 0.779447 2.15539 0
M  V30 7026 C 662.674 -0.202081 1.59525 0
M  V30 7027 O 663.864 0.0226356 1.74185 0
M  V30 7028 C 660.996 0.15674 3.40539 0
M  V30 7029 H 662.189 1.70324 2.4684 0
M  V30 7030 H 659.742 0.918298 1.26479 0
M  V30 7031 H 660.477 -0.777186 3.1485 0
M  V30 7032 H 660.262 0.863308 3.82478 0
M  V30 7033 H 661.752 -0.062661 4.17553 0
M  V30 7034 N 662.189 -1.289 0.906776 0
M  V30 7035 C 663.466 -1.90221 0.455537 0
M  V30 7036 C 663.846 -1.82251 -1.06527 0
M  V30 7037 O 663.194 -1.25385 -1.91026 0
M  V30 7038 C 663.404 -3.35015 0.97806 0
M  V30 7039 C 664.752 -4.12018 1.02598 0
M  V30 7040 O 665.776 -3.43947 0.926218 0
M  V30 7041 O 664.635 -5.33677 1.17689 0
M  V30 7042 H 661.729 -0.814505 0.143214 0
M  V30 7043 H 664.275 -1.37317 0.997104 0
M  V30 7044 H 663.047 -3.35006 2.02204 0
M  V30 7045 H 662.67 -3.95408 0.416914 0
M  V30 7046 N 663.667 -0.670007 -1.42649 0
M  V30 7047 C 664.614 0.0112928 -2.30797 0
M  V30 7048 C 665.584 0.797627 -1.45695 0
M  V30 7049 O 666.769 0.770845 -1.74535 0
M  V30 7050 C 663.909 0.95998 -3.31479 0
M  V30 7051 C 663.022 0.167975 -4.31673 0
M  V30 7052 C 662.157 1.11198 -5.19431 0
M  V30 7053 C 661.196 0.311381 -6.11307 0
M  V30 7054 N 660.333 1.20784 -6.91633 0
M  V30 7055 H 665.173 -0.746231 -2.88505 0
M  V30 7056 H 662.71 -0.379739 -1.42114 0
M  V30 7057 H 664.668 1.52379 -3.88377 0
M  V30 7058 H 663.298 1.68419 -2.75382 0
M  V30 7059 H 662.35 -0.512385 -3.76933 0
M  V30 7060 H 663.662 -0.453814 -4.96731 0
M  V30 7061 H 662.816 1.74587 -5.81037 0
M  V30 7062 H 661.555 1.76766 -4.54538 0
M  V30 7063 H 660.56 -0.335758 -5.48774 0
M  V30 7064 H 661.785 -0.340135 -6.78248 0
M  V30 7065 H 659.731 1.85001 -6.29373 0
M  V30 7066 H 659.648 0.64102 -7.53277 0
M  V30 7067 H 660.916 1.82936 -7.5773 0
M  V30 7068 N 665.145 1.52092 -0.413018 0
M  V30 7069 C 666.556 1.86617 0.0556967 0
M  V30 7070 C 666.907 1.33156 1.44097 0
M  V30 7071 O 666.032 0.672417 2.05688 0
M  V30 7072 C 666.627 3.38628 0.107844 0
M  V30 7073 C 665.186 3.72778 0.520904 0
M  V30 7074 C 664.333 2.75649 -0.302109 0
M  V30 7075 H 667.284 1.45663 -0.629919 0
M  V30 7076 H 667.305 3.69152 0.922324 0
M  V30 7077 H 666.817 3.77508 -0.900506 0
M  V30 7078 H 664.918 3.39478 1.53575 0
M  V30 7079 H 665.031 4.7838 0.262591 0
M  V30 7080 H 663.395 2.53603 0.236115 0
M  V30 7081 H 664.178 3.17369 -1.30888 0
M  V30 7082 N 666.623 0.143563 1.56945 0
M  V30 7083 C 667.553 -0.7936 2.196 0
M  V30 7084 C 668.534 -1.25955 1.14321 0
M  V30 7085 O 669.719 -1.31773 1.42651 0
M  V30 7086 C 666.849 -2.03424 2.81489 0
M  V30 7087 C 665.803 -1.70519 3.92565 0
M  V30 7088 C 665.129 -3.01817 4.41373 0
M  V30 7089 C 666.429 -0.95449 5.13504 0
M  V30 7090 H 668.123 -0.271423 2.98167 0
M  V30 7091 H 665.669 -0.12911 1.4342 0
M  V30 7092 H 667.622 -2.69463 3.23987 0
M  V30 7093 H 666.346 -2.58008 2.00248 0
M  V30 7094 H 665.005 -1.06859 3.5068 0
M  V30 7095 H 664.653 -3.54386 3.56959 0
M  V30 7096 H 664.353 -2.80565 5.16292 0
M  V30 7097 H 665.877 -3.68934 4.86539 0
M  V30 7098 H 667.291 -1.5169 5.52868 0
M  V30 7099 H 665.688 -0.842035 5.94163 0
M  V30 7100 H 666.758 0.0544033 4.84869 0
M  V30 7101 N 668.101 -1.57061 -0.130224 0
M  V30 7102 C 669.35 -1.83446 -0.838488 0
M  V30 7103 C 669.663 -0.727468 -1.81569 0
M  V30 7104 O 670.869 -0.877394 -2.56932 0
M  V30 7105 C 669.325 -3.25201 -1.54182 0
M  V30 7106 C 668.933 -4.4388 -0.606178 0
M  V30 7107 C 670.677 -3.60844 -2.23588 0
M  V30 7108 C 668.584 -5.76661 -1.31209 0
M  V30 7109 H 667.514 -0.684185 -0.316871 0
M  V30 7110 H 670.165 -1.83273 -0.0912059 0
M  V30 7111 H 668.547 -3.1981 -2.33533 0
M  V30 7112 H 669.721 -4.60545 0.153308 0
M  V30 7113 H 668.036 -4.16395 -0.0196705 0
M  V30 7114 H 670.633 -4.57313 -2.77072 0
M  V30 7115 H 670.976 -2.87724 -3.00867 0
M  V30 7116 H 671.509 -3.67971 -1.51137 0
M  V30 7117 H 668.248 -6.52922 -0.580823 0
M  V30 7118 H 667.768 -5.63902 -2.04387 0
M  V30 7119 H 669.447 -6.20035 -1.8484 0
M  V30 7120 N 669.579 0.400081 -1.52437 0
M  V30 7121 C 670.856 1.15973 -1.57511 0
M  V30 7122 C 671.236 2.0798 -0.361572 0
M  V30 7123 O 670.584 2.19032 0.650929 0
M  V30 7124 C 670.794 1.92912 -2.90837 0
M  V30 7125 C 672.142 2.48662 -3.44169 0
M  V30 7126 O 673.166 2.03081 -2.92637 0
M  V30 7127 O 672.025 3.31894 -4.34176 0
M  V30 7128 H 669.119 0.530023 -0.634827 0
M  V30 7129 H 671.665 0.40613 -1.64769 0
M  V30 7130 H 670.437 1.25564 -3.70607 0
M  V30 7131 H 670.06 2.75257 -2.86913 0
M  V30 7132 N 671.057 1.43213 0.657864 0
M  V30 7133 C 672.004 1.48011 1.77092 0
M  V30 7134 C 672.974 0.330291 1.62783 0
M  V30 7135 O 674.159 0.536787 1.83094 0
M  V30 7136 C 671.299 1.40461 3.15222 0
M  V30 7137 C 670.412 2.65612 3.40697 0
M  V30 7138 C 669.547 2.50083 4.68649 0
M  V30 7139 C 668.586 3.70525 4.87214 0
M  V30 7140 N 667.723 3.53835 6.0642 0
M  V30 7141 H 672.563 2.43121 1.72326 0
M  V30 7142 H 670.1 1.20687 0.841013 0
M  V30 7143 H 672.058 1.34079 3.95068 0
M  V30 7144 H 670.688 0.489359 3.19069 0
M  V30 7145 H 669.74 2.82292 2.54982 0
M  V30 7146 H 671.052 3.5509 3.50303 0
M  V30 7147 H 670.206 2.41383 5.56614 0
M  V30 7148 H 668.945 1.58121 4.61356 0
M  V30 7149 H 667.95 3.79639 3.97686 0
M  V30 7150 H 669.175 4.63489 4.96341 0
M  V30 7151 H 667.121 2.64604 6.00267 0
M  V30 7152 H 667.038 4.36912 6.16963 0
M  V30 7153 H 668.306 3.48978 6.97019 0
M  V30 7154 N 672.536 -0.895792 1.29666 0
M  V30 7155 C 673.446 -2.03329 1.17024 0
M  V30 7156 C 674.462 -1.73753 0.0925962 0
M  V30 7157 O 675.638 -1.99071 0.305431 0
M  V30 7158 C 672.703 -3.36072 0.851841 0
M  V30 7159 C 671.764 -3.7914 2.01373 0
M  V30 7160 C 670.997 -5.05549 1.71043 0
M  V30 7161 O 671.22 -5.66874 0.633213 0
M  V30 7162 O 670.154 -5.44764 2.5596 0
M  V30 7163 H 673.98 -2.16918 2.12556 0
M  V30 7164 H 671.565 -1.02007 1.09156 0
M  V30 7165 H 673.447 -4.15729 0.689006 0
M  V30 7166 H 672.122 -3.23616 -0.0736634 0
M  V30 7167 H 671.029 -3.00233 2.23183 0
M  V30 7168 H 672.362 -3.96186 2.92058 0
M  V30 7169 N 674.014 -1.12206 -1.10668 0
M  V30 7170 C 675.263 -0.870595 -1.81944 0
M  V30 7171 C 675.576 0.605447 -1.85994 0
M  V30 7172 O 676.782 0.973433 -2.53449 0
M  V30 7173 C 675.238 -1.50783 -3.26791 0
M  V30 7174 C 674.846 -3.01849 -3.31046 0
M  V30 7175 C 676.59 -1.33653 -4.02911 0
M  V30 7176 C 674.497 -3.58518 -4.70339 0
M  V30 7177 H 673.427 -0.322043 -0.681765 0
M  V30 7178 H 676.078 -1.34827 -1.24475 0
M  V30 7179 H 674.46 -0.957825 -3.84242 0
M  V30 7180 H 675.634 -3.63321 -2.83433 0
M  V30 7181 H 673.949 -3.18346 -2.68411 0
M  V30 7182 H 676.546 -1.73416 -5.05797 0
M  V30 7183 H 676.889 -0.279949 -4.15358 0
M  V30 7184 H 677.422 -1.85562 -3.51868 0
M  V30 7185 H 674.161 -4.63925 -4.63091 0
M  V30 7186 H 673.681 -3.01819 -5.18329 0
M  V30 7187 H 675.36 -3.57434 -5.39305 0
M  V30 7188 N 675.492 1.28418 -0.913599 0
M  V30 7189 C 676.74 1.94596 -0.545594 0
M  V30 7190 C 677.061 1.7227 0.913668 0
M  V30 7191 O 676.331 1.06233 1.64595 0
M  V30 7192 H 674.911 0.720065 -0.198783 0
M  V30 7193 H 677.573 1.56404 -1.16292 0
M  V30 7194 H 676.669 3.03202 -0.739911 0
M  V30 7195 N 676.97 0.677563 1.42291 0
M  V30 7196 C 677.88 0.000962654 2.346 0
M  V30 7197 C 678.896 -0.785833 1.55244 0
M  V30 7198 O 680.072 -0.727523 1.87801 0
M  V30 7199 C 677.137 -0.936746 3.33805 0
M  V30 7200 C 676.198 -0.144173 4.29058 0
M  V30 7201 C 675.431 -1.03722 5.23524 0
M  V30 7202 O 675.654 -2.27675 5.22992 0
M  V30 7203 O 674.588 -0.496542 5.99848 0
M  V30 7204 H 678.414 0.761397 2.94001 0
M  V30 7205 H 675.999 0.43781 1.42841 0
M  V30 7206 H 677.881 -1.47497 3.94744 0
M  V30 7207 H 676.556 -1.67698 2.76874 0
M  V30 7208 H 675.463 0.438224 3.71524 0
M  V30 7209 H 676.796 0.55701 4.89038 0
M  V30 7210 N 678.448 -1.51871 0.421078 0
M  V30 7211 C 679.694 -2.02237 -0.151014 0
M  V30 7212 C 680.027 -1.30554 -1.43768 0
M  V30 7213 O 679.302 -0.41546 -1.90011 0
M  V30 7214 C 679.585 -3.5802 -0.386482 0
M  V30 7215 C 679.438 -4.40339 0.9177 0
M  V30 7216 C 680.757 -4.24444 -1.16342 0
M  V30 7217 H 677.876 -0.735062 -0.0534102 0
M  V30 7218 H 680.518 -1.81656 0.556888 0
M  V30 7219 H 678.668 -3.75688 -0.989494 0
M  V30 7220 H 680.34 -4.34357 1.55344 0
M  V30 7221 H 678.583 -4.06073 1.526 0
M  V30 7222 H 679.254 -5.47451 0.707187 0
M  V30 7223 H 681.73 -4.10948 -0.652788 0
M  V30 7224 H 680.606 -5.33358 -1.29693 0
M  V30 7225 H 680.867 -3.84204 -2.18724 0
M  V30 7226 N 679.926 -0.151884 -1.56866 0
M  V30 7227 C 680.856 0.781943 -2.20018 0
M  V30 7228 C 681.837 1.25347 -1.14987 0
M  V30 7229 O 683.022 1.31015 -1.43348 0
M  V30 7230 C 680.152 2.01928 -2.82564 0
M  V30 7231 C 679.106 1.68434 -3.93464 0
M  V30 7232 C 678.432 2.99472 -4.42968 0
M  V30 7233 C 679.732 0.927244 -5.14003 0
M  V30 7234 H 681.426 0.255607 -2.98307 0
M  V30 7235 H 678.972 0.121502 -1.43486 0
M  V30 7236 H 680.925 2.67741 -3.25411 0
M  V30 7237 H 679.649 2.56943 -2.01614 0
M  V30 7238 H 678.308 1.04998 -3.51242 0
M  V30 7239 H 677.956 3.52488 -3.58834 0
M  V30 7240 H 677.656 2.77823 -5.17772 0
M  V30 7241 H 679.18 3.66348 -4.88489 0
M  V30 7242 H 680.594 1.48756 -5.53665 0
M  V30 7243 H 678.991 0.810513 -5.94601 0
M  V30 7244 H 680.061 -0.0801163 -4.84834 0
M  V30 7245 N 681.404 1.57128 0.121893 0
M  V30 7246 C 682.367 1.99197 1.13372 0
M  V30 7247 C 683.367 0.881728 1.3447 0
M  V30 7248 O 684.557 1.14783 1.31036 0
M  V30 7249 C 681.689 2.32963 2.4888 0
M  V30 7250 H 682.882 2.89788 0.772204 0
M  V30 7251 H 680.435 1.51952 0.366093 0
M  V30 7252 H 681.17 1.45243 2.89957 0
M  V30 7253 H 680.955 3.13934 2.34921 0
M  V30 7254 H 682.445 2.66261 3.21706 0
M  V30 7255 N 682.882 -0.391992 1.52647 0
M  V30 7256 C 684.11 -1.1586 1.71418 0
M  V30 7257 C 684.525 -1.8381 0.431216 0
M  V30 7258 O 683.882 -1.7256 -0.594085 0
M  V30 7259 C 683.933 -2.20888 2.86165 0
M  V30 7260 O 683.654 -1.5571 4.09495 0
M  V30 7261 C 685.155 -3.103 3.1659 0
M  V30 7262 H 682.375 -0.347494 0.574011 0
M  V30 7263 H 684.919 -0.458972 1.99283 0
M  V30 7264 H 683.074 -2.86492 2.6077 0
M  V30 7265 H 683.488 -2.25474 4.73563 0
M  V30 7266 H 684.962 -3.8003 4.00351 0
M  V30 7267 H 685.439 -3.73639 2.30848 0
M  V30 7268 H 686.045 -2.50345 3.43813 0
M  V30 7269 N 684.36 -1.4356 -0.65026 0
M  V30 7270 C 685.31 -1.45392 -1.75628 0
M  V30 7271 C 686.294 -0.322006 -1.57645 0
M  V30 7272 O 687.486 -0.565996 -1.67707 0
M  V30 7273 C 684.615 -1.38254 -3.1423 0
M  V30 7274 C 683.701 -2.56487 -3.3775 0
M  V30 7275 N 684.092 -3.81824 -3.31729 0
M  V30 7276 C 682.39 -2.51274 -3.6848 0
M  V30 7277 C 683.091 -4.60497 -3.55412 0
M  V30 7278 N 682.067 -3.91274 -3.77367 0
M  V30 7279 H 685.869 -2.40167 -1.69402 0
M  V30 7280 H 683.383 -1.38254 -0.852037 0
M  V30 7281 H 685.38 -1.3765 -3.9352 0
M  V30 7282 H 684.04 -0.445019 -3.21636 0
M  V30 7283 H 685.051 -4.14069 -3.11074 0
M  V30 7284 H 681.728 -1.66223 -3.82983 0
M  V30 7285 H 683.118 -5.69518 -3.5651 0
M  V30 7286 N 685.838 0.888903 -1.30139 0
M  V30 7287 C 687.115 1.62145 -1.094 0
M  V30 7288 C 687.495 2.08041 0.358091 0
M  V30 7289 O 686.843 1.84438 1.34888 0
M  V30 7290 C 687.053 2.794 -2.09133 0
M  V30 7291 C 688.401 3.49826 -2.40638 0
M  V30 7292 O 689.425 2.89583 -2.07412 0
M  V30 7293 O 688.284 4.58457 -2.97455 0
M  V30 7294 H 685.378 0.712475 -0.41989 0
M  V30 7295 H 687.924 0.936023 -1.41551 0
M  V30 7296 H 686.696 2.42762 -3.06891 0
M  V30 7297 H 686.319 3.55643 -1.77776 0
M  V30 7298 N 687.317 1.12792 1.10072 0
M  V30 7299 C 688.227 0.812369 2.20086 0
M  V30 7300 C 689.243 -0.200349 1.72843 0
M  V30 7301 O 690.419 -0.0330262 2.01373 0
M  V30 7302 C 687.484 0.275685 3.45602 0
M  V30 7303 C 686.545 1.34881 4.07561 0
M  V30 7304 C 685.778 0.837639 5.27086 0
M  V30 7305 O 686.001 -0.327224 5.69461 0
M  V30 7306 O 684.935 1.60894 5.79997 0
M  V30 7307 H 688.761 1.73133 2.49517 0
M  V30 7308 H 686.346 0.904863 1.18881 0
M  V30 7309 H 688.228 -0.0185375 4.21396 0
M  V30 7310 H 686.903 -0.615783 3.17789 0
M  V30 7311 H 685.81 1.69625 3.33434 0
M  V30 7312 H 687.143 2.21418 4.39585 0
M  V30 7313 N 688.795 -1.27931 0.920396 0
M  V30 7314 C 690.023 -1.98805 0.573087 0
M  V30 7315 C 690.438 -1.68724 -0.847201 0
M  V30 7316 O 689.795 -0.943699 -1.56207 0
M  V30 7317 C 689.846 -3.52971 0.780633 0
M  V30 7318 O 689.567 -3.81994 2.14504 0
M  V30 7319 C 691.068 -4.411 0.44105 0
M  V30 7320 H 688.288 -0.634651 0.21785 0
M  V30 7321 H 690.832 -1.62965 1.23542 0
M  V30 7322 H 688.987 -3.87048 0.165204 0
M  V30 7323 H 689.401 -4.76609 2.18962 0
M  V30 7324 H 690.875 -5.48312 0.637006 0
M  V30 7325 H 691.352 -4.34758 -0.62306 0
M  V30 7326 H 691.958 -4.12532 1.0343 0
M  V30 7327 N 690.273 -0.685099 -1.4193 0
M  V30 7328 C 691.205 0.0258679 -2.29185 0
M  V30 7329 C 692.218 0.755076 -1.44231 0
M  V30 7330 O 693.407 0.60752 -1.67844 0
M  V30 7331 C 690.507 1.06055 -3.21878 0
M  V30 7332 C 689.68 0.403088 -4.35539 0
M  V30 7333 C 688.739 1.33895 -5.0888 0
M  V30 7334 O 687.765 0.835326 -5.63037 0
M  V30 7335 N 688.967 2.6718 -5.15359 0
M  V30 7336 H 691.732 -0.723201 -2.90843 0
M  V30 7337 H 689.293 -0.53031 -1.52968 0
M  V30 7338 H 691.285 1.68813 -3.6781 0
M  V30 7339 H 689.855 1.71126 -2.616 0
M  V30 7340 H 689.075 -0.404185 -3.92122 0
M  V30 7341 H 690.363 -0.0545098 -5.08771 0
M  V30 7342 H 689.761 3.10626 -4.72788 0
M  V30 7343 H 688.318 3.25159 -5.64903 0
M  V30 7344 N 691.751 1.51645 -0.429126 0
M  V30 7345 C 693.167 1.59394 -0.080994 0
M  V30 7346 C 693.367 1.44064 1.40882 0
M  V30 7347 O 692.423 1.27771 2.17786 0
M  V30 7348 C 693.736 2.94779 -0.593773 0
M  V30 7349 C 695.284 3.08067 -0.553494 0
M  V30 7350 C 695.759 4.45963 -1.04311 0
M  V30 7351 N 697.25 4.5226 -1.00076 0
M  V30 7352 C 697.985 5.57268 -1.35056 0
M  V30 7353 N 697.481 6.69734 -1.77282 0
M  V30 7354 N 699.274 5.47582 -1.26925 0
M  V30 7355 H 691.425 1.59856 -1.39857 0
M  V30 7356 H 693.688 0.753095 -0.575805 0
M  V30 7357 H 693.394 3.11342 -1.63583 0
M  V30 7358 H 693.268 3.77197 -0.0142202 0
M  V30 7359 H 695.655 2.91177 0.479556 0
M  V30 7360 H 695.736 2.27508 -1.16935 0
M  V30 7361 H 695.38 4.63598 -2.07459 0
M  V30 7362 H 695.31 5.25049 -0.403873 0
M  V30 7363 H 697.801 3.71537 -0.690564 0
M  V30 7364 H 698.114 7.4587 -2.02232 0
M  V30 7365 H 696.459 6.70963 -1.81202 0
M  V30 7366 H 699.65 4.58604 -0.93809 0
M  V30 7367 H 699.823 6.29308 -1.54516 0
M  V30 7368 N 693.229 0.160201 1.56784 0
M  V30 7369 C 694.161 -0.80564 2.14574 0
M  V30 7370 C 695.174 -1.20154 1.09849 0
M  V30 7371 O 696.363 -1.14333 1.37078 0
M  V30 7372 C 693.463 -2.09434 2.6644 0
M  V30 7373 C 692.636 -1.86375 3.95706 0
M  V30 7374 C 691.695 -2.99358 4.32749 0
M  V30 7375 O 690.721 -2.70475 5.00831 0
M  V30 7376 N 691.923 -4.26867 3.93402 0
M  V30 7377 H 694.688 -0.311644 2.98075 0
M  V30 7378 H 692.249 -0.0229465 1.61884 0
M  V30 7379 H 694.241 -2.84091 2.88226 0
M  V30 7380 H 692.811 -2.50057 1.8759 0
M  V30 7381 H 692.031 -0.956821 3.82412 0
M  V30 7382 H 693.319 -1.68322 4.80151 0
M  V30 7383 H 692.717 -4.53197 3.38569 0
M  V30 7384 H 691.274 -4.98263 4.20211 0
M  V30 7385 N 694.707 -1.5719 -0.113559 0
M  V30 7386 C 695.67 -1.99796 -1.12314 0
M  V30 7387 C 696.67 -0.888847 -1.34001 0
M  V30 7388 O 697.86 -1.15476 -1.30426 0
M  V30 7389 C 694.992 -2.34279 -2.47641 0
M  V30 7390 H 696.185 -2.90193 -0.756825 0
M  V30 7391 H 693.738 -1.52144 -0.358029 0
M  V30 7392 H 694.473 -1.46778 -2.89183 0
M  V30 7393 H 694.258 -3.15175 -2.33253 0
M  V30 7394 H 695.748 -2.67963 -3.2029 0
M  V30 7395 N 696.185 0.383891 -1.52853 0
M  V30 7396 C 697.115 1.47559 -1.80965 0
M  V30 7397 C 698.096 1.5669 -0.661986 0
M  V30 7398 O 699.281 1.71556 -0.910072 0
M  V30 7399 C 696.411 2.85114 -1.98312 0
M  V30 7400 C 695.365 2.9082 -3.14019 0
M  V30 7401 C 694.691 4.30873 -3.16627 0
M  V30 7402 C 695.991 2.60001 -4.52986 0
M  V30 7403 H 697.685 1.24283 -2.72386 0
M  V30 7404 H 695.231 0.596445 -1.31067 0
M  V30 7405 H 697.184 3.61496 -2.16561 0
M  V30 7406 H 695.908 3.09738 -1.03585 0
M  V30 7407 H 694.567 2.16886 -2.9556 0
M  V30 7408 H 694.215 4.52545 -2.19573 0
M  V30 7409 H 693.915 4.3561 -3.94357 0
M  V30 7410 H 695.439 5.09154 -3.37038 0
M  V30 7411 H 696.853 3.261 -4.71521 0
M  V30 7412 H 695.25 2.76081 -5.32822 0
M  V30 7413 H 696.32 1.5532 -4.59351 0
M  V30 7414 N 697.663 1.43903 0.642637 0
M  V30 7415 C 698.893 1.49323 1.4278 0
M  V30 7416 C 699.301 0.113058 1.88862 0
M  V30 7417 O 698.644 -0.889089 1.60751 0
M  V30 7418 C 698.706 2.3861 2.68897 0
M  V30 7419 C 698.37 3.85976 2.44687 0
M  V30 7420 C 699.367 4.7681 2.07239 0
M  V30 7421 C 697.052 4.30567 2.58683 0
M  V30 7422 C 699.046 6.10234 1.841 0
M  V30 7423 C 696.733 5.64042 2.35159 0
M  V30 7424 C 697.731 6.53693 1.97925 0
M  V30 7425 O 697.419 7.84698 1.74654 0
M  V30 7426 H 697.151 0.509109 0.444729 0
M  V30 7427 H 699.705 1.89425 0.794195 0
M  V30 7428 H 697.935 1.93415 3.34855 0
M  V30 7429 H 699.624 2.35112 3.30873 0
M  V30 7430 H 700.39 4.43635 1.95993 0
M  V30 7431 H 696.269 3.61054 2.86637 0
M  V30 7432 H 699.813 6.80171 1.54962 0
M  V30 7433 H 695.71 5.96782 2.46011 0
M  V30 7434 H 696.478 7.96382 1.88993 0
M  V30 7435 N 699.141 -0.881989 1.30609 0
M  V30 7436 C 700.557 -1.16576 1.09005 0
M  V30 7437 C 700.757 -2.00961 -0.14727 0
M  V30 7438 O 699.813 -2.38117 -0.840036 0
M  V30 7439 C 701.126 -1.86954 2.35518 0
M  V30 7440 C 702.674 -1.99706 2.41011 0
M  V30 7441 C 703.149 -2.73497 3.67374 0
M  V30 7442 N 704.64 -2.8104 3.68199 0
M  V30 7443 C 705.375 -3.38718 4.62664 0
M  V30 7444 N 704.871 -3.97421 5.67475 0
M  V30 7445 N 706.664 -3.36561 4.50203 0
M  V30 7446 H 698.815 -0.319398 2.09985 0
M  V30 7447 H 701.078 -0.204058 0.925778 0
M  V30 7448 H 700.784 -1.32393 3.2583 0
M  V30 7449 H 700.658 -2.87317 2.44395 0
M  V30 7450 H 703.045 -2.53436 1.51176 0
M  V30 7451 H 703.126 -0.984218 2.36108 0
M  V30 7452 H 702.77 -2.20438 4.57569 0
M  V30 7453 H 702.7 -3.75163 3.6954 0
M  V30 7454 H 705.191 -2.39365 2.92426 0
M  V30 7455 H 705.504 -4.39507 6.35652 0
M  V30 7456 H 703.849 -3.95832 5.71264 0
M  V30 7457 H 707.04 -2.8993 3.67503 0
M  V30 7458 H 707.213 -3.81215 5.24003 0
M  V30 7459 N 700.619 -1.13374 -1.09472 0
M  V30 7460 C 701.896 -0.806329 -1.78207 0
M  V30 7461 C 702.276 0.702191 -1.99079 0
M  V30 7462 O 701.624 1.63931 -1.59182 0
M  V30 7463 C 701.834 -1.59271 -3.10538 0
M  V30 7464 C 703.182 -1.78509 -3.85253 0
M  V30 7465 O 704.206 -1.55866 -3.20288 0
M  V30 7466 O 703.065 -2.16287 -5.01879 0
M  V30 7467 H 700.159 -0.29435 -0.772843 0
M  V30 7468 H 702.705 -1.23833 -1.16033 0
M  V30 7469 H 701.477 -2.61792 -2.90828 0
M  V30 7470 H 701.1 -1.15562 -3.80436 0
M  V30 7471 N 702.098 1.27442 -0.927168 0
M  V30 7472 C 703.347 1.93679 -0.563146 0
M  V30 7473 C 703.66 1.73673 0.899837 0
M  V30 7474 O 704.866 2.34247 1.37262 0
M  V30 7475 C 703.322 3.46961 -0.95636 0
M  V30 7476 C 702.93 3.75724 -2.43999 0
M  V30 7477 C 704.674 4.19282 -0.663565 0
M  V30 7478 C 702.581 5.22378 -2.77263 0
M  V30 7479 H 701.511 0.725059 -0.206894 0
M  V30 7480 H 704.162 1.44743 -1.12791 0
M  V30 7481 H 702.544 3.94703 -0.320254 0
M  V30 7482 H 703.718 3.38741 -3.12396 0
M  V30 7483 H 702.033 3.16605 -2.70463 0
M  V30 7484 H 704.63 5.27265 -0.888596 0
M  V30 7485 H 704.973 4.14382 0.399198 0
M  V30 7486 H 705.506 3.7736 -1.25875 0
M  V30 7487 H 702.245 5.32367 -3.82446 0
M  V30 7488 H 701.765 5.6051 -2.13516 0
M  V30 7489 H 703.444 5.9025 -2.64979 0
M  V30 7490 N 703.576 0.692616 1.41565 0
M  V30 7491 C 704.506 0.0397325 2.33466 0
M  V30 7492 C 705.487 -0.770334 1.51657 0
M  V30 7493 O 706.672 -0.723903 1.80203 0
M  V30 7494 C 703.802 -0.899495 3.3545 0
M  V30 7495 C 702.756 -0.196738 4.27548 0
M  V30 7496 C 702.082 -1.25012 5.19881 0
M  V30 7497 C 703.382 0.935158 5.1386 0
M  V30 7498 H 705.076 0.807296 2.88311 0
M  V30 7499 H 702.622 0.389665 1.38628 0
M  V30 7500 H 704.575 -1.36545 3.98665 0
M  V30 7501 H 703.299 -1.69869 2.78948 0
M  V30 7502 H 701.958 0.249158 3.65752 0
M  V30 7503 H 701.606 -2.04177 4.59696 0
M  V30 7504 H 701.306 -0.784931 5.82334 0
M  V30 7505 H 702.83 -1.71665 5.85972 0
M  V30 7506 H 704.244 0.549619 5.70659 0
M  V30 7507 H 702.641 1.32726 5.85238 0
M  V30 7508 H 703.711 1.77613 4.512 0
M  V30 7509 N 705.054 -1.51416 0.437162 0
M  V30 7510 C 706.282 -2.06503 -0.128045 0
M  V30 7511 C 706.697 -1.30461 -1.36475 0
M  V30 7512 O 706.054 -0.364127 -1.78831 0
M  V30 7513 C 706.105 -3.58683 -0.450437 0
M  V30 7514 O 705.826 -4.31853 0.737186 0
M  V30 7515 C 707.327 -4.30284 -1.06633 0
M  V30 7516 H 704.547 -0.670952 -0.00800269 0
M  V30 7517 H 707.091 -1.94996 0.616193 0
M  V30 7518 H 705.246 -3.70106 -1.14457 0
M  V30 7519 H 705.66 -5.22467 0.461347 0
M  V30 7520 H 707.134 -5.37848 -1.24191 0
M  V30 7521 H 707.611 -3.88564 -2.0473 0
M  V30 7522 H 708.217 -4.23304 -0.411585 0
M  V30 7523 N 706.532 -0.168513 -1.56696 0
M  V30 7524 C 707.948 0.187686 -1.58493 0
M  V30 7525 C 708.148 1.63063 -1.18375 0
M  V30 7526 O 707.204 2.36142 -0.894042 0
M  V30 7527 C 708.517 -0.0905858 -3.00564 0
M  V30 7528 C 710.065 -0.028575 -3.12987 0
M  V30 7529 C 710.54 -0.279799 -4.57145 0
M  V30 7530 N 712.031 -0.227476 -4.62641 0
M  V30 7531 C 712.766 -0.396073 -5.7203 0
M  V30 7532 N 712.262 -0.623572 -6.89988 0
M  V30 7533 N 714.055 -0.332173 -5.61118 0
M  V30 7534 H 706.206 -1.11042 -1.81062 0
M  V30 7535 H 708.469 -0.441235 -0.839056 0
M  V30 7536 H 708.175 -1.09006 -3.34381 0
M  V30 7537 H 708.049 0.619078 -3.72085 0
M  V30 7538 H 710.436 0.961471 -2.78998 0
M  V30 7539 H 710.517 -0.770905 -2.43907 0
M  V30 7540 H 710.161 -1.26704 -4.91842 0
M  V30 7541 H 710.091 0.48311 -5.24379 0
M  V30 7542 H 712.582 -0.0571723 -3.77857 0
M  V30 7543 H 712.895 -0.741745 -7.69232 0
M  V30 7544 H 711.24 -0.660153 -6.91858 0
M  V30 7545 H 714.431 -0.155051 -4.67843 0
M  V30 7546 H 714.604 -0.466994 -6.46315 0
M  V30 7547 N 708.01 1.57248 0.105221 0
M  V30 7548 C 708.94 2.04374 1.12931 0
M  V30 7549 C 709.921 0.93074 1.42377 0
M  V30 7550 O 711.106 1.20136 1.52581 0
M  V30 7551 C 708.236 2.45967 2.45189 0
M  V30 7552 C 707.19 3.60838 2.30174 0
M  V30 7553 C 706.516 3.88374 3.67518 0
M  V30 7554 C 707.816 4.92084 1.75073 0
M  V30 7555 H 709.51 2.9018 0.737287 0
M  V30 7556 H 707.056 1.39601 0.353211 0
M  V30 7557 H 709.009 2.77542 3.17094 0
M  V30 7558 H 707.733 1.57148 2.86308 0
M  V30 7559 H 706.392 3.29493 1.60716 0
M  V30 7560 H 706.04 2.96739 4.06147 0
M  V30 7561 H 705.74 4.65703 3.58321 0
M  V30 7562 H 707.264 4.22415 4.40906 0
M  V30 7563 H 708.678 5.22106 2.36809 0
M  V30 7564 H 707.075 5.73507 1.76662 0
M  V30 7565 H 708.145 4.79684 0.709347 0
M  V30 7566 N 709.488 -0.375779 1.53054 0
M  V30 7567 C 710.438 -1.45965 1.75152 0
M  V30 7568 C 711.422 -1.49059 0.605823 0
M  V30 7569 O 712.614 -1.54472 0.864133 0
M  V30 7570 C 709.743 -2.83524 1.93569 0
M  V30 7571 C 708.829 -2.84949 3.1411 0
M  V30 7572 N 709.22 -2.56029 4.36214 0
M  V30 7573 C 707.518 -3.16113 3.14625 0
M  V30 7574 C 708.219 -2.64873 5.17897 0
M  V30 7575 N 707.195 -2.99159 4.53878 0
M  V30 7576 H 710.997 -1.22454 2.67175 0
M  V30 7577 H 708.511 -0.583867 1.51541 0
M  V30 7578 H 710.508 -3.61578 2.07525 0
M  V30 7579 H 709.168 -3.08008 1.02768 0
M  V30 7580 H 710.179 -2.29808 4.64121 0
M  V30 7581 H 706.856 -3.45977 2.3368 0
M  V30 7582 H 708.246 -2.45947 6.25268 0
M  V30 7583 N 710.966 -1.44241 -0.634997 0
M  V30 7584 C 712.243 -1.37296 -1.39317 0
M  V30 7585 C 712.623 -0.0297532 -2.11079 0
M  V30 7586 O 711.971 0.987524 -2.06059 0
M  V30 7587 C 712.181 -2.56853 -2.36279 0
M  V30 7588 C 713.529 -3.00747 -2.99728 0
M  V30 7589 O 714.553 -2.5703 -2.46605 0
M  V30 7590 O 713.412 -3.76533 -3.96087 0
M  V30 7591 H 710.506 -0.543503 -0.623325 0
M  V30 7592 H 713.052 -1.56324 -0.660376 0
M  V30 7593 H 711.824 -3.46228 -1.82324 0
M  V30 7594 H 711.447 -2.40019 -3.16981 0
M  V30 7595 N 712.444 0.87505 -1.31075 0
M  V30 7596 C 713.354 2.01441 -1.20244 0
M  V30 7597 C 714.37 1.73584 -0.120227 0
M  V30 7598 O 715.546 1.98559 -0.337063 0
M  V30 7599 C 712.611 3.34675 -0.905199 0
M  V30 7600 C 711.672 3.75889 -2.0738 0
M  V30 7601 C 710.905 5.02764 -1.79064 0
M  V30 7602 O 711.128 5.65795 -0.723318 0
M  V30 7603 O 710.062 5.40623 -2.64594 0
M  V30 7604 H 713.888 2.13509 -2.1598 0
M  V30 7605 H 711.473 1.00257 -1.10765 0
M  V30 7606 H 713.355 4.1458 -0.755057 0
M  V30 7607 H 712.03 3.23692 0.0221695 0
M  V30 7608 H 710.937 2.96645 -2.27931 0
M  V30 7609 H 712.27 3.91489 -2.98324 0
M  V30 7610 N 713.922 1.13953 1.08869 0
M  V30 7611 C 714.885 0.824991 2.13838 0
M  V30 7612 C 715.885 -0.168198 1.59918 0
M  V30 7613 O 717.075 0.0595778 1.74098 0
M  V30 7614 C 714.207 0.228938 3.4013 0
M  V30 7615 H 715.4 1.75521 2.43171 0
M  V30 7616 H 712.953 0.94492 1.24503 0
M  V30 7617 H 713.688 -0.710227 3.16427 0
M  V30 7618 H 713.473 0.944243 3.80561 0
M  V30 7619 H 714.963 0.0259223 4.17592 0
M  V30 7620 N 715.4 -1.26948 0.933913 0
M  V30 7621 C 716.646 -1.94374 0.57848 0
M  V30 7622 C 716.979 -1.73166 -0.879048 0
M  V30 7623 O 716.254 -1.06438 -1.62792 0
M  V30 7624 C 716.537 -3.4834 0.912739 0
M  V30 7625 C 716.39 -3.78866 2.42448 0
M  V30 7626 C 717.709 -4.38062 0.423003 0
M  V30 7627 H 714.828 -0.705959 0.211639 0
M  V30 7628 H 717.47 -1.49951 1.16682 0
M  V30 7629 H 715.62 -3.86309 0.412058 0
M  V30 7630 H 717.292 -3.50654 2.99733 0
M  V30 7631 H 715.535 -3.25198 2.87104 0
M  V30 7632 H 716.206 -4.86458 2.60887 0
M  V30 7633 H 718.682 -4.0728 0.852191 0
M  V30 7634 H 717.558 -5.44599 0.685776 0
M  V30 7635 H 717.819 -4.36886 -0.676994 0
M  V30 7636 N 716.879 -0.700114 -1.41195 0
M  V30 7637 C 718.109 -0.241828 -2.0518 0
M  V30 7638 C 718.517 1.1157 -1.52803 0
M  V30 7639 O 717.86 1.70926 -0.673042 0
M  V30 7640 C 717.922 -0.12695 -3.59276 0
M  V30 7641 C 717.586 -1.41725 -4.34469 0
M  V30 7642 C 718.583 -2.35604 -4.63451 0
M  V30 7643 C 716.268 -1.67189 -4.73659 0
M  V30 7644 C 718.262 -3.53204 -5.3059 0
M  V30 7645 C 715.949 -2.85073 -5.40534 0
M  V30 7646 C 716.947 -3.77904 -5.68927 0
M  V30 7647 O 716.635 -4.93723 -6.34424 0
M  V30 7648 H 716.367 -0.109247 -0.667114 0
M  V30 7649 H 718.921 -0.954538 -1.81873 0
M  V30 7650 H 717.151 0.641571 -3.81341 0
M  V30 7651 H 718.84 0.294748 -4.04828 0
M  V30 7652 H 719.606 -2.1719 -4.33651 0
M  V30 7653 H 715.485 -0.957935 -4.50937 0
M  V30 7654 H 719.029 -4.25679 -5.52669 0
M  V30 7655 H 714.926 -3.03402 -5.69752 0
M  V30 7656 H 715.694 -4.93597 -6.5292 0
M  V30 7657 N 718.357 1.51182 -0.445186 0
M  V30 7658 C 719.287 2.30821 0.352686 0
M  V30 7659 C 720.268 1.36576 1.01395 0
M  V30 7660 O 721.453 1.65497 1.01609 0
M  V30 7661 C 718.583 3.15593 1.44976 0
M  V30 7662 C 717.537 4.1818 0.911553 0
M  V30 7663 C 716.863 4.91523 2.10497 0
M  V30 7664 C 718.163 5.22266 -0.059418 0
M  V30 7665 H 719.857 2.97771 -0.311936 0
M  V30 7666 H 717.403 1.43201 -0.151461 0
M  V30 7667 H 719.356 3.70091 2.01521 0
M  V30 7668 H 718.08 2.4648 2.14278 0
M  V30 7669 H 716.739 3.64746 0.368264 0
M  V30 7670 H 716.387 4.18906 2.78437 0
M  V30 7671 H 716.087 5.60898 1.7512 0
M  V30 7672 H 717.611 5.48847 2.6758 0
M  V30 7673 H 719.025 5.71789 0.415985 0
M  V30 7674 H 717.422 5.99213 -0.326152 0
M  V30 7675 H 718.492 4.7461 -0.993631 0
M  V30 7676 N 719.835 0.176821 1.56605 0
M  V30 7677 C 721.246 -0.338963 1.83597 0
M  V30 7678 C 721.597 -1.62677 1.09684 0
M  V30 7679 O 720.722 -2.13524 0.351661 0
M  V30 7680 C 721.317 -0.62177 3.33046 0
M  V30 7681 C 719.876 -1.08198 3.60514 0
M  V30 7682 C 719.023 -0.120774 2.77037 0
M  V30 7683 H 721.974 0.400978 1.53551 0
M  V30 7684 H 721.995 -1.47321 3.50823 0
M  V30 7685 H 721.507 0.315692 3.86814 0
M  V30 7686 H 719.608 -2.03435 3.12162 0
M  V30 7687 H 719.721 -0.987329 4.68816 0
M  V30 7688 H 718.085 -0.619192 2.47059 0
M  V30 7689 H 718.868 0.810806 3.33588 0
M  V30 7690 N 721.313 -1.57302 -0.09688 0
M  V30 7691 C 722.562 -1.85183 -0.799388 0
M  V30 7692 C 722.875 -0.765818 -1.79985 0
M  V30 7693 O 724.081 -0.931696 -2.55013 0
M  V30 7694 C 722.537 -3.28399 -1.47249 0
M  V30 7695 C 722.145 -4.45066 -0.511888 0
M  V30 7696 C 723.889 -3.65506 -2.15883 0
M  V30 7697 C 721.796 -5.79315 -1.18948 0
M  V30 7698 H 720.726 -0.690752 -0.302287 0
M  V30 7699 H 723.377 -1.83425 -0.0523104 0
M  V30 7700 H 721.759 -3.24692 -2.26697 0
M  V30 7701 H 722.933 -4.60116 0.250962 0
M  V30 7702 H 721.248 -4.16343 0.0686576 0
M  V30 7703 H 723.845 -4.63087 -2.67309 0
M  V30 7704 H 724.188 -2.94041 -2.94696 0
M  V30 7705 H 724.721 -3.71094 -1.43298 0
M  V30 7706 H 721.46 -6.54007 -0.442198 0
M  V30 7707 H 720.98 -5.68111 -1.9238 0
M  V30 7708 H 722.659 -6.23816 -1.71646 0
M  V30 7709 N 722.791 0.367657 -1.53252 0
M  V30 7710 C 724.016 1.13566 -1.73544 0
M  V30 7711 C 724.441 1.82329 -0.462344 0
M  V30 7712 O 723.799 1.71655 0.583472 0
M  V30 7713 C 723.847 2.14322 -2.89997 0
M  V30 7714 O 722.951 3.21359 -2.58461 0
M  V30 7715 H 722.292 0.329614 -0.576412 0
M  V30 7716 H 724.822 0.425417 -2.00128 0
M  V30 7717 H 724.832 2.57958 -3.16104 0
M  V30 7718 H 723.507 1.63664 -3.82344 0
M  V30 7719 H 722.084 2.8271 -2.43165 0
M  V30 7720 N 724.269 1.44576 0.627338 0
M  V30 7721 C 725.499 1.50829 1.41189 0
M  V30 7722 C 725.907 0.133083 1.88731 0
M  V30 7723 O 725.25 -0.87199 1.61685 0
M  V30 7724 C 725.312 2.41449 2.66351 0
M  V30 7725 C 724.976 3.88549 2.40579 0
M  V30 7726 C 725.973 4.78981 2.0217 0
M  V30 7727 C 723.658 4.33287 2.54102 0
M  V30 7728 C 725.652 6.12153 1.77618 0
M  V30 7729 C 723.339 5.66505 2.29163 0
M  V30 7730 C 724.337 6.55756 1.9098 0
M  V30 7731 O 724.025 7.86506 1.66321 0
M  V30 7732 H 723.757 0.513797 0.439304 0
M  V30 7733 H 726.311 1.90256 0.774059 0
M  V30 7734 H 724.541 1.96955 3.32784 0
M  V30 7735 H 726.23 2.38608 3.28361 0
M  V30 7736 H 726.996 4.45689 1.91277 0
M  V30 7737 H 722.875 3.64074 2.82792 0
M  V30 7738 H 726.419 6.81776 1.47739 0
M  V30 7739 H 722.316 5.99358 2.39668 0
M  V30 7740 H 723.084 7.98341 1.80536 0
M  V30 7741 N 725.747 -0.868086 1.31537 0
M  V30 7742 C 726.996 -1.61607 1.20689 0
M  V30 7743 C 727.309 -1.94204 -0.233275 0
M  V30 7744 O 728.515 -2.67515 -0.463465 0
M  V30 7745 C 726.971 -2.91348 2.11292 0
M  V30 7746 C 726.579 -2.66227 3.60315 0
M  V30 7747 C 728.323 -3.69344 2.09249 0
M  V30 7748 C 726.23 -3.91887 4.42921 0
M  V30 7749 H 725.16 -0.606373 0.448138 0
M  V30 7750 H 727.811 -0.959666 1.56405 0
M  V30 7751 H 726.193 -3.58374 1.68477 0
M  V30 7752 H 727.367 -2.07597 4.11388 0
M  V30 7753 H 725.682 -2.01582 3.64354 0
M  V30 7754 H 728.279 -4.62567 2.68209 0
M  V30 7755 H 728.622 -4.02044 1.0801 0
M  V30 7756 H 729.155 -3.09205 2.50274 0
M  V30 7757 H 725.894 -3.64336 5.44922 0
M  V30 7758 H 725.414 -4.49961 3.96605 0
M  V30 7759 H 727.093 -4.59754 4.55231 0
M  V30 7760 N 727.225 -1.14528 -1.08264 0
M  V30 7761 C 728.45 -0.938381 -1.84957 0
M  V30 7762 C 728.875 0.508044 -1.81109 0
M  V30 7763 O 728.233 1.36146 -1.19724 0
M  V30 7764 C 728.281 -1.44568 -3.30352 0
M  V30 7765 O 727.385 -0.638745 -4.07423 0
M  V30 7766 H 726.726 -0.335394 -0.573068 0
M  V30 7767 H 729.256 -1.52287 -1.36637 0
M  V30 7768 H 729.266 -1.45449 -3.81194 0
M  V30 7769 H 727.941 -2.49876 -3.32468 0
M  V30 7770 H 726.518 -0.698801 -3.66294 0
M  V30 7771 N 728.703 1.26451 -0.940633 0
M  V30 7772 C 729.636 2.24771 -0.394094 0
M  V30 7773 C 730.614 1.54169 0.516781 0
M  V30 7774 O 731.798 1.82942 0.454352 0
M  V30 7775 C 728.925 3.3591 0.433807 0
M  V30 7776 C 727.971 4.24472 -0.415464 0
M  V30 7777 S 728.804 5.0293 -1.83907 0
M  V30 7778 C 729.96 6.17546 -1.01921 0
M  V30 7779 H 730.193 2.70782 -1.22737 0
M  V30 7780 H 727.726 1.35308 -0.743709 0
M  V30 7781 H 729.684 4.00387 0.905576 0
M  V30 7782 H 728.345 2.88512 1.24175 0
M  V30 7783 H 727.538 5.03525 0.218833 0
M  V30 7784 H 727.14 3.64857 -0.821897 0
M  V30 7785 H 729.432 6.76996 -0.261227 0
M  V30 7786 H 730.375 6.8528 -1.78318 0
M  V30 7787 H 730.783 5.6176 -0.555511 0
M  V30 7788 N 730.181 0.707592 1.40822 0
M  V30 7789 C 731.114 -0.000859377 2.282 0
M  V30 7790 C 732.092 -0.7758 1.42899 0
M  V30 7791 O 733.276 -0.76411 1.72318 0
M  V30 7792 C 730.403 -1.00861 3.23334 0
M  V30 7793 C 729.449 -0.32543 4.25257 0
M  V30 7794 S 730.282 0.940908 5.27169 0
M  V30 7795 C 731.438 -0.0649459 6.25866 0
M  V30 7796 H 731.671 0.740207 2.87938 0
M  V30 7797 H 729.204 0.498311 1.46138 0
M  V30 7798 H 731.162 -1.58485 3.78672 0
M  V30 7799 H 729.823 -1.72233 2.62668 0
M  V30 7800 H 729.016 -1.08697 4.92139 0
M  V30 7801 H 728.618 0.178044 3.73576 0
M  V30 7802 H 730.91 -0.914377 6.71301 0
M  V30 7803 H 731.853 0.570276 7.058 0
M  V30 7804 H 732.261 -0.425098 5.62897 0
M  V30 7805 N 731.66 -1.50943 0.453197 0
M  V30 7806 C 732.906 -2.02512 -0.108082 0
M  V30 7807 C 733.239 -1.33574 -1.40967 0
M  V30 7808 O 732.514 -0.455671 -1.89087 0
M  V30 7809 C 732.797 -3.58759 -0.310453 0
M  V30 7810 C 732.65 -4.38293 1.0109 0
M  V30 7811 C 733.969 -4.26816 -1.07313 0
M  V30 7812 H 731.088 -0.73603 -0.0378064 0
M  V30 7813 H 733.73 -1.80433 0.595295 0
M  V30 7814 H 731.88 -3.77702 -0.909582 0
M  V30 7815 H 733.552 -4.30964 1.64523 0
M  V30 7816 H 731.795 -4.02745 1.61179 0
M  V30 7817 H 732.466 -5.45828 0.82315 0
M  V30 7818 H 734.942 -4.1224 -0.565473 0
M  V30 7819 H 733.818 -5.35989 -1.1835 0
M  V30 7820 H 734.079 -3.88757 -2.10525 0
M  V30 7821 N 733.138 -0.185124 -1.56509 0
M  V30 7822 C 734.384 0.456934 -1.97585 0
M  V30 7823 C 734.717 1.61957 -1.07161 0
M  V30 7824 O 733.992 1.9412 -0.121546 0
M  V30 7825 C 734.275 0.926666 -3.47973 0
M  V30 7826 C 734.128 -0.237097 -4.49175 0
M  V30 7827 C 735.447 1.79561 -4.01803 0
M  V30 7828 H 732.566 0.164619 -0.71838 0
M  V30 7829 H 735.208 -0.274039 -1.88013 0
M  V30 7830 H 733.358 1.54954 -3.56261 0
M  V30 7831 H 735.03 -0.87454 -4.52934 0
M  V30 7832 H 733.273 -0.890446 -4.24563 0
M  V30 7833 H 733.944 0.133924 -5.51838 0
M  V30 7834 H 736.42 1.27039 -3.96232 0
M  V30 7835 H 735.296 2.09327 -5.07418 0
M  V30 7836 H 735.557 2.74629 -3.46455 0
M  V30 7837 N 734.616 1.57351 0.0885366 0
M  V30 7838 C 735.841 1.91011 0.80805 0
M  V30 7839 C 736.266 0.780009 1.71165 0
M  V30 7840 O 735.624 -0.268083 1.79307 0
M  V30 7841 C 735.672 3.23562 1.59185 0
M  V30 7842 O 734.776 3.11615 2.7013 0
M  V30 7843 H 734.117 0.625943 0.221565 0
M  V30 7844 H 736.647 2.04507 0.0617954 0
M  V30 7845 H 736.657 3.5703 1.97468 0
M  V30 7846 H 735.332 4.05398 0.928741 0
M  V30 7847 H 733.909 2.89673 2.34827 0
M  V30 7848 N 736.094 -0.359525 1.53444 0
M  V30 7849 C 737.041 -1.44073 1.8031 0
M  V30 7850 C 738.011 -1.52946 0.647811 0
M  V30 7851 O 739.196 -1.68739 0.890614 0
M  V30 7852 C 736.336 -2.80941 2.00416 0
M  V30 7853 C 735.449 -2.80986 3.28132 0
M  V30 7854 C 734.584 -4.09468 3.38393 0
M  V30 7855 C 733.623 -4.03679 4.60119 0
M  V30 7856 N 732.76 -5.23821 4.675 0
M  V30 7857 H 737.6 -1.20464 2.72566 0
M  V30 7858 H 735.137 -0.583859 1.35017 0
M  V30 7859 H 737.095 -3.60459 2.1006 0
M  V30 7860 H 735.725 -3.02936 1.11489 0
M  V30 7861 H 734.777 -1.93666 3.27411 0
M  V30 7862 H 736.089 -2.72583 4.17732 0
M  V30 7863 H 735.243 -4.97404 3.47382 0
M  V30 7864 H 733.982 -4.20632 2.4682 0
M  V30 7865 H 732.987 -3.14129 4.51224 0
M  V30 7866 H 734.212 -3.94112 5.5304 0
M  V30 7867 H 732.158 -5.35559 3.7883 0
M  V30 7868 H 732.075 -5.17611 5.51013 0
M  V30 7869 H 733.343 -6.13572 4.8078 0
M  V30 7870 N 737.572 -1.44907 -0.619662 0
M  V30 7871 C 738.983 -1.42905 -1.20146 0
M  V30 7872 C 739.334 -0.150341 -1.95623 0
M  V30 7873 O 738.459 0.748732 -2.03034 0
M  V30 7874 C 739.054 -2.58889 -2.18545 0
M  V30 7875 C 737.613 -2.60046 -2.72127 0
M  V30 7876 C 736.76 -2.3493 -1.4732 0
M  V30 7877 H 739.711 -1.53321 -0.409666 0
M  V30 7878 H 739.732 -2.32298 -3.0136 0
M  V30 7879 H 739.244 -3.51941 -1.63583 0
M  V30 7880 H 737.345 -1.70968 -3.3106 0
M  V30 7881 H 737.458 -3.58893 -3.17384 0
M  V30 7882 H 735.822 -1.84248 -1.75855 0
M  V30 7883 H 736.605 -3.3011 -0.942442 0
M  V30 7884 N 739.05 0.861098 -1.31996 0
M  V30 7885 C 739.96 2.00154 -1.22374 0
M  V30 7886 C 740.976 1.73447 -0.138631 0
M  V30 7887 O 742.152 1.98191 -0.358104 0
M  V30 7888 C 739.217 3.33696 -0.940645 0
M  V30 7889 C 738.278 3.73668 -2.11355 0
M  V30 7890 C 737.511 5.00837 -1.84386 0
M  V30 7891 O 737.734 5.64996 -0.783287 0
M  V30 7892 O 736.668 5.37787 -2.70313 0
M  V30 7893 H 740.494 2.11207 -2.18233 0
M  V30 7894 H 738.079 0.990768 -1.11822 0
M  V30 7895 H 739.961 4.13756 -0.798987 0
M  V30 7896 H 738.636 3.23698 -0.0121636 0
M  V30 7897 H 737.543 2.94211 -2.31065 0
M  V30 7898 H 738.876 3.88303 -3.02459 0
M  V30 7899 N 740.528 1.15101 1.07655 0
M  V30 7900 C 741.458 0.867864 2.16773 0
M  V30 7901 C 742.439 -0.180283 1.69142 0
M  V30 7902 O 743.624 -0.0353152 1.94168 0
M  V30 7903 C 740.754 0.35299 3.45501 0
M  V30 7904 C 739.708 1.33746 4.06566 0
M  V30 7905 C 739.034 0.681562 5.30338 0
M  V30 7906 C 740.334 2.7024 4.46954 0
M  V30 7907 H 742.028 1.78034 2.40716 0
M  V30 7908 H 739.574 0.857435 1.15689 0
M  V30 7909 H 741.527 0.142465 4.21159 0
M  V30 7910 H 740.251 -0.594945 3.21135 0
M  V30 7911 H 738.91 1.53429 3.32949 0
M  V30 7912 H 738.558 -0.272422 5.02262 0
M  V30 7913 H 738.258 1.33853 5.72151 0
M  V30 7914 H 739.782 0.48074 6.08705 0
M  V30 7915 H 741.196 2.5442 5.13754 0
M  V30 7916 H 739.593 3.32282 4.99709 0
M  V30 7917 H 740.663 3.26537 3.58471 0
M  V30 7918 N 742.006 -1.2595 0.947325 0
M  V30 7919 C 743.254 -1.93081 0.596996 0
M  V30 7920 C 743.575 -1.74632 -0.867672 0
M  V30 7921 O 742.845 -1.1056 -1.6172 0
M  V30 7922 H 741.425 -0.714542 0.217805 0
M  V30 7923 H 744.087 -1.53265 1.20398 0
M  V30 7924 H 743.183 -3.01134 0.82004 0
M  V30 7925 N 743.484 -0.715051 -1.40445 0
M  V30 7926 C 744.432 -0.0509974 -2.32544 0
M  V30 7927 C 745.426 0.747602 -1.52011 0
M  V30 7928 O 746.632 0.651031 -1.67814 0
M  V30 7929 H 743.007 0.00231113 -0.751996 0
M  V30 7930 H 744.978 -0.84449 -2.86201 0
M  V30 7931 C 743.727 0.857101 -3.3697 0
M  V30 7932 H 743.05 0.252 -3.99005 0
M  V30 7933 H 744.49 1.28971 -4.03909 0
M  V30 7934 C 742.949 1.98231 -2.72408 0
M  V30 7935 O 743.479 3.07309 -2.58697 0
M  V30 7936 N 741.685 1.76577 -2.308 0
M  V30 7937 H 741.232 0.878641 -2.42152 0
M  V30 7938 H 741.19 2.52043 -1.87941 0
M  V30 7939 N 744.962 1.50701 -0.461195 0
M  V30 7940 C 746.211 2.01458 0.0988277 0
M  V30 7941 C 746.524 1.34863 1.41673 0
M  V30 7942 O 747.73 1.76721 2.06111 0
M  V30 7943 C 746.186 3.59186 0.226648 0
M  V30 7944 C 745.794 4.34732 -1.08223 0
M  V30 7945 C 747.538 4.18015 0.73916 0
M  V30 7946 C 745.445 5.8422 -0.918747 0
M  V30 7947 H 744.375 0.7529 0.040709 0
M  V30 7948 H 747.026 1.736 -0.594589 0
M  V30 7949 H 745.408 3.83589 0.983621 0
M  V30 7950 H 746.582 4.22059 -1.84939 0
M  V30 7951 H 744.897 3.87466 -1.52509 0
M  V30 7952 H 747.494 5.27436 0.878347 0
M  V30 7953 H 747.837 3.78746 1.72793 0
M  V30 7954 H 748.37 3.9778 0.0398469 0
M  V30 7955 H 745.109 6.27944 -1.88059 0
M  V30 7956 H 744.629 5.99493 -0.191801 0
M  V30 7957 H 746.308 6.44382 -0.581405 0
M  V30 7958 N 746.441 0.193421 1.56409 0
M  V30 7959 C 747.852 -0.319471 1.83946 0
M  V30 7960 C 748.203 -1.61505 1.11403 0
M  V30 7961 O 747.328 -2.13139 0.374289 0
M  V30 7962 C 747.923 -0.586411 3.33686 0
M  V30 7963 C 746.482 -1.04368 3.61641 0
M  V30 7964 C 745.629 -0.0913834 2.77149 0
M  V30 7965 H 748.58 0.417242 1.53117 0
M  V30 7966 H 748.601 -1.43591 3.52366 0
M  V30 7967 H 748.113 0.356701 3.86457 0
M  V30 7968 H 746.214 -2.00113 3.14302 0
M  V30 7969 H 746.327 -0.937549 4.69837 0
M  V30 7970 H 744.691 -0.592954 2.47702 0
M  V30 7971 H 745.474 0.846142 3.32709 0
M  V30 7972 N 747.919 -1.57396 -0.0801906 0
M  V30 7973 C 749.149 -1.90778 -0.792924 0
M  V30 7974 C 749.557 -0.786814 -1.72064 0
M  V30 7975 O 748.9 0.249259 -1.82001 0
M  V30 7976 C 748.962 -3.19552 -1.64702 0
M  V30 7977 C 748.626 -4.48259 -0.889567 0
M  V30 7978 C 749.623 -5.19465 -0.212602 0
M  V30 7979 C 747.308 -4.94896 -0.859229 0
M  V30 7980 C 749.302 -6.35555 0.484566 0
M  V30 7981 C 746.989 -6.10895 -0.158284 0
M  V30 7982 C 747.987 -6.81075 0.512421 0
M  V30 7983 O 747.675 -7.94862 1.20209 0
M  V30 7984 H 747.407 -0.63527 -0.231103 0
M  V30 7985 H 749.961 -2.0532 -0.0573081 0
M  V30 7986 H 748.191 -3.01196 -2.42524 0
M  V30 7987 H 749.88 -3.38649 -2.23767 0
M  V30 7988 H 750.646 -4.84467 -0.227403 0
M  V30 7989 H 746.525 -4.4015 -1.37073 0
M  V30 7990 H 750.069 -6.9027 1.00864 0
M  V30 7991 H 745.966 -6.45345 -0.141381 0
M  V30 7992 H 746.734 -8.10932 1.11051 0
M  V30 7993 N 749.397 0.351382 -1.53633 0
M  V30 7994 C 750.36 1.41403 -1.80383 0
M  V30 7995 C 751.36 1.45963 -0.674635 0
M  V30 7996 O 752.55 1.46476 -0.942895 0
M  V30 7997 C 749.682 2.80401 -1.93876 0
M  V30 7998 H 750.875 1.18951 -2.75301 0
M  V30 7999 H 748.428 0.58533 -1.44926 0
M  V30 8000 H 749.163 3.08147 -1.01074 0
M  V30 8001 H 748.948 2.78488 -2.7602 0
M  V30 8002 H 750.438 3.57329 -2.16116 0
M  V30 8003 N 750.875 1.45233 0.611969 0
M  V30 8004 C 752.286 1.4354 1.19387 0
M  V30 8005 C 752.637 0.160713 1.95541 0
M  V30 8006 O 751.762 -0.737954 2.03429 0
M  V30 8007 C 752.357 2.60045 2.17169 0
M  V30 8008 C 750.916 2.61486 2.70744 0
M  V30 8009 C 750.063 2.35708 1.46072 0
M  V30 8010 H 753.014 1.53536 0.401529 0
M  V30 8011 H 753.035 2.33893 3.00124 0
M  V30 8012 H 752.547 3.52803 1.61714 0
M  V30 8013 H 750.648 1.72721 3.30149 0
M  V30 8014 H 750.761 3.60572 3.15476 0
M  V30 8015 H 749.125 1.85178 1.74875 0
M  V30 8016 H 749.908 3.30606 0.924922 0
M  V30 8017 N 752.353 -0.854086 1.3245 0
M  V30 8018 C 753.602 -1.60318 1.22397 0
M  V30 8019 C 753.915 -1.9444 -0.212664 0
M  V30 8020 O 755.121 -2.67991 -0.435066 0
M  V30 8021 C 753.577 -2.8909 2.1437 0
M  V30 8022 C 753.185 -2.62391 3.63119 0
M  V30 8023 C 754.929 -3.67104 2.13155 0
M  V30 8024 C 752.836 -3.87167 4.47052 0
M  V30 8025 H 751.766 -0.601586 0.454544 0
M  V30 8026 H 754.417 -0.943023 1.57415 0
M  V30 8027 H 752.799 -3.56567 1.72268 0
M  V30 8028 H 753.973 -2.03222 4.13567 0
M  V30 8029 H 752.288 -1.97706 3.66471 0
M  V30 8030 H 754.885 -4.59696 2.731 0
M  V30 8031 H 755.228 -4.00876 1.12268 0
M  V30 8032 H 755.761 -3.06533 2.5354 0
M  V30 8033 H 752.5 -3.58536 5.48755 0
M  V30 8034 H 752.02 -4.45729 4.01355 0
M  V30 8035 H 753.699 -4.549 4.60081 0
M  V30 8036 N 753.831 -1.1567 -1.07043 0
M  V30 8037 C 754.794 -0.858906 -2.12498 0
M  V30 8038 C 755.794 0.142735 -1.60165 0
M  V30 8039 O 756.984 -0.0872678 -1.73981 0
M  V30 8040 C 754.116 -0.283021 -3.39723 0
M  V30 8041 H 755.309 -1.79368 -2.40348 0
M  V30 8042 H 752.862 -0.964608 -1.22984 0
M  V30 8043 H 753.597 0.659796 -3.17517 0
M  V30 8044 H 753.382 -1.00467 -3.7901 0
M  V30 8045 H 754.872 -0.0923543 -4.17498 0
M  V30 8046 N 755.309 1.25446 -0.953992 0
M  V30 8047 C 756.537 1.97215 -0.625595 0
M  V30 8048 C 756.952 1.70911 0.802168 0
M  V30 8049 O 756.309 0.984782 1.5365 0
M  V30 8050 C 756.36 3.50777 -0.873943 0
M  V30 8051 O 756.081 3.76173 -2.24556 0
M  V30 8052 C 757.582 4.39776 -0.557845 0
M  V30 8053 H 754.802 0.628652 -0.2346 0
M  V30 8054 H 757.346 1.59632 -1.27819 0
M  V30 8055 H 755.501 3.86474 -0.267765 0
M  V30 8056 H 755.915 4.70636 -2.31522 0
M  V30 8057 H 757.389 5.46431 -0.782157 0
M  V30 8058 H 757.866 4.36257 0.507573 0
M  V30 8059 H 758.472 4.09644 -1.14332 0
M  V30 8060 N 756.787 0.722489 1.40064 0
M  V30 8061 C 757.697 0.0755984 2.34478 0
M  V30 8062 C 758.713 -0.736046 1.57665 0
M  V30 8063 O 759.889 -0.667407 1.9002 0
M  V30 8064 C 756.954 -0.830075 3.36616 0
M  V30 8065 C 756.015 -0.00759884 4.29299 0
M  V30 8066 C 755.248 -0.870139 5.26559 0
M  V30 8067 O 755.471 -2.10921 5.2997 0
M  V30 8068 O 754.405 -0.305454 6.01124 0
M  V30 8069 H 758.231 0.854545 2.9143 0
M  V30 8070 H 755.816 0.483032 1.41376 0
M  V30 8071 H 757.698 -1.34864 3.99236 0
M  V30 8072 H 756.373 -1.58805 2.82069 0
M  V30 8073 H 755.28 0.556199 3.69942 0
M  V30 8074 H 756.613 0.712312 4.87018 0
M  V30 8075 N 758.265 -1.50454 0.469181 0
M  V30 8076 C 759.514 -2.01507 -0.0881425 0
M  V30 8077 C 759.827 -1.35613 -1.40956 0
M  V30 8078 O 761.033 -1.77812 -2.05171 0
M  V30 8079 C 759.489 -3.59301 -0.207596 0
M  V30 8080 C 759.097 -4.34152 1.10527 0
M  V30 8081 C 760.841 -4.18401 -0.716981 0
M  V30 8082 C 758.748 -5.83725 0.949717 0
M  V30 8083 H 757.678 -0.753106 -0.0367156 0
M  V30 8084 H 760.329 -1.73282 0.603788 0
M  V30 8085 H 758.711 -3.84106 -0.963265 0
M  V30 8086 H 759.885 -4.21073 1.87175 0
M  V30 8087 H 758.2 -3.86652 1.54562 0
M  V30 8088 H 760.797 -5.27895 -0.850363 0
M  V30 8089 H 761.14 -3.79657 -1.70782 0
M  V30 8090 H 761.673 -3.97796 -0.0187511 0
M  V30 8091 H 758.412 -6.26938 1.91387 0
M  V30 8092 H 757.932 -5.99383 0.223591 0
M  V30 8093 H 759.611 -6.44065 0.61557 0
M  V30 8094 N 759.743 -0.201713 -1.56304 0
M  V30 8095 C 761.154 0.309711 -1.84113 0
M  V30 8096 C 761.505 1.60912 -1.12258 0
M  V30 8097 O 760.63 2.12937 -0.385587 0
M  V30 8098 C 761.225 0.568706 -3.33993 0
M  V30 8099 C 759.784 1.02448 -3.6219 0
M  V30 8100 C 758.931 0.0766842 -2.77194 0
M  V30 8101 H 761.882 -0.425356 -1.52893 0
M  V30 8102 H 761.903 1.41721 -3.53122 0
M  V30 8103 H 761.415 -0.37719 -3.86263 0
M  V30 8104 H 759.516 1.98443 -3.15359 0
M  V30 8105 H 759.629 0.912619 -4.70328 0
M  V30 8106 H 757.993 0.579809 -2.48013 0
M  V30 8107 H 758.776 -0.863774 -3.32256 0
M  V30 8108 N 761.222 1.57436 0.0718424 0
M  V30 8109 C 762.469 1.87248 0.771007 0
M  V30 8110 C 762.797 0.793441 1.7758 0
M  V30 8111 O 762.052 -0.210565 1.94564 0
M  V30 8112 C 762.351 3.23723 1.51455 0
M  V30 8113 C 762.017 4.46194 0.649736 0
M  V30 8114 C 760.679 4.79438 0.411409 0
M  V30 8115 C 763.031 5.21176 0.05004 0
M  V30 8116 C 760.359 5.85077 -0.436096 0
M  V30 8117 C 762.711 6.27712 -0.784919 0
M  V30 8118 C 761.375 6.59457 -1.03312 0
M  V30 8119 H 760.645 0.685188 0.282132 0
M  V30 8120 H 763.292 1.91474 0.0317896 0
M  V30 8121 H 761.597 3.15287 2.32597 0
M  V30 8122 H 763.294 3.44023 2.06031 0
M  V30 8123 H 759.884 4.20175 0.84562 0
M  V30 8124 H 764.068 4.95806 0.221282 0
M  V30 8125 H 759.324 6.08071 -0.637136 0
M  V30 8126 H 763.498 6.84974 -1.25635 0
M  V30 8127 H 761.125 7.4114 -1.6916 0
M  V30 8128 N 762.7 -0.34323 1.53817 0
M  V30 8129 C 763.61 -1.44493 1.84821 0
M  V30 8130 C 764.626 -1.57556 0.738381 0
M  V30 8131 O 765.802 -1.73026 1.03072 0
M  V30 8132 C 762.867 -2.79478 2.05166 0
M  V30 8133 C 761.928 -2.75756 3.29025 0
M  V30 8134 C 761.161 -4.04302 3.4839 0
M  V30 8135 O 761.384 -5.01595 2.71586 0
M  V30 8136 O 760.318 -4.08754 4.41819 0
M  V30 8137 H 764.144 -1.21209 2.78464 0
M  V30 8138 H 761.729 -0.535437 1.39476 0
M  V30 8139 H 763.611 -3.59419 2.19991 0
M  V30 8140 H 762.286 -3.02692 1.14713 0
M  V30 8141 H 761.193 -1.94434 3.19603 0
M  V30 8142 H 762.526 -2.57495 4.19472 0
M  V30 8143 N 764.178 -1.45556 -0.604258 0
M  V30 8144 C 765.11 -1.50494 -1.72871 0
M  V30 8145 C 766.123 -0.395368 -1.57926 0
M  V30 8146 O 767.312 -0.662603 -1.65746 0
M  V30 8147 C 764.412 -1.34874 -3.10906 0
M  V30 8148 C 763.585 -2.59564 -3.52058 0
M  V30 8149 C 762.644 -2.38453 -4.6907 0
M  V30 8150 O 761.67 -3.12082 -4.76018 0
M  V30 8151 N 762.872 -1.43229 -5.62553 0
M  V30 8152 H 765.637 -2.4744 -1.69097 0
M  V30 8153 H 763.198 -1.41338 -0.789636 0
M  V30 8154 H 765.19 -1.18556 -3.86945 0
M  V30 8155 H 763.76 -0.461913 -3.09168 0
M  V30 8156 H 762.98 -2.90974 -2.65946 0
M  V30 8157 H 764.268 -3.42441 -3.76313 0
M  V30 8158 H 763.666 -0.824714 -5.59656 0
M  V30 8159 H 762.223 -1.32882 -6.38111 0
M  V30 8160 N 765.656 0.84705 -1.32902 0
M  V30 8161 C 766.905 1.59667 -1.23245 0
M  V30 8162 C 767.218 1.94551 0.202349 0
M  V30 8163 O 768.424 2.68218 0.420847 0
M  V30 8164 C 766.88 2.8795 -2.15901 0
M  V30 8165 C 766.488 2.60461 -3.64505 0
M  V30 8166 C 768.232 3.65968 -2.15098 0
M  V30 8167 C 766.139 3.84791 -4.49099 0
M  V30 8168 H 765.069 0.599167 -0.457728 0
M  V30 8169 H 767.72 0.934662 -1.57912 0
M  V30 8170 H 766.102 3.55648 -1.74157 0
M  V30 8171 H 767.276 2.01026 -4.14639 0
M  V30 8172 H 765.591 1.9576 -3.67515 0
M  V30 8173 H 768.188 4.58241 -2.75534 0
M  V30 8174 H 768.531 4.00275 -1.14392 0
M  V30 8175 H 769.064 3.05184 -2.55162 0
M  V30 8176 H 765.803 3.55621 -5.50649 0
M  V30 8177 H 765.323 4.43594 -4.03713 0
M  V30 8178 H 767.002 4.52454 -4.62487 0
M  V30 8179 N 767.134 1.16236 1.06428 0
M  V30 8180 C 768.081 0.86769 2.13869 0
M  V30 8181 C 769.051 -0.183298 1.65086 0
M  V30 8182 O 770.236 -0.0488002 1.90738 0
M  V30 8183 C 767.376 0.373427 3.43074 0
M  V30 8184 C 766.489 1.48708 4.05598 0
M  V30 8185 C 765.624 0.947977 5.22673 0
M  V30 8186 C 764.663 2.03793 5.77178 0
M  V30 8187 N 763.8 1.51451 6.85571 0
M  V30 8188 H 768.64 1.78781 2.38414 0
M  V30 8189 H 766.177 0.891892 1.16977 0
M  V30 8190 H 768.135 0.0685035 4.17144 0
M  V30 8191 H 766.765 -0.509752 3.1875 0
M  V30 8192 H 765.817 1.908 3.29089 0
M  V30 8193 H 767.129 2.30964 4.42105 0
M  V30 8194 H 766.283 0.596154 6.03764 0
M  V30 8195 H 765.022 0.0947081 4.87608 0
M  V30 8196 H 764.027 2.39847 4.94726 0
M  V30 8197 H 765.252 2.89514 6.14295 0
M  V30 8198 H 763.198 0.683755 6.52427 0
M  V30 8199 H 763.115 2.27325 7.21013 0
M  V30 8200 H 764.383 1.19123 7.70344 0
M  V30 8201 N 768.612 -1.24939 0.960631 0
M  V30 8202 C 770.023 -1.74701 0.658529 0
M  V30 8203 C 770.374 -1.77967 -0.825959 0
M  V30 8204 O 769.499 -1.40444 -1.64634 0
M  V30 8205 C 770.094 -3.17263 1.18867 0
M  V30 8206 C 768.653 -3.64561 0.936614 0
M  V30 8207 C 767.8 -2.43423 1.32817 0
M  V30 8208 H 770.751 -1.10741 1.13676 0
M  V30 8209 H 770.772 -3.76481 0.551589 0
M  V30 8210 H 770.284 -3.14854 2.26912 0
M  V30 8211 H 768.385 -3.72378 -0.128608 0
M  V30 8212 H 768.498 -4.52392 1.57729 0
M  V30 8213 H 766.862 -2.43513 0.746548 0
M  V30 8214 H 767.645 -2.437 2.41796 0
M  V30 8215 N 770.09 -0.729906 -1.39679 0
M  V30 8216 C 771.336 -0.27603 -2.00913 0
M  V30 8217 C 771.669 1.13227 -1.57776 0
M  V30 8218 O 770.944 1.7709 -0.804319 0
M  V30 8219 C 771.227 -0.372157 -3.58172 0
M  V30 8220 C 771.08 -1.81986 -4.11341 0
M  V30 8221 C 772.399 0.248378 -4.39399 0
M  V30 8222 H 769.518 -0.101773 -0.729939 0
M  V30 8223 H 772.16 -0.925104 -1.65957 0
M  V30 8224 H 770.31 0.180459 -3.88081 0
M  V30 8225 H 771.982 -2.42896 -3.92172 0
M  V30 8226 H 770.225 -2.34287 -3.65092 0
M  V30 8227 H 770.896 -1.83842 -5.20486 0
M  V30 8228 H 773.372 -0.222645 -4.15504 0
M  V30 8229 H 772.248 0.150746 -5.48693 0
M  V30 8230 H 772.509 1.33378 -4.21501 0
M  V30 8231 N 771.568 1.50203 -0.477153 0
M  V30 8232 C 772.515 2.28656 0.31386 0
M  V30 8233 C 773.485 1.33977 0.981802 0
M  V30 8234 O 774.67 1.62919 0.993072 0
M  V30 8235 C 771.81 3.16027 1.38639 0
M  V30 8236 C 770.923 4.25743 0.732615 0
M  V30 8237 C 770.058 5.00363 1.78355 0
M  V30 8238 C 769.097 6.01945 1.11035 0
M  V30 8239 N 768.234 6.6982 2.10441 0
M  V30 8240 H 773.074 2.958 -0.361445 0
M  V30 8241 H 770.611 1.45867 -0.190093 0
M  V30 8242 H 772.569 3.6504 2.01994 0
M  V30 8243 H 771.199 2.50917 2.03077 0
M  V30 8244 H 770.251 3.80398 -0.0136546 0
M  V30 8245 H 771.563 4.98393 0.201513 0
M  V30 8246 H 770.717 5.53124 2.49276 0
M  V30 8247 H 769.456 4.27432 2.34847 0
M  V30 8248 H 768.461 5.48438 0.386797 0
M  V30 8249 H 769.686 6.76851 0.552248 0
M  V30 8250 H 767.632 5.99677 2.65939 0
M  V30 8251 H 767.549 7.38366 1.62332 0
M  V30 8252 H 768.817 7.27196 2.80724 0
M  V30 8253 N 773.046 0.209999 1.56195 0
M  V30 8254 C 774.457 -0.299943 1.84275 0
M  V30 8255 C 774.808 -1.60314 1.1311 0
M  V30 8256 O 773.933 -2.1273 0.396874 0
M  V30 8257 C 774.528 -0.550986 3.3429 0
M  V30 8258 C 773.087 -1.00526 3.62728 0
M  V30 8259 C 772.234 -0.0619828 2.77231 0
M  V30 8260 H 775.185 0.433458 1.52666 0
M  V30 8261 H 775.206 -1.39846 3.53869 0
M  V30 8262 H 774.718 0.397669 3.86057 0
M  V30 8263 H 772.819 -1.96768 3.16407 0
M  V30 8264 H 772.932 -0.887664 4.70805 0
M  V30 8265 H 771.296 -0.566648 2.48317 0
M  V30 8266 H 772.079 0.881383 3.31793 0
M  V30 8267 O 774.563 -1.61333 0.0733639 0
M  V30 8268 H 775.254 -1.86233 -0.532616 0
M  V30 END ATOM
M  V30 BEGIN BOND
M  V30 END BOND
M  V30 END CTAB
M  END
$$$$
