drugbank_target|P33644 Laccase domain protein YfiH (DB04272)
 OpenBabel12092120243D

  0  0  0     0  0            999 V3000
M  V30 BEGIN CTAB
M  V30 COUNTS 3661 3706 0 0 0
M  V30 BEGIN ATOM
M  V30 1 H -0.908 1.98254 -0.117106 0
M  V30 2 N 0 1.576 0 0
M  V30 3 C 0.933 2.03868 1.02534 0
M  V30 4 C 1.911 0.928543 1.3348 0
M  V30 5 O 3.095 1.19667 1.45644 0
M  V30 6 C 0.222 2.43627 2.35294 0
M  V30 7 C -0.732 3.65373 2.2001 0
M  V30 8 S 0.101 5.13292 1.52614 0
M  V30 9 C 1.257 5.56322 2.86805 0
M  V30 10 H 1.49 2.90518 0.631377 0
M  V30 11 H -0.977 1.52953 0.210867 0
M  V30 12 H 0.981 2.67203 3.11629 0
M  V30 13 H -0.358 1.57376 2.7183 0
M  V30 14 H -1.165 3.90944 3.18086 0
M  V30 15 H -1.563 3.418 1.51819 0
M  V30 16 H 0.729 5.58782 3.83104 0
M  V30 17 H 1.672 6.56266 2.65933 0
M  V30 18 H 2.08 4.83886 2.90714 0
M  V30 19 N 1.4781 -0.272755 1.55222 0
M  V30 20 C 2.7031 -1.02683 1.80197 0
M  V30 21 C 3.1281 -1.79142 0.573551 0
M  V30 22 O 2.4861 -1.74917 -0.476849 0
M  V30 23 C 2.5341 -1.9609 3.02624 0
M  V30 24 O 1.6381 -3.04863 2.77727 0
M  V30 25 H 0.9791 -0.293557 0.595584 0
M  V30 26 H 3.5091 -0.30159 2.02365 0
M  V30 27 H 3.5191 -2.38039 3.31363 0
M  V30 28 H 2.1941 -1.39851 3.91682 0
M  V30 29 H 0.7711 -2.67228 2.60084 0
M  V30 30 N 2.9562 -1.48159 -0.537278 0
M  V30 31 C 3.9032 -1.62138 -1.64256 0
M  V30 32 C 4.8732 -0.463668 -1.59497 0
M  V30 33 O 6.0582 -0.686241 -1.78032 0
M  V30 34 C 3.1982 -1.66028 -3.02537 0
M  V30 35 C 2.3112 -2.92855 -3.17585 0
M  V30 36 C 1.4462 -2.87952 -4.46382 0
M  V30 37 C 0.4852 -4.09516 -4.54932 0
M  V30 38 N -0.3778 -4.02733 -5.75109 0
M  V30 39 H 4.4622 -2.56529 -1.51647 0
M  V30 40 H 1.9992 -1.27224 -0.738414 0
M  V30 41 H 3.9572 -1.66265 -3.82638 0
M  V30 42 H 2.5872 -0.751331 -3.13934 0
M  V30 43 H 1.6392 -3.02395 -2.30784 0
M  V30 44 H 2.9512 -3.82822 -3.19764 0
M  V30 45 H 2.1052 -2.8655 -5.34765 0
M  V30 46 H 0.8442 -1.95702 -4.46712 0
M  V30 47 H -0.1508 -4.11201 -3.64957 0
M  V30 48 H 1.0742 -5.02917 -4.56346 0
M  V30 49 H -0.9798 -3.13299 -5.76351 0
M  V30 50 H -1.0628 -4.86397 -5.78752 0
M  V30 51 H 0.2052 -4.05379 -6.65799 0
M  V30 52 N 4.4343 0.785586 -1.36625 0
M  V30 53 C 5.3643 1.91259 -1.33949 0
M  V30 54 C 6.3453 1.68795 -0.210325 0
M  V30 55 O 7.5303 1.89854 -0.408561 0
M  V30 56 C 4.6603 3.28339 -1.13186 0
M  V30 57 C 3.6143 3.65335 -2.22967 0
M  V30 58 C 2.9403 5.00806 -1.87342 0
M  V30 59 C 4.2403 3.7352 -3.65075 0
M  V30 60 H 5.9343 1.93755 -2.28253 0
M  V30 61 H 3.4803 0.930788 -1.09874 0
M  V30 62 H 5.4333 4.06804 -1.09948 0
M  V30 63 H 4.1573 3.2624 -0.153332 0
M  V30 64 H 2.8163 2.89169 -2.25337 0
M  V30 65 H 2.4643 4.95233 -0.880545 0
M  V30 66 H 2.1643 5.26529 -2.60846 0
M  V30 67 H 3.6883 5.81687 -1.85667 0
M  V30 68 H 5.1023 4.42168 -3.64911 0
M  V30 69 H 3.4993 4.10731 -4.37516 0
M  V30 70 H 4.5693 2.74527 -3.99703 0
M  V30 71 N 5.9124 1.20967 1.01018 0
M  V30 72 C 7.1614 1.01796 1.74128 0
M  V30 73 C 7.4744 -0.449691 1.90361 0
M  V30 74 O 8.6804 -0.76068 2.60626 0
M  V30 75 C 7.1364 1.7727 3.13215 0
M  V30 76 C 6.7444 3.28171 3.04972 0
M  V30 77 C 8.4884 1.66489 3.90489 0
M  V30 78 C 6.3954 3.96156 4.39107 0
M  V30 79 H 5.3254 0.377276 0.652824 0
M  V30 80 H 7.9764 1.44651 1.12909 0
M  V30 81 H 6.3584 1.27205 3.75013 0
M  V30 82 H 7.5324 3.85499 2.52443 0
M  V30 83 H 5.8474 3.39437 2.41188 0
M  V30 84 H 8.4444 2.14617 4.89738 0
M  V30 85 H 8.7874 0.6222 4.11624 0
M  V30 86 H 9.3204 2.14003 3.35332 0
M  V30 87 H 6.0594 5.00604 4.23174 0
M  V30 88 H 5.5794 3.43617 4.91617 0
M  V30 89 H 7.2584 4.00774 5.07926 0
M  V30 90 N 7.3905 -1.2043 1.01659 0
M  V30 91 C 8.6365 -1.90079 0.706963 0
M  V30 92 C 8.9695 -1.78648 -0.761474 0
M  V30 93 O 8.2445 -1.17069 -1.55323 0
M  V30 94 C 8.5275 -3.41469 1.14327 0
M  V30 95 C 8.3805 -3.61833 2.67201 0
M  V30 96 C 9.6995 -4.34261 0.714529 0
M  V30 97 H 6.8185 -0.690254 0.2583 0
M  V30 98 H 9.4605 -1.41826 1.26433 0
M  V30 99 H 7.6105 -3.82696 0.669056 0
M  V30 100 H 9.2825 -3.2986 3.22475 0
M  V30 101 H 7.5255 -3.05304 3.08175 0
M  V30 102 H 8.1965 -4.67955 2.92783 0
M  V30 103 H 10.6725 -4.00682 1.12221 0
M  V30 104 H 9.5485 -5.38806 1.04784 0
M  V30 105 H 9.8095 -4.40431 -0.383799 0
M  V30 106 N 8.8686 -0.792821 -1.36206 0
M  V30 107 C 10.2796 -0.429513 -1.81692 0
M  V30 108 C 10.6306 1.04695 -1.65932 0
M  V30 109 O 9.7556 1.81256 -1.18218 0
M  V30 110 C 10.3506 -0.772831 -3.29868 0
M  V30 111 C 8.9096 -0.462307 -3.7355 0
M  V30 112 C 8.0566 -1.00569 -2.5842 0
M  V30 113 H 11.0076 -0.985672 -1.24379 0
M  V30 114 H 11.0286 -0.0651928 -3.80444 0
M  V30 115 H 10.5406 -1.84747 -3.41307 0
M  V30 116 H 8.6416 0.604158 -3.67669 0
M  V30 117 H 8.7546 -0.985299 -4.68859 0
M  V30 118 H 7.1186 -0.428734 -2.51066 0
M  V30 119 H 7.9016 -2.08616 -2.72643 0
M  V30 120 N 10.3467 1.47872 -0.545128 0
M  V30 121 C 11.2787 2.27869 0.246621 0
M  V30 122 C 12.2917 1.36282 0.890561 0
M  V30 123 O 13.4807 1.61207 0.766449 0
M  V30 124 C 10.5807 3.10159 1.36582 0
M  V30 125 C 9.7537 4.29627 0.820954 0
M  V30 126 C 8.8127 4.93607 1.82314 0
M  V30 127 O 7.8387 5.52366 1.37406 0
M  V30 128 N 9.0407 4.87211 3.15603 0
M  V30 129 H 11.8057 2.96459 -0.439539 0
M  V30 130 H 9.3667 1.57367 -0.380421 0
M  V30 131 H 11.3587 3.49829 2.03474 0
M  V30 132 H 9.9287 2.43891 1.9554 0
M  V30 133 H 9.1487 3.94192 -0.0244032 0
M  V30 134 H 10.4367 5.06928 0.436063 0
M  V30 135 H 9.8347 4.40651 3.54744 0
M  V30 136 H 8.3917 5.30937 3.78087 0
M  V30 137 N 11.8248 0.280983 1.55075 0
M  V30 138 C 13.0708 -0.327573 2.00745 0
M  V30 139 C 13.4258 -1.53045 1.16598 0
M  V30 140 O 12.7188 -1.90221 0.229451 0
M  V30 141 C 12.9128 -0.754656 3.49342 0
M  V30 142 C 12.7418 0.40529 4.4787 0
M  V30 143 C 11.5118 0.890947 4.97383 0
M  V30 144 C 13.7098 1.24371 4.99035 0
M  V30 145 N 11.6918 2.01975 5.79724 0
M  V30 146 C 13.0628 2.22031 5.7888 0
M  V30 147 C 15.1178 1.27638 4.81262 0
M  V30 148 C 13.8208 3.22709 6.42846 0
M  V30 149 C 15.8468 2.27164 5.46031 0
M  V30 150 C 15.2088 3.23556 6.25692 0
M  V30 151 H 11.3078 -0.0848774 0.77738 0
M  V30 152 H 13.8918 0.406342 1.90413 0
M  V30 153 H 12.0628 -1.45778 3.60005 0
M  V30 154 H 13.7948 -1.34105 3.81835 0
M  V30 155 H 10.5498 0.469262 4.71269 0
M  V30 156 H 10.9738 2.58794 6.25584 0
M  V30 157 H 15.6158 0.544936 4.19274 0
M  V30 158 H 13.3338 3.96784 7.0398 0
M  V30 159 H 16.9198 2.30441 5.34217 0
M  V30 160 H 15.7998 3.99309 6.74924 0
M  V30 161 N 13.3029 -1.57598 0.00835791 0
M  V30 162 C 14.7139 -1.7892 -0.53333 0
M  V30 163 C 15.0649 -0.916609 -1.73473 0
M  V30 164 O 14.1899 -0.121336 -2.1606 0
M  V30 165 C 14.7849 -3.24488 -0.974313 0
M  V30 166 C 13.3439 -3.46878 -1.46125 0
M  V30 167 C 12.4909 -2.74157 -0.416302 0
M  V30 168 H 15.4419 -1.56958 0.234495 0
M  V30 169 H 15.4629 -3.3306 -1.83988 0
M  V30 170 H 14.9749 -3.87972 -0.099718 0
M  V30 171 H 13.0759 -2.8862 -2.35646 0
M  V30 172 H 13.1889 -4.55572 -1.48295 0
M  V30 173 H 11.5529 -2.39022 -0.87981 0
M  V30 174 H 12.3359 -3.40345 0.44947 0
M  V30 175 N 14.781 0.264519 -1.55364 0
M  V30 176 C 15.713 1.34965 -1.85248 0
M  V30 177 C 16.726 1.45136 -0.737525 0
M  V30 178 O 17.915 1.46801 -1.01547 0
M  V30 179 C 15.015 2.73008 -2.00797 0
M  V30 180 C 14.188 2.85324 -3.31525 0
M  V30 181 C 13.247 4.04097 -3.37034 0
M  V30 182 O 12.273 3.94455 -4.10358 0
M  V30 183 N 13.475 5.16458 -2.65049 0
M  V30 184 H 16.24 1.09672 -2.78913 0
M  V30 185 H 13.801 0.454635 -1.55386 0
M  V30 186 H 15.793 3.50772 -2.01844 0
M  V30 187 H 14.363 2.91087 -1.1396 0
M  V30 188 H 13.583 1.94377 -3.42945 0
M  V30 189 H 14.871 2.9049 -4.17724 0
M  V30 190 H 14.269 5.27181 -2.05175 0
M  V30 191 H 12.826 5.92422 -2.71809 0
M  V30 192 N 16.2591 1.48442 0.529413 0
M  V30 193 C 17.6701 1.5002 1.11134 0
M  V30 194 C 18.0211 0.27031 1.94329 0
M  V30 195 O 17.1461 -0.622507 2.07253 0
M  V30 196 C 17.7411 2.71834 2.02217 0
M  V30 197 C 16.3001 2.76283 2.55627 0
M  V30 198 C 15.4471 2.43542 1.326 0
M  V30 199 H 18.3981 1.5555 0.314641 0
M  V30 200 H 18.4191 2.50384 2.8651 0
M  V30 201 H 17.9311 3.61331 1.41639 0
M  V30 202 H 16.0321 1.90995 3.19924 0
M  V30 203 H 16.1451 3.77725 2.94721 0
M  V30 204 H 14.5091 1.94709 1.64196 0
M  V30 205 H 15.2921 3.3528 0.737734 0
M  V30 206 N 17.7372 -0.778329 1.37039 0
M  V30 207 C 18.6842 -1.89139 1.32269 0
M  V30 208 C 19.6542 -1.65017 0.189387 0
M  V30 209 O 20.8392 -1.87024 0.377693 0
M  V30 210 C 17.9792 -3.26112 1.12894 0
M  V30 211 C 17.0922 -3.62233 2.35396 0
M  V30 212 C 16.2272 -4.8838 2.08946 0
M  V30 213 C 15.2662 -5.17212 3.2735 0
M  V30 214 N 14.4032 -6.34546 3.00492 0
M  V30 215 H 19.2432 -1.92552 2.27437 0
M  V30 216 H 16.7802 -0.941473 1.13025 0
M  V30 217 H 18.7382 -4.05116 0.996835 0
M  V30 218 H 17.3682 -3.22091 0.213758 0
M  V30 219 H 16.4202 -2.78265 2.5937 0
M  V30 220 H 17.7322 -3.79481 3.23721 0
M  V30 221 H 16.8862 -5.75274 1.92729 0
M  V30 222 H 15.6252 -4.73222 1.17949 0
M  V30 223 H 14.6302 -4.28796 3.44113 0
M  V30 224 H 15.8552 -5.34283 4.19188 0
M  V30 225 H 13.8012 -6.20759 2.12118 0
M  V30 226 H 13.7182 -6.52179 3.82358 0
M  V30 227 H 14.9862 -7.24394 2.87879 0
M  V30 228 N 19.2153 -1.21501 -1.00376 0
M  V30 229 C 20.4633 -1.03095 -1.73827 0
M  V30 230 C 20.7843 0.436341 -1.90055 0
M  V30 231 O 20.0543 1.31466 -1.45236 0
M  V30 232 H 18.6343 -0.378487 -0.644016 0
M  V30 233 H 21.2963 -1.52831 -1.20949 0
M  V30 234 H 20.3923 -1.49991 -2.73695 0
M  V30 235 N 20.6934 1.19889 -1.02296 0
M  V30 236 C 21.9394 1.89701 -0.717033 0
M  V30 237 C 22.2724 1.7905 0.751989 0
M  V30 238 O 21.5474 1.17891 1.547 0
M  V30 239 C 21.8304 3.40858 -1.16136 0
M  V30 240 C 21.6834 3.60411 -2.69117 0
M  V30 241 C 23.0024 4.33876 -0.737549 0
M  V30 242 H 20.1214 0.688874 -0.261957 0
M  V30 243 H 22.7634 1.41154 -1.27183 0
M  V30 244 H 20.9134 3.82335 -0.689342 0
M  V30 245 H 22.5854 3.28145 -3.2422 0
M  V30 246 H 20.8284 3.03665 -3.0979 0
M  V30 247 H 21.4994 4.66396 -2.95261 0
M  V30 248 H 23.9754 4.00081 -1.14344 0
M  V30 249 H 22.8514 5.38242 -1.0764 0
M  V30 250 H 23.1124 4.40628 0.360436 0
M  V30 251 N 22.1715 0.800033 1.35784 0
M  V30 252 C 23.1345 0.211565 2.28221 0
M  V30 253 C 24.1345 -0.59728 1.49296 0
M  V30 254 O 25.3245 -0.416721 1.69142 0
M  V30 255 C 22.4565 -0.705846 3.33513 0
M  V30 256 H 23.6495 1.02677 2.81776 0
M  V30 257 H 21.2025 0.570211 1.45528 0
M  V30 258 H 21.9375 -1.54498 2.85133 0
M  V30 259 H 21.7225 -0.127655 3.91892 0
M  V30 260 H 23.2125 -1.11211 4.02519 0
M  V30 261 N 23.6496 -1.47581 0.552962 0
M  V30 262 C 24.6126 -2.28439 -0.186605 0
M  V30 263 C 25.6126 -1.36706 -0.84665 0
M  V30 264 O 26.8026 -1.59378 -0.703164 0
M  V30 265 C 23.9346 -3.16264 -1.2724 0
M  V30 266 H 25.1276 -2.95294 0.523609 0
M  V30 267 H 22.6806 -1.532 0.309745 0
M  V30 268 H 23.4156 -2.54091 -2.01514 0
M  V30 269 H 23.2006 -3.83769 -0.803968 0
M  V30 270 H 24.6906 -3.77198 -1.79196 0
M  V30 271 N 25.1277 -0.289203 -1.54924 0
M  V30 272 C 26.3677 0.324536 -2.01807 0
M  V30 273 C 26.7317 1.5199 -1.17316 0
M  V30 274 O 27.9327 2.20422 -1.53843 0
M  V30 275 C 26.2037 0.683578 -3.50802 0
M  V30 276 S 27.7627 1.28185 -4.19659 0
M  V30 277 H 24.5807 0.100236 -0.703899 0
M  V30 278 H 27.1827 -0.414325 -1.91059 0
M  V30 279 H 25.8867 -0.195073 -4.09936 0
M  V30 280 H 25.4177 1.45354 -3.65562 0
M  V30 281 H 27.4327 2.57006 -4.24456 0
M  V30 282 N 26.6058 1.57591 -0.0167156 0
M  V30 283 C 27.8308 1.9598 0.67872 0
M  V30 284 C 28.2558 0.892546 1.65575 0
M  V30 285 O 27.6138 -0.147772 1.80697 0
M  V30 286 C 27.6618 3.33468 1.37227 0
M  V30 287 O 26.7658 3.28954 2.48722 0
M  V30 288 H 26.1068 0.639339 0.17928 0
M  V30 289 H 28.6368 2.04463 -0.0748802 0
M  V30 290 H 28.6468 3.69417 1.7319 0
M  V30 291 H 27.3218 4.10694 0.656007 0
M  V30 292 H 25.8988 3.04705 2.14963 0
M  V30 293 N 28.0839 -0.256276 1.55502 0
M  V30 294 C 29.3089 -1.00766 1.81276 0
M  V30 295 C 29.7339 -1.78524 0.59252 0
M  V30 296 O 29.0919 -1.75413 -0.45827 0
M  V30 297 C 29.1399 -1.92869 3.04687 0
M  V30 298 O 28.2439 -3.019 2.80945 0
M  V30 299 H 27.5849 -0.287224 0.598664 0
M  V30 300 H 30.1149 -0.280109 2.02674 0
M  V30 301 H 30.1249 -2.34511 3.33869 0
M  V30 302 H 28.7999 -1.35689 3.93143 0
M  V30 303 H 27.3769 -2.64454 2.62904 0
M  V30 304 N 29.562 -1.4872 -0.521534 0
M  V30 305 C 30.79 -1.60843 -1.30142 0
M  V30 306 C 31.205 -0.271897 -1.86832 0
M  V30 307 O 30.562 0.739969 -1.66825 0
M  V30 308 C 30.613 -2.66155 -2.4463 0
M  V30 309 O 30.334 -3.94623 -1.90275 0
M  V30 310 C 31.835 -2.88795 -3.36322 0
M  V30 311 H 29.055 -0.542075 -0.395468 0
M  V30 312 H 31.599 -1.94609 -0.628285 0
M  V30 313 H 29.754 -2.35224 -3.07812 0
M  V30 314 H 30.168 -4.52468 -2.65279 0
M  V30 315 H 31.642 -3.66264 -4.12983 0
M  V30 316 H 32.119 -1.97934 -3.9207 0
M  V30 317 H 32.725 -3.21063 -2.78924 0
M  V30 318 N 31.0401 0.771051 -1.3745 0
M  V30 319 C 32.4561 1.07171 -1.18265 0
M  V30 320 C 32.6561 2.01491 -0.019287 0
M  V30 321 O 31.7121 2.44244 0.640408 0
M  V30 322 C 33.0251 1.66854 -2.50161 0
M  V30 323 C 34.5731 1.79109 -2.56689 0
M  V30 324 C 35.0481 2.42205 -3.88717 0
M  V30 325 N 36.5391 2.49655 -3.90162 0
M  V30 326 C 37.2741 2.9933 -4.8907 0
M  V30 327 N 36.7701 3.49172 -5.98374 0
M  V30 328 N 38.5631 2.9821 -4.76474 0
M  V30 329 H 30.7141 0.144796 -2.11906 0
M  V30 330 H 32.9771 0.126863 -0.939473 0
M  V30 331 H 32.6831 1.05017 -3.35655 0
M  V30 332 H 32.5571 2.6614 -2.673 0
M  V30 333 H 34.9441 2.40077 -1.71601 0
M  V30 334 H 35.0251 0.785757 -2.43433 0
M  V30 335 H 34.6691 1.81875 -4.74219 0
M  V30 336 H 34.5991 3.43345 -3.99276 0
M  V30 337 H 37.0901 2.14383 -3.11205 0
M  V30 338 H 37.4031 3.8548 -6.69795 0
M  V30 339 H 35.7481 3.47275 -6.02018 0
M  V30 340 H 38.9391 2.58572 -3.90203 0
M  V30 341 H 39.1121 3.36613 -5.53711 0
M  V30 342 N 32.5182 1.22032 0.997298 0
M  V30 343 C 33.7672 1.03637 1.73038 0
M  V30 344 C 34.0802 -0.429475 1.90827 0
M  V30 345 O 35.2862 -0.732995 2.61418 0
M  V30 346 C 33.7422 1.80582 3.11317 0
M  V30 347 C 33.3502 3.31387 3.01474 0
M  V30 348 C 35.0942 1.70621 3.88701 0
M  V30 349 C 33.0012 4.00791 4.3488 0
M  V30 350 H 31.9312 0.384179 0.648785 0
M  V30 351 H 34.5822 1.4584 1.11368 0
M  V30 352 H 32.9642 1.31175 3.73643 0
M  V30 353 H 34.1382 3.88155 2.4834 0
M  V30 354 H 32.4532 3.41976 2.37575 0
M  V30 355 H 35.0502 2.19799 4.87434 0
M  V30 356 H 35.3932 0.665823 4.10941 0
M  V30 357 H 35.9262 2.17547 3.33044 0
M  V30 358 H 32.6652 5.05064 4.1784 0
M  V30 359 H 32.1852 3.48811 4.87945 0
M  V30 360 H 33.8642 4.06139 5.03647 0
M  V30 361 N 33.9963 -1.19345 1.0293 0
M  V30 362 C 35.2443 -1.88665 0.724574 0
M  V30 363 C 35.5653 -1.80036 -0.749144 0
M  V30 364 O 34.8353 -1.2111 -1.53978 0
M  V30 365 H 33.4153 -0.698406 0.265025 0
M  V30 366 H 36.0773 -1.44885 1.30362 0
M  V30 367 H 35.1733 -2.94987 1.01926 0
M  V30 368 N 35.4744 -0.807222 -1.35358 0
M  V30 369 C 36.7224 -0.387122 -1.98358 0
M  V30 370 C 37.0434 1.04942 -1.64354 0
M  V30 371 O 36.3134 1.72615 -0.926339 0
M  V30 372 H 34.8934 -0.140154 -0.733734 0
M  V30 373 H 37.5554 -1.0332 -1.6526 0
M  V30 374 H 36.6514 -0.493352 -3.08176 0
M  V30 375 N 36.9525 1.47285 -0.560781 0
M  V30 376 C 38.1985 2.02764 -0.0381184 0
M  V30 377 C 38.5315 1.43384 1.30976 0
M  V30 378 O 37.8065 0.590733 1.85312 0
M  V30 379 C 38.0895 3.60064 0.0511427 0
M  V30 380 C 37.9425 4.2987 -1.32408 0
M  V30 381 C 39.2615 4.33439 0.762795 0
M  V30 382 H 36.3805 0.736841 -0.0153264 0
M  V30 383 H 39.0225 1.75675 -0.723759 0
M  V30 384 H 37.1725 3.83274 0.635065 0
M  V30 385 H 38.8445 4.17989 -1.95148 0
M  V30 386 H 37.0875 3.90085 -1.8978 0
M  V30 387 H 37.7585 5.38478 -1.21431 0
M  V30 388 H 40.2345 4.15243 0.266965 0
M  V30 389 H 39.1105 5.43124 0.794221 0
M  V30 390 H 39.3715 4.02915 1.81966 0
M  V30 391 N 38.4306 0.297415 1.54768 0
M  V30 392 C 39.6556 -0.318435 2.04941 0
M  V30 393 C 40.0806 -1.4701 1.17345 0
M  V30 394 O 39.4386 -1.80436 0.176758 0
M  V30 395 C 39.4866 -0.755749 3.52592 0
M  V30 396 O 38.5906 -1.86088 3.68028 0
M  V30 397 H 37.9316 -0.062421 0.661059 0
M  V30 398 H 40.4616 0.438215 1.99852 0
M  V30 399 H 40.4716 -1.04552 3.94376 0
M  V30 400 H 39.1466 0.0867233 4.1581 0
M  V30 401 H 37.7236 -1.57193 3.38149 0
M  V30 402 N 39.9087 -1.5758 0.0250728 0
M  V30 403 C 40.8387 -2.13007 -0.956575 0
M  V30 404 C 41.8197 -1.0452 -1.342 0
M  V30 405 O 43.0047 -1.32332 -1.42133 0
M  V30 406 C 40.1347 -2.65386 -2.24026 0
M  V30 407 C 39.0887 -3.78623 -1.99571 0
M  V30 408 C 38.4147 -4.17414 -3.3417 0
M  V30 409 C 39.7147 -5.04867 -1.33814 0
M  V30 410 H 41.4087 -2.9528 -0.494991 0
M  V30 411 H 38.9547 -1.42042 -0.236651 0
M  V30 412 H 40.9077 -3.02794 -2.93076 0
M  V30 413 H 39.6317 -1.80268 -2.72343 0
M  V30 414 H 38.2907 -3.41646 -1.32941 0
M  V30 415 H 37.9387 -3.29284 -3.80238 0
M  V30 416 H 37.6387 -4.93719 -3.18615 0
M  V30 417 H 39.1627 -4.57402 -4.04495 0
M  V30 418 H 40.5767 -5.39888 -1.92857 0
M  V30 419 H 38.9737 -5.86144 -1.28669 0
M  V30 420 H 40.0437 -4.83904 -0.310561 0
M  V30 421 N 41.3868 0.248026 -1.55636 0
M  V30 422 C 42.7978 0.817177 -1.67866 0
M  V30 423 C 43.1488 1.86069 -0.622322 0
M  V30 424 O 42.2738 2.15157 0.231618 0
M  V30 425 C 42.8688 1.489 -3.04326 0
M  V30 426 C 41.4278 2.00587 -3.185 0
M  V30 427 C 40.5748 0.856573 -2.63739 0
M  V30 428 H 43.5258 0.0238579 -1.58682 0
M  V30 429 H 43.5468 2.35698 -2.98708 0
M  V30 430 H 43.0588 0.729279 -3.81186 0
M  V30 431 H 41.1598 2.79443 -2.4646 0
M  V30 432 H 41.2728 2.20402 -4.25393 0
M  V30 433 H 39.6368 1.25678 -2.21534 0
M  V30 434 H 40.4198 0.109953 -3.43124 0
M  V30 435 N 42.8649 1.48995 0.513639 0
M  V30 436 C 44.2759 1.5119 1.09537 0
M  V30 437 C 44.6269 0.290906 1.94031 0
M  V30 438 O 43.7519 -0.60049 2.07902 0
M  V30 439 C 44.3469 2.73964 1.99322 0
M  V30 440 C 42.9059 2.78978 2.52682 0
M  V30 441 C 42.0529 2.44934 1.30009 0
M  V30 442 H 45.0039 1.55875 0.298125 0
M  V30 443 H 45.0249 2.53409 2.83838 0
M  V30 444 H 44.5369 3.62813 1.37799 0
M  V30 445 H 42.6379 1.94378 3.1788 0
M  V30 446 H 42.7509 3.8083 2.90698 0
M  V30 447 H 41.1149 1.9644 1.62122 0
M  V30 448 H 41.8979 3.36043 0.702131 0
M  V30 449 N 44.343 -0.763751 1.37857 0
M  V30 450 C 45.573 -1.55067 1.3652 0
M  V30 451 C 45.981 -1.89135 -0.0494227 0
M  V30 452 O 45.324 -1.52529 -1.02375 0
M  V30 453 C 45.386 -2.8838 2.14656 0
M  V30 454 C 45.05 -2.76905 3.63555 0
M  V30 455 C 46.047 -2.4739 4.57268 0
M  V30 456 C 43.732 -2.94676 4.06781 0
M  V30 457 C 45.726 -2.35786 5.92186 0
M  V30 458 C 43.413 -2.82692 5.41782 0
M  V30 459 C 44.411 -2.53289 6.34298 0
M  V30 460 O 44.099 -2.41345 7.66817 0
M  V30 461 H 43.831 -0.486776 0.469069 0
M  V30 462 H 46.385 -0.953812 1.81911 0
M  V30 463 H 44.615 -3.50217 1.63967 0
M  V30 464 H 46.304 -3.49828 2.05852 0
M  V30 465 H 47.07 -2.33339 4.2518 0
M  V30 466 H 42.949 -3.16563 3.35126 0
M  V30 467 H 46.493 -2.12757 6.64365 0
M  V30 468 H 42.39 -2.96314 5.7347 0
M  V30 469 H 43.158 -2.56634 7.77226 0
M  V30 470 N 45.8211 -1.22559 -0.990812 0
M  V30 471 C 47.0981 -0.959875 -1.70428 0
M  V30 472 C 47.4781 0.524455 -2.04481 0
M  V30 473 O 46.8261 1.49302 -1.72977 0
M  V30 474 C 47.0361 -1.85955 -2.95333 0
M  V30 475 C 48.3841 -2.11687 -3.68068 0
M  V30 476 O 49.4081 -1.8342 -3.05345 0
M  V30 477 O 48.2671 -2.59572 -4.80921 0
M  V30 478 H 45.3611 -0.361154 -0.743974 0
M  V30 479 H 47.9071 -1.33554 -1.04697 0
M  V30 480 H 46.6791 -2.86346 -2.66687 0
M  V30 481 H 46.3021 -1.4856 -3.68803 0
M  V30 482 N 47.2992 1.18797 -1.03562 0
M  V30 483 C 48.5242 1.9314 -0.755764 0
M  V30 484 C 48.9492 1.7537 0.68022 0
M  V30 485 O 48.3072 1.06046 1.47051 0
M  V30 486 C 48.3552 3.42747 -1.12058 0
M  V30 487 O 47.4592 4.11683 -0.243124 0
M  V30 488 H 46.8002 0.602724 -0.278604 0
M  V30 489 H 49.3302 1.50678 -1.3841 0
M  V30 490 H 49.3402 3.93437 -1.08035 0
M  V30 491 H 48.0152 3.55002 -2.16672 0
M  V30 492 H 46.5922 3.71323 -0.342539 0
M  V30 493 N 48.7773 0.814389 1.34928 0
M  V30 494 C 49.7073 0.244827 2.32213 0
M  V30 495 C 50.6883 -0.634024 1.57842 0
M  V30 496 O 51.8733 -0.562676 1.8587 0
M  V30 497 C 49.0033 -0.601106 3.42058 0
M  V30 498 C 47.9573 0.179896 4.27622 0
M  V30 499 C 47.2833 -0.788237 5.28858 0
M  V30 500 C 48.5833 1.38329 5.03649 0
M  V30 501 H 50.2773 1.05763 2.80097 0
M  V30 502 H 47.8233 0.510029 1.34665 0
M  V30 503 H 49.7763 -1.00968 4.09125 0
M  V30 504 H 48.5003 -1.44688 2.92802 0
M  V30 505 H 47.1593 0.569739 3.62146 0
M  V30 506 H 46.8073 -1.62973 4.75866 0
M  V30 507 H 46.5073 -0.269942 5.8698 0
M  V30 508 H 48.0313 -1.19485 5.98795 0
M  V30 509 H 49.4453 1.04918 5.63618 0
M  V30 510 H 47.8423 1.83662 5.71304 0
M  V30 511 H 48.9123 2.16592 4.33839 0
M  V30 512 N 50.2554 -1.46986 0.568584 0
M  V30 513 C 51.2034 -2.31858 -0.185649 0
M  V30 514 C 52.1974 -1.43624 -0.898249 0
M  V30 515 O 53.4034 -1.60327 -0.818242 0
M  V30 516 H 49.7784 -0.747866 -0.0787399 0
M  V30 517 H 51.7494 -2.93303 0.549191 0
M  V30 518 C 50.4984 -3.26513 -1.19519 0
M  V30 519 H 49.8214 -3.94377 -0.656285 0
M  V30 520 H 51.2614 -3.88707 -1.6936 0
M  V30 521 C 49.7204 -2.50847 -2.24894 0
M  V30 522 O 50.2504 -2.26119 -3.32014 0
M  V30 523 N 48.4564 -2.11656 -1.99124 0
M  V30 524 H 48.0034 -2.31966 -1.12024 0
M  V30 525 H 47.9614 -1.61347 -2.69842 0
M  V30 526 N 51.7335 -0.305618 -1.54608 0
M  V30 527 C 52.6635 0.561482 -2.26649 0
M  V30 528 C 53.6445 1.13415 -1.26772 0
M  V30 529 O 54.8295 1.16262 -1.55553 0
M  V30 530 C 51.9595 1.73122 -3.01075 0
M  V30 531 C 50.9135 1.2887 -4.08138 0
M  V30 532 C 50.2395 2.54396 -4.70305 0
M  V30 533 C 51.5395 0.416578 -5.20636 0
M  V30 534 H 53.2335 -0.0393902 -2.99374 0
M  V30 535 H 50.7795 -0.020385 -1.43986 0
M  V30 536 H 52.7325 2.34396 -3.50195 0
M  V30 537 H 51.4565 2.3584 -2.25936 0
M  V30 538 H 50.1155 0.698991 -3.59875 0
M  V30 539 H 49.7635 3.15439 -3.918 0
M  V30 540 H 49.4635 2.25486 -5.42614 0
M  V30 541 H 50.9875 3.16464 -5.2219 0
M  V30 542 H 52.4015 0.935116 -5.65622 0
M  V30 543 H 50.7985 0.221046 -5.99693 0
M  V30 544 H 51.8685 -0.557162 -4.81688 0
M  V30 545 N 53.2116 1.57565 -0.0334293 0
M  V30 546 C 54.4596 1.91598 0.642999 0
M  V30 547 C 54.7806 0.910847 1.7242 0
M  V30 548 O 54.0506 -0.0469931 1.95844 0
M  V30 549 H 52.6306 0.707228 0.240496 0
M  V30 550 H 55.2926 1.94726 -0.0822488 0
M  V30 551 H 54.3886 2.92336 1.09298 0
M  V30 552 N 54.6897 -0.239769 1.55765 0
M  V30 553 C 55.6527 -1.28038 1.90103 0
M  V30 554 C 56.6527 -1.40723 0.778055 0
M  V30 555 O 57.8427 -1.39301 1.04599 0
M  V30 556 C 54.9747 -2.65702 2.13577 0
M  V30 557 H 56.1677 -0.988048 2.83157 0
M  V30 558 H 53.7207 -0.479382 1.48767 0
M  V30 559 H 54.4557 -3.00063 1.23015 0
M  V30 560 H 54.2407 -2.57875 2.95369 0
M  V30 561 H 55.7307 -3.40828 2.41301 0
M  V30 562 N 56.1678 -1.49265 -0.50573 0
M  V30 563 C 57.1178 -1.6198 -1.60457 0
M  V30 564 C 58.1018 -0.47568 -1.53708 0
M  V30 565 O 59.2938 -0.728392 -1.61318 0
M  V30 566 C 56.4228 -1.68526 -2.99089 0
M  V30 567 C 55.5088 -2.885 -3.10852 0
M  V30 568 N 55.8998 -4.12635 -2.92517 0
M  V30 569 C 54.1978 -2.86338 -3.41945 0
M  V30 570 C 54.8988 -4.93258 -3.08337 0
M  V30 571 N 53.8748 -4.26533 -3.37003 0
M  V30 572 H 57.6768 -2.55681 -1.44928 0
M  V30 573 H 55.1908 -1.45972 -0.711752 0
M  V30 574 H 57.1878 -1.75732 -3.78053 0
M  V30 575 H 55.8478 -0.759584 -3.1569 0
M  V30 576 H 56.8588 -4.42689 -2.68787 0
M  V30 577 H 53.5358 -2.03129 -3.64753 0
M  V30 578 H 54.9258 -6.01856 -2.98695 0
M  V30 579 N 57.6459 0.756429 -1.3826 0
M  V30 580 C 58.8859 1.52833 -1.35725 0
M  V30 581 C 59.2499 1.91926 0.0534106 0
M  V30 582 O 60.4509 2.68028 0.203613 0
M  V30 583 C 58.7219 2.74919 -2.28373 0
M  V30 584 S 60.2809 3.64817 -2.43832 0
M  V30 585 H 57.0989 0.523043 -0.481608 0
M  V30 586 H 59.7009 0.888212 -1.74158 0
M  V30 587 H 58.4049 2.44304 -3.29763 0
M  V30 588 H 57.9359 3.43878 -1.91079 0
M  V30 589 H 59.9509 4.676 -1.66027 0
M  V30 590 N 59.124 1.23083 0.984299 0
M  V30 591 C 60.372 1.05848 1.72165 0
M  V30 592 C 60.693 -0.406049 1.90726 0
M  V30 593 O 59.963 -1.29139 1.47309 0
M  V30 594 H 58.543 0.388685 0.637913 0
M  V30 595 H 61.205 1.54736 1.18503 0
M  V30 596 H 60.301 1.54327 2.71274 0
M  V30 597 N 60.6021 -1.18246 1.0419 0
M  V30 598 C 61.8791 -1.84121 0.660208 0
M  V30 599 C 62.2591 -1.92778 -0.860221 0
M  V30 600 O 61.6071 -1.45464 -1.76217 0
M  V30 601 C 61.8171 -3.22355 1.33747 0
M  V30 602 C 63.1651 -3.98376 1.46906 0
M  V30 603 O 64.1891 -3.31799 1.29568 0
M  V30 604 O 63.0481 -5.17665 1.75171 0
M  V30 605 H 60.1421 -0.794036 0.231161 0
M  V30 606 H 62.6881 -1.25628 1.14087 0
M  V30 607 H 61.4601 -3.10964 2.37522 0
M  V30 608 H 61.0831 -3.88506 0.845515 0
M  V30 609 N 62.0802 -0.821533 -1.34494 0
M  V30 610 C 63.0282 -0.230702 -2.31453 0
M  V30 611 C 64.0222 0.627793 -1.57338 0
M  V30 612 O 65.2282 0.519288 -1.72347 0
M  V30 613 H 61.6032 -0.0558577 -0.749923 0
M  V30 614 H 63.5742 -1.06332 -2.78812 0
M  V30 615 C 62.3232 0.59391 -3.4259 0
M  V30 616 H 61.6462 -0.0573588 -3.99759 0
M  V30 617 H 63.0862 0.973446 -4.12674 0
M  V30 618 C 61.5452 1.76568 -2.86924 0
M  V30 619 O 62.0752 2.8638 -2.81691 0
M  V30 620 N 60.2812 1.58198 -2.43766 0
M  V30 621 H 59.8282 0.68872 -2.48222 0
M  V30 622 H 59.7862 2.36752 -2.06871 0
M  V30 623 N 63.5583 1.46682 -0.576371 0
M  V30 624 C 64.9693 1.86112 -0.148091 0
M  V30 625 C 65.3203 1.48073 1.2872 0
M  V30 626 O 64.4453 0.892656 1.97131 0
M  V30 627 C 65.0403 3.37786 -0.261982 0
M  V30 628 C 63.5993 3.76235 0.111384 0
M  V30 629 C 62.7463 2.70713 -0.60083 0
M  V30 630 H 65.6973 1.37927 -0.78497 0
M  V30 631 H 65.7183 3.77007 0.514364 0
M  V30 632 H 65.2303 3.6544 -1.30671 0
M  V30 633 H 63.3313 3.54198 1.15649 0
M  V30 634 H 63.4443 4.78391 -0.26052 0
M  V30 635 H 61.8083 2.54666 -0.0417783 0
M  V30 636 H 62.5913 3.01208 -1.64708 0
M  V30 637 N 65.0364 0.313813 1.54444 0
M  V30 638 C 66.3134 -0.345447 1.92525 0
M  V30 639 C 66.6934 -1.70667 1.24242 0
M  V30 640 O 66.0414 -2.25273 0.382654 0
M  V30 641 C 66.2514 -0.44737 3.46121 0
M  V30 642 C 67.5994 -0.712238 4.18584 0
M  V30 643 O 68.6234 -0.530678 3.52225 0
M  V30 644 O 67.4824 -1.06183 5.36085 0
M  V30 645 H 64.5764 -0.195407 0.803583 0
M  V30 646 H 67.1224 0.362813 1.65776 0
M  V30 647 H 65.8944 0.509043 3.87975 0
M  V30 648 H 65.5174 -1.20359 3.78945 0
M  V30 649 N 66.5145 -1.57545 0.0417849 0
M  V30 650 C 67.4645 -2.07483 -0.945247 0
M  V30 651 C 68.4485 -0.977983 -1.27767 0
M  V30 652 O 69.6405 -1.24142 -1.26166 0
M  V30 653 C 66.7695 -2.61576 -2.22335 0
M  V30 654 C 65.8555 -3.78213 -1.91874 0
M  V30 655 N 66.2465 -4.88344 -1.31733 0
M  V30 656 C 64.5445 -3.8694 -2.21796 0
M  V30 657 C 65.2455 -5.69462 -1.1869 0
M  V30 658 N 64.2215 -5.16771 -1.68666 0
M  V30 659 H 68.0235 -2.90029 -0.475441 0
M  V30 660 H 65.5375 -1.61581 -0.162911 0
M  V30 661 H 67.5345 -2.95651 -2.93932 0
M  V30 662 H 66.1945 -1.80465 -2.69931 0
M  V30 663 H 67.2055 -5.08335 -0.990729 0
M  V30 664 H 63.8825 -3.16757 -2.71977 0
M  V30 665 H 65.2725 -6.68023 -0.720793 0
M  V30 666 N 67.9926 0.231505 -1.5589 0
M  V30 667 C 69.2386 0.95877 -1.78705 0
M  V30 668 C 69.5716 1.8438 -0.609725 0
M  V30 669 O 68.8466 1.90521 0.391426 0
M  V30 670 C 69.1296 1.8062 -3.11526 0
M  V30 671 C 68.9826 0.948328 -4.39689 0
M  V30 672 C 70.3016 2.78585 -3.40703 0
M  V30 673 H 67.4206 0.347129 -0.650131 0
M  V30 674 H 70.0626 0.228259 -1.88624 0
M  V30 675 H 68.2126 2.42902 -3.03201 0
M  V30 676 H 69.8846 0.343016 -4.60023 0
M  V30 677 H 68.1276 0.253314 -4.3306 0
M  V30 678 H 68.7986 1.57543 -5.29041 0
M  V30 679 H 71.2746 2.26439 -3.49091 0
M  V30 680 H 70.1506 3.34988 -4.34826 0
M  V30 681 H 70.4116 3.55825 -2.62375 0
M  V30 682 N 69.4707 1.49531 0.497807 0
M  V30 683 C 70.3807 1.69176 1.62532 0
M  V30 684 C 71.3967 0.5744 1.64246 0
M  V30 685 O 72.5727 0.849497 1.82608 0
M  V30 686 C 69.6377 1.75695 2.98885 0
M  V30 687 C 68.6987 2.9929 3.07773 0
M  V30 688 C 67.9317 3.05488 4.37622 0
M  V30 689 O 68.1547 2.19192 5.26603 0
M  V30 690 O 67.0887 3.9798 4.51548 0
M  V30 691 H 70.9147 2.647 1.48887 0
M  V30 692 H 68.4997 1.3331 0.674441 0
M  V30 693 H 70.3817 1.82317 3.79919 0
M  V30 694 H 69.0567 0.8335 3.12785 0
M  V30 695 H 67.9637 2.98183 2.25915 0
M  V30 696 H 69.2967 3.91125 2.98801 0
M  V30 697 N 70.9488 -0.749086 1.3866 0
M  V30 698 C 71.8588 -1.89358 1.38494 0
M  V30 699 C 72.8748 -1.71708 0.281476 0
M  V30 700 O 74.0508 -1.94554 0.520643 0
M  V30 701 C 71.1158 -3.24782 1.21316 0
M  V30 702 C 70.1768 -3.54926 2.41508 0
M  V30 703 C 69.4098 -4.83888 2.2514 0
M  V30 704 O 69.6328 -5.56592 1.24746 0
M  V30 705 O 68.5668 -5.13612 3.13826 0
M  V30 706 H 72.3928 -1.92452 2.34938 0
M  V30 707 H 69.9778 -0.894981 1.19626 0
M  V30 708 H 71.8598 -4.05739 1.13814 0
M  V30 709 H 70.5348 -3.2249 0.279592 0
M  V30 710 H 69.4418 -2.74112 2.54585 0
M  V30 711 H 70.7748 -3.61983 3.3351 0
M  V30 712 N 72.4269 -1.23603 -0.977757 0
M  V30 713 C 73.3749 -1.01704 -2.09187 0
M  V30 714 C 74.3689 0.0448214 -1.69341 0
M  V30 715 O 75.5749 -0.108902 -1.7967 0
M  V30 716 H 71.9499 -0.311803 -0.684312 0
M  V30 717 H 73.9209 -1.96207 -2.24823 0
M  V30 718 C 72.6699 -0.627746 -3.41986 0
M  V30 719 H 71.9929 -1.43656 -3.73099 0
M  V30 720 H 73.4329 -0.514053 -4.20872 0
M  V30 721 C 71.8919 0.664238 -3.30287 0
M  V30 722 O 72.4219 1.71268 -3.6336 0
M  V30 723 N 70.6279 0.641156 -2.83439 0
M  V30 724 H 70.1749 -0.212376 -2.56723 0
M  V30 725 H 70.1329 1.50583 -2.75993 0
M  V30 726 N 73.905 1.17692 -1.04816 0
M  V30 727 C 75.321 1.39863 -0.768794 0
M  V30 728 C 75.521 1.91118 0.638451 0
M  V30 729 O 74.577 2.10036 1.40146 0
M  V30 730 C 75.89 2.39274 -1.82122 0
M  V30 731 C 77.438 2.52987 -1.843 0
M  V30 732 C 77.913 3.55669 -2.88555 0
M  V30 733 N 79.404 3.63183 -2.87493 0
M  V30 734 C 80.139 4.42381 -3.64811 0
M  V30 735 N 79.635 5.25125 -4.51903 0
M  V30 736 N 81.428 4.37217 -3.53267 0
M  V30 737 H 73.579 0.82752 -1.95617 0
M  V30 738 H 75.842 0.426123 -0.846831 0
M  V30 739 H 75.548 2.08678 -2.83102 0
M  V30 740 H 75.422 3.38725 -1.65967 0
M  V30 741 H 77.809 2.82896 -0.839869 0
M  V30 742 H 77.89 1.53623 -2.04532 0
M  V30 743 H 77.534 3.26499 -3.89051 0
M  V30 744 H 77.464 4.54728 -2.65575 0
M  V30 745 H 79.955 3.04103 -2.24343 0
M  V30 746 H 80.268 5.82728 -5.07591 0
M  V30 747 H 78.613 5.24519 -4.55966 0
M  V30 748 H 81.804 3.71626 -2.84625 0
M  V30 749 H 81.977 4.98696 -4.13771 0
M  V30 750 N 75.3831 0.828654 1.34056 0
M  V30 751 C 76.3301 0.252567 2.29414 0
M  V30 752 C 77.3001 -0.62588 1.53857 0
M  V30 753 O 78.4851 -0.566312 1.82202 0
M  V30 754 C 75.6251 -0.574831 3.40279 0
M  V30 755 C 74.7381 0.326499 4.30764 0
M  V30 756 C 73.8731 -0.511016 5.28736 0
M  V30 757 C 72.9121 0.389342 6.1086 0
M  V30 758 N 72.0491 -0.409439 7.00905 0
M  V30 759 H 76.8891 1.07108 2.78086 0
M  V30 760 H 74.4261 0.539677 1.36843 0
M  V30 761 H 76.3841 -1.06992 4.03248 0
M  V30 762 H 75.0141 -1.35841 2.92826 0
M  V30 763 H 74.0661 0.939837 3.68607 0
M  V30 764 H 75.3781 1.01857 4.88289 0
M  V30 765 H 74.5321 -1.07035 5.97184 0
M  V30 766 H 73.2711 -1.23657 4.71763 0
M  V30 767 H 72.2761 0.960769 5.4134 0
M  V30 768 H 73.5011 1.1131 6.69916 0
M  V30 769 H 71.4471 -1.11856 6.46393 0
M  V30 770 H 71.3641 0.224126 7.55668 0
M  V30 771 H 72.6321 -0.951336 7.73673 0
M  V30 772 N 76.8612 -1.46375 0.584142 0
M  V30 773 C 78.2772 -1.57694 0.245929 0
M  V30 774 C 78.4772 -1.57903 -1.25175 0
M  V30 775 O 77.5332 -1.49676 -2.03355 0
M  V30 776 C 78.8462 -2.87028 0.896402 0
M  V30 777 C 80.3942 -3.00662 0.870127 0
M  V30 778 C 80.8692 -4.32734 1.50017 0
M  V30 779 N 82.3602 -4.39436 1.46458 0
M  V30 780 C 83.0952 -5.40248 1.92144 0
M  V30 781 N 82.5912 -6.47726 2.4581 0
M  V30 782 N 84.3842 -5.31459 1.83052 0
M  V30 783 H 76.5352 -1.44483 1.55687 0
M  V30 784 H 78.7982 -0.689291 0.650831 0
M  V30 785 H 78.5042 -2.9269 1.95002 0
M  V30 786 H 78.3782 -3.75014 0.405486 0
M  V30 787 H 80.7652 -2.94581 -0.174871 0
M  V30 788 H 80.8462 -2.14148 1.39908 0
M  V30 789 H 80.4902 -4.39573 2.54437 0
M  V30 790 H 80.4202 -5.18025 0.946432 0
M  V30 791 H 82.9112 -3.62367 1.07231 0
M  V30 792 H 83.2242 -7.20863 2.78525 0
M  V30 793 H 81.5692 -6.48542 2.49836 0
M  V30 794 H 84.7602 -4.46396 1.40883 0
M  V30 795 H 84.9332 -6.09881 2.18973 0
M  V30 796 N 78.3393 -0.321999 -1.54275 0
M  V30 797 C 79.2693 0.537411 -2.27231 0
M  V30 798 C 80.2503 1.12064 -1.27968 0
M  V30 799 O 81.4353 1.14606 -1.56777 0
M  V30 800 C 78.5653 1.69919 -3.02894 0
M  V30 801 C 77.5193 1.24534 -4.09482 0
M  V30 802 C 76.8453 2.49394 -4.72977 0
M  V30 803 C 78.1453 0.361335 -5.21049 0
M  V30 804 H 79.8393 -0.0711406 -2.99315 0
M  V30 805 H 77.3853 -0.0356555 -1.43956 0
M  V30 806 H 79.3383 2.30668 -3.52662 0
M  V30 807 H 78.0623 2.33431 -2.28424 0
M  V30 808 H 76.7213 0.660782 -3.60596 0
M  V30 809 H 76.3693 3.11265 -3.95124 0
M  V30 810 H 76.0693 2.19718 -5.44975 0
M  V30 811 H 77.5933 3.10908 -5.25517 0
M  V30 812 H 79.0073 0.875072 -5.66582 0
M  V30 813 H 77.4043 0.157428 -5.99893 0
M  V30 814 H 78.4743 -0.60822 -4.8107 0
M  V30 815 N 79.8174 1.5752 -0.0501392 0
M  V30 816 C 81.0644 1.9265 0.623874 0
M  V30 817 C 81.3924 0.928411 1.70912 0
M  V30 818 O 80.6474 -0.0594525 1.9561 0
M  V30 819 C 80.9464 3.34467 1.25963 0
M  V30 820 C 80.6124 4.49883 0.302689 0
M  V30 821 C 79.2744 4.81184 0.0393636 0
M  V30 822 C 81.6264 5.20002 -0.353205 0
M  V30 823 C 78.9544 5.79951 -0.887308 0
M  V30 824 C 81.3064 6.1976 -1.26806 0
M  V30 825 C 79.9704 6.49491 -1.54007 0
M  V30 826 H 79.2404 0.704957 0.228292 0
M  V30 827 H 81.8874 1.91146 -0.116398 0
M  V30 828 H 80.1924 3.32333 2.07514 0
M  V30 829 H 81.8894 3.58928 1.78806 0
M  V30 830 H 78.4794 4.25457 0.518109 0
M  V30 831 H 82.6634 4.96033 -0.162854 0
M  V30 832 H 77.9194 6.01322 -1.10553 0
M  V30 833 H 82.0934 6.73205 -1.78236 0
M  V30 834 H 79.7204 7.25837 -2.25976 0
M  V30 835 N 81.2955 -0.223234 1.56011 0
M  V30 836 C 82.2585 -1.26014 1.9145 0
M  V30 837 C 83.2585 -1.3989 0.792937 0
M  V30 838 O 84.4485 -1.38184 1.0607 0
M  V30 839 C 81.5805 -2.63422 2.16383 0
M  V30 840 H 82.7735 -0.95796 2.84189 0
M  V30 841 H 80.3265 -0.463576 1.49267 0
M  V30 842 H 81.0615 -2.98741 1.2619 0
M  V30 843 H 80.8465 -2.54728 2.98088 0
M  V30 844 H 82.3365 -3.38249 2.44903 0
M  V30 845 N 82.7736 -1.49793 -0.48987 0
M  V30 846 C 83.7366 -1.66752 -1.57246 0
M  V30 847 C 84.7366 -0.538867 -1.51502 0
M  V30 848 O 85.9266 -0.805545 -1.54456 0
M  V30 849 C 83.0586 -1.67528 -2.96896 0
M  V30 850 H 84.2516 -2.63321 -1.43534 0
M  V30 851 H 81.8046 -1.38992 -0.714914 0
M  V30 852 H 82.5396 -0.725837 -3.16073 0
M  V30 853 H 82.3246 -2.49504 -3.02473 0
M  V30 854 H 83.8146 -1.82667 -3.7553 0
M  V30 855 N 84.2517 0.741722 -1.39055 0
M  V30 856 C 85.4997 1.49818 -1.35643 0
M  V30 857 C 85.8207 1.94938 0.0491642 0
M  V30 858 O 85.0907 1.68505 0.999141 0
M  V30 859 H 83.6707 0.555755 -0.499144 0
M  V30 860 H 86.3327 0.880957 -1.73854 0
M  V30 861 H 85.4287 2.38348 -2.01486 0
M  V30 862 N 85.7298 1.2412 0.971189 0
M  V30 863 C 86.6778 1.02812 2.08644 0
M  V30 864 C 87.6718 -0.0358403 1.69362 0
M  V30 865 O 88.8778 0.118429 1.7961 0
M  V30 866 H 85.2528 0.315428 0.682649 0
M  V30 867 H 87.2238 1.97397 2.23779 0
M  V30 868 C 85.9728 0.645874 3.41649 0
M  V30 869 H 85.2958 1.45632 3.72332 0
M  V30 870 H 86.7358 0.536366 4.20594 0
M  V30 871 C 85.1948 -0.646713 3.30635 0
M  V30 872 O 85.7248 -1.69338 3.64263 0
M  V30 873 N 83.9308 -0.626115 2.83775 0
M  V30 874 H 83.4778 0.225988 2.56607 0
M  V30 875 H 83.4358 -1.49117 2.76788 0
M  V30 876 N 87.2079 -1.17134 1.05439 0
M  V30 877 C 88.1379 -2.2342 0.678649 0
M  V30 878 C 89.1189 -1.66971 -0.32476 0
M  V30 879 O 90.3039 -1.93149 -0.201802 0
M  V30 880 C 87.4339 -3.47256 0.0552099 0
M  V30 881 C 86.3879 -4.16543 0.98365 0
M  V30 882 C 85.7139 -5.34231 0.223961 0
M  V30 883 C 87.0139 -4.68495 2.3089 0
M  V30 884 H 88.7079 -2.55105 1.56722 0
M  V30 885 H 86.2539 -1.2262 0.754998 0
M  V30 886 H 88.2069 -4.20828 -0.21946 0
M  V30 887 H 86.9309 -3.14846 -0.868319 0
M  V30 888 H 85.5899 -3.44887 1.24293 0
M  V30 889 H 85.2379 -4.98071 -0.702412 0
M  V30 890 H 84.9379 -5.81527 0.842627 0
M  V30 891 H 86.4619 -6.10585 -0.0433671 0
M  V30 892 H 87.8759 -5.33691 2.09396 0
M  V30 893 H 86.2729 -5.26379 2.88176 0
M  V30 894 H 87.3429 -3.85169 2.94572 0
M  V30 895 N 88.686 -0.835752 -1.33615 0
M  V30 896 C 90.097 -0.487099 -1.80234 0
M  V30 897 C 90.448 0.993627 -1.69179 0
M  V30 898 O 89.573 1.77403 -1.23924 0
M  V30 899 C 90.168 -0.877385 -3.27242 0
M  V30 900 C 88.727 -0.580915 -3.7189 0
M  V30 901 C 87.874 -1.0874 -2.5509 0
M  V30 902 H 90.825 -1.02474 -1.2118 0
M  V30 903 H 90.846 -0.186195 -3.80044 0
M  V30 904 H 90.358 -1.95512 -3.35256 0
M  V30 905 H 88.459 0.486881 -3.69405 0
M  V30 906 H 88.572 -1.13396 -4.65487 0
M  V30 907 H 86.936 -0.508392 -2.49575 0
M  V30 908 H 87.719 -2.17184 -2.65868 0
M  V30 909 N 90.1641 1.46063 -0.591896 0
M  V30 910 C 91.3891 2.07226 -0.0850314 0
M  V30 911 C 91.8141 1.43625 1.21463 0
M  V30 912 O 91.1721 0.523305 1.73583 0
M  V30 913 C 91.2201 3.60554 0.0576567 0
M  V30 914 O 90.3241 3.97128 1.11188 0
M  V30 915 H 89.6651 0.660615 -0.0669568 0
M  V30 916 H 92.1951 1.8756 -0.81745 0
M  V30 917 H 92.2051 4.07165 0.2609 0
M  V30 918 H 90.8801 4.06235 -0.891416 0
M  V30 919 H 89.4571 3.62213 0.886356 0
M  V30 920 N 91.6422 0.330177 1.54103 0
M  V30 921 C 92.5892 -0.532762 2.24567 0
M  V30 922 C 93.5592 -1.10635 1.23892 0
M  V30 923 O 94.7442 -1.14546 1.5259 0
M  V30 924 C 91.8842 -1.6845 3.01195 0
M  V30 925 C 90.9972 -1.13951 4.167 0
M  V30 926 C 90.1322 -2.25746 4.80845 0
M  V30 927 C 89.1712 -1.6853 5.88442 0
M  V30 928 N 88.3082 -2.74014 6.46421 0
M  V30 929 H 93.1482 0.0746905 2.97906 0
M  V30 930 H 90.6852 0.048632 1.4702 0
M  V30 931 H 92.6432 -2.36234 3.43874 0
M  V30 932 H 91.2732 -2.26314 2.30178 0
M  V30 933 H 90.3252 -0.35301 3.78758 0
M  V30 934 H 91.6372 -0.680892 4.94131 0
M  V30 935 H 90.7912 -3.01422 5.26526 0
M  V30 936 H 89.5302 -2.74947 4.0281 0
M  V30 937 H 88.5352 -0.913543 5.42157 0
M  V30 938 H 89.7602 -1.20198 6.68378 0
M  V30 939 H 87.7062 -3.22494 5.71256 0
M  V30 940 H 87.6232 -2.32735 7.19285 0
M  V30 941 H 88.8912 -3.49499 6.96757 0
M  V30 942 N 93.1203 -1.57491 0.0584922 0
M  V30 943 C 94.5313 -1.80526 -0.476138 0
M  V30 944 C 94.8823 -0.971334 -1.70469 0
M  V30 945 O 94.0073 -0.190012 -2.15564 0
M  V30 946 C 94.6023 -3.27424 -0.870587 0
M  V30 947 C 93.1613 -3.51351 -1.35015 0
M  V30 948 C 92.3083 -2.75343 -0.32887 0
M  V30 949 H 95.2593 -1.56133 0.284312 0
M  V30 950 H 95.2803 -3.38745 -1.73299 0
M  V30 951 H 94.7923 -3.88093 0.0237627 0
M  V30 952 H 92.8933 -2.95971 -2.26345 0
M  V30 953 H 93.0063 -4.60059 -1.33726 0
M  V30 954 H 91.3703 -2.417 -0.803321 0
M  V30 955 H 92.1533 -3.38743 0.557521 0
M  V30 956 N 94.5984 0.214957 -1.56127 0
M  V30 957 C 95.8444 0.939762 -1.79712 0
M  V30 958 C 96.1774 1.83723 -0.629247 0
M  V30 959 O 95.4524 1.90925 0.371197 0
M  V30 960 C 95.7354 1.77306 -3.13424 0
M  V30 961 C 95.5884 0.90164 -4.40671 0
M  V30 962 C 96.9074 2.74956 -3.43638 0
M  V30 963 H 94.0264 0.340214 -0.653776 0
M  V30 964 H 96.6684 0.20824 -1.88855 0
M  V30 965 H 94.8184 2.39673 -3.0576 0
M  V30 966 H 96.4904 0.294206 -4.60361 0
M  V30 967 H 94.7334 0.207368 -4.33304 0
M  V30 968 H 95.4044 1.51923 -5.30682 0
M  V30 969 H 97.8804 2.22724 -3.51473 0
M  V30 970 H 96.7564 3.30358 -4.38355 0
M  V30 971 H 97.0174 3.53023 -2.66134 0
M  V30 972 N 96.0765 1.50051 0.48192 0
M  V30 973 C 97.3225 1.61706 1.2338 0
M  V30 974 C 97.6775 0.308488 1.89911 0
M  V30 975 O 96.9705 -0.692798 1.78636 0
M  V30 976 C 97.1645 2.72717 2.30998 0
M  V30 977 C 96.9935 4.14242 1.75024 0
M  V30 978 C 95.7635 4.80786 1.55476 0
M  V30 979 C 97.9615 4.98846 1.25128 0
M  V30 980 N 95.9435 6.06563 0.946311 0
M  V30 981 C 97.3145 6.15258 0.765382 0
M  V30 982 C 99.3695 4.84702 1.13881 0
M  V30 983 C 98.0725 7.19079 0.178113 0
M  V30 984 C 100.098 5.8869 0.565486 0
M  V30 985 C 99.4605 7.04343 0.0899105 0
M  V30 986 H 95.5595 0.645958 0.440753 0
M  V30 987 H 98.1435 1.8713 0.537624 0
M  V30 988 H 96.3145 2.49033 2.98055 0
M  V30 989 H 98.0465 2.73789 2.9803 0
M  V30 990 H 94.8015 4.37899 1.80392 0
M  V30 991 H 95.2255 6.73767 0.660812 0
M  V30 992 H 99.8675 3.95583 1.49244 0
M  V30 993 H 97.5855 8.07882 -0.187749 0
M  V30 994 H 101.171 5.79808 0.480974 0
M  V30 995 H 100.051 7.83433 -0.346782 0
M  V30 996 N 97.5546 -0.734337 1.39446 0
M  V30 997 C 98.4846 -1.86155 1.40955 0
M  V30 998 C 99.4656 -1.67898 0.272827 0
M  V30 999 O 100.651 -1.88207 0.478743 0
M  V30 1000 C 97.7806 -3.23912 1.25294 0
M  V30 1001 C 96.7346 -3.56808 2.36373 0
M  V30 1002 C 96.0606 -4.93508 2.058 0
M  V30 1003 C 97.3606 -3.59713 3.78687 0
M  V30 1004 H 99.0546 -1.8515 2.35287 0
M  V30 1005 H 96.6006 -0.889367 1.13253 0
M  V30 1006 H 98.5536 -4.02443 1.2497 0
M  V30 1007 H 97.2776 -3.25446 0.274308 0
M  V30 1008 H 95.9366 -2.80606 2.35914 0
M  V30 1009 H 95.5846 -4.91623 1.06374 0
M  V30 1010 H 95.2846 -5.16486 2.80208 0
M  V30 1011 H 96.8086 -5.74396 2.07128 0
M  V30 1012 H 98.2226 -4.2832 3.81071 0
M  V30 1013 H 96.6196 -3.94209 4.52459 0
M  V30 1014 H 97.6896 -2.59504 4.09617 0
M  V30 1015 N 99.0327 -1.24633 -0.964593 0
M  V30 1016 C 99.9427 -1.05859 -2.09359 0
M  V30 1017 C 100.959 0.00148855 -1.74 0
M  V30 1018 O 102.135 -0.197346 -2.00431 0
M  V30 1019 C 99.1997 -0.668879 -3.40187 0
M  V30 1020 C 98.2607 -1.80578 -3.89474 0
M  V30 1021 C 97.4937 -1.43457 -5.14058 0
M  V30 1022 O 97.7167 -0.325775 -5.69469 0
M  V30 1023 O 96.6507 -2.2613 -5.57807 0
M  V30 1024 H 100.477 -2.00516 -2.28094 0
M  V30 1025 H 98.0617 -1.03481 -1.0776 0
M  V30 1026 H 99.9437 -0.463211 -4.18846 0
M  V30 1027 H 98.6187 0.248536 -3.22744 0
M  V30 1028 H 97.5257 -2.06623 -3.11862 0
M  V30 1029 H 98.8587 -2.70208 -4.11398 0
M  V30 1030 N 100.511 1.16574 -1.06058 0
M  V30 1031 C 101.443 2.2045 -0.627239 0
M  V30 1032 C 102.456 1.59752 0.313534 0
M  V30 1033 O 103.645 1.78192 0.104896 0
M  V30 1034 C 100.745 3.3875 0.100974 0
M  V30 1035 C 99.9178 4.29008 -0.852687 0
M  V30 1036 C 98.9768 5.25944 -0.164152 0
M  V30 1037 O 98.0028 5.63535 -0.801047 0
M  V30 1038 N 99.2048 5.70075 1.09518 0
M  V30 1039 H 101.97 2.58249 -1.52077 0
M  V30 1040 H 99.5308 1.3156 -0.943594 0
M  V30 1041 H 101.523 4.00638 0.57194 0
M  V30 1042 H 100.093 2.99476 0.89628 0
M  V30 1043 H 99.3128 3.64419 -1.50308 0
M  V30 1044 H 100.601 4.86195 -1.49972 0
M  V30 1045 H 99.9988 5.41624 1.6328 0
M  V30 1046 H 98.5558 6.34067 1.51006 0
M  V30 1047 N 101.989 0.842826 1.3317 0
M  V30 1048 C 103.235 0.441099 1.97945 0
M  V30 1049 C 103.568 -0.998024 1.66593 0
M  V30 1050 O 102.843 -1.69839 0.947898 0
M  V30 1051 C 103.126 0.666841 3.53872 0
M  V30 1052 C 102.979 2.15352 3.94897 0
M  V30 1053 C 104.298 0.115544 4.39948 0
M  V30 1054 H 101.417 0.161739 0.719034 0
M  V30 1055 H 104.059 1.05907 1.57746 0
M  V30 1056 H 102.209 0.140828 3.88245 0
M  V30 1057 H 103.881 2.7447 3.70761 0
M  V30 1058 H 102.124 2.63653 3.44484 0
M  V30 1059 H 102.795 2.26221 5.03516 0
M  V30 1060 H 105.271 0.565213 4.12243 0
M  V30 1061 H 104.147 0.303152 5.48062 0
M  V30 1062 H 104.408 -0.980935 4.3108 0
M  V30 1063 N 103.467 -1.45747 0.599634 0
M  V30 1064 C 104.417 -2.27538 -0.145107 0
M  V30 1065 C 105.401 -1.3686 -0.846055 0
M  V30 1066 O 106.593 -1.6091 -0.737357 0
M  V30 1067 C 103.722 -3.23569 -1.14708 0
M  V30 1068 C 102.808 -4.21734 -0.447383 0
M  V30 1069 N 103.199 -5.03257 0.506535 0
M  V30 1070 C 101.497 -4.40536 -0.695966 0
M  V30 1071 C 102.198 -5.74426 0.917068 0
M  V30 1072 N 101.174 -5.42966 0.26253 0
M  V30 1073 H 104.976 -2.87965 0.587672 0
M  V30 1074 H 102.49 -1.56803 0.422697 0
M  V30 1075 H 104.487 -3.8089 -1.69495 0
M  V30 1076 H 103.147 -2.64702 -1.8805 0
M  V30 1077 H 104.158 -5.10319 0.882899 0
M  V30 1078 H 100.835 -3.92802 -1.41467 0
M  V30 1079 H 102.225 -6.4995 1.70338 0
M  V30 1080 N 104.945 -0.338344 -1.53925 0
M  V30 1081 C 106.193 0.259245 -2.0043 0
M  V30 1082 C 106.514 1.51484 -1.22791 0
M  V30 1083 O 105.784 1.93037 -0.33368 0
M  V30 1084 H 104.364 0.0987845 -0.740439 0
M  V30 1085 H 107.026 -0.458302 -1.89435 0
M  V30 1086 H 106.122 0.505334 -3.07982 0
M  V30 1087 N 106.423 1.57458 -0.0668435 0
M  V30 1088 C 107.37 2.12439 0.902122 0
M  V30 1089 C 108.34 1.03565 1.2986 0
M  V30 1090 O 109.525 1.312 1.38532 0
M  V30 1091 C 106.665 2.6865 2.16614 0
M  V30 1092 C 105.778 3.91663 1.82274 0
M  V30 1093 C 104.913 4.36134 3.0325 0
M  V30 1094 C 103.952 5.51808 2.64904 0
M  V30 1095 N 103.089 5.9126 3.78624 0
M  V30 1096 H 107.929 2.94934 0.426382 0
M  V30 1097 H 105.466 1.4575 0.198819 0
M  V30 1098 H 107.424 2.99346 2.90599 0
M  V30 1099 H 106.054 1.88928 2.61737 0
M  V30 1100 H 105.106 3.6746 0.983719 0
M  V30 1101 H 106.418 4.75693 1.50059 0
M  V30 1102 H 105.572 4.68465 3.85519 0
M  V30 1103 H 104.311 3.50948 3.38655 0
M  V30 1104 H 103.316 5.19133 1.81055 0
M  V30 1105 H 104.541 6.38722 2.30675 0
M  V30 1106 H 102.487 5.09024 4.138 0
M  V30 1107 H 102.404 6.70018 3.5016 0
M  V30 1108 H 103.672 6.28212 4.61486 0
M  V30 1109 N 107.901 -0.206675 1.56239 0
M  V30 1110 C 109.178 -0.954051 1.70755 0
M  V30 1111 C 109.558 -2.01841 0.618353 0
M  V30 1112 O 108.906 -2.25444 -0.372434 0
M  V30 1113 C 109.116 -1.551 3.12642 0
M  V30 1114 C 110.464 -2.03757 3.72516 0
M  V30 1115 O 111.488 -1.64965 3.15698 0
M  V30 1116 O 110.347 -2.75103 4.72208 0
M  V30 1117 H 107.441 -0.446636 0.696021 0
M  V30 1118 H 109.987 -0.197283 1.68549 0
M  V30 1119 H 108.759 -0.783212 3.83382 0
M  V30 1120 H 108.382 -2.37291 3.19028 0
M  V30 1121 N 109.379 -1.50304 -0.473955 0
M  V30 1122 C 110.625 -1.61389 -1.22806 0
M  V30 1123 C 110.958 -0.311955 -1.91678 0
M  V30 1124 O 110.233 0.686384 -1.81986 0
M  V30 1125 C 110.516 -2.79219 -2.27396 0
M  V30 1126 C 110.369 -4.19286 -1.62848 0
M  V30 1127 C 111.688 -2.92614 -3.28732 0
M  V30 1128 H 108.807 -0.587399 -0.445119 0
M  V30 1129 H 111.449 -1.82681 -0.522265 0
M  V30 1130 H 109.599 -2.61195 -2.87592 0
M  V30 1131 H 111.271 -4.48892 -1.06271 0
M  V30 1132 H 109.514 -4.23677 -0.931693 0
M  V30 1133 H 110.185 -4.97655 -2.38838 0
M  V30 1134 H 112.661 -3.09105 -2.78556 0
M  V30 1135 H 111.537 -3.76688 -3.99246 0
M  V30 1136 H 111.798 -2.03107 -3.92683 0
M  V30 1137 N 110.857 0.726932 -1.39834 0
M  V30 1138 C 111.787 1.85405 -1.41941 0
M  V30 1139 C 112.768 1.67751 -0.281728 0
M  V30 1140 O 113.953 1.8795 -0.488717 0
M  V30 1141 C 111.083 3.23243 -1.2701 0
M  V30 1142 C 110.037 3.55549 -2.38262 0
M  V30 1143 C 109.363 4.9241 -2.08415 0
M  V30 1144 C 110.663 3.577 -3.80589 0
M  V30 1145 H 112.357 1.83899 -2.36266 0
M  V30 1146 H 109.903 0.883349 -1.13723 0
M  V30 1147 H 111.856 4.01775 -1.27103 0
M  V30 1148 H 110.58 3.25296 -0.291564 0
M  V30 1149 H 109.239 2.79351 -2.37399 0
M  V30 1150 H 108.887 4.91052 -1.0898 0
M  V30 1151 H 108.587 5.14992 -2.82943 0
M  V30 1152 H 110.111 5.73289 -2.10171 0
M  V30 1153 H 111.525 4.26293 -3.83337 0
M  V30 1154 H 109.922 3.91804 -4.54543 0
M  V30 1155 H 110.992 2.57328 -4.10987 0
M  V30 1156 N 112.336 1.25143 0.95797 0
M  V30 1157 C 113.283 1.05235 2.05412 0
M  V30 1158 C 114.253 -0.0374561 1.66058 0
M  V30 1159 O 115.438 0.119073 1.90428 0
M  V30 1160 C 112.578 0.673589 3.38462 0
M  V30 1161 C 111.691 1.8379 3.90954 0
M  V30 1162 C 110.826 1.40381 5.12315 0
M  V30 1163 C 109.865 2.53746 5.57027 0
M  V30 1164 N 109.002 2.11136 6.69601 0
M  V30 1165 H 113.842 1.99048 2.21774 0
M  V30 1166 H 111.379 0.991277 1.08683 0
M  V30 1167 H 113.337 0.434964 4.14926 0
M  V30 1168 H 111.967 -0.227554 3.21997 0
M  V30 1169 H 111.019 2.18992 3.11041 0
M  V30 1170 H 112.331 2.68937 4.20089 0
M  V30 1171 H 111.485 1.12464 5.96185 0
M  V30 1172 H 110.224 0.523015 4.84887 0
M  V30 1173 H 109.229 2.82412 4.71724 0
M  V30 1174 H 110.454 3.42398 5.86464 0
M  V30 1175 H 108.4 1.25468 6.4389 0
M  V30 1176 H 108.317 2.89832 6.98236 0
M  V30 1177 H 109.585 1.86385 7.56889 0
M  V30 1178 N 113.814 -1.1601 1.06675 0
M  V30 1179 C 114.744 -2.22688 0.702307 0
M  V30 1180 C 115.725 -1.67306 -0.307032 0
M  V30 1181 O 116.91 -1.93352 -0.181305 0
M  V30 1182 C 114.04 -3.47178 0.092038 0
M  V30 1183 C 112.994 -4.15477 1.02777 0
M  V30 1184 C 112.32 -5.33963 0.28061 0
M  V30 1185 C 113.62 -4.66019 2.35846 0
M  V30 1186 H 115.314 -2.53429 1.59419 0
M  V30 1187 H 112.86 -1.21813 0.767961 0
M  V30 1188 H 114.813 -4.21037 -0.174814 0
M  V30 1189 H 113.537 -3.15749 -0.834877 0
M  V30 1190 H 112.196 -3.43549 1.27944 0
M  V30 1191 H 111.844 -4.98788 -0.649545 0
M  V30 1192 H 111.544 -5.806 0.904258 0
M  V30 1193 H 113.068 -6.10596 0.021396 0
M  V30 1194 H 114.482 -5.3144 2.15045 0
M  V30 1195 H 112.879 -5.23293 2.93743 0
M  V30 1196 H 113.949 -3.82023 2.98641 0
M  V30 1197 N 115.292 -0.849877 -1.32721 0
M  V30 1198 C 116.52 -0.464754 -2.01613 0
M  V30 1199 C 116.935 0.937191 -1.63897 0
M  V30 1200 O 116.292 1.61081 -0.857856 0
M  V30 1201 C 116.343 -0.588638 -3.56675 0
M  V30 1202 O 116.064 -1.93535 -3.93034 0
M  V30 1203 C 117.565 -0.2019 -4.4284 0
M  V30 1204 H 114.785 -0.183215 -0.645502 0
M  V30 1205 H 117.329 -1.1455 -1.69407 0
M  V30 1206 H 115.484 0.0443159 -3.87375 0
M  V30 1207 H 115.898 -1.92871 -4.87751 0
M  V30 1208 H 117.372 -0.339599 -5.50954 0
M  V30 1209 H 117.849 0.857224 -4.30753 0
M  V30 1210 H 118.455 -0.809733 -4.17521 0
M  V30 1211 N 116.77 1.45427 -0.607355 0
M  V30 1212 C 118.018 2.01841 -0.102253 0
M  V30 1213 C 118.339 1.47832 1.27164 0
M  V30 1214 O 117.609 0.672497 1.83995 0
M  V30 1215 H 116.189 0.746188 -0.0348101 0
M  V30 1216 H 118.851 1.78229 -0.7887 0
M  V30 1217 H 117.947 3.12057 -0.0518585 0
M  V30 1218 N 118.248 0.346503 1.53744 0
M  V30 1219 C 119.158 -0.517293 2.28826 0
M  V30 1220 C 120.174 -1.10935 1.3405 0
M  V30 1221 O 121.35 -1.1244 1.6709 0
M  V30 1222 C 118.415 -1.65098 3.04866 0
M  V30 1223 C 117.476 -1.0884 4.15274 0
M  V30 1224 C 116.709 -2.16806 4.87679 0
M  V30 1225 O 116.932 -3.3758 4.59778 0
M  V30 1226 O 115.866 -1.80934 5.74061 0
M  V30 1227 H 119.692 0.0931396 3.03557 0
M  V30 1228 H 117.277 0.111458 1.48984 0
M  V30 1229 H 119.159 -2.31053 3.5241 0
M  V30 1230 H 117.834 -2.24717 2.32989 0
M  V30 1231 H 116.741 -0.3933 3.72027 0
M  V30 1232 H 118.074 -0.537036 4.89261 0
M  V30 1233 N 119.726 -1.57421 0.075193 0
M  V30 1234 C 121.137 -1.81021 -0.456964 0
M  V30 1235 C 121.488 -0.98936 -1.69429 0
M  V30 1236 O 120.613 -0.212865 -2.15351 0
M  V30 1237 C 121.208 -3.28329 -0.83581 0
M  V30 1238 C 119.767 -3.52764 -1.31281 0
M  V30 1239 C 118.914 -2.75676 -0.299648 0
M  V30 1240 H 121.865 -1.55822 0.300856 0
M  V30 1241 H 121.886 -3.40564 -1.69696 0
M  V30 1242 H 121.398 -3.88046 0.0649238 0
M  V30 1243 H 119.499 -2.98355 -2.23193 0
M  V30 1244 H 119.612 -4.61451 -1.28839 0
M  V30 1245 H 117.976 -2.42538 -0.777641 0
M  V30 1246 H 118.759 -3.38132 0.593417 0
M  V30 1247 N 121.204 0.198386 -1.56346 0
M  V30 1248 C 122.434 0.934215 -1.84271 0
M  V30 1249 C 122.842 1.77496 -0.655125 0
M  V30 1250 O 122.185 1.7961 0.385488 0
M  V30 1251 C 122.247 1.88278 -3.06254 0
M  V30 1252 C 121.911 1.22431 -4.40295 0
M  V30 1253 C 122.908 0.602839 -5.16393 0
M  V30 1254 C 120.593 1.22915 -4.87029 0
M  V30 1255 C 122.587 -0.0050083 -6.374 0
M  V30 1256 C 120.274 0.617465 -6.07973 0
M  V30 1257 C 121.272 0.00146341 -6.83 0
M  V30 1258 O 120.96 -0.600642 -8.01653 0
M  V30 1259 H 120.692 0.278245 -0.616081 0
M  V30 1260 H 123.246 0.211626 -2.04307 0
M  V30 1261 H 121.476 2.64498 -2.82095 0
M  V30 1262 H 123.165 2.48612 -3.20853 0
M  V30 1263 H 123.931 0.591265 -4.81382 0
M  V30 1264 H 119.81 1.69801 -4.28589 0
M  V30 1265 H 123.354 -0.48643 -6.95902 0
M  V30 1266 H 119.251 0.62653 -6.42452 0
M  V30 1267 H 120.019 -0.497225 -8.16988 0
M  V30 1268 N 122.682 1.50554 0.465978 0
M  V30 1269 C 123.645 1.69233 1.54574 0
M  V30 1270 C 124.645 0.562901 1.50626 0
M  V30 1271 O 125.835 0.830016 1.53155 0
M  V30 1272 C 122.967 1.7223 2.94193 0
M  V30 1273 H 124.16 2.65571 1.39327 0
M  V30 1274 H 121.713 1.40111 0.692711 0
M  V30 1275 H 122.448 0.77603 3.14878 0
M  V30 1276 H 122.233 2.54285 2.98466 0
M  V30 1277 H 123.723 1.88618 3.72576 0
M  V30 1278 N 124.16 -0.719506 1.40217 0
M  V30 1279 C 125.385 -1.51371 1.4178 0
M  V30 1280 C 125.81 -1.88091 0.0182355 0
M  V30 1281 O 125.168 -1.52997 -0.972707 0
M  V30 1282 C 125.216 -2.768 2.31115 0
M  V30 1283 O 124.32 -3.73349 1.7517 0
M  V30 1284 H 123.661 -0.456529 0.482159 0
M  V30 1285 H 126.191 -0.88644 1.844 0
M  V30 1286 H 126.201 -3.25371 2.46167 0
M  V30 1287 H 124.876 -2.49407 3.3282 0
M  V30 1288 H 123.453 -3.32179 1.69444 0
M  V30 1289 N 125.638 -1.25649 -0.95132 0
M  V30 1290 C 126.585 -1.06323 -2.04851 0
M  V30 1291 C 127.555 0.0286491 -1.66075 0
M  V30 1292 O 128.74 -0.12917 -1.90362 0
M  V30 1293 C 125.88 -0.691529 -3.381 0
M  V30 1294 C 124.993 -1.85861 -3.89974 0
M  V30 1295 C 124.128 -1.43096 -5.11563 0
M  V30 1296 C 123.167 -2.56696 -5.55674 0
M  V30 1297 N 122.304 -2.14684 -6.68472 0
M  V30 1298 H 127.144 -2.00222 -2.20715 0
M  V30 1299 H 124.681 -0.997027 -1.08156 0
M  V30 1300 H 126.639 -0.456963 -4.1469 0
M  V30 1301 H 125.269 0.210474 -3.22113 0
M  V30 1302 H 124.321 -2.20639 -3.09875 0
M  V30 1303 H 125.633 -2.71161 -4.18657 0
M  V30 1304 H 124.787 -1.15624 -5.9558 0
M  V30 1305 H 123.526 -0.548722 -4.84603 0
M  V30 1306 H 122.531 -2.84909 -4.7022 0
M  V30 1307 H 123.756 -3.45503 -5.8464 0
M  V30 1308 H 121.702 -1.28881 -6.43215 0
M  V30 1309 H 121.619 -2.9353 -6.96689 0
M  V30 1310 H 122.887 -1.90397 -7.5589 0
M  V30 1311 N 127.117 1.15442 -1.07289 0
M  V30 1312 C 128.533 1.38201 -0.798288 0
M  V30 1313 C 128.733 1.92429 0.597769 0
M  V30 1314 O 127.789 2.12962 1.3566 0
M  V30 1315 C 129.102 2.35357 -1.87156 0
M  V30 1316 C 130.65 2.49021 -1.89624 0
M  V30 1317 C 131.125 3.49468 -2.96034 0
M  V30 1318 N 132.616 3.57003 -2.95132 0
M  V30 1319 C 133.351 4.34543 -3.74112 0
M  V30 1320 N 132.847 5.15421 -4.6294 0
M  V30 1321 N 134.64 4.29625 -3.62462 0
M  V30 1322 H 126.791 0.78584 -1.97328 0
M  V30 1323 H 129.054 0.408065 -0.855679 0
M  V30 1324 H 128.76 2.02626 -2.87464 0
M  V30 1325 H 128.634 3.35129 -1.73114 0
M  V30 1326 H 131.021 2.81051 -0.899687 0
M  V30 1327 H 131.102 1.4925 -2.07745 0
M  V30 1328 H 130.746 3.18173 -3.95889 0
M  V30 1329 H 130.676 4.48992 -2.75161 0
M  V30 1330 H 133.167 2.99276 -2.30743 0
M  V30 1331 H 133.48 5.7183 -5.19837 0
M  V30 1332 H 131.825 5.14729 -4.66989 0
M  V30 1333 H 135.016 3.65505 -2.92444 0
M  V30 1334 H 135.189 4.89807 -4.24256 0
M  V30 1335 N 128.595 0.856903 1.32268 0
M  V30 1336 C 129.558 0.308171 2.27119 0
M  V30 1337 C 130.558 -0.533421 1.51695 0
M  V30 1338 O 131.748 -0.344607 1.70757 0
M  V30 1339 C 128.88 -0.563757 3.36206 0
M  V30 1340 H 130.073 1.14535 2.77167 0
M  V30 1341 H 127.626 0.631421 1.42978 0
M  V30 1342 H 128.361 -1.42266 2.91429 0
M  V30 1343 H 128.146 0.0386749 3.92081 0
M  V30 1344 H 129.636 -0.940386 4.06874 0
M  V30 1345 N 130.073 -1.45103 0.615059 0
M  V30 1346 C 131.35 -1.95549 0.0448276 0
M  V30 1347 C 131.73 -1.55737 -1.4251 0
M  V30 1348 O 131.078 -0.823556 -2.13143 0
M  V30 1349 C 131.288 -3.48098 0.250785 0
M  V30 1350 C 132.636 -4.24384 0.135509 0
M  V30 1351 O 133.66 -3.55738 0.181299 0
M  V30 1352 O 132.519 -5.46493 0.0268878 0
M  V30 1353 H 129.613 -0.8264 -0.0314845 0
M  V30 1354 H 132.159 -1.55232 0.685642 0
M  V30 1355 H 130.931 -3.7007 1.27139 0
M  V30 1356 H 130.554 -3.95323 -0.424937 0
M  V30 1357 N 131.551 -0.354651 -1.53558 0
M  V30 1358 C 132.514 0.484566 -2.24019 0
M  V30 1359 C 133.514 1.01861 -1.24422 0
M  V30 1360 O 134.704 0.906097 -1.4878 0
M  V30 1361 C 131.836 1.67615 -2.96847 0
M  V30 1362 H 133.029 -0.131843 -2.9961 0
M  V30 1363 H 130.582 -0.106165 -1.55939 0
M  V30 1364 H 131.317 2.33095 -2.25471 0
M  V30 1365 H 131.102 1.30029 -3.69912 0
M  V30 1366 H 132.592 2.27114 -3.50441 0
M  V30 1367 N 133.029 1.57378 -0.0835403 0
M  V30 1368 C 134.254 1.98682 0.594987 0
M  V30 1369 C 134.679 0.961969 1.61641 0
M  V30 1370 O 134.037 -0.0709989 1.81161 0
M  V30 1371 C 134.085 3.38988 1.2296 0
M  V30 1372 O 133.189 3.39208 2.34546 0
M  V30 1373 H 132.53 0.646368 0.152002 0
M  V30 1374 H 135.06 2.03961 -0.161533 0
M  V30 1375 H 135.07 3.76431 1.57366 0
M  V30 1376 H 133.745 4.13107 0.481228 0
M  V30 1377 H 132.322 3.13548 2.01846 0
M  V30 1378 N 134.507 -0.190092 1.56449 0
M  V30 1379 C 135.737 -0.92443 1.84764 0
M  V30 1380 C 136.145 -1.77146 0.664529 0
M  V30 1381 O 135.488 -1.79812 -0.375957 0
M  V30 1382 C 135.55 -1.86651 3.07248 0
M  V30 1383 C 135.214 -1.20094 4.40938 0
M  V30 1384 C 136.211 -0.575445 5.16706 0
M  V30 1385 C 133.896 -1.2033 4.87674 0
M  V30 1386 C 135.89 0.0388111 6.37388 0
M  V30 1387 C 133.577 -0.585214 6.08291 0
M  V30 1388 C 134.575 0.0347578 6.82991 0
M  V30 1389 O 134.263 0.643147 8.01323 0
M  V30 1390 H 133.995 -0.274974 0.617548 0
M  V30 1391 H 136.549 -0.200788 2.04416 0
M  V30 1392 H 134.779 -2.62998 2.83494 0
M  V30 1393 H 136.468 -2.46907 3.22167 0
M  V30 1394 H 137.234 -0.565728 4.81689 0
M  V30 1395 H 133.113 -1.67526 4.29484 0
M  V30 1396 H 136.657 0.523329 6.95634 0
M  V30 1397 H 132.554 -0.592451 6.42775 0
M  V30 1398 H 133.322 0.540545 8.16713 0
M  V30 1399 N 135.985 -1.50799 -0.457987 0
M  V30 1400 C 137.21 -1.66496 -1.23668 0
M  V30 1401 C 137.635 -0.353288 -1.84752 0
M  V30 1402 O 136.993 0.684346 -1.67888 0
M  V30 1403 C 137.041 -2.76763 -2.3116 0
M  V30 1404 O 136.145 -2.38928 -3.36136 0
M  V30 1405 H 135.486 -0.555828 -0.363252 0
M  V30 1406 H 138.016 -1.9725 -0.543474 0
M  V30 1407 H 138.026 -3.00232 -2.76269 0
M  V30 1408 H 136.701 -3.71954 -1.86073 0
M  V30 1409 H 135.278 -2.25953 -2.96647 0
M  V30 1410 N 137.463 0.71206 -1.40597 0
M  V30 1411 C 138.411 1.84746 -1.41321 0
M  V30 1412 C 139.405 1.66842 -0.293268 0
M  V30 1413 O 140.611 1.73904 -0.464481 0
M  V30 1414 H 136.986 0.608522 -0.441819 0
M  V30 1415 H 138.957 1.81252 -2.37045 0
M  V30 1416 C 137.706 3.22638 -1.29614 0
M  V30 1417 H 137.029 3.37023 -2.15071 0
M  V30 1418 H 138.469 4.02209 -1.3418 0
M  V30 1419 C 136.928 3.36899 -0.00673121 0
M  V30 1420 O 137.458 3.90186 0.954859 0
M  V30 1421 N 135.664 2.9053 0.0639327 0
M  V30 1422 H 135.211 2.47353 -0.719311 0
M  V30 1423 H 135.169 3.0045 0.926118 0
M  V30 1424 N 138.941 1.26152 0.944643 0
M  V30 1425 C 140.169 1.14259 1.72489 0
M  V30 1426 C 140.584 -0.302555 1.8636 0
M  V30 1427 O 139.941 -1.20741 1.36849 0
M  V30 1428 C 139.992 1.80266 3.13347 0
M  V30 1429 O 139.713 3.19133 3.00143 0
M  V30 1430 C 141.214 1.74283 4.07603 0
M  V30 1431 H 138.434 0.398051 0.540181 0
M  V30 1432 H 140.978 1.66706 1.18446 0
M  V30 1433 H 139.133 1.31766 3.64303 0
M  V30 1434 H 139.547 3.51744 3.89071 0
M  V30 1435 H 141.021 2.25111 5.04013 0
M  V30 1436 H 141.498 0.708631 4.33446 0
M  V30 1437 H 142.104 2.22319 3.62567 0
M  V30 1438 N 140.419 -1.14872 1.07899 0
M  V30 1439 C 141.83 -1.67367 0.827363 0
M  V30 1440 C 142.181 -1.85236 -0.646693 0
M  V30 1441 O 141.306 -1.55974 -1.50004 0
M  V30 1442 C 141.901 -3.04016 1.49532 0
M  V30 1443 C 140.46 -3.53566 1.29106 0
M  V30 1444 C 139.607 -2.29161 1.56143 0
M  V30 1445 H 142.558 -0.990083 1.24028 0
M  V30 1446 H 142.579 -3.69219 0.919643 0
M  V30 1447 H 142.091 -2.90978 2.56814 0
M  V30 1448 H 140.192 -3.71835 0.238713 0
M  V30 1449 H 140.305 -4.34661 2.01511 0
M  V30 1450 H 138.669 -2.34978 0.982717 0
M  V30 1451 H 139.452 -2.18705 2.64619 0
M  V30 1452 N 141.898 -0.863906 -1.31812 0
M  V30 1453 C 143.146 -0.470904 -1.96537 0
M  V30 1454 C 143.467 0.978771 -1.68657 0
M  V30 1455 O 142.737 1.6853 -0.998717 0
M  V30 1456 H 141.317 -0.171148 -0.72713 0
M  V30 1457 H 143.979 -1.10236 -1.60729 0
M  V30 1458 H 143.075 -0.623616 -3.05806 0
M  V30 1459 N 143.376 1.44774 -0.622745 0
M  V30 1460 C 144.604 2.06487 -0.130722 0
M  V30 1461 C 145.019 1.46476 1.19123 0
M  V30 1462 O 144.376 0.584502 1.72887 0
M  V30 1463 C 144.427 3.615 -0.000807207 0
M  V30 1464 O 144.148 4.19274 -1.27048 0
M  V30 1465 C 145.649 4.40229 0.520898 0
M  V30 1466 H 142.869 0.666704 -0.0758106 0
M  V30 1467 H 145.413 1.85779 -0.854774 0
M  V30 1468 H 143.568 3.81498 0.673643 0
M  V30 1469 H 143.982 5.12622 -1.1099 0
M  V30 1470 H 145.456 5.49144 0.560838 0
M  V30 1471 H 145.933 4.1108 1.54627 0
M  V30 1472 H 146.539 4.25131 -0.120018 0
M  V30 1473 N 144.854 0.36279 1.53368 0
M  V30 1474 C 146.1 -0.228113 2.01513 0
M  V30 1475 C 146.433 -1.48648 1.2497 0
M  V30 1476 O 145.708 -1.91459 0.342616 0
M  V30 1477 C 145.991 -0.522884 3.56284 0
M  V30 1478 C 145.844 0.74892 4.43521 0
M  V30 1479 C 147.163 -1.32461 4.19693 0
M  V30 1480 H 144.282 -0.0814343 0.732487 0
M  V30 1481 H 146.924 0.48713 1.83649 0
M  V30 1482 H 145.074 -1.1322 3.71636 0
M  V30 1483 H 146.746 1.38648 4.39971 0
M  V30 1484 H 144.989 1.36986 4.11603 0
M  V30 1485 H 145.66 0.497667 5.49752 0
M  V30 1486 H 148.136 -0.809203 4.08156 0
M  V30 1487 H 147.012 -1.49961 5.28018 0
M  V30 1488 H 147.273 -2.33232 3.75573 0
M  V30 1489 N 146.332 -1.57332 0.0918853 0
M  V30 1490 C 147.572 -1.96117 -0.575988 0
M  V30 1491 C 147.936 -0.972499 -1.65549 0
M  V30 1492 O 149.137 -1.24872 -2.38034 0
M  V30 1493 C 147.408 -3.39407 -1.11973 0
M  V30 1494 S 148.967 -4.00185 -1.79992 0
M  V30 1495 H 145.785 -0.685682 -0.188045 0
M  V30 1496 H 148.387 -1.94755 0.170525 0
M  V30 1497 H 147.091 -4.09131 -0.322504 0
M  V30 1498 H 146.622 -3.44358 -1.90214 0
M  V30 1499 H 148.637 -3.88728 -3.08391 0
M  V30 1500 N 147.81 0.181792 -1.56548 0
M  V30 1501 C 148.773 1.20894 -1.94724 0
M  V30 1502 C 149.773 1.37738 -0.829747 0
M  V30 1503 O 150.963 1.35323 -1.09697 0
M  V30 1504 C 148.095 2.57593 -2.23291 0
M  V30 1505 H 149.288 0.882275 -2.86629 0
M  V30 1506 H 146.841 0.423838 -1.50444 0
M  V30 1507 H 147.576 2.95291 -1.34067 0
M  V30 1508 H 147.361 2.46735 -3.04736 0
M  V30 1509 H 148.851 3.31637 -2.53785 0
M  V30 1510 N 149.288 1.51039 0.449983 0
M  V30 1511 C 150.534 1.63322 1.20223 0
M  V30 1512 C 150.867 0.34241 1.91158 0
M  V30 1513 O 150.142 -0.657344 1.83055 0
M  V30 1514 C 150.425 2.82801 2.22925 0
M  V30 1515 C 150.278 4.21823 1.56157 0
M  V30 1516 C 151.597 2.97807 3.24035 0
M  V30 1517 H 148.716 0.594407 0.435718 0
M  V30 1518 H 151.358 1.83489 0.493136 0
M  V30 1519 H 149.508 2.65738 2.834 0
M  V30 1520 H 151.18 4.50526 0.991162 0
M  V30 1521 H 149.423 4.25105 0.864172 0
M  V30 1522 H 150.094 5.01391 2.30891 0
M  V30 1523 H 152.57 3.13497 2.73603 0
M  V30 1524 H 151.446 3.82992 3.93202 0
M  V30 1525 H 151.707 2.09328 3.89402 0
M  V30 1526 N 150.766 -0.704594 1.40972 0
M  V30 1527 C 151.699 -1.82861 1.36518 0
M  V30 1528 C 152.677 -1.6091 0.23382 0
M  V30 1529 O 153.861 -1.83778 0.419271 0
M  V30 1530 C 150.988 -3.1939 1.12729 0
M  V30 1531 C 150.034 -3.60148 2.28463 0
M  V30 1532 S 150.867 -3.65994 3.90907 0
M  V30 1533 C 152.023 -5.05264 3.69403 0
M  V30 1534 H 152.256 -1.86361 2.3164 0
M  V30 1535 H 149.789 -0.872439 1.27389 0
M  V30 1536 H 151.747 -3.98211 0.996893 0
M  V30 1537 H 150.408 -3.1351 0.192427 0
M  V30 1538 H 149.601 -4.59309 2.07489 0
M  V30 1539 H 149.203 -2.88612 2.37863 0
M  V30 1540 H 151.495 -5.92504 3.28551 0
M  V30 1541 H 152.438 -5.31278 4.68134 0
M  V30 1542 H 152.846 -4.76377 3.02862 0
M  V30 1543 N 152.244 -1.26651 -0.937939 0
M  V30 1544 C 153.472 -1.15173 -1.7188 0
M  V30 1545 C 153.887 0.292668 -1.86518 0
M  V30 1546 O 153.244 1.20014 -1.37488 0
M  V30 1547 C 153.295 -1.81925 -3.12387 0
M  V30 1548 O 153.016 -3.2072 -2.98446 0
M  V30 1549 C 154.517 -1.76442 -4.06673 0
M  V30 1550 H 151.737 -0.400911 -0.538063 0
M  V30 1551 H 154.281 -1.67332 -1.1756 0
M  V30 1552 H 152.436 -1.33696 -3.63599 0
M  V30 1553 H 152.85 -3.53802 -3.872 0
M  V30 1554 H 154.324 -2.27781 -5.02812 0
M  V30 1555 H 154.801 -0.731608 -4.33064 0
M  V30 1556 H 155.407 -2.24238 -3.61382 0
M  V30 1557 N 153.722 1.14298 -1.08507 0
M  V30 1558 C 154.685 2.17607 -0.719711 0
M  V30 1559 C 155.685 1.58907 0.245997 0
M  V30 1560 O 156.875 1.74181 0.0254081 0
M  V30 1561 C 154.007 3.40842 -0.0627695 0
M  V30 1562 H 155.2 2.51443 -1.63452 0
M  V30 1563 H 152.753 1.28963 -0.88307 0
M  V30 1564 H 153.488 3.12587 0.863716 0
M  V30 1565 H 153.273 3.84713 -0.757504 0
M  V30 1566 H 154.763 4.17221 0.177786 0
M  V30 1567 N 155.201 0.870884 1.31352 0
M  V30 1568 C 156.478 0.402907 1.91405 0
M  V30 1569 C 156.858 -1.11512 1.79244 0
M  V30 1570 O 156.206 -1.94411 1.2007 0
M  V30 1571 C 156.416 0.885301 3.37585 0
M  V30 1572 C 157.764 0.911971 4.14691 0
M  V30 1573 O 158.788 0.831016 3.46371 0
M  V30 1574 O 157.647 1.02927 5.3672 0
M  V30 1575 H 154.741 0.120698 0.818145 0
M  V30 1576 H 157.287 0.958857 1.40014 0
M  V30 1577 H 156.059 1.92889 3.40455 0
M  V30 1578 H 155.682 0.307714 3.96407 0
M  V30 1579 N 156.679 -1.44442 0.630414 0
M  V30 1580 C 157.919 -2.03934 0.137919 0
M  V30 1581 C 158.283 -1.48509 -1.21692 0
M  V30 1582 O 159.484 -1.99499 -1.80149 0
M  V30 1583 C 157.755 -3.57187 0.123373 0
M  V30 1584 S 159.314 -4.37741 -0.304604 0
M  V30 1585 H 156.132 -0.708401 0.0607353 0
M  V30 1586 H 158.734 -1.76835 0.833643 0
M  V30 1587 H 157.438 -3.95032 1.11256 0
M  V30 1588 H 156.969 -3.88895 -0.59362 0
M  V30 1589 H 158.984 -4.71403 -1.54897 0
M  V30 1590 N 158.157 -0.370918 -1.53173 0
M  V30 1591 C 159.087 0.464847 -2.28826 0
M  V30 1592 C 160.068 1.07936 -1.31468 0
M  V30 1593 O 161.253 1.0956 -1.60344 0
M  V30 1594 C 158.383 1.60196 -3.08147 0
M  V30 1595 C 157.337 1.11443 -4.13237 0
M  V30 1596 C 156.663 2.3422 -4.80672 0
M  V30 1597 C 157.963 0.195384 -5.21934 0
M  V30 1598 H 159.657 -0.166329 -2.98938 0
M  V30 1599 H 157.203 -0.0814359 -1.4377 0
M  V30 1600 H 159.156 2.19332 -3.59822 0
M  V30 1601 H 157.88 2.26045 -2.35735 0
M  V30 1602 H 156.539 0.545727 -3.62515 0
M  V30 1603 H 156.187 2.98537 -4.04827 0
M  V30 1604 H 155.887 2.02269 -5.51689 0
M  V30 1605 H 157.411 2.94032 -5.35143 0
M  V30 1606 H 158.825 0.694375 -5.69079 0
M  V30 1607 H 157.222 -0.0335027 -6.00091 0
M  V30 1608 H 158.292 -0.760961 -4.78892 0
M  V30 1609 N 159.635 1.57281 -0.100228 0
M  V30 1610 C 161.046 1.81725 0.428107 0
M  V30 1611 C 161.397 1.01619 1.67833 0
M  V30 1612 O 160.522 0.247098 2.14985 0
M  V30 1613 C 161.117 3.29617 0.78347 0
M  V30 1614 C 159.676 3.54808 1.25653 0
M  V30 1615 C 158.823 2.76118 0.255752 0
M  V30 1616 H 161.774 1.55324 -0.325608 0
M  V30 1617 H 161.795 3.4322 1.64256 0
M  V30 1618 H 161.307 3.87893 -0.12665 0
M  V30 1619 H 159.408 3.01868 2.18418 0
M  V30 1620 H 159.521 4.63443 1.21482 0
M  V30 1621 H 157.885 2.43745 0.738956 0
M  V30 1622 H 158.668 3.37145 -0.647136 0
M  V30 1623 N 161.113 -0.173488 1.56642 0
M  V30 1624 C 162.359 -0.891784 1.8214 0
M  V30 1625 C 162.692 -1.8199 0.677736 0
M  V30 1626 O 161.967 -1.91842 -0.320446 0
M  V30 1627 C 162.25 -1.68933 3.18015 0
M  V30 1628 C 162.103 -0.784487 4.42906 0
M  V30 1629 C 163.422 -2.65748 3.50808 0
M  V30 1630 H 160.541 -0.322761 0.662567 0
M  V30 1631 H 163.183 -0.158095 1.89341 0
M  V30 1632 H 161.333 -2.31482 3.12007 0
M  V30 1633 H 163.005 -0.172046 4.60979 0
M  V30 1634 H 161.248 -0.0924117 4.33702 0
M  V30 1635 H 161.919 -1.37799 5.34524 0
M  V30 1636 H 164.395 -2.13327 3.57255 0
M  V30 1637 H 163.271 -3.18619 4.4696 0
M  V30 1638 H 163.532 -3.45842 2.75401 0
M  V30 1639 N 162.591 -1.51276 -0.441967 0
M  V30 1640 C 163.521 -1.752 -1.54361 0
M  V30 1641 C 164.502 -0.601682 -1.59103 0
M  V30 1642 O 165.687 -0.843913 -1.74905 0
M  V30 1643 C 162.817 -1.87282 -2.92477 0
M  V30 1644 C 161.771 -3.02687 -3.02596 0
M  V30 1645 C 161.097 -2.99947 -4.42647 0
M  V30 1646 C 162.397 -4.4273 -2.77106 0
M  V30 1647 H 164.091 -2.67442 -1.34592 0
M  V30 1648 H 161.637 -1.28694 -0.646048 0
M  V30 1649 H 163.59 -2.02602 -3.695 0
M  V30 1650 H 162.314 -0.916844 -3.13467 0
M  V30 1651 H 160.973 -2.87065 -2.28012 0
M  V30 1652 H 160.621 -2.02136 -4.60597 0
M  V30 1653 H 160.321 -3.77439 -4.50348 0
M  V30 1654 H 161.845 -3.17354 -5.2165 0
M  V30 1655 H 163.259 -4.58727 -3.43864 0
M  V30 1656 H 161.656 -5.21893 -2.96222 0
M  V30 1657 H 162.726 -4.53087 -1.72744 0
M  V30 1658 N 164.069 0.697108 -1.41344 0
M  V30 1659 C 165.316 1.45714 -1.40619 0
M  V30 1660 C 165.644 1.94494 -0.0147907 0
M  V30 1661 O 164.899 1.69794 0.973066 0
M  V30 1662 C 165.198 2.68553 -2.35826 0
M  V30 1663 C 164.864 2.38438 -3.82698 0
M  V30 1664 C 163.526 2.29936 -4.22709 0
M  V30 1665 C 165.878 2.13567 -4.75435 0
M  V30 1666 C 163.206 1.94656 -5.53467 0
M  V30 1667 C 165.558 1.79797 -6.06511 0
M  V30 1668 C 164.222 1.69789 -6.45545 0
M  V30 1669 H 163.492 0.533206 -0.51456 0
M  V30 1670 H 166.139 0.796901 -1.74131 0
M  V30 1671 H 164.444 3.39503 -1.95563 0
M  V30 1672 H 166.141 3.2669 -2.32539 0
M  V30 1673 H 162.731 2.4595 -3.51008 0
M  V30 1674 H 166.915 2.19082 -4.45328 0
M  V30 1675 H 162.171 1.8546 -5.82593 0
M  V30 1676 H 166.345 1.59572 -6.77872 0
M  V30 1677 H 163.972 1.4222 -7.46778 0
M  V30 1678 N 165.547 1.27147 0.931209 0
M  V30 1679 C 166.787 1.14511 1.69312 0
M  V30 1680 C 167.151 -0.304638 1.89568 0
M  V30 1681 O 168.352 -0.553343 2.63043 0
M  V30 1682 C 166.623 1.90349 3.02493 0
M  V30 1683 S 168.182 1.93884 3.93642 0
M  V30 1684 H 165 0.408858 0.581684 0
M  V30 1685 H 167.602 1.61006 1.10893 0
M  V30 1686 H 166.306 2.94877 2.85439 0
M  V30 1687 H 165.837 1.44333 3.65966 0
M  V30 1688 H 167.852 1.03273 4.85334 0
M  V30 1689 N 167.025 -1.13721 1.09112 0
M  V30 1690 C 167.973 -2.21103 0.722219 0
M  V30 1691 C 168.967 -1.67147 -0.275374 0
M  V30 1692 O 170.173 -1.79477 -0.137176 0
M  V30 1693 H 166.548 -0.720445 0.215553 0
M  V30 1694 H 168.519 -2.49483 1.63709 0
M  V30 1695 C 167.268 -3.47352 0.15543 0
M  V30 1696 H 166.591 -3.89206 0.914246 0
M  V30 1697 H 168.031 -4.2395 -0.0647967 0
M  V30 1698 C 166.49 -3.1814 -1.10852 0
M  V30 1699 O 167.02 -3.36604 -2.19227 0
M  V30 1700 N 165.226 -2.72045 -1.02176 0
M  V30 1701 H 164.773 -2.57221 -0.139764 0
M  V30 1702 H 164.731 -2.52875 -1.8682 0
M  V30 1703 N 168.503 -0.877838 -1.30888 0
M  V30 1704 C 169.919 -0.570844 -1.49042 0
M  V30 1705 C 170.119 0.893159 -1.80624 0
M  V30 1706 O 169.175 1.67485 -1.88958 0
M  V30 1707 C 170.488 -1.47784 -2.61878 0
M  V30 1708 C 172.036 -1.48071 -2.75761 0
M  V30 1709 C 172.511 -2.37347 -3.91702 0
M  V30 1710 N 174.002 -2.35271 -3.99001 0
M  V30 1711 C 174.737 -3.01063 -4.88004 0
M  V30 1712 N 174.233 -3.76055 -5.81854 0
M  V30 1713 N 176.026 -2.90332 -4.81315 0
M  V30 1714 H 168.177 -1.82502 -1.0866 0
M  V30 1715 H 170.44 -0.780797 -0.537644 0
M  V30 1716 H 170.146 -2.51993 -2.45341 0
M  V30 1717 H 170.02 -1.18215 -3.58197 0
M  V30 1718 H 172.407 -0.446166 -2.91708 0
M  V30 1719 H 172.488 -1.81668 -1.80085 0
M  V30 1720 H 172.132 -3.40883 -3.76512 0
M  V30 1721 H 172.062 -2.01071 -4.86701 0
M  V30 1722 H 174.553 -1.80768 -3.3186 0
M  V30 1723 H 174.866 -4.23366 -6.46514 0
M  V30 1724 H 173.211 -3.80163 -5.81808 0
M  V30 1725 H 176.402 -2.31278 -4.06974 0
M  V30 1726 H 176.575 -3.41885 -5.50471 0
M  V30 1727 N 169.982 1.44106 -0.638065 0
M  V30 1728 C 170.945 2.29138 0.0531013 0
M  V30 1729 C 171.945 1.41409 0.765506 0
M  V30 1730 O 173.135 1.63206 0.609046 0
M  V30 1731 C 170.267 3.23144 1.08584 0
M  V30 1732 H 171.46 2.91739 -0.694883 0
M  V30 1733 H 169.013 1.51134 -0.398538 0
M  V30 1734 H 169.748 2.65408 1.86357 0
M  V30 1735 H 169.533 3.87804 0.578852 0
M  V30 1736 H 171.023 3.87004 1.56899 0
M  V30 1737 N 171.46 0.379036 1.52974 0
M  V30 1738 C 172.708 -0.206014 2.01047 0
M  V30 1739 C 173.029 -1.48175 1.26765 0
M  V30 1740 O 172.299 -1.92085 0.384743 0
M  V30 1741 H 170.879 -0.0791184 0.742798 0
M  V30 1742 H 173.541 0.508366 1.88153 0
M  V30 1743 H 172.637 -0.423501 3.09213 0
M  V30 1744 N 172.938 -1.57226 0.108567 0
M  V30 1745 C 174.166 -1.99179 -0.559954 0
M  V30 1746 C 174.581 -0.988022 -1.60884 0
M  V30 1747 O 173.938 0.0205512 -1.82488 0
M  V30 1748 C 173.989 -3.41159 -1.19552 0
M  V30 1749 O 173.71 -4.37694 -0.188577 0
M  V30 1750 C 175.211 -3.98188 -1.94837 0
M  V30 1751 H 172.431 -0.654228 -0.149088 0
M  V30 1752 H 174.975 -2.03598 0.19183 0
M  V30 1753 H 173.13 -3.37711 -1.89815 0
M  V30 1754 H 173.544 -5.20469 -0.649014 0
M  V30 1755 H 175.018 -4.99644 -2.34648 0
M  V30 1756 H 175.495 -3.3675 -2.81951 0
M  V30 1757 H 176.101 -4.0515 -1.2936 0
M  V30 1758 N 174.416 0.165178 -1.56732 0
M  V30 1759 C 175.326 1.22423 -2.00125 0
M  V30 1760 C 176.342 1.48084 -0.913619 0
M  V30 1761 O 177.518 1.60112 -1.22172 0
M  V30 1762 C 174.583 2.54197 -2.35764 0
M  V30 1763 C 173.644 2.36343 -3.58386 0
M  V30 1764 C 172.877 3.61834 -3.92316 0
M  V30 1765 O 173.1 4.67267 -3.27135 0
M  V30 1766 O 172.034 3.55579 -4.85641 0
M  V30 1767 H 175.86 0.885886 -2.90492 0
M  V30 1768 H 173.445 0.372518 -1.44681 0
M  V30 1769 H 175.327 3.3192 -2.59629 0
M  V30 1770 H 174.002 2.87598 -1.48557 0
M  V30 1771 H 172.909 1.56632 -3.39731 0
M  V30 1772 H 174.242 2.07865 -4.46154 0
M  V30 1773 N 175.894 1.51508 0.433938 0
M  V30 1774 C 177.14 1.64588 1.18484 0
M  V30 1775 C 177.473 0.362666 1.90784 0
M  V30 1776 O 176.748 -0.637892 1.83742 0
M  V30 1777 C 177.031 2.85149 2.19913 0
M  V30 1778 C 176.884 4.23456 1.51674 0
M  V30 1779 C 178.203 3.01227 3.20858 0
M  V30 1780 H 175.322 0.598994 0.429389 0
M  V30 1781 H 177.964 1.84002 0.473647 0
M  V30 1782 H 176.114 2.68729 2.80566 0
M  V30 1783 H 177.786 4.51552 0.943322 0
M  V30 1784 H 176.029 4.25998 0.819035 0
M  V30 1785 H 176.7 5.03812 2.2556 0
M  V30 1786 H 179.176 3.16382 2.70263 0
M  V30 1787 H 178.052 3.87141 3.89118 0
M  V30 1788 H 178.313 2.13447 3.8716 0
M  V30 1789 N 177.372 -0.689602 1.41712 0
M  V30 1790 C 178.335 -1.78521 1.43746 0
M  V30 1791 C 179.335 -1.57436 0.327191 0
M  V30 1792 O 180.525 -1.64 0.587348 0
M  V30 1793 C 177.657 -3.16971 1.25467 0
M  V30 1794 H 178.85 -1.78108 2.41283 0
M  V30 1795 H 176.403 -0.89781 1.27942 0
M  V30 1796 H 177.138 -3.23019 0.287948 0
M  V30 1797 H 176.923 -3.33678 2.05917 0
M  V30 1798 H 178.413 -3.96935 1.2974 0
M  V30 1799 N 178.85 -1.27639 -0.924453 0
M  V30 1800 C 179.813 -1.10681 -2.00705 0
M  V30 1801 C 180.813 -0.0497823 -1.60723 0
M  V30 1802 O 182.003 -0.294654 -1.7169 0
M  V30 1803 C 179.135 -0.687164 -3.33902 0
M  V30 1804 H 180.328 -2.06817 -2.17179 0
M  V30 1805 H 177.881 -1.10473 -1.10569 0
M  V30 1806 H 178.616 0.275439 -3.23128 0
M  V30 1807 H 178.401 -1.45061 -3.6428 0
M  V30 1808 H 179.891 -0.590853 -4.13399 0
M  V30 1809 N 180.328 1.1314 -1.09713 0
M  V30 1810 C 181.291 2.16831 -0.742751 0
M  V30 1811 C 182.291 1.59159 0.229129 0
M  V30 1812 O 183.481 1.74199 0.00693237 0
M  V30 1813 C 180.613 3.40756 -0.0989168 0
M  V30 1814 H 181.806 2.49695 -1.66109 0
M  V30 1815 H 179.359 1.2802 -0.896699 0
M  V30 1816 H 180.094 3.13485 0.830514 0
M  V30 1817 H 179.879 3.83888 -0.798265 0
M  V30 1818 H 181.369 4.17386 0.133524 0
M  V30 1819 N 181.806 0.884767 1.30421 0
M  V30 1820 C 182.756 0.322846 2.25703 0
M  V30 1821 C 183.74 -0.548582 1.51259 0
M  V30 1822 O 184.932 -0.39304 1.72581 0
M  V30 1823 C 182.061 -0.461787 3.4018 0
M  V30 1824 C 181.147 0.423717 4.21978 0
M  V30 1825 N 181.538 1.52408 4.82292 0
M  V30 1826 C 179.836 0.218795 4.45463 0
M  V30 1827 C 180.537 2.07136 5.43571 0
M  V30 1828 N 179.513 1.36635 5.26148 0
M  V30 1829 H 183.315 1.16363 2.69883 0
M  V30 1830 H 180.829 0.73415 1.44859 0
M  V30 1831 H 182.826 -0.880985 4.07485 0
M  V30 1832 H 181.486 -1.30001 2.9754 0
M  V30 1833 H 182.497 1.90693 4.81515 0
M  V30 1834 H 179.174 -0.582275 4.1342 0
M  V30 1835 H 180.564 2.99538 6.01437 0
M  V30 1836 N 183.284 -1.43765 0.645699 0
M  V30 1837 C 184.247 -2.29163 -0.0409488 0
M  V30 1838 C 185.247 -1.41813 -0.757996 0
M  V30 1839 O 186.437 -1.63527 -0.600382 0
M  V30 1840 C 183.569 -3.23716 -1.06869 0
M  V30 1841 H 184.762 -2.91366 0.710345 0
M  V30 1842 H 182.315 -1.5092 0.406547 0
M  V30 1843 H 183.05 -2.66393 -1.84947 0
M  V30 1844 H 182.835 -3.88105 -0.558277 0
M  V30 1845 H 184.325 -3.87831 -1.54845 0
M  V30 1846 N 184.763 -0.387143 -1.52771 0
M  V30 1847 C 186.011 0.195349 -2.01154 0
M  V30 1848 C 186.332 1.475 -1.27549 0
M  V30 1849 O 185.602 1.91878 -0.394924 0
M  V30 1850 H 184.182 0.075178 -0.743207 0
M  V30 1851 H 186.844 -0.518337 -1.87881 0
M  V30 1852 H 185.94 0.407096 -3.09434 0
M  V30 1853 N 186.241 1.57166 -0.116904 0
M  V30 1854 C 187.487 1.96206 0.536166 0
M  V30 1855 C 187.842 0.99915 1.64422 0
M  V30 1856 O 187.135 0.0288195 1.91578 0
M  V30 1857 C 187.329 3.39508 1.11664 0
M  V30 1858 C 187.158 4.49651 0.0663474 0
M  V30 1859 C 185.928 5.03982 -0.36474 0
M  V30 1860 C 188.126 5.09322 -0.713829 0
M  V30 1861 N 186.108 5.97699 -1.40102 0
M  V30 1862 C 187.479 5.98963 -1.60136 0
M  V30 1863 C 189.534 4.91989 -0.764948 0
M  V30 1864 C 188.237 6.73128 -2.53556 0
M  V30 1865 C 190.263 5.66833 -1.68685 0
M  V30 1866 C 189.625 6.56158 -2.56196 0
M  V30 1867 H 185.724 0.764203 0.165886 0
M  V30 1868 H 188.308 1.93623 -0.204535 0
M  V30 1869 H 186.479 3.42743 1.82707 0
M  V30 1870 H 188.211 3.65677 1.73386 0
M  V30 1871 H 184.966 4.73592 0.027252 0
M  V30 1872 H 185.39 6.49262 -1.91802 0
M  V30 1873 H 190.032 4.22676 -0.102501 0
M  V30 1874 H 187.75 7.41689 -3.20816 0
M  V30 1875 H 191.336 5.55427 -1.73181 0
M  V30 1876 H 190.216 7.13057 -3.26372 0
M  V30 1877 N 187.719 -0.156864 1.56817 0
M  V30 1878 C 189.135 -0.50916 1.5126 0
M  V30 1879 C 189.335 -1.83897 0.823658 0
M  V30 1880 O 188.391 -2.49469 0.390055 0
M  V30 1881 C 189.704 -0.52857 2.96018 0
M  V30 1882 C 191.252 -0.614771 3.06903 0
M  V30 1883 C 191.727 -0.664938 4.53147 0
M  V30 1884 N 193.218 -0.727433 4.57452 0
M  V30 1885 C 193.953 -0.787067 5.67973 0
M  V30 1886 N 193.449 -0.806649 6.88088 0
M  V30 1887 N 195.242 -0.827195 5.5598 0
M  V30 1888 H 187.393 0.714935 2.00006 0
M  V30 1889 H 189.656 0.259526 0.911784 0
M  V30 1890 H 189.362 0.380154 3.49639 0
M  V30 1891 H 189.236 -1.36998 3.51442 0
M  V30 1892 H 191.623 -1.51392 2.53307 0
M  V30 1893 H 191.704 0.253597 2.5454 0
M  V30 1894 H 191.348 0.230011 5.07379 0
M  V30 1895 H 191.278 -1.54966 5.03282 0
M  V30 1896 H 193.769 -0.719998 3.70978 0
M  V30 1897 H 194.082 -0.853727 7.6807 0
M  V30 1898 H 192.427 -0.774687 6.90669 0
M  V30 1899 H 195.618 -0.808998 4.61056 0
M  V30 1900 H 195.791 -0.870206 6.4213 0
M  V30 1901 N 189.197 -1.51736 -0.425897 0
M  V30 1902 C 190.445 -1.64644 -1.17204 0
M  V30 1903 C 190.766 -0.370486 -1.91448 0
M  V30 1904 O 190.036 0.614088 -1.86026 0
M  V30 1905 H 188.616 -0.606819 -0.435638 0
M  V30 1906 H 191.278 -1.88713 -0.487177 0
M  V30 1907 H 190.374 -2.47958 -1.89534 0
M  V30 1908 N 190.675 0.682077 -1.42076 0
M  V30 1909 C 191.605 1.80796 -1.47767 0
M  V30 1910 C 192.586 1.6677 -0.334954 0
M  V30 1911 O 193.771 1.863 -0.548264 0
M  V30 1912 C 190.901 3.19038 -1.37229 0
M  V30 1913 C 189.855 3.47789 -2.49453 0
M  V30 1914 C 189.181 4.8553 -2.23975 0
M  V30 1915 C 190.481 3.45411 -3.91776 0
M  V30 1916 H 192.175 1.7629 -2.41997 0
M  V30 1917 H 189.721 0.846721 -1.16476 0
M  V30 1918 H 191.674 3.97528 -1.39821 0
M  V30 1919 H 190.398 3.24204 -0.394907 0
M  V30 1920 H 189.057 2.71657 -2.46166 0
M  V30 1921 H 188.705 4.87337 -1.24547 0
M  V30 1922 H 188.405 5.0573 -2.99184 0
M  V30 1923 H 189.929 5.66312 -2.28304 0
M  V30 1924 H 191.343 4.13882 -3.96705 0
M  V30 1925 H 189.74 3.77145 -4.66778 0
M  V30 1926 H 190.81 2.44122 -4.18966 0
M  V30 1927 N 192.153 1.28127 0.917671 0
M  V30 1928 C 193.393 1.163 1.68088 0
M  V30 1929 C 193.757 -0.284515 1.8988 0
M  V30 1930 O 194.958 -0.525413 2.63615 0
M  V30 1931 C 193.229 1.93546 3.00457 0
M  V30 1932 S 194.788 1.98048 3.91564 0
M  V30 1933 H 191.606 0.415005 0.577315 0
M  V30 1934 H 194.208 1.62173 1.09179 0
M  V30 1935 H 192.912 2.97888 2.82295 0
M  V30 1936 H 192.443 1.48207 3.64415 0
M  V30 1937 H 194.458 1.08415 4.84211 0
M  V30 1938 N 193.631 -1.12557 1.10312 0
M  V30 1939 C 194.594 -2.16434 0.75424 0
M  V30 1940 C 195.594 -1.59278 -0.220685 0
M  V30 1941 O 196.784 -1.742 0.00230591 0
M  V30 1942 C 193.916 -3.40699 0.116987 0
M  V30 1943 H 195.109 -2.48811 1.67431 0
M  V30 1944 H 192.662 -1.27542 0.903475 0
M  V30 1945 H 193.397 -3.13921 -0.813877 0
M  V30 1946 H 193.182 -3.83459 0.818613 0
M  V30 1947 H 194.672 -4.17451 -0.111387 0
M  V30 1948 N 195.109 -0.891671 -1.2995 0
M  V30 1949 C 196.357 -0.512486 -1.95494 0
M  V30 1950 C 196.678 0.942776 -1.70695 0
M  V30 1951 O 195.948 1.66374 -1.03424 0
M  V30 1952 H 194.528 -0.186533 -0.723336 0
M  V30 1953 H 197.19 -1.13621 -1.58355 0
M  V30 1954 H 196.286 -0.688342 -3.04415 0
M  V30 1955 N 196.587 1.43421 -0.653314 0
M  V30 1956 C 197.833 2.02111 -0.166992 0
M  V30 1957 C 198.166 1.51423 1.21592 0
M  V30 1958 O 197.441 0.707389 1.8118 0
M  V30 1959 C 197.724 3.5966 -0.177948 0
M  V30 1960 C 197.577 4.20579 -1.59478 0
M  V30 1961 C 198.896 4.37413 0.4856 0
M  V30 1962 H 196.015 0.734374 -0.0621557 0
M  V30 1963 H 198.657 1.70717 -0.834016 0
M  V30 1964 H 196.807 3.86537 0.390032 0
M  V30 1965 H 198.479 4.04732 -2.21336 0
M  V30 1966 H 196.722 3.77226 -2.14204 0
M  V30 1967 H 197.393 5.29665 -1.5543 0
M  V30 1968 H 199.869 4.161 0.00234528 0
M  V30 1969 H 198.745 5.47075 0.447207 0
M  V30 1970 H 199.006 4.13672 1.55974 0
M  V30 1971 N 198.065 0.39524 1.52563 0
M  V30 1972 C 198.995 -0.428384 2.29537 0
M  V30 1973 C 199.976 -1.05831 1.33169 0
M  V30 1974 O 201.161 -1.06995 1.62067 0
M  V30 1975 C 198.291 -1.55274 3.10656 0
M  V30 1976 C 197.245 -1.04855 4.14957 0
M  V30 1977 C 196.571 -2.26543 4.84337 0
M  V30 1978 C 197.871 -0.112324 5.22179 0
M  V30 1979 H 199.565 0.213867 2.98635 0
M  V30 1980 H 197.111 0.104298 1.43622 0
M  V30 1981 H 199.064 -2.1358 3.63265 0
M  V30 1982 H 197.788 -2.22266 2.39302 0
M  V30 1983 H 196.447 -0.487985 3.63338 0
M  V30 1984 H 196.095 -2.92059 4.09525 0
M  V30 1985 H 195.795 -1.93466 5.54837 0
M  V30 1986 H 197.319 -2.85481 5.39753 0
M  V30 1987 H 198.733 -0.603752 5.70112 0
M  V30 1988 H 197.13 0.128968 5.99961 0
M  V30 1989 H 198.2 0.837052 4.77621 0
M  V30 1990 N 199.544 -1.57102 0.125237 0
M  V30 1991 C 200.454 -2.19191 -0.8362 0
M  V30 1992 C 201.47 -1.16985 -1.28805 0
M  V30 1993 O 202.646 -1.49479 -1.34974 0
M  V30 1994 C 199.711 -2.78407 -2.06617 0
M  V30 1995 C 198.772 -3.9567 -1.66565 0
M  V30 1996 C 198.005 -4.52052 -2.83698 0
M  V30 1997 O 198.228 -4.07326 -3.99302 0
M  V30 1998 O 197.162 -5.42645 -2.60423 0
M  V30 1999 H 200.988 -3.01816 -0.337776 0
M  V30 2000 H 198.573 -1.4906 -0.100695 0
M  V30 2001 H 200.455 -3.16129 -2.7864 0
M  V30 2002 H 199.13 -1.9881 -2.55453 0
M  V30 2003 H 198.037 -3.62705 -0.916296 0
M  V30 2004 H 199.37 -4.76722 -1.22464 0
M  V30 2005 N 201.022 0.148545 -1.56898 0
M  V30 2006 C 201.932 1.20293 -2.01412 0
M  V30 2007 C 202.948 1.47107 -0.929273 0
M  V30 2008 O 204.124 1.58807 -1.23863 0
M  V30 2009 C 201.189 2.51682 -2.38447 0
M  V30 2010 C 200.25 2.32529 -3.60872 0
M  V30 2011 C 199.483 3.57653 -3.96132 0
M  V30 2012 O 199.706 4.63771 -3.32073 0
M  V30 2013 O 198.64 3.50408 -4.89385 0
M  V30 2014 H 202.466 0.855025 -2.91416 0
M  V30 2015 H 200.051 0.357151 -1.45068 0
M  V30 2016 H 201.933 3.29147 -2.63135 0
M  V30 2017 H 200.608 2.86006 -1.51599 0
M  V30 2018 H 199.515 1.53019 -3.41373 0
M  V30 2019 H 200.848 2.03121 -4.48333 0
M  V30 2020 N 202.5 1.5196 0.417844 0
M  V30 2021 C 203.728 1.69426 1.18753 0
M  V30 2022 C 204.143 0.399955 1.84515 0
M  V30 2023 O 203.5 -0.623288 1.71527 0
M  V30 2024 C 203.551 2.82375 2.25714 0
M  V30 2025 O 203.272 4.06793 1.62638 0
M  V30 2026 C 204.773 3.11277 3.15628 0
M  V30 2027 H 201.993 0.568031 0.357186 0
M  V30 2028 H 204.537 1.98475 0.49273 0
M  V30 2029 H 202.692 2.5587 2.90877 0
M  V30 2030 H 203.106 4.69667 2.3348 0
M  V30 2031 H 204.58 3.93843 3.86771 0
M  V30 2032 H 205.057 2.24473 3.77503 0
M  V30 2033 H 205.663 3.39515 2.56144 0
M  V30 2034 N 203.978 -0.674533 1.42435 0
M  V30 2035 C 205.224 -1.43671 1.43131 0
M  V30 2036 C 205.557 -1.94142 0.0476021 0
M  V30 2037 O 204.832 -1.70924 -0.928188 0
M  V30 2038 C 205.115 -2.63355 2.45594 0
M  V30 2039 C 204.968 -2.18514 3.93156 0
M  V30 2040 C 206.287 -3.65571 2.45043 0
M  V30 2041 H 203.406 -0.521077 0.521198 0
M  V30 2042 H 206.048 -0.766551 1.7385 0
M  V30 2043 H 204.198 -3.2053 2.19528 0
M  V30 2044 H 205.87 -1.66504 4.30202 0
M  V30 2045 H 204.113 -1.50086 4.07009 0
M  V30 2046 H 204.784 -3.04484 4.60428 0
M  V30 2047 H 207.26 -3.18113 2.68223 0
M  V30 2048 H 206.136 -4.46893 3.18713 0
M  V30 2049 H 206.397 -4.16716 1.47649 0
M  V30 2050 N 205.456 -1.28612 -0.910864 0
M  V30 2051 C 206.681 -1.1891 -1.69927 0
M  V30 2052 C 207.106 0.248372 -1.86453 0
M  V30 2053 O 206.464 1.17961 -1.37676 0
M  V30 2054 C 206.512 -1.89578 -3.06745 0
M  V30 2055 O 205.616 -1.20521 -3.94396 0
M  V30 2056 H 204.957 -0.412632 -0.520222 0
M  V30 2057 H 207.487 -1.69985 -1.1387 0
M  V30 2058 H 207.497 -1.97597 -3.56958 0
M  V30 2059 H 206.172 -2.94136 -2.94035 0
M  V30 2060 H 204.749 -1.20684 -3.52831 0
M  V30 2061 N 206.934 1.1197 -1.10907 0
M  V30 2062 C 208.174 1.85224 -0.864378 0
M  V30 2063 C 208.538 1.82411 0.599178 0
M  V30 2064 O 209.739 2.51057 0.960416 0
M  V30 2065 C 208.01 3.2868 -1.40371 0
M  V30 2066 S 209.569 4.1925 -1.29518 0
M  V30 2067 H 206.387 0.63878 -0.312219 0
M  V30 2068 H 208.989 1.3485 -1.41548 0
M  V30 2069 H 207.693 3.28289 -2.46281 0
M  V30 2070 H 207.224 3.84121 -0.849402 0
M  V30 2071 H 209.239 4.95539 -0.256059 0
M  V30 2072 N 208.412 0.89855 1.29475 0
M  V30 2073 C 209.659 0.523882 1.95606 0
M  V30 2074 C 209.987 -0.929608 1.70847 0
M  V30 2075 O 209.242 -1.67401 1.01367 0
M  V30 2076 C 209.541 0.761398 3.49195 0
M  V30 2077 C 209.207 2.19207 3.94029 0
M  V30 2078 C 207.869 2.58326 4.05982 0
M  V30 2079 C 210.221 3.12379 4.17216 0
M  V30 2080 C 207.549 3.898 4.38489 0
M  V30 2081 C 209.901 4.43401 4.51197 0
M  V30 2082 C 208.565 4.82394 4.61359 0
M  V30 2083 H 207.835 0.191702 0.715773 0
M  V30 2084 H 210.482 1.13699 1.54094 0
M  V30 2085 H 208.787 0.0653622 3.91745 0
M  V30 2086 H 210.484 0.450904 3.98457 0
M  V30 2087 H 207.074 1.87846 3.85242 0
M  V30 2088 H 211.258 2.83371 4.07449 0
M  V30 2089 H 206.514 4.19734 4.44559 0
M  V30 2090 H 210.688 5.15623 4.68087 0
M  V30 2091 H 208.315 5.84306 4.86303 0
M  V30 2092 N 209.89 -1.43072 0.660911 0
M  V30 2093 C 210.853 -2.29194 -0.0166406 0
M  V30 2094 C 211.853 -1.42609 -0.742912 0
M  V30 2095 O 213.043 -1.64155 -0.583004 0
M  V30 2096 C 210.175 -3.24831 -1.0343 0
M  V30 2097 H 211.368 -2.90596 0.741208 0
M  V30 2098 H 208.921 -1.5048 0.422532 0
M  V30 2099 H 209.656 -2.68339 -1.82111 0
M  V30 2100 H 209.441 -3.88676 -0.517082 0
M  V30 2101 H 210.931 -3.89451 -1.50723 0
M  V30 2102 N 211.368 -0.403325 -1.52352 0
M  V30 2103 C 212.645 0.232611 -1.94212 0
M  V30 2104 C 213.025 1.63133 -1.33981 0
M  V30 2105 O 212.373 2.22659 -0.513344 0
M  V30 2106 C 212.583 0.244811 -3.4814 0
M  V30 2107 C 213.931 0.46698 -4.22024 0
M  V30 2108 O 214.955 0.324419 -3.5472 0
M  V30 2109 O 213.814 0.74747 -5.41364 0
M  V30 2110 H 210.908 0.148223 -0.813609 0
M  V30 2111 H 213.454 -0.458848 -1.63379 0
M  V30 2112 H 212.226 -0.734378 -3.84347 0
M  V30 2113 H 211.849 0.980611 -3.85318 0
M  V30 2114 N 212.846 1.57033 -0.133567 0
M  V30 2115 C 213.794 2.17348 0.828412 0
M  V30 2116 C 214.788 1.12671 1.26498 0
M  V30 2117 O 215.994 1.30947 1.23502 0
M  V30 2118 H 212.369 0.695775 0.285309 0
M  V30 2119 H 214.34 2.96935 0.295372 0
M  V30 2120 C 213.089 2.79893 2.06289 0
M  V30 2121 H 212.412 3.60147 1.73592 0
M  V30 2122 H 213.852 3.25615 2.71572 0
M  V30 2123 C 212.311 1.77713 2.86216 0
M  V30 2124 O 212.841 1.23937 3.82103 0
M  V30 2125 N 211.047 1.47321 2.50489 0
M  V30 2126 H 210.594 1.91243 1.7258 0
M  V30 2127 H 210.552 0.79199 3.04261 0
M  V30 2128 N 214.325 -0.140222 1.56975 0
M  V30 2129 C 215.736 -0.699596 1.73097 0
M  V30 2130 C 216.087 -1.8134 0.749022 0
M  V30 2131 O 215.212 -2.16241 -0.0828503 0
M  V30 2132 C 215.807 -1.27582 3.1386 0
M  V30 2133 C 214.366 -1.78169 3.31561 0
M  V30 2134 C 213.513 -0.672855 2.69013 0
M  V30 2135 H 216.464 0.0855115 1.58469 0
M  V30 2136 H 216.485 -2.14561 3.14235 0
M  V30 2137 H 215.997 -0.464955 3.85305 0
M  V30 2138 H 214.098 -2.61801 2.65124 0
M  V30 2139 H 214.211 -1.90574 4.39566 0
M  V30 2140 H 212.575 -1.10118 2.29665 0
M  V30 2141 H 213.358 0.126679 3.43066 0
M  V30 2142 N 215.803 -1.52179 -0.40978 0
M  V30 2143 C 216.713 -1.78364 -1.52392 0
M  V30 2144 C 217.729 -0.669183 -1.60617 0
M  V30 2145 O 218.905 -0.954518 -1.77344 0
M  V30 2146 C 215.97 -1.92822 -2.88133 0
M  V30 2147 C 215.031 -3.16725 -2.898 0
M  V30 2148 C 214.264 -3.30483 -4.19067 0
M  V30 2149 O 214.487 -2.49522 -5.12928 0
M  V30 2150 O 213.421 -4.2363 -4.27576 0
M  V30 2151 H 217.247 -2.72931 -1.33201 0
M  V30 2152 H 214.832 -1.37016 -0.59557 0
M  V30 2153 H 216.714 -2.04157 -3.68643 0
M  V30 2154 H 215.389 -1.01444 -3.07393 0
M  V30 2155 H 214.296 -3.10848 -2.08146 0
M  V30 2156 H 215.629 -4.07881 -2.75489 0
M  V30 2157 N 217.281 0.66697 -1.42791 0
M  V30 2158 C 218.229 1.80157 -1.47127 0
M  V30 2159 C 219.223 1.65825 -0.346199 0
M  V30 2160 O 220.429 1.72338 -0.519572 0
M  V30 2161 H 216.804 0.594158 -0.460956 0
M  V30 2162 H 218.775 1.73619 -2.42692 0
M  V30 2163 C 217.524 3.18351 -1.39813 0
M  V30 2164 H 216.847 3.3001 -2.25684 0
M  V30 2165 H 218.287 3.97736 -1.46908 0
M  V30 2166 C 216.746 3.36707 -0.11391 0
M  V30 2167 O 217.276 3.93027 0.830241 0
M  V30 2168 N 215.482 2.90586 -0.0285295 0
M  V30 2169 H 215.029 2.4494 -0.79764 0
M  V30 2170 H 214.987 3.03245 0.830063 0
M  V30 2171 N 218.759 1.29093 0.90403 0
M  V30 2172 C 220.008 1.16187 1.64874 0
M  V30 2173 C 220.321 -0.286742 1.93487 0
M  V30 2174 O 221.527 -0.537062 2.66135 0
M  V30 2175 C 219.983 2.03177 2.97064 0
M  V30 2176 C 219.591 3.52836 2.76062 0
M  V30 2177 C 221.335 1.98984 3.74974 0
M  V30 2178 C 219.242 4.31945 4.03952 0
M  V30 2179 H 218.172 0.431246 0.618501 0
M  V30 2180 H 220.823 1.53699 1.00243 0
M  V30 2181 H 219.205 1.5853 3.62883 0
M  V30 2182 H 220.379 4.05507 2.18863 0
M  V30 2183 H 218.694 3.58656 2.11553 0
M  V30 2184 H 221.291 2.55351 4.69787 0
M  V30 2185 H 221.634 0.968815 4.0487 0
M  V30 2186 H 222.167 2.41652 3.15989 0
M  V30 2187 H 218.906 5.34667 3.79225 0
M  V30 2188 H 218.426 3.84045 4.60727 0
M  V30 2189 H 220.105 4.42379 4.72133 0
M  V30 2190 N 220.237 -1.11381 1.11499 0
M  V30 2191 C 221.167 -2.19509 0.796125 0
M  V30 2192 C 222.148 -1.68458 -0.235796 0
M  V30 2193 O 223.333 -1.93947 -0.0991344 0
M  V30 2194 C 220.463 -3.46475 0.239205 0
M  V30 2195 C 219.417 -4.10744 1.20307 0
M  V30 2196 C 218.743 -5.32293 0.50683 0
M  V30 2197 C 220.043 -4.55597 2.55399 0
M  V30 2198 H 221.737 -2.46439 1.70024 0
M  V30 2199 H 219.283 -1.18446 0.818935 0
M  V30 2200 H 221.236 -4.214 0.00392006 0
M  V30 2201 H 219.96 -3.19006 -0.700206 0
M  V30 2202 H 218.619 -3.37813 1.42399 0
M  V30 2203 H 218.267 -5.01095 -0.437408 0
M  V30 2204 H 217.967 -5.76243 1.1497 0
M  V30 2205 H 219.491 -6.09956 0.280351 0
M  V30 2206 H 220.905 -5.21841 2.37391 0
M  V30 2207 H 219.302 -5.10363 3.15673 0
M  V30 2208 H 220.372 -3.69013 3.14575 0
M  V30 2209 N 221.715 -0.905404 -1.28997 0
M  V30 2210 C 222.678 -0.392253 -2.25819 0
M  V30 2211 C 223.678 0.476753 -1.5357 0
M  V30 2212 O 224.868 0.280994 -1.71919 0
M  V30 2213 C 222 0.438588 -3.38067 0
M  V30 2214 H 223.193 -1.24743 -2.72725 0
M  V30 2215 H 220.746 -0.684051 -1.40536 0
M  V30 2216 H 221.481 1.31352 -2.96508 0
M  V30 2217 H 221.266 -0.184167 -3.91667 0
M  V30 2218 H 222.756 0.78873 -4.10084 0
M  V30 2219 N 223.193 1.4272 -0.668489 0
M  V30 2220 C 224.439 2.02443 -0.197076 0
M  V30 2221 C 224.794 1.51882 1.18109 0
M  V30 2222 O 224.087 0.708618 1.78015 0
M  V30 2223 C 224.281 3.57021 -0.164499 0
M  V30 2224 C 224.11 4.22583 -1.53797 0
M  V30 2225 C 222.88 4.58019 -2.13416 0
M  V30 2226 C 225.078 4.50588 -2.47941 0
M  V30 2227 N 223.06 5.08729 -3.4361 0
M  V30 2228 C 224.431 5.02782 -3.62782 0
M  V30 2229 C 226.486 4.32571 -2.46551 0
M  V30 2230 C 225.189 5.38852 -4.76478 0
M  V30 2231 C 227.215 4.69713 -3.59338 0
M  V30 2232 C 226.577 5.22053 -4.72906 0
M  V30 2233 H 222.676 0.773214 -0.116894 0
M  V30 2234 H 225.26 1.73673 -0.880108 0
M  V30 2235 H 223.431 3.85323 0.487925 0
M  V30 2236 H 225.163 4.03439 0.319207 0
M  V30 2237 H 221.918 4.43566 -1.65969 0
M  V30 2238 H 222.342 5.38521 -4.10273 0
M  V30 2239 H 226.984 3.91365 -1.59978 0
M  V30 2240 H 224.702 5.78993 -5.63731 0
M  V30 2241 H 228.288 4.57454 -3.59482 0
M  V30 2242 H 227.168 5.50258 -5.58736 0
M  V30 2243 N 224.671 0.411399 1.52136 0
M  V30 2244 C 225.601 -0.404015 2.29978 0
M  V30 2245 C 226.582 -1.04412 1.34284 0
M  V30 2246 O 227.767 -1.0527 1.63192 0
M  V30 2247 C 224.897 -1.5197 3.12286 0
M  V30 2248 C 223.851 -1.00448 4.16046 0
M  V30 2249 C 223.177 -2.21393 4.86712 0
M  V30 2250 C 224.477 -0.0569336 5.22269 0
M  V30 2251 H 226.171 0.245529 2.98392 0
M  V30 2252 H 223.717 0.119525 1.43503 0
M  V30 2253 H 225.67 -2.09715 3.6551 0
M  V30 2254 H 224.394 -2.19716 2.41646 0
M  V30 2255 H 223.053 -0.449421 3.63835 0
M  V30 2256 H 222.701 -2.87699 4.12599 0
M  V30 2257 H 222.401 -1.87571 5.56858 0
M  V30 2258 H 223.925 -2.7974 5.4275 0
M  V30 2259 H 225.339 -0.54325 5.7072 0
M  V30 2260 H 223.736 0.192594 5.99791 0
M  V30 2261 H 224.806 0.887663 4.76706 0
M  V30 2262 N 226.149 -1.5696 0.141893 0
M  V30 2263 C 227.397 -1.95573 -0.509484 0
M  V30 2264 C 227.718 -1.02746 -1.65736 0
M  V30 2265 O 226.988 -0.0880311 -1.95702 0
M  V30 2266 H 225.568 -0.722115 -0.191205 0
M  V30 2267 H 228.23 -1.93697 0.216196 0
M  V30 2268 H 227.326 -2.99171 -0.889 0
M  V30 2269 N 227.627 0.131896 -1.57047 0
M  V30 2270 C 229.038 0.690407 -1.73465 0
M  V30 2271 C 229.389 1.8094 -0.758629 0
M  V30 2272 O 228.514 2.16282 0.0713813 0
M  V30 2273 C 229.109 1.25916 -3.14532 0
M  V30 2274 C 227.668 1.76409 -3.32501 0
M  V30 2275 C 226.815 0.658579 -2.69366 0
M  V30 2276 H 229.766 -0.0939144 -1.58422 0
M  V30 2277 H 229.787 2.12892 -3.15369 0
M  V30 2278 H 229.299 0.444515 -3.85546 0
M  V30 2279 H 227.4 2.60391 -2.66509 0
M  V30 2280 H 227.513 1.88241 -4.4057 0
M  V30 2281 H 225.877 1.08899 -2.30246 0
M  V30 2282 H 226.66 -0.14487 -3.42994 0
M  V30 2283 N 229.106 1.52395 0.401703 0
M  V30 2284 C 230.069 1.75636 1.47257 0
M  V30 2285 C 231.069 0.62628 1.48103 0
M  V30 2286 O 232.259 0.894227 1.49497 0
M  V30 2287 C 229.391 1.84553 2.86624 0
M  V30 2288 H 230.584 2.71241 1.27938 0
M  V30 2289 H 228.137 1.42923 0.632662 0
M  V30 2290 H 228.872 0.908882 3.11303 0
M  V30 2291 H 228.657 2.66715 2.87412 0
M  V30 2292 H 230.147 2.04251 3.64241 0
M  V30 2293 N 230.584 -0.659388 1.43143 0
M  V30 2294 C 231.833 -1.41518 1.43721 0
M  V30 2295 C 232.146 -1.95499 0.0628176 0
M  V30 2296 O 233.352 -2.71446 -0.0539683 0
M  V30 2297 C 231.808 -2.5608 2.52885 0
M  V30 2298 C 231.416 -2.08733 3.96402 0
M  V30 2299 C 233.16 -3.3349 2.62649 0
M  V30 2300 C 231.067 -3.20469 4.97045 0
M  V30 2301 H 229.997 -0.531705 0.534608 0
M  V30 2302 H 232.648 -0.712343 1.69109 0
M  V30 2303 H 231.03 -3.28805 2.20688 0
M  V30 2304 H 232.204 -1.43059 4.3803 0
M  V30 2305 H 230.519 -1.44219 3.90627 0
M  V30 2306 H 233.116 -4.16734 3.35017 0
M  V30 2307 H 233.459 -3.8111 1.67513 0
M  V30 2308 H 233.992 -2.67842 2.94118 0
M  V30 2309 H 230.731 -2.77824 5.93712 0
M  V30 2310 H 230.251 -3.84874 4.60034 0
M  V30 2311 H 231.93 -3.85698 5.19467 0
M  V30 2312 N 232.062 -1.29571 -0.897171 0
M  V30 2313 C 233.31 -1.17456 -1.64464 0
M  V30 2314 C 233.631 0.273698 -1.9307 0
M  V30 2315 O 232.901 1.18684 -1.55855 0
M  V30 2316 H 231.481 -0.431706 -0.609622 0
M  V30 2317 H 234.143 -1.62531 -1.07562 0
M  V30 2318 H 233.239 -1.72648 -2.59998 0
M  V30 2319 N 233.54 1.10788 -1.12088 0
M  V30 2320 C 234.951 1.64181 -0.88891 0
M  V30 2321 C 235.302 1.87508 0.577498 0
M  V30 2322 O 234.427 1.61434 1.44112 0
M  V30 2323 C 235.022 2.98257 -1.60712 0
M  V30 2324 C 233.581 3.4853 -1.42139 0
M  V30 2325 C 232.728 2.23208 -1.6454 0
M  V30 2326 H 235.679 0.943368 -1.27618 0
M  V30 2327 H 235.7 3.65552 -1.05604 0
M  V30 2328 H 235.212 2.81246 -2.67436 0
M  V30 2329 H 233.313 3.70692 -0.376552 0
M  V30 2330 H 233.426 4.26882 -2.17505 0
M  V30 2331 H 231.79 2.31169 -1.06925 0
M  V30 2332 H 232.573 2.08733 -2.72554 0
M  V30 2333 N 235.018 0.912232 1.28515 0
M  V30 2334 C 236.434 0.610159 1.47476 0
M  V30 2335 C 236.634 -0.844955 1.82928 0
M  V30 2336 O 235.69 -1.62416 1.93332 0
M  V30 2337 C 237.003 1.54675 2.57868 0
M  V30 2338 C 238.551 1.55331 2.71738 0
M  V30 2339 C 239.026 2.47649 3.85272 0
M  V30 2340 N 240.517 2.45767 3.92623 0
M  V30 2341 C 241.252 3.13896 4.79851 0
M  V30 2342 N 240.748 3.9135 5.71679 0
M  V30 2343 N 242.541 3.02991 4.73448 0
M  V30 2344 H 234.692 1.85318 1.03783 0
M  V30 2345 H 236.955 0.794777 0.516753 0
M  V30 2346 H 236.661 2.5841 2.38574 0
M  V30 2347 H 236.535 1.27671 3.54937 0
M  V30 2348 H 238.922 0.52335 2.90422 0
M  V30 2349 H 239.003 1.86378 1.75205 0
M  V30 2350 H 238.647 3.50745 3.67342 0
M  V30 2351 H 238.577 2.13904 4.81199 0
M  V30 2352 H 241.068 1.89503 3.26951 0
M  V30 2353 H 241.381 4.40359 6.35062 0
M  V30 2354 H 239.726 3.95455 5.71524 0
M  V30 2355 H 242.917 2.41987 4.007 0
M  V30 2356 H 243.09 3.5636 5.41213 0
M  V30 2357 N 236.496 -1.42363 0.676048 0
M  V30 2358 C 237.459 -2.29199 0.00766941 0
M  V30 2359 C 238.459 -1.43389 -0.727745 0
M  V30 2360 O 239.649 -1.64764 -0.56556 0
M  V30 2361 C 236.781 -3.2591 -0.999785 0
M  V30 2362 H 237.974 -2.89794 0.771988 0
M  V30 2363 H 235.527 -1.50024 0.438468 0
M  V30 2364 H 236.262 -2.70256 -1.79255 0
M  V30 2365 H 236.047 -3.89202 -0.475829 0
M  V30 2366 H 237.537 -3.91028 -1.46583 0
M  V30 2367 N 237.974 -0.419461 -1.51915 0
M  V30 2368 C 239.221 0.152939 -2.01922 0
M  V30 2369 C 239.549 1.4426 -1.30458 0
M  V30 2370 O 238.804 1.91514 -0.402593 0
M  V30 2371 C 239.103 0.437067 -3.54717 0
M  V30 2372 C 238.769 -0.764632 -4.44369 0
M  V30 2373 C 237.431 -1.09423 -4.68594 0
M  V30 2374 C 239.783 -1.56713 -4.97082 0
M  V30 2375 C 237.111 -2.22732 -5.42777 0
M  V30 2376 C 239.463 -2.69107 -5.72507 0
M  V30 2377 C 238.127 -3.02541 -5.95 0
M  V30 2378 H 237.397 0.0559644 -0.738884 0
M  V30 2379 H 240.044 -0.562998 -1.83037 0
M  V30 2380 H 238.349 1.23469 -3.71837 0
M  V30 2381 H 240.046 0.893083 -3.90928 0
M  V30 2382 H 236.636 -0.497775 -4.257 0
M  V30 2383 H 240.82 -1.32571 -4.78266 0
M  V30 2384 H 236.076 -2.48971 -5.58411 0
M  V30 2385 H 240.25 -3.31671 -6.12346 0
M  V30 2386 H 237.877 -3.90457 -6.52264 0
M  V30 2387 N 239.452 1.56882 -0.150215 0
M  V30 2388 C 240.362 2.20494 0.801222 0
M  V30 2389 C 241.378 1.19019 1.26927 0
M  V30 2390 O 242.554 1.51607 1.32579 0
M  V30 2391 C 239.619 2.81659 2.02161 0
M  V30 2392 C 238.68 3.9827 1.60249 0
M  V30 2393 C 237.913 4.56508 2.7647 0
M  V30 2394 O 238.136 4.13627 3.92771 0
M  V30 2395 O 237.07 5.46719 2.51757 0
M  V30 2396 H 240.896 3.02315 0.289717 0
M  V30 2397 H 238.481 1.49202 0.0769684 0
M  V30 2398 H 240.363 3.20522 2.73576 0
M  V30 2399 H 239.038 2.02849 2.52258 0
M  V30 2400 H 237.945 3.64117 0.858477 0
M  V30 2401 H 239.278 4.78609 1.14864 0
M  V30 2402 N 240.93 -0.123565 1.57115 0
M  V30 2403 C 242.176 -0.833386 1.84885 0
M  V30 2404 C 242.509 -1.79742 0.735292 0
M  V30 2405 O 241.784 -1.92764 -0.25925 0
M  V30 2406 C 242.067 -1.5873 3.23228 0
M  V30 2407 C 241.92 -0.643183 4.45178 0
M  V30 2408 C 243.239 -2.54453 3.59085 0
M  V30 2409 H 240.358 -0.301518 0.6725 0
M  V30 2410 H 243 -0.097778 1.89748 0
M  V30 2411 H 241.15 -2.21438 3.19214 0
M  V30 2412 H 242.822 -0.0253015 4.61293 0
M  V30 2413 H 241.065 0.0456139 4.33776 0
M  V30 2414 H 241.736 -1.20724 5.38637 0
M  V30 2415 H 244.212 -2.01853 3.63861 0
M  V30 2416 H 243.088 -3.04238 4.5687 0
M  V30 2417 H 243.349 -3.36906 2.86264 0
M  V30 2418 N 242.408 -1.52605 -0.393616 0
M  V30 2419 C 243.656 -1.67093 -1.13685 0
M  V30 2420 C 243.977 -0.411011 -1.90619 0
M  V30 2421 O 243.247 0.574491 -1.87287 0
M  V30 2422 H 241.827 -0.615923 -0.422668 0
M  V30 2423 H 244.489 -1.89704 -0.447039 0
M  V30 2424 H 243.585 -2.51922 -1.84232 0
M  V30 2425 N 243.887 0.651787 -1.4349 0
M  V30 2426 C 245.135 1.40888 -1.44897 0
M  V30 2427 C 245.456 1.94856 -0.0749086 0
M  V30 2428 O 244.726 1.74518 0.889956 0
M  V30 2429 H 243.306 0.522887 -0.533478 0
M  V30 2430 H 245.968 0.768609 -1.79104 0
M  V30 2431 H 245.064 2.25052 -2.16236 0
M  V30 2432 N 245.365 1.30045 0.890287 0
M  V30 2433 C 246.275 1.17885 2.02831 0
M  V30 2434 C 247.291 0.0999609 1.73713 0
M  V30 2435 O 248.467 0.313867 1.98939 0
M  V30 2436 C 245.532 0.866079 3.35708 0
M  V30 2437 C 244.593 2.02979 3.78283 0
M  V30 2438 C 243.826 1.73184 5.0482 0
M  V30 2439 O 244.049 0.657237 5.66601 0
M  V30 2440 O 242.983 2.58267 5.43674 0
M  V30 2441 H 246.809 2.13474 2.16015 0
M  V30 2442 H 244.394 1.09587 1.01543 0
M  V30 2443 H 246.276 0.706623 4.15433 0
M  V30 2444 H 244.951 -0.0599443 3.23644 0
M  V30 2445 H 243.858 2.24454 2.99285 0
M  V30 2446 H 245.191 2.93734 3.94944 0
M  V30 2447 N 246.843 -1.10192 1.12674 0
M  V30 2448 C 248.089 -1.82475 0.884915 0
M  V30 2449 C 248.422 -1.85093 -0.58773 0
M  V30 2450 O 247.697 -1.3134 -1.43457 0
M  V30 2451 C 247.98 -3.29018 1.46353 0
M  V30 2452 C 247.833 -3.34718 3.00473 0
M  V30 2453 C 249.152 -4.25473 1.12519 0
M  V30 2454 H 246.271 -0.662492 0.322915 0
M  V30 2455 H 248.913 -1.2913 1.39375 0
M  V30 2456 H 247.063 -3.74576 1.03077 0
M  V30 2457 H 248.735 -2.97622 3.52447 0
M  V30 2458 H 246.978 -2.74541 3.35872 0
M  V30 2459 H 247.649 -4.37918 3.36053 0
M  V30 2460 H 250.125 -3.88161 1.499 0
M  V30 2461 H 249.001 -5.26365 1.55663 0
M  V30 2462 H 249.262 -4.42084 0.0377407 0
M  V30 2463 N 248.321 -0.919034 -1.28029 0
M  V30 2464 C 249.737 -0.617972 -1.4715 0
M  V30 2465 C 249.937 0.835242 -1.83374 0
M  V30 2466 O 248.993 1.61388 -1.94191 0
M  V30 2467 C 250.306 -1.56041 -2.57044 0
M  V30 2468 C 251.854 -1.56769 -2.7091 0
M  V30 2469 C 252.329 -2.49688 -3.83953 0
M  V30 2470 N 253.82 -2.47845 -3.91314 0
M  V30 2471 C 254.555 -3.16437 -4.78179 0
M  V30 2472 N 254.051 -3.94376 -5.69596 0
M  V30 2473 N 255.844 -3.05498 -4.71834 0
M  V30 2474 H 247.995 -1.85866 -1.02798 0
M  V30 2475 H 250.258 -0.797506 -0.512531 0
M  V30 2476 H 249.964 -2.59671 -2.372 0
M  V30 2477 H 249.838 -1.29551 -3.54255 0
M  V30 2478 H 252.225 -0.538745 -2.90141 0
M  V30 2479 H 252.306 -1.87305 -1.74214 0
M  V30 2480 H 251.95 -3.52688 -3.65477 0
M  V30 2481 H 251.88 -2.16453 -4.80058 0
M  V30 2482 H 254.371 -1.91234 -3.25941 0
M  V30 2483 H 254.684 -4.43721 -6.32718 0
M  V30 2484 H 253.029 -3.98481 -5.69419 0
M  V30 2485 H 256.22 -2.44108 -3.99411 0
M  V30 2486 H 256.393 -3.59225 -5.39316 0
M  V30 2487 N 249.799 1.42003 -0.683588 0
M  V30 2488 C 250.709 2.34597 -0.0109075 0
M  V30 2489 C 251.725 1.55576 0.779245 0
M  V30 2490 O 252.901 1.88107 0.719555 0
M  V30 2491 C 249.966 3.34199 0.922588 0
M  V30 2492 C 249.027 4.29115 0.125984 0
M  V30 2493 C 248.26 5.23959 1.01502 0
M  V30 2494 O 248.483 5.23952 2.25456 0
M  V30 2495 O 247.417 6.00053 0.47111 0
M  V30 2496 H 251.243 2.93675 -0.773853 0
M  V30 2497 H 248.828 1.42654 -0.443861 0
M  V30 2498 H 250.71 3.95365 1.45823 0
M  V30 2499 H 249.385 2.77582 1.66523 0
M  V30 2500 H 248.292 3.71335 -0.453969 0
M  V30 2501 H 249.625 4.88798 -0.577736 0
M  V30 2502 N 251.277 0.427512 1.51691 0
M  V30 2503 C 252.24 -0.377132 2.26076 0
M  V30 2504 C 253.24 -0.958089 1.29141 0
M  V30 2505 O 254.43 -0.83408 1.52934 0
M  V30 2506 C 251.562 -1.53262 3.04506 0
M  V30 2507 H 252.755 0.27464 2.9864 0
M  V30 2508 H 250.308 0.180445 1.55255 0
M  V30 2509 H 251.043 -2.22072 2.36335 0
M  V30 2510 H 250.828 -1.12232 3.75694 0
M  V30 2511 H 252.318 -2.10135 3.60878 0
M  V30 2512 N 252.755 -1.56801 0.158532 0
M  V30 2513 C 254.002 -1.9649 -0.489679 0
M  V30 2514 C 254.33 -1.04394 -1.6411 0
M  V30 2515 O 253.585 -0.0754401 -1.95555 0
M  V30 2516 C 253.884 -3.4235 -1.02623 0
M  V30 2517 C 253.55 -4.50899 0.00794526 0
M  V30 2518 C 252.212 -4.80312 0.292207 0
M  V30 2519 C 254.564 -5.16333 0.710584 0
M  V30 2520 C 251.892 -5.72461 1.28472 0
M  V30 2521 C 254.244 -6.09553 1.69199 0
M  V30 2522 C 252.908 -6.37339 1.98383 0
M  V30 2523 H 252.178 -0.719009 -0.179186 0
M  V30 2524 H 254.825 -1.8989 0.247798 0
M  V30 2525 H 253.13 -3.45838 -1.84128 0
M  V30 2526 H 254.827 -3.70393 -1.53656 0
M  V30 2527 H 251.417 -4.28015 -0.22379 0
M  V30 2528 H 255.601 -4.93732 0.504174 0
M  V30 2529 H 250.857 -5.92278 1.51714 0
M  V30 2530 H 255.031 -6.59327 2.24189 0
M  V30 2531 H 252.658 -7.08546 2.7544 0
M  V30 2532 N 254.233 0.115231 -1.57178 0
M  V30 2533 C 255.166 1.17166 -1.95825 0
M  V30 2534 C 256.144 1.39912 -0.828463 0
M  V30 2535 O 257.328 1.54004 -1.08697 0
M  V30 2536 C 254.455 2.52478 -2.25771 0
M  V30 2537 C 253.501 2.46136 -3.48309 0
M  V30 2538 S 254.334 1.89736 -5.0076 0
M  V30 2539 C 255.49 3.26713 -5.33863 0
M  V30 2540 H 255.723 0.842103 -2.85124 0
M  V30 2541 H 253.256 0.322136 -1.51002 0
M  V30 2542 H 255.214 3.30332 -2.43702 0
M  V30 2543 H 253.875 2.82609 -1.37079 0
M  V30 2544 H 253.068 3.45819 -3.66641 0
M  V30 2545 H 252.67 1.76404 -3.29784 0
M  V30 2546 H 254.962 4.22935 -5.29275 0
M  V30 2547 H 255.905 3.13205 -6.35065 0
M  V30 2548 H 256.313 3.25316 -4.61335 0
M  V30 2549 N 255.711 1.52812 0.385517 0
M  V30 2550 C 256.674 1.77188 1.45386 0
M  V30 2551 C 257.674 0.641953 1.4743 0
M  V30 2552 O 258.864 0.910033 1.4854 0
M  V30 2553 C 255.996 1.87582 2.8465 0
M  V30 2554 H 257.189 2.72583 1.25054 0
M  V30 2555 H 254.742 1.43586 0.617467 0
M  V30 2556 H 255.477 0.941849 3.10322 0
M  V30 2557 H 255.262 2.69748 2.84567 0
M  V30 2558 H 256.752 2.08102 3.62054 0
M  V30 2559 N 257.189 -0.644168 1.43834 0
M  V30 2560 C 258.435 -1.40603 1.46146 0
M  V30 2561 C 258.768 -1.93997 0.0887717 0
M  V30 2562 O 258.043 -1.72854 -0.891724 0
M  V30 2563 C 258.326 -2.58086 2.51124 0
M  V30 2564 C 258.179 -2.10126 3.97702 0
M  V30 2565 C 259.498 -3.60291 2.52742 0
M  V30 2566 H 256.617 -0.509905 0.532134 0
M  V30 2567 H 259.259 -0.729502 1.75437 0
M  V30 2568 H 257.409 -3.15801 2.26278 0
M  V30 2569 H 259.081 -1.57342 4.33637 0
M  V30 2570 H 257.324 -1.41419 4.10101 0
M  V30 2571 H 257.995 -2.94649 4.66783 0
M  V30 2572 H 260.471 -3.12352 2.7491 0
M  V30 2573 H 259.347 -4.40032 3.28121 0
M  V30 2574 H 259.608 -4.1349 1.56455 0
M  V30 2575 N 258.668 -1.30515 -0.883378 0
M  V30 2576 C 259.945 -1.10086 -1.6168 0
M  V30 2577 C 260.325 0.349269 -2.08191 0
M  V30 2578 O 259.673 1.34105 -1.85008 0
M  V30 2579 C 259.883 -2.10315 -2.78511 0
M  V30 2580 C 261.231 -2.42119 -3.48803 0
M  V30 2581 O 262.255 -2.08638 -2.88702 0
M  V30 2582 O 261.114 -2.99396 -4.57192 0
M  V30 2583 H 258.208 -0.422907 -0.710689 0
M  V30 2584 H 260.754 -1.41947 -0.930015 0
M  V30 2585 H 259.526 -3.07917 -2.41459 0
M  V30 2586 H 259.149 -1.79282 -3.54886 0
M  V30 2587 N 260.146 1.09593 -1.13257 0
M  V30 2588 C 261.109 2.14359 -0.811358 0
M  V30 2589 C 262.109 1.59808 0.178377 0
M  V30 2590 O 263.299 1.74132 -0.0484911 0
M  V30 2591 C 260.431 3.40269 -0.207276 0
M  V30 2592 H 261.624 2.44284 -1.73969 0
M  V30 2593 H 259.177 1.25102 -0.936973 0
M  V30 2594 H 259.912 3.15969 0.73036 0
M  V30 2595 H 259.697 3.81154 -0.919992 0
M  V30 2596 H 261.187 4.176 0.000667944 0
M  V30 2597 N 261.624 0.925811 1.2754 0
M  V30 2598 C 262.571 0.422045 2.26908 0
M  V30 2599 C 263.541 -0.510029 1.58076 0
M  V30 2600 O 264.726 -0.429599 1.85901 0
M  V30 2601 C 261.866 -0.320837 3.43605 0
M  V30 2602 C 260.979 0.64513 4.27156 0
M  V30 2603 C 260.114 -0.117405 5.3107 0
M  V30 2604 C 259.153 0.841391 6.0629 0
M  V30 2605 N 258.29 0.111604 7.02011 0
M  V30 2606 H 263.13 1.27441 2.69375 0
M  V30 2607 H 260.667 0.639697 1.32462 0
M  V30 2608 H 262.625 -0.76785 4.10073 0
M  V30 2609 H 261.255 -1.13745 3.02096 0
M  V30 2610 H 260.307 1.21067 3.6062 0
M  V30 2611 H 261.619 1.37797 4.79389 0
M  V30 2612 H 260.773 -0.624422 6.03478 0
M  V30 2613 H 259.512 -0.883219 4.79636 0
M  V30 2614 H 258.517 1.35967 5.32722 0
M  V30 2615 H 259.742 1.60696 6.59813 0
M  V30 2616 H 257.688 -0.635999 6.5291 0
M  V30 2617 H 257.605 0.784044 7.51923 0
M  V30 2618 H 258.873 -0.374823 7.78598 0
M  V30 2619 N 263.102 -1.41638 0.69111 0
M  V30 2620 C 264.065 -2.29178 0.0319786 0
M  V30 2621 C 265.065 -1.44153 -0.712496 0
M  V30 2622 O 266.255 -1.65354 -0.548053 0
M  V30 2623 C 263.387 -3.26952 -0.965161 0
M  V30 2624 H 264.58 -2.88959 0.802681 0
M  V30 2625 H 262.133 -1.4955 0.454356 0
M  V30 2626 H 262.868 -2.72142 -1.76378 0
M  V30 2627 H 262.653 -3.89685 -0.434522 0
M  V30 2628 H 264.143 -3.92561 -1.42428 0
M  V30 2629 N 264.58 -0.43555 -1.51462 0
M  V30 2630 C 265.805 0.132627 -2.06976 0
M  V30 2631 C 266.23 1.35848 -1.30104 0
M  V30 2632 O 265.588 1.78112 -0.338493 0
M  V30 2633 C 265.636 0.43523 -3.57964 0
M  V30 2634 O 264.74 1.52198 -3.83288 0
M  V30 2635 H 264.081 0.00265 -0.663995 0
M  V30 2636 H 266.611 -0.616369 -1.95095 0
M  V30 2637 H 266.621 0.686206 -4.02188 0
M  V30 2638 H 265.296 -0.460739 -4.1334 0
M  V30 2639 H 263.873 1.2611 -3.50928 0
M  V30 2640 N 266.058 1.56714 -0.166846 0
M  V30 2641 C 267.021 2.16539 0.751232 0
M  V30 2642 C 268.021 1.11228 1.16125 0
M  V30 2643 O 269.211 1.36765 1.07894 0
M  V30 2644 C 266.343 2.74462 2.02196 0
M  V30 2645 H 267.536 2.99013 0.230499 0
M  V30 2646 H 265.089 1.56081 0.0826982 0
M  V30 2647 H 265.824 1.95709 2.58589 0
M  V30 2648 H 265.609 3.51527 1.73698 0
M  V30 2649 H 267.099 3.20489 2.67725 0
M  V30 2650 N 267.536 -0.106894 1.57237 0
M  V30 2651 C 268.499 -1.11466 2.0027 0
M  V30 2652 C 269.499 -1.33623 0.894519 0
M  V30 2653 O 270.689 -1.29935 1.16028 0
M  V30 2654 C 267.821 -2.46646 2.35327 0
M  V30 2655 H 269.014 -0.744516 2.90512 0
M  V30 2656 H 266.567 -0.351576 1.52295 0
M  V30 2657 H 267.302 -2.88558 1.48003 0
M  V30 2658 H 267.087 -2.31915 3.16161 0
M  V30 2659 H 268.577 -3.19151 2.69318 0
M  V30 2660 N 269.014 -1.53014 -0.377408 0
M  V30 2661 C 270.261 -1.68623 -1.12128 0
M  V30 2662 C 270.589 -0.431997 -1.89642 0
M  V30 2663 O 269.844 0.585855 -1.86725 0
M  V30 2664 C 270.143 -2.87982 -2.11663 0
M  V30 2665 C 269.809 -4.24964 -1.50719 0
M  V30 2666 C 268.471 -4.62217 -1.33825 0
M  V30 2667 C 270.823 -5.10199 -1.06519 0
M  V30 2668 C 268.151 -5.82352 -0.712963 0
M  V30 2669 C 270.503 -6.30969 -0.453955 0
M  V30 2670 C 269.167 -6.66944 -0.272411 0
M  V30 2671 H 268.437 -0.617034 -0.410305 0
M  V30 2672 H 271.084 -1.8718 -0.404484 0
M  V30 2673 H 269.389 -2.63889 -2.89603 0
M  V30 2674 H 271.086 -2.97253 -2.6915 0
M  V30 2675 H 267.676 -3.95626 -1.64858 0
M  V30 2676 H 271.86 -4.81978 -1.18368 0
M  V30 2677 H 267.116 -6.08824 -0.560611 0
M  V30 2678 H 271.29 -6.96324 -0.103217 0
M  V30 2679 H 268.917 -7.59898 0.214181 0
M  V30 2680 N 270.492 0.636531 -1.44174 0
M  V30 2681 C 271.741 1.39213 -1.45954 0
M  V30 2682 C 272.054 1.95374 -0.0939119 0
M  V30 2683 O 273.26 2.71498 0.0107767 0
M  V30 2684 C 271.716 2.52025 -2.56927 0
M  V30 2685 C 271.324 2.024 -3.99673 0
M  V30 2686 C 273.068 3.29269 -2.67922 0
M  V30 2687 C 270.975 3.12521 -5.0208 0
M  V30 2688 H 269.905 0.523132 -0.542999 0
M  V30 2689 H 272.556 0.685349 -1.70221 0
M  V30 2690 H 270.938 3.25253 -2.25891 0
M  V30 2691 H 272.112 1.36073 -4.40251 0
M  V30 2692 H 270.427 1.37987 -3.92872 0
M  V30 2693 H 273.024 4.11352 -3.41605 0
M  V30 2694 H 273.367 3.78397 -1.73555 0
M  V30 2695 H 273.9 2.63129 -2.98342 0
M  V30 2696 H 270.639 2.68343 -5.98057 0
M  V30 2697 H 270.159 3.77507 -4.66099 0
M  V30 2698 H 271.838 3.77385 -5.25538 0
M  V30 2699 N 271.97 1.30982 0.876444 0
M  V30 2700 C 272.902 1.13902 1.98894 0
M  V30 2701 C 273.915 0.0798815 1.62604 0
M  V30 2702 O 275.104 0.326743 1.75484 0
M  V30 2703 C 272.204 0.716699 3.31235 0
M  V30 2704 C 271.377 1.85945 3.95908 0
M  V30 2705 C 270.436 1.42426 5.06558 0
M  V30 2706 O 269.462 2.13287 5.27729 0
M  V30 2707 N 270.664 0.308025 5.79682 0
M  V30 2708 H 273.429 2.09724 2.14094 0
M  V30 2709 H 270.99 1.2323 1.05004 0
M  V30 2710 H 272.982 0.408403 4.02634 0
M  V30 2711 H 271.552 -0.149719 3.12241 0
M  V30 2712 H 270.772 2.33541 3.17573 0
M  V30 2713 H 272.06 2.62503 4.35855 0
M  V30 2714 H 271.458 -0.282241 5.64995 0
M  V30 2715 H 270.015 0.0592282 6.51773 0
M  V30 2716 N 273.449 -1.08991 1.13837 0
M  V30 2717 C 274.399 -2.1393 0.788535 0
M  V30 2718 C 275.383 -1.59396 -0.219516 0
M  V30 2719 O 276.575 -1.76985 -0.0227557 0
M  V30 2720 C 273.704 -3.42305 0.261147 0
M  V30 2721 C 272.79 -4.03736 1.29837 0
M  V30 2722 N 273.181 -4.39659 2.50067 0
M  V30 2723 C 271.479 -4.30993 1.1472 0
M  V30 2724 C 272.18 -4.88113 3.16419 0
M  V30 2725 N 271.156 -4.85846 2.43832 0
M  V30 2726 H 274.958 -2.39516 1.70322 0
M  V30 2727 H 272.472 -1.26263 1.02134 0
M  V30 2728 H 274.469 -4.16899 -0.0077405 0
M  V30 2729 H 273.129 -3.18172 -0.647805 0
M  V30 2730 H 274.14 -4.30878 2.8734 0
M  V30 2731 H 270.817 -4.16444 0.296773 0
M  V30 2732 H 272.207 -5.25336 4.18894 0
M  V30 2733 N 274.927 -0.932562 -1.27047 0
M  V30 2734 C 276.175 -0.574422 -1.93765 0
M  V30 2735 C 276.496 0.887993 -1.73608 0
M  V30 2736 O 275.766 1.62999 -1.08665 0
M  V30 2737 H 274.346 -0.209451 -0.717035 0
M  V30 2738 H 277.008 -1.18601 -1.5466 0
M  V30 2739 H 276.104 -0.784841 -3.02071 0
M  V30 2740 N 276.405 1.4127 -0.698611 0
M  V30 2741 C 277.682 1.94955 -0.158762 0
M  V30 2742 C 278.062 1.63781 1.33188 0
M  V30 2743 O 277.41 0.946423 2.07979 0
M  V30 2744 C 277.62 3.46044 -0.453309 0
M  V30 2745 C 278.968 4.22872 -0.382707 0
M  V30 2746 O 279.992 3.54076 -0.388396 0
M  V30 2747 O 278.851 5.45407 -0.345463 0
M  V30 2748 H 275.945 0.82683 -0.0167505 0
M  V30 2749 H 278.491 1.50971 -0.77498 0
M  V30 2750 H 277.263 3.62028 -1.48498 0
M  V30 2751 H 276.886 3.97128 0.19373 0
M  V30 2752 N 277.883 0.443576 1.51229 0
M  V30 2753 C 278.83 -0.364716 2.279 0
M  V30 2754 C 279.8 -1.0114 1.31757 0
M  V30 2755 O 280.985 -1.02912 1.60667 0
M  V30 2756 C 278.125 -1.45644 3.12861 0
M  V30 2757 C 277.238 -0.827269 4.24005 0
M  V30 2758 C 276.373 -1.89456 4.96266 0
M  V30 2759 C 275.412 -1.24416 5.99322 0
M  V30 2760 N 274.549 -2.25309 6.64966 0
M  V30 2761 H 279.389 0.295464 2.96532 0
M  V30 2762 H 276.926 0.157554 1.46254 0
M  V30 2763 H 278.884 -2.10076 3.6045 0
M  V30 2764 H 277.514 -2.08616 2.46331 0
M  V30 2765 H 276.566 -0.0710839 3.80334 0
M  V30 2766 H 277.878 -0.312481 4.9782 0
M  V30 2767 H 277.032 -2.61535 5.47434 0
M  V30 2768 H 275.771 -2.4431 4.22095 0
M  V30 2769 H 274.776 -0.508868 5.4744 0
M  V30 2770 H 276.001 -0.702882 6.75453 0
M  V30 2771 H 273.947 -2.79231 5.93604 0
M  V30 2772 H 273.864 -1.78739 7.34567 0
M  V30 2773 H 275.132 -2.96853 7.20763 0
M  V30 2774 N 279.361 -1.56624 0.175154 0
M  V30 2775 C 280.591 -2.01082 -0.474283 0
M  V30 2776 C 280.999 -1.05447 -1.57091 0
M  V30 2777 O 280.342 -0.0480595 -1.83637 0
M  V30 2778 C 280.404 -3.41963 -1.10911 0
M  V30 2779 C 280.068 -4.56742 -0.153666 0
M  V30 2780 C 281.065 -5.16076 0.629448 0
M  V30 2781 C 278.75 -5.02277 -0.0483776 0
M  V30 2782 C 280.744 -6.19377 1.50501 0
M  V30 2783 C 278.431 -6.05427 0.830768 0
M  V30 2784 C 279.429 -6.63849 1.60605 0
M  V30 2785 O 279.117 -7.64998 2.47049 0
M  V30 2786 H 278.849 -0.664261 -0.125432 0
M  V30 2787 H 281.403 -2.03549 0.275163 0
M  V30 2788 H 279.633 -3.36422 -1.90676 0
M  V30 2789 H 281.322 -3.70352 -1.66114 0
M  V30 2790 H 282.088 -4.81776 0.558297 0
M  V30 2791 H 277.967 -4.56513 -0.641611 0
M  V30 2792 H 281.511 -6.64906 2.1106 0
M  V30 2793 H 277.408 -6.39151 0.903107 0
M  V30 2794 H 278.176 -7.82336 2.40607 0
M  V30 2795 N 280.839 0.0985539 -1.57292 0
M  V30 2796 C 281.769 1.12064 -2.04851 0
M  V30 2797 C 282.75 1.41981 -0.936767 0
M  V30 2798 O 283.935 1.52071 -1.20781 0
M  V30 2799 C 281.065 2.44144 -2.47004 0
M  V30 2800 C 280.019 2.28643 -3.6181 0
M  V30 2801 C 279.345 3.65869 -3.89929 0
M  V30 2802 C 280.645 1.72986 -4.92822 0
M  V30 2803 H 282.339 0.724979 -2.9049 0
M  V30 2804 H 279.885 0.34729 -1.39749 0
M  V30 2805 H 281.838 3.15914 -2.78884 0
M  V30 2806 H 280.562 2.85639 -1.5836 0
M  V30 2807 H 279.221 1.59318 -3.30172 0
M  V30 2808 H 278.869 4.04885 -2.98458 0
M  V30 2809 H 278.569 3.56344 -4.67218 0
M  V30 2810 H 280.093 4.39112 -4.2428 0
M  V30 2811 H 281.507 2.34593 -5.23105 0
M  V30 2812 H 279.904 1.74229 -5.74251 0
M  V30 2813 H 280.974 0.689007 -4.7998 0
M  V30 2814 N 282.317 1.53212 0.369288 0
M  V30 2815 C 283.28 1.7872 1.43498 0
M  V30 2816 C 284.28 0.657554 1.46741 0
M  V30 2817 O 285.47 0.925736 1.47566 0
M  V30 2818 C 282.602 1.90591 2.82645 0
M  V30 2819 H 283.795 2.73894 1.22156 0
M  V30 2820 H 281.348 1.44233 0.602203 0
M  V30 2821 H 282.083 0.974709 3.09306 0
M  V30 2822 H 281.868 2.72751 2.8169 0
M  V30 2823 H 283.358 2.11931 3.59826 0
M  V30 2824 N 283.795 -0.628877 1.44509 0
M  V30 2825 C 285.072 -1.38733 1.37886 0
M  V30 2826 C 285.452 -2.11065 0.0387008 0
M  V30 2827 O 284.8 -2.06476 -0.97878 0
M  V30 2828 C 285.01 -2.35188 2.57852 0
M  V30 2829 C 286.358 -2.9845 3.02014 0
M  V30 2830 O 287.382 -2.45513 2.58073 0
M  V30 2831 O 286.241 -3.94487 3.78209 0
M  V30 2832 H 283.335 -0.621015 0.54614 0
M  V30 2833 H 285.881 -0.653744 1.56602 0
M  V30 2834 H 284.653 -1.80855 3.46998 0
M  V30 2835 H 284.276 -3.1596 2.4136 0
M  V30 2836 N 285.273 -1.31445 -0.869486 0
M  V30 2837 C 286.522 -1.20517 -1.61736 0
M  V30 2838 C 286.835 0.235341 -1.94179 0
M  V30 2839 O 288.041 0.466312 -2.67465 0
M  V30 2840 C 286.497 -2.10982 -2.91573 0
M  V30 2841 C 286.105 -3.60032 -2.66611 0
M  V30 2842 C 287.849 -2.08856 -3.69567 0
M  V30 2843 C 285.756 -4.42503 -3.92358 0
M  V30 2844 H 284.686 -0.447493 -0.606849 0
M  V30 2845 H 287.337 -1.56303 -0.96133 0
M  V30 2846 H 285.719 -1.68095 -3.58553 0
M  V30 2847 H 286.893 -4.11167 -2.08035 0
M  V30 2848 H 285.208 -3.64139 -2.0197 0
M  V30 2849 H 287.805 -2.67716 -4.62852 0
M  V30 2850 H 288.148 -1.07582 -4.02159 0
M  V30 2851 H 288.681 -2.49945 -3.09471 0
M  V30 2852 H 285.42 -5.44533 -3.64916 0
M  V30 2853 H 284.94 -3.96125 -4.50383 0
M  V30 2854 H 286.619 -4.54741 -4.60238 0
M  V30 2855 N 286.751 1.08385 -1.14413 0
M  V30 2856 C 287.981 1.8425 -0.934644 0
M  V30 2857 C 288.389 1.81907 0.520234 0
M  V30 2858 O 287.732 1.22126 1.37226 0
M  V30 2859 C 287.794 3.32853 -1.35828 0
M  V30 2860 C 287.458 3.5893 -2.82875 0
M  V30 2861 C 288.455 3.53756 -3.80989 0
M  V30 2862 C 286.14 3.86934 -3.20293 0
M  V30 2863 C 288.134 3.76216 -5.14529 0
M  V30 2864 C 285.821 4.09047 -4.54008 0
M  V30 2865 C 286.819 4.03682 -5.50936 0
M  V30 2866 O 286.507 4.25214 -6.82238 0
M  V30 2867 H 286.239 0.588502 -0.332628 0
M  V30 2868 H 288.793 1.37792 -1.52324 0
M  V30 2869 H 287.023 3.8007 -0.713019 0
M  V30 2870 H 288.712 3.90154 -1.11957 0
M  V30 2871 H 289.478 3.32135 -3.53428 0
M  V30 2872 H 285.357 3.9023 -2.45442 0
M  V30 2873 H 288.901 3.71943 -5.90173 0
M  V30 2874 H 284.798 4.30151 -4.8129 0
M  V30 2875 H 285.566 4.42619 -6.88499 0
M  V30 2876 N 288.23 0.939286 1.26551 0
M  V30 2877 C 289.162 0.404704 2.25599 0
M  V30 2878 C 290.175 -0.470983 1.55838 0
M  V30 2879 O 291.364 -0.281734 1.76263 0
M  V30 2880 C 288.464 -0.43764 3.36062 0
M  V30 2881 C 287.637 0.421449 4.35365 0
M  V30 2882 C 286.696 -0.36015 5.24966 0
M  V30 2883 O 285.722 0.236167 5.6871 0
M  V30 2884 N 286.924 -1.65715 5.56344 0
M  V30 2885 H 289.689 1.25618 2.72103 0
M  V30 2886 H 287.25 0.807963 1.40298 0
M  V30 2887 H 289.242 -0.967866 3.92956 0
M  V30 2888 H 287.812 -1.18991 2.89067 0
M  V30 2889 H 287.032 1.1329 3.7757 0
M  V30 2890 H 288.32 1.00835 4.98708 0
M  V30 2891 H 287.718 -2.16378 5.22682 0
M  V30 2892 H 286.275 -2.13366 6.15888 0
M  V30 2893 N 289.708 -1.40897 0.706093 0
M  V30 2894 C 290.638 -2.33418 0.0620085 0
M  V30 2895 C 291.619 -1.52385 -0.755827 0
M  V30 2896 O 292.804 -1.80886 -0.706674 0
M  V30 2897 C 289.934 -3.36293 -0.867445 0
M  V30 2898 C 288.888 -4.27716 -0.155932 0
M  V30 2899 C 288.214 -5.2105 -1.20046 0
M  V30 2900 C 289.514 -5.12944 0.984149 0
M  V30 2901 H 291.208 -2.87527 0.83477 0
M  V30 2902 H 288.754 -1.38249 0.402875 0
M  V30 2903 H 290.707 -3.99949 -1.32735 0
M  V30 2904 H 289.431 -2.80556 -1.67199 0
M  V30 2905 H 288.09 -3.65498 0.284047 0
M  V30 2906 H 287.738 -4.61624 -1.99781 0
M  V30 2907 H 287.438 -5.83056 -0.729328 0
M  V30 2908 H 288.962 -5.87584 -1.66066 0
M  V30 2909 H 290.376 -5.70109 0.604048 0
M  V30 2910 H 288.773 -5.83945 1.38304 0
M  V30 2911 H 289.843 -4.49485 1.81911 0
M  V30 2912 N 291.186 -0.45159 -1.50991 0
M  V30 2913 C 292.149 0.341117 -2.26647 0
M  V30 2914 C 293.149 0.937422 -1.30649 0
M  V30 2915 O 294.339 0.809644 -1.54241 0
M  V30 2916 C 291.471 1.48398 -3.06905 0
M  V30 2917 H 292.664 -0.322117 -2.98165 0
M  V30 2918 H 290.217 -0.205122 -1.54948 0
M  V30 2919 H 290.952 2.18284 -2.39838 0
M  V30 2920 H 290.737 1.06241 -3.77432 0
M  V30 2921 H 292.227 2.04367 -3.64176 0
M  V30 2922 N 292.664 1.56529 -0.183458 0
M  V30 2923 C 294.08 1.58664 0.172554 0
M  V30 2924 C 294.28 1.19925 1.61926 0
M  V30 2925 O 293.336 0.916534 2.35278 0
M  V30 2926 C 294.649 3.00463 -0.119262 0
M  V30 2927 C 296.197 3.12945 -0.0584396 0
M  V30 2928 C 296.672 4.56857 -0.323408 0
M  V30 2929 N 298.163 4.62403 -0.271612 0
M  V30 2930 C 298.898 5.71626 -0.450639 0
M  V30 2931 N 298.394 6.89362 -0.689384 0
M  V30 2932 N 300.187 5.60775 -0.385701 0
M  V30 2933 H 292.338 1.79994 -1.12765 0
M  V30 2934 H 294.601 0.834808 -0.449222 0
M  V30 2935 H 294.307 3.33326 -1.12192 0
M  V30 2936 H 294.181 3.72659 0.583544 0
M  V30 2937 H 296.568 2.79902 0.934805 0
M  V30 2938 H 296.649 2.4316 -0.794144 0
M  V30 2939 H 296.293 4.9061 -1.31392 0
M  V30 2940 H 296.223 5.24816 0.43305 0
M  V30 2941 H 298.714 3.77785 -0.0932256 0
M  V30 2942 H 299.027 7.68489 -0.815113 0
M  V30 2943 H 297.372 6.91196 -0.726142 0
M  V30 2944 H 300.563 4.67674 -0.199687 0
M  V30 2945 H 300.736 6.4584 -0.528646 0
M  V30 2946 N 294.142 -0.090211 1.57342 0
M  V30 2947 C 295.074 -1.13541 1.99101 0
M  V30 2948 C 296.087 -1.3604 0.894258 0
M  V30 2949 O 297.276 -1.34606 1.17233 0
M  V30 2950 C 294.376 -2.49001 2.29895 0
M  V30 2951 C 293.549 -2.46712 3.61182 0
M  V30 2952 C 292.608 -3.64136 3.79857 0
M  V30 2953 O 291.634 -3.46405 4.51655 0
M  V30 2954 N 292.836 -4.83802 3.20806 0
M  V30 2955 H 295.601 -0.779942 2.89373 0
M  V30 2956 H 293.162 -0.279125 1.59476 0
M  V30 2957 H 295.154 -3.26166 2.39578 0
M  V30 2958 H 293.724 -2.76619 1.45605 0
M  V30 2959 H 292.944 -1.55058 3.62423 0
M  V30 2960 H 294.232 -2.42265 4.4742 0
M  V30 2961 H 293.63 -5.01112 2.62494 0
M  V30 2962 H 292.187 -5.58543 3.35966 0
M  V30 2963 N 295.62 -1.53406 -0.361157 0
M  V30 2964 C 297.036 -1.43277 -0.703124 0
M  V30 2965 C 297.236 -0.575384 -1.9311 0
M  V30 2966 O 296.292 -0.0595362 -2.5243 0
M  V30 2967 C 297.605 -2.8653 -0.9122 0
M  V30 2968 C 299.153 -2.96191 -1.01193 0
M  V30 2969 C 299.628 -4.40514 -1.25345 0
M  V30 2970 N 301.119 -4.43962 -1.32105 0
M  V30 2971 C 301.854 -5.52746 -1.5251 0
M  V30 2972 N 301.35 -6.71567 -1.70203 0
M  V30 2973 N 303.143 -5.40331 -1.54916 0
M  V30 2974 H 295.294 -2.07654 0.446475 0
M  V30 2975 H 297.557 -0.937944 0.137715 0
M  V30 2976 H 297.263 -3.51605 -0.0816414 0
M  V30 2977 H 297.137 -3.30441 -1.81903 0
M  V30 2978 H 299.524 -2.31266 -1.83303 0
M  V30 2979 H 299.605 -2.55667 -0.0823929 0
M  V30 2980 H 299.249 -5.06014 -0.437346 0
M  V30 2981 H 299.179 -4.78614 -2.19627 0
M  V30 2982 H 301.67 -3.58332 -1.20028 0
M  V30 2983 H 301.983 -7.50241 -1.85359 0
M  V30 2984 H 300.328 -6.74545 -1.67373 0
M  V30 2985 H 303.519 -4.46465 -1.40663 0
M  V30 2986 H 303.692 -6.25173 -1.70477 0
M  V30 2987 N 297.098 0.621204 -1.44841 0
M  V30 2988 C 298.028 1.74366 -1.55303 0
M  V30 2989 C 299.009 1.65199 -0.405385 0
M  V30 2990 O 300.194 1.83807 -0.626787 0
M  V30 2991 C 297.324 3.12931 -1.50637 0
M  V30 2992 C 296.278 3.36896 -2.63979 0
M  V30 2993 C 295.604 4.75594 -2.44366 0
M  V30 2994 C 296.904 3.28483 -4.06074 0
M  V30 2995 H 298.598 1.65867 -2.49256 0
M  V30 2996 H 296.144 0.796558 -1.19962 0
M  V30 2997 H 298.097 3.9124 -1.56555 0
M  V30 2998 H 296.821 3.22237 -0.532057 0
M  V30 2999 H 295.48 2.60972 -2.57467 0
M  V30 3000 H 295.128 4.81616 -1.45105 0
M  V30 3001 H 294.828 4.92586 -3.20364 0
M  V30 3002 H 296.352 5.5612 -2.52117 0
M  V30 3003 H 297.766 3.96684 -4.13902 0
M  V30 3004 H 296.163 3.57008 -4.82354 0
M  V30 3005 H 297.233 2.26133 -4.28943 0
M  V30 3006 N 298.576 1.31904 0.862503 0
M  V30 3007 C 299.539 1.20131 1.95195 0
M  V30 3008 C 300.539 0.126409 1.60302 0
M  V30 3009 O 301.729 0.376234 1.70089 0
M  V30 3010 C 298.861 0.845691 3.30244 0
M  V30 3011 H 300.054 2.16943 2.07064 0
M  V30 3012 H 297.607 1.15622 1.05172 0
M  V30 3013 H 298.342 -0.120957 3.24074 0
M  V30 3014 H 298.127 1.62276 3.56944 0
M  V30 3015 H 299.617 0.787418 4.10109 0
M  V30 3016 N 300.054 -1.07777 1.14986 0
M  V30 3017 C 301.002 -2.16964 0.838406 0
M  V30 3018 C 301.996 -1.68372 -0.186386 0
M  V30 3019 O 303.202 -1.79951 -0.0418465 0
M  V30 3020 H 299.577 -0.708006 0.253439 0
M  V30 3021 H 301.548 -2.40454 1.76704 0
M  V30 3022 C 300.297 -3.4604 0.339335 0
M  V30 3023 H 299.62 -3.83813 1.11927 0
M  V30 3024 H 301.06 -4.23698 0.160021 0
M  V30 3025 C 299.519 -3.23569 -0.938325 0
M  V30 3026 O 300.049 -3.47752 -2.01077 0
M  V30 3027 N 298.255 -2.77079 -0.876117 0
M  V30 3028 H 297.802 -2.576 -0.00322037 0
M  V30 3029 H 297.76 -2.62422 -1.73153 0
M  V30 3030 N 301.532 -0.945985 -1.26051 0
M  V30 3031 C 302.778 -0.597002 -1.93814 0
M  V30 3032 C 303.111 0.862484 -1.73997 0
M  V30 3033 O 302.386 1.61769 -1.07986 0
M  V30 3034 C 302.669 -0.945937 -3.47454 0
M  V30 3035 C 302.522 -2.46052 -3.76535 0
M  V30 3036 C 303.841 -0.464785 -4.37639 0
M  V30 3037 H 300.96 -0.218366 -0.703907 0
M  V30 3038 H 303.602 -1.18107 -1.48831 0
M  V30 3039 H 301.752 -0.448902 -3.85898 0
M  V30 3040 H 303.424 -3.03065 -3.47778 0
M  V30 3041 H 301.667 -2.90194 -3.22444 0
M  V30 3042 H 302.338 -2.65517 -4.83947 0
M  V30 3043 H 304.814 -0.891016 -4.06448 0
M  V30 3044 H 303.69 -0.737712 -5.4392 0
M  V30 3045 H 303.951 0.635274 -4.37512 0
M  V30 3046 N 303.011 1.40521 -0.713556 0
M  V30 3047 C 304.259 2.00527 -0.251692 0
M  V30 3048 C 304.58 1.56857 1.15848 0
M  V30 3049 O 303.85 0.807127 1.785 0
M  V30 3050 H 302.43 0.741551 -0.0900646 0
M  V30 3051 H 305.092 1.71887 -0.918733 0
M  V30 3052 H 304.188 3.10813 -0.283192 0
M  V30 3053 N 304.489 0.459591 1.5075 0
M  V30 3054 C 305.735 -0.0994966 2.02556 0
M  V30 3055 C 306.068 -1.40399 1.3417 0
M  V30 3056 O 305.343 -1.88892 0.463683 0
M  V30 3057 C 305.626 -0.295242 3.58888 0
M  V30 3058 C 305.479 1.02947 4.37861 0
M  V30 3059 C 306.798 -1.05502 4.27267 0
M  V30 3060 H 303.917 -0.034686 0.736183 0
M  V30 3061 H 306.559 0.602938 1.8018 0
M  V30 3062 H 304.709 -0.893563 3.78084 0
M  V30 3063 H 306.381 1.66348 4.30263 0
M  V30 3064 H 304.624 1.62885 4.02058 0
M  V30 3065 H 305.295 0.846281 5.45474 0
M  V30 3066 H 307.771 -0.547993 4.12476 0
M  V30 3067 H 306.647 -1.16077 5.36486 0
M  V30 3068 H 306.908 -2.08875 3.89645 0
M  V30 3069 N 305.967 -1.56429 0.191757 0
M  V30 3070 C 306.877 -2.22541 -0.742481 0
M  V30 3071 C 307.893 -1.22342 -1.23727 0
M  V30 3072 O 309.069 -1.55069 -1.28513 0
M  V30 3073 C 306.134 -2.8692 -1.94623 0
M  V30 3074 C 305.195 -4.02378 -1.49633 0
M  V30 3075 C 304.428 -4.63678 -2.6427 0
M  V30 3076 O 304.651 -4.23895 -3.81666 0
M  V30 3077 O 303.585 -5.53202 -2.37174 0
M  V30 3078 H 307.411 -3.02977 -0.209462 0
M  V30 3079 H 304.996 -1.49353 -0.0373832 0
M  V30 3080 H 306.878 -3.27663 -2.64982 0
M  V30 3081 H 305.553 -2.09466 -2.46791 0
M  V30 3082 H 304.46 -3.66265 -0.761636 0
M  V30 3083 H 305.793 -4.81487 -1.02134 0
M  V30 3084 N 307.445 0.0818655 -1.57387 0
M  V30 3085 C 308.377 1.12484 -1.997 0
M  V30 3086 C 309.39 1.35564 -0.90146 0
M  V30 3087 O 310.579 1.33982 -1.17945 0
M  V30 3088 C 307.679 2.47778 -2.31213 0
M  V30 3089 C 306.852 2.44793 -3.62485 0
M  V30 3090 C 305.911 3.62117 -3.81782 0
M  V30 3091 O 304.937 3.44005 -4.53486 0
M  V30 3092 N 306.139 4.82094 -3.23367 0
M  V30 3093 H 308.904 0.764585 -2.89783 0
M  V30 3094 H 306.465 0.270664 -1.59621 0
M  V30 3095 H 308.457 3.24891 -2.41304 0
M  V30 3096 H 307.027 2.75843 -1.4707 0
M  V30 3097 H 306.247 1.53134 -3.6324 0
M  V30 3098 H 307.535 2.39889 -4.48699 0
M  V30 3099 H 306.933 4.99713 -2.65148 0
M  V30 3100 H 305.49 5.56753 -3.38923 0
M  V30 3101 N 308.923 1.53595 0.353017 0
M  V30 3102 C 310.172 1.69603 1.09168 0
M  V30 3103 C 310.485 0.460925 1.90092 0
M  V30 3104 O 311.691 0.501774 2.66823 0
M  V30 3105 C 310.147 2.99872 1.9901 0
M  V30 3106 C 309.755 4.30687 1.23339 0
M  V30 3107 C 311.499 3.25246 2.72792 0
M  V30 3108 C 309.406 5.52036 2.12156 0
M  V30 3109 H 308.336 0.631966 0.411261 0
M  V30 3110 H 310.987 1.80096 0.351802 0
M  V30 3111 H 309.369 2.83212 2.7678 0
M  V30 3112 H 310.543 4.58019 0.505456 0
M  V30 3113 H 308.858 4.11853 0.613663 0
M  V30 3114 H 311.455 4.13095 3.39495 0
M  V30 3115 H 311.798 2.41846 3.38846 0
M  V30 3116 H 312.331 3.42638 2.021 0
M  V30 3117 H 309.07 6.37951 1.50659 0
M  V30 3118 H 308.59 5.28966 2.82764 0
M  V30 3119 H 310.269 5.87313 2.71427 0
M  V30 3120 N 310.401 -0.613514 1.45168 0
M  V30 3121 C 311.648 -1.37268 1.48875 0
M  V30 3122 C 311.976 -1.94077 0.128161 0
M  V30 3123 O 311.231 -1.75178 -0.872416 0
M  V30 3124 C 311.53 -2.54347 2.51083 0
M  V30 3125 C 311.196 -2.1572 3.95949 0
M  V30 3126 C 309.858 -2.04899 4.35396 0
M  V30 3127 C 312.21 -1.85485 4.87078 0
M  V30 3128 C 309.538 -1.62057 5.63875 0
M  V30 3129 C 311.89 -1.4413 6.15962 0
M  V30 3130 C 310.554 -1.31863 6.54346 0
M  V30 3131 H 309.824 -0.502299 0.544773 0
M  V30 3132 H 312.471 -0.694021 1.78481 0
M  V30 3133 H 310.776 -3.27524 2.15024 0
M  V30 3134 H 312.473 -3.12577 2.51191 0
M  V30 3135 H 309.063 -2.25066 3.64751 0
M  V30 3136 H 313.247 -1.92745 4.57343 0
M  V30 3137 H 308.503 -1.51177 5.92415 0
M  V30 3138 H 312.677 -1.19778 6.86022 0
M  V30 3139 H 310.304 -0.984392 7.538 0
M  V30 3140 N 311.879 -1.3236 -0.855495 0
M  V30 3141 C 313.127 -1.22629 -1.60644 0
M  V30 3142 C 313.448 0.212136 -1.93843 0
M  V30 3143 O 312.718 1.13666 -1.59552 0
M  V30 3144 H 311.298 -0.450882 -0.595579 0
M  V30 3145 H 313.96 -1.65871 -1.02337 0
M  V30 3146 H 313.056 -1.80832 -2.54374 0
M  V30 3147 N 313.357 1.07166 -1.15556 0
M  V30 3148 C 314.605 1.79443 -0.929764 0
M  V30 3149 C 314.926 1.87246 0.544414 0
M  V30 3150 O 314.196 1.37473 1.39564 0
M  V30 3151 H 312.776 0.664625 -0.341003 0
M  V30 3152 H 315.438 1.29499 -1.45657 0
M  V30 3153 H 314.534 2.81832 -1.34079 0
M  V30 3154 N 314.835 0.952656 1.25548 0
M  V30 3155 C 316.112 0.523818 1.88456 0
M  V30 3156 C 316.492 -0.998871 1.85973 0
M  V30 3157 O 315.84 -1.86381 1.3219 0
M  V30 3158 C 316.05 1.0982 3.31271 0
M  V30 3159 C 317.398 1.17385 4.08051 0
M  V30 3160 O 318.422 1.04961 3.40384 0
M  V30 3161 O 317.281 1.36852 5.29088 0
M  V30 3162 H 314.375 0.172485 0.808813 0
M  V30 3163 H 316.921 1.04596 1.33633 0
M  V30 3164 H 315.693 2.1415 3.27499 0
M  V30 3165 H 315.316 0.559191 3.93648 0
M  V30 3166 N 316.313 -1.40141 0.720998 0
M  V30 3167 C 317.729 -1.54632 0.395113 0
M  V30 3168 C 317.929 -1.69115 -1.09555 0
M  V30 3169 O 316.985 -1.68377 -1.88163 0
M  V30 3170 C 318.298 -2.77177 1.1659 0
M  V30 3171 C 319.846 -2.91 1.15274 0
M  V30 3172 C 320.321 -4.16465 1.90579 0
M  V30 3173 N 321.812 -4.23476 1.87675 0
M  V30 3174 C 322.547 -5.19475 2.42762 0
M  V30 3175 N 322.043 -6.21348 3.06428 0
M  V30 3176 N 323.836 -5.11592 2.32874 0
M  V30 3177 H 315.987 -1.28986 1.68749 0
M  V30 3178 H 318.25 -0.62412 0.713567 0
M  V30 3179 H 317.956 -2.72771 2.22011 0
M  V30 3180 H 317.83 -3.69442 0.76108 0
M  V30 3181 H 320.217 -2.94907 0.106702 0
M  V30 3182 H 320.298 -1.99838 1.59682 0
M  V30 3183 H 319.942 -4.1332 2.95176 0
M  V30 3184 H 319.872 -5.06646 1.43587 0
M  V30 3185 H 322.363 -3.50497 1.41281 0
M  V30 3186 H 322.676 -6.91034 3.45965 0
M  V30 3187 H 321.021 -6.21777 3.10514 0
M  V30 3188 H 324.212 -4.30936 1.82789 0
M  V30 3189 H 324.385 -5.86233 2.76106 0
M  V30 3190 N 317.792 -0.46758 -1.50504 0
M  V30 3191 C 319.032 0.0874114 -2.04213 0
M  V30 3192 C 319.396 1.37301 -1.34211 0
M  V30 3193 O 320.597 2.01015 -1.78456 0
M  V30 3194 C 318.868 0.270571 -3.56374 0
M  V30 3195 S 320.427 0.784623 -4.31728 0
M  V30 3196 H 317.245 0.0176153 -0.710782 0
M  V30 3197 H 319.847 -0.633915 -1.84937 0
M  V30 3198 H 318.551 -0.670942 -4.04878 0
M  V30 3199 H 318.082 1.01811 -3.79997 0
M  V30 3200 H 320.097 2.05849 -4.51487 0
M  V30 3201 N 319.27 1.56325 -0.20005 0
M  V30 3202 C 320.498 2.02105 0.442874 0
M  V30 3203 C 320.913 1.08014 1.5485 0
M  V30 3204 O 320.27 0.0858797 1.82298 0
M  V30 3205 C 320.321 3.47549 0.994583 0
M  V30 3206 O 320.042 4.38049 -0.0669322 0
M  V30 3207 C 321.543 4.0887 1.7129 0
M  V30 3208 H 318.763 0.661807 0.110691 0
M  V30 3209 H 321.307 2.02134 -0.310207 0
M  V30 3210 H 319.462 3.48204 1.69803 0
M  V30 3211 H 319.876 5.23368 0.344462 0
M  V30 3212 H 321.35 5.12475 2.05118 0
M  V30 3213 H 321.827 3.52615 2.61838 0
M  V30 3214 H 322.433 4.12002 1.05518 0
M  V30 3215 N 320.748 -0.0735177 1.57428 0
M  V30 3216 C 321.978 -0.78483 1.91112 0
M  V30 3217 C 322.386 -1.71729 0.7941 0
M  V30 3218 O 321.729 -1.82105 -0.241542 0
M  V30 3219 C 321.791 -1.63346 3.20247 0
M  V30 3220 C 321.455 -0.870557 4.48632 0
M  V30 3221 C 322.452 -0.19058 5.19551 0
M  V30 3222 C 320.137 -0.838242 4.95256 0
M  V30 3223 C 322.131 0.511503 6.35344 0
M  V30 3224 C 319.818 -0.132386 6.10957 0
M  V30 3225 C 320.816 0.541288 6.80852 0
M  V30 3226 O 320.504 1.23578 7.94345 0
M  V30 3227 H 320.236 -0.228408 0.636244 0
M  V30 3228 H 322.79 -0.0486039 2.05342 0
M  V30 3229 H 321.02 -2.41245 3.02222 0
M  V30 3230 H 322.709 -2.22329 3.39595 0
M  V30 3231 H 323.475 -0.206864 4.84559 0
M  V30 3232 H 319.354 -1.35206 4.40727 0
M  V30 3233 H 322.898 1.03789 6.89836 0
M  V30 3234 H 318.795 -0.114023 6.45399 0
M  V30 3235 H 319.563 1.14487 8.10454 0
M  V30 3236 N 322.226 -1.5378 -0.344866 0
M  V30 3237 C 323.454 -1.74899 -1.10534 0
M  V30 3238 C 323.869 -0.487534 -1.82397 0
M  V30 3239 O 323.226 0.540741 -1.74305 0
M  V30 3240 C 323.277 -2.92822 -2.11984 0
M  V30 3241 O 322.998 -4.14089 -1.43044 0
M  V30 3242 C 324.499 -3.25982 -3.00417 0
M  V30 3243 H 321.719 -0.584426 -0.329678 0
M  V30 3244 H 324.263 -2.006 -0.397474 0
M  V30 3245 H 322.418 -2.69457 -2.78338 0
M  V30 3246 H 322.832 -4.80272 -2.10805 0
M  V30 3247 H 324.306 -4.11848 -3.67539 0
M  V30 3248 H 324.783 -2.42228 -3.66363 0
M  V30 3249 H 325.389 -3.51349 -2.39654 0
M  V30 3250 N 323.704 0.605807 -1.45491 0
M  V30 3251 C 324.614 1.74466 -1.56839 0
M  V30 3252 C 325.63 1.68006 -0.452772 0
M  V30 3253 O 326.806 1.8833 -0.713708 0
M  V30 3254 C 323.871 3.10931 -1.53371 0
M  V30 3255 C 322.932 3.28832 -2.75986 0
M  V30 3256 C 322.165 4.58787 -2.72673 0
M  V30 3257 O 322.388 5.4122 -1.80102 0
M  V30 3258 O 321.322 4.79438 -3.63899 0
M  V30 3259 H 325.148 1.67843 -2.53106 0
M  V30 3260 H 322.733 0.770108 -1.28022 0
M  V30 3261 H 324.615 3.92233 -1.54051 0
M  V30 3262 H 323.29 3.18042 -0.602572 0
M  V30 3263 H 322.197 2.47112 -2.80867 0
M  V30 3264 H 323.53 3.26599 -3.68231 0
M  V30 3265 N 325.182 1.32811 0.848464 0
M  V30 3266 C 326.13 1.22231 1.97895 0
M  V30 3267 C 327.124 0.125749 1.68933 0
M  V30 3268 O 328.33 0.289083 1.77663 0
M  V30 3269 H 324.705 0.379058 0.649476 0
M  V30 3270 H 326.676 2.17828 2.03945 0
M  V30 3271 C 325.425 0.968572 3.33937 0
M  V30 3272 H 324.748 1.80458 3.56756 0
M  V30 3273 H 326.188 0.934808 4.13567 0
M  V30 3274 C 324.647 -0.328628 3.35293 0
M  V30 3275 O 325.177 -1.33848 3.78745 0
M  V30 3276 N 323.383 -0.352788 2.88451 0
M  V30 3277 H 322.93 0.469541 2.53285 0
M  V30 3278 H 322.888 -1.22057 2.89741 0
M  V30 3279 N 326.66 -1.06551 1.16123 0
M  V30 3280 C 327.57 -2.17484 0.879662 0
M  V30 3281 C 328.586 -1.73377 -0.147104 0
M  V30 3282 O 329.762 -2.01379 0.0289128 0
M  V30 3283 C 326.827 -3.44591 0.381829 0
M  V30 3284 C 325.888 -4.0322 1.4735 0
M  V30 3285 C 325.121 -5.24261 0.999324 0
M  V30 3286 O 325.344 -5.70198 -0.151957 0
M  V30 3287 O 324.278 -5.74775 1.78653 0
M  V30 3288 H 328.104 -2.44075 1.80724 0
M  V30 3289 H 325.689 -1.16042 0.940992 0
M  V30 3290 H 327.571 -4.21254 0.111053 0
M  V30 3291 H 326.246 -3.19532 -0.51777 0
M  V30 3292 H 325.153 -3.2806 1.79798 0
M  V30 3293 H 326.486 -4.32568 2.34831 0
M  V30 3294 N 328.138 -0.959301 -1.25041 0
M  V30 3295 C 329.366 -0.633949 -1.96948 0
M  V30 3296 C 329.781 0.794916 -1.7125 0
M  V30 3297 O 329.138 1.53231 -0.991287 0
M  V30 3298 C 329.189 -0.888805 -3.50403 0
M  V30 3299 O 328.91 -2.26149 -3.75218 0
M  V30 3300 C 330.411 -0.576482 -4.39536 0
M  V30 3301 H 327.631 -0.237263 -0.627652 0
M  V30 3302 H 330.175 -1.28495 -1.59089 0
M  V30 3303 H 328.33 -0.284145 -3.86357 0
M  V30 3304 H 328.744 -2.33514 -4.6965 0
M  V30 3305 H 330.218 -0.805314 -5.46094 0
M  V30 3306 H 330.695 0.489075 -4.36468 0
M  V30 3307 H 331.301 -1.16067 -4.09156 0
M  V30 3308 N 329.616 1.39756 -0.72842 0
M  V30 3309 C 330.863 2.00645 -0.273487 0
M  V30 3310 C 331.191 1.57786 1.13727 0
M  V30 3311 O 330.446 0.794886 1.7883 0
M  V30 3312 C 330.745 3.56002 -0.315776 0
M  V30 3313 C 330.411 4.18489 -1.67863 0
M  V30 3314 C 329.073 4.3527 -2.05166 0
M  V30 3315 C 331.425 4.53219 -2.57375 0
M  V30 3316 C 328.753 4.84069 -3.31503 0
M  V30 3317 C 331.105 5.03423 -3.83077 0
M  V30 3318 C 329.769 5.18413 -4.20481 0
M  V30 3319 H 329.039 0.734211 -0.100076 0
M  V30 3320 H 331.686 1.6718 -0.933972 0
M  V30 3321 H 329.991 3.89452 0.428285 0
M  V30 3322 H 331.688 4.00963 0.0542575 0
M  V30 3323 H 328.278 4.05824 -1.37858 0
M  V30 3324 H 332.462 4.39878 -2.29827 0
M  V30 3325 H 327.718 4.93859 -3.60435 0
M  V30 3326 H 331.892 5.2927 -4.52599 0
M  V30 3327 H 329.519 5.55987 -5.18443 0
M  V30 3328 N 331.094 0.475555 1.50254 0
M  V30 3329 C 332.341 -0.0778919 2.0235 0
M  V30 3330 C 332.669 -1.39319 1.35722 0
M  V30 3331 O 331.924 -1.89888 0.473395 0
M  V30 3332 C 332.223 -0.305114 3.56095 0
M  V30 3333 C 331.889 0.92903 4.41225 0
M  V30 3334 C 330.551 1.26739 4.6421 0
M  V30 3335 C 332.903 1.75054 4.90923 0
M  V30 3336 C 330.231 2.42724 5.34137 0
M  V30 3337 C 332.583 2.9017 5.62125 0
M  V30 3338 C 331.247 3.24416 5.83362 0
M  V30 3339 H 330.517 -0.0285027 0.740452 0
M  V30 3340 H 333.164 0.630543 1.80821 0
M  V30 3341 H 331.469 -1.09584 3.76163 0
M  V30 3342 H 333.166 -0.747377 3.93974 0
M  V30 3343 H 329.756 0.655428 4.23559 0
M  V30 3344 H 333.94 1.50231 4.73016 0
M  V30 3345 H 329.196 2.69525 5.48786 0
M  V30 3346 H 333.37 3.54169 5.99614 0
M  V30 3347 H 330.997 4.14396 6.37323 0
M  V30 3348 N 332.573 -1.56217 0.208337 0
M  V30 3349 C 333.798 -2.02782 -0.435222 0
M  V30 3350 C 334.223 -1.08738 -1.53485 0
M  V30 3351 O 333.581 -0.0731855 -1.81152 0
M  V30 3352 C 333.629 -3.47687 -0.956335 0
M  V30 3353 O 332.733 -3.56773 -2.06849 0
M  V30 3354 H 332.074 -0.656403 -0.100158 0
M  V30 3355 H 334.604 -2.02033 0.3231 0
M  V30 3356 H 334.614 -3.87745 -1.26955 0
M  V30 3357 H 333.289 -4.15624 -0.15143 0
M  V30 3358 H 331.866 -3.28597 -1.76292 0
M  V30 3359 N 334.051 0.0651679 -1.57465 0
M  V30 3360 C 335.281 0.774683 -1.91526 0
M  V30 3361 C 335.689 1.71305 -0.803196 0
M  V30 3362 O 335.032 1.82231 0.231881 0
M  V30 3363 C 335.094 1.61645 -3.21109 0
M  V30 3364 C 334.758 0.846753 -4.49087 0
M  V30 3365 C 335.755 0.163024 -5.19644 0
M  V30 3366 C 333.44 0.811966 -4.95694 0
M  V30 3367 C 335.434 -0.54519 -6.35064 0
M  V30 3368 C 333.121 0.0999836 -6.11018 0
M  V30 3369 C 334.119 -0.577388 -6.80555 0
M  V30 3370 O 333.807 -1.27789 -7.93678 0
M  V30 3371 H 333.539 0.225031 -0.637446 0
M  V30 3372 H 336.093 0.0377134 -2.05365 0
M  V30 3373 H 334.323 2.39638 -3.03497 0
M  V30 3374 H 336.012 2.20525 -3.40769 0
M  V30 3375 H 336.778 0.181163 -4.84662 0
M  V30 3376 H 332.657 1.32867 -4.41438 0
M  V30 3377 H 336.201 -1.07446 -6.89276 0
M  V30 3378 H 332.098 0.0797945 -6.45451 0
M  V30 3379 H 332.866 -1.18784 -8.09835 0
M  V30 3380 N 335.529 1.53961 0.336706 0
M  V30 3381 C 336.945 1.44378 0.680241 0
M  V30 3382 C 337.145 0.606034 1.9217 0
M  V30 3383 O 336.201 0.099688 2.52303 0
M  V30 3384 C 337.514 2.87945 0.8665 0
M  V30 3385 C 339.062 2.97763 0.964682 0
M  V30 3386 C 339.537 4.42453 1.18321 0
M  V30 3387 N 341.028 4.46008 1.25025 0
M  V30 3388 C 341.763 5.55102 1.43697 0
M  V30 3389 N 341.259 6.7419 1.59498 0
M  V30 3390 N 343.052 5.42727 1.463 0
M  V30 3391 H 335.203 2.06918 -0.479455 0
M  V30 3392 H 337.466 0.935634 -0.152619 0
M  V30 3393 H 337.172 3.51691 0.0256937 0
M  V30 3394 H 337.046 3.33293 1.76623 0
M  V30 3395 H 339.433 2.34153 1.796 0
M  V30 3396 H 339.514 2.55766 0.041708 0
M  V30 3397 H 339.158 5.06645 0.356788 0
M  V30 3398 H 339.088 4.82048 2.11985 0
M  V30 3399 H 341.579 3.60196 1.14312 0
M  V30 3400 H 341.892 7.53095 1.734 0
M  V30 3401 H 340.237 6.77123 1.56621 0
M  V30 3402 H 343.428 4.48647 1.33543 0
M  V30 3403 H 343.601 6.27806 1.6051 0
M  V30 3404 N 337.007 -0.598083 1.45811 0
M  V30 3405 C 338.423 -0.919847 1.30426 0
M  V30 3406 C 338.623 -1.99759 0.264303 0
M  V30 3407 O 337.679 -2.50221 -0.338472 0
M  V30 3408 C 338.992 -1.35176 2.68603 0
M  V30 3409 C 340.54 -1.46546 2.76574 0
M  V30 3410 C 341.015 -1.9311 4.15298 0
M  V30 3411 N 342.506 -2.00328 4.1764 0
M  V30 3412 C 343.241 -2.37599 5.21856 0
M  V30 3413 N 342.737 -2.73771 6.36413 0
M  V30 3414 N 344.53 -2.38021 5.09218 0
M  V30 3415 H 336.681 0.114111 2.12093 0
M  V30 3416 H 338.944 -0.0116121 0.947929 0
M  V30 3417 H 338.65 -0.633969 3.45939 0
M  V30 3418 H 338.524 -2.3164 2.97696 0
M  V30 3419 H 340.911 -2.17415 1.99537 0
M  V30 3420 H 340.992 -0.483727 2.51185 0
M  V30 3421 H 340.636 -1.22824 4.92825 0
M  V30 3422 H 340.566 -2.92213 4.38086 0
M  V30 3423 H 343.057 -1.74925 3.34977 0
M  V30 3424 H 343.37 -3.0112 7.11721 0
M  V30 3425 H 341.715 -2.71445 6.39799 0
M  V30 3426 H 344.906 -2.09174 4.18765 0
M  V30 3427 H 345.079 -2.66741 5.90554 0
M  V30 3428 N 338.485 -1.33259 -0.841409 0
M  V30 3429 C 339.762 -1.15174 -1.58096 0
M  V30 3430 C 340.142 0.282858 -2.09196 0
M  V30 3431 O 339.49 1.28151 -1.89181 0
M  V30 3432 C 339.7 -2.1907 -2.71679 0
M  V30 3433 C 341.048 -2.53093 -3.40924 0
M  V30 3434 O 342.072 -2.17717 -2.81918 0
M  V30 3435 O 340.931 -3.1379 -4.47435 0
M  V30 3436 H 338.025 -0.445303 -0.696875 0
M  V30 3437 H 340.571 -1.44833 -0.884385 0
M  V30 3438 H 339.343 -3.15443 -2.31541 0
M  V30 3439 H 338.966 -1.90481 -3.49002 0
M  V30 3440 N 339.963 1.05934 -1.16686 0
M  V30 3441 C 340.91 2.13499 -0.876748 0
M  V30 3442 C 341.88 1.65162 0.176299 0
M  V30 3443 O 343.065 1.90757 0.0407143 0
M  V30 3444 C 340.205 3.42912 -0.387967 0
M  V30 3445 C 339.318 4.04964 -1.50426 0
M  V30 3446 C 338.453 5.22266 -0.970125 0
M  V30 3447 C 337.492 5.76309 -2.06238 0
M  V30 3448 N 336.629 6.84922 -1.54356 0
M  V30 3449 H 341.469 2.37654 -1.7979 0
M  V30 3450 H 339.006 1.16598 -0.896843 0
M  V30 3451 H 340.964 4.17111 -0.086186 0
M  V30 3452 H 339.594 3.18963 0.496235 0
M  V30 3453 H 338.646 3.28277 -1.92193 0
M  V30 3454 H 339.958 4.41122 -2.32836 0
M  V30 3455 H 339.112 6.03506 -0.621743 0
M  V30 3456 H 337.851 4.87564 -0.115377 0
M  V30 3457 H 336.856 4.93704 -2.41942 0
M  V30 3458 H 338.081 6.13062 -2.92115 0
M  V30 3459 H 336.027 6.52131 -0.711406 0
M  V30 3460 H 335.944 7.20043 -2.30379 0
M  V30 3461 H 337.212 7.69832 -1.22387 0
M  V30 3462 N 341.441 0.965919 1.2453 0
M  V30 3463 C 342.669 0.644385 1.96609 0
M  V30 3464 C 343.084 -0.785823 1.71669 0
M  V30 3465 O 342.441 -1.52703 0.999399 0
M  V30 3466 C 342.492 0.907375 3.49927 0
M  V30 3467 O 342.213 2.28136 3.74013 0
M  V30 3468 C 343.714 0.599784 4.39224 0
M  V30 3469 H 340.934 0.240588 0.626385 0
M  V30 3470 H 343.478 1.29337 1.58405 0
M  V30 3471 H 341.633 0.304631 3.862 0
M  V30 3472 H 342.047 2.36002 4.68405 0
M  V30 3473 H 343.521 0.834263 5.45659 0
M  V30 3474 H 343.998 -0.465921 4.36722 0
M  V30 3475 H 344.604 1.18235 4.08535 0
M  V30 3476 N 342.919 -1.39368 0.735821 0
M  V30 3477 C 344.147 -2.04795 0.294393 0
M  V30 3478 C 344.562 -1.55478 -1.07107 0
M  V30 3479 O 343.919 -0.720038 -1.67695 0
M  V30 3480 C 343.97 -3.6035 0.288071 0
M  V30 3481 O 343.691 -4.07852 1.59963 0
M  V30 3482 C 345.192 -4.42976 -0.169422 0
M  V30 3483 H 342.412 -0.658571 0.128551 0
M  V30 3484 H 344.956 -1.78399 0.999701 0
M  V30 3485 H 343.111 -3.85645 -0.368355 0
M  V30 3486 H 343.525 -5.02181 1.51375 0
M  V30 3487 H 344.999 -5.51864 -0.122687 0
M  V30 3488 H 345.476 -4.22068 -1.21472 0
M  V30 3489 H 346.082 -4.22832 0.457469 0
M  V30 3490 N 344.397 -0.483516 -1.5 0
M  V30 3491 C 345.645 0.067027 -2.01989 0
M  V30 3492 C 345.966 1.3909 -1.36671 0
M  V30 3493 O 345.236 1.88978 -0.516152 0
M  V30 3494 H 343.816 0.0277606 -0.746484 0
M  V30 3495 H 346.478 -0.636773 -1.84204 0
M  V30 3496 H 345.574 0.209484 -3.11396 0
M  V30 3497 N 345.875 1.56104 -0.216619 0
M  V30 3498 C 347.291 1.58995 0.13886 0
M  V30 3499 C 347.491 1.23333 1.59346 0
M  V30 3500 O 346.547 0.966234 2.33281 0
M  V30 3501 C 347.86 3.00143 -0.182968 0
M  V30 3502 C 349.408 3.12751 -0.124807 0
M  V30 3503 C 349.883 4.56068 -0.420241 0
M  V30 3504 N 351.374 4.61723 -0.369634 0
M  V30 3505 C 352.109 5.70542 -0.571789 0
M  V30 3506 N 351.605 6.87744 -0.835453 0
M  V30 3507 N 353.398 5.59831 -0.504563 0
M  V30 3508 H 345.549 1.77562 -1.16557 0
M  V30 3509 H 347.812 0.825091 -0.466828 0
M  V30 3510 H 347.518 3.30871 -1.19237 0
M  V30 3511 H 347.392 3.73813 0.504367 0
M  V30 3512 H 349.779 2.81822 0.875223 0
M  V30 3513 H 349.86 2.41421 -0.845544 0
M  V30 3514 H 349.504 4.87713 -1.41769 0
M  V30 3515 H 349.434 5.25617 0.321631 0
M  V30 3516 H 351.925 3.77502 -0.173338 0
M  V30 3517 H 352.238 7.66587 -0.977938 0
M  V30 3518 H 350.583 6.895 -0.872592 0
M  V30 3519 H 353.774 4.67145 -0.298842 0
M  V30 3520 H 353.947 6.44573 -0.665519 0
M  V30 3521 N 347.353 -0.0568162 1.57498 0
M  V30 3522 C 348.286 -1.09817 2.00039 0
M  V30 3523 C 349.264 -1.3674 0.879819 0
M  V30 3524 O 350.448 -1.49863 1.14338 0
M  V30 3525 C 347.575 -2.43924 2.34986 0
M  V30 3526 C 346.621 -2.33039 3.57204 0
M  V30 3527 S 347.454 -1.7102 5.07457 0
M  V30 3528 C 348.61 -3.06674 5.45621 0
M  V30 3529 H 348.843 -0.735701 2.88053 0
M  V30 3530 H 346.376 -0.265871 1.52094 0
M  V30 3531 H 348.334 -3.2106 2.55795 0
M  V30 3532 H 346.995 -2.77327 1.47474 0
M  V30 3533 H 346.188 -3.31973 3.79223 0
M  V30 3534 H 345.79 -1.64043 3.36104 0
M  V30 3535 H 348.082 -4.03 5.44608 0
M  V30 3536 H 349.025 -2.8942 6.46252 0
M  V30 3537 H 349.433 -3.07969 4.73091 0
M  V30 3538 N 348.832 -1.54138 -0.328536 0
M  V30 3539 C 349.795 -1.82462 -1.38709 0
M  V30 3540 C 350.795 -0.696229 -1.44946 0
M  V30 3541 O 351.985 -0.964535 -1.4506 0
M  V30 3542 C 349.117 -1.98018 -2.77492 0
M  V30 3543 H 350.31 -2.77037 -1.14851 0
M  V30 3544 H 347.863 -1.45779 -0.563751 0
M  V30 3545 H 348.598 -1.05637 -3.06613 0
M  V30 3546 H 348.383 -2.80124 -2.74359 0
M  V30 3547 H 349.873 -2.21396 -3.54081 0
M  V30 3548 N 350.31 0.590341 -1.46126 0
M  V30 3549 C 351.535 1.37991 -1.54833 0
M  V30 3550 C 351.96 1.87163 -0.187506 0
M  V30 3551 O 351.318 1.61133 0.831008 0
M  V30 3552 C 351.366 2.54867 -2.55098 0
M  V30 3553 O 350.47 3.56061 -2.08073 0
M  V30 3554 H 349.811 0.411265 -0.521303 0
M  V30 3555 H 352.341 0.716819 -1.91632 0
M  V30 3556 H 352.351 3.01886 -2.74461 0
M  V30 3557 H 351.026 2.18429 -3.53923 0
M  V30 3558 H 349.603 3.15574 -1.98664 0
M  V30 3559 N 351.788 1.33704 0.83433 0
M  V30 3560 C 353.035 1.25417 1.58987 0
M  V30 3561 C 353.363 -0.178869 1.93676 0
M  V30 3562 O 352.618 -1.13723 1.59265 0
M  V30 3563 C 352.917 2.07926 2.90692 0
M  V30 3564 C 352.583 3.57066 2.75345 0
M  V30 3565 C 351.245 3.97724 2.70867 0
M  V30 3566 C 353.597 4.51817 2.59828 0
M  V30 3567 C 350.925 5.31344 2.48778 0
M  V30 3568 C 353.277 5.85604 2.39272 0
M  V30 3569 C 351.941 6.25439 2.33199 0
M  V30 3570 H 351.211 0.458934 0.581774 0
M  V30 3571 H 353.858 1.65335 0.966261 0
M  V30 3572 H 352.163 1.608 3.57282 0
M  V30 3573 H 353.86 1.98868 3.48213 0
M  V30 3574 H 350.45 3.24785 2.79665 0
M  V30 3575 H 354.634 4.21311 2.62319 0
M  V30 3576 H 349.89 5.61241 2.42526 0
M  V30 3577 H 354.064 6.58623 2.2625 0
M  V30 3578 H 351.691 7.28914 2.15843 0
M  V30 3579 N 353.266 -1.05314 1.17247 0
M  V30 3580 C 354.515 -1.77685 0.954521 0
M  V30 3581 C 354.828 -1.88616 -0.518025 0
M  V30 3582 O 356.034 -2.57714 -0.854144 0
M  V30 3583 C 354.49 -3.19402 1.65863 0
M  V30 3584 C 354.098 -3.16605 3.16963 0
M  V30 3585 C 355.842 -3.96237 1.52303 0
M  V30 3586 C 353.749 -4.53103 3.80068 0
M  V30 3587 H 352.679 -0.666 0.353496 0
M  V30 3588 H 355.33 -1.1805 1.40486 0
M  V30 3589 H 353.712 -3.79355 1.13602 0
M  V30 3590 H 354.886 -2.66176 3.76148 0
M  V30 3591 H 353.201 -2.53268 3.30521 0
M  V30 3592 H 355.798 -4.97157 1.96822 0
M  V30 3593 H 356.141 -4.136 0.473401 0
M  V30 3594 H 356.674 -3.42829 2.01775 0
M  V30 3595 H 353.413 -4.40946 4.85023 0
M  V30 3596 H 352.933 -5.03686 3.2567 0
M  V30 3597 H 354.612 -5.22045 3.82202 0
M  V30 3598 N 354.744 -0.972509 -1.24016 0
M  V30 3599 C 355.99 -0.647583 -1.92816 0
M  V30 3600 C 356.345 0.809015 -1.74564 0
M  V30 3601 O 355.638 1.57502 -1.09103 0
M  V30 3602 C 355.832 -0.963694 -3.44162 0
M  V30 3603 C 355.661 -2.44947 -3.77135 0
M  V30 3604 C 354.431 -3.11012 -3.98246 0
M  V30 3605 C 356.629 -3.42978 -3.83237 0
M  V30 3606 N 354.611 -4.49277 -4.18358 0
M  V30 3607 C 355.982 -4.66619 -4.08248 0
M  V30 3608 C 358.037 -3.37569 -3.65994 0
M  V30 3609 C 356.74 -5.85516 -4.17808 0
M  V30 3610 C 358.766 -4.55822 -3.76802 0
M  V30 3611 C 358.128 -5.78256 -4.02243 0
M  V30 3612 H 354.227 -0.287894 -0.727077 0
M  V30 3613 H 356.811 -1.24835 -1.49413 0
M  V30 3614 H 354.982 -0.391692 -3.8642 0
M  V30 3615 H 356.714 -0.596849 -4.00275 0
M  V30 3616 H 353.469 -2.61529 -3.94841 0
M  V30 3617 H 353.893 -5.20935 -4.32384 0
M  V30 3618 H 358.535 -2.43945 -3.45327 0
M  V30 3619 H 356.253 -6.79564 -4.37285 0
M  V30 3620 H 359.839 -4.53204 -3.64825 0
M  V30 3621 H 358.719 -6.68231 -4.10411 0
M  V30 3622 N 356.222 1.38976 -0.743202 0
M  V30 3623 C 357.152 2.33171 -0.123873 0
M  V30 3624 C 358.133 1.54336 0.71516 0
M  V30 3625 O 359.318 1.82696 0.658467 0
M  V30 3626 C 356.448 3.38474 0.777978 0
M  V30 3627 C 355.402 4.27979 0.0424758 0
M  V30 3628 C 354.728 5.2405 1.06189 0
M  V30 3629 C 356.028 5.10155 -1.1198 0
M  V30 3630 H 357.722 2.85213 -0.910709 0
M  V30 3631 H 355.268 1.37133 -0.439388 0
M  V30 3632 H 357.221 4.03328 1.22084 0
M  V30 3633 H 355.945 2.84891 1.59702 0
M  V30 3634 H 354.604 3.64616 -0.380853 0
M  V30 3635 H 354.252 4.66758 1.87472 0
M  V30 3636 H 353.952 5.84785 0.574485 0
M  V30 3637 H 355.476 5.9178 1.50428 0
M  V30 3638 H 356.89 5.68307 -0.75499 0
M  V30 3639 H 355.287 5.80073 -1.53738 0
M  V30 3640 H 356.357 4.44504 -1.93764 0
M  V30 3641 N 357.7 0.491464 1.49741 0
M  V30 3642 C 358.949 -0.0582189 2.01616 0
M  V30 3643 C 359.262 -1.38927 1.3769 0
M  V30 3644 O 360.468 -2.02509 1.80838 0
M  V30 3645 C 358.924 -0.154235 3.59569 0
M  V30 3646 C 358.532 1.1696 4.32463 0
M  V30 3647 C 360.276 -0.65479 4.1942 0
M  V30 3648 C 358.183 1.03627 5.8225 0
M  V30 3649 H 357.113 -0.0255317 0.753568 0
M  V30 3650 H 359.764 0.629445 1.72367 0
M  V30 3651 H 358.146 -0.906138 3.85493 0
M  V30 3652 H 359.32 1.93405 4.18248 0
M  V30 3653 H 357.635 1.60285 3.84315 0
M  V30 3654 H 360.232 -0.771903 5.29099 0
M  V30 3655 H 360.575 -1.65127 3.8215 0
M  V30 3656 H 361.108 0.040304 3.9778 0
M  V30 3657 H 357.847 2.00672 6.24028 0
M  V30 3658 H 357.367 0.312546 5.98985 0
M  V30 3659 H 359.046 0.711114 6.4308 0
M  V30 3660 O 359.217 -1.57286 0.366498 0
M  V30 3661 H 359.908 -1.92825 -0.183877 0
M  V30 END ATOM
M  V30 BEGIN BOND
M  V30 END BOND
M  V30 END CTAB
M  END
$$$$
