drugbank_target|P33681 T-lymphocyte activation antigen CD80 (DB01281; DB04901; DB06681)
 OpenBabel12092119413D

  0  0  0     0  0            999 V3000
M  V30 BEGIN CTAB
M  V30 COUNTS 4623 4677 0 0 0
M  V30 BEGIN ATOM
M  V30 1 H -0.908 1.98254 -0.117106 0
M  V30 2 N 0 1.576 0 0
M  V30 3 C 0.933 2.03868 1.02534 0
M  V30 4 C 1.911 0.928543 1.3348 0
M  V30 5 O 3.095 1.19667 1.45644 0
M  V30 6 C 0.222 2.43627 2.35294 0
M  V30 7 C -0.732 3.65373 2.2001 0
M  V30 8 S 0.101 5.13292 1.52614 0
M  V30 9 C 1.257 5.56322 2.86805 0
M  V30 10 H 1.49 2.90518 0.631377 0
M  V30 11 H -0.977 1.52953 0.210867 0
M  V30 12 H 0.981 2.67203 3.11629 0
M  V30 13 H -0.358 1.57376 2.7183 0
M  V30 14 H -1.165 3.90944 3.18086 0
M  V30 15 H -1.563 3.418 1.51819 0
M  V30 16 H 0.729 5.58782 3.83104 0
M  V30 17 H 1.672 6.56266 2.65933 0
M  V30 18 H 2.08 4.83886 2.90714 0
M  V30 19 N 1.4781 -0.272755 1.55222 0
M  V30 20 C 2.7261 -1.00234 1.75492 0
M  V30 21 C 3.0471 -1.8681 0.5592 0
M  V30 22 O 2.3171 -1.91215 -0.425882 0
M  V30 23 H 0.8971 -0.373076 0.647166 0
M  V30 24 H 3.5591 -0.296926 1.92625 0
M  V30 25 H 2.6551 -1.63913 2.65592 0
M  V30 26 N 2.9562 -1.48159 -0.537278 0
M  V30 27 C 3.9062 -1.5854 -1.63857 0
M  V30 28 C 4.8902 -0.442969 -1.54682 0
M  V30 29 O 6.0822 -0.69401 -1.62827 0
M  V30 30 C 3.2112 -1.62144 -3.02596 0
M  V30 31 C 2.2972 -2.81841 -3.16901 0
M  V30 32 N 2.6882 -4.06337 -3.01204 0
M  V30 33 C 0.9862 -2.79021 -3.47942 0
M  V30 34 C 1.6872 -4.86606 -3.18731 0
M  V30 35 N 0.6632 -4.19288 -3.45974 0
M  V30 36 H 4.4652 -2.5255 -1.50319 0
M  V30 37 H 1.9792 -1.4443 -0.742555 0
M  V30 38 H 3.9762 -1.67674 -3.81695 0
M  V30 39 H 2.6362 -0.69245 -3.17231 0
M  V30 40 H 3.6472 -4.36888 -2.78117 0
M  V30 41 H 0.3242 -1.95347 -3.6898 0
M  V30 42 H 1.7142 -5.95385 -3.11394 0
M  V30 43 N 4.4343 0.785586 -1.36625 0
M  V30 44 C 5.6623 1.57448 -1.3423 0
M  V30 45 C 6.0773 1.88649 0.0755653 0
M  V30 46 O 5.4343 1.50414 1.03354 0
M  V30 47 C 5.4853 2.89316 -2.16745 0
M  V30 48 O 5.2063 2.59459 -3.53005 0
M  V30 49 C 6.7073 3.83606 -2.22174 0
M  V30 50 H 3.9273 0.488226 -0.4603 0
M  V30 51 H 6.4713 0.974733 -1.79775 0
M  V30 52 H 4.6263 3.4575 -1.74745 0
M  V30 53 H 5.0403 3.43804 -3.96105 0
M  V30 54 H 6.5143 4.73181 -2.8426 0
M  V30 55 H 6.9913 4.21734 -1.22627 0
M  V30 56 H 7.5973 3.33104 -2.64427 0
M  V30 57 N 5.9124 1.20967 1.01018 0
M  V30 58 C 7.3284 0.965905 1.27053 0
M  V30 59 C 7.5284 -0.350785 1.98423 0
M  V30 60 O 6.5844 -1.07773 2.28344 0
M  V30 61 C 7.8974 2.15294 2.09926 0
M  V30 62 C 9.4454 2.19463 2.23171 0
M  V30 63 C 9.9204 3.3767 3.09424 0
M  V30 64 N 11.4114 3.37724 3.17012 0
M  V30 65 C 12.1464 4.25837 3.83993 0
M  V30 66 N 11.6424 5.24138 4.53047 0
M  V30 67 N 13.4354 4.1366 3.80581 0
M  V30 68 H 5.5864 2.0565 0.531194 0
M  V30 69 H 7.8494 0.90024 0.297106 0
M  V30 70 H 7.5554 3.10684 1.64828 0
M  V30 71 H 7.4294 2.13923 3.10672 0
M  V30 72 H 9.8164 1.24632 2.6749 0
M  V30 73 H 9.8974 2.2488 1.21912 0
M  V30 74 H 9.5414 4.32791 2.65808 0
M  V30 75 H 9.4714 3.29491 4.10784 0
M  V30 76 H 11.9624 2.6658 2.6785 0
M  V30 77 H 12.2754 5.87684 5.01844 0
M  V30 78 H 10.6204 5.28068 4.5185 0
M  V30 79 H 13.8114 3.36127 3.25785 0
M  V30 80 H 13.9844 4.82538 4.32505 0
M  V30 81 N 7.3905 -1.2043 1.01659 0
M  V30 82 C 8.8065 -1.41852 0.731442 0
M  V30 83 C 9.0065 -1.89358 -0.688898 0
M  V30 84 O 8.0625 -2.06247 -1.45666 0
M  V30 85 C 9.3755 -2.44019 1.75714 0
M  V30 86 C 10.9235 -2.57785 1.77527 0
M  V30 87 C 11.3985 -3.63194 2.79023 0
M  V30 88 N 12.8895 -3.70678 2.77763 0
M  V30 89 C 13.6245 -4.51897 3.52954 0
M  V30 90 N 13.1205 -5.36921 4.37821 0
M  V30 91 N 14.9135 -4.4643 3.41551 0
M  V30 92 H 7.0645 -0.879093 1.93354 0
M  V30 93 H 9.3275 -0.448425 0.835236 0
M  V30 94 H 9.0335 -2.1611 2.77469 0
M  V30 95 H 8.9075 -3.43007 1.56927 0
M  V30 96 H 11.2945 -2.85023 0.764569 0
M  V30 97 H 11.3755 -1.58992 2.00387 0
M  V30 98 H 11.0195 -3.36699 3.80258 0
M  V30 99 H 10.9495 -4.61609 2.53425 0
M  V30 100 H 13.4405 -3.09944 2.16201 0
M  V30 101 H 13.7535 -5.95981 4.91962 0
M  V30 102 H 12.0985 -5.36424 4.41899 0
M  V30 103 H 15.2895 -3.79042 2.74672 0
M  V30 104 H 15.4625 -5.09491 4.00404 0
M  V30 105 N 8.8686 -0.792821 -1.36206 0
M  V30 106 C 9.8006 -0.151469 -2.28699 0
M  V30 107 C 10.8136 0.641262 -1.49638 0
M  V30 108 O 12.0026 0.475885 -1.72039 0
M  V30 109 C 9.1026 0.808424 -3.29117 0
M  V30 110 C 8.2756 0.0650202 -4.37352 0
M  V30 111 C 7.3346 0.941358 -5.17711 0
M  V30 112 O 6.3606 0.397352 -5.67811 0
M  V30 113 N 7.5626 2.2652 -5.3448 0
M  V30 114 H 10.3276 -0.945982 -2.84379 0
M  V30 115 H 7.8886 -0.647032 -1.48409 0
M  V30 116 H 9.8806 1.3986 -3.79765 0
M  V30 117 H 8.4506 1.5038 -2.74052 0
M  V30 118 H 7.6706 -0.706255 -3.87822 0
M  V30 119 H 8.9586 -0.447847 -5.06825 0
M  V30 120 H 8.3566 2.73128 -4.95396 0
M  V30 121 H 6.9136 2.80493 -5.88359 0
M  V30 122 N 10.3467 1.47872 -0.545128 0
M  V30 123 C 11.5947 2.02093 -0.016553 0
M  V30 124 C 11.9157 1.42305 1.3332 0
M  V30 125 O 11.1857 0.593853 1.86682 0
M  V30 126 H 9.7657 0.746993 -0.00313038 0
M  V30 127 H 12.4277 1.81414 -0.712397 0
M  V30 128 H 11.5237 3.11996 0.0805422 0
M  V30 129 N 11.8248 0.280983 1.55075 0
M  V30 130 C 13.0528 -0.337293 2.04132 0
M  V30 131 C 13.4678 -1.4903 1.15912 0
M  V30 132 O 12.8248 -1.81606 0.180459 0
M  V30 133 C 12.8758 -0.812706 3.52246 0
M  V30 134 O 12.5968 0.294387 4.3711 0
M  V30 135 C 14.0978 -1.4982 4.17216 0
M  V30 136 H 11.3178 -0.0761638 0.666663 0
M  V30 137 H 13.8618 0.414787 2.00249 0
M  V30 138 H 12.0168 -1.51486 3.56554 0
M  V30 139 H 12.4308 -0.0721325 5.2445 0
M  V30 140 H 13.9048 -1.7822 5.22438 0
M  V30 141 H 14.3818 -2.43168 3.65741 0
M  V30 142 H 14.9878 -0.839742 4.16927 0
M  V30 143 N 13.3029 -1.57598 0.00835791 0
M  V30 144 C 14.5279 -1.95617 -0.689103 0
M  V30 145 C 14.9529 -0.883753 -1.66046 0
M  V30 146 O 14.3109 0.157352 -1.80616 0
M  V30 147 C 14.3589 -3.32736 -1.38994 0
M  V30 148 O 13.4629 -3.27631 -2.50463 0
M  V30 149 H 12.8039 -0.638379 -0.182668 0
M  V30 150 H 15.3339 -2.045 0.064036 0
M  V30 151 H 15.3439 -3.68494 -1.75147 0
M  V30 152 H 14.0189 -4.1034 -0.677778 0
M  V30 153 H 12.5959 -3.03561 -2.16576 0
M  V30 154 N 14.781 0.264519 -1.55364 0
M  V30 155 C 16.192 0.834936 -1.6699 0
M  V30 156 C 16.543 1.86718 -0.602552 0
M  V30 157 O 15.668 2.14899 0.254425 0
M  V30 158 C 16.263 1.5212 -3.02729 0
M  V30 159 C 14.822 2.03954 -3.16354 0
M  V30 160 C 13.969 0.884498 -2.62815 0
M  V30 161 H 16.92 0.0406869 -1.58648 0
M  V30 162 H 16.941 2.38853 -2.96191 0
M  V30 163 H 16.453 0.769668 -3.80392 0
M  V30 164 H 14.554 2.82041 -2.43482 0
M  V30 165 H 14.667 2.24902 -4.23032 0
M  V30 166 H 13.031 1.2802 -2.20188 0
M  V30 167 H 13.814 0.14634 -3.42988 0
M  V30 168 N 16.2591 1.48442 0.529413 0
M  V30 169 C 17.4841 1.60406 1.31471 0
M  V30 170 C 17.9091 0.264738 1.86228 0
M  V30 171 O 17.2671 -0.763668 1.64432 0
M  V30 172 C 17.3151 2.65419 2.44101 0
M  V30 173 O 16.4191 2.22618 3.47153 0
M  V30 174 H 15.7601 0.537863 0.389357 0
M  V30 175 H 18.2901 1.94432 0.636965 0
M  V30 176 H 18.3001 2.86709 2.90279 0
M  V30 177 H 16.9751 3.62652 2.03608 0
M  V30 178 H 15.5521 2.11543 3.0709 0
M  V30 179 N 17.7372 -0.778329 1.37039 0
M  V30 180 C 18.6842 -1.89139 1.32269 0
M  V30 181 C 19.6542 -1.65017 0.189387 0
M  V30 182 O 20.8392 -1.87024 0.377693 0
M  V30 183 C 17.9792 -3.26112 1.12894 0
M  V30 184 C 17.0922 -3.62233 2.35396 0
M  V30 185 C 16.2272 -4.8838 2.08946 0
M  V30 186 C 15.2662 -5.17212 3.2735 0
M  V30 187 N 14.4032 -6.34546 3.00492 0
M  V30 188 H 19.2432 -1.92552 2.27437 0
M  V30 189 H 16.7802 -0.941473 1.13025 0
M  V30 190 H 18.7382 -4.05116 0.996835 0
M  V30 191 H 17.3682 -3.22091 0.213758 0
M  V30 192 H 16.4202 -2.78265 2.5937 0
M  V30 193 H 17.7322 -3.79481 3.23721 0
M  V30 194 H 16.8862 -5.75274 1.92729 0
M  V30 195 H 15.6252 -4.73222 1.17949 0
M  V30 196 H 14.6302 -4.28796 3.44113 0
M  V30 197 H 15.8552 -5.34283 4.19188 0
M  V30 198 H 13.8012 -6.20759 2.12118 0
M  V30 199 H 13.7182 -6.52179 3.82358 0
M  V30 200 H 14.9862 -7.24394 2.87879 0
M  V30 201 N 19.2153 -1.21501 -1.00376 0
M  V30 202 C 20.4553 -1.04444 -1.75701 0
M  V30 203 C 20.8193 0.414644 -1.87469 0
M  V30 204 O 22.0203 0.705763 -2.59369 0
M  V30 205 C 20.2913 -1.72389 -3.13077 0
M  V30 206 S 21.8503 -1.70604 -4.04277 0
M  V30 207 H 18.6683 -0.374249 -0.604532 0
M  V30 208 H 21.2703 -1.54267 -1.20091 0
M  V30 209 H 19.9743 -2.77734 -3.02146 0
M  V30 210 H 19.5053 -1.22751 -3.73759 0
M  V30 211 H 21.5203 -0.748012 -4.9053 0
M  V30 212 N 20.6934 1.19889 -1.02296 0
M  V30 213 C 22.1044 1.71124 -0.746568 0
M  V30 214 C 22.4554 1.81939 0.734335 0
M  V30 215 O 21.5804 1.48639 1.57275 0
M  V30 216 C 22.1754 3.10804 -1.34857 0
M  V30 217 C 20.7344 3.59323 -1.1209 0
M  V30 218 C 19.8814 2.3635 -1.45031 0
M  V30 219 H 22.8324 1.04813 -1.19163 0
M  V30 220 H 22.8534 3.73186 -0.742437 0
M  V30 221 H 22.3654 3.029 -2.42638 0
M  V30 222 H 20.4664 3.7255 -0.0610337 0
M  V30 223 H 20.5794 4.4378 -1.80544 0
M  V30 224 H 18.9434 2.39399 -0.869487 0
M  V30 225 H 19.7264 2.31081 -2.53883 0
M  V30 226 N 22.1715 0.800033 1.35784 0
M  V30 227 C 23.4015 0.389041 2.02904 0
M  V30 228 C 23.8095 -1.0027 1.60445 0
M  V30 229 O 23.1525 -1.65633 0.794453 0
M  V30 230 C 23.2145 0.385495 3.57427 0
M  V30 231 C 22.8785 1.72662 4.23127 0
M  V30 232 C 23.8755 2.68385 4.4527 0
M  V30 233 C 21.5605 2.00883 4.60381 0
M  V30 234 C 23.5545 3.90517 5.03761 0
M  V30 235 C 21.2415 3.2328 5.18588 0
M  V30 236 C 22.2395 4.17915 5.40218 0
M  V30 237 O 21.9275 5.38153 5.97199 0
M  V30 238 H 21.6595 0.157032 0.657508 0
M  V30 239 H 24.2135 1.08311 1.74522 0
M  V30 240 H 22.4435 -0.365128 3.84972 0
M  V30 241 H 24.1325 -0.00228296 4.059 0
M  V30 242 H 24.8985 2.47872 4.16874 0
M  V30 243 H 20.7775 1.28037 4.42863 0
M  V30 244 H 24.3215 4.64395 5.2056 0
M  V30 245 H 20.2185 3.43667 5.4641 0
M  V30 246 H 20.9865 5.3936 6.15656 0
M  V30 247 N 23.6496 -1.47581 0.552962 0
M  V30 248 C 24.5796 -2.32762 -0.185451 0
M  V30 249 C 25.5606 -1.43527 -0.912905 0
M  V30 250 O 26.7456 -1.72388 -0.894201 0
M  V30 251 C 23.8756 -3.25219 -1.21859 0
M  V30 252 C 22.8296 -4.23661 -0.607864 0
M  V30 253 C 22.1556 -5.05413 -1.74533 0
M  V30 254 C 23.4556 -5.20481 0.435582 0
M  V30 255 H 25.1496 -2.94749 0.525684 0
M  V30 256 H 22.6956 -1.41738 0.254251 0
M  V30 257 H 24.6486 -3.8365 -1.7433 0
M  V30 258 H 23.3726 -2.61279 -1.95961 0
M  V30 259 H 22.0316 -3.66451 -0.104489 0
M  V30 260 H 21.6796 -4.3788 -2.47529 0
M  V30 261 H 21.3796 -5.72059 -1.34249 0
M  V30 262 H 22.9036 -5.66701 -2.27338 0
M  V30 263 H 24.3176 -5.733 -0.00290157 0
M  V30 264 H 22.7146 -5.95305 0.757067 0
M  V30 265 H 23.7846 -4.66217 1.33303 0
M  V30 266 N 25.1277 -0.289203 -1.54924 0
M  V30 267 C 26.0757 0.607966 -2.24514 0
M  V30 268 C 27.0697 1.14655 -1.24702 0
M  V30 269 O 28.2757 1.09856 -1.4259 0
M  V30 270 H 24.6507 0.21464 -0.720718 0
M  V30 271 H 26.6217 -0.00164182 -2.984 0
M  V30 272 C 25.3707 1.77406 -2.99036 0
M  V30 273 H 24.6937 1.36884 -3.75637 0
M  V30 274 H 26.1337 2.37814 -3.51028 0
M  V30 275 C 24.5927 2.67107 -2.05318 0
M  V30 276 O 25.1227 3.6787 -1.61353 0
M  V30 277 N 23.3287 2.34582 -1.71521 0
M  V30 278 H 22.8757 1.52688 -2.07471 0
M  V30 279 H 22.8337 2.94867 -1.0909 0
M  V30 280 N 26.6058 1.57591 -0.0167156 0
M  V30 281 C 27.8528 1.91283 0.664597 0
M  V30 282 C 28.1808 0.891949 1.72842 0
M  V30 283 O 27.4358 -0.100931 1.9544 0
M  V30 284 C 27.7348 3.3172 1.33029 0
M  V30 285 C 27.4008 4.4914 0.398047 0
M  V30 286 C 26.0628 4.80992 0.141421 0
M  V30 287 C 28.4148 5.20634 -0.242825 0
M  V30 288 C 25.7428 5.81703 -0.764092 0
M  V30 289 C 28.0948 6.22311 -1.13632 0
M  V30 290 C 26.7588 6.52611 -1.40196 0
M  V30 291 H 26.0288 0.699956 0.243193 0
M  V30 292 H 28.6758 1.9135 -0.0758267 0
M  V30 293 H 26.9808 3.27856 2.14517 0
M  V30 294 H 28.6778 3.55055 1.86379 0
M  V30 295 H 25.2678 4.24262 0.608238 0
M  V30 296 H 29.4518 4.96267 -0.0576019 0
M  V30 297 H 24.7078 6.03532 -0.977732 0
M  V30 298 H 28.8818 6.76834 -1.63917 0
M  V30 299 H 26.5088 7.30467 -2.10529 0
M  V30 300 N 28.0839 -0.256276 1.55502 0
M  V30 301 C 29.3309 -0.985619 1.76895 0
M  V30 302 C 29.6589 -1.85671 0.579355 0
M  V30 303 O 28.9139 -1.90744 -0.437651 0
M  V30 304 C 29.2129 -1.88432 3.03691 0
M  V30 305 C 28.8789 -1.16936 4.35473 0
M  V30 306 C 27.5409 -0.97173 4.71286 0
M  V30 307 C 29.8929 -0.661889 5.1698 0
M  V30 308 C 27.2209 -0.254179 5.86149 0
M  V30 309 C 29.5729 0.042149 6.32586 0
M  V30 310 C 28.2369 0.25134 6.67027 0
M  V30 311 H 27.5069 -0.360663 0.647304 0
M  V30 312 H 30.1539 -0.256483 1.89775 0
M  V30 313 H 28.4589 -2.68021 2.85783 0
M  V30 314 H 30.1559 -2.45015 3.1744 0
M  V30 315 H 26.7459 -1.33332 4.07333 0
M  V30 316 H 30.9299 -0.802145 4.89775 0
M  V30 317 H 26.1859 -0.0815408 6.11346 0
M  V30 318 H 30.3599 0.443049 6.94989 0
M  V30 319 H 27.9869 0.809314 7.5588 0
M  V30 320 N 29.562 -1.4872 -0.521534 0
M  V30 321 C 30.494 -1.59968 -1.64143 0
M  V30 322 C 31.507 -0.483463 -1.55456 0
M  V30 323 O 32.696 -0.75467 -1.61762 0
M  V30 324 C 29.796 -1.52127 -3.02838 0
M  V30 325 C 28.969 -2.78932 -3.36921 0
M  V30 326 C 28.028 -2.64428 -4.54933 0
M  V30 327 O 27.054 -3.38331 -4.57735 0
M  V30 328 N 28.256 -1.74606 -5.53618 0
M  V30 329 H 31.021 -2.56548 -1.54929 0
M  V30 330 H 28.582 -1.45551 -0.708988 0
M  V30 331 H 30.574 -1.40106 -3.79674 0
M  V30 332 H 29.144 -0.634868 -3.06085 0
M  V30 333 H 28.364 -3.05455 -2.4918 0
M  V30 334 H 29.652 -3.63041 -3.56481 0
M  V30 335 H 29.05 -1.13782 -5.54139 0
M  V30 336 H 27.607 -1.6852 -6.29638 0
M  V30 337 N 31.0401 0.771051 -1.3745 0
M  V30 338 C 31.9701 1.89827 -1.3597 0
M  V30 339 C 32.9511 1.68562 -0.228216 0
M  V30 340 O 34.1361 1.8941 -0.428675 0
M  V30 341 C 31.2661 3.2712 -1.16662 0
M  V30 342 C 30.2201 3.6295 -2.2683 0
M  V30 343 C 29.5461 4.98791 -1.92644 0
M  V30 344 C 30.8461 3.69627 -3.69017 0
M  V30 345 H 32.5401 1.91323 -2.30295 0
M  V30 346 H 30.0861 0.919082 -1.10855 0
M  V30 347 H 32.0391 4.05615 -1.14256 0
M  V30 348 H 30.7631 3.26059 -0.187926 0
M  V30 349 H 29.4221 2.86763 -2.28392 0
M  V30 350 H 29.0701 4.94271 -0.933021 0
M  V30 351 H 28.7701 5.23733 -2.66416 0
M  V30 352 H 30.2941 5.79685 -1.91826 0
M  V30 353 H 31.7081 4.38273 -3.69581 0
M  V30 354 H 30.1051 4.06067 -4.41848 0
M  V30 355 H 31.1751 2.70273 -4.02592 0
M  V30 356 N 32.5182 1.22032 0.997298 0
M  V30 357 C 33.4482 1.01065 2.10495 0
M  V30 358 C 34.4292 -0.0669542 1.69968 0
M  V30 359 O 35.6142 0.0943987 1.9397 0
M  V30 360 C 32.7442 0.582874 3.42374 0
M  V30 361 C 31.6982 1.60592 3.96729 0
M  V30 362 C 31.0242 1.03412 5.24605 0
M  V30 363 C 32.3242 2.99478 4.27914 0
M  V30 364 H 34.0182 1.93708 2.28292 0
M  V30 365 H 31.5642 0.932761 1.09707 0
M  V30 366 H 33.5172 0.423332 4.19268 0
M  V30 367 H 32.2412 -0.379213 3.24391 0
M  V30 368 H 30.9002 1.75316 3.21963 0
M  V30 369 H 30.5482 0.063518 5.0296 0
M  V30 370 H 30.2482 1.71754 5.61938 0
M  V30 371 H 31.7722 0.886066 6.04137 0
M  V30 372 H 33.1862 2.88153 4.95622 0
M  V30 373 H 31.5832 3.64903 4.76409 0
M  V30 374 H 32.6532 3.49742 3.3587 0
M  V30 375 N 33.9963 -1.19345 1.0293 0
M  V30 376 C 35.2423 -1.89318 0.727083 0
M  V30 377 C 35.5753 -1.79446 -0.742483 0
M  V30 378 O 34.8503 -1.1871 -1.54072 0
M  V30 379 C 35.1333 -3.40238 1.17942 0
M  V30 380 C 34.9863 -3.58979 2.71024 0
M  V30 381 C 36.3053 -4.33479 0.760548 0
M  V30 382 H 33.4243 -0.687475 0.265606 0
M  V30 383 H 36.0663 -1.40477 1.2793 0
M  V30 384 H 34.2163 -3.81964 0.709608 0
M  V30 385 H 35.8883 -3.26421 3.25955 0
M  V30 386 H 34.1313 -3.02018 3.11396 0
M  V30 387 H 34.8023 -4.64823 2.9773 0
M  V30 388 H 37.2783 -3.99469 1.16464 0
M  V30 389 H 36.1543 -5.37664 1.10493 0
M  V30 390 H 36.4153 -4.40813 -0.337063 0
M  V30 391 N 35.4744 -0.807222 -1.35358 0
M  V30 392 C 36.4044 -0.232509 -2.3234 0
M  V30 393 C 37.3854 0.642386 -1.57504 0
M  V30 394 O 38.5704 0.572526 -1.85569 0
M  V30 395 C 35.7004 0.619238 -3.41735 0
M  V30 396 C 34.6544 -0.157215 -4.27711 0
M  V30 397 C 33.9804 0.816273 -5.28433 0
M  V30 398 C 35.2804 -1.35656 -5.04376 0
M  V30 399 H 36.9744 -1.04276 -2.80654 0
M  V30 400 H 34.5204 -0.50288 -1.34934 0
M  V30 401 H 36.4734 1.03137 -4.08584 0
M  V30 402 H 35.1974 1.46239 -2.92031 0
M  V30 403 H 33.8564 -0.550525 -3.62443 0
M  V30 404 H 33.5044 1.65494 -4.74996 0
M  V30 405 H 33.2044 0.301067 -5.86828 0
M  V30 406 H 34.7284 1.22659 -5.98153 0
M  V30 407 H 36.1424 -1.01927 -5.64166 0
M  V30 408 H 34.5394 -1.8063 -5.7227 0
M  V30 409 H 35.6094 -2.14288 -4.34981 0
M  V30 410 N 36.9525 1.47285 -0.560781 0
M  V30 411 C 37.9155 2.28535 0.174488 0
M  V30 412 C 38.9155 1.37153 0.839388 0
M  V30 413 O 40.1055 1.59748 0.694702 0
M  V30 414 C 37.2375 3.16934 1.25561 0
M  V30 415 H 38.4305 2.95012 -0.539262 0
M  V30 416 H 35.9835 1.53034 -0.317865 0
M  V30 417 H 36.7185 2.55157 2.00164 0
M  V30 418 H 36.5035 3.8419 0.783604 0
M  V30 419 H 37.9935 3.78143 1.77193 0
M  V30 420 N 38.4306 0.297415 1.54768 0
M  V30 421 C 39.6786 -0.312295 1.99673 0
M  V30 422 C 39.9996 -1.54686 1.18732 0
M  V30 423 O 39.2696 -1.93854 0.282382 0
M  V30 424 H 37.8496 -0.118381 0.73756 0
M  V30 425 H 40.5116 0.407915 1.90583 0
M  V30 426 H 39.6076 -0.586813 3.06534 0
M  V30 427 N 39.9087 -1.5758 0.0250728 0
M  V30 428 C 40.8387 -2.13007 -0.956575 0
M  V30 429 C 41.8197 -1.0452 -1.342 0
M  V30 430 O 43.0047 -1.32332 -1.42133 0
M  V30 431 C 40.1347 -2.65386 -2.24026 0
M  V30 432 C 39.0887 -3.78623 -1.99571 0
M  V30 433 C 38.4147 -4.17414 -3.3417 0
M  V30 434 C 39.7147 -5.04867 -1.33814 0
M  V30 435 H 41.4087 -2.9528 -0.494991 0
M  V30 436 H 38.9547 -1.42042 -0.236651 0
M  V30 437 H 40.9077 -3.02794 -2.93076 0
M  V30 438 H 39.6317 -1.80268 -2.72343 0
M  V30 439 H 38.2907 -3.41646 -1.32941 0
M  V30 440 H 37.9387 -3.29284 -3.80238 0
M  V30 441 H 37.6387 -4.93719 -3.18615 0
M  V30 442 H 39.1627 -4.57402 -4.04495 0
M  V30 443 H 40.5767 -5.39888 -1.92857 0
M  V30 444 H 38.9737 -5.86144 -1.28669 0
M  V30 445 H 40.0437 -4.83904 -0.310561 0
M  V30 446 N 41.3868 0.248026 -1.55636 0
M  V30 447 C 42.6118 0.998028 -1.81808 0
M  V30 448 C 43.0368 1.78207 -0.601979 0
M  V30 449 O 42.3948 1.75653 0.448961 0
M  V30 450 C 42.4428 1.9125 -3.05705 0
M  V30 451 O 41.5468 3.00406 -2.82542 0
M  V30 452 H 40.8878 0.284045 -0.600179 0
M  V30 453 H 43.4178 0.269357 -2.02819 0
M  V30 454 H 43.4278 2.32737 -3.35108 0
M  V30 455 H 42.1028 1.33602 -3.93857 0
M  V30 456 H 40.6798 2.63056 -2.64303 0
M  V30 457 N 42.8649 1.48995 0.513639 0
M  V30 458 C 43.8149 1.61127 1.61314 0
M  V30 459 C 44.7989 0.467521 1.53958 0
M  V30 460 O 45.9909 0.719826 1.61702 0
M  V30 461 C 43.1199 1.66937 2.99978 0
M  V30 462 C 42.2059 2.86847 3.12377 0
M  V30 463 N 42.5969 4.11078 2.94701 0
M  V30 464 C 40.8949 2.84521 3.43459 0
M  V30 465 C 41.5959 4.91615 3.10949 0
M  V30 466 N 40.5719 4.24739 3.3926 0
M  V30 467 H 44.3739 2.54909 1.46282 0
M  V30 468 H 41.8879 1.45593 0.719483 0
M  V30 469 H 43.8849 1.73725 3.78979 0
M  V30 470 H 42.5449 0.742831 3.16089 0
M  V30 471 H 43.5559 4.41258 2.71131 0
M  V30 472 H 40.2329 2.01192 3.65825 0
M  V30 473 H 41.6229 6.00264 3.01882 0
M  V30 474 N 44.343 -0.763751 1.37857 0
M  V30 475 C 45.59 -1.52257 1.33506 0
M  V30 476 C 45.918 -1.94343 -0.078022 0
M  V30 477 O 45.173 -1.64958 -1.05297 0
M  V30 478 C 45.472 -2.79499 2.22745 0
M  V30 479 C 45.138 -2.56426 3.70886 0
M  V30 480 C 43.8 -2.49842 4.11257 0
M  V30 481 C 46.152 -2.36008 4.64704 0
M  V30 482 C 43.48 -2.20841 5.43549 0
M  V30 483 C 45.832 -2.0853 5.97242 0
M  V30 484 C 44.496 -2.00396 6.36709 0
M  V30 485 H 43.766 -0.557149 0.488534 0
M  V30 486 H 46.413 -0.879073 1.70131 0
M  V30 487 H 44.718 -3.48447 1.79142 0
M  V30 488 H 46.415 -3.37413 2.16688 0
M  V30 489 H 43.005 -2.62416 3.38874 0
M  V30 490 H 47.189 -2.40079 4.34368 0
M  V30 491 H 42.445 -2.13045 5.73081 0
M  V30 492 H 46.619 -1.91732 6.69486 0
M  V30 493 H 44.246 -1.77688 7.39142 0
M  V30 494 N 45.8211 -1.22559 -0.990812 0
M  V30 495 C 47.0611 -1.06302 -1.74583 0
M  V30 496 C 47.4251 0.394737 -1.87898 0
M  V30 497 O 48.6261 0.678214 -2.60103 0
M  V30 498 C 46.8971 -1.75699 -3.11231 0
M  V30 499 S 48.4561 -1.74882 -4.02445 0
M  V30 500 H 45.2741 -0.380639 -0.600529 0
M  V30 501 H 47.8761 -1.55532 -1.18449 0
M  V30 502 H 46.5801 -2.80923 -2.99183 0
M  V30 503 H 46.1111 -1.26708 -3.72436 0
M  V30 504 H 48.1261 -0.799997 -4.89709 0
M  V30 505 N 47.2992 1.18797 -1.03562 0
M  V30 506 C 48.5242 1.9314 -0.755764 0
M  V30 507 C 48.9492 1.7537 0.68022 0
M  V30 508 O 48.3072 1.06046 1.47051 0
M  V30 509 C 48.3552 3.42747 -1.12058 0
M  V30 510 O 47.4592 4.11683 -0.243124 0
M  V30 511 H 46.8002 0.602724 -0.278604 0
M  V30 512 H 49.3302 1.50678 -1.3841 0
M  V30 513 H 49.3402 3.93437 -1.08035 0
M  V30 514 H 48.0152 3.55002 -2.16672 0
M  V30 515 H 46.5922 3.71323 -0.342539 0
M  V30 516 N 48.7773 0.814389 1.34928 0
M  V30 517 C 50.0253 0.397636 1.9815 0
M  V30 518 C 50.3463 -1.04069 1.64908 0
M  V30 519 O 49.6163 -1.72121 0.93548 0
M  V30 520 H 48.1963 0.144043 0.732981 0
M  V30 521 H 50.8583 1.04195 1.6471 0
M  V30 522 H 49.9543 0.509688 3.0791 0
M  V30 523 N 50.2554 -1.46986 0.568584 0
M  V30 524 C 51.5014 -2.02741 0.0488709 0
M  V30 525 C 51.8344 -1.44077 -1.30214 0
M  V30 526 O 51.1094 -0.600552 -1.84996 0
M  V30 527 C 51.3924 -3.60086 -0.032047 0
M  V30 528 C 51.2454 -4.29162 1.34686 0
M  V30 529 C 52.5644 -4.33838 -0.739798 0
M  V30 530 H 49.6834 -0.736749 0.0192338 0
M  V30 531 H 52.3254 -1.75289 0.733065 0
M  V30 532 H 50.4754 -3.83606 -0.61473 0
M  V30 533 H 52.1474 -4.16948 1.97362 0
M  V30 534 H 50.3904 -3.89073 1.91846 0
M  V30 535 H 51.0614 -5.37826 1.24285 0
M  V30 536 H 53.5374 -4.15378 -0.244939 0
M  V30 537 H 52.4134 -5.43537 -0.765406 0
M  V30 538 H 52.6744 -4.03875 -1.79827 0
M  V30 539 N 51.7335 -0.305618 -1.54608 0
M  V30 540 C 52.9825 0.303098 -1.9941 0
M  V30 541 C 53.2955 1.54648 -1.19764 0
M  V30 542 O 54.5015 2.23007 -1.54855 0
M  V30 543 C 52.9575 0.590588 -3.55021 0
M  V30 544 C 52.5655 -0.634719 -4.43481 0
M  V30 545 C 54.3095 1.16025 -4.08336 0
M  V30 546 C 52.2165 -0.320126 -5.90533 0
M  V30 547 H 51.1465 0.117031 -0.744862 0
M  V30 548 H 53.7975 -0.415045 -1.78745 0
M  V30 549 H 52.1795 1.36845 -3.71604 0
M  V30 550 H 53.3535 -1.41079 -4.38672 0
M  V30 551 H 51.6685 -1.12333 -4.00962 0
M  V30 552 H 54.2655 1.40994 -5.15776 0
M  V30 553 H 54.6085 2.10397 -3.5922 0
M  V30 554 H 55.1415 0.443985 -3.95315 0
M  V30 555 H 51.8805 -1.23254 -6.43808 0
M  V30 556 H 51.4005 0.418579 -5.98338 0
M  V30 557 H 53.0795 0.0766241 -6.46955 0
M  V30 558 N 53.2116 1.57565 -0.0334293 0
M  V30 559 C 54.1616 2.06978 0.956237 0
M  V30 560 C 55.1456 0.971193 1.28283 0
M  V30 561 O 56.3376 1.23471 1.26822 0
M  V30 562 C 53.4666 2.60393 2.23719 0
M  V30 563 C 52.5526 3.7719 1.93877 0
M  V30 564 N 52.9436 4.87639 1.34321 0
M  V30 565 C 51.2416 3.85758 2.23845 0
M  V30 566 C 51.9426 5.68825 1.21709 0
M  V30 567 N 50.9186 5.1587 1.71404 0
M  V30 568 H 54.7206 2.89773 0.490815 0
M  V30 569 H 52.2346 1.61492 0.171478 0
M  V30 570 H 54.2316 2.94088 2.95496 0
M  V30 571 H 52.8916 1.79031 2.70884 0
M  V30 572 H 53.9026 5.07803 1.01767 0
M  V30 573 H 50.5796 3.1531 2.73653 0
M  V30 574 H 51.9696 6.67631 0.75621 0
M  V30 575 N 54.6897 -0.239769 1.55765 0
M  V30 576 C 55.9357 -0.968234 1.78194 0
M  V30 577 C 56.2687 -1.84701 0.599938 0
M  V30 578 O 55.5437 -1.9031 -0.401524 0
M  V30 579 C 55.8267 -1.8227 3.10564 0
M  V30 580 C 55.6797 -0.971633 4.3918 0
M  V30 581 C 56.9987 -2.80388 3.39221 0
M  V30 582 H 54.1177 -0.350572 0.648281 0
M  V30 583 H 56.7597 -0.238259 1.885 0
M  V30 584 H 54.9097 -2.44507 3.01908 0
M  V30 585 H 56.5817 -0.367408 4.59835 0
M  V30 586 H 54.8247 -0.276276 4.32919 0
M  V30 587 H 55.4957 -1.60346 5.28198 0
M  V30 588 H 57.9717 -2.28287 3.47885 0
M  V30 589 H 56.8477 -3.3729 4.33044 0
M  V30 590 H 57.1087 -3.57212 2.60484 0
M  V30 591 N 56.1678 -1.49265 -0.50573 0
M  V30 592 C 57.3958 -1.62215 -1.28429 0
M  V30 593 C 57.8108 -0.291697 -1.86533 0
M  V30 594 O 57.1678 0.722233 -1.67601 0
M  V30 595 C 57.2188 -2.68735 -2.41793 0
M  V30 596 O 56.9398 -3.96619 -1.86078 0
M  V30 597 C 58.4408 -2.92346 -3.3324 0
M  V30 598 H 55.6608 -0.546239 -0.389697 0
M  V30 599 H 58.2048 -1.95265 -0.607609 0
M  V30 600 H 56.3598 -2.38476 -3.053 0
M  V30 601 H 56.7738 -4.55256 -2.60465 0
M  V30 602 H 58.2478 -3.70623 -4.09075 0
M  V30 603 H 58.7248 -2.02081 -3.89948 0
M  V30 604 H 59.3308 -3.24003 -2.75503 0
M  V30 605 N 57.6459 0.756429 -1.3826 0
M  V30 606 C 58.5929 1.87011 -1.35261 0
M  V30 607 C 59.5629 1.64695 -0.215616 0
M  V30 608 O 60.7479 1.864 -0.407399 0
M  V30 609 C 57.8879 3.24275 -1.18068 0
M  V30 610 C 57.0009 3.58442 -2.41129 0
M  V30 611 C 56.1359 4.84994 -2.16689 0
M  V30 612 C 55.1749 5.11939 -3.35537 0
M  V30 613 N 54.3119 6.29685 -3.10549 0
M  V30 614 H 59.1519 1.8891 -2.30472 0
M  V30 615 H 56.6889 0.923373 -1.14509 0
M  V30 616 H 58.6469 4.03479 -1.06116 0
M  V30 617 H 57.2769 3.21711 -0.264973 0
M  V30 618 H 56.3289 2.74103 -2.63764 0
M  V30 619 H 57.6409 3.74283 -3.29717 0
M  V30 620 H 56.7949 5.72135 -2.01857 0
M  V30 621 H 55.5339 4.71286 -1.25462 0
M  V30 622 H 54.5389 4.23268 -3.50891 0
M  V30 623 H 55.7639 5.27546 -4.27635 0
M  V30 624 H 53.7099 6.17306 -2.21967 0
M  V30 625 H 53.6269 6.46014 -3.92686 0
M  V30 626 H 54.8949 7.19722 -2.99367 0
M  V30 627 N 59.124 1.23083 0.984299 0
M  V30 628 C 60.034 1.02515 2.11016 0
M  V30 629 C 61.05 -0.0291702 1.73976 0
M  V30 630 O 62.226 0.165434 2.00719 0
M  V30 631 C 59.291 0.614673 3.41208 0
M  V30 632 C 58.352 1.74359 3.92297 0
M  V30 633 C 57.585 1.35261 5.16275 0
M  V30 634 O 57.808 0.235136 5.69915 0
M  V30 635 O 56.742 2.17227 5.61334 0
M  V30 636 H 60.568 1.96862 2.31255 0
M  V30 637 H 58.153 1.01753 1.09392 0
M  V30 638 H 60.035 0.396518 4.1953 0
M  V30 639 H 58.71 -0.299851 3.22308 0
M  V30 640 H 57.617 2.01635 3.1511 0
M  V30 641 H 58.95 2.63629 4.15645 0
M  V30 642 N 60.6021 -1.18246 1.0419 0
M  V30 643 C 61.8481 -1.88536 0.747122 0
M  V30 644 C 62.1811 -1.80223 -0.723409 0
M  V30 645 O 61.4561 -1.20337 -1.52804 0
M  V30 646 C 61.7391 -3.38968 1.21544 0
M  V30 647 C 61.5921 -3.56084 2.74816 0
M  V30 648 C 62.9111 -4.32648 0.806482 0
M  V30 649 H 60.0301 -0.684619 0.272883 0
M  V30 650 H 62.6721 -1.39113 1.29413 0
M  V30 651 H 60.8221 -3.8119 0.750081 0
M  V30 652 H 62.4941 -3.22946 3.29399 0
M  V30 653 H 60.7371 -2.98699 3.14582 0
M  V30 654 H 61.4081 -4.61639 3.02644 0
M  V30 655 H 63.8841 -3.98211 1.20695 0
M  V30 656 H 62.7601 -5.36462 1.1619 0
M  V30 657 H 63.0211 -4.41146 -0.29029 0
M  V30 658 N 62.0802 -0.821533 -1.34494 0
M  V30 659 C 63.0272 -0.240397 -2.29545 0
M  V30 660 C 63.9972 0.634031 -1.53523 0
M  V30 661 O 65.1822 0.575966 -1.81899 0
M  V30 662 C 62.3222 0.592869 -3.39969 0
M  V30 663 C 61.4352 -0.30365 -4.30932 0
M  V30 664 C 60.5702 0.539049 -5.28458 0
M  V30 665 C 59.6092 -0.356942 -6.11058 0
M  V30 666 N 58.7462 0.446603 -7.00678 0
M  V30 667 H 63.5862 -1.05632 -2.7865 0
M  V30 668 H 61.1232 -0.532413 -1.37127 0
M  V30 669 H 63.0812 1.09129 -4.02675 0
M  V30 670 H 61.7112 1.37392 -2.92102 0
M  V30 671 H 60.7632 -0.920276 -3.691 0
M  V30 672 H 62.0752 -0.992661 -4.88823 0
M  V30 673 H 61.2292 1.102 -5.96608 0
M  V30 674 H 59.9682 1.26157 -4.71101 0
M  V30 675 H 58.9732 -0.932047 -5.41842 0
M  V30 676 H 60.1982 -1.07755 -6.70497 0
M  V30 677 H 58.1442 1.15282 -6.45791 0
M  V30 678 H 58.0612 -0.184048 -7.55776 0
M  V30 679 H 59.3292 0.992352 -7.73158 0
M  V30 680 N 63.5583 1.46682 -0.576371 0
M  V30 681 C 64.4683 2.34032 0.163141 0
M  V30 682 C 65.4843 1.49367 0.892501 0
M  V30 683 O 66.6603 1.82252 0.857106 0
M  V30 684 C 63.7253 3.26435 1.16795 0
M  V30 685 C 62.7863 4.26998 0.443944 0
M  V30 686 C 62.0193 5.14986 1.40088 0
M  V30 687 O 62.2423 5.05785 2.637 0
M  V30 688 O 61.1763 5.94906 0.914917 0
M  V30 689 H 65.0023 2.98607 -0.55388 0
M  V30 690 H 62.5873 1.45554 -0.336821 0
M  V30 691 H 64.4693 3.83459 1.74748 0
M  V30 692 H 63.1443 2.64465 1.86655 0
M  V30 693 H 62.0513 3.7368 -0.177271 0
M  V30 694 H 63.3843 4.91736 -0.213566 0
M  V30 695 N 65.0364 0.313813 1.54444 0
M  V30 696 C 66.2824 -0.292108 2.00685 0
M  V30 697 C 66.6154 -1.52548 1.20177 0
M  V30 698 O 65.8904 -1.92452 0.281531 0
M  V30 699 C 66.1734 -0.635968 3.5444 0
M  V30 700 C 66.0264 0.607437 4.4568 0
M  V30 701 C 67.3454 -1.45747 4.15266 0
M  V30 702 H 64.4644 -0.104697 0.729526 0
M  V30 703 H 67.1064 0.428457 1.85106 0
M  V30 704 H 65.2564 -1.24986 3.67846 0
M  V30 705 H 66.9284 1.24581 4.44159 0
M  V30 706 H 65.1714 1.23822 4.15753 0
M  V30 707 H 65.8424 0.322515 5.51057 0
M  V30 708 H 68.3184 -0.938645 4.05375 0
M  V30 709 H 67.1944 -1.66683 5.2298 0
M  V30 710 H 67.4554 -2.45063 3.67963 0
M  V30 711 N 66.5145 -1.57545 0.0417849 0
M  V30 712 C 67.4775 -2.09885 -0.92093 0
M  V30 713 C 68.4775 -1.01648 -1.24596 0
M  V30 714 O 69.6675 -1.27759 -1.1842 0
M  V30 715 C 66.7995 -2.57527 -2.23367 0
M  V30 716 H 67.9925 -2.96236 -0.467382 0
M  V30 717 H 65.5455 -1.5493 -0.206467 0
M  V30 718 H 66.2805 -1.74542 -2.73323 0
M  V30 719 H 66.0655 -3.36613 -2.01083 0
M  V30 720 H 67.5555 -2.98201 -2.92346 0
M  V30 721 N 67.9926 0.231505 -1.5589 0
M  V30 722 C 69.2206 0.974505 -1.82513 0
M  V30 723 C 69.6356 1.78344 -0.619591 0
M  V30 724 O 68.9926 1.77792 0.411848 0
M  V30 725 C 69.0436 1.90007 -3.07538 0
M  V30 726 O 68.7646 1.12385 -4.2344 0
M  V30 727 C 70.2656 2.75779 -3.47075 0
M  V30 728 H 67.4856 0.286065 -0.606966 0
M  V30 729 H 70.0296 0.249739 -2.02969 0
M  V30 730 H 68.1846 2.57891 -2.89086 0
M  V30 731 H 68.5986 1.75125 -4.944 0
M  V30 732 H 70.0726 3.36443 -4.37619 0
M  V30 733 H 70.5496 3.47672 -2.68367 0
M  V30 734 H 71.1556 2.13323 -3.67931 0
M  V30 735 N 69.4707 1.49531 0.497807 0
M  V30 736 C 70.4007 1.6935 1.60757 0
M  V30 737 C 71.3817 0.542218 1.61227 0
M  V30 738 O 72.5667 0.778417 1.77917 0
M  V30 739 C 69.6967 1.76298 2.99226 0
M  V30 740 C 68.6507 2.91248 3.13622 0
M  V30 741 C 67.9767 2.83312 4.53474 0
M  V30 742 C 69.2767 4.3214 2.93346 0
M  V30 743 H 70.9707 2.62263 1.44425 0
M  V30 744 H 68.5167 1.26208 0.693367 0
M  V30 745 H 70.4697 1.88749 3.76765 0
M  V30 746 H 69.1937 0.799871 3.16654 0
M  V30 747 H 67.8527 2.78404 2.38509 0
M  V30 748 H 67.5007 1.84902 4.67782 0
M  V30 749 H 67.2007 3.60465 4.64046 0
M  V30 750 H 68.7247 2.97775 5.33069 0
M  V30 751 H 70.1387 4.45649 3.60652 0
M  V30 752 H 68.5357 5.1054 3.15387 0
M  V30 753 H 69.6057 4.46363 1.89441 0
M  V30 754 N 70.9488 -0.749086 1.3866 0
M  V30 755 C 72.1738 -1.54344 1.38538 0
M  V30 756 C 72.5988 -1.88088 -0.0216655 0
M  V30 757 O 71.9568 -1.50899 -1.00494 0
M  V30 758 C 72.0048 -2.8164 2.25192 0
M  V30 759 O 71.1088 -3.7698 1.67212 0
M  V30 760 H 70.4498 -0.466654 0.472367 0
M  V30 761 H 72.9798 -0.925355 1.82478 0
M  V30 762 H 72.9898 -3.30519 2.3921 0
M  V30 763 H 71.6648 -2.56411 3.27454 0
M  V30 764 H 70.2418 -3.35699 1.6236 0
M  V30 765 N 72.4269 -1.23603 -0.977757 0
M  V30 766 C 73.6669 -1.08148 -1.73446 0
M  V30 767 C 74.0309 0.374785 -1.88307 0
M  V30 768 O 75.2319 0.650588 -2.60808 0
M  V30 769 C 73.5029 -1.78991 -3.0935 0
M  V30 770 S 75.0619 -1.79141 -4.00567 0
M  V30 771 H 71.8799 -0.386987 -0.596458 0
M  V30 772 H 74.4819 -1.5678 -1.16792 0
M  V30 773 H 73.1859 -2.8408 -2.96187 0
M  V30 774 H 72.7169 -1.30651 -3.71071 0
M  V30 775 H 74.7319 -0.851892 -4.88833 0
M  V30 776 N 73.905 1.17692 -1.04816 0
M  V30 777 C 75.153 1.87488 -0.754497 0
M  V30 778 C 75.474 1.81205 0.720407 0
M  V30 779 O 74.744 1.23544 1.52032 0
M  V30 780 H 73.324 0.694101 -0.276102 0
M  V30 781 H 75.986 1.42793 -1.32651 0
M  V30 782 H 75.082 2.93328 -1.06606 0
M  V30 783 N 75.3831 0.828654 1.34056 0
M  V30 784 C 76.3331 0.226828 2.26869 0
M  V30 785 C 77.3171 -0.612243 1.48796 0
M  V30 786 O 78.5091 -0.465884 1.70759 0
M  V30 787 C 75.6381 -0.605654 3.37915 0
M  V30 788 C 74.7241 0.244361 4.23395 0
M  V30 789 N 75.1151 1.31815 4.88322 0
M  V30 790 C 73.4131 0.0296616 4.4599 0
M  V30 791 C 74.1141 1.83895 5.51867 0
M  V30 792 N 73.0901 1.14196 5.3147 0
M  V30 793 H 76.8921 1.04811 2.74576 0
M  V30 794 H 74.4061 0.67205 1.47842 0
M  V30 795 H 76.4031 -1.05302 4.03382 0
M  V30 796 H 75.0631 -1.42504 2.91758 0
M  V30 797 H 76.0741 1.70099 4.8917 0
M  V30 798 H 72.7511 -0.757097 4.10578 0
M  V30 799 H 74.1411 2.7376 6.136 0
M  V30 800 N 76.8612 -1.46375 0.584142 0
M  V30 801 C 77.8092 -2.32042 -0.161047 0
M  V30 802 C 78.8032 -1.44569 -0.882966 0
M  V30 803 O 80.0092 -1.61186 -0.801191 0
M  V30 804 H 76.3842 -0.748659 -0.0708033 0
M  V30 805 H 78.3552 -2.92704 0.580269 0
M  V30 806 C 77.1042 -3.27762 -1.1605 0
M  V30 807 H 76.4272 -3.95051 -0.614419 0
M  V30 808 H 77.8672 -3.90481 -1.65228 0
M  V30 809 C 76.3262 -2.53218 -2.22221 0
M  V30 810 O 76.8562 -2.29628 -3.29597 0
M  V30 811 N 75.0622 -2.13756 -1.96868 0
M  V30 812 H 74.6092 -2.33142 -1.09557 0
M  V30 813 H 74.5672 -1.642 -2.68115 0
M  V30 814 N 78.3393 -0.321999 -1.54275 0
M  V30 815 C 79.5853 0.281461 -2.00837 0
M  V30 816 C 79.9183 1.51909 -1.20985 0
M  V30 817 O 79.1933 1.923 -0.291733 0
M  V30 818 C 79.4763 0.617162 -3.54772 0
M  V30 819 C 79.3293 -0.631064 -4.45351 0
M  V30 820 C 80.6483 1.43542 -4.16033 0
M  V30 821 H 77.7673 0.100826 -0.730071 0
M  V30 822 H 80.4093 -0.438268 -1.84876 0
M  V30 823 H 78.5593 1.23034 -3.68504 0
M  V30 824 H 80.2313 -1.26934 -4.43492 0
M  V30 825 H 78.4743 -1.26025 -4.15091 0
M  V30 826 H 79.1453 -0.351735 -5.50878 0
M  V30 827 H 81.6213 0.917134 -4.05867 0
M  V30 828 H 80.4973 1.63907 -5.23856 0
M  V30 829 H 80.7583 2.43108 -3.69257 0
M  V30 830 N 79.8174 1.5752 -0.0501392 0
M  V30 831 C 81.0424 1.97376 0.636997 0
M  V30 832 C 81.4674 0.927466 1.63645 0
M  V30 833 O 80.8254 -0.10941 1.8097 0
M  V30 834 C 80.8734 3.36304 1.30123 0
M  V30 835 O 79.9774 3.34156 2.41689 0
M  V30 836 H 79.3184 0.642998 0.165679 0
M  V30 837 H 81.8484 2.04258 -0.118233 0
M  V30 838 H 81.8584 3.73008 1.65315 0
M  V30 839 H 80.5334 4.11993 0.568746 0
M  V30 840 H 79.1104 3.09196 2.08451 0
M  V30 841 N 81.2955 -0.223234 1.56011 0
M  V30 842 C 82.5415 -0.949279 1.79211 0
M  V30 843 C 82.8745 -1.84054 0.619494 0
M  V30 844 O 82.1495 -1.90726 -0.381317 0
M  V30 845 C 82.4325 -1.78965 3.12479 0
M  V30 846 C 82.2855 -0.924997 4.40186 0
M  V30 847 C 83.6045 -2.76774 3.42175 0
M  V30 848 H 80.7235 -0.343676 0.651963 0
M  V30 849 H 83.3655 -0.218253 1.88742 0
M  V30 850 H 81.5155 -2.41291 3.04485 0
M  V30 851 H 83.1875 -0.318615 4.60198 0
M  V30 852 H 81.4305 -0.230344 4.33188 0
M  V30 853 H 82.1015 -1.54735 5.29869 0
M  V30 854 H 84.5775 -2.24584 3.50287 0
M  V30 855 H 83.4535 -3.32678 4.36597 0
M  V30 856 H 83.7145 -3.54429 2.64258 0
M  V30 857 N 82.7736 -1.49793 -0.48987 0
M  V30 858 C 83.6836 -1.70036 -1.61632 0
M  V30 859 C 84.6996 -0.583102 -1.63939 0
M  V30 860 O 85.8756 -0.859169 -1.82154 0
M  V30 861 C 82.9406 -1.77277 -2.97949 0
M  V30 862 C 82.0016 -3.00918 -3.06181 0
M  V30 863 C 81.2346 -3.07804 -4.35996 0
M  V30 864 O 81.4576 -2.21982 -5.25433 0
M  V30 865 O 80.3916 -4.00369 -4.49431 0
M  V30 866 H 84.2176 -2.65486 -1.47482 0
M  V30 867 H 81.8026 -1.33666 -0.667362 0
M  V30 868 H 83.6846 -1.84329 -3.78947 0
M  V30 869 H 82.3596 -0.850076 -3.12339 0
M  V30 870 H 81.2666 -2.99377 -2.2433 0
M  V30 871 H 82.5996 -3.92704 -2.96723 0
M  V30 872 N 84.2517 0.741722 -1.39055 0
M  V30 873 C 85.1617 1.88621 -1.39496 0
M  V30 874 C 86.1777 1.71557 -0.290578 0
M  V30 875 O 87.3537 1.94275 -0.530954 0
M  V30 876 C 84.4187 3.24134 -1.23037 0
M  V30 877 C 83.4797 3.5364 -2.43387 0
M  V30 878 C 82.7127 4.82687 -2.27703 0
M  V30 879 O 82.9357 5.55922 -1.27696 0
M  V30 880 O 81.8697 5.1194 -3.16545 0
M  V30 881 H 85.6957 1.91203 -2.35956 0
M  V30 882 H 83.2807 0.888625 -1.20099 0
M  V30 883 H 85.1627 4.0513 -1.15964 0
M  V30 884 H 83.8377 3.22337 -0.296691 0
M  V30 885 H 82.7447 2.72758 -2.56035 0
M  V30 886 H 84.0777 3.60209 -3.35425 0
M  V30 887 N 85.7298 1.2412 0.971189 0
M  V30 888 C 86.6598 1.05508 2.08304 0
M  V30 889 C 87.6408 -0.0308864 1.70072 0
M  V30 890 O 88.8258 0.135521 1.93727 0
M  V30 891 C 85.9558 0.655365 3.4106 0
M  V30 892 C 84.9098 1.68971 3.93234 0
M  V30 893 C 84.2358 1.14516 5.22293 0
M  V30 894 C 85.5358 3.08487 4.21465 0
M  V30 895 H 87.2298 1.98507 2.24132 0
M  V30 896 H 84.7758 0.955821 1.07704 0
M  V30 897 H 86.7288 0.51217 4.18276 0
M  V30 898 H 85.4528 -0.31032 3.25122 0
M  V30 899 H 84.1118 1.82106 3.18171 0
M  V30 900 H 83.7598 0.170189 5.02712 0
M  V30 901 H 83.4598 1.83635 5.58168 0
M  V30 902 H 84.9838 1.01401 6.02121 0
M  V30 903 H 86.3978 2.98601 4.89398 0
M  V30 904 H 84.7948 3.74926 4.68562 0
M  V30 905 H 85.8648 3.56787 3.28376 0
M  V30 906 N 87.2079 -1.17134 1.05439 0
M  V30 907 C 88.1709 -2.19439 0.661764 0
M  V30 908 C 89.1709 -1.58199 -0.288042 0
M  V30 909 O 90.3609 -1.74053 -0.0715803 0
M  V30 910 C 87.4929 -3.40889 -0.0276209 0
M  V30 911 H 88.6859 -2.55688 1.56728 0
M  V30 912 H 86.2389 -1.31259 0.848567 0
M  V30 913 H 86.9739 -3.10187 -0.94629 0
M  V30 914 H 86.7589 -3.86586 0.655238 0
M  V30 915 H 88.2489 -4.16603 -0.288342 0
M  V30 916 N 88.686 -0.835752 -1.33615 0
M  V30 917 C 89.618 -0.224151 -2.28101 0
M  V30 918 C 90.631 0.593331 -1.51603 0
M  V30 919 O 91.82 0.420911 -1.73466 0
M  V30 920 C 88.92 0.703309 -3.31522 0
M  V30 921 C 88.093 -0.0741528 -4.37337 0
M  V30 922 C 87.152 0.776176 -5.20444 0
M  V30 923 O 86.178 0.216506 -5.68788 0
M  V30 924 N 87.38 2.09401 -5.41416 0
M  V30 925 H 90.145 -1.03598 -2.81225 0
M  V30 926 H 87.706 -0.69392 -1.46275 0
M  V30 927 H 89.698 1.27707 -3.84022 0
M  V30 928 H 88.268 1.41585 -2.78698 0
M  V30 929 H 87.488 -0.82928 -3.85378 0
M  V30 930 H 88.776 -0.608863 -5.05144 0
M  V30 931 H 88.174 2.57229 -5.03835 0
M  V30 932 H 86.731 2.61633 -5.96985 0
M  V30 933 N 90.1641 1.46063 -0.591896 0
M  V30 934 C 91.3921 2.06717 -0.0868936 0
M  V30 935 C 91.8071 1.43916 1.22203 0
M  V30 936 O 91.1641 0.547698 1.74088 0
M  V30 937 C 91.2151 3.6142 0.0758725 0
M  V30 938 O 90.9361 4.21874 -1.18126 0
M  V30 939 C 92.4371 4.39025 0.61416 0
M  V30 940 H 89.6571 0.668162 -0.0616518 0
M  V30 941 H 92.2011 1.8755 -0.815175 0
M  V30 942 H 90.3561 3.79983 0.754413 0
M  V30 943 H 90.7701 5.14861 -1.00092 0
M  V30 944 H 92.2441 5.4783 0.677193 0
M  V30 945 H 92.7211 4.07708 1.63312 0
M  V30 946 H 93.3271 4.2529 -0.0298142 0
M  V30 947 N 91.6422 0.330177 1.54103 0
M  V30 948 C 93.0582 -0.0222371 1.59585 0
M  V30 949 C 93.2582 -1.49902 1.34654 0
M  V30 950 O 92.3142 -2.25592 1.13421 0
M  V30 951 C 93.6272 0.401932 2.98002 0
M  V30 952 C 95.1752 0.353145 3.11001 0
M  V30 953 C 95.6502 0.752576 4.51775 0
M  V30 954 N 97.1412 0.706239 4.57784 0
M  V30 955 C 97.8762 0.987417 5.64834 0
M  V30 956 N 97.3722 1.33607 6.79795 0
M  V30 957 N 99.1652 0.91254 5.54643 0
M  V30 958 H 91.3162 1.29228 1.68564 0
M  V30 959 H 93.5792 0.525906 0.78875 0
M  V30 960 H 93.2852 1.4311 3.21267 0
M  V30 961 H 93.1592 -0.229699 3.765 0
M  V30 962 H 95.5462 -0.666822 2.87467 0
M  V30 963 H 95.6272 1.0198 2.34593 0
M  V30 964 H 95.2712 1.77049 4.76042 0
M  V30 965 H 95.2012 0.0635409 5.26562 0
M  V30 966 H 97.6922 0.44889 3.75224 0
M  V30 967 H 98.0052 1.53582 7.57385 0
M  V30 968 H 96.3502 1.37439 6.81275 0
M  V30 969 H 99.5412 0.639601 4.6371 0
M  V30 970 H 99.7142 1.13503 6.37982 0
M  V30 971 N 93.1203 -1.57491 0.0584922 0
M  V30 972 C 94.3693 -1.92155 -0.613146 0
M  V30 973 C 94.6823 -0.939334 -1.71569 0
M  V30 974 O 95.8883 -1.17829 -2.44599 0
M  V30 975 C 94.3443 -3.41303 -1.14195 0
M  V30 976 C 93.9523 -4.47944 -0.0711265 0
M  V30 977 C 95.6963 -3.84988 -1.78841 0
M  V30 978 C 93.6033 -5.88212 -0.613225 0
M  V30 979 H 92.5333 -0.717162 -0.232796 0
M  V30 980 H 95.1843 -1.83049 0.12857 0
M  V30 981 H 93.5663 -3.45437 -1.93621 0
M  V30 982 H 94.7403 -4.55408 0.702836 0
M  V30 983 H 93.0553 -4.13644 0.478313 0
M  V30 984 H 95.6523 -4.87159 -2.20408 0
M  V30 985 H 95.9953 -3.21632 -2.64308 0
M  V30 986 H 96.5283 -3.83401 -1.06059 0
M  V30 987 H 93.2673 -6.55183 0.203978 0
M  V30 988 H 92.7873 -5.84294 -1.35501 0
M  V30 989 H 94.4663 -6.37687 -1.09383 0
M  V30 990 N 94.5984 0.214957 -1.56127 0
M  V30 991 C 95.8284 0.953707 -1.8327 0
M  V30 992 C 96.2364 1.78181 -0.636262 0
M  V30 993 O 95.5794 1.79191 0.404516 0
M  V30 994 C 95.6414 1.91516 -3.0424 0
M  V30 995 C 95.3054 1.27094 -4.38972 0
M  V30 996 C 96.3024 0.657575 -5.15725 0
M  V30 997 C 93.9874 1.28073 -4.85698 0
M  V30 998 C 95.9814 0.0625968 -6.37369 0
M  V30 999 C 93.6684 0.681914 -6.07283 0
M  V30 1000 C 94.6664 0.0739046 -6.8296 0
M  V30 1001 O 94.3544 -0.515582 -8.02245 0
M  V30 1002 H 94.0864 0.284764 -0.613095 0
M  V30 1003 H 96.6404 0.233283 -2.04071 0
M  V30 1004 H 94.8704 2.67475 -2.79274 0
M  V30 1005 H 96.5594 2.52001 -3.18198 0
M  V30 1006 H 97.3254 0.642288 -4.80728 0
M  V30 1007 H 93.2044 1.74337 -4.26764 0
M  V30 1008 H 96.7484 -0.412593 -6.96379 0
M  V30 1009 H 92.6454 0.694636 -6.41752 0
M  V30 1010 H 93.4134 -0.410544 -8.1747 0
M  V30 1011 N 96.0765 1.50051 0.48192 0
M  V30 1012 C 97.3225 1.61706 1.2338 0
M  V30 1013 C 97.6775 0.308488 1.89911 0
M  V30 1014 O 96.9705 -0.692798 1.78636 0
M  V30 1015 C 97.1645 2.72717 2.30998 0
M  V30 1016 C 96.9935 4.14242 1.75024 0
M  V30 1017 C 95.7635 4.80786 1.55476 0
M  V30 1018 C 97.9615 4.98846 1.25128 0
M  V30 1019 N 95.9435 6.06563 0.946311 0
M  V30 1020 C 97.3145 6.15258 0.765382 0
M  V30 1021 C 99.3695 4.84702 1.13881 0
M  V30 1022 C 98.0725 7.19079 0.178113 0
M  V30 1023 C 100.098 5.8869 0.565486 0
M  V30 1024 C 99.4605 7.04343 0.0899105 0
M  V30 1025 H 95.5595 0.645958 0.440753 0
M  V30 1026 H 98.1435 1.8713 0.537624 0
M  V30 1027 H 96.3145 2.49033 2.98055 0
M  V30 1028 H 98.0465 2.73789 2.9803 0
M  V30 1029 H 94.8015 4.37899 1.80392 0
M  V30 1030 H 95.2255 6.73767 0.660812 0
M  V30 1031 H 99.8675 3.95583 1.49244 0
M  V30 1032 H 97.5855 8.07882 -0.187749 0
M  V30 1033 H 101.171 5.79808 0.480974 0
M  V30 1034 H 100.051 7.83433 -0.346782 0
M  V30 1035 N 97.5546 -0.734337 1.39446 0
M  V30 1036 C 98.4866 -1.85861 1.34121 0
M  V30 1037 C 99.4996 -1.60871 0.249864 0
M  V30 1038 O 100.689 -1.71093 0.508865 0
M  V30 1039 C 97.7886 -3.21899 1.05991 0
M  V30 1040 C 96.9616 -3.74239 2.26415 0
M  V30 1041 C 96.0206 -4.88841 1.94733 0
M  V30 1042 O 95.0466 -5.02468 2.67422 0
M  V30 1043 N 96.2486 -5.73261 0.913884 0
M  V30 1044 H 99.0136 -1.90934 2.31007 0
M  V30 1045 H 96.5746 -0.915102 1.33557 0
M  V30 1046 H 98.5666 -3.96136 0.828147 0
M  V30 1047 H 97.1366 -3.12091 0.178361 0
M  V30 1048 H 96.3566 -2.91347 2.65539 0
M  V30 1049 H 97.6446 -4.05942 3.06738 0
M  V30 1050 H 97.0426 -5.64842 0.311476 0
M  V30 1051 H 95.5996 -6.47563 0.742015 0
M  V30 1052 N 99.0327 -1.24633 -0.964593 0
M  V30 1053 C 99.9797 -1.04144 -2.05968 0
M  V30 1054 C 100.95 0.046262 -1.66036 0
M  V30 1055 O 102.135 -0.108972 -1.90489 0
M  V30 1056 C 99.2747 -0.65563 -3.38815 0
M  V30 1057 C 98.3877 -1.81714 -3.91923 0
M  V30 1058 C 97.5227 -1.37662 -5.13052 0
M  V30 1059 C 96.5617 -2.50788 -5.58365 0
M  V30 1060 N 95.6987 -2.07582 -6.70712 0
M  V30 1061 H 100.539 -1.9787 -2.22827 0
M  V30 1062 H 98.0757 -0.9855 -1.09208 0
M  V30 1063 H 100.034 -0.412954 -4.15151 0
M  V30 1064 H 98.6637 0.244627 -3.21872 0
M  V30 1065 H 97.7157 -2.1734 -3.12198 0
M  V30 1066 H 99.0277 -2.66705 -4.21509 0
M  V30 1067 H 98.1817 -1.093 -5.96773 0
M  V30 1068 H 96.9207 -0.497293 -4.85158 0
M  V30 1069 H 95.9257 -2.79906 -4.73215 0
M  V30 1070 H 97.1507 -3.39283 -5.88272 0
M  V30 1071 H 95.0967 -1.22051 -6.44546 0
M  V30 1072 H 95.0137 -2.86125 -6.99763 0
M  V30 1073 H 96.2817 -1.82369 -7.57867 0
M  V30 1074 N 100.511 1.16574 -1.06058 0
M  V30 1075 C 101.421 2.2452 -0.680282 0
M  V30 1076 C 102.437 1.71348 0.302604 0
M  V30 1077 O 103.613 2.00822 0.152513 0
M  V30 1078 C 100.678 3.46629 -0.0700315 0
M  V30 1079 C 99.7388 4.14849 -1.10448 0
M  V30 1080 C 98.9718 5.31129 -0.523256 0
M  V30 1081 O 99.1948 5.66514 0.664709 0
M  V30 1082 O 98.1288 5.88526 -1.26179 0
M  V30 1083 H 101.955 2.59355 -1.58015 0
M  V30 1084 H 99.5398 1.24043 -0.832694 0
M  V30 1085 H 101.422 4.20543 0.268667 0
M  V30 1086 H 100.097 3.13573 0.803353 0
M  V30 1087 H 99.0038 3.42916 -1.49532 0
M  V30 1088 H 100.337 4.51954 -1.94931 0
M  V30 1089 N 101.989 0.842826 1.3317 0
M  V30 1090 C 102.936 0.276885 2.29133 0
M  V30 1091 C 103.906 -0.609527 1.54512 0
M  V30 1092 O 105.091 -0.546955 1.82792 0
M  V30 1093 C 102.231 -0.538707 3.40869 0
M  V30 1094 C 101.344 0.372169 4.30394 0
M  V30 1095 C 100.479 -0.454908 5.29249 0
M  V30 1096 C 99.5179 0.45411 6.10413 0
M  V30 1097 N 98.6549 -0.335075 7.013 0
M  V30 1098 H 103.495 1.10052 2.76934 0
M  V30 1099 H 101.032 0.554161 1.36262 0
M  V30 1100 H 102.99 -1.02709 4.0436 0
M  V30 1101 H 101.62 -1.32727 2.9425 0
M  V30 1102 H 100.672 0.97888 3.6759 0
M  V30 1103 H 101.984 1.0703 4.87182 0
M  V30 1104 H 101.138 -1.00695 5.98285 0
M  V30 1105 H 99.8769 -1.18646 4.73048 0
M  V30 1106 H 98.8819 1.01813 5.40291 0
M  V30 1107 H 100.107 1.18409 6.68697 0
M  V30 1108 H 98.0529 -1.04994 6.47543 0
M  V30 1109 H 97.9699 0.304262 7.55387 0
M  V30 1110 H 99.2379 -0.869224 7.74638 0
M  V30 1111 N 103.467 -1.45747 0.599634 0
M  V30 1112 C 104.414 -2.30467 -0.123849 0
M  V30 1113 C 105.384 -1.41632 -0.86774 0
M  V30 1114 O 106.569 -1.70568 -0.855056 0
M  V30 1115 C 103.709 -3.26402 -1.12051 0
M  V30 1116 C 102.822 -4.3034 -0.37832 0
M  V30 1117 C 101.957 -5.13389 -1.364 0
M  V30 1118 C 100.996 -6.09061 -0.609171 0
M  V30 1119 N 100.133 -6.84918 -1.54374 0
M  V30 1120 H 104.973 -2.91802 0.604627 0
M  V30 1121 H 102.51 -1.43797 0.309972 0
M  V30 1122 H 104.468 -3.80482 -1.7114 0
M  V30 1123 H 103.098 -2.66839 -1.8165 0
M  V30 1124 H 102.15 -3.78984 0.327929 0
M  V30 1125 H 103.462 -4.98354 0.210997 0
M  V30 1126 H 102.616 -5.7183 -2.02719 0
M  V30 1127 H 101.355 -4.45376 -1.98725 0
M  V30 1128 H 100.36 -5.49758 0.0676979 0
M  V30 1129 H 101.585 -6.79099 0.00891991 0
M  V30 1130 H 99.531 -6.19601 -2.15478 0
M  V30 1131 H 99.448 -7.49254 -1.00766 0
M  V30 1132 H 100.716 -7.47906 -2.19676 0
M  V30 1133 N 104.945 -0.338344 -1.53925 0
M  V30 1134 C 105.878 0.563758 -2.21127 0
M  V30 1135 C 106.856 1.10433 -1.19345 0
M  V30 1136 O 108.04 1.16557 -1.48144 0
M  V30 1137 C 105.167 1.77505 -2.88461 0
M  V30 1138 C 104.213 1.3644 -4.04087 0
M  V30 1139 S 105.046 0.388593 -5.34088 0
M  V30 1140 C 106.202 1.60683 -6.04923 0
M  V30 1141 H 106.435 -0.00704546 -2.97299 0
M  V30 1142 H 103.968 -0.122418 -1.53914 0
M  V30 1143 H 105.926 2.46999 -3.27875 0
M  V30 1144 H 104.587 2.31706 -2.12064 0
M  V30 1145 H 103.78 2.26739 -4.50117 0
M  V30 1146 H 103.382 0.748998 -3.66423 0
M  V30 1147 H 105.674 2.54209 -6.28 0
M  V30 1148 H 106.617 1.18842 -6.98056 0
M  V30 1149 H 107.025 1.80052 -5.35015 0
M  V30 1150 N 106.423 1.57458 -0.0668435 0
M  V30 1151 C 107.669 1.93587 0.6043 0
M  V30 1152 C 108.002 0.946722 1.69561 0
M  V30 1153 O 107.277 -0.0248516 1.94484 0
M  V30 1154 C 107.56 3.40014 1.18585 0
M  V30 1155 C 107.413 4.49685 0.101529 0
M  V30 1156 C 108.732 3.87154 2.09284 0
M  V30 1157 H 105.851 0.703958 0.218202 0
M  V30 1158 H 108.493 1.89542 -0.131804 0
M  V30 1159 H 106.643 3.43592 1.81319 0
M  V30 1160 H 108.315 4.5823 -0.531279 0
M  V30 1161 H 106.558 4.30059 -0.568487 0
M  V30 1162 H 107.229 5.49266 0.54874 0
M  V30 1163 H 109.705 3.85551 1.56491 0
M  V30 1164 H 108.581 4.90231 2.46911 0
M  V30 1165 H 108.842 3.2481 2.99918 0
M  V30 1166 N 107.901 -0.206675 1.56239 0
M  V30 1167 C 108.831 -1.25909 1.96645 0
M  V30 1168 C 109.812 -1.48097 0.836734 0
M  V30 1169 O 110.997 -1.6003 1.10019 0
M  V30 1170 C 108.127 -2.6058 2.29599 0
M  V30 1171 C 107.081 -2.53024 3.452 0
M  V30 1172 C 106.407 -3.91861 3.63798 0
M  V30 1173 C 107.707 -2.06524 4.79734 0
M  V30 1174 H 109.401 -0.923369 2.84806 0
M  V30 1175 H 106.947 -0.442735 1.37025 0
M  V30 1176 H 108.9 -3.34375 2.56459 0
M  V30 1177 H 107.624 -2.95869 1.38307 0
M  V30 1178 H 106.283 -1.81684 3.18412 0
M  V30 1179 H 105.931 -4.24483 2.69857 0
M  V30 1180 H 105.631 -3.87683 4.4156 0
M  V30 1181 H 107.155 -4.67296 3.93022 0
M  V30 1182 H 108.569 -2.70072 5.05702 0
M  V30 1183 H 106.966 -2.13374 5.60885 0
M  V30 1184 H 108.036 -1.01802 4.74093 0
M  V30 1185 N 109.379 -1.50304 -0.473955 0
M  V30 1186 C 110.607 -1.64902 -1.24959 0
M  V30 1187 C 111.022 -0.331198 -1.85872 0
M  V30 1188 O 110.379 0.68652 -1.69095 0
M  V30 1189 C 110.43 -2.73803 -2.36038 0
M  V30 1190 O 110.151 -4.00477 -1.77624 0
M  V30 1191 C 111.652 -2.99349 -3.26964 0
M  V30 1192 H 108.872 -0.554383 -0.378022 0
M  V30 1193 H 111.416 -1.9651 -0.566054 0
M  V30 1194 H 109.571 -2.44898 -3.00173 0
M  V30 1195 H 109.985 -4.60678 -2.5075 0
M  V30 1196 H 111.459 -3.79217 -4.01121 0
M  V30 1197 H 111.936 -2.10307 -3.85574 0
M  V30 1198 H 112.542 -3.29774 -2.68569 0
M  V30 1199 N 110.857 0.726932 -1.39834 0
M  V30 1200 C 111.79 1.8501 -1.33592 0
M  V30 1201 C 112.768 1.61262 -0.208191 0
M  V30 1202 O 113.952 1.84422 -0.389981 0
M  V30 1203 C 111.079 3.21143 -1.07633 0
M  V30 1204 C 110.125 3.63737 -2.22705 0
M  V30 1205 S 110.958 3.72167 -3.85035 0
M  V30 1206 C 112.114 5.11077 -3.61318 0
M  V30 1207 H 112.347 1.90022 -2.28646 0
M  V30 1208 H 109.88 0.892595 -1.25985 0
M  V30 1209 H 111.838 3.99747 -0.933415 0
M  V30 1210 H 110.499 3.13776 -0.142526 0
M  V30 1211 H 109.692 4.62551 -2.00155 0
M  V30 1212 H 109.294 2.9236 -2.33242 0
M  V30 1213 H 111.586 5.97656 -3.19083 0
M  V30 1214 H 112.529 5.38658 -4.59623 0
M  V30 1215 H 112.937 4.81135 -2.95245 0
M  V30 1216 N 112.336 1.25143 0.95797 0
M  V30 1217 C 113.269 0.995565 2.05338 0
M  V30 1218 C 114.247 -0.0740423 1.62431 0
M  V30 1219 O 115.431 0.0649212 1.88388 0
M  V30 1220 C 112.558 0.504298 3.34925 0
M  V30 1221 C 111.604 1.56393 3.96792 0
M  V30 1222 S 112.437 3.14815 4.33188 0
M  V30 1223 C 113.593 2.67415 5.65898 0
M  V30 1224 H 113.826 1.92309 2.26726 0
M  V30 1225 H 111.359 1.08635 1.09716 0
M  V30 1226 H 113.317 0.227497 4.09869 0
M  V30 1227 H 111.978 -0.402671 3.11508 0
M  V30 1228 H 111.171 1.17082 4.90212 0
M  V30 1229 H 110.773 1.79124 3.28315 0
M  V30 1230 H 113.065 2.10833 6.4386 0
M  V30 1231 H 114.008 3.59463 6.10076 0
M  V30 1232 H 114.416 2.07521 5.24972 0
M  V30 1233 N 113.814 -1.1601 1.06675 0
M  V30 1234 C 115.039 -1.91068 0.806706 0
M  V30 1235 C 115.464 -1.77112 -0.633485 0
M  V30 1236 O 114.822 -1.09908 -1.44187 0
M  V30 1237 C 114.87 -3.39655 1.21106 0
M  V30 1238 O 113.974 -4.10893 0.352189 0
M  V30 1239 H 113.315 -0.595125 0.294486 0
M  V30 1240 H 115.845 -1.46955 1.42356 0
M  V30 1241 H 115.855 -3.90434 1.18428 0
M  V30 1242 H 114.53 -3.49132 2.26008 0
M  V30 1243 H 113.107 -3.70285 0.440868 0
M  V30 1244 N 115.292 -0.849877 -1.32721 0
M  V30 1245 C 116.54 -0.450032 -1.97026 0
M  V30 1246 C 116.861 0.996604 -1.67609 0
M  V30 1247 O 116.131 1.6958 -0.980786 0
M  V30 1248 H 114.711 -0.163426 -0.728904 0
M  V30 1249 H 117.373 -1.08526 -1.6189 0
M  V30 1250 H 116.469 -0.591146 -3.0645 0
M  V30 1251 N 116.77 1.45427 -0.607355 0
M  V30 1252 C 118.047 1.9557 -0.0344566 0
M  V30 1253 C 118.427 1.54979 1.43334 0
M  V30 1254 O 117.775 0.812241 2.13576 0
M  V30 1255 C 117.985 3.48226 -0.232321 0
M  V30 1256 C 119.333 4.2445 -0.113001 0
M  V30 1257 O 120.357 3.55829 -0.162431 0
M  V30 1258 O 119.216 5.465 0.00209442 0
M  V30 1259 H 116.31 0.826222 0.0358667 0
M  V30 1260 H 118.856 1.55594 -0.6774 0
M  V30 1261 H 117.628 3.70739 -1.25174 0
M  V30 1262 H 117.251 3.95092 0.445896 0
M  V30 1263 N 118.248 0.346503 1.53744 0
M  V30 1264 C 119.181 -0.552023 2.21423 0
M  V30 1265 C 120.159 -1.09798 1.19929 0
M  V30 1266 O 121.343 -1.1577 1.4876 0
M  V30 1267 C 118.47 -1.75972 2.89398 0
M  V30 1268 C 117.516 -1.34295 4.04805 0
M  V30 1269 S 118.349 -0.360263 5.34287 0
M  V30 1270 C 119.505 -1.57473 6.05767 0
M  V30 1271 H 119.738 0.0228119 2.97291 0
M  V30 1272 H 117.271 0.130579 1.53847 0
M  V30 1273 H 119.229 -2.45256 3.2918 0
M  V30 1274 H 117.89 -2.30578 2.1329 0
M  V30 1275 H 117.083 -2.24349 4.51313 0
M  V30 1276 H 116.685 -0.729555 3.66815 0
M  V30 1277 H 118.977 -2.50875 6.29339 0
M  V30 1278 H 119.92 -1.15138 6.98676 0
M  V30 1279 H 120.328 -1.77212 5.35963 0
M  V30 1280 N 119.726 -1.57421 0.075193 0
M  V30 1281 C 120.674 -2.14124 -0.908508 0
M  V30 1282 C 121.668 -1.07898 -1.30592 0
M  V30 1283 O 122.874 -1.26273 -1.28277 0
M  V30 1284 H 119.249 -0.684707 -0.310935 0
M  V30 1285 H 121.22 -2.95634 -0.405374 0
M  V30 1286 C 119.969 -2.72044 -2.16535 0
M  V30 1287 H 119.292 -3.53456 -1.86839 0
M  V30 1288 H 120.732 -3.15311 -2.83469 0
M  V30 1289 C 119.191 -1.66968 -2.92615 0
M  V30 1290 O 119.721 -1.0967 -3.86439 0
M  V30 1291 N 117.927 -1.37923 -2.55784 0
M  V30 1292 H 117.474 -1.84706 -1.79559 0
M  V30 1293 H 117.432 -0.67852 -3.06991 0
M  V30 1294 N 121.204 0.198386 -1.56346 0
M  V30 1295 C 122.453 0.917451 -1.79627 0
M  V30 1296 C 122.766 1.8456 -0.64784 0
M  V30 1297 O 123.972 2.60504 -0.764859 0
M  V30 1298 C 122.428 1.68175 -3.18191 0
M  V30 1299 C 122.036 0.798589 -4.40825 0
M  V30 1300 C 123.78 2.39065 -3.50782 0
M  V30 1301 C 121.687 1.56157 -5.70411 0
M  V30 1302 H 120.617 0.346317 -0.669762 0
M  V30 1303 H 123.268 0.170801 -1.82703 0
M  V30 1304 H 121.65 2.47216 -3.09354 0
M  V30 1305 H 122.824 0.0470665 -4.60776 0
M  V30 1306 H 121.139 0.200686 -4.15916 0
M  V30 1307 H 123.736 2.96692 -4.44835 0
M  V30 1308 H 124.079 3.13091 -2.74371 0
M  V30 1309 H 124.612 1.66993 -3.61052 0
M  V30 1310 H 121.351 0.864142 -6.49779 0
M  V30 1311 H 120.871 2.2871 -5.54483 0
M  V30 1312 H 122.55 2.11622 -6.11412 0
M  V30 1313 N 122.682 1.50554 0.465978 0
M  V30 1314 C 123.928 1.63006 1.21658 0
M  V30 1315 C 124.283 0.328613 1.89573 0
M  V30 1316 O 123.576 -0.673813 1.79361 0
M  V30 1317 C 123.77 2.75152 2.28093 0
M  V30 1318 C 123.599 4.16075 1.7062 0
M  V30 1319 C 122.369 4.82408 1.50368 0
M  V30 1320 C 124.567 5.00145 1.1983 0
M  V30 1321 N 122.549 6.07532 0.881924 0
M  V30 1322 C 123.92 6.16035 0.700083 0
M  V30 1323 C 125.975 4.85882 1.08733 0
M  V30 1324 C 124.678 7.19228 0.101835 0
M  V30 1325 C 126.704 5.89257 0.503016 0
M  V30 1326 C 126.066 7.04398 0.0152005 0
M  V30 1327 H 122.165 0.650596 0.433877 0
M  V30 1328 H 124.749 1.8769 0.517746 0
M  V30 1329 H 122.92 2.52181 2.95397 0
M  V30 1330 H 124.652 2.76935 2.95109 0
M  V30 1331 H 121.407 4.39788 1.75737 0
M  V30 1332 H 121.831 6.7443 0.589312 0
M  V30 1333 H 126.473 3.97144 1.4504 0
M  V30 1334 H 124.191 8.07637 -0.273426 0
M  V30 1335 H 127.777 5.80286 0.419451 0
M  V30 1336 H 126.657 7.83021 -0.429856 0
M  V30 1337 N 124.16 -0.719506 1.40217 0
M  V30 1338 C 125.571 -1.29848 1.34151 0
M  V30 1339 C 125.922 -1.96196 0.0131349 0
M  V30 1340 O 125.047 -1.973 -0.88892 0
M  V30 1341 C 125.642 -2.36118 2.42968 0
M  V30 1342 C 124.201 -2.8965 2.40374 0
M  V30 1343 C 123.348 -1.63393 2.24049 0
M  V30 1344 H 126.299 -0.51591 1.5008 0
M  V30 1345 H 126.32 -3.16871 2.10649 0
M  V30 1346 H 125.832 -1.878 3.39636 0
M  V30 1347 H 123.933 -3.42208 1.47392 0
M  V30 1348 H 124.046 -3.4171 3.35814 0
M  V30 1349 H 122.41 -1.88312 1.71495 0
M  V30 1350 H 123.193 -1.17104 3.2271 0
M  V30 1351 N 125.638 -1.25649 -0.95132 0
M  V30 1352 C 126.548 -1.08073 -2.08224 0
M  V30 1353 C 127.564 -0.0169666 -1.73992 0
M  V30 1354 O 128.74 -0.218593 -2.0021 0
M  V30 1355 C 125.805 -0.704922 -3.39458 0
M  V30 1356 C 124.866 -1.84699 -3.87537 0
M  V30 1357 C 124.099 -1.48902 -5.12508 0
M  V30 1358 O 124.322 -0.386156 -5.69091 0
M  V30 1359 O 123.256 -2.32033 -5.55378 0
M  V30 1360 H 127.082 -2.02924 -2.25954 0
M  V30 1361 H 124.667 -1.04618 -1.06656 0
M  V30 1362 H 126.549 -0.507609 -4.18332 0
M  V30 1363 H 125.224 0.214291 -3.2299 0
M  V30 1364 H 124.131 -2.09919 -3.09653 0
M  V30 1365 H 125.464 -2.74557 -4.08509 0
M  V30 1366 N 127.117 1.15442 -1.07289 0
M  V30 1367 C 128.347 1.89821 -0.815576 0
M  V30 1368 C 128.755 1.7823 0.634867 0
M  V30 1369 O 128.098 1.13152 1.44715 0
M  V30 1370 C 128.16 3.40817 -1.14385 0
M  V30 1371 C 127.824 3.76193 -2.59476 0
M  V30 1372 C 128.821 3.77269 -3.57721 0
M  V30 1373 C 126.506 4.0652 -2.95037 0
M  V30 1374 C 128.5 4.08176 -4.89562 0
M  V30 1375 C 126.187 4.37092 -4.27076 0
M  V30 1376 C 127.185 4.37902 -5.24148 0
M  V30 1377 O 126.873 4.67741 -6.53815 0
M  V30 1378 H 126.605 0.608465 -0.294528 0
M  V30 1379 H 129.159 1.472 -1.43252 0
M  V30 1380 H 127.389 3.83835 -0.469865 0
M  V30 1381 H 129.078 3.96485 -0.869179 0
M  V30 1382 H 129.844 3.5394 -3.3159 0
M  V30 1383 H 125.723 4.05049 -2.20128 0
M  V30 1384 H 129.267 4.08723 -5.65324 0
M  V30 1385 H 125.164 4.59889 -4.5296 0
M  V30 1386 H 125.932 4.85509 -6.58957 0
M  V30 1387 N 128.595 0.856903 1.32268 0
M  V30 1388 C 129.542 0.301172 2.28827 0
M  V30 1389 C 130.512 -0.593104 1.5515 0
M  V30 1390 O 131.697 -0.527537 1.83362 0
M  V30 1391 C 128.837 -0.502523 3.41422 0
M  V30 1392 C 127.95 0.417797 4.29975 0
M  V30 1393 C 127.085 -0.398749 5.29701 0
M  V30 1394 C 126.124 0.518827 6.09897 0
M  V30 1395 N 125.261 -0.260674 7.01616 0
M  V30 1396 H 130.101 1.12983 2.75751 0
M  V30 1397 H 127.638 0.568582 1.35667 0
M  V30 1398 H 129.596 -0.984141 4.05426 0
M  V30 1399 H 128.226 -1.29599 2.95642 0
M  V30 1400 H 127.278 1.01781 3.66531 0
M  V30 1401 H 128.59 1.12191 4.86019 0
M  V30 1402 H 127.744 -0.943435 5.9932 0
M  V30 1403 H 126.483 -1.13622 4.7428 0
M  V30 1404 H 125.488 1.07538 5.39181 0
M  V30 1405 H 126.713 1.25495 6.67404 0
M  V30 1406 H 124.659 -0.981198 6.4862 0
M  V30 1407 H 124.576 0.384364 7.55022 0
M  V30 1408 H 125.844 -0.787014 7.75517 0
M  V30 1409 N 130.073 -1.45103 0.615059 0
M  V30 1410 C 131.021 -2.32331 -0.111791 0
M  V30 1411 C 132.015 -1.46409 -0.852102 0
M  V30 1412 O 133.221 -1.62849 -0.766821 0
M  V30 1413 H 129.596 -0.749993 -0.0549072 0
M  V30 1414 H 131.567 -2.91407 0.642225 0
M  V30 1415 C 130.316 -3.3015 -1.09071 0
M  V30 1416 H 129.639 -3.96265 -0.530485 0
M  V30 1417 H 131.079 -3.93898 -1.56908 0
M  V30 1418 C 129.538 -2.57875 -2.168 0
M  V30 1419 O 130.068 -2.36567 -3.24652 0
M  V30 1420 N 128.274 -2.17884 -1.92289 0
M  V30 1421 H 127.821 -2.35413 -1.04587 0
M  V30 1422 H 127.779 -1.6985 -2.64572 0
M  V30 1423 N 131.551 -0.354651 -1.53558 0
M  V30 1424 C 132.967 -0.00315426 -1.596 0
M  V30 1425 C 133.167 1.47741 -1.37021 0
M  V30 1426 O 132.223 2.23759 -1.16996 0
M  V30 1427 C 133.536 -0.44929 -2.97325 0
M  V30 1428 C 135.084 -0.402578 -3.104 0
M  V30 1429 C 135.559 -0.824355 -4.5052 0
M  V30 1430 N 137.05 -0.778979 -4.56603 0
M  V30 1431 C 137.785 -1.07715 -5.63192 0
M  V30 1432 N 137.281 -1.44405 -6.77583 0
M  V30 1433 N 139.074 -1.00066 -5.53121 0
M  V30 1434 H 131.225 -1.31893 -1.66487 0
M  V30 1435 H 133.488 -0.538388 -0.780284 0
M  V30 1436 H 133.194 -1.48202 -3.1895 0
M  V30 1437 H 133.068 0.169772 -3.76818 0
M  V30 1438 H 135.455 0.621004 -2.88492 0
M  V30 1439 H 135.536 -1.05699 -2.32941 0
M  V30 1440 H 135.18 -1.846 -4.73165 0
M  V30 1441 H 135.11 -0.147304 -5.26394 0
M  V30 1442 H 137.601 -0.508528 -3.74463 0
M  V30 1443 H 137.914 -1.65612 -7.54846 0
M  V30 1444 H 136.259 -1.4826 -6.79002 0
M  V30 1445 H 139.45 -0.713293 -4.62633 0
M  V30 1446 H 139.623 -1.23638 -6.36096 0
M  V30 1447 N 133.029 1.57378 -0.0835403 0
M  V30 1448 C 134.257 1.98263 0.59157 0
M  V30 1449 C 134.672 0.962302 1.62435 0
M  V30 1450 O 134.029 -0.049581 1.82433 0
M  V30 1451 C 134.08 3.39214 1.24965 0
M  V30 1452 O 133.801 4.37339 0.258186 0
M  V30 1453 C 135.302 3.95038 2.01147 0
M  V30 1454 H 132.522 0.651773 0.159477 0
M  V30 1455 H 135.066 2.03878 -0.159415 0
M  V30 1456 H 133.221 3.34649 1.95164 0
M  V30 1457 H 133.635 5.19371 0.731734 0
M  V30 1458 H 135.109 4.95848 2.42567 0
M  V30 1459 H 135.586 3.32222 2.87272 0
M  V30 1460 H 136.192 4.0304 1.35789 0
M  V30 1461 N 134.507 -0.190092 1.56449 0
M  V30 1462 C 135.756 -0.907912 1.80111 0
M  V30 1463 C 136.069 -1.84214 0.657619 0
M  V30 1464 O 137.275 -2.60094 0.778663 0
M  V30 1465 C 135.731 -1.66485 3.19078 0
M  V30 1466 C 135.339 -0.7752 4.41242 0
M  V30 1467 C 137.083 -2.37201 3.52045 0
M  V30 1468 C 134.99 -1.53129 5.71231 0
M  V30 1469 H 133.92 -0.34276 0.671589 0
M  V30 1470 H 136.571 -0.161109 1.82791 0
M  V30 1471 H 134.953 -2.45572 3.10661 0
M  V30 1472 H 136.127 -0.0226298 4.60794 0
M  V30 1473 H 134.442 -0.178627 4.16017 0
M  V30 1474 H 137.039 -2.94329 4.46402 0
M  V30 1475 H 137.382 -3.11632 2.76028 0
M  V30 1476 H 137.915 -1.65075 3.61932 0
M  V30 1477 H 134.654 -0.82967 6.50228 0
M  V30 1478 H 134.174 -2.25767 5.55688 0
M  V30 1479 H 135.853 -2.08377 6.12526 0
M  V30 1480 N 135.985 -1.50799 -0.457987 0
M  V30 1481 C 137.232 -1.62442 -1.20908 0
M  V30 1482 C 137.56 -0.330865 -1.91665 0
M  V30 1483 O 136.815 0.68401 -1.83357 0
M  V30 1484 C 137.114 -2.76358 -2.2663 0
M  V30 1485 C 136.78 -4.16378 -1.73033 0
M  V30 1486 C 135.442 -4.54473 -1.58138 0
M  V30 1487 C 137.794 -5.03836 -1.33413 0
M  V30 1488 C 135.122 -5.77754 -1.02065 0
M  V30 1489 C 137.474 -6.27676 -0.78778 0
M  V30 1490 C 136.138 -6.64562 -0.625561 0
M  V30 1491 H 135.408 -0.594417 -0.442435 0
M  V30 1492 H 138.055 -1.84772 -0.503136 0
M  V30 1493 H 136.36 -2.48167 -3.03184 0
M  V30 1494 H 138.057 -2.82568 -2.84528 0
M  V30 1495 H 134.647 -3.86331 -1.85598 0
M  V30 1496 H 138.831 -4.75026 -1.4375 0
M  V30 1497 H 134.087 -6.04997 -0.882547 0
M  V30 1498 H 138.261 -6.94797 -0.472177 0
M  V30 1499 H 135.888 -7.59965 -0.188926 0
M  V30 1500 N 137.463 0.71206 -1.40597 0
M  V30 1501 C 138.74 1.46536 -1.29563 0
M  V30 1502 C 139.12 2.10931 0.0844217 0
M  V30 1503 O 138.468 2.00418 1.0975 0
M  V30 1504 C 138.678 2.49821 -2.43701 0
M  V30 1505 C 140.026 3.15551 -2.841 0
M  V30 1506 O 141.05 2.60142 -2.4332 0
M  V30 1507 O 139.909 4.15867 -3.54566 0
M  V30 1508 H 137.003 0.651801 -0.509004 0
M  V30 1509 H 139.549 0.743935 -1.52524 0
M  V30 1510 H 138.321 2.00778 -3.35863 0
M  V30 1511 H 137.944 3.29495 -2.22528 0
M  V30 1512 N 138.941 1.26152 0.944643 0
M  V30 1513 C 140.19 1.10883 1.68487 0
M  V30 1514 C 140.503 -0.348153 1.92477 0
M  V30 1515 O 141.709 -0.621459 2.64292 0
M  V30 1516 C 140.165 1.93624 3.03377 0
M  V30 1517 C 139.773 3.43875 2.87148 0
M  V30 1518 C 141.517 1.86954 3.81115 0
M  V30 1519 C 139.424 4.18875 4.1749 0
M  V30 1520 H 138.354 0.41135 0.631907 0
M  V30 1521 H 141.005 1.50433 1.05082 0
M  V30 1522 H 139.387 1.46904 3.67743 0
M  V30 1523 H 140.561 3.98338 2.31653 0
M  V30 1524 H 138.876 3.51744 2.22856 0
M  V30 1525 H 141.473 2.40275 4.77673 0
M  V30 1526 H 141.816 0.839518 4.07747 0
M  V30 1527 H 142.349 2.31477 3.23517 0
M  V30 1528 H 139.088 5.22332 3.96043 0
M  V30 1529 H 138.608 3.69193 4.72712 0
M  V30 1530 H 140.287 4.27134 4.85968 0
M  V30 1531 N 140.419 -1.14872 1.07899 0
M  V30 1532 C 141.647 -1.89661 0.82683 0
M  V30 1533 C 142.062 -1.78312 -0.620519 0
M  V30 1534 O 141.419 -1.13888 -1.42604 0
M  V30 1535 C 141.47 -3.39817 1.23316 0
M  V30 1536 O 141.191 -3.50845 2.62372 0
M  V30 1537 C 142.692 -4.31615 1.0111 0
M  V30 1538 H 139.912 -0.60092 0.298557 0
M  V30 1539 H 142.456 -1.4551 1.43691 0
M  V30 1540 H 140.611 -3.8161 0.667286 0
M  V30 1541 H 141.025 -4.44076 2.79101 0
M  V30 1542 H 142.499 -5.35367 1.34486 0
M  V30 1543 H 142.976 -4.39169 -0.0522168 0
M  V30 1544 H 143.582 -3.95572 1.56215 0
M  V30 1545 N 141.898 -0.863906 -1.31812 0
M  V30 1546 C 142.846 -0.30422 -2.30602 0
M  V30 1547 C 143.84 0.577419 -1.59255 0
M  V30 1548 O 145.046 0.464194 -1.73912 0
M  V30 1549 H 141.421 -0.0796877 -0.747766 0
M  V30 1550 H 143.392 -1.15148 -2.75288 0
M  V30 1551 C 142.141 0.484617 -3.44306 0
M  V30 1552 H 141.464 -0.18451 -3.99374 0
M  V30 1553 H 142.904 0.841664 -4.15562 0
M  V30 1554 C 141.363 1.6735 -2.92396 0
M  V30 1555 O 141.893 2.77273 -2.90659 0
M  V30 1556 N 140.099 1.50362 -2.48676 0
M  V30 1557 H 139.646 0.609402 -2.50288 0
M  V30 1558 H 139.604 2.30051 -2.14299 0
M  V30 1559 N 143.376 1.44774 -0.622745 0
M  V30 1560 C 144.324 2.32387 0.0994683 0
M  V30 1561 C 145.318 1.46859 0.844326 0
M  V30 1562 O 146.524 1.63254 0.758174 0
M  V30 1563 H 142.899 0.750273 0.0509291 0
M  V30 1564 H 144.87 2.91062 -0.65767 0
M  V30 1565 C 143.619 3.30723 1.07319 0
M  V30 1566 H 142.942 3.96541 0.509462 0
M  V30 1567 H 144.382 3.94725 1.54817 0
M  V30 1568 C 142.841 2.59021 2.15429 0
M  V30 1569 O 143.371 2.38286 3.23393 0
M  V30 1570 N 141.577 2.189 1.91131 0
M  V30 1571 H 141.124 2.35964 1.03337 0
M  V30 1572 H 141.082 1.71251 2.63668 0
M  V30 1573 N 144.854 0.36279 1.53368 0
M  V30 1574 C 145.784 -0.476976 2.28576 0
M  V30 1575 C 146.765 -1.08631 1.30894 0
M  V30 1576 O 147.95 -1.10409 1.59761 0
M  V30 1577 C 145.08 -1.61828 3.07293 0
M  V30 1578 C 144.034 -1.13633 4.1264 0
M  V30 1579 C 143.36 -2.36766 4.79423 0
M  V30 1580 C 144.66 -0.223061 5.21823 0
M  V30 1581 H 146.354 0.150474 2.99022 0
M  V30 1582 H 143.9 0.0738103 1.43811 0
M  V30 1583 H 145.853 -2.21237 3.58653 0
M  V30 1584 H 144.577 -2.27292 2.34533 0
M  V30 1585 H 143.236 -0.564945 3.62221 0
M  V30 1586 H 142.884 -3.0068 4.03238 0
M  V30 1587 H 142.584 -2.05192 5.50609 0
M  V30 1588 H 144.108 -2.96865 5.33576 0
M  V30 1589 H 145.522 -0.724545 5.68703 0
M  V30 1590 H 143.919 0.001678 6.001 0
M  V30 1591 H 144.989 0.735553 4.79289 0
M  V30 1592 N 146.332 -1.57332 0.0918853 0
M  V30 1593 C 147.557 -1.98995 -0.584442 0
M  V30 1594 C 147.982 -0.970528 -1.61128 0
M  V30 1595 O 147.34 0.0613904 -1.81196 0
M  V30 1596 C 147.388 -3.39636 -1.21161 0
M  V30 1597 O 146.492 -3.40447 -2.32744 0
M  V30 1598 H 145.833 -0.647165 -0.148572 0
M  V30 1599 H 148.363 -2.03873 0.172347 0
M  V30 1600 H 148.373 -3.7726 -1.55367 0
M  V30 1601 H 147.048 -4.13356 -0.459313 0
M  V30 1602 H 145.625 -3.14614 -2.0018 0
M  V30 1603 N 147.81 0.181792 -1.56548 0
M  V30 1604 C 149.059 0.898348 -1.8059 0
M  V30 1605 C 149.372 1.83862 -0.667379 0
M  V30 1606 O 150.578 2.59678 -0.792446 0
M  V30 1607 C 149.034 1.64791 -3.19956 0
M  V30 1608 C 148.642 0.751789 -4.41647 0
M  V30 1609 C 150.386 2.35331 -3.53298 0
M  V30 1610 C 148.293 1.50098 -5.72035 0
M  V30 1611 H 147.223 0.339194 -0.673397 0
M  V30 1612 H 149.874 0.151413 -1.82874 0
M  V30 1613 H 148.256 2.43921 -3.11959 0
M  V30 1614 H 149.43 -0.0018076 -4.608 0
M  V30 1615 H 147.745 0.156562 -4.16106 0
M  V30 1616 H 150.342 2.91958 -4.47956 0
M  V30 1617 H 150.685 3.10164 -2.77676 0
M  V30 1618 H 151.218 1.63154 -3.62803 0
M  V30 1619 H 147.957 0.795175 -6.50659 0
M  V30 1620 H 147.477 2.22817 -5.56878 0
M  V30 1621 H 149.156 2.05125 -6.13622 0
M  V30 1622 N 149.288 1.51039 0.449983 0
M  V30 1623 C 150.534 1.63322 1.20223 0
M  V30 1624 C 150.867 0.34241 1.91158 0
M  V30 1625 O 150.142 -0.657344 1.83055 0
M  V30 1626 C 150.425 2.82801 2.22925 0
M  V30 1627 C 150.278 4.21823 1.56157 0
M  V30 1628 C 151.597 2.97807 3.24035 0
M  V30 1629 H 148.716 0.594407 0.435718 0
M  V30 1630 H 151.358 1.83489 0.493136 0
M  V30 1631 H 149.508 2.65738 2.834 0
M  V30 1632 H 151.18 4.50526 0.991162 0
M  V30 1633 H 149.423 4.25105 0.864172 0
M  V30 1634 H 150.094 5.01391 2.30891 0
M  V30 1635 H 152.57 3.13497 2.73603 0
M  V30 1636 H 151.446 3.82992 3.93202 0
M  V30 1637 H 151.707 2.09328 3.89402 0
M  V30 1638 N 150.766 -0.704594 1.40972 0
M  V30 1639 C 152.015 -1.46018 1.39146 0
M  V30 1640 C 152.328 -1.956 0.000589254 0
M  V30 1641 O 153.534 -2.71137 -0.1403 0
M  V30 1642 C 151.99 -2.63996 2.4461 0
M  V30 1643 C 151.598 -2.21238 3.89561 0
M  V30 1644 C 153.342 -3.41677 2.51907 0
M  V30 1645 C 151.249 -3.3612 4.86598 0
M  V30 1646 H 150.179 -0.548444 0.517422 0
M  V30 1647 H 152.83 -0.765784 1.66757 0
M  V30 1648 H 151.212 -3.3566 2.10115 0
M  V30 1649 H 152.386 -1.56923 4.33257 0
M  V30 1650 H 150.701 -1.56574 3.85841 0
M  V30 1651 H 153.298 -4.27182 3.2159 0
M  V30 1652 H 153.641 -3.86247 1.55303 0
M  V30 1653 H 154.174 -2.77064 2.85448 0
M  V30 1654 H 150.913 -2.96572 5.84573 0
M  V30 1655 H 150.433 -3.99315 4.47557 0
M  V30 1656 H 152.112 -4.02029 5.06934 0
M  V30 1657 N 152.244 -1.26651 -0.937939 0
M  V30 1658 C 153.174 -1.10993 -2.05433 0
M  V30 1659 C 154.155 -0.0142161 -1.70094 0
M  V30 1660 O 155.34 -0.186837 -1.93299 0
M  V30 1661 C 152.47 -0.745561 -3.39203 0
M  V30 1662 C 151.424 -1.79337 -3.88616 0
M  V30 1663 C 150.75 -1.28324 -5.19073 0
M  V30 1664 C 152.05 -3.19553 -4.13138 0
M  V30 1665 H 153.744 -2.0438 -2.1879 0
M  V30 1666 H 151.29 -0.984041 -1.05131 0
M  V30 1667 H 153.243 -0.622888 -4.16771 0
M  V30 1668 H 151.967 0.22401 -3.25831 0
M  V30 1669 H 150.626 -1.90477 -3.13231 0
M  V30 1670 H 150.274 -0.303414 -5.02084 0
M  V30 1671 H 149.974 -1.98369 -5.53103 0
M  V30 1672 H 151.498 -1.1733 -5.99221 0
M  V30 1673 H 152.912 -3.11471 -4.81309 0
M  V30 1674 H 151.309 -3.87218 -4.58457 0
M  V30 1675 H 152.379 -3.65368 -3.18801 0
M  V30 1676 N 153.722 1.14298 -1.08507 0
M  V30 1677 C 154.685 2.17607 -0.719711 0
M  V30 1678 C 155.685 1.58907 0.245997 0
M  V30 1679 O 156.875 1.74181 0.0254081 0
M  V30 1680 C 154.007 3.40842 -0.0627695 0
M  V30 1681 H 155.2 2.51443 -1.63452 0
M  V30 1682 H 152.753 1.28963 -0.88307 0
M  V30 1683 H 153.488 3.12587 0.863716 0
M  V30 1684 H 153.273 3.84713 -0.757504 0
M  V30 1685 H 154.763 4.17221 0.177786 0
M  V30 1686 N 155.201 0.870884 1.31352 0
M  V30 1687 C 156.131 0.343096 2.30966 0
M  V30 1688 C 157.112 -0.566507 1.60389 0
M  V30 1689 O 158.297 -0.483336 1.88089 0
M  V30 1690 C 155.427 -0.455487 3.443 0
M  V30 1691 C 154.381 0.361103 4.26474 0
M  V30 1692 C 153.707 -0.563221 5.31725 0
M  V30 1693 C 155.007 1.59566 4.97329 0
M  V30 1694 H 156.701 1.17548 2.75359 0
M  V30 1695 H 154.247 0.566686 1.32381 0
M  V30 1696 H 156.2 -0.83525 4.13039 0
M  V30 1697 H 154.924 -1.32139 2.98675 0
M  V30 1698 H 153.583 0.722825 3.59403 0
M  V30 1699 H 153.231 -1.42643 4.82351 0
M  V30 1700 H 152.931 -0.0207409 5.87596 0
M  V30 1701 H 154.455 -0.939808 6.03324 0
M  V30 1702 H 155.869 1.28728 5.58661 0
M  V30 1703 H 154.266 2.07728 5.63 0
M  V30 1704 H 155.336 2.34798 4.24262 0
M  V30 1705 N 156.679 -1.44442 0.630414 0
M  V30 1706 C 158.095 -1.56832 0.295973 0
M  V30 1707 C 158.295 -1.61806 -1.20088 0
M  V30 1708 O 157.351 -1.5607 -1.9849 0
M  V30 1709 C 158.664 -2.84031 0.987264 0
M  V30 1710 C 160.212 -2.97742 0.96534 0
M  V30 1711 C 160.687 -4.27743 1.63708 0
M  V30 1712 N 162.178 -4.34555 1.60364 0
M  V30 1713 C 162.913 -5.33862 2.09234 0
M  V30 1714 N 162.409 -6.39578 2.66292 0
M  V30 1715 N 164.202 -5.25366 1.99867 0
M  V30 1716 H 156.353 -1.39457 1.60205 0
M  V30 1717 H 158.616 -0.668237 0.672431 0
M  V30 1718 H 158.322 -2.86338 2.04215 0
M  V30 1719 H 158.196 -3.73534 0.524588 0
M  V30 1720 H 160.583 -2.94989 -0.0810639 0
M  V30 1721 H 160.664 -2.09589 1.4665 0
M  V30 1722 H 160.308 -4.31255 2.68293 0
M  V30 1723 H 160.238 -5.14752 1.11076 0
M  V30 1724 H 162.729 -3.58772 1.18705 0
M  V30 1725 H 163.042 -7.11637 3.01317 0
M  V30 1726 H 161.387 -6.40265 2.70343 0
M  V30 1727 H 164.578 -4.41688 1.55013 0
M  V30 1728 H 164.751 -6.02606 2.38265 0
M  V30 1729 N 158.157 -0.370918 -1.53173 0
M  V30 1730 C 159.568 0.107139 -1.86392 0
M  V30 1731 C 159.919 1.47714 -1.29132 0
M  V30 1732 O 159.044 2.07464 -0.615439 0
M  V30 1733 C 159.639 0.201187 -3.38202 0
M  V30 1734 C 158.198 0.623507 -3.712 0
M  V30 1735 C 157.345 -0.225978 -2.76378 0
M  V30 1736 H 160.296 -0.58951 -1.47345 0
M  V30 1737 H 160.317 1.02377 -3.66468 0
M  V30 1738 H 159.829 -0.796058 -3.79848 0
M  V30 1739 H 157.93 1.62879 -3.35114 0
M  V30 1740 H 158.043 0.394414 -4.77474 0
M  V30 1741 H 156.407 0.305962 -2.52856 0
M  V30 1742 H 157.19 -1.22086 -3.20858 0
M  V30 1743 N 159.635 1.57281 -0.100228 0
M  V30 1744 C 160.86 1.99302 0.573881 0
M  V30 1745 C 161.285 0.979059 1.60611 0
M  V30 1746 O 160.643 -0.0517803 1.81226 0
M  V30 1747 C 160.691 3.40274 1.19358 0
M  V30 1748 O 159.795 3.41676 2.30935 0
M  V30 1749 H 159.136 0.647944 0.145138 0
M  V30 1750 H 161.666 2.03779 -0.183156 0
M  V30 1751 H 161.676 3.78078 1.53365 0
M  V30 1752 H 160.351 4.13594 0.437385 0
M  V30 1753 H 158.928 3.15672 1.98509 0
M  V30 1754 N 161.113 -0.173488 1.56642 0
M  V30 1755 C 162.39 -0.917617 1.7274 0
M  V30 1756 C 162.77 -2.00484 0.661027 0
M  V30 1757 O 162.118 -2.26184 -0.32453 0
M  V30 1758 C 162.328 -1.48433 3.15862 0
M  V30 1759 C 163.676 -1.95809 3.76754 0
M  V30 1760 O 164.7 -1.58231 3.19126 0
M  V30 1761 O 163.559 -2.65024 4.77938 0
M  V30 1762 H 160.653 -0.431772 0.705338 0
M  V30 1763 H 163.199 -0.161487 1.6893 0
M  V30 1764 H 161.971 -0.701715 3.84957 0
M  V30 1765 H 161.594 -2.30471 3.23989 0
M  V30 1766 N 162.591 -1.51276 -0.441967 0
M  V30 1767 C 163.501 -1.75092 -1.56141 0
M  V30 1768 C 164.517 -0.634963 -1.62001 0
M  V30 1769 O 165.693 -0.916686 -1.79329 0
M  V30 1770 C 162.758 -1.86666 -2.92158 0
M  V30 1771 C 161.819 -3.10506 -2.96453 0
M  V30 1772 C 161.052 -3.21519 -4.25982 0
M  V30 1773 O 161.275 -2.38586 -5.18105 0
M  V30 1774 O 160.209 -4.14465 -4.36466 0
M  V30 1775 H 164.035 -2.70044 -1.38961 0
M  V30 1776 H 161.62 -1.35722 -0.624499 0
M  V30 1777 H 163.502 -1.96292 -3.72891 0
M  V30 1778 H 162.177 -0.949014 -3.09476 0
M  V30 1779 H 161.084 -3.06363 -2.14692 0
M  V30 1780 H 162.417 -4.01945 -2.84079 0
M  V30 1781 N 164.069 0.697108 -1.41344 0
M  V30 1782 C 165.317 1.45426 -1.40341 0
M  V30 1783 C 165.638 1.94996 -0.0128787 0
M  V30 1784 O 164.908 1.71599 0.945027 0
M  V30 1785 H 163.488 0.539594 -0.516573 0
M  V30 1786 H 166.15 0.825201 -1.76569 0
M  V30 1787 H 165.246 2.31817 -2.08967 0
M  V30 1788 N 165.547 1.27147 0.931209 0
M  V30 1789 C 166.775 1.16082 1.71267 0
M  V30 1790 C 167.19 -0.282772 1.8667 0
M  V30 1791 O 166.547 -1.19283 1.38122 0
M  V30 1792 C 166.598 1.8358 3.11417 0
M  V30 1793 O 166.319 3.22299 2.96741 0
M  V30 1794 C 167.82 1.78597 4.05732 0
M  V30 1795 H 165.04 0.403758 0.535929 0
M  V30 1796 H 167.584 1.67953 1.16671 0
M  V30 1797 H 165.739 1.35623 3.62885 0
M  V30 1798 H 166.153 3.55851 3.85319 0
M  V30 1799 H 167.627 2.30444 5.01597 0
M  V30 1800 H 168.104 0.754564 4.3267 0
M  V30 1801 H 168.71 2.26152 3.60188 0
M  V30 1802 N 167.025 -1.13721 1.09112 0
M  V30 1803 C 168.255 -1.88499 0.845671 0
M  V30 1804 C 168.663 -1.79218 -0.606432 0
M  V30 1805 O 168.006 -1.1544 -1.42896 0
M  V30 1806 C 168.068 -3.38954 1.19793 0
M  V30 1807 C 167.732 -3.72018 2.65428 0
M  V30 1808 C 168.729 -3.7153 3.63677 0
M  V30 1809 C 166.414 -4.01775 3.01467 0
M  V30 1810 C 168.408 -4.00336 4.95994 0
M  V30 1811 C 166.095 -4.30243 4.33975 0
M  V30 1812 C 167.093 -4.29508 5.31048 0
M  V30 1813 O 166.781 -4.5728 6.61173 0
M  V30 1814 H 166.513 -0.603702 0.304171 0
M  V30 1815 H 169.067 -1.44903 1.45576 0
M  V30 1816 H 167.297 -3.83039 0.530871 0
M  V30 1817 H 168.986 -3.95052 0.932146 0
M  V30 1818 H 169.752 -3.4862 3.37179 0
M  V30 1819 H 165.631 -4.01496 2.26544 0
M  V30 1820 H 169.175 -3.99678 5.71755 0
M  V30 1821 H 165.072 -4.52625 4.60219 0
M  V30 1822 H 165.84 -4.74964 6.66597 0
M  V30 1823 N 168.503 -0.877838 -1.30888 0
M  V30 1824 C 169.413 -0.343096 -2.32078 0
M  V30 1825 C 170.429 0.551022 -1.65045 0
M  V30 1826 O 171.605 0.445854 -1.96403 0
M  V30 1827 C 168.67 0.439905 -3.43898 0
M  V30 1828 C 167.731 -0.483111 -4.26573 0
M  V30 1829 C 166.964 0.262616 -5.33053 0
M  V30 1830 O 167.187 1.48967 -5.50604 0
M  V30 1831 O 166.121 -0.383593 -6.00676 0
M  V30 1832 H 169.947 -1.18203 -2.79753 0
M  V30 1833 H 167.532 -0.64145 -1.34929 0
M  V30 1834 H 169.414 0.883504 -4.12034 0
M  V30 1835 H 168.089 1.25526 -2.98371 0
M  V30 1836 H 166.996 -0.975374 -3.61161 0
M  V30 1837 H 168.329 -1.26427 -4.75686 0
M  V30 1838 N 169.982 1.44106 -0.638065 0
M  V30 1839 C 171.222 2.03858 -0.148733 0
M  V30 1840 C 171.586 1.49153 1.20903 0
M  V30 1841 O 172.787 2.00452 1.79088 0
M  V30 1842 C 171.058 3.57117 -0.142314 0
M  V30 1843 S 172.617 4.37897 0.281385 0
M  V30 1844 H 169.435 0.708069 -0.0644912 0
M  V30 1845 H 172.037 1.7639 -0.843009 0
M  V30 1846 H 170.741 3.94436 -1.13349 0
M  V30 1847 H 170.272 3.89205 0.572988 0
M  V30 1848 H 172.287 4.72218 1.52395 0
M  V30 1849 N 171.46 0.379036 1.52974 0
M  V30 1850 C 172.706 -0.206727 2.01744 0
M  V30 1851 C 173.039 -1.47314 1.26539 0
M  V30 1852 O 172.314 -1.91084 0.362903 0
M  V30 1853 C 172.597 -0.485066 3.56818 0
M  V30 1854 C 172.45 0.795919 4.42702 0
M  V30 1855 C 173.769 -1.28003 4.21074 0
M  V30 1856 H 170.888 -0.0736607 0.73331 0
M  V30 1857 H 173.53 0.506581 1.83122 0
M  V30 1858 H 171.68 -1.09272 3.72816 0
M  V30 1859 H 173.352 1.43307 4.38476 0
M  V30 1860 H 171.595 1.41344 4.10127 0
M  V30 1861 H 172.266 0.555947 5.49193 0
M  V30 1862 H 174.742 -0.765867 4.08991 0
M  V30 1863 H 173.618 -1.44352 5.29579 0
M  V30 1864 H 173.879 -2.29236 3.78026 0
M  V30 1865 N 172.938 -1.57226 0.108567 0
M  V30 1866 C 174.184 -1.95121 -0.552761 0
M  V30 1867 C 174.517 -0.991345 -1.66991 0
M  V30 1868 O 173.792 -0.0267211 -1.94482 0
M  V30 1869 C 174.075 -3.43039 -1.09528 0
M  V30 1870 C 173.928 -4.49797 0.0177332 0
M  V30 1871 C 175.247 -3.92567 -1.98945 0
M  V30 1872 H 172.366 -0.709496 -0.199461 0
M  V30 1873 H 175.008 -1.89126 0.182011 0
M  V30 1874 H 173.158 -3.48279 -1.72146 0
M  V30 1875 H 174.83 -4.56661 0.652584 0
M  V30 1876 H 173.073 -4.284 0.682309 0
M  V30 1877 H 173.744 -5.50528 -0.402919 0
M  V30 1878 H 176.22 -3.89565 -1.46214 0
M  V30 1879 H 175.096 -4.96605 -2.33827 0
M  V30 1880 H 175.357 -3.32648 -2.91201 0
M  V30 1881 N 174.416 0.165178 -1.56732 0
M  V30 1882 C 175.346 1.20651 -1.99914 0
M  V30 1883 C 176.327 1.45827 -0.875705 0
M  V30 1884 O 177.512 1.57057 -1.14223 0
M  V30 1885 C 174.642 2.54401 -2.36427 0
M  V30 1886 C 173.596 2.43782 -3.51787 0
M  V30 1887 C 172.922 3.82078 -3.7406 0
M  V30 1888 C 174.222 1.93732 -4.85041 0
M  V30 1889 H 175.916 0.847534 -2.87154 0
M  V30 1890 H 173.462 0.40625 -1.38151 0
M  V30 1891 H 175.415 3.27458 -2.65234 0
M  V30 1892 H 174.139 2.92098 -1.46103 0
M  V30 1893 H 172.798 1.73178 -3.23117 0
M  V30 1894 H 172.446 4.17179 -2.81017 0
M  V30 1895 H 172.146 3.7584 -4.51684 0
M  V30 1896 H 173.67 4.56712 -4.05274 0
M  V30 1897 H 175.084 2.56569 -5.12684 0
M  V30 1898 H 173.481 1.98428 -5.66345 0
M  V30 1899 H 174.551 0.891962 -4.76626 0
M  V30 1900 N 175.894 1.51508 0.433938 0
M  V30 1901 C 176.841 1.73068 1.52696 0
M  V30 1902 C 177.811 0.572441 1.55924 0
M  V30 1903 O 178.996 0.807253 1.72882 0
M  V30 1904 C 176.136 1.86474 2.90381 0
M  V30 1905 C 175.249 3.14037 2.96656 0
M  V30 1906 C 174.384 3.18019 4.25485 0
M  V30 1907 C 173.423 4.39882 4.2564 0
M  V30 1908 N 172.56 4.41394 5.45999 0
M  V30 1909 H 177.4 2.66366 1.33615 0
M  V30 1910 H 174.937 1.32008 0.649018 0
M  V30 1911 H 176.895 1.92229 3.70275 0
M  V30 1912 H 175.525 0.965809 3.08013 0
M  V30 1913 H 174.577 3.17575 2.09404 0
M  V30 1914 H 175.889 4.0394 2.92633 0
M  V30 1915 H 175.043 3.22708 5.13755 0
M  V30 1916 H 173.782 2.2601 4.3217 0
M  V30 1917 H 172.787 4.35366 3.35763 0
M  V30 1918 H 174.012 5.33159 4.20617 0
M  V30 1919 H 171.958 3.52258 5.53399 0
M  V30 1920 H 171.875 5.25111 5.4387 0
M  V30 1921 H 173.143 4.50281 6.36292 0
M  V30 1922 N 177.372 -0.689602 1.41712 0
M  V30 1923 C 178.602 -1.47613 1.44548 0
M  V30 1924 C 179.01 -1.89132 0.0509034 0
M  V30 1925 O 178.353 -1.57741 -0.94146 0
M  V30 1926 C 178.415 -2.76596 2.2964 0
M  V30 1927 C 178.079 -2.57245 3.77722 0
M  V30 1928 C 179.076 -2.22804 4.69739 0
M  V30 1929 C 176.761 -2.727 4.2183 0
M  V30 1930 C 178.755 -2.04064 6.03851 0
M  V30 1931 C 176.442 -2.53576 5.56006 0
M  V30 1932 C 177.44 -2.1931 6.46832 0
M  V30 1933 O 177.128 -2.00359 7.78532 0
M  V30 1934 H 176.86 -0.461227 0.494212 0
M  V30 1935 H 179.414 -0.856045 1.86711 0
M  V30 1936 H 177.644 -3.41033 1.82301 0
M  V30 1937 H 179.333 -3.38424 2.24107 0
M  V30 1938 H 180.099 -2.10473 4.36951 0
M  V30 1939 H 175.978 -2.98353 3.51435 0
M  V30 1940 H 179.522 -1.77241 6.74708 0
M  V30 1941 H 175.419 -2.65499 5.88371 0
M  V30 1942 H 176.187 -2.15075 7.89737 0
M  V30 1943 N 178.85 -1.27639 -0.924453 0
M  V30 1944 C 179.76 -1.12466 -2.05885 0
M  V30 1945 C 180.776 -0.053869 -1.73917 0
M  V30 1946 O 181.952 -0.261012 -1.99702 0
M  V30 1947 C 179.017 -0.776768 -3.37886 0
M  V30 1948 C 178.078 -1.92878 -3.83532 0
M  V30 1949 C 177.311 -1.59739 -5.09234 0
M  V30 1950 O 177.534 -0.506782 -5.68144 0
M  V30 1951 O 176.468 -2.43761 -5.50331 0
M  V30 1952 H 180.294 -2.07671 -2.21599 0
M  V30 1953 H 177.879 -1.06857 -1.04413 0
M  V30 1954 H 179.761 -0.596229 -4.17161 0
M  V30 1955 H 178.436 0.145732 -3.23372 0
M  V30 1956 H 177.343 -2.1644 -3.0513 0
M  V30 1957 H 178.676 -2.8316 -4.02593 0
M  V30 1958 N 180.328 1.1314 -1.09713 0
M  V30 1959 C 181.275 2.18642 -0.739196 0
M  V30 1960 C 182.245 1.63706 0.280978 0
M  V30 1961 O 183.43 1.90111 0.161946 0
M  V30 1962 C 180.57 3.44685 -0.169102 0
M  V30 1963 C 179.683 4.13711 -1.24367 0
M  V30 1964 C 178.818 5.27379 -0.636019 0
M  V30 1965 C 177.857 5.88259 -1.69169 0
M  V30 1966 N 176.994 6.93352 -1.10485 0
M  V30 1967 H 181.834 2.48607 -1.64312 0
M  V30 1968 H 179.371 1.22066 -0.820875 0
M  V30 1969 H 181.329 4.16815 0.179256 0
M  V30 1970 H 179.959 3.15161 0.698079 0
M  V30 1971 H 179.011 3.39835 -1.70927 0
M  V30 1972 H 180.323 4.55037 -2.04311 0
M  V30 1973 H 179.477 6.06238 -0.236677 0
M  V30 1974 H 178.216 4.8731 0.194928 0
M  V30 1975 H 177.221 5.08092 -2.10055 0
M  V30 1976 H 178.446 6.30399 -2.52536 0
M  V30 1977 H 176.392 6.55335 -0.295234 0
M  V30 1978 H 176.309 7.33236 -1.84121 0
M  V30 1979 H 177.577 7.76057 -0.73181 0
M  V30 1980 N 181.806 0.884767 1.30421 0
M  V30 1981 C 183.083 0.423185 1.90967 0
M  V30 1982 C 183.463 -1.09605 1.80416 0
M  V30 1983 O 182.811 -1.93126 1.22125 0
M  V30 1984 C 183.021 0.921056 3.36627 0
M  V30 1985 C 184.369 0.955903 4.137 0
M  V30 1986 O 185.393 0.867706 3.4547 0
M  V30 1987 O 184.252 1.08614 5.35598 0
M  V30 1988 H 181.346 0.129369 0.816819 0
M  V30 1989 H 183.892 0.973653 1.3899 0
M  V30 1990 H 182.664 1.96489 3.3839 0
M  V30 1991 H 182.287 0.349741 3.96059 0
M  V30 1992 N 183.284 -1.43765 0.645699 0
M  V30 1993 C 184.247 -2.29163 -0.0409488 0
M  V30 1994 C 185.247 -1.41813 -0.757996 0
M  V30 1995 O 186.437 -1.63527 -0.600382 0
M  V30 1996 C 183.569 -3.23716 -1.06869 0
M  V30 1997 H 184.762 -2.91366 0.710345 0
M  V30 1998 H 182.315 -1.5092 0.406547 0
M  V30 1999 H 183.05 -2.66393 -1.84947 0
M  V30 2000 H 182.835 -3.88105 -0.558277 0
M  V30 2001 H 184.325 -3.87831 -1.54845 0
M  V30 2002 N 184.763 -0.387143 -1.52771 0
M  V30 2003 C 186.01 0.195735 -2.01552 0
M  V30 2004 C 186.338 1.46995 -1.27369 0
M  V30 2005 O 185.593 1.92325 -0.361879 0
M  V30 2006 C 185.892 0.512209 -3.53711 0
M  V30 2007 C 185.558 -0.670202 -4.45891 0
M  V30 2008 C 184.22 -0.994586 -4.70809 0
M  V30 2009 C 186.572 -1.46134 -5.00294 0
M  V30 2010 C 183.9 -2.11169 -5.4738 0
M  V30 2011 C 186.252 -2.56903 -5.78086 0
M  V30 2012 C 184.916 -2.89852 -6.01284 0
M  V30 2013 H 184.186 0.0716246 -0.73753 0
M  V30 2014 H 186.833 -0.524046 -1.8419 0
M  V30 2015 H 185.138 1.31329 -3.69134 0
M  V30 2016 H 186.835 0.975804 -3.88946 0
M  V30 2017 H 183.425 -0.407366 -4.2666 0
M  V30 2018 H 187.609 -1.22397 -4.80971 0
M  V30 2019 H 182.865 -2.3707 -5.63567 0
M  V30 2020 H 187.039 -3.18608 -6.19243 0
M  V30 2021 H 184.666 -3.76533 -6.60399 0
M  V30 2022 N 186.241 1.57166 -0.116904 0
M  V30 2023 C 187.188 2.15202 0.83408 0
M  V30 2024 C 188.158 1.07644 1.26499 0
M  V30 2025 O 189.343 1.35541 1.34288 0
M  V30 2026 C 186.483 2.75405 2.07957 0
M  V30 2027 C 185.596 3.97264 1.69721 0
M  V30 2028 C 184.731 4.45561 2.89221 0
M  V30 2029 C 183.77 5.59956 2.47215 0
M  V30 2030 N 182.907 6.03006 3.59622 0
M  V30 2031 H 187.747 2.96141 0.332335 0
M  V30 2032 H 185.284 1.46309 0.152349 0
M  V30 2033 H 187.242 3.08439 2.80929 0
M  V30 2034 H 185.872 1.97159 2.55594 0
M  V30 2035 H 184.924 3.70404 0.866316 0
M  V30 2036 H 186.236 4.80226 1.34849 0
M  V30 2037 H 185.39 4.80493 3.7042 0
M  V30 2038 H 184.129 3.61544 3.27318 0
M  V30 2039 H 183.134 5.2463 1.64448 0
M  V30 2040 H 184.359 6.45738 2.10238 0
M  V30 2041 H 182.305 5.21931 3.97396 0
M  V30 2042 H 182.222 6.80819 3.28667 0
M  V30 2043 H 183.49 6.42576 4.41267 0
M  V30 2044 N 187.719 -0.156864 1.56817 0
M  V30 2045 C 189.135 -0.50916 1.5126 0
M  V30 2046 C 189.335 -1.83897 0.823658 0
M  V30 2047 O 188.391 -2.49469 0.390055 0
M  V30 2048 C 189.704 -0.52857 2.96018 0
M  V30 2049 C 191.252 -0.614771 3.06903 0
M  V30 2050 C 191.727 -0.664938 4.53147 0
M  V30 2051 N 193.218 -0.727433 4.57452 0
M  V30 2052 C 193.953 -0.787067 5.67973 0
M  V30 2053 N 193.449 -0.806649 6.88088 0
M  V30 2054 N 195.242 -0.827195 5.5598 0
M  V30 2055 H 187.393 0.714935 2.00006 0
M  V30 2056 H 189.656 0.259526 0.911784 0
M  V30 2057 H 189.362 0.380154 3.49639 0
M  V30 2058 H 189.236 -1.36998 3.51442 0
M  V30 2059 H 191.623 -1.51392 2.53307 0
M  V30 2060 H 191.704 0.253597 2.5454 0
M  V30 2061 H 191.348 0.230011 5.07379 0
M  V30 2062 H 191.278 -1.54966 5.03282 0
M  V30 2063 H 193.769 -0.719998 3.70978 0
M  V30 2064 H 194.082 -0.853727 7.6807 0
M  V30 2065 H 192.427 -0.774687 6.90669 0
M  V30 2066 H 195.618 -0.808998 4.61056 0
M  V30 2067 H 195.791 -0.870206 6.4213 0
M  V30 2068 N 189.197 -1.51736 -0.425897 0
M  V30 2069 C 190.107 -1.76738 -1.54275 0
M  V30 2070 C 191.123 -0.65211 -1.61318 0
M  V30 2071 O 192.299 -0.935654 -1.78346 0
M  V30 2072 C 189.364 -1.89755 -2.90162 0
M  V30 2073 C 188.425 -3.13633 -2.93143 0
M  V30 2074 C 187.658 -3.2602 -4.22548 0
M  V30 2075 O 187.881 -2.44067 -5.15546 0
M  V30 2076 O 186.815 -4.19071 -4.32046 0
M  V30 2077 H 190.641 -2.71502 -1.36089 0
M  V30 2078 H 188.226 -1.36376 -0.610069 0
M  V30 2079 H 190.108 -2.00236 -3.70788 0
M  V30 2080 H 188.783 -0.981785 -3.08452 0
M  V30 2081 H 187.69 -3.08622 -2.11431 0
M  V30 2082 H 189.023 -4.04936 -2.798 0
M  V30 2083 N 190.675 0.682077 -1.42076 0
M  V30 2084 C 191.625 1.78823 -1.41444 0
M  V30 2085 C 192.609 1.58323 -0.28681 0
M  V30 2086 O 193.801 1.68926 -0.528498 0
M  V30 2087 C 190.93 3.17232 -1.3122 0
M  V30 2088 C 190.016 3.4338 -2.489 0
M  V30 2089 N 190.407 3.40152 -3.7434 0
M  V30 2090 C 188.705 3.73986 -2.43003 0
M  V30 2091 C 189.406 3.65581 -4.52466 0
M  V30 2092 N 188.382 3.85989 -3.8277 0
M  V30 2093 H 192.184 1.7471 -2.36334 0
M  V30 2094 H 189.698 0.882622 -1.36321 0
M  V30 2095 H 191.695 3.96489 -1.2885 0
M  V30 2096 H 190.355 3.22547 -0.373263 0
M  V30 2097 H 191.366 3.20221 -4.07037 0
M  V30 2098 H 188.043 3.86591 -1.57651 0
M  V30 2099 H 189.433 3.69108 -5.61435 0
M  V30 2100 N 192.153 1.28127 0.917671 0
M  V30 2101 C 193.083 1.14248 2.03641 0
M  V30 2102 C 194.064 0.0412748 1.7005 0
M  V30 2103 O 195.249 0.217566 1.92977 0
M  V30 2104 C 192.379 0.799431 3.37974 0
M  V30 2105 C 191.333 1.85497 3.85713 0
M  V30 2106 C 190.659 1.36565 5.16966 0
M  V30 2107 C 191.959 3.26085 4.08002 0
M  V30 2108 H 193.653 2.07835 2.15511 0
M  V30 2109 H 191.199 1.00064 1.03553 0
M  V30 2110 H 193.152 0.689114 4.15727 0
M  V30 2111 H 191.876 -0.172145 3.26146 0
M  V30 2112 H 190.535 1.95437 3.10161 0
M  V30 2113 H 190.183 0.383253 5.01538 0
M  V30 2114 H 189.883 2.07143 5.49878 0
M  V30 2115 H 191.407 1.26848 5.97279 0
M  V30 2116 H 192.821 3.19089 4.76293 0
M  V30 2117 H 191.218 3.94462 4.52238 0
M  V30 2118 H 192.288 3.70394 3.12948 0
M  V30 2119 N 193.631 -1.12557 1.10312 0
M  V30 2120 C 194.594 -2.16434 0.75424 0
M  V30 2121 C 195.594 -1.59278 -0.220685 0
M  V30 2122 O 196.784 -1.742 0.00230591 0
M  V30 2123 C 193.916 -3.40699 0.116987 0
M  V30 2124 H 195.109 -2.48811 1.67431 0
M  V30 2125 H 192.662 -1.27542 0.903475 0
M  V30 2126 H 193.397 -3.13921 -0.813877 0
M  V30 2127 H 193.182 -3.83459 0.818613 0
M  V30 2128 H 194.672 -4.17451 -0.111387 0
M  V30 2129 N 195.109 -0.891671 -1.2995 0
M  V30 2130 C 196.019 -0.367691 -2.31701 0
M  V30 2131 C 197.035 0.533486 -1.6562 0
M  V30 2132 O 198.211 0.424997 -1.96865 0
M  V30 2133 C 195.276 0.403406 -3.44345 0
M  V30 2134 C 194.337 -0.528328 -4.26037 0
M  V30 2135 C 193.57 0.206063 -5.33302 0
M  V30 2136 O 193.793 1.43119 -5.52153 0
M  V30 2137 O 192.727 -0.447281 -6.00236 0
M  V30 2138 H 196.553 -1.21163 -2.78484 0
M  V30 2139 H 194.138 -0.655725 -1.34241 0
M  V30 2140 H 196.02 0.839753 -4.12948 0
M  V30 2141 H 194.695 1.22354 -2.99685 0
M  V30 2142 H 193.602 -1.01362 -3.60106 0
M  V30 2143 H 194.935 -1.31465 -4.74318 0
M  V30 2144 N 196.587 1.43421 -0.653314 0
M  V30 2145 C 197.833 2.02111 -0.166992 0
M  V30 2146 C 198.166 1.51423 1.21592 0
M  V30 2147 O 197.441 0.707389 1.8118 0
M  V30 2148 C 197.724 3.5966 -0.177948 0
M  V30 2149 C 197.577 4.20579 -1.59478 0
M  V30 2150 C 198.896 4.37413 0.4856 0
M  V30 2151 H 196.015 0.734374 -0.0621557 0
M  V30 2152 H 198.657 1.70717 -0.834016 0
M  V30 2153 H 196.807 3.86537 0.390032 0
M  V30 2154 H 198.479 4.04732 -2.21336 0
M  V30 2155 H 196.722 3.77226 -2.14204 0
M  V30 2156 H 197.393 5.29665 -1.5543 0
M  V30 2157 H 199.869 4.161 0.00234528 0
M  V30 2158 H 198.745 5.47075 0.447207 0
M  V30 2159 H 199.006 4.13672 1.55974 0
M  V30 2160 N 198.065 0.39524 1.52563 0
M  V30 2161 C 199.293 -0.184943 2.06072 0
M  V30 2162 C 199.708 -1.40021 1.26647 0
M  V30 2163 O 199.065 -1.79767 0.314672 0
M  V30 2164 C 199.116 -0.549179 3.57304 0
M  V30 2165 O 198.837 0.617813 4.33722 0
M  V30 2166 C 200.338 -1.18459 4.2718 0
M  V30 2167 H 197.558 -0.0265025 0.670476 0
M  V30 2168 H 200.102 0.562184 1.96621 0
M  V30 2169 H 198.257 -1.2462 3.66809 0
M  V30 2170 H 198.671 0.317091 5.23541 0
M  V30 2171 H 200.145 -1.38976 5.34219 0
M  V30 2172 H 200.622 -2.15368 3.82771 0
M  V30 2173 H 201.228 -0.528163 4.22008 0
M  V30 2174 N 199.544 -1.57102 0.125237 0
M  V30 2175 C 200.474 -2.18659 -0.819174 0
M  V30 2176 C 201.455 -1.12843 -1.27281 0
M  V30 2177 O 202.64 -1.41104 -1.33429 0
M  V30 2178 C 199.77 -2.79096 -2.06695 0
M  V30 2179 C 198.724 -3.90548 -1.75088 0
M  V30 2180 C 198.05 -4.37821 -3.06948 0
M  V30 2181 C 199.35 -5.12356 -1.01435 0
M  V30 2182 H 201.044 -2.9783 -0.306202 0
M  V30 2183 H 198.59 -1.4326 -0.145839 0
M  V30 2184 H 200.543 -3.2082 -2.73226 0
M  V30 2185 H 199.267 -1.97223 -2.60328 0
M  V30 2186 H 197.926 -3.49409 -1.10944 0
M  V30 2187 H 197.574 -3.52799 -3.58527 0
M  V30 2188 H 197.274 -5.12982 -2.86571 0
M  V30 2189 H 198.798 -4.822 -3.74587 0
M  V30 2190 H 200.212 -5.5106 -1.58132 0
M  V30 2191 H 198.609 -5.9314 -0.911319 0
M  V30 2192 H 199.679 -4.849 -0.00218681 0
M  V30 2193 N 201.022 0.148545 -1.56898 0
M  V30 2194 C 202.247 0.880385 -1.87787 0
M  V30 2195 C 202.672 1.74018 -0.714093 0
M  V30 2196 O 202.03 1.78153 0.336343 0
M  V30 2197 C 202.078 1.71422 -3.17249 0
M  V30 2198 O 201.182 2.8183 -3.01074 0
M  V30 2199 H 200.523 0.245301 -0.617028 0
M  V30 2200 H 203.053 0.139826 -2.04122 0
M  V30 2201 H 203.063 2.10954 -3.49231 0
M  V30 2202 H 201.738 1.08284 -4.01556 0
M  V30 2203 H 200.315 2.45715 -2.80497 0
M  V30 2204 N 202.5 1.5196 0.417844 0
M  V30 2205 C 203.746 1.65836 1.16732 0
M  V30 2206 C 204.079 0.382881 1.90388 0
M  V30 2207 O 203.354 -0.618368 1.84408 0
M  V30 2208 C 203.637 2.87466 2.16876 0
M  V30 2209 C 203.49 4.25041 1.47174 0
M  V30 2210 C 204.809 3.04613 3.17646 0
M  V30 2211 H 201.928 0.603515 0.423011 0
M  V30 2212 H 204.57 1.84494 0.454105 0
M  V30 2213 H 202.72 2.71689 2.777 0
M  V30 2214 H 204.392 4.52527 0.895376 0
M  V30 2215 H 202.635 4.26843 0.773806 0
M  V30 2216 H 203.306 5.06176 2.20204 0
M  V30 2217 H 205.782 3.1923 2.66892 0
M  V30 2218 H 204.658 3.91247 3.8499 0
M  V30 2219 H 204.919 2.17541 3.84874 0
M  V30 2220 N 203.978 -0.674533 1.42435 0
M  V30 2221 C 204.925 -1.78807 1.45934 0
M  V30 2222 C 205.895 -1.63157 0.311271 0
M  V30 2223 O 207.08 -1.83707 0.515383 0
M  V30 2224 C 204.22 -3.16839 1.36773 0
M  V30 2225 C 203.333 -3.43774 2.61617 0
M  V30 2226 C 202.468 -4.71536 2.44597 0
M  V30 2227 C 201.507 -4.91505 3.64814 0
M  V30 2228 N 200.644 -6.10508 3.46734 0
M  V30 2229 H 205.484 -1.75151 2.41093 0
M  V30 2230 H 203.021 -0.85504 1.19697 0
M  V30 2231 H 204.979 -3.96606 1.29459 0
M  V30 2232 H 203.609 -3.19619 0.452089 0
M  V30 2233 H 202.661 -2.58259 2.79297 0
M  V30 2234 H 203.973 -3.54423 3.50978 0
M  V30 2235 H 203.127 -5.59393 2.3487 0
M  V30 2236 H 201.866 -4.6317 1.52726 0
M  V30 2237 H 200.871 -4.0209 3.74972 0
M  V30 2238 H 202.096 -5.01716 4.57665 0
M  V30 2239 H 200.042 -6.03315 2.5758 0
M  V30 2240 H 199.959 -6.2202 4.29682 0
M  V30 2241 H 201.227 -7.01044 3.40819 0
M  V30 2242 N 205.456 -1.28612 -0.910864 0
M  V30 2243 C 206.419 -1.12803 -1.9952 0
M  V30 2244 C 207.419 -0.0668264 -1.60661 0
M  V30 2245 O 208.609 -0.312847 -1.71368 0
M  V30 2246 C 205.741 -0.72254 -3.33155 0
M  V30 2247 H 206.934 -2.09109 -2.14973 0
M  V30 2248 H 204.487 -1.11639 -1.09391 0
M  V30 2249 H 205.222 0.241152 -3.23402 0
M  V30 2250 H 205.007 -1.48916 -3.62721 0
M  V30 2251 H 206.497 -0.634666 -4.12749 0
M  V30 2252 N 206.934 1.1197 -1.10907 0
M  V30 2253 C 208.211 1.79959 -0.766432 0
M  V30 2254 C 208.591 1.97466 0.746363 0
M  V30 2255 O 207.939 1.55491 1.67436 0
M  V30 2256 C 208.149 3.14009 -1.52314 0
M  V30 2257 C 209.497 3.89134 -1.69883 0
M  V30 2258 O 210.521 3.2368 -1.48692 0
M  V30 2259 O 209.38 5.06572 -2.05054 0
M  V30 2260 H 206.474 0.779208 -0.277062 0
M  V30 2261 H 209.02 1.18762 -1.21217 0
M  V30 2262 H 207.792 2.96587 -2.55249 0
M  V30 2263 H 207.415 3.82915 -1.07059 0
M  V30 2264 N 208.412 0.89855 1.29475 0
M  V30 2265 C 209.659 0.523882 1.95606 0
M  V30 2266 C 209.987 -0.929608 1.70847 0
M  V30 2267 O 209.242 -1.67401 1.01367 0
M  V30 2268 C 209.541 0.761398 3.49195 0
M  V30 2269 C 209.207 2.19207 3.94029 0
M  V30 2270 C 207.869 2.58326 4.05982 0
M  V30 2271 C 210.221 3.12379 4.17216 0
M  V30 2272 C 207.549 3.898 4.38489 0
M  V30 2273 C 209.901 4.43401 4.51197 0
M  V30 2274 C 208.565 4.82394 4.61359 0
M  V30 2275 H 207.835 0.191702 0.715773 0
M  V30 2276 H 210.482 1.13699 1.54094 0
M  V30 2277 H 208.787 0.0653622 3.91745 0
M  V30 2278 H 210.484 0.450904 3.98457 0
M  V30 2279 H 207.074 1.87846 3.85242 0
M  V30 2280 H 211.258 2.83371 4.07449 0
M  V30 2281 H 206.514 4.19734 4.44559 0
M  V30 2282 H 210.688 5.15623 4.68087 0
M  V30 2283 H 208.315 5.84306 4.86303 0
M  V30 2284 N 209.89 -1.43072 0.660911 0
M  V30 2285 C 211.301 -1.84932 0.256348 0
M  V30 2286 C 211.652 -1.55325 -1.19868 0
M  V30 2287 O 210.777 -1.00607 -1.91591 0
M  V30 2288 C 211.372 -3.35684 0.458475 0
M  V30 2289 C 209.931 -3.76245 0.108161 0
M  V30 2290 C 209.078 -2.66749 0.757641 0
M  V30 2291 H 212.029 -1.33116 0.864051 0
M  V30 2292 H 212.05 -3.79365 -0.293683 0
M  V30 2293 H 211.562 -3.572 1.51755 0
M  V30 2294 H 209.663 -3.60338 -0.948014 0
M  V30 2295 H 209.776 -4.76058 0.538992 0
M  V30 2296 H 208.14 -2.53989 0.190185 0
M  V30 2297 H 208.923 -2.91092 1.81989 0
M  V30 2298 N 211.368 -0.403325 -1.52352 0
M  V30 2299 C 212.596 0.174012 -2.06167 0
M  V30 2300 C 213.011 1.39347 -1.27388 0
M  V30 2301 O 212.368 1.79597 -0.324201 0
M  V30 2302 C 212.419 0.530223 -3.5759 0
M  V30 2303 O 212.14 -0.640806 -4.33388 0
M  V30 2304 C 213.641 1.16192 -4.27802 0
M  V30 2305 H 210.861 0.0229464 -0.670608 0
M  V30 2306 H 213.405 -0.572604 -1.9632 0
M  V30 2307 H 211.56 1.22673 -3.67464 0
M  V30 2308 H 211.974 -0.344851 -5.23365 0
M  V30 2309 H 213.448 1.36141 -5.34948 0
M  V30 2310 H 213.925 2.13335 -3.83907 0
M  V30 2311 H 214.531 0.505775 -4.22282 0
M  V30 2312 N 212.846 1.57033 -0.133567 0
M  V30 2313 C 214.257 1.82593 0.389464 0
M  V30 2314 C 214.608 1.05156 1.6564 0
M  V30 2315 O 213.733 0.292644 2.14412 0
M  V30 2316 C 214.328 3.31204 0.713377 0
M  V30 2317 C 212.887 3.57393 1.18098 0
M  V30 2318 C 212.034 2.76598 0.197126 0
M  V30 2319 H 214.985 1.54598 -0.358481 0
M  V30 2320 H 215.006 3.46627 1.56939 0
M  V30 2321 H 214.518 3.87537 -0.2089 0
M  V30 2322 H 212.619 3.06433 2.11966 0
M  V30 2323 H 212.732 4.65915 1.11624 0
M  V30 2324 H 211.096 2.45257 0.687088 0
M  V30 2325 H 211.879 3.35697 -0.718504 0
M  V30 2326 N 214.325 -0.140222 1.56975 0
M  V30 2327 C 215.55 -0.870414 1.88251 0
M  V30 2328 C 215.975 -1.73637 0.723312 0
M  V30 2329 O 215.333 -1.78329 -0.32689 0
M  V30 2330 C 215.381 -1.69737 3.18154 0
M  V30 2331 O 214.485 -2.80229 3.02565 0
M  V30 2332 H 213.826 -0.242025 0.61832 0
M  V30 2333 H 216.356 -0.128999 2.04193 0
M  V30 2334 H 216.366 -2.09099 3.50345 0
M  V30 2335 H 215.041 -1.06152 4.02125 0
M  V30 2336 H 213.618 -2.44224 2.81796 0
M  V30 2337 N 215.803 -1.52179 -0.40978 0
M  V30 2338 C 217.052 -1.65434 -1.15388 0
M  V30 2339 C 217.365 -0.390056 -1.91671 0
M  V30 2340 O 218.571 -0.402399 -2.68501 0
M  V30 2341 C 217.027 -2.92279 -2.10003 0
M  V30 2342 C 216.635 -4.25813 -1.39239 0
M  V30 2343 C 218.379 -3.14897 -2.84675 0
M  V30 2344 C 216.286 -5.43782 -2.32498 0
M  V30 2345 H 215.216 -0.616267 -0.434432 0
M  V30 2346 H 217.867 -1.78666 -0.418401 0
M  V30 2347 H 216.249 -2.72744 -2.871 0
M  V30 2348 H 217.423 -4.55828 -0.675099 0
M  V30 2349 H 215.738 -4.09292 -0.766097 0
M  V30 2350 H 218.335 -4.0021 -3.54593 0
M  V30 2351 H 218.678 -2.29103 -3.47588 0
M  V30 2352 H 219.211 -3.34901 -2.14677 0
M  V30 2353 H 215.95 -6.3192 -1.74233 0
M  V30 2354 H 215.47 -5.18106 -3.02201 0
M  V30 2355 H 217.149 -5.76834 -2.93038 0
M  V30 2356 N 217.281 0.66697 -1.42791 0
M  V30 2357 C 218.506 1.46004 -1.47301 0
M  V30 2358 C 218.931 1.87894 -0.0880317 0
M  V30 2359 O 218.289 1.56502 0.915253 0
M  V30 2360 C 218.337 2.68031 -2.41229 0
M  V30 2361 O 217.441 3.6659 -1.88906 0
M  V30 2362 H 216.782 0.43832 -0.49877 0
M  V30 2363 H 219.312 0.817391 -1.87563 0
M  V30 2364 H 219.322 3.1601 -2.58073 0
M  V30 2365 H 217.997 2.36883 -3.41847 0
M  V30 2366 H 216.574 3.25661 -1.81656 0
M  V30 2367 N 218.759 1.29093 0.90403 0
M  V30 2368 C 220.036 1.075 1.63411 0
M  V30 2369 C 220.416 -0.382346 2.07609 0
M  V30 2370 O 219.764 -1.37031 1.82851 0
M  V30 2371 C 219.974 2.05858 2.81822 0
M  V30 2372 C 221.322 2.36539 3.52611 0
M  V30 2373 O 222.346 2.04019 2.91984 0
M  V30 2374 O 221.205 2.92085 4.61897 0
M  V30 2375 H 218.299 0.411547 0.717327 0
M  V30 2376 H 220.845 1.40449 0.952479 0
M  V30 2377 H 219.617 3.04037 2.46327 0
M  V30 2378 H 219.24 1.73613 3.57693 0
M  V30 2379 N 220.237 -1.11381 1.11499 0
M  V30 2380 C 221.484 -1.83132 0.864231 0
M  V30 2381 C 221.812 -1.84683 -0.610114 0
M  V30 2382 O 221.067 -1.29589 -1.46646 0
M  V30 2383 C 221.366 -3.30026 1.37177 0
M  V30 2384 C 221.032 -3.48634 2.85946 0
M  V30 2385 C 219.694 -3.53421 3.26569 0
M  V30 2386 C 222.046 -3.54837 3.81759 0
M  V30 2387 C 219.374 -3.61967 4.61733 0
M  V30 2388 C 221.726 -3.64915 5.1674 0
M  V30 2389 C 220.39 -3.67962 5.5692 0
M  V30 2390 H 219.66 -0.670127 0.316245 0
M  V30 2391 H 222.307 -1.31354 1.3935 0
M  V30 2392 H 220.612 -3.84304 0.762753 0
M  V30 2393 H 222.309 -3.84034 1.15408 0
M  V30 2394 H 218.899 -3.45579 2.53521 0
M  V30 2395 H 223.083 -3.50399 3.51474 0
M  V30 2396 H 218.339 -3.62603 4.92269 0
M  V30 2397 H 222.513 -3.68658 5.90816 0
M  V30 2398 H 220.14 -3.74336 6.61647 0
M  V30 2399 N 221.715 -0.905404 -1.28997 0
M  V30 2400 C 222.625 -0.392246 -2.31298 0
M  V30 2401 C 223.641 0.515889 -1.66176 0
M  V30 2402 O 224.817 0.404093 -1.97304 0
M  V30 2403 C 221.882 0.36686 -3.44754 0
M  V30 2404 C 220.943 -0.573485 -4.25452 0
M  V30 2405 C 220.176 0.149488 -5.33491 0
M  V30 2406 O 220.399 1.37255 -5.5364 0
M  V30 2407 O 219.333 -0.510919 -5.99728 0
M  V30 2408 H 223.159 -1.2411 -2.77183 0
M  V30 2409 H 220.744 -0.669926 -1.33538 0
M  V30 2410 H 222.626 0.795907 -4.13816 0
M  V30 2411 H 221.301 1.19169 -3.00966 0
M  V30 2412 H 220.208 -1.05176 -3.59011 0
M  V30 2413 H 221.541 -1.36489 -4.72897 0
M  V30 2414 N 223.193 1.4272 -0.668489 0
M  V30 2415 C 224.442 2.00846 -0.185389 0
M  V30 2416 C 224.755 1.53442 1.21305 0
M  V30 2417 O 225.961 2.03944 1.79218 0
M  V30 2418 C 224.417 3.58805 -0.280591 0
M  V30 2419 C 224.025 4.15198 -1.68268 0
M  V30 2420 C 225.769 4.24255 0.14412 0
M  V30 2421 C 223.676 5.655 -1.73099 0
M  V30 2422 H 222.606 0.751145 -0.0655475 0
M  V30 2423 H 225.257 1.63516 -0.832752 0
M  V30 2424 H 223.639 3.93608 0.434553 0
M  V30 2425 H 224.813 3.91866 -2.42441 0
M  V30 2426 H 223.128 3.62176 -2.05469 0
M  V30 2427 H 225.725 5.34547 0.128086 0
M  V30 2428 H 226.068 3.99277 1.17827 0
M  V30 2429 H 226.601 3.94389 -0.519798 0
M  V30 2430 H 223.34 5.95268 -2.74475 0
M  V30 2431 H 222.86 5.90842 -1.03274 0
M  V30 2432 H 224.539 6.29808 -1.48158 0
M  V30 2433 N 224.671 0.411399 1.52136 0
M  V30 2434 C 226.082 -0.0576826 1.86611 0
M  V30 2435 C 226.433 -1.44238 1.33003 0
M  V30 2436 O 225.558 -2.05759 0.670228 0
M  V30 2437 C 226.153 -0.111448 3.38617 0
M  V30 2438 C 224.712 -0.52487 3.72723 0
M  V30 2439 C 223.859 0.299176 2.75681 0
M  V30 2440 H 226.81 0.628368 1.4573 0
M  V30 2441 H 226.831 -0.926252 3.69054 0
M  V30 2442 H 226.343 0.896488 3.77604 0
M  V30 2443 H 224.444 -1.53936 3.39315 0
M  V30 2444 H 224.557 -0.267681 4.78352 0
M  V30 2445 H 222.921 -0.238814 2.53578 0
M  V30 2446 H 223.704 1.3055 3.17508 0
M  V30 2447 N 226.149 -1.5696 0.141893 0
M  V30 2448 C 227.377 -2.00322 -0.517579 0
M  V30 2449 C 227.792 -1.02193 -1.58752 0
M  V30 2450 O 227.149 -0.0181619 -1.82491 0
M  V30 2451 C 227.2 -3.43618 -1.12289 0
M  V30 2452 O 226.921 -4.37995 -0.0956929 0
M  V30 2453 C 228.422 -4.02231 -1.86347 0
M  V30 2454 H 225.642 -0.657243 -0.135177 0
M  V30 2455 H 228.186 -2.03146 0.234973 0
M  V30 2456 H 226.341 -3.41662 -1.82609 0
M  V30 2457 H 226.755 -5.21729 -0.538469 0
M  V30 2458 H 228.229 -5.04509 -2.23997 0
M  V30 2459 H 228.706 -3.42655 -2.74744 0
M  V30 2460 H 229.312 -4.07802 -1.20737 0
M  V30 2461 N 227.627 0.131896 -1.57047 0
M  V30 2462 C 228.852 0.860418 -1.8871 0
M  V30 2463 C 229.277 1.73251 -0.73251 0
M  V30 2464 O 228.635 1.785 0.317429 0
M  V30 2465 C 228.683 1.68047 -3.19049 0
M  V30 2466 O 227.787 2.7862 -3.04047 0
M  V30 2467 H 227.128 0.238743 -0.619595 0
M  V30 2468 H 229.658 0.118169 -2.04258 0
M  V30 2469 H 229.668 2.07238 -3.51449 0
M  V30 2470 H 228.343 1.04018 -4.02682 0
M  V30 2471 H 226.92 2.42726 -2.83088 0
M  V30 2472 N 229.106 1.52395 0.401703 0
M  V30 2473 C 230.054 1.7689 1.51039 0
M  V30 2474 C 231.048 0.636298 1.56996 0
M  V30 2475 O 232.254 0.818507 1.60314 0
M  V30 2476 H 228.629 0.559502 0.502456 0
M  V30 2477 H 230.6 2.69757 1.27568 0
M  V30 2478 C 229.349 1.94331 2.88324 0
M  V30 2479 H 228.672 2.80905 2.84486 0
M  V30 2480 H 230.112 2.15466 3.65172 0
M  V30 2481 C 228.571 0.712396 3.29282 0
M  V30 2482 O 229.101 -0.116218 4.01532 0
M  V30 2483 N 227.307 0.546154 2.85422 0
M  V30 2484 H 226.854 1.22156 2.26794 0
M  V30 2485 H 226.812 -0.276113 3.13185 0
M  V30 2486 N 230.584 -0.659388 1.43143 0
M  V30 2487 C 231.833 -1.41518 1.43721 0
M  V30 2488 C 232.146 -1.95499 0.0628176 0
M  V30 2489 O 233.352 -2.71446 -0.0539683 0
M  V30 2490 C 231.808 -2.5608 2.52885 0
M  V30 2491 C 231.416 -2.08733 3.96402 0
M  V30 2492 C 233.16 -3.3349 2.62649 0
M  V30 2493 C 231.067 -3.20469 4.97045 0
M  V30 2494 H 229.997 -0.531705 0.534608 0
M  V30 2495 H 232.648 -0.712343 1.69109 0
M  V30 2496 H 231.03 -3.28805 2.20688 0
M  V30 2497 H 232.204 -1.43059 4.3803 0
M  V30 2498 H 230.519 -1.44219 3.90627 0
M  V30 2499 H 233.116 -4.16734 3.35017 0
M  V30 2500 H 233.459 -3.8111 1.67513 0
M  V30 2501 H 233.992 -2.67842 2.94118 0
M  V30 2502 H 230.731 -2.77824 5.93712 0
M  V30 2503 H 230.251 -3.84874 4.60034 0
M  V30 2504 H 231.93 -3.85698 5.19467 0
M  V30 2505 N 232.062 -1.29571 -0.897171 0
M  V30 2506 C 233.478 -1.07637 -1.17841 0
M  V30 2507 C 233.678 0.170713 -2.00776 0
M  V30 2508 O 232.734 0.867768 -2.3712 0
M  V30 2509 C 234.047 -2.3332 -1.8969 0
M  V30 2510 C 235.595 -2.38664 -2.02505 0
M  V30 2511 C 236.07 -3.64157 -2.77765 0
M  V30 2512 N 237.561 -3.64894 -2.85318 0
M  V30 2513 C 238.296 -4.58679 -3.44094 0
M  V30 2514 N 237.792 -5.62799 -4.04017 0
M  V30 2515 N 239.585 -4.46245 -3.41793 0
M  V30 2516 H 231.736 -2.09598 -0.343883 0
M  V30 2517 H 233.999 -0.923333 -0.214848 0
M  V30 2518 H 233.705 -3.24262 -1.36187 0
M  V30 2519 H 233.579 -2.41025 -2.9015 0
M  V30 2520 H 235.966 -1.48208 -2.55183 0
M  V30 2521 H 236.047 -2.34943 -1.01171 0
M  V30 2522 H 235.691 -4.54965 -2.25763 0
M  V30 2523 H 235.621 -3.65137 -3.7945 0
M  V30 2524 H 238.112 -2.89613 -2.42761 0
M  V30 2525 H 238.425 -6.3048 -4.46895 0
M  V30 2526 H 236.77 -5.66605 -4.02472 0
M  V30 2527 H 239.961 -3.64094 -2.94199 0
M  V30 2528 H 240.134 -5.19518 -3.87304 0
M  V30 2529 N 233.54 1.10788 -1.12088 0
M  V30 2530 C 234.956 1.34691 -0.856186 0
M  V30 2531 C 235.156 1.94791 0.515615 0
M  V30 2532 O 234.212 2.18524 1.26505 0
M  V30 2533 C 235.525 2.27208 -1.9697 0
M  V30 2534 C 237.073 2.40755 -2.00016 0
M  V30 2535 C 237.548 3.36598 -3.1059 0
M  V30 2536 N 239.039 3.44164 -3.10008 0
M  V30 2537 C 239.774 4.18284 -3.92206 0
M  V30 2538 N 239.27 4.95322 -4.84384 0
M  V30 2539 N 241.063 4.13865 -3.80357 0
M  V30 2540 H 233.214 0.70144 -2.00483 0
M  V30 2541 H 235.477 0.371405 -0.872217 0
M  V30 2542 H 235.183 1.90251 -2.958 0
M  V30 2543 H 235.057 3.27485 -1.87172 0
M  V30 2544 H 237.444 2.76982 -1.01808 0
M  V30 2545 H 237.525 1.40305 -2.13888 0
M  V30 2546 H 237.169 3.01096 -4.09028 0
M  V30 2547 H 237.099 4.36918 -2.93956 0
M  V30 2548 H 239.59 2.8922 -2.43228 0
M  V30 2549 H 239.903 5.49267 -5.43623 0
M  V30 2550 H 238.248 4.94459 -4.884 0
M  V30 2551 H 241.439 3.52773 -3.07683 0
M  V30 2552 H 241.612 4.71372 -4.44649 0
M  V30 2553 N 235.018 0.912232 1.28515 0
M  V30 2554 C 236.267 0.540504 1.94323 0
M  V30 2555 C 236.58 -0.920044 1.72611 0
M  V30 2556 O 237.786 -1.39986 2.32629 0
M  V30 2557 C 236.242 0.915803 3.48053 0
M  V30 2558 C 235.85 2.39598 3.78546 0
M  V30 2559 C 237.594 0.614588 4.20027 0
M  V30 2560 C 235.501 2.71148 5.25578 0
M  V30 2561 H 234.431 0.198418 0.727424 0
M  V30 2562 H 237.082 1.11094 1.46049 0
M  V30 2563 H 235.464 0.274168 3.9505 0
M  V30 2564 H 236.638 3.08422 3.42364 0
M  V30 2565 H 234.953 2.66749 3.1974 0
M  V30 2566 H 237.55 0.827002 5.28266 0
M  V30 2567 H 237.893 -0.447531 4.13887 0
M  V30 2568 H 238.426 1.21462 3.78803 0
M  V30 2569 H 235.165 3.76207 5.36794 0
M  V30 2570 H 234.685 2.0696 5.62963 0
M  V30 2571 H 236.364 2.58072 5.93302 0
M  V30 2572 N 236.496 -1.42363 0.676048 0
M  V30 2573 C 237.745 -2.00745 0.196037 0
M  V30 2574 C 238.058 -1.54083 -1.20489 0
M  V30 2575 O 239.264 -2.04891 -1.78134 0
M  V30 2576 C 237.72 -3.58651 0.299616 0
M  V30 2577 C 237.328 -4.143 1.70468 0
M  V30 2578 C 239.072 -4.24326 -0.121619 0
M  V30 2579 C 236.979 -5.64574 1.76096 0
M  V30 2580 H 235.909 -0.750787 0.0695301 0
M  V30 2581 H 238.56 -1.63072 0.841412 0
M  V30 2582 H 236.942 -3.93833 -0.413673 0
M  V30 2583 H 238.116 -3.90575 2.44515 0
M  V30 2584 H 236.431 -3.61081 2.07387 0
M  V30 2585 H 239.028 -5.34607 -0.0997362 0
M  V30 2586 H 239.371 -3.99897 -1.15708 0
M  V30 2587 H 239.904 -3.94108 0.540706 0
M  V30 2588 H 236.643 -5.93804 2.77628 0
M  V30 2589 H 236.163 -5.90286 1.06406 0
M  V30 2590 H 237.842 -6.29013 1.51496 0
M  V30 2591 N 237.974 -0.419461 -1.51915 0
M  V30 2592 C 239.214 0.152336 -2.03832 0
M  V30 2593 C 239.578 1.41501 -1.29775 0
M  V30 2594 O 240.779 2.06591 -1.7197 0
M  V30 2595 C 239.05 0.383812 -3.55333 0
M  V30 2596 S 240.609 0.921577 -4.29013 0
M  V30 2597 H 237.427 0.0402193 -0.709862 0
M  V30 2598 H 240.029 -0.574758 -1.8686 0
M  V30 2599 H 238.733 -0.541794 -4.06808 0
M  V30 2600 H 238.264 1.13849 -3.76566 0
M  V30 2601 H 240.279 2.20108 -4.4471 0
M  V30 2602 N 239.452 1.56882 -0.150215 0
M  V30 2603 C 240.677 2.01027 0.510184 0
M  V30 2604 C 241.102 1.02966 1.57415 0
M  V30 2605 O 240.46 0.00590158 1.81299 0
M  V30 2606 C 240.508 3.43899 1.08472 0
M  V30 2607 O 239.612 3.4885 2.19948 0
M  V30 2608 H 238.953 0.652233 0.124451 0
M  V30 2609 H 241.483 2.03093 -0.247894 0
M  V30 2610 H 241.493 3.82766 1.41259 0
M  V30 2611 H 240.168 4.14776 0.305582 0
M  V30 2612 H 238.745 3.21827 1.88366 0
M  V30 2613 N 240.93 -0.123565 1.57115 0
M  V30 2614 C 242.158 -0.846461 1.88793 0
M  V30 2615 C 242.573 -1.73652 0.740976 0
M  V30 2616 O 241.93 -1.80207 -0.288393 0
M  V30 2617 C 241.981 -1.6837 3.19897 0
M  V30 2618 O 241.702 -0.829477 4.30176 0
M  V30 2619 C 243.203 -2.51214 3.65248 0
M  V30 2620 H 240.423 -0.243573 0.625231 0
M  V30 2621 H 242.967 -0.109324 2.04208 0
M  V30 2622 H 241.122 -2.37364 3.06165 0
M  V30 2623 H 241.536 -1.40651 5.0529 0
M  V30 2624 H 243.01 -3.05497 4.59756 0
M  V30 2625 H 243.487 -3.28359 2.9168 0
M  V30 2626 H 244.093 -1.8747 3.81752 0
M  V30 2627 N 242.408 -1.52605 -0.393616 0
M  V30 2628 C 243.633 -1.71592 -1.16495 0
M  V30 2629 C 244.058 -0.43133 -1.83088 0
M  V30 2630 O 243.416 0.612523 -1.7064 0
M  V30 2631 C 243.464 -2.86318 -2.19213 0
M  V30 2632 O 242.568 -2.52969 -3.257 0
M  V30 2633 H 241.909 -0.570734 -0.33935 0
M  V30 2634 H 244.439 -1.99377 -0.459324 0
M  V30 2635 H 244.449 -3.1168 -2.63286 0
M  V30 2636 H 243.124 -3.79511 -1.7013 0
M  V30 2637 H 241.701 -2.38332 -2.86797 0
M  V30 2638 N 243.887 0.651787 -1.4349 0
M  V30 2639 C 245.135 1.40888 -1.44897 0
M  V30 2640 C 245.456 1.94856 -0.0749086 0
M  V30 2641 O 244.726 1.74518 0.889956 0
M  V30 2642 H 243.306 0.522887 -0.533478 0
M  V30 2643 H 245.968 0.768609 -1.79104 0
M  V30 2644 H 245.064 2.25052 -2.16236 0
M  V30 2645 N 245.365 1.30045 0.890287 0
M  V30 2646 C 246.613 1.18327 1.63839 0
M  V30 2647 C 246.934 -0.263455 1.93212 0
M  V30 2648 O 246.204 -1.17856 1.56482 0
M  V30 2649 H 244.784 0.434933 0.607324 0
M  V30 2650 H 247.446 1.631 1.06698 0
M  V30 2651 H 246.542 1.74024 2.59079 0
M  V30 2652 N 246.843 -1.10192 1.12674 0
M  V30 2653 C 248.09 -1.82205 0.883606 0
M  V30 2654 C 248.418 -1.8532 -0.590492 0
M  V30 2655 O 247.673 -1.31137 -1.45264 0
M  V30 2656 C 247.972 -3.28552 1.4067 0
M  V30 2657 C 247.638 -3.45582 2.89627 0
M  V30 2658 C 246.3 -3.49937 3.30299 0
M  V30 2659 C 248.652 -3.50768 3.85501 0
M  V30 2660 C 245.98 -3.57049 4.65546 0
M  V30 2661 C 248.332 -3.59414 5.20581 0
M  V30 2662 C 246.996 -3.62034 5.60792 0
M  V30 2663 H 246.266 -0.666735 0.323334 0
M  V30 2664 H 248.913 -1.29868 1.40736 0
M  V30 2665 H 247.218 -3.83473 0.80347 0
M  V30 2666 H 248.915 -3.82788 1.19475 0
M  V30 2667 H 245.505 -3.42871 2.57172 0
M  V30 2668 H 249.689 -3.46651 3.55171 0
M  V30 2669 H 244.945 -3.57361 4.96088 0
M  V30 2670 H 249.119 -3.62371 5.94693 0
M  V30 2671 H 246.746 -3.67298 6.6558 0
M  V30 2672 N 248.321 -0.919034 -1.28029 0
M  V30 2673 C 249.732 -0.600735 -1.76771 0
M  V30 2674 C 250.083 0.884024 -1.75156 0
M  V30 2675 O 249.208 1.69163 -1.34956 0
M  V30 2676 C 249.803 -1.08372 -3.21 0
M  V30 2677 C 248.362 -0.816248 -3.67443 0
M  V30 2678 C 247.509 -1.24742 -2.47658 0
M  V30 2679 H 250.46 -1.09974 -1.14418 0
M  V30 2680 H 250.481 -0.427512 -3.78091 0
M  V30 2681 H 249.993 -2.16437 -3.22144 0
M  V30 2682 H 248.094 0.250968 -3.71754 0
M  V30 2683 H 248.207 -1.4277 -4.57333 0
M  V30 2684 H 246.571 -0.666083 -2.45836 0
M  V30 2685 H 247.354 -2.33653 -2.51518 0
M  V30 2686 N 249.799 1.42003 -0.683588 0
M  V30 2687 C 250.709 2.34597 -0.0109075 0
M  V30 2688 C 251.725 1.55576 0.779245 0
M  V30 2689 O 252.901 1.88107 0.719555 0
M  V30 2690 C 249.966 3.34199 0.922588 0
M  V30 2691 C 249.027 4.29115 0.125984 0
M  V30 2692 C 248.26 5.23959 1.01502 0
M  V30 2693 O 248.483 5.23952 2.25456 0
M  V30 2694 O 247.417 6.00053 0.47111 0
M  V30 2695 H 251.243 2.93675 -0.773853 0
M  V30 2696 H 248.828 1.42654 -0.443861 0
M  V30 2697 H 250.71 3.95365 1.45823 0
M  V30 2698 H 249.385 2.77582 1.66523 0
M  V30 2699 H 248.292 3.71335 -0.453969 0
M  V30 2700 H 249.625 4.88798 -0.577736 0
M  V30 2701 N 251.277 0.427512 1.51691 0
M  V30 2702 C 252.688 -0.0378867 1.86662 0
M  V30 2703 C 253.039 -1.42819 1.34525 0
M  V30 2704 O 252.164 -2.05037 0.692014 0
M  V30 2705 C 252.759 -0.0755266 3.38716 0
M  V30 2706 C 251.318 -0.485309 3.73258 0
M  V30 2707 C 250.465 0.328399 2.75349 0
M  V30 2708 H 253.416 0.64379 1.45055 0
M  V30 2709 H 253.437 -0.887056 3.70016 0
M  V30 2710 H 252.949 0.936487 3.76632 0
M  V30 2711 H 251.05 -1.50329 3.40928 0
M  V30 2712 H 251.163 -0.21693 4.78609 0
M  V30 2713 H 249.527 -0.211905 2.53817 0
M  V30 2714 H 250.31 1.3391 3.16106 0
M  V30 2715 N 252.755 -1.56801 0.158532 0
M  V30 2716 C 253.705 -2.13923 -0.788738 0
M  V30 2717 C 254.689 -1.07006 -1.2016 0
M  V30 2718 O 255.881 -1.33159 -1.1661 0
M  V30 2719 C 253.01 -2.77348 -2.02319 0
M  V30 2720 C 252.096 -3.91404 -1.6329 0
M  V30 2721 N 252.487 -4.9677 -0.951463 0
M  V30 2722 C 250.785 -4.02326 -1.92482 0
M  V30 2723 C 251.486 -5.76698 -0.761221 0
M  V30 2724 N 250.462 -5.27859 -1.29869 0
M  V30 2725 H 254.264 -2.92757 -0.258995 0
M  V30 2726 H 251.778 -1.62344 -0.0426055 0
M  V30 2727 H 253.775 -3.16639 -2.71192 0
M  V30 2728 H 252.435 -1.99991 -2.558 0
M  V30 2729 H 253.446 -5.14284 -0.610928 0
M  V30 2730 H 250.123 -3.36059 -2.47732 0
M  V30 2731 H 251.513 -6.71529 -0.223284 0
M  V30 2732 N 254.233 0.115231 -1.57178 0
M  V30 2733 C 255.163 1.1423 -2.03651 0
M  V30 2734 C 256.144 1.42967 -0.921655 0
M  V30 2735 O 257.329 1.53343 -1.19162 0
M  V30 2736 C 254.459 2.4675 -2.44401 0
M  V30 2737 C 253.413 2.32467 -3.59365 0
M  V30 2738 C 252.739 3.69984 -3.86026 0
M  V30 2739 C 254.039 1.78203 -4.90959 0
M  V30 2740 H 255.733 0.755749 -2.89705 0
M  V30 2741 H 253.279 0.362093 -1.39373 0
M  V30 2742 H 255.232 3.18854 -2.75517 0
M  V30 2743 H 253.956 2.87302 -1.55322 0
M  V30 2744 H 252.615 1.62811 -3.28463 0
M  V30 2745 H 252.263 4.08028 -2.94147 0
M  V30 2746 H 251.963 3.61279 -4.63412 0
M  V30 2747 H 253.487 4.43587 -4.19599 0
M  V30 2748 H 254.901 2.40128 -5.20587 0
M  V30 2749 H 253.298 1.8031 -5.72371 0
M  V30 2750 H 254.368 0.739876 -4.79222 0
M  V30 2751 N 255.711 1.52812 0.385517 0
M  V30 2752 C 256.936 1.72207 1.15583 0
M  V30 2753 C 257.361 0.441034 1.82857 0
M  V30 2754 O 256.719 -0.603465 1.70962 0
M  V30 2755 C 256.767 2.87476 2.17692 0
M  V30 2756 O 255.871 2.54693 3.24354 0
M  V30 2757 H 255.212 0.572526 0.336319 0
M  V30 2758 H 257.742 1.99618 0.448744 0
M  V30 2759 H 257.752 3.13072 2.6163 0
M  V30 2760 H 256.427 3.80408 1.68115 0
M  V30 2761 H 255.004 2.3985 2.85529 0
M  V30 2762 N 257.189 -0.644168 1.43834 0
M  V30 2763 C 258.435 -1.40431 1.47141 0
M  V30 2764 C 258.79 -1.92153 0.0975577 0
M  V30 2765 O 258.083 -1.69924 -0.885232 0
M  V30 2766 C 258.277 -2.59615 2.45631 0
M  V30 2767 C 258.106 -2.1956 3.92458 0
M  V30 2768 C 256.876 -2.07456 4.60749 0
M  V30 2769 C 259.074 -1.79281 4.8204 0
M  V30 2770 N 257.056 -1.60827 5.92459 0
M  V30 2771 C 258.427 -1.43801 6.03093 0
M  V30 2772 C 260.482 -1.66545 4.6922 0
M  V30 2773 C 259.185 -0.968599 7.12749 0
M  V30 2774 C 261.211 -1.21008 5.78888 0
M  V30 2775 C 260.573 -0.864711 6.99072 0
M  V30 2776 H 256.672 -0.509182 0.593513 0
M  V30 2777 H 259.256 -0.740351 1.80075 0
M  V30 2778 H 257.427 -3.23658 2.1471 0
M  V30 2779 H 259.159 -3.26357 2.39318 0
M  V30 2780 H 255.914 -2.275 4.1538 0
M  V30 2781 H 256.338 -1.39848 6.62398 0
M  V30 2782 H 260.98 -1.91883 3.7675 0
M  V30 2783 H 258.698 -0.702715 8.05039 0
M  V30 2784 H 262.284 -1.11631 5.7099 0
M  V30 2785 H 261.164 -0.517736 7.82489 0
M  V30 2786 N 258.668 -1.30515 -0.883378 0
M  V30 2787 C 259.598 -1.19607 -2.00541 0
M  V30 2788 C 260.579 -0.086346 -1.69881 0
M  V30 2789 O 261.764 -0.268654 -1.92333 0
M  V30 2790 C 258.894 -0.888758 -3.35736 0
M  V30 2791 C 257.848 -1.95659 -3.8066 0
M  V30 2792 C 257.174 -1.50224 -5.13164 0
M  V30 2793 C 258.474 -3.36788 -3.99213 0
M  V30 2794 H 260.168 -2.13476 -2.09925 0
M  V30 2795 H 257.714 -1.02775 -1.00863 0
M  V30 2796 H 259.667 -0.799094 -4.13754 0
M  V30 2797 H 258.391 0.0856125 -3.26488 0
M  V30 2798 H 257.05 -2.03591 -3.04871 0
M  V30 2799 H 256.698 -0.516092 -5.00345 0
M  V30 2800 H 256.398 -2.2165 -5.44192 0
M  V30 2801 H 257.922 -1.42639 -5.93706 0
M  V30 2802 H 259.336 -3.31605 -4.67665 0
M  V30 2803 H 257.733 -4.06314 -4.41621 0
M  V30 2804 H 258.803 -3.78561 -3.03017 0
M  V30 2805 N 260.146 1.09593 -1.13257 0
M  V30 2806 C 261.056 2.19739 -0.821691 0
M  V30 2807 C 262.072 1.72926 0.19302 0
M  V30 2808 O 263.248 2.01385 0.0244895 0
M  V30 2809 C 260.313 3.45482 -0.290333 0
M  V30 2810 C 259.374 4.06985 -1.36607 0
M  V30 2811 C 258.607 5.26726 -0.859975 0
M  V30 2812 O 258.83 5.69594 0.303082 0
M  V30 2813 O 257.764 5.7931 -1.63351 0
M  V30 2814 H 261.59 2.48781 -1.74189 0
M  V30 2815 H 259.175 1.18496 -0.909894 0
M  V30 2816 H 261.057 4.214 0.000674022 0
M  V30 2817 H 259.732 3.18047 0.602306 0
M  V30 2818 H 258.639 3.32712 -1.71037 0
M  V30 2819 H 259.972 4.38643 -2.23279 0
M  V30 2820 N 261.624 0.925811 1.2754 0
M  V30 2821 C 262.572 0.413897 2.28888 0
M  V30 2822 C 263.566 -0.500779 1.61829 0
M  V30 2823 O 264.772 -0.38069 1.75928 0
M  V30 2824 H 261.147 0.115274 0.743112 0
M  V30 2825 H 263.118 1.28151 2.69481 0
M  V30 2826 C 261.867 -0.319792 3.46226 0
M  V30 2827 H 261.19 0.374846 3.98039 0
M  V30 2828 H 262.63 -0.642435 4.19105 0
M  V30 2829 C 261.089 -1.53209 3.00048 0
M  V30 2830 O 261.619 -2.6309 3.03557 0
M  V30 2831 N 259.825 -1.38326 2.55566 0
M  V30 2832 H 259.372 -0.489292 2.5291 0
M  V30 2833 H 259.33 -2.19564 2.25031 0
M  V30 2834 N 263.102 -1.41638 0.69111 0
M  V30 2835 C 264.35 -2.00902 0.219758 0
M  V30 2836 C 264.671 -1.54994 -1.18329 0
M  V30 2837 O 263.941 -0.778628 -1.79762 0
M  V30 2838 H 262.521 -0.74289 0.0782558 0
M  V30 2839 H 265.183 -1.73327 0.891271 0
M  V30 2840 H 264.279 -3.11224 0.233708 0
M  V30 2841 N 264.58 -0.43555 -1.51462 0
M  V30 2842 C 265.49 0.383001 -2.31453 0
M  V30 2843 C 266.506 1.02931 -1.4029 0
M  V30 2844 O 267.682 1.02507 -1.73362 0
M  V30 2845 C 264.747 1.47043 -3.13973 0
M  V30 2846 C 263.808 0.844433 -4.20913 0
M  V30 2847 C 263.041 1.88004 -4.9949 0
M  V30 2848 O 263.264 3.10199 -4.78678 0
M  V30 2849 O 262.198 1.47157 -5.83634 0
M  V30 2850 H 266.024 -0.269964 -3.02498 0
M  V30 2851 H 263.609 -0.19813 -1.4808 0
M  V30 2852 H 265.491 2.10113 -3.65281 0
M  V30 2853 H 264.166 2.10751 -2.45695 0
M  V30 2854 H 263.073 0.175729 -3.73687 0
M  V30 2855 H 264.406 0.250869 -4.9156 0
M  V30 2856 N 266.058 1.56714 -0.166846 0
M  V30 2857 C 266.968 2.21331 0.777791 0
M  V30 2858 C 267.984 1.20358 1.25658 0
M  V30 2859 O 269.16 1.53005 1.30964 0
M  V30 2860 C 266.225 2.83787 1.99163 0
M  V30 2861 C 265.286 3.99947 1.56016 0
M  V30 2862 C 264.519 4.59415 2.71613 0
M  V30 2863 O 264.742 4.17769 3.88362 0
M  V30 2864 O 263.676 5.49359 2.45945 0
M  V30 2865 H 267.502 3.02605 0.257636 0
M  V30 2866 H 265.087 1.49275 0.0611393 0
M  V30 2867 H 266.969 3.23405 2.70161 0
M  V30 2868 H 265.644 2.05513 2.50092 0
M  V30 2869 H 264.551 3.65007 0.819809 0
M  V30 2870 H 265.884 4.79801 1.09782 0
M  V30 2871 N 267.536 -0.106894 1.57237 0
M  V30 2872 C 268.466 -1.13148 2.04254 0
M  V30 2873 C 269.447 -1.42476 0.929224 0
M  V30 2874 O 270.632 -1.52709 1.19973 0
M  V30 2875 C 267.762 -2.4545 2.45706 0
M  V30 2876 C 266.716 -2.30558 3.60592 0
M  V30 2877 C 266.042 -3.67931 3.87983 0
M  V30 2878 C 267.342 -1.75597 4.91897 0
M  V30 2879 H 269.036 -0.740374 2.90101 0
M  V30 2880 H 266.582 -0.354696 1.39563 0
M  V30 2881 H 268.535 -3.17389 2.77205 0
M  V30 2882 H 267.259 -2.86475 1.56843 0
M  V30 2883 H 265.918 -1.61067 3.29322 0
M  V30 2884 H 265.566 -4.06462 2.96306 0
M  V30 2885 H 265.266 -3.58817 4.65322 0
M  V30 2886 H 266.79 -4.41356 4.21945 0
M  V30 2887 H 268.204 -2.37364 5.21854 0
M  V30 2888 H 266.601 -1.77272 5.73319 0
M  V30 2889 H 267.671 -0.714451 4.79608 0
M  V30 2890 N 269.014 -1.53014 -0.377408 0
M  V30 2891 C 269.962 -1.7927 -1.48206 0
M  V30 2892 C 270.956 -0.661195 -1.55963 0
M  V30 2893 O 272.162 -0.843908 -1.58991 0
M  V30 2894 H 268.537 -0.567425 -0.493491 0
M  V30 2895 H 270.508 -2.71753 -1.2326 0
M  V30 2896 C 269.257 -1.98894 -2.85196 0
M  V30 2897 H 268.58 -2.85395 -2.79981 0
M  V30 2898 H 270.02 -2.21249 -3.61698 0
M  V30 2899 C 268.479 -0.764691 -3.28107 0
M  V30 2900 O 269.009 0.0523226 -4.01666 0
M  V30 2901 N 267.215 -0.591493 -2.84517 0
M  V30 2902 H 266.762 -1.25749 -2.24822 0
M  V30 2903 H 266.72 0.226253 -3.13585 0
M  V30 2904 N 270.492 0.636531 -1.44174 0
M  V30 2905 C 271.455 1.73063 -1.50273 0
M  V30 2906 C 272.455 1.56113 -0.385397 0
M  V30 2907 O 273.645 1.61707 -0.64781 0
M  V30 2908 C 270.777 3.12096 -1.37145 0
M  V30 2909 H 271.97 1.69031 -2.47727 0
M  V30 2910 H 269.523 0.849706 -1.31186 0
M  V30 2911 H 270.258 3.21728 -0.407636 0
M  V30 2912 H 270.043 3.25805 -2.18159 0
M  V30 2913 H 271.533 3.91846 -1.44382 0
M  V30 2914 N 271.97 1.30982 0.876444 0
M  V30 2915 C 273.219 1.19658 1.62373 0
M  V30 2916 C 273.532 -0.245636 1.94052 0
M  V30 2917 O 274.738 -0.48049 2.67214 0
M  V30 2918 C 273.194 2.09433 2.92687 0
M  V30 2919 C 272.802 3.58613 2.68516 0
M  V30 2920 C 274.546 2.06893 3.70669 0
M  V30 2921 C 272.453 4.40416 3.94699 0
M  V30 2922 H 271.383 0.444268 0.609214 0
M  V30 2923 H 274.034 1.55791 0.969605 0
M  V30 2924 H 272.416 1.66191 3.59439 0
M  V30 2925 H 273.59 4.10058 2.10212 0
M  V30 2926 H 271.905 3.63063 2.03898 0
M  V30 2927 H 274.502 2.65258 4.64265 0
M  V30 2928 H 274.845 1.05448 4.02724 0
M  V30 2929 H 275.378 2.48301 3.10792 0
M  V30 2930 H 272.117 5.42591 3.67798 0
M  V30 2931 H 271.637 3.93731 4.52477 0
M  V30 2932 H 273.316 4.52294 4.62644 0
M  V30 2933 N 273.449 -1.08991 1.13837 0
M  V30 2934 C 274.397 -2.17841 0.815347 0
M  V30 2935 C 275.391 -1.68164 -0.204233 0
M  V30 2936 O 276.597 -1.79897 -0.0609304 0
M  V30 2937 H 272.972 -0.710654 0.245915 0
M  V30 2938 H 274.943 -2.42315 1.74143 0
M  V30 2939 C 273.692 -3.46381 0.302614 0
M  V30 2940 H 273.015 -3.84979 1.0785 0
M  V30 2941 H 274.455 -4.23844 0.115074 0
M  V30 2942 C 272.914 -3.22556 -0.972591 0
M  V30 2943 O 273.444 -3.45599 -2.04754 0
M  V30 2944 N 271.65 -2.76134 -0.905455 0
M  V30 2945 H 271.197 -2.57582 -0.0305421 0
M  V30 2946 H 271.155 -2.60571 -1.75926 0
M  V30 2947 N 274.927 -0.932562 -1.27047 0
M  V30 2948 C 276.155 -0.592031 -1.98249 0
M  V30 2949 C 276.57 0.831062 -1.69525 0
M  V30 2950 O 275.927 1.55299 -0.958561 0
M  V30 2951 C 275.978 -0.814279 -3.5221 0
M  V30 2952 O 275.699 -2.18139 -3.7993 0
M  V30 2953 C 277.2 -0.483121 -4.4066 0
M  V30 2954 H 274.42 -0.223896 -0.632544 0
M  V30 2955 H 276.964 -1.25091 -1.61779 0
M  V30 2956 H 275.119 -0.20213 -3.86872 0
M  V30 2957 H 275.533 -2.235 -4.74498 0
M  V30 2958 H 277.007 -0.689298 -5.47679 0
M  V30 2959 H 277.484 0.581546 -4.35333 0
M  V30 2960 H 278.09 -1.07362 -4.11526 0
M  V30 2961 N 276.405 1.4127 -0.698611 0
M  V30 2962 C 277.633 2.05503 -0.239992 0
M  V30 2963 C 278.048 1.52584 1.11191 0
M  V30 2964 O 277.405 0.675323 1.69545 0
M  V30 2965 C 277.456 3.60987 -0.192429 0
M  V30 2966 O 277.177 4.1195 -1.49094 0
M  V30 2967 C 278.678 4.42371 0.28681 0
M  V30 2968 H 275.898 0.661748 -0.111045 0
M  V30 2969 H 278.442 1.80987 -0.95205 0
M  V30 2970 H 276.597 3.84533 0.470472 0
M  V30 2971 H 277.011 5.06018 -1.38007 0
M  V30 2972 H 278.485 5.51344 0.26896 0
M  V30 2973 H 278.962 4.18699 1.32619 0
M  V30 2974 H 279.568 4.23897 -0.345201 0
M  V30 2975 N 277.883 0.443576 1.51229 0
M  V30 2976 C 279.129 -0.120975 2.02439 0
M  V30 2977 C 279.462 -1.41815 1.32674 0
M  V30 2978 O 278.737 -1.89373 0.443622 0
M  V30 2979 C 279.02 -0.333291 3.58554 0
M  V30 2980 C 278.873 0.982968 4.38928 0
M  V30 2981 C 280.192 -1.10028 4.26124 0
M  V30 2982 H 277.311 -0.0424923 0.735774 0
M  V30 2983 H 279.953 0.583794 1.80809 0
M  V30 2984 H 278.103 -0.933614 3.77115 0
M  V30 2985 H 279.775 1.61775 4.32003 0
M  V30 2986 H 278.018 1.58611 4.03763 0
M  V30 2987 H 278.689 0.788379 5.46341 0
M  V30 2988 H 281.165 -0.591711 4.11871 0
M  V30 2989 H 280.041 -1.21761 5.35225 0
M  V30 2990 H 280.302 -2.12996 3.87408 0
M  V30 2991 N 279.361 -1.56624 0.175154 0
M  V30 2992 C 280.586 -2.01813 -0.478137 0
M  V30 2993 C 281.011 -1.05457 -1.55757 0
M  V30 2994 O 280.369 -0.0347439 -1.81267 0
M  V30 2995 C 280.417 -3.45581 -1.02987 0
M  V30 2996 O 279.521 -3.52305 -2.14371 0
M  V30 2997 H 278.862 -0.65413 -0.114059 0
M  V30 2998 H 281.392 -2.02673 0.280173 0
M  V30 2999 H 281.402 -3.84965 -1.35151 0
M  V30 3000 H 280.077 -4.1521 -0.239556 0
M  V30 3001 H 278.654 -3.24783 -1.83222 0
M  V30 3002 N 280.839 0.0985539 -1.57292 0
M  V30 3003 C 281.771 1.14595 -1.98496 0
M  V30 3004 C 282.784 1.36512 -0.887031 0
M  V30 3005 O 283.973 1.35225 -1.16518 0
M  V30 3006 C 281.073 2.50216 -2.28572 0
M  V30 3007 C 280.246 2.48624 -3.59868 0
M  V30 3008 C 279.305 3.66146 -3.7792 0
M  V30 3009 O 278.331 3.48795 -4.49812 0
M  V30 3010 N 279.533 4.85496 -3.18235 0
M  V30 3011 H 282.298 0.795277 -2.88956 0
M  V30 3012 H 279.859 0.287579 -1.59325 0
M  V30 3013 H 281.851 3.27432 -2.37845 0
M  V30 3014 H 280.421 2.77387 -1.44136 0
M  V30 3015 H 279.641 1.56978 -3.61596 0
M  V30 3016 H 280.929 2.44635 -4.46129 0
M  V30 3017 H 280.327 5.02497 -2.59833 0
M  V30 3018 H 278.884 5.60317 -3.32999 0
M  V30 3019 N 282.317 1.53212 0.369288 0
M  V30 3020 C 283.594 1.59815 1.12776 0
M  V30 3021 C 283.974 0.403402 2.0721 0
M  V30 3022 O 283.322 -0.606667 2.20299 0
M  V30 3023 C 283.532 2.94664 1.87013 0
M  V30 3024 C 284.88 3.49109 2.41677 0
M  V30 3025 O 285.904 2.96669 1.97144 0
M  V30 3026 O 284.763 4.40775 3.23079 0
M  V30 3027 H 281.857 0.645376 0.517125 0
M  V30 3028 H 284.403 1.65553 0.37285 0
M  V30 3029 H 283.175 3.73061 1.18071 0
M  V30 3030 H 282.798 2.92401 2.69421 0
M  V30 3031 N 283.795 -0.628877 1.44509 0
M  V30 3032 C 285.206 -1.21054 1.42137 0
M  V30 3033 C 285.557 -1.95715 0.137881 0
M  V30 3034 O 284.682 -2.02554 -0.761645 0
M  V30 3035 C 285.277 -2.20189 2.57493 0
M  V30 3036 C 283.836 -2.73777 2.58308 0
M  V30 3037 C 282.983 -1.48813 2.33987 0
M  V30 3038 H 285.934 -0.41942 1.53057 0
M  V30 3039 H 285.955 -3.02833 2.30375 0
M  V30 3040 H 285.467 -1.6582 3.50892 0
M  V30 3041 H 283.568 -3.32142 1.68856 0
M  V30 3042 H 283.681 -3.19662 3.56865 0
M  V30 3043 H 282.045 -1.77024 1.83124 0
M  V30 3044 H 282.828 -0.963442 3.29504 0
M  V30 3045 N 285.273 -1.31445 -0.869486 0
M  V30 3046 C 286.183 -1.21097 -2.0093 0
M  V30 3047 C 287.199 -0.127584 -1.73532 0
M  V30 3048 O 288.375 -0.345477 -1.98415 0
M  V30 3049 C 285.44 -0.919378 -3.34288 0
M  V30 3050 C 284.501 -2.08971 -3.75006 0
M  V30 3051 C 283.734 -1.81194 -5.02001 0
M  V30 3052 O 283.957 -0.747296 -5.65484 0
M  V30 3053 O 282.891 -2.66883 -5.39497 0
M  V30 3054 H 286.717 -2.16883 -2.12592 0
M  V30 3055 H 284.302 -1.11189 -0.997868 0
M  V30 3056 H 286.184 -0.772625 -4.14257 0
M  V30 3057 H 284.859 0.00844772 -3.23699 0
M  V30 3058 H 283.766 -2.29187 -2.95676 0
M  V30 3059 H 285.099 -2.9998 -3.90221 0
M  V30 3060 N 286.751 1.08385 -1.14413 0
M  V30 3061 C 287.979 1.84517 -0.936001 0
M  V30 3062 C 288.394 1.81626 0.515503 0
M  V30 3063 O 287.751 1.22008 1.35721 0
M  V30 3064 C 287.802 3.32049 -1.42918 0
M  V30 3065 O 287.523 3.34951 -2.82381 0
M  V30 3066 C 289.024 4.24986 -1.26103 0
M  V30 3067 H 286.244 0.582491 -0.333084 0
M  V30 3068 H 288.788 1.36885 -1.5193 0
M  V30 3069 H 286.943 3.7707 -0.888641 0
M  V30 3070 H 287.357 4.27048 -3.04517 0
M  V30 3071 H 288.831 5.26615 -1.6547 0
M  V30 3072 H 289.308 4.38726 -0.20392 0
M  V30 3073 H 289.914 3.85791 -1.79012 0
M  V30 3074 N 288.23 0.939286 1.26551 0
M  V30 3075 C 289.14 0.453432 2.30176 0
M  V30 3076 C 290.156 -0.471649 1.67486 0
M  V30 3077 O 291.332 -0.35164 1.98306 0
M  V30 3078 C 288.397 -0.275326 3.45605 0
M  V30 3079 C 287.458 0.686084 4.23782 0
M  V30 3080 C 286.691 -0.00798994 5.33699 0
M  V30 3081 O 286.914 -1.22528 5.57085 0
M  V30 3082 O 285.848 0.669746 5.98162 0
M  V30 3083 H 289.674 1.31416 2.73795 0
M  V30 3084 H 287.259 0.705095 1.31715 0
M  V30 3085 H 289.141 -0.685911 4.1578 0
M  V30 3086 H 287.816 -1.11147 3.0402 0
M  V30 3087 H 286.723 1.14658 3.56096 0
M  V30 3088 H 288.056 1.48979 4.69112 0
M  V30 3089 N 289.708 -1.40897 0.706093 0
M  V30 3090 C 290.638 -2.33418 0.0620085 0
M  V30 3091 C 291.619 -1.52385 -0.755827 0
M  V30 3092 O 292.804 -1.80886 -0.706674 0
M  V30 3093 C 289.934 -3.36293 -0.867445 0
M  V30 3094 C 288.888 -4.27716 -0.155932 0
M  V30 3095 C 288.214 -5.2105 -1.20046 0
M  V30 3096 C 289.514 -5.12944 0.984149 0
M  V30 3097 H 291.208 -2.87527 0.83477 0
M  V30 3098 H 288.754 -1.38249 0.402875 0
M  V30 3099 H 290.707 -3.99949 -1.32735 0
M  V30 3100 H 289.431 -2.80556 -1.67199 0
M  V30 3101 H 288.09 -3.65498 0.284047 0
M  V30 3102 H 287.738 -4.61624 -1.99781 0
M  V30 3103 H 287.438 -5.83056 -0.729328 0
M  V30 3104 H 288.962 -5.87584 -1.66066 0
M  V30 3105 H 290.376 -5.70109 0.604048 0
M  V30 3106 H 288.773 -5.83945 1.38304 0
M  V30 3107 H 289.843 -4.49485 1.81911 0
M  V30 3108 N 291.186 -0.45159 -1.50991 0
M  V30 3109 C 292.416 0.108177 -2.06317 0
M  V30 3110 C 292.824 1.35774 -1.31765 0
M  V30 3111 O 292.167 1.79838 -0.374694 0
M  V30 3112 C 292.229 0.481659 -3.56259 0
M  V30 3113 C 291.893 -0.663114 -4.52163 0
M  V30 3114 C 292.89 -1.53947 -4.96585 0
M  V30 3115 C 290.575 -0.8479 -4.95092 0
M  V30 3116 C 292.569 -2.58518 -5.82621 0
M  V30 3117 C 290.256 -1.89686 -5.80915 0
M  V30 3118 C 291.254 -2.76388 -6.24579 0
M  V30 3119 O 290.942 -3.79482 -7.08695 0
M  V30 3120 H 290.674 0.00499183 -0.675982 0
M  V30 3121 H 293.228 -0.633659 -1.95381 0
M  V30 3122 H 291.458 1.27641 -3.65027 0
M  V30 3123 H 293.147 0.974233 -3.94035 0
M  V30 3124 H 293.913 -1.4083 -4.64103 0
M  V30 3125 H 289.792 -0.18258 -4.60638 0
M  V30 3126 H 293.336 -3.26224 -6.16623 0
M  V30 3127 H 289.233 -2.02817 -6.12809 0
M  V30 3128 H 290.001 -3.76234 -7.26905 0
M  V30 3129 N 292.664 1.56529 -0.183458 0
M  V30 3130 C 293.627 2.17324 0.728223 0
M  V30 3131 C 294.627 1.12453 1.14939 0
M  V30 3132 O 295.817 1.37902 1.06437 0
M  V30 3133 C 292.949 2.76591 1.99274 0
M  V30 3134 H 294.142 2.99241 0.198772 0
M  V30 3135 H 291.695 1.5616 0.0661391 0
M  V30 3136 H 292.43 1.98441 2.56499 0
M  V30 3137 H 292.215 3.5335 1.69959 0
M  V30 3138 H 293.705 3.23311 2.6431 0
M  V30 3139 N 294.142 -0.090211 1.57342 0
M  V30 3140 C 295.388 -0.793982 1.86611 0
M  V30 3141 C 295.721 -1.78142 0.773252 0
M  V30 3142 O 294.996 -1.93271 -0.218304 0
M  V30 3143 C 295.279 -1.51839 3.26523 0
M  V30 3144 C 295.132 -0.548609 4.46442 0
M  V30 3145 C 296.451 -2.46779 3.64401 0
M  V30 3146 H 293.57 -0.287186 0.678744 0
M  V30 3147 H 296.212 -0.0575076 1.89913 0
M  V30 3148 H 294.362 -2.14617 3.23839 0
M  V30 3149 H 296.034 0.0725513 4.61243 0
M  V30 3150 H 294.277 0.137614 4.33582 0
M  V30 3151 H 294.948 -1.09271 5.41076 0
M  V30 3152 H 297.424 -1.94089 3.68061 0
M  V30 3153 H 296.3 -2.94479 4.63221 0
M  V30 3154 H 296.561 -3.30758 2.93346 0
M  V30 3155 N 295.62 -1.53406 -0.361157 0
M  V30 3156 C 296.845 -1.74024 -1.12829 0
M  V30 3157 C 297.27 -0.470069 -1.82132 0
M  V30 3158 O 296.628 0.57619 -1.719 0
M  V30 3159 C 296.676 -2.90903 -2.13091 0
M  V30 3160 O 295.78 -2.59821 -3.20261 0
M  V30 3161 H 295.121 -0.577804 -0.327168 0
M  V30 3162 H 297.651 -2.00307 -0.41693 0
M  V30 3163 H 297.661 -3.17194 -2.56616 0
M  V30 3164 H 296.336 -3.83034 -1.62042 0
M  V30 3165 H 294.913 -2.44362 -2.81677 0
M  V30 3166 N 297.098 0.621204 -1.44841 0
M  V30 3167 C 298.323 1.41244 -1.51871 0
M  V30 3168 C 298.748 1.87519 -0.147764 0
M  V30 3169 O 298.106 1.59334 0.865 0
M  V30 3170 C 298.154 2.60221 -2.49634 0
M  V30 3171 O 297.258 3.60395 -2.00473 0
M  V30 3172 H 296.599 0.42223 -0.512463 0
M  V30 3173 H 299.129 0.757305 -1.90069 0
M  V30 3174 H 299.139 3.0764 -2.67996 0
M  V30 3175 H 297.814 2.25887 -3.4921 0
M  V30 3176 H 296.391 3.19717 -1.91925 0
M  V30 3177 N 298.576 1.31904 0.862503 0
M  V30 3178 C 299.523 1.20182 1.9704 0
M  V30 3179 C 300.493 0.0858247 1.65878 0
M  V30 3180 O 301.678 0.26 1.8902 0
M  V30 3181 C 298.818 0.922797 3.32533 0
M  V30 3182 C 297.931 2.12284 3.76244 0
M  V30 3183 C 297.066 1.77996 5.00491 0
M  V30 3184 C 296.105 2.94366 5.36671 0
M  V30 3185 N 295.242 2.60223 6.52095 0
M  V30 3186 H 300.082 2.14951 2.06398 0
M  V30 3187 H 297.619 1.06917 1.01031 0
M  V30 3188 H 299.577 0.741548 4.10557 0
M  V30 3189 H 298.207 0.0119227 3.22798 0
M  V30 3190 H 297.259 2.41461 2.9394 0
M  V30 3191 H 298.571 2.99357 3.98982 0
M  V30 3192 H 297.725 1.56377 5.862 0
M  V30 3193 H 296.464 0.881252 4.79672 0
M  V30 3194 H 295.469 3.16625 4.49476 0
M  V30 3195 H 296.694 3.84957 5.59451 0
M  V30 3196 H 294.64 1.72884 6.32809 0
M  V30 3197 H 294.557 3.40827 6.74814 0
M  V30 3198 H 295.825 2.42016 7.40978 0
M  V30 3199 N 300.054 -1.07777 1.14986 0
M  V30 3200 C 300.984 -2.16865 0.865557 0
M  V30 3201 C 301.965 -1.69123 -0.182083 0
M  V30 3202 O 303.15 -1.94164 -0.0373815 0
M  V30 3203 C 300.28 -3.45539 0.349313 0
M  V30 3204 C 299.234 -4.06708 1.33313 0
M  V30 3205 C 298.56 -5.30411 0.675918 0
M  V30 3206 C 299.86 -4.47241 2.69764 0
M  V30 3207 H 301.554 -2.40905 1.77778 0
M  V30 3208 H 299.1 -1.15781 0.856203 0
M  V30 3209 H 301.053 -4.21174 0.137983 0
M  V30 3210 H 299.777 -3.21072 -0.598362 0
M  V30 3211 H 298.436 -3.33112 1.53075 0
M  V30 3212 H 298.084 -5.02232 -0.277767 0
M  V30 3213 H 297.784 -5.72293 1.33244 0
M  V30 3214 H 299.308 -6.08755 0.474262 0
M  V30 3215 H 300.722 -5.14025 2.53873 0
M  V30 3216 H 299.119 -5.00062 3.3175 0
M  V30 3217 H 300.189 -3.58818 3.26156 0
M  V30 3218 N 301.532 -0.945985 -1.26051 0
M  V30 3219 C 302.809 -0.513816 -1.88731 0
M  V30 3220 C 303.189 1.00872 -1.8544 0
M  V30 3221 O 302.537 1.8708 -1.312 0
M  V30 3222 C 302.747 -1.08062 -3.31849 0
M  V30 3223 C 304.095 -1.1522 -4.08668 0
M  V30 3224 O 305.119 -1.03155 -3.40936 0
M  V30 3225 O 303.978 -1.34044 -5.29806 0
M  V30 3226 H 301.072 -0.168193 -0.809716 0
M  V30 3227 H 303.618 -1.03886 -1.34186 0
M  V30 3228 H 302.39 -2.1241 -3.2863 0
M  V30 3229 H 302.013 -0.538307 -3.93939 0
M  V30 3230 N 303.011 1.40521 -0.713556 0
M  V30 3231 C 304.258 2.00923 -0.25219 0
M  V30 3232 C 304.586 1.56571 1.15395 0
M  V30 3233 O 303.841 0.775874 1.79663 0
M  V30 3234 C 304.14 3.56317 -0.278 0
M  V30 3235 C 303.806 4.20246 -1.63415 0
M  V30 3236 C 302.468 4.37422 -2.00538 0
M  V30 3237 C 304.82 4.55923 -2.52554 0
M  V30 3238 C 302.148 4.87558 -3.2635 0
M  V30 3239 C 304.5 5.07458 -3.77716 0
M  V30 3240 C 303.164 5.22843 -4.14959 0
M  V30 3241 H 302.434 0.735231 -0.0922829 0
M  V30 3242 H 305.081 1.68161 -0.916188 0
M  V30 3243 H 303.386 3.88976 0.469567 0
M  V30 3244 H 305.083 4.00883 0.0967819 0
M  V30 3245 H 301.673 4.07263 -1.33546 0
M  V30 3246 H 305.857 4.42291 -2.25149 0
M  V30 3247 H 301.113 4.97654 -3.55176 0
M  V30 3248 H 305.287 5.34041 -4.4696 0
M  V30 3249 H 302.914 5.61454 -5.12516 0
M  V30 3250 N 304.489 0.459591 1.5075 0
M  V30 3251 C 305.437 -0.354678 2.2988 0
M  V30 3252 C 306.431 -1.00086 1.36672 0
M  V30 3253 O 307.637 -0.933277 1.53915 0
M  V30 3254 H 304.012 -0.13321 0.740107 0
M  V30 3255 H 305.983 0.333269 2.96533 0
M  V30 3256 C 304.732 -1.43073 3.169 0
M  V30 3257 H 304.055 -0.942882 3.88523 0
M  V30 3258 H 305.495 -1.97328 3.75284 0
M  V30 3259 C 303.954 -2.42633 2.33732 0
M  V30 3260 O 304.484 -3.47658 2.01238 0
M  V30 3261 N 302.69 -2.14066 1.9653 0
M  V30 3262 H 302.237 -1.28685 2.23155 0
M  V30 3263 H 302.195 -2.80917 1.41185 0
M  V30 3264 N 305.967 -1.56429 0.191757 0
M  V30 3265 C 306.9 -2.14829 -0.76967 0
M  V30 3266 C 307.878 -1.08405 -1.2119 0
M  V30 3267 O 309.062 -1.36498 -1.30002 0
M  V30 3268 C 306.189 -2.70446 -2.03903 0
M  V30 3269 C 305.235 -3.89428 -1.7392 0
M  V30 3270 S 306.068 -5.28048 -0.890265 0
M  V30 3271 C 307.224 -5.87085 -2.16984 0
M  V30 3272 H 307.457 -2.96042 -0.273204 0
M  V30 3273 H 304.99 -1.54383 -0.0231975 0
M  V30 3274 H 306.948 -3.03134 -2.76803 0
M  V30 3275 H 305.609 -1.89281 -2.50662 0
M  V30 3276 H 304.802 -4.26742 -2.68155 0
M  V30 3277 H 304.404 -3.57732 -1.09103 0
M  V30 3278 H 306.696 -6.01244 -3.12269 0
M  V30 3279 H 307.639 -6.83747 -1.84108 0
M  V30 3280 H 308.047 -5.15663 -2.29678 0
M  V30 3281 N 307.445 0.0818655 -1.57387 0
M  V30 3282 C 308.673 0.796108 -1.9097 0
M  V30 3283 C 309.088 1.71626 -0.786757 0
M  V30 3284 O 308.445 1.80908 0.240513 0
M  V30 3285 C 308.496 1.59829 -3.24248 0
M  V30 3286 O 308.217 0.715131 -4.32224 0
M  V30 3287 C 309.718 2.41442 -3.7178 0
M  V30 3288 H 306.938 0.22691 -0.631469 0
M  V30 3289 H 309.482 0.0551439 -2.04426 0
M  V30 3290 H 307.637 2.29163 -3.12351 0
M  V30 3291 H 308.051 1.27205 -5.08841 0
M  V30 3292 H 309.525 2.932 -4.67694 0
M  V30 3293 H 310.002 3.2051 -3.00283 0
M  V30 3294 H 310.608 1.77283 -3.86589 0
M  V30 3295 N 308.923 1.53595 0.353017 0
M  V30 3296 C 310.151 1.74311 1.1146 0
M  V30 3297 C 310.566 0.477854 1.82653 0
M  V30 3298 O 309.923 -0.549977 1.74016 0
M  V30 3299 C 309.974 2.91694 2.13534 0
M  V30 3300 O 309.695 4.13325 1.45238 0
M  V30 3301 C 311.196 3.24384 3.02142 0
M  V30 3302 H 308.416 0.582669 0.332773 0
M  V30 3303 H 310.96 2.00386 0.408107 0
M  V30 3304 H 309.115 2.67977 2.79763 0
M  V30 3305 H 309.529 4.79148 2.13349 0
M  V30 3306 H 311.003 4.09893 3.69718 0
M  V30 3307 H 311.48 2.40282 3.67643 0
M  V30 3308 H 312.086 3.50073 2.41514 0
M  V30 3309 N 310.401 -0.613514 1.45168 0
M  V30 3310 C 311.349 -1.74572 1.53712 0
M  V30 3311 C 312.343 -1.64426 0.407505 0
M  V30 3312 O 313.549 -1.70291 0.583176 0
M  V30 3313 H 309.924 -0.576641 0.48269 0
M  V30 3314 H 311.895 -1.64492 2.48968 0
M  V30 3315 C 310.644 -3.12943 1.51532 0
M  V30 3316 H 309.967 -3.21407 2.37776 0
M  V30 3317 H 311.407 -3.9201 1.61569 0
M  V30 3318 C 309.866 -3.36053 0.238798 0
M  V30 3319 O 310.396 -3.95837 -0.6838 0
M  V30 3320 N 308.602 -2.9028 0.136359 0
M  V30 3321 H 308.149 -2.41811 0.887999 0
M  V30 3322 H 308.107 -3.06116 -0.716944 0
M  V30 3323 N 311.879 -1.3236 -0.855495 0
M  V30 3324 C 312.829 -1.17809 -1.95205 0
M  V30 3325 C 313.813 -0.0852319 -1.60674 0
M  V30 3326 O 315.005 -0.311651 -1.74235 0
M  V30 3327 C 312.134 -0.902437 -3.31226 0
M  V30 3328 C 311.22 -2.03695 -3.7198 0
M  V30 3329 N 311.611 -3.28544 -3.84568 0
M  V30 3330 C 309.909 -1.93993 -4.016 0
M  V30 3331 C 310.61 -4.02847 -4.19629 0
M  V30 3332 N 309.586 -3.31138 -4.31102 0
M  V30 3333 H 313.388 -2.12462 -2.0307 0
M  V30 3334 H 310.902 -1.24127 -1.0472 0
M  V30 3335 H 312.899 -0.77915 -4.09554 0
M  V30 3336 H 311.559 0.0357267 -3.2468 0
M  V30 3337 H 312.57 -3.6349 -3.68911 0
M  V30 3338 H 309.247 -1.07733 -4.03361 0
M  V30 3339 H 310.637 -5.10506 -4.36845 0
M  V30 3340 N 313.357 1.07166 -1.15556 0
M  V30 3341 C 314.582 1.84053 -0.955988 0
M  V30 3342 C 315.007 1.81586 0.490739 0
M  V30 3343 O 314.365 1.21018 1.34997 0
M  V30 3344 C 314.413 3.28957 -1.47714 0
M  V30 3345 O 313.517 4.06795 -0.677593 0
M  V30 3346 H 312.858 0.569842 -0.340847 0
M  V30 3347 H 315.388 1.35178 -1.53584 0
M  V30 3348 H 315.398 3.79788 -1.4908 0
M  V30 3349 H 314.073 3.30068 -2.53037 0
M  V30 3350 H 312.65 3.6561 -0.733721 0
M  V30 3351 N 314.835 0.952656 1.25548 0
M  V30 3352 C 316.082 0.606373 1.93208 0
M  V30 3353 C 316.41 -0.85631 1.74636 0
M  V30 3354 O 315.665 -1.62951 1.08376 0
M  V30 3355 C 315.964 0.908818 3.45652 0
M  V30 3356 C 315.63 2.35722 3.84378 0
M  V30 3357 C 314.292 2.75312 3.9466 0
M  V30 3358 C 316.644 3.29793 4.03591 0
M  V30 3359 C 313.972 4.08047 4.21562 0
M  V30 3360 C 316.324 4.62138 4.31985 0
M  V30 3361 C 314.988 5.01528 4.40484 0
M  V30 3362 H 314.258 0.221888 0.706998 0
M  V30 3363 H 316.905 1.20132 1.49133 0
M  V30 3364 H 315.21 0.231456 3.91116 0
M  V30 3365 H 316.907 0.619498 3.96186 0
M  V30 3366 H 313.497 2.04017 3.76928 0
M  V30 3367 H 317.681 3.00397 3.95064 0
M  V30 3368 H 312.937 4.38212 4.26357 0
M  V30 3369 H 317.111 5.35012 4.45797 0
M  V30 3370 H 314.738 6.04406 4.61083 0
M  V30 3371 N 316.313 -1.40141 0.720998 0
M  V30 3372 C 317.246 -2.2819 0.020916 0
M  V30 3373 C 318.224 -1.43633 -0.762129 0
M  V30 3374 O 319.408 -1.7304 -0.747633 0
M  V30 3375 C 316.535 -3.24281 -0.977715 0
M  V30 3376 C 315.581 -4.25548 -0.284836 0
M  V30 3377 S 316.414 -5.26247 0.991169 0
M  V30 3378 C 317.57 -6.259 -0.0052214 0
M  V30 3379 H 317.803 -2.87218 0.767649 0
M  V30 3380 H 315.336 -1.45656 0.512233 0
M  V30 3381 H 317.294 -3.80167 -1.54865 0
M  V30 3382 H 315.955 -2.643 -1.69719 0
M  V30 3383 H 315.148 -4.93154 -1.03996 0
M  V30 3384 H 314.75 -3.73389 0.213684 0
M  V30 3385 H 317.042 -6.72143 -0.850279 0
M  V30 3386 H 317.985 -7.05224 0.637599 0
M  V30 3387 H 318.393 -5.63277 -0.371366 0
M  V30 3388 N 317.792 -0.46758 -1.50504 0
M  V30 3389 C 319.032 0.0874114 -2.04213 0
M  V30 3390 C 319.396 1.37301 -1.34211 0
M  V30 3391 O 320.597 2.01015 -1.78456 0
M  V30 3392 C 318.868 0.270571 -3.56374 0
M  V30 3393 S 320.427 0.784623 -4.31728 0
M  V30 3394 H 317.245 0.0176153 -0.710782 0
M  V30 3395 H 319.847 -0.633915 -1.84937 0
M  V30 3396 H 318.551 -0.670942 -4.04878 0
M  V30 3397 H 318.082 1.01811 -3.79997 0
M  V30 3398 H 320.097 2.05849 -4.51487 0
M  V30 3399 N 319.27 1.56325 -0.20005 0
M  V30 3400 C 320.2 2.22318 0.713916 0
M  V30 3401 C 321.181 1.18788 1.21752 0
M  V30 3402 O 322.366 1.47309 1.26545 0
M  V30 3403 C 319.496 2.88639 1.93144 0
M  V30 3404 C 318.45 3.98457 1.56255 0
M  V30 3405 C 317.776 4.51967 2.85709 0
M  V30 3406 C 319.076 5.16612 0.768747 0
M  V30 3407 H 320.77 2.98952 0.163755 0
M  V30 3408 H 318.316 1.43792 0.0773219 0
M  V30 3409 H 320.269 3.33491 2.57608 0
M  V30 3410 H 318.993 2.09419 2.50621 0
M  V30 3411 H 317.652 3.54305 0.941471 0
M  V30 3412 H 317.3 3.69503 3.41287 0
M  V30 3413 H 317 5.26071 2.6177 0
M  V30 3414 H 318.524 4.99523 3.51154 0
M  V30 3415 H 319.938 5.57977 1.3166 0
M  V30 3416 H 318.335 5.96812 0.627286 0
M  V30 3417 H 319.405 4.84358 -0.229168 0
M  V30 3418 N 320.748 -0.0735177 1.57428 0
M  V30 3419 C 321.997 -0.771809 1.86349 0
M  V30 3420 C 322.31 -1.78828 0.792452 0
M  V30 3421 O 323.516 -2.53602 0.96945 0
M  V30 3422 C 321.972 -1.42358 3.30548 0
M  V30 3423 C 321.58 -0.445761 4.45777 0
M  V30 3424 C 323.324 -2.10434 3.6867 0
M  V30 3425 C 321.231 -1.10335 5.81016 0
M  V30 3426 H 320.161 -0.291999 0.695164 0
M  V30 3427 H 322.812 -0.0250749 1.83483 0
M  V30 3428 H 321.194 -2.21852 3.28021 0
M  V30 3429 H 322.368 0.319239 4.59693 0
M  V30 3430 H 320.683 0.130457 4.16196 0
M  V30 3431 H 323.28 -2.60405 4.67004 0
M  V30 3432 H 323.623 -2.90298 2.98383 0
M  V30 3433 H 324.156 -1.37773 3.7318 0
M  V30 3434 H 320.895 -0.345061 6.54591 0
M  V30 3435 H 320.415 -1.83925 5.70904 0
M  V30 3436 H 322.094 -1.62367 6.26295 0
M  V30 3437 N 322.226 -1.5378 -0.344866 0
M  V30 3438 C 323.173 -1.81676 -1.42346 0
M  V30 3439 C 324.143 -0.662376 -1.52321 0
M  V30 3440 O 325.328 -0.906675 -1.67881 0
M  V30 3441 C 322.468 -2.03087 -2.79015 0
M  V30 3442 C 321.581 -3.30799 -2.77842 0
M  V30 3443 C 320.716 -3.42285 -4.0622 0
M  V30 3444 C 319.755 -4.6395 -3.9927 0
M  V30 3445 N 318.892 -4.72477 -5.19336 0
M  V30 3446 H 323.732 -2.73703 -1.17858 0
M  V30 3447 H 321.269 -1.35568 -0.570949 0
M  V30 3448 H 323.227 -2.1349 -3.58438 0
M  V30 3449 H 321.857 -1.14375 -3.01858 0
M  V30 3450 H 320.909 -3.29244 -1.90533 0
M  V30 3451 H 322.221 -4.20314 -2.68584 0
M  V30 3452 H 321.375 -3.52113 -4.94066 0
M  V30 3453 H 320.114 -2.50823 -4.18258 0
M  V30 3454 H 319.119 -4.54201 -3.09809 0
M  V30 3455 H 320.344 -5.56775 -3.88817 0
M  V30 3456 H 318.29 -3.83924 -5.3192 0
M  V30 3457 H 318.207 -5.55927 -5.12329 0
M  V30 3458 H 319.475 -4.86613 -6.08957 0
M  V30 3459 N 323.704 0.605807 -1.45491 0
M  V30 3460 C 324.934 1.38934 -1.52908 0
M  V30 3461 C 325.342 1.88513 -0.161086 0
M  V30 3462 O 324.685 1.62962 0.847891 0
M  V30 3463 C 324.747 2.62737 -2.45376 0
M  V30 3464 C 324.411 2.34785 -3.92078 0
M  V30 3465 C 325.408 1.95038 -4.8193 0
M  V30 3466 C 323.093 2.47642 -4.37011 0
M  V30 3467 C 325.087 1.68511 -6.14722 0
M  V30 3468 C 322.774 2.20728 -5.69844 0
M  V30 3469 C 323.772 1.81225 -6.58519 0
M  V30 3470 O 323.46 1.54627 -7.88889 0
M  V30 3471 H 323.192 0.431629 -0.520262 0
M  V30 3472 H 325.746 0.74573 -1.91384 0
M  V30 3473 H 323.976 3.29824 -2.01874 0
M  V30 3474 H 325.665 3.24783 -2.43456 0
M  V30 3475 H 326.431 1.84639 -4.48479 0
M  V30 3476 H 322.31 2.77356 -3.68232 0
M  V30 3477 H 325.854 1.37602 -6.83894 0
M  V30 3478 H 321.751 2.30744 -6.02849 0
M  V30 3479 H 322.519 1.68665 -8.00933 0
M  V30 3480 N 325.182 1.32811 0.848464 0
M  V30 3481 C 326.43 1.23479 1.59991 0
M  V30 3482 C 326.751 -0.201853 1.93952 0
M  V30 3483 O 326.021 -1.12818 1.60153 0
M  V30 3484 H 324.601 0.454034 0.593179 0
M  V30 3485 H 327.263 1.66412 1.01455 0
M  V30 3486 H 326.359 1.82178 2.53412 0
M  V30 3487 N 326.66 -1.06551 1.16123 0
M  V30 3488 C 327.61 -2.12209 0.833736 0
M  V30 3489 C 328.594 -1.59825 -0.185656 0
M  V30 3490 O 329.786 -1.76994 0.0147906 0
M  V30 3491 C 326.915 -3.41674 0.333697 0
M  V30 3492 C 326.001 -4.00892 1.38372 0
M  V30 3493 N 326.392 -4.34256 2.59337 0
M  V30 3494 C 324.69 -4.28463 1.23836 0
M  V30 3495 C 325.391 -4.81291 3.26701 0
M  V30 3496 N 324.367 -4.80565 2.54083 0
M  V30 3497 H 328.169 -2.35849 1.75364 0
M  V30 3498 H 325.683 -1.24068 1.04789 0
M  V30 3499 H 327.68 -4.16822 0.0806918 0
M  V30 3500 H 326.34 -3.19475 -0.58017 0
M  V30 3501 H 327.351 -4.24687 2.96415 0
M  V30 3502 H 324.028 -4.15721 0.38504 0
M  V30 3503 H 325.418 -5.16332 4.29943 0
M  V30 3504 N 328.138 -0.959301 -1.25041 0
M  V30 3505 C 329.068 -0.501388 -2.28053 0
M  V30 3506 C 330.049 0.454673 -1.63911 0
M  V30 3507 O 331.234 0.352618 -1.90972 0
M  V30 3508 C 328.364 0.217224 -3.4662 0
M  V30 3509 C 327.318 -0.654034 -4.22973 0
M  V30 3510 C 326.644 0.195589 -5.34342 0
M  V30 3511 C 327.944 -1.93447 -4.85155 0
M  V30 3512 H 329.638 -1.36238 -2.66608 0
M  V30 3513 H 327.184 -0.656534 -1.28163 0
M  V30 3514 H 329.137 0.548732 -4.17812 0
M  V30 3515 H 327.861 1.1125 -3.07068 0
M  V30 3516 H 326.52 -0.968693 -3.5357 0
M  V30 3517 H 326.168 1.09076 -4.91031 0
M  V30 3518 H 325.868 -0.384091 -5.86343 0
M  V30 3519 H 327.392 0.521958 -6.08365 0
M  V30 3520 H 328.806 -1.66908 -5.48466 0
M  V30 3521 H 327.203 -2.46018 -5.47353 0
M  V30 3522 H 328.273 -2.63466 -4.07079 0
M  V30 3523 N 329.616 1.39756 -0.72842 0
M  V30 3524 C 331.032 1.5442 -0.403308 0
M  V30 3525 C 331.232 1.69694 1.08656 0
M  V30 3526 O 330.288 1.69373 1.87267 0
M  V30 3527 C 331.601 2.76555 -1.18058 0
M  V30 3528 C 333.149 2.90384 -1.16815 0
M  V30 3529 C 333.624 4.15449 -1.92785 0
M  V30 3530 N 335.115 4.22475 -1.89918 0
M  V30 3531 C 335.85 5.1818 -2.45514 0
M  V30 3532 N 335.346 6.19714 -3.09719 0
M  V30 3533 N 337.139 5.1035 -2.35584 0
M  V30 3534 H 329.29 1.28089 -1.69431 0
M  V30 3535 H 331.553 0.620327 -0.716867 0
M  V30 3536 H 331.259 2.7159 -2.23455 0
M  V30 3537 H 331.133 3.69033 -0.780662 0
M  V30 3538 H 333.52 2.94846 -0.12234 0
M  V30 3539 H 333.601 1.98988 -1.6074 0
M  V30 3540 H 333.245 4.11749 -2.97364 0
M  V30 3541 H 333.175 5.05877 -1.46272 0
M  V30 3542 H 335.666 3.49743 -1.43138 0
M  V30 3543 H 335.979 6.8919 -3.49625 0
M  V30 3544 H 334.324 6.20121 -3.13807 0
M  V30 3545 H 337.515 4.2996 -1.85072 0
M  V30 3546 H 337.688 5.84761 -2.79211 0
M  V30 3547 N 331.094 0.475555 1.50254 0
M  V30 3548 C 332.34 -0.0780073 2.0265 0
M  V30 3549 C 332.673 -1.38968 1.35652 0
M  V30 3550 O 331.948 -1.8839 0.483691 0
M  V30 3551 C 332.231 -0.257161 3.59181 0
M  V30 3552 C 332.084 1.07585 4.36744 0
M  V30 3553 C 333.403 -1.00965 4.28362 0
M  V30 3554 H 330.522 -0.0268758 0.73651 0
M  V30 3555 H 333.164 0.622015 1.7953 0
M  V30 3556 H 331.314 -0.853412 3.79011 0
M  V30 3557 H 332.986 1.70902 4.28474 0
M  V30 3558 H 331.229 1.6714 4.00308 0
M  V30 3559 H 331.9 0.904088 5.44546 0
M  V30 3560 H 334.376 -0.504214 4.13034 0
M  V30 3561 H 333.252 -1.10381 5.37687 0
M  V30 3562 H 333.513 -2.04731 3.91839 0
M  V30 3563 N 332.573 -1.56217 0.208337 0
M  V30 3564 C 333.521 -2.21053 -0.723769 0
M  V30 3565 C 334.515 -1.18578 -1.20978 0
M  V30 3566 O 335.721 -1.36691 -1.17114 0
M  V30 3567 H 332.096 -0.708595 -0.251788 0
M  V30 3568 H 334.067 -2.98006 -0.153365 0
M  V30 3569 C 332.816 -2.89417 -1.927 0
M  V30 3570 H 332.139 -3.68019 -1.56212 0
M  V30 3571 H 333.579 -3.38201 -2.55727 0
M  V30 3572 C 332.038 -1.91166 -2.77411 0
M  V30 3573 O 332.568 -1.42026 -3.75754 0
M  V30 3574 N 330.774 -1.59105 -2.43175 0
M  V30 3575 H 330.321 -1.99259 -1.63259 0
M  V30 3576 H 330.279 -0.936255 -3.00136 0
M  V30 3577 N 334.051 0.0651679 -1.57465 0
M  V30 3578 C 334.983 1.10359 -2.00882 0
M  V30 3579 C 335.996 1.346 -0.915788 0
M  V30 3580 O 337.185 1.32723 -1.1936 0
M  V30 3581 C 334.285 2.45312 -2.33828 0
M  V30 3582 C 333.458 2.40934 -3.65061 0
M  V30 3583 C 332.517 3.58047 -3.85602 0
M  V30 3584 O 331.543 3.39175 -4.57109 0
M  V30 3585 N 332.745 4.78637 -3.28462 0
M  V30 3586 H 335.51 0.733807 -2.90578 0
M  V30 3587 H 333.071 0.253719 -1.599 0
M  V30 3588 H 335.063 3.22314 -2.44737 0
M  V30 3589 H 333.633 2.74267 -1.49988 0
M  V30 3590 H 332.853 1.49273 -3.64844 0
M  V30 3591 H 334.141 2.35117 -4.51218 0
M  V30 3592 H 333.539 4.96872 -2.70433 0
M  V30 3593 H 332.096 5.53127 -3.44809 0
M  V30 3594 N 335.529 1.53961 0.336706 0
M  V30 3595 C 336.757 1.75483 1.09605 0
M  V30 3596 C 337.172 0.4972 1.82136 0
M  V30 3597 O 336.529 -0.53149 1.74589 0
M  V30 3598 C 336.58 2.93943 2.10428 0
M  V30 3599 O 336.301 4.14842 1.40846 0
M  V30 3600 C 337.802 3.27571 2.98684 0
M  V30 3601 H 335.022 0.586166 0.326574 0
M  V30 3602 H 337.566 2.00808 0.38683 0
M  V30 3603 H 335.721 2.70929 2.76905 0
M  V30 3604 H 336.135 4.81383 2.08255 0
M  V30 3605 H 337.609 4.13791 3.6535 0
M  V30 3606 H 338.086 2.44168 3.65074 0
M  V30 3607 H 338.692 3.52615 2.37787 0
M  V30 3608 N 337.007 -0.598083 1.45811 0
M  V30 3609 C 338.254 -1.35681 1.50323 0
M  V30 3610 C 338.582 -1.9393 0.148739 0
M  V30 3611 O 337.837 -1.76094 -0.853787 0
M  V30 3612 C 338.136 -2.51669 2.53766 0
M  V30 3613 C 337.802 -2.11508 3.98215 0
M  V30 3614 C 336.464 -2.0027 4.37545 0
M  V30 3615 C 338.816 -1.80308 4.89018 0
M  V30 3616 C 336.144 -1.56067 5.65562 0
M  V30 3617 C 338.496 -1.37589 6.17456 0
M  V30 3618 C 337.16 -1.24916 6.55708 0
M  V30 3619 H 336.43 -0.496492 0.550069 0
M  V30 3620 H 339.077 -0.675052 1.79207 0
M  V30 3621 H 337.382 -3.25225 2.18486 0
M  V30 3622 H 339.079 -3.09895 2.54492 0
M  V30 3623 H 335.669 -2.21185 3.67117 0
M  V30 3624 H 339.853 -1.87884 4.59362 0
M  V30 3625 H 335.109 -1.44886 5.93985 0
M  V30 3626 H 339.283 -1.12495 6.87254 0
M  V30 3627 H 336.91 -0.904386 7.54801 0
M  V30 3628 N 338.485 -1.33259 -0.841409 0
M  V30 3629 C 339.433 -1.23279 -1.97244 0
M  V30 3630 C 340.427 -0.134706 -1.68864 0
M  V30 3631 O 341.633 -0.298501 -1.77508 0
M  V30 3632 H 338.008 -0.382497 -0.647457 0
M  V30 3633 H 339.979 -2.18906 -2.02787 0
M  V30 3634 C 338.728 -0.986268 -3.33419 0
M  V30 3635 H 338.051 -1.82347 -3.55794 0
M  V30 3636 H 339.491 -0.956728 -4.13065 0
M  V30 3637 C 337.95 0.310842 -3.35463 0
M  V30 3638 O 338.48 1.31838 -3.79449 0
M  V30 3639 N 336.686 0.337485 -2.88634 0
M  V30 3640 H 336.233 -0.482967 -2.53032 0
M  V30 3641 H 336.191 1.20518 -2.90384 0
M  V30 3642 N 339.963 1.05934 -1.16686 0
M  V30 3643 C 341.209 1.79211 -0.962023 0
M  V30 3644 C 341.564 1.85667 0.504545 0
M  V30 3645 O 340.857 1.33991 1.36956 0
M  V30 3646 C 341.051 3.23105 -1.52767 0
M  V30 3647 C 340.88 3.30673 -3.04771 0
M  V30 3648 C 339.65 3.40395 -3.73442 0
M  V30 3649 C 341.848 3.20234 -4.02436 0
M  V30 3650 N 339.83 3.37015 -5.13122 0
M  V30 3651 C 341.201 3.24138 -5.28521 0
M  V30 3652 C 343.256 3.04143 -3.9421 0
M  V30 3653 C 341.959 3.13607 -6.47336 0
M  V30 3654 C 343.985 2.94951 -5.12599 0
M  V30 3655 C 343.347 2.99481 -6.37566 0
M  V30 3656 H 339.446 0.668442 -0.405844 0
M  V30 3657 H 342.03 1.26341 -1.48142 0
M  V30 3658 H 340.201 3.74364 -1.03471 0
M  V30 3659 H 341.933 3.84579 -1.26021 0
M  V30 3660 H 338.688 3.45344 -3.2409 0
M  V30 3661 H 339.112 3.38815 -5.86117 0
M  V30 3662 H 343.754 2.99484 -2.98445 0
M  V30 3663 H 341.472 3.17022 -7.43319 0
M  V30 3664 H 345.058 2.83583 -5.08008 0
M  V30 3665 H 343.938 2.92431 -7.27636 0
M  V30 3666 N 341.441 0.965919 1.2453 0
M  V30 3667 C 342.389 0.486506 2.27455 0
M  V30 3668 C 343.383 -0.449041 1.6334 0
M  V30 3669 O 344.589 -0.324527 1.7705 0
M  V30 3670 H 340.964 0.138857 0.739069 0
M  V30 3671 H 342.935 1.3666 2.65267 0
M  V30 3672 C 341.684 -0.209481 3.47068 0
M  V30 3673 H 341.007 0.50129 3.96645 0
M  V30 3674 H 342.447 -0.508775 4.20936 0
M  V30 3675 C 340.906 -1.43586 3.0477 0
M  V30 3676 O 341.436 -2.53299 3.11773 0
M  V30 3677 N 339.642 -1.30126 2.59838 0
M  V30 3678 H 339.189 -0.408583 2.54339 0
M  V30 3679 H 339.147 -2.12294 2.31902 0
M  V30 3680 N 342.919 -1.39368 0.735821 0
M  V30 3681 C 344.147 -2.04795 0.294393 0
M  V30 3682 C 344.562 -1.55478 -1.07107 0
M  V30 3683 O 343.919 -0.720038 -1.67695 0
M  V30 3684 C 343.97 -3.6035 0.288071 0
M  V30 3685 O 343.691 -4.07852 1.59963 0
M  V30 3686 C 345.192 -4.42976 -0.169422 0
M  V30 3687 H 342.412 -0.658571 0.128551 0
M  V30 3688 H 344.956 -1.78399 0.999701 0
M  V30 3689 H 343.111 -3.85645 -0.368355 0
M  V30 3690 H 343.525 -5.02181 1.51375 0
M  V30 3691 H 344.999 -5.51864 -0.122687 0
M  V30 3692 H 345.476 -4.22068 -1.21472 0
M  V30 3693 H 346.082 -4.22832 0.457469 0
M  V30 3694 N 344.397 -0.483516 -1.5 0
M  V30 3695 C 345.625 0.0644831 -2.06799 0
M  V30 3696 C 346.04 1.32399 -1.34596 0
M  V30 3697 O 345.397 1.77626 -0.418946 0
M  V30 3698 C 345.448 0.339927 -3.59898 0
M  V30 3699 O 345.169 -0.869635 -4.29382 0
M  V30 3700 C 346.67 0.933515 -4.33359 0
M  V30 3701 H 343.89 -0.0126333 -0.670881 0
M  V30 3702 H 346.434 -0.675864 -1.93009 0
M  V30 3703 H 344.589 1.03022 -3.7345 0
M  V30 3704 H 345.003 -0.62179 -5.20801 0
M  V30 3705 H 346.477 1.07593 -5.41413 0
M  V30 3706 H 346.954 1.92685 -3.94676 0
M  V30 3707 H 347.56 0.281221 -4.24369 0
M  V30 3708 N 345.875 1.56104 -0.216619 0
M  V30 3709 C 346.822 2.2007 0.695531 0
M  V30 3710 C 347.792 1.15471 1.19397 0
M  V30 3711 O 348.977 1.43807 1.25396 0
M  V30 3712 C 346.117 2.88073 1.90021 0
M  V30 3713 C 345.23 4.07253 1.44113 0
M  V30 3714 C 344.365 4.63052 2.603 0
M  V30 3715 C 343.404 5.74545 2.11103 0
M  V30 3716 N 342.541 6.24656 3.20545 0
M  V30 3717 H 347.381 2.97655 0.143327 0
M  V30 3718 H 344.918 1.46982 0.0589934 0
M  V30 3719 H 346.876 3.25681 2.60745 0
M  V30 3720 H 345.506 2.13015 2.42538 0
M  V30 3721 H 344.558 3.75164 0.628999 0
M  V30 3722 H 345.87 4.8783 1.04036 0
M  V30 3723 H 345.024 5.03078 3.39113 0
M  V30 3724 H 343.763 3.81628 3.03663 0
M  V30 3725 H 342.768 5.34027 1.3075 0
M  V30 3726 H 343.993 6.57801 1.68746 0
M  V30 3727 H 341.939 5.46148 3.63399 0
M  V30 3728 H 341.856 7.00343 2.84704 0
M  V30 3729 H 343.124 6.69338 3.99508 0
M  V30 3730 N 347.353 -0.0568162 1.57498 0
M  V30 3731 C 348.285 -1.09292 2.01464 0
M  V30 3732 C 349.298 -1.34112 0.922913 0
M  V30 3733 O 350.487 -1.32089 1.20062 0
M  V30 3734 C 347.587 -2.44068 2.35125 0
M  V30 3735 C 346.76 -2.38995 3.66333 0
M  V30 3736 C 345.819 -3.55997 3.87495 0
M  V30 3737 O 344.845 -3.36746 4.58901 0
M  V30 3738 N 346.047 -4.76888 3.30996 0
M  V30 3739 H 348.812 -0.718386 2.90963 0
M  V30 3740 H 346.373 -0.245235 1.60032 0
M  V30 3741 H 348.365 -3.21011 2.46443 0
M  V30 3742 H 346.935 -2.73468 1.5144 0
M  V30 3743 H 346.155 -1.47336 3.65631 0
M  V30 3744 H 347.443 -2.3272 4.52458 0
M  V30 3745 H 346.841 -4.95431 2.73065 0
M  V30 3746 H 345.398 -5.51291 3.47738 0
M  V30 3747 N 348.832 -1.54138 -0.328536 0
M  V30 3748 C 349.742 -1.86192 -1.42723 0
M  V30 3749 C 350.758 -0.753382 -1.56844 0
M  V30 3750 O 351.934 -1.04718 -1.72035 0
M  V30 3751 C 348.999 -2.07824 -2.77507 0
M  V30 3752 C 348.06 -3.31641 -2.72603 0
M  V30 3753 C 347.293 -3.52232 -4.00959 0
M  V30 3754 O 347.516 -2.7636 -4.9898 0
M  V30 3755 O 346.45 -4.45699 -4.0452 0
M  V30 3756 H 350.276 -2.79608 -1.18547 0
M  V30 3757 H 347.861 -1.3998 -0.522104 0
M  V30 3758 H 349.743 -2.23411 -3.57303 0
M  V30 3759 H 348.418 -1.17596 -3.01584 0
M  V30 3760 H 347.325 -3.21444 -1.91376 0
M  V30 3761 H 348.658 -4.2191 -2.53481 0
M  V30 3762 N 350.31 0.590341 -1.46126 0
M  V30 3763 C 351.26 1.69466 -1.5253 0
M  V30 3764 C 352.244 1.56179 -0.386917 0
M  V30 3765 O 353.436 1.65223 -0.634858 0
M  V30 3766 C 350.565 3.08245 -1.5113 0
M  V30 3767 C 349.651 3.26856 -2.70233 0
M  V30 3768 N 350.042 3.15657 -3.95214 0
M  V30 3769 C 348.34 3.57775 -2.66296 0
M  V30 3770 C 349.041 3.36066 -4.74799 0
M  V30 3771 N 348.017 3.60865 -4.06543 0
M  V30 3772 H 351.819 1.59326 -2.46966 0
M  V30 3773 H 349.333 0.79414 -1.41659 0
M  V30 3774 H 351.33 3.87492 -1.53804 0
M  V30 3775 H 349.99 3.19521 -0.577636 0
M  V30 3776 H 351.001 2.93686 -4.26578 0
M  V30 3777 H 347.678 3.75782 -1.81918 0
M  V30 3778 H 349.068 3.32655 -5.83772 0
M  V30 3779 N 351.788 1.33704 0.83433 0
M  V30 3780 C 353.035 1.25417 1.58987 0
M  V30 3781 C 353.363 -0.178869 1.93676 0
M  V30 3782 O 352.618 -1.13723 1.59265 0
M  V30 3783 C 352.917 2.07926 2.90692 0
M  V30 3784 C 352.583 3.57066 2.75345 0
M  V30 3785 C 351.245 3.97724 2.70867 0
M  V30 3786 C 353.597 4.51817 2.59828 0
M  V30 3787 C 350.925 5.31344 2.48778 0
M  V30 3788 C 353.277 5.85604 2.39272 0
M  V30 3789 C 351.941 6.25439 2.33199 0
M  V30 3790 H 351.211 0.458934 0.581774 0
M  V30 3791 H 353.858 1.65335 0.966261 0
M  V30 3792 H 352.163 1.608 3.57282 0
M  V30 3793 H 353.86 1.98868 3.48213 0
M  V30 3794 H 350.45 3.24785 2.79665 0
M  V30 3795 H 354.634 4.21311 2.62319 0
M  V30 3796 H 349.89 5.61241 2.42526 0
M  V30 3797 H 354.064 6.58623 2.2625 0
M  V30 3798 H 351.691 7.28914 2.15843 0
M  V30 3799 N 353.266 -1.05314 1.17247 0
M  V30 3800 C 354.677 -1.59753 0.96623 0
M  V30 3801 C 355.028 -1.9005 -0.487378 0
M  V30 3802 O 354.153 -1.68126 -1.36245 0
M  V30 3803 C 354.748 -2.90249 1.74759 0
M  V30 3804 C 353.307 -3.41352 1.58606 0
M  V30 3805 C 352.454 -2.15103 1.75002 0
M  V30 3806 H 355.405 -0.881406 1.31973 0
M  V30 3807 H 355.426 -3.60097 1.22925 0
M  V30 3808 H 354.938 -2.68166 2.8055 0
M  V30 3809 H 353.039 -3.68474 0.552985 0
M  V30 3810 H 353.152 -4.16019 2.37624 0
M  V30 3811 H 351.516 -2.25804 1.17833 0
M  V30 3812 H 352.299 -1.95491 2.82202 0
M  V30 3813 N 354.744 -0.972509 -1.24016 0
M  V30 3814 C 356.021 -0.553733 -1.87598 0
M  V30 3815 C 356.401 0.969158 -1.87538 0
M  V30 3816 O 355.749 1.84255 -1.35139 0
M  V30 3817 C 355.959 -1.15076 -3.29482 0
M  V30 3818 C 357.307 -1.23862 -4.06132 0
M  V30 3819 O 358.331 -1.10363 -3.38672 0
M  V30 3820 O 357.19 -1.45252 -5.26844 0
M  V30 3821 H 354.284 -0.185331 -0.805966 0
M  V30 3822 H 356.83 -1.06709 -1.31952 0
M  V30 3823 H 355.602 -2.19333 -3.2405 0
M  V30 3824 H 355.225 -0.621746 -3.92709 0
M  V30 3825 N 356.222 1.38976 -0.743202 0
M  V30 3826 C 357.17 2.32394 -0.0978389 0
M  V30 3827 C 358.164 1.53486 0.716824 0
M  V30 3828 O 359.37 1.69092 0.617088 0
M  V30 3829 H 355.745 0.75189 -0.0128402 0
M  V30 3830 H 357.716 2.84441 -0.901981 0
M  V30 3831 C 356.465 3.38629 0.789036 0
M  V30 3832 H 355.788 3.99432 0.171559 0
M  V30 3833 H 357.228 4.06426 1.20807 0
M  V30 3834 C 355.687 2.76347 1.92702 0
M  V30 3835 O 356.217 2.64836 3.02034 0
M  V30 3836 N 354.423 2.34311 1.71891 0
M  V30 3837 H 353.97 2.43873 0.829675 0
M  V30 3838 H 353.928 1.9298 2.48205 0
M  V30 3839 N 357.7 0.491464 1.49741 0
M  V30 3840 C 358.63 -0.28154 2.31796 0
M  V30 3841 C 359.611 -0.971473 1.3963 0
M  V30 3842 O 360.796 -0.964719 1.68543 0
M  V30 3843 C 357.926 -1.35203 3.19902 0
M  V30 3844 C 356.88 -0.782529 4.20786 0
M  V30 3845 C 356.206 -1.95283 4.97764 0
M  V30 3846 C 357.506 0.21999 5.21837 0
M  V30 3847 H 359.2 0.403355 2.96671 0
M  V30 3848 H 356.746 0.195425 1.42668 0
M  V30 3849 H 358.699 -1.90045 3.76113 0
M  V30 3850 H 357.423 -2.06598 2.52953 0
M  V30 3851 H 356.082 -0.255928 3.65706 0
M  V30 3852 H 355.73 -2.65423 4.2727 0
M  V30 3853 H 355.43 -1.57789 5.66018 0
M  V30 3854 H 356.954 -2.50577 5.56816 0
M  V30 3855 H 358.368 -0.23996 5.72798 0
M  V30 3856 H 356.765 0.51026 5.97927 0
M  V30 3857 H 357.835 1.13911 4.7133 0
M  V30 3858 N 359.178 -1.55987 0.224894 0
M  V30 3859 C 360.108 -2.23426 -0.678457 0
M  V30 3860 C 361.089 -1.20709 -1.19847 0
M  V30 3861 O 362.274 -1.49304 -1.24186 0
M  V30 3862 C 359.404 -2.91676 -1.88527 0
M  V30 3863 C 358.358 -4.00893 -1.49896 0
M  V30 3864 C 357.684 -4.56455 -2.78483 0
M  V30 3865 C 358.984 -5.17769 -0.686461 0
M  V30 3866 H 360.678 -2.99175 -0.116173 0
M  V30 3867 H 358.224 -1.43897 -0.054436 0
M  V30 3868 H 360.177 -3.37547 -2.5227 0
M  V30 3869 H 358.901 -2.1338 -2.47258 0
M  V30 3870 H 357.56 -3.55758 -0.884985 0
M  V30 3871 H 357.208 -3.74886 -3.35365 0
M  V30 3872 H 356.908 -5.30169 -2.53368 0
M  V30 3873 H 358.432 -5.05047 -3.43162 0
M  V30 3874 H 359.846 -5.60001 -1.22767 0
M  V30 3875 H 358.243 -5.97735 -0.532259 0
M  V30 3876 H 359.313 -4.83932 0.306196 0
M  V30 3877 N 360.656 0.0484629 -1.57525 0
M  V30 3878 C 362.067 0.597486 -1.76881 0
M  V30 3879 C 362.418 1.76664 -0.853475 0
M  V30 3880 O 361.543 2.16357 -0.0433656 0
M  V30 3881 C 362.138 1.09066 -3.20765 0
M  V30 3882 C 360.697 1.58535 -3.41385 0
M  V30 3883 C 359.844 0.514868 -2.72478 0
M  V30 3884 H 362.795 -0.177758 -1.57701 0
M  V30 3885 H 362.816 1.95875 -3.2621 0
M  V30 3886 H 362.328 0.239521 -3.8736 0
M  V30 3887 H 360.429 2.45898 -2.79937 0
M  V30 3888 H 360.542 1.64622 -4.49929 0
M  V30 3889 H 358.906 0.965407 -2.35695 0
M  V30 3890 H 359.689 -0.32648 -3.41744 0
M  V30 3891 N 362.134 1.5431 0.320358 0
M  V30 3892 C 363.359 1.76954 1.08175 0
M  V30 3893 C 363.784 0.518193 1.80821 0
M  V30 3894 O 363.142 -0.530411 1.73368 0
M  V30 3895 C 363.19 2.96451 2.05303 0
M  V30 3896 O 362.294 2.68221 3.13259 0
M  V30 3897 H 361.635 0.586275 0.311733 0
M  V30 3898 H 364.165 2.01342 0.363676 0
M  V30 3899 H 364.175 3.23887 2.48116 0
M  V30 3900 H 362.85 3.87196 1.51829 0
M  V30 3901 H 361.427 2.51744 2.75099 0
M  V30 3902 N 363.613 -0.582584 1.46437 0
M  V30 3903 C 364.859 -1.34064 1.52965 0
M  V30 3904 C 365.214 -1.91566 0.178968 0
M  V30 3905 O 364.507 -1.73526 -0.812365 0
M  V30 3906 C 364.701 -2.48964 2.56421 0
M  V30 3907 C 364.53 -2.02717 4.01417 0
M  V30 3908 C 363.3 -1.87728 4.69134 0
M  V30 3909 C 365.498 -1.58675 4.8921 0
M  V30 3910 N 363.48 -1.35554 5.98747 0
M  V30 3911 C 364.851 -1.18093 6.08649 0
M  V30 3912 C 366.906 -1.46494 4.75861 0
M  V30 3913 C 365.609 -0.665427 7.16215 0
M  V30 3914 C 367.635 -0.96347 5.83499 0
M  V30 3915 C 366.997 -0.567432 7.02111 0
M  V30 3916 H 363.096 -0.483551 0.614575 0
M  V30 3917 H 365.68 -0.663309 1.83053 0
M  V30 3918 H 363.851 -3.1426 2.28244 0
M  V30 3919 H 365.583 -3.15913 2.52944 0
M  V30 3920 H 362.338 -2.09678 4.24655 0
M  V30 3921 H 362.762 -1.11628 6.67734 0
M  V30 3922 H 367.404 -1.75731 3.8455 0
M  V30 3923 H 365.122 -0.360639 8.07295 0
M  V30 3924 H 368.708 -0.873129 5.75211 0
M  V30 3925 H 367.588 -0.185389 7.83981 0
M  V30 3926 N 365.091 -1.34144 -0.827227 0
M  V30 3927 C 366.054 -1.25264 -1.91942 0
M  V30 3928 C 367.054 -0.168866 -1.59911 0
M  V30 3929 O 368.244 -0.421198 -1.69031 0
M  V30 3930 C 365.376 -0.932952 -3.27885 0
M  V30 3931 H 366.569 -2.22357 -2.0124 0
M  V30 3932 H 364.122 -1.1837 -1.0207 0
M  V30 3933 H 364.857 0.0349917 -3.24281 0
M  V30 3934 H 364.642 -1.71682 -3.52516 0
M  V30 3935 H 366.132 -0.895874 -4.07877 0
M  V30 3936 N 366.569 1.04691 -1.17803 0
M  V30 3937 C 367.818 1.77176 -0.963931 0
M  V30 3938 C 368.131 1.88888 0.508015 0
M  V30 3939 O 369.337 2.58164 0.840465 0
M  V30 3940 C 367.793 3.18518 -1.67555 0
M  V30 3941 C 367.401 3.14919 -3.18637 0
M  V30 3942 C 369.145 3.95424 -1.54402 0
M  V30 3943 C 367.052 4.51081 -3.82466 0
M  V30 3944 H 365.982 0.664116 -0.357023 0
M  V30 3945 H 368.633 1.17303 -1.4111 0
M  V30 3946 H 367.015 3.78748 -1.15613 0
M  V30 3947 H 368.189 2.64178 -3.77554 0
M  V30 3948 H 366.504 2.51512 -3.31859 0
M  V30 3949 H 369.101 4.96106 -1.99456 0
M  V30 3950 H 369.444 4.13343 -0.495329 0
M  V30 3951 H 369.977 3.41754 -2.0359 0
M  V30 3952 H 366.716 4.38368 -4.87354 0
M  V30 3953 H 366.236 5.01951 -3.28337 0
M  V30 3954 H 367.915 5.2001 -3.84965 0
M  V30 3955 N 368.047 0.979072 1.23499 0
M  V30 3956 C 369.275 0.665202 1.95915 0
M  V30 3957 C 369.69 -0.767571 1.72493 0
M  V30 3958 O 369.047 -1.51635 1.01554 0
M  V30 3959 C 369.098 0.944438 3.48945 0
M  V30 3960 O 368.819 2.3209 3.71572 0
M  V30 3961 C 370.32 0.646336 4.38563 0
M  V30 3962 H 367.54 0.247218 0.623798 0
M  V30 3963 H 370.084 1.31009 1.57025 0
M  V30 3964 H 368.239 0.345575 3.85856 0
M  V30 3965 H 368.653 2.40957 4.65876 0
M  V30 3966 H 370.127 0.892091 5.44744 0
M  V30 3967 H 370.604 -0.419575 4.37191 0
M  V30 3968 H 371.21 1.22562 4.07258 0
M  V30 3969 N 369.525 -1.3858 0.750561 0
M  V30 3970 C 370.455 -2.33102 0.136237 0
M  V30 3971 C 371.436 -1.54713 -0.706965 0
M  V30 3972 O 372.621 -1.83043 -0.648769 0
M  V30 3973 C 369.751 -3.38882 -0.760017 0
M  V30 3974 C 368.705 -4.27995 -0.0197785 0
M  V30 3975 C 368.031 -5.24605 -1.03408 0
M  V30 3976 C 369.331 -5.09554 1.14684 0
M  V30 3977 H 371.025 -2.84726 0.925822 0
M  V30 3978 H 368.571 -1.36898 0.446654 0
M  V30 3979 H 370.524 -4.0397 -1.19943 0
M  V30 3980 H 369.248 -2.85734 -1.58189 0
M  V30 3981 H 367.907 -3.64409 0.400184 0
M  V30 3982 H 367.555 -4.67746 -1.84994 0
M  V30 3983 H 367.255 -5.85081 -0.543464 0
M  V30 3984 H 368.779 -5.9257 -1.47288 0
M  V30 3985 H 370.193 -5.67899 0.785118 0
M  V30 3986 H 368.59 -5.7925 1.56812 0
M  V30 3987 H 369.66 -4.4347 1.96118 0
M  V30 3988 N 371.003 -0.499398 -1.49478 0
M  V30 3989 C 372.252 0.0475259 -2.01644 0
M  V30 3990 C 372.565 1.38195 -1.38425 0
M  V30 3991 O 373.771 2.01547 -1.8191 0
M  V30 3992 C 372.227 0.135164 -3.59646 0
M  V30 3993 C 371.835 -1.19252 -4.31837 0
M  V30 3994 C 373.579 0.632538 -4.19761 0
M  V30 3995 C 371.486 -1.06713 -5.81693 0
M  V30 3996 H 370.416 0.0215349 -0.753692 0
M  V30 3997 H 373.067 -0.638577 -1.7203 0
M  V30 3998 H 371.449 0.885681 -3.85969 0
M  V30 3999 H 372.623 -1.9562 -4.17216 0
M  V30 4000 H 370.938 -1.62321 -3.83459 0
M  V30 4001 H 373.535 0.743833 -5.29501 0
M  V30 4002 H 373.878 1.63098 -3.83021 0
M  V30 4003 H 374.411 -0.0613987 -3.97753 0
M  V30 4004 H 371.15 -2.03979 -6.22955 0
M  V30 4005 H 370.67 -0.344307 -5.98811 0
M  V30 4006 H 372.349 -0.745208 -6.42694 0
M  V30 4007 N 372.481 1.55866 -0.233164 0
M  V30 4008 C 373.706 2.03449 0.402906 0
M  V30 4009 C 374.131 1.11166 1.51736 0
M  V30 4010 O 373.489 0.101996 1.81013 0
M  V30 4011 C 373.537 3.49165 0.9009 0
M  V30 4012 O 372.641 3.60019 2.01147 0
M  V30 4013 H 371.982 0.657913 0.0897025 0
M  V30 4014 H 374.512 2.01493 -0.355201 0
M  V30 4015 H 374.522 3.89716 1.2077 0
M  V30 4016 H 373.197 4.15813 0.0852889 0
M  V30 4017 H 371.774 3.3136 1.71042 0
M  V30 4018 N 373.959 -0.0401083 1.57549 0
M  V30 4019 C 375.205 -0.734211 1.89043 0
M  V30 4020 C 375.538 -1.75591 0.829535 0
M  V30 4021 O 374.813 -1.93868 -0.156706 0
M  V30 4022 C 375.096 -1.41374 3.31188 0
M  V30 4023 C 374.949 -0.406299 4.47961 0
M  V30 4024 C 376.268 -2.35061 3.72068 0
M  V30 4025 H 373.387 -0.265447 0.687537 0
M  V30 4026 H 376.029 0.00294087 1.9 0
M  V30 4027 H 374.179 -2.04206 3.30503 0
M  V30 4028 H 375.851 0.219255 4.60779 0
M  V30 4029 H 374.094 0.275485 4.32924 0
M  V30 4030 H 374.765 -0.920022 5.44279 0
M  V30 4031 H 377.241 -1.82282 3.74049 0
M  V30 4032 H 376.117 -2.79593 4.72355 0
M  V30 4033 H 376.378 -3.21258 3.0372 0
M  V30 4034 N 375.437 -1.54477 -0.31217 0
M  V30 4035 C 376.385 -1.85395 -1.40469 0
M  V30 4036 C 377.379 -0.726749 -1.53019 0
M  V30 4037 O 378.585 -0.910582 -1.55269 0
M  V30 4038 H 374.96 -0.587845 -0.46898 0
M  V30 4039 H 376.931 -2.76736 -1.11623 0
M  V30 4040 C 375.68 -2.10811 -2.76503 0
M  V30 4041 H 375.003 -2.97014 -2.67625 0
M  V30 4042 H 376.443 -2.3639 -3.51988 0
M  V30 4043 C 374.902 -0.903165 -3.24568 0
M  V30 4044 O 375.432 -0.118085 -4.01526 0
M  V30 4045 N 373.638 -0.711634 -2.81752 0
M  V30 4046 H 373.185 -1.35171 -2.19286 0
M  V30 4047 H 373.143 0.0930473 -3.14262 0
M  V30 4048 N 376.915 0.57481 -1.46744 0
M  V30 4049 C 378.163 1.33009 -1.52161 0
M  V30 4050 C 378.484 1.94185 -0.178092 0
M  V30 4051 O 377.754 1.7899 0.796196 0
M  V30 4052 H 376.334 0.493873 -0.560445 0
M  V30 4053 H 378.996 0.672589 -1.82927 0
M  V30 4054 H 378.092 2.13273 -2.27862 0
M  V30 4055 N 378.394 1.34581 0.820102 0
M  V30 4056 C 379.643 1.26437 1.57151 0
M  V30 4057 C 379.956 -0.163111 1.94919 0
M  V30 4058 O 381.162 -0.366722 2.69012 0
M  V30 4059 C 379.618 2.21658 2.83541 0
M  V30 4060 C 379.226 3.69679 2.53065 0
M  V30 4061 C 380.97 2.22428 3.61561 0
M  V30 4062 C 378.877 4.56761 3.75664 0
M  V30 4063 H 377.807 0.469707 0.589823 0
M  V30 4064 H 380.458 1.59763 0.902656 0
M  V30 4065 H 378.84 1.81287 3.52067 0
M  V30 4066 H 380.014 4.18605 1.92631 0
M  V30 4067 H 378.329 3.71384 1.88316 0
M  V30 4068 H 380.926 2.8471 4.52597 0
M  V30 4069 H 381.269 1.22434 3.97889 0
M  V30 4070 H 381.802 2.61259 2.99981 0
M  V30 4071 H 378.541 5.57702 3.44454 0
M  V30 4072 H 378.061 4.12568 4.35371 0
M  V30 4073 H 379.74 4.71509 4.43044 0
M  V30 4074 N 379.872 -1.04064 1.18357 0
M  V30 4075 C 381.119 -1.77265 0.978947 0
M  V30 4076 C 381.447 -1.88189 -0.491428 0
M  V30 4077 O 380.702 -1.38653 -1.38108 0
M  V30 4078 C 381.001 -3.20634 1.57888 0
M  V30 4079 C 380.667 -3.29743 3.07539 0
M  V30 4080 C 379.329 -3.31937 3.48384 0
M  V30 4081 C 381.681 -3.29841 4.03552 0
M  V30 4082 C 379.009 -3.3187 4.83818 0
M  V30 4083 C 381.361 -3.31313 5.38901 0
M  V30 4084 C 380.025 -3.31799 5.79194 0
M  V30 4085 H 379.295 -0.648659 0.358222 0
M  V30 4086 H 381.942 -1.22225 1.47422 0
M  V30 4087 H 380.247 -3.78675 1.00561 0
M  V30 4088 H 381.944 -3.75917 1.39598 0
M  V30 4089 H 378.534 -3.28757 2.74986 0
M  V30 4090 H 382.718 -3.27337 3.73047 0
M  V30 4091 H 377.974 -3.30562 5.14333 0
M  V30 4092 H 382.148 -3.30338 6.13066 0
M  V30 4093 H 379.775 -3.315 6.84114 0
M  V30 4094 N 381.35 -0.985608 -1.22978 0
M  V30 4095 C 382.596 -0.65836 -1.91816 0
M  V30 4096 C 382.929 0.806692 -1.76653 0
M  V30 4097 O 382.204 1.58252 -1.13078 0
M  V30 4098 C 382.487 -1.056 -3.44268 0
M  V30 4099 C 382.34 -2.57906 -3.68516 0
M  V30 4100 C 383.659 -0.603781 -4.35939 0
M  V30 4101 H 380.778 -0.24065 -0.696604 0
M  V30 4102 H 383.42 -1.22783 -1.44998 0
M  V30 4103 H 381.57 -0.571445 -3.84274 0
M  V30 4104 H 383.242 -3.13976 -3.3796 0
M  V30 4105 H 381.485 -3.00305 -3.13048 0
M  V30 4106 H 382.156 -2.80779 -4.75255 0
M  V30 4107 H 384.632 -1.01987 -4.03408 0
M  V30 4108 H 383.508 -0.910383 -5.41298 0
M  V30 4109 H 383.769 0.495761 -4.39312 0
M  V30 4110 N 382.828 1.3818 -0.7579 0
M  V30 4111 C 384.077 1.99261 -0.312744 0
M  V30 4112 C 384.39 1.60846 1.11301 0
M  V30 4113 O 385.596 2.14929 1.65885 0
M  V30 4114 C 384.052 3.56294 -0.50821 0
M  V30 4115 C 383.66 4.03657 -1.94333 0
M  V30 4116 C 385.404 4.24313 -0.125982 0
M  V30 4117 C 383.311 5.53347 -2.08712 0
M  V30 4118 H 382.241 0.745456 -0.113185 0
M  V30 4119 H 384.892 1.57889 -0.935056 0
M  V30 4120 H 383.274 3.95575 0.183353 0
M  V30 4121 H 384.448 3.75655 -2.66871 0
M  V30 4122 H 382.763 3.48376 -2.28086 0
M  V30 4123 H 385.36 5.34279 -0.212125 0
M  V30 4124 H 385.703 4.05962 0.921964 0
M  V30 4125 H 386.236 3.90285 -0.769563 0
M  V30 4126 H 382.975 5.76607 -3.11777 0
M  V30 4127 H 382.495 5.83078 -1.4064 0
M  V30 4128 H 384.174 6.19111 -1.87912 0
M  V30 4129 N 384.306 0.507319 1.49211 0
M  V30 4130 C 385.546 -0.0332372 2.04373 0
M  V30 4131 C 385.91 -1.33694 1.37804 0
M  V30 4132 O 387.111 -1.96213 1.83722 0
M  V30 4133 C 385.382 -0.17599 3.56966 0
M  V30 4134 S 386.941 -0.669882 4.33657 0
M  V30 4135 H 383.759 0.00123603 0.710999 0
M  V30 4136 H 386.361 0.682725 1.83191 0
M  V30 4137 H 385.065 0.778053 4.02957 0
M  V30 4138 H 384.596 -0.917005 3.82563 0
M  V30 4139 H 386.611 -1.93806 4.56786 0
M  V30 4140 N 385.784 -1.5574 0.241426 0
M  V30 4141 C 387.024 -2.00714 -0.38644 0
M  V30 4142 C 387.388 -1.12586 -1.55526 0
M  V30 4143 O 388.589 -1.46992 -2.25048 0
M  V30 4144 C 386.86 -3.48534 -0.791128 0
M  V30 4145 S 388.419 -4.15519 -1.41029 0
M  V30 4146 H 385.237 -0.700484 -0.121834 0
M  V30 4147 H 387.839 -1.92243 0.355377 0
M  V30 4148 H 386.543 -4.10342 0.0689225 0
M  V30 4149 H 386.074 -3.6092 -1.56526 0
M  V30 4150 H 388.089 -4.16352 -2.69936 0
M  V30 4151 N 387.262 0.0317525 -1.57568 0
M  V30 4152 C 388.192 1.03274 -2.0942 0
M  V30 4153 C 389.173 1.3788 -0.996143 0
M  V30 4154 O 390.358 1.46811 -1.27122 0
M  V30 4155 C 387.488 2.33448 -2.57137 0
M  V30 4156 C 386.442 2.13091 -3.71182 0
M  V30 4157 C 385.768 3.49001 -4.05095 0
M  V30 4158 C 387.068 1.51928 -4.99715 0
M  V30 4159 H 388.762 0.60112 -2.93303 0
M  V30 4160 H 386.308 0.287705 -1.41097 0
M  V30 4161 H 388.261 3.03802 -2.92032 0
M  V30 4162 H 386.985 2.78665 -1.70333 0
M  V30 4163 H 385.644 1.45171 -3.36632 0
M  V30 4164 H 385.292 3.91862 -3.15362 0
M  V30 4165 H 384.992 3.36207 -4.81911 0
M  V30 4166 H 386.516 4.20721 -4.42522 0
M  V30 4167 H 387.93 2.12196 -5.32584 0
M  V30 4168 H 386.327 1.49716 -5.81124 0
M  V30 4169 H 387.397 0.484811 -4.8247 0
M  V30 4170 N 388.74 1.54641 0.303973 0
M  V30 4171 C 389.968 1.77768 1.05858 0
M  V30 4172 C 390.383 0.535722 1.8104 0
M  V30 4173 O 389.74 -0.494337 1.75677 0
M  V30 4174 C 389.791 2.9834 2.04146 0
M  V30 4175 O 389.512 4.17736 1.32015 0
M  V30 4176 C 391.013 3.33832 2.91669 0
M  V30 4177 H 388.233 0.592961 0.314067 0
M  V30 4178 H 390.777 2.01583 0.344149 0
M  V30 4179 H 388.932 2.76742 2.71096 0
M  V30 4180 H 389.346 4.85693 1.97998 0
M  V30 4181 H 390.82 4.21448 3.56491 0
M  V30 4182 H 391.297 2.51857 3.59812 0
M  V30 4183 H 391.903 3.57579 2.30254 0
M  V30 4184 N 390.218 -0.567019 1.47046 0
M  V30 4185 C 391.448 -1.34831 1.56538 0
M  V30 4186 C 391.856 -1.8802 0.21101 0
M  V30 4187 O 391.199 -1.65152 -0.804387 0
M  V30 4188 C 391.261 -2.56139 2.52256 0
M  V30 4189 C 390.925 -2.24307 3.98165 0
M  V30 4190 C 391.922 -1.82192 4.86931 0
M  V30 4191 C 389.607 -2.35968 4.43423 0
M  V30 4192 C 391.601 -1.52153 6.18973 0
M  V30 4193 C 389.288 -2.05542 5.75496 0
M  V30 4194 C 390.286 -1.63701 6.63092 0
M  V30 4195 O 389.974 -1.33657 7.92711 0
M  V30 4196 H 389.706 -0.417683 0.531523 0
M  V30 4197 H 392.26 -0.694726 1.93294 0
M  V30 4198 H 390.49 -3.24356 2.10548 0
M  V30 4199 H 392.179 -3.18214 2.51982 0
M  V30 4200 H 392.945 -1.72684 4.53217 0
M  V30 4201 H 388.824 -2.67495 3.75456 0
M  V30 4202 H 392.368 -1.19421 6.87302 0
M  V30 4203 H 388.265 -2.14679 6.08755 0
M  V30 4204 H 389.033 -1.4737 8.05124 0
M  V30 4205 N 391.696 -1.35014 -0.812953 0
M  V30 4206 C 392.936 -1.29289 -1.58315 0
M  V30 4207 C 393.3 0.132727 -1.91541 0
M  V30 4208 O 394.501 0.314269 -2.66957 0
M  V30 4209 C 392.772 -2.1681 -2.84127 0
M  V30 4210 S 394.331 -2.28538 -3.74588 0
M  V30 4211 H 391.149 -0.459569 -0.542511 0
M  V30 4212 H 393.751 -1.70336 -0.959467 0
M  V30 4213 H 392.455 -3.19379 -2.57731 0
M  V30 4214 H 391.986 -1.76697 -3.51485 0
M  V30 4215 H 394.001 -1.4655 -4.74065 0
M  V30 4216 N 393.175 1.03435 -1.18907 0
M  V30 4217 C 394.422 1.76743 -0.988334 0
M  V30 4218 C 394.75 1.88447 0.481441 0
M  V30 4219 O 394.005 1.39383 1.37371 0
M  V30 4220 C 394.304 3.19792 -1.59586 0
M  V30 4221 C 393.97 3.28108 -3.09283 0
M  V30 4222 C 392.632 3.30084 -3.5014 0
M  V30 4223 C 394.984 3.27696 -4.05296 0
M  V30 4224 C 392.312 3.29299 -4.85571 0
M  V30 4225 C 394.664 3.28451 -5.4065 0
M  V30 4226 C 393.328 3.28723 -5.80946 0
M  V30 4227 H 392.598 0.64675 -0.361657 0
M  V30 4228 H 395.245 1.21442 -1.48068 0
M  V30 4229 H 393.55 3.78136 -1.02568 0
M  V30 4230 H 395.247 3.75171 -1.41589 0
M  V30 4231 H 391.837 3.27294 -2.76725 0
M  V30 4232 H 396.021 3.25354 -3.74778 0
M  V30 4233 H 391.277 3.2783 -5.16079 0
M  V30 4234 H 395.451 3.27082 -6.14809 0
M  V30 4235 H 393.078 3.27868 -6.85862 0
M  V30 4236 N 394.653 0.992116 1.22453 0
M  V30 4237 C 395.616 0.546883 2.2258 0
M  V30 4238 C 396.616 -0.369829 1.56489 0
M  V30 4239 O 397.806 -0.161896 1.73446 0
M  V30 4240 C 394.938 -0.204659 3.40285 0
M  V30 4241 H 396.131 1.43234 2.63484 0
M  V30 4242 H 393.684 0.779239 1.3549 0
M  V30 4243 H 394.419 -1.10614 3.04853 0
M  V30 4244 H 394.204 0.45354 3.89468 0
M  V30 4245 H 395.694 -0.504358 4.14543 0
M  V30 4246 N 396.131 -1.37776 0.765217 0
M  V30 4247 C 397.542 -1.82521 0.392819 0
M  V30 4248 C 397.893 -1.63789 -1.08017 0
M  V30 4249 O 397.018 -1.14542 -1.83601 0
M  V30 4250 C 397.613 -3.31358 0.706214 0
M  V30 4251 C 396.172 -3.74406 0.386952 0
M  V30 4252 C 395.319 -2.60394 0.953422 0
M  V30 4253 H 398.27 -1.2634 0.960412 0
M  V30 4254 H 398.291 -3.80498 -0.0114706 0
M  V30 4255 H 397.803 -3.44959 1.77833 0
M  V30 4256 H 395.904 -3.66377 -0.678112 0
M  V30 4257 H 396.017 -4.70749 0.890636 0
M  V30 4258 H 394.381 -2.51878 0.378064 0
M  V30 4259 H 395.164 -2.76791 2.03081 0
M  V30 4260 N 397.609 -0.515225 -1.4894 0
M  V30 4261 C 399.025 -0.172099 -1.58669 0
M  V30 4262 C 399.225 1.32405 -1.51892 0
M  V30 4263 O 398.281 2.10116 -1.40027 0
M  V30 4264 C 399.594 -0.761533 -2.90897 0
M  V30 4265 C 401.142 -0.728926 -3.04394 0
M  V30 4266 C 401.617 -1.29667 -4.39261 0
M  V30 4267 N 403.108 -1.25799 -4.4579 0
M  V30 4268 C 403.843 -1.66733 -5.48623 0
M  V30 4269 N 403.339 -2.15327 -6.58488 0
M  V30 4270 N 405.132 -1.58061 -5.39419 0
M  V30 4271 H 397.283 -1.48778 -1.51588 0
M  V30 4272 H 399.546 -0.617968 -0.718901 0
M  V30 4273 H 399.252 -1.81136 -3.01468 0
M  V30 4274 H 399.126 -0.230106 -3.76497 0
M  V30 4275 H 401.513 0.312098 -2.93445 0
M  V30 4276 H 401.594 -1.29766 -2.20442 0
M  V30 4277 H 401.238 -2.33655 -4.50963 0
M  V30 4278 H 401.168 -0.703752 -5.21876 0
M  V30 4279 H 403.659 -0.902102 -3.66975 0
M  V30 4280 H 403.972 -2.44594 -7.33071 0
M  V30 4281 H 402.317 -2.19311 -6.59491 0
M  V30 4282 H 405.508 -1.19906 -4.52482 0
M  V30 4283 H 405.681 -1.90284 -6.19432 0
M  V30 4284 N 399.087 1.5561 -0.249682 0
M  V30 4285 C 400.327 2.00916 0.37579 0
M  V30 4286 C 400.691 1.13409 1.54927 0
M  V30 4287 O 401.892 1.48183 2.24266 0
M  V30 4288 C 400.163 3.48949 0.772633 0
M  V30 4289 S 401.722 4.16261 1.38824 0
M  V30 4290 H 398.54 0.70112 0.118117 0
M  V30 4291 H 401.142 1.92052 -0.365567 0
M  V30 4292 H 399.846 4.103 -0.090683 0
M  V30 4293 H 399.377 3.61745 1.5461 0
M  V30 4294 H 401.392 4.17778 2.67724 0
M  V30 4295 N 400.565 -0.0233959 1.57583 0
M  V30 4296 C 401.981 -0.379134 1.55031 0
M  V30 4297 C 402.181 -1.76255 0.976548 0
M  V30 4298 O 401.237 -2.45266 0.600078 0
M  V30 4299 C 402.55 -0.275792 2.99433 0
M  V30 4300 C 404.098 -0.352458 3.11009 0
M  V30 4301 C 404.573 -0.278501 4.57152 0
M  V30 4302 N 406.064 -0.337123 4.61972 0
M  V30 4303 C 406.799 -0.302876 5.726 0
M  V30 4304 N 406.295 -0.220589 6.92449 0
M  V30 4305 N 408.088 -0.353023 5.6099 0
M  V30 4306 H 400.239 0.881869 1.93227 0
M  V30 4307 H 402.502 0.335867 0.886509 0
M  V30 4308 H 402.208 0.675108 3.4516 0
M  V30 4309 H 402.082 -1.06721 3.61788 0
M  V30 4310 H 404.469 -1.29379 2.65226 0
M  V30 4311 H 404.55 0.468409 2.51475 0
M  V30 4312 H 404.194 0.659189 5.03604 0
M  V30 4313 H 404.124 -1.11755 5.14605 0
M  V30 4314 H 406.615 -0.403002 3.75745 0
M  V30 4315 H 406.928 -0.199713 7.72542 0
M  V30 4316 H 405.273 -0.186555 6.9475 0
M  V30 4317 H 408.464 -0.415339 4.66254 0
M  V30 4318 H 408.637 -0.322866 6.47195 0
M  V30 4319 N 402.043 -1.548 -0.295768 0
M  V30 4320 C 402.953 -1.89177 -1.38742 0
M  V30 4321 C 403.969 -0.786481 -1.55211 0
M  V30 4322 O 405.145 -1.08344 -1.69775 0
M  V30 4323 C 402.21 -2.13663 -2.73036 0
M  V30 4324 C 401.271 -3.37349 -2.65508 0
M  V30 4325 C 400.504 -3.60658 -3.93398 0
M  V30 4326 O 400.727 -2.86882 -4.93006 0
M  V30 4327 O 399.661 -4.54179 -3.94975 0
M  V30 4328 H 403.487 -2.82059 -1.12589 0
M  V30 4329 H 401.072 -1.41056 -0.492295 0
M  V30 4330 H 402.954 -2.3094 -3.52484 0
M  V30 4331 H 401.629 -1.23967 -2.99022 0
M  V30 4332 H 400.536 -3.25431 -1.84514 0
M  V30 4333 H 401.869 -4.27192 -2.44474 0
M  V30 4334 N 403.521 0.559213 -1.47345 0
M  V30 4335 C 404.937 0.884943 -1.32819 0
M  V30 4336 C 405.137 1.98988 -0.317173 0
M  V30 4337 O 404.193 2.51031 0.272011 0
M  V30 4338 C 405.506 1.28007 -2.72093 0
M  V30 4339 C 407.054 1.39161 -2.80363 0
M  V30 4340 C 407.529 1.82031 -4.20272 0
M  V30 4341 N 409.02 1.89185 -4.22804 0
M  V30 4342 C 409.755 2.2368 -5.27973 0
M  V30 4343 N 409.251 2.56802 -6.43447 0
M  V30 4344 N 411.044 2.24436 -5.15349 0
M  V30 4345 H 403.195 -0.170304 -2.11716 0
M  V30 4346 H 405.458 -0.0135247 -0.947904 0
M  V30 4347 H 405.164 0.542027 -3.47498 0
M  V30 4348 H 405.038 2.23665 -3.03733 0
M  V30 4349 H 407.425 2.12048 -2.05231 0
M  V30 4350 H 407.506 0.41696 -2.52379 0
M  V30 4351 H 407.15 1.09715 -4.95908 0
M  V30 4352 H 407.08 2.80495 -4.45679 0
M  V30 4353 H 409.571 1.65982 -3.39497 0
M  V30 4354 H 409.884 2.82144 -7.19454 0
M  V30 4355 H 408.229 2.54387 -6.46771 0
M  V30 4356 H 411.42 1.97998 -4.24163 0
M  V30 4357 H 411.593 2.50989 -5.97418 0
M  V30 4358 N 404.999 1.35443 0.805782 0
M  V30 4359 C 406.415 1.15499 1.10146 0
M  V30 4360 C 406.615 -0.0319975 2.01475 0
M  V30 4361 O 405.671 -0.70236 2.42535 0
M  V30 4362 C 406.984 2.45833 1.73166 0
M  V30 4363 C 408.532 2.52047 1.85583 0
M  V30 4364 C 409.007 3.82427 2.52019 0
M  V30 4365 N 410.498 3.83682 2.59504 0
M  V30 4366 C 411.233 4.81294 3.11679 0
M  V30 4367 N 410.729 5.89294 3.64287 0
M  V30 4368 N 412.522 4.6873 3.1024 0
M  V30 4369 H 404.673 2.11469 0.198678 0
M  V30 4370 H 406.936 0.93594 0.150731 0
M  V30 4371 H 406.642 3.32874 1.13526 0
M  V30 4372 H 406.516 2.6044 2.72857 0
M  V30 4373 H 408.903 1.65435 2.44367 0
M  V30 4374 H 408.984 2.41354 0.847455 0
M  V30 4375 H 408.628 4.69437 1.93885 0
M  V30 4376 H 408.558 3.90409 3.53395 0
M  V30 4377 H 411.049 3.05648 2.22234 0
M  V30 4378 H 411.362 6.59768 4.02401 0
M  V30 4379 H 409.707 5.92985 3.62483 0
M  V30 4380 H 412.898 3.83496 2.68419 0
M  V30 4381 H 413.071 5.44965 3.50596 0
M  V30 4382 N 406.477 -1.02803 1.19454 0
M  V30 4383 C 407.893 -1.28473 0.946937 0
M  V30 4384 C 408.093 -1.97881 -0.380202 0
M  V30 4385 O 407.149 -2.26719 -1.11151 0
M  V30 4386 C 408.462 -2.13099 2.12154 0
M  V30 4387 C 410.01 -2.26404 2.16126 0
M  V30 4388 C 410.485 -3.14402 3.33039 0
M  V30 4389 N 411.976 -3.21991 3.32981 0
M  V30 4390 C 412.711 -3.90272 4.20089 0
M  V30 4391 N 412.207 -4.60777 5.17355 0
M  V30 4392 N 414 -3.8668 4.07964 0
M  V30 4393 H 406.151 -0.561665 2.04839 0
M  V30 4394 H 408.414 -0.310438 0.89573 0
M  V30 4395 H 408.12 -1.69422 3.08203 0
M  V30 4396 H 407.994 -3.13813 2.09287 0
M  V30 4397 H 410.381 -2.69311 1.20647 0
M  V30 4398 H 410.462 -1.25237 2.23045 0
M  V30 4399 H 410.106 -2.72204 4.28798 0
M  V30 4400 H 410.036 -4.1563 3.23356 0
M  V30 4401 H 412.527 -2.71778 2.62574 0
M  V30 4402 H 412.84 -5.10513 5.80169 0
M  V30 4403 H 411.185 -4.5964 5.21302 0
M  V30 4404 H 414.376 -3.30739 3.31254 0
M  V30 4405 H 414.549 -4.39621 4.76064 0
M  V30 4406 N 407.956 -0.998596 -1.21925 0
M  V30 4407 C 408.904 -0.546641 -2.26085 0
M  V30 4408 C 409.898 0.405576 -1.64473 0
M  V30 4409 O 411.104 0.277471 -1.77849 0
M  V30 4410 H 407.479 -0.158403 -0.735127 0
M  V30 4411 H 409.45 -1.43645 -2.61551 0
M  V30 4412 C 408.199 0.117388 -3.47502 0
M  V30 4413 H 407.522 -0.606277 -3.95176 0
M  V30 4414 H 408.962 0.396993 -4.22137 0
M  V30 4415 C 407.421 1.35455 -3.0847 0
M  V30 4416 O 407.951 2.44944 -3.18379 0
M  V30 4417 N 406.157 1.23191 -2.63196 0
M  V30 4418 H 405.704 0.341006 -2.55333 0
M  V30 4419 H 405.662 2.06071 -2.37449 0
M  V30 4420 N 409.434 1.37368 -0.772513 0
M  V30 4421 C 410.344 2.34053 -0.160081 0
M  V30 4422 C 411.36 1.60216 0.678728 0
M  V30 4423 O 412.536 1.92303 0.59847 0
M  V30 4424 C 409.601 3.3939 0.708182 0
M  V30 4425 C 408.662 4.29048 -0.147172 0
M  V30 4426 C 407.895 5.29354 0.679744 0
M  V30 4427 O 408.118 5.3723 1.91678 0
M  V30 4428 O 407.052 6.01835 0.0885444 0
M  V30 4429 H 410.878 2.88159 -0.959053 0
M  V30 4430 H 408.463 1.39543 -0.533685 0
M  V30 4431 H 410.345 4.03839 1.20384 0
M  V30 4432 H 409.02 2.8761 1.48533 0
M  V30 4433 H 407.927 3.67697 -0.689205 0
M  V30 4434 H 409.26 4.84134 -0.887423 0
M  V30 4435 N 410.912 0.523116 1.48665 0
M  V30 4436 C 412.328 0.180511 1.58576 0
M  V30 4437 C 412.528 -1.31597 1.52592 0
M  V30 4438 O 411.584 -2.0937 1.4114 0
M  V30 4439 C 412.897 0.776949 2.90489 0
M  V30 4440 C 414.445 0.745058 3.04003 0
M  V30 4441 C 414.92 1.31995 4.38567 0
M  V30 4442 N 416.411 1.28162 4.45117 0
M  V30 4443 C 417.146 1.6964 5.47731 0
M  V30 4444 N 416.642 2.18816 6.57337 0
M  V30 4445 N 418.435 1.6092 5.38573 0
M  V30 4446 H 410.586 1.4958 1.50797 0
M  V30 4447 H 412.849 0.621772 0.715614 0
M  V30 4448 H 412.555 1.82732 3.00503 0
M  V30 4449 H 412.429 0.25007 3.7637 0
M  V30 4450 H 414.816 -0.296532 2.93606 0
M  V30 4451 H 414.897 1.30933 2.1975 0
M  V30 4452 H 414.541 2.36043 4.49718 0
M  V30 4453 H 414.471 0.731418 5.21496 0
M  V30 4454 H 416.962 0.92155 3.66491 0
M  V30 4455 H 417.275 2.48478 7.31764 0
M  V30 4456 H 415.62 2.22805 6.58318 0
M  V30 4457 H 418.811 1.22304 4.5184 0
M  V30 4458 H 418.984 1.93567 6.18414 0
M  V30 4459 N 412.39 -1.55475 0.257931 0
M  V30 4460 C 413.32 -2.24815 -0.630912 0
M  V30 4461 C 414.301 -1.23224 -1.17259 0
M  V30 4462 O 415.486 -1.51904 -1.20991 0
M  V30 4463 C 412.616 -2.95609 -1.82298 0
M  V30 4464 C 411.57 -4.03982 -1.41359 0
M  V30 4465 C 410.896 -4.6226 -2.68738 0
M  V30 4466 C 412.196 -5.19109 -0.57648 0
M  V30 4467 H 413.89 -2.99354 -0.0526878 0
M  V30 4468 H 411.436 -1.4398 -0.023901 0
M  V30 4469 H 413.389 -3.42822 -2.45054 0
M  V30 4470 H 412.113 -2.18577 -2.42676 0
M  V30 4471 H 410.772 -3.57555 -0.809324 0
M  V30 4472 H 410.42 -3.81915 -3.27338 0
M  V30 4473 H 410.12 -5.35424 -2.42065 0
M  V30 4474 H 411.644 -5.12212 -3.32372 0
M  V30 4475 H 413.058 -5.62479 -1.10861 0
M  V30 4476 H 411.455 -5.98729 -0.405351 0
M  V30 4477 H 412.525 -4.83174 0.408776 0
M  V30 4478 N 413.868 0.0150385 -1.57593 0
M  V30 4479 C 415.284 0.370907 -1.5523 0
M  V30 4480 C 415.484 1.75735 -0.985882 0
M  V30 4481 O 414.54 2.44944 -0.613077 0
M  V30 4482 C 415.853 0.259908 -2.99575 0
M  V30 4483 C 417.401 0.335959 -3.11192 0
M  V30 4484 C 417.876 0.254253 -4.57294 0
M  V30 4485 N 419.367 0.312618 -4.62144 0
M  V30 4486 C 420.102 0.272505 -5.72752 0
M  V30 4487 N 419.598 0.183864 -6.92556 0
M  V30 4488 N 421.391 0.323267 -5.6117 0
M  V30 4489 H 413.542 -0.892104 -1.92757 0
M  V30 4490 H 415.805 -0.340563 -0.884715 0
M  V30 4491 H 415.511 -0.693403 -3.44797 0
M  V30 4492 H 415.385 1.048 -3.62349 0
M  V30 4493 H 417.772 1.27971 -2.65909 0
M  V30 4494 H 417.853 -0.481739 -2.51223 0
M  V30 4495 H 417.497 -0.685887 -5.03247 0
M  V30 4496 H 417.427 1.09024 -5.15191 0
M  V30 4497 H 419.918 0.38307 -3.75953 0
M  V30 4498 H 420.231 0.15874 -7.72637 0
M  V30 4499 H 418.576 0.149708 -6.94839 0
M  V30 4500 H 421.767 0.390607 -4.66467 0
M  V30 4501 H 421.94 0.288539 -6.47357 0
M  V30 4502 N 415.346 1.54954 0.287554 0
M  V30 4503 C 416.762 1.46469 0.633964 0
M  V30 4504 C 416.962 0.666865 1.90145 0
M  V30 4505 O 416.018 0.179906 2.51858 0
M  V30 4506 C 417.331 2.90556 0.774454 0
M  V30 4507 C 418.879 3.00681 0.869462 0
M  V30 4508 C 419.354 4.45993 1.04184 0
M  V30 4509 N 420.845 4.4976 1.10772 0
M  V30 4510 C 421.58 5.59393 1.25964 0
M  V30 4511 N 421.076 6.78923 1.37968 0
M  V30 4512 N 422.869 5.47107 1.28959 0
M  V30 4513 H 415.02 2.05288 -0.545041 0
M  V30 4514 H 417.283 0.930305 -0.182308 0
M  V30 4515 H 416.989 3.51594 -0.086207 0
M  V30 4516 H 416.863 3.38743 1.6593 0
M  V30 4517 H 419.25 2.39749 1.7206 0
M  V30 4518 H 419.331 2.55769 -0.0396831 0
M  V30 4519 H 418.975 5.07524 0.195422 0
M  V30 4520 H 418.905 4.88548 1.96542 0
M  V30 4521 H 421.396 3.63651 1.02794 0
M  V30 4522 H 421.709 7.58231 1.49353 0
M  V30 4523 H 420.054 6.81763 1.34999 0
M  V30 4524 H 423.245 4.52668 1.19202 0
M  V30 4525 H 423.418 6.32595 1.40455 0
M  V30 4526 N 416.824 -0.551391 1.4764 0
M  V30 4527 C 417.734 -1.68525 1.63207 0
M  V30 4528 C 418.75 -1.6621 0.514815 0
M  V30 4529 O 419.926 -1.85551 0.783113 0
M  V30 4530 C 416.991 -3.05025 1.64805 0
M  V30 4531 C 416.052 -3.18362 2.88 0
M  V30 4532 C 415.285 -4.4835 2.89513 0
M  V30 4533 O 415.508 -5.34163 2.00065 0
M  V30 4534 O 414.442 -4.65602 3.81443 0
M  V30 4535 H 418.268 -1.58333 2.59161 0
M  V30 4536 H 415.853 -0.722063 1.30792 0
M  V30 4537 H 417.735 -3.86245 1.68502 0
M  V30 4538 H 416.41 -3.15587 0.720197 0
M  V30 4539 H 415.317 -2.36518 2.89845 0
M  V30 4540 H 416.65 -3.12707 3.80099 0
M  V30 4541 N 418.302 -1.35869 -0.798587 0
M  V30 4542 C 419.527 -1.32883 -1.59238 0
M  V30 4543 C 419.952 0.0894587 -1.87887 0
M  V30 4544 O 419.31 1.05869 -1.47178 0
M  V30 4545 C 419.358 -2.14892 -2.89575 0
M  V30 4546 O 418.462 -1.53512 -3.82763 0
M  V30 4547 H 417.803 -0.455236 -0.48338 0
M  V30 4548 H 420.333 -1.79024 -0.990539 0
M  V30 4549 H 420.343 -2.27139 -3.38928 0
M  V30 4550 H 419.018 -3.17998 -2.68049 0
M  V30 4551 H 417.595 -1.50153 -3.41334 0
M  V30 4552 N 419.78 1.02168 -1.19998 0
M  V30 4553 C 421.026 1.75945 -1.00852 0
M  V30 4554 C 421.359 1.88702 0.458828 0
M  V30 4555 O 420.634 1.40911 1.34069 0
M  V30 4556 C 420.917 3.18154 -1.68671 0
M  V30 4557 C 420.77 3.13224 -3.22817 0
M  V30 4558 C 422.089 4.16711 -1.41561 0
M  V30 4559 H 419.208 0.638673 -0.367785 0
M  V30 4560 H 421.85 1.19222 -1.4794 0
M  V30 4561 H 420 3.66586 -1.28636 0
M  V30 4562 H 421.672 2.72635 -3.72112 0
M  V30 4563 H 419.915 2.50751 -3.53986 0
M  V30 4564 H 420.586 4.13728 -3.65422 0
M  V30 4565 H 423.062 3.76913 -1.76284 0
M  V30 4566 H 421.938 5.14391 -1.91553 0
M  V30 4567 H 422.199 4.40774 -0.342193 0
M  V30 4568 N 421.258 1.00505 1.21394 0
M  V30 4569 C 422.674 0.717873 1.42544 0
M  V30 4570 C 422.874 -0.706936 1.88692 0
M  V30 4571 O 421.93 -1.47627 2.04847 0
M  V30 4572 C 423.243 1.73377 2.45684 0
M  V30 4573 C 424.791 1.75059 2.59467 0
M  V30 4574 C 425.266 2.75545 3.6584 0
M  V30 4575 N 426.757 2.74213 3.73311 0
M  V30 4576 C 427.492 3.48626 4.55245 0
M  V30 4577 N 426.988 4.32678 5.41075 0
M  V30 4578 N 428.781 3.37276 4.49668 0
M  V30 4579 H 420.932 1.92506 0.897503 0
M  V30 4580 H 423.195 0.830919 0.456375 0
M  V30 4581 H 422.901 2.75395 2.18748 0
M  V30 4582 H 422.775 1.53647 3.44489 0
M  V30 4583 H 425.162 0.737337 2.8574 0
M  V30 4584 H 425.243 1.98861 1.60897 0
M  V30 4585 H 424.887 3.77028 3.40313 0
M  V30 4586 H 424.817 2.49009 4.64007 0
M  V30 4587 H 427.308 2.13234 3.11993 0
M  V30 4588 H 427.621 4.86253 6.00648 0
M  V30 4589 H 425.966 4.3676 5.40616 0
M  V30 4590 H 429.157 2.71043 3.81646 0
M  V30 4591 H 429.33 3.95524 5.13288 0
M  V30 4592 N 422.737 -1.36956 0.779787 0
M  V30 4593 C 424.148 -1.82094 0.412156 0
M  V30 4594 C 424.499 -1.64926 -1.06273 0
M  V30 4595 O 423.624 -1.16483 -1.82375 0
M  V30 4596 C 424.219 -3.3059 0.741319 0
M  V30 4597 C 422.778 -3.73974 0.426641 0
M  V30 4598 C 421.925 -2.59368 0.980987 0
M  V30 4599 H 424.876 -1.25314 0.973758 0
M  V30 4600 H 424.897 -3.80489 0.028887 0
M  V30 4601 H 424.409 -3.43054 1.81482 0
M  V30 4602 H 422.51 -3.67076 -0.639215 0
M  V30 4603 H 422.623 -4.69778 0.940515 0
M  V30 4604 H 420.987 -2.51463 0.404757 0
M  V30 4605 H 421.77 -2.74621 2.06005 0
M  V30 4606 N 424.215 -0.530993 -1.48385 0
M  V30 4607 C 425.461 0.00274135 -2.028 0
M  V30 4608 C 425.794 1.33838 -1.40716 0
M  V30 4609 O 425.069 1.86465 -0.553277 0
M  V30 4610 C 425.352 0.123676 -3.59888 0
M  V30 4611 C 425.205 -1.2372 -4.3245 0
M  V30 4612 C 426.524 0.849967 -4.31814 0
M  V30 4613 H 423.643 -0.000477758 -0.737 0
M  V30 4614 H 426.285 -0.688217 -1.77098 0
M  V30 4615 H 424.435 0.712157 -3.81917 0
M  V30 4616 H 426.107 -1.86687 -4.21836 0
M  V30 4617 H 424.35 -1.81882 -3.93829 0
M  V30 4618 H 425.021 -1.10557 -5.40815 0
M  V30 4619 H 427.497 0.350572 -4.14621 0
M  V30 4620 H 426.373 0.903486 -5.41413 0
M  V30 4621 H 426.634 1.90047 -3.99167 0
M  V30 4622 O 425.732 1.56259 -0.408071 0
M  V30 4623 H 426.423 1.93245 0.132688 0
M  V30 END ATOM
M  V30 BEGIN BOND
M  V30 END BOND
M  V30 END CTAB
M  END
$$$$
