drugbank_target|P33815 Envelope protein F13 (DB12020)
 OpenBabel12092121193D

  0  0  0     0  0            999 V3000
M  V30 BEGIN CTAB
M  V30 COUNTS 5874 5940 0 0 0
M  V30 BEGIN ATOM
M  V30 1 H -0.908 1.98254 -0.117106 0
M  V30 2 N 0 1.576 0 0
M  V30 3 C 0.933 2.03868 1.02534 0
M  V30 4 C 1.911 0.928543 1.3348 0
M  V30 5 O 3.095 1.19667 1.45644 0
M  V30 6 C 0.222 2.43627 2.35294 0
M  V30 7 C -0.732 3.65373 2.2001 0
M  V30 8 S 0.101 5.13292 1.52614 0
M  V30 9 C 1.257 5.56322 2.86805 0
M  V30 10 H 1.49 2.90518 0.631377 0
M  V30 11 H -0.977 1.52953 0.210867 0
M  V30 12 H 0.981 2.67203 3.11629 0
M  V30 13 H -0.358 1.57376 2.7183 0
M  V30 14 H -1.165 3.90944 3.18086 0
M  V30 15 H -1.563 3.418 1.51819 0
M  V30 16 H 0.729 5.58782 3.83104 0
M  V30 17 H 1.672 6.56266 2.65933 0
M  V30 18 H 2.08 4.83886 2.90714 0
M  V30 19 N 1.4781 -0.272755 1.55222 0
M  V30 20 C 2.7241 -1.00172 1.77023 0
M  V30 21 C 3.0791 -1.83928 0.564633 0
M  V30 22 O 2.3721 -1.86416 -0.442674 0
M  V30 23 C 2.5661 -1.91642 3.01675 0
M  V30 24 C 2.3951 -1.16888 4.34243 0
M  V30 25 C 1.1651 -0.884464 4.97499 0
M  V30 26 C 3.3631 -0.55919 5.11251 0
M  V30 27 N 1.3451 -0.11015 6.13801 0
M  V30 28 C 2.7161 0.0809469 6.19947 0
M  V30 29 C 4.7711 -0.467058 4.95705 0
M  V30 30 C 3.4741 0.804335 7.14789 0
M  V30 31 C 5.5001 0.242739 5.90902 0
M  V30 32 C 4.8621 0.871613 6.98987 0
M  V30 33 H 0.9611 -0.348529 0.700037 0
M  V30 34 H 3.5451 -0.277365 1.92714 0
M  V30 35 H 1.7161 -2.61303 2.87359 0
M  V30 36 H 3.4481 -2.57901 3.1188 0
M  V30 37 H 0.2031 -1.18979 4.58411 0
M  V30 38 H 0.6271 0.264344 6.76484 0
M  V30 39 H 5.2691 -0.93894 4.12242 0
M  V30 40 H 2.9871 1.2879 7.97771 0
M  V30 41 H 6.5731 0.314347 5.8095 0
M  V30 42 H 5.4531 1.4121 7.71381 0
M  V30 43 N 2.9562 -1.48159 -0.537278 0
M  V30 44 C 4.3672 -1.49429 -1.11928 0
M  V30 45 C 4.7182 -0.26 -1.9447 0
M  V30 46 O 3.8432 0.633489 -2.0692 0
M  V30 47 C 4.4382 -2.70758 -2.03656 0
M  V30 48 C 2.9972 -2.74923 -2.57088 0
M  V30 49 C 2.1442 -2.42835 -1.3389 0
M  V30 50 H 5.0952 -1.55381 -0.322886 0
M  V30 51 H 5.1162 -2.48861 -2.87834 0
M  V30 52 H 4.6282 -3.60575 -1.43553 0
M  V30 53 H 2.7292 -1.89296 -3.20933 0
M  V30 54 H 2.8422 -3.76157 -2.9672 0
M  V30 55 H 1.2062 -1.93836 -1.65226 0
M  V30 56 H 1.9892 -3.34884 -0.755504 0
M  V30 57 N 4.4343 0.785586 -1.36625 0
M  V30 58 C 5.6813 1.54362 -1.31067 0
M  V30 59 C 6.0093 1.94195 0.10893 0
M  V30 60 O 5.2643 1.63262 1.07908 0
M  V30 61 C 5.5633 2.83007 -2.1827 0
M  V30 62 C 5.2293 2.62294 -3.6676 0
M  V30 63 C 3.8913 2.56353 -4.0723 0
M  V30 64 C 6.2433 2.43371 -4.6089 0
M  V30 65 C 3.5713 2.29461 -5.39967 0
M  V30 66 C 5.9233 2.18005 -5.93849 0
M  V30 67 C 4.5873 2.105 -6.3344 0
M  V30 68 H 3.8573 0.564851 -0.479609 0
M  V30 69 H 6.5043 0.906028 -1.68711 0
M  V30 70 H 4.8093 3.51253 -1.73576 0
M  V30 71 H 6.5063 3.40817 -2.11292 0
M  V30 72 H 3.0963 2.67774 -3.34656 0
M  V30 73 H 7.2803 2.46959 -4.30494 0
M  V30 74 H 2.5363 2.22135 -5.69619 0
M  V30 75 H 6.7103 2.02359 -6.66351 0
M  V30 76 H 4.3373 1.89425 -7.36222 0
M  V30 77 N 5.9124 1.20967 1.01018 0
M  V30 78 C 7.1404 1.04956 1.78303 0
M  V30 79 C 7.5554 -0.400915 1.84494 0
M  V30 80 O 6.9124 -1.27826 1.30257 0
M  V30 81 C 6.9634 1.63403 3.22462 0
M  V30 82 O 6.6844 3.02775 3.16637 0
M  V30 83 C 8.1854 1.52432 4.16268 0
M  V30 84 H 5.4054 0.368858 0.560522 0
M  V30 85 H 7.9494 1.60193 1.27116 0
M  V30 86 H 6.1044 1.1227 3.70775 0
M  V30 87 H 6.5184 3.30626 4.07169 0
M  V30 88 H 7.9924 1.98078 5.15237 0
M  V30 89 H 8.4694 0.477875 4.36592 0
M  V30 90 H 9.0754 2.02787 3.73841 0
M  V30 91 N 7.3905 -1.2043 1.01659 0
M  V30 92 C 8.6155 -1.94318 0.724942 0
M  V30 93 C 9.0405 -1.74266 -0.708034 0
M  V30 94 O 8.3985 -1.03694 -1.48719 0
M  V30 95 C 8.4465 -3.44486 1.06591 0
M  V30 96 O 7.5505 -4.12017 0.177599 0
M  V30 97 H 6.8915 -0.60708 0.26898 0
M  V30 98 H 9.4215 -1.52861 1.35995 0
M  V30 99 H 9.4315 -3.95106 1.01762 0
M  V30 100 H 8.1065 -3.58404 2.10997 0
M  V30 101 H 6.6835 -3.71821 0.283421 0
M  V30 102 N 8.8686 -0.792821 -1.36206 0
M  V30 103 C 9.8316 -0.199459 -2.2833 0
M  V30 104 C 10.8316 0.605189 -1.48977 0
M  V30 105 O 12.0216 0.425685 -1.68919 0
M  V30 106 C 9.1536 0.723523 -3.33134 0
M  V30 107 H 10.3466 -1.01181 -2.82316 0
M  V30 108 H 7.8996 -0.562485 -1.45828 0
M  V30 109 H 8.6346 1.56008 -2.84309 0
M  V30 110 H 8.4196 0.148436 -3.91819 0
M  V30 111 H 9.9096 1.13344 -4.01924 0
M  V30 112 N 10.3467 1.47872 -0.545128 0
M  V30 113 C 11.7577 1.86384 -0.108581 0
M  V30 114 C 12.1087 1.45309 1.31832 0
M  V30 115 O 11.2337 0.850641 1.9898 0
M  V30 116 C 11.8287 3.38265 -0.190274 0
M  V30 117 C 10.3877 3.75914 0.191164 0
M  V30 118 C 9.5347 2.71926 -0.543273 0
M  V30 119 H 12.4857 1.39561 -0.755537 0
M  V30 120 H 12.5067 3.75831 0.594217 0
M  V30 121 H 12.0187 3.6813 -1.2289 0
M  V30 122 H 10.1197 3.51665 1.23136 0
M  V30 123 H 10.2327 4.78836 -0.158987 0
M  V30 124 H 8.5967 2.54697 0.0122495 0
M  V30 125 H 9.3797 3.04634 -1.58282 0
M  V30 126 N 11.8248 0.280983 1.55075 0
M  V30 127 C 12.7878 -0.590896 2.21452 0
M  V30 128 C 13.7878 -1.07682 1.19421 0
M  V30 129 O 14.9778 -0.97605 1.44288 0
M  V30 130 C 12.1098 -1.81587 2.88511 0
M  V30 131 H 13.3028 -0.0112554 2.99898 0
M  V30 132 H 10.8558 0.0316438 1.56268 0
M  V30 133 H 11.5908 -2.43587 2.14093 0
M  V30 134 H 11.3758 -1.4753 3.63287 0
M  V30 135 H 12.8658 -2.43575 3.39206 0
M  V30 136 N 13.3029 -1.57598 0.00835791 0
M  V30 137 C 14.5509 -1.90551 -0.6734 0
M  V30 138 C 14.8719 -0.883301 -1.73847 0
M  V30 139 O 14.1419 0.0781442 -1.95744 0
M  V30 140 H 12.7219 -0.703312 -0.251717 0
M  V30 141 H 15.3839 -1.94833 0.0512592 0
M  V30 142 H 14.4799 -2.9056 -1.13935 0
M  V30 143 N 14.781 0.264519 -1.55364 0
M  V30 144 C 15.744 1.31046 -1.88042 0
M  V30 145 C 16.744 1.41943 -0.755569 0
M  V30 146 O 17.934 1.40947 -1.02369 0
M  V30 147 C 15.066 2.69067 -2.09323 0
M  V30 148 H 16.259 1.03297 -2.81549 0
M  V30 149 H 13.812 0.502989 -1.47986 0
M  V30 150 H 14.547 3.01982 -1.18226 0
M  V30 151 H 14.332 2.62542 -2.91229 0
M  V30 152 H 15.822 3.44623 -2.35848 0
M  V30 153 N 16.2591 1.48442 0.529413 0
M  V30 154 C 17.2061 1.63007 1.63394 0
M  V30 155 C 18.1761 0.47212 1.59249 0
M  V30 156 O 19.3611 0.695673 1.77666 0
M  V30 157 C 16.5011 1.6763 3.01653 0
M  V30 158 C 15.6141 2.94535 3.16027 0
M  V30 159 C 14.7491 2.90316 4.44849 0
M  V30 160 C 13.7881 4.11923 4.52754 0
M  V30 161 N 12.9251 4.05777 5.72965 0
M  V30 162 H 17.7651 2.5733 1.50285 0
M  V30 163 H 15.3021 1.27613 0.731656 0
M  V30 164 H 17.2601 1.68292 3.81751 0
M  V30 165 H 15.8901 0.76797 3.13532 0
M  V30 166 H 14.9421 3.03615 2.29177 0
M  V30 167 H 16.2541 3.84512 3.17729 0
M  V30 168 H 15.4081 2.89382 5.33238 0
M  V30 169 H 14.1471 1.98068 4.45668 0
M  V30 170 H 13.1521 4.13131 3.62771 0
M  V30 171 H 14.3771 5.0533 4.53672 0
M  V30 172 H 12.3231 3.16351 5.74681 0
M  V30 173 H 12.2401 4.8946 5.76164 0
M  V30 174 H 13.5081 4.08904 6.6364 0
M  V30 175 N 17.7372 -0.778329 1.37039 0
M  V30 176 C 18.9772 -1.54973 1.33276 0
M  V30 177 C 19.3412 -1.91816 -0.0839376 0
M  V30 178 O 20.5422 -2.6767 -0.246228 0
M  V30 179 C 18.8132 -2.78517 2.23971 0
M  V30 180 S 20.3722 -3.6865 2.37997 0
M  V30 181 H 17.1902 -0.530639 0.473226 0
M  V30 182 H 19.7922 -0.915806 1.72723 0
M  V30 183 H 18.4962 -2.4952 3.25835 0
M  V30 184 H 18.0272 -3.46875 1.85584 0
M  V30 185 H 20.0422 -4.70182 1.58567 0
M  V30 186 N 19.2153 -1.21501 -1.00376 0
M  V30 187 C 20.6313 -0.972629 -1.26539 0
M  V30 188 C 20.8313 0.340257 -1.98606 0
M  V30 189 O 19.8873 1.06561 -2.28913 0
M  V30 190 C 21.2003 -2.16404 -2.08781 0
M  V30 191 C 22.7483 -2.20643 -2.22004 0
M  V30 192 C 23.2233 -3.39306 -3.07629 0
M  V30 193 N 24.7143 -3.39401 -3.15217 0
M  V30 194 C 25.4493 -4.27867 -3.81729 0
M  V30 195 N 24.9453 -5.26533 -4.5026 0
M  V30 196 N 26.7383 -4.15672 -3.78382 0
M  V30 197 H 18.8893 -2.05929 -0.520281 0
M  V30 198 H 21.1523 -0.901803 -0.292328 0
M  V30 199 H 20.8583 -3.11554 -1.63178 0
M  V30 200 H 20.7323 -2.15567 -3.09533 0
M  V30 201 H 23.1193 -1.26048 -2.66825 0
M  V30 202 H 23.2003 -2.25523 -1.20718 0
M  V30 203 H 22.8443 -4.34195 -2.63509 0
M  V30 204 H 22.7743 -3.31665 -4.09031 0
M  V30 205 H 25.2653 -2.67997 -2.66432 0
M  V30 206 H 25.5783 -5.90337 -4.98721 0
M  V30 207 H 23.9233 -5.30457 -4.49044 0
M  V30 208 H 27.1143 -3.3785 -3.23998 0
M  V30 209 H 27.2873 -4.84825 -4.2994 0
M  V30 210 N 20.6934 1.19889 -1.02296 0
M  V30 211 C 21.6234 2.25141 -0.619174 0
M  V30 212 C 22.6044 1.66051 0.368915 0
M  V30 213 O 23.7894 1.92546 0.252941 0
M  V30 214 C 20.9194 3.4728 0.0368783 0
M  V30 215 C 19.8734 4.19005 -0.872865 0
M  V30 216 C 19.1994 5.34637 -0.0822402 0
M  V30 217 C 20.4994 4.74452 -2.18387 0
M  V30 218 H 22.1934 2.59171 -1.49903 0
M  V30 219 H 19.7394 1.24579 -0.722222 0
M  V30 220 H 21.6924 4.20098 0.330958 0
M  V30 221 H 20.4164 3.12433 0.95149 0
M  V30 222 H 19.0754 3.48061 -1.15105 0
M  V30 223 H 18.7234 4.96034 0.83422 0
M  V30 224 H 18.4234 5.83557 -0.688149 0
M  V30 225 H 19.9474 6.10255 0.205238 0
M  V30 226 H 21.3614 5.39055 -1.95172 0
M  V30 227 H 19.7584 5.33834 -2.74119 0
M  V30 228 H 20.8284 3.92844 -2.84257 0
M  V30 229 N 22.1715 0.800033 1.35784 0
M  V30 230 C 23.4175 0.377901 1.99248 0
M  V30 231 C 23.7505 -1.05052 1.63333 0
M  V30 232 O 23.0255 -1.72768 0.893385 0
M  V30 233 C 23.3085 0.553922 3.55814 0
M  V30 234 C 23.1615 2.0268 4.01548 0
M  V30 235 C 24.4805 -0.0244802 4.40093 0
M  V30 236 H 21.5995 0.138782 0.723815 0
M  V30 237 H 24.2415 1.00835 1.61035 0
M  V30 238 H 22.3915 0.0172398 3.88496 0
M  V30 239 H 24.0635 2.62536 3.79305 0
M  V30 240 H 22.3065 2.5256 3.52698 0
M  V30 241 H 22.9775 2.10087 5.10458 0
M  V30 242 H 25.4535 0.433775 4.13833 0
M  V30 243 H 24.3295 0.128637 5.48749 0
M  V30 244 H 24.5905 -1.11758 4.27741 0
M  V30 245 N 23.6496 -1.47581 0.552962 0
M  V30 246 C 24.5596 -2.33743 -0.200353 0
M  V30 247 C 25.5756 -1.47928 -0.916151 0
M  V30 248 O 26.7516 -1.80865 -0.885993 0
M  V30 249 C 23.8166 -3.24536 -1.21973 0
M  V30 250 C 22.8776 -4.26238 -0.511819 0
M  V30 251 C 22.1106 -5.12693 -1.48263 0
M  V30 252 O 22.3336 -5.01525 -2.71714 0
M  V30 253 O 21.2676 -5.93375 -1.00945 0
M  V30 254 H 25.0936 -2.9945 0.506304 0
M  V30 255 H 22.6786 -1.46071 0.313622 0
M  V30 256 H 24.5606 -3.80631 -1.80827 0
M  V30 257 H 23.2356 -2.61462 -1.90839 0
M  V30 258 H 22.1426 -3.73914 0.117799 0
M  V30 259 H 23.4756 -4.92014 0.135308 0
M  V30 260 N 25.1277 -0.289203 -1.54924 0
M  V30 261 C 26.3557 0.326463 -2.04308 0
M  V30 262 C 26.7707 1.48413 -1.16701 0
M  V30 263 O 26.1277 1.81507 -0.190087 0
M  V30 264 C 26.1787 0.794014 -3.52672 0
M  V30 265 O 25.8997 -0.317564 -4.36948 0
M  V30 266 C 27.4007 1.47605 -4.18004 0
M  V30 267 H 24.6207 0.0726272 -0.667058 0
M  V30 268 H 27.1647 -0.425401 -2.00026 0
M  V30 269 H 25.3197 1.49593 -3.57352 0
M  V30 270 H 25.7337 0.0443186 -5.24481 0
M  V30 271 H 27.2077 1.75447 -5.23376 0
M  V30 272 H 27.6847 2.41224 -3.67025 0
M  V30 273 H 28.2907 0.81762 -4.17367 0
M  V30 274 N 26.6058 1.57591 -0.0167156 0
M  V30 275 C 27.5358 2.12496 0.967858 0
M  V30 276 C 28.5168 1.03807 1.34752 0
M  V30 277 O 29.7018 1.31577 1.42833 0
M  V30 278 C 26.8318 2.64194 2.25431 0
M  V30 279 C 25.7858 3.77559 2.01576 0
M  V30 280 C 25.1118 4.15636 3.36379 0
M  V30 281 C 26.4118 5.04151 1.36489 0
M  V30 282 H 28.1058 2.95013 0.510643 0
M  V30 283 H 25.6518 1.41915 0.244181 0
M  V30 284 H 27.6048 3.01236 2.94678 0
M  V30 285 H 26.3288 1.78821 2.73296 0
M  V30 286 H 24.9878 3.40937 1.34751 0
M  V30 287 H 24.6358 3.27263 3.81979 0
M  V30 288 H 24.3358 4.92022 3.21229 0
M  V30 289 H 25.8598 4.5525 4.06915 0
M  V30 290 H 27.2738 5.38857 1.95718 0
M  V30 291 H 25.6708 5.85453 1.31776 0
M  V30 292 H 26.7408 4.83733 0.336219 0
M  V30 293 N 28.0839 -0.256276 1.55502 0
M  V30 294 C 29.4949 -0.826068 1.67431 0
M  V30 295 C 29.8459 -1.86396 0.612446 0
M  V30 296 O 28.9709 -2.15031 -0.243025 0
M  V30 297 C 29.5659 -1.50512 3.03532 0
M  V30 298 C 28.1249 -2.02273 3.17431 0
M  V30 299 C 27.2719 -0.870548 2.63281 0
M  V30 300 H 30.2229 -0.0322728 1.58667 0
M  V30 301 H 30.2439 -2.37279 2.97454 0
M  V30 302 H 29.7559 -0.749484 3.80794 0
M  V30 303 H 27.8569 -2.80746 2.44974 0
M  V30 304 H 27.9699 -2.22655 4.24219 0
M  V30 305 H 26.3339 -1.26851 2.20864 0
M  V30 306 H 27.1169 -0.128149 3.43061 0
M  V30 307 N 29.562 -1.4872 -0.521534 0
M  V30 308 C 30.472 -1.66569 -1.65203 0
M  V30 309 C 31.488 -0.548197 -1.65139 0
M  V30 310 O 32.664 -0.820339 -1.83936 0
M  V30 311 C 29.729 -1.70917 -3.01642 0
M  V30 312 C 28.79 -2.94356 -3.12495 0
M  V30 313 C 28.023 -2.98487 -4.42426 0
M  V30 314 O 28.246 -2.10786 -5.30024 0
M  V30 315 O 27.18 -3.90746 -4.57822 0
M  V30 316 H 31.006 -2.62298 -1.5308 0
M  V30 317 H 28.591 -1.3222 -0.695565 0
M  V30 318 H 30.473 -1.7625 -3.82771 0
M  V30 319 H 29.148 -0.783633 -3.14071 0
M  V30 320 H 28.055 -2.94552 -2.3063 0
M  V30 321 H 29.388 -3.86322 -3.04986 0
M  V30 322 N 31.0401 0.771051 -1.3745 0
M  V30 323 C 31.9881 1.90574 -1.33358 0
M  V30 324 C 32.9821 1.67936 -0.22224 0
M  V30 325 O 34.1881 1.75717 -0.390304 0
M  V30 326 H 30.5631 0.626714 -0.415612 0
M  V30 327 H 32.5341 1.91142 -2.29144 0
M  V30 328 C 31.2831 3.27845 -1.15813 0
M  V30 329 H 30.6061 3.45842 -2.00583 0
M  V30 330 H 32.0461 4.07538 -1.17 0
M  V30 331 C 30.5051 3.36625 0.136165 0
M  V30 332 O 31.0351 3.85785 1.11949 0
M  V30 333 N 29.2411 2.89997 0.187099 0
M  V30 334 H 28.7881 2.50182 -0.613753 0
M  V30 335 H 28.7461 2.96252 1.05272 0
M  V30 336 N 32.5182 1.22032 0.997298 0
M  V30 337 C 33.4512 0.929735 2.08401 0
M  V30 338 C 34.4292 -0.125681 1.62114 0
M  V30 339 O 35.6132 0.00495409 1.88499 0
M  V30 340 C 32.7402 0.397488 3.3636 0
M  V30 341 C 31.7862 1.4369 4.01566 0
M  V30 342 S 32.6192 3.00874 4.42984 0
M  V30 343 C 33.7752 2.49276 5.74119 0
M  V30 344 H 34.0082 1.84998 2.32729 0
M  V30 345 H 31.5412 1.0509 1.13117 0
M  V30 346 H 33.4992 0.0969846 4.10385 0
M  V30 347 H 32.1602 -0.501571 3.10069 0
M  V30 348 H 31.3532 1.01427 4.93689 0
M  V30 349 H 30.9552 1.68588 3.33847 0
M  V30 350 H 33.2472 1.90242 6.50242 0
M  V30 351 H 34.1902 3.39872 6.21203 0
M  V30 352 H 34.5982 1.90714 5.31308 0
M  V30 353 N 33.9963 -1.19345 1.0293 0
M  V30 354 C 35.2733 -1.84811 0.640642 0
M  V30 355 C 35.6533 -1.91855 -0.88062 0
M  V30 356 O 35.0013 -1.43587 -1.7775 0
M  V30 357 C 35.2113 -3.23755 1.30321 0
M  V30 358 C 36.5593 -3.99912 1.42673 0
M  V30 359 O 37.5833 -3.33155 1.26041 0
M  V30 360 O 36.4423 -5.19494 1.6967 0
M  V30 361 H 33.5363 -0.796443 0.222726 0
M  V30 362 H 36.0823 -1.26831 1.12748 0
M  V30 363 H 34.8543 -3.13466 2.34211 0
M  V30 364 H 34.4773 -3.89381 0.804261 0
M  V30 365 N 35.4744 -0.807222 -1.35358 0
M  V30 366 C 36.7214 -0.387888 -1.9875 0
M  V30 367 C 37.0494 1.04509 -1.64037 0
M  V30 368 O 36.3044 1.73986 -0.895946 0
M  V30 369 C 36.6034 -0.519036 -3.53611 0
M  V30 370 C 36.2694 -1.91542 -4.08194 0
M  V30 371 C 34.9314 -2.29745 -4.22813 0
M  V30 372 C 37.2834 -2.82896 -4.37744 0
M  V30 373 C 34.6114 -3.58668 -4.643 0
M  V30 374 C 36.9634 -4.11265 -4.8067 0
M  V30 375 C 35.6274 -4.49466 -4.93494 0
M  V30 376 H 34.8974 -0.141938 -0.727279 0
M  V30 377 H 37.5444 -1.02814 -1.6156 0
M  V30 378 H 35.8494 0.204658 -3.91265 0
M  V30 379 H 37.5464 -0.175345 -4.00616 0
M  V30 380 H 34.1364 -1.60862 -3.97268 0
M  V30 381 H 38.3204 -2.54629 -4.26002 0
M  V30 382 H 33.5764 -3.88113 -4.72418 0
M  V30 383 H 37.7504 -4.82153 -5.02496 0
M  V30 384 H 35.3774 -5.49418 -5.25399 0
M  V30 385 N 36.9525 1.47285 -0.560781 0
M  V30 386 C 38.3685 1.58065 -0.22081 0
M  V30 387 C 38.5685 1.55892 1.27671 0
M  V30 388 O 37.6245 1.46422 2.0571 0
M  V30 389 C 38.9375 2.88418 -0.850625 0
M  V30 390 C 40.4855 3.02009 -0.822184 0
M  V30 391 C 40.9605 4.35066 -1.43113 0
M  V30 392 N 42.4515 4.41711 -1.39448 0
M  V30 393 C 43.1865 5.43237 -1.83525 0
M  V30 394 N 42.6825 6.51555 -2.35474 0
M  V30 395 N 44.4755 5.34304 -1.74574 0
M  V30 396 H 36.6265 1.46941 -1.53369 0
M  V30 397 H 38.8895 0.699558 -0.639783 0
M  V30 398 H 38.5955 2.95755 -1.9032 0
M  V30 399 H 38.4695 3.75612 -0.345773 0
M  V30 400 H 40.8565 2.94266 0.221714 0
M  V30 401 H 40.9375 2.16347 -1.36483 0
M  V30 402 H 40.5815 4.43565 -2.47412 0
M  V30 403 H 40.5115 5.19465 -0.863899 0
M  V30 404 H 43.0025 3.64027 -1.01452 0
M  V30 405 H 43.3155 7.25203 -2.67021 0
M  V30 406 H 41.6605 6.52435 -2.39487 0
M  V30 407 H 44.8515 4.48581 -1.33763 0
M  V30 408 H 45.0245 6.13288 -2.09242 0
M  V30 409 N 38.4306 0.297415 1.54768 0
M  V30 410 C 39.6556 -0.318435 2.04941 0
M  V30 411 C 40.0806 -1.4701 1.17345 0
M  V30 412 O 39.4386 -1.80436 0.176758 0
M  V30 413 C 39.4866 -0.755749 3.52592 0
M  V30 414 O 38.5906 -1.86088 3.68028 0
M  V30 415 H 37.9316 -0.062421 0.661059 0
M  V30 416 H 40.4616 0.438215 1.99852 0
M  V30 417 H 40.4716 -1.04552 3.94376 0
M  V30 418 H 39.1466 0.0867233 4.1581 0
M  V30 419 H 37.7236 -1.57193 3.38149 0
M  V30 420 N 39.9087 -1.5758 0.0250728 0
M  V30 421 C 41.1857 -1.82917 -0.692873 0
M  V30 422 C 41.5657 -0.908137 -1.90568 0
M  V30 423 O 40.9137 0.0372298 -2.2847 0
M  V30 424 C 41.1237 -3.32034 -1.07492 0
M  V30 425 C 42.4717 -3.98406 -1.46826 0
M  V30 426 O 43.4957 -3.36505 -1.16801 0
M  V30 427 O 42.3547 -5.07497 -2.02754 0
M  V30 428 H 39.4487 -0.754079 -0.33955 0
M  V30 429 H 41.9947 -1.69619 0.0524456 0
M  V30 430 H 40.7667 -3.90728 -0.211552 0
M  V30 431 H 40.3897 -3.50424 -1.87854 0
M  V30 432 N 41.3868 0.248026 -1.55636 0
M  V30 433 C 42.3368 1.30994 -1.86614 0
M  V30 434 C 43.3208 1.43543 -0.726918 0
M  V30 435 O 44.5128 1.46804 -0.988818 0
M  V30 436 C 41.6418 2.6656 -2.16335 0
M  V30 437 C 40.7278 2.58019 -3.36581 0
M  V30 438 N 41.1188 2.1911 -4.55878 0
M  V30 439 C 39.4168 2.89035 -3.39669 0
M  V30 440 C 40.1178 2.21174 -5.38012 0
M  V30 441 N 39.0938 2.60632 -4.77045 0
M  V30 442 H 42.8958 0.999583 -2.76379 0
M  V30 443 H 40.4098 0.456652 -1.55848 0
M  V30 444 H 42.4068 3.43194 -2.36692 0
M  V30 445 H 41.0668 2.98463 -1.27867 0
M  V30 446 H 42.0778 1.90672 -4.81523 0
M  V30 447 H 38.7548 3.25485 -2.61469 0
M  V30 448 H 40.1448 1.9344 -6.43452 0
M  V30 449 N 42.8649 1.48995 0.513639 0
M  V30 450 C 43.7949 1.67636 1.62544 0
M  V30 451 C 44.7759 0.525087 1.61793 0
M  V30 452 O 45.9609 0.759502 1.78732 0
M  V30 453 C 43.0909 1.73114 3.01079 0
M  V30 454 C 42.0449 2.87905 3.16693 0
M  V30 455 C 41.3709 2.78486 4.56453 0
M  V30 456 C 42.6709 4.29005 2.97913 0
M  V30 457 H 44.3649 2.60716 1.47198 0
M  V30 458 H 41.9109 1.25465 0.706714 0
M  V30 459 H 43.8639 1.84742 3.78746 0
M  V30 460 H 42.5879 0.766241 3.17484 0
M  V30 461 H 41.2469 2.75859 2.41448 0
M  V30 462 H 40.8949 1.7993 4.69717 0
M  V30 463 H 40.5949 3.55523 4.67843 0
M  V30 464 H 42.1189 2.92104 5.36197 0
M  V30 465 H 43.5329 4.41798 3.65359 0
M  V30 466 H 41.9299 5.07166 3.20785 0
M  V30 467 H 42.9999 4.44329 1.94165 0
M  V30 468 N 44.343 -0.763751 1.37857 0
M  V30 469 C 45.571 -1.55293 1.36718 0
M  V30 470 C 45.986 -1.88745 -0.0455434 0
M  V30 471 O 45.343 -1.52039 -1.00947 0
M  V30 472 C 45.394 -2.85831 2.2132 0
M  V30 473 O 45.115 -2.5381 3.57089 0
M  V30 474 C 46.616 -3.80023 2.28249 0
M  V30 475 H 43.836 -0.480841 0.468009 0
M  V30 476 H 46.38 -0.946009 1.81303 0
M  V30 477 H 44.535 -3.42926 1.80223 0
M  V30 478 H 44.949 -3.37459 4.01524 0
M  V30 479 H 46.423 -4.68599 2.91752 0
M  V30 480 H 46.9 -4.1973 1.2932 0
M  V30 481 H 47.506 -3.28855 2.69693 0
M  V30 482 N 45.8211 -1.22559 -0.990812 0
M  V30 483 C 47.0491 -1.07779 -1.76611 0
M  V30 484 C 47.4641 0.371513 -1.85109 0
M  V30 485 O 46.8211 1.25737 -1.32274 0
M  V30 486 C 46.8721 -1.68512 -3.19822 0
M  V30 487 O 46.5931 -3.07774 -3.1178 0
M  V30 488 C 48.0941 -1.59035 -4.13791 0
M  V30 489 H 45.3141 -0.377729 -0.554583 0
M  V30 490 H 47.8581 -1.62195 -1.24551 0
M  V30 491 H 46.0131 -1.18154 -3.68942 0
M  V30 492 H 46.4271 -3.37062 -4.01858 0
M  V30 493 H 47.9011 -2.0625 -5.1202 0
M  V30 494 H 48.3781 -0.547273 -4.35777 0
M  V30 495 H 48.9841 -2.08709 -3.70568 0
M  V30 496 N 47.2992 1.18797 -1.03562 0
M  V30 497 C 48.5462 1.8865 -0.736023 0
M  V30 498 C 48.8742 1.80041 0.735889 0
M  V30 499 O 48.1292 1.19179 1.55225 0
M  V30 500 C 48.4282 3.38692 -1.14117 0
M  V30 501 C 48.0942 3.67504 -2.6125 0
M  V30 502 C 46.7562 3.75078 -3.01447 0
M  V30 503 C 49.1082 3.80293 -3.56408 0
M  V30 504 C 46.4362 3.92915 -4.35701 0
M  V30 505 C 48.7882 3.99645 -4.90374 0
M  V30 506 C 47.4522 4.05453 -5.30249 0
M  V30 507 H 46.7222 0.690321 -0.26933 0
M  V30 508 H 49.3692 1.40641 -1.29971 0
M  V30 509 H 47.6742 3.88645 -0.496202 0
M  V30 510 H 49.3712 3.91072 -0.886789 0
M  V30 511 H 45.9612 3.62223 -2.29113 0
M  V30 512 H 50.1452 3.73779 -3.26501 0
M  V30 513 H 45.4012 3.95653 -4.66121 0
M  V30 514 H 49.5752 4.08482 -5.64017 0
M  V30 515 H 47.2022 4.19027 -6.34288 0
M  V30 516 N 48.7773 0.814389 1.34928 0
M  V30 517 C 49.6873 0.231978 2.3345 0
M  V30 518 C 50.7033 -0.629139 1.62228 0
M  V30 519 O 51.8793 -0.539052 1.94052 0
M  V30 520 C 48.9443 -0.603482 3.41407 0
M  V30 521 C 48.0053 0.279037 4.28392 0
M  V30 522 C 47.2383 -0.516643 5.31193 0
M  V30 523 O 47.4613 -1.75068 5.4287 0
M  V30 524 O 46.3953 0.0965652 6.01823 0
M  V30 525 H 50.2213 1.04721 2.85074 0
M  V30 526 H 47.8063 0.576343 1.37836 0
M  V30 527 H 49.6883 -1.07908 4.0735 0
M  V30 528 H 48.3633 -1.39618 2.92042 0
M  V30 529 H 47.2703 0.801948 3.65403 0
M  V30 530 H 48.6033 1.03588 4.81176 0
M  V30 531 N 50.2554 -1.46986 0.568584 0
M  V30 532 C 51.4954 -2.04336 0.0512999 0
M  V30 533 C 51.8594 -1.43214 -1.27881 0
M  V30 534 O 53.0604 -1.91679 -1.88448 0
M  V30 535 C 51.3314 -3.57389 -0.0282328 0
M  V30 536 S 52.8904 -4.36056 -0.489991 0
M  V30 537 H 49.7084 -0.71034 0.0306349 0
M  V30 538 H 52.3104 -1.80212 0.757891 0
M  V30 539 H 51.0144 -3.99395 0.944011 0
M  V30 540 H 50.5454 -3.86028 -0.75803 0
M  V30 541 H 52.5604 -4.6441 -1.74752 0
M  V30 542 N 51.7335 -0.305618 -1.54608 0
M  V30 543 C 52.9805 0.302298 -2.00231 0
M  V30 544 C 53.3085 1.5354 -1.19398 0
M  V30 545 O 52.5635 1.93973 -0.259423 0
M  V30 546 C 52.8625 0.698983 -3.50498 0
M  V30 547 C 52.5285 -0.432903 -4.48817 0
M  V30 548 C 51.1905 -0.743622 -4.75419 0
M  V30 549 C 53.5425 -1.19409 -5.07337 0
M  V30 550 C 50.8705 -1.81857 -5.57804 0
M  V30 551 C 53.2225 -2.25899 -5.90891 0
M  V30 552 C 51.8865 -2.57572 -6.15803 0
M  V30 553 H 51.1565 0.110619 -0.732697 0
M  V30 554 H 53.8035 -0.425674 -1.86709 0
M  V30 555 H 52.1085 1.50711 -3.61654 0
M  V30 556 H 53.8055 1.1806 -3.83227 0
M  V30 557 H 50.3955 -0.18063 -4.28219 0
M  V30 558 H 54.5795 -0.967295 -4.86782 0
M  V30 559 H 49.8355 -2.06864 -5.75341 0
M  V30 560 H 54.0095 -2.85335 -6.35261 0
M  V30 561 H 51.6365 -3.40998 -6.7943 0
M  V30 562 N 53.2116 1.57565 -0.0334293 0
M  V30 563 C 54.1596 2.1164 0.96496 0
M  V30 564 C 55.1536 1.04398 1.33407 0
M  V30 565 O 56.3596 1.22828 1.3158 0
M  V30 566 H 52.7346 0.676222 0.32898 0
M  V30 567 H 54.7056 2.94455 0.483614 0
M  V30 568 C 53.4546 2.66207 2.23672 0
M  V30 569 H 52.7776 3.48378 1.96145 0
M  V30 570 H 54.2176 3.07685 2.9173 0
M  V30 571 C 52.6766 1.59151 2.96939 0
M  V30 572 O 53.2066 0.993858 3.89211 0
M  V30 573 N 51.4126 1.31093 2.59351 0
M  V30 574 H 50.9596 1.7988 1.84393 0
M  V30 575 H 50.9176 0.596889 3.08682 0
M  V30 576 N 54.6897 -0.239769 1.55765 0
M  V30 577 C 55.5997 -1.31831 1.94056 0
M  V30 578 C 56.6157 -1.52275 0.841925 0
M  V30 579 O 57.7917 -1.65759 1.14394 0
M  V30 580 C 54.8567 -2.65156 2.23368 0
M  V30 581 C 53.9177 -2.53173 3.46701 0
M  V30 582 C 53.1507 -3.8014 3.74606 0
M  V30 583 O 53.3737 -4.82343 3.04469 0
M  V30 584 O 52.3077 -3.78344 4.68123 0
M  V30 585 H 56.1337 -1.02347 2.85935 0
M  V30 586 H 53.7187 -0.441123 1.42739 0
M  V30 587 H 55.6007 -3.43929 2.43497 0
M  V30 588 H 54.2757 -2.94358 1.34666 0
M  V30 589 H 53.1827 -1.72662 3.31871 0
M  V30 590 H 54.5157 -2.28915 4.35728 0
M  V30 591 N 56.1678 -1.49265 -0.50573 0
M  V30 592 C 57.4168 -1.57761 -1.25675 0
M  V30 593 C 57.7298 -0.267371 -1.93764 0
M  V30 594 O 58.9358 -0.230827 -2.70517 0
M  V30 595 C 57.3918 -2.78332 -2.28165 0
M  V30 596 C 56.9998 -4.16096 -1.66037 0
M  V30 597 C 58.7438 -2.96155 -3.04125 0
M  V30 598 C 56.6508 -5.27895 -2.6661 0
M  V30 599 H 55.5808 -0.587391 -0.472745 0
M  V30 600 H 58.2318 -1.75644 -0.53118 0
M  V30 601 H 56.6138 -2.53934 -3.03865 0
M  V30 602 H 57.7878 -4.50612 -0.963622 0
M  V30 603 H 56.1028 -4.03591 -1.02484 0
M  V30 604 H 58.6998 -3.76849 -3.79327 0
M  V30 605 H 59.0428 -2.06534 -3.61455 0
M  V30 606 H 59.5758 -3.2057 -2.35541 0
M  V30 607 H 56.3148 -6.1956 -2.14068 0
M  V30 608 H 55.8348 -4.97839 -3.34539 0
M  V30 609 H 57.5138 -5.57031 -3.29129 0
M  V30 610 N 57.6459 0.756429 -1.3826 0
M  V30 611 C 58.8949 1.51082 -1.3363 0
M  V30 612 C 59.2079 1.95467 0.0720068 0
M  V30 613 O 60.4139 2.7043 0.240834 0
M  V30 614 C 58.8699 2.72893 -2.34644 0
M  V30 615 C 58.4779 2.35544 -3.81081 0
M  V30 616 C 60.2219 3.50791 -2.39052 0
M  V30 617 C 58.1289 3.53948 -4.73787 0
M  V30 618 H 57.0589 0.56727 -0.49671 0
M  V30 619 H 59.7099 0.827147 -1.638 0
M  V30 620 H 58.0919 3.43227 -1.97513 0
M  V30 621 H 59.2659 1.72894 -4.27135 0
M  V30 622 H 57.5809 1.70786 -3.79764 0
M  V30 623 H 60.1779 4.38823 -3.05513 0
M  V30 624 H 60.5209 3.91745 -1.40861 0
M  V30 625 H 61.0539 2.87467 -2.74968 0
M  V30 626 H 57.7929 3.18064 -5.73163 0
M  V30 627 H 57.3129 4.15651 -4.32428 0
M  V30 628 H 58.9919 4.20566 -4.91663 0
M  V30 629 N 59.124 1.23083 0.984299 0
M  V30 630 C 60.352 1.08714 1.76037 0
M  V30 631 C 60.767 -0.361691 1.85303 0
M  V30 632 O 60.124 -1.25034 1.32939 0
M  V30 633 C 60.175 1.70206 3.18923 0
M  V30 634 O 59.896 3.09423 3.10144 0
M  V30 635 C 61.397 1.61227 4.12941 0
M  V30 636 H 58.617 0.380664 0.552572 0
M  V30 637 H 61.161 1.62853 1.23689 0
M  V30 638 H 59.316 1.20109 3.6831 0
M  V30 639 H 59.73 3.39188 4.00065 0
M  V30 640 H 61.204 2.08962 5.10919 0
M  V30 641 H 61.681 0.570375 4.35481 0
M  V30 642 H 62.287 2.10671 3.69456 0
M  V30 643 N 60.6021 -1.18246 1.0419 0
M  V30 644 C 61.5321 -2.24127 0.654914 0
M  V30 645 C 62.5131 -1.66617 -0.342451 0
M  V30 646 O 63.6981 -1.92924 -0.222277 0
M  V30 647 C 60.8281 -3.47295 0.0183757 0
M  V30 648 C 59.7821 -4.17563 0.939414 0
M  V30 649 C 59.1081 -5.34438 0.167286 0
M  V30 650 C 60.4081 -4.70917 2.25908 0
M  V30 651 H 62.1021 -2.56753 1.54007 0
M  V30 652 H 59.6481 -1.23414 0.74195 0
M  V30 653 H 61.6011 -4.20572 -0.264082 0
M  V30 654 H 60.3251 -3.13907 -0.901664 0
M  V30 655 H 58.9841 -3.46186 1.20628 0
M  V30 656 H 58.6321 -4.97298 -0.7552 0
M  V30 657 H 58.3321 -5.82388 0.780901 0
M  V30 658 H 59.8561 -6.10504 -0.108125 0
M  V30 659 H 61.2701 -5.35882 2.03724 0
M  V30 660 H 59.6671 -5.29406 2.82577 0
M  V30 661 H 60.7371 -3.88272 2.9047 0
M  V30 662 N 62.0802 -0.821533 -1.34494 0
M  V30 663 C 63.0432 -0.247847 -2.27856 0
M  V30 664 C 64.0432 0.573453 -1.50227 0
M  V30 665 O 65.2332 0.389759 -1.69784 0
M  V30 666 C 62.3652 0.652698 -3.34593 0
M  V30 667 H 63.5582 -1.07146 -2.80107 0
M  V30 668 H 61.1112 -0.593291 -1.44602 0
M  V30 669 H 61.8462 1.49943 -2.87555 0
M  V30 670 H 61.6312 0.065292 -3.92046 0
M  V30 671 H 63.1212 1.04793 -4.04238 0
M  V30 672 N 63.5583 1.46682 -0.576371 0
M  V30 673 C 64.5053 2.30241 0.160499 0
M  V30 674 C 65.4753 1.40233 0.890162 0
M  V30 675 O 66.6603 1.69186 0.882084 0
M  V30 676 C 63.8003 3.24578 1.1723 0
M  V30 677 C 62.9133 4.29684 0.446736 0
M  V30 678 C 62.0483 5.11154 1.44551 0
M  V30 679 C 61.0873 6.08015 0.70599 0
M  V30 680 N 60.2243 6.82376 1.65251 0
M  V30 681 H 65.0643 2.92727 -0.558127 0
M  V30 682 H 62.6013 1.44272 -0.287056 0
M  V30 683 H 64.5593 3.77711 1.77172 0
M  V30 684 H 63.1893 2.63916 1.85872 0
M  V30 685 H 62.2413 3.79458 -0.267594 0
M  V30 686 H 63.5533 4.98626 -0.131686 0
M  V30 687 H 62.7073 5.68533 2.11791 0
M  V30 688 H 61.4463 4.42158 2.05786 0
M  V30 689 H 60.4513 5.49796 0.0197725 0
M  V30 690 H 61.6763 6.79028 0.09912 0
M  V30 691 H 59.6223 6.16094 2.25308 0
M  V30 692 H 59.5393 7.47556 1.12673 0
M  V30 693 H 60.8073 7.44316 2.31546 0
M  V30 694 N 65.0364 0.313813 1.54444 0
M  V30 695 C 65.9834 -0.55655 2.23989 0
M  V30 696 C 66.9534 -1.11943 1.22711 0
M  V30 697 O 68.1384 -1.16158 1.51367 0
M  V30 698 C 65.2784 -1.71635 2.99392 0
M  V30 699 C 64.3914 -1.18364 4.15468 0
M  V30 700 C 63.5264 -2.30834 4.78424 0
M  V30 701 C 62.5654 -1.74762 5.86622 0
M  V30 702 N 61.7024 -2.80855 6.43479 0
M  V30 703 H 66.5424 0.0430893 2.97969 0
M  V30 704 H 64.0794 0.0330359 1.47063 0
M  V30 705 H 66.0374 -2.39868 3.41349 0
M  V30 706 H 64.6674 -2.28742 2.27765 0
M  V30 707 H 63.7194 -0.393163 3.78363 0
M  V30 708 H 65.0314 -0.733262 4.93381 0
M  V30 709 H 64.1854 -3.0699 5.23299 0
M  V30 710 H 62.9244 -2.79204 3.99871 0
M  V30 711 H 61.9294 -0.970995 5.41158 0
M  V30 712 H 63.1544 -1.2728 6.67066 0
M  V30 713 H 61.1004 -3.28535 5.67804 0
M  V30 714 H 61.0174 -2.40351 7.16776 0
M  V30 715 H 62.2854 -3.5687 6.93011 0
M  V30 716 N 66.5145 -1.57545 0.0417849 0
M  V30 717 C 67.7445 -1.96339 -0.642995 0
M  V30 718 C 68.1525 -0.917536 -1.65463 0
M  V30 719 O 67.4955 0.107747 -1.83384 0
M  V30 720 C 67.5575 -3.31333 -1.39494 0
M  V30 721 C 67.2215 -4.53796 -0.540204 0
M  V30 722 C 68.2185 -5.19553 0.189806 0
M  V30 723 C 65.9035 -5.0006 -0.473886 0
M  V30 724 C 67.8975 -6.29904 0.974674 0
M  V30 725 C 65.5845 -6.10289 0.314677 0
M  V30 726 C 66.5825 -6.75072 1.03765 0
M  V30 727 O 66.2705 -7.83183 1.81327 0
M  V30 728 H 66.0025 -0.651241 -0.181277 0
M  V30 729 H 68.5565 -2.05148 0.101665 0
M  V30 730 H 66.7865 -3.19052 -2.18502 0
M  V30 731 H 68.4755 -3.54942 -1.96904 0
M  V30 732 H 69.2415 -4.84774 0.147981 0
M  V30 733 H 65.1205 -4.49433 -1.0262 0
M  V30 734 H 68.6645 -6.80401 1.5395 0
M  V30 735 H 64.5615 -6.44506 0.358174 0
M  V30 736 H 65.3295 -7.99913 1.73438 0
M  V30 737 N 67.9926 0.231505 -1.5589 0
M  V30 738 C 69.2416 0.955346 -1.7764 0
M  V30 739 C 69.5546 1.85893 -0.608546 0
M  V30 740 O 70.7606 2.62067 -0.70943 0
M  V30 741 C 69.2166 1.74886 -3.14552 0
M  V30 742 C 68.8246 0.891915 -4.39032 0
M  V30 743 C 70.5686 2.46452 -3.45633 0
M  V30 744 C 68.4756 1.68221 -5.66971 0
M  V30 745 H 67.4056 0.360446 -0.662265 0
M  V30 746 H 70.0566 0.209516 -1.823 0
M  V30 747 H 68.4386 2.53723 -3.04041 0
M  V30 748 H 69.6126 0.144793 -4.60572 0
M  V30 749 H 67.9276 0.288863 -4.15397 0
M  V30 750 H 70.5246 3.06061 -4.38441 0
M  V30 751 H 70.8676 3.18841 -2.67668 0
M  V30 752 H 71.4006 1.74613 -3.57428 0
M  V30 753 H 68.1396 1.00178 -6.478 0
M  V30 754 H 67.6596 2.4042 -5.49507 0
M  V30 755 H 69.3386 2.24544 -6.06786 0
M  V30 756 N 69.4707 1.49531 0.497807 0
M  V30 757 C 70.7007 1.62657 1.27382 0
M  V30 758 C 71.1087 0.298488 1.86831 0
M  V30 759 O 70.4517 -0.72647 1.68725 0
M  V30 760 C 70.5137 2.6393 2.44093 0
M  V30 761 C 70.1777 4.08195 2.05489 0
M  V30 762 C 71.1747 4.949 1.59279 0
M  V30 763 C 68.8597 4.53948 2.15026 0
M  V30 764 C 70.8537 6.25397 1.23113 0
M  V30 765 C 68.5407 5.84458 1.78473 0
M  V30 766 C 69.5387 6.70006 1.32591 0
M  V30 767 O 69.2267 7.98083 0.965327 0
M  V30 768 H 68.9587 0.550429 0.392434 0
M  V30 769 H 71.5127 1.96325 0.603801 0
M  V30 770 H 69.7427 2.25449 3.14181 0
M  V30 771 H 71.4317 2.66552 3.06113 0
M  V30 772 H 72.1977 4.60779 1.51354 0
M  V30 773 H 68.0767 3.87525 2.4969 0
M  V30 774 H 71.6207 6.92125 0.872299 0
M  V30 775 H 67.5177 6.18107 1.86048 0
M  V30 776 H 68.2857 8.11122 1.09652 0
M  V30 777 N 70.9488 -0.749086 1.3866 0
M  V30 778 C 72.1978 -1.50371 1.3443 0
M  V30 779 C 72.5108 -1.95503 -0.0616397 0
M  V30 780 O 73.7168 -2.70554 -0.226489 0
M  V30 781 C 72.1728 -2.71644 2.36088 0
M  V30 782 C 71.7808 -2.3352 3.82325 0
M  V30 783 C 73.5248 -3.49518 2.40909 0
M  V30 784 C 71.4318 -3.51431 4.75658 0
M  V30 785 H 70.3618 -0.564628 0.499712 0
M  V30 786 H 73.0128 -0.818449 1.64237 0
M  V30 787 H 71.3948 -3.42175 1.9933 0
M  V30 788 H 72.5688 -1.70627 4.28046 0
M  V30 789 H 70.8838 -1.6877 3.80665 0
M  V30 790 H 73.4808 -4.37197 3.07836 0
M  V30 791 H 73.8238 -3.90992 1.42937 0
M  V30 792 H 74.3568 -2.86005 2.76489 0
M  V30 793 H 71.0958 -3.15019 5.74842 0
M  V30 794 H 70.6158 -4.13352 4.34627 0
M  V30 795 H 72.2948 -4.17953 4.93887 0
M  V30 796 N 72.4269 -1.23603 -0.977757 0
M  V30 797 C 73.3899 -1.02069 -2.05218 0
M  V30 798 C 74.3899 0.0184305 -1.60789 0
M  V30 799 O 75.5799 -0.221569 -1.72785 0
M  V30 800 C 72.7119 -0.544926 -3.36517 0
M  V30 801 H 73.9049 -1.9742 -2.25755 0
M  V30 802 H 71.4579 -1.05684 -1.15155 0
M  V30 803 H 72.1929 0.412241 -3.21669 0
M  V30 804 H 71.9779 -1.2948 -3.70105 0
M  V30 805 H 73.4679 -0.414985 -4.15533 0
M  V30 806 N 73.905 1.17692 -1.04816 0
M  V30 807 C 75.13 1.92327 -0.776207 0
M  V30 808 C 75.555 1.76082 0.661581 0
M  V30 809 O 74.913 1.076 1.45917 0
M  V30 810 C 74.961 3.41539 -1.15687 0
M  V30 811 O 74.065 4.11402 -0.286775 0
M  V30 812 H 73.406 0.599735 -0.284981 0
M  V30 813 H 75.936 1.49201 -1.4 0
M  V30 814 H 75.946 3.92269 -1.12202 0
M  V30 815 H 74.621 3.52684 -2.20425 0
M  V30 816 H 73.198 3.70939 -0.381903 0
M  V30 817 N 75.3831 0.828654 1.34056 0
M  V30 818 C 76.6301 0.419458 1.98108 0
M  V30 819 C 76.9581 -1.01886 1.65679 0
M  V30 820 O 76.2131 -1.72539 0.923512 0
M  V30 821 C 76.5121 0.575226 3.52741 0
M  V30 822 C 76.1781 1.98012 4.05095 0
M  V30 823 C 74.8401 2.36442 4.19104 0
M  V30 824 C 77.1921 2.89824 4.33188 0
M  V30 825 C 74.5201 3.66009 4.58535 0
M  V30 826 C 76.8721 4.1886 4.74066 0
M  V30 827 C 75.5361 4.5726 4.86281 0
M  V30 828 H 74.8061 0.153491 0.724929 0
M  V30 829 H 77.4531 1.05371 1.59904 0
M  V30 830 H 75.7581 -0.142385 3.91541 0
M  V30 831 H 77.4551 0.239057 4.00287 0
M  V30 832 H 74.0451 1.67162 3.94658 0
M  V30 833 H 78.2291 2.61375 4.21897 0
M  V30 834 H 73.4851 3.95579 4.66184 0
M  V30 835 H 77.6591 4.90086 4.94761 0
M  V30 836 H 75.2861 5.57707 5.16592 0
M  V30 837 N 76.8612 -1.46375 0.584142 0
M  V30 838 C 78.1012 -2.0427 0.0729695 0
M  V30 839 C 78.4652 -1.44563 -1.26355 0
M  V30 840 O 79.6662 -1.93667 -1.86405 0
M  V30 841 C 77.9372 -3.57399 0.00967464 0
M  V30 842 S 79.4962 -4.36551 -0.443714 0
M  V30 843 H 76.3142 -0.709975 0.0381673 0
M  V30 844 H 78.9162 -1.79398 0.776962 0
M  V30 845 H 77.6202 -3.98372 0.986319 0
M  V30 846 H 77.1512 -3.8681 -0.717044 0
M  V30 847 H 79.1662 -4.66237 -1.69816 0
M  V30 848 N 78.3393 -0.321999 -1.54275 0
M  V30 849 C 79.5793 0.281657 -2.0245 0
M  V30 850 C 79.9433 1.49468 -1.20513 0
M  V30 851 O 81.1443 2.17109 -1.58484 0
M  V30 852 C 79.4153 0.609014 -3.52173 0
M  V30 853 S 80.9743 1.19255 -4.22284 0
M  V30 854 H 77.7923 0.0852825 -0.705867 0
M  V30 855 H 80.3943 -0.454758 -1.90137 0
M  V30 856 H 79.0983 -0.281982 -4.0943 0
M  V30 857 H 78.6293 1.37567 -3.68563 0
M  V30 858 H 80.6443 2.47944 -4.29812 0
M  V30 859 N 79.8174 1.5752 -0.0501392 0
M  V30 860 C 80.7654 2.12651 0.942459 0
M  V30 861 C 81.7594 1.05807 1.32292 0
M  V30 862 O 82.9654 1.24217 1.3027 0
M  V30 863 H 79.3404 0.679673 0.321789 0
M  V30 864 H 81.3114 2.94951 0.452356 0
M  V30 865 C 80.0604 2.68565 2.20836 0
M  V30 866 H 79.3834 3.50439 1.92439 0
M  V30 867 H 80.8234 3.10761 2.8845 0
M  V30 868 C 79.2824 1.62291 2.95234 0
M  V30 869 O 79.8124 1.03508 3.88135 0
M  V30 870 N 78.0184 1.33836 2.57946 0
M  V30 871 H 77.5654 1.81826 1.82475 0
M  V30 872 H 77.5234 0.629595 3.08032 0
M  V30 873 N 81.2955 -0.223234 1.56011 0
M  V30 874 C 82.7065 -0.790368 1.69145 0
M  V30 875 C 83.0575 -1.85055 0.651845 0
M  V30 876 O 82.1825 -2.15498 -0.197359 0
M  V30 877 C 82.7775 -1.4404 3.06656 0
M  V30 878 C 81.3365 -1.95494 3.2165 0
M  V30 879 C 80.4835 -0.814506 2.65068 0
M  V30 880 H 83.4345 0.00139011 1.587 0
M  V30 881 H 83.4555 -2.30916 3.0242 0
M  V30 882 H 82.9675 -0.668543 3.82298 0
M  V30 883 H 81.0685 -2.75487 2.50874 0
M  V30 884 H 81.1815 -2.13607 4.28846 0
M  V30 885 H 79.5455 -1.22137 2.23505 0
M  V30 886 H 80.3285 -0.0553515 3.43255 0
M  V30 887 N 82.7736 -1.49793 -0.48987 0
M  V30 888 C 83.7036 -1.70201 -1.59856 0
M  V30 889 C 84.6846 -0.55076 -1.60937 0
M  V30 890 O 85.8696 -0.787841 -1.77501 0
M  V30 891 C 82.9996 -1.77882 -2.98287 0
M  V30 892 C 81.9536 -2.92907 -3.12073 0
M  V30 893 C 81.2796 -2.85712 -4.51965 0
M  V30 894 C 82.5796 -4.3369 -2.91051 0
M  V30 895 H 84.2736 -2.63025 -1.43032 0
M  V30 896 H 81.8196 -1.26574 -0.686664 0
M  V30 897 H 83.7726 -1.90744 -3.75759 0
M  V30 898 H 82.4966 -0.816653 -3.16225 0
M  V30 899 H 81.1556 -2.79665 -2.37029 0
M  V30 900 H 80.8036 -1.8738 -4.66795 0
M  V30 901 H 80.5036 -3.62921 -4.62128 0
M  V30 902 H 82.0276 -3.00598 -5.31482 0
M  V30 903 H 83.4416 -4.47555 -3.58284 0
M  V30 904 H 81.8386 -5.12205 -3.12675 0
M  V30 905 H 82.9086 -4.47362 -1.87071 0
M  V30 906 N 84.2517 0.741722 -1.39055 0
M  V30 907 C 85.4767 1.53607 -1.39354 0
M  V30 908 C 85.9017 1.88096 0.0116905 0
M  V30 909 O 85.2597 1.5143 0.996924 0
M  V30 910 C 85.3077 2.80441 -2.26682 0
M  V30 911 O 84.4117 3.76088 -1.69208 0
M  V30 912 H 83.7527 0.464142 -0.474835 0
M  V30 913 H 86.2827 0.915665 -1.82967 0
M  V30 914 H 86.2927 3.29246 -2.40959 0
M  V30 915 H 84.9677 2.5467 -3.2881 0
M  V30 916 H 83.5447 3.34833 -1.64138 0
M  V30 917 N 85.7298 1.2412 0.971189 0
M  V30 918 C 86.9578 1.10575 1.74874 0
M  V30 919 C 87.3728 -0.342017 1.85676 0
M  V30 920 O 86.7298 -1.23617 1.34258 0
M  V30 921 C 86.7808 1.73579 3.171 0
M  V30 922 O 86.5018 3.12695 3.06844 0
M  V30 923 C 88.0028 1.65598 4.11208 0
M  V30 924 H 85.2228 0.386504 0.548503 0
M  V30 925 H 87.7668 1.64156 1.21955 0
M  V30 926 H 85.9218 1.24009 3.67016 0
M  V30 927 H 86.3358 3.43412 3.96445 0
M  V30 928 H 87.8098 2.1437 5.08674 0
M  V30 929 H 88.2868 0.616532 4.34851 0
M  V30 930 H 88.8928 2.14578 3.67201 0
M  V30 931 N 87.2079 -1.17134 1.05439 0
M  V30 932 C 88.4359 -1.91372 0.786414 0
M  V30 933 C 88.8509 -1.76955 -0.658202 0
M  V30 934 O 88.2079 -1.10838 -1.44987 0
M  V30 935 C 88.2589 -3.42356 1.1608 0
M  V30 936 O 87.9799 -3.56332 2.54871 0
M  V30 937 C 89.4809 -4.33663 0.919322 0
M  V30 938 H 86.7009 -0.607118 0.285743 0
M  V30 939 H 89.2449 -1.48525 1.40572 0
M  V30 940 H 87.3999 -3.82939 0.586191 0
M  V30 941 H 87.8139 -4.49896 2.69618 0
M  V30 942 H 89.2879 -5.38099 1.231 0
M  V30 943 H 89.7649 -4.38959 -0.145359 0
M  V30 944 H 90.3709 -3.98796 1.47789 0
M  V30 945 N 88.686 -0.835752 -1.33615 0
M  V30 946 C 90.102 -0.523139 -1.50783 0
M  V30 947 C 90.302 0.950171 -1.77691 0
M  V30 948 O 89.358 1.73411 -1.83534 0
M  V30 949 C 90.671 -1.39378 -2.66448 0
M  V30 950 C 92.219 -1.39223 -2.80332 0
M  V30 951 C 92.694 -2.24765 -3.99055 0
M  V30 952 N 94.185 -2.22458 -4.06284 0
M  V30 953 C 94.92 -2.85386 -4.97336 0
M  V30 954 N 94.416 -3.57354 -5.93523 0
M  V30 955 N 96.209 -2.74872 -4.90308 0
M  V30 956 H 88.36 -1.78952 -1.14411 0
M  V30 957 H 90.623 -0.763297 -0.562212 0
M  V30 958 H 90.329 -2.44061 -2.53234 0
M  V30 959 H 90.203 -1.0676 -3.61776 0
M  V30 960 H 92.59 -0.353136 -2.92979 0
M  V30 961 H 92.671 -1.75846 -1.85773 0
M  V30 962 H 92.315 -3.28732 -3.87167 0
M  V30 963 H 92.245 -1.85485 -4.92852 0
M  V30 964 H 94.736 -1.70119 -3.37443 0
M  V30 965 H 95.049 -4.02584 -6.59656 0
M  V30 966 H 93.394 -3.61461 -5.93608 0
M  V30 967 H 96.585 -2.18213 -4.14126 0
M  V30 968 H 96.758 -3.24199 -5.61069 0
M  V30 969 N 90.1641 1.46063 -0.591896 0
M  V30 970 C 91.4121 2.01938 -0.0808391 0
M  V30 971 C 91.7331 1.46475 1.28725 0
M  V30 972 O 91.0031 0.652944 1.84698 0
M  V30 973 H 89.5831 0.746516 -0.0268938 0
M  V30 974 H 92.2451 1.79055 -0.769752 0
M  V30 975 H 91.3411 3.12094 -0.0187578 0
M  V30 976 N 91.6422 0.330177 1.54103 0
M  V30 977 C 92.6052 -0.520144 2.2322 0
M  V30 978 C 93.6052 -1.03828 1.22786 0
M  V30 979 O 94.7952 -0.929652 1.4732 0
M  V30 980 C 91.9272 -1.72317 2.94142 0
M  V30 981 H 93.1202 0.0841605 2.99782 0
M  V30 982 H 90.6732 0.0813433 1.56088 0
M  V30 983 H 91.4082 -2.36653 2.21734 0
M  V30 984 H 91.1932 -1.35898 3.67796 0
M  V30 985 H 92.6832 -2.3266 3.46784 0
M  V30 986 N 93.1203 -1.57491 0.0584922 0
M  V30 987 C 94.0503 -2.14988 -0.911178 0
M  V30 988 C 95.0313 -1.07343 -1.31952 0
M  V30 989 O 96.2163 -1.35318 -1.39294 0
M  V30 990 C 93.3463 -2.70078 -2.18347 0
M  V30 991 C 92.3003 -3.82771 -1.91495 0
M  V30 992 C 91.6263 -4.24408 -3.25241 0
M  V30 993 C 92.9263 -5.07592 -1.23075 0
M  V30 994 H 94.6203 -2.96263 -0.432246 0
M  V30 995 H 92.1663 -1.42512 -0.206469 0
M  V30 996 H 94.1193 -3.08943 -2.86587 0
M  V30 997 H 92.8433 -1.86005 -2.68458 0
M  V30 998 H 91.5023 -3.44389 -1.25664 0
M  V30 999 H 91.1503 -3.37275 -3.73168 0
M  V30 1000 H 90.8503 -5.00366 -3.08071 0
M  V30 1001 H 92.3743 -4.65879 -3.94701 0
M  V30 1002 H 93.7883 -5.43857 -1.81362 0
M  V30 1003 H 92.1853 -5.88741 -1.16207 0
M  V30 1004 H 93.2553 -4.84454 -0.207847 0
M  V30 1005 N 94.5984 0.214957 -1.56127 0
M  V30 1006 C 95.8474 0.936451 -1.78643 0
M  V30 1007 C 96.1604 1.85237 -0.628229 0
M  V30 1008 O 97.3664 2.613 -0.737186 0
M  V30 1009 C 95.8224 1.7154 -3.16389 0
M  V30 1010 C 95.4304 0.845299 -4.39953 0
M  V30 1011 C 97.1744 2.42772 -3.48227 0
M  V30 1012 C 95.0814 1.62198 -5.68723 0
M  V30 1013 H 94.0114 0.353401 -0.666051 0
M  V30 1014 H 96.6624 0.190169 -1.82512 0
M  V30 1015 H 95.0444 2.50484 -3.06715 0
M  V30 1016 H 96.2184 0.0959353 -4.607 0
M  V30 1017 H 94.5334 0.244789 -4.1568 0
M  V30 1018 H 97.1304 3.01394 -4.41663 0
M  V30 1019 H 97.4734 3.15984 -2.71035 0
M  V30 1020 H 98.0064 1.70813 -3.5926 0
M  V30 1021 H 94.7454 0.933011 -6.48826 0
M  V30 1022 H 94.2654 2.34579 -5.52026 0
M  V30 1023 H 95.9444 2.18095 -6.09133 0
M  V30 1024 N 96.0765 1.50051 0.48192 0
M  V30 1025 C 97.3235 1.60498 1.23477 0
M  V30 1026 C 97.6515 0.300331 1.92167 0
M  V30 1027 O 96.9065 -0.713094 1.82246 0
M  V30 1028 C 97.2055 2.72717 2.30998 0
M  V30 1029 C 96.8715 4.13572 1.79636 0
M  V30 1030 C 95.5335 4.519 1.65348 0
M  V30 1031 C 97.8855 5.01649 1.41412 0
M  V30 1032 C 95.2135 5.76057 1.11244 0
M  V30 1033 C 97.5655 6.26343 0.887538 0
M  V30 1034 C 96.2295 6.63483 0.731207 0
M  V30 1035 H 95.4995 0.587303 0.451836 0
M  V30 1036 H 98.1465 1.83948 0.532468 0
M  V30 1037 H 96.4515 2.43312 3.07094 0
M  V30 1038 H 98.1485 2.78006 2.88988 0
M  V30 1039 H 94.7385 3.83329 1.91721 0
M  V30 1040 H 98.9225 4.72679 1.51289 0
M  V30 1041 H 94.1785 6.03516 0.978686 0
M  V30 1042 H 98.3525 6.93958 0.582654 0
M  V30 1043 H 95.9795 7.59568 0.309806 0
M  V30 1044 N 97.5546 -0.734337 1.39446 0
M  V30 1045 C 98.8316 -1.48579 1.27215 0
M  V30 1046 C 99.2116 -2.1077 -0.117968 0
M  V30 1047 O 98.5596 -1.98646 -1.12924 0
M  V30 1048 C 98.7696 -2.53667 2.39696 0
M  V30 1049 C 100.118 -3.20031 2.79044 0
M  V30 1050 O 101.142 -2.6398 2.39151 0
M  V30 1051 O 100.001 -4.21455 3.47905 0
M  V30 1052 H 97.0946 -0.659816 0.49857 0
M  V30 1053 H 99.6406 -0.768106 1.51322 0
M  V30 1054 H 98.4126 -2.06096 3.32626 0
M  V30 1055 H 98.0356 -3.32994 2.17258 0
M  V30 1056 N 99.0327 -1.24633 -0.964593 0
M  V30 1057 C 99.9797 -1.04144 -2.05968 0
M  V30 1058 C 100.95 0.046262 -1.66036 0
M  V30 1059 O 102.135 -0.108972 -1.90489 0
M  V30 1060 C 99.2747 -0.65563 -3.38815 0
M  V30 1061 C 98.3877 -1.81714 -3.91923 0
M  V30 1062 C 97.5227 -1.37662 -5.13052 0
M  V30 1063 C 96.5617 -2.50788 -5.58365 0
M  V30 1064 N 95.6987 -2.07582 -6.70712 0
M  V30 1065 H 100.539 -1.9787 -2.22827 0
M  V30 1066 H 98.0757 -0.9855 -1.09208 0
M  V30 1067 H 100.034 -0.412954 -4.15151 0
M  V30 1068 H 98.6637 0.244627 -3.21872 0
M  V30 1069 H 97.7157 -2.1734 -3.12198 0
M  V30 1070 H 99.0277 -2.66705 -4.21509 0
M  V30 1071 H 98.1817 -1.093 -5.96773 0
M  V30 1072 H 96.9207 -0.497293 -4.85158 0
M  V30 1073 H 95.9257 -2.79906 -4.73215 0
M  V30 1074 H 97.1507 -3.39283 -5.88272 0
M  V30 1075 H 95.0967 -1.22051 -6.44546 0
M  V30 1076 H 95.0137 -2.86125 -6.99763 0
M  V30 1077 H 96.2817 -1.82369 -7.57867 0
M  V30 1078 N 100.511 1.16574 -1.06058 0
M  V30 1079 C 101.441 2.23057 -0.690488 0
M  V30 1080 C 102.422 1.67141 0.315901 0
M  V30 1081 O 103.607 1.93253 0.191556 0
M  V30 1082 C 100.737 3.47222 -0.073625 0
M  V30 1083 C 99.6908 4.16016 -1.00573 0
M  V30 1084 C 99.0168 5.34104 -0.252289 0
M  V30 1085 C 100.317 4.67264 -2.33371 0
M  V30 1086 H 102.011 2.54271 -1.58072 0
M  V30 1087 H 99.5568 1.22218 -0.76149 0
M  V30 1088 H 101.51 4.20939 0.19714 0
M  V30 1089 H 100.234 3.15302 0.85161 0
M  V30 1090 H 98.8928 3.44223 -1.2612 0
M  V30 1091 H 98.5408 4.98437 0.675988 0
M  V30 1092 H 98.2408 5.81072 -0.873455 0
M  V30 1093 H 99.7648 6.10599 0.0109857 0
M  V30 1094 H 101.179 5.32573 -2.12223 0
M  V30 1095 H 99.5758 5.24843 -2.90963 0
M  V30 1096 H 100.646 3.83602 -2.96611 0
M  V30 1097 N 101.989 0.842826 1.3317 0
M  V30 1098 C 102.936 0.276885 2.29133 0
M  V30 1099 C 103.906 -0.609527 1.54512 0
M  V30 1100 O 105.091 -0.546955 1.82792 0
M  V30 1101 C 102.231 -0.538707 3.40869 0
M  V30 1102 C 101.344 0.372169 4.30394 0
M  V30 1103 C 100.479 -0.454908 5.29249 0
M  V30 1104 C 99.5179 0.45411 6.10413 0
M  V30 1105 N 98.6549 -0.335075 7.013 0
M  V30 1106 H 103.495 1.10052 2.76934 0
M  V30 1107 H 101.032 0.554161 1.36262 0
M  V30 1108 H 102.99 -1.02709 4.0436 0
M  V30 1109 H 101.62 -1.32727 2.9425 0
M  V30 1110 H 100.672 0.97888 3.6759 0
M  V30 1111 H 101.984 1.0703 4.87182 0
M  V30 1112 H 101.138 -1.00695 5.98285 0
M  V30 1113 H 99.8769 -1.18646 4.73048 0
M  V30 1114 H 98.8819 1.01813 5.40291 0
M  V30 1115 H 100.107 1.18409 6.68697 0
M  V30 1116 H 98.0529 -1.04994 6.47543 0
M  V30 1117 H 97.9699 0.304262 7.55387 0
M  V30 1118 H 99.2379 -0.869224 7.74638 0
M  V30 1119 N 103.467 -1.45747 0.599634 0
M  V30 1120 C 104.377 -2.34262 -0.125888 0
M  V30 1121 C 105.393 -1.50768 -0.868625 0
M  V30 1122 O 106.569 -1.83592 -0.828003 0
M  V30 1123 C 103.634 -3.28252 -1.11587 0
M  V30 1124 C 102.695 -4.27651 -0.375956 0
M  V30 1125 C 101.928 -5.1715 -1.31877 0
M  V30 1126 O 102.151 -5.09916 -2.55621 0
M  V30 1127 O 101.085 -5.96286 -0.820157 0
M  V30 1128 H 104.911 -2.97688 0.601315 0
M  V30 1129 H 102.496 -1.44999 0.359934 0
M  V30 1130 H 104.378 -3.86191 -1.68626 0
M  V30 1131 H 103.053 -2.67401 -1.82424 0
M  V30 1132 H 101.96 -3.7335 0.236698 0
M  V30 1133 H 103.293 -4.91334 0.29177 0
M  V30 1134 N 104.945 -0.338344 -1.53925 0
M  V30 1135 C 105.908 0.508299 -2.23493 0
M  V30 1136 C 106.908 1.03175 -1.23335 0
M  V30 1137 O 108.098 0.921826 -1.47811 0
M  V30 1138 C 105.23 1.70754 -2.95052 0
M  V30 1139 H 106.423 -0.100058 -2.99733 0
M  V30 1140 H 103.976 -0.0896198 -1.56043 0
M  V30 1141 H 104.711 2.35474 -2.22986 0
M  V30 1142 H 104.496 1.33946 -3.68512 0
M  V30 1143 H 105.986 2.30818 -3.48013 0
M  V30 1144 N 106.423 1.57458 -0.0668435 0
M  V30 1145 C 107.648 1.9804 0.616027 0
M  V30 1146 C 108.073 0.944771 1.62652 0
M  V30 1147 O 107.431 -0.0902094 1.81075 0
M  V30 1148 C 107.479 3.37665 1.26549 0
M  V30 1149 O 106.583 3.36701 2.38131 0
M  V30 1150 H 105.924 0.644719 0.158849 0
M  V30 1151 H 108.454 2.04121 -0.139891 0
M  V30 1152 H 108.464 3.7474 1.6135 0
M  V30 1153 H 107.139 4.12573 0.525016 0
M  V30 1154 H 105.716 3.1139 2.0516 0
M  V30 1155 N 107.901 -0.206675 1.56239 0
M  V30 1156 C 108.811 -1.27686 1.96808 0
M  V30 1157 C 109.827 -1.50455 0.874035 0
M  V30 1158 O 111.003 -1.63295 1.17884 0
M  V30 1159 C 108.068 -2.60358 2.28942 0
M  V30 1160 C 107.129 -2.45762 3.51994 0
M  V30 1161 C 106.362 -3.72108 3.82585 0
M  V30 1162 O 106.585 -4.75776 3.14631 0
M  V30 1163 O 105.519 -3.6833 4.76043 0
M  V30 1164 H 109.345 -0.962593 2.88041 0
M  V30 1165 H 106.93 -0.410746 1.43643 0
M  V30 1166 H 108.812 -3.38687 2.50737 0
M  V30 1167 H 107.487 -2.91435 1.4088 0
M  V30 1168 H 106.394 -1.65584 3.35459 0
M  V30 1169 H 107.727 -2.19621 4.40486 0
M  V30 1170 N 109.379 -1.50304 -0.473955 0
M  V30 1171 C 110.326 -1.68959 -1.57231 0
M  V30 1172 C 111.296 -0.530899 -1.57387 0
M  V30 1173 O 112.481 -0.761133 -1.74961 0
M  V30 1174 C 109.621 -1.7871 -2.95223 0
M  V30 1175 C 108.734 -3.06061 -3.04878 0
M  V30 1176 C 107.869 -3.06626 -4.33767 0
M  V30 1177 C 106.908 -4.28443 -4.37154 0
M  V30 1178 N 106.045 -4.26763 -5.5751 0
M  V30 1179 H 110.885 -2.6273 -1.40631 0
M  V30 1180 H 108.422 -1.30241 -0.683789 0
M  V30 1181 H 110.38 -1.82344 -3.75242 0
M  V30 1182 H 109.01 -0.883806 -3.10465 0
M  V30 1183 H 108.062 -3.11911 -2.17751 0
M  V30 1184 H 109.374 -3.96039 -3.0324 0
M  V30 1185 H 108.528 -3.08973 -5.22131 0
M  V30 1186 H 107.267 -2.14473 -4.3801 0
M  V30 1187 H 106.272 -4.2631 -3.47188 0
M  V30 1188 H 107.497 -5.2182 -4.34605 0
M  V30 1189 H 105.443 -3.37462 -5.62544 0
M  V30 1190 H 105.36 -5.10507 -5.57601 0
M  V30 1191 H 106.628 -4.33253 -6.48006 0
M  V30 1192 N 110.857 0.726932 -1.39834 0
M  V30 1193 C 112.105 1.4837 -1.37225 0
M  V30 1194 C 112.426 1.94979 0.0284857 0
M  V30 1195 O 111.696 1.69555 0.981213 0
M  V30 1196 H 110.276 0.55043 -0.505011 0
M  V30 1197 H 112.938 0.862468 -1.74778 0
M  V30 1198 H 112.034 2.36198 -2.04003 0
M  V30 1199 N 112.336 1.25143 0.95797 0
M  V30 1200 C 113.585 1.0909 1.69654 0
M  V30 1201 C 113.898 -0.368548 1.92097 0
M  V30 1202 O 115.104 -0.649455 2.63618 0
M  V30 1203 C 113.56 1.90395 3.05414 0
M  V30 1204 C 113.168 3.4081 2.90779 0
M  V30 1205 C 114.912 1.82901 3.83076 0
M  V30 1206 C 112.819 4.14423 4.21909 0
M  V30 1207 H 111.749 0.404625 0.636235 0
M  V30 1208 H 114.4 1.4931 1.06672 0
M  V30 1209 H 112.782 1.42996 3.69281 0
M  V30 1210 H 113.956 3.95859 2.35865 0
M  V30 1211 H 112.271 3.49361 2.26575 0
M  V30 1212 H 114.868 2.35196 4.80195 0
M  V30 1213 H 115.211 0.796224 4.08615 0
M  V30 1214 H 115.744 2.28033 3.25954 0
M  V30 1215 H 112.483 5.18102 4.01561 0
M  V30 1216 H 112.003 3.64159 4.76601 0
M  V30 1217 H 113.682 4.21956 4.90471 0
M  V30 1218 N 113.814 -1.1601 1.06675 0
M  V30 1219 C 114.761 -2.20525 0.680967 0
M  V30 1220 C 115.731 -1.62904 -0.324283 0
M  V30 1221 O 116.916 -1.89615 -0.212294 0
M  V30 1222 C 114.056 -3.45013 0.0776551 0
M  V30 1223 C 113.169 -4.16863 1.13355 0
M  V30 1224 C 112.304 -5.2888 0.49597 0
M  V30 1225 C 111.343 -5.92537 1.53513 0
M  V30 1226 N 110.48 -6.96038 0.920631 0
M  V30 1227 H 115.32 -2.52876 1.57663 0
M  V30 1228 H 112.857 -1.24199 0.788223 0
M  V30 1229 H 114.815 -4.16193 -0.289704 0
M  V30 1230 H 113.445 -3.132 -0.781393 0
M  V30 1231 H 112.497 -3.44248 1.61857 0
M  V30 1232 H 113.809 -4.60294 1.92174 0
M  V30 1233 H 112.963 -6.06653 0.0758604 0
M  V30 1234 H 111.702 -4.86622 -0.324062 0
M  V30 1235 H 110.707 -5.13482 1.9651 0
M  V30 1236 H 111.932 -6.36873 2.35733 0
M  V30 1237 H 109.878 -6.55888 0.12138 0
M  V30 1238 H 109.795 -7.3786 1.64616 0
M  V30 1239 H 111.063 -7.77725 0.525795 0
M  V30 1240 N 115.292 -0.849877 -1.32721 0
M  V30 1241 C 116.541 -0.447175 -1.96681 0
M  V30 1242 C 116.854 1.00135 -1.68025 0
M  V30 1243 O 118.06 1.50926 -2.25685 0
M  V30 1244 C 116.516 -0.7487 -3.52026 0
M  V30 1245 C 116.124 -2.21264 -3.89546 0
M  V30 1246 C 117.868 -0.413487 -4.22481 0
M  V30 1247 C 115.775 -2.45763 -5.37917 0
M  V30 1248 H 114.705 -0.163486 -0.736063 0
M  V30 1249 H 117.356 -1.03999 -1.51183 0
M  V30 1250 H 115.738 -0.0853727 -3.95908 0
M  V30 1251 H 116.912 -2.91736 -3.56689 0
M  V30 1252 H 115.227 -2.5119 -3.32103 0
M  V30 1253 H 117.824 -0.574017 -5.3161 0
M  V30 1254 H 118.167 0.644492 -4.11281 0
M  V30 1255 H 118.7 -1.03251 -3.84167 0
M  V30 1256 H 115.439 -3.50168 -5.54132 0
M  V30 1257 H 114.959 -1.79864 -5.72197 0
M  V30 1258 H 116.638 -2.29471 -6.0494 0
M  V30 1259 N 116.77 1.45427 -0.607355 0
M  V30 1260 C 118.019 2.01452 -0.100036 0
M  V30 1261 C 118.332 1.48159 1.27704 0
M  V30 1262 O 119.538 1.96159 1.87707 0
M  V30 1263 C 117.994 3.59672 -0.128158 0
M  V30 1264 C 117.602 4.21962 -1.50507 0
M  V30 1265 C 119.346 4.23262 0.323932 0
M  V30 1266 C 117.253 5.72333 -1.48959 0
M  V30 1267 H 116.183 0.75325 -0.0336299 0
M  V30 1268 H 118.834 1.66901 -0.76265 0
M  V30 1269 H 117.216 3.91411 0.601105 0
M  V30 1270 H 118.39 4.01796 -2.25602 0
M  V30 1271 H 116.705 3.70565 -1.89923 0
M  V30 1272 H 119.302 5.33522 0.354691 0
M  V30 1273 H 119.645 3.93921 1.34656 0
M  V30 1274 H 120.178 3.96239 -0.352056 0
M  V30 1275 H 116.917 6.06373 -2.48981 0
M  V30 1276 H 116.437 5.94691 -0.781214 0
M  V30 1277 H 118.116 6.35525 -1.21313 0
M  V30 1278 N 118.248 0.346503 1.53744 0
M  V30 1279 C 119.494 -0.249473 2.0126 0
M  V30 1280 C 119.827 -1.49965 1.23386 0
M  V30 1281 O 119.102 -1.91811 0.32229 0
M  V30 1282 C 119.385 -0.560643 3.55709 0
M  V30 1283 C 119.238 0.701836 4.44291 0
M  V30 1284 C 120.557 -1.36905 4.18264 0
M  V30 1285 H 117.676 -0.0891987 0.731582 0
M  V30 1286 H 120.318 0.467624 1.84156 0
M  V30 1287 H 118.468 -1.17156 3.70414 0
M  V30 1288 H 120.14 1.33974 4.41417 0
M  V30 1289 H 118.383 1.32612 4.13033 0
M  V30 1290 H 119.054 0.43933 5.50249 0
M  V30 1291 H 121.53 -0.852448 4.07275 0
M  V30 1292 H 120.406 -1.55553 5.26398 0
M  V30 1293 H 120.667 -2.37203 3.73078 0
M  V30 1294 N 119.726 -1.57421 0.075193 0
M  V30 1295 C 120.656 -2.15942 -0.888324 0
M  V30 1296 C 121.637 -1.08737 -1.30806 0
M  V30 1297 O 122.822 -1.36787 -1.37851 0
M  V30 1298 C 119.952 -2.72379 -2.1547 0
M  V30 1299 C 118.906 -3.8478 -1.87425 0
M  V30 1300 C 118.232 -4.27834 -3.20721 0
M  V30 1301 C 119.532 -5.08869 -1.17684 0
M  V30 1302 H 121.226 -2.96705 -0.400799 0
M  V30 1303 H 118.772 -1.42723 -0.191342 0
M  V30 1304 H 120.725 -3.11965 -2.83295 0
M  V30 1305 H 119.449 -1.88841 -2.6647 0
M  V30 1306 H 118.108 -3.45703 -1.22004 0
M  V30 1307 H 117.756 -3.41214 -3.6957 0
M  V30 1308 H 117.456 -5.03605 -3.02746 0
M  V30 1309 H 118.98 -4.70039 -3.89738 0
M  V30 1310 H 120.394 -5.4575 -1.75584 0
M  V30 1311 H 118.791 -5.8994 -1.09956 0
M  V30 1312 H 119.861 -4.84648 -0.156453 0
M  V30 1313 N 121.204 0.198386 -1.56346 0
M  V30 1314 C 122.134 1.24865 -1.9731 0
M  V30 1315 C 123.115 1.47651 -0.844576 0
M  V30 1316 O 124.3 1.59444 -1.10866 0
M  V30 1317 C 121.43 2.59358 -2.30977 0
M  V30 1318 C 120.384 2.5119 -3.46537 0
M  V30 1319 C 119.71 3.89926 -3.65871 0
M  V30 1320 C 121.01 2.03977 -4.80823 0
M  V30 1321 H 122.704 0.908252 -2.85291 0
M  V30 1322 H 120.25 0.435462 -1.37258 0
M  V30 1323 H 122.203 3.33011 -2.58228 0
M  V30 1324 H 120.927 2.95132 -1.39874 0
M  V30 1325 H 119.586 1.79993 -3.19371 0
M  V30 1326 H 119.234 4.23046 -2.72105 0
M  V30 1327 H 118.934 3.85336 -4.4361 0
M  V30 1328 H 120.458 4.65205 -3.95495 0
M  V30 1329 H 121.872 2.67386 -5.07127 0
M  V30 1330 H 120.269 2.10397 -5.62008 0
M  V30 1331 H 121.339 0.992861 -4.74626 0
M  V30 1332 N 122.682 1.50554 0.465978 0
M  V30 1333 C 123.959 1.5232 1.22712 0
M  V30 1334 C 124.339 0.270807 2.09356 0
M  V30 1335 O 123.687 -0.745541 2.15995 0
M  V30 1336 C 123.897 2.82175 2.05374 0
M  V30 1337 C 125.245 3.33033 2.6339 0
M  V30 1338 O 126.269 2.83531 2.15612 0
M  V30 1339 O 125.128 4.19336 3.50456 0
M  V30 1340 H 122.222 0.611183 0.557122 0
M  V30 1341 H 124.768 1.62847 0.477381 0
M  V30 1342 H 123.54 3.64797 1.41558 0
M  V30 1343 H 123.163 2.74675 2.87471 0
M  V30 1344 N 124.16 -0.719506 1.40217 0
M  V30 1345 C 125.07 -1.86378 1.42479 0
M  V30 1346 C 126.086 -1.71073 0.317834 0
M  V30 1347 O 127.262 -1.93406 0.561794 0
M  V30 1348 C 124.327 -3.22136 1.28178 0
M  V30 1349 C 123.388 -3.49723 2.48982 0
M  V30 1350 C 122.621 -4.79004 2.35353 0
M  V30 1351 O 122.844 -5.53821 1.36524 0
M  V30 1352 O 121.778 -5.06839 3.2465 0
M  V30 1353 H 125.604 -1.87425 2.38968 0
M  V30 1354 H 123.189 -0.869405 1.21498 0
M  V30 1355 H 125.071 -4.03234 1.22395 0
M  V30 1356 H 123.746 -3.21825 0.347934 0
M  V30 1357 H 122.653 -2.6865 2.60342 0
M  V30 1358 H 123.986 -3.54828 3.41113 0
M  V30 1359 N 125.638 -1.25649 -0.95132 0
M  V30 1360 C 127.054 -1.02542 -1.223 0
M  V30 1361 C 127.254 0.255715 -1.99871 0
M  V30 1362 O 126.31 0.967558 -2.33226 0
M  V30 1363 C 127.623 -2.25065 -1.99415 0
M  V30 1364 C 129.171 -2.29861 -2.12446 0
M  V30 1365 C 129.646 -3.52048 -2.92961 0
M  V30 1366 N 131.137 -3.52465 -3.00538 0
M  V30 1367 C 131.872 -4.43672 -3.63239 0
M  V30 1368 N 131.368 -5.45157 -4.27523 0
M  V30 1369 N 133.161 -4.31346 -3.60412 0
M  V30 1370 H 125.312 -2.07951 -0.432471 0
M  V30 1371 H 127.575 -0.91339 -0.253816 0
M  V30 1372 H 127.281 -3.18194 -1.49817 0
M  V30 1373 H 127.155 -2.28502 -3.00111 0
M  V30 1374 H 129.542 -1.37252 -2.61239 0
M  V30 1375 H 129.623 -2.3044 -1.11044 0
M  V30 1376 H 129.267 -4.44981 -2.44856 0
M  V30 1377 H 129.197 -3.48715 -3.94596 0
M  V30 1378 H 131.688 -2.79056 -2.54826 0
M  V30 1379 H 132.001 -6.10958 -4.73234 0
M  V30 1380 H 130.346 -5.49025 -4.26141 0
M  V30 1381 H 133.537 -3.51288 -3.09377 0
M  V30 1382 H 133.71 -5.02624 -4.0899 0
M  V30 1383 N 127.117 1.15442 -1.07289 0
M  V30 1384 C 128.365 1.85845 -0.794096 0
M  V30 1385 C 128.686 1.82692 0.681809 0
M  V30 1386 O 127.956 1.26741 1.49377 0
M  V30 1387 H 126.536 0.688089 -0.290763 0
M  V30 1388 H 129.198 1.39947 -1.3565 0
M  V30 1389 H 128.294 2.91001 -1.12804 0
M  V30 1390 N 128.595 0.856903 1.32268 0
M  V30 1391 C 129.542 0.301172 2.28827 0
M  V30 1392 C 130.512 -0.593104 1.5515 0
M  V30 1393 O 131.697 -0.527537 1.83362 0
M  V30 1394 C 128.837 -0.502523 3.41422 0
M  V30 1395 C 127.95 0.417797 4.29975 0
M  V30 1396 C 127.085 -0.398749 5.29701 0
M  V30 1397 C 126.124 0.518827 6.09897 0
M  V30 1398 N 125.261 -0.260674 7.01616 0
M  V30 1399 H 130.101 1.12983 2.75751 0
M  V30 1400 H 127.638 0.568582 1.35667 0
M  V30 1401 H 129.596 -0.984141 4.05426 0
M  V30 1402 H 128.226 -1.29599 2.95642 0
M  V30 1403 H 127.278 1.01781 3.66531 0
M  V30 1404 H 128.59 1.12191 4.86019 0
M  V30 1405 H 127.744 -0.943435 5.9932 0
M  V30 1406 H 126.483 -1.13622 4.7428 0
M  V30 1407 H 125.488 1.07538 5.39181 0
M  V30 1408 H 126.713 1.25495 6.67404 0
M  V30 1409 H 124.659 -0.981198 6.4862 0
M  V30 1410 H 124.576 0.384364 7.55022 0
M  V30 1411 H 125.844 -0.787014 7.75517 0
M  V30 1412 N 130.073 -1.45103 0.615059 0
M  V30 1413 C 131.489 -1.57137 0.279322 0
M  V30 1414 C 131.689 -1.60523 -1.21797 0
M  V30 1415 O 130.745 -1.53956 -2.00134 0
M  V30 1416 C 132.058 -2.85062 0.957083 0
M  V30 1417 C 133.606 -2.98749 0.933706 0
M  V30 1418 C 134.081 -4.29455 1.59162 0
M  V30 1419 N 135.572 -4.36231 1.55746 0
M  V30 1420 C 136.307 -5.36051 2.0356 0
M  V30 1421 N 135.803 -6.42367 2.59494 0
M  V30 1422 N 137.596 -5.27456 1.94284 0
M  V30 1423 H 129.747 -1.41148 1.58717 0
M  V30 1424 H 132.01 -0.675331 0.665306 0
M  V30 1425 H 131.716 -2.88488 2.01166 0
M  V30 1426 H 131.59 -3.7407 0.48494 0
M  V30 1427 H 133.977 -2.94886 -0.112347 0
M  V30 1428 H 134.058 -2.11132 1.44419 0
M  V30 1429 H 133.702 -4.34077 2.63704 0
M  V30 1430 H 133.632 -5.15901 1.0561 0
M  V30 1431 H 136.123 -3.60011 1.14893 0
M  V30 1432 H 136.436 -7.14793 2.93752 0
M  V30 1433 H 134.781 -6.43097 2.63537 0
M  V30 1434 H 137.972 -4.43308 1.5032 0
M  V30 1435 H 138.145 -6.05099 2.3186 0
M  V30 1436 N 131.551 -0.354651 -1.53558 0
M  V30 1437 C 132.499 0.512195 -2.26891 0
M  V30 1438 C 133.493 1.09263 -1.29452 0
M  V30 1439 O 134.699 1.03709 -1.47121 0
M  V30 1440 H 131.074 0.183878 -0.729173 0
M  V30 1441 H 133.045 -0.128202 -2.98124 0
M  V30 1442 C 131.794 1.64563 -3.06291 0
M  V30 1443 H 131.117 1.20829 -3.81104 0
M  V30 1444 H 132.557 2.22711 -3.60799 0
M  V30 1445 C 131.016 2.58158 -2.16462 0
M  V30 1446 O 131.546 3.60695 -1.76811 0
M  V30 1447 N 129.752 2.27096 -1.81317 0
M  V30 1448 H 129.299 1.43751 -2.1376 0
M  V30 1449 H 129.257 2.89975 -1.21498 0
M  V30 1450 N 133.029 1.57378 -0.0835403 0
M  V30 1451 C 133.959 2.1641 0.87686 0
M  V30 1452 C 134.94 1.09429 1.30228 0
M  V30 1453 O 136.125 1.37516 1.37124 0
M  V30 1454 C 133.255 2.73517 2.14022 0
M  V30 1455 C 132.209 3.85769 1.85381 0
M  V30 1456 C 131.535 4.29529 3.18448 0
M  V30 1457 C 132.835 5.09486 1.14984 0
M  V30 1458 H 134.529 2.96914 0.385059 0
M  V30 1459 H 132.075 1.42823 0.18377 0
M  V30 1460 H 134.028 3.13463 2.81636 0
M  V30 1461 H 132.752 1.90252 2.65465 0
M  V30 1462 H 131.411 3.46345 1.20169 0
M  V30 1463 H 131.059 3.43169 3.67755 0
M  V30 1464 H 130.759 5.05204 3.00071 0
M  V30 1465 H 132.283 4.72099 3.8724 0
M  V30 1466 H 133.697 5.46674 1.72687 0
M  V30 1467 H 132.094 5.90515 1.06826 0
M  V30 1468 H 133.164 4.84724 0.130749 0
M  V30 1469 N 134.507 -0.190092 1.56449 0
M  V30 1470 C 135.755 -0.907908 1.80559 0
M  V30 1471 C 136.076 -1.83583 0.657438 0
M  V30 1472 O 135.346 -1.93203 -0.323924 0
M  V30 1473 H 133.926 -0.338247 0.666032 0
M  V30 1474 H 136.588 -0.194403 1.93928 0
M  V30 1475 H 135.684 -1.49604 2.73907 0
M  V30 1476 N 135.985 -1.50799 -0.457987 0
M  V30 1477 C 136.895 -1.73426 -1.57989 0
M  V30 1478 C 137.911 -0.617745 -1.62665 0
M  V30 1479 O 139.087 -0.897614 -1.80291 0
M  V30 1480 C 136.152 -1.83557 -2.94122 0
M  V30 1481 C 135.213 -3.07345 -2.99729 0
M  V30 1482 C 134.446 -3.16983 -4.29368 0
M  V30 1483 O 134.669 -2.33077 -5.20607 0
M  V30 1484 O 133.603 -4.09812 -4.40837 0
M  V30 1485 H 137.429 -2.68555 -1.41817 0
M  V30 1486 H 135.014 -1.35052 -0.638859 0
M  V30 1487 H 136.896 -1.92326 -3.74952 0
M  V30 1488 H 135.571 -0.916137 -3.10465 0
M  V30 1489 H 134.478 -3.04068 -2.1793 0
M  V30 1490 H 135.811 -3.9891 -2.88326 0
M  V30 1491 N 137.463 0.71206 -1.40597 0
M  V30 1492 C 138.393 1.83889 -1.43899 0
M  V30 1493 C 139.374 1.67442 -0.299504 0
M  V30 1494 O 140.559 1.87421 -0.508624 0
M  V30 1495 C 137.689 3.21877 -1.30431 0
M  V30 1496 C 136.643 3.53002 -2.42019 0
M  V30 1497 C 135.969 4.90172 -2.13626 0
M  V30 1498 C 137.269 3.53643 -3.84362 0
M  V30 1499 H 138.963 1.81383 -2.38203 0
M  V30 1500 H 136.509 0.871237 -1.14654 0
M  V30 1501 H 138.462 4.00404 -1.31357 0
M  V30 1502 H 137.186 3.24968 -0.326049 0
M  V30 1503 H 135.845 2.76818 -2.40349 0
M  V30 1504 H 135.493 4.89869 -1.14182 0
M  V30 1505 H 135.193 5.11962 -2.88389 0
M  V30 1506 H 136.717 5.71028 -2.1624 0
M  V30 1507 H 138.131 4.22203 -3.87837 0
M  V30 1508 H 136.528 3.86961 -4.58673 0
M  V30 1509 H 137.598 2.52954 -4.13693 0
M  V30 1510 N 138.941 1.26152 0.944643 0
M  V30 1511 C 139.873 1.03199 2.04652 0
M  V30 1512 C 140.886 -0.00642356 1.62799 0
M  V30 1513 O 142.075 0.233263 1.76969 0
M  V30 1514 C 139.175 0.540111 3.34568 0
M  V30 1515 C 138.348 1.64697 4.05208 0
M  V30 1516 C 137.407 1.15374 5.13396 0
M  V30 1517 O 136.433 1.85013 5.38293 0
M  V30 1518 N 137.635 0.00031529 5.805 0
M  V30 1519 H 140.4 1.9808 2.2491 0
M  V30 1520 H 137.961 1.17491 1.11389 0
M  V30 1521 H 139.953 0.194401 4.04233 0
M  V30 1522 H 138.523 -0.315021 3.11009 0
M  V30 1523 H 137.743 2.16379 3.29506 0
M  V30 1524 H 139.031 2.3903 4.49157 0
M  V30 1525 H 138.429 -0.581336 5.62705 0
M  V30 1526 H 136.986 -0.286346 6.51171 0
M  V30 1527 N 140.419 -1.14872 1.07899 0
M  V30 1528 C 141.644 -1.90202 0.826926 0
M  V30 1529 C 142.069 -1.77774 -0.614664 0
M  V30 1530 O 141.427 -1.11431 -1.43013 0
M  V30 1531 C 141.475 -3.38352 1.24702 0
M  V30 1532 O 140.579 -4.10497 0.39575 0
M  V30 1533 H 139.92 -0.591968 0.300782 0
M  V30 1534 H 142.45 -1.45437 1.43907 0
M  V30 1535 H 142.46 -3.89156 1.22563 0
M  V30 1536 H 141.135 -3.46715 2.29698 0
M  V30 1537 H 139.712 -3.69796 0.480117 0
M  V30 1538 N 141.898 -0.863906 -1.31812 0
M  V30 1539 C 142.848 -0.286898 -2.26188 0
M  V30 1540 C 143.832 0.572577 -1.50367 0
M  V30 1541 O 145.024 0.420447 -1.71934 0
M  V30 1542 C 142.153 0.515849 -3.39402 0
M  V30 1543 C 141.239 -0.356531 -4.22599 0
M  V30 1544 N 141.63 -1.44716 -4.84656 0
M  V30 1545 C 139.928 -0.147898 -4.45755 0
M  V30 1546 C 140.629 -1.98462 -5.46798 0
M  V30 1547 N 139.605 -1.28247 -5.28255 0
M  V30 1548 H 143.407 -1.12055 -2.717 0
M  V30 1549 H 140.921 -0.711012 -1.46008 0
M  V30 1550 H 142.918 0.945701 -4.06032 0
M  V30 1551 H 141.578 1.34718 -2.95434 0
M  V30 1552 H 142.589 -1.83008 -4.84488 0
M  V30 1553 H 139.266 0.647973 -4.12441 0
M  V30 1554 H 140.656 -2.89932 -6.06126 0
M  V30 1555 N 143.376 1.44774 -0.622745 0
M  V30 1556 C 144.616 2.04004 -0.127102 0
M  V30 1557 C 144.98 1.47862 1.22478 0
M  V30 1558 O 146.181 1.98541 1.81204 0
M  V30 1559 C 144.452 3.57247 -0.104429 0
M  V30 1560 S 146.011 4.37574 0.327814 0
M  V30 1561 H 142.829 0.708713 -0.0569776 0
M  V30 1562 H 145.431 1.77275 -0.824253 0
M  V30 1563 H 144.135 3.95616 -1.09159 0
M  V30 1564 H 143.666 3.88575 0.614236 0
M  V30 1565 H 145.681 4.70575 1.57395 0
M  V30 1566 N 144.854 0.36279 1.53368 0
M  V30 1567 C 146.265 -0.117022 1.86333 0
M  V30 1568 C 146.616 -1.48397 1.28347 0
M  V30 1569 O 145.741 -2.07787 0.604428 0
M  V30 1570 C 146.336 -0.21912 3.38091 0
M  V30 1571 C 144.895 -0.643184 3.70864 0
M  V30 1572 C 144.042 0.211318 2.76494 0
M  V30 1573 H 146.993 0.581687 1.47655 0
M  V30 1574 H 147.014 -1.04319 3.6592 0
M  V30 1575 H 146.526 0.775902 3.80265 0
M  V30 1576 H 144.627 -1.64654 3.34245 0
M  V30 1577 H 144.74 -0.41973 4.77258 0
M  V30 1578 H 143.104 -0.319367 2.5269 0
M  V30 1579 H 143.887 1.20383 3.21501 0
M  V30 1580 N 146.332 -1.57332 0.0918853 0
M  V30 1581 C 147.609 -1.85691 -0.614668 0
M  V30 1582 C 147.989 -0.988146 -1.86545 0
M  V30 1583 O 147.337 -0.0597055 -2.28422 0
M  V30 1584 C 147.547 -3.36294 -0.933126 0
M  V30 1585 C 148.895 -4.04275 -1.29796 0
M  V30 1586 O 149.919 -3.41157 -1.02424 0
M  V30 1587 O 148.778 -5.1564 -1.81047 0
M  V30 1588 H 145.872 -0.767802 -0.307261 0
M  V30 1589 H 148.418 -1.69244 0.12434 0
M  V30 1590 H 147.19 -3.91273 -0.0456404 0
M  V30 1591 H 146.813 -3.58076 -1.72822 0
M  V30 1592 N 147.81 0.181792 -1.56548 0
M  V30 1593 C 149.059 0.898348 -1.8059 0
M  V30 1594 C 149.372 1.83862 -0.667379 0
M  V30 1595 O 150.578 2.59678 -0.792446 0
M  V30 1596 C 149.034 1.64791 -3.19956 0
M  V30 1597 C 148.642 0.751789 -4.41647 0
M  V30 1598 C 150.386 2.35331 -3.53298 0
M  V30 1599 C 148.293 1.50098 -5.72035 0
M  V30 1600 H 147.223 0.339194 -0.673397 0
M  V30 1601 H 149.874 0.151413 -1.82874 0
M  V30 1602 H 148.256 2.43921 -3.11959 0
M  V30 1603 H 149.43 -0.0018076 -4.608 0
M  V30 1604 H 147.745 0.156562 -4.16106 0
M  V30 1605 H 150.342 2.91958 -4.47956 0
M  V30 1606 H 150.685 3.10164 -2.77676 0
M  V30 1607 H 151.218 1.63154 -3.62803 0
M  V30 1608 H 147.957 0.795175 -6.50659 0
M  V30 1609 H 147.477 2.22817 -5.56878 0
M  V30 1610 H 149.156 2.05125 -6.13622 0
M  V30 1611 N 149.288 1.51039 0.449983 0
M  V30 1612 C 150.236 1.71995 1.5659 0
M  V30 1613 C 151.23 0.586029 1.5894 0
M  V30 1614 O 152.436 0.76709 1.62837 0
M  V30 1615 H 148.811 0.543233 0.520001 0
M  V30 1616 H 150.782 2.65562 1.36085 0
M  V30 1617 C 149.531 1.8506 2.9436 0
M  V30 1618 H 148.854 2.71712 2.93279 0
M  V30 1619 H 150.294 2.0374 3.71842 0
M  V30 1620 C 148.753 0.607277 3.31382 0
M  V30 1621 O 149.283 -0.243903 4.00959 0
M  V30 1622 N 147.489 0.455073 2.87015 0
M  V30 1623 H 147.036 1.14879 2.30566 0
M  V30 1624 H 146.994 -0.375611 3.12148 0
M  V30 1625 N 150.766 -0.704594 1.40972 0
M  V30 1626 C 152.013 -1.46458 1.39844 0
M  V30 1627 C 152.341 -1.94499 0.00447594 0
M  V30 1628 O 151.596 -1.69275 -0.982057 0
M  V30 1629 C 151.895 -2.698 2.34399 0
M  V30 1630 C 151.561 -2.40464 3.81429 0
M  V30 1631 C 150.223 -2.32174 4.21484 0
M  V30 1632 C 152.575 -2.16086 4.74296 0
M  V30 1633 C 149.903 -1.97589 5.52427 0
M  V30 1634 C 152.255 -1.83011 6.05549 0
M  V30 1635 C 150.919 -1.7321 6.44635 0
M  V30 1636 H 150.189 -0.535927 0.511725 0
M  V30 1637 H 152.836 -0.806124 1.73706 0
M  V30 1638 H 151.141 -3.40536 1.93759 0
M  V30 1639 H 152.838 -3.27919 2.30804 0
M  V30 1640 H 149.428 -2.47808 3.49699 0
M  V30 1641 H 153.612 -2.2144 4.4416 0
M  V30 1642 H 148.868 -1.88547 5.81601 0
M  V30 1643 H 153.042 -1.63164 6.77016 0
M  V30 1644 H 150.669 -1.46179 7.46013 0
M  V30 1645 N 152.244 -1.26651 -0.937939 0
M  V30 1646 C 153.493 -1.11775 -1.67897 0
M  V30 1647 C 153.806 0.33794 -1.92659 0
M  V30 1648 O 155.012 0.607434 -2.64618 0
M  V30 1649 C 153.468 -1.9523 -3.02346 0
M  V30 1650 C 153.076 -3.45393 -2.8532 0
M  V30 1651 C 154.82 -1.88972 -3.80118 0
M  V30 1652 C 152.727 -4.21083 -4.15263 0
M  V30 1653 H 151.657 -0.414696 -0.629717 0
M  V30 1654 H 154.308 -1.50988 -1.04283 0
M  V30 1655 H 152.69 -1.48853 -3.66959 0
M  V30 1656 H 153.864 -3.99561 -2.29537 0
M  V30 1657 H 152.179 -3.52921 -2.20988 0
M  V30 1658 H 154.776 -2.42805 -4.76392 0
M  V30 1659 H 155.119 -0.86113 -4.07296 0
M  V30 1660 H 155.652 -2.33189 -3.22285 0
M  V30 1661 H 152.391 -5.24425 -3.93267 0
M  V30 1662 H 151.911 -3.71695 -4.70747 0
M  V30 1663 H 153.59 -4.29706 -4.83696 0
M  V30 1664 N 153.722 1.14298 -1.08507 0
M  V30 1665 C 154.95 1.89219 -0.836876 0
M  V30 1666 C 155.365 1.78638 0.611054 0
M  V30 1667 O 154.722 1.14643 1.41998 0
M  V30 1668 C 154.773 3.39158 -1.25116 0
M  V30 1669 O 154.494 3.49449 -2.64229 0
M  V30 1670 C 155.995 4.31073 -1.03398 0
M  V30 1671 H 153.215 0.599328 -0.301739 0
M  V30 1672 H 155.759 1.44746 -1.44461 0
M  V30 1673 H 153.914 3.81251 -0.687514 0
M  V30 1674 H 154.328 4.42589 -2.81452 0
M  V30 1675 H 155.802 5.34646 -1.37323 0
M  V30 1676 H 156.279 4.3919 0.0289259 0
M  V30 1677 H 156.885 3.94738 -1.58311 0
M  V30 1678 N 155.201 0.870884 1.31352 0
M  V30 1679 C 156.447 0.482987 1.96965 0
M  V30 1680 C 156.78 -0.962462 1.68672 0
M  V30 1681 O 156.055 -1.6779 0.98371 0
M  V30 1682 C 156.338 0.741752 3.52378 0
M  V30 1683 C 156.191 2.2368 3.9024 0
M  V30 1684 C 157.51 0.208838 4.39604 0
M  V30 1685 H 154.629 0.176955 0.715441 0
M  V30 1686 H 157.271 1.09229 1.55464 0
M  V30 1687 H 155.421 0.223149 3.87859 0
M  V30 1688 H 157.093 2.82273 3.64856 0
M  V30 1689 H 155.336 2.70901 3.38814 0
M  V30 1690 H 156.007 2.3685 4.98604 0
M  V30 1691 H 158.483 0.652529 4.10952 0
M  V30 1692 H 157.359 0.419336 5.47296 0
M  V30 1693 H 157.62 -0.889275 4.33064 0
M  V30 1694 N 156.679 -1.44442 0.630414 0
M  V30 1695 C 157.627 -2.32437 -0.0871428 0
M  V30 1696 C 158.621 -1.47304 -0.836525 0
M  V30 1697 O 159.827 -1.63653 -0.749506 0
M  V30 1698 H 156.202 -0.750533 -0.0469495 0
M  V30 1699 H 158.173 -2.90709 0.673096 0
M  V30 1700 C 156.922 -3.31288 -1.05563 0
M  V30 1701 H 156.245 -3.96805 -0.488426 0
M  V30 1702 H 157.685 -3.9554 -1.52721 0
M  V30 1703 C 156.144 -2.6016 -2.14052 0
M  V30 1704 O 156.674 -2.39997 -3.22124 0
M  V30 1705 N 154.88 -2.19911 -1.89967 0
M  V30 1706 H 154.427 -2.36509 -1.02085 0
M  V30 1707 H 154.385 -1.72646 -2.62756 0
M  V30 1708 N 158.157 -0.370918 -1.53173 0
M  V30 1709 C 159.406 0.218249 -2.00516 0
M  V30 1710 C 159.719 1.49429 -1.26215 0
M  V30 1711 O 160.925 2.16239 -1.64174 0
M  V30 1712 C 159.381 0.43948 -3.57207 0
M  V30 1713 C 158.989 -0.822244 -4.4039 0
M  V30 1714 C 160.733 0.986012 -4.1289 0
M  V30 1715 C 158.64 -0.570304 -5.88644 0
M  V30 1716 H 157.57 0.0853333 -0.749156 0
M  V30 1717 H 160.221 -0.490483 -1.76823 0
M  V30 1718 H 158.603 1.20961 -3.77074 0
M  V30 1719 H 159.777 -1.59557 -4.32294 0
M  V30 1720 H 158.092 -1.29238 -3.95836 0
M  V30 1721 H 160.689 1.18991 -5.21292 0
M  V30 1722 H 161.032 1.94972 -3.6782 0
M  V30 1723 H 161.565 0.27592 -3.96842 0
M  V30 1724 H 158.304 -1.50449 -6.38001 0
M  V30 1725 H 157.824 0.164427 -5.99575 0
M  V30 1726 H 159.503 -0.19784 -6.46697 0
M  V30 1727 N 159.635 1.57281 -0.100228 0
M  V30 1728 C 160.912 1.86014 0.604812 0
M  V30 1729 C 161.292 0.998025 1.86018 0
M  V30 1730 O 160.64 0.0718184 2.28387 0
M  V30 1731 C 160.85 3.36784 0.915278 0
M  V30 1732 C 162.198 4.04957 1.27651 0
M  V30 1733 O 163.222 3.41695 1.00613 0
M  V30 1734 O 162.081 5.16593 1.7831 0
M  V30 1735 H 159.175 0.76942 0.303185 0
M  V30 1736 H 161.721 1.69176 -0.133313 0
M  V30 1737 H 160.493 3.91292 0.0248896 0
M  V30 1738 H 160.116 3.58987 1.70921 0
M  V30 1739 N 161.113 -0.173488 1.56642 0
M  V30 1740 C 162.06 -1.21482 1.96242 0
M  V30 1741 C 163.03 -1.44104 0.826027 0
M  V30 1742 O 164.215 -1.5688 1.08597 0
M  V30 1743 C 161.355 -2.54964 2.32567 0
M  V30 1744 C 160.468 -2.39739 3.59373 0
M  V30 1745 C 159.603 -3.66072 3.84921 0
M  V30 1746 C 158.642 -3.45771 5.05083 0
M  V30 1747 N 157.779 -4.64169 5.26775 0
M  V30 1748 H 162.619 -0.870123 2.85014 0
M  V30 1749 H 160.156 -0.418245 1.41029 0
M  V30 1750 H 162.114 -3.32758 2.5165 0
M  V30 1751 H 160.744 -2.87433 1.46908 0
M  V30 1752 H 159.796 -1.53131 3.48217 0
M  V30 1753 H 161.108 -2.20683 4.47326 0
M  V30 1754 H 160.262 -4.52303 4.0436 0
M  V30 1755 H 159.001 -3.88105 2.9534 0
M  V30 1756 H 158.006 -2.57927 4.85545 0
M  V30 1757 H 159.231 -3.25163 5.96193 0
M  V30 1758 H 157.177 -4.86425 4.40144 0
M  V30 1759 H 157.094 -4.48019 6.08946 0
M  V30 1760 H 158.362 -5.51689 5.5069 0
M  V30 1761 N 162.591 -1.51276 -0.441967 0
M  V30 1762 C 163.538 -1.72256 -1.53612 0
M  V30 1763 C 164.508 -0.564164 -1.56225 0
M  V30 1764 O 165.693 -0.798074 -1.73307 0
M  V30 1765 C 162.833 -1.84932 -2.91366 0
M  V30 1766 C 161.946 -3.12459 -2.98317 0
M  V30 1767 C 161.081 -3.15758 -4.27166 0
M  V30 1768 C 160.12 -4.37619 -4.27967 0
M  V30 1769 N 159.257 -4.38493 -5.48333 0
M  V30 1770 H 164.097 -2.65654 -1.35026 0
M  V30 1771 H 161.634 -1.31662 -0.656009 0
M  V30 1772 H 163.592 -1.90263 -3.7129 0
M  V30 1773 H 162.222 -0.949461 -3.08521 0
M  V30 1774 H 161.274 -3.1646 -2.11086 0
M  V30 1775 H 162.586 -4.02382 -2.94771 0
M  V30 1776 H 161.74 -3.19979 -5.15459 0
M  V30 1777 H 160.479 -2.23715 -4.33362 0
M  V30 1778 H 159.484 -4.33579 -3.38067 0
M  V30 1779 H 160.709 -5.30921 -4.23438 0
M  V30 1780 H 158.655 -3.49318 -5.55259 0
M  V30 1781 H 158.572 -5.22219 -5.46647 0
M  V30 1782 H 159.84 -4.469 -6.38671 0
M  V30 1783 N 164.069 0.697108 -1.41344 0
M  V30 1784 C 165.017 1.83237 -1.43272 0
M  V30 1785 C 166.011 1.66522 -0.310947 0
M  V30 1786 O 167.217 1.73402 -0.482899 0
M  V30 1787 H 163.592 0.603802 -0.448249 0
M  V30 1788 H 165.563 1.78727 -2.38954 0
M  V30 1789 C 164.312 3.21245 -1.33029 0
M  V30 1790 H 163.635 3.34723 -2.18633 0
M  V30 1791 H 165.075 4.00763 -1.38439 0
M  V30 1792 C 163.534 3.36873 -0.0424635 0
M  V30 1793 O 164.064 3.91177 0.913421 0
M  V30 1794 N 162.27 2.90581 0.0331145 0
M  V30 1795 H 161.817 2.46577 -0.745506 0
M  V30 1796 H 161.775 3.01416 0.894199 0
M  V30 1797 N 165.547 1.27147 0.931209 0
M  V30 1798 C 166.495 1.09398 2.05268 0
M  V30 1799 C 167.489 0.0180591 1.6939 0
M  V30 1800 O 168.695 0.17551 1.79142 0
M  V30 1801 H 165.07 0.336986 0.672268 0
M  V30 1802 H 167.041 2.04416 2.17386 0
M  V30 1803 C 165.79 0.75424 3.39421 0
M  V30 1804 H 165.113 1.57404 3.67511 0
M  V30 1805 H 166.553 0.669903 4.18674 0
M  V30 1806 C 165.012 -0.541197 3.32525 0
M  V30 1807 O 165.542 -1.57664 3.69466 0
M  V30 1808 N 163.748 -0.535517 2.85623 0
M  V30 1809 H 163.295 0.307511 2.55758 0
M  V30 1810 H 163.253 -1.40236 2.81392 0
M  V30 1811 N 167.025 -1.13721 1.09112 0
M  V30 1812 C 168.271 -1.85198 0.826414 0
M  V30 1813 C 168.604 -1.83129 -0.646319 0
M  V30 1814 O 167.879 -1.2671 -1.47563 0
M  V30 1815 C 168.162 -3.33507 1.35812 0
M  V30 1816 C 168.015 -3.44108 2.89672 0
M  V30 1817 C 169.334 -4.28838 0.989256 0
M  V30 1818 H 166.453 -0.67243 0.301675 0
M  V30 1819 H 169.095 -1.33499 1.35197 0
M  V30 1820 H 167.245 -3.77666 0.911082 0
M  V30 1821 H 168.917 -3.08684 3.428 0
M  V30 1822 H 167.16 -2.85087 3.26967 0
M  V30 1823 H 167.831 -4.48388 3.21951 0
M  V30 1824 H 170.307 -3.92734 1.37475 0
M  V30 1825 H 169.183 -5.31051 1.38838 0
M  V30 1826 H 169.444 -4.4198 -0.102924 0
M  V30 1827 N 168.503 -0.877838 -1.30888 0
M  V30 1828 C 169.751 -0.491723 -1.96027 0
M  V30 1829 C 170.072 0.960827 -1.69685 0
M  V30 1830 O 169.342 1.67462 -1.01654 0
M  V30 1831 H 167.922 -0.17885 -0.725273 0
M  V30 1832 H 170.584 -1.11935 -1.59551 0
M  V30 1833 H 169.68 -0.656016 -3.05128 0
M  V30 1834 N 169.982 1.44106 -0.638065 0
M  V30 1835 C 170.912 2.33448 0.0494287 0
M  V30 1836 C 171.893 1.48606 0.827672 0
M  V30 1837 O 173.078 1.77308 0.792173 0
M  V30 1838 C 170.208 3.31771 1.02691 0
M  V30 1839 C 169.162 4.26485 0.359823 0
M  V30 1840 C 168.488 5.14729 1.44769 0
M  V30 1841 C 169.788 5.17056 -0.738296 0
M  V30 1842 H 171.482 2.91183 -0.696636 0
M  V30 1843 H 169.028 1.40014 -0.336456 0
M  V30 1844 H 170.981 3.93161 1.51666 0
M  V30 1845 H 169.705 2.7226 1.80395 0
M  V30 1846 H 168.364 3.66437 -0.10934 0
M  V30 1847 H 168.012 4.51566 2.21578 0
M  V30 1848 H 167.712 5.78913 1.00668 0
M  V30 1849 H 169.236 5.78991 1.93911 0
M  V30 1850 H 170.65 5.72342 -0.331354 0
M  V30 1851 H 169.047 5.89879 -1.10286 0
M  V30 1852 H 170.117 4.57652 -1.60258 0
M  V30 1853 N 171.46 0.379036 1.52974 0
M  V30 1854 C 172.39 -0.452706 2.29069 0
M  V30 1855 C 173.371 -1.07237 1.32039 0
M  V30 1856 O 174.556 -1.08708 1.60923 0
M  V30 1857 C 171.686 -1.5856 3.08992 0
M  V30 1858 C 170.64 -1.0925 4.13822 0
M  V30 1859 C 169.966 -2.31668 4.81907 0
M  V30 1860 C 171.266 -0.167702 5.22031 0
M  V30 1861 H 172.96 0.182181 2.98845 0
M  V30 1862 H 170.506 0.0890592 1.43724 0
M  V30 1863 H 172.459 -2.1742 3.6098 0
M  V30 1864 H 171.183 -2.24792 2.36931 0
M  V30 1865 H 169.842 -0.526494 3.628 0
M  V30 1866 H 169.49 -2.96386 4.06404 0
M  V30 1867 H 169.19 -1.9934 5.52754 0
M  V30 1868 H 170.714 -2.91189 5.36695 0
M  V30 1869 H 172.128 -0.664186 5.6944 0
M  V30 1870 H 170.525 0.0653265 6.00064 0
M  V30 1871 H 171.595 0.786347 4.78482 0
M  V30 1872 N 172.938 -1.57226 0.108567 0
M  V30 1873 C 173.868 -2.17778 -0.84232 0
M  V30 1874 C 174.849 -1.11487 -1.2847 0
M  V30 1875 O 176.034 -1.39681 -1.34918 0
M  V30 1876 C 173.164 -2.76888 -2.09644 0
M  V30 1877 C 172.118 -3.88669 -1.79221 0
M  V30 1878 C 171.444 -4.34541 -3.11574 0
M  V30 1879 C 172.744 -5.11251 -1.06864 0
M  V30 1880 H 174.438 -2.97489 -0.337774 0
M  V30 1881 H 171.984 -1.43097 -0.161025 0
M  V30 1882 H 173.937 -3.17904 -2.76614 0
M  V30 1883 H 172.661 -1.94451 -2.62405 0
M  V30 1884 H 171.32 -3.48213 -1.14644 0
M  V30 1885 H 170.968 -3.48977 -3.62249 0
M  V30 1886 H 170.668 -5.09914 -2.91996 0
M  V30 1887 H 172.192 -4.782 -3.7968 0
M  V30 1888 H 173.606 -5.49352 -1.63968 0
M  V30 1889 H 172.003 -5.9214 -0.974178 0
M  V30 1890 H 173.073 -4.8487 -0.0536168 0
M  V30 1891 N 174.416 0.165178 -1.56732 0
M  V30 1892 C 175.664 0.879068 -1.8198 0
M  V30 1893 C 175.985 1.82514 -0.686561 0
M  V30 1894 O 175.255 1.93694 0.293146 0
M  V30 1895 H 173.835 0.327608 -0.671329 0
M  V30 1896 H 176.497 0.163526 -1.94213 0
M  V30 1897 H 175.593 1.45228 -2.76252 0
M  V30 1898 N 175.894 1.51508 0.433938 0
M  V30 1899 C 177.134 1.66006 1.19253 0
M  V30 1900 C 177.498 0.369868 1.88404 0
M  V30 1901 O 178.699 0.39066 2.65946 0
M  V30 1902 C 176.97 2.83229 2.17981 0
M  V30 1903 S 178.529 3.18075 3.02281 0
M  V30 1904 H 175.347 0.584821 0.404358 0
M  V30 1905 H 177.949 1.89425 0.48357 0
M  V30 1906 H 176.653 3.75407 1.65824 0
M  V30 1907 H 176.184 2.6201 2.93453 0
M  V30 1908 H 178.199 2.64772 4.19655 0
M  V30 1909 N 177.372 -0.689602 1.41712 0
M  V30 1910 C 178.619 -1.44966 1.4139 0
M  V30 1911 C 178.947 -1.94484 0.025105 0
M  V30 1912 O 178.202 -1.70307 -0.964048 0
M  V30 1913 C 178.501 -2.67298 2.37247 0
M  V30 1914 C 178.167 -2.36405 3.83958 0
M  V30 1915 C 176.829 -2.27691 4.23923 0
M  V30 1916 C 179.181 -2.11043 4.76561 0
M  V30 1917 C 176.509 -1.91719 5.54492 0
M  V30 1918 C 178.861 -1.76578 6.07456 0
M  V30 1919 C 177.525 -1.66363 6.46436 0
M  V30 1920 H 176.795 -0.53047 0.517381 0
M  V30 1921 H 179.442 -0.787655 1.74552 0
M  V30 1922 H 177.747 -3.38461 1.9736 0
M  V30 1923 H 179.444 -3.25452 2.34269 0
M  V30 1924 H 176.034 -2.44085 3.52308 0
M  V30 1925 H 180.218 -2.16717 4.46483 0
M  V30 1926 H 175.474 -1.82367 5.83568 0
M  V30 1927 H 179.648 -1.55974 6.78708 0
M  V30 1928 H 177.275 -1.38258 7.47522 0
M  V30 1929 N 178.85 -1.27639 -0.924453 0
M  V30 1930 C 180.096 -1.15345 -1.67532 0
M  V30 1931 C 180.451 0.297096 -1.90092 0
M  V30 1932 O 179.744 1.21374 -1.48253 0
M  V30 1933 C 179.938 -1.87407 -3.04325 0
M  V30 1934 C 179.767 -3.3932 -2.95114 0
M  V30 1935 C 178.537 -4.08644 -2.97218 0
M  V30 1936 C 180.735 -4.35242 -2.73987 0
M  V30 1937 N 178.717 -5.47102 -2.78482 0
M  V30 1938 C 180.088 -5.6099 -2.63988 0
M  V30 1939 C 182.143 -4.25294 -2.589 0
M  V30 1940 C 180.846 -6.77924 -2.40442 0
M  V30 1941 C 182.872 -5.41952 -2.36731 0
M  V30 1942 C 182.234 -6.66658 -2.27478 0
M  V30 1943 H 178.333 -0.47696 -0.619704 0
M  V30 1944 H 180.917 -1.6115 -1.09265 0
M  V30 1945 H 179.088 -1.44053 -3.60699 0
M  V30 1946 H 180.82 -1.6759 -3.68369 0
M  V30 1947 H 177.575 -3.60136 -3.07569 0
M  V30 1948 H 177.999 -6.19852 -2.72236 0
M  V30 1949 H 182.641 -3.29598 -2.64811 0
M  V30 1950 H 180.359 -7.73699 -2.3327 0
M  V30 1951 H 183.945 -5.36137 -2.25938 0
M  V30 1952 H 182.825 -7.55405 -2.10555 0
M  V30 1953 N 180.328 1.1314 -1.09713 0
M  V30 1954 C 181.574 1.84757 -0.836224 0
M  V30 1955 C 181.907 1.8347 0.636598 0
M  V30 1956 O 181.182 1.27491 1.46889 0
M  V30 1957 C 181.465 3.32782 -1.37578 0
M  V30 1958 C 181.318 3.42567 -2.91493 0
M  V30 1959 C 182.637 4.28307 -1.01198 0
M  V30 1960 H 179.756 0.67082 -0.305236 0
M  V30 1961 H 182.398 1.3278 -1.35903 0
M  V30 1962 H 180.548 3.77177 -0.931097 0
M  V30 1963 H 182.22 3.06862 -3.44432 0
M  V30 1964 H 180.463 2.83349 -3.28475 0
M  V30 1965 H 181.134 4.46674 -3.24324 0
M  V30 1966 H 183.61 3.91999 -1.39556 0
M  V30 1967 H 182.486 5.30307 -1.41653 0
M  V30 1968 H 182.747 4.42029 0.0794833 0
M  V30 1969 N 181.806 0.884767 1.30421 0
M  V30 1970 C 183.031 0.517288 2.00845 0
M  V30 1971 C 183.456 -0.886779 1.65885 0
M  V30 1972 O 182.814 -1.58768 0.875354 0
M  V30 1973 C 182.862 0.698994 3.5376 0
M  V30 1974 O 181.966 -0.255208 4.1161 0
M  V30 1975 H 181.307 0.203872 0.631927 0
M  V30 1976 H 183.837 1.19225 1.66272 0
M  V30 1977 H 183.847 0.597912 4.03595 0
M  V30 1978 H 182.522 1.72271 3.78544 0
M  V30 1979 H 181.099 -0.10784 3.72744 0
M  V30 1980 N 183.284 -1.43765 0.645699 0
M  V30 1981 C 184.561 -1.9541 0.0862963 0
M  V30 1982 C 184.941 -1.58725 -1.39175 0
M  V30 1983 O 184.289 -0.868581 -2.11348 0
M  V30 1984 C 184.499 -3.47488 0.324565 0
M  V30 1985 C 185.847 -4.24001 0.225497 0
M  V30 1986 O 186.871 -3.55274 0.256715 0
M  V30 1987 O 185.73 -5.46313 0.142801 0
M  V30 1988 H 182.824 -0.826882 -0.0139483 0
M  V30 1989 H 185.37 -1.53743 0.718415 0
M  V30 1990 H 184.142 -3.67289 1.3496 0
M  V30 1991 H 183.765 -3.96135 -0.340987 0
M  V30 1992 N 184.763 -0.387143 -1.52771 0
M  V30 1993 C 186.04 0.253197 -1.93954 0
M  V30 1994 C 186.42 1.64545 -1.32243 0
M  V30 1995 O 185.768 2.23191 -0.489699 0
M  V30 1996 C 185.978 0.281722 -3.47861 0
M  V30 1997 C 187.326 0.511715 -4.21505 0
M  V30 1998 O 188.35 0.362023 -3.54356 0
M  V30 1999 O 187.209 0.804847 -5.40541 0
M  V30 2000 H 184.303 0.156845 -0.811991 0
M  V30 2001 H 186.849 -0.441494 -1.63856 0
M  V30 2002 H 185.621 -0.693571 -3.85104 0
M  V30 2003 H 185.244 1.02142 -3.84256 0
M  V30 2004 N 186.241 1.57166 -0.116904 0
M  V30 2005 C 187.151 2.18745 0.847812 0
M  V30 2006 C 188.167 1.163 1.29423 0
M  V30 2007 O 189.343 1.48761 1.35765 0
M  V30 2008 C 186.408 2.77307 2.0809 0
M  V30 2009 C 185.469 3.94781 1.68661 0
M  V30 2010 C 184.702 4.50541 2.86091 0
M  V30 2011 O 184.925 4.05202 4.01456 0
M  V30 2012 O 183.859 5.41256 2.63298 0
M  V30 2013 H 187.685 3.01632 0.353778 0
M  V30 2014 H 185.27 1.49005 0.108599 0
M  V30 2015 H 187.152 3.14647 2.80313 0
M  V30 2016 H 185.827 1.97452 2.56504 0
M  V30 2017 H 184.734 3.62214 0.935518 0
M  V30 2018 H 186.067 4.76065 1.24991 0
M  V30 2019 N 187.719 -0.156864 1.56817 0
M  V30 2020 C 189.135 -0.50916 1.5126 0
M  V30 2021 C 189.335 -1.83897 0.823658 0
M  V30 2022 O 188.391 -2.49469 0.390055 0
M  V30 2023 C 189.704 -0.52857 2.96018 0
M  V30 2024 C 191.252 -0.614771 3.06903 0
M  V30 2025 C 191.727 -0.664938 4.53147 0
M  V30 2026 N 193.218 -0.727433 4.57452 0
M  V30 2027 C 193.953 -0.787067 5.67973 0
M  V30 2028 N 193.449 -0.806649 6.88088 0
M  V30 2029 N 195.242 -0.827195 5.5598 0
M  V30 2030 H 187.393 0.714935 2.00006 0
M  V30 2031 H 189.656 0.259526 0.911784 0
M  V30 2032 H 189.362 0.380154 3.49639 0
M  V30 2033 H 189.236 -1.36998 3.51442 0
M  V30 2034 H 191.623 -1.51392 2.53307 0
M  V30 2035 H 191.704 0.253597 2.5454 0
M  V30 2036 H 191.348 0.230011 5.07379 0
M  V30 2037 H 191.278 -1.54966 5.03282 0
M  V30 2038 H 193.769 -0.719998 3.70978 0
M  V30 2039 H 194.082 -0.853727 7.6807 0
M  V30 2040 H 192.427 -0.774687 6.90669 0
M  V30 2041 H 195.618 -0.808998 4.61056 0
M  V30 2042 H 195.791 -0.870206 6.4213 0
M  V30 2043 N 189.197 -1.51736 -0.425897 0
M  V30 2044 C 190.437 -1.66636 -1.18371 0
M  V30 2045 C 190.801 -0.379854 -1.88205 0
M  V30 2046 O 192.002 -0.404758 -2.65735 0
M  V30 2047 C 190.273 -2.84382 -2.16476 0
M  V30 2048 S 191.832 -3.19673 -3.0059 0
M  V30 2049 H 188.65 -0.586957 -0.40125 0
M  V30 2050 H 191.252 -1.89679 -0.473518 0
M  V30 2051 H 189.956 -3.76281 -1.63831 0
M  V30 2052 H 189.487 -2.63562 -2.92059 0
M  V30 2053 H 191.502 -2.66994 -4.18245 0
M  V30 2054 N 190.675 0.682077 -1.42076 0
M  V30 2055 C 191.905 1.46844 -1.45329 0
M  V30 2056 C 192.313 1.89102 -0.0609328 0
M  V30 2057 O 191.656 1.58238 0.933082 0
M  V30 2058 C 191.718 2.75375 -2.31104 0
M  V30 2059 C 191.382 2.55238 -3.79081 0
M  V30 2060 C 192.379 2.20309 -4.70914 0
M  V30 2061 C 190.064 2.70459 -4.2327 0
M  V30 2062 C 192.058 2.00859 -6.04925 0
M  V30 2063 C 189.745 2.50624 -5.57343 0
M  V30 2064 C 190.743 2.15876 -6.47986 0
M  V30 2065 O 190.431 1.96227 -7.79583 0
M  V30 2066 H 190.163 0.4586 -0.496651 0
M  V30 2067 H 192.717 0.846131 -1.87162 0
M  V30 2068 H 190.947 3.40061 -1.84107 0
M  V30 2069 H 192.636 3.37231 -2.25898 0
M  V30 2070 H 193.402 2.08153 -4.38061 0
M  V30 2071 H 189.281 2.96485 -3.53012 0
M  V30 2072 H 192.825 1.7366 -6.75639 0
M  V30 2073 H 188.722 2.62375 -5.89771 0
M  V30 2074 H 189.49 2.10883 -7.90867 0
M  V30 2075 N 192.153 1.28127 0.917671 0
M  V30 2076 C 193.399 1.15223 1.66888 0
M  V30 2077 C 193.732 -0.299293 1.9188 0
M  V30 2078 O 193.007 -1.21805 1.51637 0
M  V30 2079 C 193.29 1.94706 3.02922 0
M  V30 2080 C 193.143 3.47898 2.85109 0
M  V30 2081 C 194.462 1.75939 4.03402 0
M  V30 2082 H 191.581 0.419946 0.605652 0
M  V30 2083 H 194.223 1.57398 1.06423 0
M  V30 2084 H 192.373 1.58864 3.54534 0
M  V30 2085 H 194.045 3.93624 2.40537 0
M  V30 2086 H 192.288 3.7373 2.20246 0
M  V30 2087 H 192.959 3.98765 3.81694 0
M  V30 2088 H 195.435 2.07209 3.60837 0
M  V30 2089 H 194.311 2.33931 4.96556 0
M  V30 2090 H 194.572 0.709877 4.36364 0
M  V30 2091 N 193.631 -1.12557 1.10312 0
M  V30 2092 C 194.879 -1.83675 0.843091 0
M  V30 2093 C 195.2 -1.84435 -0.633131 0
M  V30 2094 O 194.47 -1.30657 -1.45964 0
M  V30 2095 H 193.05 -0.680138 0.308904 0
M  V30 2096 H 195.712 -1.36301 1.39313 0
M  V30 2097 H 194.808 -2.87908 1.2048 0
M  V30 2098 N 195.109 -0.891671 -1.2995 0
M  V30 2099 C 196.057 -0.353066 -2.29905 0
M  V30 2100 C 197.051 0.543509 -1.60444 0
M  V30 2101 O 198.257 0.4272 -1.74857 0
M  V30 2102 H 194.632 -0.095531 -0.745907 0
M  V30 2103 H 196.603 -1.20961 -2.72784 0
M  V30 2104 C 195.352 0.411475 -3.45257 0
M  V30 2105 H 194.675 -0.269182 -3.98893 0
M  V30 2106 H 196.115 0.753328 -4.17254 0
M  V30 2107 C 194.574 1.6111 -2.9588 0
M  V30 2108 O 195.104 2.71045 -2.96475 0
M  V30 2109 N 193.31 1.45054 -2.51809 0
M  V30 2110 H 192.857 0.556175 -2.51524 0
M  V30 2111 H 192.815 2.25453 -2.1913 0
M  V30 2112 N 196.587 1.43421 -0.653314 0
M  V30 2113 C 197.55 2.29182 0.0287951 0
M  V30 2114 C 198.55 1.42213 0.750465 0
M  V30 2115 O 199.74 1.63843 0.591701 0
M  V30 2116 C 196.872 3.24278 1.05151 0
M  V30 2117 H 198.065 2.90985 -0.725786 0
M  V30 2118 H 195.618 1.50702 -0.414545 0
M  V30 2119 H 196.353 2.6737 1.83532 0
M  V30 2120 H 196.138 3.88396 0.537687 0
M  V30 2121 H 197.628 3.88647 1.52786 0
M  V30 2122 N 198.065 0.39524 1.52563 0
M  V30 2123 C 199.29 -0.187456 2.06551 0
M  V30 2124 C 199.715 -1.39249 1.26457 0
M  V30 2125 O 199.073 -1.78947 0.291151 0
M  V30 2126 C 199.121 -0.529985 3.56684 0
M  V30 2127 O 198.225 -1.62307 3.79118 0
M  V30 2128 H 197.566 -0.0202537 0.663691 0
M  V30 2129 H 200.096 0.564426 1.96661 0
M  V30 2130 H 200.106 -0.792598 4.00227 0
M  V30 2131 H 198.781 0.350987 4.14416 0
M  V30 2132 H 197.358 -1.3537 3.47461 0
M  V30 2133 N 199.544 -1.57102 0.125237 0
M  V30 2134 C 200.791 -1.95407 -0.531248 0
M  V30 2135 C 201.119 -1.0089 -1.66287 0
M  V30 2136 O 200.374 -0.0339431 -1.95671 0
M  V30 2137 C 200.673 -3.40096 -1.09862 0
M  V30 2138 C 200.339 -4.50815 -0.0876989 0
M  V30 2139 C 199.001 -4.80824 0.19026 0
M  V30 2140 C 201.353 -5.17724 0.600902 0
M  V30 2141 C 198.681 -5.75058 1.163 0
M  V30 2142 C 201.033 -6.13005 1.56231 0
M  V30 2143 C 199.697 -6.41403 1.8482 0
M  V30 2144 H 198.967 -0.715046 -0.194397 0
M  V30 2145 H 201.614 -1.90373 0.207463 0
M  V30 2146 H 199.919 -3.41855 -1.91422 0
M  V30 2147 H 201.616 -3.6705 -1.61478 0
M  V30 2148 H 198.206 -4.27444 -0.314528 0
M  V30 2149 H 202.39 -4.94691 0.399333 0
M  V30 2150 H 197.646 -5.95362 1.39117 0
M  V30 2151 H 201.82 -6.63934 2.10153 0
M  V30 2152 H 199.447 -7.14229 2.60349 0
M  V30 2153 N 201.022 0.148545 -1.56898 0
M  V30 2154 C 202.25 0.876389 -1.87422 0
M  V30 2155 C 202.665 1.74809 -0.713256 0
M  V30 2156 O 202.022 1.79725 0.317025 0
M  V30 2157 C 202.073 1.73438 -3.17178 0
M  V30 2158 O 201.794 0.897809 -4.28802 0
M  V30 2159 C 203.295 2.56993 -3.61205 0
M  V30 2160 H 200.515 0.253489 -0.621277 0
M  V30 2161 H 203.059 0.141798 -2.04008 0
M  V30 2162 H 201.214 2.42205 -3.0235 0
M  V30 2163 H 201.628 1.48672 -5.02988 0
M  V30 2164 H 203.102 3.12773 -4.54838 0
M  V30 2165 H 203.579 3.32958 -2.86419 0
M  V30 2166 H 204.185 1.9352 -3.78722 0
M  V30 2167 N 202.5 1.5196 0.417844 0
M  V30 2168 C 203.748 1.65263 1.16329 0
M  V30 2169 C 204.069 0.380634 1.91249 0
M  V30 2170 O 203.339 -0.604214 1.86349 0
M  V30 2171 H 201.919 0.60912 0.432414 0
M  V30 2172 H 204.581 1.88969 0.477162 0
M  V30 2173 H 203.677 2.4896 1.88217 0
M  V30 2174 N 203.978 -0.674533 1.42435 0
M  V30 2175 C 205.226 -1.43175 1.42637 0
M  V30 2176 C 205.547 -1.94951 0.0438992 0
M  V30 2177 O 204.817 -1.7308 -0.917607 0
M  V30 2178 H 203.397 -0.531307 0.525092 0
M  V30 2179 H 206.059 -0.797006 1.77859 0
M  V30 2180 H 205.155 -2.28463 2.12629 0
M  V30 2181 N 205.456 -1.28612 -0.910864 0
M  V30 2182 C 206.681 -1.1891 -1.69927 0
M  V30 2183 C 207.106 0.248372 -1.86453 0
M  V30 2184 O 206.464 1.17961 -1.37676 0
M  V30 2185 C 206.512 -1.89578 -3.06745 0
M  V30 2186 O 205.616 -1.20521 -3.94396 0
M  V30 2187 H 204.957 -0.412632 -0.520222 0
M  V30 2188 H 207.487 -1.69985 -1.1387 0
M  V30 2189 H 207.497 -1.97597 -3.56958 0
M  V30 2190 H 206.172 -2.94136 -2.94035 0
M  V30 2191 H 204.749 -1.20684 -3.52831 0
M  V30 2192 N 206.934 1.1197 -1.10907 0
M  V30 2193 C 208.183 1.82947 -0.849302 0
M  V30 2194 C 208.496 1.85275 0.627112 0
M  V30 2195 O 209.702 2.52296 1.00295 0
M  V30 2196 C 208.158 3.28529 -1.46959 0
M  V30 2197 C 207.766 3.34546 -2.97965 0
M  V30 2198 C 209.51 4.04443 -1.28942 0
M  V30 2199 C 207.417 4.74491 -3.53004 0
M  V30 2200 H 206.347 0.685477 -0.314065 0
M  V30 2201 H 208.998 1.2604 -1.33365 0
M  V30 2202 H 207.38 3.85333 -0.912917 0
M  V30 2203 H 208.554 2.87654 -3.59989 0
M  V30 2204 H 206.869 2.72108 -3.15192 0
M  V30 2205 H 209.466 5.07787 -1.67502 0
M  V30 2206 H 209.809 4.15656 -0.231456 0
M  V30 2207 H 210.342 3.5401 -1.81443 0
M  V30 2208 H 207.081 4.68474 -4.58489 0
M  V30 2209 H 206.601 5.21816 -2.9575 0
M  V30 2210 H 208.28 5.4344 -3.51115 0
M  V30 2211 N 208.412 0.89855 1.29475 0
M  V30 2212 C 209.362 0.346767 2.25348 0
M  V30 2213 C 210.346 -0.532509 1.51833 0
M  V30 2214 O 211.538 -0.374714 1.72988 0
M  V30 2215 C 208.667 -0.425681 3.40651 0
M  V30 2216 C 207.753 0.46845 4.21505 0
M  V30 2217 N 208.144 1.57514 4.80648 0
M  V30 2218 C 206.442 0.26603 4.45206 0
M  V30 2219 C 207.143 2.12889 5.41344 0
M  V30 2220 N 206.119 1.42208 5.24669 0
M  V30 2221 H 209.921 1.19219 2.68634 0
M  V30 2222 H 207.435 0.749473 1.44072 0
M  V30 2223 H 209.432 -0.837716 4.08397 0
M  V30 2224 H 208.092 -1.26838 2.98902 0
M  V30 2225 H 209.103 1.95789 4.79465 0
M  V30 2226 H 205.78 -0.538394 4.14014 0
M  V30 2227 H 207.17 3.05901 5.98226 0
M  V30 2228 N 209.89 -1.43072 0.660911 0
M  V30 2229 C 211.118 -2.06067 0.185422 0
M  V30 2230 C 211.533 -1.49582 -1.15198 0
M  V30 2231 O 210.89 -0.630134 -1.71276 0
M  V30 2232 C 210.941 -3.61371 0.0966523 0
M  V30 2233 O 210.662 -4.15758 1.38119 0
M  V30 2234 C 212.163 -4.41455 -0.403996 0
M  V30 2235 H 209.383 -0.664459 0.0934604 0
M  V30 2236 H 211.927 -1.83447 0.90373 0
M  V30 2237 H 210.082 -3.8315 -0.572259 0
M  V30 2238 H 210.496 -5.09499 1.24542 0
M  V30 2239 H 211.97 -5.50437 -0.415045 0
M  V30 2240 H 212.447 -4.15036 -1.43674 0
M  V30 2241 H 213.053 -4.24663 0.232691 0
M  V30 2242 N 211.368 -0.403325 -1.52352 0
M  V30 2243 C 212.617 0.175668 -2.00934 0
M  V30 2244 C 212.93 1.46718 -1.29356 0
M  V30 2245 O 214.136 2.12708 -1.68724 0
M  V30 2246 C 212.592 0.363612 -3.58058 0
M  V30 2247 C 212.2 -0.915472 -4.38547 0
M  V30 2248 C 213.944 0.89821 -4.14888 0
M  V30 2249 C 211.851 -0.695035 -5.87302 0
M  V30 2250 H 210.781 0.0694234 -0.750797 0
M  V30 2251 H 213.432 -0.527879 -1.75743 0
M  V30 2252 H 211.814 1.12935 -3.79555 0
M  V30 2253 H 212.988 -1.68691 -4.28812 0
M  V30 2254 H 211.303 -1.37606 -3.93006 0
M  V30 2255 H 213.9 1.07907 -5.23699 0
M  V30 2256 H 214.243 1.87126 -3.71873 0
M  V30 2257 H 214.776 0.191681 -3.97338 0
M  V30 2258 H 211.515 -1.63948 -6.34666 0
M  V30 2259 H 211.035 0.0372116 -5.99788 0
M  V30 2260 H 212.714 -0.33497 -6.46132 0
M  V30 2261 N 212.846 1.57033 -0.133567 0
M  V30 2262 C 213.793 2.16074 0.811208 0
M  V30 2263 C 214.763 1.08979 1.2535 0
M  V30 2264 O 215.948 1.36958 1.32843 0
M  V30 2265 C 213.088 2.77595 2.05024 0
M  V30 2266 C 212.201 3.99042 1.65498 0
M  V30 2267 C 211.336 4.48603 2.84479 0
M  V30 2268 C 210.375 5.62547 2.41262 0
M  V30 2269 N 209.512 6.06787 3.53206 0
M  V30 2270 H 214.352 2.96477 0.300906 0
M  V30 2271 H 211.889 1.46462 0.136822 0
M  V30 2272 H 213.847 3.11402 2.77642 0
M  V30 2273 H 212.477 1.99859 2.53488 0
M  V30 2274 H 211.529 3.71302 0.826981 0
M  V30 2275 H 212.841 4.81629 1.29748 0
M  V30 2276 H 211.995 4.84395 3.65303 0
M  V30 2277 H 210.734 3.64995 3.23465 0
M  V30 2278 H 209.739 5.26345 1.58874 0
M  V30 2279 H 210.964 6.47931 2.03377 0
M  V30 2280 H 208.91 5.26117 3.91838 0
M  V30 2281 H 208.827 6.84266 3.21427 0
M  V30 2282 H 210.095 6.4722 4.34427 0
M  V30 2283 N 214.325 -0.140222 1.56975 0
M  V30 2284 C 215.553 -0.866437 1.87884 0
M  V30 2285 C 215.968 -1.74428 0.722517 0
M  V30 2286 O 215.325 -1.79891 -0.30749 0
M  V30 2287 C 215.376 -1.71753 3.18093 0
M  V30 2288 O 215.097 -0.875056 4.29272 0
M  V30 2289 C 216.598 -2.55074 3.62563 0
M  V30 2290 H 213.818 -0.25019 0.622612 0
M  V30 2291 H 216.362 -0.130977 2.0408 0
M  V30 2292 H 214.517 -2.40598 3.03631 0
M  V30 2293 H 214.931 -1.46002 5.03769 0
M  V30 2294 H 216.405 -3.10356 4.5649 0
M  V30 2295 H 216.882 -3.31434 2.88181 0
M  V30 2296 H 217.488 -1.91509 3.79743 0
M  V30 2297 N 215.803 -1.52179 -0.40978 0
M  V30 2298 C 216.733 -1.78435 -1.5061 0
M  V30 2299 C 217.714 -0.635295 -1.57791 0
M  V30 2300 O 218.899 -0.880823 -1.73076 0
M  V30 2301 C 216.029 -1.93444 -2.88439 0
M  V30 2302 C 214.983 -3.09038 -2.96108 0
M  V30 2303 C 214.309 -3.09268 -4.36185 0
M  V30 2304 C 215.609 -4.48508 -2.67652 0
M  V30 2305 H 217.303 -2.70237 -1.28889 0
M  V30 2306 H 214.849 -1.30036 -0.618605 0
M  V30 2307 H 216.802 -2.10394 -3.65119 0
M  V30 2308 H 215.526 -0.983129 -3.11452 0
M  V30 2309 H 214.185 -2.91837 -2.21872 0
M  V30 2310 H 213.833 -2.11861 -4.56206 0
M  V30 2311 H 213.533 -3.86907 -4.42241 0
M  V30 2312 H 215.057 -3.28348 -5.14801 0
M  V30 2313 H 216.471 -4.65918 -3.34056 0
M  V30 2314 H 214.868 -5.28059 -2.85085 0
M  V30 2315 H 215.938 -4.56649 -1.63095 0
M  V30 2316 N 217.281 0.66697 -1.42791 0
M  V30 2317 C 218.529 1.42417 -1.43394 0
M  V30 2318 C 218.85 1.94925 -0.0542373 0
M  V30 2319 O 218.12 1.73564 0.908415 0
M  V30 2320 H 216.7 0.528515 -0.527902 0
M  V30 2321 H 219.362 0.787562 -1.78279 0
M  V30 2322 H 218.458 2.27333 -2.13837 0
M  V30 2323 N 218.759 1.29093 0.90403 0
M  V30 2324 C 220.005 1.16986 1.65656 0
M  V30 2325 C 220.338 -0.278925 1.92186 0
M  V30 2326 O 219.613 -1.2019 1.5292 0
M  V30 2327 C 219.896 1.97908 3.0084 0
M  V30 2328 C 219.749 3.50903 2.81403 0
M  V30 2329 C 221.068 1.80208 4.01513 0
M  V30 2330 H 218.187 0.426346 0.601164 0
M  V30 2331 H 220.829 1.58518 1.04747 0
M  V30 2332 H 218.979 1.62616 3.52829 0
M  V30 2333 H 220.651 3.96153 2.36348 0
M  V30 2334 H 218.894 3.76045 2.1627 0
M  V30 2335 H 219.565 4.02791 3.77443 0
M  V30 2336 H 222.041 2.11025 3.58619 0
M  V30 2337 H 220.917 2.39184 4.94047 0
M  V30 2338 H 221.178 0.756119 4.35586 0
M  V30 2339 N 220.237 -1.11381 1.11499 0
M  V30 2340 C 221.467 -1.86663 0.885464 0
M  V30 2341 C 221.875 -1.80464 -0.568281 0
M  V30 2342 O 221.218 -1.18445 -1.40415 0
M  V30 2343 C 221.28 -3.36337 1.26956 0
M  V30 2344 C 220.944 -3.66304 2.73259 0
M  V30 2345 C 221.941 -3.63733 3.71476 0
M  V30 2346 C 219.626 -3.9529 3.09921 0
M  V30 2347 C 221.62 -3.89725 5.04374 0
M  V30 2348 C 219.307 -4.20941 4.43004 0
M  V30 2349 C 220.305 -4.18147 5.40039 0
M  V30 2350 O 219.993 -4.43153 6.70724 0
M  V30 2351 H 219.725 -0.597114 0.316908 0
M  V30 2352 H 222.279 -1.41782 1.48617 0
M  V30 2353 H 220.509 -3.81826 0.611999 0
M  V30 2354 H 222.198 -3.92986 1.01573 0
M  V30 2355 H 222.964 -3.41389 3.44498 0
M  V30 2356 H 218.843 -3.966 2.35009 0
M  V30 2357 H 222.387 -3.8746 5.80104 0
M  V30 2358 H 218.284 -4.42761 4.69716 0
M  V30 2359 H 219.052 -4.60717 6.76522 0
M  V30 2360 N 221.715 -0.905404 -1.28997 0
M  V30 2361 C 222.94 -0.549175 -1.99997 0
M  V30 2362 C 223.365 0.860276 -1.67275 0
M  V30 2363 O 222.723 1.57355 -0.900502 0
M  V30 2364 C 222.771 -0.755185 -3.52604 0
M  V30 2365 O 221.875 0.189692 -4.11964 0
M  V30 2366 H 221.216 -0.213899 -0.628604 0
M  V30 2367 H 223.746 -1.21856 -1.64354 0
M  V30 2368 H 223.756 -0.662045 -4.02593 0
M  V30 2369 H 222.431 -1.78271 -3.75755 0
M  V30 2370 H 221.008 0.0485257 -3.72868 0
M  V30 2371 N 223.193 1.4272 -0.668489 0
M  V30 2372 C 224.47 1.95248 -0.117373 0
M  V30 2373 C 224.85 1.60919 1.36632 0
M  V30 2374 O 224.198 0.902095 2.09939 0
M  V30 2375 C 224.408 3.46927 -0.379806 0
M  V30 2376 C 225.756 4.23588 -0.292923 0
M  V30 2377 O 226.78 3.5482 -0.313204 0
M  V30 2378 O 225.639 5.46017 -0.229697 0
M  V30 2379 H 222.733 0.827 0.00079152 0
M  V30 2380 H 225.279 1.52581 -0.742783 0
M  V30 2381 H 224.051 3.65096 -1.40786 0
M  V30 2382 H 223.674 3.96627 0.277923 0
M  V30 2383 N 224.671 0.411399 1.52136 0
M  V30 2384 C 225.901 -0.16284 2.05957 0
M  V30 2385 C 226.309 -1.3922 1.28119 0
M  V30 2386 O 225.652 -1.80768 0.326881 0
M  V30 2387 C 225.714 -0.575946 3.54856 0
M  V30 2388 C 225.378 0.542998 4.53763 0
M  V30 2389 C 226.375 1.40726 5.00492 0
M  V30 2390 C 224.06 0.716337 4.97166 0
M  V30 2391 C 226.054 2.4298 5.8927 0
M  V30 2392 C 223.741 1.74218 5.8574 0
M  V30 2393 C 224.739 2.59731 6.31687 0
M  V30 2394 O 224.427 3.60558 7.18507 0
M  V30 2395 H 224.159 -0.0229125 0.675612 0
M  V30 2396 H 226.713 0.581634 1.96993 0
M  V30 2397 H 224.943 -1.37274 3.61515 0
M  V30 2398 H 226.632 -1.07836 3.91313 0
M  V30 2399 H 227.398 1.28476 4.67674 0
M  V30 2400 H 223.277 0.0603857 4.6096 0
M  V30 2401 H 226.821 3.0976 6.25055 0
M  V30 2402 H 222.718 1.86498 6.17971 0
M  V30 2403 H 223.486 3.56829 7.36624 0
M  V30 2404 N 226.149 -1.5696 0.141893 0
M  V30 2405 C 227.56 -1.82797 -0.379776 0
M  V30 2406 C 227.911 -1.06033 -1.6508 0
M  V30 2407 O 227.036 -0.304011 -2.14254 0
M  V30 2408 C 227.631 -3.31578 -0.695802 0
M  V30 2409 C 226.19 -3.58014 -1.16201 0
M  V30 2410 C 225.337 -2.76699 -0.182455 0
M  V30 2411 H 228.288 -1.54406 0.366675 0
M  V30 2412 H 228.309 -3.47454 -1.55099 0
M  V30 2413 H 227.821 -3.87421 0.229449 0
M  V30 2414 H 225.922 -3.07553 -2.10338 0
M  V30 2415 H 226.035 -4.66501 -1.09151 0
M  V30 2416 H 224.399 -2.45618 -0.674072 0
M  V30 2417 H 225.182 -3.35311 0.736297 0
M  V30 2418 N 227.627 0.131896 -1.57047 0
M  V30 2419 C 229.038 0.690407 -1.73465 0
M  V30 2420 C 229.389 1.8094 -0.758629 0
M  V30 2421 O 228.514 2.16282 0.0713813 0
M  V30 2422 C 229.109 1.25916 -3.14532 0
M  V30 2423 C 227.668 1.76409 -3.32501 0
M  V30 2424 C 226.815 0.658579 -2.69366 0
M  V30 2425 H 229.766 -0.0939144 -1.58422 0
M  V30 2426 H 229.787 2.12892 -3.15369 0
M  V30 2427 H 229.299 0.444515 -3.85546 0
M  V30 2428 H 227.4 2.60391 -2.66509 0
M  V30 2429 H 227.513 1.88241 -4.4057 0
M  V30 2430 H 225.877 1.08899 -2.30246 0
M  V30 2431 H 226.66 -0.14487 -3.42994 0
M  V30 2432 N 229.106 1.52395 0.401703 0
M  V30 2433 C 230.036 1.79231 1.49661 0
M  V30 2434 C 231.017 0.643654 1.57452 0
M  V30 2435 O 232.202 0.889989 1.72606 0
M  V30 2436 C 229.332 1.94971 2.87409 0
M  V30 2437 C 228.286 3.10604 2.94465 0
M  V30 2438 C 227.612 3.11577 4.34538 0
M  V30 2439 C 228.912 4.49921 2.6527 0
M  V30 2440 H 230.606 2.70917 1.27454 0
M  V30 2441 H 228.152 1.30362 0.6117 0
M  V30 2442 H 230.105 2.12328 3.63999 0
M  V30 2443 H 228.829 0.999632 3.10926 0
M  V30 2444 H 227.488 2.93009 2.20321 0
M  V30 2445 H 227.136 2.14277 4.55076 0
M  V30 2446 H 226.836 3.89247 4.40183 0
M  V30 2447 H 228.36 3.31073 5.13053 0
M  V30 2448 H 229.774 4.67683 3.31581 0
M  V30 2449 H 228.171 5.29564 2.82281 0
M  V30 2450 H 229.241 4.57507 1.60671 0
M  V30 2451 N 230.584 -0.659388 1.43143 0
M  V30 2452 C 231.547 -1.75432 1.47501 0
M  V30 2453 C 232.547 -1.56707 0.360512 0
M  V30 2454 O 233.737 -1.62717 0.622002 0
M  V30 2455 C 230.869 -3.14239 1.32162 0
M  V30 2456 H 232.062 -1.7295 2.45006 0
M  V30 2457 H 229.615 -0.870469 1.29817 0
M  V30 2458 H 230.35 -3.22336 0.356401 0
M  V30 2459 H 230.135 -3.29235 2.12948 0
M  V30 2460 H 231.625 -3.94094 1.3813 0
M  V30 2461 N 232.062 -1.29571 -0.897171 0
M  V30 2462 C 233.29 -1.20583 -1.68129 0
M  V30 2463 C 233.705 0.233181 -1.87354 0
M  V30 2464 O 233.062 1.15579 -1.41236 0
M  V30 2465 C 233.113 -1.91772 -3.06441 0
M  V30 2466 O 232.834 -3.30053 -2.88091 0
M  V30 2467 C 234.335 -1.89291 -4.00854 0
M  V30 2468 H 231.555 -0.417826 -0.525036 0
M  V30 2469 H 234.099 -1.70987 -1.12177 0
M  V30 2470 H 232.254 -1.45196 -3.59161 0
M  V30 2471 H 232.668 -3.65942 -3.75748 0
M  V30 2472 H 234.142 -2.43662 -4.95311 0
M  V30 2473 H 234.619 -0.869014 -4.30517 0
M  V30 2474 H 235.225 -2.35622 -3.54066 0
M  V30 2475 N 233.54 1.10788 -1.12088 0
M  V30 2476 C 234.817 1.79136 -0.785476 0
M  V30 2477 C 235.197 1.98246 0.725377 0
M  V30 2478 O 234.545 1.57258 1.65778 0
M  V30 2479 C 234.755 3.12375 -1.55636 0
M  V30 2480 C 236.103 3.8731 -1.74001 0
M  V30 2481 O 237.127 3.22085 -1.52117 0
M  V30 2482 O 235.986 5.04369 -2.10415 0
M  V30 2483 H 233.08 0.776226 -0.285311 0
M  V30 2484 H 235.626 1.1747 -1.2247 0
M  V30 2485 H 234.398 2.93863 -2.5838 0
M  V30 2486 H 234.021 3.81758 -1.11114 0
M  V30 2487 N 235.018 0.912232 1.28515 0
M  V30 2488 C 235.948 0.416403 2.29757 0
M  V30 2489 C 236.929 -0.515194 1.6211 0
M  V30 2490 O 238.114 -0.423253 1.89532 0
M  V30 2491 C 235.244 -0.34572 3.45575 0
M  V30 2492 C 234.198 0.496599 4.25109 0
M  V30 2493 C 233.524 -0.393771 5.33248 0
M  V30 2494 C 234.824 1.75307 4.92001 0
M  V30 2495 H 236.518 1.26249 2.7148 0
M  V30 2496 H 234.064 0.608515 1.30511 0
M  V30 2497 H 236.017 -0.703422 4.15488 0
M  V30 2498 H 234.741 -1.2257 3.02728 0
M  V30 2499 H 233.4 0.8368 3.56922 0
M  V30 2500 H 233.048 -1.27225 4.86644 0
M  V30 2501 H 232.748 0.166209 5.87365 0
M  V30 2502 H 234.272 -0.747389 6.06009 0
M  V30 2503 H 235.686 1.46437 5.54283 0
M  V30 2504 H 234.083 2.25534 5.56106 0
M  V30 2505 H 235.153 2.48176 4.16577 0
M  V30 2506 N 236.496 -1.42363 0.676048 0
M  V30 2507 C 237.912 -1.55811 0.345718 0
M  V30 2508 C 238.112 -1.65544 -1.14879 0
M  V30 2509 O 237.168 -1.62306 -1.93424 0
M  V30 2510 C 238.481 -2.80746 1.07713 0
M  V30 2511 C 240.029 -2.9452 1.05958 0
M  V30 2512 C 240.504 -4.22318 1.77233 0
M  V30 2513 N 241.995 -4.29233 1.74108 0
M  V30 2514 C 242.73 -5.26935 2.26113 0
M  V30 2515 N 242.226 -6.30783 2.86505 0
M  V30 2516 N 244.019 -5.18741 2.1648 0
M  V30 2517 H 236.17 -1.34289 1.6456 0
M  V30 2518 H 238.433 -0.646506 0.69335 0
M  V30 2519 H 238.139 -2.79696 2.13221 0
M  V30 2520 H 238.013 -3.71676 0.64316 0
M  V30 2521 H 240.4 -2.95097 0.0128255 0
M  V30 2522 H 240.481 -2.04817 1.53244 0
M  V30 2523 H 240.125 -4.22502 2.81877 0
M  V30 2524 H 240.055 -5.10958 1.27396 0
M  V30 2525 H 242.546 -3.54814 1.30059 0
M  V30 2526 H 242.859 -7.01691 3.23805 0
M  V30 2527 H 241.204 -6.31341 2.90575 0
M  V30 2528 H 244.395 -4.36533 1.68987 0
M  V30 2529 H 244.568 -5.94721 2.57316 0
M  V30 2530 N 237.974 -0.419461 -1.51915 0
M  V30 2531 C 239.39 -0.0708431 -1.59443 0
M  V30 2532 C 239.59 1.41796 -1.43164 0
M  V30 2533 O 238.646 2.18596 -1.26381 0
M  V30 2534 C 239.959 -0.574991 -2.95151 0
M  V30 2535 C 241.507 -0.533867 -3.08413 0
M  V30 2536 C 241.982 -1.01469 -4.46618 0
M  V30 2537 N 243.473 -0.971939 -4.52888 0
M  V30 2538 C 244.208 -1.31505 -5.58116 0
M  V30 2539 N 243.704 -1.73014 -6.70849 0
M  V30 2540 N 245.497 -1.23436 -5.48379 0
M  V30 2541 H 237.648 -1.38836 -1.60743 0
M  V30 2542 H 239.911 -0.570998 -0.756747 0
M  V30 2543 H 239.617 -1.61597 -3.12377 0
M  V30 2544 H 239.491 0.00979777 -3.77199 0
M  V30 2545 H 241.878 0.498086 -2.90866 0
M  V30 2546 H 241.959 -1.15484 -2.28248 0
M  V30 2547 H 241.603 -2.04502 -4.6491 0
M  V30 2548 H 241.533 -0.370433 -5.25295 0
M  V30 2549 H 244.024 -0.666893 -3.71969 0
M  V30 2550 H 244.337 -1.97479 -7.47143 0
M  V30 2551 H 242.682 -1.76926 -6.72103 0
M  V30 2552 H 245.873 -0.908869 -4.59192 0
M  V30 2553 H 246.046 -1.50506 -6.30279 0
M  V30 2554 N 239.452 1.56882 -0.150215 0
M  V30 2555 C 240.868 1.58263 0.20617 0
M  V30 2556 C 241.068 1.16464 1.64434 0
M  V30 2557 O 240.124 0.866422 2.3717 0
M  V30 2558 C 241.437 3.00649 -0.0555025 0
M  V30 2559 C 242.985 3.12999 0.00795388 0
M  V30 2560 C 243.46 4.5744 -0.226429 0
M  V30 2561 N 244.951 4.62875 -0.173469 0
M  V30 2562 C 245.686 5.72454 -0.329288 0
M  V30 2563 N 245.182 6.90669 -0.543005 0
M  V30 2564 N 246.975 5.61467 -0.266666 0
M  V30 2565 H 239.126 1.82345 -1.08922 0
M  V30 2566 H 241.389 0.844149 -0.431413 0
M  V30 2567 H 241.095 3.3563 -1.05096 0
M  V30 2568 H 240.969 3.71337 0.66246 0
M  V30 2569 H 243.356 2.77857 0.993966 0
M  V30 2570 H 243.437 2.4479 -0.742388 0
M  V30 2571 H 243.081 4.93287 -1.20956 0
M  V30 2572 H 243.011 5.2378 0.544274 0
M  V30 2573 H 245.502 3.77898 -0.0130709 0
M  V30 2574 H 245.815 7.70045 -0.651922 0
M  V30 2575 H 244.16 6.92581 -0.579366 0
M  V30 2576 H 247.351 4.67992 -0.100441 0
M  V30 2577 H 247.524 6.46816 -0.391535 0
M  V30 2578 N 240.93 -0.123565 1.57115 0
M  V30 2579 C 242.177 -0.832153 1.84612 0
M  V30 2580 C 242.505 -1.80093 0.734627 0
M  V30 2581 O 241.76 -1.93766 -0.27442 0
M  V30 2582 C 242.059 -1.62016 3.18568 0
M  V30 2583 C 241.725 -0.796084 4.43817 0
M  V30 2584 C 240.387 -0.568816 4.77826 0
M  V30 2585 C 242.739 -0.221364 5.2073 0
M  V30 2586 C 240.067 0.243499 5.86194 0
M  V30 2587 C 242.419 0.578117 6.29953 0
M  V30 2588 C 241.083 0.815744 6.62497 0
M  V30 2589 H 240.353 -0.304507 0.675542 0
M  V30 2590 H 243 -0.0947248 1.91266 0
M  V30 2591 H 241.305 -2.42837 3.0747 0
M  V30 2592 H 243.002 -2.17231 3.37064 0
M  V30 2593 H 239.592 -0.983307 4.17168 0
M  V30 2594 H 243.776 -0.384173 4.94811 0
M  V30 2595 H 239.032 0.436871 6.09837 0
M  V30 2596 H 243.206 1.03046 6.88734 0
M  V30 2597 H 240.833 1.44701 7.46301 0
M  V30 2598 N 242.408 -1.52605 -0.393616 0
M  V30 2599 C 243.685 -1.58001 -1.15304 0
M  V30 2600 C 244.065 -0.370385 -2.07825 0
M  V30 2601 O 243.413 0.641638 -2.19306 0
M  V30 2602 C 243.623 -2.91652 -1.91677 0
M  V30 2603 C 244.971 -3.4522 -2.47201 0
M  V30 2604 O 245.995 -2.93495 -2.01839 0
M  V30 2605 O 244.854 -4.35579 -3.3005 0
M  V30 2606 H 241.948 -0.637068 -0.527327 0
M  V30 2607 H 244.494 -1.64939 -0.399141 0
M  V30 2608 H 243.266 -3.71136 -1.23992 0
M  V30 2609 H 242.889 -2.88077 -2.74039 0
M  V30 2610 N 243.887 0.651787 -1.4349 0
M  V30 2611 C 245.115 1.43937 -1.48626 0
M  V30 2612 C 245.53 1.8851 -0.104587 0
M  V30 2613 O 244.887 1.5958 0.885464 0
M  V30 2614 C 244.938 2.6734 -2.43334 0
M  V30 2615 O 244.659 2.24631 -3.76128 0
M  V30 2616 C 246.16 3.60683 -2.57726 0
M  V30 2617 H 243.38 0.44213 -0.504739 0
M  V30 2618 H 245.924 0.798944 -1.88248 0
M  V30 2619 H 244.079 3.2752 -2.06904 0
M  V30 2620 H 244.493 3.04485 -4.2707 0
M  V30 2621 H 245.967 4.43933 -3.28067 0
M  V30 2622 H 246.444 4.08126 -1.62265 0
M  V30 2623 H 247.05 3.06384 -2.94973 0
M  V30 2624 N 245.365 1.30045 0.890287 0
M  V30 2625 C 246.612 1.18561 1.64163 0
M  V30 2626 C 246.94 -0.260852 1.92743 0
M  V30 2627 O 246.195 -1.20376 1.54299 0
M  V30 2628 C 246.494 1.95409 2.99249 0
M  V30 2629 C 246.16 3.45066 2.90242 0
M  V30 2630 C 244.822 3.85878 2.87492 0
M  V30 2631 C 247.174 4.4039 2.78758 0
M  V30 2632 C 244.502 5.20314 2.7109 0
M  V30 2633 C 246.854 5.74928 2.63894 0
M  V30 2634 C 245.518 6.14986 2.59516 0
M  V30 2635 H 244.788 0.433846 0.600715 0
M  V30 2636 H 247.435 1.61088 1.03552 0
M  V30 2637 H 245.74 1.45501 3.63781 0
M  V30 2638 H 247.437 1.8392 3.56334 0
M  V30 2639 H 244.027 3.12631 2.93189 0
M  V30 2640 H 248.211 4.09806 2.79952 0
M  V30 2641 H 243.467 5.50449 2.66112 0
M  V30 2642 H 247.641 6.48434 2.53981 0
M  V30 2643 H 245.268 7.19104 2.46565 0
M  V30 2644 N 246.843 -1.10192 1.12674 0
M  V30 2645 C 247.79 -2.16606 0.796906 0
M  V30 2646 C 248.76 -1.64394 -0.237476 0
M  V30 2647 O 249.945 -1.90474 -0.111484 0
M  V30 2648 C 247.085 -3.44116 0.26043 0
M  V30 2649 C 246.198 -4.10268 1.35293 0
M  V30 2650 C 245.333 -5.25507 0.775621 0
M  V30 2651 C 244.372 -5.83567 1.84706 0
M  V30 2652 N 243.509 -6.90179 1.28829 0
M  V30 2653 H 248.349 -2.44163 1.70846 0
M  V30 2654 H 245.886 -1.19846 0.85295 0
M  V30 2655 H 247.844 -4.17143 -0.0686814 0
M  V30 2656 H 246.474 -3.16901 -0.614274 0
M  V30 2657 H 245.526 -3.35184 1.79877 0
M  V30 2658 H 246.838 -4.4946 2.16303 0
M  V30 2659 H 245.992 -6.05398 0.397327 0
M  V30 2660 H 244.731 -4.87656 -0.0656581 0
M  V30 2661 H 243.736 -5.02344 2.23452 0
M  V30 2662 H 244.961 -6.23482 2.69161 0
M  V30 2663 H 242.907 -6.54322 0.468881 0
M  V30 2664 H 242.824 -7.28097 2.03497 0
M  V30 2665 H 244.092 -7.73844 0.937311 0
M  V30 2666 N 248.321 -0.919034 -1.28029 0
M  V30 2667 C 249.284 -0.416182 -2.2539 0
M  V30 2668 C 250.284 0.460438 -1.54067 0
M  V30 2669 O 251.474 0.262744 -1.72207 0
M  V30 2670 C 248.606 0.402707 -3.38513 0
M  V30 2671 H 249.799 -1.27629 -2.71387 0
M  V30 2672 H 247.352 -0.698919 -1.39803 0
M  V30 2673 H 248.087 1.282 -2.97885 0
M  V30 2674 H 247.872 -0.225698 -3.9145 0
M  V30 2675 H 249.362 0.745191 -4.10897 0
M  V30 2676 N 249.799 1.42003 -0.683588 0
M  V30 2677 C 251.046 2.01413 -0.209514 0
M  V30 2678 C 251.374 1.54088 1.1869 0
M  V30 2679 O 250.629 0.737591 1.81268 0
M  V30 2680 C 250.928 3.56827 -0.202357 0
M  V30 2681 C 250.594 4.23617 -1.54464 0
M  V30 2682 C 249.256 4.41577 -1.91215 0
M  V30 2683 C 251.608 4.61178 -2.42826 0
M  V30 2684 C 248.936 4.9437 -3.15935 0
M  V30 2685 C 251.288 5.15355 -3.66867 0
M  V30 2686 C 249.952 5.31528 -4.03776 0
M  V30 2687 H 249.222 0.737023 -0.0766668 0
M  V30 2688 H 251.869 1.70067 -0.880312 0
M  V30 2689 H 250.174 3.87892 0.551969 0
M  V30 2690 H 251.871 4.00588 0.181793 0
M  V30 2691 H 248.461 4.10004 -1.24877 0
M  V30 2692 H 252.645 4.46968 -2.15717 0
M  V30 2693 H 247.901 5.05076 -3.44541 0
M  V30 2694 H 252.075 5.43402 -4.35531 0
M  V30 2695 H 249.702 5.72199 -5.00492 0
M  V30 2696 N 251.277 0.427512 1.51691 0
M  V30 2697 C 252.225 -0.403359 2.29076 0
M  V30 2698 C 253.219 -1.02962 1.34518 0
M  V30 2699 O 254.425 -0.965715 1.51901 0
M  V30 2700 H 250.8 -0.148879 0.737115 0
M  V30 2701 H 252.771 0.270295 2.97173 0
M  V30 2702 C 251.52 -1.49763 3.13794 0
M  V30 2703 H 250.843 -1.02508 3.86435 0
M  V30 2704 H 252.283 -2.05244 3.71014 0
M  V30 2705 C 250.742 -2.47536 2.28533 0
M  V30 2706 O 251.272 -3.51848 1.93819 0
M  V30 2707 N 249.478 -2.18187 1.91945 0
M  V30 2708 H 249.025 -1.33389 2.20375 0
M  V30 2709 H 248.983 -2.83848 1.35195 0
M  V30 2710 N 252.755 -1.56801 0.158532 0
M  V30 2711 C 253.98 -2.01295 -0.499516 0
M  V30 2712 C 254.405 -1.03799 -1.56867 0
M  V30 2713 O 253.763 -0.0155162 -1.81293 0
M  V30 2714 C 253.811 -3.44469 -1.06647 0
M  V30 2715 O 252.915 -3.50012 -2.18095 0
M  V30 2716 H 252.256 -0.652884 -0.12099 0
M  V30 2717 H 254.786 -2.02958 0.258661 0
M  V30 2718 H 254.796 -3.8351 -1.39227 0
M  V30 2719 H 253.471 -4.14932 -0.283581 0
M  V30 2720 H 252.048 -3.22822 -1.86656 0
M  V30 2721 N 254.233 0.115231 -1.57178 0
M  V30 2722 C 255.479 0.82357 -1.85325 0
M  V30 2723 C 255.812 1.79349 -0.744814 0
M  V30 2724 O 255.087 1.92899 0.249024 0
M  V30 2725 C 255.37 1.57014 -3.24066 0
M  V30 2726 C 255.223 0.619565 -4.45513 0
M  V30 2727 C 256.542 2.52545 -3.60429 0
M  V30 2728 H 253.661 0.297948 -0.674089 0
M  V30 2729 H 256.303 0.0877138 -1.89797 0
M  V30 2730 H 254.453 2.19742 -3.20383 0
M  V30 2731 H 256.125 0.000837639 -4.613 0
M  V30 2732 H 254.368 -0.0686174 -4.33746 0
M  V30 2733 H 255.039 1.17866 -5.3927 0
M  V30 2734 H 257.515 1.9992 -3.64926 0
M  V30 2735 H 256.391 3.01811 -4.58477 0
M  V30 2736 H 256.652 3.35383 -2.88047 0
M  V30 2737 N 255.711 1.52812 0.385517 0
M  V30 2738 C 256.658 1.77838 1.47113 0
M  V30 2739 C 257.628 0.621757 1.54024 0
M  V30 2740 O 258.813 0.861846 1.70226 0
M  V30 2741 C 255.953 1.95618 2.84302 0
M  V30 2742 C 255.066 3.23316 2.86515 0
M  V30 2743 C 254.201 3.31394 4.15152 0
M  V30 2744 C 253.24 4.53201 4.1143 0
M  V30 2745 N 252.377 4.58542 5.3168 0
M  V30 2746 H 257.217 2.70482 1.25073 0
M  V30 2747 H 254.754 1.34006 0.606692 0
M  V30 2748 H 256.712 2.03912 3.63972 0
M  V30 2749 H 255.342 1.06331 3.04784 0
M  V30 2750 H 254.394 3.24076 1.99195 0
M  V30 2751 H 255.706 4.13045 2.79634 0
M  V30 2752 H 254.86 3.3889 5.03228 0
M  V30 2753 H 253.599 2.39645 4.24761 0
M  V30 2754 H 252.604 4.45827 3.21742 0
M  V30 2755 H 253.829 5.46271 4.03442 0
M  V30 2756 H 251.775 3.69686 5.41912 0
M  V30 2757 H 251.692 5.42148 5.26889 0
M  V30 2758 H 252.96 4.70296 6.21644 0
M  V30 2759 N 257.189 -0.644168 1.43834 0
M  V30 2760 C 258.137 -1.77793 1.49974 0
M  V30 2761 C 259.131 -1.65253 0.372536 0
M  V30 2762 O 260.337 -1.7149 0.546924 0
M  V30 2763 H 256.712 -0.58675 0.47035 0
M  V30 2764 H 258.683 -1.69736 2.45423 0
M  V30 2765 C 257.432 -3.16087 1.4486 0
M  V30 2766 H 256.755 -3.26378 2.30905 0
M  V30 2767 H 258.195 -3.95349 1.53217 0
M  V30 2768 C 256.654 -3.36484 0.167463 0
M  V30 2769 O 257.184 -3.94298 -0.767609 0
M  V30 2770 N 255.39 -2.90504 0.0747556 0
M  V30 2771 H 254.937 -2.4364 0.836507 0
M  V30 2772 H 254.895 -3.04527 -0.781714 0
M  V30 2773 N 258.668 -1.30515 -0.883378 0
M  V30 2774 C 259.893 -1.22487 -1.67367 0
M  V30 2775 C 260.318 0.208767 -1.86938 0
M  V30 2776 O 259.676 1.15015 -1.40148 0
M  V30 2777 C 259.724 -1.96041 -3.02655 0
M  V30 2778 O 258.828 -1.28859 -3.91751 0
M  V30 2779 H 258.169 -0.423573 -0.511353 0
M  V30 2780 H 260.699 -1.72362 -1.10239 0
M  V30 2781 H 260.709 -2.05124 -3.52687 0
M  V30 2782 H 259.384 -3.00307 -2.8773 0
M  V30 2783 H 257.961 -1.28141 -3.50192 0
M  V30 2784 N 260.146 1.09593 -1.13257 0
M  V30 2785 C 261.392 1.82181 -0.904521 0
M  V30 2786 C 261.747 1.83967 0.563358 0
M  V30 2787 O 261.04 1.29566 1.41149 0
M  V30 2788 C 261.234 3.27802 -1.42411 0
M  V30 2789 C 261.063 3.40201 -2.94097 0
M  V30 2790 C 259.833 3.52104 -3.62424 0
M  V30 2791 C 262.031 3.32875 -3.92044 0
M  V30 2792 N 260.013 3.53169 -5.0214 0
M  V30 2793 C 261.384 3.40789 -5.17941 0
M  V30 2794 C 263.439 3.16531 -3.84334 0
M  V30 2795 C 262.142 3.34042 -6.37031 0
M  V30 2796 C 264.168 3.11109 -5.02956 0
M  V30 2797 C 263.53 3.19614 -6.27715 0
M  V30 2798 H 259.629 0.681015 -0.384373 0
M  V30 2799 H 262.213 1.3099 -1.44048 0
M  V30 2800 H 260.384 3.77466 -0.915086 0
M  V30 2801 H 262.116 3.88393 -1.13722 0
M  V30 2802 H 258.871 3.5548 -3.12939 0
M  V30 2803 H 259.295 3.57291 -5.75041 0
M  V30 2804 H 263.937 3.08827 -2.88766 0
M  V30 2805 H 261.655 3.4051 -7.32857 0
M  V30 2806 H 265.241 2.99601 -4.98729 0
M  V30 2807 H 264.121 3.15432 -7.17964 0
M  V30 2808 N 261.624 0.925811 1.2754 0
M  V30 2809 C 262.554 0.440748 2.29303 0
M  V30 2810 C 263.535 -0.497971 1.62648 0
M  V30 2811 O 264.72 -0.403126 1.8997 0
M  V30 2812 C 261.85 -0.309048 3.45922 0
M  V30 2813 C 260.804 0.54166 4.24559 0
M  V30 2814 C 260.13 -0.337191 5.33636 0
M  V30 2815 C 261.43 1.80516 4.90114 0
M  V30 2816 H 263.124 1.29121 2.70126 0
M  V30 2817 H 260.67 0.622323 1.29858 0
M  V30 2818 H 262.623 -0.659315 4.1621 0
M  V30 2819 H 261.347 -1.19352 3.04011 0
M  V30 2820 H 260.006 0.874609 3.56014 0
M  V30 2821 H 259.654 -1.22056 4.87966 0
M  V30 2822 H 259.354 0.228497 5.87156 0
M  V30 2823 H 260.878 -0.683072 6.06767 0
M  V30 2824 H 262.292 1.52307 5.52698 0
M  V30 2825 H 260.689 2.3142 5.53683 0
M  V30 2826 H 261.759 2.52581 4.13921 0
M  V30 2827 N 263.102 -1.41638 0.69111 0
M  V30 2828 C 264.05 -2.32597 0.0115199 0
M  V30 2829 C 265.044 -1.5072 -0.773296 0
M  V30 2830 O 266.25 -1.66685 -0.67942 0
M  V30 2831 H 262.625 -0.751849 -0.0150746 0
M  V30 2832 H 264.596 -2.87593 0.795791 0
M  V30 2833 C 263.345 -3.35467 -0.914172 0
M  V30 2834 H 262.668 -3.9852 -0.319687 0
M  V30 2835 H 264.108 -4.01662 -1.35808 0
M  V30 2836 C 262.567 -2.69004 -2.02826 0
M  V30 2837 O 263.097 -2.53444 -3.11655 0
M  V30 2838 N 261.303 -2.2777 -1.80469 0
M  V30 2839 H 260.85 -2.40626 -0.919615 0
M  V30 2840 H 260.808 -1.83635 -2.55197 0
M  V30 2841 N 264.58 -0.43555 -1.51462 0
M  V30 2842 C 265.51 0.367376 -2.30592 0
M  V30 2843 C 266.491 1.02263 -1.35928 0
M  V30 2844 O 267.676 1.02661 -1.64847 0
M  V30 2845 C 264.806 1.46983 -3.14664 0
M  V30 2846 C 263.76 0.938161 -4.17591 0
M  V30 2847 C 263.086 2.13622 -4.90173 0
M  V30 2848 C 264.386 -0.0261621 -5.22293 0
M  V30 2849 H 266.08 -0.292969 -2.97963 0
M  V30 2850 H 263.626 -0.14234 -1.43295 0
M  V30 2851 H 265.579 2.03873 -3.688 0
M  V30 2852 H 264.303 2.15843 -2.4511 0
M  V30 2853 H 262.962 0.391481 -3.64504 0
M  V30 2854 H 262.61 2.81098 -4.17124 0
M  V30 2855 H 262.31 1.78688 -5.59772 0
M  V30 2856 H 263.834 2.7107 -5.47132 0
M  V30 2857 H 265.248 0.452384 -5.71512 0
M  V30 2858 H 263.645 -0.287992 -5.99409 0
M  V30 2859 H 264.715 -0.963391 -4.75233 0
M  V30 2860 N 266.058 1.56714 -0.166846 0
M  V30 2861 C 267.288 2.00828 0.48494 0
M  V30 2862 C 267.696 1.04612 1.57648 0
M  V30 2863 O 267.039 0.0383201 1.8366 0
M  V30 2864 C 267.101 3.4137 1.12723 0
M  V30 2865 C 266.765 4.56654 0.177886 0
M  V30 2866 C 267.762 5.16402 -0.60207 0
M  V30 2867 C 265.447 5.02244 0.0750139 0
M  V30 2868 C 267.441 6.20167 -1.47215 0
M  V30 2869 C 265.128 6.05859 -0.798649 0
M  V30 2870 C 266.126 6.64691 -1.57082 0
M  V30 2871 O 265.814 7.66297 -2.42989 0
M  V30 2872 H 265.546 0.663587 0.128953 0
M  V30 2873 H 268.1 2.03692 -0.264365 0
M  V30 2874 H 266.33 3.35406 1.92457 0
M  V30 2875 H 268.019 3.69466 1.68076 0
M  V30 2876 H 268.785 4.82065 -0.53274 0
M  V30 2877 H 264.664 4.56167 0.665812 0
M  V30 2878 H 268.208 6.66016 -2.07531 0
M  V30 2879 H 264.105 6.39621 -0.869199 0
M  V30 2880 H 264.873 7.83601 -2.36455 0
M  V30 2881 N 267.536 -0.106894 1.57237 0
M  V30 2882 C 268.761 -0.830287 1.90055 0
M  V30 2883 C 269.186 -1.72064 0.75998 0
M  V30 2884 O 268.544 -1.78982 -0.288991 0
M  V30 2885 C 268.592 -1.6295 3.21683 0
M  V30 2886 O 267.696 -2.73748 3.08441 0
M  V30 2887 H 267.037 -0.228855 0.623315 0
M  V30 2888 H 269.567 -0.085658 2.04421 0
M  V30 2889 H 269.577 -2.01621 3.54701 0
M  V30 2890 H 268.252 -0.975989 4.04286 0
M  V30 2891 H 266.829 -2.38192 2.86913 0
M  V30 2892 N 269.014 -1.53014 -0.377408 0
M  V30 2893 C 270.239 -1.72818 -1.14668 0
M  V30 2894 C 270.664 -0.450725 -1.8262 0
M  V30 2895 O 270.022 0.59439 -1.7128 0
M  V30 2896 C 270.07 -2.88627 -2.16164 0
M  V30 2897 O 269.174 -2.56409 -3.22998 0
M  V30 2898 H 268.515 -0.574301 -0.333278 0
M  V30 2899 H 271.045 -1.99853 -0.438152 0
M  V30 2900 H 271.055 -3.14455 -2.59966 0
M  V30 2901 H 269.73 -3.81294 -1.66095 0
M  V30 2902 H 268.307 -2.4136 -2.84253 0
M  V30 2903 N 270.492 0.636531 -1.44174 0
M  V30 2904 C 271.455 1.73063 -1.50273 0
M  V30 2905 C 272.455 1.56113 -0.385397 0
M  V30 2906 O 273.645 1.61707 -0.64781 0
M  V30 2907 C 270.777 3.12096 -1.37145 0
M  V30 2908 H 271.97 1.69031 -2.47727 0
M  V30 2909 H 269.523 0.849706 -1.31186 0
M  V30 2910 H 270.258 3.21728 -0.407636 0
M  V30 2911 H 270.043 3.25805 -2.18159 0
M  V30 2912 H 271.533 3.91846 -1.44382 0
M  V30 2913 N 271.97 1.30982 0.876444 0
M  V30 2914 C 273.21 1.21589 1.64303 0
M  V30 2915 C 273.574 -0.223962 1.90689 0
M  V30 2916 O 274.775 -0.44128 2.65153 0
M  V30 2917 C 273.046 2.03007 2.94148 0
M  V30 2918 S 274.605 2.10405 3.85065 0
M  V30 2919 H 271.423 0.433161 0.563819 0
M  V30 2920 H 274.025 1.65565 1.03964 0
M  V30 2921 H 272.729 3.06719 2.72675 0
M  V30 2922 H 272.26 1.59725 3.59515 0
M  V30 2923 H 274.275 1.23765 4.80517 0
M  V30 2924 N 273.449 -1.08991 1.13837 0
M  V30 2925 C 274.689 -1.82867 0.913183 0
M  V30 2926 C 275.053 -1.83936 -0.550604 0
M  V30 2927 O 276.254 -2.53515 -0.893515 0
M  V30 2928 C 274.525 -3.24843 1.49036 0
M  V30 2929 S 276.084 -4.15669 1.40588 0
M  V30 2930 H 272.902 -0.630278 0.329046 0
M  V30 2931 H 275.504 -1.31049 1.45073 0
M  V30 2932 H 274.208 -3.21644 2.54899 0
M  V30 2933 H 273.739 -3.81734 0.950947 0
M  V30 2934 H 275.754 -4.94686 0.387353 0
M  V30 2935 N 274.927 -0.932562 -1.27047 0
M  V30 2936 C 275.857 -0.452902 -2.29066 0
M  V30 2937 C 276.838 0.489338 -1.62909 0
M  V30 2938 O 278.023 0.393046 -1.90181 0
M  V30 2939 C 275.153 0.290698 -3.46081 0
M  V30 2940 C 274.107 -0.564168 -4.24265 0
M  V30 2941 C 273.433 0.308886 -5.33807 0
M  V30 2942 C 274.733 -1.83112 -4.89149 0
M  V30 2943 H 276.427 -1.30552 -2.69437 0
M  V30 2944 H 273.973 -0.629201 -1.29526 0
M  V30 2945 H 275.926 0.637233 -4.16554 0
M  V30 2946 H 274.65 1.17738 -3.0464 0
M  V30 2947 H 273.309 -0.893477 -3.55545 0
M  V30 2948 H 272.957 1.19467 -4.88607 0
M  V30 2949 H 272.657 -0.259633 -5.87026 0
M  V30 2950 H 274.181 0.650884 -6.07121 0
M  V30 2951 H 275.595 -1.55236 -5.51883 0
M  V30 2952 H 273.992 -2.34353 -5.52448 0
M  V30 2953 H 275.062 -2.54772 -4.12576 0
M  V30 2954 N 276.405 1.4127 -0.698611 0
M  V30 2955 C 277.816 1.84187 -0.305289 0
M  V30 2956 C 278.167 1.58449 1.15708 0
M  V30 2957 O 277.292 1.05651 1.88856 0
M  V30 2958 C 277.887 3.3435 -0.547314 0
M  V30 2959 C 276.446 3.75826 -0.207878 0
M  V30 2960 C 275.593 2.64647 -0.828099 0
M  V30 2961 H 278.544 1.30778 -0.89904 0
M  V30 2962 H 278.565 3.8001 0.192998 0
M  V30 2963 H 278.077 3.53051 -1.61172 0
M  V30 2964 H 276.178 3.62725 0.852143 0
M  V30 2965 H 276.291 4.74462 -0.665021 0
M  V30 2966 H 274.655 2.53395 -0.257458 0
M  V30 2967 H 275.438 2.86165 -1.89643 0
M  V30 2968 N 277.883 0.443576 1.51229 0
M  V30 2969 C 279.129 -0.120975 2.02439 0
M  V30 2970 C 279.462 -1.41815 1.32674 0
M  V30 2971 O 278.737 -1.89373 0.443622 0
M  V30 2972 C 279.02 -0.333291 3.58554 0
M  V30 2973 C 278.873 0.982968 4.38928 0
M  V30 2974 C 280.192 -1.10028 4.26124 0
M  V30 2975 H 277.311 -0.0424923 0.735774 0
M  V30 2976 H 279.953 0.583794 1.80809 0
M  V30 2977 H 278.103 -0.933614 3.77115 0
M  V30 2978 H 279.775 1.61775 4.32003 0
M  V30 2979 H 278.018 1.58611 4.03763 0
M  V30 2980 H 278.689 0.788379 5.46341 0
M  V30 2981 H 281.165 -0.591711 4.11871 0
M  V30 2982 H 280.041 -1.21761 5.35225 0
M  V30 2983 H 280.302 -2.12996 3.87408 0
M  V30 2984 N 279.361 -1.56624 0.175154 0
M  V30 2985 C 280.586 -2.01813 -0.478137 0
M  V30 2986 C 281.011 -1.05457 -1.55757 0
M  V30 2987 O 280.369 -0.0347439 -1.81267 0
M  V30 2988 C 280.417 -3.45581 -1.02987 0
M  V30 2989 O 279.521 -3.52305 -2.14371 0
M  V30 2990 H 278.862 -0.65413 -0.114059 0
M  V30 2991 H 281.392 -2.02673 0.280173 0
M  V30 2992 H 281.402 -3.84965 -1.35151 0
M  V30 2993 H 280.077 -4.1521 -0.239556 0
M  V30 2994 H 278.654 -3.24783 -1.83222 0
M  V30 2995 N 280.839 0.0985539 -1.57292 0
M  V30 2996 C 282.067 0.816318 -1.90115 0
M  V30 2997 C 282.482 1.72451 -0.768509 0
M  V30 2998 O 281.839 1.80643 0.259687 0
M  V30 2999 C 281.89 1.63259 -3.22535 0
M  V30 3000 O 281.611 0.760934 -4.31441 0
M  V30 3001 C 283.112 2.45372 -3.69199 0
M  V30 3002 H 280.332 0.233595 -0.629027 0
M  V30 3003 H 282.876 0.0768229 -2.04356 0
M  V30 3004 H 281.031 2.32463 -3.09903 0
M  V30 3005 H 281.445 1.32595 -5.07463 0
M  V30 3006 H 282.919 2.98144 -4.64558 0
M  V30 3007 H 283.396 3.23677 -2.96867 0
M  V30 3008 H 284.002 1.81373 -3.84687 0
M  V30 3009 N 282.317 1.53212 0.369288 0
M  V30 3010 C 283.28 1.7872 1.43498 0
M  V30 3011 C 284.28 0.657554 1.46741 0
M  V30 3012 O 285.47 0.925736 1.47566 0
M  V30 3013 C 282.602 1.90591 2.82645 0
M  V30 3014 H 283.795 2.73894 1.22156 0
M  V30 3015 H 281.348 1.44233 0.602203 0
M  V30 3016 H 282.083 0.974709 3.09306 0
M  V30 3017 H 281.868 2.72751 2.8169 0
M  V30 3018 H 283.358 2.11931 3.59826 0
M  V30 3019 N 283.795 -0.628877 1.44509 0
M  V30 3020 C 285.025 -1.41349 1.50678 0
M  V30 3021 C 285.433 -1.88745 0.131075 0
M  V30 3022 O 284.776 -1.61592 -0.87371 0
M  V30 3023 C 284.838 -2.66608 2.41165 0
M  V30 3024 C 284.502 -2.40993 3.88293 0
M  V30 3025 C 285.499 -2.0268 4.78766 0
M  V30 3026 C 283.184 -2.54563 4.33016 0
M  V30 3027 C 285.178 -1.78269 6.11963 0
M  V30 3028 C 282.865 -2.29766 5.6626 0
M  V30 3029 C 283.863 -1.91678 6.55552 0
M  V30 3030 O 283.551 -1.67158 7.86329 0
M  V30 3031 H 283.283 -0.439851 0.51333 0
M  V30 3032 H 285.837 -0.776084 1.90174 0
M  V30 3033 H 284.067 -3.32994 1.96601 0
M  V30 3034 H 285.756 -3.28615 2.38259 0
M  V30 3035 H 286.522 -1.91751 4.45485 0
M  V30 3036 H 282.401 -2.83179 3.63773 0
M  V30 3037 H 285.945 -1.48465 6.81619 0
M  V30 3038 H 281.842 -2.40306 5.99102 0
M  V30 3039 H 282.61 -1.81386 7.98149 0
M  V30 3040 N 285.273 -1.31445 -0.869486 0
M  V30 3041 C 286.223 -1.15731 -1.96444 0
M  V30 3042 C 287.207 -0.0681855 -1.60755 0
M  V30 3043 O 288.399 -0.293154 -1.74555 0
M  V30 3044 C 285.528 -0.867255 -3.32165 0
M  V30 3045 C 284.614 -1.99738 -3.74119 0
M  V30 3046 N 285.005 -3.24447 -3.88031 0
M  V30 3047 C 283.303 -1.89723 -4.03635 0
M  V30 3048 C 284.004 -3.98374 -4.23879 0
M  V30 3049 N 282.98 -3.26547 -4.3459 0
M  V30 3050 H 286.782 -2.10296 -2.05312 0
M  V30 3051 H 284.296 -1.23009 -1.06031 0
M  V30 3052 H 286.293 -0.735668 -4.10358 0
M  V30 3053 H 284.953 0.0701614 -3.24624 0
M  V30 3054 H 285.964 -3.59557 -3.72746 0
M  V30 3055 H 282.641 -1.03449 -4.04481 0
M  V30 3056 H 284.031 -5.05844 -4.42235 0
M  V30 3057 N 286.751 1.08385 -1.14413 0
M  V30 3058 C 288 1.80153 -0.907076 0
M  V30 3059 C 288.313 1.87176 0.567851 0
M  V30 3060 O 289.519 2.55359 0.922172 0
M  V30 3061 C 287.975 3.23687 -1.57336 0
M  V30 3062 C 287.583 3.24897 -3.08457 0
M  V30 3063 C 289.327 4.00136 -1.41744 0
M  V30 3064 C 287.234 4.6302 -3.67921 0
M  V30 3065 H 286.164 0.675139 -0.335714 0
M  V30 3066 H 288.815 1.21733 -1.37307 0
M  V30 3067 H 287.197 3.82234 -1.03505 0
M  V30 3068 H 288.371 2.76055 -3.68958 0
M  V30 3069 H 286.686 2.61943 -3.2369 0
M  V30 3070 H 289.283 5.02201 -1.83572 0
M  V30 3071 H 289.626 4.14709 -0.363576 0
M  V30 3072 H 290.159 3.48058 -1.92614 0
M  V30 3073 H 286.898 4.5365 -4.73161 0
M  V30 3074 H 286.418 5.12143 -3.12201 0
M  V30 3075 H 288.097 5.31994 -3.68227 0
M  V30 3076 N 288.23 0.939286 1.26551 0
M  V30 3077 C 289.177 0.446088 2.26448 0
M  V30 3078 C 290.147 -0.493234 1.58608 0
M  V30 3079 O 291.332 -0.409857 1.86346 0
M  V30 3080 C 288.472 -0.284375 3.43926 0
M  V30 3081 C 287.585 0.690399 4.26448 0
M  V30 3082 C 286.72 -0.0610712 5.31165 0
M  V30 3083 C 285.759 0.905649 6.05363 0
M  V30 3084 N 284.896 0.186055 7.01853 0
M  V30 3085 H 289.736 1.30291 2.68008 0
M  V30 3086 H 287.273 0.65371 1.31776 0
M  V30 3087 H 289.231 -0.724313 4.10864 0
M  V30 3088 H 287.861 -1.10535 3.03285 0
M  V30 3089 H 286.913 1.24885 3.59316 0
M  V30 3090 H 288.225 1.42873 4.779 0
M  V30 3091 H 287.379 -0.56038 6.04106 0
M  V30 3092 H 286.118 -0.832297 4.80546 0
M  V30 3093 H 285.123 1.4161 5.3125 0
M  V30 3094 H 286.348 1.67685 6.58072 0
M  V30 3095 H 284.294 -0.566714 6.53548 0
M  V30 3096 H 284.211 0.863752 7.51049 0
M  V30 3097 H 285.479 -0.292221 7.78952 0
M  V30 3098 N 289.708 -1.40897 0.706093 0
M  V30 3099 C 290.656 -2.32572 0.0361893 0
M  V30 3100 C 291.65 -1.51532 -0.757266 0
M  V30 3101 O 292.856 -1.67396 -0.661703 0
M  V30 3102 H 289.231 -0.751966 -0.00709935 0
M  V30 3103 H 291.202 -2.86733 0.826249 0
M  V30 3104 C 289.951 -3.36418 -0.87854 0
M  V30 3105 H 289.274 -3.98836 -0.277401 0
M  V30 3106 H 290.714 -4.0308 -1.3154 0
M  V30 3107 C 289.173 -2.71141 -1.99961 0
M  V30 3108 O 289.703 -2.56735 -3.0895 0
M  V30 3109 N 287.909 -2.29671 -1.78043 0
M  V30 3110 H 287.456 -2.41588 -0.894042 0
M  V30 3111 H 287.414 -1.86332 -2.53235 0
M  V30 3112 N 291.186 -0.45159 -1.50991 0
M  V30 3113 C 292.597 0.00818571 -1.86698 0
M  V30 3114 C 292.948 1.40661 -1.3678 0
M  V30 3115 O 292.073 2.0391 -0.724546 0
M  V30 3116 C 292.668 0.0216303 -3.38793 0
M  V30 3117 C 291.227 0.425865 -3.73983 0
M  V30 3118 C 290.374 -0.372163 -2.74791 0
M  V30 3119 H 293.325 -0.666785 -1.44013 0
M  V30 3120 H 293.346 0.828078 -3.7138 0
M  V30 3121 H 292.858 -0.996288 -3.75094 0
M  V30 3122 H 290.959 1.44886 -3.43277 0
M  V30 3123 H 291.072 0.140761 -4.78893 0
M  V30 3124 H 289.436 0.171498 -2.54122 0
M  V30 3125 H 290.219 -1.38922 -3.13935 0
M  V30 3126 N 292.664 1.56529 -0.183458 0
M  V30 3127 C 293.913 1.96419 0.458511 0
M  V30 3128 C 294.226 1.0727 1.63562 0
M  V30 3129 O 295.432 1.36893 2.34462 0
M  V30 3130 C 293.888 3.49298 0.867122 0
M  V30 3131 C 293.496 4.47092 -0.285057 0
M  V30 3132 C 295.24 3.97983 1.47683 0
M  V30 3133 C 293.147 5.91225 0.143862 0
M  V30 3134 H 292.077 0.733394 0.175071 0
M  V30 3135 H 294.728 1.81448 -0.273624 0
M  V30 3136 H 293.11 3.59731 1.65559 0
M  V30 3137 H 294.284 4.48383 -1.0625 0
M  V30 3138 H 292.599 4.08535 -0.805503 0
M  V30 3139 H 295.196 5.03134 1.80999 0
M  V30 3140 H 295.539 3.41618 2.37914 0
M  V30 3141 H 296.072 3.90617 0.752562 0
M  V30 3142 H 292.811 6.5149 -0.723974 0
M  V30 3143 H 292.331 5.93214 0.886413 0
M  V30 3144 H 294.01 6.44362 0.583628 0
M  V30 3145 N 294.142 -0.090211 1.57342 0
M  V30 3146 C 295.39 -0.791241 1.85967 0
M  V30 3147 C 295.711 -1.7903 0.772859 0
M  V30 3148 O 294.981 -1.94872 -0.200398 0
M  V30 3149 H 293.561 -0.295205 0.686195 0
M  V30 3150 H 296.223 -0.0706782 1.94772 0
M  V30 3151 H 295.319 -1.31882 2.82867 0
M  V30 3152 N 295.62 -1.53406 -0.361157 0
M  V30 3153 C 296.868 -1.69467 -1.10115 0
M  V30 3154 C 297.189 -0.451352 -1.89705 0
M  V30 3155 O 296.459 0.534636 -1.88463 0
M  V30 3156 H 295.039 -0.624749 -0.409508 0
M  V30 3157 H 297.701 -1.90609 -0.406699 0
M  V30 3158 H 296.797 -2.55774 -1.78847 0
M  V30 3159 N 297.098 0.621204 -1.44841 0
M  V30 3160 C 298.344 1.3826 -1.48365 0
M  V30 3161 C 298.677 1.93831 -0.119624 0
M  V30 3162 O 297.952 1.74251 0.864111 0
M  V30 3163 C 298.235 2.54058 -2.55199 0
M  V30 3164 C 298.088 2.03772 -4.00995 0
M  V30 3165 C 299.407 3.56225 -2.58442 0
M  V30 3166 H 296.526 0.501374 -0.540179 0
M  V30 3167 H 299.168 0.7015 -1.76576 0
M  V30 3168 H 297.318 3.12162 -2.31274 0
M  V30 3169 H 298.99 1.50423 -4.36086 0
M  V30 3170 H 297.233 1.34876 -4.12299 0
M  V30 3171 H 297.904 2.87185 -4.71411 0
M  V30 3172 H 300.38 3.07939 -2.79844 0
M  V30 3173 H 299.256 4.34756 -3.3508 0
M  V30 3174 H 299.517 4.10949 -1.63013 0
M  V30 3175 N 298.576 1.31904 0.862503 0
M  V30 3176 C 299.823 1.22017 1.61611 0
M  V30 3177 C 300.151 -0.21991 1.93253 0
M  V30 3178 O 299.406 -1.17076 1.56817 0
M  V30 3179 C 299.705 2.01713 2.95037 0
M  V30 3180 C 299.371 3.51145 2.82857 0
M  V30 3181 C 298.033 3.91889 2.79243 0
M  V30 3182 C 300.385 4.46204 2.69353 0
M  V30 3183 C 297.713 5.25947 2.59993 0
M  V30 3184 C 300.065 5.80397 2.5164 0
M  V30 3185 C 298.729 6.20352 2.46413 0
M  V30 3186 H 297.999 0.44649 0.591378 0
M  V30 3187 H 300.646 1.63248 1.00111 0
M  V30 3188 H 298.951 1.53185 3.60613 0
M  V30 3189 H 300.648 1.91437 3.52353 0
M  V30 3190 H 297.238 3.1878 2.86491 0
M  V30 3191 H 301.422 4.15652 2.71196 0
M  V30 3192 H 296.678 5.5597 2.54376 0
M  V30 3193 H 300.852 6.53676 2.40169 0
M  V30 3194 H 298.479 7.24172 2.31256 0
M  V30 3195 N 300.054 -1.07777 1.14986 0
M  V30 3196 C 301.301 -1.8029 0.922056 0
M  V30 3197 C 301.629 -1.86531 -0.55105 0
M  V30 3198 O 300.884 -1.34189 -1.42449 0
M  V30 3199 C 301.183 -3.25495 1.47608 0
M  V30 3200 C 300.849 -3.39361 2.96893 0
M  V30 3201 C 299.511 -3.42852 3.37647 0
M  V30 3202 C 301.863 -3.42512 3.92854 0
M  V30 3203 C 299.191 -3.47094 4.73015 0
M  V30 3204 C 301.543 -3.4829 5.28088 0
M  V30 3205 C 300.207 -3.50058 5.68345 0
M  V30 3206 H 299.477 -0.659727 0.337404 0
M  V30 3207 H 302.124 -1.26854 1.43459 0
M  V30 3208 H 300.429 -3.81683 0.88463 0
M  V30 3209 H 302.126 -3.80168 1.27568 0
M  V30 3210 H 298.716 -3.37339 2.64387 0
M  V30 3211 H 302.9 -3.3904 3.62444 0
M  V30 3212 H 298.156 -3.46758 5.03556 0
M  V30 3213 H 302.33 -3.49675 6.02246 0
M  V30 3214 H 299.957 -3.53097 6.73221 0
M  V30 3215 N 301.532 -0.945985 -1.26051 0
M  V30 3216 C 302.76 -0.613025 -1.9761 0
M  V30 3217 C 303.175 0.813035 -1.70397 0
M  V30 3218 O 302.532 1.54274 -0.974979 0
M  V30 3219 C 302.583 -0.85159 -3.51326 0
M  V30 3220 O 302.304 -2.22157 -3.77595 0
M  V30 3221 C 303.805 -0.529831 -4.40122 0
M  V30 3222 H 301.025 -0.230593 -0.630133 0
M  V30 3223 H 303.569 -1.268 -1.60443 0
M  V30 3224 H 301.724 -0.243151 -3.86636 0
M  V30 3225 H 302.138 -2.2852 -4.721 0
M  V30 3226 H 303.612 -0.747348 -5.46917 0
M  V30 3227 H 304.089 0.535341 -4.35925 0
M  V30 3228 H 304.695 -1.11721 -4.10364 0
M  V30 3229 N 303.011 1.40521 -0.713556 0
M  V30 3230 C 304.288 1.94775 -0.17943 0
M  V30 3231 C 304.668 1.65184 1.31444 0
M  V30 3232 O 304.016 0.968429 2.06963 0
M  V30 3233 C 304.226 3.45543 -0.489986 0
M  V30 3234 C 305.574 4.22442 -0.427536 0
M  V30 3235 O 306.598 3.53644 -0.425929 0
M  V30 3236 O 305.457 5.4501 -0.403292 0
M  V30 3237 H 302.551 0.826606 -0.0255192 0
M  V30 3238 H 305.097 1.5014 -0.790949 0
M  V30 3239 H 303.869 3.60432 -1.5233 0
M  V30 3240 H 303.492 3.97311 0.151598 0
M  V30 3241 N 304.489 0.459591 1.5075 0
M  V30 3242 C 305.714 -0.0996819 2.0716 0
M  V30 3243 C 306.139 -1.33761 1.32249 0
M  V30 3244 O 305.497 -1.77551 0.366786 0
M  V30 3245 C 305.545 -0.378226 3.58611 0
M  V30 3246 O 304.649 -1.46081 3.85661 0
M  V30 3247 H 303.99 0.00791392 0.663953 0
M  V30 3248 H 306.52 0.647329 1.9409 0
M  V30 3249 H 306.53 -0.622135 4.03229 0
M  V30 3250 H 305.205 0.526439 4.12555 0
M  V30 3251 H 303.782 -1.20511 3.5289 0
M  V30 3252 N 305.967 -1.56429 0.191757 0
M  V30 3253 C 307.378 -1.83912 -0.321428 0
M  V30 3254 C 307.729 -1.11231 -1.61623 0
M  V30 3255 O 306.854 -0.37202 -2.13178 0
M  V30 3256 C 307.449 -3.33624 -0.589961 0
M  V30 3257 C 306.008 -3.6153 -1.04753 0
M  V30 3258 C 305.155 -2.7714 -0.0943327 0
M  V30 3259 H 308.106 -1.53161 0.415612 0
M  V30 3260 H 308.127 -3.52213 -1.43966 0
M  V30 3261 H 307.639 -3.86495 0.352588 0
M  V30 3262 H 305.74 -3.14089 -2.00447 0
M  V30 3263 H 305.853 -4.69737 -0.942549 0
M  V30 3264 H 304.217 -2.47638 -0.595589 0
M  V30 3265 H 305 -3.32799 0.842601 0
M  V30 3266 N 307.445 0.0818655 -1.57387 0
M  V30 3267 C 308.355 1.11642 -2.06333 0
M  V30 3268 C 309.371 1.43033 -0.99083 0
M  V30 3269 O 310.547 1.53411 -1.30488 0
M  V30 3270 C 307.612 2.41342 -2.48907 0
M  V30 3271 C 306.673 2.17014 -3.7041 0
M  V30 3272 C 305.906 3.4053 -4.10944 0
M  V30 3273 O 306.129 4.4927 -3.51444 0
M  V30 3274 O 305.063 3.29336 -5.03807 0
M  V30 3275 H 308.889 0.730657 -2.9478 0
M  V30 3276 H 306.474 0.295301 -1.46452 0
M  V30 3277 H 308.356 3.17691 -2.76858 0
M  V30 3278 H 307.031 2.79319 -1.63593 0
M  V30 3279 H 305.938 1.38403 -3.47556 0
M  V30 3280 H 307.271 1.83923 -4.56545 0
M  V30 3281 N 308.923 1.53595 0.353017 0
M  V30 3282 C 309.873 1.77299 1.43349 0
M  V30 3283 C 310.857 0.627884 1.48143 0
M  V30 3284 O 312.049 0.88697 1.53173 0
M  V30 3285 C 309.178 1.97757 2.80619 0
M  V30 3286 C 308.264 3.18305 2.80254 0
M  V30 3287 N 308.655 4.39967 2.49526 0
M  V30 3288 C 306.953 3.19283 3.11407 0
M  V30 3289 C 307.654 5.21772 2.57156 0
M  V30 3290 N 306.63 4.58269 2.92388 0
M  V30 3291 H 310.432 2.68963 1.18474 0
M  V30 3292 H 307.946 1.52391 0.561306 0
M  V30 3293 H 309.943 2.1287 3.58458 0
M  V30 3294 H 308.603 1.07329 3.06448 0
M  V30 3295 H 309.614 4.67482 2.22893 0
M  V30 3296 H 306.291 2.3879 3.4247 0
M  V30 3297 H 307.681 6.2885 2.36638 0
M  V30 3298 N 310.401 -0.613514 1.45168 0
M  V30 3299 C 311.331 -1.7354 1.56225 0
M  V30 3300 C 312.312 -1.64981 0.41414 0
M  V30 3301 O 313.497 -1.83472 0.636526 0
M  V30 3302 C 310.627 -3.12128 1.52295 0
M  V30 3303 C 309.581 -3.35491 2.65762 0
M  V30 3304 C 308.907 -4.74291 2.46885 0
M  V30 3305 C 310.207 -3.26325 4.0781 0
M  V30 3306 H 311.901 -1.64543 2.50132 0
M  V30 3307 H 309.447 -0.790185 1.20383 0
M  V30 3308 H 311.4 -3.90404 1.58628 0
M  V30 3309 H 310.124 -3.2195 0.549139 0
M  V30 3310 H 308.783 -2.59603 2.58847 0
M  V30 3311 H 308.431 -4.80839 1.47657 0
M  V30 3312 H 308.131 -4.9088 3.22972 0
M  V30 3313 H 309.655 -5.54775 2.55063 0
M  V30 3314 H 311.069 -3.94483 4.16 0
M  V30 3315 H 309.466 -3.54445 4.8424 0
M  V30 3316 H 310.536 -2.23855 4.30136 0
M  V30 3317 N 311.879 -1.3236 -0.855495 0
M  V30 3318 C 312.809 -1.23833 -1.97958 0
M  V30 3319 C 313.79 -0.122361 -1.69659 0
M  V30 3320 O 314.975 -0.30939 -1.9172 0
M  V30 3321 C 312.105 -0.959772 -3.33775 0
M  V30 3322 C 311.059 -2.03689 -3.76424 0
M  V30 3323 C 310.385 -1.61075 -5.09862 0
M  V30 3324 C 311.685 -3.4518 -3.9198 0
M  V30 3325 H 313.379 -2.1788 -2.0535 0
M  V30 3326 H 310.925 -1.04891 -0.986605 0
M  V30 3327 H 312.878 -0.886678 -4.11966 0
M  V30 3328 H 311.602 0.0163404 -3.26596 0
M  V30 3329 H 310.261 -2.10012 -3.00484 0
M  V30 3330 H 309.909 -0.622107 -4.99138 0
M  V30 3331 H 309.609 -2.33143 -5.39368 0
M  V30 3332 H 311.133 -1.55201 -5.90546 0
M  V30 3333 H 312.547 -3.4145 -4.60526 0
M  V30 3334 H 310.944 -4.1559 -4.32903 0
M  V30 3335 H 312.014 -3.84903 -2.94919 0
M  V30 3336 N 313.357 1.07166 -1.15556 0
M  V30 3337 C 314.605 1.79443 -0.929764 0
M  V30 3338 C 314.926 1.87246 0.544414 0
M  V30 3339 O 314.196 1.37473 1.39564 0
M  V30 3340 H 312.776 0.664625 -0.341003 0
M  V30 3341 H 315.438 1.29499 -1.45657 0
M  V30 3342 H 314.534 2.81832 -1.34079 0
M  V30 3343 N 314.835 0.952656 1.25548 0
M  V30 3344 C 316.065 0.622592 1.96996 0
M  V30 3345 C 316.473 -0.809112 1.71026 0
M  V30 3346 O 315.816 -1.55258 0.981861 0
M  V30 3347 C 315.878 0.798946 3.5051 0
M  V30 3348 C 315.542 2.20744 4.00151 0
M  V30 3349 C 316.539 3.18394 4.11001 0
M  V30 3350 C 314.224 2.5311 4.33867 0
M  V30 3351 C 316.218 4.46504 4.54877 0
M  V30 3352 C 313.905 3.8145 4.7743 0
M  V30 3353 C 314.903 4.77959 4.87897 0
M  V30 3354 O 314.591 6.04012 5.30494 0
M  V30 3355 H 314.323 0.232503 0.634758 0
M  V30 3356 H 316.877 1.2789 1.60728 0
M  V30 3357 H 315.107 0.0854903 3.86605 0
M  V30 3358 H 316.796 0.47023 4.03167 0
M  V30 3359 H 317.562 2.94715 3.85186 0
M  V30 3360 H 313.441 1.78719 4.24948 0
M  V30 3361 H 316.985 5.21835 4.62962 0
M  V30 3362 H 312.882 4.04936 5.0269 0
M  V30 3363 H 313.65 6.0736 5.48685 0
M  V30 3364 N 316.313 -1.40141 0.720998 0
M  V30 3365 C 317.538 -2.05618 0.271258 0
M  V30 3366 C 317.963 -1.53978 -1.08039 0
M  V30 3367 O 317.321 -0.677463 -1.68167 0
M  V30 3368 C 317.369 -3.59609 0.267197 0
M  V30 3369 O 316.473 -4.05526 -0.749814 0
M  V30 3370 H 315.814 -0.651904 0.126162 0
M  V30 3371 H 318.344 -1.79439 0.982997 0
M  V30 3372 H 318.354 -4.0786 0.106744 0
M  V30 3373 H 317.029 -3.96559 1.25354 0
M  V30 3374 H 315.606 -3.68722 -0.556644 0
M  V30 3375 N 317.792 -0.46758 -1.50504 0
M  V30 3376 C 319.208 -0.121533 -1.59137 0
M  V30 3377 C 319.408 1.3717 -1.47603 0
M  V30 3378 O 318.464 2.14464 -1.33272 0
M  V30 3379 C 319.777 -0.6686 -2.93173 0
M  V30 3380 C 321.325 -0.631716 -3.06559 0
M  V30 3381 C 321.8 -1.15627 -4.43164 0
M  V30 3382 N 323.291 -1.11553 -4.49567 0
M  V30 3383 C 324.026 -1.49195 -5.5365 0
M  V30 3384 N 323.522 -1.94269 -6.65005 0
M  V30 3385 N 325.315 -1.4082 -5.44175 0
M  V30 3386 H 317.466 -1.4388 -1.56245 0
M  V30 3387 H 319.729 -0.594784 -0.738198 0
M  V30 3388 H 319.435 -1.71453 -3.07078 0
M  V30 3389 H 319.309 -0.11021 -3.77039 0
M  V30 3390 H 321.696 0.405297 -2.92304 0
M  V30 3391 H 321.777 -1.22687 -2.24458 0
M  V30 3392 H 321.421 -2.1919 -4.58168 0
M  V30 3393 H 321.351 -0.537365 -5.23851 0
M  V30 3394 H 323.842 -0.784895 -3.69659 0
M  V30 3395 H 324.155 -2.21148 -7.40482 0
M  V30 3396 H 322.5 -1.98219 -6.66134 0
M  V30 3397 H 325.691 -1.0545 -4.56068 0
M  V30 3398 H 325.864 -1.70481 -6.25172 0
M  V30 3399 N 319.27 1.56325 -0.20005 0
M  V30 3400 C 320.547 1.89484 0.48529 0
M  V30 3401 C 320.927 1.1143 1.79294 0
M  V30 3402 O 320.275 0.216919 2.27468 0
M  V30 3403 C 320.485 3.41923 0.699243 0
M  V30 3404 C 321.833 4.12256 1.01638 0
M  V30 3405 O 322.857 3.47402 0.786792 0
M  V30 3406 O 321.716 5.26887 1.45095 0
M  V30 3407 H 318.81 0.787144 0.253639 0
M  V30 3408 H 321.356 1.67985 -0.240633 0
M  V30 3409 H 320.128 3.90658 -0.224008 0
M  V30 3410 H 319.751 3.69131 1.47744 0
M  V30 3411 N 320.748 -0.0735177 1.57428 0
M  V30 3412 C 321.678 -1.0879 2.06608 0
M  V30 3413 C 322.659 -1.40473 0.959237 0
M  V30 3414 O 323.844 -1.5013 1.23185 0
M  V30 3415 C 320.974 -2.40183 2.50857 0
M  V30 3416 C 319.928 -2.22858 3.65402 0
M  V30 3417 C 319.254 -3.59619 3.957 0
M  V30 3418 C 320.554 -1.65123 4.95511 0
M  V30 3419 H 322.248 -0.678673 2.91607 0
M  V30 3420 H 319.794 -0.325013 1.40284 0
M  V30 3421 H 321.747 -3.11437 2.83874 0
M  V30 3422 H 320.471 -2.83083 1.62885 0
M  V30 3423 H 319.13 -1.54045 3.32664 0
M  V30 3424 H 318.778 -4.00086 3.04861 0
M  V30 3425 H 318.478 -3.48866 4.72828 0
M  V30 3426 H 320.002 -4.32306 4.31212 0
M  V30 3427 H 321.416 -2.26241 5.26771 0
M  V30 3428 H 319.813 -1.65071 5.7695 0
M  V30 3429 H 320.883 -0.612559 4.81015 0
M  V30 3430 N 322.226 -1.5378 -0.344866 0
M  V30 3431 C 323.503 -1.61589 -1.10219 0
M  V30 3432 C 323.883 -0.436316 -2.06542 0
M  V30 3433 O 323.231 0.571543 -2.21237 0
M  V30 3434 C 323.441 -2.97602 -1.82301 0
M  V30 3435 C 324.789 -3.5291 -2.36093 0
M  V30 3436 O 325.813 -2.99768 -1.924 0
M  V30 3437 O 324.672 -4.45859 -3.16026 0
M  V30 3438 H 321.766 -0.653522 -0.506792 0
M  V30 3439 H 324.312 -1.66126 -0.346465 0
M  V30 3440 H 323.084 -3.74893 -1.12121 0
M  V30 3441 H 322.707 -2.9665 -2.64735 0
M  V30 3442 N 323.704 0.605807 -1.45491 0
M  V30 3443 C 324.932 1.39136 -1.5313 0
M  V30 3444 C 325.347 1.88082 -0.164507 0
M  V30 3445 O 324.704 1.62316 0.834247 0
M  V30 3446 C 324.755 2.59463 -2.51716 0
M  V30 3447 O 324.476 2.12551 -3.83084 0
M  V30 3448 C 325.977 3.52301 -2.6907 0
M  V30 3449 H 323.197 0.425849 -0.51855 0
M  V30 3450 H 325.741 0.73865 -1.90694 0
M  V30 3451 H 323.896 3.20772 -2.17219 0
M  V30 3452 H 324.31 2.90744 -4.36541 0
M  V30 3453 H 325.784 4.33271 -3.42024 0
M  V30 3454 H 326.261 4.02757 -1.75167 0
M  V30 3455 H 326.867 2.96845 -3.04571 0
M  V30 3456 N 325.182 1.32811 0.848464 0
M  V30 3457 C 326.459 1.14334 1.58704 0
M  V30 3458 C 326.839 -0.293948 2.09043 0
M  V30 3459 O 326.187 -1.29153 1.88499 0
M  V30 3460 C 326.397 2.17626 2.72837 0
M  V30 3461 C 327.745 2.51282 3.42261 0
M  V30 3462 O 328.769 2.16219 2.83068 0
M  V30 3463 O 327.628 3.11413 4.49093 0
M  V30 3464 H 324.722 0.441601 0.699226 0
M  V30 3465 H 327.268 1.44362 0.892053 0
M  V30 3466 H 326.04 3.14211 2.3321 0
M  V30 3467 H 325.663 1.88628 3.50008 0
M  V30 3468 N 326.66 -1.06551 1.16123 0
M  V30 3469 C 327.906 -1.79567 0.94252 0
M  V30 3470 C 328.239 -1.86869 -0.528547 0
M  V30 3471 O 327.514 -1.35838 -1.39206 0
M  V30 3472 C 327.797 -3.24195 1.56747 0
M  V30 3473 C 327.65 -3.24989 3.10969 0
M  V30 3474 C 328.969 -4.21678 1.25998 0
M  V30 3475 H 326.088 -0.651883 0.343828 0
M  V30 3476 H 328.73 -1.2463 1.43413 0
M  V30 3477 H 326.88 -3.71107 1.14942 0
M  V30 3478 H 328.552 -2.86258 3.61737 0
M  V30 3479 H 326.795 -2.63716 3.44436 0
M  V30 3480 H 327.466 -4.27005 3.49815 0
M  V30 3481 H 329.942 -3.83196 1.62174 0
M  V30 3482 H 328.818 -5.21146 1.7233 0
M  V30 3483 H 329.079 -4.4174 0.178367 0
M  V30 3484 N 328.138 -0.959301 -1.25041 0
M  V30 3485 C 329.384 -0.617525 -1.9317 0
M  V30 3486 C 329.717 0.843981 -1.74902 0
M  V30 3487 O 328.992 1.60615 -1.09696 0
M  V30 3488 C 329.275 -0.982736 -3.46431 0
M  V30 3489 C 329.128 -2.50032 -3.73904 0
M  V30 3490 C 330.447 -0.511176 -4.37121 0
M  V30 3491 H 327.566 -0.22582 -0.701552 0
M  V30 3492 H 330.208 -1.19679 -1.4757 0
M  V30 3493 H 328.358 -0.489806 -3.854 0
M  V30 3494 H 330.03 -3.06737 -3.44544 0
M  V30 3495 H 328.273 -2.93598 -3.19348 0
M  V30 3496 H 328.944 -2.70635 -4.81103 0
M  V30 3497 H 331.42 -0.934075 -4.0548 0
M  V30 3498 H 330.296 -0.795361 -5.43107 0
M  V30 3499 H 330.557 0.588834 -4.38161 0
M  V30 3500 N 329.616 1.39756 -0.72842 0
M  V30 3501 C 330.865 1.99879 -0.270407 0
M  V30 3502 C 331.178 1.58449 1.14688 0
M  V30 3503 O 332.384 2.11362 1.70407 0
M  V30 3504 C 330.84 3.57292 -0.43252 0
M  V30 3505 C 330.448 4.07688 -1.85727 0
M  V30 3506 C 332.192 4.24485 -0.0359507 0
M  V30 3507 C 330.099 5.5765 -1.96928 0
M  V30 3508 H 329.029 0.747689 -0.0973472 0
M  V30 3509 H 331.68 1.59837 -0.901355 0
M  V30 3510 H 330.062 3.95097 0.267219 0
M  V30 3511 H 331.236 3.81231 -2.58843 0
M  V30 3512 H 329.551 3.53135 -2.20646 0
M  V30 3513 H 332.148 5.34609 -0.0987484 0
M  V30 3514 H 332.491 4.03915 1.00787 0
M  V30 3515 H 333.024 3.9183 -0.686604 0
M  V30 3516 H 329.763 5.8309 -2.99476 0
M  V30 3517 H 329.283 5.8593 -1.28241 0
M  V30 3518 H 330.962 6.22957 -1.74737 0
M  V30 3519 N 331.094 0.475555 1.50254 0
M  V30 3520 C 332.371 -0.139685 1.95101 0
M  V30 3521 C 332.751 -1.56555 1.41611 0
M  V30 3522 O 332.099 -2.19956 0.618993 0
M  V30 3523 C 332.309 -0.0784298 3.48912 0
M  V30 3524 C 333.657 -0.265095 4.23772 0
M  V30 3525 O 334.681 -0.154808 3.55863 0
M  V30 3526 O 333.54 -0.488327 5.44314 0
M  V30 3527 H 330.634 -0.109236 0.819754 0
M  V30 3528 H 333.18 0.536276 1.61004 0
M  V30 3529 H 331.952 0.916918 3.80405 0
M  V30 3530 H 331.575 -0.795655 3.89558 0
M  V30 3531 N 332.573 -1.56217 0.208337 0
M  V30 3532 C 333.52 -2.19699 -0.707192 0
M  V30 3533 C 334.49 -1.14836 -1.20008 0
M  V30 3534 O 335.675 -1.4314 -1.26157 0
M  V30 3535 C 332.815 -2.87061 -1.91546 0
M  V30 3536 C 331.928 -4.06483 -1.46271 0
M  V30 3537 C 331.063 -4.61665 -2.62752 0
M  V30 3538 C 330.102 -5.73417 -2.14147 0
M  V30 3539 N 329.239 -6.22948 -3.23853 0
M  V30 3540 H 334.079 -2.97575 -0.159111 0
M  V30 3541 H 331.616 -1.46948 -0.0667874 0
M  V30 3542 H 333.574 -3.24294 -2.62468 0
M  V30 3543 H 332.204 -2.11725 -2.43664 0
M  V30 3544 H 331.256 -3.74825 -0.648886 0
M  V30 3545 H 332.568 -4.87271 -1.06622 0
M  V30 3546 H 331.722 -5.01272 -3.41776 0
M  V30 3547 H 330.461 -3.80013 -3.05682 0
M  V30 3548 H 329.466 -5.33326 -1.33581 0
M  V30 3549 H 330.691 -6.56897 -1.72232 0
M  V30 3550 H 328.637 -5.44213 -3.6629 0
M  V30 3551 H 328.554 -6.98823 -2.88414 0
M  V30 3552 H 329.822 -6.6721 -4.03052 0
M  V30 3553 N 334.051 0.0651679 -1.57465 0
M  V30 3554 C 334.981 1.07693 -2.07182 0
M  V30 3555 C 335.962 1.39962 -0.966673 0
M  V30 3556 O 337.147 1.49475 -1.2398 0
M  V30 3557 C 334.277 2.3885 -2.52127 0
M  V30 3558 C 333.231 2.20917 -3.66579 0
M  V30 3559 C 332.557 3.57515 -3.97601 0
M  V30 3560 C 333.857 1.62493 -4.9638 0
M  V30 3561 H 335.551 0.663199 -2.91962 0
M  V30 3562 H 333.097 0.317569 -1.40455 0
M  V30 3563 H 335.05 3.09928 -2.85522 0
M  V30 3564 H 333.774 2.82215 -1.64384 0
M  V30 3565 H 332.433 1.52279 -3.33477 0
M  V30 3566 H 332.081 3.98463 -3.06979 0
M  V30 3567 H 331.781 3.46353 -4.74672 0
M  V30 3568 H 333.305 4.30013 -4.33499 0
M  V30 3569 H 334.719 2.23445 -5.27963 0
M  V30 3570 H 333.116 1.62009 -5.77818 0
M  V30 3571 H 334.186 0.587041 -4.81333 0
M  V30 3572 N 335.529 1.53961 0.336706 0
M  V30 3573 C 336.945 1.44378 0.680241 0
M  V30 3574 C 337.145 0.606034 1.9217 0
M  V30 3575 O 336.201 0.099688 2.52303 0
M  V30 3576 C 337.514 2.87945 0.8665 0
M  V30 3577 C 339.062 2.97763 0.964682 0
M  V30 3578 C 339.537 4.42453 1.18321 0
M  V30 3579 N 341.028 4.46008 1.25025 0
M  V30 3580 C 341.763 5.55102 1.43697 0
M  V30 3581 N 341.259 6.7419 1.59498 0
M  V30 3582 N 343.052 5.42727 1.463 0
M  V30 3583 H 335.203 2.06918 -0.479455 0
M  V30 3584 H 337.466 0.935634 -0.152619 0
M  V30 3585 H 337.172 3.51691 0.0256937 0
M  V30 3586 H 337.046 3.33293 1.76623 0
M  V30 3587 H 339.433 2.34153 1.796 0
M  V30 3588 H 339.514 2.55766 0.041708 0
M  V30 3589 H 339.158 5.06645 0.356788 0
M  V30 3590 H 339.088 4.82048 2.11985 0
M  V30 3591 H 341.579 3.60196 1.14312 0
M  V30 3592 H 341.892 7.53095 1.734 0
M  V30 3593 H 340.237 6.77123 1.56621 0
M  V30 3594 H 343.428 4.48647 1.33543 0
M  V30 3595 H 343.601 6.27806 1.6051 0
M  V30 3596 N 337.007 -0.598083 1.45811 0
M  V30 3597 C 338.232 -1.3881 1.54099 0
M  V30 3598 C 338.657 -1.8726 0.177578 0
M  V30 3599 O 338.015 -1.6069 -0.839541 0
M  V30 3600 C 338.063 -2.56217 2.53743 0
M  V30 3601 O 337.167 -3.5716 2.06182 0
M  V30 3602 H 336.508 -0.414024 0.519115 0
M  V30 3603 H 339.038 -0.726971 1.91249 0
M  V30 3604 H 339.048 -3.03337 2.72856 0
M  V30 3605 H 337.723 -2.20303 3.5276 0
M  V30 3606 H 336.3 -3.16624 1.96987 0
M  V30 3607 N 338.485 -1.33259 -0.841409 0
M  V30 3608 C 339.448 -1.23221 -1.9326 0
M  V30 3609 C 340.448 -0.151895 -1.60081 0
M  V30 3610 O 341.638 -0.403246 -1.69468 0
M  V30 3611 C 338.77 -0.898123 -3.28856 0
M  V30 3612 H 339.963 -2.2021 -2.03587 0
M  V30 3613 H 337.516 -1.17281 -1.03319 0
M  V30 3614 H 338.251 0.0693841 -3.24226 0
M  V30 3615 H 338.036 -1.67934 -3.54317 0
M  V30 3616 H 339.526 -0.852563 -4.08805 0
M  V30 3617 N 339.963 1.05934 -1.16686 0
M  V30 3618 C 340.91 2.13499 -0.876748 0
M  V30 3619 C 341.88 1.65162 0.176299 0
M  V30 3620 O 343.065 1.90757 0.0407143 0
M  V30 3621 C 340.205 3.42912 -0.387967 0
M  V30 3622 C 339.318 4.04964 -1.50426 0
M  V30 3623 C 338.453 5.22266 -0.970125 0
M  V30 3624 C 337.492 5.76309 -2.06238 0
M  V30 3625 N 336.629 6.84922 -1.54356 0
M  V30 3626 H 341.469 2.37654 -1.7979 0
M  V30 3627 H 339.006 1.16598 -0.896843 0
M  V30 3628 H 340.964 4.17111 -0.086186 0
M  V30 3629 H 339.594 3.18963 0.496235 0
M  V30 3630 H 338.646 3.28277 -1.92193 0
M  V30 3631 H 339.958 4.41122 -2.32836 0
M  V30 3632 H 339.112 6.03506 -0.621743 0
M  V30 3633 H 337.851 4.87564 -0.115377 0
M  V30 3634 H 336.856 4.93704 -2.41942 0
M  V30 3635 H 338.081 6.13062 -2.92115 0
M  V30 3636 H 336.027 6.52131 -0.711406 0
M  V30 3637 H 335.944 7.20043 -2.30379 0
M  V30 3638 H 337.212 7.69832 -1.22387 0
M  V30 3639 N 341.441 0.965919 1.2453 0
M  V30 3640 C 342.669 0.644385 1.96609 0
M  V30 3641 C 343.084 -0.785823 1.71669 0
M  V30 3642 O 342.441 -1.52703 0.999399 0
M  V30 3643 C 342.492 0.907375 3.49927 0
M  V30 3644 O 342.213 2.28136 3.74013 0
M  V30 3645 C 343.714 0.599784 4.39224 0
M  V30 3646 H 340.934 0.240588 0.626385 0
M  V30 3647 H 343.478 1.29337 1.58405 0
M  V30 3648 H 341.633 0.304631 3.862 0
M  V30 3649 H 342.047 2.36002 4.68405 0
M  V30 3650 H 343.521 0.834263 5.45659 0
M  V30 3651 H 343.998 -0.465921 4.36722 0
M  V30 3652 H 344.604 1.18235 4.08535 0
M  V30 3653 N 342.919 -1.39368 0.735821 0
M  V30 3654 C 344.144 -2.05319 0.293052 0
M  V30 3655 C 344.569 -1.55115 -1.064 0
M  V30 3656 O 343.927 -0.695261 -1.67439 0
M  V30 3657 C 343.975 -3.59305 0.305323 0
M  V30 3658 O 343.079 -4.06299 -0.706761 0
M  V30 3659 H 342.42 -0.650529 0.13307 0
M  V30 3660 H 344.95 -1.78386 1.00197 0
M  V30 3661 H 344.96 -4.07724 0.149997 0
M  V30 3662 H 343.635 -3.95207 1.29553 0
M  V30 3663 H 342.212 -3.69292 -0.517504 0
M  V30 3664 N 344.397 -0.483516 -1.5 0
M  V30 3665 C 345.646 0.0689102 -2.01582 0
M  V30 3666 C 345.959 1.39655 -1.36952 0
M  V30 3667 O 347.165 2.03465 -1.79762 0
M  V30 3668 C 345.621 0.173302 -3.59483 0
M  V30 3669 C 345.229 -1.14665 -4.33077 0
M  V30 3670 C 346.973 0.677024 -4.19066 0
M  V30 3671 C 344.88 -1.00537 -5.82792 0
M  V30 3672 H 343.81 0.0295277 -0.753422 0
M  V30 3673 H 346.461 -0.620295 -1.72698 0
M  V30 3674 H 344.843 0.926569 -3.85007 0
M  V30 3675 H 346.017 -1.91184 -4.19268 0
M  V30 3676 H 344.332 -1.58244 -3.85159 0
M  V30 3677 H 346.929 0.799952 -5.28682 0
M  V30 3678 H 347.272 1.67151 -3.81269 0
M  V30 3679 H 347.805 -0.0192083 -3.97795 0
M  V30 3680 H 344.544 -1.9736 -6.25083 0
M  V30 3681 H 344.064 -0.280776 -5.99142 0
M  V30 3682 H 345.743 -0.677 -6.43448 0
M  V30 3683 N 345.875 1.56104 -0.216619 0
M  V30 3684 C 347.152 1.89988 0.465165 0
M  V30 3685 C 347.532 1.13326 1.78102 0
M  V30 3686 O 346.88 0.241033 2.27225 0
M  V30 3687 C 347.09 3.42646 0.662939 0
M  V30 3688 C 348.438 4.13311 0.972602 0
M  V30 3689 O 349.462 3.48217 0.749901 0
M  V30 3690 O 348.321 5.28396 1.39499 0
M  V30 3691 H 345.415 0.78979 0.245276 0
M  V30 3692 H 347.961 1.67721 -0.258436 0
M  V30 3693 H 346.733 3.90399 -0.26543 0
M  V30 3694 H 346.356 3.70677 1.43821 0
M  V30 3695 N 347.353 -0.0568162 1.57498 0
M  V30 3696 C 348.602 -0.752001 1.87157 0
M  V30 3697 C 348.915 -1.77978 0.811375 0
M  V30 3698 O 350.121 -2.52559 0.996293 0
M  V30 3699 C 348.577 -1.38844 3.3204 0
M  V30 3700 C 348.185 -0.398456 4.46225 0
M  V30 3701 C 349.929 -2.06512 3.70882 0
M  V30 3702 C 347.836 -1.04166 5.82154 0
M  V30 3703 H 346.766 -0.28461 0.698222 0
M  V30 3704 H 349.417 -0.00561272 1.83499 0
M  V30 3705 H 347.799 -2.1836 3.30356 0
M  V30 3706 H 348.973 0.367977 4.59328 0
M  V30 3707 H 347.288 0.174592 4.16034 0
M  V30 3708 H 349.885 -2.55437 4.6974 0
M  V30 3709 H 350.228 -2.87117 3.01445 0
M  V30 3710 H 350.761 -1.33808 3.7462 0
M  V30 3711 H 347.5 -0.275614 6.5492 0
M  V30 3712 H 347.02 -1.7786 5.72823 0
M  V30 3713 H 348.699 -1.55715 6.27982 0
M  V30 3714 N 348.832 -1.54138 -0.328536 0
M  V30 3715 C 349.742 -1.86192 -1.42723 0
M  V30 3716 C 350.758 -0.753382 -1.56844 0
M  V30 3717 O 351.934 -1.04718 -1.72035 0
M  V30 3718 C 348.999 -2.07824 -2.77507 0
M  V30 3719 C 348.06 -3.31641 -2.72603 0
M  V30 3720 C 347.293 -3.52232 -4.00959 0
M  V30 3721 O 347.516 -2.7636 -4.9898 0
M  V30 3722 O 346.45 -4.45699 -4.0452 0
M  V30 3723 H 350.276 -2.79608 -1.18547 0
M  V30 3724 H 347.861 -1.3998 -0.522104 0
M  V30 3725 H 349.743 -2.23411 -3.57303 0
M  V30 3726 H 348.418 -1.17596 -3.01584 0
M  V30 3727 H 347.325 -3.21444 -1.91376 0
M  V30 3728 H 348.658 -4.2191 -2.53481 0
M  V30 3729 N 350.31 0.590341 -1.46126 0
M  V30 3730 C 351.26 1.69466 -1.5253 0
M  V30 3731 C 352.244 1.56179 -0.386917 0
M  V30 3732 O 353.436 1.65223 -0.634858 0
M  V30 3733 C 350.565 3.08245 -1.5113 0
M  V30 3734 C 349.651 3.26856 -2.70233 0
M  V30 3735 N 350.042 3.15657 -3.95214 0
M  V30 3736 C 348.34 3.57775 -2.66296 0
M  V30 3737 C 349.041 3.36066 -4.74799 0
M  V30 3738 N 348.017 3.60865 -4.06543 0
M  V30 3739 H 351.819 1.59326 -2.46966 0
M  V30 3740 H 349.333 0.79414 -1.41659 0
M  V30 3741 H 351.33 3.87492 -1.53804 0
M  V30 3742 H 349.99 3.19521 -0.577636 0
M  V30 3743 H 351.001 2.93686 -4.26578 0
M  V30 3744 H 347.678 3.75782 -1.81918 0
M  V30 3745 H 349.068 3.32655 -5.83772 0
M  V30 3746 N 351.788 1.33704 0.83433 0
M  V30 3747 C 352.718 1.26967 1.95963 0
M  V30 3748 C 353.699 0.149337 1.69443 0
M  V30 3749 O 354.884 0.339852 1.91203 0
M  V30 3750 C 352.014 1.01275 3.32206 0
M  V30 3751 C 350.968 2.09652 3.73136 0
M  V30 3752 C 350.294 1.69166 5.07235 0
M  V30 3753 C 351.594 3.51372 3.86439 0
M  V30 3754 H 353.288 2.2112 2.01857 0
M  V30 3755 H 350.834 1.06447 0.969793 0
M  V30 3756 H 352.787 0.952106 4.10503 0
M  V30 3757 H 351.511 0.0356203 3.26581 0
M  V30 3758 H 350.17 2.14766 2.97104 0
M  V30 3759 H 349.818 0.701437 4.98085 0
M  V30 3760 H 349.518 2.41694 5.35591 0
M  V30 3761 H 351.042 1.64576 5.88003 0
M  V30 3762 H 352.456 3.48734 4.55036 0
M  V30 3763 H 350.853 4.22425 4.26236 0
M  V30 3764 H 351.923 3.89546 2.88759 0
M  V30 3765 N 353.266 -1.05314 1.17247 0
M  V30 3766 C 354.229 -2.112 0.890357 0
M  V30 3767 C 355.229 -1.60359 -0.118943 0
M  V30 3768 O 356.419 -1.73833 0.113086 0
M  V30 3769 C 353.551 -3.39266 0.333422 0
M  V30 3770 H 354.744 -2.37659 1.82916 0
M  V30 3771 H 352.297 -1.21538 0.982758 0
M  V30 3772 H 353.032 -3.18462 -0.612587 0
M  V30 3773 H 352.817 -3.77477 1.06082 0
M  V30 3774 H 354.307 -4.17315 0.154322 0
M  V30 3775 N 354.744 -0.972509 -1.24016 0
M  V30 3776 C 355.993 -0.632603 -1.91523 0
M  V30 3777 C 356.306 0.836641 -1.76804 0
M  V30 3778 O 357.512 1.28728 -2.39043 0
M  V30 3779 C 355.968 -1.08082 -3.43287 0
M  V30 3780 C 355.576 -2.57386 -3.66683 0
M  V30 3781 C 357.32 -0.814288 -4.16617 0
M  V30 3782 C 355.227 -2.95915 -5.12043 0
M  V30 3783 H 354.157 -0.232898 -0.717129 0
M  V30 3784 H 356.808 -1.17936 -1.40582 0
M  V30 3785 H 355.19 -0.462339 -3.93292 0
M  V30 3786 H 356.364 -3.24405 -3.27258 0
M  V30 3787 H 354.679 -2.81701 -3.06649 0
M  V30 3788 H 357.276 -1.0781 -5.23718 0
M  V30 3789 H 357.619 0.24955 -4.15551 0
M  V30 3790 H 358.152 -1.39397 -3.72577 0
M  V30 3791 H 354.891 -4.0139 -5.18234 0
M  V30 3792 H 354.411 -2.33584 -5.52448 0
M  V30 3793 H 356.09 -2.86086 -5.80314 0
M  V30 3794 N 356.222 1.38976 -0.743202 0
M  V30 3795 C 357.468 2.0064 -0.295189 0
M  V30 3796 C 357.801 1.5885 1.11716 0
M  V30 3797 O 357.076 0.821181 1.76315 0
M  V30 3798 C 357.359 3.578 -0.406318 0
M  V30 3799 C 357.212 4.09586 -1.85903 0
M  V30 3800 C 358.531 4.39616 0.206439 0
M  V30 3801 H 355.65 0.728935 -0.108733 0
M  V30 3802 H 358.292 1.65067 -0.940897 0
M  V30 3803 H 356.442 3.88235 0.143419 0
M  V30 3804 H 358.114 3.89837 -2.46627 0
M  V30 3805 H 356.357 3.6284 -2.3776 0
M  V30 3806 H 357.028 5.18708 -1.888 0
M  V30 3807 H 359.504 4.15273 -0.262283 0
M  V30 3808 H 358.38 5.48812 0.0983819 0
M  V30 3809 H 358.641 4.22754 1.2935 0
M  V30 3810 N 357.7 0.491464 1.49741 0
M  V30 3811 C 359.111 0.0413169 1.86654 0
M  V30 3812 C 359.462 -1.36985 1.40462 0
M  V30 3813 O 358.587 -2.01917 0.778354 0
M  V30 3814 C 359.182 0.0682023 3.38731 0
M  V30 3815 C 357.741 -0.32656 3.74981 0
M  V30 3816 C 356.888 0.444888 2.73708 0
M  V30 3817 H 359.839 0.704733 1.42194 0
M  V30 3818 H 359.86 -0.729322 3.73445 0
M  V30 3819 H 359.372 1.09539 3.72321 0
M  V30 3820 H 357.473 -1.35734 3.46997 0
M  V30 3821 H 357.586 -0.013741 4.79098 0
M  V30 3822 H 355.95 -0.104062 2.54487 0
M  V30 3823 H 356.733 1.47197 3.10142 0
M  V30 3824 N 359.178 -1.55987 0.224894 0
M  V30 3825 C 360.406 -2.02784 -0.410665 0
M  V30 3826 C 360.821 -1.10464 -1.53112 0
M  V30 3827 O 360.178 -0.114871 -1.82138 0
M  V30 3828 C 360.229 -3.49087 -0.939165 0
M  V30 3829 O 359.95 -4.37887 0.136614 0
M  V30 3830 C 361.451 -4.11543 -1.64763 0
M  V30 3831 H 358.671 -0.663484 -0.100148 0
M  V30 3832 H 361.215 -2.01614 0.342326 0
M  V30 3833 H 359.37 -3.50861 -1.64242 0
M  V30 3834 H 359.784 -5.23849 -0.261155 0
M  V30 3835 H 361.258 -5.15673 -1.96939 0
M  V30 3836 H 361.735 -3.56736 -2.56195 0
M  V30 3837 H 362.341 -4.13629 -0.989503 0
M  V30 3838 N 360.656 0.0484629 -1.57525 0
M  V30 3839 C 361.884 0.755421 -1.92616 0
M  V30 3840 C 362.299 1.69919 -0.822984 0
M  V30 3841 O 361.656 1.81378 0.202085 0
M  V30 3842 C 361.707 1.52915 -3.27566 0
M  V30 3843 O 361.428 0.62329 -4.33644 0
M  V30 3844 C 362.929 2.33502 -3.76818 0
M  V30 3845 H 360.149 0.213465 -0.63614 0
M  V30 3846 H 362.693 0.0117698 -2.04497 0
M  V30 3847 H 360.848 2.22486 -3.17142 0
M  V30 3848 H 361.262 1.16383 -5.11425 0
M  V30 3849 H 362.736 2.83214 -4.73808 0
M  V30 3850 H 363.213 3.14068 -3.07014 0
M  V30 3851 H 363.819 1.69043 -3.90262 0
M  V30 3852 N 362.134 1.5431 0.320358 0
M  V30 3853 C 363.55 1.45091 0.664889 0
M  V30 3854 C 363.75 0.626382 1.91517 0
M  V30 3855 O 362.806 0.126443 2.52183 0
M  V30 3856 C 364.119 2.88848 0.83591 0
M  V30 3857 C 365.667 2.9877 0.933046 0
M  V30 3858 C 366.142 4.43683 1.13621 0
M  V30 3859 N 367.633 4.47309 1.20287 0
M  V30 3860 C 368.368 5.56595 1.37801 0
M  V30 3861 N 367.864 6.75844 1.52338 0
M  V30 3862 N 369.657 5.44248 1.40535 0
M  V30 3863 H 361.808 2.06398 -0.501374 0
M  V30 3864 H 364.071 0.933963 -0.162534 0
M  V30 3865 H 363.777 3.51698 -0.0116092 0
M  V30 3866 H 363.651 3.35148 1.73078 0
M  V30 3867 H 366.038 2.36045 1.77107 0
M  V30 3868 H 366.119 2.55796 0.0145782 0
M  V30 3869 H 365.763 5.06995 0.303032 0
M  V30 3870 H 365.693 4.84269 2.0686 0
M  V30 3871 H 368.184 3.61388 1.10485 0
M  V30 3872 H 368.497 7.54892 1.65403 0
M  V30 3873 H 366.842 6.78746 1.4943 0
M  V30 3874 H 370.033 4.50038 1.28777 0
M  V30 3875 H 370.206 6.29473 1.53842 0
M  V30 3876 N 363.613 -0.582584 1.46437 0
M  V30 3877 C 364.859 -1.34278 1.51978 0
M  V30 3878 C 365.192 -1.93446 0.170973 0
M  V30 3879 O 364.467 -1.76481 -0.817608 0
M  V30 3880 C 364.75 -2.47203 2.61845 0
M  V30 3881 C 364.603 -1.93069 4.06257 0
M  V30 3882 C 365.922 -3.49247 2.67795 0
M  V30 3883 H 363.041 -0.486876 0.553282 0
M  V30 3884 H 365.683 -0.654437 1.78374 0
M  V30 3885 H 363.833 -3.0592 2.39469 0
M  V30 3886 H 365.505 -1.38808 4.3992 0
M  V30 3887 H 363.748 -1.23898 4.1573 0
M  V30 3888 H 364.419 -2.74586 4.7886 0
M  V30 3889 H 366.895 -3.00411 2.8791 0
M  V30 3890 H 365.771 -4.25719 3.46489 0
M  V30 3891 H 366.032 -4.06482 1.73852 0
M  V30 3892 N 365.091 -1.34144 -0.827227 0
M  V30 3893 C 366.368 -1.16844 -1.56865 0
M  V30 3894 C 366.748 0.260654 -2.09485 0
M  V30 3895 O 366.096 1.26138 -1.9053 0
M  V30 3896 C 366.306 -2.21939 -2.6934 0
M  V30 3897 C 367.654 -2.56695 -3.3822 0
M  V30 3898 O 368.678 -2.20695 -2.79593 0
M  V30 3899 O 367.537 -3.18518 -4.44082 0
M  V30 3900 H 364.631 -0.452669 -0.692112 0
M  V30 3901 H 367.177 -1.45763 -0.868973 0
M  V30 3902 H 365.949 -3.17882 -2.28182 0
M  V30 3903 H 365.572 -1.94172 -3.46962 0
M  V30 3904 N 366.569 1.04691 -1.17803 0
M  V30 3905 C 367.817 1.7743 -0.967617 0
M  V30 3906 C 368.138 1.88359 0.504574 0
M  V30 3907 O 367.408 1.40402 1.36617 0
M  V30 3908 H 365.988 0.657242 -0.355024 0
M  V30 3909 H 368.65 1.2638 -1.48371 0
M  V30 3910 H 367.746 2.78924 -1.40027 0
M  V30 3911 N 368.047 0.979072 1.23499 0
M  V30 3912 C 368.995 0.510604 2.26926 0
M  V30 3913 C 369.989 -0.431691 1.63807 0
M  V30 3914 O 371.195 -0.30573 1.77385 0
M  V30 3915 H 367.57 0.146688 0.737554 0
M  V30 3916 H 369.541 1.39466 2.63803 0
M  V30 3917 C 368.29 -0.172658 3.47271 0
M  V30 3918 H 367.613 0.543331 3.96091 0
M  V30 3919 H 369.053 -0.464101 4.21452 0
M  V30 3920 C 367.512 -1.40345 3.06276 0
M  V30 3921 O 368.042 -2.49978 3.14442 0
M  V30 3922 N 366.248 -1.27362 2.61203 0
M  V30 3923 H 365.795 -0.381584 2.54758 0
M  V30 3924 H 365.753 -2.09822 2.34141 0
M  V30 3925 N 369.525 -1.3858 0.750561 0
M  V30 3926 C 370.75 -2.04997 0.314812 0
M  V30 3927 C 371.175 -1.56235 -1.04749 0
M  V30 3928 O 370.533 -0.712981 -1.66692 0
M  V30 3929 C 370.581 -3.58961 0.343415 0
M  V30 3930 O 369.685 -4.07025 -0.663628 0
M  V30 3931 H 369.026 -0.649081 0.139962 0
M  V30 3932 H 371.556 -1.77313 1.02084 0
M  V30 3933 H 371.566 -4.07542 0.193233 0
M  V30 3934 H 370.241 -3.93811 1.33738 0
M  V30 3935 H 368.818 -3.6982 -0.478307 0
M  V30 3936 N 371.003 -0.499398 -1.49478 0
M  V30 3937 C 372.233 0.0424839 -2.06556 0
M  V30 3938 C 372.641 1.31514 -1.36018 0
M  V30 3939 O 371.984 1.78555 -0.431718 0
M  V30 3940 C 372.046 0.368074 -3.57611 0
M  V30 3941 C 371.71 -0.806631 -4.49825 0
M  V30 3942 C 372.707 -1.69667 -4.91436 0
M  V30 3943 C 370.392 -1.00498 -4.92144 0
M  V30 3944 C 372.386 -2.76923 -5.74101 0
M  V30 3945 C 370.073 -2.08072 -5.74586 0
M  V30 3946 C 371.071 -2.96119 -6.15469 0
M  V30 3947 O 370.759 -4.01836 -6.96264 0
M  V30 3948 H 370.491 -0.0165165 -0.675798 0
M  V30 3949 H 373.045 -0.695497 -1.93267 0
M  V30 3950 H 371.275 1.15963 -3.68903 0
M  V30 3951 H 372.964 0.848381 -3.96935 0
M  V30 3952 H 373.73 -1.55524 -4.59388 0
M  V30 3953 H 369.609 -0.329036 -4.59824 0
M  V30 3954 H 373.153 -3.45676 -6.05932 0
M  V30 3955 H 369.05 -2.22211 -6.06047 0
M  V30 3956 H 369.818 -3.9917 -7.14567 0
M  V30 3957 N 372.481 1.55866 -0.233164 0
M  V30 3958 C 373.711 2.02704 0.399325 0
M  V30 3959 C 374.119 1.11204 1.53069 0
M  V30 3960 O 373.462 0.116182 1.83332 0
M  V30 3961 C 373.524 3.45844 0.981429 0
M  V30 3962 C 373.188 4.56997 -0.0159561 0
M  V30 3963 C 374.185 5.13384 -0.820552 0
M  V30 3964 C 371.87 5.0211 -0.138072 0
M  V30 3965 C 373.864 6.13365 -1.73386 0
M  V30 3966 C 371.551 6.01926 -1.0549 0
M  V30 3967 C 372.549 6.57431 -1.85132 0
M  V30 3968 O 372.237 7.55302 -2.75272 0
M  V30 3969 H 371.969 0.668459 0.100692 0
M  V30 3970 H 374.523 2.02387 -0.35052 0
M  V30 3971 H 372.753 3.43267 1.78058 0
M  V30 3972 H 374.442 3.76262 1.52255 0
M  V30 3973 H 375.208 4.79372 -0.736721 0
M  V30 3974 H 371.087 4.5858 0.471737 0
M  V30 3975 H 374.631 6.56614 -2.35592 0
M  V30 3976 H 370.528 6.35359 -1.1397 0
M  V30 3977 H 371.296 7.72867 -2.69477 0
M  V30 3978 N 373.959 -0.0401083 1.57549 0
M  V30 3979 C 375.205 -0.728793 1.89895 0
M  V30 3980 C 375.56 -1.73551 0.830535 0
M  V30 3981 O 374.853 -1.90914 -0.162007 0
M  V30 3982 C 375.047 -1.44902 3.26708 0
M  V30 3983 C 374.876 -0.513568 4.46758 0
M  V30 3984 C 373.646 -0.138698 5.0511 0
M  V30 3985 C 375.844 0.203341 5.13898 0
M  V30 3986 N 373.826 0.799159 6.08676 0
M  V30 3987 C 375.197 0.997246 6.11927 0
M  V30 3988 C 377.252 0.271459 4.97159 0
M  V30 3989 C 375.955 1.85299 6.95023 0
M  V30 3990 C 377.981 1.11429 5.80808 0
M  V30 3991 C 377.343 1.89615 6.78399 0
M  V30 3992 H 373.442 -0.241125 0.743897 0
M  V30 3993 H 376.026 0.0108016 1.94697 0
M  V30 3994 H 374.197 -2.15914 3.22856 0
M  V30 3995 H 375.929 -2.08921 3.46603 0
M  V30 3996 H 372.684 -0.498496 4.70969 0
M  V30 3997 H 373.108 1.26227 6.65128 0
M  V30 3998 H 377.75 -0.318709 4.21597 0
M  V30 3999 H 375.468 2.454 7.69938 0
M  V30 4000 H 379.054 1.17038 5.69906 0
M  V30 4001 H 377.934 2.53779 7.42001 0
M  V30 4002 N 375.437 -1.54477 -0.31217 0
M  V30 4003 C 376.848 -1.64344 -0.885891 0
M  V30 4004 C 377.199 -0.54485 -1.88483 0
M  V30 4005 O 376.324 0.320387 -2.14015 0
M  V30 4006 C 376.919 -2.97908 -1.61357 0
M  V30 4007 C 375.478 -3.09933 -2.13585 0
M  V30 4008 C 374.625 -2.59971 -0.964897 0
M  V30 4009 H 377.576 -1.58448 -0.0894528 0
M  V30 4010 H 377.597 -2.88706 -2.47848 0
M  V30 4011 H 377.109 -3.77845 -0.886277 0
M  V30 4012 H 375.21 -2.34694 -2.89395 0
M  V30 4013 H 375.323 -4.15916 -2.37804 0
M  V30 4014 H 373.687 -2.16147 -1.34731 0
M  V30 4015 H 374.47 -3.42376 -0.251742 0
M  V30 4016 N 376.915 0.57481 -1.46744 0
M  V30 4017 C 378.192 1.3352 -1.4294 0
M  V30 4018 C 378.572 2.10775 -0.117009 0
M  V30 4019 O 377.92 2.09966 0.901474 0
M  V30 4020 C 378.13 2.25456 -2.66403 0
M  V30 4021 C 379.478 2.87035 -3.12883 0
M  V30 4022 O 380.502 2.35766 -2.67007 0
M  V30 4023 O 379.361 3.80179 -3.92589 0
M  V30 4024 H 376.455 0.600318 -0.568812 0
M  V30 4025 H 379.001 0.595171 -1.58921 0
M  V30 4026 H 377.773 1.67851 -3.53471 0
M  V30 4027 H 377.396 3.06785 -2.52921 0
M  V30 4028 N 378.394 1.34581 0.820102 0
M  V30 4029 C 379.643 1.26437 1.57151 0
M  V30 4030 C 379.956 -0.163111 1.94919 0
M  V30 4031 O 381.162 -0.366722 2.69012 0
M  V30 4032 C 379.618 2.21658 2.83541 0
M  V30 4033 C 379.226 3.69679 2.53065 0
M  V30 4034 C 380.97 2.22428 3.61561 0
M  V30 4035 C 378.877 4.56761 3.75664 0
M  V30 4036 H 377.807 0.469707 0.589823 0
M  V30 4037 H 380.458 1.59763 0.902656 0
M  V30 4038 H 378.84 1.81287 3.52067 0
M  V30 4039 H 380.014 4.18605 1.92631 0
M  V30 4040 H 378.329 3.71384 1.88316 0
M  V30 4041 H 380.926 2.8471 4.52597 0
M  V30 4042 H 381.269 1.22434 3.97889 0
M  V30 4043 H 381.802 2.61259 2.99981 0
M  V30 4044 H 378.541 5.57702 3.44454 0
M  V30 4045 H 378.061 4.12568 4.35371 0
M  V30 4046 H 379.74 4.71509 4.43044 0
M  V30 4047 N 379.872 -1.04064 1.18357 0
M  V30 4048 C 381.102 -1.80654 1.00238 0
M  V30 4049 C 381.51 -1.83713 -0.452362 0
M  V30 4050 O 380.853 -1.27135 -1.32599 0
M  V30 4051 C 380.915 -3.27582 1.48088 0
M  V30 4052 C 380.579 -3.48184 2.96002 0
M  V30 4053 C 381.576 -3.39372 3.93856 0
M  V30 4054 C 379.261 -3.7478 3.34433 0
M  V30 4055 C 381.255 -3.5686 5.28138 0
M  V30 4056 C 378.942 -3.91915 4.68877 0
M  V30 4057 C 379.94 -3.82956 5.65539 0
M  V30 4058 O 379.628 -3.996 6.97549 0
M  V30 4059 H 379.36 -0.575751 0.354241 0
M  V30 4060 H 381.914 -1.32044 1.57333 0
M  V30 4061 H 380.144 -3.77161 0.853588 0
M  V30 4062 H 381.833 -3.8573 1.2636 0
M  V30 4063 H 382.599 -3.18789 3.65511 0
M  V30 4064 H 378.478 -3.80852 2.59756 0
M  V30 4065 H 382.022 -3.49783 6.03571 0
M  V30 4066 H 377.919 -4.11992 4.96923 0
M  V30 4067 H 378.687 -4.1676 7.04452 0
M  V30 4068 N 381.35 -0.985608 -1.22978 0
M  V30 4069 C 382.298 -0.522631 -2.26652 0
M  V30 4070 C 383.292 0.422998 -1.64034 0
M  V30 4071 O 384.498 0.296319 -1.77544 0
M  V30 4072 H 380.873 -0.150597 -0.736766 0
M  V30 4073 H 382.844 -1.40863 -2.63059 0
M  V30 4074 C 381.593 0.154238 -3.47358 0
M  V30 4075 H 380.916 -0.564329 -3.95797 0
M  V30 4076 H 382.356 0.441744 -4.21693 0
M  V30 4077 C 380.815 1.38719 -3.07016 0
M  V30 4078 O 381.345 2.48307 -3.15764 0
M  V30 4079 N 379.551 1.25975 -2.61875 0
M  V30 4080 H 379.098 0.368068 -2.54957 0
M  V30 4081 H 379.056 2.08578 -2.3525 0
M  V30 4082 N 382.828 1.3818 -0.7579 0
M  V30 4083 C 384.053 2.04827 -0.325679 0
M  V30 4084 C 384.478 1.56788 1.03919 0
M  V30 4085 O 383.836 0.721811 1.66312 0
M  V30 4086 C 383.884 3.58774 -0.362447 0
M  V30 4087 O 382.988 4.07372 0.642033 0
M  V30 4088 H 382.329 0.64833 -0.143402 0
M  V30 4089 H 384.859 1.7677 -1.03023 0
M  V30 4090 H 384.869 4.07434 -0.214844 0
M  V30 4091 H 383.544 3.93096 -1.35824 0
M  V30 4092 H 382.121 3.70068 0.458688 0
M  V30 4093 N 384.306 0.507319 1.49211 0
M  V30 4094 C 385.555 -0.0368315 2.01666 0
M  V30 4095 C 385.868 -1.37459 1.39156 0
M  V30 4096 O 387.074 -2.00579 1.82976 0
M  V30 4097 C 385.53 -0.116089 3.59713 0
M  V30 4098 C 385.138 1.2154 4.31198 0
M  V30 4099 C 386.882 -0.610268 4.2009 0
M  V30 4100 C 384.789 1.09796 5.81119 0
M  V30 4101 H 383.719 -0.0175376 0.753796 0
M  V30 4102 H 386.37 0.647691 1.71689 0
M  V30 4103 H 384.752 -0.8652 3.86433 0
M  V30 4104 H 385.926 1.9783 4.16173 0
M  V30 4105 H 384.241 1.64352 3.82593 0
M  V30 4106 H 386.838 -0.715742 5.29888 0
M  V30 4107 H 387.181 -1.61064 3.8388 0
M  V30 4108 H 387.714 0.0824916 3.97714 0
M  V30 4109 H 384.453 2.0728 6.21864 0
M  V30 4110 H 383.973 0.376058 5.9862 0
M  V30 4111 H 385.652 0.779281 6.4229 0
M  V30 4112 N 385.784 -1.5574 0.241426 0
M  V30 4113 C 387.033 -1.97986 -0.385295 0
M  V30 4114 C 387.346 -1.13267 -1.59468 0
M  V30 4115 O 388.552 -1.45501 -2.2922 0
M  V30 4116 C 387.008 -3.52275 -0.736884 0
M  V30 4117 C 386.616 -4.45726 0.450796 0
M  V30 4118 C 388.36 -4.03189 -1.3281 0
M  V30 4119 C 386.267 -5.91352 0.0756662 0
M  V30 4120 H 385.197 -0.739386 -0.147731 0
M  V30 4121 H 387.848 -1.80308 0.340779 0
M  V30 4122 H 386.23 -3.65628 -1.52094 0
M  V30 4123 H 387.404 -4.44131 1.22819 0
M  V30 4124 H 385.719 -4.05264 0.956573 0
M  V30 4125 H 388.316 -5.09505 -1.62201 0
M  V30 4126 H 388.659 -3.50212 -2.25071 0
M  V30 4127 H 389.192 -3.93141 -0.607069 0
M  V30 4128 H 385.931 -6.48354 0.965272 0
M  V30 4129 H 385.451 -5.96095 -0.665635 0
M  V30 4130 H 387.13 -6.46084 -0.344075 0
M  V30 4131 N 387.262 0.0317525 -1.57568 0
M  V30 4132 C 388.172 1.05021 -2.0978 0
M  V30 4133 C 389.188 1.39809 -1.03583 0
M  V30 4134 O 390.364 1.49182 -1.35302 0
M  V30 4135 C 387.429 2.33301 -2.56459 0
M  V30 4136 C 386.49 2.0512 -3.77127 0
M  V30 4137 C 385.723 3.27283 -4.2157 0
M  V30 4138 O 385.946 4.37861 -3.65559 0
M  V30 4139 O 384.88 3.13141 -5.14029 0
M  V30 4140 H 388.706 0.636505 -2.96955 0
M  V30 4141 H 386.291 0.248559 -1.47318 0
M  V30 4142 H 388.173 3.08722 -2.86825 0
M  V30 4143 H 386.848 2.73973 -1.72397 0
M  V30 4144 H 385.755 1.27276 -3.51784 0
M  V30 4145 H 387.088 1.69305 -4.62165 0
M  V30 4146 N 388.74 1.54641 0.303973 0
M  V30 4147 C 389.703 1.84646 1.35789 0
M  V30 4148 C 390.703 0.7192 1.4382 0
M  V30 4149 O 391.893 0.987491 1.43507 0
M  V30 4150 C 389.025 2.02407 2.74307 0
M  V30 4151 H 390.218 2.78829 1.10429 0
M  V30 4152 H 387.771 1.46658 0.540487 0
M  V30 4153 H 388.506 1.10502 3.04893 0
M  V30 4154 H 388.291 2.84453 2.69868 0
M  V30 4155 H 389.781 2.27002 3.50514 0
M  V30 4156 N 390.218 -0.567019 1.47046 0
M  V30 4157 C 391.181 -1.65696 1.58359 0
M  V30 4158 C 392.181 -1.54097 0.459441 0
M  V30 4159 O 393.371 -1.58432 0.724225 0
M  V30 4160 C 390.503 -3.05197 1.51879 0
M  V30 4161 H 391.696 -1.57019 2.5551 0
M  V30 4162 H 389.249 -0.786148 1.3509 0
M  V30 4163 H 389.984 -3.19417 0.560673 0
M  V30 4164 H 389.769 -3.15025 2.33455 0
M  V30 4165 H 391.259 -3.84511 1.62913 0
M  V30 4166 N 391.696 -1.35014 -0.812953 0
M  V30 4167 C 392.945 -1.27269 -1.56479 0
M  V30 4168 C 393.258 0.152771 -1.95002 0
M  V30 4169 O 394.464 0.352451 -2.69203 0
M  V30 4170 C 392.92 -2.23159 -2.82362 0
M  V30 4171 C 392.528 -3.71016 -2.511 0
M  V30 4172 C 394.272 -2.24342 -3.60376 0
M  V30 4173 C 392.179 -4.58746 -3.73237 0
M  V30 4174 H 391.109 -0.472829 -0.587324 0
M  V30 4175 H 393.76 -1.6024 -0.894171 0
M  V30 4176 H 392.142 -1.83151 -3.51101 0
M  V30 4177 H 393.316 -4.1962 -1.90409 0
M  V30 4178 H 391.631 -3.72378 -1.86343 0
M  V30 4179 H 394.228 -2.87107 -4.51081 0
M  V30 4180 H 394.571 -1.24542 -3.97234 0
M  V30 4181 H 395.104 -2.62846 -2.98591 0
M  V30 4182 H 391.843 -5.59521 -3.41492 0
M  V30 4183 H 391.363 -4.14871 -4.33176 0
M  V30 4184 H 393.042 -4.73852 -4.40537 0
M  V30 4185 N 393.175 1.03435 -1.18907 0
M  V30 4186 C 394.123 2.13703 -0.918353 0
M  V30 4187 C 395.117 1.68947 0.123767 0
M  V30 4188 O 396.323 1.79983 -0.0249701 0
M  V30 4189 H 392.698 0.698112 -0.279542 0
M  V30 4190 H 394.669 2.33731 -1.85506 0
M  V30 4191 C 393.418 3.44542 -0.467532 0
M  V30 4192 H 392.741 3.79394 -1.26095 0
M  V30 4193 H 394.181 4.22812 -0.317164 0
M  V30 4194 C 392.64 3.26829 0.817588 0
M  V30 4195 O 393.17 3.54975 1.88031 0
M  V30 4196 N 391.376 2.80139 0.772677 0
M  V30 4197 H 390.923 2.57434 -0.0923883 0
M  V30 4198 H 390.881 2.68668 1.63294 0
M  V30 4199 N 394.653 0.992116 1.22453 0
M  V30 4200 C 396.069 0.702713 1.43297 0
M  V30 4201 C 396.269 -0.726909 1.87932 0
M  V30 4202 O 395.325 -1.49792 2.0327 0
M  V30 4203 C 396.638 1.70762 2.47509 0
M  V30 4204 C 398.186 1.72298 2.61309 0
M  V30 4205 C 398.661 2.71649 3.68742 0
M  V30 4206 N 400.152 2.70239 3.76199 0
M  V30 4207 C 400.887 3.43778 4.58917 0
M  V30 4208 N 400.383 4.26914 5.45633 0
M  V30 4209 N 402.176 3.32487 4.5322 0
M  V30 4210 H 394.327 1.91543 0.917871 0
M  V30 4211 H 396.59 0.826031 0.465162 0
M  V30 4212 H 396.296 2.73059 2.21657 0
M  V30 4213 H 396.17 1.49985 3.46099 0
M  V30 4214 H 398.557 0.706989 2.86506 0
M  V30 4215 H 398.638 1.97143 1.62997 0
M  V30 4216 H 398.282 3.73397 3.44292 0
M  V30 4217 H 398.212 2.44074 4.66622 0
M  V30 4218 H 400.703 2.09912 3.14237 0
M  V30 4219 H 401.016 4.79855 6.05771 0
M  V30 4220 H 399.361 4.31002 5.45218 0
M  V30 4221 H 402.552 2.6698 3.84499 0
M  V30 4222 H 402.725 3.90058 5.17454 0
M  V30 4223 N 396.131 -1.37776 0.765217 0
M  V30 4224 C 397.379 -1.99454 0.325943 0
M  V30 4225 C 397.7 -1.61049 -1.09947 0
M  V30 4226 O 396.97 -0.872821 -1.75381 0
M  V30 4227 H 395.55 -0.737697 0.117525 0
M  V30 4228 H 398.212 -1.68359 0.981895 0
M  V30 4229 H 397.308 -3.09547 0.398353 0
M  V30 4230 N 397.609 -0.515225 -1.4894 0
M  V30 4231 C 398.855 0.0242508 -2.02785 0
M  V30 4232 C 399.188 1.35323 -1.39289 0
M  V30 4233 O 398.463 1.87041 -0.533469 0
M  V30 4234 C 398.746 0.16184 -3.59736 0
M  V30 4235 C 398.599 -1.19127 -4.33738 0
M  V30 4236 C 399.918 0.895719 -4.30888 0
M  V30 4237 H 397.037 0.00733914 -0.736963 0
M  V30 4238 H 399.679 -0.669395 -1.77818 0
M  V30 4239 H 397.829 0.752624 -3.8114 0
M  V30 4240 H 399.501 -1.82202 -4.23792 0
M  V30 4241 H 397.744 -1.77695 -3.95736 0
M  V30 4242 H 398.415 -1.04815 -5.41957 0
M  V30 4243 H 400.891 0.394528 -4.14225 0
M  V30 4244 H 399.767 0.960859 -5.40425 0
M  V30 4245 H 400.028 1.9427 -3.97129 0
M  V30 4246 N 399.087 1.5561 -0.249682 0
M  V30 4247 C 400.034 2.21496 0.648694 0
M  V30 4248 C 401.004 1.17977 1.16921 0
M  V30 4249 O 402.189 1.46434 1.22318 0
M  V30 4250 C 399.329 2.92039 1.83868 0
M  V30 4251 C 398.442 4.10219 1.35442 0
M  V30 4252 C 397.577 4.6847 2.50419 0
M  V30 4253 C 396.616 5.78893 1.98869 0
M  V30 4254 N 395.753 6.31315 3.07223 0
M  V30 4255 H 400.593 2.97892 0.0801582 0
M  V30 4256 H 398.13 1.47074 0.0278031 0
M  V30 4257 H 400.088 3.31138 2.53778 0
M  V30 4258 H 398.718 2.18111 2.37965 0
M  V30 4259 H 397.77 3.76413 0.54928 0
M  V30 4260 H 399.082 4.89927 0.936649 0
M  V30 4261 H 398.236 5.10158 3.28366 0
M  V30 4262 H 396.975 3.87984 2.95499 0
M  V30 4263 H 395.98 5.3668 1.19393 0
M  V30 4264 H 397.205 6.61232 1.54755 0
M  V30 4265 H 395.151 5.53733 3.51732 0
M  V30 4266 H 395.068 7.06224 2.69784 0
M  V30 4267 H 396.336 6.77662 3.8522 0
M  V30 4268 N 400.565 -0.0233959 1.57583 0
M  V30 4269 C 401.814 -0.712133 1.8871 0
M  V30 4270 C 402.127 -1.76217 0.848944 0
M  V30 4271 O 403.333 -2.50389 1.04964 0
M  V30 4272 C 401.789 -1.3177 3.3491 0
M  V30 4273 C 401.397 -0.303715 4.46969 0
M  V30 4274 C 403.141 -1.98598 3.75179 0
M  V30 4275 C 401.048 -0.917945 5.84233 0
M  V30 4276 H 399.978 -0.269735 0.704101 0
M  V30 4277 H 402.629 0.0333114 1.8347 0
M  V30 4278 H 401.011 -2.11304 3.34913 0
M  V30 4279 H 402.185 0.465325 4.58445 0
M  V30 4280 H 400.5 0.2628 4.1557 0
M  V30 4281 H 403.097 -2.45416 4.75053 0
M  V30 4282 H 403.44 -2.80659 3.07468 0
M  V30 4283 H 403.973 -1.25831 3.77374 0
M  V30 4284 H 400.712 -0.136633 6.55358 0
M  V30 4285 H 400.232 -1.65669 5.76467 0
M  V30 4286 H 401.911 -1.4236 6.31144 0
M  V30 4287 N 402.043 -1.548 -0.295768 0
M  V30 4288 C 403.459 -1.4613 -0.641722 0
M  V30 4289 C 403.659 -0.656771 -1.90496 0
M  V30 4290 O 402.715 -0.166547 -2.5195 0
M  V30 4291 C 404.028 -2.90141 -0.789852 0
M  V30 4292 C 405.576 -3.00216 -0.885396 0
M  V30 4293 C 406.051 -4.45434 -1.06548 0
M  V30 4294 N 407.542 -4.49166 -1.13156 0
M  V30 4295 C 408.277 -5.58717 -1.28929 0
M  V30 4296 N 407.773 -6.78182 -1.41567 0
M  V30 4297 N 409.566 -5.46415 -1.31859 0
M  V30 4298 H 401.717 -2.05574 0.534147 0
M  V30 4299 H 403.98 -0.931259 0.177372 0
M  V30 4300 H 403.686 -3.51635 0.0675598 0
M  V30 4301 H 403.56 -3.37859 -1.67724 0
M  V30 4302 H 405.947 -2.38833 -1.73329 0
M  V30 4303 H 406.028 -2.55787 0.0261185 0
M  V30 4304 H 405.672 -5.07413 -0.222335 0
M  V30 4305 H 405.602 -4.87499 -1.9913 0
M  V30 4306 H 408.093 -3.631 -1.04721 0
M  V30 4307 H 408.406 -7.57428 -1.53372 0
M  V30 4308 H 406.751 -6.81037 -1.38613 0
M  V30 4309 H 409.942 -4.5203 -1.21601 0
M  V30 4310 H 410.115 -6.31841 -1.43808 0
M  V30 4311 N 403.521 0.559213 -1.47345 0
M  V30 4312 C 404.451 1.67622 -1.62558 0
M  V30 4313 C 405.432 1.63331 -0.475087 0
M  V30 4314 O 406.617 1.80983 -0.704182 0
M  V30 4315 C 403.747 3.0626 -1.63774 0
M  V30 4316 C 402.701 3.25397 -2.7803 0
M  V30 4317 C 402.027 4.64801 -2.64318 0
M  V30 4318 C 403.327 3.10965 -4.19641 0
M  V30 4319 H 405.021 1.55146 -2.56067 0
M  V30 4320 H 402.567 0.744961 -1.23233 0
M  V30 4321 H 404.52 3.84247 -1.73008 0
M  V30 4322 H 403.244 3.1969 -0.66825 0
M  V30 4323 H 401.903 2.49817 -2.68304 0
M  V30 4324 H 401.551 4.75028 -1.65401 0
M  V30 4325 H 401.251 4.78555 -3.40968 0
M  V30 4326 H 402.775 5.44926 -2.75478 0
M  V30 4327 H 404.189 3.78772 -4.30354 0
M  V30 4328 H 402.586 3.36229 -4.97062 0
M  V30 4329 H 403.656 2.07736 -4.38148 0
M  V30 4330 N 404.999 1.35443 0.805782 0
M  V30 4331 C 405.929 1.31095 1.93226 0
M  V30 4332 C 406.91 0.185244 1.69088 0
M  V30 4333 O 408.095 0.380332 1.90439 0
M  V30 4334 C 405.225 1.08299 3.29983 0
M  V30 4335 C 404.179 2.17519 3.68605 0
M  V30 4336 C 403.505 1.79887 5.03532 0
M  V30 4337 C 404.805 3.5949 3.78898 0
M  V30 4338 H 406.499 2.25352 1.97122 0
M  V30 4339 H 404.045 1.0848 0.946996 0
M  V30 4340 H 405.998 1.03897 4.08391 0
M  V30 4341 H 404.722 0.104885 3.26432 0
M  V30 4342 H 403.381 2.2102 2.92482 0
M  V30 4343 H 403.029 0.80693 4.96485 0
M  V30 4344 H 402.729 2.53001 5.30344 0
M  V30 4345 H 404.253 1.77011 5.84379 0
M  V30 4346 H 405.667 3.58307 4.47536 0
M  V30 4347 H 404.064 4.31371 4.1718 0
M  V30 4348 H 405.134 3.95584 2.80431 0
M  V30 4349 N 406.477 -1.02803 1.19454 0
M  V30 4350 C 407.723 -1.76478 0.999171 0
M  V30 4351 C 408.056 -1.88456 -0.468828 0
M  V30 4352 O 407.331 -1.40198 -1.34814 0
M  V30 4353 C 407.614 -3.19044 1.66981 0
M  V30 4354 C 407.467 -3.14932 3.21151 0
M  V30 4355 C 408.786 -4.17456 1.39349 0
M  V30 4356 H 405.905 -0.640614 0.364393 0
M  V30 4357 H 408.547 -1.20005 1.47305 0
M  V30 4358 H 406.697 -3.67263 1.2669 0
M  V30 4359 H 408.369 -2.74605 3.70661 0
M  V30 4360 H 406.612 -2.52625 3.52652 0
M  V30 4361 H 407.283 -4.1566 3.63223 0
M  V30 4362 H 409.759 -3.77842 1.74283 0
M  V30 4363 H 408.635 -5.154 1.88823 0
M  V30 4364 H 408.896 -4.40949 0.318813 0
M  V30 4365 N 407.956 -0.998596 -1.21925 0
M  V30 4366 C 409.204 -0.676325 -1.90448 0
M  V30 4367 C 409.525 0.794719 -1.78071 0
M  V30 4368 O 408.795 1.5701 -1.17152 0
M  V30 4369 H 407.375 -0.247165 -0.704925 0
M  V30 4370 H 410.037 -1.26633 -1.48156 0
M  V30 4371 H 409.133 -0.943858 -2.97486 0
M  V30 4372 N 409.434 1.37368 -0.772513 0
M  V30 4373 C 410.382 2.32134 -0.147111 0
M  V30 4374 C 411.376 1.54972 0.684106 0
M  V30 4375 O 412.582 1.70363 0.581083 0
M  V30 4376 H 408.957 0.751449 -0.028786 0
M  V30 4377 H 410.928 2.82464 -0.962112 0
M  V30 4378 C 409.677 3.40226 0.71703 0
M  V30 4379 H 409 3.99706 0.0867951 0
M  V30 4380 H 410.44 4.08897 1.12159 0
M  V30 4381 C 408.899 2.80372 1.86797 0
M  V30 4382 O 409.429 2.71183 2.96349 0
M  V30 4383 N 407.635 2.37904 1.66883 0
M  V30 4384 H 407.182 2.45578 0.777759 0
M  V30 4385 H 407.14 1.98202 2.44056 0
M  V30 4386 N 410.912 0.523116 1.48665 0
M  V30 4387 C 412.158 -0.00540031 2.03399 0
M  V30 4388 C 412.513 -1.3264 1.39372 0
M  V30 4389 O 411.806 -1.84184 0.527916 0
M  V30 4390 C 412 -0.191671 3.56886 0
M  V30 4391 C 411.829 1.10972 4.35793 0
M  V30 4392 C 410.599 1.66769 4.76987 0
M  V30 4393 C 412.797 2.01861 4.73029 0
M  V30 4394 N 410.779 2.91268 5.40404 0
M  V30 4395 C 412.15 3.10937 5.36394 0
M  V30 4396 C 414.205 2.02271 4.54962 0
M  V30 4397 C 412.908 4.20478 5.83601 0
M  V30 4398 C 414.934 3.10802 5.03146 0
M  V30 4399 C 414.296 4.18597 5.6653 0
M  V30 4400 H 410.395 0.0393531 0.781009 0
M  V30 4401 H 412.979 0.702876 1.8157 0
M  V30 4402 H 411.15 -0.869025 3.78553 0
M  V30 4403 H 412.882 -0.719177 3.98259 0
M  V30 4404 H 409.637 1.20996 4.57883 0
M  V30 4405 H 410.061 3.54635 5.76683 0
M  V30 4406 H 414.703 1.2023 4.05345 0
M  V30 4407 H 412.421 5.03303 6.32228 0
M  V30 4408 H 416.007 3.12166 4.90962 0
M  V30 4409 H 414.887 5.01193 6.03138 0
M  V30 4410 N 412.39 -1.55475 0.257931 0
M  V30 4411 C 413.667 -1.91155 -0.414629 0
M  V30 4412 C 414.047 -1.18008 -1.75035 0
M  V30 4413 O 413.395 -0.301193 -2.26506 0
M  V30 4414 C 413.605 -3.44283 -0.571859 0
M  V30 4415 C 414.953 -4.15744 -0.862678 0
M  V30 4416 O 415.977 -3.50083 -0.657314 0
M  V30 4417 O 414.836 -5.31909 -1.2544 0
M  V30 4418 H 411.93 -0.796016 -0.22425 0
M  V30 4419 H 414.476 -1.66976 0.302814 0
M  V30 4420 H 413.248 -3.89558 0.368844 0
M  V30 4421 H 412.871 -3.7436 -1.33943 0
M  V30 4422 N 413.868 0.0150385 -1.57593 0
M  V30 4423 C 414.815 1.01126 -2.07466 0
M  V30 4424 C 415.785 1.35064 -0.966794 0
M  V30 4425 O 416.97 1.4516 -1.23827 0
M  V30 4426 C 414.11 2.30276 -2.57035 0
M  V30 4427 C 413.223 2.02373 -3.81666 0
M  V30 4428 C 412.358 3.25496 -4.19793 0
M  V30 4429 C 411.397 2.93211 -5.37303 0
M  V30 4430 N 410.534 4.08826 -5.70794 0
M  V30 4431 H 415.374 0.57901 -2.92321 0
M  V30 4432 H 412.911 0.27426 -1.44521 0
M  V30 4433 H 414.869 3.05757 -2.83846 0
M  V30 4434 H 413.499 2.71197 -1.75077 0
M  V30 4435 H 412.551 1.17327 -3.61854 0
M  V30 4436 H 413.863 1.74567 -4.67256 0
M  V30 4437 H 413.017 4.09333 -4.47807 0
M  V30 4438 H 411.756 3.56428 -3.32882 0
M  V30 4439 H 410.761 2.07777 -5.09027 0
M  V30 4440 H 411.986 2.63542 -6.25877 0
M  V30 4441 H 409.932 4.39682 -4.86842 0
M  V30 4442 H 409.849 3.84491 -6.50924 0
M  V30 4443 H 411.117 4.93496 -6.03392 0
M  V30 4444 N 415.346 1.54954 0.287554 0
M  V30 4445 C 416.294 1.87606 1.37502 0
M  V30 4446 C 417.288 0.751001 1.51843 0
M  V30 4447 O 418.494 0.935169 1.53801 0
M  V30 4448 H 414.869 0.595231 0.459569 0
M  V30 4449 H 416.84 2.78477 1.07206 0
M  V30 4450 C 415.589 2.15183 2.73115 0
M  V30 4451 H 414.912 3.01234 2.62866 0
M  V30 4452 H 416.352 2.4196 3.48183 0
M  V30 4453 C 414.811 0.954686 3.2309 0
M  V30 4454 O 415.341 0.181949 4.01288 0
M  V30 4455 N 413.547 0.756368 2.80584 0
M  V30 4456 H 413.094 1.38643 2.17108 0
M  V30 4457 H 413.052 -0.0430391 3.14371 0
M  V30 4458 N 416.824 -0.551391 1.4764 0
M  V30 4459 C 418.101 -1.31229 1.45046 0
M  V30 4460 C 418.481 -2.10563 0.150527 0
M  V30 4461 O 417.829 -2.11374 -0.867956 0
M  V30 4462 C 418.039 -2.21189 2.69956 0
M  V30 4463 C 419.387 -2.82021 3.1741 0
M  V30 4464 O 420.411 -2.31488 2.70724 0
M  V30 4465 O 419.27 -3.73885 3.98588 0
M  V30 4466 H 416.364 -0.591193 0.578291 0
M  V30 4467 H 418.91 -0.569813 1.59847 0
M  V30 4468 H 417.682 -1.62207 3.56096 0
M  V30 4469 H 417.305 -3.02722 2.57769 0
M  V30 4470 N 418.302 -1.35869 -0.798587 0
M  V30 4471 C 419.548 -1.2978 -1.55836 0
M  V30 4472 C 419.881 0.125322 -1.93795 0
M  V30 4473 O 419.156 1.07658 -1.61987 0
M  V30 4474 C 419.439 -2.21188 -2.84162 0
M  V30 4475 C 419.292 -3.72155 -2.52628 0
M  V30 4476 C 420.611 -2.11545 -3.85923 0
M  V30 4477 H 417.73 -0.472769 -0.565383 0
M  V30 4478 H 420.372 -1.66341 -0.918192 0
M  V30 4479 H 418.522 -1.90139 -3.38791 0
M  V30 4480 H 420.194 -4.13682 -2.04121 0
M  V30 4481 H 418.437 -3.92042 -1.85704 0
M  V30 4482 H 419.108 -4.31511 -3.44242 0
M  V30 4483 H 421.584 -2.38855 -3.40716 0
M  V30 4484 H 420.46 -2.77688 -4.73477 0
M  V30 4485 H 420.721 -1.09987 -4.282 0
M  V30 4486 N 419.78 1.02168 -1.19998 0
M  V30 4487 C 421.01 1.79036 -1.031 0
M  V30 4488 C 421.418 1.84409 0.423078 0
M  V30 4489 O 420.761 1.29228 1.30559 0
M  V30 4490 C 420.823 3.25185 -1.53281 0
M  V30 4491 C 420.487 3.43431 -3.01503 0
M  V30 4492 C 421.484 3.33063 -3.99206 0
M  V30 4493 C 419.169 3.69412 -3.40353 0
M  V30 4494 C 421.163 3.48413 -5.33748 0
M  V30 4495 C 418.85 3.84406 -4.75053 0
M  V30 4496 C 419.848 3.7391 -5.71559 0
M  V30 4497 O 419.536 3.88452 -7.03818 0
M  V30 4498 H 419.268 0.570043 -0.363355 0
M  V30 4499 H 421.822 1.29524 -1.59414 0
M  V30 4500 H 420.052 3.75756 -0.913483 0
M  V30 4501 H 421.741 3.83671 -1.32481 0
M  V30 4502 H 422.507 3.12934 -3.70537 0
M  V30 4503 H 418.386 3.76671 -2.65782 0
M  V30 4504 H 421.93 3.40137 -6.09059 0
M  V30 4505 H 417.827 4.04035 -5.03415 0
M  V30 4506 H 418.595 4.055 -7.10993 0
M  V30 4507 N 421.258 1.00505 1.21394 0
M  V30 4508 C 422.483 0.706367 1.95001 0
M  V30 4509 C 422.908 -0.72463 1.73582 0
M  V30 4510 O 422.266 -1.49702 1.0227 0
M  V30 4511 C 422.314 1.03299 3.45487 0
M  V30 4512 O 421.418 0.138275 4.12168 0
M  V30 4513 H 420.759 0.263175 0.609619 0
M  V30 4514 H 423.289 1.34531 1.54151 0
M  V30 4515 H 423.299 0.979872 3.96059 0
M  V30 4516 H 421.974 2.07567 3.60401 0
M  V30 4517 H 420.551 0.247928 3.72075 0
M  V30 4518 N 422.737 -1.36956 0.779787 0
M  V30 4519 C 423.67 -2.27896 0.117681 0
M  V30 4520 C 424.648 -1.46736 -0.700523 0
M  V30 4521 O 425.832 -1.76055 -0.673568 0
M  V30 4522 C 422.959 -3.28136 -0.839296 0
M  V30 4523 C 422.005 -4.26373 -0.10409 0
M  V30 4524 S 422.838 -5.2157 1.21348 0
M  V30 4525 C 423.994 -6.25359 0.260249 0
M  V30 4526 H 424.227 -2.83704 0.888778 0
M  V30 4527 H 421.76 -1.43352 0.57355 0
M  V30 4528 H 423.718 -3.86394 -1.38601 0
M  V30 4529 H 422.379 -2.7126 -1.58356 0
M  V30 4530 H 421.572 -4.97121 -0.82986 0
M  V30 4531 H 421.174 -3.72147 0.371858 0
M  V30 4532 H 423.466 -6.75145 -0.564435 0
M  V30 4533 H 424.409 -7.01885 0.936135 0
M  V30 4534 H 424.817 -5.64345 -0.132127 0
M  V30 4535 N 424.215 -0.530993 -1.48385 0
M  V30 4536 C 425.178 0.220497 -2.28137 0
M  V30 4537 C 426.178 0.866851 -1.35434 0
M  V30 4538 O 427.368 0.726746 -1.58316 0
M  V30 4539 C 424.5 1.31921 -3.1434 0
M  V30 4540 H 425.693 -0.479714 -2.96038 0
M  V30 4541 H 423.246 -0.286968 -1.53643 0
M  V30 4542 H 423.981 2.05264 -2.51072 0
M  V30 4543 H 423.766 0.86085 -3.82533 0
M  V30 4544 H 425.256 1.84776 -3.74497 0
M  V30 4545 N 425.693 1.55336 -0.266172 0
M  V30 4546 C 426.921 2.03801 0.356756 0
M  V30 4547 C 427.336 1.14485 1.50129 0
M  V30 4548 O 426.693 0.163121 1.8177 0
M  V30 4549 C 426.744 3.51455 0.846281 0
M  V30 4550 O 426.465 4.37371 -0.252663 0
M  V30 4551 C 427.966 4.15767 1.53794 0
M  V30 4552 H 425.186 0.665906 0.0825218 0
M  V30 4553 H 427.73 2.00636 -0.39566 0
M  V30 4554 H 425.885 3.55092 1.54881 0
M  V30 4555 H 426.299 5.24358 0.122173 0
M  V30 4556 H 427.773 5.20714 1.83198 0
M  V30 4557 H 428.25 3.63404 2.46646 0
M  V30 4558 H 428.856 4.16107 0.879488 0
M  V30 4559 N 427.171 -0.0066808 1.57599 0
M  V30 4560 C 428.134 -0.985035 2.06953 0
M  V30 4561 C 429.134 -1.27663 0.977687 0
M  V30 4562 O 430.324 -1.22293 1.24057 0
M  V30 4563 C 427.456 -2.3118 2.50536 0
M  V30 4564 H 428.649 -0.558255 2.94658 0
M  V30 4565 H 426.202 -0.254011 1.54222 0
M  V30 4566 H 426.937 -2.78561 1.66054 0
M  V30 4567 H 426.722 -2.11338 3.3027 0
M  V30 4568 H 428.212 -3.01377 2.8907 0
M  V30 4569 N 428.649 -1.55105 -0.279332 0
M  V30 4570 C 429.559 -1.90638 -1.36727 0
M  V30 4571 C 430.575 -0.802899 -1.54368 0
M  V30 4572 O 431.751 -1.10138 -1.68616 0
M  V30 4573 C 428.816 -2.16547 -2.70755 0
M  V30 4574 C 427.877 -3.40146 -2.61915 0
M  V30 4575 C 427.11 -3.6481 -3.8955 0
M  V30 4576 O 427.333 -2.92095 -4.89935 0
M  V30 4577 O 426.267 -4.58343 -3.90135 0
M  V30 4578 H 430.093 -2.83237 -1.09591 0
M  V30 4579 H 427.678 -1.4157 -0.477306 0
M  V30 4580 H 429.56 -2.34665 -3.50014 0
M  V30 4581 H 428.235 -1.27131 -2.9769 0
M  V30 4582 H 427.142 -3.2737 -1.81052 0
M  V30 4583 H 428.475 -4.29761 -2.3993 0
M  V30 4584 N 430.127 0.543554 -1.4793 0
M  V30 4585 C 431.352 1.32995 -1.59145 0
M  V30 4586 C 431.777 1.86472 -0.246956 0
M  V30 4587 O 431.135 1.63696 0.779324 0
M  V30 4588 C 431.183 2.46623 -2.63077 0
M  V30 4589 O 430.287 3.49261 -2.19295 0
M  V30 4590 H 429.628 0.394472 -0.534124 0
M  V30 4591 H 432.158 0.655489 -1.93816 0
M  V30 4592 H 432.168 2.93001 -2.83926 0
M  V30 4593 H 430.843 2.07059 -3.60693 0
M  V30 4594 H 429.42 3.09094 -2.08603 0
M  V30 4595 N 431.605 1.3629 0.791371 0
M  V30 4596 C 432.535 1.33137 1.91825 0
M  V30 4597 C 433.516 0.203168 1.68882 0
M  V30 4598 O 434.701 0.400509 1.90025 0
M  V30 4599 C 431.831 1.11793 3.28816 0
M  V30 4600 C 430.785 2.21417 3.66277 0
M  V30 4601 C 430.111 1.85218 5.01596 0
M  V30 4602 C 431.411 3.63489 3.75064 0
M  V30 4603 H 433.105 2.2743 1.9472 0
M  V30 4604 H 430.651 1.09479 0.935437 0
M  V30 4605 H 432.604 1.08222 4.07266 0
M  V30 4606 H 431.328 0.139501 3.26302 0
M  V30 4607 H 429.987 2.2411 2.90121 0
M  V30 4608 H 429.635 0.859544 4.95602 0
M  V30 4609 H 429.335 2.58611 5.27631 0
M  V30 4610 H 430.859 1.832 5.82469 0
M  V30 4611 H 432.273 3.63034 4.43711 0
M  V30 4612 H 430.67 4.35771 4.12582 0
M  V30 4613 H 431.74 3.98536 2.76219 0
M  V30 4614 N 433.083 -1.0153 1.20538 0
M  V30 4615 C 434.36 -1.72327 0.925343 0
M  V30 4616 C 434.74 -2.03383 -0.565547 0
M  V30 4617 O 434.088 -1.69934 -1.52757 0
M  V30 4618 C 434.298 -2.9902 1.79967 0
M  V30 4619 C 435.646 -3.72258 2.04228 0
M  V30 4620 O 436.67 -3.08979 1.77231 0
M  V30 4621 O 435.529 -4.86053 2.4983 0
M  V30 4622 H 432.623 -0.751099 0.346092 0
M  V30 4623 H 435.169 -1.07366 1.31417 0
M  V30 4624 H 433.941 -2.72402 2.80915 0
M  V30 4625 H 433.564 -3.71721 1.41099 0
M  V30 4626 N 434.561 -1.01147 -1.20859 0
M  V30 4627 C 435.524 -0.582224 -2.21682 0
M  V30 4628 C 436.524 0.344887 -1.57058 0
M  V30 4629 O 437.714 0.134281 -1.73682 0
M  V30 4630 C 434.846 0.150496 -3.40568 0
M  V30 4631 H 436.039 -1.47408 -2.61172 0
M  V30 4632 H 433.592 -0.800695 -1.34233 0
M  V30 4633 H 434.327 1.0575 -3.06574 0
M  V30 4634 H 434.112 -0.515444 -3.88697 0
M  V30 4635 H 435.602 0.438344 -4.15293 0
M  V30 4636 N 436.039 1.36541 -0.78704 0
M  V30 4637 C 436.969 2.32659 -0.197992 0
M  V30 4638 C 437.95 1.56533 0.665697 0
M  V30 4639 O 439.135 1.84698 0.60001 0
M  V30 4640 C 436.265 3.40778 0.669901 0
M  V30 4641 C 435.219 4.27897 -0.0937039 0
M  V30 4642 C 434.545 5.27163 0.894629 0
M  V30 4643 C 435.845 5.06334 -1.28154 0
M  V30 4644 H 437.539 2.82171 -1.00099 0
M  V30 4645 H 435.085 1.35665 -0.482793 0
M  V30 4646 H 437.038 4.07008 1.09191 0
M  V30 4647 H 435.762 2.89827 1.50558 0
M  V30 4648 H 434.421 3.6322 -0.49666 0
M  V30 4649 H 434.069 4.72486 1.72527 0
M  V30 4650 H 433.769 5.86317 0.388149 0
M  V30 4651 H 435.293 5.96266 1.31525 0
M  V30 4652 H 436.707 5.65617 -0.93541 0
M  V30 4653 H 435.104 5.74888 -1.72115 0
M  V30 4654 H 436.174 4.38114 -2.07807 0
M  V30 4655 N 437.518 0.538854 1.48102 0
M  V30 4656 C 438.758 0.0101209 2.04397 0
M  V30 4657 C 439.122 -1.30741 1.40609 0
M  V30 4658 O 440.323 -1.92272 1.87843 0
M  V30 4659 C 438.594 -0.100232 3.57259 0
M  V30 4660 S 440.153 -0.577746 4.3498 0
M  V30 4661 H 436.971 0.0163171 0.710813 0
M  V30 4662 H 439.573 0.721429 1.81702 0
M  V30 4663 H 438.277 0.863351 4.01216 0
M  V30 4664 H 437.808 -0.835651 3.84422 0
M  V30 4665 H 439.823 -1.84073 4.60794 0
M  V30 4666 N 438.996 -1.55193 0.274407 0
M  V30 4667 C 440.242 -1.99877 -0.343086 0
M  V30 4668 C 440.575 -1.16256 -1.55558 0
M  V30 4669 O 439.85 -0.232462 -1.93106 0
M  V30 4670 C 440.133 -3.52706 -0.725965 0
M  V30 4671 C 439.986 -4.47081 0.493818 0
M  V30 4672 C 441.305 -4.11422 -1.56268 0
M  V30 4673 H 438.424 -0.726625 -0.123229 0
M  V30 4674 H 441.066 -1.86136 0.38121 0
M  V30 4675 H 439.216 -3.64546 -1.34307 0
M  V30 4676 H 440.888 -4.47186 1.13237 0
M  V30 4677 H 439.131 -4.1877 1.13201 0
M  V30 4678 H 439.802 -5.51699 0.18217 0
M  V30 4679 H 442.278 -4.02855 -1.04151 0
M  V30 4680 H 441.154 -5.18568 -1.79939 0
M  V30 4681 H 441.415 -3.61607 -2.54348 0
M  V30 4682 N 440.474 -0.00167713 -1.576 0
M  V30 4683 C 441.406 1.0174 -2.05382 0
M  V30 4684 C 442.419 1.30595 -0.972052 0
M  V30 4685 O 443.608 1.27542 -1.24882 0
M  V30 4686 C 440.708 2.35174 -2.44022 0
M  V30 4687 C 439.881 2.25234 -3.74951 0
M  V30 4688 C 438.94 3.4137 -4.00441 0
M  V30 4689 O 437.966 3.19483 -4.71083 0
M  V30 4690 N 439.168 4.64275 -3.48467 0
M  V30 4691 H 441.933 0.609902 -2.93428 0
M  V30 4692 H 439.494 0.185672 -1.60832 0
M  V30 4693 H 441.486 3.11643 -2.58187 0
M  V30 4694 H 440.056 2.67659 -1.61485 0
M  V30 4695 H 439.276 1.33664 -3.70847 0
M  V30 4696 H 440.564 2.15767 -4.60784 0
M  V30 4697 H 439.962 4.84955 -2.91264 0
M  V30 4698 H 438.519 5.38005 -3.67959 0
M  V30 4699 N 441.952 1.55251 0.271103 0
M  V30 4700 C 442.9 1.89054 1.35504 0
M  V30 4701 C 443.894 0.767064 1.51038 0
M  V30 4702 O 445.1 0.951429 1.528 0
M  V30 4703 H 441.475 0.600072 0.45323 0
M  V30 4704 H 443.446 2.79598 1.04247 0
M  V30 4705 C 442.195 2.18068 2.70817 0
M  V30 4706 H 441.518 3.04005 2.59656 0
M  V30 4707 H 442.958 2.4564 3.45597 0
M  V30 4708 C 441.417 0.988901 3.2206 0
M  V30 4709 O 441.947 0.224501 4.01072 0
M  V30 4710 N 440.153 0.786085 2.79766 0
M  V30 4711 H 439.7 1.40937 2.15626 0
M  V30 4712 H 439.658 -0.00969349 3.14399 0
M  V30 4713 N 443.43 -0.535701 1.48216 0
M  V30 4714 C 444.707 -1.29683 1.46429 0
M  V30 4715 C 445.087 -2.10391 0.172852 0
M  V30 4716 O 444.435 -2.12282 -0.845488 0
M  V30 4717 C 444.645 -2.18313 2.72287 0
M  V30 4718 C 445.993 -2.78639 3.20383 0
M  V30 4719 O 447.017 -2.28604 2.73164 0
M  V30 4720 O 445.876 -3.69636 4.02531 0
M  V30 4721 H 442.97 -0.585026 0.584529 0
M  V30 4722 H 445.516 -0.552827 1.60443 0
M  V30 4723 H 444.288 -1.58421 3.57797 0
M  V30 4724 H 443.911 -2.99971 2.60966 0
M  V30 4725 N 444.908 -1.36708 -0.784132 0
M  V30 4726 C 445.838 -1.34153 -1.91116 0
M  V30 4727 C 446.819 -0.212121 -1.68772 0
M  V30 4728 O 448.004 -0.410581 -1.8981 0
M  V30 4729 C 445.134 -1.13535 -3.28218 0
M  V30 4730 C 444.088 -2.23356 -3.65097 0
M  V30 4731 C 443.414 -1.87875 -5.00607 0
M  V30 4732 C 444.714 -3.65473 -3.73131 0
M  V30 4733 H 446.408 -2.28459 -1.93512 0
M  V30 4734 H 443.954 -1.09973 -0.929618 0
M  V30 4735 H 445.907 -1.10381 -4.06687 0
M  V30 4736 H 444.631 -0.156804 -3.26223 0
M  V30 4737 H 443.29 -2.25645 -2.88929 0
M  V30 4738 H 442.938 -0.885814 -4.95139 0
M  V30 4739 H 442.638 -2.61406 -5.26252 0
M  V30 4740 H 444.162 -1.86286 -5.81489 0
M  V30 4741 H 445.576 -3.65382 -4.41779 0
M  V30 4742 H 443.973 -4.37953 -4.10265 0
M  V30 4743 H 445.043 -3.99995 -2.74102 0
M  V30 4744 N 446.386 1.0089 -1.21074 0
M  V30 4745 C 447.611 1.78727 -1.05221 0
M  V30 4746 C 448.036 1.83932 0.393795 0
M  V30 4747 O 447.394 1.28004 1.28393 0
M  V30 4748 C 447.442 3.20665 -1.64944 0
M  V30 4749 O 446.546 4.02632 -0.892273 0
M  V30 4750 H 445.887 0.550973 -0.370574 0
M  V30 4751 H 448.417 1.26847 -1.60534 0
M  V30 4752 H 448.427 3.71352 -1.69002 0
M  V30 4753 H 447.102 3.16191 -2.70177 0
M  V30 4754 H 445.679 3.61207 -0.926492 0
M  V30 4755 N 447.864 1.01787 1.20321 0
M  V30 4756 C 449.11 0.708985 1.90003 0
M  V30 4757 C 449.443 -0.759572 1.78729 0
M  V30 4758 O 448.718 -1.55198 1.17234 0
M  V30 4759 C 449.001 1.1469 3.41348 0
M  V30 4760 C 448.854 2.67586 3.61549 0
M  V30 4761 C 450.173 0.71915 4.34185 0
M  V30 4762 H 447.292 0.259034 0.689978 0
M  V30 4763 H 449.934 1.26584 1.41692 0
M  V30 4764 H 448.084 0.673128 3.82624 0
M  V30 4765 H 449.756 3.22826 3.29517 0
M  V30 4766 H 447.999 3.085 3.04976 0
M  V30 4767 H 448.67 2.93281 4.67643 0
M  V30 4768 H 451.146 1.12647 4.00562 0
M  V30 4769 H 450.022 1.05358 5.38694 0
M  V30 4770 H 450.283 -0.379111 4.40472 0
M  V30 4771 N 449.342 -1.36122 0.79427 0
M  V30 4772 C 450.289 -2.29982 0.194101 0
M  V30 4773 C 451.259 -1.52214 -0.664833 0
M  V30 4774 O 452.444 -1.80702 -0.612498 0
M  V30 4775 C 449.584 -3.38706 -0.661244 0
M  V30 4776 C 448.697 -4.31456 0.216766 0
M  V30 4777 C 447.832 -5.27265 -0.645411 0
M  V30 4778 C 446.871 -6.11653 0.233756 0
M  V30 4779 N 446.008 -6.99636 -0.587682 0
M  V30 4780 H 450.848 -2.80722 0.999965 0
M  V30 4781 H 448.385 -1.38172 0.504677 0
M  V30 4782 H 450.343 -4.00394 -1.17219 0
M  V30 4783 H 448.973 -2.89274 -1.43249 0
M  V30 4784 H 448.025 -3.7088 0.845724 0
M  V30 4785 H 449.337 -4.90724 0.893973 0
M  V30 4786 H 448.491 -5.94266 -1.22198 0
M  V30 4787 H 447.23 -4.68463 -1.35623 0
M  V30 4788 H 446.235 -5.4361 0.82269 0
M  V30 4789 H 447.46 -6.72531 0.942247 0
M  V30 4790 H 445.406 -6.43337 -1.2827 0
M  V30 4791 H 445.323 -7.55993 0.0317402 0
M  V30 4792 H 446.591 -7.71001 -1.14792 0
M  V30 4793 N 450.82 -0.546701 -1.47814 0
M  V30 4794 C 452.066 -0.0187684 -2.02791 0
M  V30 4795 C 452.399 1.32338 -1.42128 0
M  V30 4796 O 451.674 1.85867 -0.573023 0
M  V30 4797 C 451.957 0.0854985 -3.59998 0
M  V30 4798 C 451.81 -1.283 -4.31114 0
M  V30 4799 C 453.129 0.80412 -4.32691 0
M  V30 4800 H 450.248 -0.0082946 -0.736953 0
M  V30 4801 H 452.89 -0.706962 -1.76358 0
M  V30 4802 H 451.04 0.671609 -3.82651 0
M  V30 4803 H 452.712 -1.91151 -4.19832 0
M  V30 4804 H 450.955 -1.86049 -3.91878 0
M  V30 4805 H 451.626 -1.16287 -5.39612 0
M  V30 4806 H 454.102 0.306576 -4.14969 0
M  V30 4807 H 452.978 0.846011 -5.42341 0
M  V30 4808 H 453.239 1.85802 -4.01161 0
M  V30 4809 N 452.299 1.55045 -0.282633 0
M  V30 4810 C 453.546 1.9976 0.33199 0
M  V30 4811 C 453.874 1.17105 1.55295 0
M  V30 4812 O 453.129 0.230599 1.94337 0
M  V30 4813 C 453.428 3.49422 0.750938 0
M  V30 4814 C 453.094 4.4941 -0.366228 0
M  V30 4815 C 451.756 4.76471 -0.672964 0
M  V30 4816 C 454.108 5.09054 -1.11864 0
M  V30 4817 C 451.436 5.60442 -1.73556 0
M  V30 4818 C 453.788 5.9418 -2.17102 0
M  V30 4819 C 452.452 6.19558 -2.48402 0
M  V30 4820 H 451.722 0.730974 0.121484 0
M  V30 4821 H 454.369 1.8732 -0.39791 0
M  V30 4822 H 452.674 3.59377 1.56063 0
M  V30 4823 H 454.371 3.81432 1.23736 0
M  V30 4824 H 450.961 4.2844 -0.117041 0
M  V30 4825 H 455.145 4.88165 -0.894925 0
M  V30 4826 H 450.401 5.78349 -1.983 0
M  V30 4827 H 454.575 6.39427 -2.75873 0
M  V30 4828 H 452.202 6.84417 -3.30874 0
M  V30 4829 N 453.777 0.010035 1.57597 0
M  V30 4830 C 455.005 -0.683413 1.95287 0
M  V30 4831 C 455.42 -1.66747 0.885481 0
M  V30 4832 O 454.777 -1.82003 -0.134629 0
M  V30 4833 C 454.828 -1.40652 3.33015 0
M  V30 4834 O 454.549 -0.461916 4.35658 0
M  V30 4835 C 456.05 -2.19356 3.85225 0
M  V30 4836 H 453.27 -0.189708 0.643624 0
M  V30 4837 H 455.814 0.0641359 2.04399 0
M  V30 4838 H 453.969 -2.10562 3.2518 0
M  V30 4839 H 454.383 -0.973215 5.15392 0
M  V30 4840 H 455.857 -2.65433 4.83993 0
M  V30 4841 H 456.334 -3.02457 3.18459 0
M  V30 4842 H 456.94 -1.54442 3.96267 0
M  V30 4843 N 455.255 -1.55392 -0.262866 0
M  V30 4844 C 456.504 -1.75679 -0.990943 0
M  V30 4845 C 456.817 -0.57097 -1.87081 0
M  V30 4846 O 458.023 -0.656486 -2.63444 0
M  V30 4847 C 456.479 -3.10964 -1.81188 0
M  V30 4848 C 456.087 -4.37146 -0.980188 0
M  V30 4849 C 457.831 -3.40597 -2.53365 0
M  V30 4850 C 455.738 -5.63466 -1.7961 0
M  V30 4851 H 454.668 -0.654868 -0.373716 0
M  V30 4852 H 457.319 -1.81841 -0.246203 0
M  V30 4853 H 455.701 -2.98867 -2.59797 0
M  V30 4854 H 456.875 -4.60187 -0.237558 0
M  V30 4855 H 455.19 -4.14731 -0.372497 0
M  V30 4856 H 457.787 -4.32186 -3.14833 0
M  V30 4857 H 458.13 -2.6119 -3.24169 0
M  V30 4858 H 458.663 -3.53838 -1.81779 0
M  V30 4859 H 455.402 -6.4565 -1.13209 0
M  V30 4860 H 454.922 -5.44552 -2.51443 0
M  V30 4861 H 456.601 -6.02139 -2.36723 0
M  V30 4862 N 456.733 0.527833 -1.48498 0
M  V30 4863 C 457.665 1.6482 -1.5927 0
M  V30 4864 C 458.678 1.55659 -0.476869 0
M  V30 4865 O 459.867 1.62081 -0.747806 0
M  V30 4866 C 456.967 3.0348 -1.50842 0
M  V30 4867 C 456.14 3.381 -2.77502 0
M  V30 4868 C 455.199 4.5605 -2.62497 0
M  V30 4869 O 454.225 4.59165 -3.36387 0
M  V30 4870 N 455.427 5.54353 -1.72257 0
M  V30 4871 H 458.192 1.56015 -2.55889 0
M  V30 4872 H 455.753 0.715152 -1.45249 0
M  V30 4873 H 457.745 3.80264 -1.38496 0
M  V30 4874 H 456.315 3.06352 -0.621887 0
M  V30 4875 H 455.535 2.50473 -3.04396 0
M  V30 4876 H 456.823 3.58017 -3.61527 0
M  V30 4877 H 456.221 5.54617 -1.11431 0
M  V30 4878 H 454.778 6.30347 -1.65849 0
M  V30 4879 N 458.211 1.37122 0.776871 0
M  V30 4880 C 459.159 1.32549 1.91138 0
M  V30 4881 C 460.153 0.215119 1.68029 0
M  V30 4882 O 461.359 0.382852 1.75881 0
M  V30 4883 H 457.734 0.412952 0.62847 0
M  V30 4884 H 459.705 2.28332 1.92112 0
M  V30 4885 C 458.454 1.14422 3.28333 0
M  V30 4886 H 457.777 1.99115 3.46689 0
M  V30 4887 H 459.217 1.15272 4.0803 0
M  V30 4888 C 457.676 -0.150434 3.36564 0
M  V30 4889 O 458.206 -1.13584 3.85307 0
M  V30 4890 N 456.412 -0.19939 2.89915 0
M  V30 4891 H 455.959 0.603142 2.5044 0
M  V30 4892 H 455.917 -1.06526 2.95803 0
M  V30 4893 N 459.689 -1.00246 1.21608 0
M  V30 4894 C 460.637 -2.11193 0.97469 0
M  V30 4895 C 461.631 -1.69216 -0.0789303 0
M  V30 4896 O 462.837 -1.79853 0.0726806 0
M  V30 4897 H 459.212 -0.690455 0.297953 0
M  V30 4898 H 461.183 -2.2873 1.91638 0
M  V30 4899 C 459.932 -3.43182 0.558717 0
M  V30 4900 H 459.255 -3.75918 1.3611 0
M  V30 4901 H 460.695 -4.21823 0.429154 0
M  V30 4902 C 459.154 -3.28882 -0.730648 0
M  V30 4903 O 459.684 -3.59835 -1.78554 0
M  V30 4904 N 457.89 -2.8209 -0.698131 0
M  V30 4905 H 457.437 -2.57099 0.16061 0
M  V30 4906 H 457.395 -2.72903 -1.56113 0
M  V30 4907 N 461.167 -1.02423 -1.1978 0
M  V30 4908 C 462.395 -0.737456 -1.93311 0
M  V30 4909 C 462.81 0.703023 -1.75223 0
M  V30 4910 O 462.167 1.47761 -1.07112 0
M  V30 4911 C 462.218 -1.0733 -3.45199 0
M  V30 4912 O 461.939 -2.4572 -3.62702 0
M  V30 4913 C 463.44 -0.80866 -4.35862 0
M  V30 4914 H 460.66 -0.2702 -0.614193 0
M  V30 4915 H 463.204 -1.36747 -1.52054 0
M  V30 4916 H 461.359 -0.488545 -3.84307 0
M  V30 4917 H 461.773 -2.58081 -4.56612 0
M  V30 4918 H 463.247 -1.09365 -5.41057 0
M  V30 4919 H 463.724 0.257025 -4.38447 0
M  V30 4920 H 464.33 -1.37592 -4.02428 0
M  V30 4921 N 462.645 1.35699 -0.801477 0
M  V30 4922 C 463.592 2.29876 -0.206294 0
M  V30 4923 C 464.562 1.52565 0.656752 0
M  V30 4924 O 465.747 1.81024 0.602906 0
M  V30 4925 C 462.887 3.39052 0.643272 0
M  V30 4926 C 462 4.31335 -0.239644 0
M  V30 4927 C 461.135 5.27599 0.61744 0
M  V30 4928 C 460.174 6.11521 -0.26619 0
M  V30 4929 N 459.311 6.99938 0.550571 0
M  V30 4930 H 464.151 2.80187 -1.01484 0
M  V30 4931 H 461.688 1.37902 -0.511997 0
M  V30 4932 H 463.646 4.0101 1.15094 0
M  V30 4933 H 462.276 2.9003 1.41713 0
M  V30 4934 H 461.328 3.70426 -0.865381 0
M  V30 4935 H 462.64 4.90243 -0.919985 0
M  V30 4936 H 461.794 5.94906 1.19045 0
M  V30 4937 H 460.533 4.69176 1.33137 0
M  V30 4938 H 459.538 5.43166 -0.851507 0
M  V30 4939 H 460.763 6.72022 -0.9779 0
M  V30 4940 H 458.709 6.44008 1.24856 0
M  V30 4941 H 458.626 7.55966 -0.071832 0
M  V30 4942 H 459.894 7.71599 1.10702 0
M  V30 4943 N 464.123 0.554532 1.47522 0
M  V30 4944 C 465.053 -0.182974 2.32782 0
M  V30 4945 C 466.034 -0.911377 1.43624 0
M  V30 4946 O 467.219 -0.892366 1.72483 0
M  V30 4947 C 464.349 -1.21513 3.25349 0
M  V30 4948 C 463.303 -0.603355 4.23726 0
M  V30 4949 C 462.629 -1.73995 5.05598 0
M  V30 4950 C 463.929 0.441121 5.20434 0
M  V30 4951 H 465.623 0.52882 2.94693 0
M  V30 4952 H 463.169 0.255759 1.41711 0
M  V30 4953 H 465.122 -1.73922 3.83835 0
M  V30 4954 H 463.846 -1.95683 2.61487 0
M  V30 4955 H 462.505 -0.10059 3.66462 0
M  V30 4956 H 462.153 -2.47063 4.38143 0
M  V30 4957 H 461.853 -1.3364 5.72201 0
M  V30 4958 H 463.377 -2.26735 5.66942 0
M  V30 4959 H 464.791 0.00319931 5.733 0
M  V30 4960 H 463.188 0.763402 5.95224 0
M  V30 4961 H 464.258 1.33799 4.66075 0
M  V30 4962 N 465.601 -1.54893 0.290851 0
M  V30 4963 C 466.531 -2.26103 -0.583084 0
M  V30 4964 C 467.512 -1.25684 -1.14619 0
M  V30 4965 O 468.697 -1.54436 -1.17741 0
M  V30 4966 C 465.827 -2.99409 -1.75987 0
M  V30 4967 C 464.781 -4.0689 -1.32758 0
M  V30 4968 C 464.107 -4.67856 -2.58872 0
M  V30 4969 C 465.407 -5.20215 -0.46624 0
M  V30 4970 H 467.101 -2.99398 0.0108214 0
M  V30 4971 H 464.647 -1.43998 0.00664468 0
M  V30 4972 H 466.6 -3.47943 -2.37727 0
M  V30 4973 H 465.324 -2.23675 -2.37985 0
M  V30 4974 H 463.983 -3.59191 -0.733299 0
M  V30 4975 H 463.631 -3.88772 -3.19163 0
M  V30 4976 H 463.331 -5.40438 -2.30653 0
M  V30 4977 H 464.855 -5.19147 -3.21433 0
M  V30 4978 H 466.269 -5.64704 -0.989047 0
M  V30 4979 H 464.666 -5.99455 -0.27826 0
M  V30 4980 H 465.736 -4.82198 0.511173 0
M  V30 4981 N 467.08 -0.0183926 -1.57589 0
M  V30 4982 C 468.329 0.66185 -1.90532 0
M  V30 4983 C 468.642 1.73904 -0.895366 0
M  V30 4984 O 469.848 2.47518 -1.11566 0
M  V30 4985 C 468.304 1.22844 -3.38286 0
M  V30 4986 C 467.912 0.185103 -4.47617 0
M  V30 4987 C 469.656 1.88581 -3.80312 0
M  V30 4988 C 467.563 0.762723 -5.86461 0
M  V30 4989 H 466.493 0.250972 -0.711006 0
M  V30 4990 H 469.144 -0.0819435 -1.83317 0
M  V30 4991 H 467.526 2.0235 -3.40398 0
M  V30 4992 H 468.7 -0.58671 -4.5705 0
M  V30 4993 H 467.015 -0.372889 -4.14727 0
M  V30 4994 H 469.612 2.32735 -4.81392 0
M  V30 4995 H 469.955 2.72408 -3.14801 0
M  V30 4996 H 470.488 1.15782 -3.80578 0
M  V30 4997 H 467.227 -0.0371713 -6.55489 0
M  V30 4998 H 466.747 1.50327 -5.80656 0
M  V30 4999 H 468.426 1.25576 -6.34697 0
M  V30 5000 N 468.558 1.5553 0.254621 0
M  V30 5001 C 469.804 1.77262 0.985193 0
M  V30 5002 C 470.137 0.582286 1.85265 0
M  V30 5003 O 469.412 -0.419666 1.89919 0
M  V30 5004 C 469.695 3.0881 1.85225 0
M  V30 5005 C 469.548 4.38233 1.0135 0
M  V30 5006 C 470.867 3.3653 2.83612 0
M  V30 5007 H 467.986 0.644906 0.356742 0
M  V30 5008 H 470.628 1.88264 0.256236 0
M  V30 5009 H 468.778 2.99562 2.47376 0
M  V30 5010 H 470.45 4.59463 0.411269 0
M  V30 5011 H 468.693 4.32636 0.317574 0
M  V30 5012 H 469.364 5.26644 1.65379 0
M  V30 5013 H 471.84 3.45691 2.31596 0
M  V30 5014 H 470.716 4.29805 3.41407 0
M  V30 5015 H 470.977 2.57064 3.59681 0
M  V30 5016 N 470.036 -0.519951 1.48776 0
M  V30 5017 C 471.313 -1.28123 1.47797 0
M  V30 5018 C 471.693 -2.10196 0.195157 0
M  V30 5019 O 471.041 -2.13167 -0.822925 0
M  V30 5020 C 471.251 -2.15413 2.74587 0
M  V30 5021 C 472.599 -2.75225 3.23321 0
M  V30 5022 O 473.623 -2.25694 2.75574 0
M  V30 5023 O 472.482 -3.65346 4.06429 0
M  V30 5024 H 469.576 -0.578793 0.590701 0
M  V30 5025 H 472.122 -0.535779 1.6102 0
M  V30 5026 H 470.894 -1.54617 3.59457 0
M  V30 5027 H 470.517 -2.97186 2.64132 0
M  V30 5028 N 471.514 -1.37532 -0.769588 0
M  V30 5029 C 472.791 -1.23392 -1.51768 0
M  V30 5030 C 473.171 0.17157 -2.10402 0
M  V30 5031 O 472.519 1.17943 -1.95708 0
M  V30 5032 C 472.729 -2.33163 -2.59685 0
M  V30 5033 C 474.077 -2.70809 -3.27028 0
M  V30 5034 O 475.101 -2.32355 -2.69981 0
M  V30 5035 O 473.96 -3.37066 -4.30173 0
M  V30 5036 H 471.054 -0.481617 -0.67229 0
M  V30 5037 H 473.6 -1.49318 -0.806368 0
M  V30 5038 H 472.372 -3.27273 -2.14494 0
M  V30 5039 H 471.995 -2.08713 -3.38415 0
M  V30 5040 N 472.992 0.995999 -1.22138 0
M  V30 5041 C 473.902 2.11985 -1.00496 0
M  V30 5042 C 474.918 1.7394 0.0457701 0
M  V30 5043 O 476.094 2.00868 -0.146273 0
M  V30 5044 C 473.159 3.41779 -0.582086 0
M  V30 5045 C 472.22 3.93943 -1.70608 0
M  V30 5046 C 471.453 5.17542 -1.30328 0
M  V30 5047 O 471.676 5.70114 -0.180743 0
M  V30 5048 O 470.61 5.63382 -2.11861 0
M  V30 5049 H 474.436 2.33123 -1.94647 0
M  V30 5050 H 472.021 1.10358 -1.00705 0
M  V30 5051 H 473.903 4.1989 -0.356467 0
M  V30 5052 H 472.578 3.22007 0.330592 0
M  V30 5053 H 471.485 3.17019 -1.98619 0
M  V30 5054 H 472.818 4.18141 -2.59651 0
M  V30 5055 N 474.47 1.03057 1.19235 0
M  V30 5056 C 475.7 0.746613 1.92638 0
M  V30 5057 C 476.108 -0.698708 1.75826 0
M  V30 5058 O 475.451 -1.487 1.07861 0
M  V30 5059 C 475.513 1.02024 3.44719 0
M  V30 5060 C 475.177 2.45745 3.85303 0
M  V30 5061 C 476.174 3.43887 3.8992 0
M  V30 5062 C 473.859 2.8019 4.16892 0
M  V30 5063 C 475.853 4.74529 4.2556 0
M  V30 5064 C 473.54 4.1104 4.52205 0
M  V30 5065 C 474.538 5.0802 4.56513 0
M  V30 5066 O 474.226 6.36527 4.91008 0
M  V30 5067 H 473.958 0.272401 0.618687 0
M  V30 5068 H 476.512 1.37853 1.52269 0
M  V30 5069 H 474.742 0.331184 3.85279 0
M  V30 5070 H 476.431 0.725677 3.9936 0
M  V30 5071 H 477.197 3.18614 3.65664 0
M  V30 5072 H 473.076 2.05382 4.12722 0
M  V30 5073 H 476.62 5.50222 4.28838 0
M  V30 5074 H 472.517 4.36086 4.7592 0
M  V30 5075 H 473.285 6.41025 5.08949 0
M  V30 5076 N 475.948 -1.35272 0.808662 0
M  V30 5077 C 477.194 -1.99003 0.390581 0
M  V30 5078 C 477.527 -1.63999 -1.0401 0
M  V30 5079 O 476.802 -0.904368 -1.72196 0
M  V30 5080 C 477.085 -3.55454 0.576566 0
M  V30 5081 C 476.938 -4.00249 2.05233 0
M  V30 5082 C 478.257 -4.401 0.00354277 0
M  V30 5083 H 475.376 -0.722917 0.143388 0
M  V30 5084 H 478.018 -1.6039 1.01858 0
M  V30 5085 H 476.168 -3.88477 0.0419766 0
M  V30 5086 H 477.84 -3.77626 2.64946 0
M  V30 5087 H 476.083 -3.51082 2.54801 0
M  V30 5088 H 476.754 -5.0911 2.13333 0
M  V30 5089 H 479.23 -4.13548 0.460117 0
M  V30 5090 H 478.106 -5.48656 0.163575 0
M  V30 5091 H 478.367 -4.28444 -1.09032 0
M  V30 5092 N 477.426 -0.562348 -1.47226 0
M  V30 5093 C 478.376 0.202967 -2.27095 0
M  V30 5094 C 479.36 0.880611 -1.34663 0
M  V30 5095 O 480.552 0.778069 -1.58981 0
M  V30 5096 C 477.681 1.22906 -3.20545 0
M  V30 5097 C 476.767 0.554566 -4.20459 0
M  V30 5098 N 477.158 -0.378295 -5.04383 0
M  V30 5099 C 475.456 0.807854 -4.38623 0
M  V30 5100 C 476.157 -0.770583 -5.76573 0
M  V30 5101 N 475.133 -0.124263 -5.43458 0
M  V30 5102 H 478.935 -0.514196 -2.89367 0
M  V30 5103 H 476.449 -0.382655 -1.57827 0
M  V30 5104 H 478.446 1.79134 -3.76453 0
M  V30 5105 H 477.106 1.94726 -2.59831 0
M  V30 5106 H 478.117 -0.75274 -5.124 0
M  V30 5107 H 474.794 1.51418 -3.89075 0
M  V30 5108 H 476.184 -1.53742 -6.54074 0
M  V30 5109 N 478.904 1.54736 -0.299062 0
M  V30 5110 C 480.153 1.99279 0.311549 0
M  V30 5111 C 480.466 1.19107 1.55154 0
M  V30 5112 O 481.672 1.53908 2.23662 0
M  V30 5113 C 480.128 3.54768 0.605632 0
M  V30 5114 C 479.736 4.43746 -0.615914 0
M  V30 5115 C 481.48 4.07841 1.17754 0
M  V30 5116 C 479.387 5.90663 -0.29509 0
M  V30 5117 H 478.317 0.744359 0.120187 0
M  V30 5118 H 480.968 1.78919 -0.407464 0
M  V30 5119 H 479.35 3.71021 1.38419 0
M  V30 5120 H 480.524 4.39267 -1.39218 0
M  V30 5121 H 478.839 4.01434 -1.10633 0
M  V30 5122 H 481.436 5.15174 1.43179 0
M  V30 5123 H 481.779 3.58324 2.11918 0
M  V30 5124 H 482.312 3.95123 0.460739 0
M  V30 5125 H 479.051 6.44325 -1.20524 0
M  V30 5126 H 478.571 5.98155 0.44394 0
M  V30 5127 H 480.25 6.46916 0.104048 0
M  V30 5128 N 480.382 0.0267497 1.57577 0
M  V30 5129 C 481.61 -0.662661 1.96001 0
M  V30 5130 C 482.025 -1.65799 0.903117 0
M  V30 5131 O 481.382 -1.82135 -0.115317 0
M  V30 5132 C 481.433 -1.37112 3.34488 0
M  V30 5133 O 481.154 -0.415683 4.36123 0
M  V30 5134 C 482.655 -2.15257 3.8753 0
M  V30 5135 H 479.875 -0.18287 0.6456 0
M  V30 5136 H 482.419 0.0858116 2.0432 0
M  V30 5137 H 480.574 -2.07101 3.27395 0
M  V30 5138 H 480.988 -0.918496 5.16395 0
M  V30 5139 H 482.462 -2.60285 4.86781 0
M  V30 5140 H 482.939 -2.99063 3.21649 0
M  V30 5141 H 483.545 -1.50231 3.97883 0
M  V30 5142 N 481.861 -1.55662 -0.24637 0
M  V30 5143 C 483.086 -1.81914 -0.996093 0
M  V30 5144 C 483.511 -0.603875 -1.78143 0
M  V30 5145 O 482.869 0.447091 -1.75701 0
M  V30 5146 C 482.917 -3.05908 -1.90925 0
M  V30 5147 O 482.021 -2.82861 -3.00105 0
M  V30 5148 H 481.362 -0.600481 -0.283406 0
M  V30 5149 H 483.892 -2.02848 -0.267199 0
M  V30 5150 H 483.902 -3.35356 -2.3238 0
M  V30 5151 H 482.577 -3.93999 -1.33183 0
M  V30 5152 H 481.154 -2.64583 -2.62775 0
M  V30 5153 N 483.339 0.512053 -1.4905 0
M  V30 5154 C 484.302 1.59704 -1.64399 0
M  V30 5155 C 485.302 1.52285 -0.516317 0
M  V30 5156 O 486.492 1.55635 -0.782527 0
M  V30 5157 C 483.624 2.9935 -1.63102 0
M  V30 5158 H 484.817 1.47428 -2.61161 0
M  V30 5159 H 482.37 0.735469 -1.37915 0
M  V30 5160 H 483.105 3.17116 -0.678836 0
M  V30 5161 H 482.89 3.06144 -2.44986 0
M  V30 5162 H 484.38 3.782 -1.77072 0
M  V30 5163 N 484.817 1.37938 0.762283 0
M  V30 5164 C 485.765 1.34569 1.89721 0
M  V30 5165 C 486.759 0.232929 1.67791 0
M  V30 5166 O 487.965 0.401485 1.75465 0
M  V30 5167 H 484.34 0.419594 0.624055 0
M  V30 5168 H 486.311 2.30357 1.8968 0
M  V30 5169 C 485.06 1.17898 3.27101 0
M  V30 5170 H 484.383 2.02781 3.44558 0
M  V30 5171 H 485.823 1.19593 4.06784 0
M  V30 5172 C 484.282 -0.114728 3.36705 0
M  V30 5173 O 484.812 -1.0949 3.8649 0
M  V30 5174 N 483.018 -0.16863 2.9011 0
M  V30 5175 H 482.565 0.62967 2.49786 0
M  V30 5176 H 482.523 -1.03383 2.96916 0
M  V30 5177 N 486.295 -0.989507 1.22664 0
M  V30 5178 C 487.542 -1.72953 1.05325 0
M  V30 5179 C 487.87 -1.90104 -0.411168 0
M  V30 5180 O 487.125 -1.44386 -1.32103 0
M  V30 5181 C 487.424 -3.13649 1.71345 0
M  V30 5182 C 487.09 -3.16403 3.21248 0
M  V30 5183 C 485.752 -3.16862 3.62149 0
M  V30 5184 C 488.104 -3.12428 4.17179 0
M  V30 5185 C 485.432 -3.11051 4.97458 0
M  V30 5186 C 487.784 -3.08159 5.52468 0
M  V30 5187 C 486.448 -3.06935 5.92746 0
M  V30 5188 H 485.718 -0.632881 0.385412 0
M  V30 5189 H 488.365 -1.15863 1.52473 0
M  V30 5190 H 486.67 -3.74069 1.16532 0
M  V30 5191 H 488.367 -3.69658 1.55416 0
M  V30 5192 H 484.957 -3.16798 2.88682 0
M  V30 5193 H 489.141 -3.11221 3.86595 0
M  V30 5194 H 484.397 -3.0845 5.27891 0
M  V30 5195 H 488.571 -3.04039 6.26525 0
M  V30 5196 H 486.198 -3.02186 6.97558 0
M  V30 5197 N 487.773 -1.03688 -1.18687 0
M  V30 5198 C 489.05 -0.652397 -1.84399 0
M  V30 5199 C 489.43 0.868386 -1.92412 0
M  V30 5200 O 488.778 1.76832 -1.44716 0
M  V30 5201 C 488.988 -1.3238 -3.22919 0
M  V30 5202 C 490.336 -1.45216 -3.98996 0
M  V30 5203 O 491.36 -1.2816 -3.32345 0
M  V30 5204 O 490.219 -1.72975 -5.18403 0
M  V30 5205 H 487.313 -0.227793 -0.795009 0
M  V30 5206 H 489.859 -1.13553 -1.2611 0
M  V30 5207 H 488.631 -2.36202 -3.11968 0
M  V30 5208 H 488.254 -0.829039 -3.88861 0
M  V30 5209 N 489.251 1.34841 -0.815825 0
M  V30 5210 C 490.499 1.98107 -0.399744 0
M  V30 5211 C 490.82 1.65019 1.03894 0
M  V30 5212 O 490.09 0.937311 1.72021 0
M  V30 5213 H 488.67 0.732827 -0.144823 0
M  V30 5214 H 491.332 1.64599 -1.0437 0
M  V30 5215 H 490.428 3.07856 -0.512965 0
M  V30 5216 N 490.729 0.570148 1.46925 0
M  V30 5217 C 491.957 0.0561966 2.06824 0
M  V30 5218 C 492.372 -1.24326 1.42086 0
M  V30 5219 O 491.729 -1.74882 0.521794 0
M  V30 5220 C 491.78 -0.129517 3.61268 0
M  V30 5221 O 491.501 1.1185 4.23581 0
M  V30 5222 C 493.002 -0.679266 4.38065 0
M  V30 5223 H 490.222 0.0517261 0.669003 0
M  V30 5224 H 492.766 0.787243 1.8874 0
M  V30 5225 H 490.921 -0.810739 3.78822 0
M  V30 5226 H 491.335 0.924375 5.1629 0
M  V30 5227 H 492.809 -0.758445 5.46765 0
M  V30 5228 H 493.286 -1.69346 4.05239 0
M  V30 5229 H 493.892 -0.0333237 4.25287 0
M  V30 5230 N 492.207 -1.54576 0.307264 0
M  V30 5231 C 493.157 -2.20467 -0.581249 0
M  V30 5232 C 494.141 -1.17972 -1.09414 0
M  V30 5233 O 495.333 -1.43667 -1.03387 0
M  V30 5234 C 492.462 -2.95369 -1.74963 0
M  V30 5235 C 491.548 -4.05186 -1.25241 0
M  V30 5236 N 491.939 -5.03577 -0.47364 0
M  V30 5237 C 490.237 -4.18841 -1.53259 0
M  V30 5238 C 490.938 -5.81328 -0.208083 0
M  V30 5239 N 489.914 -5.37834 -0.789651 0
M  V30 5240 H 493.716 -2.93892 0.0212221 0
M  V30 5241 H 491.23 -1.62011 0.112325 0
M  V30 5242 H 493.227 -3.41046 -2.39777 0
M  V30 5243 H 491.887 -2.23461 -2.35574 0
M  V30 5244 H 492.898 -5.17766 -0.117963 0
M  V30 5245 H 489.575 -3.58141 -2.14573 0
M  V30 5246 H 490.965 -6.706 0.417793 0
M  V30 5247 N 493.685 -0.035106 -1.57561 0
M  V30 5248 C 494.915 0.651312 -1.96065 0
M  V30 5249 C 495.323 1.6585 -0.910514 0
M  V30 5250 O 494.666 1.83336 0.11552 0
M  V30 5251 C 494.728 1.40897 -3.30739 0
M  V30 5252 C 494.392 0.559436 -4.53563 0
M  V30 5253 C 495.389 -0.16778 -5.19629 0
M  V30 5254 C 493.074 0.495079 -4.99854 0
M  V30 5255 C 495.068 -0.947963 -6.30311 0
M  V30 5256 C 492.755 -0.288804 -6.10417 0
M  V30 5257 C 493.753 -1.00903 -6.75505 0
M  V30 5258 O 493.441 -1.78005 -7.83945 0
M  V30 5259 H 493.173 0.184036 -0.650467 0
M  V30 5260 H 495.727 -0.0929677 -2.05189 0
M  V30 5261 H 493.957 2.19852 -3.18123 0
M  V30 5262 H 495.646 1.98407 -3.54104 0
M  V30 5263 H 496.412 -0.12743 -4.84833 0
M  V30 5264 H 492.291 1.04524 -4.48994 0
M  V30 5265 H 495.835 -1.51064 -6.81047 0
M  V30 5266 H 491.732 -0.33085 -6.44652 0
M  V30 5267 H 492.5 -1.70046 -8.00641 0
M  V30 5268 N 495.163 1.55791 0.238111 0
M  V30 5269 C 496.095 1.87513 1.31802 0
M  V30 5270 C 497.108 0.762053 1.43863 0
M  V30 5271 O 498.297 1.04024 1.45056 0
M  V30 5272 C 495.397 2.05402 2.69561 0
M  V30 5273 C 494.57 3.3632 2.79656 0
M  V30 5274 C 493.629 3.43844 3.98319 0
M  V30 5275 O 492.655 4.16994 3.87433 0
M  V30 5276 N 493.857 2.73777 5.11885 0
M  V30 5277 H 496.622 2.80734 1.04922 0
M  V30 5278 H 494.183 1.56135 0.428196 0
M  V30 5279 H 496.175 2.07769 3.47296 0
M  V30 5280 H 494.745 1.18884 2.89111 0
M  V30 5281 H 493.965 3.46195 1.88528 0
M  V30 5282 H 495.253 4.22594 2.83358 0
M  V30 5283 H 494.651 2.14094 5.23622 0
M  V30 5284 H 493.208 2.81825 5.87723 0
M  V30 5285 N 496.642 -0.504142 1.49319 0
M  V30 5286 C 497.59 -1.62689 1.66238 0
M  V30 5287 C 498.584 -1.6095 0.528349 0
M  V30 5288 O 499.79 -1.65496 0.707887 0
M  V30 5289 H 496.165 -0.539247 0.524134 0
M  V30 5290 H 498.136 -1.45571 2.60484 0
M  V30 5291 C 496.885 -3.00841 1.74328 0
M  V30 5292 H 496.208 -3.02884 2.60963 0
M  V30 5293 H 497.648 -3.78945 1.90202 0
M  V30 5294 C 496.107 -3.33355 0.487416 0
M  V30 5295 O 496.637 -3.99819 -0.388294 0
M  V30 5296 N 494.843 -2.88469 0.351306 0
M  V30 5297 H 494.39 -2.34557 1.06492 0
M  V30 5298 H 494.348 -3.10591 -0.487899 0
M  V30 5299 N 498.12 -1.38341 -0.754957 0
M  V30 5300 C 499.07 -1.31964 -1.85929 0
M  V30 5301 C 500.054 -0.204181 -1.59599 0
M  V30 5302 O 501.246 -0.440036 -1.71443 0
M  V30 5303 C 498.375 -1.14565 -3.2362 0
M  V30 5304 C 497.461 -2.30727 -3.55846 0
M  V30 5305 N 497.852 -3.56165 -3.59138 0
M  V30 5306 C 496.15 -2.23249 -3.86104 0
M  V30 5307 C 496.851 -4.32865 -3.88591 0
M  V30 5308 N 495.827 -3.62203 -4.05351 0
M  V30 5309 H 499.629 -2.2694 -1.8675 0
M  V30 5310 H 497.143 -1.31553 -0.952243 0
M  V30 5311 H 499.14 -1.0808 -4.02647 0
M  V30 5312 H 497.8 -0.205212 -3.24051 0
M  V30 5313 H 498.811 -3.89854 -3.40932 0
M  V30 5314 H 495.488 -1.37357 -3.94258 0
M  V30 5315 H 496.878 -5.41504 -3.97773 0
M  V30 5316 N 499.598 0.982988 -1.23187 0
M  V30 5317 C 500.846 1.72052 -1.06031 0
M  V30 5318 C 501.167 1.90769 0.404019 0
M  V30 5319 O 500.437 1.47446 1.28982 0
M  V30 5320 H 499.017 0.637499 -0.389363 0
M  V30 5321 H 501.679 1.18338 -1.54862 0
M  V30 5322 H 500.775 2.7111 -1.54615 0
M  V30 5323 N 501.076 1.04316 1.18135 0
M  V30 5324 C 502.323 0.74802 1.88178 0
M  V30 5325 C 502.651 -0.72441 1.80506 0
M  V30 5326 O 501.906 -1.54463 1.20165 0
M  V30 5327 C 502.205 1.16271 3.37958 0
M  V30 5328 C 501.871 2.63585 3.65833 0
M  V30 5329 C 500.533 3.03829 3.73151 0
M  V30 5330 C 502.885 3.58822 3.78016 0
M  V30 5331 C 500.213 4.38194 3.90132 0
M  V30 5332 C 502.565 4.92909 3.96514 0
M  V30 5333 C 501.229 5.3282 4.02068 0
M  V30 5334 H 500.499 0.27372 0.688592 0
M  V30 5335 H 503.146 1.30863 1.39811 0
M  V30 5336 H 501.451 0.520938 3.88321 0
M  V30 5337 H 503.148 0.911672 3.90499 0
M  V30 5338 H 499.738 2.31414 3.60757 0
M  V30 5339 H 503.922 3.28875 3.71692 0
M  V30 5340 H 499.178 4.68631 3.92677 0
M  V30 5341 H 503.352 5.66606 4.04883 0
M  V30 5342 H 500.979 6.36943 4.14979 0
M  V30 5343 N 502.554 -1.34406 0.822964 0
M  V30 5344 C 503.8 -1.98578 0.411666 0
M  V30 5345 C 504.133 -1.65093 -1.02264 0
M  V30 5346 O 503.408 -0.92258 -1.71227 0
M  V30 5347 C 503.691 -3.54823 0.614235 0
M  V30 5348 C 503.544 -3.9805 2.09466 0
M  V30 5349 C 504.863 -4.40071 0.050221 0
M  V30 5350 H 501.982 -0.721355 0.151047 0
M  V30 5351 H 504.624 -1.59301 1.03554 0
M  V30 5352 H 502.774 -3.88411 0.0831774 0
M  V30 5353 H 504.446 -3.74795 2.68936 0
M  V30 5354 H 502.689 -3.4836 2.5851 0
M  V30 5355 H 503.36 -5.06819 2.18721 0
M  V30 5356 H 505.836 -4.13037 0.503953 0
M  V30 5357 H 504.712 -5.48452 0.221759 0
M  V30 5358 H 504.973 -4.29576 -1.04482 0
M  V30 5359 N 504.032 -0.577932 -1.46621 0
M  V30 5360 C 505.257 -0.0652536 -2.07297 0
M  V30 5361 C 505.682 1.22828 -1.4246 0
M  V30 5362 O 505.04 1.74075 -0.506718 0
M  V30 5363 C 505.088 0.0920589 -3.60482 0
M  V30 5364 O 504.192 1.14972 -3.96049 0
M  V30 5365 H 503.533 -0.06065 -0.661224 0
M  V30 5366 H 506.063 -0.799515 -1.88332 0
M  V30 5367 H 506.073 0.299741 -4.06897 0
M  V30 5368 H 504.748 -0.852612 -4.07067 0
M  V30 5369 H 503.325 0.920879 -3.61351 0
M  V30 5370 N 505.51 1.54411 -0.315457 0
M  V30 5371 C 506.757 2.00419 0.289543 0
M  V30 5372 C 507.085 1.20373 1.52776 0
M  V30 5373 O 506.34 0.271769 1.93804 0
M  V30 5374 C 506.639 3.50936 0.676652 0
M  V30 5375 C 506.305 4.48532 -0.461472 0
M  V30 5376 C 504.967 4.74936 -0.773879 0
M  V30 5377 C 507.319 5.06567 -1.22637 0
M  V30 5378 C 504.647 5.56634 -1.85405 0
M  V30 5379 C 506.999 5.89441 -2.29657 0
M  V30 5380 C 505.663 6.1415 -2.61488 0
M  V30 5381 H 504.933 0.733386 0.105951 0
M  V30 5382 H 507.58 1.86434 -0.437554 0
M  V30 5383 H 505.885 3.62606 1.48405 0
M  V30 5384 H 507.582 3.83971 1.15618 0
M  V30 5385 H 504.172 4.28096 -0.207893 0
M  V30 5386 H 508.356 4.86157 -0.998271 0
M  V30 5387 H 503.612 5.74012 -2.10523 0
M  V30 5388 H 507.786 6.33432 -2.89374 0
M  V30 5389 H 505.413 6.77245 -3.45317 0
M  V30 5390 N 506.988 0.0434614 1.5754 0
M  V30 5391 C 507.936 -0.951465 2.1225 0
M  V30 5392 C 508.93 -1.3274 1.05245 0
M  V30 5393 O 510.136 -1.30795 1.23663 0
M  V30 5394 H 506.511 -0.324667 0.678303 0
M  V30 5395 H 508.482 -0.464855 2.94757 0
M  V30 5396 C 507.231 -2.21972 2.67626 0
M  V30 5397 H 506.554 -1.93923 3.4962 0
M  V30 5398 H 507.994 -2.89765 3.09536 0
M  V30 5399 C 506.453 -2.95919 1.61038 0
M  V30 5400 O 506.983 -3.8857 1.01862 0
M  V30 5401 N 505.189 -2.58511 1.32741 0
M  V30 5402 H 504.736 -1.83244 1.81051 0
M  V30 5403 H 504.694 -3.08296 0.616531 0
M  V30 5404 N 508.466 -1.55915 -0.229846 0
M  V30 5405 C 509.691 -1.8296 -0.976743 0
M  V30 5406 C 510.116 -0.622735 -1.77493 0
M  V30 5407 O 509.474 0.428431 -1.76165 0
M  V30 5408 C 509.522 -3.07916 -1.8767 0
M  V30 5409 O 508.626 -2.86028 -2.97088 0
M  V30 5410 H 507.967 -0.603453 -0.277021 0
M  V30 5411 H 510.497 -2.0312 -0.245669 0
M  V30 5412 H 510.507 -3.37802 -2.2881 0
M  V30 5413 H 509.182 -3.95389 -1.28996 0
M  V30 5414 H 507.759 -2.67355 -2.59954 0
M  V30 5415 N 509.944 0.496216 -1.49584 0
M  V30 5416 C 511.193 1.24668 -1.58558 0
M  V30 5417 C 511.506 1.9359 -0.279703 0
M  V30 5418 O 512.712 2.70365 -0.248048 0
M  V30 5419 C 511.168 2.26388 -2.79779 0
M  V30 5420 C 510.776 1.63384 -4.17145 0
M  V30 5421 C 512.52 3.02233 -2.98086 0
M  V30 5422 C 510.427 2.63243 -5.29582 0
M  V30 5423 H 509.357 0.468995 -0.590389 0
M  V30 5424 H 512.008 0.519985 -1.75978 0
M  V30 5425 H 510.39 3.02241 -2.55863 0
M  V30 5426 H 511.564 0.93491 -4.51216 0
M  V30 5427 H 509.879 0.999121 -4.04236 0
M  V30 5428 H 512.476 3.76919 -3.79257 0
M  V30 5429 H 512.819 3.60132 -2.08831 0
M  V30 5430 H 513.352 2.33495 -3.22063 0
M  V30 5431 H 510.091 2.10119 -6.20911 0
M  V30 5432 H 509.611 3.31363 -4.99959 0
M  V30 5433 H 511.29 3.25575 -5.59115 0
M  V30 5434 N 511.423 1.38739 0.74761 0
M  V30 5435 C 512.7 1.25791 1.49786 0
M  V30 5436 C 513.08 -0.138075 2.10648 0
M  V30 5437 O 512.428 -1.14815 1.9756 0
M  V30 5438 C 512.638 2.37265 2.55942 0
M  V30 5439 C 513.986 2.75978 3.22679 0
M  V30 5440 O 515.01 2.36621 2.6625 0
M  V30 5441 O 513.869 3.43867 4.24756 0
M  V30 5442 H 510.963 0.492251 0.664543 0
M  V30 5443 H 513.509 1.50582 0.782511 0
M  V30 5444 H 512.281 3.30644 2.0926 0
M  V30 5445 H 511.904 2.14071 3.35051 0
M  V30 5446 N 512.901 -0.976442 1.23707 0
M  V30 5447 C 513.848 -2.06952 1.02174 0
M  V30 5448 C 514.818 -1.65984 -0.0621034 0
M  V30 5449 O 516.003 -1.90584 0.0907906 0
M  V30 5450 C 513.143 -3.39425 0.62327 0
M  V30 5451 C 512.256 -3.9364 1.77966 0
M  V30 5452 C 511.391 -5.14343 1.3276 0
M  V30 5453 C 510.43 -5.60733 2.45449 0
M  V30 5454 N 509.567 -6.72662 2.01172 0
M  V30 5455 H 514.407 -2.24704 1.95734 0
M  V30 5456 H 511.944 -1.10143 0.975034 0
M  V30 5457 H 513.902 -4.15526 0.37332 0
M  V30 5458 H 512.532 -3.21624 -0.275329 0
M  V30 5459 H 511.584 -3.14258 2.14351 0
M  V30 5460 H 512.896 -4.24035 2.62671 0
M  V30 5461 H 512.05 -5.97789 1.03601 0
M  V30 5462 H 510.789 -4.8561 0.450975 0
M  V30 5463 H 509.794 -4.75865 2.75378 0
M  V30 5464 H 511.019 -5.91483 3.33654 0
M  V30 5465 H 508.965 -6.45681 1.15895 0
M  V30 5466 H 508.882 -7.02462 2.79434 0
M  V30 5467 H 510.15 -7.59572 1.75129 0
M  V30 5468 N 514.379 -1.04941 -1.1758 0
M  V30 5469 C 515.311 -0.606174 -2.21039 0
M  V30 5470 C 516.324 0.328763 -1.59446 0
M  V30 5471 O 517.513 0.121895 -1.78083 0
M  V30 5472 C 514.613 0.133294 -3.38638 0
M  V30 5473 C 513.786 -0.811711 -4.29802 0
M  V30 5474 C 512.845 -0.113958 -5.26077 0
M  V30 5475 O 511.871 -0.747237 -5.64274 0
M  V30 5476 N 513.073 1.14953 -5.69004 0
M  V30 5477 H 515.838 -1.49606 -2.59689 0
M  V30 5478 H 513.399 -0.930997 -1.32454 0
M  V30 5479 H 515.391 0.610144 -4.00074 0
M  V30 5480 H 513.961 0.924816 -2.98607 0
M  V30 5481 H 513.181 -1.46824 -3.65837 0
M  V30 5482 H 514.469 -1.45326 -4.87604 0
M  V30 5483 H 513.867 1.68441 -5.40041 0
M  V30 5484 H 512.424 1.57049 -6.32597 0
M  V30 5485 N 515.857 1.33968 -0.830081 0
M  V30 5486 C 516.787 2.31911 -0.271911 0
M  V30 5487 C 517.768 1.58571 0.61556 0
M  V30 5488 O 518.953 1.86514 0.540946 0
M  V30 5489 C 516.083 3.42737 0.561146 0
M  V30 5490 C 515.037 4.27383 -0.229789 0
M  V30 5491 C 514.363 5.29742 0.726463 0
M  V30 5492 C 515.663 5.02 -1.44197 0
M  V30 5493 H 517.357 2.78844 -1.09025 0
M  V30 5494 H 514.903 1.34061 -0.52571 0
M  V30 5495 H 516.856 4.10276 0.961867 0
M  V30 5496 H 515.58 2.94471 1.41261 0
M  V30 5497 H 514.239 3.61456 -0.611964 0
M  V30 5498 H 513.887 4.77736 1.57408 0
M  V30 5499 H 513.587 5.87255 0.20142 0
M  V30 5500 H 515.111 6.00149 1.12489 0
M  V30 5501 H 516.525 5.62355 -1.11488 0
M  V30 5502 H 514.922 5.69122 -1.90317 0
M  V30 5503 H 515.992 4.31281 -2.2164 0
M  V30 5504 N 517.335 0.585699 1.46312 0
M  V30 5505 C 518.581 0.0725284 2.0267 0
M  V30 5506 C 518.914 -1.28523 1.45586 0
M  V30 5507 O 518.189 -1.84283 0.622101 0
M  V30 5508 C 518.472 0.0099788 3.60099 0
M  V30 5509 C 518.325 1.39685 4.27561 0
M  V30 5510 C 519.644 -0.689117 4.34671 0
M  V30 5511 H 516.763 0.0278307 0.736474 0
M  V30 5512 H 519.405 0.753472 1.74421 0
M  V30 5513 H 517.555 -0.56992 3.84297 0
M  V30 5514 H 519.227 2.02215 4.14617 0
M  V30 5515 H 517.47 1.96374 3.86807 0
M  V30 5516 H 518.141 1.30553 5.36339 0
M  V30 5517 H 520.617 -0.196446 4.15636 0
M  V30 5518 H 519.493 -0.701921 5.44393 0
M  V30 5519 H 519.754 -1.75101 4.05946 0
M  V30 5520 N 518.813 -1.54241 0.323641 0
M  V30 5521 C 520.038 -2.05452 -0.283605 0
M  V30 5522 C 520.463 -1.19823 -1.44997 0
M  V30 5523 O 519.821 -0.207358 -1.8011 0
M  V30 5524 C 519.869 -3.53823 -0.695795 0
M  V30 5525 O 518.973 -3.71134 -1.79815 0
M  V30 5526 H 518.314 -0.662024 -0.0511917 0
M  V30 5527 H 520.844 -1.99079 0.472073 0
M  V30 5528 H 520.854 -3.96094 -0.978434 0
M  V30 5529 H 519.529 -4.15602 0.157287 0
M  V30 5530 H 518.106 -3.40768 -1.51431 0
M  V30 5531 N 520.291 -0.0518155 -1.57515 0
M  V30 5532 C 521.201 0.937539 -2.15052 0
M  V30 5533 C 522.217 1.34121 -1.10849 0
M  V30 5534 O 523.393 1.418 -1.4302 0
M  V30 5535 C 520.458 2.19379 -2.68466 0
M  V30 5536 C 519.519 1.84841 -3.87469 0
M  V30 5537 C 518.752 3.04477 -4.38326 0
M  V30 5538 O 518.975 4.17868 -3.88256 0
M  V30 5539 O 517.909 2.85453 -5.29906 0
M  V30 5540 H 521.735 0.478201 -2.99912 0
M  V30 5541 H 519.32 0.17012 -1.48428 0
M  V30 5542 H 521.202 2.93084 -3.02787 0
M  V30 5543 H 519.877 2.64449 -1.86677 0
M  V30 5544 H 518.784 1.08449 -3.58036 0
M  V30 5545 H 520.117 1.44569 -4.7049 0
M  V30 5546 N 521.769 1.56035 0.221574 0
M  V30 5547 C 522.732 1.91584 1.2581 0
M  V30 5548 C 523.732 0.794425 1.39805 0
M  V30 5549 O 524.922 1.06217 1.38071 0
M  V30 5550 C 522.054 2.16663 2.63192 0
M  V30 5551 H 523.247 2.8429 0.954935 0
M  V30 5552 H 520.8 1.49316 0.461988 0
M  V30 5553 H 521.535 1.26508 2.98607 0
M  V30 5554 H 521.32 2.98358 2.5441 0
M  V30 5555 H 522.81 2.45262 3.37988 0
M  V30 5556 N 523.247 -0.488276 1.49845 0
M  V30 5557 C 524.194 -1.58836 1.67451 0
M  V30 5558 C 525.164 -1.57886 0.515857 0
M  V30 5559 O 526.349 -1.75679 0.744403 0
M  V30 5560 C 523.489 -2.96915 1.75885 0
M  V30 5561 C 522.602 -3.07784 3.03138 0
M  V30 5562 C 521.737 -4.36673 3.02473 0
M  V30 5563 C 520.776 -4.41222 4.24252 0
M  V30 5564 N 519.913 -5.61557 4.21424 0
M  V30 5565 H 524.753 -1.43131 2.61376 0
M  V30 5566 H 522.29 -0.696186 1.29583 0
M  V30 5567 H 524.248 -3.76965 1.78755 0
M  V30 5568 H 522.878 -3.11295 0.85414 0
M  V30 5569 H 521.93 -2.20717 3.09819 0
M  V30 5570 H 523.242 -3.07005 3.93128 0
M  V30 5571 H 522.396 -5.25055 3.03977 0
M  V30 5572 H 521.135 -4.40037 2.10283 0
M  V30 5573 H 520.14 -3.5124 4.22978 0
M  V30 5574 H 521.365 -4.39564 5.17649 0
M  V30 5575 H 519.311 -5.65738 3.32078 0
M  V30 5576 H 519.228 -5.62447 5.05163 0
M  V30 5577 H 520.496 -6.52111 4.2705 0
M  V30 5578 N 524.725 -1.39134 -0.740242 0
M  V30 5579 C 525.672 -1.37434 -1.8542 0
M  V30 5580 C 526.642 -0.234822 -1.64432 0
M  V30 5581 O 527.827 -0.429125 -1.85912 0
M  V30 5582 C 524.967 -1.21844 -3.22875 0
M  V30 5583 C 524.08 -2.45296 -3.55603 0
M  V30 5584 C 523.215 -2.22334 -4.82432 0
M  V30 5585 C 522.254 -3.41488 -5.07988 0
M  V30 5586 N 521.391 -3.17877 -6.26018 0
M  V30 5587 H 526.231 -2.3266 -1.86207 0
M  V30 5588 H 523.768 -1.15578 -0.909946 0
M  V30 5589 H 525.726 -1.10818 -4.02213 0
M  V30 5590 H 524.356 -0.3025 -3.21379 0
M  V30 5591 H 523.408 -2.66945 -2.71006 0
M  V30 5592 H 524.72 -3.34063 -3.7041 0
M  V30 5593 H 523.874 -2.0852 -5.69741 0
M  V30 5594 H 522.613 -1.30954 -4.6979 0
M  V30 5595 H 521.618 -3.55807 -4.19144 0
M  V30 5596 H 522.843 -4.33763 -5.22519 0
M  V30 5597 H 520.789 -2.29156 -6.14673 0
M  V30 5598 H 520.706 -4.00198 -6.41387 0
M  V30 5599 H 521.974 -3.07746 -7.16179 0
M  V30 5600 N 526.204 0.969867 -1.24223 0
M  V30 5601 C 527.453 1.70687 -1.07466 0
M  V30 5602 C 527.766 1.91736 0.386861 0
M  V30 5603 O 528.972 2.62986 0.674581 0
M  V30 5604 C 527.428 3.07217 -1.87472 0
M  V30 5605 C 527.036 2.94018 -3.3802 0
M  V30 5606 C 528.78 3.84804 -1.79237 0
M  V30 5607 C 526.687 4.25844 -4.10379 0
M  V30 5608 H 525.617 0.640067 -0.398536 0
M  V30 5609 H 528.268 1.08092 -1.48285 0
M  V30 5610 H 526.65 3.70628 -1.39466 0
M  V30 5611 H 527.824 2.39632 -3.9359 0
M  V30 5612 H 526.139 2.29898 -3.47183 0
M  V30 5613 H 528.736 4.82417 -2.30603 0
M  V30 5614 H 529.079 4.09356 -0.757197 0
M  V30 5615 H 529.612 3.28115 -2.24912 0
M  V30 5616 H 526.351 4.06486 -5.14246 0
M  V30 5617 H 525.871 4.80054 -3.59594 0
M  V30 5618 H 527.55 4.94475 -4.17257 0
M  V30 5619 N 527.682 1.05563 1.17022 0
M  V30 5620 C 528.929 0.767937 1.87374 0
M  V30 5621 C 529.257 -0.705224 1.81265 0
M  V30 5622 O 528.512 -1.5318 1.21796 0
M  V30 5623 C 528.811 1.19849 3.36706 0
M  V30 5624 C 528.477 2.6745 3.63017 0
M  V30 5625 C 527.139 3.0777 3.69907 0
M  V30 5626 C 529.491 3.62811 3.74189 0
M  V30 5627 C 526.819 4.42307 3.85463 0
M  V30 5628 C 529.171 4.97087 3.91264 0
M  V30 5629 C 527.835 5.37055 3.96394 0
M  V30 5630 H 527.105 0.281008 0.68565 0
M  V30 5631 H 529.752 1.32339 1.38415 0
M  V30 5632 H 528.057 0.562096 3.87747 0
M  V30 5633 H 529.754 0.953038 3.8951 0
M  V30 5634 H 526.344 2.35228 3.58282 0
M  V30 5635 H 530.528 3.32798 3.68183 0
M  V30 5636 H 525.784 4.72769 3.87684 0
M  V30 5637 H 529.958 5.70869 3.9885 0
M  V30 5638 H 527.585 6.41308 4.082 0
M  V30 5639 N 529.16 -1.33526 0.837174 0
M  V30 5640 C 530.07 -2.33023 0.271568 0
M  V30 5641 C 531.086 -1.63272 -0.601514 0
M  V30 5642 O 532.262 -1.94939 -0.506038 0
M  V30 5643 C 529.327 -3.42382 -0.545448 0
M  V30 5644 C 528.388 -4.27857 0.351709 0
M  V30 5645 C 527.621 -5.31994 -0.426409 0
M  V30 5646 O 527.844 -5.45763 -1.65828 0
M  V30 5647 O 526.778 -6.01572 0.1987 0
M  V30 5648 H 530.604 -2.83256 1.09545 0
M  V30 5649 H 528.189 -1.36837 0.599655 0
M  V30 5650 H 530.071 -4.09122 -1.00979 0
M  V30 5651 H 528.746 -2.94369 -1.34641 0
M  V30 5652 H 527.653 -3.6399 0.863853 0
M  V30 5653 H 528.986 -4.79349 1.1174 0
M  V30 5654 N 530.638 -0.59345 -1.46 0
M  V30 5655 C 532.054 -0.255965 -1.57534 0
M  V30 5656 C 532.254 1.24167 -1.58697 0
M  V30 5657 O 531.31 2.02398 -1.50968 0
M  V30 5658 C 532.623 -0.91466 -2.86451 0
M  V30 5659 C 534.171 -0.889253 -3.00102 0
M  V30 5660 C 534.646 -1.52769 -4.3177 0
M  V30 5661 N 536.137 -1.49253 -4.38495 0
M  V30 5662 C 536.872 -1.9558 -5.39014 0
M  V30 5663 N 536.368 -2.49929 -6.46148 0
M  V30 5664 N 538.161 -1.86432 -5.30282 0
M  V30 5665 H 530.312 -1.56604 -1.43489 0
M  V30 5666 H 532.575 -0.655207 -0.685133 0
M  V30 5667 H 532.281 -1.96861 -2.91442 0
M  V30 5668 H 532.155 -0.429356 -3.74748 0
M  V30 5669 H 534.542 0.156111 -2.94687 0
M  V30 5670 H 534.623 -1.41268 -2.13253 0
M  V30 5671 H 534.267 -2.57231 -4.37944 0
M  V30 5672 H 534.197 -0.979398 -5.17412 0
M  V30 5673 H 536.688 -1.09536 -3.61677 0
M  V30 5674 H 537.001 -2.83109 -7.19075 0
M  V30 5675 H 535.346 -2.53961 -6.46938 0
M  V30 5676 H 538.537 -1.43722 -4.4549 0
M  V30 5677 H 538.71 -2.22852 -6.08474 0
M  V30 5678 N 532.116 1.54067 -0.331816 0
M  V30 5679 C 533.393 1.92915 0.322955 0
M  V30 5680 C 533.773 1.26225 1.69205 0
M  V30 5681 O 533.121 0.408919 2.24811 0
M  V30 5682 C 533.331 3.46619 0.406946 0
M  V30 5683 C 534.679 4.19386 0.663339 0
M  V30 5684 O 535.703 3.5282 0.489536 0
M  V30 5685 O 534.562 5.37288 0.999193 0
M  V30 5686 H 531.656 0.805808 0.186016 0
M  V30 5687 H 534.202 1.65342 -0.382135 0
M  V30 5688 H 532.974 3.87354 -0.554287 0
M  V30 5689 H 532.597 3.80324 1.15929 0
M  V30 5690 N 533.594 0.0601682 1.57485 0
M  V30 5691 C 534.84 -0.606552 1.94146 0
M  V30 5692 C 535.195 -1.67918 0.939225 0
M  V30 5693 O 534.488 -1.91558 -0.0402649 0
M  V30 5694 C 534.682 -1.23831 3.35262 0
M  V30 5695 C 534.511 -0.228408 4.4912 0
M  V30 5696 C 533.281 0.182813 5.04969 0
M  V30 5697 C 535.479 0.52975 5.11564 0
M  V30 5698 N 533.461 1.18464 6.02362 0
M  V30 5699 C 534.832 1.38439 6.04346 0
M  V30 5700 C 536.887 0.587084 4.94427 0
M  V30 5701 C 535.59 2.29125 6.81832 0
M  V30 5702 C 537.616 1.4814 5.72546 0
M  V30 5703 C 536.978 2.32375 6.64967 0
M  V30 5704 H 533.077 -0.193328 0.757726 0
M  V30 5705 H 535.661 0.1346 1.94234 0
M  V30 5706 H 533.832 -1.94944 3.35933 0
M  V30 5707 H 535.564 -1.86456 3.59188 0
M  V30 5708 H 532.319 -0.197968 4.73186 0
M  V30 5709 H 532.743 1.68271 6.55754 0
M  V30 5710 H 537.385 -0.049944 4.22771 0
M  V30 5711 H 535.103 2.93868 7.52773 0
M  V30 5712 H 538.689 1.53045 5.6131 0
M  V30 5713 H 537.569 3.00454 7.2436 0
M  V30 5714 N 535.072 -1.5615 -0.213296 0
M  V30 5715 C 536.318 -1.79812 -0.937849 0
M  V30 5716 C 536.651 -0.631201 -1.83656 0
M  V30 5717 O 535.926 0.369165 -1.90964 0
M  V30 5718 C 536.209 -3.13613 -1.76972 0
M  V30 5719 C 536.062 -4.40766 -0.89695 0
M  V30 5720 C 537.381 -3.43931 -2.7459 0
M  V30 5721 H 534.5 -0.654138 -0.339518 0
M  V30 5722 H 537.142 -1.88877 -0.20623 0
M  V30 5723 H 535.292 -3.06015 -2.39347 0
M  V30 5724 H 536.964 -4.60392 -0.289306 0
M  V30 5725 H 535.207 -4.33326 -0.202756 0
M  V30 5726 H 535.878 -5.30843 -1.51358 0
M  V30 5727 H 538.354 -3.5171 -2.22349 0
M  V30 5728 H 537.23 -4.38706 -3.29891 0
M  V30 5729 H 537.491 -2.6651 -3.52739 0
M  V30 5730 N 536.55 0.480323 -1.50102 0
M  V30 5731 C 537.775 1.26126 -1.64642 0
M  V30 5732 C 538.2 1.85257 -0.325823 0
M  V30 5733 O 537.558 1.66854 0.709194 0
M  V30 5734 C 537.606 2.35243 -2.73301 0
M  V30 5735 O 536.71 3.39646 -2.33911 0
M  V30 5736 H 536.051 0.371463 -0.550374 0
M  V30 5737 H 538.581 0.572696 -1.96421 0
M  V30 5738 H 538.591 2.80695 -2.96098 0
M  V30 5739 H 537.266 1.91574 -3.6915 0
M  V30 5740 H 535.843 2.99969 -2.21525 0
M  V30 5741 N 538.028 1.39524 0.732853 0
M  V30 5742 C 539.253 1.40329 1.52717 0
M  V30 5743 C 539.678 0.000286574 1.881 0
M  V30 5744 O 539.036 -0.987262 1.52062 0
M  V30 5745 C 539.084 2.28464 2.78992 0
M  V30 5746 O 538.188 1.716 3.75003 0
M  V30 5747 H 537.529 0.47778 0.461109 0
M  V30 5748 H 540.059 1.83546 0.903996 0
M  V30 5749 H 540.069 2.43051 3.27705 0
M  V30 5750 H 538.744 3.30425 2.52572 0
M  V30 5751 H 537.321 1.66267 3.33781 0
M  V30 5752 N 539.506 -0.963266 1.24736 0
M  V30 5753 C 540.456 -2.0438 1.01058 0
M  V30 5754 C 541.44 -1.60824 -0.0495354 0
M  V30 5755 O 542.632 -1.76232 0.164741 0
M  V30 5756 C 539.761 -3.37617 0.622067 0
M  V30 5757 C 538.847 -3.87722 1.7185 0
M  V30 5758 N 539.238 -4.10715 2.95207 0
M  V30 5759 C 537.536 -4.16426 1.59703 0
M  V30 5760 C 538.237 -4.51872 3.66315 0
M  V30 5761 N 537.213 -4.57302 2.93897 0
M  V30 5762 H 541.015 -2.20138 1.94721 0
M  V30 5763 H 538.529 -1.14741 1.14927 0
M  V30 5764 H 540.526 -4.14638 0.43366 0
M  V30 5765 H 539.186 -3.23242 -0.307327 0
M  V30 5766 H 540.197 -3.98037 3.31341 0
M  V30 5767 H 536.874 -4.10962 0.73598 0
M  V30 5768 H 538.264 -4.78037 4.72155 0
M  V30 5769 N 540.985 -1.06182 -1.16461 0
M  V30 5770 C 542.21 -0.798599 -1.91408 0
M  V30 5771 C 542.635 0.640987 -1.76842 0
M  V30 5772 O 541.993 1.44652 -1.09296 0
M  V30 5773 C 542.041 -1.19665 -3.40165 0
M  V30 5774 O 541.145 -0.334768 -4.11039 0
M  V30 5775 H 540.486 -0.291961 -0.596368 0
M  V30 5776 H 543.016 -1.41732 -1.47557 0
M  V30 5777 H 543.026 -1.16772 -3.90933 0
M  V30 5778 H 541.701 -2.24526 -3.50087 0
M  V30 5779 H 540.278 -0.425168 -3.70468 0
M  V30 5780 N 542.463 1.3308 -0.844243 0
M  V30 5781 C 543.41 2.29104 -0.279323 0
M  V30 5782 C 544.38 1.54577 0.607882 0
M  V30 5783 O 545.565 1.8285 0.545009 0
M  V30 5784 C 542.705 3.40927 0.53508 0
M  V30 5785 C 541.818 4.30354 -0.376749 0
M  V30 5786 C 540.953 5.29297 0.449276 0
M  V30 5787 C 539.992 6.10365 -0.460606 0
M  V30 5788 N 539.129 7.01335 0.327612 0
M  V30 5789 H 543.969 2.76817 -1.10346 0
M  V30 5790 H 541.506 1.36203 -0.555611 0
M  V30 5791 H 543.464 4.04469 1.02278 0
M  V30 5792 H 542.094 2.94391 1.32414 0
M  V30 5793 H 541.146 3.67485 -0.982791 0
M  V30 5794 H 542.458 4.87067 -1.07549 0
M  V30 5795 H 541.612 5.98392 1.00058 0
M  V30 5796 H 540.351 4.73174 1.18143 0
M  V30 5797 H 539.356 5.40182 -1.02388 0
M  V30 5798 H 540.581 6.68571 -1.1912 0
M  V30 5799 H 538.527 6.47655 1.04305 0
M  V30 5800 H 538.444 7.55355 -0.3123 0
M  V30 5801 H 539.712 7.74731 0.86098 0
M  V30 5802 N 543.941 0.601185 1.45683 0
M  V30 5803 C 545.166 0.0982245 2.07167 0
M  V30 5804 C 545.591 -1.20546 1.44396 0
M  V30 5805 O 544.949 -1.73247 0.534347 0
M  V30 5806 C 544.997 -0.0346976 3.60583 0
M  V30 5807 O 544.101 -1.08657 3.97828 0
M  V30 5808 H 543.442 0.0711618 0.660176 0
M  V30 5809 H 545.972 0.829376 1.87036 0
M  V30 5810 H 545.982 -0.234969 4.07323 0
M  V30 5811 H 544.657 0.917265 4.05659 0
M  V30 5812 H 543.234 -0.863275 3.6277 0
M  V30 5813 N 545.419 -1.53889 0.339982 0
M  V30 5814 C 546.349 -2.27843 -0.510856 0
M  V30 5815 C 547.33 -1.29267 -1.10563 0
M  V30 5816 O 548.515 -1.58104 -1.12768 0
M  V30 5817 C 545.645 -3.04857 -1.66372 0
M  V30 5818 C 544.599 -4.10907 -1.19746 0
M  V30 5819 C 543.925 -4.75855 -2.43857 0
M  V30 5820 C 545.225 -5.21435 -0.300501 0
M  V30 5821 H 546.919 -2.99212 0.106067 0
M  V30 5822 H 544.465 -1.43904 0.0524533 0
M  V30 5823 H 546.418 -3.5533 -2.26537 0
M  V30 5824 H 545.142 -2.31133 -2.30749 0
M  V30 5825 H 543.801 -3.61342 -0.618654 0
M  V30 5826 H 543.449 -3.9873 -3.06633 0
M  V30 5827 H 543.149 -5.47502 -2.13343 0
M  V30 5828 H 544.673 -5.2911 -3.04754 0
M  V30 5829 H 546.087 -5.67565 -0.80889 0
M  V30 5830 H 544.484 -6.00036 -0.0874076 0
M  V30 5831 H 545.554 -4.80328 0.664321 0
M  V30 5832 N 546.897 -0.0685191 -1.57451 0
M  V30 5833 C 547.844 0.899861 -2.12535 0
M  V30 5834 C 548.814 1.29749 -1.03703 0
M  V30 5835 O 549.999 1.38392 -1.31348 0
M  V30 5836 C 547.139 2.16328 -2.6888 0
M  V30 5837 C 546.252 1.81857 -3.91857 0
M  V30 5838 C 545.387 3.02786 -4.36457 0
M  V30 5839 C 544.426 2.64317 -5.5209 0
M  V30 5840 N 543.563 3.77994 -5.91663 0
M  V30 5841 H 548.403 0.423243 -2.94979 0
M  V30 5842 H 545.94 0.197268 -1.45771 0
M  V30 5843 H 547.898 2.90281 -2.99655 0
M  V30 5844 H 546.528 2.61536 -1.89206 0
M  V30 5845 H 545.58 0.979808 -3.67565 0
M  V30 5846 H 546.892 1.49553 -4.75852 0
M  V30 5847 H 546.046 3.85021 -4.68875 0
M  V30 5848 H 544.785 3.38281 -3.51308 0
M  V30 5849 H 543.79 1.80503 -5.19325 0
M  V30 5850 H 545.015 2.29995 -6.38967 0
M  V30 5851 H 542.961 4.13258 -5.09464 0
M  V30 5852 H 542.878 3.49447 -6.7039 0
M  V30 5853 H 544.146 4.60818 -6.28703 0
M  V30 5854 N 548.375 1.56261 0.205012 0
M  V30 5855 C 549.624 1.79236 0.925058 0
M  V30 5856 C 549.937 0.640011 1.84833 0
M  V30 5857 O 551.143 0.753809 2.60826 0
M  V30 5858 C 549.599 3.17475 1.69522 0
M  V30 5859 C 549.207 4.40482 0.817269 0
M  V30 5860 C 550.951 3.49766 2.4055 0
M  V30 5861 C 548.858 5.69744 1.58573 0
M  V30 5862 H 547.788 0.668287 0.349153 0
M  V30 5863 H 550.439 1.82629 0.178544 0
M  V30 5864 H 548.821 3.08304 2.48526 0
M  V30 5865 H 549.995 4.60752 0.0665988 0
M  V30 5866 H 548.31 4.15827 0.218316 0
M  V30 5867 H 550.907 4.43573 2.98575 0
M  V30 5868 H 551.25 2.73041 3.14252 0
M  V30 5869 H 551.783 3.60341 1.68522 0
M  V30 5870 H 548.522 6.49407 0.891679 0
M  V30 5871 H 548.042 5.53509 2.31059 0
M  V30 5872 H 549.721 6.1051 2.14212 0
M  V30 5873 O 549.892 -0.350324 1.57655 0
M  V30 5874 H 550.583 -1.00029 1.65873 0
M  V30 END ATOM
M  V30 BEGIN BOND
M  V30 END BOND
M  V30 END CTAB
M  END
$$$$
