drugbank_target|P33905 Transcriptional activator protein TraR (DB08081)
 OpenBabel12092120483D

  0  0  0     0  0            999 V3000
M  V30 BEGIN CTAB
M  V30 COUNTS 3767 3811 0 0 0
M  V30 BEGIN ATOM
M  V30 1 H -0.908 1.98254 -0.117106 0
M  V30 2 N 0 1.576 0 0
M  V30 3 C 0.933 2.03868 1.02534 0
M  V30 4 C 1.911 0.928543 1.3348 0
M  V30 5 O 3.095 1.19667 1.45644 0
M  V30 6 C 0.222 2.43627 2.35294 0
M  V30 7 C -0.732 3.65373 2.2001 0
M  V30 8 S 0.101 5.13292 1.52614 0
M  V30 9 C 1.257 5.56322 2.86805 0
M  V30 10 H 1.49 2.90518 0.631377 0
M  V30 11 H -0.977 1.52953 0.210867 0
M  V30 12 H 0.981 2.67203 3.11629 0
M  V30 13 H -0.358 1.57376 2.7183 0
M  V30 14 H -1.165 3.90944 3.18086 0
M  V30 15 H -1.563 3.418 1.51819 0
M  V30 16 H 0.729 5.58782 3.83104 0
M  V30 17 H 1.672 6.56266 2.65933 0
M  V30 18 H 2.08 4.83886 2.90714 0
M  V30 19 N 1.4781 -0.272755 1.55222 0
M  V30 20 C 2.4101 -1.35946 1.8453 0
M  V30 21 C 3.4231 -1.45525 0.729818 0
M  V30 22 O 4.6121 -1.47337 1.00767 0
M  V30 23 C 1.7121 -2.74069 1.99347 0
M  V30 24 C 0.8851 -2.87079 3.30007 0
M  V30 25 C -0.0559 -4.05879 3.34886 0
M  V30 26 O -1.0299 -3.96626 4.08261 0
M  V30 27 N 0.1721 -5.17857 2.62307 0
M  V30 28 H 2.9371 -1.11149 2.78327 0
M  V30 29 H 0.4981 -0.462869 1.55142 0
M  V30 30 H 2.4901 -3.51838 1.99981 0
M  V30 31 H 1.0601 -2.91688 1.12415 0
M  V30 32 H 0.2801 -1.96193 3.41909 0
M  V30 33 H 1.5681 -2.92701 4.16177 0
M  V30 34 H 0.9661 -5.28261 2.02377 0
M  V30 35 H -0.4769 -5.93855 2.68663 0
M  V30 36 N 2.9562 -1.48159 -0.537278 0
M  V30 37 C 3.9062 -1.5854 -1.63857 0
M  V30 38 C 4.8902 -0.442969 -1.54682 0
M  V30 39 O 6.0822 -0.69401 -1.62827 0
M  V30 40 C 3.2112 -1.62144 -3.02596 0
M  V30 41 C 2.2972 -2.81841 -3.16901 0
M  V30 42 N 2.6882 -4.06337 -3.01204 0
M  V30 43 C 0.9862 -2.79021 -3.47942 0
M  V30 44 C 1.6872 -4.86606 -3.18731 0
M  V30 45 N 0.6632 -4.19288 -3.45974 0
M  V30 46 H 4.4652 -2.5255 -1.50319 0
M  V30 47 H 1.9792 -1.4443 -0.742555 0
M  V30 48 H 3.9762 -1.67674 -3.81695 0
M  V30 49 H 2.6362 -0.69245 -3.17231 0
M  V30 50 H 3.6472 -4.36888 -2.78117 0
M  V30 51 H 0.3242 -1.95347 -3.6898 0
M  V30 52 H 1.7142 -5.95385 -3.11394 0
M  V30 53 N 4.4343 0.785586 -1.36625 0
M  V30 54 C 5.6803 1.5452 -1.32269 0
M  V30 55 C 6.0353 1.92159 0.0962266 0
M  V30 56 O 5.3283 1.60158 1.05167 0
M  V30 57 C 5.5223 2.83007 -2.1827 0
M  V30 58 C 5.3513 2.57925 -3.68382 0
M  V30 59 C 4.1213 2.52752 -4.37544 0
M  V30 60 C 6.3193 2.26861 -4.61561 0
M  V30 61 N 4.3013 2.19608 -5.73276 0
M  V30 62 C 5.6723 2.03738 -5.85569 0
M  V30 63 C 7.7273 2.129 -4.50087 0
M  V30 64 C 6.4303 1.68065 -6.9939 0
M  V30 65 C 8.4563 1.78626 -5.63779 0
M  V30 66 C 7.8183 1.56353 -6.86828 0
M  V30 67 H 3.9173 0.566301 -0.539283 0
M  V30 68 H 6.5013 0.917736 -1.71714 0
M  V30 69 H 4.6723 3.43614 -1.81063 0
M  V30 70 H 6.4043 3.48775 -2.05275 0
M  V30 71 H 3.1593 2.6813 -3.90389 0
M  V30 72 H 3.5833 2.05771 -6.44971 0
M  V30 73 H 8.2253 2.28808 -3.55537 0
M  V30 74 H 5.9433 1.50895 -7.93887 0
M  V30 75 H 9.5293 1.68502 -5.56865 0
M  V30 76 H 8.4093 1.30223 -7.73312 0
M  V30 77 N 5.9124 1.20967 1.01018 0
M  V30 78 C 6.8424 0.988272 2.11555 0
M  V30 79 C 7.8234 -0.0849778 1.69888 0
M  V30 80 O 9.0084 0.0738202 1.9406 0
M  V30 81 C 6.1384 0.546528 3.42973 0
M  V30 82 C 5.0924 1.56375 3.9841 0
M  V30 83 C 4.4184 0.97842 5.25672 0
M  V30 84 C 5.7184 2.94922 4.31066 0
M  V30 85 H 7.4124 1.91276 2.30334 0
M  V30 86 H 4.9584 0.921073 1.1069 0
M  V30 87 H 6.9114 0.378839 4.19694 0
M  V30 88 H 5.6354 -0.413598 3.23971 0
M  V30 89 H 4.2944 1.71891 3.23804 0
M  V30 90 H 3.9424 0.0101688 5.02999 0
M  V30 91 H 3.6424 1.65784 5.63728 0
M  V30 92 H 5.1664 0.821939 6.05043 0
M  V30 93 H 6.5804 2.8288 4.9865 0
M  V30 94 H 4.9774 3.5983 4.80253 0
M  V30 95 H 6.0474 3.4616 3.39561 0
M  V30 96 N 7.3905 -1.2043 1.01659 0
M  V30 97 C 8.6675 -1.8548 0.621004 0
M  V30 98 C 9.0475 -1.9091 -0.900919 0
M  V30 99 O 8.3955 -1.41694 -1.79263 0
M  V30 100 C 8.6055 -3.25119 1.2688 0
M  V30 101 C 9.9535 -4.01403 1.38423 0
M  V30 102 O 10.9775 -3.34473 1.22501 0
M  V30 103 O 9.8365 -5.21265 1.64151 0
M  V30 104 H 6.9305 -0.798761 0.214266 0
M  V30 105 H 9.4765 -1.28019 1.11396 0
M  V30 106 H 8.2485 -3.15932 2.30873 0
M  V30 107 H 7.8715 -3.90212 0.762917 0
M  V30 108 N 8.8686 -0.792821 -1.36206 0
M  V30 109 C 9.8156 -0.191653 -2.30003 0
M  V30 110 C 10.7856 0.666453 -1.52143 0
M  V30 111 O 11.9706 0.61442 -1.80636 0
M  V30 112 C 9.1106 0.664848 -3.38635 0
M  V30 113 C 8.2236 -0.212175 -4.31479 0
M  V30 114 C 7.3586 0.651022 -5.27196 0
M  V30 115 C 6.3976 -0.227247 -6.11678 0
M  V30 116 N 5.5346 0.595127 -6.99573 0
M  V30 117 H 10.3746 -0.996978 -2.80828 0
M  V30 118 H 7.9116 -0.503206 -1.38225 0
M  V30 119 H 9.8696 1.17645 -4.00269 0
M  V30 120 H 8.4996 1.43557 -2.89122 0
M  V30 121 H 7.5516 -0.841777 -3.70969 0
M  V30 122 H 8.8636 -0.888751 -4.90818 0
M  V30 123 H 8.0176 1.2283 -5.94136 0
M  V30 124 H 6.7566 1.36121 -4.68319 0
M  V30 125 H 5.7616 -0.816904 -5.43697 0
M  V30 126 H 6.9866 -0.93509 -6.72631 0
M  V30 127 H 4.9326 1.28955 -6.432 0
M  V30 128 H 4.8496 -0.0236952 -7.55996 0
M  V30 129 H 6.1176 1.15613 -7.70879 0
M  V30 130 N 10.3467 1.47872 -0.545128 0
M  V30 131 C 11.2767 2.32661 0.197793 0
M  V30 132 C 12.2577 1.43041 0.920504 0
M  V30 133 O 13.4427 1.71912 0.90333 0
M  V30 134 C 10.5727 3.24569 1.23582 0
M  V30 135 C 9.5267 4.23333 0.630323 0
M  V30 136 C 8.8527 5.0448 1.77211 0
M  V30 137 C 10.1527 5.20704 -0.407974 0
M  V30 138 H 11.8467 2.95024 -0.510045 0
M  V30 139 H 9.3927 1.4187 -0.246731 0
M  V30 140 H 11.3457 3.8272 1.76362 0
M  V30 141 H 10.0697 2.60236 1.97344 0
M  V30 142 H 8.7287 3.6639 0.123922 0
M  V30 143 H 8.3767 4.36561 2.49847 0
M  V30 144 H 8.0767 5.71339 1.37281 0
M  V30 145 H 9.6007 5.65487 2.3034 0
M  V30 146 H 11.0147 5.7329 0.033305 0
M  V30 147 H 9.4117 5.95699 -0.725486 0
M  V30 148 H 10.4817 4.66917 -1.30828 0
M  V30 149 N 11.8248 0.280983 1.55075 0
M  V30 150 C 13.0528 -0.337293 2.04132 0
M  V30 151 C 13.4678 -1.4903 1.15912 0
M  V30 152 O 12.8248 -1.81606 0.180459 0
M  V30 153 C 12.8758 -0.812706 3.52246 0
M  V30 154 O 12.5968 0.294387 4.3711 0
M  V30 155 C 14.0978 -1.4982 4.17216 0
M  V30 156 H 11.3178 -0.0761638 0.666663 0
M  V30 157 H 13.8618 0.414787 2.00249 0
M  V30 158 H 12.0168 -1.51486 3.56554 0
M  V30 159 H 12.4308 -0.0721325 5.2445 0
M  V30 160 H 13.9048 -1.7822 5.22438 0
M  V30 161 H 14.3818 -2.43168 3.65741 0
M  V30 162 H 14.9878 -0.839742 4.16927 0
M  V30 163 N 13.3029 -1.57598 0.00835791 0
M  V30 164 C 14.5799 -1.82172 -0.712235 0
M  V30 165 C 14.9599 -0.887873 -1.9152 0
M  V30 166 O 14.3079 0.06146 -2.28417 0
M  V30 167 C 14.5179 -3.30875 -1.11008 0
M  V30 168 C 15.8659 -3.96826 -1.51044 0
M  V30 169 O 16.8899 -3.35248 -1.20364 0
M  V30 170 O 15.7489 -5.05318 -2.08125 0
M  V30 171 H 12.8429 -0.750435 -0.347529 0
M  V30 172 H 15.3889 -1.69665 0.0344523 0
M  V30 173 H 14.1609 -3.90481 -0.252982 0
M  V30 174 H 13.7839 -3.48412 -1.9156 0
M  V30 175 N 14.781 0.264519 -1.55364 0
M  V30 176 C 15.711 1.33121 -1.91836 0
M  V30 177 C 16.692 1.51101 -0.781192 0
M  V30 178 O 17.877 1.64003 -1.04003 0
M  V30 179 C 15.007 2.68921 -2.19769 0
M  V30 180 C 13.961 2.65661 -3.35571 0
M  V30 181 C 13.287 4.05093 -3.49004 0
M  V30 182 C 14.587 2.24187 -4.71739 0
M  V30 183 H 16.281 1.02844 -2.81182 0
M  V30 184 H 13.827 0.493286 -1.35287 0
M  V30 185 H 15.78 3.43663 -2.43872 0
M  V30 186 H 14.504 3.00799 -1.27231 0
M  V30 187 H 13.163 1.93377 -3.1145 0
M  V30 188 H 12.811 4.34206 -2.53917 0
M  V30 189 H 12.511 4.03804 -4.26868 0
M  V30 190 H 14.035 4.81561 -3.75408 0
M  V30 191 H 15.449 2.88654 -4.9533 0
M  V30 192 H 13.846 2.34044 -5.52579 0
M  V30 193 H 14.916 1.19327 -4.69988 0
M  V30 194 N 16.2591 1.48442 0.529413 0
M  V30 195 C 17.2221 1.62524 1.61612 0
M  V30 196 C 18.2221 0.498509 1.52877 0
M  V30 197 O 19.4121 0.76431 1.56537 0
M  V30 198 C 16.5441 1.59597 3.01233 0
M  V30 199 H 17.7371 2.59423 1.50465 0
M  V30 200 H 15.2901 1.37047 0.751514 0
M  V30 201 H 16.0251 0.641781 3.17886 0
M  V30 202 H 15.8101 2.41397 3.08982 0
M  V30 203 H 17.3001 1.72646 3.80241 0
M  V30 204 N 17.7372 -0.778329 1.37039 0
M  V30 205 C 18.7002 -1.87301 1.32102 0
M  V30 206 C 19.7002 -1.59198 0.226405 0
M  V30 207 O 20.8902 -1.67403 0.481861 0
M  V30 208 C 18.0222 -3.24309 1.05055 0
M  V30 209 H 19.2152 -1.93093 2.29467 0
M  V30 210 H 16.7682 -0.977358 1.21973 0
M  V30 211 H 17.5032 -3.24196 0.0819373 0
M  V30 212 H 17.2882 -3.46098 1.84279 0
M  V30 213 H 18.7782 -4.04382 1.04234 0
M  V30 214 N 19.2153 -1.21501 -1.00376 0
M  V30 215 C 20.4643 -1.02718 -1.73586 0
M  V30 216 C 20.7773 0.439589 -1.90596 0
M  V30 217 O 21.9833 0.746848 -2.61026 0
M  V30 218 C 20.4393 -1.78929 -3.1227 0
M  V30 219 C 20.0473 -3.29783 -3.03228 0
M  V30 220 C 21.7913 -1.68557 -3.89601 0
M  V30 221 C 19.6983 -3.98479 -4.36999 0
M  V30 222 H 18.6283 -0.380733 -0.650814 0
M  V30 223 H 21.2793 -1.45248 -1.1214 0
M  V30 224 H 19.6613 -1.29192 -3.74333 0
M  V30 225 H 20.8353 -3.86832 -2.50395 0
M  V30 226 H 19.1503 -3.40711 -2.39385 0
M  V30 227 H 21.7473 -2.17211 -4.88593 0
M  V30 228 H 22.0903 -0.644021 -4.11288 0
M  V30 229 H 22.6233 -2.15778 -3.34193 0
M  V30 230 H 19.3623 -5.02841 -4.20513 0
M  V30 231 H 18.8823 -3.46219 -4.89788 0
M  V30 232 H 20.5613 -4.03462 -5.05794 0
M  V30 233 N 20.6934 1.19889 -1.02296 0
M  V30 234 C 21.6034 2.26571 -0.608508 0
M  V30 235 C 22.6194 1.70299 0.356964 0
M  V30 236 O 23.7954 2.00235 0.216326 0
M  V30 237 C 20.8604 3.46677 0.0402814 0
M  V30 238 C 19.9214 4.18153 -0.97194 0
M  V30 239 C 19.1544 5.32525 -0.354016 0
M  V30 240 O 19.3774 5.64112 0.844604 0
M  V30 241 O 18.3114 5.92242 -1.07391 0
M  V30 242 H 22.1374 2.64251 -1.49684 0
M  V30 243 H 19.7224 1.26629 -0.792809 0
M  V30 244 H 21.6044 4.19475 0.402324 0
M  V30 245 H 20.2794 3.10858 0.902707 0
M  V30 246 H 19.1864 3.47499 -1.38546 0
M  V30 247 H 20.5194 4.57927 -1.80454 0
M  V30 248 N 22.1715 0.800033 1.35784 0
M  V30 249 C 23.4195 0.376597 1.9856 0
M  V30 250 C 23.7405 -1.05812 1.63795 0
M  V30 251 O 23.0105 -1.73103 0.917171 0
M  V30 252 H 21.5905 0.136261 0.734467 0
M  V30 253 H 24.2525 1.02442 1.65806 0
M  V30 254 H 23.3485 0.477002 3.08433 0
M  V30 255 N 23.6496 -1.47581 0.552962 0
M  V30 256 C 24.9266 -1.95563 -0.0381515 0
M  V30 257 C 25.3066 -1.49552 -1.48988 0
M  V30 258 O 24.6546 -0.732414 -2.16444 0
M  V30 259 C 24.8646 -3.48848 0.102919 0
M  V30 260 C 26.2126 -4.24577 -0.0446082 0
M  V30 261 O 27.2366 -3.56187 0.0302548 0
M  V30 262 O 26.0956 -5.46116 -0.204923 0
M  V30 263 H 23.1896 -0.824321 -0.0665067 0
M  V30 264 H 25.7356 -1.58001 0.619186 0
M  V30 265 H 24.5076 -3.75129 1.11328 0
M  V30 266 H 24.1306 -3.93165 -0.592224 0
M  V30 267 N 25.1277 -0.289203 -1.54924 0
M  V30 268 C 26.0377 0.601863 -2.26748 0
M  V30 269 C 27.0537 1.15834 -1.2984 0
M  V30 270 O 28.2297 1.18564 -1.62802 0
M  V30 271 C 25.2947 1.76299 -2.98529 0
M  V30 272 C 24.3557 1.24178 -4.10948 0
M  V30 273 C 23.5887 2.34757 -4.79296 0
M  V30 274 O 23.8117 3.54411 -4.46933 0
M  V30 275 O 22.7457 2.02115 -5.66951 0
M  V30 276 H 26.5717 0.0195879 -3.03694 0
M  V30 277 H 24.1567 -0.0560868 -1.49295 0
M  V30 278 H 26.0387 2.43973 -3.43592 0
M  V30 279 H 24.7137 2.33209 -2.24488 0
M  V30 280 H 23.6207 0.531104 -3.70311 0
M  V30 281 H 24.9537 0.718252 -4.86931 0
M  V30 282 N 26.6058 1.57591 -0.0167156 0
M  V30 283 C 27.8458 1.93145 0.668902 0
M  V30 284 C 28.2098 0.892406 1.7 0
M  V30 285 O 29.4108 1.13373 2.43721 0
M  V30 286 C 27.6818 3.33678 1.28039 0
M  V30 287 S 29.2408 3.91142 1.9888 0
M  V30 288 H 26.0588 0.67593 0.220545 0
M  V30 289 H 28.6608 1.95347 -0.0774105 0
M  V30 290 H 27.3648 4.07126 0.517339 0
M  V30 291 H 26.8958 3.3489 2.06427 0
M  V30 292 H 28.9108 3.73571 3.26587 0
M  V30 293 N 28.0839 -0.256276 1.55502 0
M  V30 294 C 29.3329 -0.983486 1.76098 0
M  V30 295 C 29.6459 -1.86837 0.578896 0
M  V30 296 O 30.8519 -2.63163 0.667648 0
M  V30 297 C 29.3079 -1.79868 3.1173 0
M  V30 298 C 28.9159 -0.961648 4.37557 0
M  V30 299 C 30.6599 -2.51919 3.41668 0
M  V30 300 C 28.5669 -1.77219 5.64223 0
M  V30 301 H 27.4969 -0.370936 0.656447 0
M  V30 302 H 30.1479 -0.238492 1.81944 0
M  V30 303 H 28.5299 -2.58527 2.99966 0
M  V30 304 H 29.7039 -0.218048 4.60284 0
M  V30 305 H 28.0189 -0.354913 4.14885 0
M  V30 306 H 30.6159 -3.12998 4.33516 0
M  V30 307 H 30.9589 -3.23059 2.62562 0
M  V30 308 H 31.4919 -1.80278 3.54605 0
M  V30 309 H 28.2309 -1.10471 6.46124 0
M  V30 310 H 27.7509 -2.49132 5.45613 0
M  V30 311 H 29.4299 -2.34169 6.03137 0
M  V30 312 N 29.562 -1.4872 -0.521534 0
M  V30 313 C 30.492 -1.66771 -1.63431 0
M  V30 314 C 31.473 -0.516499 -1.62069 0
M  V30 315 O 32.658 -0.750013 -1.79132 0
M  V30 316 C 29.788 -1.71515 -3.01993 0
M  V30 317 C 28.742 -2.86222 -3.18216 0
M  V30 318 C 28.068 -2.76061 -4.57924 0
M  V30 319 C 29.368 -4.27419 -3.00184 0
M  V30 320 H 31.062 -2.59932 -1.48579 0
M  V30 321 H 28.608 -1.25089 -0.713358 0
M  V30 322 H 30.561 -1.82731 -3.7972 0
M  V30 323 H 29.285 -0.749393 -3.17886 0
M  V30 324 H 27.944 -2.74575 -2.42908 0
M  V30 325 H 27.592 -1.77437 -4.70665 0
M  V30 326 H 27.292 -3.53037 -4.69722 0
M  V30 327 H 28.816 -2.89256 -5.37739 0
M  V30 328 H 30.23 -4.39855 -3.67697 0
M  V30 329 H 28.627 -5.05458 -3.2347 0
M  V30 330 H 29.697 -4.43293 -1.96518 0
M  V30 331 N 31.0401 0.771051 -1.3745 0
M  V30 332 C 31.9871 1.88435 -1.3327 0
M  V30 333 C 32.9571 1.64914 -0.198136 0
M  V30 334 O 34.1421 1.86821 -0.387606 0
M  V30 335 C 31.2821 3.25509 -1.14622 0
M  V30 336 C 30.3951 3.60979 -2.37314 0
M  V30 337 C 29.5301 4.87265 -2.11533 0
M  V30 338 C 28.5691 5.15469 -3.30088 0
M  V30 339 N 27.7061 6.32944 -3.03853 0
M  V30 340 H 32.5461 1.91344 -2.28455 0
M  V30 341 H 30.0831 0.935466 -1.13523 0
M  V30 342 H 32.0411 4.04582 -1.01831 0
M  V30 343 H 30.6711 3.21974 -0.230837 0
M  V30 344 H 29.7231 2.76885 -2.60842 0
M  V30 345 H 31.0351 3.77759 -3.25729 0
M  V30 346 H 30.1891 5.74244 -1.95777 0
M  V30 347 H 28.9281 4.7259 -1.20457 0
M  V30 348 H 27.9331 4.26966 -3.46382 0
M  V30 349 H 29.1581 5.32052 -4.22016 0
M  V30 350 H 27.1041 6.19625 -2.15407 0
M  V30 351 H 27.0211 6.50143 -3.85812 0
M  V30 352 H 28.2891 7.22857 -2.91716 0
M  V30 353 N 32.5182 1.22032 0.997298 0
M  V30 354 C 33.7462 1.06841 1.7718 0
M  V30 355 C 34.1612 -0.381325 1.84909 0
M  V30 356 O 33.5182 -1.26437 1.31605 0
M  V30 357 C 33.5692 1.66814 3.20711 0
M  V30 358 O 33.2902 3.06116 3.13408 0
M  V30 359 C 34.7912 1.56838 4.14628 0
M  V30 360 H 32.0112 0.374782 0.556578 0
M  V30 361 H 34.5552 1.61532 1.2541 0
M  V30 362 H 32.7102 1.16196 3.69564 0
M  V30 363 H 33.1242 3.34926 4.0364 0
M  V30 364 H 34.5982 2.03532 5.13107 0
M  V30 365 H 35.0752 0.524155 4.36061 0
M  V30 366 H 35.6812 2.06741 3.7167 0
M  V30 367 N 33.9963 -1.19345 1.0293 0
M  V30 368 C 35.2443 -1.88665 0.724574 0
M  V30 369 C 35.5653 -1.80036 -0.749144 0
M  V30 370 O 34.8353 -1.2111 -1.53978 0
M  V30 371 H 33.4153 -0.698406 0.265025 0
M  V30 372 H 36.0773 -1.44885 1.30362 0
M  V30 373 H 35.1733 -2.94987 1.01926 0
M  V30 374 N 35.4744 -0.807222 -1.35358 0
M  V30 375 C 36.4044 -0.232509 -2.3234 0
M  V30 376 C 37.3854 0.642386 -1.57504 0
M  V30 377 O 38.5704 0.572526 -1.85569 0
M  V30 378 C 35.7004 0.619238 -3.41735 0
M  V30 379 C 34.6544 -0.157215 -4.27711 0
M  V30 380 C 33.9804 0.816273 -5.28433 0
M  V30 381 C 35.2804 -1.35656 -5.04376 0
M  V30 382 H 36.9744 -1.04276 -2.80654 0
M  V30 383 H 34.5204 -0.50288 -1.34934 0
M  V30 384 H 36.4734 1.03137 -4.08584 0
M  V30 385 H 35.1974 1.46239 -2.92031 0
M  V30 386 H 33.8564 -0.550525 -3.62443 0
M  V30 387 H 33.5044 1.65494 -4.74996 0
M  V30 388 H 33.2044 0.301067 -5.86828 0
M  V30 389 H 34.7284 1.22659 -5.98153 0
M  V30 390 H 36.1424 -1.01927 -5.64166 0
M  V30 391 H 34.5394 -1.8063 -5.7227 0
M  V30 392 H 35.6094 -2.14288 -4.34981 0
M  V30 393 N 36.9525 1.47285 -0.560781 0
M  V30 394 C 37.9155 2.28535 0.174488 0
M  V30 395 C 38.9155 1.37153 0.839388 0
M  V30 396 O 40.1055 1.59748 0.694702 0
M  V30 397 C 37.2375 3.16934 1.25561 0
M  V30 398 H 38.4305 2.95012 -0.539262 0
M  V30 399 H 35.9835 1.53034 -0.317865 0
M  V30 400 H 36.7185 2.55157 2.00164 0
M  V30 401 H 36.5035 3.8419 0.783604 0
M  V30 402 H 37.9935 3.78143 1.77193 0
M  V30 403 N 38.4306 0.297415 1.54768 0
M  V30 404 C 39.7076 -0.365847 1.92148 0
M  V30 405 C 40.0876 -1.71975 1.22424 0
M  V30 406 O 39.4356 -2.25666 0.358739 0
M  V30 407 C 39.6456 -0.484056 3.45627 0
M  V30 408 C 40.9936 -0.756594 4.17805 0
M  V30 409 O 42.0176 -0.568007 3.51642 0
M  V30 410 O 40.8766 -1.11863 5.34929 0
M  V30 411 H 37.9706 -0.203919 0.801465 0
M  V30 412 H 40.5166 0.34521 1.66152 0
M  V30 413 H 39.2886 0.467865 3.88493 0
M  V30 414 H 38.9116 -1.24372 3.77647 0
M  V30 415 N 39.9087 -1.5758 0.0250728 0
M  V30 416 C 41.1577 -1.90811 -0.653767 0
M  V30 417 C 41.4707 -0.90273 -1.73523 0
M  V30 418 O 42.6767 -1.12614 -2.47043 0
M  V30 419 C 41.1327 -3.38804 -1.21409 0
M  V30 420 C 40.7407 -4.47692 -0.166126 0
M  V30 421 C 42.4847 -3.81108 -1.86967 0
M  V30 422 C 40.3917 -5.86779 -0.737856 0
M  V30 423 H 39.3217 -0.712063 -0.247956 0
M  V30 424 H 41.9727 -1.83281 0.0897137 0
M  V30 425 H 40.3547 -3.41252 -2.00905 0
M  V30 426 H 41.5287 -4.56797 0.606079 0
M  V30 427 H 39.8437 -4.14565 0.390466 0
M  V30 428 H 42.4407 -4.82375 -2.30692 0
M  V30 429 H 42.7837 -3.15953 -2.71071 0
M  V30 430 H 43.3167 -3.81065 -1.14167 0
M  V30 431 H 40.0557 -6.55468 0.0649577 0
M  V30 432 H 39.5757 -5.81288 -1.47864 0
M  V30 433 H 41.2547 -6.35223 -1.22884 0
M  V30 434 N 41.3868 0.248026 -1.55636 0
M  V30 435 C 42.3498 1.29044 -1.89421 0
M  V30 436 C 43.3498 1.41134 -0.770581 0
M  V30 437 O 44.5398 1.39854 -1.03858 0
M  V30 438 C 41.6718 2.66831 -2.12165 0
M  V30 439 H 42.8648 1.00305 -2.82629 0
M  V30 440 H 40.4178 0.487265 -1.48511 0
M  V30 441 H 41.1528 3.00711 -1.21422 0
M  V30 442 H 40.9378 2.59438 -2.93997 0
M  V30 443 H 42.4278 3.42103 -2.3949 0
M  V30 444 N 42.8649 1.48995 0.513639 0
M  V30 445 C 44.1419 1.48338 1.27495 0
M  V30 446 C 44.5219 0.204065 2.10111 0
M  V30 447 O 43.8699 -0.813881 2.13514 0
M  V30 448 C 44.0799 2.75498 2.14247 0
M  V30 449 C 45.4279 3.24484 2.73852 0
M  V30 450 O 46.4519 2.76528 2.24523 0
M  V30 451 O 45.3109 4.07974 3.6362 0
M  V30 452 H 42.4049 0.593149 0.576284 0
M  V30 453 H 44.9509 1.61246 0.528948 0
M  V30 454 H 43.7229 3.60109 1.53092 0
M  V30 455 H 43.3459 2.6539 2.96064 0
M  V30 456 N 44.343 -0.763751 1.37857 0
M  V30 457 C 45.293 -1.86765 1.30777 0
M  V30 458 C 46.277 -1.59726 0.194015 0
M  V30 459 O 47.469 -1.7172 0.42911 0
M  V30 460 C 44.598 -3.24343 1.12502 0
M  V30 461 C 43.684 -3.57307 2.28456 0
M  V30 462 N 44.075 -3.61398 3.53871 0
M  V30 463 C 42.373 -3.87517 2.20786 0
M  V30 464 C 43.074 -3.91339 4.30382 0
M  V30 465 N 42.05 -4.07649 3.59615 0
M  V30 466 H 45.852 -1.88191 2.25746 0
M  V30 467 H 43.366 -0.9606 1.30944 0
M  V30 468 H 45.363 -4.03327 1.05514 0
M  V30 469 H 44.023 -3.24175 0.184574 0
M  V30 470 H 45.034 -3.43407 3.87675 0
M  V30 471 H 41.711 -3.95125 1.34844 0
M  V30 472 H 43.101 -4.01213 5.3896 0
M  V30 473 N 45.8211 -1.22559 -0.990812 0
M  V30 474 C 47.0681 -1.05141 -1.73065 0
M  V30 475 C 47.3961 0.413191 -1.9006 0
M  V30 476 O 46.6511 1.32257 -1.44245 0
M  V30 477 C 46.9501 -1.71011 -3.13831 0
M  V30 478 C 46.6161 -3.20911 -3.16745 0
M  V30 479 C 45.2781 -3.61812 -3.17247 0
M  V30 480 C 47.6301 -4.16846 -3.12872 0
M  V30 481 C 44.9581 -4.97127 -3.1158 0
M  V30 482 C 47.3101 -5.5214 -3.08746 0
M  V30 483 C 45.9741 -5.92419 -3.07565 0
M  V30 484 H 45.2441 -0.384738 -0.633291 0
M  V30 485 H 47.8911 -1.5235 -1.16025 0
M  V30 486 H 46.1961 -1.16133 -3.74193 0
M  V30 487 H 47.8931 -1.55023 -3.69823 0
M  V30 488 H 44.4831 -2.88344 -3.17105 0
M  V30 489 H 48.6671 -3.86263 -3.11632 0
M  V30 490 H 43.9231 -5.27562 -3.09012 0
M  V30 491 H 48.0971 -6.26201 -3.04705 0
M  V30 492 H 45.7241 -6.97236 -3.02929 0
M  V30 493 N 47.2992 1.18797 -1.03562 0
M  V30 494 C 48.5472 1.88278 -0.734569 0
M  V30 495 C 48.8682 1.8043 0.739586 0
M  V30 496 O 48.1382 1.21925 1.53333 0
M  V30 497 H 46.7182 0.696991 -0.268725 0
M  V30 498 H 49.3802 1.44192 -1.31129 0
M  V30 499 H 48.4762 2.94443 -1.03489 0
M  V30 500 N 48.7773 0.814389 1.34928 0
M  V30 501 C 50.0243 0.398423 1.98542 0
M  V30 502 C 50.3523 -1.03638 1.64589 0
M  V30 503 O 49.6073 -1.73509 0.90516 0
M  V30 504 C 49.9063 0.537781 3.53331 0
M  V30 505 C 49.5723 1.93704 4.07172 0
M  V30 506 C 48.2343 2.31984 4.21589 0
M  V30 507 C 50.5863 2.85213 4.36237 0
M  V30 508 C 47.9143 3.61125 4.62391 0
M  V30 509 C 50.2663 4.13809 4.78482 0
M  V30 510 C 48.9303 4.52077 4.91104 0
M  V30 511 H 48.2003 0.145793 0.726516 0
M  V30 512 H 50.8473 1.03669 1.61012 0
M  V30 513 H 49.1523 -0.183906 3.91368 0
M  V30 514 H 50.8493 0.196588 4.00518 0
M  V30 515 H 47.4393 1.62966 3.96409 0
M  V30 516 H 51.6233 2.56885 4.24645 0
M  V30 517 H 46.8793 3.90612 4.70353 0
M  V30 518 H 51.0533 4.84811 4.99932 0
M  V30 519 H 48.6803 5.52196 5.22478 0
M  V30 520 N 50.2554 -1.46986 0.568584 0
M  V30 521 C 51.4834 -2.0683 0.0539956 0
M  V30 522 C 51.8984 -1.41953 -1.24478 0
M  V30 523 O 51.2554 -0.519933 -1.74937 0
M  V30 524 C 51.3064 -3.61254 -0.133362 0
M  V30 525 O 51.0274 -4.237 1.11399 0
M  V30 526 C 52.5284 -4.37992 -0.683927 0
M  V30 527 H 49.7484 -0.669058 0.0510141 0
M  V30 528 H 52.2924 -1.88824 0.785234 0
M  V30 529 H 50.4474 -3.78735 -0.81477 0
M  V30 530 H 50.8614 -5.16388 0.91888 0
M  V30 531 H 52.3354 -5.46684 -0.764263 0
M  V30 532 H 52.8124 -4.05058 -1.69778 0
M  V30 533 H 53.4184 -4.25283 -0.0378494 0
M  V30 534 N 51.7335 -0.305618 -1.54608 0
M  V30 535 C 52.9815 0.301701 -1.99835 0
M  V30 536 C 53.3025 1.54054 -1.19551 0
M  V30 537 O 52.5725 1.93702 -0.292658 0
M  V30 538 H 51.1525 0.114468 -0.738178 0
M  V30 539 H 53.8145 -0.418016 -1.90364 0
M  V30 540 H 52.9105 0.570548 -3.06841 0
M  V30 541 N 53.2116 1.57565 -0.0334293 0
M  V30 542 C 54.4416 1.95996 0.653398 0
M  V30 543 C 54.8496 0.908749 1.65947 0
M  V30 544 O 54.1926 -0.117471 1.83324 0
M  V30 545 C 54.2546 3.30589 1.41249 0
M  V30 546 C 53.9186 4.53503 0.564263 0
M  V30 547 C 54.9156 5.19647 -0.16225 0
M  V30 548 C 52.6006 4.99801 0.500398 0
M  V30 549 C 54.5946 6.30412 -0.941255 0
M  V30 550 C 52.2816 6.10448 -0.282308 0
M  V30 551 C 53.2796 6.75612 -1.00184 0
M  V30 552 O 52.9676 7.84134 -1.77171 0
M  V30 553 H 52.6996 0.65027 0.184728 0
M  V30 554 H 55.2536 2.05199 -0.0907841 0
M  V30 555 H 53.4836 3.17888 2.20191 0
M  V30 556 H 55.1726 3.53892 1.98784 0
M  V30 557 H 55.9386 4.84846 -0.12227 0
M  V30 558 H 51.8176 4.48883 1.05002 0
M  V30 559 H 55.3616 6.81208 -1.50339 0
M  V30 560 H 51.2586 6.44686 -0.323989 0
M  V30 561 H 52.0266 8.00822 -1.69194 0
M  V30 562 N 54.6897 -0.239769 1.55765 0
M  V30 563 C 55.6527 -1.28038 1.90103 0
M  V30 564 C 56.6527 -1.40723 0.778055 0
M  V30 565 O 57.8427 -1.39301 1.04599 0
M  V30 566 C 54.9747 -2.65702 2.13577 0
M  V30 567 H 56.1677 -0.988048 2.83157 0
M  V30 568 H 53.7207 -0.479382 1.48767 0
M  V30 569 H 54.4557 -3.00063 1.23015 0
M  V30 570 H 54.2407 -2.57875 2.95369 0
M  V30 571 H 55.7307 -3.40828 2.41301 0
M  V30 572 N 56.1678 -1.49265 -0.50573 0
M  V30 573 C 57.3978 -1.61979 -1.28243 0
M  V30 574 C 57.8058 -0.288576 -1.86986 0
M  V30 575 O 57.1488 0.735408 -1.68337 0
M  V30 576 C 57.2108 -2.62632 -2.45489 0
M  V30 577 C 56.8748 -4.071 -2.07651 0
M  V30 578 C 57.8718 -4.94049 -1.61901 0
M  V30 579 C 55.5568 -4.52801 -2.17431 0
M  V30 580 C 57.5508 -6.24736 -1.26428 0
M  V30 581 C 55.2378 -5.83503 -1.8157 0
M  V30 582 C 56.2358 -6.69294 -1.36142 0
M  V30 583 O 55.9238 -7.9756 -1.00764 0
M  V30 584 H 55.6558 -0.54834 -0.395347 0
M  V30 585 H 58.2098 -1.96002 -0.614204 0
M  V30 586 H 56.4398 -2.2378 -3.15372 0
M  V30 587 H 58.1288 -2.64925 -3.07522 0
M  V30 588 H 58.8948 -4.5997 -1.53795 0
M  V30 589 H 54.7738 -3.86196 -2.51742 0
M  V30 590 H 58.3178 -6.91652 -0.908992 0
M  V30 591 H 54.2148 -6.17112 -1.89324 0
M  V30 592 H 54.9828 -8.10529 -1.13952 0
M  V30 593 N 57.6459 0.756429 -1.3826 0
M  V30 594 C 58.5759 1.88374 -1.37976 0
M  V30 595 C 59.5569 1.68311 -0.246082 0
M  V30 596 O 60.7419 1.88944 -0.44874 0
M  V30 597 C 57.8719 3.25864 -1.20125 0
M  V30 598 C 56.8259 3.60523 -2.30666 0
M  V30 599 C 56.1519 4.9672 -1.97923 0
M  V30 600 C 57.4519 3.65692 -3.72916 0
M  V30 601 H 59.1459 1.88869 -2.32312 0
M  V30 602 H 56.6919 0.907272 -1.11824 0
M  V30 603 H 58.6449 4.0438 -1.18552 0
M  V30 604 H 57.3689 3.25841 -0.222498 0
M  V30 605 H 56.0279 2.84324 -2.3142 0
M  V30 606 H 55.6759 4.93253 -0.985393 0
M  V30 607 H 55.3759 5.20878 -2.71955 0
M  V30 608 H 56.8999 5.77618 -1.97964 0
M  V30 609 H 58.3139 4.34328 -3.74208 0
M  V30 610 H 56.7109 4.01358 -4.4613 0
M  V30 611 H 57.7809 2.65987 -4.05436 0
M  V30 612 N 59.124 1.23083 0.984299 0
M  V30 613 C 60.074 0.975749 2.06066 0
M  V30 614 C 61.058 -0.0768251 1.60716 0
M  V30 615 O 62.25 0.134805 1.76486 0
M  V30 616 C 59.379 0.564673 3.38624 0
M  V30 617 C 58.465 1.65244 3.90583 0
M  V30 618 N 58.856 2.88193 4.15666 0
M  V30 619 C 57.154 1.52612 4.19077 0
M  V30 620 C 57.855 3.58593 4.58024 0
M  V30 621 N 56.831 2.86093 4.62225 0
M  V30 622 H 60.633 1.90957 2.23411 0
M  V30 623 H 58.147 1.12963 1.16675 0
M  V30 624 H 60.144 0.36322 4.15315 0
M  V30 625 H 58.804 -0.362147 3.22674 0
M  V30 626 H 59.815 3.24537 4.03604 0
M  V30 627 H 56.492 0.666121 4.12152 0
M  V30 628 H 57.882 4.63974 4.85982 0
M  V30 629 N 60.6021 -1.18246 1.0419 0
M  V30 630 C 61.8511 -1.87588 0.741194 0
M  V30 631 C 62.1641 -1.81303 -0.734066 0
M  V30 632 O 63.3701 -2.46019 -1.14834 0
M  V30 633 C 61.8261 -3.36538 1.27555 0
M  V30 634 C 61.4341 -3.51349 2.77953 0
M  V30 635 C 63.1781 -4.11273 1.05143 0
M  V30 636 C 61.0851 -4.94265 3.2474 0
M  V30 637 H 60.0151 -0.702622 0.273565 0
M  V30 638 H 62.6661 -1.33601 1.25789 0
M  V30 639 H 61.0481 -3.9 0.686703 0
M  V30 640 H 62.2221 -3.08153 3.42605 0
M  V30 641 H 60.5371 -2.90022 2.98791 0
M  V30 642 H 63.1341 -5.16689 1.37611 0
M  V30 643 H 63.4771 -4.16298 -0.0112774 0
M  V30 644 H 64.0101 -3.63987 1.60495 0
M  V30 645 H 60.7491 -4.94408 4.30396 0
M  V30 646 H 60.2691 -5.38172 2.64823 0
M  V30 647 H 61.9481 -5.62987 3.18834 0
M  V30 648 N 62.0802 -0.821533 -1.34494 0
M  V30 649 C 63.0122 -0.199946 -2.28326 0
M  V30 650 C 64.0252 0.609377 -1.50965 0
M  V30 651 O 65.2142 0.439285 -1.7301 0
M  V30 652 C 62.3142 0.738431 -3.30757 0
M  V30 653 C 61.4872 -0.0277632 -4.37391 0
M  V30 654 C 60.5462 0.831332 -5.19591 0
M  V30 655 O 59.5722 0.276822 -5.68526 0
M  V30 656 N 60.7742 2.15132 -5.39165 0
M  V30 657 H 63.5392 -1.00609 -2.82308 0
M  V30 658 H 61.1002 -0.678366 -1.47003 0
M  V30 659 H 63.0922 1.31773 -3.82646 0
M  V30 660 H 61.6622 1.44533 -2.7718 0
M  V30 661 H 60.8822 -0.788359 -3.86236 0
M  V30 662 H 62.1702 -0.555251 -5.05761 0
M  V30 663 H 61.5682 2.62559 -5.01078 0
M  V30 664 H 60.1252 2.6795 -5.94177 0
M  V30 665 N 63.5583 1.46682 -0.576371 0
M  V30 666 C 64.5083 2.27278 0.181288 0
M  V30 667 C 65.4923 1.35497 0.867721 0
M  V30 668 O 66.6843 1.59717 0.762863 0
M  V30 669 C 63.8133 3.21703 1.19841 0
M  V30 670 C 62.8993 4.20969 0.51442 0
M  V30 671 N 63.2903 5.03999 -0.426407 0
M  V30 672 C 61.5883 4.39373 0.765963 0
M  V30 673 C 62.2893 5.75812 -0.825565 0
M  V30 674 N 61.2653 5.43315 -0.176116 0
M  V30 675 H 65.0673 2.88863 -0.541785 0
M  V30 676 H 62.5813 1.57455 -0.397697 0
M  V30 677 H 64.5783 3.78145 1.75533 0
M  V30 678 H 63.2383 2.61677 1.92238 0
M  V30 679 H 64.2493 5.11659 -0.8016 0
M  V30 680 H 60.9263 3.90502 1.47698 0
M  V30 681 H 62.3163 6.52577 -1.59976 0
M  V30 682 N 65.0364 0.313813 1.54444 0
M  V30 683 C 66.4524 -0.0391619 1.59552 0
M  V30 684 C 66.6524 -1.51322 1.33056 0
M  V30 685 O 65.7084 -2.26782 1.11022 0
M  V30 686 C 67.0214 0.370302 2.98411 0
M  V30 687 C 68.5694 0.320139 3.11358 0
M  V30 688 C 69.0444 0.704617 4.52547 0
M  V30 689 N 70.5354 0.657645 4.58508 0
M  V30 690 C 71.2704 0.927453 5.6585 0
M  V30 691 N 70.7664 1.26389 6.81174 0
M  V30 692 N 72.5594 0.853662 5.5558 0
M  V30 693 H 64.7104 1.27433 1.69925 0
M  V30 694 H 66.9734 0.517511 0.794284 0
M  V30 695 H 66.6794 1.39694 3.22767 0
M  V30 696 H 66.5534 -0.269619 3.76235 0
M  V30 697 H 68.9404 -0.697275 2.86744 0
M  V30 698 H 69.0214 0.99486 2.35661 0
M  V30 699 H 68.6654 1.7199 4.77893 0
M  V30 700 H 68.5954 0.00768843 5.26599 0
M  V30 701 H 71.0864 0.409067 3.75679 0
M  V30 702 H 71.3994 1.4554 7.58972 0
M  V30 703 H 69.7444 1.30206 6.82694 0
M  V30 704 H 72.9354 0.590383 4.64362 0
M  V30 705 H 73.1084 1.0673 6.3915 0
M  V30 706 N 66.5145 -1.57545 0.0417849 0
M  V30 707 C 67.4645 -2.07483 -0.945247 0
M  V30 708 C 68.4485 -0.977983 -1.27767 0
M  V30 709 O 69.6405 -1.24142 -1.26166 0
M  V30 710 C 66.7695 -2.61576 -2.22335 0
M  V30 711 C 65.8555 -3.78213 -1.91874 0
M  V30 712 N 66.2465 -4.88344 -1.31733 0
M  V30 713 C 64.5445 -3.8694 -2.21796 0
M  V30 714 C 65.2455 -5.69462 -1.1869 0
M  V30 715 N 64.2215 -5.16771 -1.68666 0
M  V30 716 H 68.0235 -2.90029 -0.475441 0
M  V30 717 H 65.5375 -1.61581 -0.162911 0
M  V30 718 H 67.5345 -2.95651 -2.93932 0
M  V30 719 H 66.1945 -1.80465 -2.69931 0
M  V30 720 H 67.2055 -5.08335 -0.990729 0
M  V30 721 H 63.8825 -3.16757 -2.71977 0
M  V30 722 H 65.2725 -6.68023 -0.720793 0
M  V30 723 N 67.9926 0.231505 -1.5589 0
M  V30 724 C 69.2416 0.955346 -1.7764 0
M  V30 725 C 69.5546 1.85893 -0.608546 0
M  V30 726 O 70.7606 2.62067 -0.70943 0
M  V30 727 C 69.2166 1.74886 -3.14552 0
M  V30 728 C 68.8246 0.891915 -4.39032 0
M  V30 729 C 70.5686 2.46452 -3.45633 0
M  V30 730 C 68.4756 1.68221 -5.66971 0
M  V30 731 H 67.4056 0.360446 -0.662265 0
M  V30 732 H 70.0566 0.209516 -1.823 0
M  V30 733 H 68.4386 2.53723 -3.04041 0
M  V30 734 H 69.6126 0.144793 -4.60572 0
M  V30 735 H 67.9276 0.288863 -4.15397 0
M  V30 736 H 70.5246 3.06061 -4.38441 0
M  V30 737 H 70.8676 3.18841 -2.67668 0
M  V30 738 H 71.4006 1.74613 -3.57428 0
M  V30 739 H 68.1396 1.00178 -6.478 0
M  V30 740 H 67.6596 2.4042 -5.49507 0
M  V30 741 H 69.3386 2.24544 -6.06786 0
M  V30 742 N 69.4707 1.49531 0.497807 0
M  V30 743 C 70.6987 1.62893 1.27567 0
M  V30 744 C 71.1137 0.301585 1.86376 0
M  V30 745 O 70.4707 -0.713335 1.67982 0
M  V30 746 C 70.5217 2.70013 2.40364 0
M  V30 747 O 70.2427 3.976 1.83972 0
M  V30 748 C 71.7437 2.94109 3.31685 0
M  V30 749 H 68.9637 0.548298 0.386794 0
M  V30 750 H 71.5077 1.95584 0.597245 0
M  V30 751 H 69.6627 2.40092 3.04031 0
M  V30 752 H 70.0767 4.56631 2.58047 0
M  V30 753 H 71.5507 3.72788 4.07104 0
M  V30 754 H 72.0277 2.04147 3.88871 0
M  V30 755 H 72.6337 3.2546 2.73781 0
M  V30 756 N 70.9488 -0.749086 1.3866 0
M  V30 757 C 71.9118 -1.84457 1.36045 0
M  V30 758 C 72.9118 -1.58682 0.260122 0
M  V30 759 O 74.1018 -1.66343 0.517261 0
M  V30 760 C 71.2338 -3.22008 1.11911 0
M  V30 761 H 72.4268 -1.88182 2.33512 0
M  V30 762 H 69.9798 -0.951266 1.24019 0
M  V30 763 H 70.7148 -3.2395 0.150686 0
M  V30 764 H 70.4998 -3.42111 1.91579 0
M  V30 765 H 71.9898 -4.0208 1.12788 0
M  V30 766 N 72.4269 -1.23603 -0.977757 0
M  V30 767 C 73.6729 -1.07129 -1.72195 0
M  V30 768 C 74.0059 0.390501 -1.90233 0
M  V30 769 O 73.2809 1.28902 -1.45653 0
M  V30 770 C 73.5639 -1.80031 -3.11867 0
M  V30 771 C 73.4169 -3.33899 -3.01383 0
M  V30 772 C 74.7359 -1.56492 -4.11337 0
M  V30 773 H 71.8549 -0.390571 -0.624999 0
M  V30 774 H 74.4969 -1.52142 -1.13811 0
M  V30 775 H 72.6469 -1.41768 -3.6171 0
M  V30 776 H 74.3189 -3.81699 -2.59043 0
M  V30 777 H 72.5619 -3.62796 -2.37827 0
M  V30 778 H 73.2329 -3.801 -4.00285 0
M  V30 779 H 75.7089 -1.89757 -3.70313 0
M  V30 780 H 74.5849 -2.09973 -5.07151 0
M  V30 781 H 74.8459 -0.500874 -4.39254 0
M  V30 782 N 73.905 1.17692 -1.04816 0
M  V30 783 C 75.133 1.91786 -0.776254 0
M  V30 784 C 75.548 1.76604 0.667577 0
M  V30 785 O 74.905 1.10067 1.45573 0
M  V30 786 C 74.956 3.42967 -1.14263 0
M  V30 787 O 74.677 3.57678 -2.52978 0
M  V30 788 C 76.178 4.34144 -0.896311 0
M  V30 789 H 73.398 0.608624 -0.282519 0
M  V30 790 H 75.942 1.49268 -1.39783 0
M  V30 791 H 74.097 3.83245 -0.565874 0
M  V30 792 H 74.511 4.51319 -2.67229 0
M  V30 793 H 75.985 5.38744 -1.20244 0
M  V30 794 H 76.462 4.38876 0.168636 0
M  V30 795 H 77.068 3.99574 -1.45672 0
M  V30 796 N 75.3831 0.828654 1.34056 0
M  V30 797 C 76.3311 0.242973 2.31327 0
M  V30 798 C 77.3251 -0.61944 1.57668 0
M  V30 799 O 78.5311 -0.51014 1.7262 0
M  V30 800 H 74.9061 0.059834 0.749616 0
M  V30 801 H 76.8771 1.07809 2.78244 0
M  V30 802 C 75.6261 -0.575733 3.429 0
M  V30 803 H 74.9491 0.0785582 3.99723 0
M  V30 804 H 76.3891 -0.951547 4.13185 0
M  V30 805 C 74.8481 -1.75044 2.87856 0
M  V30 806 O 75.3781 -2.84882 2.83205 0
M  V30 807 N 73.5841 -1.56903 2.44602 0
M  V30 808 H 73.1311 -0.675547 2.48584 0
M  V30 809 H 73.0891 -2.35652 2.08124 0
M  V30 810 N 76.8612 -1.46375 0.584142 0
M  V30 811 C 78.0912 -2.06461 0.0758195 0
M  V30 812 C 78.4992 -1.43322 -1.23512 0
M  V30 813 O 77.8422 -0.533216 -1.75791 0
M  V30 814 C 77.9042 -3.59131 -0.162773 0
M  V30 815 C 77.5682 -4.4447 1.06279 0
M  V30 816 C 78.5652 -4.80918 1.97519 0
M  V30 817 C 76.2502 -4.85584 1.28504 0
M  V30 818 C 78.2442 -5.57309 3.09331 0
M  V30 819 C 75.9312 -5.61734 2.4062 0
M  V30 820 C 76.9292 -5.9751 3.30863 0
M  V30 821 O 76.6172 -6.72121 4.41032 0
M  V30 822 H 76.3492 -0.673745 0.0551725 0
M  V30 823 H 78.9032 -1.88969 0.804984 0
M  V30 824 H 77.1332 -3.74936 -0.946565 0
M  V30 825 H 78.8222 -4.0114 -0.619782 0
M  V30 826 H 79.5882 -4.49732 1.81565 0
M  V30 827 H 75.4672 -4.57187 0.591702 0
M  V30 828 H 79.0112 -5.85152 3.79793 0
M  V30 829 H 74.9082 -5.92334 2.56537 0
M  V30 830 H 75.6762 -6.90547 4.39417 0
M  V30 831 N 78.3393 -0.321999 -1.54275 0
M  V30 832 C 79.2893 0.560185 -2.21011 0
M  V30 833 C 80.2733 1.08283 -1.19011 0
M  V30 834 O 81.4653 1.02011 -1.44647 0
M  V30 835 C 78.5943 1.72137 -2.97025 0
M  V30 836 C 77.6803 1.21369 -4.06363 0
M  V30 837 N 78.0713 0.425566 -5.04007 0
M  V30 838 C 76.3693 1.49255 -4.20284 0
M  V30 839 C 77.0703 0.152601 -5.815 0
M  V30 840 N 76.0463 0.738294 -5.38563 0
M  V30 841 H 79.8483 -0.049265 -2.93859 0
M  V30 842 H 77.3623 -0.127779 -1.61897 0
M  V30 843 H 79.3593 2.36512 -3.43319 0
M  V30 844 H 78.0193 2.33431 -2.25699 0
M  V30 845 H 79.0303 0.068551 -5.17855 0
M  V30 846 H 75.7073 2.11145 -3.60172 0
M  V30 847 H 77.0973 -0.481764 -6.70171 0
M  V30 848 N 79.8174 1.5752 -0.0501392 0
M  V30 849 C 81.2334 1.56631 0.306402 0
M  V30 850 C 81.4334 1.0577 1.71508 0
M  V30 851 O 80.4894 0.713837 2.422 0
M  V30 852 C 81.8024 3.00393 0.135811 0
M  V30 853 C 83.3504 3.12315 0.206993 0
M  V30 854 C 83.8254 4.57954 0.064944 0
M  V30 855 N 85.3164 4.63041 0.121254 0
M  V30 856 C 86.0514 5.73389 0.0354381 0
M  V30 857 N 85.5474 6.92724 -0.102666 0
M  V30 858 N 87.3404 5.62026 0.090946 0
M  V30 859 H 79.4914 1.88903 -0.971046 0
M  V30 860 H 81.7544 0.869876 -0.376855 0
M  V30 861 H 81.4604 3.41635 -0.835384 0
M  V30 862 H 81.3344 3.66373 0.897275 0
M  V30 863 H 83.7214 2.70973 1.16866 0
M  V30 864 H 83.8024 2.49016 -0.585208 0
M  V30 865 H 83.4464 4.99981 -0.893394 0
M  V30 866 H 83.3764 5.19258 0.876277 0
M  V30 867 H 85.8674 3.77216 0.227284 0
M  V30 868 H 86.1804 7.72633 -0.160882 0
M  V30 869 H 84.5254 6.94864 -0.137737 0
M  V30 870 H 87.7164 4.67684 0.197388 0
M  V30 871 H 87.8894 6.47997 0.0206089 0
M  V30 872 N 81.2955 -0.223234 1.56011 0
M  V30 873 C 82.2275 -1.30006 1.88762 0
M  V30 874 C 83.2405 -1.43129 0.775746 0
M  V30 875 O 84.4295 -1.44057 1.05403 0
M  V30 876 C 81.5295 -2.67589 2.07965 0
M  V30 877 C 80.7025 -2.76434 3.38973 0
M  V30 878 C 79.7615 -3.95019 3.47629 0
M  V30 879 O 78.7875 -3.83436 4.20672 0
M  V30 880 N 79.9895 -5.09249 2.78649 0
M  V30 881 H 82.7545 -1.02238 2.81722 0
M  V30 882 H 80.3155 -0.413278 1.56536 0
M  V30 883 H 82.3075 -3.45297 2.11073 0
M  V30 884 H 80.8775 -2.87964 1.21638 0
M  V30 885 H 80.0975 -1.85216 3.47978 0
M  V30 886 H 81.3855 -2.79313 4.25278 0
M  V30 887 H 80.7835 -5.21556 2.19081 0
M  V30 888 H 79.3405 -5.85007 2.8742 0
M  V30 889 N 82.7736 -1.49793 -0.48987 0
M  V30 890 C 84.0196 -1.61049 -1.24236 0
M  V30 891 C 84.3746 -0.298412 -1.90072 0
M  V30 892 O 83.6676 0.702262 -1.78266 0
M  V30 893 C 83.8616 -2.71488 -2.32441 0
M  V30 894 C 83.6906 -4.13308 -1.77218 0
M  V30 895 C 82.4606 -4.79955 -1.58023 0
M  V30 896 C 84.6586 -4.98176 -1.27772 0
M  V30 897 N 82.6406 -6.06052 -0.978465 0
M  V30 898 C 84.0116 -6.14843 -0.798 0
M  V30 899 C 86.0666 -4.84091 -1.16449 0
M  V30 900 C 84.7696 -7.18975 -0.216245 0
M  V30 901 C 86.7956 -5.88382 -0.596698 0
M  V30 902 C 86.1576 -7.04285 -0.127262 0
M  V30 903 H 82.2566 -0.643611 -0.444172 0
M  V30 904 H 84.8406 -1.86842 -0.54754 0
M  V30 905 H 83.0116 -2.47449 -2.99372 0
M  V30 906 H 84.7436 -2.72205 -2.99477 0
M  V30 907 H 81.4986 -4.36936 -1.82712 0
M  V30 908 H 81.9226 -6.73407 -0.696534 0
M  V30 909 H 86.5646 -3.94786 -1.5134 0
M  V30 910 H 84.2826 -8.0797 0.144903 0
M  V30 911 H 87.8686 -5.79545 -0.511716 0
M  V30 912 H 86.7486 -7.83606 0.30523 0
M  V30 913 N 84.2517 0.741722 -1.39055 0
M  V30 914 C 85.1837 1.8657 -1.33133 0
M  V30 915 C 86.1967 1.61001 -0.241329 0
M  V30 916 O 87.3857 1.7136 -0.499784 0
M  V30 917 C 84.4857 3.22457 -1.04283 0
M  V30 918 C 83.6587 3.75435 -2.24427 0
M  V30 919 C 82.7177 4.89867 -1.92138 0
M  V30 920 O 81.7437 5.03879 -2.64754 0
M  V30 921 N 82.9457 5.73738 -0.88347 0
M  V30 922 H 85.7107 1.92156 -2.29991 0
M  V30 923 H 83.2717 0.922172 -1.3307 0
M  V30 924 H 85.2637 3.9657 -0.807128 0
M  V30 925 H 83.8337 3.12181 -0.161807 0
M  V30 926 H 83.0537 2.92751 -2.6399 0
M  V30 927 H 84.3417 4.07563 -3.04581 0
M  V30 928 H 83.7397 5.64999 -0.281517 0
M  V30 929 H 82.2967 6.47947 -0.707662 0
M  V30 930 N 85.7298 1.2412 0.971189 0
M  V30 931 C 86.9548 1.10667 1.75407 0
M  V30 932 C 87.3798 -0.337048 1.85056 0
M  V30 933 O 86.7378 -1.24396 1.31892 0
M  V30 934 C 86.7858 1.74726 3.15441 0
M  V30 935 O 85.8898 1.01566 3.99697 0
M  V30 936 H 85.2308 0.387341 0.539317 0
M  V30 937 H 87.7608 1.64358 1.2185 0
M  V30 938 H 87.7708 1.80341 3.6598 0
M  V30 939 H 86.4458 2.79773 3.07734 0
M  V30 940 H 85.0228 1.03713 3.58187 0
M  V30 941 N 87.2079 -1.17134 1.05439 0
M  V30 942 C 88.4359 -1.91372 0.786414 0
M  V30 943 C 88.8509 -1.76955 -0.658202 0
M  V30 944 O 88.2079 -1.10838 -1.44987 0
M  V30 945 C 88.2589 -3.42356 1.1608 0
M  V30 946 O 87.9799 -3.56332 2.54871 0
M  V30 947 C 89.4809 -4.33663 0.919322 0
M  V30 948 H 86.7009 -0.607118 0.285743 0
M  V30 949 H 89.2449 -1.48525 1.40572 0
M  V30 950 H 87.3999 -3.82939 0.586191 0
M  V30 951 H 87.8139 -4.49896 2.69618 0
M  V30 952 H 89.2879 -5.38099 1.231 0
M  V30 953 H 89.7649 -4.38959 -0.145359 0
M  V30 954 H 90.3709 -3.98796 1.47789 0
M  V30 955 N 88.686 -0.835752 -1.33615 0
M  V30 956 C 89.916 -0.442701 -2.01801 0
M  V30 957 C 90.324 0.959807 -1.63047 0
M  V30 958 O 89.667 1.63468 -0.838088 0
M  V30 959 C 89.729 -0.480125 -3.56279 0
M  V30 960 C 89.393 -1.8382 -4.18401 0
M  V30 961 C 90.39 -2.80097 -4.37998 0
M  V30 962 C 88.075 -2.13019 -4.54894 0
M  V30 963 C 90.069 -4.03736 -4.9323 0
M  V30 964 C 87.756 -3.36916 -5.09834 0
M  V30 965 C 88.754 -4.32091 -5.28948 0
M  V30 966 O 88.442 -5.53797 -5.82721 0
M  V30 967 H 88.174 -0.17441 -0.653114 0
M  V30 968 H 90.728 -1.129 -1.71589 0
M  V30 969 H 88.958 0.262931 -3.85805 0
M  V30 970 H 90.647 -0.105335 -4.05763 0
M  V30 971 H 91.413 -2.58838 -4.10156 0
M  V30 972 H 87.292 -1.39733 -4.39313 0
M  V30 973 H 90.836 -4.78034 -5.08064 0
M  V30 974 H 86.733 -3.58033 -5.37106 0
M  V30 975 H 87.501 -5.55494 -6.0114 0
M  V30 976 N 90.1641 1.46063 -0.591896 0
M  V30 977 C 91.4111 2.02338 -0.0809991 0
M  V30 978 C 91.7391 1.46228 1.28249 0
M  V30 979 O 90.9941 0.620818 1.85592 0
M  V30 980 C 91.2931 3.57391 0.0249813 0
M  V30 981 C 90.9591 4.32583 -1.27211 0
M  V30 982 C 89.6211 4.52844 -1.62745 0
M  V30 983 C 91.9731 4.75687 -2.13005 0
M  V30 984 C 89.3011 5.13462 -2.83855 0
M  V30 985 C 91.6531 5.37644 -3.3335 0
M  V30 986 C 90.3171 5.5613 -3.69155 0
M  V30 987 H 89.5871 0.740407 -0.0296397 0
M  V30 988 H 92.2341 1.75321 -0.770374 0
M  V30 989 H 90.5391 3.83597 0.797537 0
M  V30 990 H 92.2361 3.98621 0.436184 0
M  V30 991 H 88.8261 4.17116 -0.985499 0
M  V30 992 H 93.0101 4.59782 -1.86855 0
M  V30 993 H 88.2661 5.25965 -3.11722 0
M  V30 994 H 92.4401 5.7 -4.00092 0
M  V30 995 H 90.0671 6.0287 -4.63089 0
M  V30 996 N 91.6422 0.330177 1.54103 0
M  V30 997 C 92.9192 -0.325007 1.92881 0
M  V30 998 C 93.2992 -1.6934 1.26045 0
M  V30 999 O 92.6472 -2.24855 0.406526 0
M  V30 1000 C 92.8572 -0.410634 3.46576 0
M  V30 1001 C 94.2052 -0.667801 4.19316 0
M  V30 1002 O 95.2292 -0.49329 3.52768 0
M  V30 1003 O 94.0882 -1.00491 5.37181 0
M  V30 1004 H 91.1822 -0.186873 0.80561 0
M  V30 1005 H 93.7282 0.380376 1.65382 0
M  V30 1006 H 92.5002 0.550164 3.87413 0
M  V30 1007 H 92.1232 -1.16333 3.802 0
M  V30 1008 N 93.1203 -1.57491 0.0584922 0
M  V30 1009 C 94.0673 -2.11958 -0.913376 0
M  V30 1010 C 95.0373 -1.02875 -1.30407 0
M  V30 1011 O 96.2223 -1.30464 -1.39226 0
M  V30 1012 C 93.3623 -2.67497 -2.18035 0
M  V30 1013 C 92.4753 -3.90691 -1.84349 0
M  V30 1014 C 91.6103 -4.3452 -3.05559 0
M  V30 1015 C 90.6493 -5.50395 -2.67827 0
M  V30 1016 N 89.7863 -5.89244 -3.81754 0
M  V30 1017 H 94.6263 -2.94704 -0.442017 0
M  V30 1018 H 92.1633 -1.45643 -0.206545 0
M  V30 1019 H 94.1213 -2.978 -2.92183 0
M  V30 1020 H 92.7513 -1.87537 -2.62735 0
M  V30 1021 H 91.8033 -3.66934 -1.00319 0
M  V30 1022 H 93.1153 -4.7489 -1.5258 0
M  V30 1023 H 92.2693 -4.66414 -3.87998 0
M  V30 1024 H 91.0083 -3.49147 -3.40511 0
M  V30 1025 H 90.0133 -5.18165 -1.83806 0
M  V30 1026 H 91.2383 -6.3749 -2.34059 0
M  V30 1027 H 89.1843 -5.06823 -4.16493 0
M  V30 1028 H 89.1013 -6.68151 -3.53708 0
M  V30 1029 H 90.3693 -6.25756 -4.64811 0
M  V30 1030 N 94.5984 0.214957 -1.56127 0
M  V30 1031 C 95.5454 1.26642 -1.92952 0
M  V30 1032 C 96.5154 1.46244 -0.78753 0
M  V30 1033 O 97.7004 1.59704 -1.04399 0
M  V30 1034 C 94.8404 2.6104 -2.25726 0
M  V30 1035 C 93.9534 2.49183 -3.52891 0
M  V30 1036 C 93.0884 3.76149 -3.7508 0
M  V30 1037 C 92.1274 3.59041 -4.95738 0
M  V30 1038 N 91.2644 4.77972 -5.14283 0
M  V30 1039 H 96.1044 0.945384 -2.82607 0
M  V30 1040 H 93.6414 0.455489 -1.3987 0
M  V30 1041 H 95.5994 3.39313 -2.42739 0
M  V30 1042 H 94.2294 2.91227 -1.39236 0
M  V30 1043 H 93.2814 1.6231 -3.44034 0
M  V30 1044 H 94.5934 2.32466 -4.41318 0
M  V30 1045 H 93.7474 4.62865 -3.92226 0
M  V30 1046 H 92.4864 3.95799 -2.84947 0
M  V30 1047 H 91.4914 2.7071 -4.78535 0
M  V30 1048 H 92.7164 3.40856 -5.87362 0
M  V30 1049 H 90.6624 4.97923 -4.27093 0
M  V30 1050 H 90.5794 4.64006 -5.96853 0
M  V30 1051 H 91.8474 5.66096 -5.35869 0
M  V30 1052 N 96.0765 1.50051 0.48192 0
M  V30 1053 C 97.3235 1.60498 1.23477 0
M  V30 1054 C 97.6515 0.300331 1.92167 0
M  V30 1055 O 96.9065 -0.713094 1.82246 0
M  V30 1056 C 97.2055 2.72717 2.30998 0
M  V30 1057 C 96.8715 4.13572 1.79636 0
M  V30 1058 C 95.5335 4.519 1.65348 0
M  V30 1059 C 97.8855 5.01649 1.41412 0
M  V30 1060 C 95.2135 5.76057 1.11244 0
M  V30 1061 C 97.5655 6.26343 0.887538 0
M  V30 1062 C 96.2295 6.63483 0.731207 0
M  V30 1063 H 95.4995 0.587303 0.451836 0
M  V30 1064 H 98.1465 1.83948 0.532468 0
M  V30 1065 H 96.4515 2.43312 3.07094 0
M  V30 1066 H 98.1485 2.78006 2.88988 0
M  V30 1067 H 94.7385 3.83329 1.91721 0
M  V30 1068 H 98.9225 4.72679 1.51289 0
M  V30 1069 H 94.1785 6.03516 0.978686 0
M  V30 1070 H 98.3525 6.93958 0.582654 0
M  V30 1071 H 95.9795 7.59568 0.309806 0
M  V30 1072 N 97.5546 -0.734337 1.39446 0
M  V30 1073 C 98.4646 -1.87879 1.40495 0
M  V30 1074 C 99.4806 -1.714 0.299672 0
M  V30 1075 O 100.657 -1.93991 0.541249 0
M  V30 1076 C 97.7216 -3.23477 1.24754 0
M  V30 1077 C 96.7826 -3.52344 2.45259 0
M  V30 1078 C 96.0156 -4.81473 2.30259 0
M  V30 1079 O 96.2386 -5.55237 1.30643 0
M  V30 1080 O 95.1726 -5.10254 3.19256 0
M  V30 1081 H 98.9986 -1.89949 2.36966 0
M  V30 1082 H 96.5836 -0.882243 1.20569 0
M  V30 1083 H 98.4656 -4.04509 1.18111 0
M  V30 1084 H 97.1406 -3.22176 0.313781 0
M  V30 1085 H 96.0476 -2.71396 2.57478 0
M  V30 1086 H 97.3806 -3.58426 3.37331 0
M  V30 1087 N 99.0327 -1.24633 -0.964593 0
M  V30 1088 C 99.9957 -1.0424 -2.04124 0
M  V30 1089 C 100.996 0.00137563 -1.608 0
M  V30 1090 O 102.186 -0.239883 -1.7254 0
M  V30 1091 C 99.3177 -0.580588 -3.3592 0
M  V30 1092 H 100.511 -1.99803 -2.23649 0
M  V30 1093 H 98.0637 -1.06899 -1.14027 0
M  V30 1094 H 98.7987 0.3781 -3.22088 0
M  V30 1095 H 98.5837 -1.33398 -3.6871 0
M  V30 1096 H 100.074 -0.459034 -4.15069 0
M  V30 1097 N 100.511 1.16574 -1.06058 0
M  V30 1098 C 101.441 2.23057 -0.690488 0
M  V30 1099 C 102.422 1.67141 0.315901 0
M  V30 1100 O 103.607 1.93253 0.191556 0
M  V30 1101 C 100.737 3.47222 -0.073625 0
M  V30 1102 C 99.6908 4.16016 -1.00573 0
M  V30 1103 C 99.0168 5.34104 -0.252289 0
M  V30 1104 C 100.317 4.67264 -2.33371 0
M  V30 1105 H 102.011 2.54271 -1.58072 0
M  V30 1106 H 99.5568 1.22218 -0.76149 0
M  V30 1107 H 101.51 4.20939 0.19714 0
M  V30 1108 H 100.234 3.15302 0.85161 0
M  V30 1109 H 98.8928 3.44223 -1.2612 0
M  V30 1110 H 98.5408 4.98437 0.675988 0
M  V30 1111 H 98.2408 5.81072 -0.873455 0
M  V30 1112 H 99.7648 6.10599 0.0109857 0
M  V30 1113 H 101.179 5.32573 -2.12223 0
M  V30 1114 H 99.5758 5.24843 -2.90963 0
M  V30 1115 H 100.646 3.83602 -2.96611 0
M  V30 1116 N 101.989 0.842826 1.3317 0
M  V30 1117 C 103.266 0.362216 1.92217 0
M  V30 1118 C 103.646 -1.15289 1.76838 0
M  V30 1119 O 102.994 -1.96914 1.15919 0
M  V30 1120 C 103.204 0.813495 3.39387 0
M  V30 1121 C 104.552 0.823804 4.16532 0
M  V30 1122 O 105.576 0.757358 3.48055 0
M  V30 1123 O 104.435 0.915193 5.38782 0
M  V30 1124 H 101.529 0.103317 0.820521 0
M  V30 1125 H 104.075 0.928942 1.42017 0
M  V30 1126 H 102.847 1.85624 3.4447 0
M  V30 1127 H 102.47 0.223561 3.96971 0
M  V30 1128 N 103.467 -1.45747 0.599634 0
M  V30 1129 C 104.878 -1.85853 0.177681 0
M  V30 1130 C 105.229 -1.50102 -1.26348 0
M  V30 1131 O 104.354 -0.923905 -1.95686 0
M  V30 1132 C 104.949 -3.37326 0.315688 0
M  V30 1133 C 103.508 -3.76365 -0.0515144 0
M  V30 1134 C 102.655 -2.69722 0.643822 0
M  V30 1135 H 105.606 -1.36661 0.806814 0
M  V30 1136 H 105.627 -3.77778 -0.454321 0
M  V30 1137 H 105.139 -3.63315 1.36468 0
M  V30 1138 H 103.24 -3.55993 -1.09999 0
M  V30 1139 H 103.353 -4.77916 0.336594 0
M  V30 1140 H 101.717 -2.54567 0.0822881 0
M  V30 1141 H 102.5 -2.98549 1.6948 0
M  V30 1142 N 104.945 -0.338344 -1.53925 0
M  V30 1143 C 106.191 0.260143 -2.01125 0
M  V30 1144 C 106.524 1.50617 -1.22589 0
M  V30 1145 O 105.799 1.91979 -0.312113 0
M  V30 1146 C 106.082 0.579499 -3.55407 0
M  V30 1147 C 105.935 -0.678264 -4.44657 0
M  V30 1148 C 107.254 1.39122 -4.17532 0
M  V30 1149 H 104.373 0.0930772 -0.731099 0
M  V30 1150 H 107.015 -0.457852 -1.84401 0
M  V30 1151 H 105.165 1.19118 -3.69788 0
M  V30 1152 H 106.837 -1.31631 -4.42121 0
M  V30 1153 H 105.08 -1.3042 -4.13731 0
M  V30 1154 H 105.751 -0.410143 -5.50474 0
M  V30 1155 H 108.227 0.874035 -4.06817 0
M  V30 1156 H 107.103 1.58342 -5.25565 0
M  V30 1157 H 107.364 2.39178 -3.71815 0
M  V30 1158 N 106.423 1.57458 -0.0668435 0
M  V30 1159 C 107.669 1.93587 0.6043 0
M  V30 1160 C 108.002 0.946722 1.69561 0
M  V30 1161 O 107.277 -0.0248516 1.94484 0
M  V30 1162 C 107.56 3.40014 1.18585 0
M  V30 1163 C 107.413 4.49685 0.101529 0
M  V30 1164 C 108.732 3.87154 2.09284 0
M  V30 1165 H 105.851 0.703958 0.218202 0
M  V30 1166 H 108.493 1.89542 -0.131804 0
M  V30 1167 H 106.643 3.43592 1.81319 0
M  V30 1168 H 108.315 4.5823 -0.531279 0
M  V30 1169 H 106.558 4.30059 -0.568487 0
M  V30 1170 H 107.229 5.49266 0.54874 0
M  V30 1171 H 109.705 3.85551 1.56491 0
M  V30 1172 H 108.581 4.90231 2.46911 0
M  V30 1173 H 108.842 3.2481 2.99918 0
M  V30 1174 N 107.901 -0.206675 1.56239 0
M  V30 1175 C 108.848 -1.25617 1.93621 0
M  V30 1176 C 109.818 -1.45824 0.795274 0
M  V30 1177 O 111.003 -1.59148 1.05245 0
M  V30 1178 C 108.143 -2.59839 2.27107 0
M  V30 1179 C 107.256 -2.47308 3.54207 0
M  V30 1180 C 106.391 -3.74155 3.7707 0
M  V30 1181 C 105.43 -3.56407 4.97635 0
M  V30 1182 N 104.567 -4.75238 5.1681 0
M  V30 1183 H 109.407 -0.930383 2.83104 0
M  V30 1184 H 106.944 -0.448065 1.4011 0
M  V30 1185 H 108.902 -3.38021 2.44535 0
M  V30 1186 H 107.532 -2.90485 1.40778 0
M  V30 1187 H 106.584 -1.60483 3.4489 0
M  V30 1188 H 107.896 -2.30122 4.42544 0
M  V30 1189 H 107.05 -4.60778 3.94675 0
M  V30 1190 H 105.789 -3.94282 2.87042 0
M  V30 1191 H 104.794 -2.68168 4.79964 0
M  V30 1192 H 106.019 -3.37736 5.89161 0
M  V30 1193 H 103.965 -4.95651 4.29728 0
M  V30 1194 H 103.882 -4.60835 5.99306 0
M  V30 1195 H 105.15 -5.63246 5.38864 0
M  V30 1196 N 109.379 -1.50304 -0.473955 0
M  V30 1197 C 110.795 -1.37667 -0.807466 0
M  V30 1198 C 110.995 -0.430555 -1.96846 0
M  V30 1199 O 110.051 0.127874 -2.52176 0
M  V30 1200 C 111.364 -2.78974 -1.12223 0
M  V30 1201 C 112.912 -2.87868 -1.22885 0
M  V30 1202 C 113.387 -4.30003 -1.57676 0
M  V30 1203 N 114.878 -4.3294 -1.64673 0
M  V30 1204 C 115.613 -5.3991 -1.93091 0
M  V30 1205 N 115.109 -6.57092 -2.1955 0
M  V30 1206 N 116.902 -5.27351 -1.94569 0
M  V30 1207 H 109.053 -2.10394 0.291212 0
M  V30 1208 H 111.316 -0.945575 0.0677609 0
M  V30 1209 H 111.022 -3.50031 -0.342229 0
M  V30 1210 H 110.896 -3.16038 -2.05913 0
M  V30 1211 H 113.283 -2.17032 -1.99953 0
M  V30 1212 H 113.364 -2.54352 -0.271814 0
M  V30 1213 H 113.008 -5.01375 -0.81149 0
M  V30 1214 H 112.938 -4.61004 -2.54525 0
M  V30 1215 H 115.429 -3.48441 -1.46277 0
M  V30 1216 H 115.742 -7.34425 -2.405 0
M  V30 1217 H 114.087 -6.60272 -2.16948 0
M  V30 1218 H 117.278 -4.34801 -1.73394 0
M  V30 1219 H 117.451 -6.10805 -2.16381 0
M  V30 1220 N 110.857 0.726932 -1.39834 0
M  V30 1221 C 111.82 1.82269 -1.38962 0
M  V30 1222 C 112.82 1.58248 -0.285334 0
M  V30 1223 O 114.01 1.65499 -0.54366 0
M  V30 1224 C 111.142 3.20186 -1.17019 0
M  V30 1225 H 112.335 1.84443 -2.36476 0
M  V30 1226 H 109.888 0.931416 -1.25516 0
M  V30 1227 H 110.623 3.23669 -0.202204 0
M  V30 1228 H 110.408 3.3902 -1.96998 0
M  V30 1229 H 111.898 4.00235 -1.1917 0
M  V30 1230 N 112.336 1.25143 0.95797 0
M  V30 1231 C 113.752 1.01892 1.22842 0
M  V30 1232 C 113.952 -0.266311 1.99732 0
M  V30 1233 O 113.008 -0.979913 2.3271 0
M  V30 1234 C 114.321 2.24004 2.00606 0
M  V30 1235 C 115.869 2.28731 2.13662 0
M  V30 1236 C 116.344 3.5049 2.94823 0
M  V30 1237 N 117.835 3.50866 3.02403 0
M  V30 1238 C 118.57 4.4174 3.65586 0
M  V30 1239 N 118.066 5.42882 4.30408 0
M  V30 1240 N 119.859 4.29429 3.62694 0
M  V30 1241 H 112.01 2.07718 0.443493 0
M  V30 1242 H 114.273 0.912031 0.258657 0
M  V30 1243 H 113.979 3.17395 1.51503 0
M  V30 1244 H 113.853 2.26907 3.01319 0
M  V30 1245 H 116.24 1.35865 2.61963 0
M  V30 1246 H 116.321 2.29848 1.12265 0
M  V30 1247 H 115.965 4.43676 2.47213 0
M  V30 1248 H 115.895 3.46617 3.96439 0
M  V30 1249 H 118.386 2.777 2.56302 0
M  V30 1250 H 118.699 6.0844 4.76467 0
M  V30 1251 H 117.044 5.46758 4.29047 0
M  V30 1252 H 120.235 3.49643 3.11236 0
M  V30 1253 H 120.408 5.00448 4.1165 0
M  V30 1254 N 113.814 -1.1601 1.06675 0
M  V30 1255 C 115.039 -1.91068 0.806706 0
M  V30 1256 C 115.464 -1.77112 -0.633485 0
M  V30 1257 O 114.822 -1.09908 -1.44187 0
M  V30 1258 C 114.87 -3.39655 1.21106 0
M  V30 1259 O 113.974 -4.10893 0.352189 0
M  V30 1260 H 113.315 -0.595125 0.294486 0
M  V30 1261 H 115.845 -1.46955 1.42356 0
M  V30 1262 H 115.855 -3.90434 1.18428 0
M  V30 1263 H 114.53 -3.49132 2.26008 0
M  V30 1264 H 113.107 -3.70285 0.440868 0
M  V30 1265 N 115.292 -0.849877 -1.32721 0
M  V30 1266 C 116.708 -0.539102 -1.50219 0
M  V30 1267 C 116.908 0.931271 -1.78689 0
M  V30 1268 O 115.964 1.71455 -1.85363 0
M  V30 1269 C 117.277 -1.42196 -2.64954 0
M  V30 1270 C 118.825 -1.42189 -2.78839 0
M  V30 1271 C 119.3 -2.28985 -3.96648 0
M  V30 1272 N 120.791 -2.26754 -4.03902 0
M  V30 1273 C 121.526 -2.90644 -4.94281 0
M  V30 1274 N 121.022 -3.63629 -5.897 0
M  V30 1275 N 122.815 -2.80057 -4.87365 0
M  V30 1276 H 114.966 -1.80156 -1.12506 0
M  V30 1277 H 117.229 -0.769217 -0.554085 0
M  V30 1278 H 116.935 -2.46733 -2.50631 0
M  V30 1279 H 116.809 -1.10591 -3.60624 0
M  V30 1280 H 119.196 -0.38419 -2.92588 0
M  V30 1281 H 119.277 -1.77807 -1.83898 0
M  V30 1282 H 118.921 -3.32819 -3.83658 0
M  V30 1283 H 118.851 -1.90702 -4.90857 0
M  V30 1284 H 121.342 -1.73688 -3.3562 0
M  V30 1285 H 121.655 -4.09558 -6.55349 0
M  V30 1286 H 120 -3.67737 -5.89741 0
M  V30 1287 H 123.191 -2.22593 -4.11789 0
M  V30 1288 H 123.364 -3.30132 -5.57599 0
M  V30 1289 N 116.77 1.45427 -0.607355 0
M  V30 1290 C 117.717 2.3053 0.111625 0
M  V30 1291 C 118.687 1.4209 0.860216 0
M  V30 1292 O 119.872 1.71019 0.845998 0
M  V30 1293 C 117.012 3.26992 1.10319 0
M  V30 1294 C 116.125 4.30535 0.355493 0
M  V30 1295 C 115.26 5.14105 1.33676 0
M  V30 1296 C 114.299 6.09376 0.576862 0
M  V30 1297 N 113.436 6.85727 1.5074 0
M  V30 1298 H 118.276 2.91477 -0.620093 0
M  V30 1299 H 115.813 1.43631 -0.317594 0
M  V30 1300 H 117.771 3.81385 1.6912 0
M  V30 1301 H 116.401 2.67799 1.80232 0
M  V30 1302 H 115.453 3.78805 -0.348023 0
M  V30 1303 H 116.765 4.98235 -0.237423 0
M  V30 1304 H 115.919 5.72897 1.99684 0
M  V30 1305 H 114.658 4.46423 1.9636 0
M  V30 1306 H 113.663 5.49715 -0.0968519 0
M  V30 1307 H 114.888 6.79085 -0.0449341 0
M  V30 1308 H 112.834 6.20735 2.12189 0
M  V30 1309 H 112.751 7.49778 0.967913 0
M  V30 1310 H 114.019 7.4906 2.15706 0
M  V30 1311 N 118.248 0.346503 1.53744 0
M  V30 1312 C 119.198 -0.524953 2.21874 0
M  V30 1313 C 120.182 -1.06376 1.20718 0
M  V30 1314 O 121.374 -0.996972 1.46251 0
M  V30 1315 C 118.503 -1.6739 2.99726 0
M  V30 1316 C 117.589 -1.14888 4.08242 0
M  V30 1317 N 117.98 -0.345329 5.0462 0
M  V30 1318 C 116.278 -1.4255 4.22606 0
M  V30 1319 C 116.979 -0.0600706 5.81669 0
M  V30 1320 N 115.955 -0.65252 5.39669 0
M  V30 1321 H 119.757 0.0960091 2.93743 0
M  V30 1322 H 117.271 0.15352 1.61673 0
M  V30 1323 H 119.268 -2.3102 3.47038 0
M  V30 1324 H 117.928 -2.29811 2.29384 0
M  V30 1325 H 118.939 0.0138439 5.17898 0
M  V30 1326 H 115.616 -2.05389 3.63486 0
M  V30 1327 H 117.006 0.588321 6.69319 0
M  V30 1328 N 119.726 -1.57421 0.075193 0
M  V30 1329 C 120.975 -1.92794 -0.592731 0
M  V30 1330 C 121.288 -0.957478 -1.70563 0
M  V30 1331 O 122.494 -1.20417 -2.43335 0
M  V30 1332 C 120.95 -3.42495 -1.10569 0
M  V30 1333 C 120.558 -4.47994 -0.0236121 0
M  V30 1334 C 122.302 -3.86864 -1.74748 0
M  V30 1335 C 120.209 -5.88829 -0.550803 0
M  V30 1336 H 119.139 -0.719591 -0.225177 0
M  V30 1337 H 121.79 -1.82902 0.147978 0
M  V30 1338 H 120.172 -3.47471 -1.89947 0
M  V30 1339 H 121.346 -4.54637 0.751099 0
M  V30 1340 H 119.661 -4.13113 0.522159 0
M  V30 1341 H 122.258 -4.8947 -2.15229 0
M  V30 1342 H 122.601 -3.24417 -2.60882 0
M  V30 1343 H 123.134 -3.84504 -1.01986 0
M  V30 1344 H 119.873 -6.54929 0.273457 0
M  V30 1345 H 119.393 -5.85698 -1.29296 0
M  V30 1346 H 121.072 -6.38811 -1.02613 0
M  V30 1347 N 121.204 0.198386 -1.56346 0
M  V30 1348 C 122.451 0.919286 -1.80431 0
M  V30 1349 C 122.779 1.83393 -0.647866 0
M  V30 1350 O 122.034 1.92236 0.366556 0
M  V30 1351 C 122.333 1.77031 -3.10475 0
M  V30 1352 C 121.999 1.00693 -4.39513 0
M  V30 1353 C 120.661 0.796145 -4.74568 0
M  V30 1354 C 123.013 0.469559 -5.19081 0
M  V30 1355 C 120.341 0.0364588 -5.86689 0
M  V30 1356 C 122.693 -0.2769 -6.31994 0
M  V30 1357 C 121.357 -0.49873 -6.65634 0
M  V30 1358 H 120.627 0.336391 -0.660244 0
M  V30 1359 H 123.274 0.185872 -1.90596 0
M  V30 1360 H 121.579 2.5723 -2.95533 0
M  V30 1361 H 123.276 2.33065 -3.26315 0
M  V30 1362 H 119.866 1.18122 -4.12001 0
M  V30 1363 H 124.05 0.619816 -4.92414 0
M  V30 1364 H 119.306 -0.145412 -6.11227 0
M  V30 1365 H 123.48 -0.700684 -6.92866 0
M  V30 1366 H 121.107 -1.0893 -7.52355 0
M  V30 1367 N 122.682 1.50554 0.465978 0
M  V30 1368 C 123.91 1.65563 1.24083 0
M  V30 1369 C 124.325 0.341051 1.85694 0
M  V30 1370 O 123.682 -0.677543 1.69457 0
M  V30 1371 C 123.733 2.75051 2.34583 0
M  V30 1372 O 123.454 4.01413 1.75497 0
M  V30 1373 C 124.955 3.01078 3.25372 0
M  V30 1374 H 122.175 0.55638 0.375077 0
M  V30 1375 H 124.719 1.96807 0.555624 0
M  V30 1376 H 122.874 2.46486 2.9887 0
M  V30 1377 H 123.288 4.62002 2.48303 0
M  V30 1378 H 124.762 3.81339 3.99105 0
M  V30 1379 H 125.239 2.12349 3.84453 0
M  V30 1380 H 125.845 3.31194 2.66816 0
M  V30 1381 N 124.16 -0.719506 1.40217 0
M  V30 1382 C 125.406 -1.48034 1.39491 0
M  V30 1383 C 125.761 -1.92399 -0.00443536 0
M  V30 1384 O 125.054 -1.64993 -0.974061 0
M  V30 1385 C 125.248 -2.72271 2.31524 0
M  V30 1386 C 125.077 -2.40055 3.80268 0
M  V30 1387 C 123.847 -2.31588 4.49105 0
M  V30 1388 C 126.045 -2.04581 4.71859 0
M  V30 1389 N 124.027 -1.92006 5.83101 0
M  V30 1390 C 125.398 -1.75568 5.94623 0
M  V30 1391 C 127.453 -1.91183 4.59732 0
M  V30 1392 C 126.156 -1.34505 7.06612 0
M  V30 1393 C 128.182 -1.51524 5.71659 0
M  V30 1394 C 127.544 -1.23406 6.93506 0
M  V30 1395 H 123.643 -0.539927 0.565688 0
M  V30 1396 H 126.227 -0.834764 1.75897 0
M  V30 1397 H 124.398 -3.34584 1.97251 0
M  V30 1398 H 126.13 -3.38584 2.21682 0
M  V30 1399 H 122.885 -2.49199 4.02737 0
M  V30 1400 H 123.309 -1.74764 6.54054 0
M  V30 1401 H 127.951 -2.11584 3.66049 0
M  V30 1402 H 125.669 -1.12846 8.00182 0
M  V30 1403 H 129.255 -1.41741 5.6427 0
M  V30 1404 H 128.135 -0.931788 7.78645 0
M  V30 1405 N 125.638 -1.25649 -0.95132 0
M  V30 1406 C 126.863 -1.13443 -1.73624 0
M  V30 1407 C 127.288 0.307565 -1.85568 0
M  V30 1408 O 126.646 1.22282 -1.33854 0
M  V30 1409 C 126.694 -1.79723 -3.12621 0
M  V30 1410 O 125.798 -1.07912 -3.98031 0
M  V30 1411 H 125.139 -0.395872 -0.533086 0
M  V30 1412 H 127.669 -1.66276 -1.1922 0
M  V30 1413 H 127.679 -1.86141 -3.63064 0
M  V30 1414 H 126.354 -2.84633 -3.03244 0
M  V30 1415 H 124.931 -1.09398 -3.56492 0
M  V30 1416 N 127.117 1.15442 -1.07289 0
M  V30 1417 C 128.365 1.85845 -0.794096 0
M  V30 1418 C 128.686 1.82692 0.681809 0
M  V30 1419 O 127.956 1.26741 1.49377 0
M  V30 1420 H 126.536 0.688089 -0.290763 0
M  V30 1421 H 129.198 1.39947 -1.3565 0
M  V30 1422 H 128.294 2.91001 -1.12804 0
M  V30 1423 N 128.595 0.856903 1.32268 0
M  V30 1424 C 129.505 0.306131 2.32594 0
M  V30 1425 C 130.521 -0.577209 1.64147 0
M  V30 1426 O 131.697 -0.477043 1.95669 0
M  V30 1427 C 128.762 -0.494561 3.43154 0
M  V30 1428 C 127.823 0.415186 4.27288 0
M  V30 1429 C 127.056 -0.347387 5.32568 0
M  V30 1430 O 127.279 -1.57708 5.48165 0
M  V30 1431 O 126.213 0.287982 6.01211 0
M  V30 1432 H 130.039 1.13737 2.81598 0
M  V30 1433 H 127.624 0.619902 1.35932 0
M  V30 1434 H 129.506 -0.948944 4.10576 0
M  V30 1435 H 128.181 -1.30257 2.96336 0
M  V30 1436 H 127.088 0.917793 3.62667 0
M  V30 1437 H 128.421 1.18844 4.77637 0
M  V30 1438 N 130.073 -1.45103 0.615059 0
M  V30 1439 C 131.023 -2.27679 -0.120966 0
M  V30 1440 C 132.007 -1.3775 -0.831491 0
M  V30 1441 O 133.199 -1.61683 -0.720249 0
M  V30 1442 C 130.328 -3.24767 -1.1127 0
M  V30 1443 C 129.414 -4.22184 -0.402627 0
M  V30 1444 N 129.805 -5.02692 0.559884 0
M  V30 1445 C 128.103 -4.4125 -0.649202 0
M  V30 1446 C 128.804 -5.73421 0.977942 0
M  V30 1447 N 127.78 -5.42657 0.320104 0
M  V30 1448 H 131.582 -2.87325 0.618181 0
M  V30 1449 H 129.096 -1.56345 0.439304 0
M  V30 1450 H 131.093 -3.82666 -1.65446 0
M  V30 1451 H 129.753 -2.66682 -1.85232 0
M  V30 1452 H 130.764 -5.09354 0.936976 0
M  V30 1453 H 127.441 -3.9428 -1.37293 0
M  V30 1454 H 128.831 -6.48107 1.77222 0
M  V30 1455 N 131.551 -0.354651 -1.53558 0
M  V30 1456 C 132.461 0.50515 -2.29097 0
M  V30 1457 C 133.477 1.10223 -1.34636 0
M  V30 1458 O 134.653 1.11553 -1.67684 0
M  V30 1459 C 131.718 1.63479 -3.05738 0
M  V30 1460 C 130.779 1.06636 -4.15845 0
M  V30 1461 C 130.012 2.14217 -4.88822 0
M  V30 1462 O 130.235 3.35137 -4.61562 0
M  V30 1463 O 129.169 1.77887 -5.75013 0
M  V30 1464 H 132.995 -0.109237 -3.03503 0
M  V30 1465 H 130.58 -0.119357 -1.48922 0
M  V30 1466 H 132.462 2.2918 -3.5363 0
M  V30 1467 H 131.137 2.23478 -2.34178 0
M  V30 1468 H 130.044 0.373565 -3.7223 0
M  V30 1469 H 131.377 0.511081 -4.89539 0
M  V30 1470 N 133.029 1.57378 -0.0835403 0
M  V30 1471 C 134.445 1.57246 0.273109 0
M  V30 1472 C 134.645 1.09385 1.69225 0
M  V30 1473 O 133.701 0.765051 2.40631 0
M  V30 1474 C 135.014 3.00614 0.0720628 0
M  V30 1475 C 136.562 3.12684 0.1407 0
M  V30 1476 C 137.037 4.57989 -0.0322094 0
M  V30 1477 N 138.528 4.63194 0.0230085 0
M  V30 1478 C 139.263 5.73335 -0.0861941 0
M  V30 1479 N 138.759 6.9235 -0.24958 0
M  V30 1480 N 140.552 5.62093 -0.0282886 0
M  V30 1481 H 132.703 1.86801 -1.0109 0
M  V30 1482 H 134.966 0.861687 -0.395222 0
M  V30 1483 H 134.672 3.39786 -0.907662 0
M  V30 1484 H 134.546 3.68193 0.81936 0
M  V30 1485 H 136.933 2.73391 1.11092 0
M  V30 1486 H 137.014 2.47719 -0.637896 0
M  V30 1487 H 136.658 4.97973 -0.999247 0
M  V30 1488 H 136.588 5.21 0.765937 0
M  V30 1489 H 139.079 3.77613 0.14722 0
M  V30 1490 H 139.392 7.72117 -0.324733 0
M  V30 1491 H 137.737 6.94415 -0.285097 0
M  V30 1492 H 140.928 4.67997 0.0981408 0
M  V30 1493 H 141.101 6.47895 -0.116845 0
M  V30 1494 N 134.507 -0.190092 1.56449 0
M  V30 1495 C 135.918 -0.754312 1.70784 0
M  V30 1496 C 136.269 -1.83631 0.690951 0
M  V30 1497 O 135.394 -2.15868 -0.151604 0
M  V30 1498 C 135.989 -1.37503 3.09642 0
M  V30 1499 C 134.548 -1.88628 3.25725 0
M  V30 1500 C 133.695 -0.758098 2.66736 0
M  V30 1501 H 136.646 0.0350524 1.58661 0
M  V30 1502 H 136.667 -2.2445 3.0725 0
M  V30 1503 H 136.179 -0.587302 3.83631 0
M  V30 1504 H 134.28 -2.70103 2.56661 0
M  V30 1505 H 134.393 -2.04462 4.3328 0
M  V30 1506 H 132.757 -1.17369 2.26046 0
M  V30 1507 H 133.54 0.0174705 3.43296 0
M  V30 1508 N 135.985 -1.50799 -0.457987 0
M  V30 1509 C 137.213 -1.66218 -1.23203 0
M  V30 1510 C 137.628 -0.350894 -1.85511 0
M  V30 1511 O 136.985 0.668546 -1.69814 0
M  V30 1512 C 137.036 -2.76291 -2.33121 0
M  V30 1513 O 136.757 -4.02338 -1.73366 0
M  V30 1514 C 138.258 -3.028 -3.2377 0
M  V30 1515 H 135.478 -0.558361 -0.372121 0
M  V30 1516 H 138.022 -1.97099 -0.545179 0
M  V30 1517 H 136.177 -2.48068 -2.97558 0
M  V30 1518 H 136.591 -4.63312 -2.4585 0
M  V30 1519 H 138.065 -3.8345 -3.97077 0
M  V30 1520 H 138.542 -2.14385 -3.83322 0
M  V30 1521 H 139.148 -3.32604 -2.65056 0
M  V30 1522 N 137.463 0.71206 -1.40597 0
M  V30 1523 C 138.393 1.83889 -1.43899 0
M  V30 1524 C 139.374 1.67442 -0.299504 0
M  V30 1525 O 140.559 1.87421 -0.508624 0
M  V30 1526 C 137.689 3.21877 -1.30431 0
M  V30 1527 C 136.643 3.53002 -2.42019 0
M  V30 1528 C 135.969 4.90172 -2.13626 0
M  V30 1529 C 137.269 3.53643 -3.84362 0
M  V30 1530 H 138.963 1.81383 -2.38203 0
M  V30 1531 H 136.509 0.871237 -1.14654 0
M  V30 1532 H 138.462 4.00404 -1.31357 0
M  V30 1533 H 137.186 3.24968 -0.326049 0
M  V30 1534 H 135.845 2.76818 -2.40349 0
M  V30 1535 H 135.493 4.89869 -1.14182 0
M  V30 1536 H 135.193 5.11962 -2.88389 0
M  V30 1537 H 136.717 5.71028 -2.1624 0
M  V30 1538 H 138.131 4.22203 -3.87837 0
M  V30 1539 H 136.528 3.86961 -4.58673 0
M  V30 1540 H 137.598 2.52954 -4.13693 0
M  V30 1541 N 138.941 1.26152 0.944643 0
M  V30 1542 C 140.166 1.14363 1.7302 0
M  V30 1543 C 140.591 -0.29772 1.85729 0
M  V30 1544 O 139.949 -1.2157 1.34501 0
M  V30 1545 C 139.997 1.81378 3.11664 0
M  V30 1546 O 139.101 1.10022 3.97453 0
M  V30 1547 H 138.442 0.398694 0.53098 0
M  V30 1548 H 140.972 1.66906 1.18337 0
M  V30 1549 H 140.982 1.88064 3.62072 0
M  V30 1550 H 139.657 2.86237 3.0173 0
M  V30 1551 H 138.234 1.11287 3.55907 0
M  V30 1552 N 140.419 -1.14872 1.07899 0
M  V30 1553 C 141.366 -2.19791 0.704319 0
M  V30 1554 C 142.336 -1.63238 -0.306987 0
M  V30 1555 O 143.521 -1.8983 -0.192171 0
M  V30 1556 C 140.661 -3.44911 0.114244 0
M  V30 1557 C 139.774 -4.15637 1.1777 0
M  V30 1558 C 138.909 -5.28324 0.552037 0
M  V30 1559 C 137.948 -5.90875 1.59789 0
M  V30 1560 N 137.085 -6.95022 0.994404 0
M  V30 1561 H 141.925 -2.5119 1.60336 0
M  V30 1562 H 139.462 -1.23356 0.801352 0
M  V30 1563 H 141.42 -4.16477 -0.245544 0
M  V30 1564 H 140.05 -3.14011 -0.74813 0
M  V30 1565 H 139.102 -3.42512 1.65499 0
M  V30 1566 H 140.414 -4.5823 1.97046 0
M  V30 1567 H 139.568 -6.06538 0.1402 0
M  V30 1568 H 138.307 -4.86939 -0.272431 0
M  V30 1569 H 137.312 -5.11369 2.01945 0
M  V30 1570 H 138.537 -6.34337 2.42474 0
M  V30 1571 H 136.483 -6.55722 0.190939 0
M  V30 1572 H 136.4 -7.36073 1.72432 0
M  V30 1573 H 137.668 -7.77123 0.608253 0
M  V30 1574 N 141.898 -0.863906 -1.31812 0
M  V30 1575 C 143.175 -0.39275 -1.91616 0
M  V30 1576 C 143.555 1.12461 -1.7865 0
M  V30 1577 O 142.903 1.95045 -1.19037 0
M  V30 1578 C 143.113 -0.867385 -3.38049 0
M  V30 1579 C 144.461 -0.889966 -4.15168 0
M  V30 1580 O 145.485 -0.812635 -3.46806 0
M  V30 1581 O 144.344 -1.00079 -5.37258 0
M  V30 1582 H 141.438 -0.116358 -0.818773 0
M  V30 1583 H 143.984 -0.951418 -1.40521 0
M  V30 1584 H 142.756 -1.91081 -3.41473 0
M  V30 1585 H 142.379 -0.286687 -3.96565 0
M  V30 1586 N 143.376 1.44774 -0.622745 0
M  V30 1587 C 144.286 2.34433 0.0886031 0
M  V30 1588 C 145.302 1.52131 0.844529 0
M  V30 1589 O 146.478 1.84886 0.798691 0
M  V30 1590 C 143.543 3.29986 1.0635 0
M  V30 1591 C 142.604 4.28195 0.307873 0
M  V30 1592 C 141.837 5.19183 1.23633 0
M  V30 1593 O 142.06 5.13918 2.47476 0
M  V30 1594 O 140.994 5.97515 0.725189 0
M  V30 1595 H 144.82 2.96693 -0.648599 0
M  V30 1596 H 142.405 1.44408 -0.382957 0
M  V30 1597 H 144.287 3.88825 1.6246 0
M  V30 1598 H 142.962 2.70269 1.78146 0
M  V30 1599 H 141.869 3.72927 -0.296064 0
M  V30 1600 H 143.202 4.90808 -0.3699 0
M  V30 1601 N 144.854 0.36279 1.53368 0
M  V30 1602 C 146.27 0.0116182 1.59596 0
M  V30 1603 C 146.47 -1.47012 1.37803 0
M  V30 1604 O 145.526 -2.23136 1.18181 0
M  V30 1605 C 146.839 0.465052 2.97082 0
M  V30 1606 C 148.387 0.419033 3.10182 0
M  V30 1607 C 148.862 0.848235 4.50077 0
M  V30 1608 N 150.353 0.803183 4.56183 0
M  V30 1609 C 151.088 1.107 5.62613 0
M  V30 1610 N 150.584 1.47996 6.76808 0
M  V30 1611 N 152.377 1.02998 5.52583 0
M  V30 1612 H 144.528 1.32775 1.65785 0
M  V30 1613 H 146.791 0.542518 0.777417 0
M  V30 1614 H 146.497 1.49892 3.18159 0
M  V30 1615 H 146.371 -0.149786 3.76902 0
M  V30 1616 H 148.758 -0.605696 2.88817 0
M  V30 1617 H 148.839 1.06933 2.32377 0
M  V30 1618 H 148.483 1.87107 4.7218 0
M  V30 1619 H 148.413 0.175218 5.26308 0
M  V30 1620 H 150.904 0.52838 3.74188 0
M  V30 1621 H 151.217 1.69613 7.53957 0
M  V30 1622 H 149.562 1.51859 6.78206 0
M  V30 1623 H 152.753 0.737817 4.62249 0
M  V30 1624 H 152.926 1.2701 6.35431 0
M  V30 1625 N 146.332 -1.57332 0.0918853 0
M  V30 1626 C 147.295 -2.12708 -0.85369 0
M  V30 1627 C 148.295 -1.05561 -1.213 0
M  V30 1628 O 149.485 -1.31461 -1.14296 0
M  V30 1629 C 146.617 -2.64503 -2.15061 0
M  V30 1630 H 147.81 -2.97573 -0.3729 0
M  V30 1631 H 145.363 -1.55509 -0.157072 0
M  V30 1632 H 146.098 -1.83149 -2.67632 0
M  V30 1633 H 145.883 -3.4284 -1.90272 0
M  V30 1634 H 147.373 -3.07351 -2.82711 0
M  V30 1635 N 147.81 0.181792 -1.56548 0
M  V30 1636 C 149.057 0.900097 -1.81396 0
M  V30 1637 C 149.385 1.82695 -0.667281 0
M  V30 1638 O 148.64 1.92614 0.346146 0
M  V30 1639 C 148.939 1.73728 -3.12335 0
M  V30 1640 C 148.605 0.960255 -4.40556 0
M  V30 1641 C 147.267 0.745766 -4.75386 0
M  V30 1642 C 149.619 0.414477 -5.19549 0
M  V30 1643 C 146.947 -0.0257694 -5.86694 0
M  V30 1644 C 149.299 -0.343916 -6.31664 0
M  V30 1645 C 147.963 -0.569301 -6.65068 0
M  V30 1646 H 147.233 0.329369 -0.663775 0
M  V30 1647 H 149.88 0.165647 -1.90782 0
M  V30 1648 H 148.185 2.54081 -2.98245 0
M  V30 1649 H 149.882 2.29591 -3.28769 0
M  V30 1650 H 146.472 1.13746 -4.13231 0
M  V30 1651 H 150.656 0.567554 -4.93044 0
M  V30 1652 H 145.912 -0.210233 -6.11038 0
M  V30 1653 H 150.086 -0.774133 -6.92084 0
M  V30 1654 H 147.713 -1.16903 -7.51158 0
M  V30 1655 N 149.288 1.51039 0.449983 0
M  V30 1656 C 150.518 1.66627 1.22143 0
M  V30 1657 C 150.926 0.357776 1.85786 0
M  V30 1658 O 150.269 -0.672424 1.70951 0
M  V30 1659 C 150.331 2.71562 2.35573 0
M  V30 1660 C 149.995 4.14526 1.92399 0
M  V30 1661 C 150.992 4.99717 1.43453 0
M  V30 1662 C 148.677 4.60559 2.00475 0
M  V30 1663 C 150.671 6.28998 1.03155 0
M  V30 1664 C 148.358 5.8984 1.59788 0
M  V30 1665 C 149.356 6.73886 1.11208 0
M  V30 1666 O 149.044 8.0075 0.710935 0
M  V30 1667 H 148.776 0.562635 0.374724 0
M  V30 1668 H 151.33 1.98146 0.541036 0
M  V30 1669 H 149.56 2.3533 3.06849 0
M  V30 1670 H 151.249 2.76156 2.97478 0
M  V30 1671 H 152.015 4.65361 1.36618 0
M  V30 1672 H 147.894 3.95273 2.37235 0
M  V30 1673 H 151.438 6.9455 0.651663 0
M  V30 1674 H 147.335 6.23713 1.66289 0
M  V30 1675 H 148.103 8.142 0.837913 0
M  V30 1676 N 150.766 -0.704594 1.40972 0
M  V30 1677 C 152.043 -1.45847 1.30338 0
M  V30 1678 C 152.423 -2.10973 -0.0732344 0
M  V30 1679 O 151.771 -2.00997 -1.08685 0
M  V30 1680 C 151.981 -2.48525 2.45023 0
M  V30 1681 C 153.329 -3.1404 2.8577 0
M  V30 1682 O 154.353 -2.58848 2.44696 0
M  V30 1683 O 153.212 -4.13981 3.56766 0
M  V30 1684 H 150.306 -0.649092 0.512454 0
M  V30 1685 H 152.852 -0.735836 1.52917 0
M  V30 1686 H 151.624 -1.98994 3.36923 0
M  V30 1687 H 151.247 -3.2831 2.24272 0
M  V30 1688 N 152.244 -1.26651 -0.937939 0
M  V30 1689 C 153.194 -1.05156 -2.02302 0
M  V30 1690 C 154.178 0.0171233 -1.60891 0
M  V30 1691 O 155.37 -0.200213 -1.75864 0
M  V30 1692 C 152.499 -0.689962 -3.36295 0
M  V30 1693 C 151.585 -1.79626 -3.84181 0
M  V30 1694 N 151.976 -3.03422 -4.04684 0
M  V30 1695 C 150.274 -1.6806 -4.13124 0
M  V30 1696 C 150.975 -3.75345 -4.444 0
M  V30 1697 N 149.951 -3.03051 -4.51288 0
M  V30 1698 H 153.753 -1.99117 -2.1617 0
M  V30 1699 H 151.267 -1.17216 -1.12402 0
M  V30 1700 H 153.264 -0.517112 -4.13681 0
M  V30 1701 H 151.924 0.242139 -3.23796 0
M  V30 1702 H 152.935 -3.39293 -3.91281 0
M  V30 1703 H 149.612 -0.818629 -4.09396 0
M  V30 1704 H 151.002 -4.81691 -4.68427 0
M  V30 1705 N 153.722 1.14298 -1.08507 0
M  V30 1706 C 154.685 2.17607 -0.719711 0
M  V30 1707 C 155.685 1.58907 0.245997 0
M  V30 1708 O 156.875 1.74181 0.0254081 0
M  V30 1709 C 154.007 3.40842 -0.0627695 0
M  V30 1710 H 155.2 2.51443 -1.63452 0
M  V30 1711 H 152.753 1.28963 -0.88307 0
M  V30 1712 H 153.488 3.12587 0.863716 0
M  V30 1713 H 153.273 3.84713 -0.757504 0
M  V30 1714 H 154.763 4.17221 0.177786 0
M  V30 1715 N 155.201 0.870884 1.31352 0
M  V30 1716 C 156.426 0.495957 2.01383 0
M  V30 1717 C 156.851 -0.904324 1.64935 0
M  V30 1718 O 156.209 -1.59687 0.858466 0
M  V30 1719 C 156.257 0.661433 3.54482 0
M  V30 1720 O 155.361 -0.298851 4.11316 0
M  V30 1721 H 154.702 0.197158 0.634054 0
M  V30 1722 H 157.232 1.17455 1.67527 0
M  V30 1723 H 157.242 0.555072 4.04207 0
M  V30 1724 H 155.917 1.68246 3.8035 0
M  V30 1725 H 154.494 -0.147368 3.72609 0
M  V30 1726 N 156.679 -1.44442 0.630414 0
M  V30 1727 C 157.956 -1.9549 0.0655657 0
M  V30 1728 C 158.336 -1.5724 -1.40851 0
M  V30 1729 O 157.684 -0.846116 -2.12257 0
M  V30 1730 C 157.894 -3.47812 0.287691 0
M  V30 1731 C 159.242 -4.24216 0.180513 0
M  V30 1732 O 160.266 -3.55526 0.219019 0
M  V30 1733 O 159.125 -5.46434 0.0848493 0
M  V30 1734 H 156.219 -0.826688 -0.0227177 0
M  V30 1735 H 158.765 -1.54496 0.702068 0
M  V30 1736 H 157.537 -3.687 1.31056 0
M  V30 1737 H 157.16 -3.95751 -0.382984 0
M  V30 1738 N 158.157 -0.370918 -1.53173 0
M  V30 1739 C 159.404 0.217102 -2.01333 0
M  V30 1740 C 159.732 1.48338 -1.25802 0
M  V30 1741 O 158.987 1.92698 -0.34146 0
M  V30 1742 C 159.286 0.549696 -3.53147 0
M  V30 1743 C 158.952 -0.622872 -4.46577 0
M  V30 1744 C 157.614 -0.944595 -4.71838 0
M  V30 1745 C 159.966 -1.40819 -5.01816 0
M  V30 1746 C 157.294 -2.05351 -5.49589 0
M  V30 1747 C 159.646 -2.50757 -5.80778 0
M  V30 1748 C 158.31 -2.83458 -6.04324 0
M  V30 1749 H 157.58 0.0794431 -0.736729 0
M  V30 1750 H 160.227 -0.504481 -1.84736 0
M  V30 1751 H 158.532 1.35237 -3.6772 0
M  V30 1752 H 160.229 1.017 -3.87889 0
M  V30 1753 H 156.819 -0.36209 -4.27068 0
M  V30 1754 H 161.003 -1.17289 -4.82242 0
M  V30 1755 H 156.259 -2.3108 -5.6605 0
M  V30 1756 H 160.433 -3.12022 -6.22588 0
M  V30 1757 H 158.06 -3.69508 -6.64355 0
M  V30 1758 N 159.635 1.57281 -0.100228 0
M  V30 1759 C 160.883 1.94153 0.561157 0
M  V30 1760 C 161.204 0.983157 1.68401 0
M  V30 1761 O 160.474 0.0361132 1.95867 0
M  V30 1762 H 159.054 0.716791 0.210283 0
M  V30 1763 H 161.716 1.94202 -0.164765 0
M  V30 1764 H 160.812 2.96709 0.968008 0
M  V30 1765 N 161.113 -0.173488 1.56642 0
M  V30 1766 C 162.362 -0.888758 1.81063 0
M  V30 1767 C 162.675 -1.83506 0.67712 0
M  V30 1768 O 163.881 -2.59254 0.806206 0
M  V30 1769 C 162.337 -1.63091 3.20826 0
M  V30 1770 C 161.945 -0.728357 4.4204 0
M  V30 1771 C 163.689 -2.33454 3.54541 0
M  V30 1772 C 161.596 -1.47062 5.72823 0
M  V30 1773 H 160.526 -0.335618 0.675186 0
M  V30 1774 H 163.177 -0.141712 1.82952 0
M  V30 1775 H 161.559 -2.42263 3.13248 0
M  V30 1776 H 162.733 0.0262449 4.60793 0
M  V30 1777 H 161.048 -0.134492 4.16183 0
M  V30 1778 H 163.645 -2.89578 4.49498 0
M  V30 1779 H 163.988 -3.08687 2.79317 0
M  V30 1780 H 164.521 -1.61227 3.63663 0
M  V30 1781 H 161.26 -0.760658 6.51072 0
M  V30 1782 H 160.78 -2.1986 5.58052 0
M  V30 1783 H 162.459 -2.01868 6.14702 0
M  V30 1784 N 162.591 -1.51276 -0.441967 0
M  V30 1785 C 164.007 -1.39349 -0.778083 0
M  V30 1786 C 164.207 -0.472212 -1.95889 0
M  V30 1787 O 163.263 0.0743551 -2.5239 0
M  V30 1788 C 164.576 -2.81292 -1.0628 0
M  V30 1789 C 166.124 -2.9041 -1.16751 0
M  V30 1790 C 166.599 -4.33251 -1.48519 0
M  V30 1791 N 168.09 -4.36336 -1.55453 0
M  V30 1792 C 168.825 -5.43885 -1.81596 0
M  V30 1793 N 168.321 -6.61601 -2.05562 0
M  V30 1794 N 170.114 -5.3136 -1.8334 0
M  V30 1795 H 162.265 -2.09729 0.335774 0
M  V30 1796 H 164.528 -0.943925 0.0878028 0
M  V30 1797 H 164.234 -3.50678 -0.267905 0
M  V30 1798 H 164.108 -3.20334 -1.99163 0
M  V30 1799 H 166.495 -2.21225 -1.95304 0
M  V30 1800 H 166.576 -2.54871 -0.217801 0
M  V30 1801 H 166.22 -5.02984 -0.704958 0
M  V30 1802 H 166.15 -4.66299 -2.44689 0
M  V30 1803 H 168.641 -3.51466 -1.38853 0
M  V30 1804 H 168.954 -7.39361 -2.24867 0
M  V30 1805 H 167.299 -6.64725 -2.02894 0
M  V30 1806 H 170.49 -4.38382 -1.64132 0
M  V30 1807 H 170.663 -6.15258 -2.03377 0
M  V30 1808 N 164.069 0.697108 -1.41344 0
M  V30 1809 C 165.294 1.49096 -1.44171 0
M  V30 1810 C 165.719 1.88038 -0.0481568 0
M  V30 1811 O 165.077 1.54525 0.948243 0
M  V30 1812 C 165.125 2.73088 -2.3549 0
M  V30 1813 O 164.229 3.70514 -1.81088 0
M  V30 1814 H 163.57 0.448801 -0.489361 0
M  V30 1815 H 166.1 0.856992 -1.85787 0
M  V30 1816 H 166.11 3.21413 -2.51312 0
M  V30 1817 H 164.785 2.44081 -3.36745 0
M  V30 1818 H 163.362 3.29441 -1.74708 0
M  V30 1819 N 165.547 1.27147 0.931209 0
M  V30 1820 C 166.795 1.13055 1.6752 0
M  V30 1821 C 167.116 -0.324791 1.92276 0
M  V30 1822 O 166.386 -1.22775 1.52654 0
M  V30 1823 H 164.966 0.415391 0.620854 0
M  V30 1824 H 167.628 1.59623 1.11833 0
M  V30 1825 H 166.724 1.65694 2.64485 0
M  V30 1826 N 167.025 -1.13721 1.09112 0
M  V30 1827 C 168.274 -1.84275 0.82009 0
M  V30 1828 C 168.587 -1.84253 -0.656509 0
M  V30 1829 O 169.793 -2.50668 -1.04296 0
M  V30 1830 C 168.249 -3.30825 1.41714 0
M  V30 1831 C 167.857 -3.39244 2.92605 0
M  V30 1832 C 169.601 -4.06443 1.22492 0
M  V30 1833 C 167.508 -4.80047 3.45411 0
M  V30 1834 H 166.438 -0.690387 0.30312 0
M  V30 1835 H 169.089 -1.28146 1.31343 0
M  V30 1836 H 167.471 -3.86737 0.851498 0
M  V30 1837 H 168.645 -2.93344 3.55367 0
M  V30 1838 H 166.96 -2.77088 3.10823 0
M  V30 1839 H 169.557 -5.10387 1.59402 0
M  V30 1840 H 169.9 -4.15972 0.165299 0
M  V30 1841 H 170.433 -3.56852 1.75788 0
M  V30 1842 H 167.172 -4.75709 4.50978 0
M  V30 1843 H 166.692 -5.26455 2.87411 0
M  V30 1844 H 168.371 -5.48957 3.42425 0
M  V30 1845 N 168.503 -0.877838 -1.30888 0
M  V30 1846 C 169.731 -0.507414 -2.00581 0
M  V30 1847 C 170.146 0.902216 -1.65848 0
M  V30 1848 O 169.503 1.59225 -0.891831 0
M  V30 1849 C 169.554 -0.664162 -3.55347 0
M  V30 1850 O 169.275 -2.01829 -3.8884 0
M  V30 1851 C 170.776 -0.295787 -4.42312 0
M  V30 1852 H 167.996 -0.196866 -0.641471 0
M  V30 1853 H 170.54 -1.18117 -1.66939 0
M  V30 1854 H 168.695 -0.0378619 -3.87381 0
M  V30 1855 H 169.109 -2.03174 -4.8355 0
M  V30 1856 H 170.583 -0.456388 -5.5011 0
M  V30 1857 H 171.06 0.765663 -4.32475 0
M  V30 1858 H 171.666 -0.898113 -4.15709 0
M  V30 1859 N 169.982 1.44106 -0.638065 0
M  V30 1860 C 171.231 2.01194 -0.142744 0
M  V30 1861 C 171.544 1.50835 1.24532 0
M  V30 1862 O 172.75 2.00096 1.83504 0
M  V30 1863 C 171.206 3.59319 -0.20442 0
M  V30 1864 C 170.814 4.18674 -1.59423 0
M  V30 1865 C 172.558 4.23854 0.234079 0
M  V30 1866 C 170.465 5.69045 -1.61065 0
M  V30 1867 H 169.395 0.752367 -0.0495998 0
M  V30 1868 H 172.046 1.65246 -0.797881 0
M  V30 1869 H 170.428 3.92598 0.517946 0
M  V30 1870 H 171.602 3.96921 -2.34074 0
M  V30 1871 H 169.917 3.66453 -1.97741 0
M  V30 1872 H 172.514 5.34155 0.241443 0
M  V30 1873 H 172.857 3.96688 1.2627 0
M  V30 1874 H 173.39 3.95403 -0.436025 0
M  V30 1875 H 170.129 6.00956 -2.61787 0
M  V30 1876 H 169.649 5.929 -0.90718 0
M  V30 1877 H 171.328 6.32809 -1.34766 0
M  V30 1878 N 171.46 0.379036 1.52974 0
M  V30 1879 C 172.871 -0.0972525 1.86447 0
M  V30 1880 C 173.222 -1.47027 1.29914 0
M  V30 1881 O 172.347 -2.07135 0.626433 0
M  V30 1882 C 172.942 -0.183248 3.38304 0
M  V30 1883 C 171.501 -0.603812 3.71525 0
M  V30 1884 C 170.648 0.240632 2.76254 0
M  V30 1885 H 173.599 0.597316 1.4703 0
M  V30 1886 H 173.62 -1.00432 3.67006 0
M  V30 1887 H 173.132 0.816191 3.79421 0
M  V30 1888 H 171.233 -1.61099 3.35973 0
M  V30 1889 H 171.346 -0.369086 4.77676 0
M  V30 1890 H 169.71 -0.292548 2.53014 0
M  V30 1891 H 170.493 1.23786 3.20206 0
M  V30 1892 N 172.938 -1.57226 0.108567 0
M  V30 1893 C 174.187 -1.94008 -0.551703 0
M  V30 1894 C 174.5 -0.993442 -1.68494 0
M  V30 1895 O 175.706 -1.25551 -2.40726 0
M  V30 1896 C 174.162 -3.44763 -1.03279 0
M  V30 1897 C 173.77 -4.47943 0.0714193 0
M  V30 1898 C 175.514 -3.90483 -1.66503 0
M  V30 1899 C 173.421 -5.89865 -0.425779 0
M  V30 1900 H 172.351 -0.724206 -0.209863 0
M  V30 1901 H 175.002 -1.82547 0.186741 0
M  V30 1902 H 173.384 -3.51422 -1.82533 0
M  V30 1903 H 174.558 -4.52942 0.847365 0
M  V30 1904 H 172.873 -4.11913 0.609669 0
M  V30 1905 H 175.47 -4.93925 -2.04798 0
M  V30 1906 H 175.813 -3.29877 -2.53942 0
M  V30 1907 H 176.346 -3.86581 -0.938074 0
M  V30 1908 H 173.085 -6.54202 0.412316 0
M  V30 1909 H 172.605 -5.88309 -1.16843 0
M  V30 1910 H 174.284 -6.40844 -0.890397 0
M  V30 1911 N 174.416 0.165178 -1.56732 0
M  V30 1912 C 175.363 1.2044 -1.96883 0
M  V30 1913 C 176.333 1.43664 -0.833657 0
M  V30 1914 O 177.518 1.56302 -1.09427 0
M  V30 1915 C 174.658 2.53727 -2.33916 0
M  V30 1916 C 173.771 2.3783 -3.6064 0
M  V30 1917 C 172.906 3.64026 -3.86857 0
M  V30 1918 C 171.945 3.43088 -5.06909 0
M  V30 1919 N 171.082 4.61369 -5.29229 0
M  V30 1920 H 175.922 0.854996 -2.85471 0
M  V30 1921 H 173.459 0.41076 -1.41249 0
M  V30 1922 H 175.417 3.31419 -2.53411 0
M  V30 1923 H 174.047 2.8665 -1.48431 0
M  V30 1924 H 173.099 1.51282 -3.49024 0
M  V30 1925 H 174.411 2.18308 -4.4849 0
M  V30 1926 H 173.565 4.50152 -4.06753 0
M  V30 1927 H 172.304 3.86533 -2.97394 0
M  V30 1928 H 171.309 2.55349 -4.86906 0
M  V30 1929 H 172.534 3.21997 -5.97909 0
M  V30 1930 H 170.48 4.84084 -4.42718 0
M  V30 1931 H 170.397 4.44783 -6.11313 0
M  V30 1932 H 171.665 5.48761 -5.53608 0
M  V30 1933 N 175.894 1.51508 0.433938 0
M  V30 1934 C 177.122 1.68157 1.20543 0
M  V30 1935 C 177.537 0.380362 1.84929 0
M  V30 1936 O 176.894 -0.641446 1.70856 0
M  V30 1937 C 176.945 2.79965 2.28696 0
M  V30 1938 O 176.666 4.05045 1.66943 0
M  V30 1939 C 178.167 3.07912 3.18912 0
M  V30 1940 H 175.387 0.56421 0.363191 0
M  V30 1941 H 177.931 1.97941 0.513754 0
M  V30 1942 H 176.086 2.5277 2.93574 0
M  V30 1943 H 176.5 4.67165 2.38448 0
M  V30 1944 H 177.974 3.89719 3.90926 0
M  V30 1945 H 178.451 2.20456 3.79863 0
M  V30 1946 H 179.057 3.36779 2.59731 0
M  V30 1947 N 177.372 -0.689602 1.41712 0
M  V30 1948 C 178.335 -1.78521 1.43746 0
M  V30 1949 C 179.335 -1.57436 0.327191 0
M  V30 1950 O 180.525 -1.64 0.587348 0
M  V30 1951 C 177.657 -3.16971 1.25467 0
M  V30 1952 H 178.85 -1.78108 2.41283 0
M  V30 1953 H 176.403 -0.89781 1.27942 0
M  V30 1954 H 177.138 -3.23019 0.287948 0
M  V30 1955 H 176.923 -3.33678 2.05917 0
M  V30 1956 H 178.413 -3.96935 1.2974 0
M  V30 1957 N 178.85 -1.27639 -0.924453 0
M  V30 1958 C 179.798 -1.10485 -2.04685 0
M  V30 1959 C 180.792 -0.0270421 -1.69378 0
M  V30 1960 O 181.998 -0.185008 -1.79047 0
M  V30 1961 H 178.373 -0.340546 -0.670472 0
M  V30 1962 H 180.344 -2.05566 -2.16298 0
M  V30 1963 C 179.093 -0.772229 -3.39016 0
M  V30 1964 H 178.416 -1.59351 -3.66671 0
M  V30 1965 H 179.856 -0.692097 -4.18313 0
M  V30 1966 C 178.315 0.523554 -3.32807 0
M  V30 1967 O 178.845 1.55702 -3.70297 0
M  V30 1968 N 177.051 0.520363 -2.85903 0
M  V30 1969 H 176.598 -0.32107 -2.55591 0
M  V30 1970 H 176.556 1.38742 -2.82131 0
M  V30 1971 N 180.328 1.1314 -1.09713 0
M  V30 1972 C 181.576 1.84119 -0.833338 0
M  V30 1973 C 181.897 1.84097 0.642904 0
M  V30 1974 O 181.167 1.29881 1.46655 0
M  V30 1975 H 179.747 0.681766 -0.305293 0
M  V30 1976 H 182.409 1.37038 -1.38588 0
M  V30 1977 H 181.505 2.88543 -1.18951 0
M  V30 1978 N 181.806 0.884767 1.30421 0
M  V30 1979 C 183.053 0.503105 1.96151 0
M  V30 1980 C 183.381 -0.947676 1.69851 0
M  V30 1981 O 182.636 -1.68467 0.995861 0
M  V30 1982 C 182.935 0.724318 3.49983 0
M  V30 1983 C 182.601 2.15015 3.96332 0
M  V30 1984 C 181.263 2.54005 4.08699 0
M  V30 1985 C 183.615 3.07936 4.20505 0
M  V30 1986 C 180.943 3.85128 4.42599 0
M  V30 1987 C 183.295 4.3859 4.55874 0
M  V30 1988 C 181.959 4.77474 4.66449 0
M  V30 1989 H 181.229 0.184099 0.717766 0
M  V30 1990 H 183.876 1.12058 1.55291 0
M  V30 1991 H 182.181 0.0238086 3.91793 0
M  V30 1992 H 183.878 0.408617 3.98913 0
M  V30 1993 H 180.468 1.8375 3.87213 0
M  V30 1994 H 184.652 2.79033 4.10431 0
M  V30 1995 H 179.908 4.14996 4.48986 0
M  V30 1996 H 184.082 5.10629 4.7353 0
M  V30 1997 H 181.709 5.79115 4.92473 0
M  V30 1998 N 183.284 -1.43765 0.645699 0
M  V30 1999 C 184.217 -2.2798 -0.100072 0
M  V30 2000 C 185.195 -1.39391 -0.837194 0
M  V30 2001 O 186.379 -1.68833 -0.838306 0
M  V30 2002 C 183.506 -3.18643 -1.14823 0
M  V30 2003 C 182.552 -4.2344 -0.510009 0
M  V30 2004 S 183.385 -5.30761 0.710824 0
M  V30 2005 C 184.541 -6.24992 -0.33699 0
M  V30 2006 H 184.774 -2.90884 0.614322 0
M  V30 2007 H 182.307 -1.48166 0.434304 0
M  V30 2008 H 184.265 -3.71424 -1.74799 0
M  V30 2009 H 182.926 -2.54932 -1.8349 0
M  V30 2010 H 182.119 -4.86948 -1.29991 0
M  V30 2011 H 181.721 -3.73997 0.0154577 0
M  V30 2012 H 184.013 -6.66691 -1.20537 0
M  V30 2013 H 184.956 -7.07612 0.262879 0
M  V30 2014 H 185.364 -5.60517 -0.669425 0
M  V30 2015 N 184.763 -0.387143 -1.52771 0
M  V30 2016 C 185.988 0.198407 -2.06449 0
M  V30 2017 C 186.413 1.39918 -1.25716 0
M  V30 2018 O 185.771 1.79099 -0.281657 0
M  V30 2019 C 185.819 0.548893 -3.56398 0
M  V30 2020 O 184.923 1.64315 -3.78252 0
M  V30 2021 H 184.264 0.0237731 -0.663574 0
M  V30 2022 H 186.794 -0.553989 -1.96957 0
M  V30 2023 H 186.804 0.813812 -3.99801 0
M  V30 2024 H 185.479 -0.329005 -4.14597 0
M  V30 2025 H 184.056 1.37211 -3.46738 0
M  V30 2026 N 186.241 1.57166 -0.116904 0
M  V30 2027 C 187.174 2.10912 0.871291 0
M  V30 2028 C 188.152 1.025 1.26224 0
M  V30 2029 O 189.336 1.3014 1.36366 0
M  V30 2030 C 186.463 2.6041 2.16574 0
M  V30 2031 C 185.509 3.80687 1.92302 0
M  V30 2032 S 186.342 5.23199 1.14119 0
M  V30 2033 C 187.498 5.76064 2.44748 0
M  V30 2034 H 187.731 2.94401 0.414138 0
M  V30 2035 H 185.264 1.54096 0.096829 0
M  V30 2036 H 187.222 2.89583 2.9095 0
M  V30 2037 H 185.883 1.77106 2.59408 0
M  V30 2038 H 185.076 4.13462 2.8821 0
M  V30 2039 H 184.678 3.5212 1.26047 0
M  V30 2040 H 186.97 5.8566 3.406 0
M  V30 2041 H 187.913 6.74184 2.16521 0
M  V30 2042 H 188.321 5.04117 2.54019 0
M  V30 2043 N 187.719 -0.156864 1.56817 0
M  V30 2044 C 188.966 -0.871125 1.82805 0
M  V30 2045 C 189.294 -1.81611 0.696262 0
M  V30 2046 O 188.549 -1.93141 -0.315459 0
M  V30 2047 C 188.848 -1.68737 3.1506 0
M  V30 2048 C 188.514 -0.890045 4.42028 0
M  V30 2049 C 187.176 -0.670042 4.76512 0
M  V30 2050 C 189.528 -0.331769 5.20143 0
M  V30 2051 C 186.856 0.119104 5.86579 0
M  V30 2052 C 189.208 0.444365 6.31037 0
M  V30 2053 C 187.872 0.675035 6.64078 0
M  V30 2054 H 187.142 -0.318767 0.668931 0
M  V30 2055 H 189.789 -0.135274 1.91022 0
M  V30 2056 H 188.094 -2.49304 3.0225 0
M  V30 2057 H 189.791 -2.24331 3.3238 0
M  V30 2058 H 186.381 -1.07157 4.14988 0
M  V30 2059 H 190.565 -0.489043 4.93885 0
M  V30 2060 H 185.821 0.307417 6.10627 0
M  V30 2061 H 189.995 0.884139 6.90765 0
M  V30 2062 H 187.622 1.28839 7.49203 0
M  V30 2063 N 189.197 -1.51736 -0.425897 0
M  V30 2064 C 190.425 -1.68794 -1.1965 0
M  V30 2065 C 190.84 -0.390164 -1.84725 0
M  V30 2066 O 190.197 0.632376 -1.71194 0
M  V30 2067 C 190.248 -2.81174 -2.27208 0
M  V30 2068 O 189.969 -4.05925 -1.64793 0
M  V30 2069 C 191.47 -3.09599 -3.17275 0
M  V30 2070 H 188.69 -0.566128 -0.360194 0
M  V30 2071 H 191.234 -1.98211 -0.503249 0
M  V30 2072 H 189.389 -2.54324 -2.9223 0
M  V30 2073 H 189.803 -4.68423 -2.35967 0
M  V30 2074 H 191.277 -3.91786 -3.88854 0
M  V30 2075 H 191.754 -2.22468 -3.78688 0
M  V30 2076 H 192.36 -3.38151 -2.57941 0
M  V30 2077 N 190.675 0.682077 -1.42076 0
M  V30 2078 C 191.608 1.80666 -1.3941 0
M  V30 2079 C 192.586 1.60518 -0.25939 0
M  V30 2080 O 193.77 1.83088 -0.448456 0
M  V30 2081 C 190.897 3.17556 -1.17796 0
M  V30 2082 C 189.943 3.56468 -2.34164 0
M  V30 2083 S 190.776 3.59729 -3.96681 0
M  V30 2084 C 191.932 4.99323 -3.77395 0
M  V30 2085 H 192.165 1.82652 -2.34575 0
M  V30 2086 H 189.698 0.852062 -1.2876 0
M  V30 2087 H 191.656 3.96575 -1.06012 0
M  V30 2088 H 190.317 3.13164 -0.242279 0
M  V30 2089 H 189.51 4.5595 -2.1477 0
M  V30 2090 H 189.112 2.84792 -2.42425 0
M  V30 2091 H 191.404 5.87202 -3.37935 0
M  V30 2092 H 192.347 5.23763 -4.76527 0
M  V30 2093 H 192.755 4.71498 -3.10403 0
M  V30 2094 N 192.153 1.28127 0.917671 0
M  V30 2095 C 193.116 1.11744 2.00115 0
M  V30 2096 C 194.116 0.0583052 1.60694 0
M  V30 2097 O 195.306 0.303755 1.71531 0
M  V30 2098 C 192.438 0.704862 3.33533 0
M  V30 2099 H 193.631 2.07966 2.16079 0
M  V30 2100 H 191.184 1.11058 1.09981 0
M  V30 2101 H 191.919 -0.258299 3.2327 0
M  V30 2102 H 191.704 1.4699 3.63505 0
M  V30 2103 H 193.194 0.612768 4.1308 0
M  V30 2104 N 193.631 -1.12557 1.10312 0
M  V30 2105 C 194.856 -1.88405 0.867085 0
M  V30 2106 C 195.281 -1.79038 -0.576817 0
M  V30 2107 O 194.639 -1.14439 -1.40618 0
M  V30 2108 C 194.687 -3.3563 1.31851 0
M  V30 2109 O 193.791 -4.09565 0.482734 0
M  V30 2110 H 193.132 -0.585455 0.313271 0
M  V30 2111 H 195.662 -1.42352 1.4696 0
M  V30 2112 H 195.672 -3.86469 1.3079 0
M  V30 2113 H 194.347 -3.41765 2.37001 0
M  V30 2114 H 192.924 -3.68695 0.558448 0
M  V30 2115 N 195.109 -0.891671 -1.2995 0
M  V30 2116 C 196.386 -0.433307 -1.9074 0
M  V30 2117 C 196.766 1.08646 -1.80995 0
M  V30 2118 O 196.114 1.92476 -1.23147 0
M  V30 2119 C 196.324 -0.938895 -3.36134 0
M  V30 2120 C 197.672 -0.977829 -4.13187 0
M  V30 2121 O 198.696 -0.886015 -3.45005 0
M  V30 2122 O 197.555 -1.11453 -5.35015 0
M  V30 2123 H 194.649 -0.133699 -0.816121 0
M  V30 2124 H 197.195 -0.981011 -1.38471 0
M  V30 2125 H 195.967 -1.98281 -3.37343 0
M  V30 2126 H 195.59 -0.37074 -3.95868 0
M  V30 2127 N 196.587 1.43421 -0.653314 0
M  V30 2128 C 197.534 2.30768 0.0382271 0
M  V30 2129 C 198.504 1.44755 0.814576 0
M  V30 2130 O 199.689 1.73624 0.791162 0
M  V30 2131 C 196.829 3.30336 0.998599 0
M  V30 2132 C 195.942 4.31448 0.218342 0
M  V30 2133 C 195.077 5.18098 1.17252 0
M  V30 2134 C 194.116 6.10902 0.382702 0
M  V30 2135 N 193.253 6.90176 1.28848 0
M  V30 2136 H 198.093 2.89357 -0.712511 0
M  V30 2137 H 195.63 1.42548 -0.363128 0
M  V30 2138 H 197.588 3.86572 1.56901 0
M  V30 2139 H 196.218 2.73397 1.71621 0
M  V30 2140 H 195.27 3.77506 -0.46836 0
M  V30 2141 H 196.582 4.97227 -0.395812 0
M  V30 2142 H 195.736 5.7896 1.81356 0
M  V30 2143 H 194.475 4.52444 1.82058 0
M  V30 2144 H 193.48 5.49128 -0.27169 0
M  V30 2145 H 194.705 6.78598 -0.260957 0
M  V30 2146 H 192.651 6.27171 1.92334 0
M  V30 2147 H 192.568 7.52478 0.728887 0
M  V30 2148 H 193.836 7.55543 1.91766 0
M  V30 2149 N 198.065 0.39524 1.52563 0
M  V30 2150 C 199.476 -0.0774719 1.86539 0
M  V30 2151 C 199.827 -1.45641 1.31466 0
M  V30 2152 O 198.952 -2.06459 0.648367 0
M  V30 2153 C 199.547 -0.147356 3.38479 0
M  V30 2154 C 198.106 -0.564373 3.72145 0
M  V30 2155 C 197.253 0.269919 2.75983 0
M  V30 2156 H 200.204 0.612876 1.46388 0
M  V30 2157 H 200.225 -0.965343 3.68051 0
M  V30 2158 H 199.737 0.856387 3.78534 0
M  V30 2159 H 197.838 -1.57527 3.37663 0
M  V30 2160 H 197.951 -0.318402 4.78041 0
M  V30 2161 H 196.315 -0.265696 2.5331 0
M  V30 2162 H 197.098 1.27175 3.18875 0
M  V30 2163 N 199.544 -1.57102 0.125237 0
M  V30 2164 C 200.79 -1.95697 -0.532035 0
M  V30 2165 C 201.123 -1.009 -1.6593 0
M  V30 2166 O 200.398 -0.047347 -1.94442 0
M  V30 2167 C 200.681 -3.44181 -1.05884 0
M  V30 2168 C 200.534 -4.49752 0.0654392 0
M  V30 2169 C 201.853 -3.94655 -1.9477 0
M  V30 2170 H 198.972 -0.711571 -0.191925 0
M  V30 2171 H 201.614 -1.88923 0.20206 0
M  V30 2172 H 199.764 -3.50085 -1.68442 0
M  V30 2173 H 201.436 -4.55943 0.700982 0
M  V30 2174 H 199.679 -4.27653 0.727709 0
M  V30 2175 H 200.35 -5.50924 -0.344505 0
M  V30 2176 H 202.826 -3.91094 -1.42074 0
M  V30 2177 H 201.702 -4.99057 -2.28546 0
M  V30 2178 H 201.963 -3.35718 -2.87656 0
M  V30 2179 N 201.022 0.148545 -1.56898 0
M  V30 2180 C 202.271 0.85984 -1.82454 0
M  V30 2181 C 202.584 1.82406 -0.706229 0
M  V30 2182 O 203.79 2.57938 -0.847349 0
M  V30 2183 C 202.246 1.57967 -3.2338 0
M  V30 2184 C 201.854 0.65794 -4.43142 0
M  V30 2185 C 203.598 2.27784 -3.58211 0
M  V30 2186 C 201.505 1.3793 -5.75091 0
M  V30 2187 H 200.435 0.324834 -0.68044 0
M  V30 2188 H 203.086 0.112588 -1.83154 0
M  V30 2189 H 201.468 2.37249 -3.17063 0
M  V30 2190 H 202.642 -0.0995497 -4.60692 0
M  V30 2191 H 200.957 0.0682643 -4.16344 0
M  V30 2192 H 203.554 2.8239 -4.54048 0
M  V30 2193 H 203.897 3.04204 -2.84193 0
M  V30 2194 H 204.43 1.55421 -3.66182 0
M  V30 2195 H 201.169 0.656982 -6.52199 0
M  V30 2196 H 200.689 2.10954 -5.61479 0
M  V30 2197 H 202.368 1.92063 -6.17835 0
M  V30 2198 N 202.5 1.5196 0.417844 0
M  V30 2199 C 203.777 1.56146 1.17803 0
M  V30 2200 C 204.157 0.337275 2.08388 0
M  V30 2201 O 203.505 -0.676447 2.18258 0
M  V30 2202 C 203.715 2.88566 1.96293 0
M  V30 2203 C 205.063 3.41244 2.52662 0
M  V30 2204 O 206.087 2.90247 2.06483 0
M  V30 2205 O 204.946 4.30273 3.36938 0
M  V30 2206 H 202.04 0.628598 0.537395 0
M  V30 2207 H 204.586 1.64283 0.425331 0
M  V30 2208 H 203.358 3.69116 1.2988 0
M  V30 2209 H 202.981 2.83681 2.78587 0
M  V30 2210 N 203.978 -0.674533 1.42435 0
M  V30 2211 C 204.908 -1.80009 1.48724 0
M  V30 2212 C 205.889 -1.6659 0.343793 0
M  V30 2213 O 207.074 -1.86007 0.558137 0
M  V30 2214 C 204.204 -3.18306 1.38919 0
M  V30 2215 C 203.158 -3.46461 2.51294 0
M  V30 2216 C 202.484 -4.84335 2.26547 0
M  V30 2217 C 203.784 -3.43328 3.93603 0
M  V30 2218 H 205.478 -1.75004 2.42928 0
M  V30 2219 H 203.024 -0.840533 1.16923 0
M  V30 2220 H 204.977 -3.9678 1.41927 0
M  V30 2221 H 203.701 -3.2399 0.412094 0
M  V30 2222 H 202.36 -2.70348 2.47604 0
M  V30 2223 H 202.008 -4.86669 1.2713 0
M  V30 2224 H 201.708 -5.04136 3.01861 0
M  V30 2225 H 203.232 -5.65094 2.31304 0
M  V30 2226 H 204.646 -4.11772 3.98894 0
M  V30 2227 H 203.043 -3.74664 4.68771 0
M  V30 2228 H 204.113 -2.41897 4.20255 0
M  V30 2229 N 205.456 -1.28612 -0.910864 0
M  V30 2230 C 206.733 -1.06632 -1.63979 0
M  V30 2231 C 207.113 0.393351 -2.07403 0
M  V30 2232 O 206.461 1.37999 -1.82122 0
M  V30 2233 C 206.671 -2.0436 -2.8291 0
M  V30 2234 C 208.019 -2.34666 -3.5386 0
M  V30 2235 O 209.043 -2.02467 -2.93062 0
M  V30 2236 O 207.902 -2.89631 -4.63439 0
M  V30 2237 H 204.996 -0.407737 -0.7195 0
M  V30 2238 H 207.542 -1.39942 -0.959914 0
M  V30 2239 H 206.314 -3.02727 -2.47936 0
M  V30 2240 H 205.937 -1.71714 -3.58609 0
M  V30 2241 N 206.934 1.1197 -1.10907 0
M  V30 2242 C 208.35 1.35591 -0.841852 0
M  V30 2243 C 208.55 1.94233 0.536246 0
M  V30 2244 O 207.606 2.1717 1.28816 0
M  V30 2245 C 208.919 2.29284 -1.94549 0
M  V30 2246 C 210.467 2.42862 -1.97451 0
M  V30 2247 C 210.942 3.39873 -3.07002 0
M  V30 2248 N 212.433 3.47433 -3.06341 0
M  V30 2249 C 213.168 4.22421 -3.87748 0
M  V30 2250 N 212.664 5.00432 -4.79103 0
M  V30 2251 N 214.457 4.17876 -3.75946 0
M  V30 2252 H 206.608 0.722664 -1.99728 0
M  V30 2253 H 208.871 0.380635 -0.868229 0
M  V30 2254 H 208.577 1.93378 -2.93765 0
M  V30 2255 H 208.451 3.29452 -1.83688 0
M  V30 2256 H 210.838 2.78046 -0.988645 0
M  V30 2257 H 210.919 1.42566 -2.12388 0
M  V30 2258 H 210.563 3.05417 -4.05811 0
M  V30 2259 H 210.493 4.40011 -2.89306 0
M  V30 2260 H 212.984 2.91784 -2.40147 0
M  V30 2261 H 213.297 5.55002 -5.37766 0
M  V30 2262 H 211.642 4.99612 -4.83128 0
M  V30 2263 H 214.833 3.56016 -3.03924 0
M  V30 2264 H 215.006 4.76061 -4.39624 0
M  V30 2265 N 208.412 0.89855 1.29475 0
M  V30 2266 C 209.322 0.379974 2.31502 0
M  V30 2267 C 210.338 -0.524695 1.659 0
M  V30 2268 O 211.514 -0.414551 1.97087 0
M  V30 2269 C 208.579 -0.385138 3.44554 0
M  V30 2270 C 207.64 0.550914 4.2575 0
M  V30 2271 C 206.873 -0.177778 5.33404 0
M  V30 2272 O 207.096 -1.40189 5.52904 0
M  V30 2273 O 206.03 0.479106 5.9999 0
M  V30 2274 H 209.856 1.22639 2.77837 0
M  V30 2275 H 207.441 0.662834 1.33891 0
M  V30 2276 H 209.323 -0.817841 4.13388 0
M  V30 2277 H 207.998 -1.20763 3.0033 0
M  V30 2278 H 206.905 1.03271 3.59564 0
M  V30 2279 H 208.238 1.33979 4.73614 0
M  V30 2280 N 209.89 -1.43072 0.660911 0
M  V30 2281 C 211.139 -2.00942 0.174735 0
M  V30 2282 C 211.452 -1.52797 -1.22117 0
M  V30 2283 O 212.658 -2.02991 -1.80297 0
M  V30 2284 C 211.114 -3.58948 0.261559 0
M  V30 2285 C 210.722 -4.16085 1.66064 0
M  V30 2286 C 212.466 -4.24173 -0.166617 0
M  V30 2287 C 210.373 -5.6641 1.70098 0
M  V30 2288 H 209.303 -0.751483 0.0615631 0
M  V30 2289 H 211.954 -1.63955 0.824069 0
M  V30 2290 H 210.336 -3.93372 -0.455421 0
M  V30 2291 H 211.51 -3.93147 2.40359 0
M  V30 2292 H 209.825 -3.6326 2.03546 0
M  V30 2293 H 212.422 -5.34471 -0.156433 0
M  V30 2294 H 212.765 -3.98647 -1.19943 0
M  V30 2295 H 213.298 -3.94659 0.498875 0
M  V30 2296 H 210.037 -5.96715 2.71315 0
M  V30 2297 H 209.557 -5.91382 1.00139 0
M  V30 2298 H 211.236 -6.30585 1.44816 0
M  V30 2299 N 211.368 -0.403325 -1.52352 0
M  V30 2300 C 212.645 0.232611 -1.94212 0
M  V30 2301 C 213.025 1.63133 -1.33981 0
M  V30 2302 O 212.373 2.22659 -0.513344 0
M  V30 2303 C 212.583 0.244811 -3.4814 0
M  V30 2304 C 213.931 0.46698 -4.22024 0
M  V30 2305 O 214.955 0.324419 -3.5472 0
M  V30 2306 O 213.814 0.74747 -5.41364 0
M  V30 2307 H 210.908 0.148223 -0.813609 0
M  V30 2308 H 213.454 -0.458848 -1.63379 0
M  V30 2309 H 212.226 -0.734378 -3.84347 0
M  V30 2310 H 211.849 0.980611 -3.85318 0
M  V30 2311 N 212.846 1.57033 -0.133567 0
M  V30 2312 C 213.809 2.14897 0.796995 0
M  V30 2313 C 214.809 1.0874 1.18458 0
M  V30 2314 O 215.999 1.34446 1.1077 0
M  V30 2315 C 213.131 2.70112 2.07973 0
M  V30 2316 H 214.324 2.98457 0.293873 0
M  V30 2317 H 211.877 1.55871 0.115787 0
M  V30 2318 H 212.612 1.9018 2.62682 0
M  V30 2319 H 212.397 3.47764 1.81115 0
M  V30 2320 H 213.887 3.14738 2.74462 0
M  V30 2321 N 214.325 -0.140222 1.56975 0
M  V30 2322 C 215.571 -0.852949 1.83991 0
M  V30 2323 C 215.904 -1.80512 0.716187 0
M  V30 2324 O 215.179 -1.92479 -0.279681 0
M  V30 2325 C 215.462 -1.6215 3.21527 0
M  V30 2326 C 215.315 -0.690363 4.4447 0
M  V30 2327 C 216.634 -2.58247 3.56366 0
M  V30 2328 H 213.753 -0.308634 0.669264 0
M  V30 2329 H 216.395 -0.117898 1.89634 0
M  V30 2330 H 214.545 -2.24812 3.16847 0
M  V30 2331 H 216.217 -0.0742264 4.6124 0
M  V30 2332 H 214.46 -0.000396433 4.338 0
M  V30 2333 H 215.131 -1.2643 5.37326 0
M  V30 2334 H 217.607 -2.05701 3.61699 0
M  V30 2335 H 216.483 -3.09067 4.53617 0
M  V30 2336 H 216.744 -3.39923 2.82674 0
M  V30 2337 N 215.803 -1.52179 -0.40978 0
M  V30 2338 C 216.766 -1.74853 -1.48186 0
M  V30 2339 C 217.766 -0.618417 -1.48433 0
M  V30 2340 O 218.956 -0.886286 -1.49969 0
M  V30 2341 C 216.088 -1.8303 -2.87598 0
M  V30 2342 H 217.281 -2.70559 -1.29374 0
M  V30 2343 H 214.834 -1.42586 -0.640233 0
M  V30 2344 H 215.569 -0.89236 -3.11781 0
M  V30 2345 H 215.354 -2.65187 -2.88822 0
M  V30 2346 H 216.844 -2.02316 -3.65319 0
M  V30 2347 N 217.281 0.66697 -1.42791 0
M  V30 2348 C 218.244 1.76211 -1.46568 0
M  V30 2349 C 219.244 1.56896 -0.352196 0
M  V30 2350 O 220.434 1.63044 -0.613364 0
M  V30 2351 C 217.566 3.14935 -1.30494 0
M  V30 2352 H 218.759 1.74247 -2.44086 0
M  V30 2353 H 216.312 0.877342 -1.29354 0
M  V30 2354 H 217.047 3.2252 -0.339301 0
M  V30 2355 H 216.832 3.30359 -2.11199 0
M  V30 2356 H 218.322 3.94821 -1.36038 0
M  V30 2357 N 218.759 1.29093 0.90403 0
M  V30 2358 C 219.722 1.1386 1.98919 0
M  V30 2359 C 220.722 0.0753457 1.60623 0
M  V30 2360 O 221.912 0.321931 1.71199 0
M  V30 2361 C 219.044 0.740198 3.32767 0
M  V30 2362 H 220.237 2.10246 2.13861 0
M  V30 2363 H 217.79 1.12218 1.08797 0
M  V30 2364 H 218.525 -0.223997 3.23525 0
M  V30 2365 H 218.31 1.50838 3.61926 0
M  V30 2366 H 219.8 0.656546 4.12407 0
M  V30 2367 N 220.237 -1.11381 1.11499 0
M  V30 2368 C 221.2 -2.15622 0.777153 0
M  V30 2369 C 222.2 -1.59504 -0.203779 0
M  V30 2370 O 223.39 -1.74188 0.020782 0
M  V30 2371 C 220.522 -3.40556 0.153116 0
M  V30 2372 H 221.715 -2.47021 1.70061 0
M  V30 2373 H 219.268 -1.26577 0.916952 0
M  V30 2374 H 220.003 -3.14767 -0.780536 0
M  V30 2375 H 219.788 -3.8257 0.859238 0
M  V30 2376 H 221.278 -4.17546 -0.0671044 0
M  V30 2377 N 221.715 -0.905404 -1.28997 0
M  V30 2378 C 222.943 -0.549846 -1.9946 0
M  V30 2379 C 223.358 0.866834 -1.67724 0
M  V30 2380 O 222.715 1.57298 -0.925404 0
M  V30 2381 C 222.766 -0.739387 -3.53858 0
M  V30 2382 O 222.487 -2.10031 -3.84472 0
M  V30 2383 C 223.988 -0.389541 -4.41585 0
M  V30 2384 H 221.208 -0.210429 -0.637151 0
M  V30 2385 H 223.752 -1.21632 -1.64396 0
M  V30 2386 H 221.907 -0.120023 -3.87214 0
M  V30 2387 H 222.321 -2.13385 -4.79132 0
M  V30 2388 H 223.795 -0.572972 -5.49018 0
M  V30 2389 H 224.272 0.673756 -4.34001 0
M  V30 2390 H 224.878 -0.986089 -4.1371 0
M  V30 2391 N 223.193 1.4272 -0.668489 0
M  V30 2392 C 224.442 2.00846 -0.185389 0
M  V30 2393 C 224.755 1.53442 1.21305 0
M  V30 2394 O 225.961 2.03944 1.79218 0
M  V30 2395 C 224.417 3.58805 -0.280591 0
M  V30 2396 C 224.025 4.15198 -1.68268 0
M  V30 2397 C 225.769 4.24255 0.14412 0
M  V30 2398 C 223.676 5.655 -1.73099 0
M  V30 2399 H 222.606 0.751145 -0.0655475 0
M  V30 2400 H 225.257 1.63516 -0.832752 0
M  V30 2401 H 223.639 3.93608 0.434553 0
M  V30 2402 H 224.813 3.91866 -2.42441 0
M  V30 2403 H 223.128 3.62176 -2.05469 0
M  V30 2404 H 225.725 5.34547 0.128086 0
M  V30 2405 H 226.068 3.99277 1.17827 0
M  V30 2406 H 226.601 3.94389 -0.519798 0
M  V30 2407 H 223.34 5.95268 -2.74475 0
M  V30 2408 H 222.86 5.90842 -1.03274 0
M  V30 2409 H 224.539 6.29808 -1.48158 0
M  V30 2410 N 224.671 0.411399 1.52136 0
M  V30 2411 C 225.919 -0.163322 2.01439 0
M  V30 2412 C 226.24 -1.45453 1.29879 0
M  V30 2413 O 225.51 -1.91225 0.4254 0
M  V30 2414 H 224.09 -0.0633447 0.744309 0
M  V30 2415 H 226.752 0.548161 1.87033 0
M  V30 2416 H 225.848 -0.357817 3.10042 0
M  V30 2417 N 226.149 -1.5696 0.141893 0
M  V30 2418 C 227.081 -2.13619 -0.830627 0
M  V30 2419 C 228.094 -1.08439 -1.21428 0
M  V30 2420 O 229.283 -1.35734 -1.15925 0
M  V30 2421 C 226.383 -2.63978 -2.12529 0
M  V30 2422 C 225.556 -3.93504 -1.9098 0
M  V30 2423 C 224.615 -4.29225 -3.04388 0
M  V30 2424 O 223.641 -4.97641 -2.76302 0
M  V30 2425 N 224.843 -3.88393 -4.31429 0
M  V30 2426 H 227.608 -2.97691 -0.34641 0
M  V30 2427 H 225.169 -1.61846 -0.0418375 0
M  V30 2428 H 227.161 -2.84891 -2.87436 0
M  V30 2429 H 225.731 -1.84659 -2.52229 0
M  V30 2430 H 224.951 -3.81269 -1.00139 0
M  V30 2431 H 226.239 -4.78154 -1.73914 0
M  V30 2432 H 225.637 -3.33257 -4.57117 0
M  V30 2433 H 224.194 -4.14368 -5.03133 0
M  V30 2434 N 227.627 0.131896 -1.57047 0
M  V30 2435 C 228.876 0.84044 -1.83356 0
M  V30 2436 C 229.189 1.81646 -0.725535 0
M  V30 2437 O 230.395 2.57025 -0.874659 0
M  V30 2438 C 228.851 1.54528 -3.25037 0
M  V30 2439 C 228.459 0.610902 -4.43815 0
M  V30 2440 C 230.203 2.23972 -3.60606 0
M  V30 2441 C 228.11 1.31823 -5.76521 0
M  V30 2442 H 227.04 0.317599 -0.683847 0
M  V30 2443 H 229.691 0.0931561 -1.83263 0
M  V30 2444 H 228.073 2.33873 -3.19561 0
M  V30 2445 H 229.247 -0.148407 -4.60561 0
M  V30 2446 H 227.562 0.0241016 -4.16393 0
M  V30 2447 H 230.159 2.77558 -4.57018 0
M  V30 2448 H 230.502 3.01173 -2.87403 0
M  V30 2449 H 231.035 1.51529 -3.6781 0
M  V30 2450 H 227.774 0.587771 -6.52859 0
M  V30 2451 H 227.294 2.04987 -5.63685 0
M  V30 2452 H 228.973 1.855 -6.19838 0
M  V30 2453 N 229.106 1.52395 0.401703 0
M  V30 2454 C 230.056 1.72649 1.48917 0
M  V30 2455 C 231.04 0.580436 1.50066 0
M  V30 2456 O 232.232 0.83779 1.55917 0
M  V30 2457 C 229.361 1.88729 2.86769 0
M  V30 2458 C 228.447 3.09228 2.90239 0
M  V30 2459 N 228.838 4.31805 2.63396 0
M  V30 2460 C 227.136 3.09214 3.21408 0
M  V30 2461 C 227.837 5.13326 2.73625 0
M  V30 2462 N 226.813 4.48735 3.06819 0
M  V30 2463 H 230.615 2.65058 1.26971 0
M  V30 2464 H 228.129 1.50528 0.609504 0
M  V30 2465 H 230.126 2.01358 3.65049 0
M  V30 2466 H 228.786 0.975252 3.09708 0
M  V30 2467 H 229.797 4.60154 2.37653 0
M  V30 2468 H 226.474 2.27774 3.49893 0
M  V30 2469 H 227.864 6.21003 2.56524 0
M  V30 2470 N 230.584 -0.659388 1.43143 0
M  V30 2471 C 231.547 -1.75432 1.47501 0
M  V30 2472 C 232.547 -1.56707 0.360512 0
M  V30 2473 O 233.737 -1.62717 0.622002 0
M  V30 2474 C 230.869 -3.14239 1.32162 0
M  V30 2475 H 232.062 -1.7295 2.45006 0
M  V30 2476 H 229.615 -0.870469 1.29817 0
M  V30 2477 H 230.35 -3.22336 0.356401 0
M  V30 2478 H 230.135 -3.29235 2.12948 0
M  V30 2479 H 231.625 -3.94094 1.3813 0
M  V30 2480 N 232.062 -1.29571 -0.897171 0
M  V30 2481 C 233.478 -1.07637 -1.17841 0
M  V30 2482 C 233.678 0.170713 -2.00776 0
M  V30 2483 O 232.734 0.867768 -2.3712 0
M  V30 2484 C 234.047 -2.3332 -1.8969 0
M  V30 2485 C 235.595 -2.38664 -2.02505 0
M  V30 2486 C 236.07 -3.64157 -2.77765 0
M  V30 2487 N 237.561 -3.64894 -2.85318 0
M  V30 2488 C 238.296 -4.58679 -3.44094 0
M  V30 2489 N 237.792 -5.62799 -4.04017 0
M  V30 2490 N 239.585 -4.46245 -3.41793 0
M  V30 2491 H 231.736 -2.09598 -0.343883 0
M  V30 2492 H 233.999 -0.923333 -0.214848 0
M  V30 2493 H 233.705 -3.24262 -1.36187 0
M  V30 2494 H 233.579 -2.41025 -2.9015 0
M  V30 2495 H 235.966 -1.48208 -2.55183 0
M  V30 2496 H 236.047 -2.34943 -1.01171 0
M  V30 2497 H 235.691 -4.54965 -2.25763 0
M  V30 2498 H 235.621 -3.65137 -3.7945 0
M  V30 2499 H 238.112 -2.89613 -2.42761 0
M  V30 2500 H 238.425 -6.3048 -4.46895 0
M  V30 2501 H 236.77 -5.66605 -4.02472 0
M  V30 2502 H 239.961 -3.64094 -2.94199 0
M  V30 2503 H 240.134 -5.19518 -3.87304 0
M  V30 2504 N 233.54 1.10788 -1.12088 0
M  V30 2505 C 234.789 1.82036 -0.868659 0
M  V30 2506 C 235.102 1.85929 0.607426 0
M  V30 2507 O 236.308 2.53346 0.97613 0
M  V30 2508 C 234.764 3.26951 -1.50435 0
M  V30 2509 C 234.372 3.31367 -3.01496 0
M  V30 2510 C 236.116 4.03053 -1.33225 0
M  V30 2511 C 234.023 4.7072 -3.58017 0
M  V30 2512 H 232.953 0.682108 -0.321318 0
M  V30 2513 H 235.604 1.24618 -1.34694 0
M  V30 2514 H 233.986 3.84343 -0.953735 0
M  V30 2515 H 235.16 2.83819 -3.6302 0
M  V30 2516 H 233.475 2.6875 -3.18061 0
M  V30 2517 H 236.072 5.05981 -1.72878 0
M  V30 2518 H 236.415 4.15387 -0.275529 0
M  V30 2519 H 236.948 3.52066 -1.85188 0
M  V30 2520 H 233.687 4.63585 -4.63432 0
M  V30 2521 H 233.207 5.1865 -3.01268 0
M  V30 2522 H 234.886 5.39685 -3.56859 0
M  V30 2523 N 235.018 0.912232 1.28515 0
M  V30 2524 C 236.243 0.559774 1.99703 0
M  V30 2525 C 236.668 -0.851393 1.67729 0
M  V30 2526 O 236.026 -1.56875 0.908834 0
M  V30 2527 C 236.074 0.773874 3.52198 0
M  V30 2528 O 235.178 -0.167842 4.12058 0
M  V30 2529 H 234.519 0.21723 0.627461 0
M  V30 2530 H 237.049 1.22725 1.63706 0
M  V30 2531 H 237.059 0.683386 4.02236 0
M  V30 2532 H 235.734 1.80261 3.74805 0
M  V30 2533 H 234.311 -0.0287509 3.72889 0
M  V30 2534 N 236.496 -1.42363 0.676048 0
M  V30 2535 C 237.743 -2.01522 0.19883 0
M  V30 2536 C 238.071 -1.53456 -1.19505 0
M  V30 2537 O 237.326 -0.727967 -1.81657 0
M  V30 2538 C 237.625 -3.56929 0.183431 0
M  V30 2539 C 237.291 -4.24431 1.52215 0
M  V30 2540 C 235.953 -4.42585 1.8887 0
M  V30 2541 C 238.305 -4.62459 2.40377 0
M  V30 2542 C 235.633 -4.96039 3.13309 0
M  V30 2543 C 237.985 -5.17294 3.64129 0
M  V30 2544 C 236.649 -5.33661 4.00951 0
M  V30 2545 H 235.919 -0.737419 0.0727571 0
M  V30 2546 H 238.566 -1.70531 0.871281 0
M  V30 2547 H 236.871 -3.87594 -0.572532 0
M  V30 2548 H 238.568 -4.00486 -0.203035 0
M  V30 2549 H 235.158 -4.10661 1.22701 0
M  V30 2550 H 239.342 -4.48105 2.13343 0
M  V30 2551 H 234.598 -5.06896 3.41857 0
M  V30 2552 H 238.772 -5.45704 4.32644 0
M  V30 2553 H 236.399 -5.74845 4.9745 0
M  V30 2554 N 237.974 -0.419461 -1.51915 0
M  V30 2555 C 238.904 0.391813 -2.30189 0
M  V30 2556 C 239.885 1.03699 -1.34836 0
M  V30 2557 O 241.07 1.04403 -1.63748 0
M  V30 2558 C 238.2 1.50312 -3.13087 0
M  V30 2559 C 237.154 0.9824 -4.16573 0
M  V30 2560 C 236.48 2.18809 -4.8788 0
M  V30 2561 C 237.78 0.0292356 -5.22292 0
M  V30 2562 H 239.474 -0.26135 -2.98257 0
M  V30 2563 H 237.02 -0.127134 -1.43438 0
M  V30 2564 H 238.973 2.07773 -3.66617 0
M  V30 2565 H 237.697 2.18431 -2.42807 0
M  V30 2566 H 236.356 0.430119 -3.64068 0
M  V30 2567 H 236.004 2.85507 -4.14119 0
M  V30 2568 H 235.704 1.84615 -5.57845 0
M  V30 2569 H 237.228 2.76858 -5.44226 0
M  V30 2570 H 238.642 0.512976 -5.71 0
M  V30 2571 H 237.039 -0.2244 -5.9968 0
M  V30 2572 H 238.109 -0.912931 -4.76228 0
M  V30 2573 N 239.452 1.56882 -0.150215 0
M  V30 2574 C 240.868 1.58263 0.20617 0
M  V30 2575 C 241.068 1.16464 1.64434 0
M  V30 2576 O 240.124 0.866422 2.3717 0
M  V30 2577 C 241.437 3.00649 -0.0555025 0
M  V30 2578 C 242.985 3.12999 0.00795388 0
M  V30 2579 C 243.46 4.5744 -0.226429 0
M  V30 2580 N 244.951 4.62875 -0.173469 0
M  V30 2581 C 245.686 5.72454 -0.329288 0
M  V30 2582 N 245.182 6.90669 -0.543005 0
M  V30 2583 N 246.975 5.61467 -0.266666 0
M  V30 2584 H 239.126 1.82345 -1.08922 0
M  V30 2585 H 241.389 0.844149 -0.431413 0
M  V30 2586 H 241.095 3.3563 -1.05096 0
M  V30 2587 H 240.969 3.71337 0.66246 0
M  V30 2588 H 243.356 2.77857 0.993966 0
M  V30 2589 H 243.437 2.4479 -0.742388 0
M  V30 2590 H 243.081 4.93287 -1.20956 0
M  V30 2591 H 243.011 5.2378 0.544274 0
M  V30 2592 H 245.502 3.77898 -0.0130709 0
M  V30 2593 H 245.815 7.70045 -0.651922 0
M  V30 2594 H 244.16 6.92581 -0.579366 0
M  V30 2595 H 247.351 4.67992 -0.100441 0
M  V30 2596 H 247.524 6.46816 -0.391535 0
M  V30 2597 N 240.93 -0.123565 1.57115 0
M  V30 2598 C 242.158 -0.846461 1.88793 0
M  V30 2599 C 242.573 -1.73652 0.740976 0
M  V30 2600 O 241.93 -1.80207 -0.288393 0
M  V30 2601 C 241.981 -1.6837 3.19897 0
M  V30 2602 O 241.702 -0.829477 4.30176 0
M  V30 2603 C 243.203 -2.51214 3.65248 0
M  V30 2604 H 240.423 -0.243573 0.625231 0
M  V30 2605 H 242.967 -0.109324 2.04208 0
M  V30 2606 H 241.122 -2.37364 3.06165 0
M  V30 2607 H 241.536 -1.40651 5.0529 0
M  V30 2608 H 243.01 -3.05497 4.59756 0
M  V30 2609 H 243.487 -3.28359 2.9168 0
M  V30 2610 H 244.093 -1.8747 3.81752 0
M  V30 2611 N 242.408 -1.52605 -0.393616 0
M  V30 2612 C 243.636 -1.71294 -1.16043 0
M  V30 2613 C 244.051 -0.429259 -1.83855 0
M  V30 2614 O 243.408 0.595921 -1.72496 0
M  V30 2615 C 243.459 -2.8593 -2.21193 0
M  V30 2616 O 243.18 -4.09329 -1.56146 0
M  V30 2617 C 244.681 -3.16259 -3.10636 0
M  V30 2618 H 241.901 -0.573641 -0.348104 0
M  V30 2619 H 244.445 -1.99234 -0.461092 0
M  V30 2620 H 242.6 -2.60465 -2.86769 0
M  V30 2621 H 243.014 -4.73323 -2.25978 0
M  V30 2622 H 244.488 -3.99946 -3.80456 0
M  V30 2623 H 244.965 -2.3045 -3.73884 0
M  V30 2624 H 245.571 -3.43547 -2.50711 0
M  V30 2625 N 243.887 0.651787 -1.4349 0
M  V30 2626 C 245.298 1.233 -1.40193 0
M  V30 2627 C 245.649 1.9591 -0.106727 0
M  V30 2628 O 244.774 2.01316 0.793773 0
M  V30 2629 C 245.369 2.24257 -2.53957 0
M  V30 2630 C 243.928 2.77852 -2.5392 0
M  V30 2631 C 243.075 1.52517 -2.3159 0
M  V30 2632 H 246.026 0.443717 -1.52371 0
M  V30 2633 H 246.047 3.0646 -2.25528 0
M  V30 2634 H 245.559 1.71382 -3.4821 0
M  V30 2635 H 243.66 3.34786 -1.63551 0
M  V30 2636 H 243.773 3.25299 -3.51735 0
M  V30 2637 H 242.137 1.79915 -1.80285 0
M  V30 2638 H 242.92 1.01574 -3.27929 0
M  V30 2639 N 245.365 1.30045 0.890287 0
M  V30 2640 C 246.593 1.21472 1.67487 0
M  V30 2641 C 247.008 -0.223241 1.87476 0
M  V30 2642 O 246.365 -1.14828 1.41847 0
M  V30 2643 C 246.416 1.93394 3.05419 0
M  V30 2644 O 246.137 3.31576 2.86337 0
M  V30 2645 C 247.638 1.91414 3.99844 0
M  V30 2646 H 244.858 0.420604 0.522813 0
M  V30 2647 H 247.402 1.7158 1.11268 0
M  V30 2648 H 245.557 1.47099 3.58386 0
M  V30 2649 H 245.971 3.67929 3.73802 0
M  V30 2650 H 247.445 2.46285 4.94012 0
M  V30 2651 H 247.922 0.891833 4.3005 0
M  V30 2652 H 248.528 2.37496 3.52811 0
M  V30 2653 N 246.843 -1.10192 1.12674 0
M  V30 2654 C 247.806 -2.14786 0.799979 0
M  V30 2655 C 248.806 -1.59711 -0.18685 0
M  V30 2656 O 249.996 -1.74156 0.0392558 0
M  V30 2657 C 247.128 -3.40374 0.189228 0
M  V30 2658 H 248.321 -2.45203 1.72671 0
M  V30 2659 H 245.874 -1.25597 0.930326 0
M  V30 2660 H 246.609 -3.15577 -0.747107 0
M  V30 2661 H 246.394 -3.81637 0.899766 0
M  V30 2662 H 247.884 -4.17594 -0.0228143 0
M  V30 2663 N 248.321 -0.919034 -1.28029 0
M  V30 2664 C 249.231 -0.416756 -2.30869 0
M  V30 2665 C 250.247 0.498235 -1.66714 0
M  V30 2666 O 251.423 0.383144 -1.97722 0
M  V30 2667 C 248.488 0.330274 -3.45123 0
M  V30 2668 C 247.549 -0.618578 -4.2482 0
M  V30 2669 C 246.782 0.0928959 -5.33619 0
M  V30 2670 O 247.005 1.31375 -5.55065 0
M  V30 2671 O 245.939 -0.574499 -5.99152 0
M  V30 2672 H 249.765 -1.27043 -2.75851 0
M  V30 2673 H 247.35 -0.684052 -1.3282 0
M  V30 2674 H 249.232 0.751972 -4.14636 0
M  V30 2675 H 247.907 1.1597 -3.02213 0
M  V30 2676 H 246.814 -1.08978 -3.57875 0
M  V30 2677 H 248.147 -1.41497 -4.71423 0
M  V30 2678 N 249.799 1.42003 -0.683588 0
M  V30 2679 C 251.076 1.95112 -0.138075 0
M  V30 2680 C 251.456 1.62359 1.34918 0
M  V30 2681 O 250.804 0.924311 2.08971 0
M  V30 2682 C 251.014 3.46505 -0.416581 0
M  V30 2683 C 252.362 4.23254 -0.337834 0
M  V30 2684 O 253.386 3.54468 -0.35082 0
M  V30 2685 O 252.245 5.45743 -0.287596 0
M  V30 2686 H 249.339 0.826961 -0.00797996 0
M  V30 2687 H 251.885 1.51784 -0.758924 0
M  V30 2688 H 250.657 3.63582 -1.4465 0
M  V30 2689 H 250.28 3.969 0.235839 0
M  V30 2690 N 251.277 0.427512 1.51691 0
M  V30 2691 C 252.24 -0.377132 2.26076 0
M  V30 2692 C 253.24 -0.958089 1.29141 0
M  V30 2693 O 254.43 -0.83408 1.52934 0
M  V30 2694 C 251.562 -1.53262 3.04506 0
M  V30 2695 H 252.755 0.27464 2.9864 0
M  V30 2696 H 250.308 0.180445 1.55255 0
M  V30 2697 H 251.043 -2.22072 2.36335 0
M  V30 2698 H 250.828 -1.12232 3.75694 0
M  V30 2699 H 252.318 -2.10135 3.60878 0
M  V30 2700 N 252.755 -1.56801 0.158532 0
M  V30 2701 C 253.718 -2.16138 -0.762705 0
M  V30 2702 C 254.718 -1.1061 -1.16713 0
M  V30 2703 O 255.908 -1.36191 -1.08617 0
M  V30 2704 C 253.04 -2.73386 -2.03649 0
M  V30 2705 H 254.233 -2.98886 -0.246354 0
M  V30 2706 H 251.786 -1.56035 -0.0909744 0
M  V30 2707 H 252.521 -1.94335 -2.59623 0
M  V30 2708 H 252.306 -3.50601 -1.75559 0
M  V30 2709 H 253.796 -3.19065 -2.6942 0
M  V30 2710 N 254.233 0.115231 -1.57178 0
M  V30 2711 C 255.479 0.818565 -1.86202 0
M  V30 2712 C 255.834 1.77316 -0.746785 0
M  V30 2713 O 255.127 1.89923 0.25291 0
M  V30 2714 C 255.321 1.60324 -3.19423 0
M  V30 2715 C 255.15 0.726138 -4.43799 0
M  V30 2716 C 253.92 0.379535 -5.03873 0
M  V30 2717 C 256.118 0.0420774 -5.14283 0
M  V30 2718 N 254.1 -0.507841 -6.11796 0
M  V30 2719 C 255.471 -0.704152 -6.15988 0
M  V30 2720 C 257.526 -0.0339486 -4.97888 0
M  V30 2721 C 256.229 -1.51927 -7.03072 0
M  V30 2722 C 258.255 -0.835906 -5.85463 0
M  V30 2723 C 257.617 -1.57031 -6.86673 0
M  V30 2724 H 253.716 0.276343 -0.731545 0
M  V30 2725 H 256.3 0.0821032 -1.94527 0
M  V30 2726 H 254.471 2.31072 -3.12186 0
M  V30 2727 H 256.203 2.2522 -3.36241 0
M  V30 2728 H 252.958 0.722634 -4.68054 0
M  V30 2729 H 253.382 -0.94349 -6.70393 0
M  V30 2730 H 258.024 0.519496 -4.19596 0
M  V30 2731 H 255.742 -2.08386 -7.80769 0
M  V30 2732 H 259.328 -0.89714 -5.74841 0
M  V30 2733 H 258.208 -2.18088 -7.53264 0
M  V30 2734 N 255.711 1.52812 0.385517 0
M  V30 2735 C 256.641 1.80808 1.47752 0
M  V30 2736 C 257.622 0.660318 1.5676 0
M  V30 2737 O 258.807 0.908246 1.71652 0
M  V30 2738 C 255.937 1.98008 2.85324 0
M  V30 2739 C 254.891 3.13709 2.91154 0
M  V30 2740 C 254.217 3.16169 4.31209 0
M  V30 2741 C 255.517 4.52709 2.60483 0
M  V30 2742 H 257.211 2.72253 1.24573 0
M  V30 2743 H 254.757 1.31003 0.597839 0
M  V30 2744 H 256.71 2.16176 3.61726 0
M  V30 2745 H 255.434 1.03255 3.09848 0
M  V30 2746 H 254.093 2.95329 2.17201 0
M  V30 2747 H 253.741 2.19092 4.52778 0
M  V30 2748 H 253.441 3.93894 4.36029 0
M  V30 2749 H 254.965 3.36496 5.09512 0
M  V30 2750 H 256.379 4.71173 3.26602 0
M  V30 2751 H 254.776 5.32528 2.76648 0
M  V30 2752 H 255.846 4.59186 1.55809 0
M  V30 2753 N 257.189 -0.644168 1.43834 0
M  V30 2754 C 258.466 -1.40188 1.36406 0
M  V30 2755 C 258.846 -2.11094 0.0163124 0
M  V30 2756 O 258.194 -2.05426 -1.00062 0
M  V30 2757 C 258.404 -2.3791 2.55343 0
M  V30 2758 C 259.752 -3.01637 2.98832 0
M  V30 2759 O 260.776 -2.48237 2.55455 0
M  V30 2760 O 259.635 -3.98477 3.74003 0
M  V30 2761 H 256.729 -0.626773 0.539523 0
M  V30 2762 H 259.275 -0.670317 1.559 0
M  V30 2763 H 258.047 -1.84525 3.4506 0
M  V30 2764 H 257.67 -3.18503 2.37995 0
M  V30 2765 N 258.668 -1.30515 -0.883378 0
M  V30 2766 C 260.079 -1.17509 -1.45081 0
M  V30 2767 C 260.43 0.223605 -1.94922 0
M  V30 2768 O 259.555 1.12041 -1.85137 0
M  V30 2769 C 260.15 -2.12715 -2.63701 0
M  V30 2770 C 258.709 -2.03682 -3.16529 0
M  V30 2771 C 257.856 -2.02706 -1.89224 0
M  V30 2772 H 260.807 -1.42762 -0.693165 0
M  V30 2773 H 260.828 -1.70891 -3.39965 0
M  V30 2774 H 260.34 -3.14505 -2.27395 0
M  V30 2775 H 258.441 -1.05039 -3.57488 0
M  V30 2776 H 258.554 -2.92146 -3.7972 0
M  V30 2777 H 256.918 -1.4753 -2.07622 0
M  V30 2778 H 257.701 -3.06229 -1.55174 0
M  V30 2779 N 260.146 1.09593 -1.13257 0
M  V30 2780 C 261.093 2.1618 -0.808381 0
M  V30 2781 C 262.063 1.64517 0.228754 0
M  V30 2782 O 263.248 1.9053 0.101381 0
M  V30 2783 C 260.388 3.43973 -0.278675 0
M  V30 2784 C 259.501 4.09545 -1.37466 0
M  V30 2785 C 258.636 5.25088 -0.803479 0
M  V30 2786 C 257.675 5.82579 -1.87799 0
M  V30 2787 N 256.812 6.89486 -1.32488 0
M  V30 2788 H 261.652 2.43254 -1.72138 0
M  V30 2789 H 259.189 1.19392 -0.859294 0
M  V30 2790 H 261.147 4.17174 0.0465583 0
M  V30 2791 H 259.777 3.17223 0.597459 0
M  V30 2792 H 258.829 3.34226 -1.81652 0
M  V30 2793 H 260.141 4.48307 -2.18684 0
M  V30 2794 H 259.295 6.05178 -0.429427 0
M  V30 2795 H 258.034 4.87684 0.0397956 0
M  V30 2796 H 257.039 5.01152 -2.26113 0
M  V30 2797 H 258.264 6.22045 -2.72463 0
M  V30 2798 H 256.21 6.54064 -0.503575 0
M  V30 2799 H 256.127 7.27007 -2.07355 0
M  V30 2800 H 257.395 7.73336 -0.978336 0
M  V30 2801 N 261.624 0.925811 1.2754 0
M  V30 2802 C 262.534 0.428993 2.30644 0
M  V30 2803 C 263.55 -0.489387 1.66976 0
M  V30 2804 O 264.726 -0.372653 1.97922 0
M  V30 2805 C 261.791 -0.311967 3.45294 0
M  V30 2806 C 260.852 0.641098 4.24486 0
M  V30 2807 C 260.085 -0.0645955 5.33661 0
M  V30 2808 O 260.308 -1.28429 5.55754 0
M  V30 2809 O 259.242 0.606265 5.98839 0
M  V30 2810 H 263.068 1.28504 2.75173 0
M  V30 2811 H 260.653 0.691086 1.32455 0
M  V30 2812 H 262.535 -0.729972 4.15029 0
M  V30 2813 H 261.21 -1.14365 3.02824 0
M  V30 2814 H 260.117 1.10874 3.57292 0
M  V30 2815 H 261.45 1.43995 4.70666 0
M  V30 2816 N 263.102 -1.41638 0.69111 0
M  V30 2817 C 264.065 -2.29178 0.0319786 0
M  V30 2818 C 265.065 -1.44153 -0.712496 0
M  V30 2819 O 266.255 -1.65354 -0.548053 0
M  V30 2820 C 263.387 -3.26952 -0.965161 0
M  V30 2821 H 264.58 -2.88959 0.802681 0
M  V30 2822 H 262.133 -1.4955 0.454356 0
M  V30 2823 H 262.868 -2.72142 -1.76378 0
M  V30 2824 H 262.653 -3.89685 -0.434522 0
M  V30 2825 H 264.143 -3.92561 -1.42428 0
M  V30 2826 N 264.58 -0.43555 -1.51462 0
M  V30 2827 C 265.808 0.130242 -2.0649 0
M  V30 2828 C 266.223 1.36614 -1.30315 0
M  V30 2829 O 265.58 1.78869 -0.362223 0
M  V30 2830 C 265.631 0.454253 -3.58635 0
M  V30 2831 O 265.352 -0.73259 -4.31931 0
M  V30 2832 C 266.853 1.07091 -4.3017 0
M  V30 2833 H 264.073 0.00871669 -0.670943 0
M  V30 2834 H 266.617 -0.614117 -1.95061 0
M  V30 2835 H 264.772 1.14851 -3.69984 0
M  V30 2836 H 265.186 -0.455787 -5.22516 0
M  V30 2837 H 266.66 1.24764 -5.37716 0
M  V30 2838 H 267.137 2.05144 -3.88346 0
M  V30 2839 H 267.743 0.416089 -4.2326 0
M  V30 2840 N 266.058 1.56714 -0.166846 0
M  V30 2841 C 267.288 2.00828 0.48494 0
M  V30 2842 C 267.696 1.04612 1.57648 0
M  V30 2843 O 267.039 0.0383201 1.8366 0
M  V30 2844 C 267.101 3.4137 1.12723 0
M  V30 2845 C 266.765 4.56654 0.177886 0
M  V30 2846 C 267.762 5.16402 -0.60207 0
M  V30 2847 C 265.447 5.02244 0.0750139 0
M  V30 2848 C 267.441 6.20167 -1.47215 0
M  V30 2849 C 265.128 6.05859 -0.798649 0
M  V30 2850 C 266.126 6.64691 -1.57082 0
M  V30 2851 O 265.814 7.66297 -2.42989 0
M  V30 2852 H 265.546 0.663587 0.128953 0
M  V30 2853 H 268.1 2.03692 -0.264365 0
M  V30 2854 H 266.33 3.35406 1.92457 0
M  V30 2855 H 268.019 3.69466 1.68076 0
M  V30 2856 H 268.785 4.82065 -0.53274 0
M  V30 2857 H 264.664 4.56167 0.665812 0
M  V30 2858 H 268.208 6.66016 -2.07531 0
M  V30 2859 H 264.105 6.39621 -0.869199 0
M  V30 2860 H 264.873 7.83601 -2.36455 0
M  V30 2861 N 267.536 -0.106894 1.57237 0
M  V30 2862 C 268.466 -1.13148 2.04254 0
M  V30 2863 C 269.447 -1.42476 0.929224 0
M  V30 2864 O 270.632 -1.52709 1.19973 0
M  V30 2865 C 267.762 -2.4545 2.45706 0
M  V30 2866 C 266.716 -2.30558 3.60592 0
M  V30 2867 C 266.042 -3.67931 3.87983 0
M  V30 2868 C 267.342 -1.75597 4.91897 0
M  V30 2869 H 269.036 -0.740374 2.90101 0
M  V30 2870 H 266.582 -0.354696 1.39563 0
M  V30 2871 H 268.535 -3.17389 2.77205 0
M  V30 2872 H 267.259 -2.86475 1.56843 0
M  V30 2873 H 265.918 -1.61067 3.29322 0
M  V30 2874 H 265.566 -4.06462 2.96306 0
M  V30 2875 H 265.266 -3.58817 4.65322 0
M  V30 2876 H 266.79 -4.41356 4.21945 0
M  V30 2877 H 268.204 -2.37364 5.21854 0
M  V30 2878 H 266.601 -1.77272 5.73319 0
M  V30 2879 H 267.671 -0.714451 4.79608 0
M  V30 2880 N 269.014 -1.53014 -0.377408 0
M  V30 2881 C 270.43 -1.42523 -0.718281 0
M  V30 2882 C 270.63 -0.55487 -1.9371 0
M  V30 2883 O 269.686 -0.0327593 -2.52479 0
M  V30 2884 C 270.999 -2.85546 -0.942539 0
M  V30 2885 C 272.547 -2.95101 -1.04329 0
M  V30 2886 C 273.022 -4.3916 -1.3001 0
M  V30 2887 N 274.513 -4.42536 -1.36806 0
M  V30 2888 C 275.248 -5.51097 -1.58364 0
M  V30 2889 N 274.744 -6.69724 -1.77317 0
M  V30 2890 N 276.537 -5.38657 -1.60638 0
M  V30 2891 H 268.688 -2.08116 0.424426 0
M  V30 2892 H 270.951 -0.939352 0.127759 0
M  V30 2893 H 270.657 -3.51499 -0.118929 0
M  V30 2894 H 270.531 -3.28493 -1.85397 0
M  V30 2895 H 272.918 -2.29309 -1.85745 0
M  V30 2896 H 272.999 -2.55566 -0.109505 0
M  V30 2897 H 272.643 -5.05521 -0.490991 0
M  V30 2898 H 272.573 -4.76258 -2.24691 0
M  V30 2899 H 275.064 -3.57039 -1.23821 0
M  V30 2900 H 275.377 -7.48233 -1.93306 0
M  V30 2901 H 273.722 -6.72732 -1.74518 0
M  V30 2902 H 276.913 -4.44948 -1.45391 0
M  V30 2903 H 277.086 -6.2333 -1.77098 0
M  V30 2904 N 270.492 0.636531 -1.44174 0
M  V30 2905 C 271.738 1.39649 -1.47884 0
M  V30 2906 C 272.093 1.92098 -0.107747 0
M  V30 2907 O 271.386 1.70391 0.876208 0
M  V30 2908 C 271.58 2.58309 -2.47005 0
M  V30 2909 C 271.409 2.17476 -3.93617 0
M  V30 2910 C 270.179 2.0501 -4.61843 0
M  V30 2911 C 272.377 1.76722 -4.82984 0
M  V30 2912 N 270.359 1.57683 -5.93304 0
M  V30 2913 C 271.73 1.40601 -6.03847 0
M  V30 2914 C 273.785 1.64054 -4.70096 0
M  V30 2915 C 272.488 0.930787 -7.13252 0
M  V30 2916 C 274.514 1.17937 -5.79521 0
M  V30 2917 C 273.876 0.827625 -6.99521 0
M  V30 2918 H 269.975 0.506027 -0.596205 0
M  V30 2919 H 272.559 0.730791 -1.80465 0
M  V30 2920 H 270.73 3.22514 -2.16423 0
M  V30 2921 H 272.462 3.25083 -2.41045 0
M  V30 2922 H 269.217 2.25294 -4.16581 0
M  V30 2923 H 269.641 1.36334 -6.63131 0
M  V30 2924 H 274.283 1.89882 -3.77762 0
M  V30 2925 H 272.001 0.660012 -8.054 0
M  V30 2926 H 275.587 1.08601 -5.71574 0
M  V30 2927 H 274.467 0.476231 -7.82753 0
M  V30 2928 N 271.97 1.30982 0.876444 0
M  V30 2929 C 273.219 1.19658 1.62373 0
M  V30 2930 C 273.532 -0.245636 1.94052 0
M  V30 2931 O 274.738 -0.48049 2.67214 0
M  V30 2932 C 273.194 2.09433 2.92687 0
M  V30 2933 C 272.802 3.58613 2.68516 0
M  V30 2934 C 274.546 2.06893 3.70669 0
M  V30 2935 C 272.453 4.40416 3.94699 0
M  V30 2936 H 271.383 0.444268 0.609214 0
M  V30 2937 H 274.034 1.55791 0.969605 0
M  V30 2938 H 272.416 1.66191 3.59439 0
M  V30 2939 H 273.59 4.10058 2.10212 0
M  V30 2940 H 271.905 3.63063 2.03898 0
M  V30 2941 H 274.502 2.65258 4.64265 0
M  V30 2942 H 274.845 1.05448 4.02724 0
M  V30 2943 H 275.378 2.48301 3.10792 0
M  V30 2944 H 272.117 5.42591 3.67798 0
M  V30 2945 H 271.637 3.93731 4.52477 0
M  V30 2946 H 273.316 4.52294 4.62644 0
M  V30 2947 N 273.449 -1.08991 1.13837 0
M  V30 2948 C 274.412 -2.13925 0.822715 0
M  V30 2949 C 275.412 -1.599 -0.1699 0
M  V30 2950 O 276.602 -1.74104 0.0577251 0
M  V30 2951 C 273.734 -3.40155 0.225318 0
M  V30 2952 H 274.927 -2.43358 1.75262 0
M  V30 2953 H 272.48 -1.24603 0.943594 0
M  V30 2954 H 273.215 -3.16352 -0.713594 0
M  V30 2955 H 273 -3.80661 0.940193 0
M  V30 2956 H 274.49 -4.17594 0.0214784 0
M  V30 2957 N 274.927 -0.932562 -1.27047 0
M  V30 2958 C 276.173 -0.576412 -1.94436 0
M  V30 2959 C 276.506 0.880891 -1.73072 0
M  V30 2960 O 275.781 1.62905 -1.06264 0
M  V30 2961 C 276.064 -0.909031 -3.48437 0
M  V30 2962 C 275.917 -2.42044 -3.79123 0
M  V30 2963 C 277.236 -0.418341 -4.38107 0
M  V30 2964 H 274.355 -0.210888 -0.706184 0
M  V30 2965 H 276.997 -1.16522 -1.50075 0
M  V30 2966 H 275.147 -0.407947 -3.86352 0
M  V30 2967 H 276.819 -2.99359 -3.50973 0
M  V30 2968 H 275.062 -2.86758 -3.25503 0
M  V30 2969 H 275.733 -2.6037 -4.86736 0
M  V30 2970 H 278.209 -0.847856 -4.0737 0
M  V30 2971 H 277.085 -0.679981 -5.44672 0
M  V30 2972 H 277.346 0.681642 -4.36814 0
M  V30 2973 N 276.405 1.4127 -0.698611 0
M  V30 2974 C 277.653 2.00782 -0.230409 0
M  V30 2975 C 277.974 1.5562 1.17505 0
M  V30 2976 O 277.244 0.78815 1.79346 0
M  V30 2977 H 275.824 0.742464 -0.0821944 0
M  V30 2978 H 278.486 1.72852 -0.90045 0
M  V30 2979 H 277.582 3.11095 -0.25021 0
M  V30 2980 N 277.883 0.443576 1.51229 0
M  V30 2981 C 278.83 -0.364716 2.279 0
M  V30 2982 C 279.8 -1.0114 1.31757 0
M  V30 2983 O 280.985 -1.02912 1.60667 0
M  V30 2984 C 278.125 -1.45644 3.12861 0
M  V30 2985 C 277.238 -0.827269 4.24005 0
M  V30 2986 C 276.373 -1.89456 4.96266 0
M  V30 2987 C 275.412 -1.24416 5.99322 0
M  V30 2988 N 274.549 -2.25309 6.64966 0
M  V30 2989 H 279.389 0.295464 2.96532 0
M  V30 2990 H 276.926 0.157554 1.46254 0
M  V30 2991 H 278.884 -2.10076 3.6045 0
M  V30 2992 H 277.514 -2.08616 2.46331 0
M  V30 2993 H 276.566 -0.0710839 3.80334 0
M  V30 2994 H 277.878 -0.312481 4.9782 0
M  V30 2995 H 277.032 -2.61535 5.47434 0
M  V30 2996 H 275.771 -2.4431 4.22095 0
M  V30 2997 H 274.776 -0.508868 5.4744 0
M  V30 2998 H 276.001 -0.702882 6.75453 0
M  V30 2999 H 273.947 -2.79231 5.93604 0
M  V30 3000 H 273.864 -1.78739 7.34567 0
M  V30 3001 H 275.132 -2.96853 7.20763 0
M  V30 3002 N 279.361 -1.56624 0.175154 0
M  V30 3003 C 280.589 -2.01374 -0.474971 0
M  V30 3004 C 281.004 -1.05537 -1.56548 0
M  V30 3005 O 280.361 -0.0568668 -1.82411 0
M  V30 3006 C 280.412 -3.45923 -1.04975 0
M  V30 3007 O 280.133 -4.381 -0.00276605 0
M  V30 3008 C 281.634 -4.06093 -1.77773 0
M  V30 3009 H 278.854 -0.659962 -0.121206 0
M  V30 3010 H 281.398 -2.02601 0.27801 0
M  V30 3011 H 279.553 -3.45458 -1.75321 0
M  V30 3012 H 279.967 -5.22753 -0.427681 0
M  V30 3013 H 281.441 -5.09147 -2.13245 0
M  V30 3014 H 281.918 -3.48405 -2.67414 0
M  V30 3015 H 282.524 -4.10272 -1.12059 0
M  V30 3016 N 280.839 0.0985539 -1.57292 0
M  V30 3017 C 281.772 1.15082 -1.97057 0
M  V30 3018 C 282.75 1.39025 -0.843255 0
M  V30 3019 O 283.934 1.52842 -1.10325 0
M  V30 3020 C 281.061 2.50069 -2.28437 0
M  V30 3021 C 280.107 2.42428 -3.509 0
M  V30 3022 S 280.94 1.84414 -5.02744 0
M  V30 3023 C 282.096 3.21032 -5.37298 0
M  V30 3024 H 282.329 0.811815 -2.86002 0
M  V30 3025 H 279.862 0.306102 -1.51335 0
M  V30 3026 H 281.82 3.27729 -2.47192 0
M  V30 3027 H 280.481 2.8114 -1.40069 0
M  V30 3028 H 279.674 3.41911 -3.70288 0
M  V30 3029 H 279.276 1.72896 -3.31637 0
M  V30 3030 H 281.568 4.17297 -5.33731 0
M  V30 3031 H 282.511 3.06452 -6.38352 0
M  V30 3032 H 282.919 3.20404 -4.64759 0
M  V30 3033 N 282.317 1.53212 0.369288 0
M  V30 3034 C 283.227 1.82342 1.47609 0
M  V30 3035 C 284.243 0.711532 1.58787 0
M  V30 3036 O 285.419 1.0012 1.74751 0
M  V30 3037 C 282.484 2.00393 2.8292 0
M  V30 3038 C 281.545 3.24297 2.81301 0
M  V30 3039 C 280.778 3.41478 4.10157 0
M  V30 3040 O 281.001 2.63033 5.06132 0
M  V30 3041 O 279.935 4.34817 4.16194 0
M  V30 3042 H 283.761 2.76366 1.25918 0
M  V30 3043 H 281.346 1.38547 0.559034 0
M  V30 3044 H 283.228 2.13859 3.63101 0
M  V30 3045 H 281.903 1.09559 3.04596 0
M  V30 3046 H 280.81 3.16257 1.99831 0
M  V30 3047 H 282.143 4.15041 2.64578 0
M  V30 3048 N 283.795 -0.628877 1.44509 0
M  V30 3049 C 284.705 -1.7694 1.54044 0
M  V30 3050 C 285.721 -1.68705 0.425987 0
M  V30 3051 O 286.897 -1.89442 0.683656 0
M  V30 3052 C 283.962 -3.13332 1.48405 0
M  V30 3053 C 283.023 -3.33181 2.70719 0
M  V30 3054 C 282.256 -4.63067 2.6534 0
M  V30 3055 O 282.479 -5.44017 1.71469 0
M  V30 3056 O 281.413 -4.85167 3.56226 0
M  V30 3057 H 285.239 -1.71848 2.50403 0
M  V30 3058 H 282.824 -0.790378 1.26781 0
M  V30 3059 H 284.706 -3.94634 1.47791 0
M  V30 3060 H 283.381 -3.1896 0.551898 0
M  V30 3061 H 282.288 -2.51549 2.769 0
M  V30 3062 H 283.621 -3.32416 3.62988 0
M  V30 3063 N 285.273 -1.31445 -0.869486 0
M  V30 3064 C 286.522 -1.20517 -1.61736 0
M  V30 3065 C 286.835 0.235341 -1.94179 0
M  V30 3066 O 288.041 0.466312 -2.67465 0
M  V30 3067 C 286.497 -2.10982 -2.91573 0
M  V30 3068 C 286.105 -3.60032 -2.66611 0
M  V30 3069 C 287.849 -2.08856 -3.69567 0
M  V30 3070 C 285.756 -4.42503 -3.92358 0
M  V30 3071 H 284.686 -0.447493 -0.606849 0
M  V30 3072 H 287.337 -1.56303 -0.96133 0
M  V30 3073 H 285.719 -1.68095 -3.58553 0
M  V30 3074 H 286.893 -4.11167 -2.08035 0
M  V30 3075 H 285.208 -3.64139 -2.0197 0
M  V30 3076 H 287.805 -2.67716 -4.62852 0
M  V30 3077 H 288.148 -1.07582 -4.02159 0
M  V30 3078 H 288.681 -2.49945 -3.09471 0
M  V30 3079 H 285.42 -5.44533 -3.64916 0
M  V30 3080 H 284.94 -3.96125 -4.50383 0
M  V30 3081 H 286.619 -4.54741 -4.60238 0
M  V30 3082 N 286.751 1.08385 -1.14413 0
M  V30 3083 C 287.714 2.13486 -0.834048 0
M  V30 3084 C 288.714 1.59988 0.161418 0
M  V30 3085 O 289.904 1.74071 -0.0669575 0
M  V30 3086 C 287.036 3.4003 -0.243354 0
M  V30 3087 H 288.229 2.42425 -1.7655 0
M  V30 3088 H 285.782 1.24101 -0.950189 0
M  V30 3089 H 286.517 3.16726 0.696807 0
M  V30 3090 H 286.302 3.80157 -0.960367 0
M  V30 3091 H 287.792 4.17577 -0.0436242 0
M  V30 3092 N 288.23 0.939286 1.26551 0
M  V30 3093 C 289.507 0.5038 1.89001 0
M  V30 3094 C 289.887 -1.01854 1.84903 0
M  V30 3095 O 289.235 -1.87773 1.30206 0
M  V30 3096 C 289.445 1.063 3.32417 0
M  V30 3097 C 290.793 1.13051 4.09273 0
M  V30 3098 O 291.817 1.01345 3.41479 0
M  V30 3099 O 290.676 1.31233 5.30509 0
M  V30 3100 H 287.77 0.163897 0.810597 0
M  V30 3101 H 290.316 1.03173 1.34735 0
M  V30 3102 H 289.088 2.10665 3.29752 0
M  V30 3103 H 288.711 0.517408 3.94219 0
M  V30 3104 N 289.708 -1.40897 0.706093 0
M  V30 3105 C 290.954 -2.01352 0.241889 0
M  V30 3106 C 291.287 -1.55832 -1.15888 0
M  V30 3107 O 290.562 -0.774145 -1.7843 0
M  V30 3108 C 290.845 -3.58752 0.311311 0
M  V30 3109 C 290.698 -4.1437 1.74978 0
M  V30 3110 C 292.017 -4.38914 -0.322922 0
M  V30 3111 H 289.136 -0.731562 0.0893687 0
M  V30 3112 H 291.778 -1.67504 0.896802 0
M  V30 3113 H 289.928 -3.87718 -0.246302 0
M  V30 3114 H 291.6 -3.96239 2.36205 0
M  V30 3115 H 289.843 -3.69016 2.28057 0
M  V30 3116 H 290.514 -5.23532 1.74981 0
M  V30 3117 H 292.99 -4.15822 0.152089 0
M  V30 3118 H 291.866 -5.48358 -0.243855 0
M  V30 3119 H 292.127 -4.19176 -1.40513 0
M  V30 3120 N 291.186 -0.45159 -1.50991 0
M  V30 3121 C 292.096 0.358431 -2.31846 0
M  V30 3122 C 293.112 1.01438 -1.41373 0
M  V30 3123 O 294.288 1.00663 -1.74439 0
M  V30 3124 C 291.353 1.43704 -3.15515 0
M  V30 3125 C 290.414 0.799742 -4.21785 0
M  V30 3126 C 289.647 1.82696 -5.01456 0
M  V30 3127 O 289.87 3.05105 -4.81941 0
M  V30 3128 O 288.804 1.40958 -5.85162 0
M  V30 3129 H 292.63 -0.302032 -3.02194 0
M  V30 3130 H 290.215 -0.213825 -1.47862 0
M  V30 3131 H 292.097 2.06227 -3.67489 0
M  V30 3132 H 290.772 2.08133 -2.47916 0
M  V30 3133 H 289.679 0.136084 -3.73852 0
M  V30 3134 H 291.012 0.198718 -4.91799 0
M  V30 3135 N 292.664 1.56529 -0.183458 0
M  V30 3136 C 293.912 1.96855 0.457452 0
M  V30 3137 C 294.233 1.07104 1.62953 0
M  V30 3138 O 293.503 0.139887 1.954 0
M  V30 3139 H 292.083 0.72693 0.171992 0
M  V30 3140 H 294.745 1.93056 -0.267476 0
M  V30 3141 H 293.841 3.01423 0.809368 0
M  V30 3142 N 294.142 -0.090211 1.57342 0
M  V30 3143 C 295.388 -0.793982 1.86611 0
M  V30 3144 C 295.721 -1.78142 0.773252 0
M  V30 3145 O 294.996 -1.93271 -0.218304 0
M  V30 3146 C 295.279 -1.51839 3.26523 0
M  V30 3147 C 295.132 -0.548609 4.46442 0
M  V30 3148 C 296.451 -2.46779 3.64401 0
M  V30 3149 H 293.57 -0.287186 0.678744 0
M  V30 3150 H 296.212 -0.0575076 1.89913 0
M  V30 3151 H 294.362 -2.14617 3.23839 0
M  V30 3152 H 296.034 0.0725513 4.61243 0
M  V30 3153 H 294.277 0.137614 4.33582 0
M  V30 3154 H 294.948 -1.09271 5.41076 0
M  V30 3155 H 297.424 -1.94089 3.68061 0
M  V30 3156 H 296.3 -2.94479 4.63221 0
M  V30 3157 H 296.561 -3.30758 2.93346 0
M  V30 3158 N 295.62 -1.53406 -0.361157 0
M  V30 3159 C 296.567 -1.80156 -1.44265 0
M  V30 3160 C 297.537 -0.646183 -1.53015 0
M  V30 3161 O 298.722 -0.888818 -1.68833 0
M  V30 3162 C 295.862 -2.00116 -2.81154 0
M  V30 3163 C 294.975 -3.27833 -2.81335 0
M  V30 3164 C 294.11 -3.37957 -4.09828 0
M  V30 3165 C 293.149 -4.59689 -4.04168 0
M  V30 3166 N 292.286 -4.66942 -5.24318 0
M  V30 3167 H 297.126 -2.72438 -1.20754 0
M  V30 3168 H 294.663 -1.34954 -0.585296 0
M  V30 3169 H 296.621 -2.09677 -3.60682 0
M  V30 3170 H 295.251 -1.11167 -3.03054 0
M  V30 3171 H 294.303 -3.27204 -1.94014 0
M  V30 3172 H 295.615 -4.17442 -2.73027 0
M  V30 3173 H 294.769 -3.46853 -4.97773 0
M  V30 3174 H 293.508 -2.46372 -4.20894 0
M  V30 3175 H 292.513 -4.50889 -3.14609 0
M  V30 3176 H 293.738 -5.5262 -3.947 0
M  V30 3177 H 291.684 -3.7826 -5.35962 0
M  V30 3178 H 291.601 -5.50462 -5.18197 0
M  V30 3179 H 292.869 -4.80127 -6.14084 0
M  V30 3180 N 297.098 0.621204 -1.44841 0
M  V30 3181 C 298.328 1.40548 -1.51426 0
M  V30 3182 C 298.736 1.88673 -0.141083 0
M  V30 3183 O 298.079 1.62053 0.865128 0
M  V30 3184 C 298.141 2.65325 -2.42576 0
M  V30 3185 C 297.805 2.3893 -3.89566 0
M  V30 3186 C 298.802 2.00138 -4.79834 0
M  V30 3187 C 296.487 2.52263 -4.3436 0
M  V30 3188 C 298.481 1.75021 -6.129 0
M  V30 3189 C 296.168 2.2676 -5.67471 0
M  V30 3190 C 297.166 1.88199 -6.56559 0
M  V30 3191 O 296.854 1.62986 -7.87204 0
M  V30 3192 H 296.586 0.437122 -0.515655 0
M  V30 3193 H 299.14 0.765987 -1.90583 0
M  V30 3194 H 297.37 3.31947 -1.98364 0
M  V30 3195 H 299.059 3.27347 -2.39998 0
M  V30 3196 H 299.825 1.89386 -4.46495 0
M  V30 3197 H 295.704 2.81246 -3.65269 0
M  V30 3198 H 299.248 1.44848 -6.82396 0
M  V30 3199 H 295.145 2.37125 -6.00368 0
M  V30 3200 H 295.913 1.7715 -7.991 0
M  V30 3201 N 298.576 1.31904 0.862503 0
M  V30 3202 C 299.524 1.20125 1.9918 0
M  V30 3203 C 300.518 0.107824 1.69056 0
M  V30 3204 O 301.724 0.270223 1.7796 0
M  V30 3205 H 298.099 0.372148 0.65346 0
M  V30 3206 H 300.07 2.15652 2.06244 0
M  V30 3207 C 298.819 0.933099 3.34946 0
M  V30 3208 H 298.142 1.76664 3.5865 0
M  V30 3209 H 299.582 0.890892 4.14535 0
M  V30 3210 C 298.041 -0.364172 3.34926 0
M  V30 3211 O 298.571 -1.37858 3.77304 0
M  V30 3212 N 296.777 -0.383362 2.8806 0
M  V30 3213 H 296.324 0.442651 2.53768 0
M  V30 3214 H 296.282 -1.25123 2.8843 0
M  V30 3215 N 300.054 -1.07777 1.14986 0
M  V30 3216 C 301.279 -1.84558 0.946213 0
M  V30 3217 C 301.704 -1.81323 -0.500362 0
M  V30 3218 O 301.062 -1.20301 -1.35637 0
M  V30 3219 C 301.11 -3.29736 1.45968 0
M  V30 3220 O 300.214 -4.07149 0.65601 0
M  V30 3221 H 299.555 -0.571641 0.33782 0
M  V30 3222 H 302.085 -1.35991 1.52865 0
M  V30 3223 H 302.095 -3.80574 1.47063 0
M  V30 3224 H 300.77 -3.31406 2.51283 0
M  V30 3225 H 299.347 -3.65994 0.714322 0
M  V30 3226 N 301.532 -0.945985 -1.26051 0
M  V30 3227 C 302.778 -0.597002 -1.93814 0
M  V30 3228 C 303.111 0.862484 -1.73997 0
M  V30 3229 O 302.386 1.61769 -1.07986 0
M  V30 3230 C 302.669 -0.945937 -3.47454 0
M  V30 3231 C 302.522 -2.46052 -3.76535 0
M  V30 3232 C 303.841 -0.464785 -4.37639 0
M  V30 3233 H 300.96 -0.218366 -0.703907 0
M  V30 3234 H 303.602 -1.18107 -1.48831 0
M  V30 3235 H 301.752 -0.448902 -3.85898 0
M  V30 3236 H 303.424 -3.03065 -3.47778 0
M  V30 3237 H 301.667 -2.90194 -3.22444 0
M  V30 3238 H 302.338 -2.65517 -4.83947 0
M  V30 3239 H 304.814 -0.891016 -4.06448 0
M  V30 3240 H 303.69 -0.737712 -5.4392 0
M  V30 3241 H 303.951 0.635274 -4.37512 0
M  V30 3242 N 303.011 1.40521 -0.713556 0
M  V30 3243 C 304.427 1.54839 -0.386907 0
M  V30 3244 C 304.627 1.68532 1.1045 0
M  V30 3245 O 303.683 1.67377 1.89053 0
M  V30 3246 C 304.996 2.77792 -1.15118 0
M  V30 3247 C 306.544 2.91607 -1.13729 0
M  V30 3248 C 307.019 4.1747 -1.88368 0
M  V30 3249 N 308.51 4.24466 -1.85427 0
M  V30 3250 C 309.245 5.20755 -2.40004 0
M  V30 3251 N 308.741 6.22965 -3.03129 0
M  V30 3252 N 310.534 5.1282 -2.30158 0
M  V30 3253 H 302.685 1.29879 -1.68063 0
M  V30 3254 H 304.948 0.627896 -0.710247 0
M  V30 3255 H 304.654 2.73944 -2.20561 0
M  V30 3256 H 304.528 3.6984 -0.741477 0
M  V30 3257 H 306.915 2.94959 -0.0910608 0
M  V30 3258 H 306.996 2.00682 -1.5862 0
M  V30 3259 H 306.64 4.1488 -2.9298 0
M  V30 3260 H 306.57 5.074 -1.40898 0
M  V30 3261 H 309.061 3.51241 -1.3942 0
M  V30 3262 H 309.374 6.92859 -3.42295 0
M  V30 3263 H 307.719 6.23415 -3.07212 0
M  V30 3264 H 310.91 4.31899 -1.80501 0
M  V30 3265 H 311.083 5.87689 -2.72993 0
M  V30 3266 N 304.489 0.459591 1.5075 0
M  V30 3267 C 305.735 -0.0994966 2.02556 0
M  V30 3268 C 306.068 -1.40399 1.3417 0
M  V30 3269 O 305.343 -1.88892 0.463683 0
M  V30 3270 C 305.626 -0.295242 3.58888 0
M  V30 3271 C 305.479 1.02947 4.37861 0
M  V30 3272 C 306.798 -1.05502 4.27267 0
M  V30 3273 H 303.917 -0.034686 0.736183 0
M  V30 3274 H 306.559 0.602938 1.8018 0
M  V30 3275 H 304.709 -0.893563 3.78084 0
M  V30 3276 H 306.381 1.66348 4.30263 0
M  V30 3277 H 304.624 1.62885 4.02058 0
M  V30 3278 H 305.295 0.846281 5.45474 0
M  V30 3279 H 307.771 -0.547993 4.12476 0
M  V30 3280 H 306.647 -1.16077 5.36486 0
M  V30 3281 H 306.908 -2.08875 3.89645 0
M  V30 3282 N 305.967 -1.56429 0.191757 0
M  V30 3283 C 306.914 -2.18936 -0.730454 0
M  V30 3284 C 307.884 -1.13557 -1.21219 0
M  V30 3285 O 309.069 -1.41794 -1.27668 0
M  V30 3286 C 306.209 -2.85013 -1.9458 0
M  V30 3287 C 305.322 -4.04909 -1.50574 0
M  V30 3288 C 304.457 -4.58853 -2.67634 0
M  V30 3289 C 303.496 -5.71114 -2.20217 0
M  V30 3290 N 302.633 -6.19478 -3.30442 0
M  V30 3291 H 307.473 -2.97389 -0.190664 0
M  V30 3292 H 305.01 -1.46869 -0.0823694 0
M  V30 3293 H 306.968 -3.21492 -2.65893 0
M  V30 3294 H 305.598 -2.09129 -2.45896 0
M  V30 3295 H 304.65 -3.74115 -0.688605 0
M  V30 3296 H 305.962 -4.86113 -1.11784 0
M  V30 3297 H 305.116 -4.97619 -3.47074 0
M  V30 3298 H 303.855 -3.76749 -3.09696 0
M  V30 3299 H 302.86 -5.31879 -1.3923 0
M  V30 3300 H 304.085 -6.55033 -1.79189 0
M  V30 3301 H 302.031 -5.40297 -3.72041 0
M  V30 3302 H 301.948 -6.95725 -2.9581 0
M  V30 3303 H 303.216 -6.62898 -4.10106 0
M  V30 3304 N 307.445 0.0818655 -1.57387 0
M  V30 3305 C 308.375 1.09885 -2.06028 0
M  V30 3306 C 309.356 1.4098 -0.951774 0
M  V30 3307 O 310.541 1.50781 -1.22387 0
M  V30 3308 C 307.671 2.4151 -2.4958 0
M  V30 3309 C 306.625 2.24792 -3.64215 0
M  V30 3310 C 305.951 3.61712 -3.93787 0
M  V30 3311 C 307.251 1.67749 -4.94629 0
M  V30 3312 H 308.945 0.694128 -2.91243 0
M  V30 3313 H 306.491 0.332448 -1.4011 0
M  V30 3314 H 308.444 3.12939 -2.82219 0
M  V30 3315 H 307.168 2.83943 -1.61381 0
M  V30 3316 H 305.827 1.55807 -3.31843 0
M  V30 3317 H 305.475 4.01697 -3.02735 0
M  V30 3318 H 305.175 3.51368 -4.70971 0
M  V30 3319 H 306.699 4.34587 -4.28913 0
M  V30 3320 H 308.113 2.29032 -5.25564 0
M  V30 3321 H 306.51 1.68128 -5.76067 0
M  V30 3322 H 307.58 0.638059 -4.80684 0
M  V30 3323 N 308.923 1.53595 0.353017 0
M  V30 3324 C 310.339 1.43648 0.695516 0
M  V30 3325 C 310.539 0.585617 1.92802 0
M  V30 3326 O 309.595 0.0729223 2.52395 0
M  V30 3327 C 310.908 2.8701 0.896991 0
M  V30 3328 C 312.456 2.96723 0.996209 0
M  V30 3329 C 312.931 4.41173 1.23007 0
M  V30 3330 N 314.422 4.44657 1.29749 0
M  V30 3331 C 315.157 5.53547 1.49577 0
M  V30 3332 N 314.653 6.72461 1.66639 0
M  V30 3333 N 316.446 5.41145 1.52048 0
M  V30 3334 H 308.597 2.07415 -0.457481 0
M  V30 3335 H 310.86 0.9372 -0.142687 0
M  V30 3336 H 310.566 3.51644 0.0629938 0
M  V30 3337 H 310.44 3.31401 1.80148 0
M  V30 3338 H 312.827 2.32235 1.82074 0
M  V30 3339 H 312.908 2.55707 0.0688331 0
M  V30 3340 H 312.552 5.06238 0.410505 0
M  V30 3341 H 312.482 4.79772 2.17086 0
M  V30 3342 H 314.973 3.58963 1.18126 0
M  V30 3343 H 315.286 7.51214 1.81378 0
M  V30 3344 H 313.631 6.75423 1.63794 0
M  V30 3345 H 316.822 4.47205 1.38294 0
M  V30 3346 H 316.995 6.26068 1.67159 0
M  V30 3347 N 310.401 -0.613514 1.45168 0
M  V30 3348 C 311.311 -1.75296 1.55912 0
M  V30 3349 C 312.327 -1.68244 0.443856 0
M  V30 3350 O 313.503 -1.88706 0.70371 0
M  V30 3351 C 310.568 -3.1174 1.5172 0
M  V30 3352 C 309.629 -3.30291 2.74238 0
M  V30 3353 C 308.862 -4.60226 2.70236 0
M  V30 3354 O 309.085 -5.42168 1.77229 0
M  V30 3355 O 308.019 -4.81361 3.61352 0
M  V30 3356 H 311.845 -1.69183 2.52212 0
M  V30 3357 H 309.43 -0.776886 1.27612 0
M  V30 3358 H 311.312 -3.93044 1.51968 0
M  V30 3359 H 309.987 -3.18357 0.585697 0
M  V30 3360 H 308.894 -2.48598 2.79553 0
M  V30 3361 H 310.227 -3.28547 3.66494 0
M  V30 3362 N 311.879 -1.3236 -0.855495 0
M  V30 3363 C 312.842 -1.21164 -1.94556 0
M  V30 3364 C 313.842 -0.134908 -1.60233 0
M  V30 3365 O 315.032 -0.385249 -1.69887 0
M  V30 3366 C 312.164 -0.863192 -3.29791 0
M  V30 3367 H 313.357 -2.18038 -2.05911 0
M  V30 3368 H 310.91 -1.16179 -1.04557 0
M  V30 3369 H 311.645 0.103769 -3.24134 0
M  V30 3370 H 311.43 -1.64166 -3.56078 0
M  V30 3371 H 312.92 -0.809156 -4.09686 0
M  V30 3372 N 313.357 1.07166 -1.15556 0
M  V30 3373 C 314.29 2.13808 -0.797593 0
M  V30 3374 C 315.268 1.6101 0.226812 0
M  V30 3375 O 316.452 1.88161 0.112932 0
M  V30 3376 C 313.579 3.38187 -0.186371 0
M  V30 3377 C 312.625 4.09766 -1.18297 0
M  V30 3378 S 313.458 4.60932 -2.72584 0
M  V30 3379 C 314.614 5.88583 -2.12886 0
M  V30 3380 H 314.847 2.43843 -1.70083 0
M  V30 3381 H 312.38 1.19467 -0.978106 0
M  V30 3382 H 314.338 4.10189 0.159837 0
M  V30 3383 H 312.999 3.06326 0.694489 0
M  V30 3384 H 312.192 4.99065 -0.703562 0
M  V30 3385 H 311.794 3.43736 -1.47381 0
M  V30 3386 H 314.086 6.60866 -1.49208 0
M  V30 3387 H 315.029 6.41241 -3.0036 0
M  V30 3388 H 315.437 5.42194 -1.57116 0
M  V30 3389 N 314.835 0.952656 1.25548 0
M  V30 3390 C 315.782 0.47008 2.25962 0
M  V30 3391 C 316.752 -0.476384 1.59122 0
M  V30 3392 O 317.937 -0.39007 1.8677 0
M  V30 3393 C 315.077 -0.247881 3.44209 0
M  V30 3394 C 314.19 0.735591 4.25691 0
M  V30 3395 C 313.325 -0.0047306 5.312 0
M  V30 3396 C 312.364 0.969805 6.04368 0
M  V30 3397 N 311.501 0.260486 7.01617 0
M  V30 3398 H 316.341 1.33126 2.66611 0
M  V30 3399 H 313.878 0.66765 1.31076 0
M  V30 3400 H 315.836 -0.680695 4.1161 0
M  V30 3401 H 314.466 -1.07312 3.0444 0
M  V30 3402 H 313.518 1.28689 3.57971 0
M  V30 3403 H 314.83 1.47934 4.76358 0
M  V30 3404 H 313.984 -0.496275 6.04667 0
M  V30 3405 H 312.723 -0.781282 4.81401 0
M  V30 3406 H 311.728 1.47237 5.29718 0
M  V30 3407 H 312.953 1.74655 6.56256 0
M  V30 3408 H 310.899 -0.497364 6.54112 0
M  V30 3409 H 310.816 0.943362 7.50091 0
M  V30 3410 H 312.084 -0.209587 7.79218 0
M  V30 3411 N 316.313 -1.40141 0.720998 0
M  V30 3412 C 317.729 -1.54632 0.395113 0
M  V30 3413 C 317.929 -1.69115 -1.09555 0
M  V30 3414 O 316.985 -1.68377 -1.88163 0
M  V30 3415 C 318.298 -2.77177 1.1659 0
M  V30 3416 C 319.846 -2.91 1.15274 0
M  V30 3417 C 320.321 -4.16465 1.90579 0
M  V30 3418 N 321.812 -4.23476 1.87675 0
M  V30 3419 C 322.547 -5.19475 2.42762 0
M  V30 3420 N 322.043 -6.21348 3.06428 0
M  V30 3421 N 323.836 -5.11592 2.32874 0
M  V30 3422 H 315.987 -1.28986 1.68749 0
M  V30 3423 H 318.25 -0.62412 0.713567 0
M  V30 3424 H 317.956 -2.72771 2.22011 0
M  V30 3425 H 317.83 -3.69442 0.76108 0
M  V30 3426 H 320.217 -2.94907 0.106702 0
M  V30 3427 H 320.298 -1.99838 1.59682 0
M  V30 3428 H 319.942 -4.1332 2.95176 0
M  V30 3429 H 319.872 -5.06646 1.43587 0
M  V30 3430 H 322.363 -3.50497 1.41281 0
M  V30 3431 H 322.676 -6.91034 3.45965 0
M  V30 3432 H 321.021 -6.21777 3.10514 0
M  V30 3433 H 324.212 -4.30936 1.82789 0
M  V30 3434 H 324.385 -5.86233 2.76106 0
M  V30 3435 N 317.792 -0.46758 -1.50504 0
M  V30 3436 C 319.039 0.0886219 -2.02306 0
M  V30 3437 C 319.367 1.40037 -1.34981 0
M  V30 3438 O 318.622 1.90136 -0.463318 0
M  V30 3439 C 318.921 0.323995 -3.55928 0
M  V30 3440 C 318.587 -0.905618 -4.41712 0
M  V30 3441 C 317.249 -1.24275 -4.64875 0
M  V30 3442 C 319.601 -1.72448 -4.91845 0
M  V30 3443 C 316.929 -2.39888 -5.35417 0
M  V30 3444 C 319.281 -2.87185 -5.63656 0
M  V30 3445 C 317.945 -3.21317 -5.85074 0
M  V30 3446 H 317.215 0.0324291 -0.74029 0
M  V30 3447 H 319.862 -0.620945 -1.81153 0
M  V30 3448 H 318.167 1.11577 -3.75577 0
M  V30 3449 H 319.864 0.76826 -3.93572 0
M  V30 3450 H 316.454 -0.632956 -4.239 0
M  V30 3451 H 320.638 -1.4772 -4.73806 0
M  V30 3452 H 315.894 -2.66611 -5.50208 0
M  V30 3453 H 320.068 -3.50985 -6.01484 0
M  V30 3454 H 317.695 -4.1101 -6.39511 0
M  V30 3455 N 319.27 1.56325 -0.20005 0
M  V30 3456 C 320.547 1.89484 0.48529 0
M  V30 3457 C 320.927 1.1143 1.79294 0
M  V30 3458 O 320.275 0.216919 2.27468 0
M  V30 3459 C 320.485 3.41923 0.699243 0
M  V30 3460 C 321.833 4.12256 1.01638 0
M  V30 3461 O 322.857 3.47402 0.786792 0
M  V30 3462 O 321.716 5.26887 1.45095 0
M  V30 3463 H 318.81 0.787144 0.253639 0
M  V30 3464 H 321.356 1.67985 -0.240633 0
M  V30 3465 H 320.128 3.90658 -0.224008 0
M  V30 3466 H 319.751 3.69131 1.47744 0
M  V30 3467 N 320.748 -0.0735177 1.57428 0
M  V30 3468 C 321.994 -0.774145 1.87443 0
M  V30 3469 C 322.327 -1.77311 0.792103 0
M  V30 3470 O 321.602 -1.93492 -0.197793 0
M  V30 3471 C 321.885 -1.48367 3.28115 0
M  V30 3472 C 321.738 -0.501227 4.46999 0
M  V30 3473 C 323.057 -2.429 3.66998 0
M  V30 3474 H 320.176 -0.279971 0.681752 0
M  V30 3475 H 322.818 -0.0373616 1.89963 0
M  V30 3476 H 320.968 -2.11171 3.26097 0
M  V30 3477 H 322.64 0.121468 4.6114 0
M  V30 3478 H 320.883 0.183593 4.33411 0
M  V30 3479 H 321.554 -1.03526 5.42205 0
M  V30 3480 H 324.03 -1.90175 3.70098 0
M  V30 3481 H 322.906 -2.89549 4.66318 0
M  V30 3482 H 323.167 -3.27628 2.96837 0
M  V30 3483 N 322.226 -1.5378 -0.344866 0
M  V30 3484 C 323.642 -1.44015 -0.687888 0
M  V30 3485 C 323.842 -0.595834 -1.92489 0
M  V30 3486 O 322.898 -0.0863064 -2.52352 0
M  V30 3487 C 324.211 -2.87481 -0.881758 0
M  V30 3488 C 325.759 -2.97247 -0.980459 0
M  V30 3489 C 326.234 -4.41819 -1.20665 0
M  V30 3490 N 327.725 -4.45339 -1.27389 0
M  V30 3491 C 328.46 -5.54333 -1.46639 0
M  V30 3492 N 327.956 -6.73335 -1.63071 0
M  V30 3493 N 329.749 -5.41944 -1.49176 0
M  V30 3494 H 321.9 -2.07169 0.468475 0
M  V30 3495 H 324.163 -0.93643 0.147655 0
M  V30 3496 H 323.869 -3.51672 -0.0443444 0
M  V30 3497 H 323.743 -3.32352 -1.78388 0
M  V30 3498 H 326.13 -2.33197 -1.8084 0
M  V30 3499 H 326.211 -2.5574 -0.0552713 0
M  V30 3500 H 325.855 -5.06449 -0.383652 0
M  V30 3501 H 325.785 -4.80917 -2.14539 0
M  V30 3502 H 328.276 -3.59585 -1.1622 0
M  V30 3503 H 328.589 -7.52165 -1.77391 0
M  V30 3504 H 326.934 -6.76282 -1.60209 0
M  V30 3505 H 330.125 -4.47932 -1.3592 0
M  V30 3506 H 330.298 -6.26946 -1.63837 0
M  V30 3507 N 323.704 0.605807 -1.45491 0
M  V30 3508 C 324.929 1.39625 -1.53361 0
M  V30 3509 C 325.354 1.87351 -0.167645 0
M  V30 3510 O 324.712 1.60243 0.848051 0
M  V30 3511 C 324.76 2.57559 -2.5238 0
M  V30 3512 O 323.864 3.58248 -2.04285 0
M  V30 3513 H 323.205 0.416771 -0.516912 0
M  V30 3514 H 325.735 0.737103 -1.90861 0
M  V30 3515 H 325.745 3.0478 -2.71244 0
M  V30 3516 H 324.42 2.22171 -3.51586 0
M  V30 3517 H 322.997 3.17664 -1.95305 0
M  V30 3518 N 325.182 1.32811 0.848464 0
M  V30 3519 C 326.129 1.22265 1.95755 0
M  V30 3520 C 327.099 0.103413 1.65778 0
M  V30 3521 O 328.284 0.280033 1.88734 0
M  V30 3522 C 325.424 0.958014 3.31536 0
M  V30 3523 C 324.537 2.16262 3.73971 0
M  V30 3524 C 323.672 1.83295 4.98575 0
M  V30 3525 C 322.711 3.00041 5.33518 0
M  V30 3526 N 321.848 2.67125 6.49299 0
M  V30 3527 H 326.688 2.17128 2.04107 0
M  V30 3528 H 324.225 1.07982 0.998913 0
M  V30 3529 H 326.183 0.785052 4.09747 0
M  V30 3530 H 324.813 0.046159 3.22767 0
M  V30 3531 H 323.865 2.44565 2.91362 0
M  V30 3532 H 325.177 3.03572 3.95785 0
M  V30 3533 H 324.331 1.62586 5.84509 0
M  V30 3534 H 323.07 0.932078 4.7871 0
M  V30 3535 H 322.075 3.21374 4.46093 0
M  V30 3536 H 323.3 3.90869 5.55336 0
M  V30 3537 H 321.246 1.79586 6.3094 0
M  V30 3538 H 321.163 3.47965 6.71161 0
M  V30 3539 H 322.431 2.49861 7.3837 0
M  V30 3540 N 326.66 -1.06551 1.16123 0
M  V30 3541 C 327.623 -2.12132 0.867906 0
M  V30 3542 C 328.623 -1.60224 -0.135944 0
M  V30 3543 O 329.813 -1.73943 0.0946422 0
M  V30 3544 C 326.945 -3.396 0.297419 0
M  V30 3545 H 328.138 -2.39586 1.80385 0
M  V30 3546 H 325.691 -1.22574 0.969812 0
M  V30 3547 H 326.426 -3.17794 -0.64633 0
M  V30 3548 H 326.211 -3.78581 1.02073 0
M  V30 3549 H 327.701 -4.17455 0.110052 0
M  V30 3550 N 328.138 -0.959301 -1.25041 0
M  V30 3551 C 329.088 -0.453888 -2.23436 0
M  V30 3552 C 330.072 0.459461 -1.542 0
M  V30 3553 O 331.264 0.291752 -1.74579 0
M  V30 3554 C 328.393 0.262667 -3.42294 0
M  V30 3555 C 327.479 -0.669022 -4.1879 0
M  V30 3556 N 327.87 -1.80267 -4.72586 0
M  V30 3557 C 326.168 -0.47814 -4.4343 0
M  V30 3558 C 326.869 -2.38475 -5.3057 0
M  V30 3559 N 325.845 -1.67078 -5.17287 0
M  V30 3560 H 329.647 -1.319 -2.6264 0
M  V30 3561 H 327.161 -0.817358 -1.40332 0
M  V30 3562 H 329.158 0.641911 -4.11929 0
M  V30 3563 H 327.818 1.12432 -3.04613 0
M  V30 3564 H 328.829 -2.18442 -4.69578 0
M  V30 3565 H 325.506 0.340249 -4.16111 0
M  V30 3566 H 326.896 -3.34094 -5.8295 0
M  V30 3567 N 329.616 1.39756 -0.72842 0
M  V30 3568 C 330.546 2.33289 -0.0991354 0
M  V30 3569 C 331.527 1.53568 0.731489 0
M  V30 3570 O 332.712 1.81987 0.677807 0
M  V30 3571 C 329.842 3.3763 0.813834 0
M  V30 3572 C 328.796 4.2791 0.0878663 0
M  V30 3573 C 328.122 5.22894 1.11741 0
M  V30 3574 C 329.422 5.11314 -1.06563 0
M  V30 3575 H 331.116 2.86163 -0.880408 0
M  V30 3576 H 328.662 1.37591 -0.424819 0
M  V30 3577 H 330.615 4.0201 1.26355 0
M  V30 3578 H 329.339 2.83181 1.62715 0
M  V30 3579 H 327.998 3.65 -0.342159 0
M  V30 3580 H 327.646 4.64744 1.92412 0
M  V30 3581 H 327.346 5.84143 0.636477 0
M  V30 3582 H 328.87 5.90151 1.56697 0
M  V30 3583 H 330.284 5.69076 -0.694671 0
M  V30 3584 H 328.681 5.81671 -1.47577 0
M  V30 3585 H 329.751 4.46534 -1.89038 0
M  V30 3586 N 331.094 0.475555 1.50254 0
M  V30 3587 C 332.322 -0.0754493 2.06762 0
M  V30 3588 C 332.737 -1.33111 1.33891 0
M  V30 3589 O 332.094 -1.77846 0.40952 0
M  V30 3590 C 332.145 -0.359008 3.59713 0
M  V30 3591 O 331.866 0.846851 4.29837 0
M  V30 3592 C 333.367 -0.956484 4.32858 0
M  V30 3593 H 330.587 0.00907525 0.670939 0
M  V30 3594 H 333.131 0.665618 1.93364 0
M  V30 3595 H 331.286 -1.05001 3.72899 0
M  V30 3596 H 331.7 0.594162 5.21124 0
M  V30 3597 H 333.174 -1.10463 5.40834 0
M  V30 3598 H 333.651 -1.94775 3.93649 0
M  V30 3599 H 334.257 -0.303723 4.24214 0
M  V30 3600 N 332.573 -1.56217 0.208337 0
M  V30 3601 C 333.536 -2.18455 -0.693557 0
M  V30 3602 C 334.536 -1.14268 -1.13135 0
M  V30 3603 O 335.726 -1.39577 -1.0423 0
M  V30 3604 C 332.858 -2.79727 -1.94848 0
M  V30 3605 H 334.051 -2.99519 -0.15114 0
M  V30 3606 H 331.604 -1.56245 -0.041287 0
M  V30 3607 H 332.339 -2.02497 -2.53309 0
M  V30 3608 H 332.124 -3.56009 -1.64316 0
M  V30 3609 H 333.614 -3.27475 -2.59133 0
M  V30 3610 N 334.051 0.0651679 -1.57465 0
M  V30 3611 C 334.981 1.07693 -2.07182 0
M  V30 3612 C 335.962 1.39962 -0.966673 0
M  V30 3613 O 337.147 1.49475 -1.2398 0
M  V30 3614 C 334.277 2.3885 -2.52127 0
M  V30 3615 C 333.231 2.20917 -3.66579 0
M  V30 3616 C 332.557 3.57515 -3.97601 0
M  V30 3617 C 333.857 1.62493 -4.9638 0
M  V30 3618 H 335.551 0.663199 -2.91962 0
M  V30 3619 H 333.097 0.317569 -1.40455 0
M  V30 3620 H 335.05 3.09928 -2.85522 0
M  V30 3621 H 333.774 2.82215 -1.64384 0
M  V30 3622 H 332.433 1.52279 -3.33477 0
M  V30 3623 H 332.081 3.98463 -3.06979 0
M  V30 3624 H 331.781 3.46353 -4.74672 0
M  V30 3625 H 333.305 4.30013 -4.33499 0
M  V30 3626 H 334.719 2.23445 -5.27963 0
M  V30 3627 H 333.116 1.62009 -5.77818 0
M  V30 3628 H 334.186 0.587041 -4.81333 0
M  V30 3629 N 335.529 1.53961 0.336706 0
M  V30 3630 C 336.492 1.81724 1.39675 0
M  V30 3631 C 337.492 0.688532 1.45313 0
M  V30 3632 O 338.682 0.956829 1.45569 0
M  V30 3633 C 335.814 1.96543 2.78538 0
M  V30 3634 H 337.007 2.76424 1.16318 0
M  V30 3635 H 334.56 1.45478 0.571474 0
M  V30 3636 H 335.295 1.0401 3.07168 0
M  V30 3637 H 335.08 2.78665 2.75841 0
M  V30 3638 H 336.57 2.19516 3.5525 0
M  V30 3639 N 337.007 -0.598083 1.45811 0
M  V30 3640 C 338.256 -1.35295 1.49594 0
M  V30 3641 C 338.569 -1.95057 0.145679 0
M  V30 3642 O 339.775 -2.71431 0.0612099 0
M  V30 3643 C 338.231 -2.45124 2.63519 0
M  V30 3644 C 337.839 -1.91732 4.04899 0
M  V30 3645 C 339.583 -3.2205 2.76558 0
M  V30 3646 C 337.49 -2.991 5.1019 0
M  V30 3647 H 336.42 -0.508552 0.556679 0
M  V30 3648 H 339.071 -0.639977 1.71978 0
M  V30 3649 H 337.453 -3.19149 2.34435 0
M  V30 3650 H 338.627 -1.24352 4.43704 0
M  V30 3651 H 336.942 -1.27522 3.96393 0
M  V30 3652 H 339.539 -4.0215 3.52391 0
M  V30 3653 H 339.882 -3.73663 1.83526 0
M  V30 3654 H 340.415 -2.55127 3.05213 0
M  V30 3655 H 337.154 -2.52393 6.04961 0
M  V30 3656 H 336.674 -3.65017 4.75944 0
M  V30 3657 H 338.353 -3.63318 5.35359 0
M  V30 3658 N 338.485 -1.33259 -0.841409 0
M  V30 3659 C 339.901 -1.12538 -1.13169 0
M  V30 3660 C 340.101 0.0854037 -2.01319 0
M  V30 3661 O 339.157 0.766417 -2.40587 0
M  V30 3662 C 340.47 -2.41156 -1.79623 0
M  V30 3663 C 342.018 -2.47038 -1.922 0
M  V30 3664 C 342.493 -3.7561 -2.6207 0
M  V30 3665 N 343.984 -3.76667 -2.69585 0
M  V30 3666 C 344.719 -4.72861 -3.2433 0
M  V30 3667 N 344.215 -5.79428 -3.79783 0
M  V30 3668 N 346.008 -4.6034 -3.22558 0
M  V30 3669 H 338.159 -2.10868 -0.254676 0
M  V30 3670 H 340.422 -0.931615 -0.175493 0
M  V30 3671 H 340.128 -3.29747 -1.22311 0
M  V30 3672 H 340.002 -2.53114 -2.79666 0
M  V30 3673 H 342.389 -1.58898 -2.48667 0
M  V30 3674 H 342.47 -2.39022 -0.911148 0
M  V30 3675 H 342.114 -4.64131 -2.06263 0
M  V30 3676 H 342.044 -3.80902 -3.63622 0
M  V30 3677 H 344.535 -2.99648 -2.30259 0
M  V30 3678 H 344.848 -6.48867 -4.19752 0
M  V30 3679 H 343.193 -5.83166 -3.78078 0
M  V30 3680 H 346.384 -3.76244 -2.78492 0
M  V30 3681 H 346.557 -5.35478 -3.64921 0
M  V30 3682 N 339.963 1.05934 -1.16686 0
M  V30 3683 C 341.379 1.30938 -0.912542 0
M  V30 3684 C 341.579 1.96803 0.432533 0
M  V30 3685 O 340.635 2.23693 1.17123 0
M  V30 3686 C 341.948 2.18649 -2.06429 0
M  V30 3687 C 343.496 2.32055 -2.10047 0
M  V30 3688 C 343.971 3.23122 -3.24586 0
M  V30 3689 N 345.462 3.30706 -3.24327 0
M  V30 3690 C 346.197 4.01273 -4.09594 0
M  V30 3691 N 345.693 4.74332 -5.04956 0
M  V30 3692 N 347.486 3.97361 -3.97569 0
M  V30 3693 H 339.637 0.615777 -2.03278 0
M  V30 3694 H 341.9 0.334077 -0.887185 0
M  V30 3695 H 341.606 1.77534 -3.03603 0
M  V30 3696 H 341.48 3.19252 -2.00894 0
M  V30 3697 H 343.867 2.72415 -1.13464 0
M  V30 3698 H 343.948 1.31107 -2.19647 0
M  V30 3699 H 343.592 2.83477 -4.2143 0
M  V30 3700 H 343.522 4.24057 -3.12223 0
M  V30 3701 H 346.013 2.78644 -2.55276 0
M  V30 3702 H 346.326 5.25716 -5.6643 0
M  V30 3703 H 344.671 4.733 -5.08933 0
M  V30 3704 H 347.862 3.39405 -3.22369 0
M  V30 3705 H 348.035 4.52089 -4.64241 0
M  V30 3706 N 341.441 0.965919 1.2453 0
M  V30 3707 C 342.388 0.49402 2.25451 0
M  V30 3708 C 343.358 -0.45948 1.59618 0
M  V30 3709 O 344.543 -0.370238 1.87173 0
M  V30 3710 C 341.683 -0.211359 3.44452 0
M  V30 3711 C 340.796 0.7807 4.24887 0
M  V30 3712 C 339.931 0.0516105 5.31175 0
M  V30 3713 C 338.97 1.03385 6.03306 0
M  V30 3714 N 338.107 0.334887 7.01301 0
M  V30 3715 H 342.947 1.35946 2.65184 0
M  V30 3716 H 340.484 0.681515 1.3036 0
M  V30 3717 H 342.442 -0.637 4.12308 0
M  V30 3718 H 341.072 -1.04077 3.05562 0
M  V30 3719 H 340.124 1.32479 3.56586 0
M  V30 3720 H 341.436 1.52978 4.74762 0
M  V30 3721 H 340.59 -0.432114 6.05159 0
M  V30 3722 H 339.329 -0.730179 4.82203 0
M  V30 3723 H 338.334 1.52847 5.28127 0
M  V30 3724 H 339.559 1.81606 6.54367 0
M  V30 3725 H 337.505 -0.427959 6.54603 0
M  V30 3726 H 337.422 1.02287 7.49048 0
M  V30 3727 H 338.69 -0.126928 7.79397 0
M  V30 3728 N 342.919 -1.39368 0.735821 0
M  V30 3729 C 343.849 -2.33234 0.111506 0
M  V30 3730 C 344.83 -1.53954 -0.723334 0
M  V30 3731 O 346.015 -1.82344 -0.668147 0
M  V30 3732 C 343.145 -3.38057 -0.795917 0
M  V30 3733 C 342.099 -4.2795 -0.065172 0
M  V30 3734 C 341.425 -5.23479 -1.08967 0
M  V30 3735 C 342.725 -5.10741 1.09273 0
M  V30 3736 H 344.419 -2.85692 0.895571 0
M  V30 3737 H 341.965 -1.37364 0.432109 0
M  V30 3738 H 343.918 -4.02675 -1.24221 0
M  V30 3739 H 342.642 -2.8404 -1.61211 0
M  V30 3740 H 341.301 -3.64813 0.361511 0
M  V30 3741 H 340.949 -4.65758 -1.89944 0
M  V30 3742 H 340.649 -5.84472 -0.605489 0
M  V30 3743 H 342.173 -5.90974 -1.53565 0
M  V30 3744 H 343.587 -5.68699 0.724841 0
M  V30 3745 H 341.984 -5.8088 1.50659 0
M  V30 3746 H 343.054 -4.45525 1.91404 0
M  V30 3747 N 344.397 -0.483516 -1.5 0
M  V30 3748 C 345.646 0.0689102 -2.01582 0
M  V30 3749 C 345.959 1.39655 -1.36952 0
M  V30 3750 O 347.165 2.03465 -1.79762 0
M  V30 3751 C 345.621 0.173302 -3.59483 0
M  V30 3752 C 345.229 -1.14665 -4.33077 0
M  V30 3753 C 346.973 0.677024 -4.19066 0
M  V30 3754 C 344.88 -1.00537 -5.82792 0
M  V30 3755 H 343.81 0.0295277 -0.753422 0
M  V30 3756 H 346.461 -0.620295 -1.72698 0
M  V30 3757 H 344.843 0.926569 -3.85007 0
M  V30 3758 H 346.017 -1.91184 -4.19268 0
M  V30 3759 H 344.332 -1.58244 -3.85159 0
M  V30 3760 H 346.929 0.799952 -5.28682 0
M  V30 3761 H 347.272 1.67151 -3.81269 0
M  V30 3762 H 347.805 -0.0192083 -3.97795 0
M  V30 3763 H 344.544 -1.9736 -6.25083 0
M  V30 3764 H 344.064 -0.280776 -5.99142 0
M  V30 3765 H 345.743 -0.677 -6.43448 0
M  V30 3766 O 345.914 1.57479 -0.358152 0
M  V30 3767 H 346.605 1.92725 0.1941 0
M  V30 END ATOM
M  V30 BEGIN BOND
M  V30 END BOND
M  V30 END CTAB
M  END
$$$$
