drugbank_target|P33981 Dual specificity protein kinase TTK (DB01782; DB12010; DB15498)
 OpenBabel12092120403D

  0  0  0     0  0            999 V3000
M  V30 BEGIN CTAB
M  V30 COUNTS 13624 13752 0 0 0
M  V30 BEGIN ATOM
M  V30 1 H -0.908 1.98254 -0.117106 0
M  V30 2 N 0 1.576 0 0
M  V30 3 C 0.933 2.03868 1.02534 0
M  V30 4 C 1.911 0.928543 1.3348 0
M  V30 5 O 3.095 1.19667 1.45644 0
M  V30 6 C 0.222 2.43627 2.35294 0
M  V30 7 C -0.732 3.65373 2.2001 0
M  V30 8 S 0.101 5.13292 1.52614 0
M  V30 9 C 1.257 5.56322 2.86805 0
M  V30 10 H 1.49 2.90518 0.631377 0
M  V30 11 H -0.977 1.52953 0.210867 0
M  V30 12 H 0.981 2.67203 3.11629 0
M  V30 13 H -0.358 1.57376 2.7183 0
M  V30 14 H -1.165 3.90944 3.18086 0
M  V30 15 H -1.563 3.418 1.51819 0
M  V30 16 H 0.729 5.58782 3.83104 0
M  V30 17 H 1.672 6.56266 2.65933 0
M  V30 18 H 2.08 4.83886 2.90714 0
M  V30 19 N 1.4781 -0.272755 1.55222 0
M  V30 20 C 2.3881 -1.35918 1.91216 0
M  V30 21 C 3.4041 -1.54026 0.809436 0
M  V30 22 O 4.5801 -1.68148 1.10852 0
M  V30 23 C 1.6451 -2.69834 2.17693 0
M  V30 24 C 0.7061 -2.6047 3.41253 0
M  V30 25 C -0.0609 -3.88 3.66458 0
M  V30 26 O 0.1621 -4.88693 2.94169 0
M  V30 27 O -0.9039 -3.88189 4.59992 0
M  V30 28 H 2.9221 -1.0839 2.83699 0
M  V30 29 H 0.5071 -0.471301 1.41771 0
M  V30 30 H 2.3891 -3.49017 2.36147 0
M  V30 31 H 1.0641 -2.97148 1.28392 0
M  V30 32 H -0.0289 -1.79663 3.28134 0
M  V30 33 H 1.3041 -2.38106 4.30774 0
M  V30 34 N 2.9562 -1.48159 -0.537278 0
M  V30 35 C 4.1812 -1.59707 -1.32319 0
M  V30 36 C 4.6062 -0.254859 -1.86365 0
M  V30 37 O 3.9642 0.772378 -1.64024 0
M  V30 38 C 4.0122 -2.6412 -2.45505 0
M  V30 39 O 3.1162 -2.20774 -3.48328 0
M  V30 40 H 2.4572 -0.535791 -0.392204 0
M  V30 41 H 4.9872 -1.94092 -0.647268 0
M  V30 42 H 4.9972 -2.85166 -2.91795 0
M  V30 43 H 3.6722 -3.61567 -2.05528 0
M  V30 44 H 2.2492 -2.09911 -3.08207 0
M  V30 45 N 4.4343 0.785586 -1.36625 0
M  V30 46 C 5.3443 1.92964 -1.33425 0
M  V30 47 C 6.3603 1.72394 -0.235851 0
M  V30 48 O 7.5363 1.95866 -0.468878 0
M  V30 49 C 4.6013 3.27884 -1.12662 0
M  V30 50 C 3.6623 3.61204 -2.32013 0
M  V30 51 C 2.8953 4.89687 -2.12231 0
M  V30 52 O 3.1183 5.59704 -1.09945 0
M  V30 53 O 2.0523 5.21752 -3.00098 0
M  V30 54 H 5.8783 1.98613 -2.29753 0
M  V30 55 H 3.4633 0.926384 -1.17211 0
M  V30 56 H 5.3453 4.08614 -1.03016 0
M  V30 57 H 4.0203 3.23118 -0.193991 0
M  V30 58 H 2.9273 2.80765 -2.47228 0
M  V30 59 H 4.2603 3.70698 -3.23796 0
M  V30 60 N 5.9124 1.20967 1.01018 0
M  V30 61 C 7.1894 0.93264 1.71934 0
M  V30 62 C 7.5694 -0.55692 2.03621 0
M  V30 63 O 6.9174 -1.52035 1.7058 0
M  V30 64 C 7.1274 1.81233 2.98254 0
M  V30 65 C 8.4754 2.05804 3.71389 0
M  V30 66 O 9.4994 1.78539 3.08225 0
M  V30 67 O 8.3584 2.51888 4.84989 0
M  V30 68 H 5.4524 0.349272 0.749625 0
M  V30 69 H 7.9984 1.31871 1.06808 0
M  V30 70 H 6.7704 2.82067 2.71208 0
M  V30 71 H 6.3934 1.42674 3.7112 0
M  V30 72 N 7.3905 -1.2043 1.01659 0
M  V30 73 C 8.3205 -2.25466 0.607226 0
M  V30 74 C 9.3015 -1.65853 -0.377716 0
M  V30 75 O 10.4865 -1.92409 -0.263149 0
M  V30 76 C 7.6165 -3.47256 -0.0552949 0
M  V30 77 C 6.5705 -4.19462 0.850632 0
M  V30 78 C 5.8965 -5.34673 0.0538859 0
M  V30 79 C 7.1965 -4.75603 2.15868 0
M  V30 80 H 8.8905 -2.59962 1.48526 0
M  V30 81 H 6.4365 -1.2496 0.715605 0
M  V30 82 H 8.3895 -4.19917 -0.353233 0
M  V30 83 H 7.1135 -3.11924 -0.968045 0
M  V30 84 H 5.7725 -3.48667 1.13257 0
M  V30 85 H 5.4205 -4.95585 -0.860514 0
M  V30 86 H 5.1205 -5.83913 0.657192 0
M  V30 87 H 6.6445 -6.10138 -0.237598 0
M  V30 88 H 8.0585 -5.40083 1.92311 0
M  V30 89 H 6.4555 -5.3528 2.71284 0
M  V30 90 H 7.5255 -3.94346 2.82169 0
M  V30 91 N 8.8686 -0.792821 -1.36206 0
M  V30 92 C 10.0936 -0.377701 -2.03932 0
M  V30 93 C 10.5186 0.998947 -1.59382 0
M  V30 94 O 9.8766 1.64421 -0.763903 0
M  V30 95 C 9.9246 -0.453635 -3.57735 0
M  V30 96 O 9.0286 0.538151 -4.08874 0
M  V30 97 H 8.3696 -0.159855 -0.644471 0
M  V30 98 H 10.8996 -1.07488 -1.7409 0
M  V30 99 H 10.9096 -0.318464 -4.06755 0
M  V30 100 H 9.5846 -1.45784 -3.89512 0
M  V30 101 H 8.1616 0.364359 -3.71116 0
M  V30 102 N 10.3467 1.47872 -0.545128 0
M  V30 103 C 11.5947 2.02093 -0.016553 0
M  V30 104 C 11.9157 1.42305 1.3332 0
M  V30 105 O 11.1857 0.593853 1.86682 0
M  V30 106 H 9.7657 0.746993 -0.00313038 0
M  V30 107 H 12.4277 1.81414 -0.712397 0
M  V30 108 H 11.5237 3.11996 0.0805422 0
M  V30 109 N 11.8248 0.280983 1.55075 0
M  V30 110 C 13.2408 -0.0729964 1.59433 0
M  V30 111 C 13.4408 -1.5411 1.29817 0
M  V30 112 O 12.4968 -2.29086 1.06187 0
M  V30 113 C 13.8098 0.306921 2.9913 0
M  V30 114 C 15.3578 0.254023 3.11968 0
M  V30 115 C 15.8328 0.608467 4.5394 0
M  V30 116 N 17.3238 0.560241 4.59799 0
M  V30 117 C 18.0588 0.80722 5.6769 0
M  V30 118 N 17.5548 1.11912 6.83701 0
M  V30 119 N 19.3478 0.735623 5.57266 0
M  V30 120 H 11.4988 1.238 1.7259 0
M  V30 121 H 13.7618 0.500547 0.805082 0
M  V30 122 H 13.4678 1.32816 3.25657 0
M  V30 123 H 13.3418 -0.349363 3.75579 0
M  V30 124 H 15.7288 -0.75794 2.852 0
M  V30 125 H 15.8098 0.944649 2.37718 0
M  V30 126 H 15.4538 1.61814 4.81434 0
M  V30 127 H 15.3838 -0.104013 5.26497 0
M  V30 128 H 17.8748 0.329288 3.76463 0
M  V30 129 H 18.1878 1.29409 7.61888 0
M  V30 130 H 16.5328 1.15695 6.85303 0
M  V30 131 H 19.7238 0.491752 4.6551 0
M  V30 132 H 19.8968 0.931482 6.4127 0
M  V30 133 N 13.3029 -1.57598 0.00835791 0
M  V30 134 C 14.2129 -2.12385 -0.996487 0
M  V30 135 C 15.2289 -1.07108 -1.37127 0
M  V30 136 O 16.4049 -1.39055 -1.4569 0
M  V30 137 C 13.4699 -2.62314 -2.26699 0
M  V30 138 C 12.5309 -3.82225 -1.95456 0
M  V30 139 C 11.7639 -4.29763 -3.16449 0
M  V30 140 O 11.9869 -3.76584 -4.28416 0
M  V30 141 O 10.9209 -5.21832 -2.99958 0
M  V30 142 H 14.7469 -2.98479 -0.560725 0
M  V30 143 H 12.3319 -1.47903 -0.210987 0
M  V30 144 H 14.2139 -2.94589 -3.01322 0
M  V30 145 H 12.8889 -1.79313 -2.69497 0
M  V30 146 H 11.7959 -3.54909 -1.18282 0
M  V30 147 H 13.1289 -4.66324 -1.57489 0
M  V30 148 N 14.781 0.264519 -1.55364 0
M  V30 149 C 15.711 1.33121 -1.91836 0
M  V30 150 C 16.692 1.51101 -0.781192 0
M  V30 151 O 17.877 1.64003 -1.04003 0
M  V30 152 C 15.007 2.68921 -2.19769 0
M  V30 153 C 13.961 2.65661 -3.35571 0
M  V30 154 C 13.287 4.05093 -3.49004 0
M  V30 155 C 14.587 2.24187 -4.71739 0
M  V30 156 H 16.281 1.02844 -2.81182 0
M  V30 157 H 13.827 0.493286 -1.35287 0
M  V30 158 H 15.78 3.43663 -2.43872 0
M  V30 159 H 14.504 3.00799 -1.27231 0
M  V30 160 H 13.163 1.93377 -3.1145 0
M  V30 161 H 12.811 4.34206 -2.53917 0
M  V30 162 H 12.511 4.03804 -4.26868 0
M  V30 163 H 14.035 4.81561 -3.75408 0
M  V30 164 H 15.449 2.88654 -4.9533 0
M  V30 165 H 13.846 2.34044 -5.52579 0
M  V30 166 H 14.916 1.19327 -4.69988 0
M  V30 167 N 16.2591 1.48442 0.529413 0
M  V30 168 C 17.4871 1.60151 1.30994 0
M  V30 169 C 17.9021 0.261985 1.86973 0
M  V30 170 O 17.2591 -0.748805 1.66431 0
M  V30 171 C 17.3101 2.64854 2.46038 0
M  V30 172 O 17.0311 3.93608 1.92365 0
M  V30 173 C 18.5321 2.87007 3.37849 0
M  V30 174 H 15.7521 0.539971 0.398338 0
M  V30 175 H 18.2961 1.94273 0.638597 0
M  V30 176 H 16.4511 2.33589 3.09055 0
M  V30 177 H 16.8651 4.51055 2.67675 0
M  V30 178 H 18.3391 3.64068 4.14919 0
M  V30 179 H 18.8161 1.95852 3.93114 0
M  V30 180 H 19.4221 3.19579 2.80623 0
M  V30 181 N 17.7372 -0.778329 1.37039 0
M  V30 182 C 18.9862 -1.53189 1.3121 0
M  V30 183 C 19.2992 -1.95328 -0.103095 0
M  V30 184 O 20.5052 -2.70012 -0.283826 0
M  V30 185 C 18.9612 -2.76591 2.30272 0
M  V30 186 C 18.5692 -2.41577 3.77286 0
M  V30 187 C 20.3132 -3.5455 2.33441 0
M  V30 188 C 18.2202 -3.61441 4.68096 0
M  V30 189 H 17.1502 -0.5751 0.487622 0
M  V30 190 H 19.8012 -0.853101 1.62464 0
M  V30 191 H 18.1832 -3.46326 1.92027 0
M  V30 192 H 19.3572 -1.79668 4.2433 0
M  V30 193 H 17.6722 -1.76806 3.76999 0
M  V30 194 H 20.2692 -4.43628 2.98493 0
M  V30 195 H 20.6122 -3.93936 1.34611 0
M  V30 196 H 21.1452 -2.91805 2.7036 0
M  V30 197 H 17.8842 -3.27142 5.6803 0
M  V30 198 H 17.4042 -4.22478 4.25761 0
M  V30 199 H 19.0832 -4.28335 4.8491 0
M  V30 200 N 19.2153 -1.21501 -1.00376 0
M  V30 201 C 20.4923 -0.941745 -1.71437 0
M  V30 202 C 20.8723 0.546114 -2.03914 0
M  V30 203 O 20.2203 1.51128 -1.71384 0
M  V30 204 C 20.4303 -1.82812 -2.97289 0
M  V30 205 C 21.7783 -2.07771 -3.70292 0
M  V30 206 O 22.8023 -1.80171 -3.07273 0
M  V30 207 O 21.6613 -2.54456 -4.83647 0
M  V30 208 H 18.7553 -0.353243 -0.747762 0
M  V30 209 H 21.3013 -1.32436 -1.06108 0
M  V30 210 H 20.0733 -2.83501 -2.69709 0
M  V30 211 H 19.6963 -1.4464 -3.70358 0
M  V30 212 N 20.6934 1.19889 -1.02296 0
M  V30 213 C 21.9184 1.9393 -0.735237 0
M  V30 214 C 22.3434 1.74639 0.698782 0
M  V30 215 O 21.7014 1.04481 1.48167 0
M  V30 216 C 21.7494 3.43916 -1.08417 0
M  V30 217 O 20.8534 4.11917 -0.199446 0
M  V30 218 H 20.1944 0.605645 -0.272196 0
M  V30 219 H 22.7244 1.52137 -1.36804 0
M  V30 220 H 22.7344 3.9456 -1.03856 0
M  V30 221 H 21.4094 3.5728 -2.12894 0
M  V30 222 H 19.9864 3.71666 -0.303136 0
M  V30 223 N 22.1715 0.800033 1.35784 0
M  V30 224 C 23.4205 0.37387 1.98205 0
M  V30 225 C 23.7335 -1.06302 1.64193 0
M  V30 226 O 24.9395 -1.59198 2.19928 0
M  V30 227 C 23.3955 0.617532 3.54562 0
M  V30 228 C 23.0035 2.06654 3.9749 0
M  V30 229 C 24.7475 0.256401 4.23725 0
M  V30 230 C 22.6545 2.2563 5.46667 0
M  V30 231 H 21.5845 0.136055 0.741623 0
M  V30 232 H 24.2355 0.983166 1.54939 0
M  V30 233 H 22.6175 -0.0616248 3.95952 0
M  V30 234 H 23.7915 2.78296 3.67271 0
M  V30 235 H 22.1065 2.38691 3.41197 0
M  V30 236 H 24.7035 0.376318 5.33374 0
M  V30 237 H 25.0465 -0.796692 4.08606 0
M  V30 238 H 25.5795 0.889214 3.87734 0
M  V30 239 H 22.3185 3.2936 5.66747 0
M  V30 240 H 21.8385 1.58504 5.78478 0
M  V30 241 H 23.5175 2.06861 6.1304 0
M  V30 242 N 23.6496 -1.47581 0.552962 0
M  V30 243 C 24.5826 -2.26883 -0.244857 0
M  V30 244 C 25.5606 -1.33784 -0.924147 0
M  V30 245 O 26.7446 -1.6316 -0.943981 0
M  V30 246 C 23.8716 -3.10695 -1.34856 0
M  V30 247 C 22.9176 -4.19339 -0.778268 0
M  V30 248 S 23.7506 -5.34207 0.37184 0
M  V30 249 C 24.9066 -6.21584 -0.733779 0
M  V30 250 H 25.1396 -2.94202 0.428087 0
M  V30 251 H 22.6726 -1.50628 0.339197 0
M  V30 252 H 24.6306 -3.59555 -1.98066 0
M  V30 253 H 23.2916 -2.42746 -1.99332 0
M  V30 254 H 22.4846 -4.77695 -1.60696 0
M  V30 255 H 22.0866 -3.73338 -0.222422 0
M  V30 256 H 24.3786 -6.57676 -1.62692 0
M  V30 257 H 25.3216 -7.07851 -0.187668 0
M  V30 258 H 25.7296 -5.55125 -1.02454 0
M  V30 259 N 25.1277 -0.289203 -1.54924 0
M  V30 260 C 26.0757 0.607966 -2.24514 0
M  V30 261 C 27.0697 1.14655 -1.24702 0
M  V30 262 O 28.2757 1.09856 -1.4259 0
M  V30 263 H 24.6507 0.21464 -0.720718 0
M  V30 264 H 26.6217 -0.00164182 -2.984 0
M  V30 265 C 25.3707 1.77406 -2.99036 0
M  V30 266 H 24.6937 1.36884 -3.75637 0
M  V30 267 H 26.1337 2.37814 -3.51028 0
M  V30 268 C 24.5927 2.67107 -2.05318 0
M  V30 269 O 25.1227 3.6787 -1.61353 0
M  V30 270 N 23.3287 2.34582 -1.71521 0
M  V30 271 H 22.8757 1.52688 -2.07471 0
M  V30 272 H 22.8337 2.94867 -1.0909 0
M  V30 273 N 26.6058 1.57591 -0.0167156 0
M  V30 274 C 27.5528 2.09462 0.969251 0
M  V30 275 C 28.5228 0.99381 1.33089 0
M  V30 276 O 29.7078 1.26726 1.42636 0
M  V30 277 C 26.8478 2.61622 2.25051 0
M  V30 278 C 25.9608 3.85666 1.94642 0
M  V30 279 C 25.0958 4.26266 3.16972 0
M  V30 280 C 24.1348 5.43101 2.82326 0
M  V30 281 N 23.2718 5.78915 3.97243 0
M  V30 282 H 28.1118 2.93428 0.519997 0
M  V30 283 H 25.6488 1.45044 0.245087 0
M  V30 284 H 27.6068 2.89949 2.99976 0
M  V30 285 H 26.2368 1.80505 2.67615 0
M  V30 286 H 25.2888 3.64145 1.10013 0
M  V30 287 H 26.6008 4.70678 1.65117 0
M  V30 288 H 25.7548 4.55963 4.00228 0
M  V30 289 H 24.4938 3.39996 3.49648 0
M  V30 290 H 23.4988 5.1311 1.97479 0
M  V30 291 H 24.7238 6.3106 2.50879 0
M  V30 292 H 22.6698 4.95602 4.29785 0
M  V30 293 H 22.5868 6.58539 3.71299 0
M  V30 294 H 23.8548 6.13212 4.81239 0
M  V30 295 N 28.0839 -0.256276 1.55502 0
M  V30 296 C 29.3299 -0.987079 1.77157 0
M  V30 297 C 29.6629 -1.85327 0.580315 0
M  V30 298 O 28.9379 -1.89874 -0.421686 0
M  V30 299 C 29.2209 -1.85553 3.08613 0
M  V30 300 C 29.0739 -1.01816 4.38125 0
M  V30 301 C 30.3929 -2.8397 3.36228 0
M  V30 302 H 27.5119 -0.357428 0.644526 0
M  V30 303 H 30.1539 -0.258239 1.88237 0
M  V30 304 H 28.3039 -2.47695 2.99298 0
M  V30 305 H 29.9759 -0.416159 4.59419 0
M  V30 306 H 28.2189 -0.322178 4.32602 0
M  V30 307 H 28.8899 -1.65939 5.26468 0
M  V30 308 H 31.3659 -2.31964 3.45445 0
M  V30 309 H 30.2419 -3.41864 4.29442 0
M  V30 310 H 30.5029 -3.59955 2.56681 0
M  V30 311 N 29.562 -1.4872 -0.521534 0
M  V30 312 C 30.978 -1.35028 -0.850855 0
M  V30 313 C 31.178 -0.367712 -1.98116 0
M  V30 314 O 30.234 0.208037 -2.51642 0
M  V30 315 C 31.547 -2.75263 -1.21041 0
M  V30 316 C 33.095 -2.83813 -1.31981 0
M  V30 317 C 33.57 -4.24769 -1.71276 0
M  V30 318 N 35.061 -4.27482 -1.78363 0
M  V30 319 C 35.796 -5.33494 -2.1017 0
M  V30 320 N 35.292 -6.49775 -2.40343 0
M  V30 321 N 37.085 -5.20894 -2.11248 0
M  V30 322 H 29.236 -2.11214 0.22413 0
M  V30 323 H 31.499 -0.947252 0.0376439 0
M  V30 324 H 31.205 -3.48765 -0.453415 0
M  V30 325 H 31.079 -3.09327 -2.15863 0
M  V30 326 H 33.466 -2.10561 -2.06756 0
M  V30 327 H 33.547 -2.53358 -0.352596 0
M  V30 328 H 33.191 -4.9854 -0.970588 0
M  V30 329 H 33.121 -4.52673 -2.69062 0
M  V30 330 H 35.612 -3.43611 -1.57288 0
M  V30 331 H 35.925 -7.26402 -2.63743 0
M  V30 332 H 34.27 -6.53035 -2.37844 0
M  V30 333 H 37.461 -4.29065 -1.87139 0
M  V30 334 H 37.634 -6.03612 -2.35704 0
M  V30 335 N 31.0401 0.771051 -1.3745 0
M  V30 336 C 32.3171 1.519 -1.23231 0
M  V30 337 C 32.6971 2.10383 0.173809 0
M  V30 338 O 32.0451 1.95583 1.18151 0
M  V30 339 C 32.2551 2.59933 -2.32886 0
M  V30 340 C 33.6031 3.27316 -2.70461 0
M  V30 341 O 34.6271 2.70228 -2.32068 0
M  V30 342 O 33.4861 4.30531 -3.36608 0
M  V30 343 H 30.5801 0.672803 -0.480901 0
M  V30 344 H 33.1261 0.807957 -1.49232 0
M  V30 345 H 31.8981 2.14842 -3.27045 0
M  V30 346 H 31.5211 3.38637 -2.08353 0
M  V30 347 N 32.5182 1.22032 0.997298 0
M  V30 348 C 33.7672 1.03637 1.73038 0
M  V30 349 C 34.0802 -0.429475 1.90827 0
M  V30 350 O 35.2862 -0.732995 2.61418 0
M  V30 351 C 33.7422 1.80582 3.11317 0
M  V30 352 C 33.3502 3.31387 3.01474 0
M  V30 353 C 35.0942 1.70621 3.88701 0
M  V30 354 C 33.0012 4.00791 4.3488 0
M  V30 355 H 31.9312 0.384179 0.648785 0
M  V30 356 H 34.5822 1.4584 1.11368 0
M  V30 357 H 32.9642 1.31175 3.73643 0
M  V30 358 H 34.1382 3.88155 2.4834 0
M  V30 359 H 32.4532 3.41976 2.37575 0
M  V30 360 H 35.0502 2.19799 4.87434 0
M  V30 361 H 35.3932 0.665823 4.10941 0
M  V30 362 H 35.9262 2.17547 3.33044 0
M  V30 363 H 32.6652 5.05064 4.1784 0
M  V30 364 H 32.1852 3.48811 4.87945 0
M  V30 365 H 33.8642 4.06139 5.03647 0
M  V30 366 N 33.9963 -1.19345 1.0293 0
M  V30 367 C 34.9433 -2.2258 0.610464 0
M  V30 368 C 35.9133 -1.6179 -0.375946 0
M  V30 369 O 37.0983 -1.88844 -0.272511 0
M  V30 370 C 34.2383 -3.45085 -0.0321473 0
M  V30 371 C 33.3513 -4.20258 1.00035 0
M  V30 372 C 32.4863 -5.3019 0.32746 0
M  V30 373 C 31.5253 -5.97121 1.34584 0
M  V30 374 N 30.6623 -6.98615 0.698726 0
M  V30 375 H 35.5023 -2.57764 1.49538 0
M  V30 376 H 33.0393 -1.26644 0.748311 0
M  V30 377 H 34.9973 -4.15061 -0.421966 0
M  V30 378 H 33.6273 -3.10555 -0.88064 0
M  V30 379 H 32.6793 -3.49223 1.50823 0
M  V30 380 H 33.9913 -4.66175 1.77433 0
M  V30 381 H 33.1453 -6.06587 -0.11718 0
M  V30 382 H 31.8843 -4.85345 -0.478713 0
M  V30 383 H 30.8893 -5.19474 1.80074 0
M  V30 384 H 32.1143 -6.4405 2.15352 0
M  V30 385 H 30.0603 -6.55942 -0.0873471 0
M  V30 386 H 29.9773 -7.42724 1.41058 0
M  V30 387 H 31.2453 -7.79004 0.278102 0
M  V30 388 N 35.4744 -0.807222 -1.35358 0
M  V30 389 C 36.4224 -0.20614 -2.31685 0
M  V30 390 C 37.4164 0.644445 -1.56663 0
M  V30 391 O 38.6224 0.537538 -1.71786 0
M  V30 392 H 34.9974 -0.0479006 -0.750473 0
M  V30 393 H 36.9684 -1.03369 -2.79924 0
M  V30 394 C 35.7174 0.630212 -3.41941 0
M  V30 395 H 35.0404 -0.0149558 -3.99797 0
M  V30 396 H 36.4804 1.01716 -4.11619 0
M  V30 397 C 34.9394 1.79601 -2.85035 0
M  V30 398 O 35.4694 2.89351 -2.78637 0
M  V30 399 N 33.6754 1.60774 -2.42074 0
M  V30 400 H 33.2224 0.715009 -2.47478 0
M  V30 401 H 33.1804 2.38933 -2.04349 0
M  V30 402 N 36.9525 1.47285 -0.560781 0
M  V30 403 C 37.8995 2.30058 0.18491 0
M  V30 404 C 38.8695 1.39281 0.904986 0
M  V30 405 O 40.0545 1.68241 0.899979 0
M  V30 406 C 37.1945 3.23317 1.20666 0
M  V30 407 C 36.3075 4.29186 0.492285 0
M  V30 408 C 35.4425 5.09592 1.49964 0
M  V30 409 C 34.4815 6.07232 0.770439 0
M  V30 410 N 33.6185 6.80584 1.72479 0
M  V30 411 H 38.4585 2.93302 -0.527048 0
M  V30 412 H 35.9955 1.44568 -0.271738 0
M  V30 413 H 37.9535 3.75811 1.81168 0
M  V30 414 H 36.5835 2.61929 1.88661 0
M  V30 415 H 35.6355 3.7972 -0.227333 0
M  V30 416 H 36.9475 4.98738 -0.0787929 0
M  V30 417 H 36.1015 5.66254 2.17809 0
M  V30 418 H 34.8405 4.3995 2.10464 0
M  V30 419 H 33.8455 5.49745 0.0780846 0
M  V30 420 H 35.0705 6.78884 0.171134 0
M  V30 421 H 33.0165 6.1367 2.3183 0
M  V30 422 H 32.9335 7.46319 1.20596 0
M  V30 423 H 34.2015 7.41818 2.39428 0
M  V30 424 N 38.4306 0.297415 1.54768 0
M  V30 425 C 39.6776 -0.312913 2.00068 0
M  V30 426 C 40.0056 -1.54171 1.18582 0
M  V30 427 O 39.2606 -1.94108 0.249133 0
M  V30 428 C 39.5596 -0.717561 3.50123 0
M  V30 429 C 39.2256 0.409095 4.4904 0
M  V30 430 C 37.8876 0.718399 4.75807 0
M  V30 431 C 40.2396 1.16717 5.07963 0
M  V30 432 C 37.5676 1.78896 5.5876 0
M  V30 433 C 39.9196 2.22762 5.92081 0
M  V30 434 C 38.5836 2.54303 6.1716 0
M  V30 435 H 37.8536 -0.114503 0.7321 0
M  V30 436 H 40.5006 0.415767 1.86932 0
M  V30 437 H 38.8056 -1.52627 3.60849 0
M  V30 438 H 40.5026 -1.20091 3.82595 0
M  V30 439 H 37.0926 0.157918 4.28309 0
M  V30 440 H 41.2766 0.941466 4.87289 0
M  V30 441 H 36.5326 2.0381 5.7643 0
M  V30 442 H 40.7066 2.81962 6.36765 0
M  V30 443 H 38.3336 3.3739 6.81229 0
M  V30 444 N 39.9087 -1.5758 0.0250728 0
M  V30 445 C 40.8557 -2.09973 -0.958129 0
M  V30 446 C 41.8257 -1.00085 -1.3256 0
M  V30 447 O 43.0107 -1.27481 -1.41962 0
M  V30 448 C 40.1507 -2.62812 -2.2366 0
M  V30 449 C 39.2637 -3.86693 -1.92594 0
M  V30 450 C 38.3987 -4.27941 -3.14707 0
M  V30 451 C 37.4377 -5.44591 -2.79442 0
M  V30 452 N 36.5747 -5.81014 -3.94167 0
M  V30 453 H 41.4147 -2.937 -0.504428 0
M  V30 454 H 38.9517 -1.45172 -0.237392 0
M  V30 455 H 40.9097 -2.91536 -2.98434 0
M  V30 456 H 39.5397 -1.81922 -2.66654 0
M  V30 457 H 38.5917 -3.64723 -1.0808 0
M  V30 458 H 39.9037 -4.71547 -1.62619 0
M  V30 459 H 39.0577 -4.58079 -3.97804 0
M  V30 460 H 37.7967 -3.41845 -3.4784 0
M  V30 461 H 36.8017 -5.1415 -1.94755 0
M  V30 462 H 38.0267 -6.32382 -2.47528 0
M  V30 463 H 35.9727 -4.97874 -4.2715 0
M  V30 464 H 35.8897 -6.60498 -3.67801 0
M  V30 465 H 37.1577 -6.15756 -4.7798 0
M  V30 466 N 41.3868 0.248026 -1.55636 0
M  V30 467 C 42.3348 1.32683 -1.91045 0
M  V30 468 C 43.3288 1.49883 -0.789401 0
M  V30 469 O 44.5348 1.51371 -0.974007 0
M  V30 470 H 40.9098 0.444272 -0.606734 0
M  V30 471 H 42.8808 1.00085 -2.81115 0
M  V30 472 C 41.6298 2.6755 -2.22064 0
M  V30 473 H 40.9528 2.55114 -3.07826 0
M  V30 474 H 42.3928 3.41912 -2.50743 0
M  V30 475 C 40.8518 3.20556 -1.0366 0
M  V30 476 O 41.3818 4.00695 -0.284016 0
M  V30 477 N 39.5878 2.78568 -0.82753 0
M  V30 478 H 39.1348 2.1351 -1.44123 0
M  V30 479 H 39.0928 3.14378 -0.0369803 0
M  V30 480 N 42.8649 1.48995 0.513639 0
M  V30 481 C 43.7749 1.67443 1.64317 0
M  V30 482 C 44.7909 0.556947 1.64846 0
M  V30 483 O 45.9669 0.830082 1.83498 0
M  V30 484 C 43.0319 1.72515 3.00732 0
M  V30 485 C 42.0929 2.96009 3.1093 0
M  V30 486 C 41.3259 3.00829 4.40837 0
M  V30 487 O 41.5489 2.13594 5.28898 0
M  V30 488 O 40.4829 3.93168 4.55744 0
M  V30 489 H 44.3089 2.63106 1.51687 0
M  V30 490 H 41.8939 1.32588 0.688543 0
M  V30 491 H 43.7759 1.78277 3.81831 0
M  V30 492 H 42.4509 0.800278 3.13651 0
M  V30 493 H 41.3579 2.9577 2.29065 0
M  V30 494 H 42.6909 3.87934 3.02933 0
M  V30 495 N 44.343 -0.763751 1.37857 0
M  V30 496 C 45.62 -1.51244 1.24035 0
M  V30 497 C 46 -2.10472 -0.162649 0
M  V30 498 O 45.348 -1.96206 -1.17112 0
M  V30 499 C 45.558 -2.58694 2.34261 0
M  V30 500 C 46.906 -3.25878 2.72193 0
M  V30 501 O 47.93 -2.68993 2.33497 0
M  V30 502 O 46.789 -4.2874 3.38887 0
M  V30 503 H 43.883 -0.670243 0.484462 0
M  V30 504 H 46.429 -0.800031 1.49658 0
M  V30 505 H 45.201 -2.13105 3.2818 0
M  V30 506 H 44.824 -3.37527 2.10146 0
M  V30 507 N 45.8211 -1.22559 -0.990812 0
M  V30 508 C 46.7511 -1.0218 -2.09956 0
M  V30 509 C 47.7321 0.0579394 -1.70001 0
M  V30 510 O 48.9171 -0.104684 -1.93918 0
M  V30 511 C 46.0471 -0.601023 -3.4206 0
M  V30 512 C 45.0011 -1.62694 -3.95872 0
M  V30 513 C 44.3271 -1.06193 -5.24049 0
M  V30 514 C 45.6271 -3.01743 -4.2632 0
M  V30 515 H 47.3211 -1.94916 -2.27262 0
M  V30 516 H 44.8671 -0.938566 -1.09211 0
M  V30 517 H 46.8201 -0.445561 -4.19038 0
M  V30 518 H 45.5441 0.362005 -3.24588 0
M  V30 519 H 44.2031 -1.77021 -3.21028 0
M  V30 520 H 43.8511 -0.0901903 -5.02919 0
M  V30 521 H 43.5511 -1.74732 -5.61019 0
M  V30 522 H 45.0751 -0.918092 -6.03658 0
M  V30 523 H 46.4891 -2.90777 -4.94087 0
M  V30 524 H 44.8861 -3.67425 -4.74467 0
M  V30 525 H 45.9561 -3.51518 -3.34011 0
M  V30 526 N 47.2992 1.18797 -1.03562 0
M  V30 527 C 48.5272 1.92599 -0.755869 0
M  V30 528 C 48.9422 1.75886 0.686271 0
M  V30 529 O 48.2992 1.08517 1.46732 0
M  V30 530 C 48.3502 3.44159 -1.10619 0
M  V30 531 O 48.0712 3.60341 -2.4917 0
M  V30 532 C 49.5722 4.3507 -0.850214 0
M  V30 533 H 46.7922 0.611587 -0.276048 0
M  V30 534 H 49.3362 1.50742 -1.38192 0
M  V30 535 H 47.4912 3.83823 -0.525194 0
M  V30 536 H 47.9052 4.54128 -2.62427 0
M  V30 537 H 49.3792 5.39989 -1.14523 0
M  V30 538 H 49.8562 4.38673 0.215176 0
M  V30 539 H 50.4622 4.01097 -1.41426 0
M  V30 540 N 48.7773 0.814389 1.34928 0
M  V30 541 C 50.0543 0.321363 1.92942 0
M  V30 542 C 50.4343 -1.19014 1.74353 0
M  V30 543 O 49.7823 -1.99328 1.11716 0
M  V30 544 C 49.9923 0.741323 3.41036 0
M  V30 545 C 51.3403 0.735266 4.18185 0
M  V30 546 O 52.3643 0.68336 3.49584 0
M  V30 547 O 51.2233 0.800703 5.40602 0
M  V30 548 H 48.3173 0.0858893 0.822528 0
M  V30 549 H 50.8633 0.898609 1.43955 0
M  V30 550 H 49.6353 1.78276 3.4833 0
M  V30 551 H 49.2583 0.139307 3.97356 0
M  V30 552 N 50.2554 -1.46986 0.568584 0
M  V30 553 C 51.1654 -2.33942 -0.17555 0
M  V30 554 C 52.1814 -1.48891 -0.90041 0
M  V30 555 O 53.3574 -1.81794 -0.86676 0
M  V30 556 C 50.4224 -3.25811 -1.18524 0
M  V30 557 C 49.4834 -4.26757 -0.466582 0
M  V30 558 C 48.7164 -5.14236 -1.42817 0
M  V30 559 O 48.9394 -5.04379 -2.66379 0
M  V30 560 O 47.8734 -5.94412 -0.946453 0
M  V30 561 H 51.6994 -2.98896 0.538036 0
M  V30 562 H 49.2844 -1.4573 0.329097 0
M  V30 563 H 51.1664 -3.82527 -1.76779 0
M  V30 564 H 49.8414 -2.63471 -1.88055 0
M  V30 565 H 48.7484 -3.73769 0.157451 0
M  V30 566 H 50.0814 -4.91843 0.187485 0
M  V30 567 N 51.7335 -0.305618 -1.54608 0
M  V30 568 C 52.6635 0.561482 -2.26649 0
M  V30 569 C 53.6445 1.13415 -1.26772 0
M  V30 570 O 54.8295 1.16262 -1.55553 0
M  V30 571 C 51.9595 1.73122 -3.01075 0
M  V30 572 C 50.9135 1.2887 -4.08138 0
M  V30 573 C 50.2395 2.54396 -4.70305 0
M  V30 574 C 51.5395 0.416578 -5.20636 0
M  V30 575 H 53.2335 -0.0393902 -2.99374 0
M  V30 576 H 50.7795 -0.020385 -1.43986 0
M  V30 577 H 52.7325 2.34396 -3.50195 0
M  V30 578 H 51.4565 2.3584 -2.25936 0
M  V30 579 H 50.1155 0.698991 -3.59875 0
M  V30 580 H 49.7635 3.15439 -3.918 0
M  V30 581 H 49.4635 2.25486 -5.42614 0
M  V30 582 H 50.9875 3.16464 -5.2219 0
M  V30 583 H 52.4015 0.935116 -5.65622 0
M  V30 584 H 50.7985 0.221046 -5.99693 0
M  V30 585 H 51.8685 -0.557162 -4.81688 0
M  V30 586 N 53.2116 1.57565 -0.0334293 0
M  V30 587 C 54.4366 1.96689 0.657895 0
M  V30 588 C 54.8616 0.910057 1.64619 0
M  V30 589 O 54.2196 -0.128598 1.80843 0
M  V30 590 C 54.2676 3.34905 1.33683 0
M  V30 591 O 53.3716 3.31574 2.45219 0
M  V30 592 H 52.7126 0.641205 0.172489 0
M  V30 593 H 55.2426 2.04372 -0.0965621 0
M  V30 594 H 55.2526 3.71234 1.69262 0
M  V30 595 H 53.9276 4.11366 0.612411 0
M  V30 596 H 52.5046 3.06968 2.11719 0
M  V30 597 N 54.6897 -0.239769 1.55765 0
M  V30 598 C 55.6197 -1.30052 1.9393 0
M  V30 599 C 56.6007 -1.49839 0.805132 0
M  V30 600 O 57.7857 -1.62328 1.06599 0
M  V30 601 C 54.9157 -2.65391 2.2402 0
M  V30 602 C 53.8697 -2.60289 3.39755 0
M  V30 603 C 53.1957 -3.99489 3.55405 0
M  V30 604 C 54.4957 -2.16654 4.75246 0
M  V30 605 H 56.1897 -0.983573 2.82783 0
M  V30 606 H 53.7357 -0.471701 1.36055 0
M  V30 607 H 55.6887 -3.3974 2.49308 0
M  V30 608 H 54.4127 -2.98736 1.32 0
M  V30 609 H 53.0717 -1.88398 3.14487 0
M  V30 610 H 52.7197 -4.30112 2.60793 0
M  V30 611 H 52.4197 -3.96962 4.33238 0
M  V30 612 H 53.9437 -4.75528 3.83022 0
M  V30 613 H 55.3577 -2.80737 4.99859 0
M  V30 614 H 53.7547 -2.25223 5.56232 0
M  V30 615 H 54.8247 -1.11835 4.71827 0
M  V30 616 N 56.1678 -1.49265 -0.50573 0
M  V30 617 C 57.1158 -1.66065 -1.62866 0
M  V30 618 C 58.1098 -0.526636 -1.61006 0
M  V30 619 O 59.3158 -0.706126 -1.65571 0
M  V30 620 H 55.6908 -0.52356 -0.539805 0
M  V30 621 H 57.6618 -2.60329 -1.45848 0
M  V30 622 C 56.4108 -1.74008 -3.01026 0
M  V30 623 H 55.7338 -2.6064 -3.03161 0
M  V30 624 H 57.1738 -1.89798 -3.79147 0
M  V30 625 C 55.6328 -0.483868 -3.33407 0
M  V30 626 O 56.1628 0.392548 -3.99777 0
M  V30 627 N 54.3688 -0.348236 -2.88506 0
M  V30 628 H 53.9158 -1.06242 -2.34671 0
M  V30 629 H 53.8738 0.491204 -3.10539 0
M  V30 630 N 57.6459 0.756429 -1.3826 0
M  V30 631 C 58.5929 1.87011 -1.35261 0
M  V30 632 C 59.5629 1.64695 -0.215616 0
M  V30 633 O 60.7479 1.864 -0.407399 0
M  V30 634 C 57.8879 3.24275 -1.18068 0
M  V30 635 C 57.0009 3.58442 -2.41129 0
M  V30 636 C 56.1359 4.84994 -2.16689 0
M  V30 637 C 55.1749 5.11939 -3.35537 0
M  V30 638 N 54.3119 6.29685 -3.10549 0
M  V30 639 H 59.1519 1.8891 -2.30472 0
M  V30 640 H 56.6889 0.923373 -1.14509 0
M  V30 641 H 58.6469 4.03479 -1.06116 0
M  V30 642 H 57.2769 3.21711 -0.264973 0
M  V30 643 H 56.3289 2.74103 -2.63764 0
M  V30 644 H 57.6409 3.74283 -3.29717 0
M  V30 645 H 56.7949 5.72135 -2.01857 0
M  V30 646 H 55.5339 4.71286 -1.25462 0
M  V30 647 H 54.5389 4.23268 -3.50891 0
M  V30 648 H 55.7639 5.27546 -4.27635 0
M  V30 649 H 53.7099 6.17306 -2.21967 0
M  V30 650 H 53.6269 6.46014 -3.92686 0
M  V30 651 H 54.8949 7.19722 -2.99367 0
M  V30 652 N 59.124 1.23083 0.984299 0
M  V30 653 C 60.373 1.05466 1.71929 0
M  V30 654 C 60.686 -0.409211 1.91272 0
M  V30 655 O 61.892 -0.705226 2.62181 0
M  V30 656 C 60.348 1.83874 3.09384 0
M  V30 657 C 59.956 3.34566 2.97943 0
M  V30 658 C 61.7 1.74734 3.8687 0
M  V30 659 C 59.607 4.05381 4.30605 0
M  V30 660 H 58.537 0.391039 0.644674 0
M  V30 661 H 61.188 1.47013 1.09815 0
M  V30 662 H 59.57 1.35131 3.72231 0
M  V30 663 H 60.744 3.90767 2.44209 0
M  V30 664 H 59.059 3.44476 2.33934 0
M  V30 665 H 61.656 2.24957 4.85076 0
M  V30 666 H 61.999 0.709372 4.10212 0
M  V30 667 H 62.532 2.21067 3.30717 0
M  V30 668 H 59.271 5.09467 4.1246 0
M  V30 669 H 58.791 3.53967 4.84218 0
M  V30 670 H 60.47 4.11458 4.99311 0
M  V30 671 N 60.6021 -1.18246 1.0419 0
M  V30 672 C 61.8271 -1.92736 0.765996 0
M  V30 673 C 62.2521 -1.75728 -0.67091 0
M  V30 674 O 61.6101 -1.06825 -1.46486 0
M  V30 675 C 61.6581 -3.42148 1.13875 0
M  V30 676 O 60.7621 -4.11548 0.264954 0
M  V30 677 H 60.1031 -0.601238 0.281797 0
M  V30 678 H 62.6331 -1.49942 1.39207 0
M  V30 679 H 62.6431 -3.92858 1.1012 0
M  V30 680 H 61.3181 -3.53848 2.18551 0
M  V30 681 H 59.8951 -3.71137 0.362226 0
M  V30 682 N 62.0802 -0.821533 -1.34494 0
M  V30 683 C 63.0432 -0.247847 -2.27856 0
M  V30 684 C 64.0432 0.573453 -1.50227 0
M  V30 685 O 65.2332 0.389759 -1.69784 0
M  V30 686 C 62.3652 0.652698 -3.34593 0
M  V30 687 H 63.5582 -1.07146 -2.80107 0
M  V30 688 H 61.1112 -0.593291 -1.44602 0
M  V30 689 H 61.8462 1.49943 -2.87555 0
M  V30 690 H 61.6312 0.065292 -3.92046 0
M  V30 691 H 63.1212 1.04793 -4.04238 0
M  V30 692 N 63.5583 1.46682 -0.576371 0
M  V30 693 C 64.8353 1.95599 0.00703437 0
M  V30 694 C 65.2153 1.51904 1.46589 0
M  V30 695 O 64.5633 0.766755 2.15251 0
M  V30 696 C 64.7733 3.4864 -0.158404 0
M  V30 697 C 66.1213 4.24594 -0.0229439 0
M  V30 698 O 67.1453 3.56094 -0.0869173 0
M  V30 699 O 66.0043 5.46373 0.118015 0
M  V30 700 H 63.0983 0.825275 0.053384 0
M  V30 701 H 65.6443 1.56996 -0.644244 0
M  V30 702 H 64.4163 3.7331 -1.17282 0
M  V30 703 H 64.0393 3.94057 0.5296 0
M  V30 704 N 65.0364 0.313813 1.54444 0
M  V30 705 C 66.2644 -0.293918 2.04802 0
M  V30 706 C 66.6794 -1.46537 1.19047 0
M  V30 707 O 66.0364 -1.81182 0.218939 0
M  V30 708 C 66.0874 -0.737806 3.53891 0
M  V30 709 O 65.8084 0.387038 4.36387 0
M  V30 710 C 67.3094 -1.40936 4.203 0
M  V30 711 H 64.5294 -0.0620057 0.668129 0
M  V30 712 H 67.0734 0.457169 1.99324 0
M  V30 713 H 65.2284 -1.43889 3.59687 0
M  V30 714 H 65.6424 0.0391274 5.24485 0
M  V30 715 H 67.1164 -1.67099 5.26101 0
M  V30 716 H 67.5934 -2.35355 3.70816 0
M  V30 717 H 68.1994 -0.751117 4.18615 0
M  V30 718 N 66.5145 -1.57545 0.0417849 0
M  V30 719 C 67.7425 -1.96624 -0.643928 0
M  V30 720 C 68.1575 -0.918897 -1.64929 0
M  V30 721 O 67.5145 0.0979323 -1.82237 0
M  V30 722 C 67.5655 -3.35781 -1.33914 0
M  V30 723 O 67.2865 -4.365 -0.374048 0
M  V30 724 C 68.7875 -3.89566 -2.1155 0
M  V30 725 H 66.0075 -0.647316 -0.176702 0
M  V30 726 H 68.5515 -2.04229 0.105304 0
M  V30 727 H 66.7065 -3.29357 -2.03968 0
M  V30 728 H 67.1205 -5.17248 -0.869179 0
M  V30 729 H 68.5945 -4.89242 -2.55628 0
M  V30 730 H 69.0715 -3.24488 -2.9598 0
M  V30 731 H 69.6775 -3.99298 -1.46427 0
M  V30 732 N 67.9926 0.231505 -1.5589 0
M  V30 733 C 69.2696 0.981096 -1.69215 0
M  V30 734 C 69.6496 2.02799 -0.586164 0
M  V30 735 O 68.9976 2.24823 0.408253 0
M  V30 736 C 69.2076 1.60054 -3.10135 0
M  V30 737 C 70.5556 2.09658 -3.69227 0
M  V30 738 O 71.5796 1.69967 -3.13033 0
M  V30 739 O 70.4386 2.8258 -4.67772 0
M  V30 740 H 67.5326 0.457653 -0.688827 0
M  V30 741 H 70.0786 0.224073 -1.68214 0
M  V30 742 H 68.8506 0.844105 -3.82087 0
M  V30 743 H 68.4736 2.42336 -3.15212 0
M  V30 744 N 69.4707 1.49531 0.497807 0
M  V30 745 C 70.4187 1.66926 1.61983 0
M  V30 746 C 71.4127 0.535167 1.60724 0
M  V30 747 O 72.6187 0.714896 1.65195 0
M  V30 748 H 68.9937 0.526415 0.537021 0
M  V30 749 H 70.9647 2.61098 1.44465 0
M  V30 750 C 69.7137 1.75602 3.00099 0
M  V30 751 H 69.0367 2.62244 3.01775 0
M  V30 752 H 70.4767 1.91807 3.78135 0
M  V30 753 C 68.9357 0.501543 3.33146 0
M  V30 754 O 69.4657 -0.371342 3.9998 0
M  V30 755 N 67.6717 0.363531 2.88317 0
M  V30 756 H 67.2187 1.07485 2.34104 0
M  V30 757 H 67.1767 -0.474728 3.10795 0
M  V30 758 N 70.9488 -0.749086 1.3866 0
M  V30 759 C 72.1738 -1.54344 1.38538 0
M  V30 760 C 72.5988 -1.88088 -0.0216655 0
M  V30 761 O 71.9568 -1.50899 -1.00494 0
M  V30 762 C 72.0048 -2.8164 2.25192 0
M  V30 763 O 71.1088 -3.7698 1.67212 0
M  V30 764 H 70.4498 -0.466654 0.472367 0
M  V30 765 H 72.9798 -0.925355 1.82478 0
M  V30 766 H 72.9898 -3.30519 2.3921 0
M  V30 767 H 71.6648 -2.56411 3.27454 0
M  V30 768 H 70.2418 -3.35699 1.6236 0
M  V30 769 N 72.4269 -1.23603 -0.977757 0
M  V30 770 C 73.6749 -1.06759 -1.71601 0
M  V30 771 C 73.9959 0.395929 -1.90938 0
M  V30 772 O 73.2659 1.28356 -1.47992 0
M  V30 773 H 71.8459 -0.392062 -0.635843 0
M  V30 774 H 74.5079 -1.55362 -1.1768 0
M  V30 775 H 73.6039 -1.55763 -2.70452 0
M  V30 776 N 73.905 1.17692 -1.04816 0
M  V30 777 C 75.133 1.91786 -0.776254 0
M  V30 778 C 75.548 1.76604 0.667577 0
M  V30 779 O 74.905 1.10067 1.45573 0
M  V30 780 C 74.956 3.42967 -1.14263 0
M  V30 781 O 74.677 3.57678 -2.52978 0
M  V30 782 C 76.178 4.34144 -0.896311 0
M  V30 783 H 73.398 0.608624 -0.282519 0
M  V30 784 H 75.942 1.49268 -1.39783 0
M  V30 785 H 74.097 3.83245 -0.565874 0
M  V30 786 H 74.511 4.51319 -2.67229 0
M  V30 787 H 75.985 5.38744 -1.20244 0
M  V30 788 H 76.462 4.38876 0.168636 0
M  V30 789 H 77.068 3.99574 -1.45672 0
M  V30 790 N 75.3831 0.828654 1.34056 0
M  V30 791 C 76.6291 0.42008 1.98402 0
M  V30 792 C 76.9621 -1.01564 1.65525 0
M  V30 793 O 76.2371 -1.70834 0.929831 0
M  V30 794 C 76.5201 0.62927 3.54559 0
M  V30 795 C 76.3731 2.11152 3.97159 0
M  V30 796 C 77.6921 0.0688756 4.40046 0
M  V30 797 H 74.8111 0.154104 0.720709 0
M  V30 798 H 77.4531 1.04228 1.5886 0
M  V30 799 H 75.6031 0.0996418 3.88372 0
M  V30 800 H 77.2751 2.70522 3.73651 0
M  V30 801 H 75.5181 2.59985 3.47261 0
M  V30 802 H 76.1891 2.20868 5.05887 0
M  V30 803 H 78.6651 0.521458 4.1282 0
M  V30 804 H 77.5411 0.245006 5.48353 0
M  V30 805 H 77.8021 -1.0266 4.30015 0
M  V30 806 N 76.8612 -1.46375 0.584142 0
M  V30 807 C 77.8092 -2.32042 -0.161047 0
M  V30 808 C 78.8032 -1.44569 -0.882966 0
M  V30 809 O 80.0092 -1.61186 -0.801191 0
M  V30 810 H 76.3842 -0.748659 -0.0708033 0
M  V30 811 H 78.3552 -2.92704 0.580269 0
M  V30 812 C 77.1042 -3.27762 -1.1605 0
M  V30 813 H 76.4272 -3.95051 -0.614419 0
M  V30 814 H 77.8672 -3.90481 -1.65228 0
M  V30 815 C 76.3262 -2.53218 -2.22221 0
M  V30 816 O 76.8562 -2.29628 -3.29597 0
M  V30 817 N 75.0622 -2.13756 -1.96868 0
M  V30 818 H 74.6092 -2.33142 -1.09557 0
M  V30 819 H 74.5672 -1.642 -2.68115 0
M  V30 820 N 78.3393 -0.321999 -1.54275 0
M  V30 821 C 79.2713 0.578671 -2.21775 0
M  V30 822 C 80.2843 1.08109 -1.21722 0
M  V30 823 O 81.4733 0.994938 -1.482 0
M  V30 824 C 78.5733 1.80661 -2.86731 0
M  V30 825 C 77.7463 1.44314 -4.12907 0
M  V30 826 C 76.8053 2.52845 -4.61472 0
M  V30 827 O 75.8313 2.17054 -5.2619 0
M  V30 828 N 77.0333 3.83748 -4.35566 0
M  V30 829 H 79.7983 0.000709447 -2.997 0
M  V30 830 H 77.3593 -0.145132 -1.61248 0
M  V30 831 H 79.3513 2.52655 -3.16145 0
M  V30 832 H 77.9213 2.29245 -2.12521 0
M  V30 833 H 77.1413 0.554906 -3.90275 0
M  V30 834 H 78.4293 1.17598 -4.95023 0
M  V30 835 H 77.8273 4.15625 -3.83761 0
M  V30 836 H 76.3843 4.51977 -4.69638 0
M  V30 837 N 79.8174 1.5752 -0.0501392 0
M  V30 838 C 81.0664 1.91827 0.623328 0
M  V30 839 C 81.3794 0.930222 1.72065 0
M  V30 840 O 82.5854 1.1653 2.4522 0
M  V30 841 C 81.0414 3.40692 1.16003 0
M  V30 842 C 80.6494 4.479 0.0948811 0
M  V30 843 C 82.3934 3.84034 1.80881 0
M  V30 844 C 80.3004 5.87879 0.644411 0
M  V30 845 H 79.2304 0.715918 0.236596 0
M  V30 846 H 81.8814 1.83115 -0.118861 0
M  V30 847 H 80.2634 3.44405 1.9545 0
M  V30 848 H 81.4374 4.55775 -0.678675 0
M  V30 849 H 79.7524 4.13892 -0.45637 0
M  V30 850 H 82.3494 4.85984 2.22988 0
M  V30 851 H 82.6924 3.20225 2.6601 0
M  V30 852 H 83.2254 3.82833 1.0809 0
M  V30 853 H 79.9644 6.55282 -0.169229 0
M  V30 854 H 79.4844 5.83567 1.38598 0
M  V30 855 H 81.1634 6.37098 1.12763 0
M  V30 856 N 81.2955 -0.223234 1.56011 0
M  V30 857 C 82.2285 -1.30377 1.87289 0
M  V30 858 C 83.2065 -1.45286 0.730112 0
M  V30 859 O 84.3905 -1.61126 0.978302 0
M  V30 860 C 81.5175 -2.67431 2.07843 0
M  V30 861 C 80.5635 -2.69546 3.30526 0
M  V30 862 S 81.3965 -2.23781 4.865 0
M  V30 863 C 82.5525 -3.62714 5.10088 0
M  V30 864 H 82.7855 -1.03652 2.78646 0
M  V30 865 H 80.3185 -0.425393 1.48424 0
M  V30 866 H 82.2765 -3.46336 2.20368 0
M  V30 867 H 80.9375 -2.91381 1.17285 0
M  V30 868 H 80.1305 -3.70255 3.41947 0
M  V30 869 H 79.7325 -1.98703 3.16849 0
M  V30 870 H 82.0245 -4.58391 4.98883 0
M  V30 871 H 82.9675 -3.5621 6.11981 0
M  V30 872 H 83.3755 -3.56323 4.37829 0
M  V30 873 N 82.7736 -1.49793 -0.48987 0
M  V30 874 C 83.7066 -1.61898 -1.60823 0
M  V30 875 C 84.6846 -0.467651 -1.5573 0
M  V30 876 O 85.8686 -0.684682 -1.75626 0
M  V30 877 C 82.9956 -1.58422 -2.99366 0
M  V30 878 C 82.0416 -2.78889 -3.22682 0
M  V30 879 S 82.8746 -4.40429 -3.04602 0
M  V30 880 C 84.0306 -4.39617 -4.4552 0
M  V30 881 H 84.2636 -2.56502 -1.50312 0
M  V30 882 H 81.7966 -1.38822 -0.675849 0
M  V30 883 H 83.7546 -1.57103 -3.79248 0
M  V30 884 H 82.4156 -0.650866 -3.07283 0
M  V30 885 H 81.6086 -2.72708 -4.23847 0
M  V30 886 H 81.2106 -2.77678 -2.50541 0
M  V30 887 H 83.5026 -4.12022 -5.37814 0
M  V30 888 H 84.4456 -5.41097 -4.56749 0
M  V30 889 H 84.8536 -3.69554 -4.2672 0
M  V30 890 N 84.2517 0.741722 -1.39055 0
M  V30 891 C 85.1847 1.86416 -1.31622 0
M  V30 892 C 86.1627 1.61473 -0.191076 0
M  V30 893 O 87.3467 1.84825 -0.370399 0
M  V30 894 C 84.4737 3.22266 -1.04221 0
M  V30 895 C 83.5197 3.66079 -2.18834 0
M  V30 896 S 84.3527 3.7623 -3.81066 0
M  V30 897 C 85.5087 5.14881 -3.55877 0
M  V30 898 H 85.7417 1.92437 -2.26617 0
M  V30 899 H 83.2747 0.905907 -1.25031 0
M  V30 900 H 85.2327 4.00714 -0.890964 0
M  V30 901 H 83.8937 3.1391 -0.109237 0
M  V30 902 H 83.0867 4.64648 -1.95238 0
M  V30 903 H 82.6887 2.94817 -2.30128 0
M  V30 904 H 84.9807 6.01006 -3.12726 0
M  V30 905 H 85.9237 5.43503 -4.53884 0
M  V30 906 H 86.3317 4.84239 -2.90126 0
M  V30 907 N 85.7298 1.2412 0.971189 0
M  V30 908 C 86.6928 1.03156 2.04674 0
M  V30 909 C 87.6928 -0.00990322 1.60797 0
M  V30 910 O 88.8828 0.230729 1.72665 0
M  V30 911 C 86.0148 0.562765 3.36223 0
M  V30 912 H 87.2078 1.98614 2.24705 0
M  V30 913 H 84.7608 1.06293 1.14593 0
M  V30 914 H 85.4958 -0.395176 3.21883 0
M  V30 915 H 85.2808 1.31441 3.69413 0
M  V30 916 H 86.7708 0.437015 4.15307 0
M  V30 917 N 87.2079 -1.17134 1.05439 0
M  V30 918 C 88.1559 -2.23289 0.651511 0
M  V30 919 C 89.1499 -1.66186 -0.328411 0
M  V30 920 O 90.3559 -1.78949 -0.194206 0
M  V30 921 H 86.7309 -0.726938 0.192523 0
M  V30 922 H 88.7019 -2.54565 1.55689 0
M  V30 923 C 87.4509 -3.47671 0.0448436 0
M  V30 924 H 86.7739 -3.91918 0.78996 0
M  V30 925 H 88.2139 -4.2353 -0.19964 0
M  V30 926 C 86.6729 -3.14453 -1.20918 0
M  V30 927 O 87.2029 -3.29459 -2.29825 0
M  V30 928 N 85.4089 -2.68657 -1.10779 0
M  V30 929 H 84.9559 -2.56646 -0.221526 0
M  V30 930 H 84.9139 -2.46804 -1.9477 0
M  V30 931 N 88.686 -0.835752 -1.33615 0
M  V30 932 C 89.634 -0.255238 -2.31195 0
M  V30 933 C 90.628 0.61107 -1.57995 0
M  V30 934 O 91.834 0.500979 -1.72888 0
M  V30 935 H 88.209 -0.0638085 -0.749288 0
M  V30 936 H 90.18 -1.09283 -2.77669 0
M  V30 937 C 88.929 0.55754 -3.43201 0
M  V30 938 H 88.252 -0.0997553 -3.99676 0
M  V30 939 H 89.692 0.929622 -4.13683 0
M  V30 940 C 88.151 1.73515 -2.88781 0
M  V30 941 O 88.681 2.83376 -2.84712 0
M  V30 942 N 86.887 1.55603 -2.4543 0
M  V30 943 H 86.434 0.662354 -2.48939 0
M  V30 944 H 86.392 2.34545 -2.09371 0
M  V30 945 N 90.1641 1.46063 -0.591896 0
M  V30 946 C 91.5751 1.85944 -0.167822 0
M  V30 947 C 91.9261 1.49429 1.27143 0
M  V30 948 O 91.0511 0.913515 1.96173 0
M  V30 949 C 91.6461 3.37489 -0.297794 0
M  V30 950 C 90.2051 3.76332 0.0714732 0
M  V30 951 C 89.3521 2.7006 -0.629509 0
M  V30 952 H 92.3031 1.37087 -0.799555 0
M  V30 953 H 92.3241 3.77532 0.474349 0
M  V30 954 H 91.8361 3.64034 -1.3454 0
M  V30 955 H 89.9371 3.55405 1.11886 0
M  V30 956 H 90.0501 4.78088 -0.311245 0
M  V30 957 H 88.4141 2.54607 -0.0687867 0
M  V30 958 H 89.1971 2.99444 -1.67894 0
M  V30 959 N 91.6422 0.330177 1.54103 0
M  V30 960 C 92.5522 -0.541534 2.28264 0
M  V30 961 C 93.5682 -1.12351 1.32866 0
M  V30 962 O 94.7442 -1.14206 1.65888 0
M  V30 963 C 91.8092 -1.68322 3.03098 0
M  V30 964 C 90.8702 -1.13238 4.14096 0
M  V30 965 C 90.1032 -2.21966 4.85352 0
M  V30 966 O 90.3262 -3.42437 4.56172 0
M  V30 967 O 89.2602 -1.87013 5.7211 0
M  V30 968 H 93.0862 0.060938 3.03639 0
M  V30 969 H 90.6712 0.09565 1.49093 0
M  V30 970 H 92.5532 -2.34777 3.49939 0
M  V30 971 H 91.2282 -2.27176 2.30593 0
M  V30 972 H 90.1352 -0.432736 3.71589 0
M  V30 973 H 91.4682 -0.588898 4.88664 0
M  V30 974 N 93.1203 -1.57491 0.0584922 0
M  V30 975 C 94.3973 -1.84346 -0.653918 0
M  V30 976 C 94.7773 -0.948355 -1.88599 0
M  V30 977 O 94.1253 -0.0112403 -2.28497 0
M  V30 978 C 94.3353 -3.34239 -1.00425 0
M  V30 979 C 95.6833 -4.01431 -1.38342 0
M  V30 980 O 96.7073 -3.38907 -1.09637 0
M  V30 981 O 95.5663 -5.11683 -1.91943 0
M  V30 982 H 92.6603 -0.761112 -0.323478 0
M  V30 983 H 95.2063 -1.6947 0.0884125 0
M  V30 984 H 93.9783 -3.91089 -0.128625 0
M  V30 985 H 93.6013 -3.54329 -1.80378 0
M  V30 986 N 94.5984 0.214957 -1.56127 0
M  V30 987 C 95.8444 0.935325 -1.80619 0
M  V30 988 C 96.1994 1.81706 -0.632507 0
M  V30 989 O 95.4924 1.87931 0.373182 0
M  V30 990 C 95.6864 1.80314 -3.0858 0
M  V30 991 C 95.5154 1.00691 -4.38282 0
M  V30 992 C 94.2854 0.699211 -5.00439 0
M  V30 993 C 96.4834 0.369057 -5.12974 0
M  V30 994 N 94.4654 -0.117734 -6.13787 0
M  V30 995 C 95.8364 -0.310981 -6.1922 0
M  V30 996 C 97.8914 0.282759 -4.97096 0
M  V30 997 C 96.5944 -1.06907 -7.11311 0
M  V30 998 C 98.6204 -0.461881 -5.89594 0
M  V30 999 C 97.9824 -1.13044 -6.9527 0
M  V30 1000 H 94.0814 0.322307 -0.71249 0
M  V30 1001 H 96.6654 0.205649 -1.93611 0
M  V30 1002 H 94.8364 2.50458 -2.96859 0
M  V30 1003 H 96.5684 2.46148 -3.21237 0
M  V30 1004 H 93.3234 1.01884 -4.62511 0
M  V30 1005 H 93.7474 -0.515235 -6.75037 0
M  V30 1006 H 98.3894 0.785292 -4.15443 0
M  V30 1007 H 96.1074 -1.5831 -7.92442 0
M  V30 1008 H 99.6934 -0.529746 -5.79383 0
M  V30 1009 H 98.5734 -1.69742 -7.65609 0
M  V30 1010 N 96.0765 1.50051 0.48192 0
M  V30 1011 C 97.0065 1.71046 1.58951 0
M  V30 1012 C 97.9875 0.559288 1.60642 0
M  V30 1013 O 99.1725 0.797243 1.77081 0
M  V30 1014 C 96.3025 1.79462 2.97339 0
M  V30 1015 C 95.2565 2.94558 3.10515 0
M  V30 1016 C 94.5825 2.88105 4.50444 0
M  V30 1017 C 95.8825 4.35227 2.88747 0
M  V30 1018 H 97.5765 2.6378 1.41635 0
M  V30 1019 H 95.1225 1.26936 0.679942 0
M  V30 1020 H 97.0755 1.92734 3.74742 0
M  V30 1021 H 95.7995 0.833412 3.15788 0
M  V30 1022 H 94.4585 2.80918 2.35543 0
M  V30 1023 H 94.1065 1.89853 4.65795 0
M  V30 1024 H 93.8065 3.65366 4.60197 0
M  V30 1025 H 95.3305 3.03412 5.29881 0
M  V30 1026 H 96.7445 4.49449 3.55905 0
M  V30 1027 H 95.1415 5.13856 3.09955 0
M  V30 1028 H 96.2115 4.48347 1.84696 0
M  V30 1029 N 97.5546 -0.734337 1.39446 0
M  V30 1030 C 98.7796 -1.52866 1.40167 0
M  V30 1031 C 99.2046 -1.881 -0.00171513 0
M  V30 1032 O 98.5626 -1.51957 -0.988879 0
M  V30 1033 C 98.6106 -2.79235 2.28167 0
M  V30 1034 O 97.7146 -3.75185 1.71201 0
M  V30 1035 H 97.0556 -0.461618 0.477289 0
M  V30 1036 H 99.5856 -0.905949 1.8345 0
M  V30 1037 H 99.5956 -3.27963 2.42702 0
M  V30 1038 H 98.2706 -2.52923 3.30156 0
M  V30 1039 H 96.8476 -3.33958 1.65912 0
M  V30 1040 N 99.0327 -1.24633 -0.964593 0
M  V30 1041 C 99.9627 -1.06611 -2.07741 0
M  V30 1042 C 100.944 0.0218666 -1.70086 0
M  V30 1043 O 102.129 -0.145793 -1.93652 0
M  V30 1044 C 99.2587 -0.673444 -3.40708 0
M  V30 1045 C 98.2127 -1.71054 -3.92332 0
M  V30 1046 C 97.5387 -1.17285 -5.21678 0
M  V30 1047 C 98.8387 -3.10718 -4.19824 0
M  V30 1048 H 100.533 -1.99693 -2.23076 0
M  V30 1049 H 98.0787 -0.96152 -1.07195 0
M  V30 1050 H 100.032 -0.534345 -4.17998 0
M  V30 1051 H 98.7557 0.293073 -3.25282 0
M  V30 1052 H 97.4147 -1.83791 -3.17201 0
M  V30 1053 H 97.0627 -0.196847 -5.02615 0
M  V30 1054 H 96.7627 -1.86592 -5.57187 0
M  V30 1055 H 98.2867 -1.04593 -6.01575 0
M  V30 1056 H 99.7007 -3.01192 -4.87808 0
M  V30 1057 H 98.0977 -3.77406 -4.66567 0
M  V30 1058 H 99.1677 -3.58524 -3.26479 0
M  V30 1059 N 100.511 1.16574 -1.06058 0
M  V30 1060 C 101.441 2.23057 -0.690488 0
M  V30 1061 C 102.422 1.67141 0.315901 0
M  V30 1062 O 103.607 1.93253 0.191556 0
M  V30 1063 C 100.737 3.47222 -0.073625 0
M  V30 1064 C 99.6908 4.16016 -1.00573 0
M  V30 1065 C 99.0168 5.34104 -0.252289 0
M  V30 1066 C 100.317 4.67264 -2.33371 0
M  V30 1067 H 102.011 2.54271 -1.58072 0
M  V30 1068 H 99.5568 1.22218 -0.76149 0
M  V30 1069 H 101.51 4.20939 0.19714 0
M  V30 1070 H 100.234 3.15302 0.85161 0
M  V30 1071 H 98.8928 3.44223 -1.2612 0
M  V30 1072 H 98.5408 4.98437 0.675988 0
M  V30 1073 H 98.2408 5.81072 -0.873455 0
M  V30 1074 H 99.7648 6.10599 0.0109857 0
M  V30 1075 H 101.179 5.32573 -2.12223 0
M  V30 1076 H 99.5758 5.24843 -2.90963 0
M  V30 1077 H 100.646 3.83602 -2.96611 0
M  V30 1078 N 101.989 0.842826 1.3317 0
M  V30 1079 C 102.919 0.294028 2.31641 0
M  V30 1080 C 103.9 -0.600401 1.59151 0
M  V30 1081 O 105.085 -0.523124 1.87022 0
M  V30 1082 C 102.215 -0.528416 3.43257 0
M  V30 1083 C 101.169 0.27056 4.27144 0
M  V30 1084 C 100.495 -0.675881 5.30411 0
M  V30 1085 C 101.795 1.48981 5.00602 0
M  V30 1086 H 103.489 1.11681 2.77791 0
M  V30 1087 H 101.035 0.538478 1.33553 0
M  V30 1088 H 102.988 -0.922674 4.11175 0
M  V30 1089 H 101.712 -1.38445 2.95805 0
M  V30 1090 H 100.371 0.646427 3.60856 0
M  V30 1091 H 100.019 -1.52842 4.79216 0
M  V30 1092 H 99.7189 -0.145374 5.8742 0
M  V30 1093 H 101.243 -1.06757 6.01195 0
M  V30 1094 H 102.657 1.16849 5.61266 0
M  V30 1095 H 101.054 1.95739 5.6728 0
M  V30 1096 H 102.124 2.25746 4.29147 0
M  V30 1097 N 103.467 -1.45747 0.599634 0
M  V30 1098 C 104.414 -2.30467 -0.123849 0
M  V30 1099 C 105.384 -1.41632 -0.86774 0
M  V30 1100 O 106.569 -1.70568 -0.855056 0
M  V30 1101 C 103.709 -3.26402 -1.12051 0
M  V30 1102 C 102.822 -4.3034 -0.37832 0
M  V30 1103 C 101.957 -5.13389 -1.364 0
M  V30 1104 C 100.996 -6.09061 -0.609171 0
M  V30 1105 N 100.133 -6.84918 -1.54374 0
M  V30 1106 H 104.973 -2.91802 0.604627 0
M  V30 1107 H 102.51 -1.43797 0.309972 0
M  V30 1108 H 104.468 -3.80482 -1.7114 0
M  V30 1109 H 103.098 -2.66839 -1.8165 0
M  V30 1110 H 102.15 -3.78984 0.327929 0
M  V30 1111 H 103.462 -4.98354 0.210997 0
M  V30 1112 H 102.616 -5.7183 -2.02719 0
M  V30 1113 H 101.355 -4.45376 -1.98725 0
M  V30 1114 H 100.36 -5.49758 0.0676979 0
M  V30 1115 H 101.585 -6.79099 0.00891991 0
M  V30 1116 H 99.531 -6.19601 -2.15478 0
M  V30 1117 H 99.448 -7.49254 -1.00766 0
M  V30 1118 H 100.716 -7.47906 -2.19676 0
M  V30 1119 N 104.945 -0.338344 -1.53925 0
M  V30 1120 C 105.875 0.51328 -2.27789 0
M  V30 1121 C 106.856 1.107 -1.29149 0
M  V30 1122 O 108.041 1.12937 -1.57984 0
M  V30 1123 C 105.171 1.66697 -3.04679 0
M  V30 1124 C 104.125 1.20183 -4.1078 0
M  V30 1125 C 103.451 2.44363 -4.75595 0
M  V30 1126 C 104.751 0.30605 -5.21403 0
M  V30 1127 H 106.445 -0.102883 -2.99223 0
M  V30 1128 H 103.991 -0.0509219 -1.4391 0
M  V30 1129 H 105.944 2.26915 -3.55088 0
M  V30 1130 H 104.668 2.30995 -2.30887 0
M  V30 1131 H 103.327 0.622499 -3.61276 0
M  V30 1132 H 102.975 3.07057 -3.98403 0
M  V30 1133 H 102.675 2.13925 -5.47275 0
M  V30 1134 H 104.199 3.05317 -5.28786 0
M  V30 1135 H 105.613 0.814929 -5.67478 0
M  V30 1136 H 104.01 0.0937929 -6.00027 0
M  V30 1137 H 105.08 -0.65921 -4.80398 0
M  V30 1138 N 106.423 1.57458 -0.0668435 0
M  V30 1139 C 107.333 2.15937 0.916975 0
M  V30 1140 C 108.349 1.12123 1.33058 0
M  V30 1141 O 109.525 1.44366 1.40429 0
M  V30 1142 C 106.59 2.70547 2.16807 0
M  V30 1143 C 105.651 3.89215 1.81135 0
M  V30 1144 C 104.884 4.41211 3.0028 0
M  V30 1145 O 105.107 3.92225 4.14144 0
M  V30 1146 O 104.041 5.32605 2.80384 0
M  V30 1147 H 107.867 3.00354 0.449561 0
M  V30 1148 H 105.452 1.48584 0.155949 0
M  V30 1149 H 107.334 3.0557 2.90181 0
M  V30 1150 H 106.009 1.89192 2.62656 0
M  V30 1151 H 104.916 3.59054 1.05028 0
M  V30 1152 H 106.249 4.71848 1.40073 0
M  V30 1153 N 107.901 -0.206675 1.56239 0
M  V30 1154 C 108.848 -1.25617 1.93621 0
M  V30 1155 C 109.818 -1.45824 0.795274 0
M  V30 1156 O 111.003 -1.59148 1.05245 0
M  V30 1157 C 108.143 -2.59839 2.27107 0
M  V30 1158 C 107.256 -2.47308 3.54207 0
M  V30 1159 C 106.391 -3.74155 3.7707 0
M  V30 1160 C 105.43 -3.56407 4.97635 0
M  V30 1161 N 104.567 -4.75238 5.1681 0
M  V30 1162 H 109.407 -0.930383 2.83104 0
M  V30 1163 H 106.944 -0.448065 1.4011 0
M  V30 1164 H 108.902 -3.38021 2.44535 0
M  V30 1165 H 107.532 -2.90485 1.40778 0
M  V30 1166 H 106.584 -1.60483 3.4489 0
M  V30 1167 H 107.896 -2.30122 4.42544 0
M  V30 1168 H 107.05 -4.60778 3.94675 0
M  V30 1169 H 105.789 -3.94282 2.87042 0
M  V30 1170 H 104.794 -2.68168 4.79964 0
M  V30 1171 H 106.019 -3.37736 5.89161 0
M  V30 1172 H 103.965 -4.95651 4.29728 0
M  V30 1173 H 103.882 -4.60835 5.99306 0
M  V30 1174 H 105.15 -5.63246 5.38864 0
M  V30 1175 N 109.379 -1.50304 -0.473955 0
M  V30 1176 C 110.327 -1.69482 -1.59307 0
M  V30 1177 C 111.321 -0.560669 -1.59853 0
M  V30 1178 O 112.527 -0.741087 -1.64036 0
M  V30 1179 H 108.902 -0.534892 -0.528578 0
M  V30 1180 H 110.873 -2.63364 -1.40293 0
M  V30 1181 C 109.622 -1.80354 -2.97267 0
M  V30 1182 H 108.945 -2.67012 -2.97564 0
M  V30 1183 H 110.385 -1.97798 -3.75036 0
M  V30 1184 C 108.844 -0.55448 -3.32306 0
M  V30 1185 O 109.374 0.307661 -4.0052 0
M  V30 1186 N 107.58 -0.409354 -2.87702 0
M  V30 1187 H 107.127 -1.11196 -2.32364 0
M  V30 1188 H 107.085 0.425223 -3.11511 0
M  V30 1189 N 110.857 0.726932 -1.39834 0
M  V30 1190 C 112.082 1.52121 -1.40976 0
M  V30 1191 C 112.507 1.88098 -0.00826029 0
M  V30 1192 O 111.865 1.52479 0.980807 0
M  V30 1193 C 111.913 2.78021 -2.29644 0
M  V30 1194 O 111.017 3.74272 -1.73188 0
M  V30 1195 H 110.358 0.45908 -0.479731 0
M  V30 1196 H 112.888 0.896207 -1.83927 0
M  V30 1197 H 112.898 3.26671 -2.44438 0
M  V30 1198 H 111.573 2.51169 -3.31492 0
M  V30 1199 H 110.15 3.33073 -1.6768 0
M  V30 1200 N 112.336 1.25143 0.95797 0
M  V30 1201 C 113.582 1.09855 1.70469 0
M  V30 1202 C 113.915 -0.360187 1.90831 0
M  V30 1203 O 113.19 -1.26568 1.47685 0
M  V30 1204 C 113.473 1.8497 3.08963 0
M  V30 1205 C 113.326 3.38652 2.96032 0
M  V30 1206 C 114.645 1.63016 4.08795 0
M  V30 1207 H 111.764 0.400465 0.618706 0
M  V30 1208 H 114.406 1.53933 1.11376 0
M  V30 1209 H 112.556 1.47505 3.59409 0
M  V30 1210 H 114.228 3.85772 2.52938 0
M  V30 1211 H 112.471 3.66534 2.32025 0
M  V30 1212 H 113.142 3.8642 3.94187 0
M  V30 1213 H 115.618 1.95625 3.67247 0
M  V30 1214 H 114.494 2.18015 5.03747 0
M  V30 1215 H 114.755 0.570692 4.38401 0
M  V30 1216 N 113.814 -1.1601 1.06675 0
M  V30 1217 C 115.225 -1.68235 0.809565 0
M  V30 1218 C 115.576 -1.8454 -0.666303 0
M  V30 1219 O 114.701 -1.54374 -1.5165 0
M  V30 1220 C 115.296 -3.05585 1.46299 0
M  V30 1221 C 113.855 -3.54915 1.25349 0
M  V30 1222 C 113.002 -2.30804 1.53703 0
M  V30 1223 H 115.953 -1.00318 1.22971 0
M  V30 1224 H 115.974 -3.70174 0.880431 0
M  V30 1225 H 115.486 -2.93686 2.53713 0
M  V30 1226 H 113.587 -3.72067 0.199261 0
M  V30 1227 H 113.7 -4.36774 1.9689 0
M  V30 1228 H 112.064 -2.36007 0.957739 0
M  V30 1229 H 112.847 -2.21499 2.62284 0
M  V30 1230 N 115.292 -0.849877 -1.32721 0
M  V30 1231 C 116.222 -0.306308 -2.31482 0
M  V30 1232 C 117.203 0.591952 -1.59468 0
M  V30 1233 O 118.388 0.513199 -1.87296 0
M  V30 1234 C 115.518 0.510204 -3.43532 0
M  V30 1235 C 114.472 -0.293209 -4.26994 0
M  V30 1236 C 113.798 0.647743 -5.30762 0
M  V30 1237 C 115.098 -1.51634 -4.99804 0
M  V30 1238 H 116.792 -1.13153 -2.77195 0
M  V30 1239 H 114.338 -0.545553 -1.33266 0
M  V30 1240 H 116.291 0.900856 -4.11658 0
M  V30 1241 H 115.015 1.36874 -2.96535 0
M  V30 1242 H 113.674 -0.665555 -3.60508 0
M  V30 1243 H 113.322 1.50299 -4.8002 0
M  V30 1244 H 113.022 0.11422 -5.87489 0
M  V30 1245 H 114.546 1.03567 -6.01753 0
M  V30 1246 H 115.96 -1.19824 -5.60638 0
M  V30 1247 H 114.357 -1.98745 -5.66234 0
M  V30 1248 H 115.427 -2.28018 -4.27943 0
M  V30 1249 N 116.77 1.45427 -0.607355 0
M  V30 1250 C 117.995 2.07124 -0.107006 0
M  V30 1251 C 118.42 1.44906 1.19933 0
M  V30 1252 O 117.778 0.541687 1.73019 0
M  V30 1253 C 117.826 3.60595 0.0194119 0
M  V30 1254 O 116.93 3.98285 1.0697 0
M  V30 1255 H 116.271 0.659868 -0.0739597 0
M  V30 1256 H 118.801 1.86683 -0.837297 0
M  V30 1257 H 118.811 4.07419 0.2177 0
M  V30 1258 H 117.486 4.05266 -0.934453 0
M  V30 1259 H 116.063 3.63133 0.847889 0
M  V30 1260 N 118.248 0.346503 1.53744 0
M  V30 1261 C 119.525 -0.304532 1.93215 0
M  V30 1262 C 119.905 -1.67993 1.27834 0
M  V30 1263 O 119.253 -2.24411 0.430352 0
M  V30 1264 C 119.463 -0.373852 3.46992 0
M  V30 1265 C 120.811 -0.62329 4.2 0
M  V30 1266 O 121.835 -0.455847 3.53271 0
M  V30 1267 O 120.694 -0.947879 5.38217 0
M  V30 1268 H 117.788 -0.178318 0.807547 0
M  V30 1269 H 120.334 0.397895 1.64969 0
M  V30 1270 H 119.106 0.591224 3.86808 0
M  V30 1271 H 118.729 -1.12294 3.81413 0
M  V30 1272 N 119.726 -1.57421 0.075193 0
M  V30 1273 C 120.689 -2.11791 -0.876203 0
M  V30 1274 C 121.689 -1.04268 -1.22412 0
M  V30 1275 O 122.879 -1.30242 -1.15684 0
M  V30 1276 C 120.011 -2.62207 -2.17854 0
M  V30 1277 H 121.204 -2.9716 -0.40444 0
M  V30 1278 H 118.757 -1.55333 -0.173557 0
M  V30 1279 H 119.492 -1.803 -2.6956 0
M  V30 1280 H 119.277 -3.40802 -1.93897 0
M  V30 1281 H 120.767 -3.04335 -2.85955 0
M  V30 1282 N 121.204 0.198386 -1.56346 0
M  V30 1283 C 122.134 1.24865 -1.9731 0
M  V30 1284 C 123.115 1.47651 -0.844576 0
M  V30 1285 O 124.3 1.59444 -1.10866 0
M  V30 1286 C 121.43 2.59358 -2.30977 0
M  V30 1287 C 120.384 2.5119 -3.46537 0
M  V30 1288 C 119.71 3.89926 -3.65871 0
M  V30 1289 C 121.01 2.03977 -4.80823 0
M  V30 1290 H 122.704 0.908252 -2.85291 0
M  V30 1291 H 120.25 0.435462 -1.37258 0
M  V30 1292 H 122.203 3.33011 -2.58228 0
M  V30 1293 H 120.927 2.95132 -1.39874 0
M  V30 1294 H 119.586 1.79993 -3.19371 0
M  V30 1295 H 119.234 4.23046 -2.72105 0
M  V30 1296 H 118.934 3.85336 -4.4361 0
M  V30 1297 H 120.458 4.65205 -3.95495 0
M  V30 1298 H 121.872 2.67386 -5.07127 0
M  V30 1299 H 120.269 2.10397 -5.62008 0
M  V30 1300 H 121.339 0.992861 -4.74626 0
M  V30 1301 N 122.682 1.50554 0.465978 0
M  V30 1302 C 123.612 1.72722 1.57128 0
M  V30 1303 C 124.593 0.576294 1.6004 0
M  V30 1304 O 125.778 0.81598 1.76225 0
M  V30 1305 C 122.908 1.82605 2.95419 0
M  V30 1306 C 121.862 2.97835 3.07373 0
M  V30 1307 C 121.188 2.92867 4.47363 0
M  V30 1308 C 122.488 4.38265 2.84114 0
M  V30 1309 H 124.182 2.65267 1.38829 0
M  V30 1310 H 121.728 1.2765 0.666441 0
M  V30 1311 H 123.681 1.96698 3.72677 0
M  V30 1312 H 122.405 0.866858 3.14886 0
M  V30 1313 H 121.064 2.83401 2.3255 0
M  V30 1314 H 120.712 1.94783 4.63755 0
M  V30 1315 H 120.412 3.70227 4.56296 0
M  V30 1316 H 121.936 3.09015 5.26633 0
M  V30 1317 H 123.35 4.53198 3.51118 0
M  V30 1318 H 121.747 5.17115 3.04487 0
M  V30 1319 H 122.817 4.50281 1.7993 0
M  V30 1320 N 124.16 -0.719506 1.40217 0
M  V30 1321 C 125.108 -1.85493 1.40339 0
M  V30 1322 C 126.102 -1.66995 0.284415 0
M  V30 1323 O 127.308 -1.74148 0.455252 0
M  V30 1324 H 123.683 -0.610857 0.438586 0
M  V30 1325 H 125.654 -1.82506 2.36081 0
M  V30 1326 C 124.403 -3.23321 1.27901 0
M  V30 1327 H 123.726 -3.38159 2.1328 0
M  V30 1328 H 125.166 -4.02914 1.32045 0
M  V30 1329 C 123.625 -3.36898 -0.0111355 0
M  V30 1330 O 124.155 -3.89674 -0.975538 0
M  V30 1331 N 122.361 -2.90492 -0.0793393 0
M  V30 1332 H 121.908 -2.47731 0.706183 0
M  V30 1333 H 121.866 -2.99955 -0.942038 0
M  V30 1334 N 125.638 -1.25649 -0.95132 0
M  V30 1335 C 126.585 -1.06323 -2.04851 0
M  V30 1336 C 127.555 0.0286491 -1.66075 0
M  V30 1337 O 128.74 -0.12917 -1.90362 0
M  V30 1338 C 125.88 -0.691529 -3.381 0
M  V30 1339 C 124.993 -1.85861 -3.89974 0
M  V30 1340 C 124.128 -1.43096 -5.11563 0
M  V30 1341 C 123.167 -2.56696 -5.55674 0
M  V30 1342 N 122.304 -2.14684 -6.68472 0
M  V30 1343 H 127.144 -2.00222 -2.20715 0
M  V30 1344 H 124.681 -0.997027 -1.08156 0
M  V30 1345 H 126.639 -0.456963 -4.1469 0
M  V30 1346 H 125.269 0.210474 -3.22113 0
M  V30 1347 H 124.321 -2.20639 -3.09875 0
M  V30 1348 H 125.633 -2.71161 -4.18657 0
M  V30 1349 H 124.787 -1.15624 -5.9558 0
M  V30 1350 H 123.526 -0.548722 -4.84603 0
M  V30 1351 H 122.531 -2.84909 -4.7022 0
M  V30 1352 H 123.756 -3.45503 -5.8464 0
M  V30 1353 H 121.702 -1.28881 -6.43215 0
M  V30 1354 H 121.619 -2.9353 -6.96689 0
M  V30 1355 H 122.887 -1.90397 -7.5589 0
M  V30 1356 N 127.117 1.15442 -1.07289 0
M  V30 1357 C 128.047 2.22312 -0.714107 0
M  V30 1358 C 129.028 1.67467 0.298155 0
M  V30 1359 O 130.213 1.93445 0.171048 0
M  V30 1360 C 127.343 3.47124 -0.110448 0
M  V30 1361 C 126.297 4.14926 -1.04979 0
M  V30 1362 C 125.623 5.33807 -0.308924 0
M  V30 1363 C 126.923 4.64762 -2.38314 0
M  V30 1364 H 128.617 2.5258 -1.6076 0
M  V30 1365 H 126.163 1.21404 -0.77441 0
M  V30 1366 H 128.116 4.21124 0.152482 0
M  V30 1367 H 126.84 3.16187 0.81812 0
M  V30 1368 H 125.499 3.42866 -1.29764 0
M  V30 1369 H 125.147 4.99126 0.623084 0
M  V30 1370 H 124.847 5.80113 -0.935036 0
M  V30 1371 H 126.371 6.10576 -0.0537771 0
M  V30 1372 H 127.785 5.30292 -2.1786 0
M  V30 1373 H 126.182 5.21728 -2.96514 0
M  V30 1374 H 127.252 3.80434 -3.00663 0
M  V30 1375 N 128.595 0.856903 1.32268 0
M  V30 1376 C 129.844 0.457599 1.96441 0
M  V30 1377 C 130.157 -0.992426 1.68553 0
M  V30 1378 O 131.363 -1.49727 2.26482 0
M  V30 1379 C 129.819 0.767358 3.51624 0
M  V30 1380 C 129.427 2.23326 3.88367 0
M  V30 1381 C 131.171 0.435887 4.22256 0
M  V30 1382 C 129.078 2.48613 5.36606 0
M  V30 1383 H 128.008 0.167387 0.735185 0
M  V30 1384 H 130.659 1.048 1.5063 0
M  V30 1385 H 129.041 0.106367 3.95857 0
M  V30 1386 H 130.215 2.93623 3.55137 0
M  V30 1387 H 128.53 2.52948 3.30766 0
M  V30 1388 H 131.127 0.602202 5.31298 0
M  V30 1389 H 131.47 -0.622672 4.11617 0
M  V30 1390 H 132.003 1.05286 3.83614 0
M  V30 1391 H 128.742 3.53101 5.52268 0
M  V30 1392 H 128.262 1.82896 5.71235 0
M  V30 1393 H 129.941 2.32676 6.03714 0
M  V30 1394 N 130.073 -1.45103 0.615059 0
M  V30 1395 C 131.321 -2.01784 0.112955 0
M  V30 1396 C 131.642 -1.48504 -1.26378 0
M  V30 1397 O 130.912 -0.682245 -1.83636 0
M  V30 1398 H 129.492 -0.745993 0.0387668 0
M  V30 1399 H 132.154 -1.77808 0.798141 0
M  V30 1400 H 131.25 -3.12025 0.0684069 0
M  V30 1401 N 131.551 -0.354651 -1.53558 0
M  V30 1402 C 132.967 -0.00315426 -1.596 0
M  V30 1403 C 133.167 1.47741 -1.37021 0
M  V30 1404 O 132.223 2.23759 -1.16996 0
M  V30 1405 C 133.536 -0.44929 -2.97325 0
M  V30 1406 C 135.084 -0.402578 -3.104 0
M  V30 1407 C 135.559 -0.824355 -4.5052 0
M  V30 1408 N 137.05 -0.778979 -4.56603 0
M  V30 1409 C 137.785 -1.07715 -5.63192 0
M  V30 1410 N 137.281 -1.44405 -6.77583 0
M  V30 1411 N 139.074 -1.00066 -5.53121 0
M  V30 1412 H 131.225 -1.31893 -1.66487 0
M  V30 1413 H 133.488 -0.538388 -0.780284 0
M  V30 1414 H 133.194 -1.48202 -3.1895 0
M  V30 1415 H 133.068 0.169772 -3.76818 0
M  V30 1416 H 135.455 0.621004 -2.88492 0
M  V30 1417 H 135.536 -1.05699 -2.32941 0
M  V30 1418 H 135.18 -1.846 -4.73165 0
M  V30 1419 H 135.11 -0.147304 -5.26394 0
M  V30 1420 H 137.601 -0.508528 -3.74463 0
M  V30 1421 H 137.914 -1.65612 -7.54846 0
M  V30 1422 H 136.259 -1.4826 -6.79002 0
M  V30 1423 H 139.45 -0.713293 -4.62633 0
M  V30 1424 H 139.623 -1.23638 -6.36096 0
M  V30 1425 N 133.029 1.57378 -0.0835403 0
M  V30 1426 C 134.259 1.97975 0.590713 0
M  V30 1427 C 134.667 0.961083 1.62972 0
M  V30 1428 O 134.01 -0.0590879 1.83605 0
M  V30 1429 C 134.072 3.34915 1.3066 0
M  V30 1430 C 133.736 4.55069 0.419698 0
M  V30 1431 C 134.733 5.18868 -0.32749 0
M  V30 1432 C 132.418 5.0114 0.341137 0
M  V30 1433 C 134.412 6.27098 -1.14134 0
M  V30 1434 C 132.099 6.0924 -0.476374 0
M  V30 1435 C 133.097 6.72083 -1.21627 0
M  V30 1436 O 132.785 7.781 -2.02028 0
M  V30 1437 H 132.517 0.655818 0.163947 0
M  V30 1438 H 135.071 2.04807 -0.156021 0
M  V30 1439 H 133.301 3.24733 2.09966 0
M  V30 1440 H 134.99 3.60037 1.87424 0
M  V30 1441 H 135.756 4.84211 -0.276459 0
M  V30 1442 H 131.635 4.51996 0.90668 0
M  V30 1443 H 135.179 6.7608 -1.71935 0
M  V30 1444 H 131.076 6.43329 -0.528927 0
M  V30 1445 H 131.844 7.95034 -1.94586 0
M  V30 1446 N 134.507 -0.190092 1.56449 0
M  V30 1447 C 135.732 -0.929864 1.85387 0
M  V30 1448 C 136.157 -1.7585 0.667704 0
M  V30 1449 O 135.515 -1.77198 -0.383459 0
M  V30 1450 C 135.563 -1.79773 3.12593 0
M  V30 1451 O 134.667 -2.89713 2.93496 0
M  V30 1452 H 134.008 -0.261574 0.610307 0
M  V30 1453 H 136.538 -0.193896 2.03679 0
M  V30 1454 H 136.548 -2.20139 3.43515 0
M  V30 1455 H 135.223 -1.18892 3.98544 0
M  V30 1456 H 133.8 -2.53065 2.73884 0
M  V30 1457 N 135.985 -1.50799 -0.457987 0
M  V30 1458 C 136.917 -1.66786 -1.57211 0
M  V30 1459 C 137.93 -0.548962 -1.53265 0
M  V30 1460 O 139.119 -0.8226 -1.58416 0
M  V30 1461 C 136.219 -1.64834 -2.96113 0
M  V30 1462 C 135.392 -2.92971 -3.24787 0
M  V30 1463 C 134.451 -2.83485 -4.43309 0
M  V30 1464 O 133.477 -3.5744 -4.42973 0
M  V30 1465 N 134.679 -1.97929 -5.45714 0
M  V30 1466 H 137.444 -2.62889 -1.43909 0
M  V30 1467 H 135.005 -1.48427 -0.646617 0
M  V30 1468 H 136.997 -1.56084 -3.7339 0
M  V30 1469 H 135.567 -0.764118 -3.03117 0
M  V30 1470 H 134.787 -3.15749 -2.36 0
M  V30 1471 H 136.075 -3.77834 -3.40762 0
M  V30 1472 H 135.473 -1.37182 -5.48815 0
M  V30 1473 H 134.03 -1.95073 -6.21924 0
M  V30 1474 N 137.463 0.71206 -1.40597 0
M  V30 1475 C 138.426 1.80785 -1.40888 0
M  V30 1476 C 139.426 1.57937 -0.302103 0
M  V30 1477 O 140.616 1.64913 -0.561182 0
M  V30 1478 C 137.748 3.18927 -1.20409 0
M  V30 1479 H 138.941 1.81924 -2.38419 0
M  V30 1480 H 136.494 0.91805 -1.26497 0
M  V30 1481 H 137.229 3.23436 -0.236522 0
M  V30 1482 H 137.014 3.36911 -2.00582 0
M  V30 1483 H 138.504 3.98949 -1.23408 0
M  V30 1484 N 138.941 1.26152 0.944643 0
M  V30 1485 C 140.19 1.10883 1.68487 0
M  V30 1486 C 140.503 -0.348153 1.92477 0
M  V30 1487 O 141.709 -0.621459 2.64292 0
M  V30 1488 C 140.165 1.93624 3.03377 0
M  V30 1489 C 139.773 3.43875 2.87148 0
M  V30 1490 C 141.517 1.86954 3.81115 0
M  V30 1491 C 139.424 4.18875 4.1749 0
M  V30 1492 H 138.354 0.41135 0.631907 0
M  V30 1493 H 141.005 1.50433 1.05082 0
M  V30 1494 H 139.387 1.46904 3.67743 0
M  V30 1495 H 140.561 3.98338 2.31653 0
M  V30 1496 H 138.876 3.51744 2.22856 0
M  V30 1497 H 141.473 2.40275 4.77673 0
M  V30 1498 H 141.816 0.839518 4.07747 0
M  V30 1499 H 142.349 2.31477 3.23517 0
M  V30 1500 H 139.088 5.22332 3.96043 0
M  V30 1501 H 138.608 3.69193 4.72712 0
M  V30 1502 H 140.287 4.27134 4.85968 0
M  V30 1503 N 140.419 -1.14872 1.07899 0
M  V30 1504 C 141.329 -2.2341 0.715915 0
M  V30 1505 C 142.345 -1.71808 -0.275306 0
M  V30 1506 O 143.521 -2.01039 -0.120545 0
M  V30 1507 C 140.586 -3.46474 0.125168 0
M  V30 1508 C 139.647 -4.13039 1.17034 0
M  V30 1509 C 138.88 -5.30229 0.607688 0
M  V30 1510 O 139.103 -5.675 -0.574497 0
M  V30 1511 O 138.037 -5.86444 1.35526 0
M  V30 1512 H 141.863 -2.56808 1.62121 0
M  V30 1513 H 139.448 -1.22702 0.852322 0
M  V30 1514 H 141.33 -4.20917 -0.201729 0
M  V30 1515 H 140.005 -3.14811 -0.753364 0
M  V30 1516 H 138.912 -3.40493 1.54968 0
M  V30 1517 H 140.245 -4.48796 2.02097 0
M  V30 1518 N 141.898 -0.863906 -1.31812 0
M  V30 1519 C 142.861 -0.320212 -2.26952 0
M  V30 1520 C 143.861 0.525369 -1.51975 0
M  V30 1521 O 145.051 0.335547 -1.70938 0
M  V30 1522 C 142.183 0.545919 -3.365 0
M  V30 1523 H 143.376 -1.16004 -2.76556 0
M  V30 1524 H 140.929 -0.638995 -1.42641 0
M  V30 1525 H 141.664 1.40718 -2.92179 0
M  V30 1526 H 141.449 -0.0594674 -3.92055 0
M  V30 1527 H 142.939 0.918796 -4.07367 0
M  V30 1528 N 143.376 1.44774 -0.622745 0
M  V30 1529 C 144.306 2.33382 0.0741861 0
M  V30 1530 C 145.287 1.47719 0.843387 0
M  V30 1531 O 146.472 1.76458 0.810934 0
M  V30 1532 C 143.602 3.30663 1.06204 0
M  V30 1533 C 142.556 4.26079 0.405037 0
M  V30 1534 C 141.882 5.13165 1.5022 0
M  V30 1535 C 143.182 5.1781 -0.683414 0
M  V30 1536 H 144.876 2.91905 -0.665713 0
M  V30 1537 H 142.422 1.40363 -0.321587 0
M  V30 1538 H 144.375 3.9153 1.55827 0
M  V30 1539 H 143.099 2.70331 1.83272 0
M  V30 1540 H 141.758 3.66532 -0.0704683 0
M  V30 1541 H 141.406 4.49191 2.26355 0
M  V30 1542 H 141.106 5.77812 1.06803 0
M  V30 1543 H 142.63 5.76902 2.00041 0
M  V30 1544 H 144.044 5.72661 -0.270631 0
M  V30 1545 H 142.441 5.91015 -1.04023 0
M  V30 1546 H 143.511 4.59326 -1.55395 0
M  V30 1547 N 144.854 0.36279 1.53368 0
M  V30 1548 C 146.265 -0.117022 1.86333 0
M  V30 1549 C 146.616 -1.48397 1.28347 0
M  V30 1550 O 145.741 -2.07787 0.604428 0
M  V30 1551 C 146.336 -0.21912 3.38091 0
M  V30 1552 C 144.895 -0.643184 3.70864 0
M  V30 1553 C 144.042 0.211318 2.76494 0
M  V30 1554 H 146.993 0.581687 1.47655 0
M  V30 1555 H 147.014 -1.04319 3.6592 0
M  V30 1556 H 146.526 0.775902 3.80265 0
M  V30 1557 H 144.627 -1.64654 3.34245 0
M  V30 1558 H 144.74 -0.41973 4.77258 0
M  V30 1559 H 143.104 -0.319367 2.5269 0
M  V30 1560 H 143.887 1.20383 3.21501 0
M  V30 1561 N 146.332 -1.57332 0.0918853 0
M  V30 1562 C 147.743 -1.81496 -0.437739 0
M  V30 1563 C 148.094 -1.00727 -1.6837 0
M  V30 1564 O 147.219 -0.235694 -2.15113 0
M  V30 1565 C 147.814 -3.29197 -0.800939 0
M  V30 1566 C 146.373 -3.54136 -1.27532 0
M  V30 1567 C 145.52 -2.75979 -0.270392 0
M  V30 1568 H 148.471 -1.55494 0.317366 0
M  V30 1569 H 148.492 -3.42344 -1.66074 0
M  V30 1570 H 148.004 -3.87955 0.106078 0
M  V30 1571 H 146.105 -3.00705 -2.20016 0
M  V30 1572 H 146.218 -4.62792 -1.23938 0
M  V30 1573 H 144.582 -2.43349 -0.751872 0
M  V30 1574 H 145.365 -3.37484 0.629248 0
M  V30 1575 N 147.81 0.181792 -1.56548 0
M  V30 1576 C 149.087 0.926765 -1.72251 0
M  V30 1577 C 149.467 2.00831 -0.650386 0
M  V30 1578 O 148.815 2.26008 0.336521 0
M  V30 1579 C 149.025 1.50106 -3.1507 0
M  V30 1580 C 150.373 1.97805 -3.75711 0
M  V30 1581 O 151.397 1.59922 -3.18282 0
M  V30 1582 O 150.256 2.67555 -4.76525 0
M  V30 1583 H 147.35 0.435506 -0.703039 0
M  V30 1584 H 149.896 0.170443 -1.68842 0
M  V30 1585 H 148.668 0.72212 -3.84579 0
M  V30 1586 H 148.291 2.32186 -3.22763 0
M  V30 1587 N 149.288 1.51039 0.449983 0
M  V30 1588 C 150.235 1.71439 1.54523 0
M  V30 1589 C 151.205 0.555871 1.56522 0
M  V30 1590 O 152.39 0.788871 1.73728 0
M  V30 1591 C 149.53 1.83384 2.92343 0
M  V30 1592 C 148.643 3.10873 2.9997 0
M  V30 1593 C 147.778 3.13488 4.28834 0
M  V30 1594 C 146.817 4.35343 4.30282 0
M  V30 1595 N 145.954 4.35579 5.5065 0
M  V30 1596 H 150.794 2.64934 1.36433 0
M  V30 1597 H 148.331 1.31312 0.662982 0
M  V30 1598 H 150.289 1.88291 3.72293 0
M  V30 1599 H 148.919 0.933086 3.0902 0
M  V30 1600 H 147.971 3.15336 2.12761 0
M  V30 1601 H 149.283 4.00814 2.96901 0
M  V30 1602 H 148.437 3.17241 5.17149 0
M  V30 1603 H 147.176 2.21414 4.34543 0
M  V30 1604 H 146.181 4.3178 3.40362 0
M  V30 1605 H 147.406 5.28668 4.26248 0
M  V30 1606 H 145.352 3.46369 5.57104 0
M  V30 1607 H 145.269 5.19313 5.49409 0
M  V30 1608 H 146.537 4.43507 6.41032 0
M  V30 1609 N 150.766 -0.704594 1.40972 0
M  V30 1610 C 151.996 -1.49138 1.42974 0
M  V30 1611 C 152.404 -1.89175 0.0308406 0
M  V30 1612 O 151.747 -1.56734 -0.958138 0
M  V30 1613 C 151.809 -2.79016 2.26694 0
M  V30 1614 C 151.473 -2.61236 3.74973 0
M  V30 1615 C 152.47 -2.27773 4.67349 0
M  V30 1616 C 150.155 -2.77158 4.18914 0
M  V30 1617 C 152.149 -2.10457 6.01653 0
M  V30 1618 C 149.836 -2.59459 5.53285 0
M  V30 1619 C 150.834 -2.26158 6.4447 0
M  V30 1620 O 150.522 -2.08605 7.76363 0
M  V30 1621 H 150.254 -0.466443 0.489292 0
M  V30 1622 H 152.808 -0.8758 1.85793 0
M  V30 1623 H 151.038 -3.42947 1.78673 0
M  V30 1624 H 152.727 -3.40782 2.20504 0
M  V30 1625 H 153.493 -2.15095 4.34694 0
M  V30 1626 H 149.372 -3.02064 3.48251 0
M  V30 1627 H 152.916 -1.84387 6.72791 0
M  V30 1628 H 148.813 -2.71725 5.85522 0
M  V30 1629 H 149.581 -2.23439 7.87412 0
M  V30 1630 N 152.244 -1.26651 -0.937939 0
M  V30 1631 C 153.492 -1.12165 -1.68118 0
M  V30 1632 C 153.813 0.334983 -1.92101 0
M  V30 1633 O 153.083 1.23583 -1.52 0
M  V30 1634 H 151.663 -0.412093 -0.623048 0
M  V30 1635 H 154.325 -1.59027 -1.12678 0
M  V30 1636 H 153.421 -1.64289 -2.6536 0
M  V30 1637 N 153.722 1.14298 -1.08507 0
M  V30 1638 C 154.654 2.1907 -0.673859 0
M  V30 1639 C 155.667 1.60381 0.279577 0
M  V30 1640 O 156.856 1.78374 0.0670754 0
M  V30 1641 C 153.956 3.38888 0.0290979 0
M  V30 1642 C 153.129 4.27103 -0.943494 0
M  V30 1643 C 152.188 5.25477 -0.275676 0
M  V30 1644 O 151.214 5.61709 -0.920401 0
M  V30 1645 N 152.416 5.7227 0.974013 0
M  V30 1646 H 155.181 2.54965 -1.57521 0
M  V30 1647 H 152.742 1.29528 -0.971287 0
M  V30 1648 H 154.734 4.01761 0.48683 0
M  V30 1649 H 153.304 3.01309 0.832555 0
M  V30 1650 H 152.524 3.61149 -1.58004 0
M  V30 1651 H 153.812 4.82905 -1.60251 0
M  V30 1652 H 153.21 5.44965 1.51755 0
M  V30 1653 H 151.767 6.37127 1.37522 0
M  V30 1654 N 155.201 0.870884 1.31352 0
M  V30 1655 C 156.149 0.316445 2.30437 0
M  V30 1656 C 157.143 -0.568965 1.59559 0
M  V30 1657 O 158.349 -0.454964 1.74155 0
M  V30 1658 H 154.724 0.0836521 0.747333 0
M  V30 1659 H 156.695 1.16606 2.74673 0
M  V30 1660 C 155.444 -0.46635 3.44558 0
M  V30 1661 H 154.767 0.205687 3.99271 0
M  V30 1662 H 156.207 -0.819614 4.16003 0
M  V30 1663 C 154.666 -1.65797 2.9328 0
M  V30 1664 O 155.196 -2.75728 2.92125 0
M  V30 1665 N 153.402 -1.49041 2.4947 0
M  V30 1666 H 152.949 -0.59612 2.50608 0
M  V30 1667 H 152.907 -2.28911 2.15516 0
M  V30 1668 N 156.679 -1.44442 0.630414 0
M  V30 1669 C 157.589 -2.34476 -0.0761693 0
M  V30 1670 C 158.605 -1.52576 -0.836449 0
M  V30 1671 O 159.781 -1.85307 -0.788874 0
M  V30 1672 C 156.846 -3.30545 -1.04599 0
M  V30 1673 C 155.907 -4.28352 -0.28516 0
M  V30 1674 C 155.14 -5.19831 -1.20878 0
M  V30 1675 O 155.363 -5.15223 -2.44747 0
M  V30 1676 O 154.297 -5.97892 -0.693491 0
M  V30 1677 H 158.123 -2.96345 0.664324 0
M  V30 1678 H 155.708 -1.44203 0.39061 0
M  V30 1679 H 157.59 -3.89681 -1.60396 0
M  V30 1680 H 156.265 -2.7121 -1.76711 0
M  V30 1681 H 155.172 -3.72764 0.315837 0
M  V30 1682 H 156.505 -4.90605 0.395924 0
M  V30 1683 N 158.157 -0.370918 -1.53173 0
M  V30 1684 C 159.382 0.220293 -2.06227 0
M  V30 1685 C 159.807 1.41243 -1.24225 0
M  V30 1686 O 159.165 1.79387 -0.262645 0
M  V30 1687 C 159.213 0.586663 -3.55796 0
M  V30 1688 O 158.317 1.68317 -3.76488 0
M  V30 1689 H 157.658 0.0308099 -0.663285 0
M  V30 1690 H 160.188 -0.533068 -1.97534 0
M  V30 1691 H 160.198 0.85617 -3.98916 0
M  V30 1692 H 158.873 -0.285013 -4.14922 0
M  V30 1693 H 157.45 1.40881 -3.45264 0
M  V30 1694 N 159.635 1.57281 -0.100228 0
M  V30 1695 C 160.882 1.94537 0.562268 0
M  V30 1696 C 161.21 0.982315 1.67871 0
M  V30 1697 O 160.465 0.00280936 1.957 0
M  V30 1698 C 160.764 3.38305 1.15259 0
M  V30 1699 C 160.43 4.50618 0.159409 0
M  V30 1700 C 159.092 4.81066 -0.113741 0
M  V30 1701 C 161.444 5.18615 -0.518461 0
M  V30 1702 C 158.772 5.76835 -1.07137 0
M  V30 1703 C 161.124 6.15412 -1.46459 0
M  V30 1704 C 159.788 6.44262 -1.74592 0
M  V30 1705 H 159.058 0.711863 0.205748 0
M  V30 1706 H 161.705 1.90679 -0.17715 0
M  V30 1707 H 160.01 3.38766 1.96836 0
M  V30 1708 H 161.707 3.64435 1.67297 0
M  V30 1709 H 158.297 4.2689 0.382491 0
M  V30 1710 H 162.481 4.95264 -0.320581 0
M  V30 1711 H 157.737 5.975 -1.29628 0
M  V30 1712 H 161.911 6.67194 -1.99564 0
M  V30 1713 H 159.538 7.1828 -2.48953 0
M  V30 1714 N 161.113 -0.173488 1.56642 0
M  V30 1715 C 162.076 -1.19859 1.95362 0
M  V30 1716 C 163.076 -1.37296 0.83704 0
M  V30 1717 O 164.266 -1.34739 1.10413 0
M  V30 1718 C 161.398 -2.56405 2.24654 0
M  V30 1719 H 162.591 -0.867062 2.87092 0
M  V30 1720 H 160.144 -0.415853 1.50666 0
M  V30 1721 H 160.879 -2.94576 1.35631 0
M  V30 1722 H 160.664 -2.45115 3.06041 0
M  V30 1723 H 162.154 -3.30287 2.5554 0
M  V30 1724 N 162.591 -1.51276 -0.441967 0
M  V30 1725 C 164.007 -1.39349 -0.778083 0
M  V30 1726 C 164.207 -0.472212 -1.95889 0
M  V30 1727 O 163.263 0.0743551 -2.5239 0
M  V30 1728 C 164.576 -2.81292 -1.0628 0
M  V30 1729 C 166.124 -2.9041 -1.16751 0
M  V30 1730 C 166.599 -4.33251 -1.48519 0
M  V30 1731 N 168.09 -4.36336 -1.55453 0
M  V30 1732 C 168.825 -5.43885 -1.81596 0
M  V30 1733 N 168.321 -6.61601 -2.05562 0
M  V30 1734 N 170.114 -5.3136 -1.8334 0
M  V30 1735 H 162.265 -2.09729 0.335774 0
M  V30 1736 H 164.528 -0.943925 0.0878028 0
M  V30 1737 H 164.234 -3.50678 -0.267905 0
M  V30 1738 H 164.108 -3.20334 -1.99163 0
M  V30 1739 H 166.495 -2.21225 -1.95304 0
M  V30 1740 H 166.576 -2.54871 -0.217801 0
M  V30 1741 H 166.22 -5.02984 -0.704958 0
M  V30 1742 H 166.15 -4.66299 -2.44689 0
M  V30 1743 H 168.641 -3.51466 -1.38853 0
M  V30 1744 H 168.954 -7.39361 -2.24867 0
M  V30 1745 H 167.299 -6.64725 -2.02894 0
M  V30 1746 H 170.49 -4.38382 -1.64132 0
M  V30 1747 H 170.663 -6.15258 -2.03377 0
M  V30 1748 N 164.069 0.697108 -1.41344 0
M  V30 1749 C 165.318 1.45279 -1.39918 0
M  V30 1750 C 165.631 1.95597 -0.0109624 0
M  V30 1751 O 166.837 2.71208 0.125919 0
M  V30 1752 C 165.293 2.62695 -2.46007 0
M  V30 1753 C 164.901 2.19169 -3.90729 0
M  V30 1754 C 166.645 3.40336 -2.53715 0
M  V30 1755 C 164.552 3.33535 -4.88373 0
M  V30 1756 H 163.482 0.545692 -0.520323 0
M  V30 1757 H 166.133 0.756929 -1.67161 0
M  V30 1758 H 164.515 3.34541 -2.11892 0
M  V30 1759 H 165.689 1.54623 -4.34083 0
M  V30 1760 H 164.004 1.54525 -3.86666 0
M  V30 1761 H 166.601 4.2547 -3.2385 0
M  V30 1762 H 166.944 3.85418 -1.5735 0
M  V30 1763 H 167.477 2.75546 -2.86913 0
M  V30 1764 H 164.216 2.93468 -5.86137 0
M  V30 1765 H 163.736 3.96936 -4.49668 0
M  V30 1766 H 165.415 3.99335 -5.09059 0
M  V30 1767 N 165.547 1.27147 0.931209 0
M  V30 1768 C 166.479 1.05364 2.03546 0
M  V30 1769 C 167.492 0.0108438 1.62796 0
M  V30 1770 O 168.681 0.25202 1.76712 0
M  V30 1771 C 165.781 0.575566 3.33977 0
M  V30 1772 C 164.954 1.68985 4.03439 0
M  V30 1773 C 164.013 1.20813 5.12143 0
M  V30 1774 O 163.039 1.90712 5.363 0
M  V30 1775 N 164.241 0.0618851 5.80467 0
M  V30 1776 H 167.006 2.00454 2.22796 0
M  V30 1777 H 164.567 1.18666 1.10136 0
M  V30 1778 H 166.559 0.237264 4.04004 0
M  V30 1779 H 165.129 -0.282016 3.11325 0
M  V30 1780 H 164.349 2.19861 3.27192 0
M  V30 1781 H 165.637 2.4378 4.46597 0
M  V30 1782 H 165.035 -0.521621 5.6329 0
M  V30 1783 H 163.592 -0.217264 6.51438 0
M  V30 1784 N 167.025 -1.13721 1.09112 0
M  V30 1785 C 168.271 -1.85198 0.826414 0
M  V30 1786 C 168.604 -1.83129 -0.646319 0
M  V30 1787 O 167.879 -1.2671 -1.47563 0
M  V30 1788 C 168.162 -3.33507 1.35812 0
M  V30 1789 C 168.015 -3.44108 2.89672 0
M  V30 1790 C 169.334 -4.28838 0.989256 0
M  V30 1791 H 166.453 -0.67243 0.301675 0
M  V30 1792 H 169.095 -1.33499 1.35197 0
M  V30 1793 H 167.245 -3.77666 0.911082 0
M  V30 1794 H 168.917 -3.08684 3.428 0
M  V30 1795 H 167.16 -2.85087 3.26967 0
M  V30 1796 H 167.831 -4.48388 3.21951 0
M  V30 1797 H 170.307 -3.92734 1.37475 0
M  V30 1798 H 169.183 -5.31051 1.38838 0
M  V30 1799 H 169.444 -4.4198 -0.102924 0
M  V30 1800 N 168.503 -0.877838 -1.30888 0
M  V30 1801 C 169.919 -0.570844 -1.49042 0
M  V30 1802 C 170.119 0.893159 -1.80624 0
M  V30 1803 O 169.175 1.67485 -1.88958 0
M  V30 1804 C 170.488 -1.47784 -2.61878 0
M  V30 1805 C 172.036 -1.48071 -2.75761 0
M  V30 1806 C 172.511 -2.37347 -3.91702 0
M  V30 1807 N 174.002 -2.35271 -3.99001 0
M  V30 1808 C 174.737 -3.01063 -4.88004 0
M  V30 1809 N 174.233 -3.76055 -5.81854 0
M  V30 1810 N 176.026 -2.90332 -4.81315 0
M  V30 1811 H 168.177 -1.82502 -1.0866 0
M  V30 1812 H 170.44 -0.780797 -0.537644 0
M  V30 1813 H 170.146 -2.51993 -2.45341 0
M  V30 1814 H 170.02 -1.18215 -3.58197 0
M  V30 1815 H 172.407 -0.446166 -2.91708 0
M  V30 1816 H 172.488 -1.81668 -1.80085 0
M  V30 1817 H 172.132 -3.40883 -3.76512 0
M  V30 1818 H 172.062 -2.01071 -4.86701 0
M  V30 1819 H 174.553 -1.80768 -3.3186 0
M  V30 1820 H 174.866 -4.23366 -6.46514 0
M  V30 1821 H 173.211 -3.80163 -5.81808 0
M  V30 1822 H 176.402 -2.31278 -4.06974 0
M  V30 1823 H 176.575 -3.41885 -5.50471 0
M  V30 1824 N 169.982 1.44106 -0.638065 0
M  V30 1825 C 171.229 2.01978 -0.14533 0
M  V30 1826 C 171.557 1.50234 1.23532 0
M  V30 1827 O 170.812 0.679548 1.83523 0
M  V30 1828 C 171.111 3.5729 -0.0887327 0
M  V30 1829 C 170.777 4.28317 -1.40909 0
M  V30 1830 C 169.439 4.47437 -1.77069 0
M  V30 1831 C 171.791 4.6867 -2.28031 0
M  V30 1832 C 169.119 5.04171 -3.00047 0
M  V30 1833 C 171.471 5.26766 -3.50286 0
M  V30 1834 C 170.135 5.44104 -3.86661 0
M  V30 1835 H 169.405 0.739089 -0.0531801 0
M  V30 1836 H 172.052 1.72781 -0.825761 0
M  V30 1837 H 170.357 3.8594 0.675095 0
M  V30 1838 H 172.054 3.99807 0.309145 0
M  V30 1839 H 168.644 4.1377 -1.1177 0
M  V30 1840 H 172.828 4.53604 -2.01388 0
M  V30 1841 H 168.084 5.15782 -3.28298 0
M  V30 1842 H 172.258 5.56983 -4.18023 0
M  V30 1843 H 169.885 5.87832 -4.82034 0
M  V30 1844 N 171.46 0.379036 1.52974 0
M  V30 1845 C 172.423 -0.448865 2.24762 0
M  V30 1846 C 173.423 -0.998689 1.26027 0
M  V30 1847 O 174.613 -0.882313 1.50203 0
M  V30 1848 C 171.745 -1.62872 2.99476 0
M  V30 1849 H 172.938 0.179491 2.99362 0
M  V30 1850 H 170.491 0.13096 1.5575 0
M  V30 1851 H 171.226 -2.29479 2.29151 0
M  V30 1852 H 171.011 -1.24128 3.71934 0
M  V30 1853 H 172.501 -2.2151 3.5401 0
M  V30 1854 N 172.938 -1.57226 0.108567 0
M  V30 1855 C 173.848 -2.18292 -0.859401 0
M  V30 1856 C 174.864 -1.15612 -1.30038 0
M  V30 1857 O 176.04 -1.48039 -1.36552 0
M  V30 1858 C 173.105 -2.762 -2.09558 0
M  V30 1859 C 172.166 -3.93881 -1.70752 0
M  V30 1860 C 171.399 -4.49018 -2.88477 0
M  V30 1861 O 171.622 -4.03068 -4.036 0
M  V30 1862 O 170.556 -5.39852 -2.66164 0
M  V30 1863 H 174.382 -3.01441 -0.369769 0
M  V30 1864 H 171.967 -1.48945 -0.1165 0
M  V30 1865 H 173.849 -3.13156 -2.81978 0
M  V30 1866 H 172.524 -1.96089 -2.57548 0
M  V30 1867 H 171.431 -3.61713 -0.954714 0
M  V30 1868 H 172.764 -4.75396 -1.27513 0
M  V30 1869 N 174.416 0.165178 -1.56732 0
M  V30 1870 C 175.346 1.20651 -1.99914 0
M  V30 1871 C 176.327 1.45827 -0.875705 0
M  V30 1872 O 177.512 1.57057 -1.14223 0
M  V30 1873 C 174.642 2.54401 -2.36427 0
M  V30 1874 C 173.596 2.43782 -3.51787 0
M  V30 1875 C 172.922 3.82078 -3.7406 0
M  V30 1876 C 174.222 1.93732 -4.85041 0
M  V30 1877 H 175.916 0.847534 -2.87154 0
M  V30 1878 H 173.462 0.40625 -1.38151 0
M  V30 1879 H 175.415 3.27458 -2.65234 0
M  V30 1880 H 174.139 2.92098 -1.46103 0
M  V30 1881 H 172.798 1.73178 -3.23117 0
M  V30 1882 H 172.446 4.17179 -2.81017 0
M  V30 1883 H 172.146 3.7584 -4.51684 0
M  V30 1884 H 173.67 4.56712 -4.05274 0
M  V30 1885 H 175.084 2.56569 -5.12684 0
M  V30 1886 H 173.481 1.98428 -5.66345 0
M  V30 1887 H 174.551 0.891962 -4.76626 0
M  V30 1888 N 175.894 1.51508 0.433938 0
M  V30 1889 C 176.841 1.73068 1.52696 0
M  V30 1890 C 177.811 0.572441 1.55924 0
M  V30 1891 O 178.996 0.807253 1.72882 0
M  V30 1892 C 176.136 1.86474 2.90381 0
M  V30 1893 C 175.249 3.14037 2.96656 0
M  V30 1894 C 174.384 3.18019 4.25485 0
M  V30 1895 C 173.423 4.39882 4.2564 0
M  V30 1896 N 172.56 4.41394 5.45999 0
M  V30 1897 H 177.4 2.66366 1.33615 0
M  V30 1898 H 174.937 1.32008 0.649018 0
M  V30 1899 H 176.895 1.92229 3.70275 0
M  V30 1900 H 175.525 0.965809 3.08013 0
M  V30 1901 H 174.577 3.17575 2.09404 0
M  V30 1902 H 175.889 4.0394 2.92633 0
M  V30 1903 H 175.043 3.22708 5.13755 0
M  V30 1904 H 173.782 2.2601 4.3217 0
M  V30 1905 H 172.787 4.35366 3.35763 0
M  V30 1906 H 174.012 5.33159 4.20617 0
M  V30 1907 H 171.958 3.52258 5.53399 0
M  V30 1908 H 171.875 5.25111 5.4387 0
M  V30 1909 H 173.143 4.50281 6.36292 0
M  V30 1910 N 177.372 -0.689602 1.41712 0
M  V30 1911 C 178.335 -1.78521 1.43746 0
M  V30 1912 C 179.335 -1.57436 0.327191 0
M  V30 1913 O 180.525 -1.64 0.587348 0
M  V30 1914 C 177.657 -3.16971 1.25467 0
M  V30 1915 H 178.85 -1.78108 2.41283 0
M  V30 1916 H 176.403 -0.89781 1.27942 0
M  V30 1917 H 177.138 -3.23019 0.287948 0
M  V30 1918 H 176.923 -3.33678 2.05917 0
M  V30 1919 H 178.413 -3.96935 1.2974 0
M  V30 1920 N 178.85 -1.27639 -0.924453 0
M  V30 1921 C 180.099 -1.13549 -1.66702 0
M  V30 1922 C 180.412 0.317487 -1.93006 0
M  V30 1923 O 181.618 0.579333 -2.65247 0
M  V30 1924 C 180.074 -1.98426 -3.00259 0
M  V30 1925 C 179.682 -3.484 -2.81641 0
M  V30 1926 C 181.426 -1.92993 -3.78092 0
M  V30 1927 C 179.333 -4.25464 -4.10773 0
M  V30 1928 H 178.263 -0.421351 -0.625283 0
M  V30 1929 H 180.914 -1.52085 -1.02676 0
M  V30 1930 H 179.296 -1.52736 -3.6536 0
M  V30 1931 H 180.47 -4.01973 -2.25287 0
M  V30 1932 H 178.785 -3.55245 -2.17232 0
M  V30 1933 H 181.382 -2.47844 -4.7379 0
M  V30 1934 H 181.725 -0.904281 -4.0636 0
M  V30 1935 H 182.258 -2.36595 -3.19793 0
M  V30 1936 H 178.997 -5.28566 -3.87683 0
M  V30 1937 H 178.517 -3.76667 -4.66779 0
M  V30 1938 H 180.196 -4.34812 -4.79111 0
M  V30 1939 N 180.328 1.1314 -1.09713 0
M  V30 1940 C 181.26 2.18343 -0.697056 0
M  V30 1941 C 182.273 1.60669 0.262551 0
M  V30 1942 O 183.462 1.78435 0.0481527 0
M  V30 1943 C 180.562 3.38899 -0.00684728 0
M  V30 1944 C 179.735 4.26078 -0.988741 0
M  V30 1945 C 178.794 5.25155 -0.331394 0
M  V30 1946 O 177.82 5.60701 -0.979926 0
M  V30 1947 N 179.022 5.73271 0.913261 0
M  V30 1948 H 181.787 2.5328 -1.60216 0
M  V30 1949 H 179.348 1.28491 -0.984971 0
M  V30 1950 H 181.34 4.02255 0.444191 0
M  V30 1951 H 179.91 3.02175 0.800551 0
M  V30 1952 H 179.13 3.59453 -1.61826 0
M  V30 1953 H 180.418 4.81178 -1.65364 0
M  V30 1954 H 179.816 5.46544 1.45966 0
M  V30 1955 H 178.373 6.3855 1.30757 0
M  V30 1956 N 181.806 0.884767 1.30421 0
M  V30 1957 C 182.716 0.355398 2.31892 0
M  V30 1958 C 183.732 -0.542261 1.65335 0
M  V30 1959 O 184.908 -0.435432 1.96637 0
M  V30 1960 C 181.973 -0.421661 3.44126 0
M  V30 1961 C 181.034 0.505727 4.26311 0
M  V30 1962 C 180.267 -0.234343 5.33185 0
M  V30 1963 O 180.49 -1.46045 5.51386 0
M  V30 1964 O 179.424 0.415443 6.00465 0
M  V30 1965 H 183.25 1.19685 2.79122 0
M  V30 1966 H 180.835 0.648596 1.34587 0
M  V30 1967 H 182.717 -0.861641 4.12497 0
M  V30 1968 H 181.392 -1.23942 2.99032 0
M  V30 1969 H 180.299 0.994513 3.60639 0
M  V30 1970 H 181.632 1.28948 4.75009 0
M  V30 1971 N 183.284 -1.43765 0.645699 0
M  V30 1972 C 184.695 -1.85193 0.236719 0
M  V30 1973 C 185.046 -1.54045 -1.21509 0
M  V30 1974 O 184.171 -0.985694 -1.92647 0
M  V30 1975 C 184.766 -3.36151 0.422845 0
M  V30 1976 C 183.325 -3.76338 0.0682492 0
M  V30 1977 C 182.472 -2.67538 0.729306 0
M  V30 1978 H 185.423 -1.34025 0.849883 0
M  V30 1979 H 185.444 -3.79032 -0.333904 0
M  V30 1980 H 184.956 -3.5879 1.47958 0
M  V30 1981 H 183.057 -3.59312 -0.986179 0
M  V30 1982 H 183.17 -4.76603 0.488469 0
M  V30 1983 H 181.534 -2.54176 0.163235 0
M  V30 1984 H 182.317 -2.93006 1.78892 0
M  V30 1985 N 184.763 -0.387143 -1.52771 0
M  V30 1986 C 186.04 0.253197 -1.93954 0
M  V30 1987 C 186.42 1.64545 -1.32243 0
M  V30 1988 O 185.768 2.23191 -0.489699 0
M  V30 1989 C 185.978 0.281722 -3.47861 0
M  V30 1990 C 187.326 0.511715 -4.21505 0
M  V30 1991 O 188.35 0.362023 -3.54356 0
M  V30 1992 O 187.209 0.804847 -5.40541 0
M  V30 1993 H 184.303 0.156845 -0.811991 0
M  V30 1994 H 186.849 -0.441494 -1.63856 0
M  V30 1995 H 185.621 -0.693571 -3.85104 0
M  V30 1996 H 185.244 1.02142 -3.84256 0
M  V30 1997 N 186.241 1.57166 -0.116904 0
M  V30 1998 C 187.518 1.86645 0.585049 0
M  V30 1999 C 187.898 1.0177 1.84949 0
M  V30 2000 O 187.246 0.0960379 2.28298 0
M  V30 2001 C 187.456 3.37736 0.879507 0
M  V30 2002 C 188.804 4.06289 1.23348 0
M  V30 2003 O 189.828 3.42743 0.969836 0
M  V30 2004 O 188.687 5.18455 1.7282 0
M  V30 2005 H 185.781 0.772593 0.295007 0
M  V30 2006 H 188.327 1.69025 -0.151249 0
M  V30 2007 H 187.099 3.91296 -0.0166136 0
M  V30 2008 H 186.722 3.6078 1.67103 0
M  V30 2009 N 187.719 -0.156864 1.56817 0
M  V30 2010 C 188.682 -1.17781 1.96622 0
M  V30 2011 C 189.682 -1.36401 0.851555 0
M  V30 2012 O 190.872 -1.33561 1.11836 0
M  V30 2013 C 188.004 -2.54008 2.27361 0
M  V30 2014 H 189.197 -0.836564 2.87996 0
M  V30 2015 H 186.75 -0.39985 1.51099 0
M  V30 2016 H 187.485 -2.9312 1.38748 0
M  V30 2017 H 187.27 -2.41856 3.08623 0
M  V30 2018 H 188.76 -3.27558 2.59029 0
M  V30 2019 N 189.197 -1.51736 -0.425897 0
M  V30 2020 C 190.613 -1.40166 -0.76326 0
M  V30 2021 C 190.813 -0.492962 -1.95377 0
M  V30 2022 O 189.869 0.0475815 -2.52455 0
M  V30 2023 C 191.182 -2.82403 -1.03291 0
M  V30 2024 C 192.73 -2.91632 -1.13665 0
M  V30 2025 C 193.205 -4.34801 -1.43916 0
M  V30 2026 N 194.696 -4.3796 -1.50816 0
M  V30 2027 C 195.431 -5.4578 -1.75817 0
M  V30 2028 N 194.927 -6.63744 -1.98534 0
M  V30 2029 N 196.72 -5.33274 -1.77694 0
M  V30 2030 H 188.871 -2.09361 0.358 0
M  V30 2031 H 191.134 -0.942941 0.0978094 0
M  V30 2032 H 190.84 -3.50943 -0.230696 0
M  V30 2033 H 190.714 -3.22428 -1.95754 0
M  V30 2034 H 193.101 -2.23284 -1.92947 0
M  V30 2035 H 193.182 -2.55088 -0.190756 0
M  V30 2036 H 192.826 -5.03703 -0.65157 0
M  V30 2037 H 192.756 -4.68868 -2.39729 0
M  V30 2038 H 195.247 -3.52919 -1.35118 0
M  V30 2039 H 195.56 -7.41704 -2.17013 0
M  V30 2040 H 193.905 -6.66839 -1.95832 0
M  V30 2041 H 197.096 -4.40098 -1.59473 0
M  V30 2042 H 197.269 -6.1738 -1.9684 0
M  V30 2043 N 190.675 0.682077 -1.42076 0
M  V30 2044 C 191.952 1.43755 -1.32642 0
M  V30 2045 C 192.332 2.11063 0.0396611 0
M  V30 2046 O 191.68 2.02701 1.05474 0
M  V30 2047 C 191.89 2.44596 -2.48946 0
M  V30 2048 C 193.238 3.09454 -2.9073 0
M  V30 2049 O 194.262 2.54922 -2.48783 0
M  V30 2050 O 193.121 4.08253 -3.63307 0
M  V30 2051 H 190.215 0.640857 -0.522715 0
M  V30 2052 H 192.761 0.711415 -1.54068 0
M  V30 2053 H 191.533 1.93609 -3.40046 0
M  V30 2054 H 191.156 3.24701 -2.29467 0
M  V30 2055 N 192.153 1.28127 0.917671 0
M  V30 2056 C 193.383 1.17722 1.6978 0
M  V30 2057 C 193.791 -0.267261 1.87303 0
M  V30 2058 O 193.134 -1.19286 1.39702 0
M  V30 2059 C 193.196 1.79958 3.11216 0
M  V30 2060 C 192.86 3.29187 3.16993 0
M  V30 2061 C 193.857 4.25679 2.98485 0
M  V30 2062 C 191.542 3.70075 3.39632 0
M  V30 2063 C 193.536 5.61035 3.02521 0
M  V30 2064 C 191.223 5.05557 3.433 0
M  V30 2065 C 192.221 6.00847 3.24764 0
M  V30 2066 O 191.909 7.33859 3.28187 0
M  V30 2067 H 191.641 0.409788 0.537634 0
M  V30 2068 H 194.195 1.69694 1.15728 0
M  V30 2069 H 192.425 1.22475 3.66793 0
M  V30 2070 H 194.114 1.64125 3.71238 0
M  V30 2071 H 194.88 3.95426 2.80826 0
M  V30 2072 H 190.759 2.96373 3.53106 0
M  V30 2073 H 194.303 6.35388 2.87971 0
M  V30 2074 H 190.2 5.35462 3.60486 0
M  V30 2075 H 190.968 7.42436 3.44575 0
M  V30 2076 N 193.631 -1.12557 1.10312 0
M  V30 2077 C 194.878 -1.84038 0.844759 0
M  V30 2078 C 195.206 -1.84026 -0.629668 0
M  V30 2079 O 194.461 -1.28026 -1.48013 0
M  V30 2080 C 194.76 -3.31462 1.33669 0
M  V30 2081 C 194.426 -3.51647 2.82232 0
M  V30 2082 C 193.088 -3.56864 3.22802 0
M  V30 2083 C 195.44 -3.58867 3.77974 0
M  V30 2084 C 192.768 -3.66844 4.57867 0
M  V30 2085 C 195.12 -3.70375 5.1284 0
M  V30 2086 C 193.784 -3.73848 5.52986 0
M  V30 2087 H 193.054 -0.673444 0.309119 0
M  V30 2088 H 195.701 -1.32824 1.37949 0
M  V30 2089 H 194.006 -3.85091 0.721949 0
M  V30 2090 H 195.703 -3.85236 1.11329 0
M  V30 2091 H 192.293 -3.48249 2.49842 0
M  V30 2092 H 196.477 -3.54107 3.47738 0
M  V30 2093 H 191.733 -3.67804 4.88396 0
M  V30 2094 H 195.907 -3.74904 5.86873 0
M  V30 2095 H 193.534 -3.81333 6.57639 0
M  V30 2096 N 195.109 -0.891671 -1.2995 0
M  V30 2097 C 196.041 -0.320695 -2.26945 0
M  V30 2098 C 197.054 0.528497 -1.53983 0
M  V30 2099 O 198.243 0.346959 -1.75096 0
M  V30 2100 C 195.343 0.562066 -3.34207 0
M  V30 2101 C 194.516 -0.259576 -4.36629 0
M  V30 2102 C 193.575 0.554739 -5.23268 0
M  V30 2103 O 192.601 -0.0249311 -5.69195 0
M  V30 2104 N 193.803 1.8625 -5.4981 0
M  V30 2105 H 196.568 -1.15432 -2.76578 0
M  V30 2106 H 194.129 -0.755336 -1.432 0
M  V30 2107 H 196.121 1.11304 -3.89093 0
M  V30 2108 H 194.691 1.29637 -2.84452 0
M  V30 2109 H 193.911 -0.991986 -3.81514 0
M  V30 2110 H 195.199 -0.822564 -5.02107 0
M  V30 2111 H 194.597 2.35628 -5.14292 0
M  V30 2112 H 193.154 2.36078 -6.07545 0
M  V30 2113 N 196.587 1.43421 -0.653314 0
M  V30 2114 C 197.52 2.2803 0.0879804 0
M  V30 2115 C 198.498 1.39833 0.82979 0
M  V30 2116 O 199.682 1.69275 0.829341 0
M  V30 2117 C 196.809 3.19247 1.13132 0
M  V30 2118 C 195.855 4.23704 0.487546 0
M  V30 2119 S 196.688 5.30377 -0.738961 0
M  V30 2120 C 197.844 6.25162 0.30384 0
M  V30 2121 H 198.077 2.90554 -0.629739 0
M  V30 2122 H 195.61 1.47934 -0.442156 0
M  V30 2123 H 197.568 3.72346 1.72827 0
M  V30 2124 H 196.229 2.55901 1.82136 0
M  V30 2125 H 195.422 4.87631 1.27407 0
M  V30 2126 H 195.024 3.73983 -0.0352915 0
M  V30 2127 H 197.316 6.67321 1.17 0
M  V30 2128 H 198.259 7.07463 -0.300402 0
M  V30 2129 H 198.667 5.60864 0.63969 0
M  V30 2130 N 198.065 0.39524 1.52563 0
M  V30 2131 C 199.028 -0.425001 2.25225 0
M  V30 2132 C 200.028 -0.985266 1.27079 0
M  V30 2133 O 201.218 -0.866332 1.5113 0
M  V30 2134 C 198.35 -1.59686 3.01186 0
M  V30 2135 H 199.543 0.211233 2.99155 0
M  V30 2136 H 197.096 0.147472 1.55603 0
M  V30 2137 H 197.831 -2.27035 2.31572 0
M  V30 2138 H 197.616 -1.20176 3.73229 0
M  V30 2139 H 199.106 -2.17743 3.5634 0
M  V30 2140 N 199.544 -1.57102 0.125237 0
M  V30 2141 C 200.96 -1.57915 -0.231322 0
M  V30 2142 C 201.16 -1.13833 -1.66266 0
M  V30 2143 O 200.216 -0.828581 -2.38518 0
M  V30 2144 C 201.529 -3.00699 0.00766489 0
M  V30 2145 C 203.077 -3.12947 -0.0577483 0
M  V30 2146 C 203.552 -4.57742 0.153626 0
M  V30 2147 N 205.043 -4.63092 0.0998073 0
M  V30 2148 C 205.778 -5.72905 0.238174 0
M  V30 2149 N 205.274 -6.91445 0.433057 0
M  V30 2150 N 207.067 -5.6182 0.177308 0
M  V30 2151 H 199.218 -1.84055 1.06007 0
M  V30 2152 H 201.481 -0.850905 0.417929 0
M  V30 2153 H 201.187 -3.3726 0.997431 0
M  V30 2154 H 201.061 -3.70236 -0.721452 0
M  V30 2155 H 203.448 -2.7624 -1.03804 0
M  V30 2156 H 203.529 -2.4594 0.70335 0
M  V30 2157 H 203.173 -4.95149 1.13092 0
M  V30 2158 H 203.103 -5.22848 -0.627534 0
M  V30 2159 H 205.594 -3.77871 -0.047051 0
M  V30 2160 H 205.907 -7.70985 0.529332 0
M  V30 2161 H 204.252 -6.93415 0.469109 0
M  V30 2162 H 207.443 -4.68093 0.0259748 0
M  V30 2163 H 207.616 -6.47357 0.288582 0
M  V30 2164 N 201.022 0.148545 -1.56898 0
M  V30 2165 C 201.985 1.16736 -1.97244 0
M  V30 2166 C 202.985 1.35947 -0.858777 0
M  V30 2167 O 204.175 1.32966 -1.12542 0
M  V30 2168 C 201.307 2.52798 -2.28705 0
M  V30 2169 H 202.5 0.821279 -2.88435 0
M  V30 2170 H 200.053 0.391831 -1.51309 0
M  V30 2171 H 200.788 2.92381 -1.403 0
M  V30 2172 H 200.573 2.40216 -3.09901 0
M  V30 2173 H 202.063 3.26179 -2.60762 0
M  V30 2174 N 202.5 1.5196 0.417844 0
M  V30 2175 C 203.448 1.75278 1.52907 0
M  V30 2176 C 204.442 0.619611 1.57662 0
M  V30 2177 O 205.648 0.801457 1.61173 0
M  V30 2178 H 202.023 0.554141 0.508362 0
M  V30 2179 H 203.994 2.68389 1.30422 0
M  V30 2180 C 202.743 1.91262 2.90369 0
M  V30 2181 H 202.066 2.77872 2.8745 0
M  V30 2182 H 203.506 2.11581 3.67436 0
M  V30 2183 C 201.965 0.677431 3.30019 0
M  V30 2184 O 202.495 -0.158799 4.01386 0
M  V30 2185 N 200.701 0.515851 2.85985 0
M  V30 2186 H 200.248 1.19744 2.28077 0
M  V30 2187 H 200.206 -0.309315 3.12875 0
M  V30 2188 N 203.978 -0.674533 1.42435 0
M  V30 2189 C 205.218 -1.4466 1.44405 0
M  V30 2190 C 205.582 -1.91911 0.0585784 0
M  V30 2191 O 206.783 -2.68759 -0.0469991 0
M  V30 2192 C 205.054 -2.61136 2.44013 0
M  V30 2193 S 206.613 -3.49981 2.64687 0
M  V30 2194 H 203.431 -0.494074 0.511284 0
M  V30 2195 H 206.033 -0.785162 1.7904 0
M  V30 2196 H 204.737 -2.24662 3.43446 0
M  V30 2197 H 204.268 -3.32153 2.10803 0
M  V30 2198 H 206.283 -4.57124 1.93007 0
M  V30 2199 N 205.456 -1.28612 -0.910864 0
M  V30 2200 C 206.403 -1.12786 -2.01365 0
M  V30 2201 C 207.373 -0.024201 -1.66082 0
M  V30 2202 O 208.558 -0.189667 -1.89855 0
M  V30 2203 C 205.698 -0.798743 -3.35729 0
M  V30 2204 C 204.811 -1.98173 -3.83864 0
M  V30 2205 C 203.946 -1.59298 -5.06752 0
M  V30 2206 C 202.985 -2.74245 -5.47226 0
M  V30 2207 N 202.122 -2.35842 -6.61304 0
M  V30 2208 H 206.962 -2.07142 -2.14234 0
M  V30 2209 H 204.499 -1.03093 -1.0493 0
M  V30 2210 H 206.457 -0.588662 -4.13026 0
M  V30 2211 H 205.087 0.10789 -3.2262 0
M  V30 2212 H 204.139 -2.30386 -3.02699 0
M  V30 2213 H 205.451 -2.84343 -4.09818 0
M  V30 2214 H 204.605 -1.34513 -5.916 0
M  V30 2215 H 203.344 -0.702618 -4.82612 0
M  V30 2216 H 202.349 -2.99725 -4.60918 0
M  V30 2217 H 203.574 -3.63928 -5.73353 0
M  V30 2218 H 201.52 -1.49279 -6.38789 0
M  V30 2219 H 201.437 -3.15546 -6.86998 0
M  V30 2220 H 202.705 -2.14348 -7.4945 0
M  V30 2221 N 206.934 1.1197 -1.10907 0
M  V30 2222 C 207.881 2.17846 -0.762345 0
M  V30 2223 C 208.851 1.63995 0.263599 0
M  V30 2224 O 210.036 1.90273 0.141773 0
M  V30 2225 C 207.176 3.44487 -0.205651 0
M  V30 2226 C 206.289 4.12369 -1.28748 0
M  V30 2227 C 205.424 5.26674 -0.691919 0
M  V30 2228 C 204.463 5.86431 -1.75399 0
M  V30 2229 N 203.6 6.92142 -1.17833 0
M  V30 2230 H 208.44 2.46851 -1.6694 0
M  V30 2231 H 205.977 1.21188 -0.833776 0
M  V30 2232 H 207.935 4.16981 0.135037 0
M  V30 2233 H 206.565 3.15884 0.664613 0
M  V30 2234 H 205.617 3.38003 -1.74522 0
M  V30 2235 H 206.929 4.52844 -2.09125 0
M  V30 2236 H 206.083 6.05953 -0.300963 0
M  V30 2237 H 204.822 4.8749 0.143232 0
M  V30 2238 H 203.827 5.05835 -2.15432 0
M  V30 2239 H 205.052 6.27685 -2.59208 0
M  V30 2240 H 202.998 6.54985 -0.364725 0
M  V30 2241 H 202.915 7.31242 -1.91887 0
M  V30 2242 H 204.183 7.75237 -0.81408 0
M  V30 2243 N 208.412 0.89855 1.29475 0
M  V30 2244 C 209.659 0.523882 1.95606 0
M  V30 2245 C 209.987 -0.929608 1.70847 0
M  V30 2246 O 209.242 -1.67401 1.01367 0
M  V30 2247 C 209.541 0.761398 3.49195 0
M  V30 2248 C 209.207 2.19207 3.94029 0
M  V30 2249 C 207.869 2.58326 4.05982 0
M  V30 2250 C 210.221 3.12379 4.17216 0
M  V30 2251 C 207.549 3.898 4.38489 0
M  V30 2252 C 209.901 4.43401 4.51197 0
M  V30 2253 C 208.565 4.82394 4.61359 0
M  V30 2254 H 207.835 0.191702 0.715773 0
M  V30 2255 H 210.482 1.13699 1.54094 0
M  V30 2256 H 208.787 0.0653622 3.91745 0
M  V30 2257 H 210.484 0.450904 3.98457 0
M  V30 2258 H 207.074 1.87846 3.85242 0
M  V30 2259 H 211.258 2.83371 4.07449 0
M  V30 2260 H 206.514 4.19734 4.44559 0
M  V30 2261 H 210.688 5.15623 4.68087 0
M  V30 2262 H 208.315 5.84306 4.86303 0
M  V30 2263 N 209.89 -1.43072 0.660911 0
M  V30 2264 C 210.853 -2.29194 -0.0166406 0
M  V30 2265 C 211.853 -1.42609 -0.742912 0
M  V30 2266 O 213.043 -1.64155 -0.583004 0
M  V30 2267 C 210.175 -3.24831 -1.0343 0
M  V30 2268 H 211.368 -2.90596 0.741208 0
M  V30 2269 H 208.921 -1.5048 0.422532 0
M  V30 2270 H 209.656 -2.68339 -1.82111 0
M  V30 2271 H 209.441 -3.88676 -0.517082 0
M  V30 2272 H 210.931 -3.89451 -1.50723 0
M  V30 2273 N 211.368 -0.403325 -1.52352 0
M  V30 2274 C 212.615 0.174347 -2.01748 0
M  V30 2275 C 212.943 1.45636 -1.2892 0
M  V30 2276 O 212.198 1.9193 -0.382258 0
M  V30 2277 C 212.497 0.474665 -3.54234 0
M  V30 2278 C 212.163 -0.717458 -4.45155 0
M  V30 2279 C 210.825 -1.04447 -4.69728 0
M  V30 2280 C 213.177 -1.51432 -4.98716 0
M  V30 2281 C 210.505 -2.16963 -5.45109 0
M  V30 2282 C 212.857 -2.6302 -5.75329 0
M  V30 2283 C 211.521 -2.96213 -5.98175 0
M  V30 2284 H 210.791 0.0637981 -0.738248 0
M  V30 2285 H 213.438 -0.543553 -1.83624 0
M  V30 2286 H 211.743 1.27406 -3.70506 0
M  V30 2287 H 213.44 0.934496 -3.89959 0
M  V30 2288 H 210.03 -0.452596 -4.26204 0
M  V30 2289 H 214.214 -1.27491 -4.79645 0
M  V30 2290 H 209.47 -2.43034 -5.61021 0
M  V30 2291 H 213.644 -3.25158 -6.15829 0
M  V30 2292 H 211.271 -3.83516 -6.56368 0
M  V30 2293 N 212.846 1.57033 -0.133567 0
M  V30 2294 C 214.092 1.95976 0.521649 0
M  V30 2295 C 214.425 1.01779 1.65393 0
M  V30 2296 O 213.7 0.0576581 1.94415 0
M  V30 2297 C 213.983 3.44738 1.04057 0
M  V30 2298 C 213.836 4.49711 -0.0892897 0
M  V30 2299 C 215.155 3.95682 1.92675 0
M  V30 2300 H 212.274 0.712579 0.188149 0
M  V30 2301 H 214.916 1.88813 -0.212076 0
M  V30 2302 H 213.066 3.50973 1.66583 0
M  V30 2303 H 214.738 4.55565 -0.725152 0
M  V30 2304 H 212.981 4.27261 -0.750378 0
M  V30 2305 H 213.652 5.51099 0.315284 0
M  V30 2306 H 216.128 3.91841 1.39998 0
M  V30 2307 H 215.004 5.00262 2.25897 0
M  V30 2308 H 215.265 3.37239 2.85872 0
M  V30 2309 N 214.325 -0.140222 1.56975 0
M  V30 2310 C 215.275 -1.17827 1.95194 0
M  V30 2311 C 216.259 -1.38195 0.824075 0
M  V30 2312 O 217.451 -1.39643 1.0876 0
M  V30 2313 C 214.58 -2.51024 2.34184 0
M  V30 2314 C 213.666 -2.3422 3.53556 0
M  V30 2315 N 214.057 -1.87185 4.69889 0
M  V30 2316 C 212.355 -2.64949 3.58773 0
M  V30 2317 C 213.056 -1.83586 5.5197 0
M  V30 2318 N 212.032 -2.2715 4.93866 0
M  V30 2319 H 215.834 -0.806817 2.82609 0
M  V30 2320 H 213.348 -0.348208 1.58623 0
M  V30 2321 H 215.345 -3.26074 2.59772 0
M  V30 2322 H 214.005 -2.88945 1.48124 0
M  V30 2323 H 215.016 -1.57048 4.93514 0
M  V30 2324 H 211.693 -3.067 2.8327 0
M  V30 2325 H 213.083 -1.48655 6.55249 0
M  V30 2326 N 215.803 -1.52179 -0.40978 0
M  V30 2327 C 217.052 -1.65434 -1.15388 0
M  V30 2328 C 217.365 -0.390056 -1.91671 0
M  V30 2329 O 218.571 -0.402399 -2.68501 0
M  V30 2330 C 217.027 -2.92279 -2.10003 0
M  V30 2331 C 216.635 -4.25813 -1.39239 0
M  V30 2332 C 218.379 -3.14897 -2.84675 0
M  V30 2333 C 216.286 -5.43782 -2.32498 0
M  V30 2334 H 215.216 -0.616267 -0.434432 0
M  V30 2335 H 217.867 -1.78666 -0.418401 0
M  V30 2336 H 216.249 -2.72744 -2.871 0
M  V30 2337 H 217.423 -4.55828 -0.675099 0
M  V30 2338 H 215.738 -4.09292 -0.766097 0
M  V30 2339 H 218.335 -4.0021 -3.54593 0
M  V30 2340 H 218.678 -2.29103 -3.47588 0
M  V30 2341 H 219.211 -3.34901 -2.14677 0
M  V30 2342 H 215.95 -6.3192 -1.74233 0
M  V30 2343 H 215.47 -5.18106 -3.02201 0
M  V30 2344 H 217.149 -5.76834 -2.93038 0
M  V30 2345 N 217.281 0.66697 -1.42791 0
M  V30 2346 C 218.506 1.46004 -1.47301 0
M  V30 2347 C 218.931 1.87894 -0.0880317 0
M  V30 2348 O 218.289 1.56502 0.915253 0
M  V30 2349 C 218.337 2.68031 -2.41229 0
M  V30 2350 O 217.441 3.6659 -1.88906 0
M  V30 2351 H 216.782 0.43832 -0.49877 0
M  V30 2352 H 219.312 0.817391 -1.87563 0
M  V30 2353 H 219.322 3.1601 -2.58073 0
M  V30 2354 H 217.997 2.36883 -3.41847 0
M  V30 2355 H 216.574 3.25661 -1.81656 0
M  V30 2356 N 218.759 1.29093 0.90403 0
M  V30 2357 C 220.006 1.16813 1.65411 0
M  V30 2358 C 220.334 -0.28128 1.92455 0
M  V30 2359 O 219.589 -1.22006 1.53013 0
M  V30 2360 C 219.888 1.92224 3.01305 0
M  V30 2361 C 219.554 3.41968 2.93885 0
M  V30 2362 C 218.216 3.82807 2.91569 0
M  V30 2363 C 220.568 4.37409 2.83413 0
M  V30 2364 C 217.896 5.1741 2.76594 0
M  V30 2365 C 220.248 5.72097 2.69977 0
M  V30 2366 C 218.912 6.12199 2.66024 0
M  V30 2367 H 218.182 0.42745 0.605283 0
M  V30 2368 H 220.829 1.59981 1.05254 0
M  V30 2369 H 219.134 1.41635 3.65304 0
M  V30 2370 H 220.831 1.80131 3.58265 0
M  V30 2371 H 217.421 3.09504 2.96488 0
M  V30 2372 H 221.605 4.06813 2.84283 0
M  V30 2373 H 216.861 5.47596 2.71935 0
M  V30 2374 H 221.035 6.45704 2.60844 0
M  V30 2375 H 218.662 7.16448 2.54178 0
M  V30 2376 N 220.237 -1.11381 1.11499 0
M  V30 2377 C 221.2 -2.15622 0.777153 0
M  V30 2378 C 222.2 -1.59504 -0.203779 0
M  V30 2379 O 223.39 -1.74188 0.020782 0
M  V30 2380 C 220.522 -3.40556 0.153116 0
M  V30 2381 H 221.715 -2.47021 1.70061 0
M  V30 2382 H 219.268 -1.26577 0.916952 0
M  V30 2383 H 220.003 -3.14767 -0.780536 0
M  V30 2384 H 219.788 -3.8257 0.859238 0
M  V30 2385 H 221.278 -4.17546 -0.0671044 0
M  V30 2386 N 221.715 -0.905404 -1.28997 0
M  V30 2387 C 222.647 -0.344748 -2.26592 0
M  V30 2388 C 223.66 0.512135 -1.54535 0
M  V30 2389 O 224.849 0.328368 -1.75454 0
M  V30 2390 C 221.949 0.526587 -3.34784 0
M  V30 2391 C 221.122 -0.305871 -4.36329 0
M  V30 2392 C 220.181 0.499209 -5.23827 0
M  V30 2393 O 219.207 -0.0853004 -5.69136 0
M  V30 2394 N 220.409 1.80408 -5.51755 0
M  V30 2395 H 223.174 -1.18359 -2.75338 0
M  V30 2396 H 220.735 -0.770481 -1.42391 0
M  V30 2397 H 222.727 1.07171 -3.90252 0
M  V30 2398 H 221.297 1.26613 -2.85811 0
M  V30 2399 H 220.517 -1.0324 -3.80441 0
M  V30 2400 H 221.805 -0.875773 -5.01206 0
M  V30 2401 H 221.203 2.3016 -5.16762 0
M  V30 2402 H 219.76 2.29621 -6.10014 0
M  V30 2403 N 223.193 1.4272 -0.668489 0
M  V30 2404 C 224.44 2.01624 -0.18814 0
M  V30 2405 C 224.768 1.5282 1.20317 0
M  V30 2406 O 224.023 0.718323 1.8204 0
M  V30 2407 C 224.322 3.57021 -0.164499 0
M  V30 2408 C 223.988 4.25232 -1.49962 0
M  V30 2409 C 222.65 4.4358 -1.8652 0
M  V30 2410 C 225.002 4.63727 -2.37921 0
M  V30 2411 C 222.33 4.97694 -3.10674 0
M  V30 2412 C 224.682 5.19218 -3.6138 0
M  V30 2413 C 223.346 5.3578 -3.98115 0
M  V30 2414 H 222.616 0.737795 -0.0688454 0
M  V30 2415 H 225.263 1.70991 -0.862225 0
M  V30 2416 H 223.568 3.87285 0.593079 0
M  V30 2417 H 225.265 4.00372 0.224271 0
M  V30 2418 H 221.855 4.11306 -1.20522 0
M  V30 2419 H 226.039 4.4923 -2.10964 0
M  V30 2420 H 221.295 5.08702 -3.39164 0
M  V30 2421 H 225.469 5.4799 -4.29743 0
M  V30 2422 H 223.096 5.77475 -4.94395 0
M  V30 2423 N 224.671 0.411399 1.52136 0
M  V30 2424 C 225.581 -0.419774 2.30814 0
M  V30 2425 C 226.597 -1.0515 1.38634 0
M  V30 2426 O 227.773 -1.05252 1.71709 0
M  V30 2427 C 224.838 -1.52019 3.11594 0
M  V30 2428 C 223.899 -0.91129 4.19516 0
M  V30 2429 C 223.132 -1.95927 4.96436 0
M  V30 2430 O 223.355 -3.17775 4.73683 0
M  V30 2431 O 222.289 -1.56423 5.81219 0
M  V30 2432 H 226.115 0.221805 3.02889 0
M  V30 2433 H 223.7 0.174547 1.48377 0
M  V30 2434 H 225.582 -2.15898 3.61892 0
M  V30 2435 H 224.257 -2.14633 2.42311 0
M  V30 2436 H 223.164 -0.235157 3.7336 0
M  V30 2437 H 224.497 -0.32904 4.91099 0
M  V30 2438 N 226.149 -1.5696 0.141893 0
M  V30 2439 C 227.079 -2.19516 -0.795936 0
M  V30 2440 C 228.06 -1.14187 -1.26077 0
M  V30 2441 O 229.245 -1.42511 -1.31925 0
M  V30 2442 C 226.375 -2.81272 -2.03723 0
M  V30 2443 C 225.329 -3.92384 -1.70936 0
M  V30 2444 C 224.655 -4.41052 -3.02287 0
M  V30 2445 C 225.955 -5.13403 -0.959954 0
M  V30 2446 H 227.649 -2.98138 -0.274596 0
M  V30 2447 H 225.195 -1.43406 -0.130636 0
M  V30 2448 H 227.148 -3.237 -2.69808 0
M  V30 2449 H 225.872 -1.99973 -2.58221 0
M  V30 2450 H 224.531 -3.50566 -1.07232 0
M  V30 2451 H 224.179 -3.56582 -3.54765 0
M  V30 2452 H 223.879 -5.15993 -2.81114 0
M  V30 2453 H 225.403 -4.86146 -3.69451 0
M  V30 2454 H 226.817 -5.52706 -1.52279 0
M  V30 2455 H 225.214 -5.94073 -0.848357 0
M  V30 2456 H 226.284 -4.84875 0.0492434 0
M  V30 2457 N 227.627 0.131896 -1.57047 0
M  V30 2458 C 228.852 0.860418 -1.8871 0
M  V30 2459 C 229.277 1.73251 -0.73251 0
M  V30 2460 O 228.635 1.785 0.317429 0
M  V30 2461 C 228.683 1.68047 -3.19049 0
M  V30 2462 O 227.787 2.7862 -3.04047 0
M  V30 2463 H 227.128 0.238743 -0.619595 0
M  V30 2464 H 229.658 0.118169 -2.04258 0
M  V30 2465 H 229.668 2.07238 -3.51449 0
M  V30 2466 H 228.343 1.04018 -4.02682 0
M  V30 2467 H 226.92 2.42726 -2.83088 0
M  V30 2468 N 229.106 1.52395 0.401703 0
M  V30 2469 C 230.038 1.72505 1.50912 0
M  V30 2470 C 231.051 0.605468 1.51122 0
M  V30 2471 O 232.24 0.880828 1.55254 0
M  V30 2472 C 229.34 1.75711 2.89791 0
M  V30 2473 C 228.513 3.04824 3.1369 0
M  V30 2474 C 227.572 2.99743 4.32482 0
M  V30 2475 O 226.598 3.73635 4.29402 0
M  V30 2476 N 227.8 2.18047 5.37992 0
M  V30 2477 H 230.565 2.68049 1.34052 0
M  V30 2478 H 228.126 1.50724 0.591084 0
M  V30 2479 H 230.118 1.69834 3.6734 0
M  V30 2480 H 228.688 0.876092 3.00072 0
M  V30 2481 H 227.908 3.2429 2.24119 0
M  V30 2482 H 229.196 3.90221 3.26504 0
M  V30 2483 H 228.594 1.57456 5.43345 0
M  V30 2484 H 227.151 2.18021 6.14256 0
M  V30 2485 N 230.584 -0.659388 1.43143 0
M  V30 2486 C 231.832 -1.41654 1.44147 0
M  V30 2487 C 232.153 -1.94893 0.0645739 0
M  V30 2488 O 231.423 -1.74044 -0.899198 0
M  V30 2489 H 230.003 -0.525708 0.530697 0
M  V30 2490 H 232.665 -0.778097 1.78694 0
M  V30 2491 H 231.761 -2.26195 2.1504 0
M  V30 2492 N 232.062 -1.29571 -0.897171 0
M  V30 2493 C 233.01 -1.14802 -2.02295 0
M  V30 2494 C 234.004 -0.0629637 -1.69283 0
M  V30 2495 O 235.21 -0.222945 -1.78614 0
M  V30 2496 H 231.585 -0.354692 -0.663097 0
M  V30 2497 H 233.556 -2.10108 -2.11889 0
M  V30 2498 C 232.305 -0.843966 -3.37302 0
M  V30 2499 H 231.628 -1.67093 -3.63208 0
M  V30 2500 H 233.068 -0.780672 -4.16751 0
M  V30 2501 C 231.527 0.452843 -3.33843 0
M  V30 2502 O 232.057 1.47813 -3.73516 0
M  V30 2503 N 230.263 0.459601 -2.86943 0
M  V30 2504 H 229.81 -0.375213 -2.54853 0
M  V30 2505 H 229.768 1.32726 -2.85011 0
M  V30 2506 N 233.54 1.10788 -1.12088 0
M  V30 2507 C 234.786 1.82942 -0.875226 0
M  V30 2508 C 235.119 1.84779 0.597538 0
M  V30 2509 O 234.394 1.30578 1.44152 0
M  V30 2510 C 234.677 3.29789 -1.44606 0
M  V30 2511 C 234.53 3.36307 -2.98693 0
M  V30 2512 C 235.849 4.26064 -1.10261 0
M  V30 2513 H 232.968 0.664195 -0.319397 0
M  V30 2514 H 235.61 1.29867 -1.38689 0
M  V30 2515 H 233.76 3.75118 -1.01089 0
M  V30 2516 H 235.432 2.99487 -3.50864 0
M  V30 2517 H 233.675 2.76318 -3.34411 0
M  V30 2518 H 234.346 4.39694 -3.33726 0
M  V30 2519 H 236.822 3.88951 -1.4784 0
M  V30 2520 H 235.698 5.27183 -1.52869 0
M  V30 2521 H 235.959 4.42098 -0.0142953 0
M  V30 2522 N 235.018 0.912232 1.28515 0
M  V30 2523 C 235.965 0.397954 2.27343 0
M  V30 2524 C 236.935 -0.526766 1.57526 0
M  V30 2525 O 238.12 -0.449292 1.85435 0
M  V30 2526 C 235.26 -0.357263 3.43246 0
M  V30 2527 C 234.373 0.599788 4.27816 0
M  V30 2528 C 233.508 -0.173725 5.30916 0
M  V30 2529 C 232.547 0.777039 6.07148 0
M  V30 2530 N 231.684 0.0371398 7.0209 0
M  V30 2531 H 236.524 1.24577 2.70711 0
M  V30 2532 H 234.061 0.625612 1.33133 0
M  V30 2533 H 236.019 -0.8113 4.09236 0
M  V30 2534 H 234.649 -1.16943 3.00872 0
M  V30 2535 H 233.701 1.17235 3.61884 0
M  V30 2536 H 235.013 1.32704 4.80823 0
M  V30 2537 H 234.167 -0.688394 6.02782 0
M  V30 2538 H 232.906 -0.934041 4.78672 0
M  V30 2539 H 231.911 1.3031 5.34134 0
M  V30 2540 H 233.136 1.53689 6.61481 0
M  V30 2541 H 231.082 -0.705213 6.52198 0
M  V30 2542 H 230.999 0.704249 7.52713 0
M  V30 2543 H 232.267 -0.457383 7.78157 0
M  V30 2544 N 236.496 -1.42363 0.676048 0
M  V30 2545 C 237.443 -2.308 -0.00150904 0
M  V30 2546 C 238.413 -1.46032 -0.791444 0
M  V30 2547 O 239.598 -1.74861 -0.76344 0
M  V30 2548 C 236.738 -3.31883 -0.945919 0
M  V30 2549 C 235.851 -4.31741 -0.149675 0
M  V30 2550 C 234.986 -5.19898 -1.08995 0
M  V30 2551 C 234.025 -6.11434 -0.285465 0
M  V30 2552 N 233.162 -6.92138 -1.17851 0
M  V30 2553 H 238.002 -2.88187 0.758455 0
M  V30 2554 H 235.539 -1.41952 0.38576 0
M  V30 2555 H 237.497 -3.89019 -1.50731 0
M  V30 2556 H 236.127 -2.76093 -1.6725 0
M  V30 2557 H 235.179 -3.76713 0.528359 0
M  V30 2558 H 236.491 -4.96534 0.474866 0
M  V30 2559 H 235.645 -5.81772 -1.72123 0
M  V30 2560 H 234.384 -4.55284 -1.74837 0
M  V30 2561 H 233.389 -5.48627 0.359018 0
M  V30 2562 H 234.614 -6.78097 0.368883 0
M  V30 2563 H 232.56 -6.30152 -1.82332 0
M  V30 2564 H 232.477 -7.53542 -0.609082 0
M  V30 2565 H 233.745 -7.58499 -1.79722 0
M  V30 2566 N 237.974 -0.419461 -1.51915 0
M  V30 2567 C 239.199 0.154572 -2.06823 0
M  V30 2568 C 239.624 1.3722 -1.28656 0
M  V30 2569 O 238.982 1.78461 -0.319583 0
M  V30 2570 C 239.03 0.473172 -3.57482 0
M  V30 2571 O 238.134 1.56255 -3.81652 0
M  V30 2572 H 237.475 0.0096924 -0.663929 0
M  V30 2573 H 240.005 -0.595642 -1.95738 0
M  V30 2574 H 240.015 0.728825 -4.01438 0
M  V30 2575 H 238.69 -0.416873 -4.13805 0
M  V30 2576 H 237.267 1.29825 -3.49571 0
M  V30 2577 N 239.452 1.56882 -0.150215 0
M  V30 2578 C 240.399 2.16922 0.788244 0
M  V30 2579 C 241.369 1.10303 1.24187 0
M  V30 2580 O 242.554 1.38359 1.31383 0
M  V30 2581 C 239.694 2.79754 2.02068 0
M  V30 2582 C 238.807 4.00775 1.61257 0
M  V30 2583 C 237.942 4.51595 2.79705 0
M  V30 2584 C 236.981 5.65074 2.35282 0
M  V30 2585 N 236.118 6.10499 3.4675 0
M  V30 2586 H 240.958 2.96779 0.269444 0
M  V30 2587 H 238.495 1.46599 0.12128 0
M  V30 2588 H 240.453 3.14329 2.74323 0
M  V30 2589 H 239.083 2.02536 2.51354 0
M  V30 2590 H 238.135 3.72158 0.787553 0
M  V30 2591 H 239.447 4.82978 1.24633 0
M  V30 2592 H 238.601 4.88242 3.60145 0
M  V30 2593 H 237.34 3.68406 3.19576 0
M  V30 2594 H 236.345 5.28 1.53283 0
M  V30 2595 H 237.57 6.50052 1.96493 0
M  V30 2596 H 235.516 5.30243 3.86236 0
M  V30 2597 H 235.433 6.87637 3.14152 0
M  V30 2598 H 236.701 6.51791 4.27537 0
M  V30 2599 N 240.93 -0.123565 1.57115 0
M  V30 2600 C 241.862 -1.17739 1.96648 0
M  V30 2601 C 242.875 -1.37906 0.865201 0
M  V30 2602 O 244.064 -1.37062 1.14351 0
M  V30 2603 C 241.164 -2.53821 2.24562 0
M  V30 2604 C 240.337 -2.54317 3.55867 0
M  V30 2605 C 239.396 -3.72112 3.72047 0
M  V30 2606 O 238.422 -3.55907 4.44206 0
M  V30 2607 N 239.624 -4.90498 3.10471 0
M  V30 2608 H 242.389 -0.841147 2.87654 0
M  V30 2609 H 239.95 -0.31289 1.58848 0
M  V30 2610 H 241.942 -3.31175 2.32606 0
M  V30 2611 H 240.512 -2.79645 1.39705 0
M  V30 2612 H 239.732 -1.62711 3.59053 0
M  V30 2613 H 241.02 -2.51701 4.42181 0
M  V30 2614 H 240.418 -5.06567 2.51806 0
M  V30 2615 H 238.975 -5.65544 3.24043 0
M  V30 2616 N 242.408 -1.52605 -0.393616 0
M  V30 2617 C 243.338 -1.80022 -1.48709 0
M  V30 2618 C 244.319 -0.651995 -1.57108 0
M  V30 2619 O 245.504 -0.89913 -1.72132 0
M  V30 2620 C 242.634 -1.96492 -2.86371 0
M  V30 2621 C 241.588 -3.12161 -2.92813 0
M  V30 2622 C 240.914 -3.13877 -4.3288 0
M  V30 2623 C 242.214 -4.51322 -2.6288 0
M  V30 2624 H 243.908 -2.71589 -1.26015 0
M  V30 2625 H 241.454 -1.30684 -0.604778 0
M  V30 2626 H 243.407 -2.14255 -3.62867 0
M  V30 2627 H 242.131 -1.01611 -3.10391 0
M  V30 2628 H 240.79 -2.94173 -2.18764 0
M  V30 2629 H 240.438 -2.16687 -4.53933 0
M  V30 2630 H 240.138 -3.91576 -4.38112 0
M  V30 2631 H 241.662 -3.33789 -5.1129 0
M  V30 2632 H 243.076 -4.69435 -3.29096 0
M  V30 2633 H 241.473 -5.31053 -2.79468 0
M  V30 2634 H 242.543 -4.58353 -1.58242 0
M  V30 2635 N 243.887 0.651787 -1.4349 0
M  V30 2636 C 244.817 1.77621 -1.51569 0
M  V30 2637 C 245.798 1.66022 -0.370253 0
M  V30 2638 O 246.983 1.85095 -0.587658 0
M  V30 2639 C 244.113 3.16056 -1.43966 0
M  V30 2640 C 243.067 3.4242 -2.56774 0
M  V30 2641 C 242.393 4.8067 -2.34223 0
M  V30 2642 C 243.693 3.37023 -3.99015 0
M  V30 2643 H 245.387 1.71117 -2.45681 0
M  V30 2644 H 242.933 0.821825 -1.18246 0
M  V30 2645 H 244.886 3.94472 -1.48221 0
M  V30 2646 H 243.61 3.23293 -0.463586 0
M  V30 2647 H 242.269 2.66375 -2.51873 0
M  V30 2648 H 241.917 4.84585 -1.34856 0
M  V30 2649 H 241.617 4.9927 -3.09844 0
M  V30 2650 H 243.141 5.61342 -2.40265 0
M  V30 2651 H 244.555 4.05374 -4.05395 0
M  V30 2652 H 242.952 3.67159 -4.74673 0
M  V30 2653 H 244.022 2.3518 -4.2405 0
M  V30 2654 N 245.365 1.30045 0.890287 0
M  V30 2655 C 246.297 1.11786 2.00091 0
M  V30 2656 C 247.31 0.0626307 1.62679 0
M  V30 2657 O 248.499 0.308112 1.75821 0
M  V30 2658 C 245.599 0.681527 3.31977 0
M  V30 2659 C 244.772 1.81735 3.97858 0
M  V30 2660 C 243.831 1.37045 5.08041 0
M  V30 2661 O 242.857 2.07677 5.29961 0
M  V30 2662 N 244.059 0.246525 5.79976 0
M  V30 2663 H 246.824 2.07441 2.16306 0
M  V30 2664 H 244.385 1.2211 1.06305 0
M  V30 2665 H 246.377 0.365675 4.03045 0
M  V30 2666 H 244.947 -0.182828 3.12065 0
M  V30 2667 H 244.167 2.30159 3.20032 0
M  V30 2668 H 245.455 2.57865 4.38615 0
M  V30 2669 H 244.853 -0.34215 5.64664 0
M  V30 2670 H 243.41 -0.00990438 6.51799 0
M  V30 2671 N 246.843 -1.10192 1.12674 0
M  V30 2672 C 247.79 -2.16606 0.796906 0
M  V30 2673 C 248.76 -1.64394 -0.237476 0
M  V30 2674 O 249.945 -1.90474 -0.111484 0
M  V30 2675 C 247.085 -3.44116 0.26043 0
M  V30 2676 C 246.198 -4.10268 1.35293 0
M  V30 2677 C 245.333 -5.25507 0.775621 0
M  V30 2678 C 244.372 -5.83567 1.84706 0
M  V30 2679 N 243.509 -6.90179 1.28829 0
M  V30 2680 H 248.349 -2.44163 1.70846 0
M  V30 2681 H 245.886 -1.19846 0.85295 0
M  V30 2682 H 247.844 -4.17143 -0.0686814 0
M  V30 2683 H 246.474 -3.16901 -0.614274 0
M  V30 2684 H 245.526 -3.35184 1.79877 0
M  V30 2685 H 246.838 -4.4946 2.16303 0
M  V30 2686 H 245.992 -6.05398 0.397327 0
M  V30 2687 H 244.731 -4.87656 -0.0656581 0
M  V30 2688 H 243.736 -5.02344 2.23452 0
M  V30 2689 H 244.961 -6.23482 2.69161 0
M  V30 2690 H 242.907 -6.54322 0.468881 0
M  V30 2691 H 242.824 -7.28097 2.03497 0
M  V30 2692 H 244.092 -7.73844 0.937311 0
M  V30 2693 N 248.321 -0.919034 -1.28029 0
M  V30 2694 C 249.284 -0.416182 -2.2539 0
M  V30 2695 C 250.284 0.460438 -1.54067 0
M  V30 2696 O 251.474 0.262744 -1.72207 0
M  V30 2697 C 248.606 0.402707 -3.38513 0
M  V30 2698 H 249.799 -1.27629 -2.71387 0
M  V30 2699 H 247.352 -0.698919 -1.39803 0
M  V30 2700 H 248.087 1.282 -2.97885 0
M  V30 2701 H 247.872 -0.225698 -3.9145 0
M  V30 2702 H 249.362 0.745191 -4.10897 0
M  V30 2703 N 249.799 1.42003 -0.683588 0
M  V30 2704 C 251.045 2.01712 -0.209825 0
M  V30 2705 C 251.378 1.53968 1.18353 0
M  V30 2706 O 250.653 0.745661 1.79639 0
M  V30 2707 C 250.936 3.59202 -0.254197 0
M  V30 2708 C 250.789 4.17102 -1.68363 0
M  V30 2709 C 252.108 4.38344 0.392709 0
M  V30 2710 H 249.227 0.732891 -0.0777189 0
M  V30 2711 H 251.869 1.68909 -0.87004 0
M  V30 2712 H 250.019 3.87278 0.307954 0
M  V30 2713 H 251.691 3.99946 -2.29871 0
M  V30 2714 H 249.934 3.72597 -2.22157 0
M  V30 2715 H 250.605 5.26249 -1.6663 0
M  V30 2716 H 253.081 4.16011 -0.0859162 0
M  V30 2717 H 251.957 5.47901 0.331063 0
M  V30 2718 H 252.218 4.16887 1.47164 0
M  V30 2719 N 251.277 0.427512 1.51691 0
M  V30 2720 C 252.187 -0.39527 2.31246 0
M  V30 2721 C 253.203 -1.03674 1.39742 0
M  V30 2722 O 254.379 -1.03425 1.72816 0
M  V30 2723 C 251.444 -1.48706 3.13189 0
M  V30 2724 C 250.505 -0.866743 4.20459 0
M  V30 2725 C 249.738 -1.90651 4.98486 0
M  V30 2726 O 249.961 -3.12733 4.77026 0
M  V30 2727 O 248.895 -1.5025 5.82845 0
M  V30 2728 H 252.721 0.253918 3.02637 0
M  V30 2729 H 250.306 0.190274 1.48183 0
M  V30 2730 H 252.188 -2.12047 3.64162 0
M  V30 2731 H 250.863 -2.12051 2.44573 0
M  V30 2732 H 249.77 -0.195544 3.73589 0
M  V30 2733 H 251.103 -0.276934 4.9142 0
M  V30 2734 N 252.755 -1.56801 0.158532 0
M  V30 2735 C 254.171 -1.5837 -0.197774 0
M  V30 2736 C 254.371 -1.17334 -1.63814 0
M  V30 2737 O 253.427 -0.878988 -2.36707 0
M  V30 2738 C 254.74 -3.00615 0.0714459 0
M  V30 2739 C 256.288 -3.12999 0.00864533 0
M  V30 2740 C 256.763 -4.57313 0.250685 0
M  V30 2741 N 258.254 -4.62777 0.198014 0
M  V30 2742 C 258.989 -5.72271 0.359642 0
M  V30 2743 N 258.485 -6.90371 0.579625 0
M  V30 2744 N 260.278 -5.61318 0.296438 0
M  V30 2745 H 252.429 -1.81765 1.09887 0
M  V30 2746 H 254.692 -0.841849 0.435884 0
M  V30 2747 H 254.398 -3.35068 1.06874 0
M  V30 2748 H 254.272 -3.71683 -0.642757 0
M  V30 2749 H 256.659 -2.7838 -0.979217 0
M  V30 2750 H 256.74 -2.44393 0.755359 0
M  V30 2751 H 256.384 -4.92639 1.2357 0
M  V30 2752 H 256.314 -5.24061 -0.516489 0
M  V30 2753 H 258.805 -3.77885 0.0331115 0
M  V30 2754 H 259.118 -7.69689 0.69275 0
M  V30 2755 H 257.463 -6.92264 0.616087 0
M  V30 2756 H 260.654 -4.67932 0.125258 0
M  V30 2757 H 260.827 -6.46599 0.425831 0
M  V30 2758 N 254.233 0.115231 -1.57178 0
M  V30 2759 C 255.481 0.820727 -1.84685 0
M  V30 2760 C 255.802 1.80237 -0.744279 0
M  V30 2761 O 255.072 1.94529 0.231375 0
M  V30 2762 H 253.652 0.306084 -0.681411 0
M  V30 2763 H 256.314 0.101656 -1.94635 0
M  V30 2764 H 255.41 1.36366 -2.80733 0
M  V30 2765 N 255.711 1.52812 0.385517 0
M  V30 2766 C 256.674 1.77188 1.45386 0
M  V30 2767 C 257.674 0.641953 1.4743 0
M  V30 2768 O 258.864 0.910033 1.4854 0
M  V30 2769 C 255.996 1.87582 2.8465 0
M  V30 2770 H 257.189 2.72583 1.25054 0
M  V30 2771 H 254.742 1.43586 0.617467 0
M  V30 2772 H 255.477 0.941849 3.10322 0
M  V30 2773 H 255.262 2.69748 2.84567 0
M  V30 2774 H 256.752 2.08102 3.62054 0
M  V30 2775 N 257.189 -0.644168 1.43834 0
M  V30 2776 C 258.435 -1.40603 1.46146 0
M  V30 2777 C 258.768 -1.93997 0.0887717 0
M  V30 2778 O 258.043 -1.72854 -0.891724 0
M  V30 2779 C 258.326 -2.58086 2.51124 0
M  V30 2780 C 258.179 -2.10126 3.97702 0
M  V30 2781 C 259.498 -3.60291 2.52742 0
M  V30 2782 H 256.617 -0.509905 0.532134 0
M  V30 2783 H 259.259 -0.729502 1.75437 0
M  V30 2784 H 257.409 -3.15801 2.26278 0
M  V30 2785 H 259.081 -1.57342 4.33637 0
M  V30 2786 H 257.324 -1.41419 4.10101 0
M  V30 2787 H 257.995 -2.94649 4.66783 0
M  V30 2788 H 260.471 -3.12352 2.7491 0
M  V30 2789 H 259.347 -4.40032 3.28121 0
M  V30 2790 H 259.608 -4.1349 1.56455 0
M  V30 2791 N 258.668 -1.30515 -0.883378 0
M  V30 2792 C 260.079 -1.17509 -1.45081 0
M  V30 2793 C 260.43 0.223605 -1.94922 0
M  V30 2794 O 259.555 1.12041 -1.85137 0
M  V30 2795 C 260.15 -2.12715 -2.63701 0
M  V30 2796 C 258.709 -2.03682 -3.16529 0
M  V30 2797 C 257.856 -2.02706 -1.89224 0
M  V30 2798 H 260.807 -1.42762 -0.693165 0
M  V30 2799 H 260.828 -1.70891 -3.39965 0
M  V30 2800 H 260.34 -3.14505 -2.27395 0
M  V30 2801 H 258.441 -1.05039 -3.57488 0
M  V30 2802 H 258.554 -2.92146 -3.7972 0
M  V30 2803 H 256.918 -1.4753 -2.07622 0
M  V30 2804 H 257.701 -3.06229 -1.55174 0
M  V30 2805 N 260.146 1.09593 -1.13257 0
M  V30 2806 C 261.076 2.18214 -0.830946 0
M  V30 2807 C 262.057 1.68812 0.208966 0
M  V30 2808 O 263.242 1.9408 0.0682666 0
M  V30 2809 C 260.372 3.46051 -0.294296 0
M  V30 2810 C 259.326 4.08778 -1.26826 0
M  V30 2811 C 258.652 5.31419 -0.591449 0
M  V30 2812 C 259.952 4.51476 -2.62615 0
M  V30 2813 H 261.646 2.43703 -1.73923 0
M  V30 2814 H 259.192 1.17128 -0.837675 0
M  V30 2815 H 261.145 4.2134 -0.0709606 0
M  V30 2816 H 259.869 3.20079 0.649366 0
M  V30 2817 H 258.528 3.35505 -1.47756 0
M  V30 2818 H 258.176 5.01727 0.357633 0
M  V30 2819 H 257.876 5.74341 -1.24123 0
M  V30 2820 H 259.4 6.09433 -0.377355 0
M  V30 2821 H 260.814 5.17999 -2.45663 0
M  V30 2822 H 259.211 5.05277 -3.23752 0
M  V30 2823 H 260.281 3.63962 -3.20406 0
M  V30 2824 N 261.624 0.925811 1.2754 0
M  V30 2825 C 262.534 0.428993 2.30644 0
M  V30 2826 C 263.55 -0.489387 1.66976 0
M  V30 2827 O 264.726 -0.372653 1.97922 0
M  V30 2828 C 261.791 -0.311967 3.45294 0
M  V30 2829 C 260.852 0.641098 4.24486 0
M  V30 2830 C 260.085 -0.0645955 5.33661 0
M  V30 2831 O 260.308 -1.28429 5.55754 0
M  V30 2832 O 259.242 0.606265 5.98839 0
M  V30 2833 H 263.068 1.28504 2.75173 0
M  V30 2834 H 260.653 0.691086 1.32455 0
M  V30 2835 H 262.535 -0.729972 4.15029 0
M  V30 2836 H 261.21 -1.14365 3.02824 0
M  V30 2837 H 260.117 1.10874 3.57292 0
M  V30 2838 H 261.45 1.43995 4.70666 0
M  V30 2839 N 263.102 -1.41638 0.69111 0
M  V30 2840 C 264.035 -2.28183 -0.0274913 0
M  V30 2841 C 265.013 -1.41984 -0.792424 0
M  V30 2842 O 266.197 -1.71415 -0.784169 0
M  V30 2843 C 263.324 -3.22135 -1.04628 0
M  V30 2844 C 262.37 -4.24848 -0.375037 0
M  V30 2845 S 263.203 -5.28231 0.879321 0
M  V30 2846 C 264.359 -6.25748 -0.137983 0
M  V30 2847 H 264.592 -2.88782 0.706553 0
M  V30 2848 H 262.125 -1.46709 0.481222 0
M  V30 2849 H 264.083 -3.76797 -1.62894 0
M  V30 2850 H 262.744 -2.6064 -1.75287 0
M  V30 2851 H 261.937 -4.90837 -1.14433 0
M  V30 2852 H 261.539 -3.73758 0.134434 0
M  V30 2853 H 263.831 -6.70188 -0.992659 0
M  V30 2854 H 264.774 -7.06417 0.487867 0
M  V30 2855 H 265.182 -5.62363 -0.490762 0
M  V30 2856 N 264.58 -0.43555 -1.51462 0
M  V30 2857 C 265.51 0.367376 -2.30592 0
M  V30 2858 C 266.491 1.02263 -1.35928 0
M  V30 2859 O 267.676 1.02661 -1.64847 0
M  V30 2860 C 264.806 1.46983 -3.14664 0
M  V30 2861 C 263.76 0.938161 -4.17591 0
M  V30 2862 C 263.086 2.13622 -4.90173 0
M  V30 2863 C 264.386 -0.0261621 -5.22293 0
M  V30 2864 H 266.08 -0.292969 -2.97963 0
M  V30 2865 H 263.626 -0.14234 -1.43295 0
M  V30 2866 H 265.579 2.03873 -3.688 0
M  V30 2867 H 264.303 2.15843 -2.4511 0
M  V30 2868 H 262.962 0.391481 -3.64504 0
M  V30 2869 H 262.61 2.81098 -4.17124 0
M  V30 2870 H 262.31 1.78688 -5.59772 0
M  V30 2871 H 263.834 2.7107 -5.47132 0
M  V30 2872 H 265.248 0.452384 -5.71512 0
M  V30 2873 H 263.645 -0.287992 -5.99409 0
M  V30 2874 H 264.715 -0.963391 -4.75233 0
M  V30 2875 N 266.058 1.56714 -0.166846 0
M  V30 2876 C 266.968 2.21331 0.777791 0
M  V30 2877 C 267.984 1.20358 1.25658 0
M  V30 2878 O 269.16 1.53005 1.30964 0
M  V30 2879 C 266.225 2.83787 1.99163 0
M  V30 2880 C 265.286 3.99947 1.56016 0
M  V30 2881 C 264.519 4.59415 2.71613 0
M  V30 2882 O 264.742 4.17769 3.88362 0
M  V30 2883 O 263.676 5.49359 2.45945 0
M  V30 2884 H 267.502 3.02605 0.257636 0
M  V30 2885 H 265.087 1.49275 0.0611393 0
M  V30 2886 H 266.969 3.23405 2.70161 0
M  V30 2887 H 265.644 2.05513 2.50092 0
M  V30 2888 H 264.551 3.65007 0.819809 0
M  V30 2889 H 265.884 4.79801 1.09782 0
M  V30 2890 N 267.536 -0.106894 1.57237 0
M  V30 2891 C 268.785 -0.811163 1.8467 0
M  V30 2892 C 269.098 -1.80469 0.754342 0
M  V30 2893 O 270.304 -2.55601 0.915439 0
M  V30 2894 C 268.76 -1.49337 3.27454 0
M  V30 2895 C 268.368 -0.540217 4.44731 0
M  V30 2896 C 270.112 -2.18206 3.64124 0
M  V30 2897 C 268.019 -1.22634 5.78545 0
M  V30 2898 H 266.949 -0.306679 0.688813 0
M  V30 2899 H 269.6 -0.0639887 1.83388 0
M  V30 2900 H 267.982 -2.2876 3.23241 0
M  V30 2901 H 269.156 0.221659 4.60267 0
M  V30 2902 H 267.471 0.042146 4.16379 0
M  V30 2903 H 270.068 -2.70253 4.61376 0
M  V30 2904 H 270.411 -2.96562 2.92158 0
M  V30 2905 H 270.944 -1.45658 3.70174 0
M  V30 2906 H 267.683 -0.483832 6.53712 0
M  V30 2907 H 267.203 -1.95993 5.66874 0
M  V30 2908 H 268.882 -1.75615 6.2271 0
M  V30 2909 N 269.014 -1.53014 -0.377408 0
M  V30 2910 C 269.977 -1.77957 -1.44444 0
M  V30 2911 C 270.977 -0.649763 -1.47087 0
M  V30 2912 O 272.167 -0.917897 -1.48055 0
M  V30 2913 C 269.299 -1.89089 -2.83651 0
M  V30 2914 H 270.492 -2.73243 -1.23606 0
M  V30 2915 H 268.045 -1.43912 -0.609844 0
M  V30 2916 H 268.78 -0.958293 -3.09818 0
M  V30 2917 H 268.565 -2.71254 -2.83132 0
M  V30 2918 H 270.055 -2.1002 -3.60945 0
M  V30 2919 N 270.492 0.636531 -1.44174 0
M  V30 2920 C 271.422 1.76003 -1.53444 0
M  V30 2921 C 272.403 1.65619 -0.387841 0
M  V30 2922 O 273.588 1.84461 -0.607257 0
M  V30 2923 C 270.718 3.14511 -1.4731 0
M  V30 2924 C 269.672 3.39677 -2.60391 0
M  V30 2925 C 268.998 4.78159 -2.39308 0
M  V30 2926 C 270.298 3.32772 -4.02567 0
M  V30 2927 H 271.992 1.68501 -2.47483 0
M  V30 2928 H 269.538 0.809237 -1.19111 0
M  V30 2929 H 271.491 3.92878 -1.52397 0
M  V30 2930 H 270.215 3.22783 -0.49785 0
M  V30 2931 H 268.874 2.63688 -2.54684 0
M  V30 2932 H 268.522 4.83128 -1.39988 0
M  V30 2933 H 268.222 4.95956 -3.15122 0
M  V30 2934 H 269.746 5.58762 -2.46205 0
M  V30 2935 H 271.16 4.01051 -4.09672 0
M  V30 2936 H 269.557 3.62104 -4.7854 0
M  V30 2937 H 270.627 2.30669 -4.2652 0
M  V30 2938 N 271.97 1.30982 0.876444 0
M  V30 2939 C 273.386 1.09498 1.16113 0
M  V30 2940 C 273.586 -0.13875 2.01022 0
M  V30 2941 O 272.642 -0.829935 2.38471 0
M  V30 2942 C 273.955 2.36308 1.85954 0
M  V30 2943 C 275.503 2.41856 1.98683 0
M  V30 2944 C 275.978 3.6853 2.71937 0
M  V30 2945 N 277.469 3.69387 2.79477 0
M  V30 2946 C 278.204 4.64096 3.36753 0
M  V30 2947 N 277.7 5.69155 3.95012 0
M  V30 2948 N 279.493 4.51626 3.3465 0
M  V30 2949 H 271.644 2.10118 0.310494 0
M  V30 2950 H 273.907 0.926634 0.200131 0
M  V30 2951 H 273.613 3.26388 1.31011 0
M  V30 2952 H 273.487 2.4561 2.86278 0
M  V30 2953 H 275.874 1.52249 2.52793 0
M  V30 2954 H 275.955 2.36523 0.9742 0
M  V30 2955 H 275.599 4.58499 2.18496 0
M  V30 2956 H 275.529 3.71127 3.73593 0
M  V30 2957 H 278.02 2.93438 2.38123 0
M  V30 2958 H 278.333 6.3751 4.36808 0
M  V30 2959 H 276.678 5.72937 3.93406 0
M  V30 2960 H 279.869 3.68728 2.8837 0
M  V30 2961 H 280.042 5.25614 3.7899 0
M  V30 2962 N 273.449 -1.08991 1.13837 0
M  V30 2963 C 274.397 -2.17841 0.815347 0
M  V30 2964 C 275.391 -1.68164 -0.204233 0
M  V30 2965 O 276.597 -1.79897 -0.0609304 0
M  V30 2966 H 272.972 -0.710654 0.245915 0
M  V30 2967 H 274.943 -2.42315 1.74143 0
M  V30 2968 C 273.692 -3.46381 0.302614 0
M  V30 2969 H 273.015 -3.84979 1.0785 0
M  V30 2970 H 274.455 -4.23844 0.115074 0
M  V30 2971 C 272.914 -3.22556 -0.972591 0
M  V30 2972 O 273.444 -3.45599 -2.04754 0
M  V30 2973 N 271.65 -2.76134 -0.905455 0
M  V30 2974 H 271.197 -2.57582 -0.0305421 0
M  V30 2975 H 271.155 -2.60571 -1.75926 0
M  V30 2976 N 274.927 -0.932562 -1.27047 0
M  V30 2977 C 275.857 -0.452902 -2.29066 0
M  V30 2978 C 276.838 0.489338 -1.62909 0
M  V30 2979 O 278.023 0.393046 -1.90181 0
M  V30 2980 C 275.153 0.290698 -3.46081 0
M  V30 2981 C 274.107 -0.564168 -4.24265 0
M  V30 2982 C 273.433 0.308886 -5.33807 0
M  V30 2983 C 274.733 -1.83112 -4.89149 0
M  V30 2984 H 276.427 -1.30552 -2.69437 0
M  V30 2985 H 273.973 -0.629201 -1.29526 0
M  V30 2986 H 275.926 0.637233 -4.16554 0
M  V30 2987 H 274.65 1.17738 -3.0464 0
M  V30 2988 H 273.309 -0.893477 -3.55545 0
M  V30 2989 H 272.957 1.19467 -4.88607 0
M  V30 2990 H 272.657 -0.259633 -5.87026 0
M  V30 2991 H 274.181 0.650884 -6.07121 0
M  V30 2992 H 275.595 -1.55236 -5.51883 0
M  V30 2993 H 273.992 -2.34353 -5.52448 0
M  V30 2994 H 275.062 -2.54772 -4.12576 0
M  V30 2995 N 276.405 1.4127 -0.698611 0
M  V30 2996 C 277.353 2.32588 -0.023855 0
M  V30 2997 C 278.347 1.51128 0.765292 0
M  V30 2998 O 279.553 1.67043 0.670571 0
M  V30 2999 H 275.928 0.751918 0.0110871 0
M  V30 3000 H 277.899 2.87167 -0.811031 0
M  V30 3001 C 276.648 3.35947 0.896369 0
M  V30 3002 H 275.971 3.98684 0.298548 0
M  V30 3003 H 277.411 4.02376 1.33676 0
M  V30 3004 C 275.87 2.70076 2.01396 0
M  V30 3005 O 276.4 2.55093 3.10307 0
M  V30 3006 N 274.606 2.28724 1.79259 0
M  V30 3007 H 274.153 2.4111 0.906841 0
M  V30 3008 H 274.111 1.84986 2.54219 0
M  V30 3009 N 277.883 0.443576 1.51229 0
M  V30 3010 C 278.813 -0.355142 2.30783 0
M  V30 3011 C 279.794 -1.0154 1.36468 0
M  V30 3012 O 280.979 -1.01785 1.65389 0
M  V30 3013 C 278.109 -1.45312 3.15439 0
M  V30 3014 C 277.063 -0.916002 4.18083 0
M  V30 3015 C 276.389 -2.1102 4.91299 0
M  V30 3016 C 277.689 0.0538602 5.22272 0
M  V30 3017 H 279.383 0.308767 2.97804 0
M  V30 3018 H 276.929 0.149937 1.43217 0
M  V30 3019 H 278.882 -2.01914 3.69876 0
M  V30 3020 H 277.606 -2.14541 2.46252 0
M  V30 3021 H 276.265 -0.372145 3.64706 0
M  V30 3022 H 275.913 -2.78882 4.18609 0
M  V30 3023 H 275.613 -1.75717 5.60712 0
M  V30 3024 H 277.137 -2.68164 5.48562 0
M  V30 3025 H 278.551 -0.422069 5.71744 0
M  V30 3026 H 276.948 0.319776 5.99247 0
M  V30 3027 H 278.018 0.98858 4.74716 0
M  V30 3028 N 279.361 -1.56624 0.175154 0
M  V30 3029 C 280.293 -2.15333 -0.785128 0
M  V30 3030 C 281.306 -1.1099 -1.19101 0
M  V30 3031 O 282.495 -1.38162 -1.13019 0
M  V30 3032 C 279.595 -2.68427 -2.06882 0
M  V30 3033 C 278.768 -3.97466 -1.8259 0
M  V30 3034 C 277.827 -4.35585 -2.95215 0
M  V30 3035 O 276.853 -5.03389 -2.65684 0
M  V30 3036 N 278.055 -3.97457 -4.23094 0
M  V30 3037 H 280.82 -2.98359 -0.283187 0
M  V30 3038 H 278.381 -1.61898 -0.00749817 0
M  V30 3039 H 280.373 -2.90924 -2.81328 0
M  V30 3040 H 278.943 -1.89968 -2.48256 0
M  V30 3041 H 278.163 -3.83307 -0.920287 0
M  V30 3042 H 279.451 -4.81736 -1.63733 0
M  V30 3043 H 278.849 -3.42878 -4.49945 0
M  V30 3044 H 277.406 -4.24947 -4.9423 0
M  V30 3045 N 280.839 0.0985539 -1.57292 0
M  V30 3046 C 281.786 1.11981 -2.01814 0
M  V30 3047 C 282.756 1.39999 -0.89384 0
M  V30 3048 O 283.941 1.5152 -1.15958 0
M  V30 3049 C 281.081 2.43577 -2.44467 0
M  V30 3050 C 280.194 2.2232 -3.70402 0
M  V30 3051 C 279.329 3.4729 -4.01949 0
M  V30 3052 C 278.368 3.2128 -5.21005 0
M  V30 3053 N 277.505 4.38507 -5.48321 0
M  V30 3054 H 282.345 0.733149 -2.88841 0
M  V30 3055 H 279.882 0.350482 -1.42864 0
M  V30 3056 H 281.84 3.20373 -2.6724 0
M  V30 3057 H 280.47 2.80097 -1.60455 0
M  V30 3058 H 279.522 1.36343 -3.55126 0
M  V30 3059 H 280.834 1.99089 -4.57345 0
M  V30 3060 H 279.988 4.32495 -4.25479 0
M  V30 3061 H 278.727 3.73572 -3.13521 0
M  V30 3062 H 277.732 2.34468 -4.97298 0
M  V30 3063 H 278.957 2.96348 -6.11028 0
M  V30 3064 H 276.903 4.64871 -4.62851 0
M  V30 3065 H 276.82 4.18455 -6.29628 0
M  V30 3066 H 278.088 5.24787 -5.76385 0
M  V30 3067 N 282.317 1.53212 0.369288 0
M  V30 3068 C 283.264 1.79388 1.45219 0
M  V30 3069 C 284.234 0.638059 1.53356 0
M  V30 3070 O 285.419 0.879852 1.69302 0
M  V30 3071 C 282.559 1.98623 2.82211 0
M  V30 3072 C 281.672 3.26337 2.8307 0
M  V30 3073 C 280.807 3.35779 4.11614 0
M  V30 3074 C 279.846 4.5754 4.06601 0
M  V30 3075 N 278.983 4.64155 5.26787 0
M  V30 3076 H 283.823 2.71794 1.22198 0
M  V30 3077 H 281.36 1.34642 0.592444 0
M  V30 3078 H 283.318 2.07761 3.61789 0
M  V30 3079 H 281.948 1.09558 3.03639 0
M  V30 3080 H 281 3.26171 1.95747 0
M  V30 3081 H 282.312 4.15988 2.75237 0
M  V30 3082 H 281.466 3.44208 4.99606 0
M  V30 3083 H 280.205 2.44137 4.22195 0
M  V30 3084 H 279.21 4.49215 3.16996 0
M  V30 3085 H 280.435 5.50519 3.97625 0
M  V30 3086 H 278.381 3.75413 5.3796 0
M  V30 3087 H 278.298 5.47706 5.21109 0
M  V30 3088 H 279.566 4.76863 6.16621 0
M  V30 3089 N 283.795 -0.628877 1.44509 0
M  V30 3090 C 284.727 -1.754 1.47538 0
M  V30 3091 C 285.74 -1.58575 0.368506 0
M  V30 3092 O 286.929 -1.66847 0.634376 0
M  V30 3093 C 284.029 -3.1315 1.29577 0
M  V30 3094 C 283.202 -3.56413 2.53551 0
M  V30 3095 C 282.261 -4.7305 2.30457 0
M  V30 3096 O 281.287 -4.81247 3.03957 0
M  V30 3097 N 282.489 -5.64903 1.3366 0
M  V30 3098 H 285.254 -1.73272 2.44534 0
M  V30 3099 H 282.815 -0.813512 1.39977 0
M  V30 3100 H 284.807 -3.88902 1.11971 0
M  V30 3101 H 283.377 -3.09908 0.409371 0
M  V30 3102 H 282.597 -2.70847 2.86419 0
M  V30 3103 H 283.885 -3.82071 3.36005 0
M  V30 3104 H 283.283 -5.60975 0.729604 0
M  V30 3105 H 281.84 -6.40275 1.22032 0
M  V30 3106 N 285.273 -1.31445 -0.869486 0
M  V30 3107 C 286.203 -1.21727 -1.99261 0
M  V30 3108 C 287.184 -0.104359 -1.6978 0
M  V30 3109 O 288.369 -0.289038 -1.92037 0
M  V30 3110 C 285.499 -0.924317 -3.34774 0
M  V30 3111 C 284.453 -1.99685 -3.78563 0
M  V30 3112 C 283.779 -1.55658 -5.11541 0
M  V30 3113 C 285.079 -3.41003 -3.95619 0
M  V30 3114 H 286.773 -2.1569 -2.07649 0
M  V30 3115 H 284.319 -1.03839 -0.997675 0
M  V30 3116 H 286.272 -0.842934 -4.12883 0
M  V30 3117 H 284.996 0.0509793 -3.2656 0
M  V30 3118 H 283.655 -2.06813 -3.02694 0
M  V30 3119 H 283.303 -0.569132 -4.9977 0
M  V30 3120 H 283.003 -2.27409 -5.41811 0
M  V30 3121 H 284.527 -1.48928 -5.92159 0
M  V30 3122 H 285.941 -3.36547 -4.64122 0
M  V30 3123 H 284.338 -4.10975 -4.37286 0
M  V30 3124 H 285.408 -3.81754 -2.98985 0
M  V30 3125 N 286.751 1.08385 -1.14413 0
M  V30 3126 C 287.681 2.17321 -0.854044 0
M  V30 3127 C 288.662 1.69024 0.191049 0
M  V30 3128 O 289.847 1.94141 0.0476779 0
M  V30 3129 C 286.977 3.45719 -0.330983 0
M  V30 3130 C 285.931 4.07409 -1.31155 0
M  V30 3131 C 285.257 5.30762 -0.64778 0
M  V30 3132 C 286.557 4.48665 -2.67388 0
M  V30 3133 H 288.251 2.41845 -1.76498 0
M  V30 3134 H 285.797 1.16233 -0.850051 0
M  V30 3135 H 287.75 4.21241 -0.115645 0
M  V30 3136 H 286.474 3.2075 0.615381 0
M  V30 3137 H 285.133 3.33919 -1.51306 0
M  V30 3138 H 284.781 5.02078 0.304398 0
M  V30 3139 H 284.481 5.72992 -1.30207 0
M  V30 3140 H 286.005 6.08998 -0.441972 0
M  V30 3141 H 287.419 5.15364 -2.51143 0
M  V30 3142 H 285.816 5.01814 -3.29093 0
M  V30 3143 H 286.886 3.60543 -3.24248 0
M  V30 3144 N 288.23 0.939286 1.26551 0
M  V30 3145 C 289.455 0.602008 1.98471 0
M  V30 3146 C 289.88 -0.815624 1.69497 0
M  V30 3147 O 289.238 -1.54912 0.941905 0
M  V30 3148 C 289.286 0.848407 3.50477 0
M  V30 3149 O 288.39 -0.0804009 4.12322 0
M  V30 3150 H 287.731 0.23049 0.622712 0
M  V30 3151 H 290.261 1.2617 1.61066 0
M  V30 3152 H 290.271 0.768553 4.00696 0
M  V30 3153 H 288.946 1.88171 3.70897 0
M  V30 3154 H 287.523 0.0503508 3.72866 0
M  V30 3155 N 289.708 -1.40897 0.706093 0
M  V30 3156 C 290.618 -2.3455 0.0482286 0
M  V30 3157 C 291.634 -1.56796 -0.754396 0
M  V30 3158 O 292.81 -1.89228 -0.689538 0
M  V30 3159 C 289.875 -3.35625 -0.869303 0
M  V30 3160 C 288.936 -4.29261 -0.0576994 0
M  V30 3161 C 288.169 -5.25508 -0.931531 0
M  V30 3162 O 288.392 -5.27472 -2.17092 0
M  V30 3163 O 287.326 -6.00727 -0.375587 0
M  V30 3164 H 291.152 -2.92407 0.820476 0
M  V30 3165 H 288.737 -1.4193 0.4665 0
M  V30 3166 H 290.619 -3.97635 -1.39514 0
M  V30 3167 H 289.294 -2.80196 -1.62086 0
M  V30 3168 H 288.201 -3.70566 0.512988 0
M  V30 3169 H 289.534 -4.87817 0.655426 0
M  V30 3170 N 291.186 -0.45159 -1.50991 0
M  V30 3171 C 292.096 0.358431 -2.31846 0
M  V30 3172 C 293.112 1.01438 -1.41373 0
M  V30 3173 O 294.288 1.00663 -1.74439 0
M  V30 3174 C 291.353 1.43704 -3.15515 0
M  V30 3175 C 290.414 0.799742 -4.21785 0
M  V30 3176 C 289.647 1.82696 -5.01456 0
M  V30 3177 O 289.87 3.05105 -4.81941 0
M  V30 3178 O 288.804 1.40958 -5.85162 0
M  V30 3179 H 292.63 -0.302032 -3.02194 0
M  V30 3180 H 290.215 -0.213825 -1.47862 0
M  V30 3181 H 292.097 2.06227 -3.67489 0
M  V30 3182 H 290.772 2.08133 -2.47916 0
M  V30 3183 H 289.679 0.136084 -3.73852 0
M  V30 3184 H 291.012 0.198718 -4.91799 0
M  V30 3185 N 292.664 1.56529 -0.183458 0
M  V30 3186 C 293.574 2.22144 0.754272 0
M  V30 3187 C 294.59 1.21684 1.24374 0
M  V30 3188 O 295.766 1.54385 1.29333 0
M  V30 3189 C 292.831 2.85884 1.96141 0
M  V30 3190 C 291.892 4.01579 1.51765 0
M  V30 3191 C 291.125 4.6227 2.66725 0
M  V30 3192 O 291.348 4.21865 3.83909 0
M  V30 3193 O 290.282 5.51936 2.40104 0
M  V30 3194 H 294.108 3.02861 0.225527 0
M  V30 3195 H 291.693 1.49331 0.0453032 0
M  V30 3196 H 293.575 3.26253 2.66715 0
M  V30 3197 H 292.25 2.08154 2.47899 0
M  V30 3198 H 291.157 3.65856 0.781049 0
M  V30 3199 H 292.49 4.80938 1.04686 0
M  V30 3200 N 294.142 -0.090211 1.57342 0
M  V30 3201 C 295.089 -1.10909 2.02405 0
M  V30 3202 C 296.059 -1.39523 0.901252 0
M  V30 3203 O 297.244 -1.50903 1.1676 0
M  V30 3204 C 294.384 -2.42277 2.45755 0
M  V30 3205 C 293.497 -2.20352 3.71576 0
M  V30 3206 C 292.632 -3.45154 4.03785 0
M  V30 3207 C 291.671 -3.18512 5.22701 0
M  V30 3208 N 290.808 -4.35593 5.50639 0
M  V30 3209 H 295.648 -0.71782 2.89225 0
M  V30 3210 H 293.185 -0.342901 1.43048 0
M  V30 3211 H 295.143 -3.18951 2.68935 0
M  V30 3212 H 293.773 -2.79242 1.61938 0
M  V30 3213 H 292.825 -1.34458 3.55844 0
M  V30 3214 H 294.137 -1.96661 4.58395 0
M  V30 3215 H 293.291 -4.30233 4.27767 0
M  V30 3216 H 292.03 -3.71904 3.15498 0
M  V30 3217 H 291.035 -2.31827 4.98534 0
M  V30 3218 H 292.26 -2.93103 6.12591 0
M  V30 3219 H 290.206 -4.6241 4.6531 0
M  V30 3220 H 290.123 -4.1511 6.31838 0
M  V30 3221 H 291.391 -5.21723 5.7916 0
M  V30 3222 N 295.62 -1.53406 -0.361157 0
M  V30 3223 C 296.567 -1.80156 -1.44265 0
M  V30 3224 C 297.537 -0.646183 -1.53015 0
M  V30 3225 O 298.722 -0.888818 -1.68833 0
M  V30 3226 C 295.862 -2.00116 -2.81154 0
M  V30 3227 C 294.975 -3.27833 -2.81335 0
M  V30 3228 C 294.11 -3.37957 -4.09828 0
M  V30 3229 C 293.149 -4.59689 -4.04168 0
M  V30 3230 N 292.286 -4.66942 -5.24318 0
M  V30 3231 H 297.126 -2.72438 -1.20754 0
M  V30 3232 H 294.663 -1.34954 -0.585296 0
M  V30 3233 H 296.621 -2.09677 -3.60682 0
M  V30 3234 H 295.251 -1.11167 -3.03054 0
M  V30 3235 H 294.303 -3.27204 -1.94014 0
M  V30 3236 H 295.615 -4.17442 -2.73027 0
M  V30 3237 H 294.769 -3.46853 -4.97773 0
M  V30 3238 H 293.508 -2.46372 -4.20894 0
M  V30 3239 H 292.513 -4.50889 -3.14609 0
M  V30 3240 H 293.738 -5.5262 -3.947 0
M  V30 3241 H 291.684 -3.7826 -5.35962 0
M  V30 3242 H 291.601 -5.50462 -5.18197 0
M  V30 3243 H 292.869 -4.80127 -6.14084 0
M  V30 3244 N 297.098 0.621204 -1.44841 0
M  V30 3245 C 298.046 1.75385 -1.52784 0
M  V30 3246 C 299.04 1.64639 -0.398779 0
M  V30 3247 O 300.246 1.70598 -0.574137 0
M  V30 3248 H 296.621 0.579193 -0.479625 0
M  V30 3249 H 298.592 1.6581 -2.48092 0
M  V30 3250 C 297.341 3.13742 -1.4987 0
M  V30 3251 H 296.664 3.22663 -2.36069 0
M  V30 3252 H 298.104 3.92861 -1.59487 0
M  V30 3253 C 296.563 3.36175 -0.220973 0
M  V30 3254 O 297.093 3.95469 0.704782 0
M  V30 3255 N 295.299 2.90348 -0.120963 0
M  V30 3256 H 294.846 2.42278 -0.875162 0
M  V30 3257 H 294.804 3.05732 0.733168 0
M  V30 3258 N 298.576 1.31904 0.862503 0
M  V30 3259 C 299.506 1.22782 1.98612 0
M  V30 3260 C 300.487 0.113362 1.69722 0
M  V30 3261 O 301.672 0.299218 1.91881 0
M  V30 3262 C 298.802 0.942058 3.34279 0
M  V30 3263 C 297.756 2.0169 3.77499 0
M  V30 3264 C 297.082 1.58369 5.10709 0
M  V30 3265 C 298.382 3.43096 3.93805 0
M  V30 3266 H 300.076 2.16788 2.06502 0
M  V30 3267 H 297.622 1.04366 0.992154 0
M  V30 3268 H 299.575 0.864818 4.1243 0
M  V30 3269 H 298.299 -0.0336603 3.26583 0
M  V30 3270 H 296.958 2.08416 3.01593 0
M  V30 3271 H 296.606 0.595628 4.99461 0
M  V30 3272 H 296.306 2.30279 5.40597 0
M  V30 3273 H 297.83 1.52067 5.91361 0
M  V30 3274 H 299.244 3.39003 4.62331 0
M  V30 3275 H 297.641 4.13288 4.35101 0
M  V30 3276 H 298.711 3.83334 2.96957 0
M  V30 3277 N 300.054 -1.07777 1.14986 0
M  V30 3278 C 301.279 -1.84558 0.946213 0
M  V30 3279 C 301.704 -1.81323 -0.500362 0
M  V30 3280 O 301.062 -1.20301 -1.35637 0
M  V30 3281 C 301.11 -3.29736 1.45968 0
M  V30 3282 O 300.214 -4.07149 0.65601 0
M  V30 3283 H 299.555 -0.571641 0.33782 0
M  V30 3284 H 302.085 -1.35991 1.52865 0
M  V30 3285 H 302.095 -3.80574 1.47063 0
M  V30 3286 H 300.77 -3.31406 2.51283 0
M  V30 3287 H 299.347 -3.65994 0.714322 0
M  V30 3288 N 301.532 -0.945985 -1.26051 0
M  V30 3289 C 302.495 -0.463897 -2.24456 0
M  V30 3290 C 303.495 0.427655 -1.55009 0
M  V30 3291 O 304.685 0.226157 -1.72726 0
M  V30 3292 C 301.817 0.330812 -3.39291 0
M  V30 3293 H 303.01 -1.33357 -2.68619 0
M  V30 3294 H 300.563 -0.728416 -1.38289 0
M  V30 3295 H 301.298 1.21852 -3.00537 0
M  V30 3296 H 301.083 -0.308679 -3.90883 0
M  V30 3297 H 302.573 0.657865 -4.12386 0
M  V30 3298 N 303.011 1.40521 -0.713556 0
M  V30 3299 C 304.236 2.05759 -0.26035 0
M  V30 3300 C 304.661 1.53403 1.08854 0
M  V30 3301 O 304.019 0.668535 1.68524 0
M  V30 3302 C 304.067 3.59745 -0.248122 0
M  V30 3303 O 303.171 4.05123 0.77131 0
M  V30 3304 H 302.512 0.652564 -0.122703 0
M  V30 3305 H 305.042 1.79958 -0.973467 0
M  V30 3306 H 305.052 4.07911 -0.0851129 0
M  V30 3307 H 303.727 3.97218 -1.2325 0
M  V30 3308 H 302.304 3.68422 0.57619 0
M  V30 3309 N 304.489 0.459591 1.5075 0
M  V30 3310 C 305.717 -0.0973749 2.06671 0
M  V30 3311 C 306.132 -1.34524 1.32472 0
M  V30 3312 O 305.489 -1.7827 0.390634 0
M  V30 3313 C 305.54 -0.39714 3.59312 0
M  V30 3314 O 305.261 0.801214 4.30711 0
M  V30 3315 C 306.762 -1.00234 4.31819 0
M  V30 3316 H 303.982 0.00195854 0.670997 0
M  V30 3317 H 306.526 0.645072 1.94059 0
M  V30 3318 H 304.681 -1.08951 3.71764 0
M  V30 3319 H 305.095 0.538857 5.21725 0
M  V30 3320 H 306.569 -1.16193 5.39632 0
M  V30 3321 H 307.046 -1.98939 3.91561 0
M  V30 3322 H 307.652 -0.348699 4.23868 0
M  V30 3323 N 305.967 -1.56429 0.191757 0
M  V30 3324 C 307.213 -1.97777 -0.448554 0
M  V30 3325 C 307.546 -1.07847 -1.61501 0
M  V30 3326 O 306.821 -0.129774 -1.94067 0
M  V30 3327 C 307.104 -3.48362 -0.911906 0
M  V30 3328 C 306.957 -4.4907 0.256136 0
M  V30 3329 C 308.276 -4.02561 -1.77857 0
M  V30 3330 H 305.395 -0.719071 -0.161572 0
M  V30 3331 H 308.037 -1.87896 0.282007 0
M  V30 3332 H 306.187 -3.56914 -1.53442 0
M  V30 3333 H 307.859 -4.5256 0.893733 0
M  V30 3334 H 306.102 -4.24181 0.908436 0
M  V30 3335 H 306.773 -5.51889 -0.11053 0
M  V30 3336 H 309.249 -3.96767 -1.25359 0
M  V30 3337 H 308.125 -5.08301 -2.07174 0
M  V30 3338 H 308.386 -3.47616 -2.73158 0
M  V30 3339 N 307.445 0.0818655 -1.57387 0
M  V30 3340 C 308.375 1.09885 -2.06028 0
M  V30 3341 C 309.356 1.4098 -0.951774 0
M  V30 3342 O 310.541 1.50781 -1.22387 0
M  V30 3343 C 307.671 2.4151 -2.4958 0
M  V30 3344 C 306.625 2.24792 -3.64215 0
M  V30 3345 C 305.951 3.61712 -3.93787 0
M  V30 3346 C 307.251 1.67749 -4.94629 0
M  V30 3347 H 308.945 0.694128 -2.91243 0
M  V30 3348 H 306.491 0.332448 -1.4011 0
M  V30 3349 H 308.444 3.12939 -2.82219 0
M  V30 3350 H 307.168 2.83943 -1.61381 0
M  V30 3351 H 305.827 1.55807 -3.31843 0
M  V30 3352 H 305.475 4.01697 -3.02735 0
M  V30 3353 H 305.175 3.51368 -4.70971 0
M  V30 3354 H 306.699 4.34587 -4.28913 0
M  V30 3355 H 308.113 2.29032 -5.25564 0
M  V30 3356 H 306.51 1.68128 -5.76067 0
M  V30 3357 H 307.58 0.638059 -4.80684 0
M  V30 3358 N 308.923 1.53595 0.353017 0
M  V30 3359 C 310.151 1.74311 1.1146 0
M  V30 3360 C 310.566 0.477854 1.82653 0
M  V30 3361 O 309.923 -0.549977 1.74016 0
M  V30 3362 C 309.974 2.91694 2.13534 0
M  V30 3363 O 309.695 4.13325 1.45238 0
M  V30 3364 C 311.196 3.24384 3.02142 0
M  V30 3365 H 308.416 0.582669 0.332773 0
M  V30 3366 H 310.96 2.00386 0.408107 0
M  V30 3367 H 309.115 2.67977 2.79763 0
M  V30 3368 H 309.529 4.79148 2.13349 0
M  V30 3369 H 311.003 4.09893 3.69718 0
M  V30 3370 H 311.48 2.40282 3.67643 0
M  V30 3371 H 312.086 3.50073 2.41514 0
M  V30 3372 N 310.401 -0.613514 1.45168 0
M  V30 3373 C 311.364 -1.7065 1.53007 0
M  V30 3374 C 312.364 -1.5548 0.410184 0
M  V30 3375 O 313.554 -1.60656 0.673455 0
M  V30 3376 C 310.686 -3.09875 1.42093 0
M  V30 3377 H 311.879 -1.65068 2.50385 0
M  V30 3378 H 309.432 -0.828728 1.32521 0
M  V30 3379 H 310.167 -3.21039 0.458769 0
M  V30 3380 H 309.952 -3.22293 2.23315 0
M  V30 3381 H 311.442 -3.895 1.50598 0
M  V30 3382 N 311.879 -1.3236 -0.855495 0
M  V30 3383 C 312.811 -1.17052 -1.97057 0
M  V30 3384 C 313.824 -0.10574 -1.62456 0
M  V30 3385 O 315.013 -0.354619 -1.74942 0
M  V30 3386 C 312.113 -0.769305 -3.30053 0
M  V30 3387 C 311.286 -1.9222 -3.929 0
M  V30 3388 C 310.345 -1.50466 -5.04228 0
M  V30 3389 O 309.371 -2.21655 -5.24269 0
M  V30 3390 N 310.573 -0.400209 -5.79119 0
M  V30 3391 H 313.338 -2.13103 -2.1073 0
M  V30 3392 H 310.899 -1.24885 -1.0303 0
M  V30 3393 H 312.891 -0.472407 -4.01933 0
M  V30 3394 H 311.461 0.100025 -3.1244 0
M  V30 3395 H 310.681 -2.38563 -3.13817 0
M  V30 3396 H 311.969 -2.69403 -4.31624 0
M  V30 3397 H 311.367 0.192319 -5.65373 0
M  V30 3398 H 309.924 -0.162912 -6.51596 0
M  V30 3399 N 313.357 1.07166 -1.15556 0
M  V30 3400 C 314.267 2.17947 -0.868116 0
M  V30 3401 C 315.283 1.73297 0.156297 0
M  V30 3402 O 316.459 2.01392 -0.0182327 0
M  V30 3403 C 313.524 3.44789 -0.36355 0
M  V30 3404 C 312.585 4.03996 -1.45209 0
M  V30 3405 C 311.818 5.24783 -0.971508 0
M  V30 3406 O 312.041 5.70109 0.182194 0
M  V30 3407 O 310.975 5.75715 -1.75603 0
M  V30 3408 H 314.801 2.4503 -1.79427 0
M  V30 3409 H 312.386 1.16539 -0.934824 0
M  V30 3410 H 314.268 4.21307 -0.0887113 0
M  V30 3411 H 312.943 3.19253 0.534708 0
M  V30 3412 H 311.85 3.29009 -1.78056 0
M  V30 3413 H 313.183 4.33808 -2.32533 0
M  V30 3414 N 314.835 0.952656 1.25548 0
M  V30 3415 C 316.06 0.623025 1.97821 0
M  V30 3416 C 316.485 -0.7976 1.70352 0
M  V30 3417 O 315.843 -1.53905 0.958283 0
M  V30 3418 C 315.891 0.885532 3.49558 0
M  V30 3419 O 314.995 -0.0366641 4.12384 0
M  V30 3420 H 314.336 0.237082 0.620232 0
M  V30 3421 H 316.866 1.27871 1.59719 0
M  V30 3422 H 316.876 0.811009 3.99858 0
M  V30 3423 H 315.551 1.92094 3.6888 0
M  V30 3424 H 314.128 0.0898954 3.72792 0
M  V30 3425 N 316.313 -1.40141 0.720998 0
M  V30 3426 C 317.56 -2.00787 0.262842 0
M  V30 3427 C 317.888 -1.5718 -1.14563 0
M  V30 3428 O 317.143 -0.785391 -1.79249 0
M  V30 3429 C 317.442 -3.56165 0.296892 0
M  V30 3430 C 317.108 -4.19373 1.65641 0
M  V30 3431 C 315.77 -4.36352 2.02855 0
M  V30 3432 C 318.122 -4.54578 2.54968 0
M  V30 3433 C 315.45 -4.8582 3.28931 0
M  V30 3434 C 317.802 -5.05447 3.80402 0
M  V30 3435 C 316.466 -5.20635 4.17726 0
M  V30 3436 H 315.736 -0.734731 0.0961807 0
M  V30 3437 H 318.383 -1.67673 0.925093 0
M  V30 3438 H 316.688 -3.8922 -0.448932 0
M  V30 3439 H 318.385 -4.00929 -0.0755208 0
M  V30 3440 H 314.975 -4.06549 1.35704 0
M  V30 3441 H 319.159 -4.41091 2.27491 0
M  V30 3442 H 314.415 -4.95764 3.57811 0
M  V30 3443 H 318.589 -5.31663 4.49786 0
M  V30 3444 H 316.216 -5.58728 5.15487 0
M  V30 3445 N 317.792 -0.46758 -1.50504 0
M  V30 3446 C 319.017 0.0886943 -2.0721 0
M  V30 3447 C 319.442 1.33057 -1.32956 0
M  V30 3448 O 318.8 1.77354 -0.376197 0
M  V30 3449 C 318.848 0.359202 -3.58806 0
M  V30 3450 O 317.952 1.44034 -3.8643 0
M  V30 3451 H 317.293 -0.0114349 -0.663902 0
M  V30 3452 H 319.823 -0.657613 -1.93744 0
M  V30 3453 H 319.833 0.600742 -4.03553 0
M  V30 3454 H 318.508 -0.548311 -4.1227 0
M  V30 3455 H 317.085 1.18638 -3.53524 0
M  V30 3456 N 319.27 1.56325 -0.20005 0
M  V30 3457 C 320.518 1.97329 0.436547 0
M  V30 3458 C 320.839 1.08826 1.61808 0
M  V30 3459 O 320.109 0.160604 1.95241 0
M  V30 3460 H 318.689 0.728714 0.164272 0
M  V30 3461 H 321.351 1.92761 -0.287937 0
M  V30 3462 H 320.447 3.02264 0.777353 0
M  V30 3463 N 320.748 -0.0735177 1.57428 0
M  V30 3464 C 321.973 -0.789787 1.91774 0
M  V30 3465 C 322.398 -1.70413 0.796306 0
M  V30 3466 O 321.756 -1.79555 -0.250961 0
M  V30 3467 C 321.804 -1.5609 3.25067 0
M  V30 3468 O 320.908 -2.67144 3.14178 0
M  V30 3469 H 320.249 -0.215582 0.628029 0
M  V30 3470 H 322.779 -0.0422781 2.04556 0
M  V30 3471 H 322.789 -1.94052 3.58898 0
M  V30 3472 H 321.464 -0.890015 4.06265 0
M  V30 3473 H 320.041 -2.32052 2.91901 0
M  V30 3474 N 322.226 -1.5378 -0.344866 0
M  V30 3475 C 323.156 -1.84662 -1.42906 0
M  V30 3476 C 324.137 -0.701648 -1.54955 0
M  V30 3477 O 325.322 -0.953438 -1.69184 0
M  V30 3478 C 322.452 -2.05503 -2.79974 0
M  V30 3479 C 321.406 -3.21318 -2.82734 0
M  V30 3480 C 320.732 -3.2749 -4.22675 0
M  V30 3481 C 322.032 -4.59456 -2.48389 0
M  V30 3482 H 323.726 -2.75461 -1.17311 0
M  V30 3483 H 321.272 -1.32542 -0.562896 0
M  V30 3484 H 323.225 -2.25691 -3.55867 0
M  V30 3485 H 321.949 -1.11434 -3.07002 0
M  V30 3486 H 320.608 -3.00984 -2.09294 0
M  V30 3487 H 320.256 -2.31019 -4.4681 0
M  V30 3488 H 319.956 -4.05316 -4.25433 0
M  V30 3489 H 321.48 -3.49887 -5.00412 0
M  V30 3490 H 322.894 -4.79667 -3.13995 0
M  V30 3491 H 321.291 -5.39675 -2.62432 0
M  V30 3492 H 322.361 -4.63155 -1.4358 0
M  V30 3493 N 323.704 0.605807 -1.45491 0
M  V30 3494 C 324.952 1.36207 -1.49305 0
M  V30 3495 C 325.273 1.94519 -0.136863 0
M  V30 3496 O 324.543 1.77261 0.833983 0
M  V30 3497 H 323.123 0.50565 -0.549843 0
M  V30 3498 H 325.785 0.711239 -1.81459 0
M  V30 3499 H 324.881 2.18058 -2.23287 0
M  V30 3500 N 325.182 1.32811 0.848464 0
M  V30 3501 C 326.132 1.18842 1.94578 0
M  V30 3502 C 327.116 0.0937517 1.60627 0
M  V30 3503 O 328.308 0.320887 1.74067 0
M  V30 3504 C 325.437 0.91999 3.30743 0
M  V30 3505 C 324.523 2.05665 3.70894 0
M  V30 3506 N 324.914 3.30579 3.8282 0
M  V30 3507 C 323.212 1.9612 4.00566 0
M  V30 3508 C 323.913 4.05067 4.17487 0
M  V30 3509 N 322.889 3.33419 4.2934 0
M  V30 3510 H 326.691 2.13536 2.0194 0
M  V30 3511 H 324.205 1.2468 1.0406 0
M  V30 3512 H 326.202 0.800859 4.09136 0
M  V30 3513 H 324.862 -0.0185076 3.24695 0
M  V30 3514 H 325.873 3.65441 3.66978 0
M  V30 3515 H 322.55 1.09871 4.02784 0
M  V30 3516 H 323.94 5.12815 4.34131 0
M  V30 3517 N 326.66 -1.06551 1.16123 0
M  V30 3518 C 327.59 -2.15935 0.88851 0
M  V30 3519 C 328.571 -1.69306 -0.164135 0
M  V30 3520 O 329.756 -1.94193 -0.0167857 0
M  V30 3521 C 326.886 -3.45149 0.385942 0
M  V30 3522 C 325.84 -4.05271 1.3762 0
M  V30 3523 C 325.166 -5.29664 0.732137 0
M  V30 3524 C 326.466 -4.44355 2.74493 0
M  V30 3525 H 328.16 -2.39006 1.80323 0
M  V30 3526 H 325.706 -1.14866 0.868435 0
M  V30 3527 H 327.659 -4.21004 0.182647 0
M  V30 3528 H 326.383 -3.21689 -0.564274 0
M  V30 3529 H 325.042 -3.3147 1.56599 0
M  V30 3530 H 324.69 -5.02499 -0.224483 0
M  V30 3531 H 324.39 -5.70848 1.39307 0
M  V30 3532 H 325.914 -6.08218 0.538802 0
M  V30 3533 H 327.328 -5.11303 2.59311 0
M  V30 3534 H 325.725 -4.96515 3.37035 0
M  V30 3535 H 326.795 -3.55339 3.29943 0
M  V30 3536 N 328.138 -0.959301 -1.25041 0
M  V30 3537 C 329.07 -0.440543 -2.24926 0
M  V30 3538 C 330.083 0.446131 -1.56568 0
M  V30 3539 O 331.272 0.253657 -1.76689 0
M  V30 3540 C 328.372 0.38412 -3.36716 0
M  V30 3541 C 327.545 -0.490658 -4.34639 0
M  V30 3542 C 326.604 0.276587 -5.25473 0
M  V30 3543 O 325.63 -0.326614 -5.68262 0
M  V30 3544 N 326.832 1.56844 -5.5891 0
M  V30 3545 H 329.597 -1.29931 -2.70071 0
M  V30 3546 H 327.158 -0.830181 -1.38995 0
M  V30 3547 H 329.15 0.905228 -3.94446 0
M  V30 3548 H 327.72 1.14377 -2.90924 0
M  V30 3549 H 326.94 -1.19282 -3.7572 0
M  V30 3550 H 328.228 -1.08756 -4.97041 0
M  V30 3551 H 327.626 2.08036 -5.26059 0
M  V30 3552 H 326.183 2.03541 -6.19205 0
M  V30 3553 N 329.616 1.39756 -0.72842 0
M  V30 3554 C 330.564 2.32485 -0.0731849 0
M  V30 3555 C 331.558 1.52717 0.733063 0
M  V30 3556 O 332.764 1.68428 0.634988 0
M  V30 3557 H 329.139 0.751984 -0.00486469 0
M  V30 3558 H 331.11 2.85382 -0.871761 0
M  V30 3559 C 329.859 3.37773 0.824908 0
M  V30 3560 H 329.182 3.99227 0.213915 0
M  V30 3561 H 330.622 4.05121 1.25111 0
M  V30 3562 C 329.081 2.74287 1.95622 0
M  V30 3563 O 329.611 2.61618 3.04826 0
M  V30 3564 N 327.817 2.32475 1.74367 0
M  V30 3565 H 327.364 2.4298 0.855494 0
M  V30 3566 H 327.322 1.90337 2.50238 0
M  V30 3567 N 331.094 0.475555 1.50254 0
M  V30 3568 C 332.51 0.12997 1.5907 0
M  V30 3569 C 332.71 -1.36385 1.48328 0
M  V30 3570 O 331.766 -2.13754 1.34407 0
M  V30 3571 C 333.079 0.684139 2.92814 0
M  V30 3572 C 334.627 0.647965 3.0622 0
M  V30 3573 C 335.102 1.17975 4.42545 0
M  V30 3574 N 336.593 1.13936 4.48969 0
M  V30 3575 C 337.328 1.52129 5.52851 0
M  V30 3576 N 336.824 1.97793 6.63965 0
M  V30 3577 N 338.617 1.43704 5.4342 0
M  V30 3578 H 330.768 1.44706 1.55479 0
M  V30 3579 H 333.031 0.598691 0.735033 0
M  V30 3580 H 332.737 1.73079 3.06164 0
M  V30 3581 H 332.611 0.130204 3.76975 0
M  V30 3582 H 334.998 -0.38979 2.92514 0
M  V30 3583 H 335.079 1.23876 2.23805 0
M  V30 3584 H 334.723 2.21616 4.57 0
M  V30 3585 H 334.653 0.565138 5.23559 0
M  V30 3586 H 337.144 0.804488 3.69238 0
M  V30 3587 H 337.457 2.25072 7.39299 0
M  V30 3588 H 335.802 2.01749 6.65073 0
M  V30 3589 H 338.993 1.07867 4.55502 0
M  V30 3590 H 339.166 1.73794 6.24259 0
M  V30 3591 N 332.573 -1.56217 0.208337 0
M  V30 3592 C 333.521 -2.21053 -0.723769 0
M  V30 3593 C 334.515 -1.18578 -1.20978 0
M  V30 3594 O 335.721 -1.36691 -1.17114 0
M  V30 3595 H 332.096 -0.708595 -0.251788 0
M  V30 3596 H 334.067 -2.98006 -0.153365 0
M  V30 3597 C 332.816 -2.89417 -1.927 0
M  V30 3598 H 332.139 -3.68019 -1.56212 0
M  V30 3599 H 333.579 -3.38201 -2.55727 0
M  V30 3600 C 332.038 -1.91166 -2.77411 0
M  V30 3601 O 332.568 -1.42026 -3.75754 0
M  V30 3602 N 330.774 -1.59105 -2.43175 0
M  V30 3603 H 330.321 -1.99259 -1.63259 0
M  V30 3604 H 330.279 -0.936255 -3.00136 0
M  V30 3605 N 334.051 0.0651679 -1.57465 0
M  V30 3606 C 334.999 1.09542 -2.05191 0
M  V30 3607 C 335.993 1.39675 -0.958509 0
M  V30 3608 O 337.199 1.39003 -1.14359 0
M  V30 3609 H 333.574 0.370623 -0.654326 0
M  V30 3610 H 335.545 0.666802 -2.90854 0
M  V30 3611 C 334.294 2.39881 -2.51699 0
M  V30 3612 H 333.617 2.17547 -3.3543 0
M  V30 3613 H 335.057 3.104 -2.88839 0
M  V30 3614 C 333.516 3.0631 -1.40271 0
M  V30 3615 O 334.046 3.94664 -0.748523 0
M  V30 3616 N 332.252 2.67041 -1.14618 0
M  V30 3617 H 331.799 1.95281 -1.67997 0
M  V30 3618 H 331.757 3.1181 -0.402688 0
M  V30 3619 N 335.529 1.53961 0.336706 0
M  V30 3620 C 336.754 1.75797 1.10046 0
M  V30 3621 C 337.179 0.498985 1.81361 0
M  V30 3622 O 336.537 -0.548769 1.72795 0
M  V30 3623 C 336.585 2.94257 2.08436 0
M  V30 3624 O 335.689 2.64883 3.16087 0
M  V30 3625 H 335.03 0.582936 0.317934 0
M  V30 3626 H 337.56 2.00945 0.38501 0
M  V30 3627 H 337.57 3.21237 2.51537 0
M  V30 3628 H 336.245 3.85564 1.55927 0
M  V30 3629 H 334.822 2.48812 2.77753 0
M  V30 3630 N 337.007 -0.598083 1.45811 0
M  V30 3631 C 338.247 -1.36802 1.5187 0
M  V30 3632 C 338.611 -1.9133 0.160224 0
M  V30 3633 O 339.812 -2.6863 0.0955302 0
M  V30 3634 C 338.083 -2.47835 2.57513 0
M  V30 3635 S 339.642 -3.35458 2.82866 0
M  V30 3636 H 336.46 -0.466278 0.536755 0
M  V30 3637 H 339.062 -0.689152 1.82951 0
M  V30 3638 H 337.766 -2.06141 3.54872 0
M  V30 3639 H 337.297 -3.20512 2.28114 0
M  V30 3640 H 339.312 -4.46251 2.16967 0
M  V30 3641 N 338.485 -1.33259 -0.841409 0
M  V30 3642 C 339.762 -1.15174 -1.58096 0
M  V30 3643 C 340.142 0.282858 -2.09196 0
M  V30 3644 O 339.49 1.28151 -1.89181 0
M  V30 3645 C 339.7 -2.1907 -2.71679 0
M  V30 3646 C 341.048 -2.53093 -3.40924 0
M  V30 3647 O 342.072 -2.17717 -2.81918 0
M  V30 3648 O 340.931 -3.1379 -4.47435 0
M  V30 3649 H 338.025 -0.445303 -0.696875 0
M  V30 3650 H 340.571 -1.44833 -0.884385 0
M  V30 3651 H 339.343 -3.15443 -2.31541 0
M  V30 3652 H 338.966 -1.90481 -3.49002 0
M  V30 3653 N 339.963 1.05934 -1.16686 0
M  V30 3654 C 341.188 1.83029 -0.975455 0
M  V30 3655 C 341.613 1.82096 0.471452 0
M  V30 3656 O 340.971 1.22443 1.33706 0
M  V30 3657 C 341.019 3.27372 -1.51195 0
M  V30 3658 O 340.123 4.06054 -0.720701 0
M  V30 3659 H 339.464 0.566194 -0.346872 0
M  V30 3660 H 341.994 1.33541 -1.55009 0
M  V30 3661 H 342.004 3.78186 -1.53099 0
M  V30 3662 H 340.679 3.27366 -2.56523 0
M  V30 3663 H 339.256 3.64812 -0.772458 0
M  V30 3664 N 341.441 0.965919 1.2453 0
M  V30 3665 C 342.857 0.67216 1.44756 0
M  V30 3666 C 343.057 -0.766609 1.86347 0
M  V30 3667 O 342.113 -1.5407 2.00047 0
M  V30 3668 C 343.426 1.65473 2.51076 0
M  V30 3669 C 344.974 1.66716 2.64905 0
M  V30 3670 C 345.449 2.63766 3.74421 0
M  V30 3671 N 346.94 2.62198 3.81846 0
M  V30 3672 C 347.675 3.33966 4.66106 0
M  V30 3673 N 347.171 4.15245 5.54566 0
M  V30 3674 N 348.964 3.22799 4.60171 0
M  V30 3675 H 341.115 1.89553 0.958293 0
M  V30 3676 H 343.378 0.815979 0.482579 0
M  V30 3677 H 343.084 2.68296 2.27399 0
M  V30 3678 H 342.958 1.4261 3.49202 0
M  V30 3679 H 345.345 0.646057 2.87941 0
M  V30 3680 H 345.426 1.93642 1.67142 0
M  V30 3681 H 345.07 3.6601 3.52135 0
M  V30 3682 H 345 2.34121 4.71694 0
M  V30 3683 H 347.491 2.032 3.18619 0
M  V30 3684 H 347.804 4.66898 6.15814 0
M  V30 3685 H 346.149 4.1934 5.54237 0
M  V30 3686 H 349.34 2.58764 3.90075 0
M  V30 3687 H 349.513 3.78994 5.25612 0
M  V30 3688 N 342.919 -1.39368 0.735821 0
M  V30 3689 C 344.167 -2.00101 0.283562 0
M  V30 3690 C 344.488 -1.5868 -1.13338 0
M  V30 3691 O 343.758 -0.835423 -1.77193 0
M  V30 3692 H 342.338 -0.740024 0.101851 0
M  V30 3693 H 345 -1.70404 0.945962 0
M  V30 3694 H 344.096 -3.10323 0.332604 0
M  V30 3695 N 344.397 -0.483516 -1.5 0
M  V30 3696 C 345.329 0.340634 -2.26655 0
M  V30 3697 C 346.342 0.946152 -1.32483 0
M  V30 3698 O 347.531 0.832453 -1.579 0
M  V30 3699 C 344.631 1.4929 -3.04246 0
M  V30 3700 C 343.804 0.997903 -4.25865 0
M  V30 3701 C 342.863 2.02569 -4.85646 0
M  V30 3702 O 341.889 1.60128 -5.46212 0
M  V30 3703 N 343.091 3.3548 -4.73744 0
M  V30 3704 H 345.856 -0.316577 -2.98023 0
M  V30 3705 H 343.417 -0.315024 -1.58806 0
M  V30 3706 H 345.409 2.17766 -3.41116 0
M  V30 3707 H 343.979 2.05458 -2.35597 0
M  V30 3708 H 343.199 0.138617 -3.93956 0
M  V30 3709 H 344.487 0.645305 -5.04691 0
M  V30 3710 H 343.885 3.72661 -4.25605 0
M  V30 3711 H 342.442 3.99718 -5.14848 0
M  V30 3712 N 345.875 1.56104 -0.216619 0
M  V30 3713 C 347.103 2.02563 0.421413 0
M  V30 3714 C 347.518 1.0965 1.53695 0
M  V30 3715 O 346.875 0.10521 1.82196 0
M  V30 3716 C 346.926 3.48584 0.957665 0
M  V30 3717 O 346.647 4.37953 -0.113389 0
M  V30 3718 C 348.148 4.10664 1.66943 0
M  V30 3719 H 345.368 0.662944 0.103665 0
M  V30 3720 H 347.912 2.01793 -0.331629 0
M  V30 3721 H 346.067 3.49985 1.661 0
M  V30 3722 H 346.481 5.23704 0.288932 0
M  V30 3723 H 347.955 5.14622 1.99671 0
M  V30 3724 H 348.432 3.55373 2.58083 0
M  V30 3725 H 349.038 4.13098 1.01142 0
M  V30 3726 N 347.353 -0.0568162 1.57498 0
M  V30 3727 C 348.581 -0.765626 1.92213 0
M  V30 3728 C 348.996 -1.70353 0.813961 0
M  V30 3729 O 348.353 -1.81268 -0.211701 0
M  V30 3730 C 348.404 -1.5465 3.2675 0
M  V30 3731 O 348.125 -0.646278 4.33307 0
M  V30 3732 C 349.626 -2.35497 3.75574 0
M  V30 3733 H 346.846 -0.216835 0.634999 0
M  V30 3734 H 349.39 -0.0226146 2.04487 0
M  V30 3735 H 347.545 -2.24165 3.15957 0
M  V30 3736 H 347.959 -1.19093 5.108 0
M  V30 3737 H 349.433 -2.85722 4.72299 0
M  V30 3738 H 349.91 -3.15692 3.05344 0
M  V30 3739 H 350.516 -1.7111 3.8936 0
M  V30 3740 N 348.832 -1.54138 -0.328536 0
M  V30 3741 C 349.779 -1.83176 -1.40411 0
M  V30 3742 C 350.749 -0.678494 -1.5161 0
M  V30 3743 O 351.934 -0.92443 -1.6691 0
M  V30 3744 C 349.074 -2.06035 -2.76846 0
M  V30 3745 C 348.187 -3.33727 -2.74318 0
M  V30 3746 C 347.322 -3.46574 -4.02567 0
M  V30 3747 C 346.361 -4.68159 -3.94327 0
M  V30 3748 N 345.498 -4.77959 -5.14296 0
M  V30 3749 H 350.338 -2.74938 -1.14948 0
M  V30 3750 H 347.875 -1.36166 -0.556538 0
M  V30 3751 H 349.833 -2.1728 -3.56153 0
M  V30 3752 H 348.463 -1.1757 -3.00628 0
M  V30 3753 H 347.515 -3.31246 -1.8703 0
M  V30 3754 H 348.827 -4.23139 -2.64111 0
M  V30 3755 H 347.981 -3.57333 -4.90304 0
M  V30 3756 H 346.72 -2.55245 -4.15574 0
M  V30 3757 H 345.725 -4.57461 -3.04974 0
M  V30 3758 H 346.95 -5.60868 -3.82889 0
M  V30 3759 H 344.896 -3.89544 -5.27818 0
M  V30 3760 H 344.813 -5.6133 -5.06404 0
M  V30 3761 H 346.081 -4.93044 -6.03761 0
M  V30 3762 N 350.31 0.590341 -1.46126 0
M  V30 3763 C 351.273 1.68194 -1.55703 0
M  V30 3764 C 352.273 1.54808 -0.434868 0
M  V30 3765 O 353.463 1.59564 -0.698928 0
M  V30 3766 C 350.595 3.07575 -1.47005 0
M  V30 3767 H 351.788 1.61064 -2.52979 0
M  V30 3768 H 349.341 0.807541 -1.33823 0
M  V30 3769 H 350.076 3.20268 -0.509785 0
M  V30 3770 H 349.861 3.187 -2.28414 0
M  V30 3771 H 351.351 3.87055 -1.56776 0
M  V30 3772 N 351.788 1.33704 0.83433 0
M  V30 3773 C 353.204 1.13137 1.12571 0
M  V30 3774 C 353.404 -0.0747261 2.01361 0
M  V30 3775 O 352.46 -0.753647 2.4099 0
M  V30 3776 C 353.773 2.42105 1.78342 0
M  V30 3777 C 355.321 2.48054 1.90888 0
M  V30 3778 C 355.796 3.76995 2.60075 0
M  V30 3779 N 357.287 3.78092 2.67584 0
M  V30 3780 C 358.022 4.74574 3.21818 0
M  V30 3781 N 357.518 5.81434 3.76705 0
M  V30 3782 N 359.311 4.62044 3.20112 0
M  V30 3783 H 351.462 2.11 0.243489 0
M  V30 3784 H 353.725 0.932532 0.17055 0
M  V30 3785 H 353.431 3.30391 1.20561 0
M  V30 3786 H 353.305 2.54594 2.7832 0
M  V30 3787 H 355.692 1.60215 2.47821 0
M  V30 3788 H 355.773 2.39502 0.898459 0
M  V30 3789 H 355.417 4.65219 2.03799 0
M  V30 3790 H 355.347 3.82825 3.61597 0
M  V30 3791 H 357.838 3.00865 2.28667 0
M  V30 3792 H 358.151 6.51084 4.16305 0
M  V30 3793 H 356.496 5.85163 3.7498 0
M  V30 3794 H 359.687 3.77716 2.76493 0
M  V30 3795 H 359.86 5.37406 3.62076 0
M  V30 3796 N 353.266 -1.05314 1.17247 0
M  V30 3797 C 354.513 -1.78293 0.960091 0
M  V30 3798 C 354.841 -1.87658 -0.51136 0
M  V30 3799 O 354.096 -1.3718 -1.39571 0
M  V30 3800 C 354.395 -3.2229 1.54479 0
M  V30 3801 C 354.061 -3.32987 3.04024 0
M  V30 3802 C 352.723 -3.35613 3.44844 0
M  V30 3803 C 355.075 -3.34102 4.00031 0
M  V30 3804 C 352.403 -3.36982 4.8027 0
M  V30 3805 C 354.755 -3.3701 5.35357 0
M  V30 3806 C 353.419 -3.37923 5.75642 0
M  V30 3807 H 352.689 -0.652422 0.351322 0
M  V30 3808 H 355.336 -1.23782 1.46117 0
M  V30 3809 H 353.641 -3.7972 0.965391 0
M  V30 3810 H 355.338 -3.77376 1.35603 0
M  V30 3811 H 351.928 -3.31655 2.71483 0
M  V30 3812 H 356.112 -3.31276 3.69554 0
M  V30 3813 H 351.368 -3.35999 5.10798 0
M  V30 3814 H 355.542 -3.36822 6.09528 0
M  V30 3815 H 353.169 -3.38738 6.80559 0
M  V30 3816 N 354.744 -0.972509 -1.24016 0
M  V30 3817 C 355.674 -0.525548 -2.27509 0
M  V30 3818 C 356.655 0.437262 -1.64384 0
M  V30 3819 O 357.84 0.332343 -1.91335 0
M  V30 3820 C 354.97 0.180448 -3.46831 0
M  V30 3821 C 353.924 -0.698859 -4.22256 0
M  V30 3822 C 353.25 0.138903 -5.3452 0
M  V30 3823 C 354.55 -1.98582 -4.83076 0
M  V30 3824 H 356.244 -1.39058 -2.65148 0
M  V30 3825 H 353.79 -0.67009 -1.27459 0
M  V30 3826 H 355.743 0.504387 -4.18371 0
M  V30 3827 H 354.467 1.07987 -3.08231 0
M  V30 3828 H 353.126 -1.00614 -3.52523 0
M  V30 3829 H 352.774 1.03862 -4.9216 0
M  V30 3830 H 352.474 -0.446259 -5.85903 0
M  V30 3831 H 353.998 0.457404 -6.08884 0
M  V30 3832 H 355.412 -1.72715 -5.46665 0
M  V30 3833 H 353.809 -2.5181 -5.44713 0
M  V30 3834 H 354.879 -2.67769 -4.04262 0
M  V30 3835 N 356.222 1.38976 -0.743202 0
M  V30 3836 C 357.452 2.04339 -0.304807 0
M  V30 3837 C 357.86 1.56162 1.06819 0
M  V30 3838 O 357.203 0.725284 1.68776 0
M  V30 3839 C 357.265 3.58716 -0.237369 0
M  V30 3840 C 356.929 4.29905 -1.55018 0
M  V30 3841 C 357.926 4.55987 -2.49744 0
M  V30 3842 C 355.611 4.68294 -1.81675 0
M  V30 3843 C 357.605 5.19478 -3.69353 0
M  V30 3844 C 355.292 5.31512 -3.0156 0
M  V30 3845 C 356.29 5.57037 -3.9522 0
M  V30 3846 O 355.978 6.18941 -5.12998 0
M  V30 3847 H 355.71 0.663439 -0.12971 0
M  V30 3848 H 358.264 1.78852 -1.01001 0
M  V30 3849 H 356.494 3.83133 0.524003 0
M  V30 3850 H 358.183 4.05543 0.170121 0
M  V30 3851 H 358.949 4.26767 -2.30423 0
M  V30 3852 H 354.828 4.47779 -1.09615 0
M  V30 3853 H 358.372 5.39318 -4.42473 0
M  V30 3854 H 354.269 5.60153 -3.20778 0
M  V30 3855 H 355.037 6.37433 -5.13441 0
M  V30 3856 N 357.7 0.491464 1.49741 0
M  V30 3857 C 358.948 -0.0563141 2.02022 0
M  V30 3858 C 359.269 -1.38363 1.37407 0
M  V30 3859 O 358.539 -1.88702 0.526166 0
M  V30 3860 H 357.119 -0.0238014 0.746621 0
M  V30 3861 H 359.781 0.646533 1.83864 0
M  V30 3862 H 358.877 -0.192967 3.11503 0
M  V30 3863 N 359.178 -1.55987 0.224894 0
M  V30 3864 C 360.088 -2.24066 -0.69511 0
M  V30 3865 C 361.104 -1.24939 -1.21104 0
M  V30 3866 O 362.28 -1.5776 -1.25195 0
M  V30 3867 C 359.345 -2.90983 -1.88493 0
M  V30 3868 C 358.406 -4.05462 -1.41064 0
M  V30 3869 C 357.639 -4.69179 -2.54375 0
M  V30 3870 O 357.862 -4.31895 -3.72589 0
M  V30 3871 O 356.796 -5.58108 -2.25386 0
M  V30 3872 H 360.622 -3.03353 -0.145149 0
M  V30 3873 H 358.207 -1.49399 -0.00569476 0
M  V30 3874 H 360.089 -3.33209 -2.57972 0
M  V30 3875 H 358.764 -2.14653 -2.42293 0
M  V30 3876 H 357.671 -3.67798 -0.683774 0
M  V30 3877 H 359.004 -4.83545 -0.918985 0
M  V30 3878 N 360.656 0.0484629 -1.57525 0
M  V30 3879 C 361.604 1.07359 -2.06341 0
M  V30 3880 C 362.598 1.3865 -0.973269 0
M  V30 3881 O 363.804 1.37783 -1.15827 0
M  V30 3882 H 360.179 0.363662 -0.65822 0
M  V30 3883 H 362.15 0.635916 -2.91545 0
M  V30 3884 C 360.899 2.37198 -2.54229 0
M  V30 3885 H 360.222 2.13977 -3.37719 0
M  V30 3886 H 361.662 3.07319 -2.92115 0
M  V30 3887 C 360.121 3.04805 -1.43511 0
M  V30 3888 O 360.651 3.93848 -0.79034 0
M  V30 3889 N 358.857 2.65811 -1.17444 0
M  V30 3890 H 358.404 1.93488 -1.70059 0
M  V30 3891 H 358.362 3.11366 -0.435737 0
M  V30 3892 N 362.134 1.5431 0.320358 0
M  V30 3893 C 363.067 1.78769 1.41834 0
M  V30 3894 C 364.045 0.63783 1.49568 0
M  V30 3895 O 365.229 0.875628 1.66928 0
M  V30 3896 C 362.356 1.90712 2.79905 0
M  V30 3897 C 361.402 3.13023 2.89687 0
M  V30 3898 S 362.235 4.71554 2.53766 0
M  V30 3899 C 363.391 4.86408 3.93902 0
M  V30 3900 H 363.624 2.71619 1.20874 0
M  V30 3901 H 361.157 1.45474 0.517377 0
M  V30 3902 H 363.115 1.98279 3.59438 0
M  V30 3903 H 361.776 0.988343 2.98145 0
M  V30 3904 H 360.969 3.18124 3.90913 0
M  V30 3905 H 360.571 3.03803 2.18128 0
M  V30 3906 H 362.863 4.69241 4.88691 0
M  V30 3907 H 363.806 5.88508 3.93782 0
M  V30 3908 H 364.214 4.14689 3.83005 0
M  V30 3909 N 363.613 -0.582584 1.46437 0
M  V30 3910 C 365.024 -1.1647 1.45916 0
M  V30 3911 C 365.375 -1.95177 0.200077 0
M  V30 3912 O 364.5 -2.04874 -0.696819 0
M  V30 3913 C 365.095 -2.11885 2.64367 0
M  V30 3914 C 363.654 -2.65421 2.66887 0
M  V30 3915 C 362.801 -1.41294 2.38603 0
M  V30 3916 H 365.752 -0.370514 1.54314 0
M  V30 3917 H 365.773 -2.9535 2.39892 0
M  V30 3918 H 365.285 -1.54573 3.5599 0
M  V30 3919 H 363.386 -3.26602 1.79338 0
M  V30 3920 H 363.499 -3.08147 3.66854 0
M  V30 3921 H 361.863 -1.71109 1.88663 0
M  V30 3922 H 362.646 -0.858125 3.32402 0
M  V30 3923 N 365.091 -1.34144 -0.827227 0
M  V30 3924 C 366.502 -1.23557 -1.39966 0
M  V30 3925 C 366.853 0.140731 -1.95695 0
M  V30 3926 O 365.978 1.04087 -1.89723 0
M  V30 3927 C 366.573 -2.23708 -2.54441 0
M  V30 3928 C 365.132 -2.16924 -3.07605 0
M  V30 3929 C 364.279 -2.10549 -1.80456 0
M  V30 3930 H 367.23 -1.45573 -0.631991 0
M  V30 3931 H 367.251 -1.85157 -3.32411 0
M  V30 3932 H 366.763 -3.23866 -2.13851 0
M  V30 3933 H 364.864 -1.20107 -3.52711 0
M  V30 3934 H 364.977 -3.07988 -3.66988 0
M  V30 3935 H 363.341 -1.56203 -2.01178 0
M  V30 3936 H 364.124 -3.12535 -1.42046 0
M  V30 3937 N 366.569 1.04691 -1.17803 0
M  V30 3938 C 367.501 2.12571 -0.857097 0
M  V30 3939 C 368.514 1.62174 0.142647 0
M  V30 3940 O 369.703 1.78301 -0.0843387 0
M  V30 3941 C 366.803 3.37915 -0.258216 0
M  V30 3942 C 365.976 4.1757 -1.30207 0
M  V30 3943 C 365.035 5.2125 -0.720029 0
M  V30 3944 O 364.061 5.51888 -1.39314 0
M  V30 3945 N 365.263 5.78466 0.485507 0
M  V30 3946 H 368.028 2.40698 -1.78562 0
M  V30 3947 H 365.589 1.20831 -1.07757 0
M  V30 3948 H 367.581 4.04442 0.144584 0
M  V30 3949 H 366.151 3.07281 0.574199 0
M  V30 3950 H 365.371 3.46458 -1.88043 0
M  V30 3951 H 366.659 4.67586 -2.00601 0
M  V30 3952 H 366.057 5.55866 1.05022 0
M  V30 3953 H 364.614 6.4649 0.830307 0
M  V30 3954 N 368.047 0.979072 1.23499 0
M  V30 3955 C 369.324 0.563674 1.87302 0
M  V30 3956 C 369.704 -0.959199 1.88049 0
M  V30 3957 O 369.052 -1.83535 1.36114 0
M  V30 3958 C 369.262 1.16822 3.28867 0
M  V30 3959 C 370.61 1.26014 4.0547 0
M  V30 3960 O 371.634 1.12158 3.38082 0
M  V30 3961 O 370.493 1.48044 5.26066 0
M  V30 3962 H 367.587 0.189602 0.804972 0
M  V30 3963 H 370.133 1.07407 1.31384 0
M  V30 3964 H 368.905 2.21049 3.22883 0
M  V30 3965 H 368.528 0.642564 3.92373 0
M  V30 3966 N 369.525 -1.3858 0.750561 0
M  V30 3967 C 370.488 -2.28836 0.129152 0
M  V30 3968 C 371.488 -1.47045 -0.650714 0
M  V30 3969 O 372.678 -1.6753 -0.477428 0
M  V30 3970 C 369.81 -3.30751 -0.825622 0
M  V30 3971 H 371.003 -2.85294 0.924516 0
M  V30 3972 H 368.556 -1.47489 0.517376 0
M  V30 3973 H 369.291 -2.79378 -1.64677 0
M  V30 3974 H 369.076 -3.91177 -0.268852 0
M  V30 3975 H 370.566 -3.98249 -1.2565 0
M  V30 3976 N 371.003 -0.499398 -1.49478 0
M  V30 3977 C 371.913 0.284489 -2.32869 0
M  V30 3978 C 372.929 0.968885 -1.44529 0
M  V30 3979 O 374.105 0.95062 -1.77553 0
M  V30 3980 C 371.17 1.33594 -3.19928 0
M  V30 3981 C 370.231 0.665149 -4.24116 0
M  V30 3982 C 369.464 1.6665 -5.07014 0
M  V30 3983 O 369.687 2.89618 -4.91404 0
M  V30 3984 O 368.621 1.22271 -5.8935 0
M  V30 3985 H 372.447 -0.39802 -3.01081 0
M  V30 3986 H 370.032 -0.260758 -1.47107 0
M  V30 3987 H 371.914 1.94431 -3.73864 0
M  V30 3988 H 370.589 2.0014 -2.54412 0
M  V30 3989 H 369.496 0.0170769 -3.74096 0
M  V30 3990 H 370.829 0.0421555 -4.92182 0
M  V30 3991 N 372.481 1.55866 -0.233164 0
M  V30 3992 C 373.73 1.97779 0.39579 0
M  V30 3993 C 374.043 1.12419 1.60066 0
M  V30 3994 O 375.249 1.44283 2.29988 0
M  V30 3995 C 373.705 3.5188 0.755556 0
M  V30 3996 C 373.313 4.45959 -0.427152 0
M  V30 3997 C 375.057 4.02479 1.34946 0
M  V30 3998 C 372.964 5.91383 -0.0443043 0
M  V30 3999 H 371.894 0.738592 0.15165 0
M  V30 4000 H 374.545 1.80486 -0.331212 0
M  V30 4001 H 372.927 3.64816 1.5403 0
M  V30 4002 H 374.101 4.44776 -1.20462 0
M  V30 4003 H 372.416 4.05765 -0.935068 0
M  V30 4004 H 375.013 5.08637 1.649 0
M  V30 4005 H 375.356 3.49014 2.26925 0
M  V30 4006 H 375.889 3.92813 0.62791 0
M  V30 4007 H 372.628 6.48857 -0.930874 0
M  V30 4008 H 372.148 5.95734 0.697238 0
M  V30 4009 H 373.827 6.45893 0.378334 0
M  V30 4010 N 373.959 -0.0401083 1.57549 0
M  V30 4011 C 375.207 -0.731677 1.8839 0
M  V30 4012 C 375.528 -1.76481 0.829425 0
M  V30 4013 O 374.798 -1.95411 -0.1383 0
M  V30 4014 H 373.378 -0.273225 0.695239 0
M  V30 4015 H 376.04 -0.00867725 1.94898 0
M  V30 4016 H 375.136 -1.22816 2.86919 0
M  V30 4017 N 375.437 -1.54477 -0.31217 0
M  V30 4018 C 376.667 -1.76948 -1.06645 0
M  V30 4019 C 377.075 -0.523593 -1.81811 0
M  V30 4020 O 376.418 0.51578 -1.76311 0
M  V30 4021 C 376.48 -2.91668 -2.10166 0
M  V30 4022 C 376.144 -4.30165 -1.54296 0
M  V30 4023 C 377.141 -5.10603 -0.978793 0
M  V30 4024 C 374.826 -4.76738 -1.58196 0
M  V30 4025 C 376.82 -6.3573 -0.461048 0
M  V30 4026 C 374.507 -6.01831 -1.06034 0
M  V30 4027 C 375.505 -6.81161 -0.500844 0
M  V30 4028 O 375.193 -8.03899 0.0128958 0
M  V30 4029 H 374.925 -0.594088 -0.322546 0
M  V30 4030 H 377.479 -2.02213 -0.360441 0
M  V30 4031 H 375.709 -2.62001 -2.84416 0
M  V30 4032 H 377.398 -3.01817 -2.71406 0
M  V30 4033 H 378.164 -4.75771 -0.941651 0
M  V30 4034 H 374.043 -4.15027 -2.00683 0
M  V30 4035 H 377.587 -6.97596 -0.0236894 0
M  V30 4036 H 373.484 -6.36152 -1.09459 0
M  V30 4037 H 374.252 -8.18437 -0.101457 0
M  V30 4038 N 376.915 0.57481 -1.46744 0
M  V30 4039 C 378.331 0.898981 -1.31873 0
M  V30 4040 C 378.531 1.99313 -0.29605 0
M  V30 4041 O 377.587 2.50728 0.298621 0
M  V30 4042 C 378.9 1.30886 -2.7072 0
M  V30 4043 C 380.448 1.42127 -2.78871 0
M  V30 4044 C 380.923 1.86478 -4.18318 0
M  V30 4045 N 382.414 1.93658 -4.20774 0
M  V30 4046 C 383.149 2.29267 -5.2557 0
M  V30 4047 N 382.645 2.63612 -6.40688 0
M  V30 4048 N 384.438 2.29889 -5.1294 0
M  V30 4049 H 376.589 -0.147839 -2.11885 0
M  V30 4050 H 378.852 -0.00347013 -0.947994 0
M  V30 4051 H 378.558 0.578853 -3.46904 0
M  V30 4052 H 378.432 2.26874 -3.01343 0
M  V30 4053 H 380.819 2.14213 -2.0297 0
M  V30 4054 H 380.9 0.443705 -2.51922 0
M  V30 4055 H 380.544 1.14968 -4.94717 0
M  V30 4056 H 380.474 2.85207 -4.42679 0
M  V30 4057 H 382.965 1.69574 -3.37718 0
M  V30 4058 H 383.278 2.89759 -7.16421 0
M  V30 4059 H 381.623 2.61232 -6.44036 0
M  V30 4060 H 384.814 2.02485 -4.22039 0
M  V30 4061 H 384.987 2.57312 -5.94722 0
M  V30 4062 N 378.394 1.34581 0.820102 0
M  V30 4063 C 379.342 1.26401 1.95258 0
M  V30 4064 C 380.336 0.161553 1.68628 0
M  V30 4065 O 381.542 0.326703 1.7701 0
M  V30 4066 H 377.917 0.392749 0.64129 0
M  V30 4067 H 379.888 2.22105 1.99279 0
M  V30 4068 C 378.637 1.03919 3.31807 0
M  V30 4069 H 377.96 1.87984 3.52848 0
M  V30 4070 H 379.4 1.02232 4.11491 0
M  V30 4071 C 377.859 -0.257433 3.35915 0
M  V30 4072 O 378.389 -1.25784 3.81499 0
M  V30 4073 N 376.595 -0.291524 2.89134 0
M  V30 4074 H 376.142 0.523161 2.52232 0
M  V30 4075 H 376.1 -1.15883 2.92264 0
M  V30 4076 N 379.872 -1.04064 1.18357 0
M  V30 4077 C 381.097 -1.81454 1.00445 0
M  V30 4078 C 381.522 -1.82823 -0.442423 0
M  V30 4079 O 380.88 -1.24555 -1.31741 0
M  V30 4080 C 380.928 -3.24925 1.56384 0
M  V30 4081 O 380.032 -4.04856 0.785209 0
M  V30 4082 H 379.373 -0.560604 0.355835 0
M  V30 4083 H 381.903 -1.31059 1.57114 0
M  V30 4084 H 381.913 -3.75702 1.59097 0
M  V30 4085 H 380.588 -3.23244 2.61699 0
M  V30 4086 H 379.165 -3.63537 0.830399 0
M  V30 4087 N 381.35 -0.985608 -1.22978 0
M  V30 4088 C 382.28 -0.549649 -2.26939 0
M  V30 4089 C 383.261 0.419803 -1.64838 0
M  V30 4090 O 384.446 0.31203 -1.91677 0
M  V30 4091 C 381.576 0.143652 -3.47003 0
M  V30 4092 C 380.53 -0.743606 -4.21491 0
M  V30 4093 C 379.856 0.0822027 -5.34637 0
M  V30 4094 C 381.156 -2.03694 -4.80943 0
M  V30 4095 H 382.85 -1.41862 -2.63658 0
M  V30 4096 H 380.396 -0.683571 -1.26741 0
M  V30 4097 H 382.349 0.459985 -4.18882 0
M  V30 4098 H 381.073 1.04711 -3.09359 0
M  V30 4099 H 379.732 -1.04347 -3.51436 0
M  V30 4100 H 379.38 0.986359 -4.93234 0
M  V30 4101 H 379.08 -0.508377 -5.85397 0
M  V30 4102 H 380.604 0.392797 -6.09335 0
M  V30 4103 H 382.018 -1.78504 -5.44802 0
M  V30 4104 H 380.415 -2.57573 -5.42011 0
M  V30 4105 H 381.485 -2.72042 -4.01399 0
M  V30 4106 N 382.828 1.3818 -0.7579 0
M  V30 4107 C 384.244 1.5353 -0.435972 0
M  V30 4108 C 384.444 1.71961 1.05032 0
M  V30 4109 O 383.5 1.73307 1.83633 0
M  V30 4110 C 384.813 2.73989 -1.23898 0
M  V30 4111 C 386.361 2.87841 -1.22949 0
M  V30 4112 C 386.836 4.11266 -2.01554 0
M  V30 4113 N 388.327 4.18352 -1.98837 0
M  V30 4114 C 389.062 5.12856 -2.5645 0
M  V30 4115 N 388.558 6.13005 -3.22794 0
M  V30 4116 N 390.351 5.05238 -2.46356 0
M  V30 4117 H 382.502 1.24467 -1.7211 0
M  V30 4118 H 384.765 0.604982 -0.729864 0
M  V30 4119 H 384.471 2.66789 -2.29165 0
M  V30 4120 H 384.345 3.67294 -0.858764 0
M  V30 4121 H 386.732 2.9452 -0.184854 0
M  V30 4122 H 386.813 1.95534 -1.64924 0
M  V30 4123 H 386.457 4.05349 -3.06031 0
M  V30 4124 H 386.387 5.02661 -1.5697 0
M  V30 4125 H 388.878 3.46628 -1.50524 0
M  V30 4126 H 389.191 6.81619 -3.64165 0
M  V30 4127 H 387.536 6.13325 -3.2689 0
M  V30 4128 H 390.727 4.25938 -1.9415 0
M  V30 4129 H 390.9 5.78707 -2.91552 0
M  V30 4130 N 384.306 0.507319 1.49211 0
M  V30 4131 C 385.238 -0.304532 2.27168 0
M  V30 4132 C 386.251 -0.924956 1.33972 0
M  V30 4133 O 387.44 -0.807227 1.59205 0
M  V30 4134 C 384.54 -1.44431 3.06583 0
M  V30 4135 C 383.713 -0.930026 4.27398 0
M  V30 4136 C 382.772 -1.94817 4.88807 0
M  V30 4137 O 381.798 -1.51418 5.4869 0
M  V30 4138 N 383 -3.279 4.79022 0
M  V30 4139 H 385.765 0.36395 2.97482 0
M  V30 4140 H 383.326 0.340249 1.58284 0
M  V30 4141 H 385.318 -2.12311 3.44537 0
M  V30 4142 H 383.888 -2.01684 2.38835 0
M  V30 4143 H 383.108 -0.0759244 3.94127 0
M  V30 4144 H 384.396 -0.564932 5.05654 0
M  V30 4145 H 383.794 -3.65843 4.3148 0
M  V30 4146 H 382.351 -3.91476 5.21142 0
M  V30 4147 N 385.784 -1.5574 0.241426 0
M  V30 4148 C 387.012 -2.03208 -0.389134 0
M  V30 4149 C 387.427 -1.12082 -1.51931 0
M  V30 4150 O 386.784 -0.134183 -1.82006 0
M  V30 4151 C 386.835 -3.50064 -0.902087 0
M  V30 4152 O 386.556 -4.37717 0.18305 0
M  V30 4153 C 388.057 -4.13268 -1.60389 0
M  V30 4154 H 385.277 -0.664509 -0.0931053 0
M  V30 4155 H 387.821 -2.0124 0.36369 0
M  V30 4156 H 385.976 -3.52583 -1.60511 0
M  V30 4157 H 386.39 -5.24097 -0.205579 0
M  V30 4158 H 387.864 -5.17733 -1.91458 0
M  V30 4159 H 388.341 -3.59434 -2.52397 0
M  V30 4160 H 388.947 -4.14655 -0.945576 0
M  V30 4161 N 387.262 0.0317525 -1.57568 0
M  V30 4162 C 388.21 1.05165 -2.07468 0
M  V30 4163 C 389.204 1.3761 -0.98792 0
M  V30 4164 O 390.41 1.36546 -1.17282 0
M  V30 4165 H 386.785 0.35666 -0.66204 0
M  V30 4166 H 388.756 0.604958 -2.92203 0
M  V30 4167 C 387.505 2.34488 -2.56731 0
M  V30 4168 H 386.828 2.10383 -3.39969 0
M  V30 4169 H 388.268 3.04203 -2.95358 0
M  V30 4170 C 386.727 3.03266 -1.46736 0
M  V30 4171 O 387.257 3.92988 -0.832069 0
M  V30 4172 N 385.463 2.6455 -1.20256 0
M  V30 4173 H 385.01 1.91674 -1.72102 0
M  V30 4174 H 384.968 3.10886 -0.468737 0
M  V30 4175 N 388.74 1.54641 0.303973 0
M  V30 4176 C 389.687 1.85386 1.37479 0
M  V30 4177 C 390.657 0.702528 1.50512 0
M  V30 4178 O 391.842 0.950867 1.65418 0
M  V30 4179 C 388.982 2.10413 2.73533 0
M  V30 4180 C 388.095 3.38049 2.68974 0
M  V30 4181 C 387.23 3.52934 3.97002 0
M  V30 4182 C 386.269 4.74373 3.86829 0
M  V30 4183 N 385.406 4.8608 5.06627 0
M  V30 4184 H 390.246 2.76732 1.1056 0
M  V30 4185 H 387.783 1.37034 0.534805 0
M  V30 4186 H 389.741 2.22919 3.52652 0
M  V30 4187 H 388.371 1.22338 2.98719 0
M  V30 4188 H 387.423 3.3418 1.81736 0
M  V30 4189 H 388.735 4.27288 2.57346 0
M  V30 4190 H 387.889 3.65088 4.84557 0
M  V30 4191 H 386.628 2.61824 4.1146 0
M  V30 4192 H 385.633 4.62255 2.97658 0
M  V30 4193 H 386.858 5.66888 3.73918 0
M  V30 4194 H 384.804 3.97891 5.21554 0
M  V30 4195 H 384.721 5.69315 4.9741 0
M  V30 4196 H 385.989 5.02587 5.95841 0
M  V30 4197 N 390.218 -0.567019 1.47046 0
M  V30 4198 C 391.446 -1.35027 1.56765 0
M  V30 4199 C 391.861 -1.8758 0.214316 0
M  V30 4200 O 391.218 -1.64471 -0.790919 0
M  V30 4201 C 391.269 -2.52698 2.58507 0
M  V30 4202 O 390.99 -2.0232 3.88585 0
M  V30 4203 C 392.491 -3.45043 2.78316 0
M  V30 4204 H 389.711 -0.41195 0.529658 0
M  V30 4205 H 392.255 -0.687832 1.92585 0
M  V30 4206 H 390.41 -3.149 2.25648 0
M  V30 4207 H 390.824 -2.79068 4.44096 0
M  V30 4208 H 392.298 -4.2405 3.53391 0
M  V30 4209 H 392.775 -3.97971 1.85784 0
M  V30 4210 H 393.381 -2.88665 3.12334 0
M  V30 4211 N 391.696 -1.35014 -0.812953 0
M  V30 4212 C 392.643 -1.27412 -1.92444 0
M  V30 4213 C 393.613 -0.14733 -1.65445 0
M  V30 4214 O 394.798 -0.329974 -1.87925 0
M  V30 4215 C 391.938 -1.04558 -3.28879 0
M  V30 4216 C 391.051 -2.26101 -3.68106 0
M  V30 4217 C 390.186 -1.96449 -4.9354 0
M  V30 4218 C 389.225 -3.14081 -5.25376 0
M  V30 4219 N 388.362 -2.84246 -6.41988 0
M  V30 4220 H 393.202 -2.22463 -1.98278 0
M  V30 4221 H 390.739 -1.10593 -0.969933 0
M  V30 4222 H 392.697 -0.893413 -4.07522 0
M  V30 4223 H 391.327 -0.131719 -3.22531 0
M  V30 4224 H 390.379 -2.52204 -2.84775 0
M  V30 4225 H 391.691 -3.13959 -3.87597 0
M  V30 4226 H 390.845 -1.78026 -5.79993 0
M  V30 4227 H 389.584 -1.05867 -4.76071 0
M  V30 4228 H 388.589 -3.33089 -4.37415 0
M  V30 4229 H 389.814 -4.05455 -5.44778 0
M  V30 4230 H 387.76 -1.96252 -6.25956 0
M  V30 4231 H 387.677 -3.65637 -6.61699 0
M  V30 4232 H 388.945 -2.6935 -7.31485 0
M  V30 4233 N 393.175 1.03435 -1.18907 0
M  V30 4234 C 394.107 2.1165 -0.879595 0
M  V30 4235 C 395.12 1.62316 0.125439 0
M  V30 4236 O 396.309 1.78201 -0.103245 0
M  V30 4237 C 393.409 3.37622 -0.294042 0
M  V30 4238 C 392.582 4.16166 -1.34629 0
M  V30 4239 C 391.641 5.20457 -0.775274 0
M  V30 4240 O 390.667 5.50379 -1.4516 0
M  V30 4241 N 391.869 5.78949 0.424126 0
M  V30 4242 H 394.634 2.38791 -1.81105 0
M  V30 4243 H 392.195 1.19681 -1.09032 0
M  V30 4244 H 394.187 4.04572 0.101679 0
M  V30 4245 H 392.757 3.07873 0.541575 0
M  V30 4246 H 391.977 3.44444 -1.91707 0
M  V30 4247 H 393.265 4.65432 -2.05549 0
M  V30 4248 H 392.663 5.56948 0.991209 0
M  V30 4249 H 391.22 6.47334 0.761691 0
M  V30 4250 N 394.653 0.992116 1.22453 0
M  V30 4251 C 395.878 0.685644 1.95739 0
M  V30 4252 C 396.303 -0.743 1.72804 0
M  V30 4253 O 395.661 -1.50778 1.00676 0
M  V30 4254 C 395.709 0.996293 3.46564 0
M  V30 4255 O 394.813 0.0945512 4.12292 0
M  V30 4256 H 394.154 0.256694 0.612376 0
M  V30 4257 H 396.684 1.32888 1.5557 0
M  V30 4258 H 396.694 0.93781 3.97076 0
M  V30 4259 H 395.369 2.03733 3.62582 0
M  V30 4260 H 393.946 0.208451 3.72317 0
M  V30 4261 N 396.131 -1.37776 0.765217 0
M  V30 4262 C 397.371 -2.01691 0.331669 0
M  V30 4263 C 397.735 -1.59432 -1.06983 0
M  V30 4264 O 398.936 -2.15761 -1.60314 0
M  V30 4265 C 397.207 -3.54385 0.463261 0
M  V30 4266 S 398.766 -4.38652 0.114011 0
M  V30 4267 H 395.584 -0.699387 0.127979 0
M  V30 4268 H 398.186 -1.68084 0.998396 0
M  V30 4269 H 396.89 -3.82629 1.48401 0
M  V30 4270 H 396.421 -3.92783 -0.220246 0
M  V30 4271 H 398.436 -4.84021 -1.09261 0
M  V30 4272 N 397.609 -0.515225 -1.4894 0
M  V30 4273 C 399.02 -0.0710067 -1.86565 0
M  V30 4274 C 399.371 1.34733 -1.42623 0
M  V30 4275 O 398.496 2.00653 -0.810379 0
M  V30 4276 C 399.091 -0.122083 -3.3858 0
M  V30 4277 C 397.65 0.266863 -3.75453 0
M  V30 4278 C 396.797 -0.488376 -2.72966 0
M  V30 4279 H 399.748 -0.727266 -1.41055 0
M  V30 4280 H 399.769 0.669818 -3.74558 0
M  V30 4281 H 399.281 -1.15448 -3.70531 0
M  V30 4282 H 397.382 1.30196 -3.49113 0
M  V30 4283 H 397.495 -0.0624811 -4.79059 0
M  V30 4284 H 395.859 0.0635622 -2.54621 0
M  V30 4285 H 396.642 -1.52113 -3.07761 0
M  V30 4286 N 399.087 1.5561 -0.249682 0
M  V30 4287 C 400.334 1.99011 0.374287 0
M  V30 4288 C 400.662 1.13785 1.57744 0
M  V30 4289 O 399.917 0.189326 1.94782 0
M  V30 4290 C 400.216 3.4775 0.824887 0
M  V30 4291 C 399.882 4.50086 -0.270819 0
M  V30 4292 C 398.544 4.77791 -0.571746 0
M  V30 4293 C 400.896 5.11312 -1.01041 0
M  V30 4294 C 398.224 5.63997 -1.61629 0
M  V30 4295 C 400.576 5.98651 -2.0445 0
M  V30 4296 C 399.24 6.24688 -2.35204 0
M  V30 4297 H 398.51 0.728233 0.136961 0
M  V30 4298 H 401.157 1.88122 -0.358087 0
M  V30 4299 H 399.462 3.55985 1.63651 0
M  V30 4300 H 401.159 3.78721 1.31799 0
M  V30 4301 H 397.749 4.28592 -0.026136 0
M  V30 4302 H 401.933 4.89953 -0.791177 0
M  V30 4303 H 397.189 5.82425 -1.85988 0
M  V30 4304 H 401.363 6.45135 -2.62248 0
M  V30 4305 H 398.99 6.91281 -3.16282 0
M  V30 4306 N 400.565 -0.0233959 1.57583 0
M  V30 4307 C 401.813 -0.711654 1.89156 0
M  V30 4308 C 402.134 -1.75591 0.848096 0
M  V30 4309 O 401.404 -1.95547 -0.117566 0
M  V30 4310 H 399.984 -0.265835 0.698098 0
M  V30 4311 H 402.646 0.0119948 1.94896 0
M  V30 4312 H 401.742 -1.19766 2.88206 0
M  V30 4313 N 402.043 -1.548 -0.295768 0
M  V30 4314 C 403.459 -1.4613 -0.641722 0
M  V30 4315 C 403.659 -0.656771 -1.90496 0
M  V30 4316 O 402.715 -0.166547 -2.5195 0
M  V30 4317 C 404.028 -2.90141 -0.789852 0
M  V30 4318 C 405.576 -3.00216 -0.885396 0
M  V30 4319 C 406.051 -4.45434 -1.06548 0
M  V30 4320 N 407.542 -4.49166 -1.13156 0
M  V30 4321 C 408.277 -5.58717 -1.28929 0
M  V30 4322 N 407.773 -6.78182 -1.41567 0
M  V30 4323 N 409.566 -5.46415 -1.31859 0
M  V30 4324 H 401.717 -2.05574 0.534147 0
M  V30 4325 H 403.98 -0.931259 0.177372 0
M  V30 4326 H 403.686 -3.51635 0.0675598 0
M  V30 4327 H 403.56 -3.37859 -1.67724 0
M  V30 4328 H 405.947 -2.38833 -1.73329 0
M  V30 4329 H 406.028 -2.55787 0.0261185 0
M  V30 4330 H 405.672 -5.07413 -0.222335 0
M  V30 4331 H 405.602 -4.87499 -1.9913 0
M  V30 4332 H 408.093 -3.631 -1.04721 0
M  V30 4333 H 408.406 -7.57428 -1.53372 0
M  V30 4334 H 406.751 -6.81037 -1.38613 0
M  V30 4335 H 409.942 -4.5203 -1.21601 0
M  V30 4336 H 410.115 -6.31841 -1.43808 0
M  V30 4337 N 403.521 0.559213 -1.47345 0
M  V30 4338 C 404.767 1.31843 -1.54095 0
M  V30 4339 C 405.1 1.93149 -0.201726 0
M  V30 4340 O 404.375 1.77759 0.789428 0
M  V30 4341 C 404.658 2.43006 -2.65744 0
M  V30 4342 C 404.511 1.86581 -4.09277 0
M  V30 4343 C 405.83 3.44943 -2.73318 0
M  V30 4344 H 402.949 0.478012 -0.560957 0
M  V30 4345 H 405.591 0.625977 -1.79392 0
M  V30 4346 H 403.741 3.02072 -2.44305 0
M  V30 4347 H 405.413 1.31792 -4.42073 0
M  V30 4348 H 403.656 1.17268 -4.17649 0
M  V30 4349 H 404.327 2.66933 -4.83168 0
M  V30 4350 H 406.803 2.95793 -2.92653 0
M  V30 4351 H 405.679 4.20153 -3.53218 0
M  V30 4352 H 405.94 4.03665 -1.80296 0
M  V30 4353 N 404.999 1.35443 0.805782 0
M  V30 4354 C 406.41 1.25768 1.37983 0
M  V30 4355 C 406.761 -0.10958 1.95894 0
M  V30 4356 O 405.886 -1.01056 1.91355 0
M  V30 4357 C 406.481 2.27727 2.5085 0
M  V30 4358 C 405.04 2.2179 3.04115 0
M  V30 4359 C 404.187 2.13393 1.77084 0
M  V30 4360 H 407.138 1.4656 0.608752 0
M  V30 4361 H 407.159 1.90422 3.29424 0
M  V30 4362 H 406.671 3.27227 2.08671 0
M  V30 4363 H 404.772 1.25703 3.50756 0
M  V30 4364 H 404.885 3.13788 3.62042 0
M  V30 4365 H 403.249 1.59384 1.98668 0
M  V30 4366 H 404.032 3.14755 1.37056 0
M  V30 4367 N 406.477 -1.02803 1.19454 0
M  V30 4368 C 407.723 -1.76478 0.999171 0
M  V30 4369 C 408.056 -1.88456 -0.468828 0
M  V30 4370 O 407.331 -1.40198 -1.34814 0
M  V30 4371 C 407.614 -3.19044 1.66981 0
M  V30 4372 C 407.467 -3.14932 3.21151 0
M  V30 4373 C 408.786 -4.17456 1.39349 0
M  V30 4374 H 405.905 -0.640614 0.364393 0
M  V30 4375 H 408.547 -1.20005 1.47305 0
M  V30 4376 H 406.697 -3.67263 1.2669 0
M  V30 4377 H 408.369 -2.74605 3.70661 0
M  V30 4378 H 406.612 -2.52625 3.52652 0
M  V30 4379 H 407.283 -4.1566 3.63223 0
M  V30 4380 H 409.759 -3.77842 1.74283 0
M  V30 4381 H 408.635 -5.154 1.88823 0
M  V30 4382 H 408.896 -4.40949 0.318813 0
M  V30 4383 N 407.956 -0.998596 -1.21925 0
M  V30 4384 C 408.904 -0.546641 -2.26085 0
M  V30 4385 C 409.898 0.405576 -1.64473 0
M  V30 4386 O 411.104 0.277471 -1.77849 0
M  V30 4387 H 407.479 -0.158403 -0.735127 0
M  V30 4388 H 409.45 -1.43645 -2.61551 0
M  V30 4389 C 408.199 0.117388 -3.47502 0
M  V30 4390 H 407.522 -0.606277 -3.95176 0
M  V30 4391 H 408.962 0.396993 -4.22137 0
M  V30 4392 C 407.421 1.35455 -3.0847 0
M  V30 4393 O 407.951 2.44944 -3.18379 0
M  V30 4394 N 406.157 1.23191 -2.63196 0
M  V30 4395 H 405.704 0.341006 -2.55333 0
M  V30 4396 H 405.662 2.06071 -2.37449 0
M  V30 4397 N 409.434 1.37368 -0.772513 0
M  V30 4398 C 410.364 2.32856 -0.173304 0
M  V30 4399 C 411.345 1.55818 0.682262 0
M  V30 4400 O 412.53 1.84052 0.619566 0
M  V30 4401 C 409.66 3.40048 0.706007 0
M  V30 4402 C 408.614 4.27973 -0.0483144 0
M  V30 4403 C 407.94 5.26184 0.950491 0
M  V30 4404 C 409.24 5.07665 -1.22776 0
M  V30 4405 H 410.934 2.83217 -0.971002 0
M  V30 4406 H 408.48 1.3617 -0.468377 0
M  V30 4407 H 410.433 4.05827 1.13501 0
M  V30 4408 H 409.157 2.88214 1.53623 0
M  V30 4409 H 407.816 3.63726 -0.458107 0
M  V30 4410 H 407.464 4.7063 1.77529 0
M  V30 4411 H 407.164 5.85872 0.450314 0
M  V30 4412 H 408.688 5.94838 1.37842 0
M  V30 4413 H 410.102 5.66578 -0.875366 0
M  V30 4414 H 408.499 5.76681 -1.66007 0
M  V30 4415 H 409.569 4.40294 -2.03149 0
M  V30 4416 N 410.912 0.523116 1.48665 0
M  V30 4417 C 411.842 -0.23231 2.32342 0
M  V30 4418 C 412.823 -0.941637 1.41659 0
M  V30 4419 O 414.008 -0.928751 1.70552 0
M  V30 4420 C 411.138 -1.28387 3.22698 0
M  V30 4421 C 410.092 -0.693098 4.22351 0
M  V30 4422 C 409.418 -1.8468 5.01794 0
M  V30 4423 C 410.718 0.33063 5.21252 0
M  V30 4424 H 412.412 0.466192 2.95748 0
M  V30 4425 H 409.958 0.225643 1.42221 0
M  V30 4426 H 411.911 -1.82024 3.80059 0
M  V30 4427 H 410.635 -2.01186 2.57278 0
M  V30 4428 H 409.294 -0.178299 3.66166 0
M  V30 4429 H 408.942 -2.56301 4.32804 0
M  V30 4430 H 408.642 -1.45747 5.69238 0
M  V30 4431 H 410.166 -2.38709 5.62006 0
M  V30 4432 H 411.58 -0.118407 5.73178 0
M  V30 4433 H 409.977 0.636974 5.9671 0
M  V30 4434 H 411.047 1.23883 4.68808 0
M  V30 4435 N 412.39 -1.55475 0.257931 0
M  V30 4436 C 413.338 -2.23244 -0.653076 0
M  V30 4437 C 414.332 -1.22366 -1.17144 0
M  V30 4438 O 415.538 -1.40347 -1.12706 0
M  V30 4439 H 411.913 -0.716247 -0.229117 0
M  V30 4440 H 413.884 -2.98343 -0.0584788 0
M  V30 4441 C 412.633 -2.95401 -1.83395 0
M  V30 4442 H 411.956 -3.72802 -1.44424 0
M  V30 4443 H 413.396 -3.46165 -2.44838 0
M  V30 4444 C 411.855 -1.99895 -2.71189 0
M  V30 4445 O 412.385 -1.53909 -3.71046 0
M  V30 4446 N 410.591 -1.6676 -2.3799 0
M  V30 4447 H 410.138 -2.04352 -1.56837 0
M  V30 4448 H 410.096 -1.03127 -2.97005 0
M  V30 4449 N 413.868 0.0150385 -1.57593 0
M  V30 4450 C 415.093 0.718067 -1.94573 0
M  V30 4451 C 415.518 1.6734 -0.859005 0
M  V30 4452 O 414.876 1.80362 0.184147 0
M  V30 4453 C 414.924 1.43918 -3.30636 0
M  V30 4454 O 414.028 2.55299 -3.23876 0
M  V30 4455 H 413.369 0.192125 -0.635597 0
M  V30 4456 H 415.899 -0.0336708 -2.04572 0
M  V30 4457 H 415.909 1.80598 -3.65853 0
M  V30 4458 H 414.584 0.738619 -4.09289 0
M  V30 4459 H 413.161 2.21058 -3.00312 0
M  V30 4460 N 415.346 1.54954 0.287554 0
M  V30 4461 C 416.757 1.65732 0.859634 0
M  V30 4462 C 417.108 0.574767 1.87592 0
M  V30 4463 O 416.233 -0.286299 2.14498 0
M  V30 4464 C 416.828 3.00438 1.56597 0
M  V30 4465 C 415.387 3.13292 2.08627 0
M  V30 4466 C 414.534 2.61473 0.923416 0
M  V30 4467 H 417.485 1.5857 0.0642338 0
M  V30 4468 H 417.506 2.92613 2.43224 0
M  V30 4469 H 417.018 3.79207 0.826053 0
M  V30 4470 H 415.119 2.39268 2.85625 0
M  V30 4471 H 415.232 4.19647 2.31157 0
M  V30 4472 H 413.596 2.18264 1.31275 0
M  V30 4473 H 414.379 3.42733 0.197241 0
M  V30 4474 N 416.824 -0.551391 1.4764 0
M  V30 4475 C 418.101 -1.31229 1.45046 0
M  V30 4476 C 418.481 -2.10563 0.150527 0
M  V30 4477 O 417.829 -2.11374 -0.867956 0
M  V30 4478 C 418.039 -2.21189 2.69956 0
M  V30 4479 C 419.387 -2.82021 3.1741 0
M  V30 4480 O 420.411 -2.31488 2.70724 0
M  V30 4481 O 419.27 -3.73885 3.98588 0
M  V30 4482 H 416.364 -0.591193 0.578291 0
M  V30 4483 H 418.91 -0.569813 1.59847 0
M  V30 4484 H 417.682 -1.62207 3.56096 0
M  V30 4485 H 417.305 -3.02722 2.57769 0
M  V30 4486 N 418.302 -1.35869 -0.798587 0
M  V30 4487 C 419.542 -1.30961 -1.56935 0
M  V30 4488 C 419.906 0.112404 -1.91671 0
M  V30 4489 O 421.107 0.285937 -2.67275 0
M  V30 4490 C 419.378 -2.19811 -2.81811 0
M  V30 4491 S 420.937 -2.32498 -3.72143 0
M  V30 4492 H 417.755 -0.465297 -0.537606 0
M  V30 4493 H 420.357 -1.71344 -0.941346 0
M  V30 4494 H 419.061 -3.22095 -2.54329 0
M  V30 4495 H 418.592 -1.80415 -3.49591 0
M  V30 4496 H 420.607 -1.5157 -4.72484 0
M  V30 4497 N 419.78 1.02168 -1.19998 0
M  V30 4498 C 421.057 1.72816 -0.916191 0
M  V30 4499 C 421.437 2.03081 0.576325 0
M  V30 4500 O 420.785 1.69122 1.53656 0
M  V30 4501 C 420.995 2.9997 -1.78378 0
M  V30 4502 C 422.343 3.73336 -2.02251 0
M  V30 4503 O 423.367 3.09914 -1.75589 0
M  V30 4504 O 422.226 4.87371 -2.47249 0
M  V30 4505 H 419.32 0.752924 -0.342103 0
M  V30 4506 H 421.866 1.08062 -1.30846 0
M  V30 4507 H 420.638 2.73888 -2.79466 0
M  V30 4508 H 420.261 3.72464 -1.39126 0
M  V30 4509 N 421.258 1.00505 1.21394 0
M  V30 4510 C 422.504 0.688793 1.90745 0
M  V30 4511 C 422.837 -0.778486 1.77914 0
M  V30 4512 O 422.112 -1.56433 1.15581 0
M  V30 4513 C 422.395 1.11063 3.42545 0
M  V30 4514 C 422.248 2.63737 3.64367 0
M  V30 4515 C 423.567 0.673059 4.34923 0
M  V30 4516 H 420.686 0.251702 0.692687 0
M  V30 4517 H 423.328 1.25074 1.43026 0
M  V30 4518 H 421.478 0.632508 3.83317 0
M  V30 4519 H 423.15 3.19313 3.32922 0
M  V30 4520 H 421.393 3.05248 3.08231 0
M  V30 4521 H 422.064 2.88305 4.70727 0
M  V30 4522 H 424.54 1.08392 4.01734 0
M  V30 4523 H 423.416 0.996383 5.39781 0
M  V30 4524 H 423.677 -0.425808 4.40045 0
M  V30 4525 N 422.737 -1.36956 0.779787 0
M  V30 4526 C 423.684 -2.30175 0.169697 0
M  V30 4527 C 424.654 -1.51501 -0.68094 0
M  V30 4528 O 425.839 -1.80042 -0.631629 0
M  V30 4529 C 422.979 -3.37985 -0.697131 0
M  V30 4530 C 422.092 -4.31661 0.170992 0
M  V30 4531 C 421.227 -5.2655 -0.701298 0
M  V30 4532 C 420.266 -6.11867 0.168869 0
M  V30 4533 N 419.403 -6.98973 -0.661855 0
M  V30 4534 H 424.243 -2.81767 0.970135 0
M  V30 4535 H 421.78 -1.38699 0.489994 0
M  V30 4536 H 423.738 -3.99128 -1.2146 0
M  V30 4537 H 422.368 -2.87739 -1.46309 0
M  V30 4538 H 421.42 -3.71756 0.80634 0
M  V30 4539 H 422.732 -4.91644 0.841875 0
M  V30 4540 H 421.886 -5.92937 -1.28494 0
M  V30 4541 H 420.625 -4.66998 -1.40584 0
M  V30 4542 H 419.63 -5.44452 0.764986 0
M  V30 4543 H 420.855 -6.73493 0.870863 0
M  V30 4544 H 418.801 -6.41941 -1.35086 0
M  V30 4545 H 418.718 -7.55984 -0.0484447 0
M  V30 4546 H 419.986 -7.6974 -1.22963 0
M  V30 4547 N 424.215 -0.530993 -1.48385 0
M  V30 4548 C 425.443 -0.00134122 -2.069 0
M  V30 4549 C 425.858 1.2805 -1.3874 0
M  V30 4550 O 425.215 1.76204 -0.475244 0
M  V30 4551 C 425.266 0.225256 -3.60798 0
M  V30 4552 O 424.987 -1.0058 -4.26398 0
M  V30 4553 C 426.488 0.795172 -4.3611 0
M  V30 4554 H 423.708 -0.0339704 -0.67014 0
M  V30 4555 H 426.252 -0.736926 -1.90761 0
M  V30 4556 H 424.407 0.910891 -3.76539 0
M  V30 4557 H 424.821 -0.787165 -5.1856 0
M  V30 4558 H 426.295 0.903143 -5.44562 0
M  V30 4559 H 426.772 1.80031 -4.00606 0
M  V30 4560 H 427.378 0.146069 -4.25049 0
M  V30 4561 N 425.693 1.55336 -0.266172 0
M  V30 4562 C 426.97 1.91372 0.404486 0
M  V30 4563 C 427.35 1.18935 1.74407 0
M  V30 4564 O 426.698 0.3132 2.26343 0
M  V30 4565 C 426.908 3.44581 0.553593 0
M  V30 4566 C 428.256 4.16196 0.840618 0
M  V30 4567 O 429.28 3.50426 0.638739 0
M  V30 4568 O 428.139 5.32567 1.22618 0
M  V30 4569 H 425.233 0.797194 0.220025 0
M  V30 4570 H 427.779 1.66813 -0.311664 0
M  V30 4571 H 426.551 3.89357 -0.389498 0
M  V30 4572 H 426.174 3.75065 1.31955 0
M  V30 4573 N 427.171 -0.0066808 1.57599 0
M  V30 4574 C 428.448 -0.729586 1.81484 0
M  V30 4575 C 428.828 -1.92359 0.869558 0
M  V30 4576 O 428.176 -2.28348 -0.0832533 0
M  V30 4577 C 428.386 -1.1416 3.29801 0
M  V30 4578 C 429.734 -1.54823 3.95367 0
M  V30 4579 O 430.758 -1.23558 3.34084 0
M  V30 4580 O 429.617 -2.12937 5.03309 0
M  V30 4581 H 426.711 -0.354674 0.747085 0
M  V30 4582 H 429.257 0.0182609 1.6969 0
M  V30 4583 H 428.029 -0.290231 3.90222 0
M  V30 4584 H 427.652 -1.94876 3.46568 0
M  V30 4585 N 428.649 -1.55105 -0.279332 0
M  V30 4586 C 429.874 -1.7976 -1.03446 0
M  V30 4587 C 430.299 -0.565952 -1.79384 0
M  V30 4588 O 429.657 0.484259 -1.74713 0
M  V30 4589 C 429.705 -3.0179 -1.97371 0
M  V30 4590 O 428.809 -2.76432 -3.06038 0
M  V30 4591 H 428.15 -0.594334 -0.29608 0
M  V30 4592 H 430.68 -2.02235 -0.310165 0
M  V30 4593 H 430.69 -3.30351 -2.39441 0
M  V30 4594 H 429.365 -3.91085 -1.4151 0
M  V30 4595 H 427.942 -2.58949 -2.68328 0
M  V30 4596 N 430.127 0.543554 -1.4793 0
M  V30 4597 C 431.373 1.30201 -1.55485 0
M  V30 4598 C 431.706 1.92925 -0.222201 0
M  V30 4599 O 430.981 1.78586 0.77053 0
M  V30 4600 C 431.264 2.40174 -2.68307 0
M  V30 4601 C 431.117 1.8223 -4.11233 0
M  V30 4602 C 432.436 3.42024 -2.76961 0
M  V30 4603 H 429.555 0.472036 -0.565996 0
M  V30 4604 H 432.197 0.606914 -1.80046 0
M  V30 4605 H 430.347 2.99463 -2.47495 0
M  V30 4606 H 432.019 1.27096 -4.43446 0
M  V30 4607 H 430.262 1.12832 -4.18869 0
M  V30 4608 H 430.933 2.61793 -4.85972 0
M  V30 4609 H 433.409 2.92672 -2.95774 0
M  V30 4610 H 432.285 4.16383 -3.57654 0
M  V30 4611 H 432.546 4.0173 -1.84568 0
M  V30 4612 N 431.605 1.3629 0.791371 0
M  V30 4613 C 432.851 1.30605 1.55146 0
M  V30 4614 C 433.184 -0.115042 1.93859 0
M  V30 4615 O 432.459 -1.06798 1.62556 0
M  V30 4616 C 432.742 2.22692 2.82985 0
M  V30 4617 C 432.595 3.73489 2.50651 0
M  V30 4618 C 433.914 2.13588 3.84796 0
M  V30 4619 H 431.033 0.475761 0.562868 0
M  V30 4620 H 433.675 1.66825 0.909358 0
M  V30 4621 H 431.825 1.91933 3.37778 0
M  V30 4622 H 433.497 4.14758 2.01924 0
M  V30 4623 H 431.74 3.93021 1.83622 0
M  V30 4624 H 432.411 4.3333 3.41949 0
M  V30 4625 H 434.887 2.40659 3.39445 0
M  V30 4626 H 433.763 2.80195 4.71998 0
M  V30 4627 H 434.024 1.12256 4.27611 0
M  V30 4628 N 433.083 -1.0153 1.20538 0
M  V30 4629 C 434.494 -1.56598 1.01657 0
M  V30 4630 C 434.845 -1.91505 -0.426668 0
M  V30 4631 O 433.97 -1.72375 -1.30827 0
M  V30 4632 C 434.565 -2.84542 1.83905 0
M  V30 4633 C 433.124 -3.36133 1.69386 0
M  V30 4634 C 432.271 -2.09427 1.81757 0
M  V30 4635 H 435.222 -0.838974 1.34711 0
M  V30 4636 H 435.243 -3.56004 1.34319 0
M  V30 4637 H 434.755 -2.59105 2.8894 0
M  V30 4638 H 432.856 -3.66528 0.669933 0
M  V30 4639 H 432.969 -4.08248 2.50739 0
M  V30 4640 H 431.333 -2.21941 1.24957 0
M  V30 4641 H 432.116 -1.86414 2.88279 0
M  V30 4642 N 434.561 -1.01147 -1.20859 0
M  V30 4643 C 435.801 -0.706331 -1.91808 0
M  V30 4644 C 436.165 0.749736 -1.76757 0
M  V30 4645 O 437.366 1.16716 -2.42138 0
M  V30 4646 C 435.637 -1.12371 -3.39275 0
M  V30 4647 S 437.196 -0.939764 -4.28619 0
M  V30 4648 H 434.014 -0.257665 -0.662669 0
M  V30 4649 H 436.616 -1.29766 -1.46223 0
M  V30 4650 H 435.32 -2.17943 -3.47749 0
M  V30 4651 H 434.851 -0.524952 -3.89882 0
M  V30 4652 H 436.866 0.159556 -4.95943 0
M  V30 4653 N 436.039 1.36541 -0.78704 0
M  V30 4654 C 437.286 1.99304 -0.358341 0
M  V30 4655 C 437.614 1.62467 1.06933 0
M  V30 4656 O 436.869 0.870019 1.75297 0
M  V30 4657 C 437.168 3.54343 -0.466485 0
M  V30 4658 C 436.834 4.10993 -1.85461 0
M  V30 4659 C 435.496 4.26177 -2.23443 0
M  V30 4660 C 437.848 4.41895 -2.76366 0
M  V30 4661 C 435.176 4.69573 -3.51736 0
M  V30 4662 C 437.528 4.86722 -4.04084 0
M  V30 4663 C 436.192 5.00112 -4.42091 0
M  V30 4664 H 435.462 0.729306 -0.131126 0
M  V30 4665 H 438.109 1.63068 -1.00404 0
M  V30 4666 H 436.414 3.90918 0.262719 0
M  V30 4667 H 438.111 4.00833 -0.115854 0
M  V30 4668 H 434.701 3.99612 -1.54946 0
M  V30 4669 H 438.885 4.29735 -2.48277 0
M  V30 4670 H 434.141 4.78127 -3.81057 0
M  V30 4671 H 438.315 5.09598 -4.7464 0
M  V30 4672 H 435.942 5.33498 -5.41557 0
M  V30 4673 N 437.518 0.538854 1.48102 0
M  V30 4674 C 438.451 -0.266495 2.26639 0
M  V30 4675 C 439.429 -0.93687 1.32897 0
M  V30 4676 O 440.613 -0.959507 1.62252 0
M  V30 4677 C 437.74 -1.37814 3.09394 0
M  V30 4678 C 436.786 -0.818247 4.18577 0
M  V30 4679 S 437.619 0.320848 5.34538 0
M  V30 4680 C 438.775 -0.793059 6.20855 0
M  V30 4681 H 439.008 0.399994 2.94597 0
M  V30 4682 H 436.541 0.324808 1.50945 0
M  V30 4683 H 438.499 -2.01488 3.57649 0
M  V30 4684 H 437.16 -2.01639 2.40833 0
M  V30 4685 H 436.353 -1.65247 4.7614 0
M  V30 4686 H 435.955 -0.258036 3.73109 0
M  V30 4687 H 438.247 -1.68961 6.56093 0
M  V30 4688 H 439.19 -0.255204 7.0764 0
M  V30 4689 H 439.598 -1.07746 5.54122 0
M  V30 4690 N 438.996 -1.55193 0.274407 0
M  V30 4691 C 439.943 -2.225 -0.613374 0
M  V30 4692 C 440.913 -1.19823 -1.15029 0
M  V30 4693 O 442.098 -1.48362 -1.19973 0
M  V30 4694 C 439.238 -2.94927 -1.79199 0
M  V30 4695 C 438.351 -4.12322 -1.28899 0
M  V30 4696 C 437.486 -4.72394 -2.42934 0
M  V30 4697 C 436.525 -5.81984 -1.89634 0
M  V30 4698 N 435.662 -6.36123 -2.9714 0
M  V30 4699 H 440.502 -2.97982 -0.032756 0
M  V30 4700 H 438.039 -1.47099 -0.00440146 0
M  V30 4701 H 439.997 -3.35134 -2.48478 0
M  V30 4702 H 438.627 -2.2187 -2.34465 0
M  V30 4703 H 437.679 -3.7724 -0.489327 0
M  V30 4704 H 438.991 -4.91355 -0.858587 0
M  V30 4705 H 438.145 -5.15317 -3.20208 0
M  V30 4706 H 436.884 -3.92636 -2.8929 0
M  V30 4707 H 435.889 -5.38511 -1.1084 0
M  V30 4708 H 437.114 -6.6361 -1.44215 0
M  V30 4709 H 435.06 -5.59259 -3.42878 0
M  V30 4710 H 434.977 -7.10427 -2.58515 0
M  V30 4711 H 436.245 -6.83704 -3.74391 0
M  V30 4712 N 440.474 -0.00167713 -1.576 0
M  V30 4713 C 441.89 0.354422 -1.55615 0
M  V30 4714 C 442.09 1.74679 -1.00447 0
M  V30 4715 O 441.146 2.4428 -0.639022 0
M  V30 4716 C 442.459 0.22812 -2.99833 0
M  V30 4717 C 444.007 0.302934 -3.11531 0
M  V30 4718 C 444.482 0.205737 -4.57538 0
M  V30 4719 N 445.973 0.263584 -4.62449 0
M  V30 4720 C 446.708 0.211742 -5.73009 0
M  V30 4721 N 446.204 0.110399 -6.92712 0
M  V30 4722 N 447.997 0.263729 -5.61481 0
M  V30 4723 H 440.148 -0.912498 -1.918 0
M  V30 4724 H 442.411 -0.349928 -0.881053 0
M  V30 4725 H 442.117 -0.729934 -3.44042 0
M  V30 4726 H 441.991 1.00951 -3.6344 0
M  V30 4727 H 444.378 1.25143 -2.67251 0
M  V30 4728 H 444.459 -0.508357 -2.50698 0
M  V30 4729 H 444.103 -0.739225 -5.02492 0
M  V30 4730 H 444.033 1.03554 -5.16318 0
M  V30 4731 H 446.524 0.343173 -3.76339 0
M  V30 4732 H 446.837 0.0767828 -7.72762 0
M  V30 4733 H 445.182 0.0760025 -6.94958 0
M  V30 4734 H 448.373 0.34111 -4.66855 0
M  V30 4735 H 448.546 0.219862 -6.47627 0
M  V30 4736 N 441.952 1.55251 0.271103 0
M  V30 4737 C 442.884 1.84675 1.35749 0
M  V30 4738 C 443.897 0.731366 1.45447 0
M  V30 4739 O 445.086 1.00924 1.4723 0
M  V30 4740 C 442.186 1.99638 2.73857 0
M  V30 4741 C 441.359 3.30312 2.86727 0
M  V30 4742 C 440.418 3.35318 4.05522 0
M  V30 4743 O 439.444 4.08682 3.96191 0
M  V30 4744 N 440.646 2.62857 5.17577 0
M  V30 4745 H 443.411 2.78445 1.10853 0
M  V30 4746 H 440.972 1.55191 0.461218 0
M  V30 4747 H 442.964 2.00355 3.51625 0
M  V30 4748 H 441.534 1.12725 2.91568 0
M  V30 4749 H 440.754 3.42118 1.95829 0
M  V30 4750 H 442.042 4.16488 2.92258 0
M  V30 4751 H 441.44 2.02939 5.28046 0
M  V30 4752 H 439.997 2.69295 5.93568 0
M  V30 4753 N 443.43 -0.535701 1.48216 0
M  V30 4754 C 444.658 -1.31671 1.59594 0
M  V30 4755 C 445.073 -1.87083 0.254056 0
M  V30 4756 O 444.43 -1.66112 -0.755854 0
M  V30 4757 C 444.481 -2.47158 2.63809 0
M  V30 4758 O 444.202 -1.94032 3.92789 0
M  V30 4759 C 445.703 -3.39062 2.85573 0
M  V30 4760 H 442.923 -0.400623 0.538277 0
M  V30 4761 H 445.467 -0.646827 1.94001 0
M  V30 4762 H 443.622 -3.10043 2.32276 0
M  V30 4763 H 444.036 -2.69585 4.49916 0
M  V30 4764 H 445.51 -4.16459 3.62306 0
M  V30 4765 H 445.987 -3.93941 1.94184 0
M  V30 4766 H 446.593 -2.81975 3.18387 0
M  V30 4767 N 444.908 -1.36708 -0.784132 0
M  V30 4768 C 446.133 -1.34565 -1.5782 0
M  V30 4769 C 446.558 0.0695257 -1.87971 0
M  V30 4770 O 445.916 1.04302 -1.48293 0
M  V30 4771 C 445.964 -2.17952 -2.87279 0
M  V30 4772 O 445.068 -1.57563 -3.81114 0
M  V30 4773 H 444.409 -0.460337 -0.478524 0
M  V30 4774 H 446.939 -1.80064 -0.971495 0
M  V30 4775 H 446.949 -2.30721 -3.365 0
M  V30 4776 H 445.624 -3.20823 -2.64661 0
M  V30 4777 H 444.201 -1.53764 -3.39722 0
M  V30 4778 N 446.386 1.0089 -1.21074 0
M  V30 4779 C 447.802 1.2695 -0.967257 0
M  V30 4780 C 448.002 1.9846 0.348673 0
M  V30 4781 O 447.058 2.28459 1.0753 0
M  V30 4782 C 448.371 2.09697 -2.15517 0
M  V30 4783 C 449.919 2.22937 -2.197 0
M  V30 4784 C 450.394 3.09064 -3.37999 0
M  V30 4785 N 451.885 3.16653 -3.38061 0
M  V30 4786 C 452.62 3.8354 -4.26245 0
M  V30 4787 N 452.116 4.52488 -5.2462 0
M  V30 4788 N 453.909 3.80141 -4.14064 0
M  V30 4789 H 446.06 0.529005 -2.05707 0
M  V30 4790 H 448.323 0.296148 -0.900556 0
M  V30 4791 H 448.029 1.64497 -3.10859 0
M  V30 4792 H 447.903 3.10444 -2.14253 0
M  V30 4793 H 450.29 2.67357 -1.24916 0
M  V30 4794 H 450.371 1.21673 -2.2501 0
M  V30 4795 H 450.015 2.65347 -4.33074 0
M  V30 4796 H 449.945 4.10433 -3.29928 0
M  V30 4797 H 452.436 2.67566 -2.66865 0
M  V30 4798 H 452.749 5.01219 -5.88217 0
M  V30 4799 H 451.094 4.51288 -5.28549 0
M  V30 4800 H 454.285 3.25427 -3.36474 0
M  V30 4801 H 454.458 4.31992 -4.82998 0
M  V30 4802 N 447.864 1.01787 1.20321 0
M  V30 4803 C 449.089 0.727009 1.9424 0
M  V30 4804 C 449.514 -0.706179 1.74341 0
M  V30 4805 O 448.872 -1.48609 1.03852 0
M  V30 4806 C 448.92 1.06958 3.44372 0
M  V30 4807 O 448.024 0.181983 4.11998 0
M  V30 4808 H 447.365 0.269626 0.606793 0
M  V30 4809 H 449.895 1.36158 1.52716 0
M  V30 4810 H 449.905 1.02182 3.94997 0
M  V30 4811 H 448.58 2.11378 3.58179 0
M  V30 4812 H 447.157 0.287378 3.71791 0
M  V30 4813 N 449.342 -1.36122 0.79427 0
M  V30 4814 C 450.252 -2.33769 0.197296 0
M  V30 4815 C 451.268 -1.61276 -0.653153 0
M  V30 4816 O 452.444 -1.9323 -0.5678 0
M  V30 4817 C 449.509 -3.40474 -0.654098 0
M  V30 4818 C 448.57 -4.28759 0.215411 0
M  V30 4819 C 447.803 -5.30368 -0.595443 0
M  V30 4820 O 448.026 -5.40211 -1.83107 0
M  V30 4821 O 446.96 -6.019 0.00721351 0
M  V30 4822 H 450.786 -2.86597 1.00478 0
M  V30 4823 H 448.371 -1.38676 0.555818 0
M  V30 4824 H 450.253 -4.05703 -1.13944 0
M  V30 4825 H 448.928 -2.89937 -1.43938 0
M  V30 4826 H 447.835 -3.66554 0.747615 0
M  V30 4827 H 449.168 -4.82661 0.964332 0
M  V30 4828 N 450.82 -0.546701 -1.47814 0
M  V30 4829 C 452.06 -0.0209604 -2.04389 0
M  V30 4830 C 452.424 1.29993 -1.413 0
M  V30 4831 O 453.625 1.91273 -1.8886 0
M  V30 4832 C 451.896 0.0812844 -3.57308 0
M  V30 4833 S 453.455 0.55467 -4.3528 0
M  V30 4834 H 450.273 -0.0200865 -0.710716 0
M  V30 4835 H 452.875 -0.731055 -1.81317 0
M  V30 4836 H 451.579 -0.884616 -4.00753 0
M  V30 4837 H 451.11 0.815253 -3.8486 0
M  V30 4838 H 453.125 1.81627 -4.61764 0
M  V30 4839 N 452.299 1.55045 -0.282633 0
M  V30 4840 C 453.715 1.59441 0.0712997 0
M  V30 4841 C 453.915 1.2998 1.53972 0
M  V30 4842 O 452.971 1.06431 2.28973 0
M  V30 4843 C 454.284 2.99097 -0.310104 0
M  V30 4844 C 455.832 3.1194 -0.257343 0
M  V30 4845 C 456.307 4.53875 -0.613297 0
M  V30 4846 N 457.798 4.5974 -0.565134 0
M  V30 4847 C 458.533 5.67603 -0.81326 0
M  V30 4848 N 458.029 6.83582 -1.1264 0
M  V30 4849 N 459.822 5.57187 -0.741553 0
M  V30 4850 H 451.973 1.72458 -1.23984 0
M  V30 4851 H 454.236 0.804549 -0.501403 0
M  V30 4852 H 453.942 3.25516 -1.33163 0
M  V30 4853 H 453.816 3.75616 0.345366 0
M  V30 4854 H 456.203 2.85281 0.754905 0
M  V30 4855 H 456.284 2.37618 -0.947178 0
M  V30 4856 H 455.928 4.81261 -1.62327 0
M  V30 4857 H 455.858 5.26508 0.09841 0
M  V30 4858 H 458.349 3.76427 -0.333294 0
M  V30 4859 H 458.662 7.6175 -1.30219 0
M  V30 4860 H 457.007 6.85179 -1.16425 0
M  V30 4861 H 460.198 4.65457 -0.496705 0
M  V30 4862 H 460.371 6.41171 -0.938306 0
M  V30 4863 N 453.777 0.010035 1.57597 0
M  V30 4864 C 455.054 -0.710296 1.82248 0
M  V30 4865 C 455.434 -1.91426 0.889911 0
M  V30 4866 O 454.782 -2.28424 -0.0590292 0
M  V30 4867 C 454.992 -1.10655 3.30993 0
M  V30 4868 C 456.34 -1.50621 3.96987 0
M  V30 4869 O 457.364 -1.20007 3.35375 0
M  V30 4870 O 456.223 -2.07587 5.05539 0
M  V30 4871 H 453.317 -0.34673 0.750804 0
M  V30 4872 H 455.863 0.0362578 1.69661 0
M  V30 4873 H 454.635 -0.248826 3.90508 0
M  V30 4874 H 454.258 -1.91189 3.48615 0
M  V30 4875 N 455.255 -1.55392 -0.262866 0
M  V30 4876 C 456.185 -1.91978 -1.32917 0
M  V30 4877 C 457.166 -0.7828 -1.51017 0
M  V30 4878 O 458.351 -1.04178 -1.63892 0
M  V30 4879 C 455.481 -2.20055 -2.68687 0
M  V30 4880 C 454.435 -3.35854 -2.65304 0
M  V30 4881 C 453.761 -3.49435 -4.04721 0
M  V30 4882 C 455.061 -4.71977 -2.23685 0
M  V30 4883 H 456.755 -2.81292 -1.02544 0
M  V30 4884 H 454.301 -1.3534 -0.491846 0
M  V30 4885 H 456.254 -2.44237 -3.43404 0
M  V30 4886 H 454.978 -1.27551 -3.00663 0
M  V30 4887 H 453.637 -3.11655 -1.93045 0
M  V30 4888 H 453.285 -2.54379 -4.33936 0
M  V30 4889 H 452.985 -4.27297 -4.0335 0
M  V30 4890 H 454.509 -3.7592 -4.81161 0
M  V30 4891 H 455.923 -4.95637 -2.88127 0
M  V30 4892 H 454.32 -5.52828 -2.33456 0
M  V30 4893 H 455.39 -4.70115 -1.18827 0
M  V30 4894 N 456.733 0.527833 -1.48498 0
M  V30 4895 C 457.979 1.28545 -1.56857 0
M  V30 4896 C 458.312 1.92678 -0.242651 0
M  V30 4897 O 457.587 1.79394 0.751545 0
M  V30 4898 C 457.87 2.37314 -2.70839 0
M  V30 4899 C 457.723 1.77858 -4.13142 0
M  V30 4900 C 459.042 3.39068 -2.80573 0
M  V30 4901 H 456.161 0.466006 -0.570971 0
M  V30 4902 H 458.803 0.587784 -1.8068 0
M  V30 4903 H 456.953 2.96821 -2.50658 0
M  V30 4904 H 458.625 1.22385 -4.44769 0
M  V30 4905 H 456.868 1.08383 -4.20042 0
M  V30 4906 H 457.539 2.56624 -4.88721 0
M  V30 4907 H 460.015 2.89518 -2.98862 0
M  V30 4908 H 458.891 4.12566 -3.6205 0
M  V30 4909 H 459.152 3.9975 -1.88818 0
M  V30 4910 N 458.211 1.37122 0.776871 0
M  V30 4911 C 459.457 1.32243 1.53752 0
M  V30 4912 C 459.79 -0.0944745 1.9397 0
M  V30 4913 O 459.065 -1.05068 1.6368 0
M  V30 4914 C 459.348 2.25681 2.80607 0
M  V30 4915 C 459.201 3.76127 2.46676 0
M  V30 4916 C 460.52 2.17657 3.82509 0
M  V30 4917 H 457.639 0.481704 0.557791 0
M  V30 4918 H 460.281 1.6778 0.891612 0
M  V30 4919 H 458.431 1.95505 3.35723 0
M  V30 4920 H 460.103 4.16877 1.97513 0
M  V30 4921 H 458.346 3.94946 1.79443 0
M  V30 4922 H 459.017 4.36933 3.37333 0
M  V30 4923 H 461.493 2.44245 3.36873 0
M  V30 4924 H 460.369 2.85185 4.69 0
M  V30 4925 H 460.63 1.16785 4.26396 0
M  V30 4926 N 459.689 -1.00246 1.21608 0
M  V30 4927 C 461.1 -1.55511 1.03312 0
M  V30 4928 C 461.451 -1.91946 -0.406332 0
M  V30 4929 O 460.576 -1.73753 -1.28992 0
M  V30 4930 C 461.171 -2.82576 1.86913 0
M  V30 4931 C 459.73 -3.34318 1.72941 0
M  V30 4932 C 458.877 -2.07487 1.83968 0
M  V30 4933 H 461.828 -0.824638 1.35593 0
M  V30 4934 H 461.849 -3.54559 1.38087 0
M  V30 4935 H 461.361 -2.56026 2.91672 0
M  V30 4936 H 459.462 -3.65797 0.70877 0
M  V30 4937 H 459.575 -4.05566 2.55055 0
M  V30 4938 H 457.939 -2.20603 1.27304 0
M  V30 4939 H 458.722 -1.83346 2.9024 0
M  V30 4940 N 461.167 -1.02423 -1.1978 0
M  V30 4941 C 462.415 -0.716569 -1.8897 0
M  V30 4942 C 462.736 0.756769 -1.79716 0
M  V30 4943 O 462.006 1.5449 -1.20456 0
M  V30 4944 H 460.586 -0.262062 -0.699523 0
M  V30 4945 H 463.248 -1.29747 -1.45436 0
M  V30 4946 H 462.344 -1.00675 -2.95417 0
M  V30 4947 N 462.645 1.35699 -0.801477 0
M  V30 4948 C 463.87 2.03687 -0.390678 0
M  V30 4949 C 464.295 1.60015 0.988778 0
M  V30 4950 O 463.653 0.774357 1.63931 0
M  V30 4951 C 463.701 3.57439 -0.476404 0
M  V30 4952 O 462.805 4.09208 0.512106 0
M  V30 4953 H 462.146 0.64344 -0.163956 0
M  V30 4954 H 464.676 1.73403 -1.08594 0
M  V30 4955 H 464.686 4.06544 -0.344357 0
M  V30 4956 H 463.361 3.88576 -1.48262 0
M  V30 4957 H 461.938 3.7134 0.340721 0
M  V30 4958 N 464.123 0.554532 1.47522 0
M  V30 4959 C 465.07 -0.19466 2.29978 0
M  V30 4960 C 466.04 -0.910882 1.38896 0
M  V30 4961 O 467.225 -0.907102 1.67858 0
M  V30 4962 C 464.365 -1.22035 3.22802 0
M  V30 4963 C 463.478 -0.510474 4.28973 0
M  V30 4964 C 462.613 -1.52123 5.08952 0
M  V30 4965 C 461.652 -0.796173 6.069 0
M  V30 4966 N 460.789 -1.75363 6.79847 0
M  V30 4967 H 465.629 0.51461 2.93523 0
M  V30 4968 H 463.166 0.265607 1.44682 0
M  V30 4969 H 465.124 -1.8276 3.7504 0
M  V30 4970 H 463.754 -1.89769 2.61127 0
M  V30 4971 H 462.806 0.211234 3.79813 0
M  V30 4972 H 464.118 0.0576503 4.98767 0
M  V30 4973 H 463.272 -2.20207 5.65326 0
M  V30 4974 H 462.011 -2.12327 4.39054 0
M  V30 4975 H 461.016 -0.101388 5.49707 0
M  V30 4976 H 462.241 -0.199911 6.78806 0
M  V30 4977 H 460.187 -2.3443 6.12682 0
M  V30 4978 H 460.104 -1.23759 7.45801 0
M  V30 4979 H 461.372 -2.4257 7.40797 0
M  V30 4980 N 465.601 -1.54893 0.290851 0
M  V30 4981 C 467.012 -1.85584 -0.203816 0
M  V30 4982 C 467.363 -1.21285 -1.54222 0
M  V30 4983 O 466.488 -0.506841 -2.10381 0
M  V30 4984 C 467.083 -3.367 -0.376595 0
M  V30 4985 C 465.642 -3.6746 -0.815485 0
M  V30 4986 C 464.789 -2.77178 0.0821087 0
M  V30 4987 H 467.74 -1.50208 0.512175 0
M  V30 4988 H 467.761 -3.60656 -1.21275 0
M  V30 4989 H 467.273 -3.8347 0.59767 0
M  V30 4990 H 465.374 -3.26201 -1.80066 0
M  V30 4991 H 465.487 -4.7478 -0.641905 0
M  V30 4992 H 463.851 -2.50925 -0.436895 0
M  V30 4993 H 464.634 -3.26767 1.05254 0
M  V30 4994 N 467.08 -0.0183926 -1.57589 0
M  V30 4995 C 468.305 0.676634 -1.96052 0
M  V30 4996 C 468.73 1.6548 -0.894307 0
M  V30 4997 O 468.088 1.80712 0.145849 0
M  V30 4998 C 468.136 1.36872 -3.33614 0
M  V30 4999 O 467.24 2.48372 -3.29219 0
M  V30 5000 H 466.581 0.1786 -0.63953 0
M  V30 5001 H 469.111 -0.077056 -2.04455 0
M  V30 5002 H 469.121 1.72797 -3.69601 0
M  V30 5003 H 467.796 0.651636 -4.10763 0
M  V30 5004 H 466.373 2.14639 -3.04934 0
M  V30 5005 N 468.558 1.5553 0.254621 0
M  V30 5006 C 469.806 1.7665 0.981793 0
M  V30 5007 C 470.127 0.580963 1.86145 0
M  V30 5008 O 469.397 -0.403537 1.91699 0
M  V30 5009 H 467.977 0.651475 0.365498 0
M  V30 5010 H 470.639 1.92958 0.274426 0
M  V30 5011 H 469.735 2.67486 1.60802 0
M  V30 5012 N 470.036 -0.519951 1.48776 0
M  V30 5013 C 470.984 -1.64443 1.64503 0
M  V30 5014 C 471.978 -1.61501 0.511248 0
M  V30 5015 O 473.184 -1.66238 0.690294 0
M  V30 5016 H 469.559 -0.544776 0.518385 0
M  V30 5017 H 471.53 -1.48325 2.58925 0
M  V30 5018 C 470.279 -3.02673 1.71127 0
M  V30 5019 H 469.602 -3.05635 2.57735 0
M  V30 5020 H 471.042 -3.80941 1.86172 0
M  V30 5021 C 469.501 -3.33854 0.452032 0
M  V30 5022 O 470.031 -3.99385 -0.430678 0
M  V30 5023 N 468.237 -2.88825 0.32069 0
M  V30 5024 H 467.784 -2.35674 1.03998 0
M  V30 5025 H 467.742 -3.10056 -0.520814 0
M  V30 5026 N 471.514 -1.37532 -0.769588 0
M  V30 5027 C 472.791 -1.23392 -1.51768 0
M  V30 5028 C 473.171 0.17157 -2.10402 0
M  V30 5029 O 472.519 1.17943 -1.95708 0
M  V30 5030 C 472.729 -2.33163 -2.59685 0
M  V30 5031 C 474.077 -2.70809 -3.27028 0
M  V30 5032 O 475.101 -2.32355 -2.69981 0
M  V30 5033 O 473.96 -3.37066 -4.30173 0
M  V30 5034 H 471.054 -0.481617 -0.67229 0
M  V30 5035 H 473.6 -1.49318 -0.806368 0
M  V30 5036 H 472.372 -3.27273 -2.14494 0
M  V30 5037 H 471.995 -2.08713 -3.38415 0
M  V30 5038 N 472.992 0.995999 -1.22138 0
M  V30 5039 C 474.217 1.77601 -1.0711 0
M  V30 5040 C 474.642 1.84339 0.374264 0
M  V30 5041 O 474 1.29359 1.27028 0
M  V30 5042 C 474.048 3.18897 -1.68336 0
M  V30 5043 O 473.152 4.01663 -0.934928 0
M  V30 5044 H 472.493 0.547011 -0.376397 0
M  V30 5045 H 475.023 1.25137 -1.6187 0
M  V30 5046 H 475.033 3.69539 -1.72931 0
M  V30 5047 H 473.708 3.13308 -2.73516 0
M  V30 5048 H 472.285 3.60204 -0.964751 0
M  V30 5049 N 474.47 1.03057 1.19235 0
M  V30 5050 C 475.71 0.736757 1.9066 0
M  V30 5051 C 476.074 -0.721521 1.77927 0
M  V30 5052 O 477.275 -1.12849 2.43964 0
M  V30 5053 C 475.546 1.17755 3.37444 0
M  V30 5054 S 477.105 1.00783 4.27069 0
M  V30 5055 H 473.923 0.268174 0.658486 0
M  V30 5056 H 476.525 1.32076 1.4414 0
M  V30 5057 H 475.229 2.23448 3.44237 0
M  V30 5058 H 474.76 0.586912 3.88997 0
M  V30 5059 H 476.775 -0.0806356 4.96134 0
M  V30 5060 N 475.948 -1.35272 0.808662 0
M  V30 5061 C 476.858 -2.33546 0.222079 0
M  V30 5062 C 477.874 -1.6196 -0.636011 0
M  V30 5063 O 479.05 -1.93822 -0.547274 0
M  V30 5064 C 476.115 -3.41148 -0.61795 0
M  V30 5065 C 475.176 -4.28507 0.260875 0
M  V30 5066 C 474.409 -5.3097 -0.539156 0
M  V30 5067 O 474.632 -5.42123 -1.77367 0
M  V30 5068 O 473.566 -6.01858 0.0710526 0
M  V30 5069 H 477.392 -2.85515 1.03512 0
M  V30 5070 H 474.977 -1.38079 0.570495 0
M  V30 5071 H 476.859 -4.06889 -1.09634 0
M  V30 5072 H 475.534 -2.91447 -1.40855 0
M  V30 5073 H 474.441 -3.6574 0.786451 0
M  V30 5074 H 475.774 -4.81611 1.01547 0
M  V30 5075 N 477.426 -0.562348 -1.47226 0
M  V30 5076 C 478.356 0.170627 -2.32876 0
M  V30 5077 C 479.337 0.903748 -1.44106 0
M  V30 5078 O 480.522 0.883206 -1.72954 0
M  V30 5079 C 477.652 1.19786 -3.25989 0
M  V30 5080 C 476.606 0.580875 -4.2404 0
M  V30 5081 C 475.932 1.71311 -5.06514 0
M  V30 5082 C 477.232 -0.468714 -5.20193 0
M  V30 5083 H 478.926 -0.544441 -2.94408 0
M  V30 5084 H 476.472 -0.263271 -1.41573 0
M  V30 5085 H 478.425 1.71884 -3.84752 0
M  V30 5086 H 477.149 1.94294 -2.62521 0
M  V30 5087 H 475.808 0.0811538 -3.6651 0
M  V30 5088 H 475.456 2.44736 -4.39447 0
M  V30 5089 H 475.156 1.30604 -5.72902 0
M  V30 5090 H 476.68 2.23725 -5.68137 0
M  V30 5091 H 478.094 -0.0336028 -5.7329 0
M  V30 5092 H 476.491 -0.794957 -5.94811 0
M  V30 5093 H 477.561 -1.36269 -4.65359 0
M  V30 5094 N 478.904 1.54736 -0.299062 0
M  V30 5095 C 480.32 1.59507 0.0543849 0
M  V30 5096 C 480.52 1.31606 1.52585 0
M  V30 5097 O 479.576 1.08853 2.27832 0
M  V30 5098 C 480.889 2.98751 -0.34181 0
M  V30 5099 C 482.437 3.1165 -0.290414 0
M  V30 5100 C 482.912 4.53199 -0.661402 0
M  V30 5101 N 484.403 4.59114 -0.613863 0
M  V30 5102 C 485.138 5.66709 -0.873417 0
M  V30 5103 N 484.634 6.82349 -1.19884 0
M  V30 5104 N 486.427 5.56369 -0.800608 0
M  V30 5105 H 478.578 1.71133 -1.25806 0
M  V30 5106 H 480.841 0.799186 -0.509908 0
M  V30 5107 H 480.547 3.24085 -1.36608 0
M  V30 5108 H 480.421 3.75961 0.305508 0
M  V30 5109 H 482.808 2.86066 0.724605 0
M  V30 5110 H 482.889 2.366 -0.972327 0
M  V30 5111 H 482.533 4.79513 -1.67422 0
M  V30 5112 H 482.463 5.26583 0.0425612 0
M  V30 5113 H 484.954 3.76053 -0.3732 0
M  V30 5114 H 485.267 7.60326 -1.38291 0
M  V30 5115 H 483.612 6.83906 -1.23685 0
M  V30 5116 H 486.803 4.64904 -0.546045 0
M  V30 5117 H 486.976 6.40139 -1.00626 0
M  V30 5118 N 480.382 0.0267497 1.57577 0
M  V30 5119 C 481.33 -0.973923 2.11229 0
M  V30 5120 C 482.324 -1.33849 1.03831 0
M  V30 5121 O 483.53 -1.321 1.22269 0
M  V30 5122 H 479.905 -0.331844 0.674821 0
M  V30 5123 H 481.876 -0.496092 2.94247 0
M  V30 5124 C 480.625 -2.24798 2.65257 0
M  V30 5125 H 479.948 -1.9762 3.47543 0
M  V30 5126 H 481.388 -2.93031 3.06445 0
M  V30 5127 C 479.847 -2.97611 1.57891 0
M  V30 5128 O 480.377 -3.89629 0.97735 0
M  V30 5129 N 478.583 -2.59905 1.29992 0
M  V30 5130 H 478.13 -1.85154 1.79097 0
M  V30 5131 H 478.088 -3.08932 0.583798 0
M  V30 5132 N 481.861 -1.55662 -0.24637 0
M  V30 5133 C 482.791 -1.93377 -1.30873 0
M  V30 5134 C 483.772 -0.798773 -1.50179 0
M  V30 5135 O 484.957 -1.0591 -1.62778 0
M  V30 5136 C 482.087 -2.22893 -2.66338 0
M  V30 5137 C 481.041 -3.38649 -2.61727 0
M  V30 5138 C 480.367 -3.53708 -4.00992 0
M  V30 5139 C 481.667 -4.74323 -2.18666 0
M  V30 5140 H 483.361 -2.82363 -0.995552 0
M  V30 5141 H 480.907 -1.35854 -0.477464 0
M  V30 5142 H 482.86 -2.47866 -3.40794 0
M  V30 5143 H 481.584 -1.30733 -2.99293 0
M  V30 5144 H 480.243 -3.13685 -1.89729 0
M  V30 5145 H 479.891 -2.58967 -4.31214 0
M  V30 5146 H 479.591 -4.31551 -3.98795 0
M  V30 5147 H 481.115 -3.81003 -4.77147 0
M  V30 5148 H 482.529 -4.98665 -2.82854 0
M  V30 5149 H 480.926 -5.55273 -2.27579 0
M  V30 5150 H 481.996 -4.71349 -1.13834 0
M  V30 5151 N 483.339 0.512053 -1.4905 0
M  V30 5152 C 484.286 1.6148 -1.64902 0
M  V30 5153 C 485.256 1.58687 -0.490673 0
M  V30 5154 O 486.441 1.76842 -0.71636 0
M  V30 5155 C 483.581 2.99676 -1.71139 0
M  V30 5156 C 482.694 3.12568 -2.98203 0
M  V30 5157 C 481.829 4.4143 -2.95487 0
M  V30 5158 C 480.868 4.47916 -4.17179 0
M  V30 5159 N 480.005 5.68191 -4.12437 0
M  V30 5160 H 484.845 1.47271 -2.59066 0
M  V30 5161 H 482.382 0.716713 -1.28459 0
M  V30 5162 H 484.34 3.79761 -1.72736 0
M  V30 5163 H 482.97 3.12614 -0.804508 0
M  V30 5164 H 482.022 2.25618 -3.06269 0
M  V30 5165 H 483.334 3.1322 -3.88194 0
M  V30 5166 H 482.488 5.29825 -2.95585 0
M  V30 5167 H 481.227 4.43326 -2.03256 0
M  V30 5168 H 480.232 3.57925 -4.17337 0
M  V30 5169 H 481.457 4.47744 -5.1059 0
M  V30 5170 H 479.403 5.7095 -3.23036 0
M  V30 5171 H 479.32 5.70413 -4.96151 0
M  V30 5172 H 480.588 6.58823 -4.16621 0
M  V30 5173 N 484.817 1.37938 0.762283 0
M  V30 5174 C 486.042 1.37059 1.55659 0
M  V30 5175 C 486.467 -0.0396123 1.88058 0
M  V30 5176 O 485.825 -1.01929 1.49934 0
M  V30 5177 C 485.873 2.22494 2.83776 0
M  V30 5178 O 484.977 1.63607 3.78559 0
M  V30 5179 H 484.318 0.467892 0.47114 0
M  V30 5180 H 486.848 1.81587 0.942725 0
M  V30 5181 H 486.858 2.36045 3.32786 0
M  V30 5182 H 485.533 3.24993 2.59524 0
M  V30 5183 H 484.11 1.5915 3.37233 0
M  V30 5184 N 486.295 -0.989507 1.22664 0
M  V30 5185 C 487.541 -1.7321 1.05481 0
M  V30 5186 C 487.874 -1.89852 -0.408635 0
M  V30 5187 O 487.149 -1.44416 -1.30285 0
M  V30 5188 C 487.432 -3.1357 1.77047 0
M  V30 5189 C 487.285 -3.04555 3.31008 0
M  V30 5190 C 488.604 -4.12812 1.5256 0
M  V30 5191 H 485.723 -0.628697 0.384589 0
M  V30 5192 H 488.365 -1.15258 1.51049 0
M  V30 5193 H 486.515 -3.63046 1.3831 0
M  V30 5194 H 488.187 -2.62674 3.7921 0
M  V30 5195 H 486.43 -2.41278 3.6051 0
M  V30 5196 H 487.101 -4.03894 3.76263 0
M  V30 5197 H 489.577 -3.72106 1.86215 0
M  V30 5198 H 488.453 -5.09132 2.05124 0
M  V30 5199 H 488.714 -4.39711 0.458936 0
M  V30 5200 N 487.773 -1.03688 -1.18687 0
M  V30 5201 C 488.705 -0.582696 -2.21669 0
M  V30 5202 C 489.718 0.345656 -1.59088 0
M  V30 5203 O 490.907 0.140776 -1.77944 0
M  V30 5204 C 488.007 0.169204 -3.38477 0
M  V30 5205 C 487.18 -0.766079 -4.30639 0
M  V30 5206 C 486.239 -0.0581541 -5.26168 0
M  V30 5207 O 485.265 -0.687346 -5.65035 0
M  V30 5208 N 486.467 1.20981 -5.67753 0
M  V30 5209 H 489.232 -1.46843 -2.61261 0
M  V30 5210 H 486.793 -0.916896 -1.33434 0
M  V30 5211 H 488.785 0.652543 -3.99405 0
M  V30 5212 H 487.355 0.956435 -2.97609 0
M  V30 5213 H 486.575 -1.42935 -3.67373 0
M  V30 5214 H 487.863 -1.40146 -4.89118 0
M  V30 5215 H 487.261 1.74159 -5.38224 0
M  V30 5216 H 485.818 1.6375 -6.30896 0
M  V30 5217 N 489.251 1.34841 -0.815825 0
M  V30 5218 C 490.199 2.31549 -0.220888 0
M  V30 5219 C 491.193 1.5707 0.634457 0
M  V30 5220 O 492.399 1.72125 0.526589 0
M  V30 5221 H 488.774 0.750153 -0.0526782 0
M  V30 5222 H 490.745 2.7926 -1.05149 0
M  V30 5223 C 489.494 3.42335 0.608427 0
M  V30 5224 H 488.817 3.9978 -0.0404121 0
M  V30 5225 H 490.257 4.12258 0.990931 0
M  V30 5226 C 488.716 2.86173 1.77782 0
M  V30 5227 O 489.246 2.80474 2.87571 0
M  V30 5228 N 487.452 2.43093 1.59229 0
M  V30 5229 H 486.999 2.47928 0.699237 0
M  V30 5230 H 486.957 2.05866 2.37627 0
M  V30 5231 N 490.729 0.570148 1.46925 0
M  V30 5232 C 491.954 0.0542592 2.07329 0
M  V30 5233 C 492.379 -1.23582 1.41806 0
M  V30 5234 O 491.737 -1.74341 0.497479 0
M  V30 5235 C 491.785 -0.111175 3.60429 0
M  V30 5236 O 490.889 -1.17071 3.95434 0
M  V30 5237 H 490.23 0.0571425 0.661537 0
M  V30 5238 H 492.76 0.789516 1.88753 0
M  V30 5239 H 492.77 -0.321315 4.06733 0
M  V30 5240 H 491.445 0.831012 4.07513 0
M  V30 5241 H 490.022 -0.940029 3.60857 0
M  V30 5242 N 492.207 -1.54576 0.307264 0
M  V30 5243 C 493.157 -2.20467 -0.581249 0
M  V30 5244 C 494.141 -1.17972 -1.09414 0
M  V30 5245 O 495.333 -1.43667 -1.03387 0
M  V30 5246 C 492.462 -2.95369 -1.74963 0
M  V30 5247 C 491.548 -4.05186 -1.25241 0
M  V30 5248 N 491.939 -5.03577 -0.47364 0
M  V30 5249 C 490.237 -4.18841 -1.53259 0
M  V30 5250 C 490.938 -5.81328 -0.208083 0
M  V30 5251 N 489.914 -5.37834 -0.789651 0
M  V30 5252 H 493.716 -2.93892 0.0212221 0
M  V30 5253 H 491.23 -1.62011 0.112325 0
M  V30 5254 H 493.227 -3.41046 -2.39777 0
M  V30 5255 H 491.887 -2.23461 -2.35574 0
M  V30 5256 H 492.898 -5.17766 -0.117963 0
M  V30 5257 H 489.575 -3.58141 -2.14573 0
M  V30 5258 H 490.965 -6.706 0.417793 0
M  V30 5259 N 493.685 -0.035106 -1.57561 0
M  V30 5260 C 494.932 0.642229 -1.92046 0
M  V30 5261 C 495.26 1.7179 -0.91206 0
M  V30 5262 O 494.515 1.95544 0.0781153 0
M  V30 5263 C 494.814 1.29149 -3.3325 0
M  V30 5264 C 494.48 0.345604 -4.49574 0
M  V30 5265 C 493.142 0.0852775 -4.81124 0
M  V30 5266 C 495.494 -0.303569 -5.20315 0
M  V30 5267 C 492.822 -0.831927 -5.80772 0
M  V30 5268 C 495.174 -1.20886 -6.20942 0
M  V30 5269 C 493.838 -1.47802 -6.50931 0
M  V30 5270 H 493.108 0.235008 -0.702746 0
M  V30 5271 H 495.755 -0.0981529 -1.91248 0
M  V30 5272 H 494.06 2.10676 -3.30337 0
M  V30 5273 H 495.757 1.82223 -3.57205 0
M  V30 5274 H 492.347 0.558683 -4.24943 0
M  V30 5275 H 496.531 -0.115515 -4.96166 0
M  V30 5276 H 491.787 -1.0481 -6.02349 0
M  V30 5277 H 495.961 -1.71804 -6.74875 0
M  V30 5278 H 493.588 -2.19039 -7.2796 0
M  V30 5279 N 495.163 1.55791 0.238111 0
M  V30 5280 C 496.11 1.9105 1.29493 0
M  V30 5281 C 497.08 0.765733 1.47397 0
M  V30 5282 O 498.265 1.02017 1.61236 0
M  V30 5283 C 495.405 2.21826 2.64362 0
M  V30 5284 C 494.518 3.49153 2.54394 0
M  V30 5285 C 493.653 3.69455 3.81676 0
M  V30 5286 C 492.692 4.90353 3.66361 0
M  V30 5287 N 491.829 5.07131 4.85554 0
M  V30 5288 H 496.669 2.81172 0.987233 0
M  V30 5289 H 494.206 1.39179 0.476203 0
M  V30 5290 H 496.164 2.37675 3.4288 0
M  V30 5291 H 494.794 1.34897 2.93262 0
M  V30 5292 H 493.846 3.41587 1.67399 0
M  V30 5293 H 495.158 4.37818 2.38991 0
M  V30 5294 H 494.312 3.85311 4.68636 0
M  V30 5295 H 493.051 2.7904 3.99985 0
M  V30 5296 H 492.056 4.74464 2.77784 0
M  V30 5297 H 493.281 5.82237 3.49538 0
M  V30 5298 H 491.227 4.19654 5.04209 0
M  V30 5299 H 491.144 5.89899 4.72816 0
M  V30 5300 H 492.412 5.27407 5.73988 0
M  V30 5301 N 496.642 -0.504142 1.49319 0
M  V30 5302 C 497.552 -1.63248 1.68486 0
M  V30 5303 C 498.568 -1.64488 0.567432 0
M  V30 5304 O 499.744 -1.82966 0.841749 0
M  V30 5305 C 496.809 -2.99627 1.74426 0
M  V30 5306 C 495.87 -3.09039 2.97982 0
M  V30 5307 C 495.103 -4.38913 3.0363 0
M  V30 5308 O 495.326 -5.27528 2.16958 0
M  V30 5309 O 494.26 -4.53231 3.96062 0
M  V30 5310 H 498.086 -1.50008 2.64067 0
M  V30 5311 H 495.671 -0.680086 1.33023 0
M  V30 5312 H 497.553 -3.80689 1.80705 0
M  V30 5313 H 496.228 -3.13136 0.820233 0
M  V30 5314 H 495.135 -2.27177 2.97223 0
M  V30 5315 H 496.468 -3.00456 3.89855 0
M  V30 5316 N 498.12 -1.38341 -0.754957 0
M  V30 5317 C 499.531 -1.30803 -1.3322 0
M  V30 5318 C 499.882 0.0368 -1.96165 0
M  V30 5319 O 499.007 0.938844 -1.94974 0
M  V30 5320 C 499.602 -2.3688 -2.42225 0
M  V30 5321 C 498.161 -2.32925 -2.95674 0
M  V30 5322 C 497.308 -2.19819 -1.69042 0
M  V30 5323 H 500.259 -1.48719 -0.553937 0
M  V30 5324 H 500.28 -2.02517 -3.22129 0
M  V30 5325 H 499.792 -3.34747 -1.96383 0
M  V30 5326 H 497.893 -1.38635 -3.45848 0
M  V30 5327 H 498.006 -3.27008 -3.50146 0
M  V30 5328 H 496.37 -1.66648 -1.92615 0
M  V30 5329 H 497.153 -3.19625 -1.25279 0
M  V30 5330 N 499.598 0.982988 -1.23187 0
M  V30 5331 C 500.528 2.09301 -1.03515 0
M  V30 5332 C 501.509 1.70035 0.0471136 0
M  V30 5333 O 502.694 1.93847 -0.117029 0
M  V30 5334 C 499.824 3.4167 -0.622791 0
M  V30 5335 C 498.778 3.94828 -1.65211 0
M  V30 5336 C 498.104 5.23362 -1.09527 0
M  V30 5337 C 499.404 4.2439 -3.04451 0
M  V30 5338 H 501.098 2.26016 -1.96359 0
M  V30 5339 H 498.644 1.08611 -0.945501 0
M  V30 5340 H 500.597 4.18746 -0.472233 0
M  V30 5341 H 499.321 3.24811 0.341329 0
M  V30 5342 H 497.98 3.19895 -1.79061 0
M  V30 5343 H 497.628 5.02852 -0.122211 0
M  V30 5344 H 497.328 5.59895 -1.783 0
M  V30 5345 H 498.852 6.03062 -0.956511 0
M  V30 5346 H 500.266 4.92225 -2.93917 0
M  V30 5347 H 498.663 4.72118 -3.70438 0
M  V30 5348 H 499.733 3.31765 -3.53638 0
M  V30 5349 N 501.076 1.04316 1.18135 0
M  V30 5350 C 502.322 0.749128 1.88457 0
M  V30 5351 C 502.655 -0.72149 1.803 0
M  V30 5352 O 501.93 -1.52676 1.205 0
M  V30 5353 C 502.213 1.21905 3.38838 0
M  V30 5354 C 502.066 2.75195 3.55792 0
M  V30 5355 C 503.385 0.811085 4.32561 0
M  V30 5356 H 500.504 0.273611 0.684329 0
M  V30 5357 H 503.146 1.29561 1.38975 0
M  V30 5358 H 501.296 0.754137 3.8111 0
M  V30 5359 H 502.968 3.29743 3.22595 0
M  V30 5360 H 501.211 3.14899 2.98364 0
M  V30 5361 H 501.882 3.03135 4.61317 0
M  V30 5362 H 504.358 1.21118 3.98082 0
M  V30 5363 H 503.234 1.16761 5.36338 0
M  V30 5364 H 503.495 -0.285596 4.41177 0
M  V30 5365 N 502.554 -1.34406 0.822964 0
M  V30 5366 C 503.779 -2.0304 0.423034 0
M  V30 5367 C 504.204 -1.61568 -0.963196 0
M  V30 5368 O 503.562 -0.800339 -1.62678 0
M  V30 5369 C 503.61 -3.56636 0.53321 0
M  V30 5370 O 502.714 -4.09971 -0.446939 0
M  V30 5371 H 502.055 -0.64075 0.174171 0
M  V30 5372 H 504.585 -1.71653 1.11339 0
M  V30 5373 H 504.595 -4.05945 0.408991 0
M  V30 5374 H 503.27 -3.86168 1.54425 0
M  V30 5375 H 501.847 -3.71835 -0.281601 0
M  V30 5376 N 504.032 -0.577932 -1.46621 0
M  V30 5377 C 505.309 0.00495287 -1.95599 0
M  V30 5378 C 505.689 1.46428 -1.5206 0
M  V30 5379 O 505.037 2.1517 -0.769046 0
M  V30 5380 C 505.247 -0.162114 -3.48623 0
M  V30 5381 C 506.595 -0.0274623 -4.24591 0
M  V30 5382 O 507.619 -0.0907067 -3.56084 0
M  V30 5383 O 506.478 0.1122 -5.46385 0
M  V30 5384 H 503.572 0.0525057 -0.825332 0
M  V30 5385 H 506.118 -0.645914 -1.56927 0
M  V30 5386 H 504.89 -1.17679 -3.73185 0
M  V30 5387 H 504.513 0.525407 -3.94113 0
M  V30 5388 N 505.51 1.54411 -0.315457 0
M  V30 5389 C 506.42 2.27737 0.56329 0
M  V30 5390 C 507.436 1.31787 1.13614 0
M  V30 5391 O 508.612 1.64791 1.15784 0
M  V30 5392 C 505.677 3.01478 1.71207 0
M  V30 5393 C 504.738 4.12997 1.17185 0
M  V30 5394 C 503.971 4.83212 2.26588 0
M  V30 5395 O 504.194 4.52884 3.46775 0
M  V30 5396 O 503.128 5.70299 1.92463 0
M  V30 5397 H 506.954 3.03683 -0.0319614 0
M  V30 5398 H 504.539 1.49178 -0.0814188 0
M  V30 5399 H 506.421 3.47683 2.38106 0
M  V30 5400 H 505.096 2.28414 2.29366 0
M  V30 5401 H 504.003 3.71159 0.468174 0
M  V30 5402 H 505.336 4.8808 0.635501 0
M  V30 5403 N 506.988 0.0434614 1.5754 0
M  V30 5404 C 507.935 -0.93356 2.11077 0
M  V30 5405 C 508.905 -1.31383 1.01626 0
M  V30 5406 O 510.09 -1.40465 1.29129 0
M  V30 5407 C 507.23 -2.20578 2.65404 0
M  V30 5408 C 506.343 -1.88068 3.88914 0
M  V30 5409 C 505.478 -3.09691 4.31584 0
M  V30 5410 C 504.517 -2.73067 5.47815 0
M  V30 5411 N 503.654 -3.87359 5.85574 0
M  V30 5412 H 508.494 -0.470118 2.94268 0
M  V30 5413 H 506.031 -0.220434 1.45439 0
M  V30 5414 H 507.989 -2.95011 2.94999 0
M  V30 5415 H 506.619 -2.64513 1.85021 0
M  V30 5416 H 505.671 -1.03816 3.6596 0
M  V30 5417 H 506.983 -1.57104 4.73413 0
M  V30 5418 H 506.137 -3.92431 4.62691 0
M  V30 5419 H 504.876 -3.43827 3.45882 0
M  V30 5420 H 503.881 -1.88742 5.16388 0
M  V30 5421 H 505.106 -2.40131 6.35227 0
M  V30 5422 H 503.052 -4.21311 5.02825 0
M  V30 5423 H 502.969 -3.60068 6.64746 0
M  V30 5424 H 504.237 -4.70761 6.21292 0
M  V30 5425 N 508.466 -1.55915 -0.229846 0
M  V30 5426 C 509.691 -1.8296 -0.976743 0
M  V30 5427 C 510.116 -0.622735 -1.77493 0
M  V30 5428 O 509.474 0.428431 -1.76165 0
M  V30 5429 C 509.522 -3.07916 -1.8767 0
M  V30 5430 O 508.626 -2.86028 -2.97088 0
M  V30 5431 H 507.967 -0.603453 -0.277021 0
M  V30 5432 H 510.497 -2.0312 -0.245669 0
M  V30 5433 H 510.507 -3.37802 -2.2881 0
M  V30 5434 H 509.182 -3.95389 -1.28996 0
M  V30 5435 H 507.759 -2.67355 -2.59954 0
M  V30 5436 N 509.944 0.496216 -1.49584 0
M  V30 5437 C 511.169 1.27865 -1.63295 0
M  V30 5438 C 511.594 1.85592 -0.306156 0
M  V30 5439 O 510.952 1.66092 0.726851 0
M  V30 5440 C 511 2.38128 -2.7079 0
M  V30 5441 O 510.104 3.42108 -2.30296 0
M  V30 5442 H 509.445 0.377279 -0.546403 0
M  V30 5443 H 511.975 0.593497 -1.95803 0
M  V30 5444 H 511.985 2.8382 -2.93104 0
M  V30 5445 H 510.66 1.95479 -3.67098 0
M  V30 5446 H 509.237 3.02301 -2.18331 0
M  V30 5447 N 511.423 1.38739 0.74761 0
M  V30 5448 C 512.333 1.38696 1.89211 0
M  V30 5449 C 513.349 0.283303 1.71678 0
M  V30 5450 O 514.525 0.522713 1.94498 0
M  V30 5451 C 511.59 1.21662 3.24653 0
M  V30 5452 C 510.651 2.41886 3.54669 0
M  V30 5453 C 509.884 2.25655 4.83648 0
M  V30 5454 O 510.107 1.25339 5.56459 0
M  V30 5455 O 509.041 3.14372 5.13277 0
M  V30 5456 H 512.867 2.35143 1.92202 0
M  V30 5457 H 510.452 1.19721 0.893708 0
M  V30 5458 H 512.334 1.14246 4.05618 0
M  V30 5459 H 511.009 0.283024 3.2246 0
M  V30 5460 H 509.916 2.54877 2.73841 0
M  V30 5461 H 511.249 3.33895 3.61628 0
M  V30 5462 N 512.901 -0.976442 1.23707 0
M  V30 5463 C 513.831 -2.08749 1.04624 0
M  V30 5464 C 514.812 -1.70057 -0.0380956 0
M  V30 5465 O 515.997 -1.93782 0.127308 0
M  V30 5466 C 513.127 -3.41335 0.640902 0
M  V30 5467 C 512.081 -3.93947 1.67302 0
M  V30 5468 C 511.407 -5.22774 1.12301 0
M  V30 5469 C 512.707 -4.22769 3.06697 0
M  V30 5470 H 514.401 -2.24972 1.97555 0
M  V30 5471 H 511.947 -1.08108 0.951247 0
M  V30 5472 H 513.9 -4.18489 0.494434 0
M  V30 5473 H 512.624 -3.24988 -0.324099 0
M  V30 5474 H 511.283 -3.18941 1.80755 0
M  V30 5475 H 510.931 -5.0278 0.148877 0
M  V30 5476 H 510.631 -5.58942 1.81267 0
M  V30 5477 H 512.155 -6.02546 0.988479 0
M  V30 5478 H 513.569 -4.90659 2.96524 0
M  V30 5479 H 511.966 -4.70147 3.72937 0
M  V30 5480 H 513.036 -3.29885 3.55392 0
M  V30 5481 N 514.379 -1.04941 -1.1758 0
M  V30 5482 C 515.628 -0.753124 -1.87112 0
M  V30 5483 C 515.941 0.722507 -1.81767 0
M  V30 5484 O 517.147 1.13265 -2.46746 0
M  V30 5485 C 515.603 -1.29695 -3.35719 0
M  V30 5486 C 515.211 -2.80184 -3.49572 0
M  V30 5487 C 516.955 -1.07759 -4.10595 0
M  V30 5488 C 514.862 -3.2788 -4.92187 0
M  V30 5489 H 513.792 -0.278034 -0.700866 0
M  V30 5490 H 516.443 -1.26637 -1.32798 0
M  V30 5491 H 514.825 -0.711522 -3.89555 0
M  V30 5492 H 515.999 -3.44561 -3.05965 0
M  V30 5493 H 514.314 -3.00632 -2.88113 0
M  V30 5494 H 516.911 -1.40899 -5.15802 0
M  V30 5495 H 517.254 -0.0152302 -4.16297 0
M  V30 5496 H 517.787 -1.62809 -3.62957 0
M  V30 5497 H 514.526 -4.33535 -4.91658 0
M  V30 5498 H 514.046 -2.68245 -5.36475 0
M  V30 5499 H 515.725 -3.22412 -5.60945 0
M  V30 5500 N 515.857 1.33968 -0.830081 0
M  V30 5501 C 517.106 1.97323 -0.417928 0
M  V30 5502 C 517.419 1.6652 1.02618 0
M  V30 5503 O 518.625 2.2342 1.54259 0
M  V30 5504 C 517.081 3.53099 -0.696359 0
M  V30 5505 C 516.689 3.92788 -2.15457 0
M  V30 5506 C 518.433 4.23049 -0.350724 0
M  V30 5507 C 516.34 5.41506 -2.37751 0
M  V30 5508 H 515.27 0.738409 -0.152541 0
M  V30 5509 H 517.921 1.52711 -1.01744 0
M  V30 5510 H 516.303 3.95991 -0.0265904 0
M  V30 5511 H 517.477 3.6098 -2.86408 0
M  V30 5512 H 515.792 3.35795 -2.46232 0
M  V30 5513 H 518.389 5.32403 -0.495036 0
M  V30 5514 H 518.732 4.10279 0.705476 0
M  V30 5515 H 519.265 3.85657 -0.975362 0
M  V30 5516 H 516.004 5.5927 -3.41903 0
M  V30 5517 H 515.524 5.74804 -1.7135 0
M  V30 5518 H 517.203 6.0828 -2.20465 0
M  V30 5519 N 517.335 0.585699 1.46312 0
M  V30 5520 C 518.563 0.0781299 2.06752 0
M  V30 5521 C 518.978 -1.22812 1.43396 0
M  V30 5522 O 518.335 -1.74318 0.540314 0
M  V30 5523 C 518.386 -0.0911927 3.61385 0
M  V30 5524 O 518.107 1.16336 4.22371 0
M  V30 5525 C 519.608 -0.632765 4.38761 0
M  V30 5526 H 516.828 0.0588188 0.668417 0
M  V30 5527 H 519.372 0.807218 1.87894 0
M  V30 5528 H 517.527 -0.770514 3.7966 0
M  V30 5529 H 517.941 0.979082 5.15281 0
M  V30 5530 H 519.415 -0.70041 5.47538 0
M  V30 5531 H 519.892 -1.65039 4.07012 0
M  V30 5532 H 520.498 0.0117856 4.25298 0
M  V30 5533 N 518.813 -1.54241 0.323641 0
M  V30 5534 C 520.09 -1.92741 -0.333181 0
M  V30 5535 C 520.47 -1.25326 -1.69872 0
M  V30 5536 O 519.818 -0.396991 -2.25025 0
M  V30 5537 C 520.028 -3.46399 -0.425322 0
M  V30 5538 C 521.376 -4.19029 -0.68557 0
M  V30 5539 O 522.4 -3.52555 -0.50824 0
M  V30 5540 O 521.259 -5.36751 -1.02767 0
M  V30 5541 H 518.353 -0.804811 -0.190286 0
M  V30 5542 H 520.899 -1.65542 0.373361 0
M  V30 5543 H 519.671 -3.87643 0.533737 0
M  V30 5544 H 519.294 -3.79704 -1.17944 0
M  V30 5545 N 520.291 -0.0518155 -1.57515 0
M  V30 5546 C 521.516 0.634896 -1.97443 0
M  V30 5547 C 521.941 1.63546 -0.929207 0
M  V30 5548 O 521.299 1.80981 0.107484 0
M  V30 5549 C 521.347 1.29765 -3.36442 0
M  V30 5550 O 520.451 2.41333 -3.34413 0
M  V30 5551 H 519.792 0.164994 -0.643174 0
M  V30 5552 H 522.322 -0.120407 -2.04245 0
M  V30 5553 H 522.332 1.64918 -3.73184 0
M  V30 5554 H 521.007 0.564361 -4.12053 0
M  V30 5555 H 519.584 2.08122 -3.09418 0
M  V30 5556 N 521.769 1.56035 0.221574 0
M  V30 5557 C 523.018 1.78245 0.944016 0
M  V30 5558 C 523.331 0.620371 1.85501 0
M  V30 5559 O 524.537 0.726103 2.6161 0
M  V30 5560 C 522.993 3.15659 1.7288 0
M  V30 5561 C 522.601 4.39591 0.863942 0
M  V30 5562 C 524.345 3.47195 2.44246 0
M  V30 5563 C 522.252 5.6803 1.64607 0
M  V30 5564 H 521.182 0.664547 0.356222 0
M  V30 5565 H 523.833 1.8243 0.197904 0
M  V30 5566 H 522.215 3.0565 2.51781 0
M  V30 5567 H 523.389 4.60655 0.115464 0
M  V30 5568 H 521.704 4.15572 0.262407 0
M  V30 5569 H 524.301 4.40381 3.03263 0
M  V30 5570 H 524.644 2.69693 3.1713 0
M  V30 5571 H 525.177 3.58533 1.72334 0
M  V30 5572 H 521.916 6.48425 0.960507 0
M  V30 5573 H 521.436 5.51027 2.36917 0
M  V30 5574 H 523.115 6.08203 2.20675 0
M  V30 5575 N 523.247 -0.488276 1.49845 0
M  V30 5576 C 524.475 -1.26527 1.63702 0
M  V30 5577 C 524.89 -1.8618 0.313447 0
M  V30 5578 O 524.247 -1.68432 -0.702624 0
M  V30 5579 C 524.298 -2.3864 2.71538 0
M  V30 5580 O 524.019 -1.81437 3.98763 0
M  V30 5581 C 525.52 -3.29805 2.96215 0
M  V30 5582 H 522.74 -0.383295 0.55075 0
M  V30 5583 H 525.284 -0.584779 1.95961 0
M  V30 5584 H 523.439 -3.02496 2.42023 0
M  V30 5585 H 523.853 -2.55135 4.58265 0
M  V30 5586 H 525.327 -4.04722 3.75372 0
M  V30 5587 H 525.804 -3.87563 2.06619 0
M  V30 5588 H 526.41 -2.71703 3.27196 0
M  V30 5589 N 524.725 -1.39134 -0.740242 0
M  V30 5590 C 525.655 -1.40165 -1.86751 0
M  V30 5591 C 526.636 -0.265708 -1.68012 0
M  V30 5592 O 527.821 -0.47076 -1.88408 0
M  V30 5593 C 524.951 -1.2392 -3.2444 0
M  V30 5594 C 523.905 -2.34858 -3.57807 0
M  V30 5595 C 523.231 -2.03707 -4.94376 0
M  V30 5596 C 524.531 -3.77159 -3.61315 0
M  V30 5597 H 526.225 -2.345 -1.86145 0
M  V30 5598 H 523.771 -1.12875 -0.89416 0
M  V30 5599 H 525.724 -1.23263 -4.02969 0
M  V30 5600 H 524.448 -0.26051 -3.25559 0
M  V30 5601 H 523.107 -2.34723 -2.81604 0
M  V30 5602 H 522.755 -1.04289 -4.9207 0
M  V30 5603 H 522.455 -2.78016 -5.17669 0
M  V30 5604 H 523.979 -2.04691 -5.75268 0
M  V30 5605 H 525.393 -3.79252 -4.29931 0
M  V30 5606 H 523.79 -4.50784 -3.96124 0
M  V30 5607 H 524.86 -4.08513 -2.61238 0
M  V30 5608 N 526.204 0.969867 -1.24223 0
M  V30 5609 C 527.151 2.06407 -1.0327 0
M  V30 5610 C 528.121 1.66014 0.0533 0
M  V30 5611 O 529.306 1.90533 -0.100896 0
M  V30 5612 C 526.446 3.3909 -0.641262 0
M  V30 5613 C 525.559 3.9269 -1.80051 0
M  V30 5614 C 524.694 5.13631 -1.35486 0
M  V30 5615 C 523.733 5.59423 -2.48419 0
M  V30 5616 N 522.87 6.71586 -2.04737 0
M  V30 5617 H 527.71 2.23663 -1.96923 0
M  V30 5618 H 525.247 1.09624 -0.980862 0
M  V30 5619 H 527.205 4.15323 -0.395351 0
M  V30 5620 H 525.835 3.21765 0.258269 0
M  V30 5621 H 524.887 3.13116 -2.16014 0
M  V30 5622 H 526.199 4.22636 -2.64916 0
M  V30 5623 H 525.353 5.97231 -1.0677 0
M  V30 5624 H 524.092 4.85364 -0.476722 0
M  V30 5625 H 523.097 4.74398 -2.77897 0
M  V30 5626 H 524.322 5.89705 -3.36786 0
M  V30 5627 H 522.268 6.45058 -1.19318 0
M  V30 5628 H 522.185 7.0097 -2.83156 0
M  V30 5629 H 523.453 7.58633 -1.79154 0
M  V30 5630 N 527.682 1.05563 1.17022 0
M  V30 5631 C 528.63 0.653887 2.2322 0
M  V30 5632 C 529.624 -0.326642 1.66221 0
M  V30 5633 O 530.83 -0.192301 1.7897 0
M  V30 5634 H 527.205 0.193297 0.726733 0
M  V30 5635 H 529.176 1.5596 2.54399 0
M  V30 5636 C 527.925 0.0485434 3.47666 0
M  V30 5637 H 527.248 0.79413 3.91834 0
M  V30 5638 H 528.688 -0.195133 4.23551 0
M  V30 5639 C 527.147 -1.20583 3.14581 0
M  V30 5640 O 527.677 -2.29475 3.29703 0
M  V30 5641 N 525.883 -1.10493 2.68774 0
M  V30 5642 H 525.43 -0.218795 2.56669 0
M  V30 5643 H 525.388 -1.94507 2.47011 0
M  V30 5644 N 529.16 -1.33526 0.837174 0
M  V30 5645 C 530.107 -2.29248 0.267169 0
M  V30 5646 C 531.077 -1.54252 -0.616071 0
M  V30 5647 O 532.262 -1.82559 -0.554699 0
M  V30 5648 C 529.402 -3.40638 -0.553152 0
M  V30 5649 C 528.515 -4.30548 0.353921 0
M  V30 5650 C 527.65 -5.29051 -0.477339 0
M  V30 5651 C 526.689 -6.106 0.42823 0
M  V30 5652 N 525.826 -7.01152 -0.364801 0
M  V30 5653 H 530.666 -2.77398 1.08877 0
M  V30 5654 H 528.203 -1.36496 0.54838 0
M  V30 5655 H 530.161 -4.03921 -1.04422 0
M  V30 5656 H 528.791 -2.93685 -1.33973 0
M  V30 5657 H 527.843 -3.68001 0.963289 0
M  V30 5658 H 529.155 -4.87631 1.04964 0
M  V30 5659 H 528.309 -5.97853 -1.0323 0
M  V30 5660 H 527.048 -4.72541 -1.2065 0
M  V30 5661 H 526.053 -5.40718 0.995219 0
M  V30 5662 H 527.278 -6.69193 1.15573 0
M  V30 5663 H 525.224 -6.47092 -1.07738 0
M  V30 5664 H 525.141 -7.5551 0.272238 0
M  V30 5665 H 526.409 -7.74263 -0.902054 0
M  V30 5666 N 530.638 -0.59345 -1.46 0
M  V30 5667 C 531.866 -0.0890934 -2.06708 0
M  V30 5668 C 532.281 1.2205 -1.44046 0
M  V30 5669 O 531.638 1.74029 -0.549551 0
M  V30 5670 C 531.689 0.0720263 -3.61428 0
M  V30 5671 O 531.41 -1.18574 -4.21748 0
M  V30 5672 C 532.911 0.609487 -4.3909 0
M  V30 5673 H 530.131 -0.0623628 -0.668096 0
M  V30 5674 H 532.675 -0.817171 -1.87464 0
M  V30 5675 H 530.83 0.750369 -3.80063 0
M  V30 5676 H 531.244 -1.0064 -5.14754 0
M  V30 5677 H 532.718 0.671363 -5.47902 0
M  V30 5678 H 533.195 1.62878 -4.07882 0
M  V30 5679 H 533.801 -0.03434 -4.25286 0
M  V30 5680 N 532.116 1.54067 -0.331816 0
M  V30 5681 C 533.026 2.28322 0.539104 0
M  V30 5682 C 534.042 1.32985 1.1221 0
M  V30 5683 O 535.218 1.6601 1.1403 0
M  V30 5684 C 532.283 3.03277 1.68 0
M  V30 5685 C 531.344 4.14216 1.12798 0
M  V30 5686 C 530.577 4.85588 2.2145 0
M  V30 5687 O 530.8 4.56536 3.41952 0
M  V30 5688 O 529.734 5.72309 1.86404 0
M  V30 5689 H 533.56 3.03632 -0.0641692 0
M  V30 5690 H 531.145 1.49083 -0.0972365 0
M  V30 5691 H 533.027 3.50189 2.34405 0
M  V30 5692 H 531.702 2.30834 2.2693 0
M  V30 5693 H 530.609 3.71635 0.428782 0
M  V30 5694 H 531.942 4.88727 0.583698 0
M  V30 5695 N 533.594 0.0601682 1.57485 0
M  V30 5696 C 534.819 -0.624416 1.97777 0
M  V30 5697 C 535.244 -1.63051 0.937867 0
M  V30 5698 O 534.602 -1.81036 -0.0978845 0
M  V30 5699 C 534.65 -1.27979 3.37126 0
M  V30 5700 O 533.754 -2.39556 3.35688 0
M  V30 5701 H 533.095 -0.161581 0.64404 0
M  V30 5702 H 535.625 0.131237 2.04179 0
M  V30 5703 H 535.635 -1.62937 3.74053 0
M  V30 5704 H 534.31 -0.542501 4.12347 0
M  V30 5705 H 532.887 -2.06478 3.10517 0
M  V30 5706 N 535.072 -1.5615 -0.213296 0
M  V30 5707 C 536.297 -1.83986 -0.957282 0
M  V30 5708 C 536.722 -0.641526 -1.76822 0
M  V30 5709 O 536.08 0.409722 -1.7661 0
M  V30 5710 C 536.128 -3.09889 -1.84393 0
M  V30 5711 O 535.232 -2.89163 -2.94038 0
M  V30 5712 H 534.573 -0.606357 -0.270605 0
M  V30 5713 H 537.103 -2.03369 -0.224111 0
M  V30 5714 H 537.113 -3.40209 -2.25215 0
M  V30 5715 H 535.788 -3.96735 -1.24795 0
M  V30 5716 H 534.365 -2.70097 -2.57103 0
M  V30 5717 N 536.55 0.480323 -1.50102 0
M  V30 5718 C 537.48 1.58769 -1.71215 0
M  V30 5719 C 538.461 1.60583 -0.560997 0
M  V30 5720 O 539.646 1.76996 -0.799127 0
M  V30 5721 C 536.776 2.97148 -1.79778 0
M  V30 5722 C 535.73 3.10201 -2.94888 0
M  V30 5723 C 535.056 4.50137 -2.88584 0
M  V30 5724 C 536.356 2.88283 -4.35534 0
M  V30 5725 H 538.05 1.41354 -2.6393 0
M  V30 5726 H 535.596 0.678591 -1.27008 0
M  V30 5727 H 537.549 3.74536 -1.93133 0
M  V30 5728 H 536.273 3.15699 -0.836772 0
M  V30 5729 H 534.932 2.35244 -2.81169 0
M  V30 5730 H 534.58 4.65593 -1.90349 0
M  V30 5731 H 534.28 4.59808 -3.65856 0
M  V30 5732 H 535.804 5.29558 -3.03976 0
M  V30 5733 H 537.218 3.55427 -4.49827 0
M  V30 5734 H 535.615 3.09408 -5.14186 0
M  V30 5735 H 536.685 1.84219 -4.48544 0
M  V30 5736 N 538.028 1.39524 0.732853 0
M  V30 5737 C 538.958 1.41153 1.86005 0
M  V30 5738 C 539.939 0.274614 1.67869 0
M  V30 5739 O 541.124 0.480745 1.88155 0
M  V30 5740 C 538.254 1.25638 3.23778 0
M  V30 5741 C 537.208 2.36752 3.56556 0
M  V30 5742 C 536.534 2.06326 4.93289 0
M  V30 5743 C 537.834 3.79069 3.5931 0
M  V30 5744 H 539.528 2.35484 1.84899 0
M  V30 5745 H 537.074 1.13348 0.888162 0
M  V30 5746 H 539.027 1.25398 4.0231 0
M  V30 5747 H 537.751 0.277772 3.25417 0
M  V30 5748 H 536.41 2.36213 2.80355 0
M  V30 5749 H 536.058 1.06897 4.9151 0
M  V30 5750 H 535.758 2.80757 5.16187 0
M  V30 5751 H 537.282 2.07739 5.74175 0
M  V30 5752 H 538.696 3.81526 4.27914 0
M  V30 5753 H 537.093 4.52878 3.93728 0
M  V30 5754 H 538.163 4.09893 2.59068 0
M  V30 5755 N 539.506 -0.963266 1.24736 0
M  V30 5756 C 540.469 -2.04013 1.04457 0
M  V30 5757 C 541.469 -1.608 0.000335555 0
M  V30 5758 O 542.659 -1.72515 0.241719 0
M  V30 5759 C 539.791 -3.35858 0.584162 0
M  V30 5760 H 540.984 -2.23436 2.00041 0
M  V30 5761 H 538.537 -1.13914 1.07021 0
M  V30 5762 H 539.272 -3.22128 -0.374673 0
M  V30 5763 H 539.057 -3.68568 1.3379 0
M  V30 5764 H 540.547 -4.1502 0.463451 0
M  V30 5765 N 540.985 -1.06182 -1.16461 0
M  V30 5766 C 541.932 -0.671613 -2.20812 0
M  V30 5767 C 542.902 0.331186 -1.62765 0
M  V30 5768 O 544.087 0.22033 -1.89524 0
M  V30 5769 C 541.227 -0.063029 -3.45042 0
M  V30 5770 C 540.34 -1.11587 -4.1734 0
M  V30 5771 C 539.475 -0.473546 -5.29085 0
M  V30 5772 C 538.514 -1.51 -5.93182 0
M  V30 5773 N 537.651 -0.891118 -6.96422 0
M  V30 5774 H 542.491 -1.56589 -2.53542 0
M  V30 5775 H 540.028 -0.782951 -1.24532 0
M  V30 5776 H 541.986 0.307344 -4.16066 0
M  V30 5777 H 540.616 0.794663 -3.12866 0
M  V30 5778 H 539.668 -1.60396 -3.44931 0
M  V30 5779 H 540.98 -1.90221 -4.61104 0
M  V30 5780 H 540.134 -0.0501432 -6.06679 0
M  V30 5781 H 538.873 0.344687 -4.8648 0
M  V30 5782 H 537.878 -1.94331 -5.14311 0
M  V30 5783 H 539.103 -2.33031 -6.37866 0
M  V30 5784 H 537.049 -0.0935753 -6.55933 0
M  V30 5785 H 536.966 -1.61486 -7.38551 0
M  V30 5786 H 538.234 -0.492822 -7.77941 0
M  V30 5787 N 542.463 1.3308 -0.844243 0
M  V30 5788 C 543.393 2.3161 -0.296493 0
M  V30 5789 C 544.374 1.59215 0.598707 0
M  V30 5790 O 545.559 1.87077 0.521134 0
M  V30 5791 C 542.689 3.43313 0.524762 0
M  V30 5792 C 541.643 4.27115 -0.275106 0
M  V30 5793 C 540.969 5.30483 0.670236 0
M  V30 5794 C 542.269 5.00443 -1.49514 0
M  V30 5795 H 543.963 2.77672 -1.11976 0
M  V30 5796 H 541.509 1.33496 -0.539899 0
M  V30 5797 H 543.462 4.11273 0.918298 0
M  V30 5798 H 542.186 2.95952 1.3813 0
M  V30 5799 H 540.845 3.60787 -0.650267 0
M  V30 5800 H 540.493 4.79379 1.52332 0
M  V30 5801 H 540.193 5.87435 0.139123 0
M  V30 5802 H 541.717 6.01308 1.06117 0
M  V30 5803 H 543.131 5.61141 -1.17447 0
M  V30 5804 H 541.528 5.67071 -1.96343 0
M  V30 5805 H 542.598 4.28906 -2.26202 0
M  V30 5806 N 543.941 0.601185 1.45683 0
M  V30 5807 C 544.851 -0.123395 2.34275 0
M  V30 5808 C 545.867 -0.86702 1.5086 0
M  V30 5809 O 547.043 -0.826049 1.8368 0
M  V30 5810 C 544.108 -1.11237 3.2837 0
M  V30 5811 C 543.169 -0.371405 4.2769 0
M  V30 5812 C 542.402 -1.31327 5.1729 0
M  V30 5813 O 542.625 -2.55078 5.10188 0
M  V30 5814 O 541.559 -0.813811 5.96373 0
M  V30 5815 H 545.385 0.604483 2.97623 0
M  V30 5816 H 542.97 0.361477 1.44961 0
M  V30 5817 H 544.852 -1.68214 3.8637 0
M  V30 5818 H 543.527 -1.82139 2.67595 0
M  V30 5819 H 542.434 0.24067 3.73325 0
M  V30 5820 H 543.767 0.296998 4.91303 0
M  V30 5821 N 545.419 -1.53889 0.339982 0
M  V30 5822 C 546.329 -2.28604 -0.526988 0
M  V30 5823 C 547.345 -1.33578 -1.11503 0
M  V30 5824 O 548.521 -1.66612 -1.13148 0
M  V30 5825 C 545.586 -3.04164 -1.66389 0
M  V30 5826 C 544.647 -4.14809 -1.10599 0
M  V30 5827 C 543.88 -4.86756 -2.18871 0
M  V30 5828 O 544.103 -4.58343 -3.39526 0
M  V30 5829 O 543.037 -5.73289 -1.83366 0
M  V30 5830 H 546.863 -3.03594 0.0802707 0
M  V30 5831 H 544.448 -1.4903 0.105141 0
M  V30 5832 H 546.33 -3.51427 -2.32544 0
M  V30 5833 H 545.005 -2.32035 -2.25703 0
M  V30 5834 H 543.912 -3.71857 -0.409067 0
M  V30 5835 H 545.245 -4.89029 -0.557771 0
M  V30 5836 N 546.897 -0.0685191 -1.57451 0
M  V30 5837 C 548.125 0.610462 -1.97689 0
M  V30 5838 C 548.54 1.63346 -0.946758 0
M  V30 5839 O 547.897 1.82377 0.0669868 0
M  V30 5840 C 547.948 1.28196 -3.38006 0
M  V30 5841 O 547.669 0.299906 -4.37072 0
M  V30 5842 C 549.17 2.04907 -3.931 0
M  V30 5843 H 546.39 0.165689 -0.650222 0
M  V30 5844 H 548.934 -0.139953 -2.04021 0
M  V30 5845 H 547.089 1.98348 -3.32771 0
M  V30 5846 H 547.503 0.78126 -5.18649 0
M  V30 5847 H 548.977 2.47287 -4.93511 0
M  V30 5848 H 549.454 2.9043 -3.29465 0
M  V30 5849 H 550.06 1.39629 -4.01726 0
M  V30 5850 N 548.375 1.56261 0.205012 0
M  V30 5851 C 549.322 1.93754 1.25411 0
M  V30 5852 C 550.292 0.796826 1.45739 0
M  V30 5853 O 551.477 1.05414 1.59036 0
M  V30 5854 C 548.617 2.27383 2.59598 0
M  V30 5855 C 547.73 3.5447 2.46931 0
M  V30 5856 C 546.865 3.77468 3.73753 0
M  V30 5857 C 545.904 4.98014 3.55877 0
M  V30 5858 N 545.041 5.17316 4.74688 0
M  V30 5859 H 549.881 2.83203 0.92737 0
M  V30 5860 H 547.418 1.40158 0.446574 0
M  V30 5861 H 549.376 2.44895 3.37761 0
M  V30 5862 H 548.006 1.41088 2.90335 0
M  V30 5863 H 547.058 3.45061 1.60116 0
M  V30 5864 H 548.37 4.42789 2.29651 0
M  V30 5865 H 547.524 3.95165 4.60358 0
M  V30 5866 H 546.263 2.87461 3.93976 0
M  V30 5867 H 545.268 4.80249 2.67657 0
M  V30 5868 H 546.493 5.8952 3.37109 0
M  V30 5869 H 544.439 4.30255 4.95194 0
M  V30 5870 H 544.356 5.99796 4.60197 0
M  V30 5871 H 545.624 5.39463 5.62672 0
M  V30 5872 N 549.853 -0.472356 1.50355 0
M  V30 5873 C 550.763 -1.59637 1.7191 0
M  V30 5874 C 551.779 -1.63247 0.602195 0
M  V30 5875 O 552.955 -1.81139 0.880369 0
M  V30 5876 C 550.02 -2.9586 1.80742 0
M  V30 5877 C 549.081 -3.02649 3.04471 0
M  V30 5878 C 548.314 -4.32374 3.12872 0
M  V30 5879 O 548.537 -5.22807 2.28099 0
M  V30 5880 O 547.471 -4.44728 4.05587 0
M  V30 5881 H 551.297 -1.44373 2.67189 0
M  V30 5882 H 548.882 -0.651717 1.34436 0
M  V30 5883 H 550.764 -3.7677 1.88739 0
M  V30 5884 H 549.439 -3.11325 0.88647 0
M  V30 5885 H 548.346 -2.20821 3.01975 0
M  V30 5886 H 549.679 -2.92119 3.9614 0
M  V30 5887 N 551.331 -1.39911 -0.725443 0
M  V30 5888 C 552.561 -1.40744 -1.51244 0
M  V30 5889 C 552.969 -0.00275403 -1.892 0
M  V30 5890 O 552.312 0.981299 -1.55294 0
M  V30 5891 C 552.374 -2.22527 -2.82351 0
M  V30 5892 C 552.038 -3.71053 -2.66774 0
M  V30 5893 C 553.035 -4.63916 -2.34686 0
M  V30 5894 C 550.72 -4.14753 -2.83347 0
M  V30 5895 C 552.714 -5.98463 -2.19366 0
M  V30 5896 C 550.401 -5.49372 -2.67644 0
M  V30 5897 C 551.399 -6.41042 -2.357 0
M  V30 5898 O 551.087 -7.73181 -2.20107 0
M  V30 5899 H 550.819 -0.482314 -0.473655 0
M  V30 5900 H 553.373 -1.84472 -0.903284 0
M  V30 5901 H 551.603 -1.73563 -3.45562 0
M  V30 5902 H 553.292 -2.15421 -3.44018 0
M  V30 5903 H 554.058 -4.31453 -2.21525 0
M  V30 5904 H 549.937 -3.43728 -3.072 0
M  V30 5905 H 553.481 -6.69979 -1.94354 0
M  V30 5906 H 549.378 -5.81424 -2.80387 0
M  V30 5907 H 550.146 -7.84008 -2.35103 0
M  V30 5908 N 552.809 0.956637 -1.25245 0
M  V30 5909 C 553.741 2.05628 -1.01242 0
M  V30 5910 C 554.754 1.62785 0.0219579 0
M  V30 5911 O 555.943 1.77184 -0.216365 0
M  V30 5912 C 553.043 3.35069 -0.508161 0
M  V30 5913 C 552.216 4.06761 -1.60823 0
M  V30 5914 C 551.275 5.14473 -1.1047 0
M  V30 5915 O 550.301 5.40033 -1.79868 0
M  V30 5916 N 551.503 5.80474 0.0550773 0
M  V30 5917 H 554.268 2.2679 -1.95925 0
M  V30 5918 H 551.829 1.12505 -1.16423 0
M  V30 5919 H 553.821 4.044 -0.155819 0
M  V30 5920 H 552.391 3.10694 0.344683 0
M  V30 5921 H 551.611 3.31555 -2.13224 0
M  V30 5922 H 552.899 4.51418 -2.34733 0
M  V30 5923 H 552.297 5.62125 0.635004 0
M  V30 5924 H 550.854 6.50868 0.348469 0
M  V30 5925 N 554.287 1.06798 1.15896 0
M  V30 5926 C 555.197 0.694564 2.24083 0
M  V30 5927 C 556.213 -0.291687 1.71538 0
M  V30 5928 O 557.389 -0.139723 2.00915 0
M  V30 5929 C 554.454 0.0921014 3.46578 0
M  V30 5930 C 553.515 1.13087 4.14137 0
M  V30 5931 C 552.748 0.557064 5.30785 0
M  V30 5932 O 552.971 -0.628623 5.66925 0
M  V30 5933 O 551.905 1.29924 5.8771 0
M  V30 5934 H 555.731 1.59663 2.58344 0
M  V30 5935 H 553.316 0.840575 1.2351 0
M  V30 5936 H 555.198 -0.241884 4.20705 0
M  V30 5937 H 553.873 -0.78337 3.14078 0
M  V30 5938 H 552.78 1.51712 3.41957 0
M  V30 5939 H 554.113 1.97805 4.50704 0
M  V30 5940 N 555.766 -1.3263 0.851289 0
M  V30 5941 C 557.177 -1.79653 0.5081 0
M  V30 5942 C 557.528 -1.70327 -0.973815 0
M  V30 5943 O 556.653 -1.25986 -1.75944 0
M  V30 5944 C 557.248 -3.26196 0.915515 0
M  V30 5945 C 555.807 -3.71187 0.624277 0
M  V30 5946 C 554.954 -2.53804 1.11709 0
M  V30 5947 H 557.905 -1.19976 1.03882 0
M  V30 5948 H 557.926 -3.79801 0.230535 0
M  V30 5949 H 557.438 -3.32952 1.99411 0
M  V30 5950 H 555.539 -3.69948 -0.443737 0
M  V30 5951 H 555.652 -4.64132 1.18821 0
M  V30 5952 H 554.016 -2.48964 0.537484 0
M  V30 5953 H 554.799 -2.63315 2.20272 0
M  V30 5954 N 557.244 -0.608902 -1.45362 0
M  V30 5955 C 558.154 0.110969 -2.34337 0
M  V30 5956 C 559.17 0.859007 -1.51318 0
M  V30 5957 O 560.346 0.816296 -1.84116 0
M  V30 5958 C 557.411 1.09494 -3.28956 0
M  V30 5959 C 556.472 0.348718 -4.27881 0
M  V30 5960 C 555.705 1.28582 -5.17979 0
M  V30 5961 O 555.928 2.52369 -5.11533 0
M  V30 5962 O 554.862 0.782172 -5.96796 0
M  V30 5963 H 558.688 -0.620258 -2.97299 0
M  V30 5964 H 556.273 -0.36916 -1.44767 0
M  V30 5965 H 558.155 1.66163 -3.87257 0
M  V30 5966 H 556.83 1.80717 -2.68557 0
M  V30 5967 H 555.737 -0.260465 -3.73192 0
M  V30 5968 H 557.07 -0.323049 -4.91139 0
M  V30 5969 N 558.722 1.53707 -0.348139 0
M  V30 5970 C 559.968 2.01286 0.247332 0
M  V30 5971 C 560.301 1.23546 1.49834 0
M  V30 5972 O 559.576 0.324331 1.91777 0
M  V30 5973 C 559.859 3.55768 0.556858 0
M  V30 5974 C 559.712 4.44216 -0.706564 0
M  V30 5975 C 561.031 4.1841 1.3646 0
M  V30 5976 H 558.15 0.731677 0.0884201 0
M  V30 5977 H 560.792 1.84106 -0.469584 0
M  V30 5978 H 558.942 3.70539 1.16761 0
M  V30 5979 H 560.614 4.41274 -1.34444 0
M  V30 5980 H 558.857 4.12892 -1.33052 0
M  V30 5981 H 559.528 5.50202 -0.445186 0
M  V30 5982 H 562.004 4.07365 0.848113 0
M  V30 5983 H 560.88 5.26563 1.54992 0
M  V30 5984 H 561.141 3.7333 2.36805 0
M  V30 5985 N 560.2 0.0768682 1.57412 0
M  V30 5986 C 561.611 -0.455037 1.8107 0
M  V30 5987 C 561.962 -1.69323 0.991162 0
M  V30 5988 O 561.087 -2.15328 0.215156 0
M  V30 5989 C 561.682 -0.832316 3.28417 0
M  V30 5990 C 560.241 -1.30906 3.52903 0
M  V30 5991 C 559.388 -0.296714 2.75708 0
M  V30 5992 H 562.339 0.302514 1.5579 0
M  V30 5993 H 562.36 -1.69333 3.40744 0
M  V30 5994 H 561.872 0.0690532 3.88039 0
M  V30 5995 H 559.973 -2.22875 2.98592 0
M  V30 5996 H 560.086 -1.28348 4.61588 0
M  V30 5997 H 558.45 -0.775059 2.42621 0
M  V30 5998 H 559.233 0.597015 3.38069 0
M  V30 5999 N 561.678 -1.56367 -0.196722 0
M  V30 6000 C 562.588 -1.97617 -1.2643 0
M  V30 6001 C 563.604 -0.883598 -1.49895 0
M  V30 6002 O 564.78 -1.18921 -1.62541 0
M  V30 6003 C 561.845 -2.30595 -2.58895 0
M  V30 6004 C 560.906 -3.53551 -2.43516 0
M  V30 6005 C 560.139 -3.84946 -3.69665 0
M  V30 6006 O 560.362 -3.17655 -4.73763 0
M  V30 6007 O 559.296 -4.78379 -3.65291 0
M  V30 6008 H 563.122 -2.88648 -0.944233 0
M  V30 6009 H 560.707 -1.43901 -0.401592 0
M  V30 6010 H 562.589 -2.52889 -3.37083 0
M  V30 6011 H 561.264 -1.42732 -2.90533 0
M  V30 6012 H 560.171 -3.36507 -1.63445 0
M  V30 6013 H 561.504 -4.41875 -2.16812 0
M  V30 6014 N 563.156 0.464375 -1.50603 0
M  V30 6015 C 564.381 1.24372 -1.65971 0
M  V30 6016 C 564.806 1.84901 -0.345453 0
M  V30 6017 O 564.164 1.67596 0.691457 0
M  V30 6018 C 564.212 2.32331 -2.7578 0
M  V30 6019 O 563.316 3.37146 -2.375 0
M  V30 6020 H 562.657 0.365604 -0.554283 0
M  V30 6021 H 565.187 0.55183 -1.97018 0
M  V30 6022 H 565.197 2.77539 -2.99059 0
M  V30 6023 H 563.872 1.87648 -3.71162 0
M  V30 6024 H 562.449 2.97602 -2.24694 0
M  V30 6025 N 564.634 1.40294 0.718013 0
M  V30 6026 C 565.582 1.40536 1.85344 0
M  V30 6027 C 566.576 0.286192 1.66965 0
M  V30 6028 O 567.782 0.457105 1.74099 0
M  V30 6029 H 564.157 0.439236 0.61039 0
M  V30 6030 H 566.128 2.36275 1.82255 0
M  V30 6031 C 564.877 1.28245 3.23185 0
M  V30 6032 H 564.2 2.1364 3.37932 0
M  V30 6033 H 565.64 1.32474 4.02774 0
M  V30 6034 C 564.099 -0.0075503 3.36899 0
M  V30 6035 O 564.629 -0.971391 3.89778 0
M  V30 6036 N 562.835 -0.0762479 2.905 0
M  V30 6037 H 562.382 0.708819 2.47656 0
M  V30 6038 H 562.34 -0.938846 3.00055 0
M  V30 6039 N 566.112 -0.949982 1.2575 0
M  V30 6040 C 567.044 -2.05088 1.02331 0
M  V30 6041 C 568.057 -1.62795 -0.0133247 0
M  V30 6042 O 569.246 -1.77067 0.225759 0
M  V30 6043 C 566.346 -3.34794 0.525924 0
M  V30 6044 C 565.519 -4.05903 1.62978 0
M  V30 6045 C 564.578 -5.1388 1.13196 0
M  V30 6046 O 563.604 -5.39072 1.82729 0
M  V30 6047 N 564.806 -5.80495 -0.0242926 0
M  V30 6048 H 567.571 -2.25747 1.97125 0
M  V30 6049 H 565.132 -1.11886 1.17018 0
M  V30 6050 H 567.124 -4.04312 0.177263 0
M  V30 6051 H 565.694 -3.10872 -0.328202 0
M  V30 6052 H 564.914 -3.3042 2.1498 0
M  V30 6053 H 566.202 -4.50166 2.37124 0
M  V30 6054 H 565.6 -5.62454 -0.605184 0
M  V30 6055 H 564.157 -6.51043 -0.313947 0
M  V30 6056 N 567.59 -1.07411 -1.15328 0
M  V30 6057 C 568.537 -0.694995 -2.20087 0
M  V30 6058 C 569.507 0.313904 -1.63107 0
M  V30 6059 O 570.692 0.200216 -1.89747 0
M  V30 6060 C 567.832 -0.0996218 -3.44956 0
M  V30 6061 C 566.945 -1.16007 -4.16133 0
M  V30 6062 C 566.08 -0.529636 -5.28553 0
M  V30 6063 C 565.119 -1.57283 -5.91548 0
M  V30 6064 N 564.256 -0.964932 -6.95438 0
M  V30 6065 H 569.096 -1.5927 -2.51867 0
M  V30 6066 H 566.633 -0.796115 -1.23695 0
M  V30 6067 H 568.591 0.263197 -4.16369 0
M  V30 6068 H 567.221 0.761435 -3.13691 0
M  V30 6069 H 566.273 -1.64045 -3.4321 0
M  V30 6070 H 567.585 -1.95101 -4.59061 0
M  V30 6071 H 566.739 -0.114487 -6.06592 0
M  V30 6072 H 565.478 0.29307 -4.86819 0
M  V30 6073 H 564.483 -1.99775 -5.12221 0
M  V30 6074 H 565.708 -2.39783 -6.35359 0
M  V30 6075 H 563.654 -0.16314 -6.55797 0
M  V30 6076 H 563.571 -1.69311 -7.36797 0
M  V30 6077 H 564.839 -0.575305 -7.77374 0
M  V30 6078 N 569.068 1.32177 -0.85831 0
M  V30 6079 C 570 2.27688 -0.262835 0
M  V30 6080 C 571.013 1.52588 0.567513 0
M  V30 6081 O 572.202 1.74156 0.391407 0
M  V30 6082 C 569.302 3.32668 0.646937 0
M  V30 6083 C 568.475 4.37148 -0.148372 0
M  V30 6084 C 567.534 5.21686 0.687728 0
M  V30 6085 O 566.56 5.69074 0.119934 0
M  V30 6086 N 567.762 5.44892 2.00182 0
M  V30 6087 H 570.527 2.79426 -1.08356 0
M  V30 6088 H 568.088 1.45076 -0.718647 0
M  V30 6089 H 570.08 3.86134 1.2117 0
M  V30 6090 H 568.65 2.81061 1.36834 0
M  V30 6091 H 567.87 3.83915 -0.894572 0
M  V30 6092 H 569.158 5.04038 -0.694514 0
M  V30 6093 H 568.556 5.08128 2.4864 0
M  V30 6094 H 567.113 6.0134 2.51463 0
M  V30 6095 N 570.547 0.616602 1.45037 0
M  V30 6096 C 571.793 0.123965 2.03022 0
M  V30 6097 C 572.148 -1.23508 1.47525 0
M  V30 6098 O 571.441 -1.80453 0.643981 0
M  V30 6099 C 571.635 0.0356829 3.57382 0
M  V30 6100 C 571.464 1.38462 4.27853 0
M  V30 6101 C 570.234 1.96766 4.65415 0
M  V30 6102 C 572.432 2.31536 4.59234 0
M  V30 6103 N 570.414 3.25046 5.20786 0
M  V30 6104 C 571.785 3.4442 5.15533 0
M  V30 6105 C 573.84 2.30796 4.41178 0
M  V30 6106 C 572.543 4.56742 5.55679 0
M  V30 6107 C 574.569 3.42171 4.82362 0
M  V30 6108 C 573.931 4.53778 5.38762 0
M  V30 6109 H 570.03 0.0889428 0.776925 0
M  V30 6110 H 572.614 0.816925 1.76733 0
M  V30 6111 H 570.785 -0.62652 3.83314 0
M  V30 6112 H 572.517 -0.464443 4.02026 0
M  V30 6113 H 569.272 1.4987 4.49261 0
M  V30 6114 H 569.696 3.90592 5.52962 0
M  V30 6115 H 574.338 1.45765 3.96878 0
M  V30 6116 H 572.056 5.42491 5.9894 0
M  V30 6117 H 575.642 3.42757 4.70116 0
M  V30 6118 H 574.522 5.38536 5.70043 0
M  V30 6119 N 572.025 -1.5352 0.356285 0
M  V30 6120 C 572.957 -2.23009 -0.529127 0
M  V30 6121 C 573.97 -1.241 -1.05371 0
M  V30 6122 O 575.159 -1.50379 -0.961679 0
M  V30 6123 C 572.259 -2.90685 -1.74229 0
M  V30 6124 C 571.432 -4.16019 -1.35081 0
M  V30 6125 C 570.491 -4.66989 -2.42502 0
M  V30 6126 O 569.517 -5.30895 -2.05279 0
M  V30 6127 N 570.719 -4.44006 -3.7395 0
M  V30 6128 H 573.484 -2.99627 0.0660501 0
M  V30 6129 H 571.045 -1.60885 0.181014 0
M  V30 6130 H 573.037 -3.21695 -2.4555 0
M  V30 6131 H 571.607 -2.17575 -2.24454 0
M  V30 6132 H 570.827 -3.91414 -0.467833 0
M  V30 6133 H 572.115 -4.9752 -1.06542 0
M  V30 6134 H 571.513 -3.92924 -4.06973 0
M  V30 6135 H 570.07 -4.7959 -4.41403 0
M  V30 6136 N 573.503 -0.0852151 -1.57369 0
M  V30 6137 C 574.728 0.592872 -1.98746 0
M  V30 6138 C 575.153 1.61538 -0.963689 0
M  V30 6139 O 574.511 1.81168 0.069071 0
M  V30 6140 C 574.559 1.22599 -3.39119 0
M  V30 6141 O 573.663 2.34185 -3.39457 0
M  V30 6142 H 573.004 0.151314 -0.646529 0
M  V30 6143 H 575.534 -0.163703 -2.03944 0
M  V30 6144 H 575.544 1.56965 -3.76598 0
M  V30 6145 H 574.219 0.476831 -4.13158 0
M  V30 6146 H 572.796 2.01512 -3.13763 0
M  V30 6147 N 574.981 1.5647 0.188427 0
M  V30 6148 C 575.928 1.95073 1.23349 0
M  V30 6149 C 576.898 0.812238 1.44886 0
M  V30 6150 O 578.083 1.07095 1.57909 0
M  V30 6151 C 575.223 2.30124 2.57171 0
M  V30 6152 C 574.336 3.57069 2.43157 0
M  V30 6153 C 573.471 3.81411 3.69729 0
M  V30 6154 C 572.51 5.0176 3.50575 0
M  V30 6155 N 571.647 5.22321 4.69175 0
M  V30 6156 H 576.487 2.84171 0.89728 0
M  V30 6157 H 574.024 1.40623 0.431683 0
M  V30 6158 H 575.982 2.48463 3.35145 0
M  V30 6159 H 574.612 1.44159 2.88822 0
M  V30 6160 H 573.664 3.4674 1.56447 0
M  V30 6161 H 574.976 4.452 2.24942 0
M  V30 6162 H 574.13 4.00026 4.56141 0
M  V30 6163 H 572.869 2.91624 3.90905 0
M  V30 6164 H 571.874 4.83061 2.62549 0
M  V30 6165 H 573.099 5.93063 3.30837 0
M  V30 6166 H 571.045 4.35483 4.90602 0
M  V30 6167 H 570.962 6.04643 4.53809 0
M  V30 6168 H 572.23 5.45401 5.56919 0
M  V30 6169 N 576.459 -0.456382 1.50847 0
M  V30 6170 C 577.875 -0.791345 1.386 0
M  V30 6171 C 578.075 -1.9633 0.453498 0
M  V30 6172 O 577.131 -2.52308 -0.0984353 0
M  V30 6173 C 578.444 -1.08959 2.80265 0
M  V30 6174 C 579.992 -1.19517 2.89283 0
M  V30 6175 C 580.467 -1.52647 4.31814 0
M  V30 6176 N 581.958 -1.59609 4.34832 0
M  V30 6177 C 582.693 -1.86777 5.42127 0
M  V30 6178 N 582.189 -2.11866 6.59609 0
M  V30 6179 N 583.982 -1.88402 5.29586 0
M  V30 6180 H 576.133 0.315746 2.1004 0
M  V30 6181 H 578.396 0.0787916 0.94472 0
M  V30 6182 H 578.102 -0.301355 3.50407 0
M  V30 6183 H 577.976 -2.02211 3.18419 0
M  V30 6184 H 580.363 -1.97406 2.19351 0
M  V30 6185 H 580.444 -0.242111 2.54652 0
M  V30 6186 H 580.088 -0.752922 5.02288 0
M  V30 6187 H 580.018 -2.49127 4.63943 0
M  V30 6188 H 582.509 -1.42201 3.50125 0
M  V30 6189 H 582.822 -2.31912 7.37182 0
M  V30 6190 H 581.167 -2.09228 6.62758 0
M  V30 6191 H 584.358 -1.68307 4.36795 0
M  V30 6192 H 584.531 -2.09238 6.13289 0
M  V30 6193 N 577.937 -1.40673 -0.710563 0
M  V30 6194 C 578.884 -1.41336 -1.82463 0
M  V30 6195 C 579.854 -0.269648 -1.63897 0
M  V30 6196 O 581.039 -0.468463 -1.8496 0
M  V30 6197 C 578.179 -1.28665 -3.20218 0
M  V30 6198 C 577.292 -2.52784 -3.5032 0
M  V30 6199 C 576.427 -2.32517 -4.77608 0
M  V30 6200 C 575.466 -3.52187 -5.0063 0
M  V30 6201 N 574.603 -3.31084 -6.19135 0
M  V30 6202 H 579.443 -2.36558 -1.8123 0
M  V30 6203 H 576.98 -1.17483 -0.885226 0
M  V30 6204 H 578.938 -1.19324 -3.99772 0
M  V30 6205 H 577.568 -0.370602 -3.20666 0
M  V30 6206 H 576.62 -2.72634 -2.65283 0
M  V30 6207 H 577.932 -3.41845 -3.63241 0
M  V30 6208 H 577.086 -2.20558 -5.65189 0
M  V30 6209 H 575.825 -1.40889 -4.66906 0
M  V30 6210 H 574.83 -3.64617 -4.11502 0
M  V30 6211 H 576.055 -4.44749 -5.13201 0
M  V30 6212 H 574.001 -2.42143 -6.09674 0
M  V30 6213 H 573.918 -4.13713 -6.32754 0
M  V30 6214 H 575.186 -3.22868 -7.0949 0
M  V30 6215 N 579.415 0.9433 -1.26252 0
M  V30 6216 C 580.64 1.72898 -1.14547 0
M  V30 6217 C 581.065 1.85761 0.295743 0
M  V30 6218 O 580.423 1.3463 1.21427 0
M  V30 6219 C 580.471 3.11471 -1.8171 0
M  V30 6220 O 579.575 3.97336 -1.10445 0
M  V30 6221 H 578.916 0.530555 -0.399259 0
M  V30 6222 H 581.446 1.18159 -1.67032 0
M  V30 6223 H 581.456 3.61872 -1.88449 0
M  V30 6224 H 580.131 3.01425 -2.86558 0
M  V30 6225 H 578.708 3.55788 -1.11666 0
M  V30 6226 N 580.893 1.08022 1.14757 0
M  V30 6227 C 581.803 0.718292 2.23333 0
M  V30 6228 C 582.819 -0.273477 1.71837 0
M  V30 6229 O 583.995 -0.118406 2.01052 0
M  V30 6230 C 581.06 0.128855 3.4646 0
M  V30 6231 C 580.121 1.17473 4.12915 0
M  V30 6232 C 579.354 0.61333 5.30164 0
M  V30 6233 O 579.577 -0.568458 5.6756 0
M  V30 6234 O 578.511 1.3615 5.86299 0
M  V30 6235 H 582.337 1.62394 2.56636 0
M  V30 6236 H 579.922 0.853628 1.22611 0
M  V30 6237 H 581.804 -0.197249 4.20938 0
M  V30 6238 H 580.479 -0.750014 3.14891 0
M  V30 6239 H 579.386 1.5533 3.40328 0
M  V30 6240 H 580.719 2.02574 4.48581 0
M  V30 6241 N 582.371 -1.3172 0.865308 0
M  V30 6242 C 583.611 -1.98675 0.480365 0
M  V30 6243 C 583.975 -1.66929 -0.948621 0
M  V30 6244 O 585.176 -2.27059 -1.43867 0
M  V30 6245 C 583.447 -3.49972 0.724858 0
M  V30 6246 S 585.006 -4.36598 0.439078 0
M  V30 6247 H 581.824 -0.687967 0.179506 0
M  V30 6248 H 584.426 -1.60215 1.12033 0
M  V30 6249 H 583.13 -3.70567 1.76375 0
M  V30 6250 H 582.661 -3.93335 0.0717173 0
M  V30 6251 H 584.676 -4.90792 -0.730564 0
M  V30 6252 N 583.85 -0.624285 -1.44708 0
M  V30 6253 C 585.099 -0.123539 -2.01321 0
M  V30 6254 C 585.412 1.25966 -1.49639 0
M  V30 6255 O 586.618 1.85405 -1.98336 0
M  V30 6256 C 585.074 -0.170124 -3.59498 0
M  V30 6257 C 584.682 -1.55421 -4.20176 0
M  V30 6258 C 586.426 0.274513 -4.23611 0
M  V30 6259 C 584.332 -1.55628 -5.70556 0
M  V30 6260 H 583.263 -0.0424183 -0.752806 0
M  V30 6261 H 585.913 -0.782076 -1.65999 0
M  V30 6262 H 584.296 0.555385 -3.92086 0
M  V30 6263 H 585.47 -2.30276 -3.99136 0
M  V30 6264 H 583.784 -1.94235 -3.68323 0
M  V30 6265 H 586.382 0.292402 -5.339 0
M  V30 6266 H 586.725 1.3005 -3.95465 0
M  V30 6267 H 587.258 -0.398275 -3.95801 0
M  V30 6268 H 583.997 -2.56041 -6.03426 0
M  V30 6269 H 583.517 -0.850563 -5.93739 0
M  V30 6270 H 585.196 -1.28721 -6.34066 0
M  V30 6271 N 585.328 1.53329 -0.364422 0
M  V30 6272 C 586.276 2.27212 0.497737 0
M  V30 6273 C 587.27 1.30146 1.08437 0
M  V30 6274 O 588.476 1.47778 1.0277 0
M  V30 6275 H 584.851 0.730329 0.179232 0
M  V30 6276 H 586.822 2.98037 -0.147182 0
M  V30 6277 C 585.571 3.07333 1.6261 0
M  V30 6278 H 584.894 3.81866 1.184 0
M  V30 6279 H 586.334 3.62209 2.20409 0
M  V30 6280 C 584.793 2.18102 2.56775 0
M  V30 6281 O 585.323 1.79104 3.59562 0
M  V30 6282 N 583.529 1.82759 2.25937 0
M  V30 6283 H 583.076 2.14671 1.42387 0
M  V30 6284 H 583.034 1.23342 2.89196 0
M  V30 6285 N 586.806 0.0935595 1.57322 0
M  V30 6286 C 587.738 -0.895923 2.10964 0
M  V30 6287 C 588.751 -1.24705 1.04654 0
M  V30 6288 O 589.94 -1.20044 1.32105 0
M  V30 6289 C 587.04 -2.20546 2.57318 0
M  V30 6290 C 586.213 -2.0299 3.87445 0
M  V30 6291 C 585.272 -3.17443 4.19662 0
M  V30 6292 O 584.298 -2.91474 4.88909 0
M  V30 6293 N 585.5 -4.43168 3.74943 0
M  V30 6294 H 588.265 -0.437788 2.96485 0
M  V30 6295 H 585.826 -0.0915863 1.61641 0
M  V30 6296 H 587.818 -2.9606 2.75917 0
M  V30 6297 H 586.388 -2.57789 1.76816 0
M  V30 6298 H 585.608 -1.11815 3.78009 0
M  V30 6299 H 586.896 -1.88535 4.7258 0
M  V30 6300 H 586.294 -4.67149 3.19043 0
M  V30 6301 H 584.851 -5.15637 3.987 0
M  V30 6302 N 588.284 -1.56567 -0.180126 0
M  V30 6303 C 589.232 -1.96632 -1.24251 0
M  V30 6304 C 590.226 -0.853818 -1.46309 0
M  V30 6305 O 591.432 -1.0389 -1.46993 0
M  V30 6306 H 587.807 -0.625476 -0.417473 0
M  V30 6307 H 589.778 -2.85201 -0.877679 0
M  V30 6308 C 588.527 -2.33486 -2.57642 0
M  V30 6309 H 587.85 -3.18626 -2.4149 0
M  V30 6310 H 589.29 -2.65371 -3.30688 0
M  V30 6311 C 587.749 -1.17499 -3.15746 0
M  V30 6312 O 588.279 -0.457956 -3.99081 0
M  V30 6313 N 586.485 -0.94786 -2.74707 0
M  V30 6314 H 586.032 -1.53269 -2.07042 0
M  V30 6315 H 585.99 -0.173626 -3.1392 0
M  V30 6316 N 589.762 0.448376 -1.51087 0
M  V30 6317 C 591.173 1.0286 -1.5581 0
M  V30 6318 C 591.524 1.92583 -0.374989 0
M  V30 6319 O 590.649 2.10316 0.509533 0
M  V30 6320 C 591.244 1.87223 -2.8237 0
M  V30 6321 C 589.803 2.40314 -2.897 0
M  V30 6322 C 588.95 1.19238 -2.50355 0
M  V30 6323 H 591.901 0.230075 -1.57023 0
M  V30 6324 H 591.922 2.72553 -2.6551 0
M  V30 6325 H 591.434 1.21894 -3.68461 0
M  V30 6326 H 589.535 3.09129 -2.08014 0
M  V30 6327 H 589.648 2.73866 -3.93108 0
M  V30 6328 H 588.012 1.53428 -2.03303 0
M  V30 6329 H 588.795 0.555367 -3.38778 0
M  V30 6330 N 591.24 1.41047 0.703093 0
M  V30 6331 C 592.203 1.42036 1.79884 0
M  V30 6332 C 593.203 0.312153 1.57741 0
M  V30 6333 O 594.393 0.571672 1.64553 0
M  V30 6334 C 591.525 1.22437 3.18154 0
M  V30 6335 H 592.718 2.39572 1.80403 0
M  V30 6336 H 590.271 1.27079 0.909977 0
M  V30 6337 H 591.006 0.257112 3.23279 0
M  V30 6338 H 590.791 2.02723 3.35627 0
M  V30 6339 H 592.281 1.25946 3.98155 0
M  V30 6340 N 592.718 -0.936591 1.26751 0
M  V30 6341 C 593.681 -2.01752 1.08761 0
M  V30 6342 C 594.681 -1.60763 0.0344435 0
M  V30 6343 O 595.871 -1.71963 0.278258 0
M  V30 6344 C 593.003 -3.34543 0.655271 0
M  V30 6345 H 594.196 -2.19143 2.04735 0
M  V30 6346 H 591.749 -1.11618 1.09413 0
M  V30 6347 H 592.484 -3.22851 -0.30626 0
M  V30 6348 H 592.269 -3.65647 1.41578 0
M  V30 6349 H 593.759 -4.13944 0.551378 0
M  V30 6350 N 594.196 -1.08629 -1.14182 0
M  V30 6351 C 595.421 -0.83902 -1.89671 0
M  V30 6352 C 595.846 0.603332 -1.78161 0
M  V30 6353 O 595.204 1.42301 -1.12339 0
M  V30 6354 C 595.252 -1.26854 -3.37551 0
M  V30 6355 O 594.356 -0.42188 -4.10236 0
M  V30 6356 H 593.697 -0.304545 -0.590041 0
M  V30 6357 H 596.227 -1.4483 -1.44518 0
M  V30 6358 H 596.237 -1.25038 -3.88368 0
M  V30 6359 H 594.912 -2.31901 -3.45246 0
M  V30 6360 H 593.489 -0.503654 -3.69483 0
M  V30 6361 N 595.674 1.31259 -0.872281 0
M  V30 6362 C 596.899 2.0133 -0.498099 0
M  V30 6363 C 597.324 1.65031 0.902568 0
M  V30 6364 O 596.682 0.860164 1.59596 0
M  V30 6365 C 596.73 3.54411 -0.665205 0
M  V30 6366 O 595.834 4.11347 0.294473 0
M  V30 6367 H 595.175 0.633844 -0.197832 0
M  V30 6368 H 597.705 1.67402 -1.17633 0
M  V30 6369 H 597.715 4.04147 -0.559373 0
M  V30 6370 H 596.39 3.80171 -1.68651 0
M  V30 6371 H 594.967 3.72624 0.143403 0
M  V30 6372 N 597.152 0.631951 1.44375 0
M  V30 6373 C 598.1 -0.0846693 2.32446 0
M  V30 6374 C 599.094 -0.834957 1.47393 0
M  V30 6375 O 600.3 -0.747764 1.63733 0
M  V30 6376 H 596.675 -0.0461508 0.750583 0
M  V30 6377 H 598.646 0.67619 2.90638 0
M  V30 6378 C 597.395 -1.05211 3.314 0
M  V30 6379 H 596.718 -0.484203 3.96857 0
M  V30 6380 H 598.158 -1.523 3.95703 0
M  V30 6381 C 596.617 -2.13776 2.60387 0
M  V30 6382 O 597.147 -3.21869 2.4034 0
M  V30 6383 N 595.353 -1.89733 2.20113 0
M  V30 6384 H 594.9 -1.01833 2.36618 0
M  V30 6385 H 594.858 -2.62572 1.72926 0
M  V30 6386 N 598.631 -1.53133 0.372548 0
M  V30 6387 C 599.581 -2.22733 -0.487218 0
M  V30 6388 C 600.565 -1.22506 -1.04312 0
M  V30 6389 O 601.757 -1.47923 -0.972005 0
M  V30 6390 C 598.886 -3.02524 -1.62278 0
M  V30 6391 C 597.972 -4.10133 -1.07943 0
M  V30 6392 N 598.363 -5.05133 -0.259629 0
M  V30 6393 C 596.661 -4.24964 -1.35356 0
M  V30 6394 C 597.362 -5.81687 0.0386656 0
M  V30 6395 N 596.338 -5.40699 -0.560827 0
M  V30 6396 H 600.14 -2.93538 0.145853 0
M  V30 6397 H 597.654 -1.61389 0.180938 0
M  V30 6398 H 599.651 -3.50909 -2.25096 0
M  V30 6399 H 598.311 -2.33252 -2.25884 0
M  V30 6400 H 599.322 -5.178 0.101746 0
M  V30 6401 H 595.999 -3.66919 -1.9919 0
M  V30 6402 H 597.389 -6.68224 0.701841 0
M  V30 6403 N 600.109 -0.101901 -1.5727 0
M  V30 6404 C 601.355 0.554864 -1.95686 0
M  V30 6405 C 601.71 1.65368 -0.983415 0
M  V30 6406 O 601.003 1.91597 -0.0105374 0
M  V30 6407 C 601.197 1.14898 -3.38427 0
M  V30 6408 C 601.026 0.109251 -4.49567 0
M  V30 6409 C 599.796 -0.316633 -5.04307 0
M  V30 6410 C 601.994 -0.665196 -5.0998 0
M  V30 6411 N 599.976 -1.34393 -5.99009 0
M  V30 6412 C 601.347 -1.54413 -6.00464 0
M  V30 6413 C 603.402 -0.717966 -4.92696 0
M  V30 6414 C 602.105 -2.47122 -6.75517 0
M  V30 6415 C 604.131 -1.63268 -5.68417 0
M  V30 6416 C 603.493 -2.49923 -6.58572 0
M  V30 6417 H 599.592 0.17317 -0.762585 0
M  V30 6418 H 602.176 -0.18605 -1.93809 0
M  V30 6419 H 600.347 1.85969 -3.40984 0
M  V30 6420 H 602.079 1.76867 -3.64006 0
M  V30 6421 H 598.834 0.0724419 -4.73545 0
M  V30 6422 H 599.258 -1.85598 -6.51062 0
M  V30 6423 H 603.9 -0.0621637 -4.22754 0
M  V30 6424 H 601.618 -3.13724 -7.44717 0
M  V30 6425 H 605.204 -1.67874 -5.57054 0
M  V30 6426 H 604.084 -3.19553 -7.16139 0
M  V30 6427 N 601.587 1.56661 0.17182 0
M  V30 6428 C 602.519 1.92934 1.2373 0
M  V30 6429 C 603.532 0.822385 1.40502 0
M  V30 6430 O 604.721 1.10083 1.40514 0
M  V30 6431 C 601.821 2.16651 2.60607 0
M  V30 6432 C 600.994 3.47878 2.6514 0
M  V30 6433 C 600.053 3.60429 3.83377 0
M  V30 6434 O 599.079 4.33051 3.69398 0
M  V30 6435 N 600.281 2.95241 4.99813 0
M  V30 6436 H 603.046 2.84931 0.929205 0
M  V30 6437 H 600.607 1.5781 0.361588 0
M  V30 6438 H 602.599 2.22312 3.38171 0
M  V30 6439 H 601.169 1.3104 2.83809 0
M  V30 6440 H 600.389 3.53879 1.73675 0
M  V30 6441 H 601.677 4.34232 2.6518 0
M  V30 6442 H 601.075 2.3611 5.14071 0
M  V30 6443 H 599.632 3.06499 5.75241 0
M  V30 6444 N 603.065 -0.440357 1.51323 0
M  V30 6445 C 604.314 -1.18697 1.63076 0
M  V30 6446 C 604.627 -1.92418 0.35136 0
M  V30 6447 O 605.833 -2.69258 0.348221 0
M  V30 6448 C 604.289 -2.15849 2.87988 0
M  V30 6449 C 603.897 -1.47789 4.22921 0
M  V30 6450 C 605.641 -2.90962 3.09098 0
M  V30 6451 C 603.548 -2.43407 5.38987 0
M  V30 6452 H 602.478 -0.44676 0.607389 0
M  V30 6453 H 605.129 -0.454313 1.77787 0
M  V30 6454 H 603.511 -2.92537 2.66905 0
M  V30 6455 H 604.685 -0.7668 4.54375 0
M  V30 6456 H 603 -0.848404 4.07665 0
M  V30 6457 H 605.597 -3.62584 3.92985 0
M  V30 6458 H 605.94 -3.52133 2.22053 0
M  V30 6459 H 606.473 -2.21381 3.30507 0
M  V30 6460 H 603.212 -1.86929 6.28282 0
M  V30 6461 H 602.732 -3.12579 5.11913 0
M  V30 6462 H 604.411 -3.046 5.70813 0
M  V30 6463 N 604.543 -1.41418 -0.695603 0
M  V30 6464 C 605.954 -1.36335 -1.27552 0
M  V30 6465 C 606.305 -0.0464336 -1.96145 0
M  V30 6466 O 605.43 0.855304 -1.9878 0
M  V30 6467 C 606.025 -2.46941 -2.3196 0
M  V30 6468 C 604.584 -2.45256 -2.85529 0
M  V30 6469 C 603.731 -2.2679 -1.59566 0
M  V30 6470 H 606.682 -1.50934 -0.490362 0
M  V30 6471 H 606.703 -2.15997 -3.1325 0
M  V30 6472 H 606.215 -3.42775 -1.82008 0
M  V30 6473 H 604.316 -1.53179 -3.39657 0
M  V30 6474 H 604.429 -3.41565 -3.35961 0
M  V30 6475 H 602.793 -1.74667 -1.85374 0
M  V30 6476 H 603.576 -3.24651 -1.1161 0
M  V30 6477 N 606.021 0.929856 -1.27246 0
M  V30 6478 C 606.931 2.0636 -1.11592 0
M  V30 6479 C 607.947 1.73938 -0.046496 0
M  V30 6480 O 609.123 1.9981 -0.252544 0
M  V30 6481 C 606.188 3.38213 -0.762437 0
M  V30 6482 C 605.249 3.84346 -1.9125 0
M  V30 6483 C 604.482 5.09906 -1.57579 0
M  V30 6484 O 604.705 5.68354 -0.482694 0
M  V30 6485 O 603.639 5.51359 -2.41426 0
M  V30 6486 H 607.465 2.22478 -2.0673 0
M  V30 6487 H 605.05 1.04865 -1.06413 0
M  V30 6488 H 606.932 4.1741 -0.57854 0
M  V30 6489 H 605.607 3.23307 0.159439 0
M  V30 6490 H 604.514 3.06045 -2.15144 0
M  V30 6491 H 605.847 4.0379 -2.81451 0
M  V30 6492 N 607.499 1.09233 1.13605 0
M  V30 6493 C 608.429 0.751738 2.21068 0
M  V30 6494 C 609.41 -0.269688 1.67948 0
M  V30 6495 O 610.595 -0.13819 1.93708 0
M  V30 6496 C 607.725 0.16935 3.46887 0
M  V30 6497 C 606.679 1.12007 4.13084 0
M  V30 6498 C 606.005 0.399483 5.33206 0
M  V30 6499 C 607.305 2.46168 4.6065 0
M  V30 6500 H 608.999 1.65024 2.49815 0
M  V30 6501 H 606.545 0.794905 1.20072 0
M  V30 6502 H 608.498 -0.0809824 4.21322 0
M  V30 6503 H 607.222 -0.764335 3.1753 0
M  V30 6504 H 605.881 1.35564 3.40614 0
M  V30 6505 H 605.529 -0.538277 5.00112 0
M  V30 6506 H 605.229 1.03337 5.78442 0
M  V30 6507 H 606.753 0.157403 6.10397 0
M  V30 6508 H 608.167 2.26829 5.26518 0
M  V30 6509 H 606.564 3.05326 5.1662 0
M  V30 6510 H 607.634 3.07076 3.75276 0
M  V30 6511 N 608.977 -1.30795 0.87923 0
M  V30 6512 C 609.94 -2.26563 0.346676 0
M  V30 6513 C 610.94 -1.52578 -0.507597 0
M  V30 6514 O 612.13 -1.71318 -0.315575 0
M  V30 6515 C 609.262 -3.37115 -0.506611 0
M  V30 6516 H 610.455 -2.75183 1.19223 0
M  V30 6517 H 608.008 -1.41886 0.655598 0
M  V30 6518 H 608.743 -2.93802 -1.37299 0
M  V30 6519 H 608.528 -3.91959 0.105218 0
M  V30 6520 H 610.018 -4.08412 -0.871192 0
M  V30 6521 N 610.455 -0.639598 -1.44038 0
M  V30 6522 C 611.871 -0.305953 -1.5664 0
M  V30 6523 C 612.071 1.19055 -1.62567 0
M  V30 6524 O 611.127 1.97492 -1.57331 0
M  V30 6525 C 612.44 -1.00533 -2.83397 0
M  V30 6526 C 613.988 -0.984278 -2.97121 0
M  V30 6527 C 614.463 -1.66428 -4.26691 0
M  V30 6528 N 615.954 -1.63127 -4.33525 0
M  V30 6529 C 616.689 -2.12629 -5.32519 0
M  V30 6530 N 616.185 -2.70359 -6.3787 0
M  V30 6531 N 617.978 -2.03208 -5.24083 0
M  V30 6532 H 610.129 -1.6109 -1.38434 0
M  V30 6533 H 612.392 -0.676672 -0.663942 0
M  V30 6534 H 612.098 -2.06034 -2.85032 0
M  V30 6535 H 611.972 -0.548362 -3.73193 0
M  V30 6536 H 614.359 0.0622792 -2.95034 0
M  V30 6537 H 614.44 -1.47981 -2.08651 0
M  V30 6538 H 614.084 -2.71034 -4.29538 0
M  V30 6539 H 614.014 -1.14351 -5.14034 0
M  V30 6540 H 616.505 -1.20987 -3.58009 0
M  V30 6541 H 616.818 -3.05842 -7.09704 0
M  V30 6542 H 615.163 -2.74414 -6.38531 0
M  V30 6543 H 618.354 -1.57823 -4.40692 0
M  V30 6544 H 618.527 -2.42097 -6.01077 0
M  V30 6545 N 611.933 1.52934 -0.380664 0
M  V30 6546 C 612.88 2.26197 0.458641 0
M  V30 6547 C 613.85 1.27462 1.06502 0
M  V30 6548 O 615.035 1.56274 1.09467 0
M  V30 6549 C 612.175 3.06571 1.58456 0
M  V30 6550 C 611.288 4.20222 1.00189 0
M  V30 6551 C 610.423 4.88007 2.09815 0
M  V30 6552 C 609.462 5.93665 1.49092 0
M  V30 6553 N 608.599 6.55081 2.52613 0
M  V30 6554 H 613.439 2.975 -0.172595 0
M  V30 6555 H 610.976 1.4678 -0.0969426 0
M  V30 6556 H 612.934 3.51455 2.24801 0
M  V30 6557 H 611.564 2.37494 2.18624 0
M  V30 6558 H 610.616 3.79714 0.228292 0
M  V30 6559 H 611.928 4.96102 0.518064 0
M  V30 6560 H 611.082 5.36151 2.83948 0
M  V30 6561 H 609.821 4.11632 2.61555 0
M  V30 6562 H 608.826 5.44868 0.7348 0
M  V30 6563 H 610.051 6.71969 0.981582 0
M  V30 6564 H 607.997 5.8155 3.03538 0
M  V30 6565 H 607.914 7.26548 2.08961 0
M  V30 6566 H 609.182 7.07871 3.26402 0
M  V30 6567 N 613.412 0.11024 1.57214 0
M  V30 6568 C 614.658 -0.550684 1.9518 0
M  V30 6569 C 614.991 -1.66885 0.993122 0
M  V30 6570 O 614.266 -1.94479 0.0287907 0
M  V30 6571 C 614.549 -1.09163 3.43155 0
M  V30 6572 C 614.402 0.0225198 4.49794 0
M  V30 6573 C 615.721 -1.98527 3.92778 0
M  V30 6574 H 612.84 -0.198706 0.709708 0
M  V30 6575 H 615.482 0.184024 1.89107 0
M  V30 6576 H 613.632 -1.71775 3.48462 0
M  V30 6577 H 615.304 0.657443 4.56591 0
M  V30 6578 H 613.547 0.686868 4.28328 0
M  V30 6579 H 614.218 -0.39706 5.5057 0
M  V30 6580 H 616.694 -1.458 3.8972 0
M  V30 6581 H 615.57 -2.33298 4.96853 0
M  V30 6582 H 615.831 -2.90846 3.32958 0
M  V30 6583 N 614.89 -1.56749 -0.16351 0
M  V30 6584 C 615.838 -1.97939 -1.22159 0
M  V30 6585 C 616.832 -0.869288 -1.45395 0
M  V30 6586 O 618.038 -1.05443 -1.45883 0
M  V30 6587 H 614.413 -0.629869 -0.410815 0
M  V30 6588 H 616.384 -2.86115 -0.847381 0
M  V30 6589 C 615.133 -2.36206 -2.55151 0
M  V30 6590 H 614.456 -3.2117 -2.38097 0
M  V30 6591 H 615.896 -2.68863 -3.27854 0
M  V30 6592 C 614.355 -1.20841 -3.14482 0
M  V30 6593 O 614.885 -0.500258 -3.98573 0
M  V30 6594 N 613.091 -0.976943 -2.73686 0
M  V30 6595 H 612.638 -1.55457 -2.05404 0
M  V30 6596 H 612.596 -0.206912 -3.13718 0
M  V30 6597 N 616.368 0.432326 -1.51554 0
M  V30 6598 C 617.596 1.20364 -1.68286 0
M  V30 6599 C 618.011 1.84888 -0.38233 0
M  V30 6600 O 617.368 1.70924 0.639627 0
M  V30 6601 C 617.419 2.28398 -2.80208 0
M  V30 6602 O 617.14 1.66512 -4.05223 0
M  V30 6603 C 618.641 3.18584 -3.08251 0
M  V30 6604 H 615.861 0.36259 -0.564596 0
M  V30 6605 H 618.405 0.511647 -1.97996 0
M  V30 6606 H 616.56 2.93305 -2.53083 0
M  V30 6607 H 616.974 2.37951 -4.67418 0
M  V30 6608 H 618.448 3.90511 -3.90135 0
M  V30 6609 H 618.925 3.79628 -2.2086 0
M  V30 6610 H 619.531 2.59372 -3.37055 0
M  V30 6611 N 617.846 1.41785 0.688094 0
M  V30 6612 C 618.756 1.46596 1.83158 0
M  V30 6613 C 619.772 0.355862 1.70322 0
M  V30 6614 O 620.948 0.604737 1.92106 0
M  V30 6615 C 618.013 1.35322 3.192 0
M  V30 6616 C 617.074 2.56711 3.4409 0
M  V30 6617 C 616.307 2.45965 4.73642 0
M  V30 6618 O 616.53 1.48827 5.50642 0
M  V30 6619 O 615.464 3.35859 4.99482 0
M  V30 6620 H 619.29 2.43083 1.82056 0
M  V30 6621 H 616.875 1.23404 0.842126 0
M  V30 6622 H 618.757 1.31347 4.00407 0
M  V30 6623 H 617.432 0.419536 3.2097 0
M  V30 6624 H 616.339 2.66262 2.62784 0
M  V30 6625 H 617.672 3.48933 3.47141 0
M  V30 6626 N 619.324 -0.923095 1.27737 0
M  V30 6627 C 620.256 -2.02871 1.06658 0
M  V30 6628 C 621.269 -1.62786 0.0212095 0
M  V30 6629 O 622.458 -1.76548 0.263267 0
M  V30 6630 C 619.558 -3.33603 0.59682 0
M  V30 6631 C 618.731 -4.02354 1.71551 0
M  V30 6632 C 617.79 -5.11364 1.24071 0
M  V30 6633 O 616.816 -5.35075 1.94123 0
M  V30 6634 N 618.018 -5.80416 0.0988444 0
M  V30 6635 H 620.783 -2.21515 2.01869 0
M  V30 6636 H 618.344 -1.09378 1.19365 0
M  V30 6637 H 620.336 -4.03845 0.262984 0
M  V30 6638 H 618.906 -3.11499 -0.262187 0
M  V30 6639 H 618.126 -3.25786 2.2194 0
M  V30 6640 H 619.414 -4.45035 2.46619 0
M  V30 6641 H 618.812 -5.63611 -0.485743 0
M  V30 6642 H 617.369 -6.51563 -0.17578 0
M  V30 6643 N 620.802 -1.09834 -1.13024 0
M  V30 6644 C 621.749 -0.741522 -2.18564 0
M  V30 6645 C 622.719 0.279236 -1.63736 0
M  V30 6646 O 623.904 0.159923 -1.90129 0
M  V30 6647 C 621.044 -0.17277 -3.44667 0
M  V30 6648 C 620.157 -1.24808 -4.13578 0
M  V30 6649 C 619.292 -0.641631 -5.27311 0
M  V30 6650 C 618.331 -1.69795 -5.88078 0
M  V30 6651 N 617.468 -1.11223 -6.93234 0
M  V30 6652 H 622.308 -1.64576 -2.48432 0
M  V30 6653 H 619.845 -0.822174 -1.21978 0
M  V30 6654 H 621.803 0.17482 -4.16834 0
M  V30 6655 H 620.433 0.694725 -3.15235 0
M  V30 6656 H 619.485 -1.71288 -3.39653 0
M  V30 6657 H 620.797 -2.04795 -4.54819 0
M  V30 6658 H 619.951 -0.243128 -6.06213 0
M  V30 6659 H 618.69 0.189742 -4.87331 0
M  V30 6660 H 617.695 -2.10595 -5.07868 0
M  V30 6661 H 618.92 -2.53206 -6.3013 0
M  V30 6662 H 616.866 -0.302208 -6.55304 0
M  V30 6663 H 616.783 -1.84901 -7.3304 0
M  V30 6664 H 618.051 -0.740068 -7.75979 0
M  V30 6665 N 622.28 1.30327 -0.886154 0
M  V30 6666 C 623.23 2.25668 -0.325248 0
M  V30 6667 C 624.214 1.51318 0.546972 0
M  V30 6668 O 625.406 1.72623 0.391203 0
M  V30 6669 C 622.535 3.40229 0.458167 0
M  V30 6670 C 621.621 4.21933 -0.428208 0
M  V30 6671 N 622.012 4.82129 -1.52921 0
M  V30 6672 C 620.31 4.45439 -0.223535 0
M  V30 6673 C 621.011 5.43351 -2.07714 0
M  V30 6674 N 619.987 5.26002 -1.37195 0
M  V30 6675 H 623.789 2.69759 -1.1665 0
M  V30 6676 H 621.303 1.4478 -0.735691 0
M  V30 6677 H 623.3 4.07579 0.876648 0
M  V30 6678 H 621.96 2.97678 1.29684 0
M  V30 6679 H 622.971 4.81312 -1.91205 0
M  V30 6680 H 619.648 4.13481 0.577875 0
M  V30 6681 H 621.038 6.01118 -3.00178 0
M  V30 6682 N 623.758 0.647228 1.43697 0
M  V30 6683 C 624.986 0.16575 2.06235 0
M  V30 6684 C 625.401 -1.1662 1.48476 0
M  V30 6685 O 624.758 -1.7187 0.613762 0
M  V30 6686 C 624.809 0.0621651 3.61447 0
M  V30 6687 O 624.53 1.34146 4.17057 0
M  V30 6688 C 626.031 -0.446102 4.4105 0
M  V30 6689 H 623.251 0.0871158 0.665321 0
M  V30 6690 H 625.795 0.886183 1.84301 0
M  V30 6691 H 623.95 -0.608794 3.82587 0
M  V30 6692 H 624.364 1.19675 5.10664 0
M  V30 6693 H 625.838 -0.46755 5.50016 0
M  V30 6694 H 626.315 -1.47627 4.13646 0
M  V30 6695 H 626.921 0.192159 4.24866 0
M  V30 6696 N 625.236 -1.5273 0.388769 0
M  V30 6697 C 626.464 -2.05992 -0.193677 0
M  V30 6698 C 626.879 -1.26053 -1.40557 0
M  V30 6699 O 626.236 -0.307049 -1.79898 0
M  V30 6700 C 626.287 -3.57068 -0.564321 0
M  V30 6701 O 626.008 -4.3398 0.599422 0
M  V30 6702 C 627.509 -4.26674 -1.20269 0
M  V30 6703 H 624.729 -0.670358 -0.0293445 0
M  V30 6704 H 627.273 -1.96857 0.553844 0
M  V30 6705 H 625.428 -3.66277 -1.26174 0
M  V30 6706 H 625.842 -5.2367 0.294895 0
M  V30 6707 H 627.316 -5.33625 -1.4124 0
M  V30 6708 H 627.793 -3.81854 -2.16989 0
M  V30 6709 H 628.399 -4.2178 -0.546047 0
M  V30 6710 N 626.714 -0.118576 -1.57153 0
M  V30 6711 C 627.961 0.539526 -1.9518 0
M  V30 6712 C 628.289 1.66714 -1.00184 0
M  V30 6713 O 627.544 1.95683 -0.0256482 0
M  V30 6714 C 627.843 1.11303 -3.39627 0
M  V30 6715 C 627.509 0.106809 -4.50773 0
M  V30 6716 C 626.171 -0.169876 -4.809 0
M  V30 6717 C 628.523 -0.57895 -5.17975 0
M  V30 6718 C 625.851 -1.13861 -5.75545 0
M  V30 6719 C 628.203 -1.53631 -6.13661 0
M  V30 6720 C 626.867 -1.82099 -6.42181 0
M  V30 6721 H 626.137 0.197427 -0.714215 0
M  V30 6722 H 628.784 -0.199391 -1.90459 0
M  V30 6723 H 627.089 1.92869 -3.4104 0
M  V30 6724 H 628.786 1.63032 -3.66363 0
M  V30 6725 H 625.376 0.332645 -4.27307 0
M  V30 6726 H 629.56 -0.378359 -4.94856 0
M  V30 6727 H 624.816 -1.36592 -5.95947 0
M  V30 6728 H 628.99 -2.07337 -6.64819 0
M  V30 6729 H 626.617 -2.57319 -7.15326 0
M  V30 6730 N 628.193 1.56834 0.155195 0
M  V30 6731 C 629.103 2.009 1.21146 0
M  V30 6732 C 630.119 0.923029 1.475 0
M  V30 6733 O 631.295 1.23189 1.59331 0
M  V30 6734 C 628.36 2.37378 2.52691 0
M  V30 6735 C 627.421 3.59883 2.34057 0
M  V30 6736 C 626.654 3.94612 3.59329 0
M  V30 6737 O 626.877 3.30104 4.65175 0
M  V30 6738 O 625.811 4.87895 3.52479 0
M  V30 6739 H 629.637 2.9105 0.867371 0
M  V30 6740 H 627.222 1.44916 0.363298 0
M  V30 6741 H 629.104 2.61737 3.3026 0
M  V30 6742 H 627.779 1.50385 2.86646 0
M  V30 6743 H 626.686 3.40722 1.54465 0
M  V30 6744 H 628.019 4.47468 2.0502 0
M  V30 6745 N 629.671 -0.424282 1.51781 0
M  V30 6746 C 630.603 -1.53457 1.70246 0
M  V30 6747 C 631.616 -1.52004 0.582967 0
M  V30 6748 O 632.805 -1.56544 0.857683 0
M  V30 6749 C 629.905 -2.92368 1.71389 0
M  V30 6750 C 629.078 -3.1818 3.00133 0
M  V30 6751 C 628.137 -4.36884 2.9329 0
M  V30 6752 O 627.163 -4.34901 3.67219 0
M  V30 6753 N 628.365 -5.4117 2.10036 0
M  V30 6754 H 631.13 -1.38017 2.66029 0
M  V30 6755 H 628.691 -0.613394 1.4983 0
M  V30 6756 H 630.683 -3.6982 1.64362 0
M  V30 6757 H 629.253 -3.0134 0.831449 0
M  V30 6758 H 628.473 -2.28908 3.20928 0
M  V30 6759 H 629.761 -3.32261 3.85331 0
M  V30 6760 H 629.159 -5.45623 1.49373 0
M  V30 6761 H 627.716 -6.17425 2.08878 0
M  V30 6762 N 631.149 -1.42148 -0.680565 0
M  V30 6763 C 632.56 -1.3768 -1.26099 0
M  V30 6764 C 632.911 -0.0672348 -1.96085 0
M  V30 6765 O 632.036 0.834172 -1.99676 0
M  V30 6766 C 632.631 -2.49387 -2.29328 0
M  V30 6767 C 631.19 -2.4827 -2.82911 0
M  V30 6768 C 630.337 -2.2847 -1.57152 0
M  V30 6769 H 633.288 -1.51446 -0.474326 0
M  V30 6770 H 633.309 -2.19307 -3.10941 0
M  V30 6771 H 632.821 -3.44686 -1.78363 0
M  V30 6772 H 630.922 -1.56773 -3.38013 0
M  V30 6773 H 631.035 -3.45109 -3.3232 0
M  V30 6774 H 629.399 -1.76623 -1.83511 0
M  V30 6775 H 630.182 -3.25816 -1.0816 0
M  V30 6776 N 632.627 0.916307 -1.28225 0
M  V30 6777 C 633.873 1.66765 -1.154 0
M  V30 6778 C 634.206 1.91912 0.297251 0
M  V30 6779 O 633.481 1.51766 1.21644 0
M  V30 6780 C 633.764 3.02715 -1.95028 0
M  V30 6781 C 633.617 2.84738 -3.48201 0
M  V30 6782 C 634.936 4.03215 -1.76369 0
M  V30 6783 H 632.055 0.605205 -0.42059 0
M  V30 6784 H 634.697 1.06255 -1.57512 0
M  V30 6785 H 632.847 3.54365 -1.59242 0
M  V30 6786 H 634.519 2.40118 -3.9388 0
M  V30 6787 H 632.762 2.19848 -3.73964 0
M  V30 6788 H 633.433 3.8127 -3.99171 0
M  V30 6789 H 635.909 3.60617 -2.07593 0
M  V30 6790 H 634.785 4.96306 -2.34459 0
M  V30 6791 H 635.046 4.36288 -0.71452 0
M  V30 6792 N 634.105 1.10431 1.1244 0
M  V30 6793 C 635.352 0.846717 1.83948 0
M  V30 6794 C 635.68 -0.627709 1.84093 0
M  V30 6795 O 634.935 -1.47876 1.28184 0
M  V30 6796 C 635.234 1.34022 3.3132 0
M  V30 6797 C 634.9 2.82606 3.51347 0
M  V30 6798 C 633.562 3.23182 3.56521 0
M  V30 6799 C 635.914 3.78356 3.58464 0
M  V30 6800 C 633.242 4.58258 3.66356 0
M  V30 6801 C 635.594 5.13234 3.69829 0
M  V30 6802 C 634.258 5.53384 3.73259 0
M  V30 6803 H 633.528 0.309836 0.673114 0
M  V30 6804 H 636.175 1.38091 1.32677 0
M  V30 6805 H 634.48 0.726047 3.85014 0
M  V30 6806 H 636.177 1.11739 3.85118 0
M  V30 6807 H 632.767 2.50212 3.47983 0
M  V30 6808 H 636.951 3.48115 3.53737 0
M  V30 6809 H 632.207 4.88787 3.67284 0
M  V30 6810 H 636.381 5.87272 3.74279 0
M  V30 6811 H 634.008 6.58045 3.80633 0
M  V30 6812 N 635.583 -1.29855 0.893053 0
M  V30 6813 C 636.808 -2.00512 0.530066 0
M  V30 6814 C 637.233 -1.66446 -0.876199 0
M  V30 6815 O 636.591 -0.885446 -1.58207 0
M  V30 6816 C 636.639 -3.53308 0.721505 0
M  V30 6817 O 635.743 -4.11764 -0.228994 0
M  V30 6818 H 635.084 -0.630617 0.207891 0
M  V30 6819 H 637.614 -1.6551 1.20282 0
M  V30 6820 H 637.624 -4.03206 0.623599 0
M  V30 6821 H 636.299 -3.77439 1.74678 0
M  V30 6822 H 634.876 -3.72805 -0.0841034 0
M  V30 6823 N 637.061 -0.65484 -1.43351 0
M  V30 6824 C 638.307 -0.169142 -2.02093 0
M  V30 6825 C 638.64 1.21431 -1.51553 0
M  V30 6826 O 637.915 1.81105 -0.709317 0
M  V30 6827 C 638.198 -0.181775 -3.59641 0
M  V30 6828 C 638.051 -1.59926 -4.20409 0
M  V30 6829 C 639.37 0.480945 -4.37464 0
M  V30 6830 H 636.489 -0.0629371 -0.734308 0
M  V30 6831 H 639.131 -0.835833 -1.70628 0
M  V30 6832 H 637.281 0.385918 -3.86578 0
M  V30 6833 H 638.953 -2.21766 -4.04497 0
M  V30 6834 H 637.196 -2.14605 -3.76998 0
M  V30 6835 H 637.867 -1.55994 -5.295 0
M  V30 6836 H 640.343 -0.00208273 -4.161 0
M  V30 6837 H 639.219 0.441384 -5.47122 0
M  V30 6838 H 639.48 1.55533 -4.13838 0
M  V30 6839 N 638.539 1.52521 -0.396863 0
M  V30 6840 C 639.764 2.06571 0.185258 0
M  V30 6841 C 640.189 1.26605 1.39115 0
M  V30 6842 O 639.547 0.293055 1.78916 0
M  V30 6843 C 639.595 3.5674 0.526189 0
M  V30 6844 O 638.699 3.7929 1.61903 0
M  V30 6845 H 638.04 0.663712 0.0195474 0
M  V30 6846 H 640.57 1.966 -0.566519 0
M  V30 6847 H 640.58 4.00311 0.788338 0
M  V30 6848 H 639.255 4.14379 -0.355397 0
M  V30 6849 H 637.832 3.47605 1.35 0
M  V30 6850 N 640.017 0.126909 1.57088 0
M  V30 6851 C 640.964 -0.82036 2.15728 0
M  V30 6852 C 641.934 -1.25811 1.08447 0
M  V30 6853 O 643.119 -1.33422 1.36393 0
M  V30 6854 C 640.259 -2.06199 2.76724 0
M  V30 6855 C 639.372 -1.67188 3.98337 0
M  V30 6856 C 638.507 -2.86378 4.47393 0
M  V30 6857 C 637.546 -2.43644 5.61519 0
M  V30 6858 N 636.683 -3.55775 6.05284 0
M  V30 6859 H 641.523 -0.313472 2.96347 0
M  V30 6860 H 639.06 -0.14303 1.46403 0
M  V30 6861 H 641.018 -2.78959 3.10222 0
M  V30 6862 H 639.648 -2.54333 1.98782 0
M  V30 6863 H 638.7 -0.842714 3.70948 0
M  V30 6864 H 640.012 -1.31789 4.81075 0
M  V30 6865 H 639.166 -3.67353 4.82842 0
M  V30 6866 H 637.905 -3.25009 3.63621 0
M  V30 6867 H 636.91 -1.61104 5.25667 0
M  V30 6868 H 638.135 -2.06122 6.47063 0
M  V30 6869 H 636.081 -3.94065 5.24451 0
M  V30 6870 H 635.998 -3.24325 6.82898 0
M  V30 6871 H 637.266 -4.37166 6.45373 0
M  V30 6872 N 641.495 -1.56914 -0.146875 0
M  V30 6873 C 642.427 -1.94878 -1.20645 0
M  V30 6874 C 643.44 -0.844633 -1.39175 0
M  V30 6875 O 644.629 -1.12304 -1.38744 0
M  V30 6876 C 641.729 -2.20769 -2.57127 0
M  V30 6877 C 640.902 -3.52053 -2.59572 0
M  V30 6878 C 639.961 -3.66482 -3.77594 0
M  V30 6879 O 638.987 -4.38873 -3.62462 0
M  V30 6880 N 640.189 -3.03156 -4.95052 0
M  V30 6881 H 642.954 -2.86374 -0.883757 0
M  V30 6882 H 640.515 -1.58366 -0.336436 0
M  V30 6883 H 642.507 -2.27664 -3.34591 0
M  V30 6884 H 641.077 -1.35538 -2.81688 0
M  V30 6885 H 640.297 -3.56598 -1.68023 0
M  V30 6886 H 641.585 -4.38396 -2.58238 0
M  V30 6887 H 640.983 -2.44258 -5.10249 0
M  V30 6888 H 639.54 -3.15611 -5.70292 0
M  V30 6889 N 642.974 0.416227 -1.52004 0
M  V30 6890 C 644.199 1.19029 -1.69843 0
M  V30 6891 C 644.624 1.83708 -0.404103 0
M  V30 6892 O 643.982 1.69711 0.637787 0
M  V30 6893 C 644.03 2.23439 -2.83032 0
M  V30 6894 O 643.134 3.29419 -2.48106 0
M  V30 6895 H 642.475 0.347785 -0.565634 0
M  V30 6896 H 645.005 0.488871 -1.98674 0
M  V30 6897 H 645.015 2.67884 -3.07737 0
M  V30 6898 H 643.69 1.75745 -3.76944 0
M  V30 6899 H 642.267 2.90303 -2.34048 0
M  V30 6900 N 644.452 1.42507 0.673017 0
M  V30 6901 C 645.863 1.38347 1.25367 0
M  V30 6902 C 646.214 0.0776327 1.96046 0
M  V30 6903 O 645.339 -0.823571 2.00116 0
M  V30 6904 C 645.934 2.506 2.28002 0
M  V30 6905 C 644.493 2.49767 2.81591 0
M  V30 6906 C 643.64 2.293 1.55938 0
M  V30 6907 H 646.591 1.51695 0.466288 0
M  V30 6908 H 646.612 2.20953 3.09774 0
M  V30 6909 H 646.124 3.45627 1.76532 0
M  V30 6910 H 644.225 1.58563 3.37177 0
M  V30 6911 H 644.338 3.46867 3.30485 0
M  V30 6912 H 642.702 1.77594 1.82572 0
M  V30 6913 H 643.485 3.26385 1.06431 0
M  V30 6914 N 645.93 -0.909495 1.28709 0
M  V30 6915 C 647.341 -1.47419 1.14563 0
M  V30 6916 C 647.692 -1.94432 -0.262832 0
M  V30 6917 O 646.817 -1.82842 -1.15748 0
M  V30 6918 C 647.412 -2.67933 2.07358 0
M  V30 6919 C 645.971 -3.20568 1.97264 0
M  V30 6920 C 645.118 -1.93269 1.98852 0
M  V30 6921 H 648.069 -0.721787 1.41336 0
M  V30 6922 H 648.09 -3.43339 1.64007 0
M  V30 6923 H 647.602 -2.33685 3.09859 0
M  V30 6924 H 645.703 -3.59531 0.978157 0
M  V30 6925 H 645.816 -3.85529 2.84436 0
M  V30 6926 H 644.18 -2.10553 1.43317 0
M  V30 6927 H 644.963 -1.61312 3.0304 0
M  V30 6928 N 647.408 -1.11026 -1.11852 0
M  V30 6929 C 648.657 -0.851249 -1.82857 0
M  V30 6930 C 648.97 0.62514 -1.85341 0
M  V30 6931 O 650.176 1.00026 -2.52403 0
M  V30 6932 C 648.632 -1.47309 -3.28372 0
M  V30 6933 C 648.24 -2.9832 -3.34229 0
M  V30 6934 C 649.984 -1.29373 -4.04306 0
M  V30 6935 C 647.891 -3.53509 -4.74115 0
M  V30 6936 H 646.821 -0.314794 -0.685143 0
M  V30 6937 H 649.472 -1.33499 -1.25898 0
M  V30 6938 H 647.854 -0.917017 -3.85236 0
M  V30 6939 H 649.028 -3.60295 -2.87271 0
M  V30 6940 H 647.343 -3.15482 -2.71772 0
M  V30 6941 H 649.94 -1.68042 -5.07608 0
M  V30 6942 H 650.283 -0.235879 -4.15631 0
M  V30 6943 H 650.816 -1.8182 -3.53817 0
M  V30 6944 H 647.555 -4.58987 -4.67986 0
M  V30 6945 H 647.075 -2.96305 -5.21501 0
M  V30 6946 H 648.754 -3.51693 -5.43066 0
M  V30 6947 N 648.886 1.2938 -0.899927 0
M  V30 6948 C 650.111 2.00228 -0.540692 0
M  V30 6949 C 650.536 1.66909 0.867359 0
M  V30 6950 O 649.894 0.893824 1.57735 0
M  V30 6951 C 649.942 3.52921 -0.740232 0
M  V30 6952 O 649.046 4.11879 0.207154 0
M  V30 6953 H 648.387 0.629505 -0.211233 0
M  V30 6954 H 650.917 1.6487 -1.21158 0
M  V30 6955 H 650.927 4.0287 -0.644973 0
M  V30 6956 H 649.602 3.76508 -1.76677 0
M  V30 6957 H 648.179 3.72845 0.0643315 0
M  V30 6958 N 650.364 0.662433 1.43002 0
M  V30 6959 C 651.592 0.187615 2.06048 0
M  V30 6960 C 652.007 -1.15039 1.49705 0
M  V30 6961 O 651.364 -1.71209 0.631956 0
M  V30 6962 C 651.415 0.100498 3.6136 0
M  V30 6963 O 651.136 1.38562 4.15611 0
M  V30 6964 C 652.637 -0.399298 4.41498 0
M  V30 6965 H 649.857 0.0941675 0.664359 0
M  V30 6966 H 652.401 0.905681 1.83351 0
M  V30 6967 H 650.556 -0.568181 3.83211 0
M  V30 6968 H 650.97 1.25084 5.09366 0
M  V30 6969 H 652.444 -0.409187 5.50481 0
M  V30 6970 H 652.921 -1.43232 4.15188 0
M  V30 6971 H 653.527 0.23721 4.24638 0
M  V30 6972 N 651.842 -1.52309 0.404946 0
M  V30 6973 C 653.067 -2.06666 -0.1743 0
M  V30 6974 C 653.492 -1.27341 -1.38441 0
M  V30 6975 O 652.85 -0.302539 -1.78758 0
M  V30 6976 C 652.898 -3.57014 -0.507262 0
M  V30 6977 O 652.002 -3.80144 -1.59889 0
M  V30 6978 H 651.343 -0.663807 -0.0160273 0
M  V30 6979 H 653.873 -1.96297 0.576937 0
M  V30 6980 H 653.883 -4.00724 -0.767098 0
M  V30 6981 H 652.558 -4.14184 0.377368 0
M  V30 6982 H 651.135 -3.48316 -1.33155 0
M  V30 6983 N 653.32 -0.135238 -1.57019 0
M  V30 6984 C 654.267 0.808908 -2.1616 0
M  V30 6985 C 655.237 1.25234 -1.09113 0
M  V30 6986 O 656.422 1.32697 -1.37099 0
M  V30 6987 C 653.562 2.04729 -2.77813 0
M  V30 6988 C 652.675 1.65074 -3.99218 0
M  V30 6989 C 651.81 2.84002 -4.48906 0
M  V30 6990 C 650.849 2.40663 -5.62803 0
M  V30 6991 N 649.986 3.5256 -6.07162 0
M  V30 6992 H 654.826 0.297751 -2.96509 0
M  V30 6993 H 652.363 0.135264 -1.46477 0
M  V30 6994 H 654.321 2.7731 -3.11697 0
M  V30 6995 H 652.951 2.53275 -2.00128 0
M  V30 6996 H 652.003 0.823029 -3.7139 0
M  V30 6997 H 653.315 1.29236 -4.81767 0
M  V30 6998 H 652.469 3.64788 -4.84783 0
M  V30 6999 H 651.208 3.23076 -3.65339 0
M  V30 7000 H 650.213 1.58314 -5.26514 0
M  V30 7001 H 651.438 2.02687 -6.48147 0
M  V30 7002 H 649.384 3.91278 -5.26534 0
M  V30 7003 H 649.301 3.20699 -6.84608 0
M  V30 7004 H 650.569 4.33738 -6.47682 0
M  V30 7005 N 654.798 1.5699 0.138552 0
M  V30 7006 C 656.044 1.84966 0.846116 0
M  V30 7007 C 656.399 0.72038 1.78405 0
M  V30 7008 O 655.692 -0.281076 1.89527 0
M  V30 7009 C 655.886 3.17007 1.65049 0
M  V30 7010 C 655.715 4.42672 0.79194 0
M  V30 7011 C 654.485 5.03254 0.454293 0
M  V30 7012 C 656.683 5.14164 0.118419 0
M  V30 7013 N 654.665 6.12482 -0.416964 0
M  V30 7014 C 656.036 6.16966 -0.61263 0
M  V30 7015 C 658.091 4.97884 0.0399671 0
M  V30 7016 C 656.794 7.0525 -1.41473 0
M  V30 7017 C 658.82 5.86639 -0.748901 0
M  V30 7018 C 658.182 6.88929 -1.4682 0
M  V30 7019 H 654.281 0.727362 0.287172 0
M  V30 7020 H 656.865 1.94383 0.110972 0
M  V30 7021 H 655.036 3.08722 2.35681 0
M  V30 7022 H 656.768 3.3286 2.30187 0
M  V30 7023 H 653.523 4.6693 0.792038 0
M  V30 7024 H 653.947 6.7172 -0.843865 0
M  V30 7025 H 658.589 4.18779 0.581728 0
M  V30 7026 H 656.307 7.83777 -1.96772 0
M  V30 7027 H 659.893 5.7611 -0.811705 0
M  V30 7028 H 658.773 7.56419 -2.06882 0
M  V30 7029 N 656.276 -0.40816 1.52223 0
M  V30 7030 C 657.523 -1.15502 1.66329 0
M  V30 7031 C 657.851 -1.90474 0.393701 0
M  V30 7032 O 657.106 -1.85507 -0.623356 0
M  V30 7033 C 657.405 -2.17422 2.83659 0
M  V30 7034 C 657.071 -1.5925 4.21841 0
M  V30 7035 C 655.733 -1.4311 4.59427 0
M  V30 7036 C 658.085 -1.16776 5.0795 0
M  V30 7037 C 655.413 -0.830148 5.80797 0
M  V30 7038 C 657.765 -0.580988 6.29926 0
M  V30 7039 C 656.429 -0.406729 6.6626 0
M  V30 7040 H 655.699 -0.422653 0.608642 0
M  V30 7041 H 658.346 -0.442114 1.86327 0
M  V30 7042 H 656.651 -2.94861 2.58001 0
M  V30 7043 H 658.348 -2.75084 2.9177 0
M  V30 7044 H 654.938 -1.72796 3.92224 0
M  V30 7045 H 659.122 -1.28055 4.79495 0
M  V30 7046 H 654.378 -0.68316 6.07571 0
M  V30 7047 H 658.552 -0.243488 6.95974 0
M  V30 7048 H 656.179 0.0610366 7.60175 0
M  V30 7049 N 657.755 -1.42862 -0.66545 0
M  V30 7050 C 659.032 -1.3431 -1.42197 0
M  V30 7051 C 659.412 0.0150265 -2.11095 0
M  V30 7052 O 658.76 1.03101 -2.03918 0
M  V30 7053 C 658.97 -2.51783 -2.41674 0
M  V30 7054 C 660.318 -2.94321 -3.0604 0
M  V30 7055 O 661.342 -2.51741 -2.52001 0
M  V30 7056 O 660.201 -3.68047 -4.03985 0
M  V30 7057 H 657.295 -0.530159 -0.634713 0
M  V30 7058 H 659.841 -1.54888 -0.693386 0
M  V30 7059 H 658.613 -3.42282 -1.89627 0
M  V30 7060 H 658.236 -2.33241 -3.22001 0
M  V30 7061 N 659.233 0.902656 -1.29189 0
M  V30 7062 C 660.644 1.46809 -1.15343 0
M  V30 7063 C 660.995 1.94568 0.252517 0
M  V30 7064 O 660.12 1.83454 1.14777 0
M  V30 7065 C 660.715 2.66829 -2.08776 0
M  V30 7066 C 659.274 3.19518 -1.98961 0
M  V30 7067 C 658.421 1.92212 -1.99874 0
M  V30 7068 H 661.372 0.714282 -1.41717 0
M  V30 7069 H 661.393 3.42465 -1.65826 0
M  V30 7070 H 660.905 2.32039 -3.11094 0
M  V30 7071 H 659.006 3.59008 -0.99721 0
M  V30 7072 H 659.119 3.84016 -2.86477 0
M  V30 7073 H 657.483 2.0979 -1.44431 0
M  V30 7074 H 658.266 1.59702 -3.03891 0
M  V30 7075 N 660.711 1.11618 1.11262 0
M  V30 7076 C 661.658 0.7762 2.17356 0
M  V30 7077 C 662.628 -0.253152 1.6416 0
M  V30 7078 O 663.813 -0.129655 1.90359 0
M  V30 7079 C 660.953 0.227581 3.44349 0
M  V30 7080 C 660.066 1.31372 4.1154 0
M  V30 7081 C 659.201 0.72544 5.26223 0
M  V30 7082 C 658.24 1.7913 5.85302 0
M  V30 7083 N 657.377 1.22237 6.91377 0
M  V30 7084 H 662.217 1.68508 2.45783 0
M  V30 7085 H 659.754 0.841475 1.20655 0
M  V30 7086 H 661.712 -0.108483 4.17059 0
M  V30 7087 H 660.342 -0.644486 3.16301 0
M  V30 7088 H 659.394 1.7667 3.36885 0
M  V30 7089 H 660.706 2.12005 4.51504 0
M  V30 7090 H 659.86 0.339541 6.05749 0
M  V30 7091 H 658.599 -0.112188 4.87571 0
M  V30 7092 H 657.604 2.18648 5.04453 0
M  V30 7093 H 658.829 2.63199 6.26022 0
M  V30 7094 H 656.775 0.406423 6.5474 0
M  V30 7095 H 656.692 1.9654 7.30006 0
M  V30 7096 H 657.96 0.863426 7.74703 0
M  V30 7097 N 662.189 -1.289 0.906776 0
M  V30 7098 C 663.414 -1.99939 0.551303 0
M  V30 7099 C 663.839 -1.67366 -0.858496 0
M  V30 7100 O 663.197 -0.902176 -1.57259 0
M  V30 7101 C 663.245 -3.52523 0.758937 0
M  V30 7102 O 662.349 -4.11983 -0.185308 0
M  V30 7103 H 661.69 -0.628376 0.214568 0
M  V30 7104 H 664.22 -1.64225 1.2203 0
M  V30 7105 H 664.23 -4.02522 0.666329 0
M  V30 7106 H 662.905 -3.75566 1.78671 0
M  V30 7107 H 661.482 -3.72873 -0.0445577 0
M  V30 7108 N 663.667 -0.670007 -1.42649 0
M  V30 7109 C 664.916 -0.187526 -2.00826 0
M  V30 7110 C 665.229 1.21142 -1.53571 0
M  V30 7111 O 666.435 1.79001 -2.04134 0
M  V30 7112 C 664.891 -0.284409 -3.58774 0
M  V30 7113 C 664.499 -1.6871 -4.15019 0
M  V30 7114 C 666.243 0.139605 -4.2427 0
M  V30 7115 C 664.15 -1.73701 -5.65316 0
M  V30 7116 H 663.08 -0.0663468 -0.751075 0
M  V30 7117 H 665.731 -0.834492 -1.63427 0
M  V30 7118 H 664.113 0.430364 -3.93655 0
M  V30 7119 H 665.287 -2.42857 -3.91608 0
M  V30 7120 H 663.602 -2.05855 -3.61957 0
M  V30 7121 H 666.199 0.122398 -5.3456 0
M  V30 7122 H 666.542 1.17403 -3.99402 0
M  V30 7123 H 667.075 -0.523995 -3.94334 0
M  V30 7124 H 663.814 -2.75109 -5.94975 0
M  V30 7125 H 663.334 -1.03903 -5.90732 0
M  V30 7126 H 665.013 -1.48829 -6.2965 0
M  V30 7127 N 665.145 1.52092 -0.413018 0
M  V30 7128 C 666.385 2.03765 0.160975 0
M  V30 7129 C 666.749 1.29174 1.4205 0
M  V30 7130 O 667.95 1.71093 2.07318 0
M  V30 7131 C 666.221 3.55167 0.398871 0
M  V30 7132 S 667.78 4.28619 0.939755 0
M  V30 7133 H 664.598 0.709685 0.0432281 0
M  V30 7134 H 667.2 1.87102 -0.566831 0
M  V30 7135 H 665.904 4.07034 -0.524544 0
M  V30 7136 H 665.435 3.7608 1.15444 0
M  V30 7137 H 667.45 4.43773 2.21991 0
M  V30 7138 N 666.623 0.143563 1.56945 0
M  V30 7139 C 667.57 -0.797433 2.16586 0
M  V30 7140 C 668.54 -1.24654 1.09775 0
M  V30 7141 O 669.725 -1.31968 1.37801 0
M  V30 7142 C 666.865 -2.03253 2.78895 0
M  V30 7143 C 665.978 -1.62954 4.00087 0
M  V30 7144 C 665.113 -2.81617 4.50406 0
M  V30 7145 C 664.152 -2.37675 5.64072 0
M  V30 7146 N 663.289 -3.49335 6.09023 0
M  V30 7147 H 668.129 -0.282023 2.96662 0
M  V30 7148 H 665.666 -0.127494 1.46546 0
M  V30 7149 H 667.624 -2.75653 3.13163 0
M  V30 7150 H 666.254 -2.52211 2.01469 0
M  V30 7151 H 665.306 -0.803322 3.71821 0
M  V30 7152 H 666.618 -1.26679 4.82446 0
M  V30 7153 H 665.772 -3.62212 4.86711 0
M  V30 7154 H 664.511 -3.21134 3.67048 0
M  V30 7155 H 663.516 -1.55519 5.27346 0
M  V30 7156 H 664.741 -1.99247 6.49213 0
M  V30 7157 H 662.687 -3.8848 5.28601 0
M  V30 7158 H 662.604 -3.17064 6.86299 0
M  V30 7159 H 663.872 -4.30297 6.49973 0
M  V30 7160 N 668.101 -1.57061 -0.130224 0
M  V30 7161 C 669.329 -1.88432 -0.854456 0
M  V30 7162 C 669.744 -0.733608 -1.73964 0
M  V30 7163 O 669.101 0.296029 -1.80083 0
M  V30 7164 C 669.152 -3.1918 -1.69724 0
M  V30 7165 O 668.873 -4.2982 -0.847705 0
M  V30 7166 C 670.374 -3.6418 -2.5276 0
M  V30 7167 H 667.594 -0.624193 -0.246221 0
M  V30 7168 H 670.138 -2.04159 -0.11798 0
M  V30 7169 H 668.293 -3.05156 -2.3866 0
M  V30 7170 H 668.707 -5.04689 -1.42792 0
M  V30 7171 H 670.181 -4.58457 -3.07443 0
M  V30 7172 H 670.658 -2.90285 -3.29592 0
M  V30 7173 H 671.264 -3.80954 -1.89087 0
M  V30 7174 N 669.579 0.400081 -1.52437 0
M  V30 7175 C 670.99 0.97851 -1.59003 0
M  V30 7176 C 671.341 1.91293 -0.436068 0
M  V30 7177 O 670.466 2.1183 0.442365 0
M  V30 7178 C 671.061 1.78145 -2.88184 0
M  V30 7179 C 669.62 2.30976 -2.97199 0
M  V30 7180 C 668.767 1.11212 -2.54022 0
M  V30 7181 H 671.718 0.180002 -1.57676 0
M  V30 7182 H 671.739 2.63968 -2.74046 0
M  V30 7183 H 671.251 1.1011 -3.72152 0
M  V30 7184 H 669.352 3.02355 -2.17744 0
M  V30 7185 H 669.465 2.61221 -4.01622 0
M  V30 7186 H 667.829 1.46882 -2.08081 0
M  V30 7187 H 668.612 0.447307 -3.40373 0
M  V30 7188 N 671.057 1.43213 0.657864 0
M  V30 7189 C 672.282 1.48227 1.45064 0
M  V30 7190 C 672.707 0.0999939 1.87834 0
M  V30 7191 O 672.065 -0.905269 1.57081 0
M  V30 7192 C 672.113 2.42931 2.6649 0
M  V30 7193 O 671.217 1.91237 3.6538 0
M  V30 7194 H 670.558 0.501551 0.435135 0
M  V30 7195 H 673.088 1.8808 0.805431 0
M  V30 7196 H 673.098 2.6008 3.1436 0
M  V30 7197 H 671.773 3.43348 2.34701 0
M  V30 7198 H 670.35 1.83726 3.24498 0
M  V30 7199 N 672.536 -0.895792 1.29666 0
M  V30 7200 C 673.761 -1.68528 1.20885 0
M  V30 7201 C 674.186 -1.8673 -0.226595 0
M  V30 7202 O 673.544 -1.39044 -1.16347 0
M  V30 7203 C 673.592 -3.04512 1.93144 0
M  V30 7204 O 672.696 -3.92963 1.25115 0
M  V30 7205 H 672.037 -0.515371 0.418675 0
M  V30 7206 H 674.567 -1.11878 1.71302 0
M  V30 7207 H 674.577 -3.54628 2.0175 0
M  V30 7208 H 673.252 -2.90582 2.97548 0
M  V30 7209 H 671.829 -3.51399 1.24794 0
M  V30 7210 N 674.014 -1.12206 -1.10668 0
M  V30 7211 C 674.962 -0.782918 -2.19028 0
M  V30 7212 C 675.956 0.229175 -1.67843 0
M  V30 7213 O 677.162 0.0876295 -1.79787 0
M  V30 7214 H 673.537 -0.235339 -0.714227 0
M  V30 7215 H 675.508 -1.70527 -2.44874 0
M  V30 7216 C 674.257 -0.25116 -3.46792 0
M  V30 7217 H 673.58 -1.02123 -3.86537 0
M  V30 7218 H 675.02 -0.0521409 -4.23968 0
M  V30 7219 C 673.479 1.02037 -3.21076 0
M  V30 7220 O 674.009 2.09862 -3.42522 0
M  V30 7221 N 672.215 0.946348 -2.74759 0
M  V30 7222 H 671.762 0.068777 -2.57508 0
M  V30 7223 H 671.72 1.79775 -2.57931 0
M  V30 7224 N 675.492 1.28418 -0.913599 0
M  V30 7225 C 676.72 1.99106 -0.562536 0
M  V30 7226 C 677.135 1.68273 0.856137 0
M  V30 7227 O 676.492 0.935401 1.56705 0
M  V30 7228 C 676.543 3.5338 -0.761903 0
M  V30 7229 O 676.264 3.83127 -2.12475 0
M  V30 7230 C 677.765 4.41328 -0.417651 0
M  V30 7231 H 674.985 0.635798 -0.214481 0
M  V30 7232 H 677.529 1.63618 -1.22676 0
M  V30 7233 H 675.684 3.8713 -0.144676 0
M  V30 7234 H 676.098 4.77763 -2.16431 0
M  V30 7235 H 677.572 5.48642 -0.607919 0
M  V30 7236 H 678.049 4.34422 0.646108 0
M  V30 7237 H 678.655 4.13074 -1.01241 0
M  V30 7238 N 676.97 0.677563 1.42291 0
M  V30 7239 C 677.9 0.014968 2.33495 0
M  V30 7240 C 678.881 -0.786376 1.50831 0
M  V30 7241 O 680.066 -0.742975 1.79426 0
M  V30 7242 C 677.196 -0.935023 3.34477 0
M  V30 7243 C 676.15 -0.242074 4.27315 0
M  V30 7244 C 675.476 -1.30519 5.18526 0
M  V30 7245 C 676.776 0.880604 5.14823 0
M  V30 7246 H 678.47 0.776671 2.89151 0
M  V30 7247 H 676.016 0.37494 1.39033 0
M  V30 7248 H 677.969 -1.40766 3.97194 0
M  V30 7249 H 676.693 -1.72818 2.77131 0
M  V30 7250 H 675.352 0.210351 3.65996 0
M  V30 7251 H 675 -2.09041 4.57505 0
M  V30 7252 H 674.7 -0.846652 5.81468 0
M  V30 7253 H 676.224 -1.7787 5.84119 0
M  V30 7254 H 677.638 0.489062 5.7121 0
M  V30 7255 H 676.035 1.26511 5.86613 0
M  V30 7256 H 677.105 1.72818 4.53059 0
M  V30 7257 N 678.448 -1.51871 0.421078 0
M  V30 7258 C 679.725 -1.9447 -0.20993 0
M  V30 7259 C 680.105 -1.35875 -1.61558 0
M  V30 7260 O 679.453 -0.539294 -2.22045 0
M  V30 7261 C 679.663 -3.48402 -0.204165 0
M  V30 7262 C 681.011 -4.2254 -0.417696 0
M  V30 7263 O 682.035 -3.55074 -0.282999 0
M  V30 7264 O 680.894 -5.422 -0.684239 0
M  V30 7265 H 677.988 -0.815283 -0.138718 0
M  V30 7266 H 680.534 -1.62832 0.477884 0
M  V30 7267 H 679.306 -3.83464 0.779183 0
M  V30 7268 H 678.929 -3.86436 -0.935576 0
M  V30 7269 N 679.926 -0.151884 -1.56866 0
M  V30 7270 C 681.203 0.543328 -1.87902 0
M  V30 7271 C 681.583 1.82636 -1.05864 0
M  V30 7272 O 680.931 2.28028 -0.146868 0
M  V30 7273 C 681.141 0.804056 -3.39611 0
M  V30 7274 C 682.489 1.14267 -4.08935 0
M  V30 7275 O 683.513 0.893248 -3.44818 0
M  V30 7276 O 682.372 1.61229 -5.22176 0
M  V30 7277 H 679.466 0.277724 -0.778973 0
M  V30 7278 H 682.012 -0.188862 -1.68646 0
M  V30 7279 H 680.784 -0.103772 -3.91162 0
M  V30 7280 H 680.407 1.59025 -3.64413 0
M  V30 7281 N 681.404 1.57128 0.121893 0
M  V30 7282 C 682.634 1.88609 0.843227 0
M  V30 7283 C 683.042 0.740917 1.74089 0
M  V30 7284 O 682.385 -0.297426 1.81276 0
M  V30 7285 C 682.447 3.15073 1.73117 0
M  V30 7286 C 682.111 4.45742 1.0081 0
M  V30 7287 C 683.108 5.18719 0.350255 0
M  V30 7288 C 680.793 4.92444 0.99014 0
M  V30 7289 C 682.787 6.36617 -0.315889 0
M  V30 7290 C 680.474 6.10261 0.320196 0
M  V30 7291 C 681.472 6.82194 -0.331666 0
M  V30 7292 O 681.16 7.97769 -0.990927 0
M  V30 7293 H 680.892 0.628919 0.247865 0
M  V30 7294 H 683.446 2.05096 0.111725 0
M  V30 7295 H 681.676 2.9466 2.50424 0
M  V30 7296 H 683.365 3.32597 2.32667 0
M  V30 7297 H 684.131 4.83693 0.35577 0
M  V30 7298 H 680.01 4.36361 1.48695 0
M  V30 7299 H 683.554 6.92701 -0.825272 0
M  V30 7300 H 679.451 6.44743 0.312433 0
M  V30 7301 H 680.219 8.13591 -0.895113 0
M  V30 7302 N 682.882 -0.391992 1.52647 0
M  V30 7303 C 683.815 -1.50019 1.71958 0
M  V30 7304 C 684.793 -1.5238 0.567365 0
M  V30 7305 O 685.977 -1.70831 0.796806 0
M  V30 7306 C 683.104 -2.88496 1.77447 0
M  V30 7307 C 682.15 -3.03974 2.99169 0
M  V30 7308 S 682.983 -2.75487 4.59203 0
M  V30 7309 C 684.139 -4.16163 4.67503 0
M  V30 7310 H 684.372 -1.33413 2.65685 0
M  V30 7311 H 681.905 -0.584674 1.42902 0
M  V30 7312 H 683.863 -3.68296 1.81296 0
M  V30 7313 H 682.524 -3.02431 0.848188 0
M  V30 7314 H 681.717 -4.05328 2.99542 0
M  V30 7315 H 681.319 -2.32062 2.93297 0
M  V30 7316 H 683.611 -5.10048 4.45934 0
M  V30 7317 H 684.554 -4.20806 5.69498 0
M  V30 7318 H 684.962 -4.01933 3.96371 0
M  V30 7319 N 684.36 -1.4356 -0.65026 0
M  V30 7320 C 685.585 -1.48995 -1.44275 0
M  V30 7321 C 686.01 -0.109954 -1.87778 0
M  V30 7322 O 685.368 0.896926 -1.57559 0
M  V30 7323 C 685.416 -2.44341 -2.65198 0
M  V30 7324 O 684.52 -1.93172 -3.6436 0
M  V30 7325 H 683.861 -0.503852 -0.432469 0
M  V30 7326 H 686.391 -1.88504 -0.795446 0
M  V30 7327 H 686.401 -2.61743 -3.12977 0
M  V30 7328 H 685.076 -3.44588 -2.32877 0
M  V30 7329 H 683.653 -1.85445 -3.23519 0
M  V30 7330 N 685.838 0.888903 -1.30139 0
M  V30 7331 C 687.078 1.65456 -1.20015 0
M  V30 7332 C 687.442 1.90467 0.242148 0
M  V30 7333 O 688.643 2.6472 0.466561 0
M  V30 7334 C 686.914 2.96071 -2.00191 0
M  V30 7335 S 688.473 3.87055 -2.06721 0
M  V30 7336 H 685.291 0.567927 -0.427761 0
M  V30 7337 H 687.893 1.05539 -1.64565 0
M  V30 7338 H 686.597 2.7559 -3.04103 0
M  V30 7339 H 686.128 3.61023 -1.56288 0
M  V30 7340 H 688.143 4.81676 -1.19174 0
M  V30 7341 N 687.317 1.12792 1.10072 0
M  V30 7342 C 688.564 0.885545 1.82111 0
M  V30 7343 C 688.892 -0.588519 1.85383 0
M  V30 7344 O 688.147 -1.45124 1.31292 0
M  V30 7345 C 688.446 1.4102 3.28403 0
M  V30 7346 C 688.112 2.89995 3.45273 0
M  V30 7347 C 686.774 3.30671 3.49585 0
M  V30 7348 C 689.126 3.85874 3.50358 0
M  V30 7349 C 686.454 4.65925 3.56553 0
M  V30 7350 C 688.806 5.20963 3.58859 0
M  V30 7351 C 687.47 5.61177 3.61437 0
M  V30 7352 H 686.74 0.324044 0.666391 0
M  V30 7353 H 689.387 1.40874 1.29718 0
M  V30 7354 H 687.692 0.807551 3.83387 0
M  V30 7355 H 689.389 1.19882 3.82661 0
M  V30 7356 H 685.979 2.57537 3.42597 0
M  V30 7357 H 690.163 3.5554 3.46273 0
M  V30 7358 H 685.419 4.96468 3.56833 0
M  V30 7359 H 689.593 5.95079 3.61738 0
M  V30 7360 H 687.22 6.6597 3.66589 0
M  V30 7361 N 688.795 -1.27931 0.920396 0
M  V30 7362 C 690.211 -1.47085 0.619537 0
M  V30 7363 C 690.411 -1.83463 -0.833291 0
M  V30 7364 O 689.467 -1.94363 -1.61181 0
M  V30 7365 C 690.78 -2.56878 1.56314 0
M  V30 7366 C 692.328 -2.70743 1.57058 0
M  V30 7367 C 692.803 -3.83687 2.50097 0
M  V30 7368 N 694.294 -3.9105 2.48262 0
M  V30 7369 C 695.029 -4.77842 3.16945 0
M  V30 7370 N 694.525 -5.69176 3.94982 0
M  V30 7371 N 696.318 -4.71509 3.06 0
M  V30 7372 H 688.469 -1.02601 1.85975 0
M  V30 7373 H 690.732 -0.511682 0.798051 0
M  V30 7374 H 690.438 -2.36923 2.59923 0
M  V30 7375 H 690.312 -3.54117 1.29928 0
M  V30 7376 H 692.699 -2.90083 0.541832 0
M  V30 7377 H 692.78 -1.74015 1.8749 0
M  V30 7378 H 692.424 -3.65101 3.53077 0
M  V30 7379 H 692.354 -4.79827 2.16964 0
M  V30 7380 H 694.845 -3.25738 1.91581 0
M  V30 7381 H 695.158 -6.32245 4.44394 0
M  V30 7382 H 693.503 -5.68995 3.99086 0
M  V30 7383 H 696.694 -3.99151 2.44533 0
M  V30 7384 H 696.867 -5.38933 3.59799 0
M  V30 7385 N 690.273 -0.685099 -1.4193 0
M  V30 7386 C 691.501 -0.220372 -2.05723 0
M  V30 7387 C 691.916 1.12642 -1.51516 0
M  V30 7388 O 691.273 1.70182 -0.659114 0
M  V30 7389 C 691.324 -0.157974 -3.61155 0
M  V30 7390 O 691.045 -1.45156 -4.13354 0
M  V30 7391 C 692.546 0.329009 -4.42077 0
M  V30 7392 H 689.766 -0.104725 -0.662777 0
M  V30 7393 H 692.31 -0.934736 -1.81887 0
M  V30 7394 H 690.465 0.507144 -3.84066 0
M  V30 7395 H 690.879 -1.33172 -5.07312 0
M  V30 7396 H 692.353 0.321559 -5.51063 0
M  V30 7397 H 692.83 1.36608 -4.17414 0
M  V30 7398 H 693.436 -0.304737 -4.24207 0
M  V30 7399 N 691.751 1.51645 -0.429126 0
M  V30 7400 C 693.162 1.86665 0.0359003 0
M  V30 7401 C 693.513 1.34677 1.42676 0
M  V30 7402 O 692.638 0.694195 2.04963 0
M  V30 7403 C 693.233 3.38724 0.0719221 0
M  V30 7404 C 691.792 3.7331 0.481336 0
M  V30 7405 C 690.939 2.75313 -0.331329 0
M  V30 7406 H 693.89 1.44987 -0.645333 0
M  V30 7407 H 693.911 3.7011 0.883118 0
M  V30 7408 H 693.423 3.76532 -0.940495 0
M  V30 7409 H 691.524 3.41088 1.49966 0
M  V30 7410 H 691.637 4.78631 0.211837 0
M  V30 7411 H 690.001 2.53839 0.209204 0
M  V30 7412 H 690.784 3.15963 -1.34247 0
M  V30 7413 N 693.229 0.160201 1.56784 0
M  V30 7414 C 694.475 -0.48831 1.96833 0
M  V30 7415 C 694.808 -1.63641 1.04571 0
M  V30 7416 O 694.083 -1.94289 0.0906481 0
M  V30 7417 C 694.366 -0.981908 3.46454 0
M  V30 7418 C 694.219 0.165607 4.49495 0
M  V30 7419 C 695.538 -1.85931 3.98896 0
M  V30 7420 H 692.657 -0.176027 0.71567 0
M  V30 7421 H 695.299 0.244093 1.88426 0
M  V30 7422 H 693.449 -1.60602 3.5375 0
M  V30 7423 H 695.121 0.802372 4.54268 0
M  V30 7424 H 693.364 0.822789 4.25926 0
M  V30 7425 H 694.035 -0.221699 5.51555 0
M  V30 7426 H 696.511 -1.33327 3.94161 0
M  V30 7427 H 695.387 -2.17373 5.04024 0
M  V30 7428 H 695.648 -2.80106 3.42042 0
M  V30 7429 N 694.707 -1.5719 -0.113559 0
M  V30 7430 C 695.953 -1.85412 -0.821597 0
M  V30 7431 C 696.286 -0.746722 -1.7927 0
M  V30 7432 O 695.561 0.246971 -1.92926 0
M  V30 7433 C 695.844 -3.24233 -1.56669 0
M  V30 7434 C 695.697 -4.45578 -0.614823 0
M  V30 7435 C 697.016 -3.60697 -2.52161 0
M  V30 7436 H 694.135 -0.674406 -0.29723 0
M  V30 7437 H 696.777 -1.89807 -0.085694 0
M  V30 7438 H 694.927 -3.20617 -2.19401 0
M  V30 7439 H 696.599 -4.613 0.00407137 0
M  V30 7440 H 694.842 -4.33738 0.0732332 0
M  V30 7441 H 695.513 -5.39395 -1.17292 0
M  V30 7442 H 697.989 -3.65139 -1.99532 0
M  V30 7443 H 696.865 -4.58798 -3.01323 0
M  V30 7444 H 697.126 -2.88403 -3.35076 0
M  V30 7445 N 696.185 0.383891 -1.52853 0
M  V30 7446 C 697.132 1.46924 -1.77995 0
M  V30 7447 C 698.102 1.53958 -0.623396 0
M  V30 7448 O 699.287 1.70134 -0.863657 0
M  V30 7449 C 696.427 2.84093 -1.95921 0
M  V30 7450 C 695.54 2.86171 -3.23621 0
M  V30 7451 C 694.675 4.14799 -3.31836 0
M  V30 7452 C 693.714 4.10948 -4.53639 0
M  V30 7453 N 692.851 5.31192 -4.59107 0
M  V30 7454 H 697.691 1.24786 -2.70615 0
M  V30 7455 H 695.228 0.605265 -1.34071 0
M  V30 7456 H 697.186 3.63755 -2.04299 0
M  V30 7457 H 695.816 3.04671 -1.06656 0
M  V30 7458 H 694.868 1.9885 -3.24288 0
M  V30 7459 H 696.18 2.79194 -4.13343 0
M  V30 7460 H 695.334 5.02867 -3.39425 0
M  V30 7461 H 694.073 4.24505 -2.40097 0
M  V30 7462 H 693.078 3.21268 -4.46169 0
M  V30 7463 H 694.303 4.0286 -5.467 0
M  V30 7464 H 692.249 5.41518 -3.70262 0
M  V30 7465 H 692.166 5.26311 -5.42708 0
M  V30 7466 H 693.434 6.21143 -4.70958 0
M  V30 7467 N 697.663 1.43903 0.642637 0
M  V30 7468 C 698.611 1.50164 1.77634 0
M  V30 7469 C 699.605 0.374294 1.65213 0
M  V30 7470 O 700.811 0.548748 1.71431 0
M  V30 7471 H 697.186 0.470974 0.586249 0
M  V30 7472 H 699.157 2.45603 1.69474 0
M  V30 7473 C 697.906 1.45196 3.15933 0
M  V30 7474 H 697.229 2.31253 3.26132 0
M  V30 7475 H 698.669 1.53638 3.95185 0
M  V30 7476 C 697.128 0.171043 3.36466 0
M  V30 7477 O 697.658 -0.763413 3.94379 0
M  V30 7478 N 695.864 0.077847 2.90496 0
M  V30 7479 H 695.411 0.8391 2.43551 0
M  V30 7480 H 695.369 -0.778473 3.0461 0
M  V30 7481 N 699.141 -0.881989 1.30609 0
M  V30 7482 C 700.418 -1.61563 1.10258 0
M  V30 7483 C 700.798 -2.08228 -0.347053 0
M  V30 7484 O 700.146 -1.85151 -1.33908 0
M  V30 7485 C 700.356 -2.78287 2.10612 0
M  V30 7486 C 701.704 -3.48545 2.4249 0
M  V30 7487 O 702.728 -2.88479 2.08945 0
M  V30 7488 O 701.587 -4.56873 2.99883 0
M  V30 7489 H 698.681 -0.710238 0.423663 0
M  V30 7490 H 701.227 -0.928503 1.42045 0
M  V30 7491 H 699.999 -2.41131 3.08174 0
M  V30 7492 H 699.622 -3.54695 1.79659 0
M  V30 7493 N 700.619 -1.13374 -1.09472 0
M  V30 7494 C 701.866 -0.89519 -1.81639 0
M  V30 7495 C 702.194 0.57868 -1.85692 0
M  V30 7496 O 701.449 1.44426 -1.32059 0
M  V30 7497 C 701.748 -1.42759 -3.2765 0
M  V30 7498 C 701.414 -2.91822 -3.43731 0
M  V30 7499 C 700.076 -3.32521 -3.47827 0
M  V30 7500 C 702.428 -3.87727 -3.48307 0
M  V30 7501 C 699.756 -4.6781 -3.54078 0
M  V30 7502 C 702.108 -5.22859 -3.56091 0
M  V30 7503 C 700.772 -5.63086 -3.58456 0
M  V30 7504 H 700.042 -0.327573 -0.664663 0
M  V30 7505 H 702.689 -1.4156 -1.28969 0
M  V30 7506 H 700.994 -0.827871 -3.82954 0
M  V30 7507 H 702.691 -1.2191 -3.8202 0
M  V30 7508 H 699.281 -2.5935 -3.41226 0
M  V30 7509 H 703.465 -3.57371 -3.44383 0
M  V30 7510 H 698.721 -4.98353 -3.54195 0
M  V30 7511 H 702.895 -5.96989 -3.58577 0
M  V30 7512 H 700.522 -6.67905 -3.63052 0
M  V30 7513 N 702.098 1.27442 -0.927168 0
M  V30 7514 C 703.509 1.76385 -0.611979 0
M  V30 7515 C 703.86 1.75715 0.872853 0
M  V30 7516 O 702.985 1.3603 1.683 0
M  V30 7517 C 703.58 3.20303 -1.10414 0
M  V30 7518 C 702.139 3.66916 -0.839628 0
M  V30 7519 C 701.286 2.46859 -1.26317 0
M  V30 7520 H 704.237 1.13716 -1.107 0
M  V30 7521 H 704.258 3.77811 -0.451578 0
M  V30 7522 H 703.77 3.20759 -2.18484 0
M  V30 7523 H 701.871 3.71906 0.227292 0
M  V30 7524 H 701.984 4.56415 -1.45679 0
M  V30 7525 H 700.348 2.45407 -0.681723 0
M  V30 7526 H 701.131 2.50025 -2.3525 0
M  V30 7527 N 703.576 0.692616 1.41565 0
M  V30 7528 C 704.987 0.297478 1.84315 0
M  V30 7529 C 705.338 -1.16379 1.57957 0
M  V30 7530 O 704.463 -1.89303 1.0485 0
M  V30 7531 C 705.058 0.533136 3.34579 0
M  V30 7532 C 703.617 0.191944 3.7591 0
M  V30 7533 C 702.764 0.816873 2.64995 0
M  V30 7534 H 705.715 0.893488 1.31158 0
M  V30 7535 H 705.736 -0.209105 3.79925 0
M  V30 7536 H 705.248 1.59674 3.53731 0
M  V30 7537 H 703.349 -0.867512 3.6236 0
M  V30 7538 H 703.462 0.644902 4.7474 0
M  V30 7539 H 701.826 0.246715 2.53502 0
M  V30 7540 H 702.609 1.88429 2.86966 0
M  V30 7541 N 705.054 -1.51416 0.437162 0
M  V30 7542 C 706.017 -2.26312 -0.362729 0
M  V30 7543 C 707.017 -1.29748 -0.949847 0
M  V30 7544 O 708.207 -1.53462 -0.824325 0
M  V30 7545 C 705.339 -3.05475 -1.5132 0
M  V30 7546 H 706.532 -2.98459 0.29365 0
M  V30 7547 H 704.085 -1.55137 0.190327 0
M  V30 7548 H 704.82 -2.37744 -2.20563 0
M  V30 7549 H 704.605 -3.76401 -1.09838 0
M  V30 7550 H 706.095 -3.62209 -2.07833 0
M  V30 7551 N 706.532 -0.168513 -1.56696 0
M  V30 7552 C 707.772 0.479648 -1.98693 0
M  V30 7553 C 708.136 1.60609 -1.05209 0
M  V30 7554 O 709.337 2.3166 -1.36334 0
M  V30 7555 C 707.608 0.952852 -3.44464 0
M  V30 7556 S 709.167 1.60259 -4.08488 0
M  V30 7557 H 705.985 0.154377 -0.694038 0
M  V30 7558 H 708.587 -0.265312 -1.93691 0
M  V30 7559 H 707.291 0.12257 -4.10217 0
M  V30 7560 H 706.822 1.73192 -3.53225 0
M  V30 7561 H 708.837 2.89065 -4.03307 0
M  V30 7562 N 708.01 1.57248 0.105221 0
M  V30 7563 C 708.942 1.98008 1.15436 0
M  V30 7564 C 709.955 0.881236 1.36887 0
M  V30 7565 O 711.144 1.15943 1.35718 0
M  V30 7566 C 708.244 2.27509 2.51183 0
M  V30 7567 C 707.417 3.58811 2.50147 0
M  V30 7568 C 706.476 3.76365 3.67745 0
M  V30 7569 O 705.502 4.48329 3.50699 0
M  V30 7570 N 706.704 3.16174 4.86841 0
M  V30 7571 H 709.469 2.88616 0.807519 0
M  V30 7572 H 707.03 1.59202 0.29433 0
M  V30 7573 H 709.022 2.36455 3.28438 0
M  V30 7574 H 707.592 1.42959 2.77995 0
M  V30 7575 H 706.812 3.60927 1.5851 0
M  V30 7576 H 708.1 4.45088 2.46524 0
M  V30 7577 H 707.498 2.57701 5.03594 0
M  V30 7578 H 706.055 3.30621 5.61723 0
M  V30 7579 N 709.488 -0.375779 1.53054 0
M  V30 7580 C 710.418 -1.46598 1.81745 0
M  V30 7581 C 711.399 -1.56337 0.670286 0
M  V30 7582 O 712.584 -1.71071 0.919158 0
M  V30 7583 C 709.714 -2.84058 1.99821 0
M  V30 7584 C 708.668 -2.8915 3.15557 0
M  V30 7585 C 707.994 -4.29187 3.18908 0
M  V30 7586 C 709.294 -2.57595 4.54359 0
M  V30 7587 H 710.988 -1.22837 2.73041 0
M  V30 7588 H 708.534 -0.589485 1.31381 0
M  V30 7589 H 710.487 -3.60342 2.18475 0
M  V30 7590 H 709.211 -3.09184 1.05226 0
M  V30 7591 H 707.87 -2.15316 2.96706 0
M  V30 7592 H 707.518 -4.51374 2.2197 0
M  V30 7593 H 707.218 -4.33512 3.96662 0
M  V30 7594 H 708.742 -5.07359 3.39734 0
M  V30 7595 H 710.156 -3.23595 4.73243 0
M  V30 7596 H 708.553 -2.73252 5.34279 0
M  V30 7597 H 709.623 -1.52882 4.60169 0
M  V30 7598 N 710.966 -1.44241 -0.634997 0
M  V30 7599 C 712.191 -1.50516 -1.42687 0
M  V30 7600 C 712.616 -0.129864 -1.87651 0
M  V30 7601 O 711.974 0.880164 -1.58502 0
M  V30 7602 C 712.022 -2.4714 -2.62591 0
M  V30 7603 O 711.126 -1.97025 -3.62291 0
M  V30 7604 H 710.467 -0.50841 -0.427101 0
M  V30 7605 H 712.997 -1.89337 -0.775408 0
M  V30 7606 H 713.007 -2.65048 -3.10183 0
M  V30 7607 H 711.682 -3.47039 -2.29209 0
M  V30 7608 H 710.259 -1.88866 -3.21534 0
M  V30 7609 N 712.444 0.87505 -1.31075 0
M  V30 7610 C 713.672 1.66058 -1.23419 0
M  V30 7611 C 714.087 1.87723 0.201347 0
M  V30 7612 O 713.444 1.43178 1.13165 0
M  V30 7613 C 713.495 3.03142 -1.96945 0
M  V30 7614 O 713.216 2.82448 -3.34895 0
M  V30 7615 C 714.717 3.97583 -1.96067 0
M  V30 7616 H 711.937 0.517868 -0.426677 0
M  V30 7617 H 714.481 1.09258 -1.72867 0
M  V30 7618 H 712.636 3.56645 -1.51271 0
M  V30 7619 H 713.05 3.69483 -3.72267 0
M  V30 7620 H 714.524 4.91104 -2.52034 0
M  V30 7621 H 715.001 4.2898 -0.941961 0
M  V30 7622 H 715.607 3.50015 -2.41597 0
M  V30 7623 N 713.922 1.13953 1.08869 0
M  V30 7624 C 715.333 0.916649 1.62648 0
M  V30 7625 C 715.684 -0.545589 1.88462 0
M  V30 7626 O 714.809 -1.41351 1.63856 0
M  V30 7627 C 715.404 1.65751 2.95486 0
M  V30 7628 C 713.963 1.48034 3.46068 0
M  V30 7629 C 713.11 1.68305 2.20383 0
M  V30 7630 H 716.061 1.292 0.921572 0
M  V30 7631 H 716.082 1.11794 3.63707 0
M  V30 7632 H 715.594 2.72171 2.76667 0
M  V30 7633 H 713.695 0.439416 3.7 0
M  V30 7634 H 713.808 2.24719 4.23129 0
M  V30 7635 H 712.172 1.10833 2.29321 0
M  V30 7636 H 712.955 2.76057 2.04077 0
M  V30 7637 N 715.4 -1.26948 0.933913 0
M  V30 7638 C 716.63 -1.97898 0.593279 0
M  V30 7639 C 717.038 -1.69806 -0.834412 0
M  V30 7640 O 716.381 -0.958704 -1.56699 0
M  V30 7641 C 716.443 -3.51657 0.746825 0
M  V30 7642 C 716.107 -4.03384 2.14779 0
M  V30 7643 C 717.104 -4.15682 3.12257 0
M  V30 7644 C 714.789 -4.37577 2.46641 0
M  V30 7645 C 716.783 -4.61455 4.39702 0
M  V30 7646 C 714.47 -4.8304 3.7432 0
M  V30 7647 C 715.468 -4.94939 4.70664 0
M  V30 7648 O 715.156 -5.39403 5.96071 0
M  V30 7649 H 714.888 -0.63814 0.223055 0
M  V30 7650 H 717.442 -1.62608 1.2549 0
M  V30 7651 H 715.672 -3.8669 0.0280889 0
M  V30 7652 H 717.361 -4.03821 0.410328 0
M  V30 7653 H 718.127 -3.89519 2.88964 0
M  V30 7654 H 714.006 -4.27554 1.72391 0
M  V30 7655 H 717.55 -4.70658 5.14905 0
M  V30 7656 H 713.447 -5.08646 3.97429 0
M  V30 7657 H 714.215 -5.57641 5.99148 0
M  V30 7658 N 716.879 -0.700114 -1.41195 0
M  V30 7659 C 718.127 -0.232546 -2.00758 0
M  V30 7660 C 718.448 1.1734 -1.55745 0
M  V30 7661 O 717.718 1.79262 -0.790058 0
M  V30 7662 H 716.298 -0.0829845 -0.742376 0
M  V30 7663 H 718.96 -0.902289 -1.72756 0
M  V30 7664 H 718.056 -0.253521 -3.11069 0
M  V30 7665 N 718.357 1.51182 -0.445186 0
M  V30 7666 C 719.289 2.25714 0.398206 0
M  V30 7667 C 720.302 1.30032 0.979562 0
M  V30 7668 O 721.491 1.55731 0.872368 0
M  V30 7669 C 718.591 3.00348 1.56985 0
M  V30 7670 C 717.764 4.23187 1.10596 0
M  V30 7671 C 716.823 4.80334 2.14863 0
M  V30 7672 O 715.849 5.4196 1.73977 0
M  V30 7673 N 717.051 4.65053 3.47427 0
M  V30 7674 H 719.816 2.98732 -0.240629 0
M  V30 7675 H 717.377 1.59556 -0.274507 0
M  V30 7676 H 719.369 3.35464 2.26376 0
M  V30 7677 H 717.939 2.30291 2.11387 0
M  V30 7678 H 717.159 3.93476 0.238832 0
M  V30 7679 H 718.447 5.02886 0.773537 0
M  V30 7680 H 717.845 4.15984 3.83372 0
M  V30 7681 H 716.402 5.04509 4.12691 0
M  V30 7682 N 719.835 0.176821 1.56605 0
M  V30 7683 C 721.246 -0.338963 1.83597 0
M  V30 7684 C 721.597 -1.62677 1.09684 0
M  V30 7685 O 720.722 -2.13524 0.351661 0
M  V30 7686 C 721.317 -0.62177 3.33046 0
M  V30 7687 C 719.876 -1.08198 3.60514 0
M  V30 7688 C 719.023 -0.120774 2.77037 0
M  V30 7689 H 721.974 0.400978 1.53551 0
M  V30 7690 H 721.995 -1.47321 3.50823 0
M  V30 7691 H 721.507 0.315692 3.86814 0
M  V30 7692 H 719.608 -2.03435 3.12162 0
M  V30 7693 H 719.721 -0.987329 4.68816 0
M  V30 7694 H 718.085 -0.619192 2.47059 0
M  V30 7695 H 718.868 0.810806 3.33588 0
M  V30 7696 N 721.313 -1.57302 -0.09688 0
M  V30 7697 C 722.276 -2.00976 -1.10188 0
M  V30 7698 C 723.276 -0.903009 -1.3305 0
M  V30 7699 O 724.466 -1.16853 -1.29194 0
M  V30 7700 C 721.598 -2.36893 -2.45142 0
M  V30 7701 H 722.791 -2.9098 -0.726003 0
M  V30 7702 H 720.344 -1.52515 -0.341872 0
M  V30 7703 H 721.079 -1.49837 -2.8761 0
M  V30 7704 H 720.864 -3.17632 -2.29897 0
M  V30 7705 H 722.354 -2.71345 -3.1743 0
M  V30 7706 N 722.791 0.367657 -1.53252 0
M  V30 7707 C 724.031 1.11923 -1.71034 0
M  V30 7708 C 724.395 1.86618 -0.45143 0
M  V30 7709 O 725.596 2.63996 -0.505915 0
M  V30 7710 C 723.867 2.05461 -2.92439 0
M  V30 7711 S 725.426 2.88167 -3.30916 0
M  V30 7712 H 722.244 0.378549 -0.601848 0
M  V30 7713 H 724.846 0.400757 -1.91348 0
M  V30 7714 H 723.55 1.49346 -3.82262 0
M  V30 7715 H 723.081 2.81784 -2.7452 0
M  V30 7716 H 725.096 4.07746 -2.82767 0
M  V30 7717 N 724.269 1.44576 0.627338 0
M  V30 7718 C 725.516 1.47558 1.38682 0
M  V30 7719 C 725.844 0.109636 1.94191 0
M  V30 7720 O 725.099 -0.889092 1.74338 0
M  V30 7721 C 725.398 2.48644 2.56731 0
M  V30 7722 C 725.064 3.93873 2.19489 0
M  V30 7723 C 723.726 4.33421 2.09045 0
M  V30 7724 C 726.078 4.85286 1.90124 0
M  V30 7725 C 723.406 5.62303 1.6743 0
M  V30 7726 C 725.758 6.14559 1.50001 0
M  V30 7727 C 724.422 6.53058 1.38101 0
M  V30 7728 H 723.692 0.539955 0.507474 0
M  V30 7729 H 726.339 1.77811 0.711021 0
M  V30 7730 H 724.644 2.11889 3.29561 0
M  V30 7731 H 726.341 2.48197 3.14959 0
M  V30 7732 H 722.931 3.62587 2.28537 0
M  V30 7733 H 727.115 4.55483 1.971 0
M  V30 7734 H 722.371 5.90945 1.56823 0
M  V30 7735 H 726.545 6.84848 1.26319 0
M  V30 7736 H 724.172 7.52826 1.05628 0
M  V30 7737 N 725.747 -0.868086 1.31537 0
M  V30 7738 C 726.679 -1.98165 1.15166 0
M  V30 7739 C 727.692 -1.6255 0.0902335 0
M  V30 7740 O 728.881 -1.75272 0.33791 0
M  V30 7741 C 725.981 -3.30772 0.737776 0
M  V30 7742 C 725.154 -3.94716 1.88462 0
M  V30 7743 C 724.213 -5.05641 1.45648 0
M  V30 7744 O 723.239 -5.2636 2.16642 0
M  V30 7745 N 724.441 -5.79474 0.34493 0
M  V30 7746 H 727.206 -2.12754 2.11083 0
M  V30 7747 H 724.767 -1.04217 1.23897 0
M  V30 7748 H 726.759 -4.02366 0.434032 0
M  V30 7749 H 725.329 -3.1233 -0.129834 0
M  V30 7750 H 724.549 -3.16079 2.35558 0
M  V30 7751 H 725.837 -4.34175 2.65273 0
M  V30 7752 H 725.235 -5.65164 -0.246259 0
M  V30 7753 H 723.792 -6.51722 0.100728 0
M  V30 7754 N 727.225 -1.14528 -1.08264 0
M  V30 7755 C 728.157 -0.791325 -2.15106 0
M  V30 7756 C 729.17 0.192449 -1.61659 0
M  V30 7757 O 730.359 -0.0294704 -1.78476 0
M  V30 7758 C 727.459 -0.154183 -3.38549 0
M  V30 7759 C 726.632 -1.17305 -4.21377 0
M  V30 7760 C 725.691 -0.559401 -5.23218 0
M  V30 7761 O 724.717 -1.22277 -5.55911 0
M  V30 7762 N 725.919 0.663159 -5.767 0
M  V30 7763 H 728.684 -1.71076 -2.46075 0
M  V30 7764 H 726.245 -1.0399 -1.24087 0
M  V30 7765 H 728.237 0.268884 -4.03806 0
M  V30 7766 H 726.807 0.668418 -3.0537 0
M  V30 7767 H 726.027 -1.773 -3.52077 0
M  V30 7768 H 727.315 -1.86128 -4.73533 0
M  V30 7769 H 726.713 1.22066 -5.52373 0
M  V30 7770 H 725.27 1.02871 -6.43631 0
M  V30 7771 N 728.703 1.26451 -0.940633 0
M  V30 7772 C 729.635 2.25556 -0.407104 0
M  V30 7773 C 730.648 1.55888 0.469324 0
M  V30 7774 O 731.837 1.76292 0.279858 0
M  V30 7775 C 728.937 3.36109 0.434064 0
M  V30 7776 C 728.11 4.3532 -0.426082 0
M  V30 7777 C 727.169 5.25004 0.354563 0
M  V30 7778 O 726.195 5.68684 -0.242219 0
M  V30 7779 N 727.397 5.5652 1.65123 0
M  V30 7780 H 730.162 2.7197 -1.25907 0
M  V30 7781 H 727.723 1.40212 -0.809456 0
M  V30 7782 H 729.715 3.93059 0.963684 0
M  V30 7783 H 728.285 2.89194 1.18683 0
M  V30 7784 H 727.505 3.77449 -1.13692 0
M  V30 7785 H 728.793 4.986 -1.01366 0
M  V30 7786 H 728.191 5.22912 2.15822 0
M  V30 7787 H 726.748 6.16115 2.12711 0
M  V30 7788 N 730.181 0.707592 1.40822 0
M  V30 7789 C 731.113 0.0105968 2.29198 0
M  V30 7790 C 732.126 -0.732035 1.45414 0
M  V30 7791 O 733.315 -0.580741 1.68789 0
M  V30 7792 C 730.415 -1.00921 3.23525 0
M  V30 7793 C 729.588 -0.333747 4.36125 0
M  V30 7794 C 728.647 -1.25783 5.10945 0
M  V30 7795 O 727.673 -0.745646 5.64295 0
M  V30 7796 N 728.875 -2.58947 5.19545 0
M  V30 7797 H 731.64 0.76938 2.89656 0
M  V30 7798 H 729.201 0.554579 1.52105 0
M  V30 7799 H 731.193 -1.6294 3.70449 0
M  V30 7800 H 729.763 -1.66942 2.6429 0
M  V30 7801 H 728.983 0.466518 3.9143 0
M  V30 7802 H 730.271 0.135444 5.0862 0
M  V30 7803 H 729.669 -3.03065 4.7767 0
M  V30 7804 H 728.226 -3.16131 5.70004 0
M  V30 7805 N 731.66 -1.50943 0.453197 0
M  V30 7806 C 732.61 -2.25003 -0.368467 0
M  V30 7807 C 733.594 -1.27864 -0.976714 0
M  V30 7808 O 734.786 -1.52867 -0.892228 0
M  V30 7809 C 731.915 -3.10701 -1.46014 0
M  V30 7810 C 731.001 -4.15278 -0.860506 0
M  V30 7811 N 731.392 -5.05799 0.00849611 0
M  V30 7812 C 729.69 -4.31542 -1.1264 0
M  V30 7813 C 730.391 -5.80664 0.346951 0
M  V30 7814 N 729.367 -5.42912 -0.273426 0
M  V30 7815 H 733.169 -2.92352 0.301246 0
M  V30 7816 H 730.683 -1.60203 0.266233 0
M  V30 7817 H 732.68 -3.62348 -2.06179 0
M  V30 7818 H 731.34 -2.44898 -2.13202 0
M  V30 7819 H 732.351 -5.16533 0.376077 0
M  V30 7820 H 729.028 -3.76962 -1.7946 0
M  V30 7821 H 730.418 -6.63565 1.05507 0
M  V30 7822 N 733.138 -0.185124 -1.56509 0
M  V30 7823 C 734.07 0.771401 -2.15829 0
M  V30 7824 C 735.083 1.18392 -1.11747 0
M  V30 7825 O 736.272 1.12137 -1.38879 0
M  V30 7826 C 733.372 2.05169 -2.69739 0
M  V30 7827 C 732.545 1.80056 -3.98621 0
M  V30 7828 C 731.604 2.92435 -4.37456 0
M  V30 7829 O 730.63 2.62473 -5.05071 0
M  V30 7830 N 731.832 4.20554 -4.00143 0
M  V30 7831 H 734.597 0.264184 -2.98533 0
M  V30 7832 H 732.158 -0.00281069 -1.619 0
M  V30 7833 H 734.15 2.7947 -2.92709 0
M  V30 7834 H 732.72 2.47041 -1.91545 0
M  V30 7835 H 731.94 0.895862 -3.83885 0
M  V30 7836 H 733.228 1.60662 -4.82768 0
M  V30 7837 H 732.626 4.47753 -3.45736 0
M  V30 7838 H 731.183 4.91514 -4.28085 0
M  V30 7839 N 734.616 1.57351 0.0885366 0
M  V30 7840 C 735.865 1.85604 0.789556 0
M  V30 7841 C 736.178 0.775352 1.79576 0
M  V30 7842 O 737.384 0.945206 2.54515 0
M  V30 7843 C 735.84 3.29175 1.45506 0
M  V30 7844 C 735.448 4.45331 0.488278 0
M  V30 7845 C 737.192 3.66646 2.13942 0
M  V30 7846 C 735.099 5.79937 1.15874 0
M  V30 7847 H 734.029 0.692346 0.298619 0
M  V30 7848 H 736.68 1.83451 0.0425821 0
M  V30 7849 H 735.062 3.25889 2.24972 0
M  V30 7850 H 736.236 4.59977 -0.275359 0
M  V30 7851 H 734.551 4.16301 -0.0907363 0
M  V30 7852 H 737.148 4.64498 2.6485 0
M  V30 7853 H 737.491 2.956 2.93132 0
M  V30 7854 H 738.024 3.71848 1.41328 0
M  V30 7855 H 734.763 6.54232 0.407508 0
M  V30 7856 H 734.283 5.69123 1.89364 0
M  V30 7857 H 735.962 6.24718 1.68336 0
M  V30 7858 N 736.094 -0.359525 1.53444 0
M  V30 7859 C 737.024 -1.44662 1.8329 0
M  V30 7860 C 738.005 -1.55617 0.68683 0
M  V30 7861 O 739.19 -1.70086 0.93725 0
M  V30 7862 C 736.32 -2.81923 2.02822 0
M  V30 7863 C 735.274 -2.85787 3.18606 0
M  V30 7864 C 734.6 -4.25781 3.23442 0
M  V30 7865 C 735.9 -2.52762 4.57065 0
M  V30 7866 H 737.594 -1.19934 2.74329 0
M  V30 7867 H 735.14 -0.575517 1.31999 0
M  V30 7868 H 737.093 -3.58005 2.22285 0
M  V30 7869 H 735.817 -3.08051 1.085 0
M  V30 7870 H 734.476 -2.12157 2.98973 0
M  V30 7871 H 734.124 -4.48994 2.26745 0
M  V30 7872 H 733.824 -4.29281 4.01238 0
M  V30 7873 H 735.348 -5.03727 3.45096 0
M  V30 7874 H 736.762 -3.18557 4.76649 0
M  V30 7875 H 735.159 -2.67569 5.37147 0
M  V30 7876 H 736.229 -1.47993 4.61764 0
M  V30 7877 N 737.572 -1.44907 -0.619662 0
M  V30 7878 C 738.535 -1.52282 -1.71297 0
M  V30 7879 C 739.535 -0.40359 -1.55653 0
M  V30 7880 O 740.725 -0.666638 -1.6094 0
M  V30 7881 C 737.857 -1.40778 -3.10474 0
M  V30 7882 H 739.05 -2.49683 -1.66128 0
M  V30 7883 H 736.603 -1.32168 -0.834339 0
M  V30 7884 H 737.338 -0.445156 -3.2123 0
M  V30 7885 H 737.123 -2.21947 -3.23237 0
M  V30 7886 H 738.613 -1.48946 -3.90135 0
M  V30 7887 N 739.05 0.861098 -1.31996 0
M  V30 7888 C 740.278 1.6474 -1.25173 0
M  V30 7889 C 740.693 1.87926 0.181425 0
M  V30 7890 O 740.05 1.4437 1.1164 0
M  V30 7891 C 740.101 3.01036 -2.0015 0
M  V30 7892 O 739.822 2.7888 -3.37872 0
M  V30 7893 C 741.323 3.95481 -2.00273 0
M  V30 7894 H 738.543 0.513314 -0.432146 0
M  V30 7895 H 741.087 1.07419 -1.74016 0
M  V30 7896 H 739.242 3.55021 -1.55046 0
M  V30 7897 H 739.656 3.65514 -3.76165 0
M  V30 7898 H 741.13 4.88403 -2.57229 0
M  V30 7899 H 741.607 4.27957 -0.987407 0
M  V30 7900 H 742.213 3.47433 -2.45296 0
M  V30 7901 N 740.528 1.15101 1.07655 0
M  V30 7902 C 741.939 0.933848 1.61667 0
M  V30 7903 C 742.29 -0.525569 1.8903 0
M  V30 7904 O 741.415 -1.39605 1.65346 0
M  V30 7905 C 742.01 1.68876 2.93711 0
M  V30 7906 C 740.569 1.51697 3.44478 0
M  V30 7907 C 739.716 1.70633 2.18586 0
M  V30 7908 H 742.667 1.30171 0.907816 0
M  V30 7909 H 742.688 1.15645 3.625 0
M  V30 7910 H 742.2 2.7509 2.73764 0
M  V30 7911 H 740.301 0.478635 3.69513 0
M  V30 7912 H 740.414 2.29194 4.20722 0
M  V30 7913 H 738.778 1.13259 2.28132 0
M  V30 7914 H 739.561 2.78206 2.01137 0
M  V30 7915 N 742.006 -1.2595 0.947325 0
M  V30 7916 C 742.936 -2.28521 0.479604 0
M  V30 7917 C 743.917 -1.63469 -0.470293 0
M  V30 7918 O 745.102 -1.90627 -0.370824 0
M  V30 7919 C 742.232 -3.46397 -0.250289 0
M  V30 7920 C 741.186 -4.23578 0.613643 0
M  V30 7921 C 740.512 -5.34131 -0.246568 0
M  V30 7922 C 741.812 -4.86979 1.88809 0
M  V30 7923 H 743.506 -2.67895 1.33688 0
M  V30 7924 H 741.052 -1.28783 0.644274 0
M  V30 7925 H 743.005 -4.17269 -0.588576 0
M  V30 7926 H 741.729 -3.05993 -1.14175 0
M  V30 7927 H 740.388 -3.54478 0.93491 0
M  V30 7928 H 740.036 -4.89968 -1.13756 0
M  V30 7929 H 739.736 -5.86683 0.328123 0
M  V30 7930 H 741.26 -6.07839 -0.579986 0
M  V30 7931 H 742.674 -5.50034 1.61666 0
M  V30 7932 H 741.071 -5.49675 2.40784 0
M  V30 7933 H 742.141 -4.09575 2.5957 0
M  V30 7934 N 743.484 -0.715051 -1.40445 0
M  V30 7935 C 744.416 -0.0227516 -2.29189 0
M  V30 7936 C 745.429 0.724313 -1.458 0
M  V30 7937 O 746.618 0.571781 -1.69094 0
M  V30 7938 C 743.718 0.992038 -3.24055 0
M  V30 7939 C 742.891 0.310613 -4.36296 0
M  V30 7940 C 741.95 1.23071 -5.11605 0
M  V30 7941 O 740.976 0.71571 -5.64682 0
M  V30 7942 N 742.178 2.56188 -5.2091 0
M  V30 7943 H 744.943 -0.78473 -2.89244 0
M  V30 7944 H 742.504 -0.562637 -1.51809 0
M  V30 7945 H 744.496 1.60973 -3.71308 0
M  V30 7946 H 743.066 1.65538 -2.65171 0
M  V30 7947 H 742.286 -0.487269 -3.91177 0
M  V30 7948 H 743.574 -0.162415 -5.08541 0
M  V30 7949 H 742.972 3.00527 -4.7927 0
M  V30 7950 H 741.529 3.13103 -5.71673 0
M  V30 7951 N 744.962 1.50701 -0.461195 0
M  V30 7952 C 745.91 2.29918 0.352231 0
M  V30 7953 C 746.904 1.36778 0.999403 0
M  V30 7954 O 748.11 1.54015 0.931639 0
M  V30 7955 H 744.485 0.740249 0.132423 0
M  V30 7956 H 746.456 2.96497 -0.336424 0
M  V30 7957 C 745.205 3.17052 1.42736 0
M  V30 7958 H 744.528 3.88623 0.938747 0
M  V30 7959 H 745.968 3.75493 1.96928 0
M  V30 7960 C 744.427 2.3399 2.42384 0
M  V30 7961 O 744.957 2.01608 3.47444 0
M  V30 7962 N 743.163 1.96758 2.13857 0
M  V30 7963 H 742.71 2.23292 1.28447 0
M  V30 7964 H 742.668 1.41484 2.80766 0
M  V30 7965 N 746.441 0.193421 1.56409 0
M  V30 7966 C 747.371 -0.723334 2.22014 0
M  V30 7967 C 748.352 -1.22254 1.1827 0
M  V30 7968 O 749.537 -1.27168 1.46771 0
M  V30 7969 C 746.667 -1.94366 2.87818 0
M  V30 7970 C 745.621 -1.57943 3.97791 0
M  V30 7971 C 744.947 -2.87623 4.50752 0
M  V30 7972 C 746.247 -0.790639 5.16281 0
M  V30 7973 H 747.941 -0.176426 2.9888 0
M  V30 7974 H 745.487 -0.0834166 1.43758 0
M  V30 7975 H 747.44 -2.5902 3.32396 0
M  V30 7976 H 746.164 -2.51507 2.08355 0
M  V30 7977 H 744.823 -0.956482 3.53903 0
M  V30 7978 H 744.471 -3.4285 3.68053 0
M  V30 7979 H 744.171 -2.63998 5.24956 0
M  V30 7980 H 745.695 -3.53268 4.9803 0
M  V30 7981 H 747.109 -1.34024 5.57414 0
M  V30 7982 H 745.506 -0.65258 5.96541 0
M  V30 7983 H 746.576 0.208633 4.84451 0
M  V30 7984 N 747.919 -1.57396 -0.0801906 0
M  V30 7985 C 748.851 -1.9982 -1.12271 0
M  V30 7986 C 749.864 -0.902902 -1.35468 0
M  V30 7987 O 751.053 -1.18088 -1.33856 0
M  V30 7988 C 748.153 -2.31476 -2.47532 0
M  V30 7989 C 747.326 -3.62745 -2.44407 0
M  V30 7990 C 746.385 -3.82168 -3.6171 0
M  V30 7991 O 745.411 -4.53852 -3.43522 0
M  V30 7992 N 746.613 -3.2388 -4.81749 0
M  V30 7993 H 749.378 -2.89864 -0.761501 0
M  V30 7994 H 746.939 -1.5965 -0.268965 0
M  V30 7995 H 748.931 -2.4165 -3.24634 0
M  V30 7996 H 747.501 -1.47364 -2.75686 0
M  V30 7997 H 746.721 -3.63403 -1.52747 0
M  V30 7998 H 748.009 -4.48954 -2.39412 0
M  V30 7999 H 747.407 -2.6568 -4.9943 0
M  V30 8000 H 745.964 -3.39515 -5.56392 0
M  V30 8001 N 749.397 0.351382 -1.53633 0
M  V30 8002 C 750.643 1.09411 -1.70754 0
M  V30 8003 C 750.976 1.88544 -0.465293 0
M  V30 8004 O 750.251 1.86923 0.537608 0
M  V30 8005 C 750.534 2.04173 -2.96623 0
M  V30 8006 C 750.387 1.28556 -4.31038 0
M  V30 8007 C 751.706 3.04102 -3.18136 0
M  V30 8008 H 748.825 0.396373 -0.621335 0
M  V30 8009 H 751.467 0.373464 -1.86293 0
M  V30 8010 H 749.617 2.65625 -2.83506 0
M  V30 8011 H 751.289 0.697786 -4.55992 0
M  V30 8012 H 749.532 0.587498 -4.29803 0
M  V30 8013 H 750.203 1.97989 -5.15271 0
M  V30 8014 H 752.679 2.5276 -3.30532 0
M  V30 8015 H 751.555 3.67616 -4.07615 0
M  V30 8016 H 751.816 3.75053 -2.34068 0
M  V30 8017 N 750.875 1.45233 0.611969 0
M  V30 8018 C 751.805 1.5641 1.73373 0
M  V30 8019 C 752.786 0.415896 1.64937 0
M  V30 8020 O 753.971 0.638478 1.83404 0
M  V30 8021 C 751.101 1.52627 3.11965 0
M  V30 8022 C 750.055 2.66119 3.35208 0
M  V30 8023 C 749.381 2.4739 4.74028 0
M  V30 8024 C 750.681 4.08157 3.25891 0
M  V30 8025 H 752.375 2.50307 1.64277 0
M  V30 8026 H 749.921 1.20467 0.788904 0
M  V30 8027 H 751.874 1.59043 3.90235 0
M  V30 8028 H 750.598 0.552564 3.21892 0
M  V30 8029 H 749.257 2.59123 2.59327 0
M  V30 8030 H 748.905 1.48168 4.80682 0
M  V30 8031 H 748.605 3.23494 4.90536 0
M  V30 8032 H 750.129 2.55653 5.54503 0
M  V30 8033 H 751.543 4.1642 3.9404 0
M  V30 8034 H 749.94 4.84617 3.5393 0
M  V30 8035 H 751.01 4.30374 2.23397 0
M  V30 8036 N 752.353 -0.854086 1.3245 0
M  V30 8037 C 753.316 -1.94427 1.21371 0
M  V30 8038 C 754.316 -1.60219 0.136613 0
M  V30 8039 O 755.506 -1.69846 0.387057 0
M  V30 8040 C 752.638 -3.29698 0.866701 0
M  V30 8041 H 753.831 -2.05679 2.18257 0
M  V30 8042 H 751.384 -1.04434 1.1629 0
M  V30 8043 H 752.119 -3.24145 -0.100319 0
M  V30 8044 H 751.904 -3.55903 1.64545 0
M  V30 8045 H 753.394 -4.09599 0.813515 0
M  V30 8046 N 753.831 -1.1567 -1.07043 0
M  V30 8047 C 755.056 -0.957946 -1.83952 0
M  V30 8048 C 755.481 0.488807 -1.81638 0
M  V30 8049 O 754.839 1.34869 -1.21162 0
M  V30 8050 C 754.887 -1.48064 -3.288 0
M  V30 8051 O 753.991 -0.681921 -4.06723 0
M  V30 8052 H 753.332 -0.341453 -0.569479 0
M  V30 8053 H 755.862 -1.53728 -1.35015 0
M  V30 8054 H 755.872 -1.49484 -3.7963 0
M  V30 8055 H 754.547 -2.53388 -3.29799 0
M  V30 8056 H 753.124 -0.737612 -3.65532 0
M  V30 8057 N 755.309 1.25446 -0.953992 0
M  V30 8058 C 756.534 1.97755 -0.625129 0
M  V30 8059 C 756.959 1.70437 0.795787 0
M  V30 8060 O 756.317 0.95992 1.53803 0
M  V30 8061 C 756.365 3.49463 -0.889251 0
M  V30 8062 O 755.469 4.12387 0.0322757 0
M  V30 8063 H 754.81 0.61998 -0.237742 0
M  V30 8064 H 757.34 1.59582 -1.28041 0
M  V30 8065 H 757.35 3.99772 -0.815263 0
M  V30 8066 H 756.025 3.68676 -1.92487 0
M  V30 8067 H 754.602 3.72782 -0.0938625 0
M  V30 8068 N 756.787 0.722489 1.40064 0
M  V30 8069 C 758.012 0.273446 2.05589 0
M  V30 8070 C 758.437 -1.07875 1.54093 0
M  V30 8071 O 757.795 -1.68095 0.679252 0
M  V30 8072 C 757.843 0.271023 3.5958 0
M  V30 8073 O 756.947 -0.745499 4.05606 0
M  V30 8074 H 756.288 0.126856 0.65177 0
M  V30 8075 H 758.818 0.984906 1.79334 0
M  V30 8076 H 758.828 0.111084 4.07849 0
M  V30 8077 H 757.503 1.25776 3.96425 0
M  V30 8078 H 756.08 -0.552719 3.68781 0
M  V30 8079 N 758.265 -1.50454 0.469181 0
M  V30 8080 C 759.228 -2.2703 -0.314643 0
M  V30 8081 C 760.228 -1.31734 -0.922111 0
M  V30 8082 O 761.418 -1.55176 -0.791588 0
M  V30 8083 C 758.55 -3.08616 -1.44806 0
M  V30 8084 H 759.743 -2.97769 0.356892 0
M  V30 8085 H 757.296 -1.54698 0.223191 0
M  V30 8086 H 758.031 -2.42369 -2.1547 0
M  V30 8087 H 757.816 -3.78647 -1.01829 0
M  V30 8088 H 759.306 -3.66536 -2.00103 0
M  V30 8089 N 759.743 -0.201713 -1.56304 0
M  V30 8090 C 760.691 0.733133 -2.20744 0
M  V30 8091 C 761.685 1.2148 -1.18064 0
M  V30 8092 O 762.891 1.17692 -1.36193 0
M  V30 8093 H 759.266 0.254789 -0.707521 0
M  V30 8094 H 761.237 0.165996 -2.97938 0
M  V30 8095 C 759.986 1.93925 -2.88597 0
M  V30 8096 H 759.309 1.5777 -3.67353 0
M  V30 8097 H 760.749 2.57158 -3.37114 0
M  V30 8098 C 759.208 2.78219 -1.89989 0
M  V30 8099 O 759.738 3.76353 -1.40432 0
M  V30 8100 N 757.944 2.43847 -1.58072 0
M  V30 8101 H 757.491 1.64103 -1.98565 0
M  V30 8102 H 757.449 3.0053 -0.923524 0
M  V30 8103 N 761.222 1.57436 0.0718424 0
M  V30 8104 C 762.132 2.07039 1.10326 0
M  V30 8105 C 763.148 0.999918 1.424 0
M  V30 8106 O 764.324 1.31462 1.52577 0
M  V30 8107 C 761.389 2.50439 2.39752 0
M  V30 8108 C 760.45 3.71784 2.14651 0
M  V30 8109 C 759.683 4.13104 3.37906 0
M  V30 8110 O 759.906 3.54298 4.47023 0
M  V30 8111 O 758.84 5.05894 3.26121 0
M  V30 8112 H 762.666 2.95239 0.711872 0
M  V30 8113 H 760.251 1.46638 0.28597 0
M  V30 8114 H 762.133 2.78876 3.15921 0
M  V30 8115 H 760.808 1.65368 2.78271 0
M  V30 8116 H 759.715 3.48431 1.36187 0
M  V30 8117 H 761.048 4.57707 1.81012 0
M  V30 8118 N 762.7 -0.34323 1.53817 0
M  V30 8119 C 763.94 -1.09188 1.72793 0
M  V30 8120 C 764.304 -1.85876 0.481062 0
M  V30 8121 O 765.505 -2.63158 0.547851 0
M  V30 8122 C 763.776 -2.00783 2.9567 0
M  V30 8123 S 765.335 -2.82866 3.35459 0
M  V30 8124 H 762.153 -0.368926 0.607795 0
M  V30 8125 H 764.755 -0.370265 1.91962 0
M  V30 8126 H 763.459 -1.43245 3.84589 0
M  V30 8127 H 762.99 -2.77381 2.78968 0
M  V30 8128 H 765.005 -4.03196 2.89218 0
M  V30 8129 N 764.178 -1.45556 -0.604258 0
M  V30 8130 C 765.427 -1.49019 -1.35928 0
M  V30 8131 C 765.74 -0.137409 -1.95117 0
M  V30 8132 O 766.946 -0.0497032 -2.71455 0
M  V30 8133 C 765.402 -2.62477 -2.46239 0
M  V30 8134 C 765.01 -4.04082 -1.93447 0
M  V30 8135 C 766.754 -2.7519 -3.23219 0
M  V30 8136 C 764.661 -5.08917 -3.0126 0
M  V30 8137 H 763.591 -0.554518 -0.510907 0
M  V30 8138 H 766.242 -1.71705 -0.647262 0
M  V30 8139 H 764.624 -2.3308 -3.2014 0
M  V30 8140 H 765.798 -4.43173 -1.26232 0
M  V30 8141 H 764.113 -3.95849 -1.29201 0
M  V30 8142 H 766.71 -3.50683 -4.0364 0
M  V30 8143 H 767.053 -1.81941 -3.74437 0
M  V30 8144 H 767.586 -3.04129 -2.56418 0
M  V30 8145 H 764.325 -6.03886 -2.54955 0
M  V30 8146 H 763.845 -4.74393 -3.67031 0
M  V30 8147 H 765.524 -5.33814 -3.65584 0
M  V30 8148 N 765.656 0.84705 -1.32902 0
M  V30 8149 C 766.881 1.63925 -1.27056 0
M  V30 8150 C 767.306 1.87443 0.157136 0
M  V30 8151 O 766.664 1.43266 1.11106 0
M  V30 8152 C 766.712 2.97134 -2.04313 0
M  V30 8153 O 765.816 3.88049 -1.39614 0
M  V30 8154 H 765.157 0.499477 -0.437514 0
M  V30 8155 H 767.687 1.05443 -1.75336 0
M  V30 8156 H 767.697 3.46896 -2.14772 0
M  V30 8157 H 766.372 2.79339 -3.08128 0
M  V30 8158 H 764.949 3.46525 -1.3775 0
M  V30 8159 N 767.134 1.16236 1.06428 0
M  V30 8160 C 768.38 0.944431 1.79467 0
M  V30 8161 C 768.713 -0.526558 1.86925 0
M  V30 8162 O 767.988 -1.39061 1.35986 0
M  V30 8163 C 768.271 1.57092 3.24028 0
M  V30 8164 C 768.124 3.11315 3.24658 0
M  V30 8165 C 769.443 1.26447 4.21544 0
M  V30 8166 H 766.562 0.344521 0.651517 0
M  V30 8167 H 769.204 1.43545 1.24478 0
M  V30 8168 H 767.354 1.15337 3.70985 0
M  V30 8169 H 769.026 3.62042 2.85873 0
M  V30 8170 H 767.269 3.44716 2.6335 0
M  V30 8171 H 767.94 3.50269 4.26633 0
M  V30 8172 H 770.416 1.62581 3.83023 0
M  V30 8173 H 769.292 1.72885 5.20963 0
M  V30 8174 H 769.553 0.183068 4.41721 0
M  V30 8175 N 768.612 -1.24939 0.960631 0
M  V30 8176 C 769.559 -2.25658 0.484459 0
M  V30 8177 C 770.529 -1.59422 -0.466242 0
M  V30 8178 O 771.714 -1.87015 -0.378169 0
M  V30 8179 C 768.854 -3.44359 -0.225958 0
M  V30 8180 C 767.967 -4.25214 0.762682 0
M  V30 8181 C 767.102 -5.31192 0.0290931 0
M  V30 8182 C 766.141 -6.03739 1.00827 0
M  V30 8183 N 765.278 -7.01437 0.305155 0
M  V30 8184 H 770.118 -2.65758 1.34821 0
M  V30 8185 H 767.655 -1.30648 0.675983 0
M  V30 8186 H 769.613 -4.12035 -0.654472 0
M  V30 8187 H 768.243 -3.05118 -1.05371 0
M  V30 8188 H 767.295 -3.57144 1.30966 0
M  V30 8189 H 768.607 -4.75406 1.50964 0
M  V30 8190 H 767.761 -6.04971 -0.457763 0
M  V30 8191 H 766.5 -4.81889 -0.750614 0
M  V30 8192 H 765.505 -5.2877 1.50607 0
M  V30 8193 H 766.73 -6.55131 1.7883 0
M  V30 8194 H 764.676 -6.54415 -0.455704 0
M  V30 8195 H 764.593 -7.49475 0.991104 0
M  V30 8196 H 765.861 -7.79336 -0.159966 0
M  V30 8197 N 770.09 -0.729906 -1.39679 0
M  V30 8198 C 771.338 -0.275077 -2.00219 0
M  V30 8199 C 771.659 1.1401 -1.58199 0
M  V30 8200 O 770.929 1.77546 -0.827904 0
M  V30 8201 H 769.509 -0.0987127 -0.740449 0
M  V30 8202 H 772.171 -0.93873 -1.70804 0
M  V30 8203 H 771.267 -0.319446 -3.10461 0
M  V30 8204 N 771.568 1.50203 -0.477153 0
M  V30 8205 C 772.984 1.59056 -0.131663 0
M  V30 8206 C 773.184 1.48473 1.36227 0
M  V30 8207 O 772.24 1.34635 2.13611 0
M  V30 8208 C 773.553 2.92741 -0.687254 0
M  V30 8209 C 775.101 3.0615 -0.651223 0
M  V30 8210 C 775.576 4.42419 -1.18446 0
M  V30 8211 N 777.067 4.48847 -1.14413 0
M  V30 8212 C 777.802 5.52689 -1.52717 0
M  V30 8213 N 777.298 6.63754 -1.98499 0
M  V30 8214 N 779.091 5.43267 -1.44282 0
M  V30 8215 H 771.242 1.55325 -1.44872 0
M  V30 8216 H 773.505 0.734395 -0.599473 0
M  V30 8217 H 773.211 3.0598 -1.73405 0
M  V30 8218 H 773.085 3.76961 -0.134215 0
M  V30 8219 H 775.472 2.92556 0.386677 0
M  V30 8220 H 775.553 2.23673 -1.24114 0
M  V30 8221 H 775.197 4.56763 -2.22103 0
M  V30 8222 H 775.127 5.23498 -0.570709 0
M  V30 8223 H 777.618 3.69152 -0.808416 0
M  V30 8224 H 777.931 7.39059 -2.25859 0
M  V30 8225 H 776.276 6.64858 -2.02456 0
M  V30 8226 H 779.467 4.55387 -1.08352 0
M  V30 8227 H 779.64 6.24074 -1.74459 0
M  V30 8228 N 773.046 0.209999 1.56195 0
M  V30 8229 C 774.295 -0.425106 1.97169 0
M  V30 8230 C 774.608 -1.61718 1.10031 0
M  V30 8231 O 775.814 -2.32105 1.40853 0
M  V30 8232 C 774.27 -0.80771 3.50719 0
M  V30 8233 C 773.878 0.360902 4.46544 0
M  V30 8234 C 775.622 -1.40906 4.00432 0
M  V30 8235 C 773.529 -0.0434919 5.91384 0
M  V30 8236 H 772.459 -0.162598 0.736259 0
M  V30 8237 H 775.11 0.304382 1.80958 0
M  V30 8238 H 773.492 -1.59429 3.62489 0
M  V30 8239 H 774.666 1.13846 4.46515 0
M  V30 8240 H 772.981 0.874729 4.07109 0
M  V30 8241 H 775.578 -1.72433 5.06133 0
M  V30 8242 H 775.921 -2.32081 3.45607 0
M  V30 8243 H 776.454 -0.686154 3.91838 0
M  V30 8244 H 773.193 0.834448 6.50167 0
M  V30 8245 H 772.713 -0.785598 5.94633 0
M  V30 8246 H 774.392 -0.474176 6.4526 0
M  V30 8247 N 774.524 -1.57472 -0.0634922 0
M  V30 8248 C 775.754 -1.91608 -0.772645 0
M  V30 8249 C 776.162 -0.805019 -1.71219 0
M  V30 8250 O 775.505 0.229941 -1.82255 0
M  V30 8251 C 775.567 -3.21281 -1.61304 0
M  V30 8252 C 775.231 -4.49177 -0.841973 0
M  V30 8253 C 776.228 -5.19661 -0.157494 0
M  V30 8254 C 773.913 -4.9578 -0.80669 0
M  V30 8255 C 775.907 -6.35006 0.551948 0
M  V30 8256 C 773.594 -6.11028 -0.0934812 0
M  V30 8257 C 774.592 -6.80493 0.58463 0
M  V30 8258 O 774.28 -7.93542 1.28633 0
M  V30 8259 H 774.012 -0.637685 -0.224352 0
M  V30 8260 H 776.566 -2.05369 -0.0355279 0
M  V30 8261 H 774.796 -3.03752 -2.39315 0
M  V30 8262 H 776.485 -3.41003 -2.20162 0
M  V30 8263 H 777.251 -4.84681 -0.176006 0
M  V30 8264 H 773.13 -4.41579 -1.32397 0
M  V30 8265 H 776.674 -6.89161 1.0818 0
M  V30 8266 H 772.571 -6.45459 -0.0729258 0
M  V30 8267 H 773.339 -8.09708 1.19646 0
M  V30 8268 N 776.003 0.335068 -1.53997 0
M  V30 8269 C 777.228 1.09859 -1.75914 0
M  V30 8270 C 777.653 1.81308 -0.500915 0
M  V30 8271 O 777.011 1.72854 0.54693 0
M  V30 8272 C 777.059 2.08122 -2.94478 0
M  V30 8273 O 776.163 3.15805 -2.65219 0
M  V30 8274 H 775.504 0.317313 -0.583274 0
M  V30 8275 H 778.034 0.382872 -2.00986 0
M  V30 8276 H 778.044 2.51195 -3.21504 0
M  V30 8277 H 776.719 1.55517 -3.8573 0
M  V30 8278 H 775.296 2.77489 -2.49107 0
M  V30 8279 N 777.481 1.45874 0.596531 0
M  V30 8280 C 778.73 1.49737 1.35135 0
M  V30 8281 C 779.043 0.147755 1.95041 0
M  V30 8282 O 780.249 0.0640984 2.71424 0
M  V30 8283 C 778.705 2.6378 2.44843 0
M  V30 8284 C 778.313 4.05102 1.91301 0
M  V30 8285 C 780.057 2.769 3.21755 0
M  V30 8286 C 777.964 5.10508 2.98557 0
M  V30 8287 H 776.894 0.557219 0.507959 0
M  V30 8288 H 779.545 1.72046 0.638147 0
M  V30 8289 H 777.927 2.34774 3.189 0
M  V30 8290 H 779.101 4.43836 1.2388 0
M  V30 8291 H 777.416 3.96528 1.271 0
M  V30 8292 H 780.013 3.52819 4.01775 0
M  V30 8293 H 780.356 1.83924 3.73467 0
M  V30 8294 H 780.889 3.05485 2.54802 0
M  V30 8295 H 777.628 6.0523 2.51749 0
M  V30 8296 H 777.148 4.76332 3.6451 0
M  V30 8297 H 778.827 5.35745 3.62748 0
M  V30 8298 N 778.959 -0.83999 1.33349 0
M  V30 8299 C 779.889 -1.965 1.26135 0
M  V30 8300 C 780.87 -1.69505 0.142152 0
M  V30 8301 O 782.055 -1.91346 0.331743 0
M  V30 8302 C 779.185 -3.32632 0.99866 0
M  V30 8303 C 778.139 -3.74021 2.08068 0
M  V30 8304 C 777.465 -5.07947 1.67014 0
M  V30 8305 C 778.765 -3.87925 3.49731 0
M  V30 8306 H 780.459 -2.02793 2.20262 0
M  V30 8307 H 778.005 -0.974297 1.06035 0
M  V30 8308 H 779.958 -4.10903 0.934696 0
M  V30 8309 H 778.682 -3.26593 0.0217759 0
M  V30 8310 H 777.341 -2.98012 2.13505 0
M  V30 8311 H 776.989 -4.98378 0.680316 0
M  V30 8312 H 776.689 -5.36611 2.39422 0
M  V30 8313 H 778.213 -5.88695 1.62082 0
M  V30 8314 H 779.627 -4.5651 3.46802 0
M  V30 8315 H 778.024 -4.28023 4.20614 0
M  V30 8316 H 779.094 -2.90407 3.88319 0
M  V30 8317 N 780.437 -1.16799 -1.0581 0
M  V30 8318 C 781.384 -0.87902 -2.13405 0
M  V30 8319 C 782.354 0.174541 -1.6518 0
M  V30 8320 O 783.539 0.0386843 -1.90761 0
M  V30 8321 C 780.679 -0.391616 -3.42871 0
M  V30 8322 C 779.792 -1.50857 -4.04804 0
M  V30 8323 C 778.927 -0.975682 -5.22163 0
M  V30 8324 C 777.966 -2.06851 -5.76089 0
M  V30 8325 N 777.103 -1.55085 -6.84758 0
M  V30 8326 H 781.943 -1.80043 -2.37463 0
M  V30 8327 H 779.48 -0.898083 -1.16503 0
M  V30 8328 H 781.438 -0.0906247 -4.17102 0
M  V30 8329 H 780.068 0.49284 -3.19016 0
M  V30 8330 H 779.12 -1.92542 -3.28073 0
M  V30 8331 H 780.432 -2.33305 -4.40874 0
M  V30 8332 H 779.586 -0.628165 -6.03439 0
M  V30 8333 H 778.325 -0.120566 -4.87551 0
M  V30 8334 H 777.33 -2.42467 -4.93447 0
M  V30 8335 H 778.555 -2.92768 -6.12751 0
M  V30 8336 H 776.501 -0.718345 -6.52055 0
M  V30 8337 H 776.418 -2.31145 -7.19797 0
M  V30 8338 H 777.686 -1.23206 -7.69702 0
M  V30 8339 N 781.915 1.24427 -0.967243 0
M  V30 8340 C 782.847 2.24641 -0.454856 0
M  V30 8341 C 783.86 1.56849 0.436152 0
M  V30 8342 O 785.049 1.76846 0.242401 0
M  V30 8343 C 782.149 3.36954 0.362672 0
M  V30 8344 C 781.322 4.34318 -0.518324 0
M  V30 8345 C 780.381 5.25638 0.243122 0
M  V30 8346 O 779.407 5.68043 -0.362791 0
M  V30 8347 N 780.609 5.59897 1.53282 0
M  V30 8348 H 783.374 2.69238 -1.31648 0
M  V30 8349 H 780.935 1.38464 -0.839015 0
M  V30 8350 H 782.927 3.95014 0.880094 0
M  V30 8351 H 781.497 2.91646 1.12522 0
M  V30 8352 H 780.717 3.74953 -1.21672 0
M  V30 8353 H 782.005 4.96338 -1.11919 0
M  V30 8354 H 781.403 5.27373 2.04682 0
M  V30 8355 H 779.96 6.20488 1.99594 0
M  V30 8356 N 783.393 0.737304 1.3929 0
M  V30 8357 C 784.642 0.283129 1.99703 0
M  V30 8358 C 784.955 -1.13677 1.59176 0
M  V30 8359 O 786.161 -1.69058 2.12442 0
M  V30 8360 C 784.617 0.455262 3.57009 0
M  V30 8361 C 784.225 1.88319 4.06497 0
M  V30 8362 C 785.969 0.0629786 4.24453 0
M  V30 8363 C 783.876 2.00475 5.56385 0
M  V30 8364 H 782.806 0.102106 0.747054 0
M  V30 8365 H 785.457 0.911515 1.5926 0
M  V30 8366 H 783.839 -0.242057 3.9526 0
M  V30 8367 H 785.013 2.61265 3.79575 0
M  V30 8368 H 783.328 2.2289 3.51723 0
M  V30 8369 H 785.925 0.132787 5.34535 0
M  V30 8370 H 786.268 -0.982128 4.04549 0
M  V30 8371 H 786.801 0.71154 3.91385 0
M  V30 8372 H 783.54 3.03182 5.81172 0
M  V30 8373 H 783.06 1.31969 5.85102 0
M  V30 8374 H 784.739 1.787 6.21832 0
M  V30 8375 N 784.871 -1.49948 0.485112 0
M  V30 8376 C 786.119 -2.01996 -0.0648775 0
M  V30 8377 C 786.44 -1.36819 -1.38945 0
M  V30 8378 O 785.71 -0.518163 -1.88923 0
M  V30 8379 H 784.29 -0.746513 -0.0269662 0
M  V30 8380 H 786.952 -1.84136 0.638733 0
M  V30 8381 H 786.048 -3.11418 -0.20617 0
M  V30 8382 N 786.349 -0.21828 -1.56081 0
M  V30 8383 C 787.574 0.422302 -2.03055 0
M  V30 8384 C 787.999 1.5279 -1.09713 0
M  V30 8385 O 787.357 1.81102 -0.0847187 0
M  V30 8386 C 787.405 0.934177 -3.48289 0
M  V30 8387 O 786.509 2.04574 -3.58083 0
M  V30 8388 H 785.85 0.0959764 -0.657027 0
M  V30 8389 H 788.38 -0.335958 -2.01823 0
M  V30 8390 H 788.39 1.24484 -3.88546 0
M  V30 8391 H 787.065 0.124963 -4.15712 0
M  V30 8392 H 785.642 1.74196 -3.29712 0
M  V30 8393 N 787.827 1.57504 0.0551401 0
M  V30 8394 C 789.075 1.87684 0.74962 0
M  V30 8395 C 789.396 0.812547 1.77264 0
M  V30 8396 O 788.666 -0.15694 1.9527 0
M  V30 8397 H 787.246 0.6926 0.279846 0
M  V30 8398 H 789.908 1.94881 0.0272745 0
M  V30 8399 H 789.004 2.85734 1.25548 0
M  V30 8400 N 789.305 -0.326896 1.54172 0
M  V30 8401 C 790.553 -1.06313 1.71878 0
M  V30 8402 C 790.874 -1.88652 0.493498 0
M  V30 8403 O 790.144 -1.89608 -0.492522 0
M  V30 8404 H 788.724 -0.39549 0.633716 0
M  V30 8405 H 791.386 -0.364139 1.91468 0
M  V30 8406 H 790.482 -1.73105 2.59694 0
M  V30 8407 N 790.784 -1.46188 -0.588786 0
M  V30 8408 C 792.009 -1.5498 -1.37826 0
M  V30 8409 C 792.434 -0.189498 -1.87143 0
M  V30 8410 O 791.792 0.829293 -1.61222 0
M  V30 8411 C 791.84 -2.55369 -2.54596 0
M  V30 8412 O 790.944 -2.08452 -3.55839 0
M  V30 8413 H 790.285 -0.521741 -0.41071 0
M  V30 8414 H 792.815 -1.91708 -0.714779 0
M  V30 8415 H 792.825 -2.74782 -3.01594 0
M  V30 8416 H 791.5 -3.54155 -2.18052 0
M  V30 8417 H 790.077 -1.98999 -3.15363 0
M  V30 8418 N 792.262 0.832906 -1.33792 0
M  V30 8419 C 793.487 1.62568 -1.28788 0
M  V30 8420 C 793.912 1.87599 0.137246 0
M  V30 8421 O 793.27 1.44436 1.0958 0
M  V30 8422 C 793.318 2.9495 -2.07453 0
M  V30 8423 O 792.422 3.86546 -1.43722 0
M  V30 8424 H 791.763 0.494809 -0.442787 0
M  V30 8425 H 794.293 1.03578 -1.76445 0
M  V30 8426 H 794.303 3.44599 -2.1844 0
M  V30 8427 H 792.978 2.76055 -3.11073 0
M  V30 8428 H 791.555 3.45044 -1.41417 0
M  V30 8429 N 793.74 1.17359 1.05189 0
M  V30 8430 C 794.687 0.890325 2.12936 0
M  V30 8431 C 795.657 -0.165779 1.65271 0
M  V30 8432 O 796.842 -0.0285672 1.90779 0
M  V30 8433 C 793.982 0.409793 3.42658 0
M  V30 8434 C 793.095 1.53002 4.03998 0
M  V30 8435 C 792.23 1.00336 5.21638 0
M  V30 8436 C 791.269 2.09903 5.74984 0
M  V30 8437 N 790.406 1.58714 6.83926 0
M  V30 8438 H 795.246 1.81299 2.36505 0
M  V30 8439 H 792.783 0.904249 1.16025 0
M  V30 8440 H 794.741 0.112743 4.17048 0
M  V30 8441 H 793.371 -0.475915 3.19272 0
M  V30 8442 H 792.423 1.9428 3.27047 0
M  V30 8443 H 793.735 2.3564 4.39631 0
M  V30 8444 H 792.889 0.660158 6.03098 0
M  V30 8445 H 791.628 0.14642 4.8748 0
M  V30 8446 H 790.633 2.45081 4.92154 0
M  V30 8447 H 791.858 2.96013 6.1119 0
M  V30 8448 H 789.804 0.752915 6.51665 0
M  V30 8449 H 789.721 2.34959 7.18561 0
M  V30 8450 H 790.989 1.27287 7.69037 0
M  V30 8451 N 795.218 -1.23913 0.973828 0
M  V30 8452 C 796.464 -1.92436 0.640026 0
M  V30 8453 C 796.797 -1.75875 -0.823512 0
M  V30 8454 O 796.072 -1.11563 -1.59323 0
M  V30 8455 C 796.355 -3.4526 1.0231 0
M  V30 8456 C 796.208 -3.70961 2.54378 0
M  V30 8457 C 797.527 -4.36495 0.562155 0
M  V30 8458 H 794.646 -0.698868 0.233992 0
M  V30 8459 H 797.288 -1.46163 1.21393 0
M  V30 8460 H 795.438 -3.84802 0.534751 0
M  V30 8461 H 797.11 -3.40941 3.10737 0
M  V30 8462 H 795.353 -3.15899 2.97305 0
M  V30 8463 H 796.024 -4.77912 2.76232 0
M  V30 8464 H 798.5 -4.04363 0.981333 0
M  V30 8465 H 797.376 -5.42142 0.858689 0
M  V30 8466 H 797.637 -4.38818 -0.537659 0
M  V30 8467 N 796.696 -0.74468 -1.38897 0
M  V30 8468 C 797.943 -0.296884 -2.00312 0
M  V30 8469 C 798.271 1.11878 -1.59102 0
M  V30 8470 O 797.526 1.7789 -0.815702 0
M  V30 8471 C 797.825 -0.357302 -3.55609 0
M  V30 8472 C 797.491 -1.72736 -4.16501 0
M  V30 8473 C 796.153 -2.10232 -4.32846 0
M  V30 8474 C 798.505 -2.62647 -4.50184 0
M  V30 8475 C 795.833 -3.3713 -4.80167 0
M  V30 8476 C 798.185 -3.88926 -4.98918 0
M  V30 8477 C 796.849 -4.26503 -5.1347 0
M  V30 8478 H 796.119 -0.108638 -0.732993 0
M  V30 8479 H 798.766 -0.953419 -1.66079 0
M  V30 8480 H 797.071 0.382805 -3.89925 0
M  V30 8481 H 798.768 0.0074596 -4.00999 0
M  V30 8482 H 795.358 -1.42585 -4.04187 0
M  V30 8483 H 799.542 -2.34945 -4.37166 0
M  V30 8484 H 794.798 -3.66174 -4.89619 0
M  V30 8485 H 798.972 -4.58745 -5.23952 0
M  V30 8486 H 796.599 -5.24896 -5.49898 0
M  V30 8487 N 798.174 1.49689 -0.493057 0
M  V30 8488 C 799.106 2.26867 0.326195 0
M  V30 8489 C 800.119 1.33083 0.937697 0
M  V30 8490 O 801.308 1.58427 0.822382 0
M  V30 8491 C 798.408 3.0519 1.4735 0
M  V30 8492 C 797.581 4.26491 0.970767 0
M  V30 8493 C 796.64 4.86926 1.99473 0
M  V30 8494 O 795.666 5.47221 1.56647 0
M  V30 8495 N 796.868 4.75871 3.32456 0
M  V30 8496 H 799.633 2.97816 -0.335547 0
M  V30 8497 H 797.194 1.58602 -0.325129 0
M  V30 8498 H 799.186 3.42496 2.15589 0
M  V30 8499 H 797.756 2.369 2.03954 0
M  V30 8500 H 796.976 3.94036 0.113529 0
M  V30 8501 H 798.264 5.05092 0.613156 0
M  V30 8502 H 797.662 4.2797 3.69944 0
M  V30 8503 H 796.219 5.17383 3.96431 0
M  V30 8504 N 799.652 0.226554 1.55963 0
M  V30 8505 C 800.898 -0.404387 1.98727 0
M  V30 8506 C 801.231 -1.59059 1.11418 0
M  V30 8507 O 800.506 -1.93729 0.172971 0
M  V30 8508 C 800.789 -0.834081 3.50307 0
M  V30 8509 C 800.642 0.356104 4.48388 0
M  V30 8510 C 801.961 -1.68845 4.06423 0
M  V30 8511 H 799.08 -0.145515 0.722492 0
M  V30 8512 H 801.722 0.323791 1.87221 0
M  V30 8513 H 799.872 -1.45454 3.60244 0
M  V30 8514 H 801.544 0.99432 4.50456 0
M  V30 8515 H 799.787 1.0027 4.22053 0
M  V30 8516 H 800.458 0.0124333 5.51999 0
M  V30 8517 H 802.934 -1.16489 3.99461 0
M  V30 8518 H 801.81 -1.958 5.1279 0
M  V30 8519 H 802.071 -2.65347 3.53615 0
M  V30 8520 N 801.13 -1.57531 -0.0467866 0
M  V30 8521 C 802.06 -2.08425 -1.05268 0
M  V30 8522 C 803.041 -0.982941 -1.38825 0
M  V30 8523 O 804.226 -1.25716 -1.48018 0
M  V30 8524 C 801.356 -2.54897 -2.35891 0
M  V30 8525 C 800.31 -3.69132 -2.16623 0
M  V30 8526 C 799.636 -4.01747 -3.52851 0
M  V30 8527 C 800.936 -4.98243 -1.56689 0
M  V30 8528 H 802.63 -2.92716 -0.62908 0
M  V30 8529 H 800.176 -1.40816 -0.301156 0
M  V30 8530 H 802.129 -2.8912 -3.06574 0
M  V30 8531 H 800.853 -1.67666 -2.80278 0
M  V30 8532 H 799.512 -3.35231 -1.48377 0
M  V30 8533 H 799.16 -3.11608 -3.94853 0
M  V30 8534 H 798.86 -4.78681 -3.4079 0
M  V30 8535 H 800.384 -4.38487 -4.24925 0
M  V30 8536 H 801.798 -5.30535 -2.17268 0
M  V30 8537 H 800.195 -5.79669 -1.55255 0
M  V30 8538 H 801.265 -4.81986 -0.530827 0
M  V30 8539 N 802.608 0.318715 -1.54344 0
M  V30 8540 C 803.556 1.41254 -1.84798 0
M  V30 8541 C 804.55 1.53325 -0.720256 0
M  V30 8542 O 805.756 1.55653 -0.903992 0
M  V30 8543 H 802.131 0.471468 -0.585851 0
M  V30 8544 H 804.102 1.12795 -2.7626 0
M  V30 8545 C 802.851 2.77395 -2.09637 0
M  V30 8546 H 802.174 2.68881 -2.95876 0
M  V30 8547 H 803.614 3.52987 -2.34896 0
M  V30 8548 C 802.073 3.24948 -0.889398 0
M  V30 8549 O 802.603 4.01573 -0.101063 0
M  V30 8550 N 800.809 2.82051 -0.699684 0
M  V30 8551 H 800.356 2.19858 -1.3424 0
M  V30 8552 H 800.314 3.1422 0.106368 0
M  V30 8553 N 804.086 1.46499 0.581025 0
M  V30 8554 C 804.996 1.59778 1.71779 0
M  V30 8555 C 806.012 0.481223 1.67213 0
M  V30 8556 O 807.188 0.74557 1.87091 0
M  V30 8557 C 804.253 1.58626 3.08283 0
M  V30 8558 C 803.314 2.81527 3.241 0
M  V30 8559 C 802.547 2.80421 4.54092 0
M  V30 8560 O 802.77 1.89262 5.38085 0
M  V30 8561 O 801.704 3.71984 4.73193 0
M  V30 8562 H 805.53 2.55918 1.63523 0
M  V30 8563 H 803.115 1.29311 0.748267 0
M  V30 8564 H 804.997 1.60686 3.89561 0
M  V30 8565 H 803.672 0.656467 3.16973 0
M  V30 8566 H 802.579 2.85021 2.42309 0
M  V30 8567 H 803.912 3.73721 3.20302 0
M  V30 8568 N 805.565 -0.825799 1.34232 0
M  V30 8569 C 806.512 -1.93651 1.2557 0
M  V30 8570 C 807.482 -1.65578 0.131536 0
M  V30 8571 O 808.667 -1.88231 0.312027 0
M  V30 8572 C 805.807 -3.29862 1.01415 0
M  V30 8573 C 804.92 -3.70247 2.22579 0
M  V30 8574 C 804.055 -4.95392 1.91731 0
M  V30 8575 C 803.094 -5.28349 3.09053 0
M  V30 8576 N 802.231 -6.44671 2.78107 0
M  V30 8577 H 807.071 -2.00392 2.20561 0
M  V30 8578 H 804.608 -0.980441 1.09662 0
M  V30 8579 H 806.566 -4.08356 0.854485 0
M  V30 8580 H 805.196 -3.22642 0.100936 0
M  V30 8581 H 804.248 -2.87169 2.49476 0
M  V30 8582 H 805.56 -3.90575 3.10246 0
M  V30 8583 H 804.714 -5.81665 1.72484 0
M  V30 8584 H 803.453 -4.77059 1.0132 0
M  V30 8585 H 802.458 -4.40574 3.289 0
M  V30 8586 H 803.683 -5.48622 4.00239 0
M  V30 8587 H 801.629 -6.278 1.9027 0
M  V30 8588 H 801.546 -6.65158 3.59306 0
M  V30 8589 H 802.814 -7.34022 2.62358 0
M  V30 8590 N 807.043 -1.17915 -1.04565 0
M  V30 8591 C 807.99 -0.901605 -2.12461 0
M  V30 8592 C 808.96 0.157011 -1.65356 0
M  V30 8593 O 810.145 0.0184494 -1.90791 0
M  V30 8594 C 807.285 -0.42796 -3.42436 0
M  V30 8595 C 806.398 -1.55142 -4.03181 0
M  V30 8596 C 805.533 -1.03101 -5.21098 0
M  V30 8597 C 804.572 -2.1295 -5.73863 0
M  V30 8598 N 803.709 -1.62339 -6.83074 0
M  V30 8599 H 808.549 -1.82551 -2.3554 0
M  V30 8600 H 806.086 -0.910389 -1.15544 0
M  V30 8601 H 808.044 -0.134859 -4.16982 0
M  V30 8602 H 806.674 0.458977 -3.1952 0
M  V30 8603 H 805.726 -1.96011 -3.26012 0
M  V30 8604 H 807.038 -2.37968 -4.38375 0
M  V30 8605 H 806.192 -0.692132 -6.02739 0
M  V30 8606 H 804.931 -0.17227 -4.87396 0
M  V30 8607 H 803.936 -2.47687 -4.90847 0
M  V30 8608 H 805.161 -2.9925 -6.09611 0
M  V30 8609 H 803.107 -0.787464 -6.51256 0
M  V30 8610 H 803.024 -2.38767 -7.17305 0
M  V30 8611 H 804.292 -1.31363 -7.68351 0
M  V30 8612 N 808.521 1.23394 -0.980386 0
M  V30 8613 C 809.453 2.24146 -0.478657 0
M  V30 8614 C 810.466 1.57303 0.419492 0
M  V30 8615 O 811.655 1.77094 0.223631 0
M  V30 8616 C 808.755 3.3732 0.326913 0
M  V30 8617 C 807.928 4.33744 -0.56436 0
M  V30 8618 C 806.987 5.25866 0.187358 0
M  V30 8619 O 806.013 5.67626 -0.423019 0
M  V30 8620 N 807.215 5.61492 1.47335 0
M  V30 8621 H 809.98 2.67826 -1.34496 0
M  V30 8622 H 807.541 1.37566 -0.853653 0
M  V30 8623 H 809.533 3.95926 0.838148 0
M  V30 8624 H 808.103 2.92823 1.09422 0
M  V30 8625 H 807.323 3.73641 -1.25642 0
M  V30 8626 H 808.611 4.95123 -1.17177 0
M  V30 8627 H 808.009 5.29514 1.99077 0
M  V30 8628 H 806.566 6.2257 1.93002 0
M  V30 8629 N 809.999 0.752036 1.385 0
M  V30 8630 C 811.248 0.304294 1.99391 0
M  V30 8631 C 811.561 -1.11982 1.60373 0
M  V30 8632 O 812.767 -1.66795 2.14223 0
M  V30 8633 C 811.223 0.493101 3.56506 0
M  V30 8634 C 810.831 1.9262 4.04477 0
M  V30 8635 C 812.575 0.107994 4.24363 0
M  V30 8636 C 810.482 2.06365 5.54227 0
M  V30 8637 H 809.412 0.110024 0.745929 0
M  V30 8638 H 812.063 0.928355 1.58284 0
M  V30 8639 H 810.445 -0.20012 3.95494 0
M  V30 8640 H 811.619 2.65276 3.76783 0
M  V30 8641 H 809.934 2.26608 3.49339 0
M  V30 8642 H 812.531 0.189474 5.34364 0
M  V30 8643 H 812.874 -0.939165 4.05568 0
M  V30 8644 H 813.407 0.753011 3.90608 0
M  V30 8645 H 810.146 3.0933 5.77923 0
M  V30 8646 H 809.666 1.38167 5.83669 0
M  V30 8647 H 811.345 1.85286 6.19902 0
M  V30 8648 N 811.477 -1.49425 0.500989 0
M  V30 8649 C 812.707 -2.06561 -0.0402858 0
M  V30 8650 C 813.115 -1.36157 -1.31369 0
M  V30 8651 O 812.458 -0.433618 -1.78509 0
M  V30 8652 C 812.52 -3.5765 -0.364269 0
M  V30 8653 C 812.184 -4.49739 0.811417 0
M  V30 8654 C 813.181 -4.91255 1.7019 0
M  V30 8655 C 810.866 -4.92036 1.01022 0
M  V30 8656 C 812.86 -5.73806 2.77534 0
M  V30 8657 C 810.547 -5.74364 2.08683 0
M  V30 8658 C 811.545 -6.15154 2.96774 0
M  V30 8659 O 811.233 -6.95836 4.02577 0
M  V30 8660 H 810.965 -0.67578 0.0172357 0
M  V30 8661 H 813.519 -1.93193 0.697553 0
M  V30 8662 H 811.749 -3.69026 -1.1557 0
M  V30 8663 H 813.438 -3.97025 -0.844156 0
M  V30 8664 H 814.204 -4.59222 1.56013 0
M  V30 8665 H 810.083 -4.59789 0.333929 0
M  V30 8666 H 813.627 -6.05564 3.4632 0
M  V30 8667 H 809.524 -6.0581 2.22855 0
M  V30 8668 H 810.292 -7.14142 3.9993 0
M  V30 8669 N 812.955 -0.234822 -1.55841 0
M  V30 8670 C 813.918 0.656378 -2.196 0
M  V30 8671 C 814.918 1.11179 -1.16171 0
M  V30 8672 O 816.108 1.01845 -1.41326 0
M  V30 8673 C 813.24 1.90072 -2.82993 0
M  V30 8674 H 814.433 0.100281 -2.99732 0
M  V30 8675 H 811.986 0.0147613 -1.56293 0
M  V30 8676 H 812.721 2.49836 -2.06767 0
M  V30 8677 H 812.506 1.5825 -3.58747 0
M  V30 8678 H 813.996 2.53538 -3.31826 0
M  V30 8679 N 814.433 1.57553 0.0384317 0
M  V30 8680 C 815.682 1.88022 0.730108 0
M  V30 8681 C 815.995 0.83209 1.77019 0
M  V30 8682 O 817.201 1.0257 2.51379 0
M  V30 8683 C 815.657 3.33637 1.3496 0
M  V30 8684 C 815.265 4.46659 0.346352 0
M  V30 8685 C 817.009 3.73266 2.02169 0
M  V30 8686 C 814.916 5.8333 0.973652 0
M  V30 8687 H 813.846 0.701496 0.276442 0
M  V30 8688 H 816.497 1.83493 -0.0158028 0
M  V30 8689 H 814.879 3.32882 2.1449 0
M  V30 8690 H 816.053 4.58868 -0.421558 0
M  V30 8691 H 814.368 4.15802 -0.223133 0
M  V30 8692 H 816.965 4.72689 2.49938 0
M  V30 8693 H 817.308 3.04776 2.8358 0
M  V30 8694 H 817.841 3.76156 1.29427 0
M  V30 8695 H 814.58 6.55197 0.199163 0
M  V30 8696 H 814.1 5.7486 1.71162 0
M  V30 8697 H 815.779 6.29757 1.48376 0
M  V30 8698 N 815.911 -0.310526 1.54511 0
M  V30 8699 C 816.858 -1.38264 1.84802 0
M  V30 8700 C 817.828 -1.50808 0.696141 0
M  V30 8701 O 819.013 -1.6582 0.943846 0
M  V30 8702 C 816.153 -2.74422 2.09252 0
M  V30 8703 C 815.266 -2.70405 3.36906 0
M  V30 8704 C 814.401 -3.98495 3.51248 0
M  V30 8705 C 813.44 -3.88836 4.72729 0
M  V30 8706 N 812.577 -5.08683 4.83928 0
M  V30 8707 H 817.417 -1.11732 2.76261 0
M  V30 8708 H 814.954 -0.540609 1.36806 0
M  V30 8709 H 816.912 -3.53593 2.21422 0
M  V30 8710 H 815.542 -2.99235 1.2107 0
M  V30 8711 H 814.594 -1.83151 3.33406 0
M  V30 8712 H 815.906 -2.59155 4.26193 0
M  V30 8713 H 815.06 -4.861 3.63031 0
M  V30 8714 H 813.799 -4.12567 2.60077 0
M  V30 8715 H 812.804 -2.99615 4.60989 0
M  V30 8716 H 814.029 -3.76318 5.65298 0
M  V30 8717 H 811.975 -5.23236 3.95677 0
M  V30 8718 H 811.892 -4.99819 5.67201 0
M  V30 8719 H 813.16 -5.97966 5.00057 0
M  V30 8720 N 817.389 -1.46805 -0.573248 0
M  V30 8721 C 818.619 -1.55965 -1.35494 0
M  V30 8722 C 819.027 -0.203038 -1.88107 0
M  V30 8723 O 818.37 0.81138 -1.6481 0
M  V30 8724 C 818.432 -2.51168 -2.57206 0
M  V30 8725 C 818.096 -3.97211 -2.25993 0
M  V30 8726 C 819.093 -4.86155 -1.84254 0
M  V30 8727 C 816.778 -4.42419 -2.37846 0
M  V30 8728 C 818.772 -6.18323 -1.54776 0
M  V30 8729 C 816.459 -5.74619 -2.0798 0
M  V30 8730 C 817.457 -6.62392 -1.66511 0
M  V30 8731 O 817.145 -7.92137 -1.37016 0
M  V30 8732 H 816.877 -0.529748 -0.419932 0
M  V30 8733 H 819.431 -1.92998 -0.702914 0
M  V30 8734 H 817.661 -2.09171 -3.25245 0
M  V30 8735 H 819.35 -2.50631 -3.19279 0
M  V30 8736 H 820.116 -4.52481 -1.74603 0
M  V30 8737 H 815.995 -3.74319 -2.69085 0
M  V30 8738 H 819.539 -6.8679 -1.22334 0
M  V30 8739 H 815.436 -6.0784 -2.17258 0
M  V30 8740 H 816.204 -8.04492 -1.50782 0
M  V30 8741 N 818.867 0.818669 -1.34668 0
M  V30 8742 C 820.113 1.57746 -1.27453 0
M  V30 8743 C 820.446 1.93588 0.154077 0
M  V30 8744 O 819.721 1.60371 1.10051 0
M  V30 8745 C 820.004 2.87414 -2.16945 0
M  V30 8746 C 819.857 2.58125 -3.68363 0
M  V30 8747 C 821.176 3.89021 -2.05792 0
M  V30 8748 H 818.295 0.572339 -0.464324 0
M  V30 8749 H 820.937 0.942784 -1.64959 0
M  V30 8750 H 819.087 3.41576 -1.85089 0
M  V30 8751 H 820.759 2.10239 -4.10606 0
M  V30 8752 H 819.002 1.91503 -3.89242 0
M  V30 8753 H 819.673 3.5061 -4.26353 0
M  V30 8754 H 822.149 3.44224 -2.33771 0
M  V30 8755 H 821.025 4.77548 -2.70628 0
M  V30 8756 H 821.286 4.29786 -1.03618 0
M  V30 8757 N 820.346 1.18468 1.03938 0
M  V30 8758 C 821.294 0.909286 2.14091 0
M  V30 8759 C 822.288 -0.130928 1.68893 0
M  V30 8760 O 823.494 0.0173403 1.79992 0
M  V30 8761 H 819.869 0.27658 0.699291 0
M  V30 8762 H 821.84 1.84514 2.34515 0
M  V30 8763 C 820.589 0.452922 3.44737 0
M  V30 8764 H 819.912 1.24485 3.79926 0
M  V30 8765 H 821.352 0.299238 4.22943 0
M  V30 8766 C 819.811 -0.831435 3.26479 0
M  V30 8767 O 820.341 -1.89535 3.54174 0
M  V30 8768 N 818.547 -0.784545 2.79809 0
M  V30 8769 H 818.094 0.0814746 2.57471 0
M  V30 8770 H 818.052 -1.64431 2.67973 0
M  V30 8771 N 821.824 -1.22873 0.986916 0
M  V30 8772 C 822.754 -2.2688 0.552064 0
M  V30 8773 C 823.735 -1.64883 -0.418048 0
M  V30 8774 O 824.92 -1.9171 -0.30999 0
M  V30 8775 C 822.05 -3.47018 -0.139959 0
M  V30 8776 C 821.004 -4.21411 0.748091 0
M  V30 8777 C 820.33 -5.34645 -0.0765132 0
M  V30 8778 C 821.63 -4.80726 2.04206 0
M  V30 8779 H 823.324 -2.63507 1.42143 0
M  V30 8780 H 820.87 -1.26668 0.68492 0
M  V30 8781 H 822.823 -4.18931 -0.455527 0
M  V30 8782 H 821.547 -3.0947 -1.04382 0
M  V30 8783 H 820.206 -3.51325 1.04721 0
M  V30 8784 H 819.854 -4.93339 -0.981109 0
M  V30 8785 H 819.554 -5.85342 0.514606 0
M  V30 8786 H 821.078 -6.09377 -0.386313 0
M  V30 8787 H 822.492 -5.44612 1.79083 0
M  V30 8788 H 820.889 -5.41737 2.5815 0
M  V30 8789 H 821.959 -4.01109 2.72469 0
M  V30 8790 N 823.302 -0.75937 -1.38099 0
M  V30 8791 C 824.212 -0.13774 -2.34195 0
M  V30 8792 C 825.228 0.693985 -1.59561 0
M  V30 8793 O 826.404 0.616792 -1.91723 0
M  V30 8794 C 823.469 0.740535 -3.38699 0
M  V30 8795 C 822.53 -0.106225 -4.29169 0
M  V30 8796 C 821.763 0.730225 -5.28681 0
M  V30 8797 O 821.986 1.96796 -5.35376 0
M  V30 8798 O 820.92 0.145969 -6.01723 0
M  V30 8799 H 824.746 -0.931512 -2.89061 0
M  V30 8800 H 822.331 -0.520345 -1.40046 0
M  V30 8801 H 824.213 1.24232 -4.02672 0
M  V30 8802 H 822.888 1.51271 -2.8618 0
M  V30 8803 H 821.795 -0.654088 -3.68337 0
M  V30 8804 H 823.128 -0.841186 -4.84959 0
M  V30 8805 N 824.78 1.49157 -0.508906 0
M  V30 8806 C 825.69 2.33045 0.269656 0
M  V30 8807 C 826.706 1.45143 0.959662 0
M  V30 8808 O 827.882 1.78155 0.939295 0
M  V30 8809 C 824.947 3.20772 1.31554 0
M  V30 8810 C 824.008 4.24531 0.638131 0
M  V30 8811 C 823.241 5.08065 1.63418 0
M  V30 8812 O 823.464 4.93238 2.86483 0
M  V30 8813 O 822.398 5.90117 1.18516 0
M  V30 8814 H 826.224 3.00821 -0.417183 0
M  V30 8815 H 823.809 1.46938 -0.270119 0
M  V30 8816 H 825.691 3.75095 1.92047 0
M  V30 8817 H 824.366 2.55681 1.98516 0
M  V30 8818 H 823.273 3.74099 -0.00674357 0
M  V30 8819 H 824.606 4.92199 0.0108155 0
M  V30 8820 N 826.258 0.243083 1.55714 0
M  V30 8821 C 827.221 -0.644723 2.19945 0
M  V30 8822 C 828.221 -1.10562 1.16759 0
M  V30 8823 O 829.411 -1.01095 1.41865 0
M  V30 8824 C 826.543 -1.88569 2.83997 0
M  V30 8825 H 827.736 -0.0843839 2.99781 0
M  V30 8826 H 825.289 -0.00647246 1.56299 0
M  V30 8827 H 826.024 -2.48736 2.08089 0
M  V30 8828 H 825.809 -1.56345 3.59581 0
M  V30 8829 H 827.299 -2.51774 3.33166 0
M  V30 8830 N 827.736 -1.57571 -0.0300757 0
M  V30 8831 C 829.013 -1.80381 -0.756447 0
M  V30 8832 C 829.393 -0.840906 -1.93628 0
M  V30 8833 O 828.741 0.117143 -2.282 0
M  V30 8834 C 828.951 -3.2807 -1.19043 0
M  V30 8835 C 830.299 -3.93025 -1.60676 0
M  V30 8836 O 831.323 -3.32213 -1.28503 0
M  V30 8837 O 830.182 -5.00092 -2.20386 0
M  V30 8838 H 827.276 -0.741737 -0.365725 0
M  V30 8839 H 829.822 -1.69699 -0.00693177 0
M  V30 8840 H 828.594 -3.89748 -0.348128 0
M  V30 8841 H 828.217 -3.43637 -1.99999 0
M  V30 8842 N 829.214 0.302327 -1.54673 0
M  V30 8843 C 830.162 1.39286 -1.86285 0
M  V30 8844 C 831.156 1.52553 -0.736478 0
M  V30 8845 O 832.362 1.54686 -0.92045 0
M  V30 8846 H 828.737 0.465228 -0.590819 0
M  V30 8847 H 830.708 1.09859 -2.77441 0
M  V30 8848 C 829.457 2.75155 -2.12567 0
M  V30 8849 H 828.78 2.65728 -2.98712 0
M  V30 8850 H 830.22 3.50476 -2.38627 0
M  V30 8851 C 828.679 3.23987 -0.923813 0
M  V30 8852 O 829.209 4.01443 -0.143649 0
M  V30 8853 N 827.415 2.81293 -0.72956 0
M  V30 8854 H 826.962 2.18421 -1.36565 0
M  V30 8855 H 826.92 3.14315 0.0730351 0
M  V30 8856 N 830.692 1.47107 0.565454 0
M  V30 8857 C 831.624 1.55024 1.6882 0
M  V30 8858 C 832.637 0.4371 1.56822 0
M  V30 8859 O 833.826 0.706315 1.63931 0
M  V30 8860 C 830.926 1.43069 3.0722 0
M  V30 8861 C 830.099 2.68807 3.45053 0
M  V30 8862 C 829.158 2.50806 4.62583 0
M  V30 8863 O 828.184 3.24593 4.67577 0
M  V30 8864 N 829.386 1.58093 5.58558 0
M  V30 8865 H 832.151 2.51836 1.62477 0
M  V30 8866 H 829.712 1.43382 0.751885 0
M  V30 8867 H 831.704 1.28773 3.83666 0
M  V30 8868 H 830.274 0.543721 3.07835 0
M  V30 8869 H 829.494 2.97923 2.58138 0
M  V30 8870 H 830.782 3.52298 3.67101 0
M  V30 8871 H 830.18 0.972807 5.57273 0
M  V30 8872 H 828.737 1.49753 6.34364 0
M  V30 8873 N 832.17 -0.811516 1.35101 0
M  V30 8874 C 833.398 -1.59981 1.31201 0
M  V30 8875 C 833.813 -1.8847 -0.111552 0
M  V30 8876 O 833.17 -1.48414 -1.06205 0
M  V30 8877 C 833.221 -2.934 2.11184 0
M  V30 8878 O 832.942 -2.66148 3.4799 0
M  V30 8879 C 834.443 -3.87776 2.14813 0
M  V30 8880 H 831.663 -0.496921 0.450899 0
M  V30 8881 H 834.207 -1.00886 1.77883 0
M  V30 8882 H 832.362 -3.49022 1.68115 0
M  V30 8883 H 832.776 -3.51301 3.89471 0
M  V30 8884 H 834.25 -4.7852 2.75178 0
M  V30 8885 H 834.727 -4.23997 1.14556 0
M  V30 8886 H 835.333 -3.3809 2.58022 0
M  V30 8887 N 833.648 -1.19017 -1.03309 0
M  V30 8888 C 834.578 -0.94772 -2.13402 0
M  V30 8889 C 835.559 0.117383 -1.69694 0
M  V30 8890 O 836.744 -0.0367733 -1.94165 0
M  V30 8891 C 833.874 -0.480977 -3.43953 0
M  V30 8892 C 832.828 -1.48743 -4.01322 0
M  V30 8893 C 832.154 -0.877924 -5.27443 0
M  V30 8894 C 833.454 -2.86642 -4.36616 0
M  V30 8895 H 835.148 -1.86846 -2.33942 0
M  V30 8896 H 832.694 -0.899781 -1.12427 0
M  V30 8897 H 834.647 -0.298677 -4.2034 0
M  V30 8898 H 833.371 0.475348 -3.23122 0
M  V30 8899 H 832.03 -1.65681 -3.27025 0
M  V30 8900 H 831.678 0.0858232 -5.02927 0
M  V30 8901 H 831.378 -1.54996 -5.66789 0
M  V30 8902 H 832.902 -0.706326 -6.06501 0
M  V30 8903 H 834.316 -2.73312 -5.03958 0
M  V30 8904 H 832.713 -3.50599 -4.87032 0
M  V30 8905 H 833.783 -3.39617 -3.46105 0
M  V30 8906 N 835.127 1.22348 -0.993418 0
M  V30 8907 C 836.404 1.86632 -0.585495 0
M  V30 8908 C 836.784 1.89156 0.937187 0
M  V30 8909 O 836.132 1.38247 1.81934 0
M  V30 8910 C 836.342 3.27481 -1.20652 0
M  V30 8911 C 837.69 4.03971 -1.30738 0
M  V30 8912 O 838.714 3.3675 -1.16096 0
M  V30 8913 O 837.573 5.24302 -1.54173 0
M  V30 8914 H 834.667 0.802704 -0.198984 0
M  V30 8915 H 837.213 1.30122 -1.08933 0
M  V30 8916 H 835.985 3.20281 -2.24802 0
M  V30 8917 H 835.608 3.91597 -0.688312 0
M  V30 8918 N 836.605 0.766683 1.37694 0
M  V30 8919 C 837.83 0.338715 2.04615 0
M  V30 8920 C 838.255 -1.02918 1.57447 0
M  V30 8921 O 837.613 -1.65849 0.732386 0
M  V30 8922 C 837.661 0.385284 3.58536 0
M  V30 8923 O 836.765 -0.616081 4.07772 0
M  V30 8924 H 836.106 0.147527 0.647404 0
M  V30 8925 H 838.636 1.04146 1.7611 0
M  V30 8926 H 838.646 0.240782 4.07289 0
M  V30 8927 H 837.321 1.38325 3.92223 0
M  V30 8928 H 835.898 -0.435115 3.70353 0
M  V30 8929 N 838.083 -1.48885 0.516809 0
M  V30 8930 C 839.313 -2.06592 -0.018375 0
M  V30 8931 C 839.721 -1.37543 -1.29917 0
M  V30 8932 O 839.064 -0.452527 -1.78039 0
M  V30 8933 C 839.126 -3.58016 -0.326315 0
M  V30 8934 C 838.79 -4.48853 0.859072 0
M  V30 8935 C 839.787 -4.89422 1.75391 0
M  V30 8936 C 837.472 -4.90937 1.06235 0
M  V30 8937 C 839.466 -5.70831 2.83604 0
M  V30 8938 C 837.153 -5.72119 2.14763 0
M  V30 8939 C 838.151 -6.11972 3.03281 0
M  V30 8940 O 837.839 -6.91527 4.09934 0
M  V30 8941 H 837.571 -0.675559 0.0244023 0
M  V30 8942 H 840.125 -1.92442 0.718005 0
M  V30 8943 H 838.355 -3.70231 -1.1165 0
M  V30 8944 H 840.044 -3.97898 -0.801999 0
M  V30 8945 H 840.81 -4.57542 1.60875 0
M  V30 8946 H 836.689 -4.59409 0.382677 0
M  V30 8947 H 840.233 -6.01857 3.52724 0
M  V30 8948 H 836.13 -6.03412 2.29268 0
M  V30 8949 H 836.898 -7.0986 4.07482 0
M  V30 8950 N 839.561 -0.251338 -1.55583 0
M  V30 8951 C 840.977 0.103409 -1.59265 0
M  V30 8952 C 841.177 1.56559 -1.26852 0
M  V30 8953 O 840.233 2.31071 -1.01796 0
M  V30 8954 C 841.546 -0.249781 -2.99661 0
M  V30 8955 C 843.094 -0.194442 -3.12395 0
M  V30 8956 C 843.569 -0.521728 -4.55019 0
M  V30 8957 N 845.06 -0.472393 -4.60785 0
M  V30 8958 C 845.795 -0.698737 -5.69127 0
M  V30 8959 N 845.291 -0.988443 -6.85713 0
M  V30 8960 N 847.084 -0.629143 -5.58568 0
M  V30 8961 H 839.235 -1.20484 -1.74921 0
M  V30 8962 H 841.498 -0.485092 -0.814488 0
M  V30 8963 H 841.204 -1.26577 -3.28133 0
M  V30 8964 H 841.078 0.420973 -3.74844 0
M  V30 8965 H 843.465 0.812229 -2.83702 0
M  V30 8966 H 843.546 -0.899111 -2.39478 0
M  V30 8967 H 843.19 -1.52597 -4.84434 0
M  V30 8968 H 843.12 0.204468 -5.26203 0
M  V30 8969 H 845.611 -0.257386 -3.77022 0
M  V30 8970 H 845.924 -1.14846 -7.64219 0
M  V30 8971 H 844.269 -1.02596 -6.87386 0
M  V30 8972 H 847.46 -0.402826 -4.66364 0
M  V30 8973 H 847.633 -0.808935 -6.42931 0
M  V30 8974 N 841.039 1.57585 0.0217189 0
M  V30 8975 C 841.987 2.08134 1.03842 0
M  V30 8976 C 842.981 0.996662 1.36978 0
M  V30 8977 O 844.187 1.18149 1.35797 0
M  V30 8978 H 840.562 0.664298 0.352438 0
M  V30 8979 H 842.533 2.92583 0.58634 0
M  V30 8980 C 841.282 2.58218 2.32849 0
M  V30 8981 H 840.605 3.41302 2.08214 0
M  V30 8982 H 842.045 2.97289 3.02316 0
M  V30 8983 C 840.504 1.48664 3.02325 0
M  V30 8984 O 841.034 0.857075 3.9245 0
M  V30 8985 N 839.24 1.21938 2.63779 0
M  V30 8986 H 838.787 1.73319 1.90574 0
M  V30 8987 H 838.745 0.488523 3.10581 0
M  V30 8988 N 842.517 -0.29412 1.54831 0
M  V30 8989 C 843.427 -1.3854 1.89325 0
M  V30 8990 C 844.443 -1.55127 0.788133 0
M  V30 8991 O 845.619 -1.6966 1.08524 0
M  V30 8992 C 842.684 -2.72809 2.13954 0
M  V30 8993 C 841.745 -2.65148 3.37631 0
M  V30 8994 C 840.978 -3.93014 3.61076 0
M  V30 8995 O 841.201 -4.927 2.87406 0
M  V30 8996 O 840.135 -3.94491 4.54599 0
M  V30 8997 H 843.961 -1.12289 2.82179 0
M  V30 8998 H 841.546 -0.490793 1.41108 0
M  V30 8999 H 843.428 -3.52238 2.31315 0
M  V30 9000 H 842.103 -2.9889 1.24285 0
M  V30 9001 H 841.01 -1.84168 3.25627 0
M  V30 9002 H 842.343 -2.4402 4.27452 0
M  V30 9003 N 843.995 -1.47404 -0.557645 0
M  V30 9004 C 845.244 -1.53268 -1.31118 0
M  V30 9005 C 845.557 -0.199414 -1.94581 0
M  V30 9006 O 846.763 -0.136039 -2.71159 0
M  V30 9007 C 845.219 -2.70178 -2.37764 0
M  V30 9008 C 844.827 -4.10032 -1.80493 0
M  V30 9009 C 846.571 -2.85334 -3.14301 0
M  V30 9010 C 844.478 -5.18244 -2.84916 0
M  V30 9011 H 843.408 -0.570491 -0.493007 0
M  V30 9012 H 846.059 -1.73678 -0.592308 0
M  V30 9013 H 844.441 -2.43147 -3.12563 0
M  V30 9014 H 845.615 -4.46964 -1.12069 0
M  V30 9015 H 843.93 -3.99759 -1.16542 0
M  V30 9016 H 846.527 -3.63347 -3.92279 0
M  V30 9017 H 846.87 -1.93761 -3.68459 0
M  V30 9018 H 847.403 -3.12133 -2.46613 0
M  V30 9019 H 844.142 -6.11691 -2.35614 0
M  V30 9020 H 843.662 -4.85829 -3.51753 0
M  V30 9021 H 845.341 -5.45174 -3.48417 0
M  V30 9022 N 845.473 0.80434 -1.35529 0
M  V30 9023 C 846.436 1.89788 -1.28503 0
M  V30 9024 C 847.436 1.59601 -0.195983 0
M  V30 9025 O 848.626 1.68292 -0.449827 0
M  V30 9026 C 845.758 3.26255 -0.98847 0
M  V30 9027 H 846.951 1.97436 -2.25741 0
M  V30 9028 H 844.504 1.00046 -1.20086 0
M  V30 9029 H 845.239 3.24294 -0.0200541 0
M  V30 9030 H 845.024 3.49551 -1.77641 0
M  V30 9031 H 846.514 4.06298 -0.964975 0
M  V30 9032 N 846.951 1.19563 1.02676 0
M  V30 9033 C 848.181 1.0234 1.79472 0
M  V30 9034 C 848.589 -0.430891 1.84228 0
M  V30 9035 O 847.932 -1.31106 1.28674 0
M  V30 9036 C 847.994 1.51901 3.25832 0
M  V30 9037 C 847.658 3.00045 3.44706 0
M  V30 9038 C 848.655 3.9779 3.34752 0
M  V30 9039 C 846.34 3.38784 3.70851 0
M  V30 9040 C 848.334 5.32267 3.50672 0
M  V30 9041 C 846.021 4.73419 3.86416 0
M  V30 9042 C 847.019 5.69969 3.7633 0
M  V30 9043 O 846.707 7.02165 3.91432 0
M  V30 9044 H 846.439 0.360936 0.571578 0
M  V30 9045 H 848.993 1.58863 1.30198 0
M  V30 9046 H 847.223 0.897546 3.7614 0
M  V30 9047 H 848.912 1.30853 3.84229 0
M  V30 9048 H 849.678 3.69207 3.14502 0
M  V30 9049 H 845.557 2.64183 3.77794 0
M  V30 9050 H 849.101 6.07612 3.42715 0
M  V30 9051 H 844.998 5.01697 4.06165 0
M  V30 9052 H 845.766 7.09268 4.08511 0
M  V30 9053 N 848.429 -1.21819 0.999893 0
M  V30 9054 C 849.359 -2.26282 0.576096 0
M  V30 9055 C 850.34 -1.65317 -0.400537 0
M  V30 9056 O 851.525 -1.92028 -0.28964 0
M  V30 9057 C 848.655 -3.47147 -0.103145 0
M  V30 9058 C 847.609 -4.20594 0.792745 0
M  V30 9059 C 846.935 -5.34696 -0.0198026 0
M  V30 9060 C 848.235 -4.78533 2.09293 0
M  V30 9061 H 849.929 -2.61984 1.4493 0
M  V30 9062 H 847.475 -1.25935 0.698316 0
M  V30 9063 H 849.428 -4.1939 -0.411068 0
M  V30 9064 H 848.152 -3.1056 -1.01094 0
M  V30 9065 H 846.811 -3.50194 1.08442 0
M  V30 9066 H 846.459 -4.94352 -0.928729 0
M  V30 9067 H 846.159 -5.84764 0.576661 0
M  V30 9068 H 847.683 -6.09752 -0.321659 0
M  V30 9069 H 849.097 -5.42682 1.8485 0
M  V30 9070 H 847.494 -5.38968 2.63881 0
M  V30 9071 H 848.564 -3.98197 2.76708 0
M  V30 9072 N 849.908 -0.773975 -1.37286 0
M  V30 9073 C 850.856 -0.149581 -2.32119 0
M  V30 9074 C 851.85 0.682457 -1.55045 0
M  V30 9075 O 853.056 0.579269 -1.70424 0
M  V30 9076 H 849.431 -0.0295857 -0.751418 0
M  V30 9077 H 851.402 -0.965117 -2.82362 0
M  V30 9078 C 850.151 0.713409 -3.40302 0
M  V30 9079 H 849.474 0.0825416 -3.99715 0
M  V30 9080 H 850.914 1.11723 -4.09016 0
M  V30 9081 C 849.373 1.86498 -2.80571 0
M  V30 9082 O 849.903 2.9606 -2.71498 0
M  V30 9083 N 848.109 1.66629 -2.38082 0
M  V30 9084 H 847.656 0.775145 -2.45661 0
M  V30 9085 H 847.614 2.43845 -1.98461 0
M  V30 9086 N 851.386 1.48609 -0.524698 0
M  V30 9087 C 852.333 2.29539 0.240956 0
M  V30 9088 C 853.303 1.37033 0.938681 0
M  V30 9089 O 854.488 1.65996 0.940737 0
M  V30 9090 C 851.628 3.20278 1.28514 0
M  V30 9091 C 850.741 4.27858 0.596798 0
M  V30 9092 C 849.876 5.05784 1.62346 0
M  V30 9093 C 848.915 6.05173 0.918287 0
M  V30 9094 N 848.052 6.76176 1.89025 0
M  V30 9095 H 852.892 2.945 -0.455368 0
M  V30 9096 H 850.429 1.45188 -0.236403 0
M  V30 9097 H 852.387 3.71281 1.90279 0
M  V30 9098 H 851.017 2.57251 1.94992 0
M  V30 9099 H 850.069 3.80162 -0.134668 0
M  V30 9100 H 851.381 4.98782 0.0428506 0
M  V30 9101 H 850.535 5.60775 2.31553 0
M  V30 9102 H 849.274 4.34687 2.2113 0
M  V30 9103 H 848.279 5.49391 0.21212 0
M  V30 9104 H 849.504 6.78265 0.336633 0
M  V30 9105 H 847.45 6.07834 2.46726 0
M  V30 9106 H 847.367 7.43157 1.3876 0
M  V30 9107 H 848.635 7.35759 2.57446 0
M  V30 9108 N 852.864 0.259585 1.55447 0
M  V30 9109 C 853.794 -0.62852 2.24882 0
M  V30 9110 C 854.775 -1.17128 1.23349 0
M  V30 9111 O 855.96 -1.20829 1.52033 0
M  V30 9112 C 853.09 -1.81983 2.95803 0
M  V30 9113 C 852.044 -1.40929 4.04132 0
M  V30 9114 C 851.37 -2.68246 4.62545 0
M  V30 9115 C 852.67 -0.570956 5.1917 0
M  V30 9116 H 854.364 -0.0495021 2.99359 0
M  V30 9117 H 851.91 -0.0223688 1.43983 0
M  V30 9118 H 853.863 -2.44689 3.43082 0
M  V30 9119 H 852.587 -2.42444 2.18835 0
M  V30 9120 H 851.246 -0.805519 3.57641 0
M  V30 9121 H 850.894 -3.26931 3.82263 0
M  V30 9122 H 850.594 -2.41495 5.35681 0
M  V30 9123 H 852.118 -3.31827 5.12565 0
M  V30 9124 H 853.532 -1.10262 5.62597 0
M  V30 9125 H 851.929 -0.398979 5.98772 0
M  V30 9126 H 852.999 0.413918 4.8313 0
M  V30 9127 N 854.342 -1.57594 -0.0133615 0
M  V30 9128 C 855.274 -2.04402 -1.03695 0
M  V30 9129 C 856.287 -0.959546 -1.31516 0
M  V30 9130 O 857.476 -1.23659 -1.28727 0
M  V30 9131 C 854.576 -2.41766 -2.37491 0
M  V30 9132 C 853.749 -3.72785 -2.28802 0
M  V30 9133 C 852.808 -3.97165 -3.45176 0
M  V30 9134 O 851.834 -4.68013 -3.23963 0
M  V30 9135 N 853.036 -3.44021 -4.67579 0
M  V30 9136 H 855.801 -2.92833 -0.637874 0
M  V30 9137 H 853.362 -1.60647 -0.20101 0
M  V30 9138 H 855.354 -2.55201 -3.14093 0
M  V30 9139 H 853.924 -1.58924 -2.69188 0
M  V30 9140 H 853.144 -3.69555 -1.37197 0
M  V30 9141 H 854.432 -4.58704 -2.20154 0
M  V30 9142 H 853.83 -2.86623 -4.87713 0
M  V30 9143 H 852.387 -3.62808 -5.41492 0
M  V30 9144 N 855.82 0.285905 -1.54985 0
M  V30 9145 C 856.752 1.37505 -1.83371 0
M  V30 9146 C 857.765 1.46138 -0.717454 0
M  V30 9147 O 858.954 1.48186 -0.995142 0
M  V30 9148 C 856.054 2.7575 -1.97016 0
M  V30 9149 C 855.227 2.89866 -3.27561 0
M  V30 9150 C 854.286 4.08704 -3.31433 0
M  V30 9151 O 853.312 4.00073 -4.04883 0
M  V30 9152 N 854.514 5.20062 -2.57907 0
M  V30 9153 H 857.279 1.13505 -2.77375 0
M  V30 9154 H 854.84 0.476006 -1.54744 0
M  V30 9155 H 856.832 3.5352 -1.96991 0
M  V30 9156 H 855.402 2.9263 -1.09938 0
M  V30 9157 H 854.622 1.99085 -3.40234 0
M  V30 9158 H 855.91 2.96219 -4.13681 0
M  V30 9159 H 855.308 5.29958 -1.97891 0
M  V30 9160 H 853.865 5.96111 -2.63619 0
M  V30 9161 N 857.298 1.47698 0.54982 0
M  V30 9162 C 858.248 1.57145 1.65195 0
M  V30 9163 C 859.232 0.429839 1.55052 0
M  V30 9164 O 860.424 0.68018 1.63409 0
M  V30 9165 C 857.553 1.59573 3.0396 0
M  V30 9166 C 856.639 2.79144 3.19279 0
M  V30 9167 N 857.03 4.03769 3.04638 0
M  V30 9168 C 855.328 2.76061 3.50295 0
M  V30 9169 C 856.029 4.83887 3.22845 0
M  V30 9170 N 855.005 4.1634 3.49517 0
M  V30 9171 H 858.807 2.51266 1.52455 0
M  V30 9172 H 856.321 1.43795 0.754773 0
M  V30 9173 H 858.318 1.64431 3.83103 0
M  V30 9174 H 856.978 0.66553 3.17806 0
M  V30 9175 H 857.989 4.34515 2.81811 0
M  V30 9176 H 854.666 1.92211 3.70622 0
M  V30 9177 H 856.056 5.92724 3.1643 0
M  V30 9178 N 858.776 -0.797141 1.35954 0
M  V30 9179 C 860.001 -1.59097 1.33053 0
M  V30 9180 C 860.426 -1.87897 -0.0874592 0
M  V30 9181 O 859.784 -1.47291 -1.05712 0
M  V30 9182 C 859.832 -2.89346 2.152 0
M  V30 9183 O 858.936 -3.826 1.5392 0
M  V30 9184 H 858.277 -0.482895 0.45575 0
M  V30 9185 H 860.807 -0.988633 1.79129 0
M  V30 9186 H 860.817 -3.38686 2.27499 0
M  V30 9187 H 859.492 -2.6771 3.18283 0
M  V30 9188 H 858.069 -3.41174 1.50516 0
M  V30 9189 N 860.254 -1.20106 -1.0204 0
M  V30 9190 C 861.531 -0.918029 -1.72718 0
M  V30 9191 C 861.911 0.574163 -2.03142 0
M  V30 9192 O 861.259 1.53476 -1.69285 0
M  V30 9193 C 861.469 -1.78698 -2.9978 0
M  V30 9194 C 862.817 -2.02648 -3.7312 0
M  V30 9195 O 863.841 -1.75919 -3.09727 0
M  V30 9196 O 862.7 -2.47767 -4.87107 0
M  V30 9197 H 859.794 -0.342904 -0.752559 0
M  V30 9198 H 862.34 -1.30961 -1.07923 0
M  V30 9199 H 861.112 -2.79757 -2.7359 0
M  V30 9200 H 860.735 -1.39522 -3.72316 0
M  V30 9201 N 861.732 1.21287 -1.00634 0
M  V30 9202 C 862.679 2.23705 -0.567876 0
M  V30 9203 C 863.649 1.61043 0.406753 0
M  V30 9204 O 864.834 1.88289 0.308499 0
M  V30 9205 C 861.974 3.44961 0.097996 0
M  V30 9206 C 861.087 4.22091 -0.919972 0
M  V30 9207 C 860.222 5.30718 -0.226222 0
M  V30 9208 C 859.261 5.99581 -1.23165 0
M  V30 9209 N 858.398 6.99821 -0.565278 0
M  V30 9210 H 863.238 2.60571 -1.44592 0
M  V30 9211 H 860.775 1.28049 -0.724006 0
M  V30 9212 H 862.733 4.1418 0.501097 0
M  V30 9213 H 861.363 3.08818 0.939744 0
M  V30 9214 H 860.415 3.52038 -1.44131 0
M  V30 9215 H 861.727 4.69476 -1.68505 0
M  V30 9216 H 860.881 6.06253 0.232917 0
M  V30 9217 H 859.62 4.84343 0.571247 0
M  V30 9218 H 858.625 5.22816 -1.70128 0
M  V30 9219 H 859.85 6.48042 -2.03022 0
M  V30 9220 H 857.796 6.55656 0.212508 0
M  V30 9221 H 857.713 7.4528 -1.26858 0
M  V30 9222 H 858.981 7.79393 -0.129389 0
M  V30 9223 N 863.21 0.781244 1.36873 0
M  V30 9224 C 864.459 0.34652 1.98701 0
M  V30 9225 C 864.772 -1.08555 1.62712 0
M  V30 9226 O 865.978 -1.62213 2.17713 0
M  V30 9227 C 864.434 0.568611 3.5538 0
M  V30 9228 C 864.042 2.01156 4.003 0
M  V30 9229 C 865.786 0.197983 4.24038 0
M  V30 9230 C 863.693 2.18074 5.49725 0
M  V30 9231 H 862.623 0.125821 0.743428 0
M  V30 9232 H 865.274 0.961721 1.56279 0
M  V30 9233 H 863.656 -0.116185 3.9583 0
M  V30 9234 H 864.83 2.73209 3.71071 0
M  V30 9235 H 863.145 2.33967 3.44454 0
M  V30 9236 H 865.742 0.302778 5.33842 0
M  V30 9237 H 866.085 -0.852927 4.07469 0
M  V30 9238 H 866.618 0.835696 3.88923 0
M  V30 9239 H 863.357 3.21519 5.71232 0
M  V30 9240 H 862.877 1.50517 5.80607 0
M  V30 9241 H 864.556 1.98393 6.15832 0
M  V30 9242 N 864.689 -1.48329 0.532571 0
M  V30 9243 C 865.938 -2.017 -0.00259705 0
M  V30 9244 C 866.251 -1.41469 -1.35077 0
M  V30 9245 O 867.457 -1.86354 -1.97445 0
M  V30 9246 C 865.913 -3.59858 -0.0550179 0
M  V30 9247 C 865.521 -4.29073 1.28842 0
M  V30 9248 C 867.265 -4.21066 -0.538878 0
M  V30 9249 C 865.172 -5.79171 1.19644 0
M  V30 9250 H 864.102 -0.753985 -0.00474081 0
M  V30 9251 H 866.753 -1.70565 0.676739 0
M  V30 9252 H 865.135 -3.87846 -0.799486 0
M  V30 9253 H 866.309 -4.12755 2.04865 0
M  V30 9254 H 864.624 -3.79748 1.70822 0
M  V30 9255 H 867.221 -5.31026 -0.6257 0
M  V30 9256 H 867.564 -3.86559 -1.54525 0
M  V30 9257 H 868.097 -3.97517 0.149984 0
M  V30 9258 H 864.836 -6.18257 2.17805 0
M  V30 9259 H 864.356 -5.97895 0.477609 0
M  V30 9260 H 866.035 -6.40875 0.888186 0
M  V30 9261 N 866.167 -0.267825 -1.55308 0
M  V30 9262 C 867.583 0.0865107 -1.59365 0
M  V30 9263 C 867.783 1.55205 -1.28505 0
M  V30 9264 O 866.839 2.29978 -1.04241 0
M  V30 9265 C 868.152 -0.28155 -2.99379 0
M  V30 9266 C 869.7 -0.227565 -3.12172 0
M  V30 9267 C 870.175 -0.569959 -4.5444 0
M  V30 9268 N 871.666 -0.521238 -4.60258 0
M  V30 9269 C 872.401 -0.759061 -5.68354 0
M  V30 9270 N 871.897 -1.06112 -6.84626 0
M  V30 9271 N 873.69 -0.688351 -5.57869 0
M  V30 9272 H 865.841 -1.22332 -1.73633 0
M  V30 9273 H 868.104 -0.493703 -0.809297 0
M  V30 9274 H 867.81 -1.3005 -3.26772 0
M  V30 9275 H 867.684 0.381192 -3.75269 0
M  V30 9276 H 870.071 0.782093 -2.84548 0
M  V30 9277 H 870.152 -0.924461 -2.38511 0
M  V30 9278 H 869.796 -1.57727 -4.82788 0
M  V30 9279 H 869.726 0.148646 -5.2639 0
M  V30 9280 H 872.217 -0.297359 -3.76728 0
M  V30 9281 H 872.53 -1.22945 -7.62958 0
M  V30 9282 H 870.875 -1.09881 -6.86259 0
M  V30 9283 H 874.066 -0.452268 -4.6591 0
M  V30 9284 H 874.239 -0.877081 -6.42037 0
M  V30 9285 N 867.645 1.57599 0.00500368 0
M  V30 9286 C 868.575 2.11143 0.99705 0
M  V30 9287 C 869.556 1.0194 1.3617 0
M  V30 9288 O 870.741 1.29596 1.44632 0
M  V30 9289 C 867.871 2.61062 2.2905 0
M  V30 9290 C 866.825 3.74745 2.0676 0
M  V30 9291 C 866.151 4.10961 3.42075 0
M  V30 9292 C 867.451 5.02222 1.43424 0
M  V30 9293 H 869.145 2.94281 0.551251 0
M  V30 9294 H 866.691 1.41565 0.263715 0
M  V30 9295 H 868.644 2.97146 2.98801 0
M  V30 9296 H 867.368 1.75038 2.75734 0
M  V30 9297 H 866.027 3.39047 1.39436 0
M  V30 9298 H 865.675 3.21968 3.86453 0
M  V30 9299 H 865.375 4.87549 3.27979 0
M  V30 9300 H 866.899 4.49599 4.1315 0
M  V30 9301 H 868.313 5.36109 2.03125 0
M  V30 9302 H 866.71 5.83581 1.39831 0
M  V30 9303 H 867.78 4.83224 0.40285 0
M  V30 9304 N 869.123 -0.277682 1.55134 0
M  V30 9305 C 870.353 -1.02677 1.79279 0
M  V30 9306 C 870.761 -1.80599 0.563962 0
M  V30 9307 O 870.104 -1.77416 -0.476378 0
M  V30 9308 C 870.166 -2.03617 2.96277 0
M  V30 9309 C 869.83 -1.44676 4.33495 0
M  V30 9310 C 870.827 -0.864811 5.12657 0
M  V30 9311 C 868.512 -1.47537 4.80144 0
M  V30 9312 C 870.506 -0.319322 6.366 0
M  V30 9313 C 868.193 -0.926016 6.04043 0
M  V30 9314 C 869.191 -0.348988 6.82108 0
M  V30 9315 O 868.879 0.191964 8.03671 0
M  V30 9316 H 868.611 -0.309232 0.601125 0
M  V30 9317 H 871.165 -0.315308 2.02965 0
M  V30 9318 H 869.395 -2.78509 2.68272 0
M  V30 9319 H 871.084 -2.64616 3.07788 0
M  V30 9320 H 871.85 -0.835438 4.7775 0
M  V30 9321 H 867.729 -1.91389 4.19394 0
M  V30 9322 H 871.273 0.131709 6.97476 0
M  V30 9323 H 867.17 -0.952613 6.38432 0
M  V30 9324 H 867.938 0.0808779 8.1846 0
M  V30 9325 N 870.601 -1.47988 -0.541979 0
M  V30 9326 C 871.878 -1.45878 -1.30303 0
M  V30 9327 C 872.258 -0.163931 -2.10463 0
M  V30 9328 O 871.606 0.854479 -2.11922 0
M  V30 9329 C 871.816 -2.71359 -2.19466 0
M  V30 9330 C 873.164 -3.19199 -2.79995 0
M  V30 9331 O 874.188 -2.72193 -2.2976 0
M  V30 9332 O 873.047 -4.00961 -3.71339 0
M  V30 9333 H 870.141 -0.582043 -0.587498 0
M  V30 9334 H 872.687 -1.60207 -0.559623 0
M  V30 9335 H 871.459 -3.57122 -1.59936 0
M  V30 9336 H 871.082 -2.59692 -3.01075 0
M  V30 9337 N 872.079 0.78992 -1.36375 0
M  V30 9338 C 873.309 1.57644 -1.33536 0
M  V30 9339 C 873.717 1.89007 0.0855075 0
M  V30 9340 O 873.06 1.50547 1.05267 0
M  V30 9341 C 873.122 2.92424 -2.09113 0
M  V30 9342 C 872.786 2.83793 -3.58205 0
M  V30 9343 C 873.783 2.56072 -4.52464 0
M  V30 9344 C 871.468 3.02386 -4.01084 0
M  V30 9345 C 873.462 2.47044 -5.87578 0
M  V30 9346 C 871.149 2.9298 -5.36289 0
M  V30 9347 C 872.147 2.65347 -6.29349 0
M  V30 9348 O 871.835 2.55935 -7.62071 0
M  V30 9349 H 871.567 0.495639 -0.459694 0
M  V30 9350 H 874.121 0.988354 -1.80058 0
M  V30 9351 H 872.351 3.53282 -1.57254 0
M  V30 9352 H 874.04 3.53693 -1.99139 0
M  V30 9353 H 874.806 2.4141 -4.2065 0
M  V30 9354 H 870.685 3.229 -3.29023 0
M  V30 9355 H 874.229 2.25396 -6.60184 0
M  V30 9356 H 870.126 3.07204 -5.67711 0
M  V30 9357 H 870.894 2.7142 -7.72187 0
M  V30 9358 N 873.557 1.20646 1.01402 0
M  V30 9359 C 874.467 0.973385 2.13453 0
M  V30 9360 C 875.483 -0.0715865 1.73853 0
M  V30 9361 O 876.659 0.116438 2.01063 0
M  V30 9362 C 873.724 0.531285 3.42605 0
M  V30 9363 C 872.785 1.64741 3.96433 0
M  V30 9364 C 872.018 1.22631 5.1942 0
M  V30 9365 O 872.241 0.0960891 5.70319 0
M  V30 9366 O 871.175 2.03474 5.66465 0
M  V30 9367 H 875.001 1.91164 2.35987 0
M  V30 9368 H 872.586 0.990553 1.11841 0
M  V30 9369 H 874.468 0.294095 4.20373 0
M  V30 9370 H 873.143 -0.378358 3.21481 0
M  V30 9371 H 872.05 1.93891 3.19933 0
M  V30 9372 H 873.383 2.53415 4.2195 0
M  V30 9373 N 875.035 -1.20752 1.01276 0
M  V30 9374 C 876.284 -1.8934 0.695229 0
M  V30 9375 C 876.597 -1.79459 -0.77806 0
M  V30 9376 O 877.803 -2.43146 -1.20799 0
M  V30 9377 C 876.259 -3.39548 1.1931 0
M  V30 9378 C 875.867 -3.58023 2.69302 0
M  V30 9379 C 877.611 -4.13714 0.950823 0
M  V30 9380 C 875.518 -5.02037 3.1259 0
M  V30 9381 H 874.448 -0.709084 0.25635 0
M  V30 9382 H 877.099 -1.36629 1.22494 0
M  V30 9383 H 875.481 -3.91559 0.591395 0
M  V30 9384 H 876.655 -3.16416 3.34989 0
M  V30 9385 H 874.97 -2.97222 2.9163 0
M  V30 9386 H 877.567 -5.19891 1.24971 0
M  V30 9387 H 877.91 -4.16147 -0.112791 0
M  V30 9388 H 878.443 -3.67792 1.51571 0
M  V30 9389 H 875.182 -5.04757 4.18211 0
M  V30 9390 H 874.702 -5.44469 2.51621 0
M  V30 9391 H 876.381 -5.70594 3.0501 0
M  V30 9392 N 876.513 -0.788492 -1.36457 0
M  V30 9393 C 877.741 -0.372365 -2.03522 0
M  V30 9394 C 878.156 1.01093 -1.59454 0
M  V30 9395 O 877.513 1.64824 -0.783535 0
M  V30 9396 C 877.564 -0.425435 -3.58988 0
M  V30 9397 O 877.285 -1.75418 -4.01448 0
M  V30 9398 C 878.786 0.000180167 -4.433 0
M  V30 9399 H 876.006 -0.1536 -0.653183 0
M  V30 9400 H 878.55 -1.06708 -1.74452 0
M  V30 9401 H 876.705 0.220856 -3.8677 0
M  V30 9402 H 877.119 -1.70437 -4.96036 0
M  V30 9403 H 878.593 -0.0880919 -5.5193 0
M  V30 9404 H 879.07 1.05269 -4.26398 0
M  V30 9405 H 879.676 -0.618563 -4.20778 0
M  V30 9406 N 877.991 1.48044 -0.54043 0
M  V30 9407 C 879.268 1.95523 0.0547302 0
M  V30 9408 C 879.648 1.48284 1.5025 0
M  V30 9409 O 878.996 0.714037 2.17057 0
M  V30 9410 C 879.206 3.48923 -0.0733393 0
M  V30 9411 C 880.554 4.24523 0.0806026 0
M  V30 9412 O 881.578 3.562 -5.58687e-05 0
M  V30 9413 O 880.437 5.45922 0.251216 0
M  V30 9414 H 877.531 0.823728 0.073493 0
M  V30 9415 H 880.077 1.5852 -0.605768 0
M  V30 9416 H 878.849 3.76059 -1.08144 0
M  V30 9417 H 878.472 3.92648 0.625536 0
M  V30 9418 N 879.47 0.276058 1.55163 0
M  V30 9419 C 880.402 -0.644254 2.19959 0
M  V30 9420 C 881.415 -1.11675 1.18459 0
M  V30 9421 O 882.604 -1.0385 1.45181 0
M  V30 9422 C 879.704 -1.89093 2.81242 0
M  V30 9423 C 878.877 -1.56509 4.08441 0
M  V30 9424 C 877.936 -2.66433 4.53762 0
M  V30 9425 O 876.962 -2.32579 5.19515 0
M  V30 9426 N 878.164 -3.96509 4.23982 0
M  V30 9427 H 880.929 -0.0896808 2.99566 0
M  V30 9428 H 878.49 0.0971981 1.61608 0
M  V30 9429 H 880.482 -2.61929 3.08505 0
M  V30 9430 H 879.052 -2.35453 2.05622 0
M  V30 9431 H 878.272 -0.670522 3.88455 0
M  V30 9432 H 879.56 -1.32242 4.91314 0
M  V30 9433 H 878.958 -4.26834 3.71254 0
M  V30 9434 H 877.515 -4.6572 4.56014 0
M  V30 9435 N 880.948 -1.576 0.00335426 0
M  V30 9436 C 882.178 -1.94713 -0.690682 0
M  V30 9437 C 882.586 -0.876915 -1.67651 0
M  V30 9438 O 881.929 0.152434 -1.83066 0
M  V30 9439 C 881.991 -3.27833 -1.47532 0
M  V30 9440 C 881.655 -4.52344 -0.650704 0
M  V30 9441 C 882.652 -5.19862 0.0630537 0
M  V30 9442 C 880.337 -4.98755 -0.595687 0
M  V30 9443 C 882.331 -6.32093 0.820779 0
M  V30 9444 C 880.018 -6.10875 0.165761 0
M  V30 9445 C 881.016 -6.77401 0.872724 0
M  V30 9446 O 880.704 -7.87372 1.62174 0
M  V30 9447 H 880.436 -0.646627 -0.197104 0
M  V30 9448 H 882.99 -2.05335 0.0516082 0
M  V30 9449 H 881.22 -3.13628 -2.26217 0
M  V30 9450 H 882.909 -3.50034 -2.05501 0
M  V30 9451 H 883.675 -4.84991 0.0297223 0
M  V30 9452 H 879.554 -4.46797 -1.13549 0
M  V30 9453 H 883.098 -6.83953 1.37312 0
M  V30 9454 H 878.995 -6.45187 0.200901 0
M  V30 9455 H 879.763 -8.03905 1.5388 0
M  V30 9456 N 882.426 0.269451 -1.5528 0
M  V30 9457 C 883.675 0.998381 -1.75258 0
M  V30 9458 C 883.988 1.87321 -0.563034 0
M  V30 9459 O 885.194 2.63719 -0.645313 0
M  V30 9460 C 883.65 1.82505 -3.10193 0
M  V30 9461 C 883.258 0.99871 -4.36726 0
M  V30 9462 C 885.002 2.54807 -3.3952 0
M  V30 9463 C 882.909 1.81997 -5.627 0
M  V30 9464 H 881.839 0.376488 -0.653278 0
M  V30 9465 H 884.49 0.253909 -1.81735 0
M  V30 9466 H 882.872 2.61061 -2.97763 0
M  V30 9467 H 884.046 0.257064 -4.60082 0
M  V30 9468 H 882.361 0.390074 -4.14569 0
M  V30 9469 H 884.958 3.16662 -4.30847 0
M  V30 9470 H 885.301 3.25273 -2.59813 0
M  V30 9471 H 885.834 1.83278 -3.53064 0
M  V30 9472 H 882.573 1.15945 -6.45164 0
M  V30 9473 H 882.093 2.53749 -5.43481 0
M  V30 9474 H 883.772 2.39274 -6.0113 0
M  V30 9475 N 883.904 1.48273 0.534124 0
M  V30 9476 C 885.134 1.59503 1.31311 0
M  V30 9477 C 885.542 0.25284 1.87503 0
M  V30 9478 O 884.885 -0.767399 1.66903 0
M  V30 9479 C 884.947 2.57899 2.50456 0
M  V30 9480 C 884.611 4.03063 2.15382 0
M  V30 9481 C 885.608 4.90869 1.713 0
M  V30 9482 C 883.293 4.4857 2.26032 0
M  V30 9483 C 885.287 6.22209 1.38328 0
M  V30 9484 C 882.974 5.79932 1.92672 0
M  V30 9485 C 883.972 6.66574 1.4889 0
M  V30 9486 O 883.66 7.95492 1.15966 0
M  V30 9487 H 883.392 0.540695 0.405739 0
M  V30 9488 H 885.946 1.94794 0.651497 0
M  V30 9489 H 884.176 2.1772 3.19585 0
M  V30 9490 H 885.865 2.59008 3.12522 0
M  V30 9491 H 886.631 4.56951 1.62545 0
M  V30 9492 H 882.51 3.81321 2.59066 0
M  V30 9493 H 886.054 6.89792 1.04082 0
M  V30 9494 H 881.951 6.13386 2.01066 0
M  V30 9495 H 882.719 8.08207 1.29399 0
M  V30 9496 N 885.382 -0.782676 1.36792 0
M  V30 9497 C 886.315 -1.90241 1.2603 0
M  V30 9498 C 887.293 -1.61969 0.143055 0
M  V30 9499 O 888.477 -1.85843 0.315366 0
M  V30 9500 C 885.604 -3.25218 0.946082 0
M  V30 9501 C 884.65 -3.72414 2.0787 0
M  V30 9502 S 885.483 -3.87376 3.69729 0
M  V30 9503 C 886.639 -5.25219 3.40435 0
M  V30 9504 H 886.872 -1.99079 2.20805 0
M  V30 9505 H 884.405 -0.942625 1.22286 0
M  V30 9506 H 886.363 -4.03183 0.771612 0
M  V30 9507 H 885.024 -3.14096 0.0159991 0
M  V30 9508 H 884.217 -4.7024 1.81358 0
M  V30 9509 H 883.819 -3.01519 2.21274 0
M  V30 9510 H 886.111 -6.10025 2.94746 0
M  V30 9511 H 887.054 -5.56738 4.37549 0
M  V30 9512 H 887.462 -4.92638 2.75622 0
M  V30 9513 N 886.86 -1.21182 -1.00761 0
M  V30 9514 C 888.106 -1.02898 -1.74756 0
M  V30 9515 C 888.439 0.436774 -1.89225 0
M  V30 9516 O 887.714 1.32415 -1.42466 0
M  V30 9517 C 887.997 -1.72372 -3.16164 0
M  V30 9518 C 887.85 -3.2645 -3.09435 0
M  V30 9519 C 889.169 -1.46415 -4.15031 0
M  V30 9520 H 886.288 -0.375214 -0.634337 0
M  V30 9521 H 888.93 -1.49321 -1.17487 0
M  V30 9522 H 887.08 -1.32906 -3.65059 0
M  V30 9523 H 888.752 -3.75269 -2.68274 0
M  V30 9524 H 886.995 -3.56889 -2.46603 0
M  V30 9525 H 887.666 -3.70226 -4.09435 0
M  V30 9526 H 890.142 -1.80671 -3.7483 0
M  V30 9527 H 889.018 -1.97544 -5.12121 0
M  V30 9528 H 889.279 -0.39361 -4.40344 0
M  V30 9529 N 888.338 1.20213 -1.01915 0
M  V30 9530 C 889.271 2.2181 -0.536243 0
M  V30 9531 C 890.249 1.57144 0.417689 0
M  V30 9532 O 891.433 1.85461 0.337088 0
M  V30 9533 C 888.56 3.37989 0.219303 0
M  V30 9534 C 887.606 4.2097 -0.684571 0
M  V30 9535 S 888.439 4.90216 -2.15519 0
M  V30 9536 C 889.595 6.09814 -1.40988 0
M  V30 9537 H 889.828 2.62429 -1.39709 0
M  V30 9538 H 887.361 1.30305 -0.828254 0
M  V30 9539 H 889.319 4.05335 0.649112 0
M  V30 9540 H 887.98 2.95825 1.05575 0
M  V30 9541 H 887.173 5.03897 -0.101833 0
M  V30 9542 H 886.775 3.58892 -1.05227 0
M  V30 9543 H 889.067 6.73964 -0.691243 0
M  V30 9544 H 890.01 6.72552 -2.21539 0
M  V30 9545 H 890.418 5.5709 -0.911645 0
M  V30 9546 N 889.816 0.795718 1.36037 0
M  V30 9547 C 890.726 0.199784 2.33748 0
M  V30 9548 C 891.742 -0.651436 1.61345 0
M  V30 9549 O 892.918 -0.565743 1.93291 0
M  V30 9550 C 889.983 -0.650475 3.40543 0
M  V30 9551 C 889.044 0.219974 4.28736 0
M  V30 9552 C 888.277 -0.589798 5.30431 0
M  V30 9553 O 888.5 -1.82532 5.40406 0
M  V30 9554 O 887.434 0.0136187 6.01898 0
M  V30 9555 H 891.26 1.00782 2.8649 0
M  V30 9556 H 888.845 0.557293 1.38617 0
M  V30 9557 H 890.727 -1.13512 4.05824 0
M  V30 9558 H 889.402 -1.4363 2.9009 0
M  V30 9559 H 888.309 0.751516 3.66474 0
M  V30 9560 H 889.642 0.969468 4.82558 0
M  V30 9561 N 891.294 -1.47756 0.548274 0
M  V30 9562 C 892.534 -2.04387 0.0231354 0
M  V30 9563 C 892.898 -1.41438 -1.29843 0
M  V30 9564 O 894.099 -1.89064 -1.91072 0
M  V30 9565 C 892.37 -3.57316 -0.077482 0
M  V30 9566 S 893.929 -4.35339 -0.550038 0
M  V30 9567 H 890.747 -0.710694 0.0208428 0
M  V30 9568 H 893.349 -1.81239 0.732984 0
M  V30 9569 H 892.053 -4.00658 0.88888 0
M  V30 9570 H 891.584 -3.84947 -0.811157 0
M  V30 9571 H 893.599 -4.61957 -1.81135 0
M  V30 9572 N 892.772 -0.284283 -1.55015 0
M  V30 9573 C 894.02 0.329212 -1.99401 0
M  V30 9574 C 894.341 1.55687 -1.17416 0
M  V30 9575 O 893.611 1.94087 -0.265937 0
M  V30 9576 H 892.191 0.12463 -0.73653 0
M  V30 9577 H 894.853 -0.391743 -1.90922 0
M  V30 9578 H 893.949 0.61278 -3.06025 0
M  V30 9579 N 894.251 1.57596 -0.0117121 0
M  V30 9580 C 895.199 2.1029 0.994035 0
M  V30 9581 C 896.193 1.02549 1.34833 0
M  V30 9582 O 897.399 1.21003 1.3326 0
M  V30 9583 H 893.774 0.671624 0.338268 0
M  V30 9584 H 895.745 2.93761 0.524147 0
M  V30 9585 C 894.494 2.63099 2.27319 0
M  V30 9586 H 893.817 3.45642 2.00927 0
M  V30 9587 H 895.257 3.03635 2.95942 0
M  V30 9588 C 893.716 1.55044 2.99104 0
M  V30 9589 O 894.246 0.940127 3.90544 0
M  V30 9590 N 892.452 1.27506 2.61133 0
M  V30 9591 H 891.999 1.77322 1.86855 0
M  V30 9592 H 891.957 0.554292 3.09475 0
M  V30 9593 N 895.729 -0.261212 1.5542 0
M  V30 9594 C 896.978 -0.989072 1.75785 0
M  V30 9595 C 897.291 -1.8702 0.572961 0
M  V30 9596 O 898.497 -2.63374 0.659289 0
M  V30 9597 C 896.953 -1.80857 3.11157 0
M  V30 9598 C 896.561 -0.975535 4.3725 0
M  V30 9599 C 898.305 -2.53003 3.40866 0
M  V30 9600 C 896.212 -1.7901 5.63657 0
M  V30 9601 H 895.142 -0.373019 0.655266 0
M  V30 9602 H 897.793 -0.244267 1.81867 0
M  V30 9603 H 896.175 -2.59479 2.99144 0
M  V30 9604 H 897.349 -0.232661 4.60212 0
M  V30 9605 H 895.664 -0.368083 4.1477 0
M  V30 9606 H 898.261 -3.14372 4.32521 0
M  V30 9607 H 898.604 -3.23891 2.61535 0
M  V30 9608 H 899.137 -1.81403 3.54031 0
M  V30 9609 H 895.876 -1.12522 6.4577 0
M  V30 9610 H 895.396 -2.50863 5.44819 0
M  V30 9611 H 897.075 -2.36082 6.0239 0
M  V30 9612 N 897.207 -1.48554 -0.526253 0
M  V30 9613 C 898.484 -1.47252 -1.28748 0
M  V30 9614 C 898.864 -0.186245 -2.10277 0
M  V30 9615 O 898.212 0.831954 -2.12816 0
M  V30 9616 C 898.422 -2.73672 -2.16575 0
M  V30 9617 C 899.77 -3.22151 -2.76593 0
M  V30 9618 O 900.794 -2.74614 -2.2686 0
M  V30 9619 O 899.653 -4.04877 -3.67066 0
M  V30 9620 H 896.747 -0.588242 -0.581292 0
M  V30 9621 H 899.293 -1.60792 -0.5426 0
M  V30 9622 H 898.065 -3.58798 -1.56139 0
M  V30 9623 H 897.688 -2.6287 -2.98304 0
M  V30 9624 N 898.685 0.775411 -1.37205 0
M  V30 9625 C 899.615 1.90258 -1.35367 0
M  V30 9626 C 900.596 1.68634 -0.222864 0
M  V30 9627 O 901.781 1.89545 -0.422659 0
M  V30 9628 C 898.911 3.27488 -1.15623 0
M  V30 9629 C 897.865 3.63668 -2.25676 0
M  V30 9630 C 897.191 4.994 -1.91059 0
M  V30 9631 C 898.491 3.70797 -3.67841 0
M  V30 9632 H 900.185 1.92053 -2.29687 0
M  V30 9633 H 897.731 0.922597 -1.10563 0
M  V30 9634 H 899.684 4.05976 -1.12968 0
M  V30 9635 H 898.408 3.26117 -0.177573 0
M  V30 9636 H 897.067 2.87486 -2.2748 0
M  V30 9637 H 896.715 4.94565 -0.917324 0
M  V30 9638 H 896.415 5.24576 -2.64751 0
M  V30 9639 H 897.939 5.80291 -1.89985 0
M  V30 9640 H 899.353 4.39444 -3.68187 0
M  V30 9641 H 897.75 4.07468 -4.40556 0
M  V30 9642 H 898.82 2.71549 -4.01732 0
M  V30 9643 N 900.163 1.21714 1.00117 0
M  V30 9644 C 901.111 0.976937 2.11089 0
M  V30 9645 C 902.105 -0.0771295 1.69224 0
M  V30 9646 O 903.311 0.0745945 1.79845 0
M  V30 9647 H 899.686 0.298687 0.690138 0
M  V30 9648 H 901.657 1.91881 2.28526 0
M  V30 9649 C 900.406 0.562369 3.43122 0
M  V30 9650 H 899.729 1.36509 3.75773 0
M  V30 9651 H 901.169 0.433642 4.21777 0
M  V30 9652 C 899.628 -0.727148 3.28959 0
M  V30 9653 O 900.158 -1.78171 3.60025 0
M  V30 9654 N 898.364 -0.695129 2.82164 0
M  V30 9655 H 897.911 0.163346 2.57082 0
M  V30 9656 H 897.869 -1.55822 2.73069 0
M  V30 9657 N 901.641 -1.19671 1.02551 0
M  V30 9658 C 902.866 -1.93774 0.739363 0
M  V30 9659 C 903.291 -1.74787 -0.695064 0
M  V30 9660 O 902.649 -1.04796 -1.47944 0
M  V30 9661 C 902.697 -3.43684 1.09149 0
M  V30 9662 O 901.801 -4.11874 0.208213 0
M  V30 9663 H 901.142 -0.605064 0.273484 0
M  V30 9664 H 903.672 -1.51846 1.37128 0
M  V30 9665 H 903.682 -3.94339 1.04695 0
M  V30 9666 H 902.357 -3.56826 2.13654 0
M  V30 9667 H 900.934 -3.716 0.311045 0
M  V30 9668 N 903.119 -0.802921 -1.35613 0
M  V30 9669 C 904.365 -0.391259 -1.99601 0
M  V30 9670 C 904.72 1.02922 -1.62557 0
M  V30 9671 O 904.013 1.70357 -0.876878 0
M  V30 9672 C 904.207 -0.507806 -3.53774 0
M  V30 9673 C 904.036 -1.93807 -4.05794 0
M  V30 9674 C 902.806 -2.56564 -4.3532 0
M  V30 9675 C 905.004 -2.90211 -4.24596 0
M  V30 9676 N 902.986 -3.91038 -4.73247 0
M  V30 9677 C 904.357 -4.09548 -4.65479 0
M  V30 9678 C 906.412 -2.87091 -4.06796 0
M  V30 9679 C 905.115 -5.26191 -4.90424 0
M  V30 9680 C 907.141 -4.02933 -4.32896 0
M  V30 9681 C 906.503 -5.21017 -4.74047 0
M  V30 9682 H 902.602 -0.190867 -0.758349 0
M  V30 9683 H 905.186 -1.04338 -1.64382 0
M  V30 9684 H 903.357 0.114306 -3.88232 0
M  V30 9685 H 905.089 -0.0710855 -4.04638 0
M  V30 9686 H 901.844 -2.07945 -4.25507 0
M  V30 9687 H 902.268 -4.60262 -4.96475 0
M  V30 9688 H 906.91 -1.96951 -3.74126 0
M  V30 9689 H 904.628 -6.16906 -5.2197 0
M  V30 9690 H 908.214 -4.01895 -4.2068 0
M  V30 9691 H 907.094 -6.09165 -4.93849 0
M  V30 9692 N 904.597 1.47463 -0.556102 0
M  V30 9693 C 905.527 2.32801 0.180497 0
M  V30 9694 C 906.508 1.43721 0.909848 0
M  V30 9695 O 907.693 1.72578 0.89053 0
M  V30 9696 C 904.823 3.25478 1.21167 0
M  V30 9697 C 903.777 4.2379 0.598846 0
M  V30 9698 C 903.103 5.05783 1.73457 0
M  V30 9699 C 904.403 5.20387 -0.446659 0
M  V30 9700 H 906.097 2.94636 -0.531956 0
M  V30 9701 H 903.643 1.41683 -0.257267 0
M  V30 9702 H 905.596 3.8402 1.73513 0
M  V30 9703 H 904.32 2.61695 1.95405 0
M  V30 9704 H 902.979 3.66472 0.0966897 0
M  V30 9705 H 902.627 4.38405 2.46596 0
M  V30 9706 H 902.327 5.72343 1.33031 0
M  V30 9707 H 903.851 5.67183 2.26131 0
M  V30 9708 H 905.265 5.73299 -0.00930019 0
M  V30 9709 H 903.662 5.95143 -0.769735 0
M  V30 9710 H 904.732 4.65932 -1.34295 0
M  V30 9711 N 906.075 0.2925 1.54862 0
M  V30 9712 C 907.022 -0.587365 2.23201 0
M  V30 9713 C 907.992 -1.13623 1.21157 0
M  V30 9714 O 909.177 -1.18233 1.49752 0
M  V30 9715 C 906.317 -1.75745 2.96998 0
M  V30 9716 C 905.43 -1.24078 4.13798 0
M  V30 9717 C 904.565 -2.37405 4.75197 0
M  V30 9718 C 903.604 -1.82829 5.84157 0
M  V30 9719 N 902.741 -2.89696 6.39547 0
M  V30 9720 H 907.581 0.00202207 2.98 0
M  V30 9721 H 905.118 0.012766 1.47094 0
M  V30 9722 H 907.076 -2.44549 3.38011 0
M  V30 9723 H 905.706 -2.3186 2.24591 0
M  V30 9724 H 904.758 -0.445268 3.77785 0
M  V30 9725 H 906.07 -0.801186 4.92324 0
M  V30 9726 H 905.224 -3.14172 5.19019 0
M  V30 9727 H 903.963 -2.84688 3.95985 0
M  V30 9728 H 902.968 -1.04548 5.39768 0
M  V30 9729 H 904.193 -1.36461 6.65248 0
M  V30 9730 H 902.139 -3.36328 5.63222 0
M  V30 9731 H 902.056 -2.50206 7.13395 0
M  V30 9732 H 903.324 -3.66386 6.88027 0
M  V30 9733 N 907.553 -1.57587 0.0200696 0
M  V30 9734 C 908.5 -2.09667 -0.964791 0
M  V30 9735 C 909.47 -0.99664 -1.32877 0
M  V30 9736 O 910.655 -1.2703 -1.42366 0
M  V30 9737 C 907.795 -2.62101 -2.24493 0
M  V30 9738 C 906.908 -3.8608 -1.93821 0
M  V30 9739 C 906.043 -4.26939 -3.16064 0
M  V30 9740 C 905.082 -5.43701 -2.81169 0
M  V30 9741 N 904.219 -5.79759 -3.9601 0
M  V30 9742 H 909.059 -2.93538 -0.513751 0
M  V30 9743 H 906.596 -1.45096 -0.242 0
M  V30 9744 H 908.554 -2.90587 -2.99358 0
M  V30 9745 H 907.184 -1.81074 -2.6723 0
M  V30 9746 H 906.236 -3.64378 -1.09237 0
M  V30 9747 H 907.548 -4.71028 -1.64115 0
M  V30 9748 H 906.702 -4.56814 -3.99257 0
M  V30 9749 H 905.441 -3.40739 -3.48924 0
M  V30 9750 H 904.446 -5.13529 -1.96387 0
M  V30 9751 H 905.671 -6.31593 -2.49535 0
M  V30 9752 H 903.617 -4.96516 -4.28729 0
M  V30 9753 H 903.534 -6.59327 -3.69896 0
M  V30 9754 H 904.802 -6.14235 -4.79933 0
M  V30 9755 N 909.032 0.252966 -1.55557 0
M  V30 9756 C 909.979 1.3131 -1.89806 0
M  V30 9757 C 910.949 1.48121 -0.751633 0
M  V30 9758 O 912.134 1.62202 -1.00474 0
M  V30 9759 C 909.274 2.66467 -2.19293 0
M  V30 9760 C 908.387 2.57714 -3.46709 0
M  V30 9761 C 907.522 3.85184 -3.65796 0
M  V30 9762 C 906.561 3.71023 -4.86835 0
M  V30 9763 N 905.698 4.90371 -5.02474 0
M  V30 9764 H 910.538 1.01402 -2.80217 0
M  V30 9765 H 908.075 0.489462 -1.38718 0
M  V30 9766 H 910.033 3.45132 -2.34392 0
M  V30 9767 H 908.663 2.94536 -1.32093 0
M  V30 9768 H 907.715 1.70651 -3.39974 0
M  V30 9769 H 909.027 2.43158 -4.35517 0
M  V30 9770 H 908.181 4.72292 -3.80822 0
M  V30 9771 H 906.92 4.0263 -2.7521 0
M  V30 9772 H 905.925 2.82299 -4.71792 0
M  V30 9773 H 907.15 3.55078 -5.78875 0
M  V30 9774 H 905.096 5.0819 -4.14824 0
M  V30 9775 H 905.013 4.78423 -5.85361 0
M  V30 9776 H 906.281 5.78995 -5.21905 0
M  V30 9777 N 910.51 1.48831 0.518367 0
M  V30 9778 C 911.457 1.64216 1.62178 0
M  V30 9779 C 912.427 0.483942 1.58894 0
M  V30 9780 O 913.612 0.708857 1.77144 0
M  V30 9781 C 910.752 1.69867 3.00399 0
M  V30 9782 C 909.865 2.96875 3.1383 0
M  V30 9783 C 909 2.93613 4.42679 0
M  V30 9784 C 908.039 4.15276 4.4968 0
M  V30 9785 N 907.176 4.10024 5.69934 0
M  V30 9786 H 912.016 2.58439 1.48368 0
M  V30 9787 H 909.553 1.28154 0.722152 0
M  V30 9788 H 911.511 1.71124 3.8049 0
M  V30 9789 H 910.141 0.791249 3.12952 0
M  V30 9790 H 909.193 3.0531 2.26914 0
M  V30 9791 H 910.505 3.86863 3.14863 0
M  V30 9792 H 909.659 2.93337 5.31073 0
M  V30 9793 H 908.398 2.01375 4.44184 0
M  V30 9794 H 907.403 4.15816 3.59691 0
M  V30 9795 H 908.628 5.08687 4.49904 0
M  V30 9796 H 906.574 3.20613 5.72314 0
M  V30 9797 H 906.491 4.93728 5.72511 0
M  V30 9798 H 907.759 4.13824 6.60583 0
M  V30 9799 N 911.988 -0.768124 1.37614 0
M  V30 9800 C 913.213 -1.56239 1.36397 0
M  V30 9801 C 913.638 -1.8804 -0.0475839 0
M  V30 9802 O 912.996 -1.495 -1.02564 0
M  V30 9803 C 913.044 -2.84716 2.21289 0
M  V30 9804 O 912.148 -3.79249 1.62001 0
M  V30 9805 H 911.489 -0.473119 0.465891 0
M  V30 9806 H 914.019 -0.950415 1.81186 0
M  V30 9807 H 914.029 -3.33784 2.34632 0
M  V30 9808 H 912.704 -2.60899 3.2389 0
M  V30 9809 H 911.281 -3.37904 1.57719 0
M  V30 9810 N 913.466 -1.22244 -0.994698 0
M  V30 9811 C 914.715 -1.04005 -1.72817 0
M  V30 9812 C 915.028 0.425413 -1.90918 0
M  V30 9813 O 916.234 0.727429 -2.61574 0
M  V30 9814 C 914.69 -1.81244 -3.10932 0
M  V30 9815 C 914.298 -3.32028 -3.00768 0
M  V30 9816 C 916.042 -1.71448 -3.88337 0
M  V30 9817 C 913.949 -4.01716 -4.34026 0
M  V30 9818 H 912.879 -0.385559 -0.647966 0
M  V30 9819 H 915.53 -1.46077 -1.11058 0
M  V30 9820 H 913.912 -1.3197 -3.73363 0
M  V30 9821 H 915.086 -3.88682 -2.47513 0
M  V30 9822 H 913.401 -3.4248 -2.36846 0
M  V30 9823 H 915.998 -2.20836 -4.86965 0
M  V30 9824 H 916.341 -0.674568 -4.10798 0
M  V30 9825 H 916.874 -2.18256 -3.3258 0
M  V30 9826 H 913.613 -5.05952 -4.16765 0
M  V30 9827 H 913.133 -3.49849 -4.87202 0
M  V30 9828 H 914.812 -4.0721 -5.02782 0
M  V30 9829 N 914.944 1.19125 -1.03184 0
M  V30 9830 C 916.221 1.84674 -0.644574 0
M  V30 9831 C 916.601 1.92042 0.876534 0
M  V30 9832 O 915.949 1.43965 1.77444 0
M  V30 9833 C 916.159 3.23477 -1.3101 0
M  V30 9834 C 917.507 3.99608 -1.43524 0
M  V30 9835 O 918.531 3.32886 -1.2675 0
M  V30 9836 O 917.39 5.19132 -1.70776 0
M  V30 9837 H 914.484 0.795968 -0.22442 0
M  V30 9838 H 917.03 1.2659 -1.13018 0
M  V30 9839 H 915.802 3.12967 -2.34878 0
M  V30 9840 H 915.425 3.89209 -0.812547 0
M  V30 9841 N 916.422 0.810101 1.35185 0
M  V30 9842 C 917.833 0.452616 1.81131 0
M  V30 9843 C 918.184 -1.02573 1.67252 0
M  V30 9844 O 917.309 -1.79735 1.20516 0
M  V30 9845 C 917.904 0.814775 3.28857 0
M  V30 9846 C 916.463 0.509839 3.72931 0
M  V30 9847 C 915.61 1.03852 2.57119 0
M  V30 9848 H 918.561 1.00143 1.23114 0
M  V30 9849 H 918.582 0.113635 3.8033 0
M  V30 9850 H 918.094 1.89078 3.38926 0
M  V30 9851 H 916.195 -0.557289 3.68409 0
M  V30 9852 H 916.308 1.04493 4.67566 0
M  V30 9853 H 914.672 0.460671 2.50499 0
M  V30 9854 H 915.455 2.12071 2.69964 0
M  V30 9855 N 917.9 -1.47166 0.563914 0
M  V30 9856 C 919.146 -2.03337 0.0506932 0
M  V30 9857 C 919.501 -1.42976 -1.28746 0
M  V30 9858 O 918.794 -0.578508 -1.82658 0
M  V30 9859 C 918.988 -3.57279 -0.0931797 0
M  V30 9860 C 918.817 -4.32567 1.22948 0
M  V30 9861 C 917.587 -4.72206 1.79859 0
M  V30 9862 C 919.785 -4.67282 2.14829 0
M  V30 9863 N 917.767 -5.32166 3.0606 0
M  V30 9864 C 919.138 -5.27615 3.25611 0
M  V30 9865 C 921.193 -4.49211 2.14741 0
M  V30 9866 C 919.896 -5.71784 4.36412 0
M  V30 9867 C 921.922 -4.94384 3.24559 0
M  V30 9868 C 921.284 -5.54771 4.34061 0
M  V30 9869 H 917.383 -0.779627 0.0608761 0
M  V30 9870 H 919.967 -1.79563 0.75268 0
M  V30 9871 H 918.138 -3.80806 -0.764301 0
M  V30 9872 H 919.87 -4.0009 -0.609075 0
M  V30 9873 H 916.625 -4.54372 1.33577 0
M  V30 9874 H 917.049 -5.66684 3.70404 0
M  V30 9875 H 921.691 -4.01875 1.31362 0
M  V30 9876 H 919.409 -6.18108 5.20546 0
M  V30 9877 H 922.995 -4.82167 3.25586 0
M  V30 9878 H 921.875 -5.89087 5.17635 0
M  V30 9879 N 919.378 -0.300708 -1.54705 0
M  V30 9880 C 920.288 0.584996 -2.27189 0
M  V30 9881 C 921.304 1.14866 -1.30697 0
M  V30 9882 O 922.48 1.17351 -1.63679 0
M  V30 9883 C 919.545 1.74076 -2.99831 0
M  V30 9884 C 918.606 1.2112 -4.1186 0
M  V30 9885 C 917.839 2.31188 -4.81028 0
M  V30 9886 O 918.062 3.5108 -4.49554 0
M  V30 9887 O 916.996 1.97897 -5.68437 0
M  V30 9888 H 920.822 -0.00298177 -3.037 0
M  V30 9889 H 918.407 -0.0671802 -1.49249 0
M  V30 9890 H 920.289 2.41413 -3.45395 0
M  V30 9891 H 918.964 2.31535 -2.26215 0
M  V30 9892 H 917.871 0.50357 -3.70695 0
M  V30 9893 H 919.204 0.682046 -4.87452 0
M  V30 9894 N 920.856 1.57574 -0.0284266 0
M  V30 9895 C 922.272 1.56194 0.327958 0
M  V30 9896 C 922.472 1.03397 1.72949 0
M  V30 9897 O 921.528 0.680392 2.4316 0
M  V30 9898 C 922.841 3.00177 0.177196 0
M  V30 9899 C 924.389 3.12 0.250014 0
M  V30 9900 C 924.864 4.57821 0.128049 0
M  V30 9901 N 926.355 4.6283 0.185054 0
M  V30 9902 C 927.09 5.73286 0.114454 0
M  V30 9903 N 926.586 6.928 -0.00719225 0
M  V30 9904 N 928.379 5.61848 0.16839 0
M  V30 9905 H 920.53 1.90224 -0.944921 0
M  V30 9906 H 922.793 0.874987 -0.364832 0
M  V30 9907 H 922.499 3.42753 -0.788224 0
M  V30 9908 H 922.373 3.65101 0.94768 0
M  V30 9909 H 924.76 2.69337 1.20589 0
M  V30 9910 H 924.841 2.49799 -0.550835 0
M  V30 9911 H 924.485 5.01165 -0.824407 0
M  V30 9912 H 924.415 5.18001 0.947753 0
M  V30 9913 H 926.906 3.76867 0.279247 0
M  V30 9914 H 927.219 7.72781 -0.0543903 0
M  V30 9915 H 925.564 6.94987 -0.0419648 0
M  V30 9916 H 928.755 4.67367 0.261821 0
M  V30 9917 H 928.928 6.47907 0.109908 0
M  V30 9918 N 922.334 -0.244713 1.55689 0
M  V30 9919 C 923.281 -1.30301 1.905 0
M  V30 9920 C 924.251 -1.4772 0.759478 0
M  V30 9921 O 925.436 -1.61667 1.01333 0
M  V30 9922 C 922.576 -2.653 2.20703 0
M  V30 9923 C 921.689 -2.55872 3.48071 0
M  V30 9924 C 920.824 -3.83238 3.67834 0
M  V30 9925 C 919.863 -3.68436 4.88796 0
M  V30 9926 N 919 -4.877 5.05068 0
M  V30 9927 H 923.84 -0.999143 2.80751 0
M  V30 9928 H 921.377 -0.482099 1.38976 0
M  V30 9929 H 923.335 -3.43884 2.36219 0
M  V30 9930 H 921.965 -2.93831 1.33653 0
M  V30 9931 H 921.017 -1.68846 3.40874 0
M  V30 9932 H 922.329 -2.40845 4.36801 0
M  V30 9933 H 921.483 -4.70266 3.83321 0
M  V30 9934 H 920.222 -4.01165 2.77341 0
M  V30 9935 H 919.227 -2.79793 4.73282 0
M  V30 9936 H 920.452 -3.52003 5.8075 0
M  V30 9937 H 918.398 -5.05983 4.17513 0
M  V30 9938 H 918.315 -4.75312 5.8789 0
M  V30 9939 H 919.583 -5.76219 5.24969 0
M  V30 9940 N 923.813 -1.49104 -0.510467 0
M  V30 9941 C 925.038 -1.62068 -1.29417 0
M  V30 9942 C 925.463 -0.288432 -1.85875 0
M  V30 9943 O 924.821 0.742667 -1.65391 0
M  V30 9944 C 924.869 -2.68506 -2.40701 0
M  V30 9945 O 923.973 -2.27021 -3.4429 0
M  V30 9946 H 923.314 -0.542778 -0.382476 0
M  V30 9947 H 925.844 -1.95228 -0.612154 0
M  V30 9948 H 925.854 -2.90383 -2.86604 0
M  V30 9949 H 924.529 -3.65216 -1.98973 0
M  V30 9950 H 923.106 -2.15436 -3.04371 0
M  V30 9951 N 925.291 0.760815 -1.38019 0
M  V30 9952 C 926.521 1.54776 -1.3685 0
M  V30 9953 C 926.929 1.89146 0.0453971 0
M  V30 9954 O 926.272 1.52746 1.0205 0
M  V30 9955 C 926.334 2.87923 -2.15269 0
M  V30 9956 C 925.998 2.76131 -3.64144 0
M  V30 9957 C 926.995 2.46417 -4.57794 0
M  V30 9958 C 924.68 2.9381 -4.07408 0
M  V30 9959 C 926.674 2.34525 -5.92686 0
M  V30 9960 C 924.361 2.81539 -5.42383 0
M  V30 9961 C 925.359 2.51938 -6.34836 0
M  V30 9962 O 925.047 2.39713 -7.67329 0
M  V30 9963 H 924.779 0.485776 -0.470104 0
M  V30 9964 H 927.333 0.949939 -1.82113 0
M  V30 9965 H 925.563 3.49867 -1.64712 0
M  V30 9966 H 927.252 3.49389 -2.06596 0
M  V30 9967 H 928.018 2.32433 -4.25676 0
M  V30 9968 H 923.897 3.15849 -3.35799 0
M  V30 9969 H 927.441 2.11342 -6.64816 0
M  V30 9970 H 923.338 2.95093 -5.741 0
M  V30 9971 H 924.106 2.5498 -7.77771 0
M  V30 9972 N 926.769 1.22769 0.988202 0
M  V30 9973 C 928.015 1.06672 1.73184 0
M  V30 9974 C 928.37 -0.393434 1.88334 0
M  V30 9975 O 927.663 -1.2876 1.41885 0
M  V30 9976 C 927.857 1.71679 3.13466 0
M  V30 9977 C 927.686 3.23864 3.11997 0
M  V30 9978 C 926.456 3.92991 3.17626 0
M  V30 9979 C 928.654 4.20737 2.95778 0
M  V30 9980 N 926.636 5.32224 3.05959 0
M  V30 9981 C 928.007 5.46831 2.92191 0
M  V30 9982 C 930.062 4.1157 2.80205 0
M  V30 9983 C 928.765 6.64811 2.74624 0
M  V30 9984 C 930.791 5.29205 2.64 0
M  V30 9985 C 930.153 6.5422 2.61104 0
M  V30 9986 H 926.252 0.44481 0.64317 0
M  V30 9987 H 928.836 1.55381 1.17323 0
M  V30 9988 H 927.007 1.25513 3.67561 0
M  V30 9989 H 928.739 1.48629 3.76419 0
M  V30 9990 H 925.494 3.4402 3.25495 0
M  V30 9991 H 925.918 6.05197 3.03423 0
M  V30 9992 H 930.56 3.15697 2.81239 0
M  V30 9993 H 928.278 7.60828 2.72336 0
M  V30 9994 H 931.864 5.23947 2.52925 0
M  V30 9995 H 930.744 7.43713 2.48719 0
M  V30 9996 N 928.247 -1.18576 1.03814 0
M  V30 9997 C 929.194 -2.2212 0.626988 0
M  V30 9998 C 930.164 -1.62064 -0.363912 0
M  V30 9999 O 931.349 -1.89041 -0.258469 0
M  V30 10000 C 928.489 -3.45099 -0.00650133 0
M  V30 10001 C 927.602 -4.19503 1.03156 0
M  V30 10002 C 926.737 -5.29932 0.366852 0
M  V30 10003 C 925.776 -5.96104 1.39018 0
M  V30 10004 N 924.913 -6.98076 0.750625 0
M  V30 10005 H 929.753 -2.56646 1.51449 0
M  V30 10006 H 927.29 -1.26084 0.757702 0
M  V30 10007 H 929.248 -4.15363 -0.391108 0
M  V30 10008 H 927.878 -3.11201 -0.857536 0
M  V30 10009 H 926.93 -3.48092 1.53414 0
M  V30 10010 H 928.242 -4.64843 1.80893 0
M  V30 10011 H 927.396 -6.06657 -0.0720979 0
M  V30 10012 H 926.135 -4.85687 -0.442631 0
M  V30 10013 H 925.14 -5.18122 1.8393 0
M  V30 10014 H 926.365 -6.42432 2.20132 0
M  V30 10015 H 924.311 -6.55989 -0.0385981 0
M  V30 10016 H 924.228 -7.41655 1.46574 0
M  V30 10017 H 925.496 -7.78776 0.335986 0
M  V30 10018 N 929.725 -0.817259 -1.34754 0
M  V30 10019 C 930.673 -0.223352 -2.31525 0
M  V30 10020 C 931.667 0.632785 -1.57137 0
M  V30 10021 O 932.873 0.524757 -1.72181 0
M  V30 10022 H 929.248 -0.0534765 -0.750096 0
M  V30 10023 H 931.219 -1.05446 -2.79148 0
M  V30 10024 C 929.968 0.604784 -3.424 0
M  V30 10025 H 929.291 -0.0446664 -3.99775 0
M  V30 10026 H 930.731 0.986543 -4.12363 0
M  V30 10027 C 929.19 1.77478 -2.86362 0
M  V30 10028 O 929.72 2.87273 -2.8078 0
M  V30 10029 N 927.926 1.58971 -2.43263 0
M  V30 10030 H 927.473 0.696598 -2.48003 0
M  V30 10031 H 927.431 2.37408 -2.06119 0
M  V30 10032 N 931.203 1.46865 -0.571711 0
M  V30 10033 C 932.136 2.27176 0.215944 0
M  V30 10034 C 933.114 1.34951 0.907035 0
M  V30 10035 O 934.298 1.64349 0.923127 0
M  V30 10036 C 931.425 3.12388 1.30888 0
M  V30 10037 C 930.471 4.20296 0.724804 0
M  V30 10038 S 931.304 5.33691 -0.439839 0
M  V30 10039 C 932.46 6.22468 0.654564 0
M  V30 10040 H 932.693 2.93633 -0.465518 0
M  V30 10041 H 930.226 1.50184 -0.358351 0
M  V30 10042 H 932.184 3.62049 1.93471 0
M  V30 10043 H 930.845 2.45265 1.96224 0
M  V30 10044 H 930.038 4.79703 1.54599 0
M  V30 10045 H 929.64 3.73591 0.174861 0
M  V30 10046 H 931.932 6.59694 1.54304 0
M  V30 10047 H 932.875 7.08033 0.0975111 0
M  V30 10048 H 933.283 5.56384 0.953762 0
M  V30 10049 N 932.681 0.308908 1.54543 0
M  V30 10050 C 933.611 -0.556657 2.26768 0
M  V30 10051 C 934.592 -1.13145 1.27013 0
M  V30 10052 O 935.777 -1.15931 1.558 0
M  V30 10053 C 932.907 -1.72481 3.01443 0
M  V30 10054 C 931.861 -1.28001 4.08411 0
M  V30 10055 C 931.187 -2.53395 4.70845 0
M  V30 10056 C 932.487 -0.405497 5.20724 0
M  V30 10057 H 934.181 0.0457618 2.99365 0
M  V30 10058 H 931.727 0.0234495 1.43981 0
M  V30 10059 H 933.68 -2.3365 3.50693 0
M  V30 10060 H 932.404 -2.35359 2.26437 0
M  V30 10061 H 931.063 -0.69133 3.60022 0
M  V30 10062 H 930.711 -3.14604 3.92471 0
M  V30 10063 H 930.411 -2.2433 5.43093 0
M  V30 10064 H 931.935 -3.15352 5.22863 0
M  V30 10065 H 933.349 -0.923076 5.6582 0
M  V30 10066 H 931.746 -0.208282 5.99738 0
M  V30 10067 H 932.816 0.567412 4.81569 0
M  V30 10068 N 934.159 -1.57557 0.0367827 0
M  V30 10069 C 935.069 -2.14148 -0.958017 0
M  V30 10070 C 936.085 -1.09564 -1.35173 0
M  V30 10071 O 937.261 -1.4166 -1.43158 0
M  V30 10072 C 934.326 -2.6636 -2.21931 0
M  V30 10073 C 933.387 -3.85688 -1.8853 0
M  V30 10074 C 932.62 -4.35401 -3.08645 0
M  V30 10075 O 932.843 -3.8425 -4.21554 0
M  V30 10076 O 931.777 -5.27158 -2.90497 0
M  V30 10077 H 935.603 -2.99442 -0.506797 0
M  V30 10078 H 933.188 -1.48259 -0.184275 0
M  V30 10079 H 935.07 -2.99976 -2.9596 0
M  V30 10080 H 933.745 -1.84145 -2.66219 0
M  V30 10081 H 932.652 -3.56985 -1.11861 0
M  V30 10082 H 933.985 -4.69089 -1.49052 0
M  V30 10083 N 935.637 0.236453 -1.55816 0
M  V30 10084 C 936.6 1.27633 -1.90375 0
M  V30 10085 C 937.6 1.40557 -0.781048 0
M  V30 10086 O 938.79 1.39078 -1.04895 0
M  V30 10087 C 935.922 2.65247 -2.14142 0
M  V30 10088 H 937.115 0.982019 -2.83366 0
M  V30 10089 H 934.668 0.476215 -1.48869 0
M  V30 10090 H 935.403 2.99801 -1.23653 0
M  V30 10091 H 935.188 2.57246 -2.95917 0
M  V30 10092 H 936.678 3.40313 -2.42026 0
M  V30 10093 N 937.115 1.49373 0.502552 0
M  V30 10094 C 938.361 1.59016 1.25864 0
M  V30 10095 C 938.694 0.27532 1.92238 0
M  V30 10096 O 937.969 -0.720988 1.80643 0
M  V30 10097 C 938.252 2.74828 2.32683 0
M  V30 10098 C 938.105 4.16102 1.7082 0
M  V30 10099 C 939.424 2.86288 3.34256 0
M  V30 10100 H 936.543 0.578798 0.456248 0
M  V30 10101 H 939.185 1.81651 0.557032 0
M  V30 10102 H 937.335 2.5566 2.92524 0
M  V30 10103 H 939.007 4.46782 1.14818 0
M  V30 10104 H 937.25 4.21822 1.01238 0
M  V30 10105 H 937.921 4.93006 2.48292 0
M  V30 10106 H 940.397 3.03733 2.84404 0
M  V30 10107 H 939.273 3.69001 4.06362 0
M  V30 10108 H 939.534 1.95576 3.96488 0
M  V30 10109 N 938.594 -0.753485 1.38421 0
M  V30 10110 C 939.544 -1.85788 1.32162 0
M  V30 10111 C 940.528 -1.59577 0.20588 0
M  V30 10112 O 941.72 -1.71396 0.44186 0
M  V30 10113 C 938.849 -3.23498 1.14909 0
M  V30 10114 C 937.935 -3.556 2.31105 0
M  V30 10115 N 938.326 -3.58759 3.56547 0
M  V30 10116 C 936.624 -3.85866 2.23659 0
M  V30 10117 C 937.325 -3.8813 4.33278 0
M  V30 10118 N 936.301 -4.04966 3.62635 0
M  V30 10119 H 940.103 -1.86509 2.27138 0
M  V30 10120 H 937.617 -0.950843 1.31654 0
M  V30 10121 H 939.614 -4.02531 1.08509 0
M  V30 10122 H 938.274 -3.24029 0.20866 0
M  V30 10123 H 939.285 -3.40517 3.90216 0
M  V30 10124 H 935.962 -3.94112 1.37776 0
M  V30 10125 H 937.352 -3.97197 5.41926 0
M  V30 10126 N 940.072 -1.23292 -0.981677 0
M  V30 10127 C 941.3 -1.09088 -1.75805 0
M  V30 10128 C 941.715 0.357746 -1.8538 0
M  V30 10129 O 941.072 1.24751 -1.33205 0
M  V30 10130 C 941.123 -1.70885 -3.1856 0
M  V30 10131 O 940.844 -3.10082 -3.09484 0
M  V30 10132 C 942.345 -1.62106 -4.12597 0
M  V30 10133 H 939.565 -0.38184 -0.55176 0
M  V30 10134 H 942.109 -1.63116 -1.23342 0
M  V30 10135 H 940.264 -1.20893 -3.68054 0
M  V30 10136 H 940.678 -3.40039 -3.99342 0
M  V30 10137 H 942.152 -2.10049 -5.10474 0
M  V30 10138 H 942.629 -0.579642 -4.35358 0
M  V30 10139 H 943.235 -2.11457 -3.69007 0
M  V30 10140 N 941.55 1.18024 -1.04442 0
M  V30 10141 C 942.799 1.8743 -0.745185 0
M  V30 10142 C 943.112 1.81459 0.730206 0
M  V30 10143 O 944.318 2.46263 1.1431 0
M  V30 10144 C 942.774 3.36266 -1.28271 0
M  V30 10145 C 942.382 3.50757 -2.787 0
M  V30 10146 C 944.126 4.11048 -1.06018 0
M  V30 10147 C 942.033 4.93573 -3.25791 0
M  V30 10148 H 940.963 0.702038 -0.27506 0
M  V30 10149 H 943.614 1.33333 -1.26073 0
M  V30 10150 H 941.996 3.89853 -0.695002 0
M  V30 10151 H 943.17 3.07423 -3.43261 0
M  V30 10152 H 941.485 2.89385 -2.99408 0
M  V30 10153 H 944.082 5.16395 -1.38711 0
M  V30 10154 H 944.425 4.163 0.00241716 0
M  V30 10155 H 944.958 3.63644 -1.61269 0
M  V30 10156 H 941.697 4.93491 -4.31447 0
M  V30 10157 H 941.217 5.37607 -2.65968 0
M  V30 10158 H 942.896 5.62307 -3.20031 0
M  V30 10159 N 943.028 0.824394 1.34319 0
M  V30 10160 C 943.978 0.219624 2.2694 0
M  V30 10161 C 944.962 -0.616964 1.48601 0
M  V30 10162 O 946.154 -0.471303 1.7061 0
M  V30 10163 C 943.283 -0.616379 3.37721 0
M  V30 10164 C 942.369 0.230917 4.23471 0
M  V30 10165 N 942.76 1.30264 4.88738 0
M  V30 10166 C 941.058 0.0155016 4.45997 0
M  V30 10167 C 941.759 1.82141 5.52449 0
M  V30 10168 N 940.735 1.12508 5.3183 0
M  V30 10169 H 944.537 1.03939 2.74907 0
M  V30 10170 H 942.051 0.667353 1.48055 0
M  V30 10171 H 944.048 -1.06582 4.03046 0
M  V30 10172 H 942.708 -1.43429 2.91304 0
M  V30 10173 H 943.719 1.68545 4.89707 0
M  V30 10174 H 940.396 -0.770128 4.10336 0
M  V30 10175 H 941.786 2.7181 6.14466 0
M  V30 10176 N 944.506 -1.46559 0.579492 0
M  V30 10177 C 945.438 -2.28383 -0.19337 0
M  V30 10178 C 946.451 -1.38324 -0.858511 0
M  V30 10179 O 947.64 -1.62952 -0.728615 0
M  V30 10180 C 944.74 -3.13262 -1.29306 0
M  V30 10181 C 943.913 -4.31426 -0.720459 0
M  V30 10182 C 942.972 -4.97728 -1.70744 0
M  V30 10183 O 941.998 -5.55423 -1.24476 0
M  V30 10184 N 943.2 -4.94445 -3.04146 0
M  V30 10185 H 945.965 -2.95353 0.508611 0
M  V30 10186 H 943.526 -1.56436 0.417046 0
M  V30 10187 H 945.518 -3.54483 -1.95254 0
M  V30 10188 H 944.088 -2.48388 -1.89795 0
M  V30 10189 H 943.308 -3.94028 0.116398 0
M  V30 10190 H 944.596 -5.07808 -0.31763 0
M  V30 10191 H 943.994 -4.4881 -3.44363 0
M  V30 10192 H 942.551 -5.39616 -3.65592 0
M  V30 10193 N 945.984 -0.3171 -1.54377 0
M  V30 10194 C 946.934 0.567199 -2.20832 0
M  V30 10195 C 947.918 1.08661 -1.18666 0
M  V30 10196 O 949.11 1.0247 -1.44322 0
M  V30 10197 C 946.239 1.73079 -2.96477 0
M  V30 10198 C 945.325 1.22658 -4.05975 0
M  V30 10199 N 945.716 0.441565 -5.03869 0
M  V30 10200 C 944.014 1.50589 -4.19808 0
M  V30 10201 C 944.715 0.171063 -5.81448 0
M  V30 10202 N 943.691 0.755389 -5.38326 0
M  V30 10203 H 947.493 -0.0399349 -2.93873 0
M  V30 10204 H 945.007 -0.122639 -1.61936 0
M  V30 10205 H 947.004 2.37601 -3.42566 0
M  V30 10206 H 945.664 2.34146 -2.24957 0
M  V30 10207 H 946.675 0.0849921 -5.1783 0
M  V30 10208 H 943.352 2.12288 -3.595 0
M  V30 10209 H 944.742 -0.460484 -6.7032 0
M  V30 10210 N 947.462 1.57535 -0.0451378 0
M  V30 10211 C 948.71 1.92071 0.628743 0
M  V30 10212 C 949.031 0.923635 1.71738 0
M  V30 10213 O 948.301 -0.0324376 1.95873 0
M  V30 10214 H 946.881 0.708995 0.235233 0
M  V30 10215 H 949.543 1.9466 -0.0967177 0
M  V30 10216 H 948.639 2.9314 1.07123 0
M  V30 10217 N 948.94 -0.228186 1.55939 0
M  V30 10218 C 950.189 -0.951563 1.77843 0
M  V30 10219 C 950.502 -1.85763 0.612501 0
M  V30 10220 O 951.708 -2.61916 0.715006 0
M  V30 10221 C 950.164 -1.74216 3.14923 0
M  V30 10222 C 949.772 -0.882569 4.39221 0
M  V30 10223 C 951.516 -2.45715 3.46156 0
M  V30 10224 C 949.423 -1.67014 5.67327 0
M  V30 10225 H 948.353 -0.359035 0.663031 0
M  V30 10226 H 951.004 -0.205636 1.82344 0
M  V30 10227 H 949.386 -2.53075 3.0458 0
M  V30 10228 H 950.56 -0.13499 4.60602 0
M  V30 10229 H 948.875 -0.280022 4.15457 0
M  V30 10230 H 951.472 -3.05127 4.39092 0
M  V30 10231 H 951.815 -3.1827 2.68346 0
M  V30 10232 H 952.348 -1.73852 3.57799 0
M  V30 10233 H 949.087 -0.987985 6.48012 0
M  V30 10234 H 948.607 -2.3925 5.50018 0
M  V30 10235 H 950.286 -2.23252 6.07262 0
M  V30 10236 N 950.418 -1.49637 -0.494624 0
M  V30 10237 C 951.664 -1.59681 -1.25019 0
M  V30 10238 C 951.997 -0.285511 -1.9209 0
M  V30 10239 O 951.272 0.711398 -1.81023 0
M  V30 10240 C 951.555 -2.76058 -2.31222 0
M  V30 10241 C 951.408 -4.17002 -1.68611 0
M  V30 10242 C 952.727 -2.88056 -3.32734 0
M  V30 10243 H 949.846 -0.581209 -0.453172 0
M  V30 10244 H 952.488 -1.81944 -0.547391 0
M  V30 10245 H 950.638 -2.57207 -2.91164 0
M  V30 10246 H 952.31 -4.47385 -1.12447 0
M  V30 10247 H 950.553 -4.22352 -0.989991 0
M  V30 10248 H 951.224 -4.94316 -2.45674 0
M  V30 10249 H 953.7 -3.05237 -2.82789 0
M  V30 10250 H 952.576 -3.71151 -4.04399 0
M  V30 10251 H 952.837 -1.97676 -3.95445 0
M  V30 10252 N 951.896 0.746133 -1.38819 0
M  V30 10253 C 952.846 1.85085 -1.33145 0
M  V30 10254 C 953.83 1.59466 -0.214339 0
M  V30 10255 O 955.022 1.71159 -0.450943 0
M  V30 10256 C 952.151 3.22884 -1.16623 0
M  V30 10257 C 951.237 3.54369 -2.32988 0
M  V30 10258 N 951.628 3.56863 -3.58445 0
M  V30 10259 C 949.926 3.84674 -2.25703 0
M  V30 10260 C 950.627 3.85827 -4.3533 0
M  V30 10261 N 949.603 4.03037 -3.64777 0
M  V30 10262 H 953.405 1.85301 -2.28124 0
M  V30 10263 H 950.919 0.943847 -1.32156 0
M  V30 10264 H 952.916 4.0195 -1.10642 0
M  V30 10265 H 951.576 3.23914 -0.225841 0
M  V30 10266 H 952.587 3.38443 -3.92017 0
M  V30 10267 H 949.264 3.93375 -1.39864 0
M  V30 10268 H 950.654 3.94317 -5.44025 0
M  V30 10269 N 953.375 1.23811 0.975125 0
M  V30 10270 C 954.6 1.10109 1.75757 0
M  V30 10271 C 955.025 -0.342922 1.84948 0
M  V30 10272 O 954.383 -1.24814 1.31496 0
M  V30 10273 C 954.431 1.73724 3.15994 0
M  V30 10274 O 953.535 1.00297 4.00018 0
M  V30 10275 H 952.876 0.385627 0.540544 0
M  V30 10276 H 955.406 1.63971 1.22372 0
M  V30 10277 H 955.416 1.79178 3.6655 0
M  V30 10278 H 954.091 2.78794 3.0862 0
M  V30 10279 H 952.668 1.02575 3.58515 0
M  V30 10280 N 954.853 -1.17469 1.05066 0
M  V30 10281 C 956.13 -1.83625 0.673872 0
M  V30 10282 C 956.51 -1.93412 -0.845871 0
M  V30 10283 O 955.858 -1.4677 -1.75131 0
M  V30 10284 C 956.068 -3.21352 1.36139 0
M  V30 10285 C 957.416 -3.97274 1.49863 0
M  V30 10286 O 958.44 -3.30827 1.3203 0
M  V30 10287 O 957.299 -5.16349 1.79013 0
M  V30 10288 H 954.393 -0.792297 0.237055 0
M  V30 10289 H 956.939 -1.24776 1.15017 0
M  V30 10290 H 955.711 -3.0919 2.39827 0
M  V30 10291 H 955.334 -3.87867 0.874364 0
M  V30 10292 N 956.331 -0.831506 -1.3388 0
M  V30 10293 C 957.261 -0.274378 -2.31882 0
M  V30 10294 C 958.242 0.613872 -1.58637 0
M  V30 10295 O 959.427 0.538961 -1.86571 0
M  V30 10296 C 956.557 0.557498 -3.42796 0
M  V30 10297 C 955.511 -0.234337 -4.27358 0
M  V30 10298 C 954.837 0.720825 -5.29819 0
M  V30 10299 C 956.137 -1.44732 -5.01847 0
M  V30 10300 H 957.831 -1.09322 -2.78728 0
M  V30 10301 H 955.377 -0.527136 -1.34005 0
M  V30 10302 H 957.33 0.957501 -4.10378 0
M  V30 10303 H 956.054 1.40947 -2.94621 0
M  V30 10304 H 954.713 -0.61581 -3.61391 0
M  V30 10305 H 954.361 1.569 -4.77903 0
M  V30 10306 H 954.061 0.195171 -5.87276 0
M  V30 10307 H 955.585 1.1185 -6.00268 0
M  V30 10308 H 956.999 -1.12087 -5.62236 0
M  V30 10309 H 955.396 -1.90923 -5.68919 0
M  V30 10310 H 956.466 -2.22099 -4.31045 0
M  V30 10311 N 957.809 1.4625 -0.587256 0
M  V30 10312 C 958.756 2.30354 0.143384 0
M  V30 10313 C 959.726 1.40891 0.879716 0
M  V30 10314 O 960.911 1.69837 0.869486 0
M  V30 10315 C 958.051 3.25441 1.14815 0
M  V30 10316 C 957.164 4.30004 0.414792 0
M  V30 10317 C 956.299 5.12214 1.40748 0
M  V30 10318 C 955.338 6.08523 0.660786 0
M  V30 10319 N 954.475 6.83585 1.60176 0
M  V30 10320 H 959.315 2.92304 -0.579866 0
M  V30 10321 H 956.852 1.44055 -0.29777 0
M  V30 10322 H 958.81 3.79018 1.7436 0
M  V30 10323 H 957.44 2.6529 1.83906 0
M  V30 10324 H 956.492 3.79248 -0.295787 0
M  V30 10325 H 957.804 4.98515 -0.168738 0
M  V30 10326 H 956.958 5.70091 2.0756 0
M  V30 10327 H 955.697 4.43675 2.02494 0
M  V30 10328 H 954.702 5.49796 -0.0210864 0
M  V30 10329 H 955.927 6.79083 0.0486551 0
M  V30 10330 H 953.873 6.17752 2.20724 0
M  V30 10331 H 953.79 7.48373 1.07115 0
M  V30 10332 H 955.058 7.46016 2.26009 0
M  V30 10333 N 959.287 0.325282 1.54207 0
M  V30 10334 C 960.698 -0.162426 1.85992 0
M  V30 10335 C 961.049 -1.51482 1.2469 0
M  V30 10336 O 960.174 -2.092 0.553578 0
M  V30 10337 C 960.769 -0.3015 3.37456 0
M  V30 10338 C 959.328 -0.73343 3.69185 0
M  V30 10339 C 958.475 0.143831 2.76927 0
M  V30 10340 H 961.426 0.545508 1.4903 0
M  V30 10341 H 961.447 -1.13212 3.63268 0
M  V30 10342 H 960.959 0.682942 3.82044 0
M  V30 10343 H 959.06 -1.72755 3.30131 0
M  V30 10344 H 959.173 -0.535987 4.76092 0
M  V30 10345 H 957.537 -0.380892 2.51836 0
M  V30 10346 H 958.32 1.12507 3.24341 0
M  V30 10347 N 960.765 -1.57509 0.0534917 0
M  V30 10348 C 961.728 -2.10563 -0.905307 0
M  V30 10349 C 962.728 -1.02571 -1.23838 0
M  V30 10350 O 963.918 -1.28635 -1.17468 0
M  V30 10351 C 961.05 -2.5918 -2.21447 0
M  V30 10352 H 962.243 -2.96575 -0.445354 0
M  V30 10353 H 959.796 -1.55079 -0.194947 0
M  V30 10354 H 960.531 -1.76568 -2.72019 0
M  V30 10355 H 960.316 -3.38098 -1.98575 0
M  V30 10356 H 961.806 -3.00365 -2.90122 0
M  V30 10357 N 962.243 0.219913 -1.56058 0
M  V30 10358 C 963.191 1.29215 -1.93407 0
M  V30 10359 C 964.185 1.48434 -0.816307 0
M  V30 10360 O 965.391 1.49589 -1.00115 0
M  V30 10361 H 961.766 0.433256 -0.614649 0
M  V30 10362 H 963.737 0.949977 -2.82875 0
M  V30 10363 C 962.486 2.63501 -2.26854 0
M  V30 10364 H 961.809 2.4952 -3.12377 0
M  V30 10365 H 963.249 3.37334 -2.56869 0
M  V30 10366 C 961.708 3.18634 -1.09425 0
M  V30 10367 O 962.238 4.00117 -0.356243 0
M  V30 10368 N 960.444 2.7703 -0.877642 0
M  V30 10369 H 959.991 2.10875 -1.47951 0
M  V30 10370 H 959.949 3.1426 -0.0936792 0
M  V30 10371 N 963.721 1.49897 0.486681 0
M  V30 10372 C 964.968 1.60105 1.23986 0
M  V30 10373 C 965.296 0.294228 1.92262 0
M  V30 10374 O 964.551 -0.718876 1.82018 0
M  V30 10375 C 964.85 2.71982 2.31863 0
M  V30 10376 C 964.516 4.13 1.80948 0
M  V30 10377 C 963.178 4.51373 1.66782 0
M  V30 10378 C 965.53 5.01198 1.43004 0
M  V30 10379 C 962.858 5.75701 1.13072 0
M  V30 10380 C 965.21 6.26058 0.90742 0
M  V30 10381 C 963.874 6.63247 0.752269 0
M  V30 10382 H 963.144 0.585866 0.453698 0
M  V30 10383 H 965.791 1.83778 0.538305 0
M  V30 10384 H 964.096 2.42336 3.07865 0
M  V30 10385 H 965.793 2.77087 2.89869 0
M  V30 10386 H 962.383 3.82718 1.92937 0
M  V30 10387 H 966.567 4.72196 1.52789 0
M  V30 10388 H 961.823 6.03202 0.997842 0
M  V30 10389 H 965.997 6.9377 0.604684 0
M  V30 10390 H 963.624 7.59466 0.33392 0
M  V30 10391 N 965.199 -0.738761 1.39212 0
M  V30 10392 C 966.129 -1.86602 1.40364 0
M  V30 10393 C 967.11 -1.67984 0.267495 0
M  V30 10394 O 968.295 -1.88358 0.472765 0
M  V30 10395 C 965.425 -3.24308 1.24265 0
M  V30 10396 C 964.379 -3.57557 2.35239 0
M  V30 10397 C 963.705 -4.94159 2.04233 0
M  V30 10398 C 965.005 -3.60914 3.77543 0
M  V30 10399 H 966.699 -1.85896 2.34698 0
M  V30 10400 H 964.245 -0.892959 1.1297 0
M  V30 10401 H 966.198 -4.02838 1.23692 0
M  V30 10402 H 964.922 -3.25531 0.263974 0
M  V30 10403 H 963.581 -2.81354 2.35022 0
M  V30 10404 H 963.229 -4.91959 1.04813 0
M  V30 10405 H 962.929 -5.17373 2.78567 0
M  V30 10406 H 964.453 -5.7505 2.05303 0
M  V30 10407 H 965.867 -4.29528 3.79709 0
M  V30 10408 H 964.264 -3.95644 4.51205 0
M  V30 10409 H 965.334 -2.60803 4.08791 0
M  V30 10410 N 966.677 -1.24326 -0.968545 0
M  V30 10411 C 967.926 -1.07647 -1.70572 0
M  V30 10412 C 968.239 0.384821 -1.91777 0
M  V30 10413 O 969.445 0.671782 -2.63058 0
M  V30 10414 C 967.901 -1.87799 -3.07017 0
M  V30 10415 C 967.509 -3.38333 -2.93658 0
M  V30 10416 C 969.253 -1.79647 -3.84613 0
M  V30 10417 C 967.16 -4.10831 -4.25407 0
M  V30 10418 H 966.09 -0.399216 -0.639642 0
M  V30 10419 H 968.741 -1.484 -1.07934 0
M  V30 10420 H 967.123 -1.3986 -3.7048 0
M  V30 10421 H 968.297 -3.93845 -2.39213 0
M  V30 10422 H 966.612 -3.47427 -2.29528 0
M  V30 10423 H 969.209 -2.31116 -4.82172 0
M  V30 10424 H 969.552 -0.761553 -4.09275 0
M  V30 10425 H 970.085 -2.25261 -3.27875 0
M  V30 10426 H 966.824 -5.14679 -4.05939 0
M  V30 10427 H 966.344 -3.60105 -4.79671 0
M  V30 10428 H 968.023 -4.17783 -4.94031 0
M  V30 10429 N 968.156 1.1691 -1.05688 0
M  V30 10430 C 969.402 1.8757 -0.771071 0
M  V30 10431 C 969.735 1.8113 0.700399 0
M  V30 10432 O 969.01 1.22273 1.5126 0
M  V30 10433 C 969.293 3.37392 -1.25851 0
M  V30 10434 C 969.146 3.52556 -2.79329 0
M  V30 10435 C 970.465 4.31585 -0.861512 0
M  V30 10436 H 967.584 0.681089 -0.281579 0
M  V30 10437 H 970.226 1.37453 -1.31174 0
M  V30 10438 H 968.376 3.80204 -0.798563 0
M  V30 10439 H 970.048 3.18725 -3.33485 0
M  V30 10440 H 968.291 2.94668 -3.1836 0
M  V30 10441 H 968.962 4.57748 -3.08498 0
M  V30 10442 H 971.438 3.96642 -1.25756 0
M  V30 10443 H 970.314 5.34939 -1.23012 0
M  V30 10444 H 970.575 4.4148 0.234089 0
M  V30 10445 N 969.634 0.838594 1.33437 0
M  V30 10446 C 970.911 0.356112 1.92331 0
M  V30 10447 C 971.291 -1.1585 1.76471 0
M  V30 10448 O 970.639 -1.97281 1.15293 0
M  V30 10449 C 970.849 0.802715 3.39643 0
M  V30 10450 C 972.197 0.810575 4.16791 0
M  V30 10451 O 973.221 0.746304 3.48294 0
M  V30 10452 O 972.08 0.898082 5.3907 0
M  V30 10453 H 969.174 0.100711 0.820845 0
M  V30 10454 H 971.72 0.924428 1.42311 0
M  V30 10455 H 970.492 1.84529 3.45057 0
M  V30 10456 H 970.115 0.210956 3.9704 0
M  V30 10457 N 971.112 -1.45937 0.595003 0
M  V30 10458 C 972.36 -2.01921 0.0851368 0
M  V30 10459 C 972.681 -1.46748 -1.28413 0
M  V30 10460 O 971.951 -0.656873 -1.84559 0
M  V30 10461 H 970.531 -0.746457 0.0284826 0
M  V30 10462 H 973.193 -1.78891 0.773561 0
M  V30 10463 H 972.289 -3.1209 0.0254002 0
M  V30 10464 N 972.59 -0.333456 -1.54032 0
M  V30 10465 C 973.523 0.570776 -2.20947 0
M  V30 10466 C 974.501 1.10811 -1.18994 0
M  V30 10467 O 975.685 1.17027 -1.47773 0
M  V30 10468 C 972.812 1.7842 -2.87896 0
M  V30 10469 C 971.858 1.37722 -4.03652 0
M  V30 10470 S 972.691 0.405548 -5.33962 0
M  V30 10471 C 973.847 1.62603 -6.0441 0
M  V30 10472 H 974.08 0.0023936 -2.973 0
M  V30 10473 H 971.613 -0.117531 -1.53952 0
M  V30 10474 H 973.571 2.48038 -3.27089 0
M  V30 10475 H 972.232 2.32378 -2.11327 0
M  V30 10476 H 971.425 2.28167 -4.49395 0
M  V30 10477 H 971.027 0.760628 -3.66184 0
M  V30 10478 H 973.319 2.56202 -6.2719 0
M  V30 10479 H 974.262 1.21058 -6.97675 0
M  V30 10480 H 974.67 1.8175 -5.34441 0
M  V30 10481 N 974.068 1.57479 -0.061844 0
M  V30 10482 C 974.998 2.15181 0.9066 0
M  V30 10483 C 975.979 1.07624 1.31724 0
M  V30 10484 O 977.164 1.35614 1.39006 0
M  V30 10485 C 974.294 2.70542 2.17771 0
M  V30 10486 C 973.248 3.83178 1.9068 0
M  V30 10487 C 972.574 4.25099 3.24337 0
M  V30 10488 C 973.874 5.07853 1.21994 0
M  V30 10489 H 975.568 2.96355 0.42594 0
M  V30 10490 H 973.114 1.42556 0.203435 0
M  V30 10491 H 975.067 3.09552 2.85929 0
M  V30 10492 H 973.791 1.86575 2.68062 0
M  V30 10493 H 972.45 3.44656 1.24931 0
M  V30 10494 H 972.098 3.38069 3.72449 0
M  V30 10495 H 971.798 5.01021 3.07005 0
M  V30 10496 H 973.322 4.66718 3.93709 0
M  V30 10497 H 974.736 5.44242 1.80204 0
M  V30 10498 H 973.133 5.88987 1.14954 0
M  V30 10499 H 974.203 4.84497 0.197536 0
M  V30 10500 N 975.546 -0.211634 1.56173 0
M  V30 10501 C 976.493 -1.26231 1.93221 0
M  V30 10502 C 977.463 -1.46076 0.790641 0
M  V30 10503 O 978.648 -1.59482 1.04739 0
M  V30 10504 C 975.788 -2.60559 2.26281 0
M  V30 10505 C 974.901 -2.48431 3.5342 0
M  V30 10506 C 974.036 -3.7535 3.7588 0
M  V30 10507 C 973.075 -3.57985 4.96501 0
M  V30 10508 N 972.212 -4.76877 5.15299 0
M  V30 10509 H 977.052 -0.939367 2.82807 0
M  V30 10510 H 974.589 -0.452511 1.39967 0
M  V30 10511 H 976.547 -3.38796 2.43461 0
M  V30 10512 H 975.177 -2.9093 1.39855 0
M  V30 10513 H 974.229 -1.61577 3.44379 0
M  V30 10514 H 975.541 -2.31526 4.41811 0
M  V30 10515 H 974.695 -4.62029 3.9321 0
M  V30 10516 H 973.434 -3.95191 2.85788 0
M  V30 10517 H 972.439 -2.69691 4.79111 0
M  V30 10518 H 973.664 -3.39605 5.88086 0
M  V30 10519 H 971.61 -4.97013 4.28152 0
M  V30 10520 H 971.527 -4.62735 5.9784 0
M  V30 10521 H 972.795 -5.64954 5.37073 0
M  V30 10522 N 977.024 -1.50153 -0.478725 0
M  V30 10523 C 977.954 -1.71384 -1.58587 0
M  V30 10524 C 978.935 -0.562705 -1.60523 0
M  V30 10525 O 980.12 -0.80101 -1.76911 0
M  V30 10526 C 977.25 -1.80094 -2.96957 0
M  V30 10527 C 976.204 -2.95218 -3.09888 0
M  V30 10528 C 975.53 -2.89063 -4.49829 0
M  V30 10529 C 976.83 -4.35841 -2.8782 0
M  V30 10530 H 978.524 -2.64081 -1.41073 0
M  V30 10531 H 976.07 -1.27081 -0.677239 0
M  V30 10532 H 978.023 -1.93531 -3.74331 0
M  V30 10533 H 976.747 -0.840131 -3.1561 0
M  V30 10534 H 975.406 -2.81419 -2.34944 0
M  V30 10535 H 975.054 -1.90844 -4.6539 0
M  V30 10536 H 974.754 -3.66345 -4.59418 0
M  V30 10537 H 976.278 -3.04539 -5.29234 0
M  V30 10538 H 977.692 -4.50205 -3.54948 0
M  V30 10539 H 976.089 -5.14515 -3.0886 0
M  V30 10540 H 977.159 -4.48739 -1.83742 0
M  V30 10541 N 978.502 0.731368 -1.39602 0
M  V30 10542 C 979.751 1.48647 -1.36334 0
M  V30 10543 C 980.064 1.95565 0.0367383 0
M  V30 10544 O 981.27 2.7082 0.192017 0
M  V30 10545 C 979.726 2.68616 -2.39528 0
M  V30 10546 C 979.334 2.28632 -3.85268 0
M  V30 10547 C 981.078 3.46422 -2.45341 0
M  V30 10548 C 978.985 3.45345 -4.80095 0
M  V30 10549 H 977.915 0.558218 -0.506861 0
M  V30 10550 H 980.566 0.797467 -1.65266 0
M  V30 10551 H 978.948 3.39609 -2.03671 0
M  V30 10552 H 980.122 1.65162 -4.30184 0
M  V30 10553 H 978.437 1.63909 -3.82783 0
M  V30 10554 H 981.034 4.33241 -3.13379 0
M  V30 10555 H 981.377 3.8914 -1.47904 0
M  V30 10556 H 981.91 2.82461 -2.80108 0
M  V30 10557 H 978.649 3.07674 -5.78807 0
M  V30 10558 H 978.169 4.07784 -4.39855 0
M  V30 10559 H 979.848 4.1163 -4.99169 0
M  V30 10560 N 979.98 1.24838 0.961938 0
M  V30 10561 C 981.257 0.99939 1.68141 0
M  V30 10562 C 981.637 -0.476588 2.0565 0
M  V30 10563 O 980.985 -1.45224 1.76415 0
M  V30 10564 C 981.195 1.92797 2.90913 0
M  V30 10565 C 982.543 2.20219 3.63027 0
M  V30 10566 O 983.567 1.90496 3.00981 0
M  V30 10567 O 982.426 2.70725 4.74731 0
M  V30 10568 H 979.52 0.37842 0.735342 0
M  V30 10569 H 982.066 1.35961 1.01551 0
M  V30 10570 H 980.838 2.92492 2.59931 0
M  V30 10571 H 980.461 1.57127 3.65235 0
M  V30 10572 N 981.458 -1.16348 1.06306 0
M  V30 10573 C 982.705 -1.86881 0.779852 0
M  V30 10574 C 983.033 -1.8171 -0.693668 0
M  V30 10575 O 982.288 -1.22769 -1.52401 0
M  V30 10576 C 982.587 -3.35936 1.21991 0
M  V30 10577 C 982.253 -3.61307 2.69756 0
M  V30 10578 C 980.915 -3.6794 3.10119 0
M  V30 10579 C 983.267 -3.71871 3.65187 0
M  V30 10580 C 980.595 -3.82639 4.44752 0
M  V30 10581 C 982.947 -3.88091 4.99568 0
M  V30 10582 C 981.611 -3.92967 5.39568 0
M  V30 10583 H 980.881 -0.683847 0.285368 0
M  V30 10584 H 983.528 -1.37569 1.33218 0
M  V30 10585 H 981.833 -3.87381 0.586774 0
M  V30 10586 H 983.53 -3.88895 0.977821 0
M  V30 10587 H 980.12 -3.56777 2.37504 0
M  V30 10588 H 984.304 -3.66057 3.35136 0
M  V30 10589 H 979.56 -3.84666 4.75228 0
M  V30 10590 H 983.734 -3.95207 5.73397 0
M  V30 10591 H 981.361 -4.04109 6.43895 0
M  V30 10592 N 982.937 -0.845659 -1.3299 0
M  V30 10593 C 984.185 -0.443774 -1.97168 0
M  V30 10594 C 984.506 1.00192 -1.67292 0
M  V30 10595 O 983.776 1.69891 -0.975397 0
M  V30 10596 H 982.356 -0.161111 -0.729419 0
M  V30 10597 H 985.018 -1.08011 -1.62233 0
M  V30 10598 H 984.114 -0.581414 -3.06637 0
M  V30 10599 N 984.415 1.45619 -0.602734 0
M  V30 10600 C 985.664 2.01483 -0.0936395 0
M  V30 10601 C 985.977 1.47753 1.28173 0
M  V30 10602 O 987.183 1.95562 1.88329 0
M  V30 10603 C 985.639 3.59711 -0.116738 0
M  V30 10604 C 985.247 4.22437 -1.49166 0
M  V30 10605 C 986.991 4.23157 0.337368 0
M  V30 10606 C 984.898 5.72803 -1.47141 0
M  V30 10607 H 983.828 0.753353 -0.0312382 0
M  V30 10608 H 986.479 1.67142 -0.757347 0
M  V30 10609 H 984.861 3.91218 0.613529 0
M  V30 10610 H 986.035 4.02511 -2.24325 0
M  V30 10611 H 984.35 3.71166 -1.88746 0
M  V30 10612 H 986.947 5.33407 0.371628 0
M  V30 10613 H 987.29 3.93491 1.35906 0
M  V30 10614 H 987.823 3.96349 -0.339474 0
M  V30 10615 H 984.562 6.07161 -2.47055 0
M  V30 10616 H 984.082 5.94936 -0.762329 0
M  V30 10617 H 985.761 6.35907 -1.19294 0
M  V30 10618 N 985.893 0.34162 1.53853 0
M  V30 10619 C 986.856 -0.503541 2.236 0
M  V30 10620 C 987.856 -1.02912 1.23554 0
M  V30 10621 O 989.046 -0.918678 1.48007 0
M  V30 10622 C 986.178 -1.70126 2.95415 0
M  V30 10623 H 987.371 0.106437 2.99711 0
M  V30 10624 H 984.924 0.0929408 1.56023 0
M  V30 10625 H 985.659 -2.34999 2.23486 0
M  V30 10626 H 985.444 -1.33161 3.68796 0
M  V30 10627 H 986.934 -2.30077 3.48503 0
M  V30 10628 N 987.371 -1.57444 0.0701946 0
M  V30 10629 C 988.319 -2.13834 -0.915302 0
M  V30 10630 C 989.313 -1.07483 -1.30934 0
M  V30 10631 O 990.519 -1.25865 -1.28678 0
M  V30 10632 H 986.894 -0.683716 -0.313108 0
M  V30 10633 H 988.865 -2.95503 -0.414758 0
M  V30 10634 C 987.614 -2.71355 -2.17398 0
M  V30 10635 H 986.937 -3.52861 -1.87961 0
M  V30 10636 H 988.377 -3.1441 -2.84469 0
M  V30 10637 C 986.836 -1.66038 -2.93143 0
M  V30 10638 O 987.366 -1.08443 -3.86786 0
M  V30 10639 N 985.572 -1.3711 -2.56221 0
M  V30 10640 H 985.119 -1.84135 -1.80145 0
M  V30 10641 H 985.077 -0.66877 -3.07205 0
M  V30 10642 N 988.849 0.203349 -1.56283 0
M  V30 10643 C 989.781 1.27592 -1.90402 0
M  V30 10644 C 990.794 1.4213 -0.79391 0
M  V30 10645 O 991.983 1.42703 -1.07229 0
M  V30 10646 C 989.083 2.64919 -2.11356 0
M  V30 10647 C 988.256 2.72095 -3.42466 0
M  V30 10648 C 987.315 3.9056 -3.52631 0
M  V30 10649 O 986.341 3.78048 -4.25521 0
M  V30 10650 N 987.543 5.0566 -2.85111 0
M  V30 10651 H 990.308 0.986423 -2.83001 0
M  V30 10652 H 987.869 0.39331 -1.5705 0
M  V30 10653 H 989.861 3.42581 -2.15453 0
M  V30 10654 H 988.431 2.86391 -1.25295 0
M  V30 10655 H 987.651 1.8077 -3.50308 0
M  V30 10656 H 988.939 2.73874 -4.28801 0
M  V30 10657 H 988.337 5.18723 -2.25705 0
M  V30 10658 H 986.894 5.81299 -2.94847 0
M  V30 10659 N 990.327 1.50405 0.470755 0
M  V30 10660 C 991.26 1.63933 1.58749 0
M  V30 10661 C 992.238 0.487444 1.55122 0
M  V30 10662 O 993.422 0.706992 1.74739 0
M  V30 10663 C 990.549 1.62222 2.97324 0
M  V30 10664 C 989.595 2.82975 3.19104 0
M  V30 10665 S 990.428 4.44272 2.98969 0
M  V30 10666 C 991.584 4.45254 4.39886 0
M  V30 10667 H 991.817 2.58396 1.47034 0
M  V30 10668 H 989.35 1.39672 0.658115 0
M  V30 10669 H 991.308 1.6192 3.77217 0
M  V30 10670 H 989.969 0.689944 3.06429 0
M  V30 10671 H 989.162 2.78083 4.2034 0
M  V30 10672 H 988.764 2.80846 2.46984 0
M  V30 10673 H 991.056 4.18837 5.32524 0
M  V30 10674 H 991.999 5.4687 4.49821 0
M  V30 10675 H 992.407 3.74958 4.2198 0
M  V30 10676 N 991.805 -0.723954 1.39988 0
M  V30 10677 C 992.737 -1.84859 1.35498 0
M  V30 10678 C 993.75 -1.60681 0.261812 0
M  V30 10679 O 994.939 -1.7071 0.521566 0
M  V30 10680 C 992.039 -3.21103 1.08381 0
M  V30 10681 C 991.212 -3.72546 2.2919 0
M  V30 10682 C 990.271 -4.8738 1.9836 0
M  V30 10683 O 989.297 -5.00467 2.71149 0
M  V30 10684 N 990.499 -5.72566 0.956461 0
M  V30 10685 H 993.264 -1.89212 2.3242 0
M  V30 10686 H 990.825 -0.905152 1.34233 0
M  V30 10687 H 992.817 -3.9551 0.857564 0
M  V30 10688 H 991.387 -3.1195 0.201549 0
M  V30 10689 H 990.607 -2.89365 2.67697 0
M  V30 10690 H 991.895 -4.03652 3.09746 0
M  V30 10691 H 991.293 -5.64595 0.353444 0
M  V30 10692 H 989.85 -6.46993 0.790118 0
M  V30 10693 N 993.283 -1.25346 -0.955304 0
M  V30 10694 C 994.694 -1.09173 -1.51453 0
M  V30 10695 C 995.045 0.332755 -1.93358 0
M  V30 10696 O 994.17 1.22264 -1.78551 0
M  V30 10697 C 994.765 -1.97564 -2.75234 0
M  V30 10698 C 993.324 -1.85579 -3.27471 0
M  V30 10699 C 992.471 -1.91755 -2.00313 0
M  V30 10700 H 995.422 -1.38642 -0.772271 0
M  V30 10701 H 995.443 -1.51523 -3.49029 0
M  V30 10702 H 994.955 -3.01233 -2.44704 0
M  V30 10703 H 993.056 -0.847906 -3.62824 0
M  V30 10704 H 993.169 -2.70353 -3.95533 0
M  V30 10705 H 991.533 -1.35633 -2.15582 0
M  V30 10706 H 992.316 -2.97028 -1.72132 0
M  V30 10707 N 994.761 1.15782 -1.06922 0
M  V30 10708 C 996.038 1.8253 -0.703 0
M  V30 10709 C 996.418 1.94733 0.814994 0
M  V30 10710 O 995.766 1.49537 1.72774 0
M  V30 10711 C 995.976 3.19145 -1.41234 0
M  V30 10712 C 997.324 3.94839 -1.56164 0
M  V30 10713 O 998.348 3.28685 -1.37277 0
M  V30 10714 O 997.207 5.13436 -1.87205 0
M  V30 10715 H 994.301 0.788425 -0.24963 0
M  V30 10716 H 996.847 1.22931 -1.16988 0
M  V30 10717 H 995.619 3.05336 -2.44715 0
M  V30 10718 H 995.242 3.86427 -0.935959 0
M  V30 10719 N 996.239 0.8527 1.3254 0
M  V30 10720 C 997.467 0.469044 2.01513 0
M  V30 10721 C 997.882 -0.933701 1.64096 0
M  V30 10722 O 997.239 -1.60898 0.861283 0
M  V30 10723 C 997.29 0.596228 3.56549 0
M  V30 10724 O 997.011 1.94371 3.92621 0
M  V30 10725 C 998.512 0.211324 4.42796 0
M  V30 10726 H 995.732 0.184589 0.645111 0
M  V30 10727 H 998.276 1.1491 1.69163 0
M  V30 10728 H 996.431 -0.0360712 3.87383 0
M  V30 10729 H 996.845 1.93909 4.87339 0
M  V30 10730 H 998.319 0.351324 5.50881 0
M  V30 10731 H 998.796 -0.848055 4.30935 0
M  V30 10732 H 999.402 0.818617 4.17347 0
M  V30 10733 N 997.718 -1.45297 0.610449 0
M  V30 10734 C 998.946 -2.0659 0.113211 0
M  V30 10735 C 999.361 -1.4546 -1.20361 0
M  V30 10736 O 998.718 -0.569823 -1.73376 0
M  V30 10737 C 998.769 -3.61488 -0.0298411 0
M  V30 10738 O 998.49 -4.20336 1.23488 0
M  V30 10739 C 999.991 -4.39772 -0.558202 0
M  V30 10740 H 997.211 -0.667322 0.0701555 0
M  V30 10741 H 999.755 -1.86497 0.838993 0
M  V30 10742 H 997.91 -3.80913 -0.705963 0
M  V30 10743 H 998.324 -5.13545 1.0664 0
M  V30 10744 H 999.798 -5.48648 -0.607375 0
M  V30 10745 H 1000.27 -4.09755 -1.58107 0
M  V30 10746 H 1000.88 -4.25217 0.0839704 0
M  V30 10747 N 999.196 -0.349774 -1.5367 0
M  V30 10748 C 1000.42 0.248692 -2.05904 0
M  V30 10749 C 1000.85 1.42942 -1.22267 0
M  V30 10750 O 1000.2 1.79732 -0.237899 0
M  V30 10751 C 1000.25 0.635639 -3.54953 0
M  V30 10752 O 999.356 1.7349 -3.74132 0
M  V30 10753 H 998.697 0.0399477 -0.662797 0
M  V30 10754 H 1001.23 -0.505795 -1.9825 0
M  V30 10755 H 1001.24 0.911064 -3.97698 0
M  V30 10756 H 999.912 -0.227805 -4.15276 0
M  V30 10757 H 998.489 1.45626 -3.43289 0
M  V30 10758 N 1000.67 1.57404 -0.0785433 0
M  V30 10759 C 1001.92 1.94031 0.589896 0
M  V30 10760 C 1002.25 0.959297 1.68852 0
M  V30 10761 O 1001.53 -0.0103978 1.94497 0
M  V30 10762 C 1001.81 3.40886 1.16055 0
M  V30 10763 C 1001.66 4.49748 0.0681072 0
M  V30 10764 C 1002.98 3.88699 2.06401 0
M  V30 10765 H 1000.1 0.70556 0.212965 0
M  V30 10766 H 1002.74 1.89439 -0.145886 0
M  V30 10767 H 1000.89 3.4493 1.78761 0
M  V30 10768 H 1002.57 4.57823 -0.565318 0
M  V30 10769 H 1000.81 4.29625 -0.600431 0
M  V30 10770 H 1001.48 5.49658 0.507906 0
M  V30 10771 H 1003.96 3.86703 1.53622 0
M  V30 10772 H 1002.83 4.92052 2.43261 0
M  V30 10773 H 1003.09 3.2703 2.97496 0
M  V30 10774 N 1002.15 -0.195058 1.56388 0
M  V30 10775 C 1003.4 -0.9168 1.80894 0
M  V30 10776 C 1003.73 -1.82907 0.652592 0
M  V30 10777 O 1003.01 -1.91382 -0.346853 0
M  V30 10778 C 1003.29 -1.733 3.15657 0
M  V30 10779 C 1003.14 -0.845449 4.41783 0
M  V30 10780 C 1004.46 -2.70557 3.47112 0
M  V30 10781 H 1001.58 -0.331861 0.658056 0
M  V30 10782 H 1004.22 -0.184174 1.89105 0
M  V30 10783 H 1002.37 -2.3576 3.08787 0
M  V30 10784 H 1004.04 -0.235557 4.60698 0
M  V30 10785 H 1002.29 -0.152172 4.33533 0
M  V30 10786 H 1002.96 -1.45152 5.32574 0
M  V30 10787 H 1005.43 -2.1823 3.54281 0
M  V30 10788 H 1004.31 -3.24749 4.42526 0
M  V30 10789 H 1004.57 -3.49605 2.70608 0
M  V30 10790 N 1003.63 -1.50653 -0.462772 0
M  V30 10791 C 1004.58 -1.70122 -1.55971 0
M  V30 10792 C 1005.55 -0.542581 -1.56988 0
M  V30 10793 O 1006.73 -0.774114 -1.74391 0
M  V30 10794 C 1003.87 -1.80899 -2.93887 0
M  V30 10795 C 1002.98 -3.08318 -3.02595 0
M  V30 10796 C 1002.12 -3.09841 -4.31477 0
M  V30 10797 C 1001.16 -4.3168 -4.33957 0
M  V30 10798 N 1000.3 -4.30894 -5.54323 0
M  V30 10799 H 1005.14 -2.63768 -1.38674 0
M  V30 10800 H 1002.67 -1.30746 -0.674091 0
M  V30 10801 H 1004.63 -1.85128 -3.73876 0
M  V30 10802 H 1003.26 -0.906854 -3.098 0
M  V30 10803 H 1002.31 -3.13521 -2.15427 0
M  V30 10804 H 1003.62 -3.98282 -3.00288 0
M  V30 10805 H 1002.78 -3.12845 -5.1982 0
M  V30 10806 H 1001.52 -2.17722 -4.36404 0
M  V30 10807 H 1000.52 -4.28879 -3.4401 0
M  V30 10808 H 1001.75 -5.25035 -4.30715 0
M  V30 10809 H 999.694 -3.41633 -5.6002 0
M  V30 10810 H 999.611 -5.14636 -5.53792 0
M  V30 10811 H 1000.88 -4.38056 -6.44769 0
M  V30 10812 N 1005.11 0.71652 -1.4037 0
M  V30 10813 C 1006.39 1.46947 -1.29097 0
M  V30 10814 C 1006.77 2.10903 0.0911182 0
M  V30 10815 O 1006.11 2.00068 1.10385 0
M  V30 10816 C 1006.32 2.50594 -2.42907 0
M  V30 10817 C 1007.67 3.16451 -2.83097 0
M  V30 10818 O 1008.7 2.60913 -2.42493 0
M  V30 10819 O 1007.55 4.16991 -3.53244 0
M  V30 10820 H 1004.65 0.653413 -0.506932 0
M  V30 10821 H 1007.19 0.748774 -1.52287 0
M  V30 10822 H 1005.97 2.01843 -3.35224 0
M  V30 10823 H 1005.59 3.302 -2.21481 0
M  V30 10824 N 1006.59 1.25851 0.948643 0
M  V30 10825 C 1007.81 1.13813 1.73382 0
M  V30 10826 C 1008.24 -0.303615 1.85633 0
M  V30 10827 O 1007.59 -1.21997 1.34114 0
M  V30 10828 C 1007.64 1.80388 3.12238 0
M  V30 10829 O 1006.75 1.08759 3.978 0
M  V30 10830 H 1006.09 0.397006 0.532243 0
M  V30 10831 H 1008.62 1.66529 1.18866 0
M  V30 10832 H 1008.63 1.86913 3.62667 0
M  V30 10833 H 1007.3 2.85278 3.02637 0
M  V30 10834 H 1005.88 1.10157 3.56258 0
M  V30 10835 N 1008.06 -1.15214 1.07534 0
M  V30 10836 C 1009 -2.19634 0.655261 0
M  V30 10837 C 1010.01 -1.60139 -0.293165 0
M  V30 10838 O 1011.2 -1.78311 -0.0821957 0
M  V30 10839 C 1008.3 -3.38851 -0.0578281 0
M  V30 10840 C 1007.47 -4.27888 0.90725 0
M  V30 10841 C 1006.53 -5.25692 0.231115 0
M  V30 10842 O 1005.56 -5.62469 0.872746 0
M  V30 10843 N 1006.76 -5.71424 -1.0225 0
M  V30 10844 H 1009.52 -2.56292 1.55353 0
M  V30 10845 H 1007.08 -1.30347 0.960271 0
M  V30 10846 H 1009.08 -4.01334 -0.520874 0
M  V30 10847 H 1007.65 -3.00593 -0.858071 0
M  V30 10848 H 1006.87 -3.62475 1.54937 0
M  V30 10849 H 1008.15 -4.84246 1.56151 0
M  V30 10850 H 1007.55 -5.43659 -1.56369 0
M  V30 10851 H 1006.11 -6.35938 -1.42919 0
M  V30 10852 N 1009.54 -0.859717 -1.32086 0
M  V30 10853 C 1010.79 -0.466271 -1.97367 0
M  V30 10854 C 1011.12 0.976728 -1.6785 0
M  V30 10855 O 1010.4 1.68618 -0.969449 0
M  V30 10856 C 1010.68 -0.711851 -3.52994 0
M  V30 10857 C 1010.53 -2.20364 -3.92122 0
M  V30 10858 C 1011.85 -0.17156 -4.39765 0
M  V30 10859 H 1008.97 -0.170883 -0.716916 0
M  V30 10860 H 1011.61 -1.07907 -1.56384 0
M  V30 10861 H 1009.76 -0.190258 -3.88034 0
M  V30 10862 H 1011.43 -2.7917 -3.67236 0
M  V30 10863 H 1009.68 -2.68019 -3.41099 0
M  V30 10864 H 1010.35 -2.32615 -5.00594 0
M  V30 10865 H 1012.82 -0.617665 -4.1149 0
M  V30 10866 H 1011.7 -0.372921 -5.47632 0
M  V30 10867 H 1011.96 0.925959 -4.32294 0
M  V30 10868 N 1011.02 1.44971 -0.618145 0
M  V30 10869 C 1012.27 2.0176 -0.11725 0
M  V30 10870 C 1012.59 1.48773 1.26062 0
M  V30 10871 O 1011.86 0.686152 1.83491 0
M  V30 10872 H 1010.44 0.745909 -0.0403545 0
M  V30 10873 H 1013.1 1.77638 -0.801923 0
M  V30 10874 H 1012.2 3.1201 -0.0750477 0
M  V30 10875 N 1012.5 0.357919 1.53482 0
M  V30 10876 C 1013.73 -0.23514 2.05559 0
M  V30 10877 C 1014.14 -1.43068 1.23195 0
M  V30 10878 O 1013.5 -1.80481 0.270741 0
M  V30 10879 C 1013.55 -0.636147 3.55859 0
M  V30 10880 O 1013.27 0.511864 4.35099 0
M  V30 10881 C 1014.77 -1.28841 4.24164 0
M  V30 10882 H 1011.99 -0.0428446 0.669631 0
M  V30 10883 H 1014.54 0.51407 1.97933 0
M  V30 10884 H 1012.69 -1.33528 3.63661 0
M  V30 10885 H 1013.1 0.189328 5.24158 0
M  V30 10886 H 1014.58 -1.51962 5.30671 0
M  V30 10887 H 1015.06 -2.24638 3.77405 0
M  V30 10888 H 1015.66 -0.630914 4.20594 0
M  V30 10889 N 1013.98 -1.5736 0.0868897 0
M  V30 10890 C 1015.22 -1.94341 -0.579598 0
M  V30 10891 C 1015.56 -0.968238 -1.68341 0
M  V30 10892 O 1014.83 8.29649e-05 -1.945 0
M  V30 10893 C 1015.11 -3.41497 -1.14245 0
M  V30 10894 C 1014.97 -4.49778 -0.044255 0
M  V30 10895 C 1016.29 -3.89788 -2.04336 0
M  V30 10896 H 1013.4 -0.70668 -0.20922 0
M  V30 10897 H 1016.05 -1.89359 0.15593 0
M  V30 10898 H 1014.2 -3.45873 -1.76929 0
M  V30 10899 H 1015.87 -4.57517 0.58959 0
M  V30 10900 H 1014.11 -4.293 0.623207 0
M  V30 10901 H 1014.78 -5.4992 -0.478749 0
M  V30 10902 H 1017.26 -3.87513 -1.51569 0
M  V30 10903 H 1016.13 -4.93335 -2.40648 0
M  V30 10904 H 1016.4 -3.28603 -2.95757 0
M  V30 10905 N 1015.45 0.186762 -1.56489 0
M  V30 10906 C 1016.4 1.25084 -1.96104 0
M  V30 10907 C 1017.4 1.4667 -0.847609 0
M  V30 10908 O 1018.6 1.47432 -1.03266 0
M  V30 10909 H 1014.98 0.420121 -0.623701 0
M  V30 10910 H 1016.95 0.889761 -2.84826 0
M  V30 10911 C 1015.7 2.5863 -2.32392 0
M  V30 10912 H 1015.02 2.42838 -3.176 0
M  V30 10913 H 1016.46 3.3181 -2.63967 0
M  V30 10914 C 1014.92 3.16241 -1.16159 0
M  V30 10915 O 1015.45 3.99272 -0.441034 0
M  V30 10916 N 1013.66 2.75106 -0.936206 0
M  V30 10917 H 1013.2 2.0769 -1.5239 0
M  V30 10918 H 1013.16 3.13991 -0.160317 0
M  V30 10919 N 1016.93 1.50896 0.454776 0
M  V30 10920 C 1018.16 1.66239 1.22671 0
M  V30 10921 C 1018.57 0.351876 1.85899 0
M  V30 10922 O 1017.91 -0.677848 1.70736 0
M  V30 10923 C 1017.98 2.70812 2.36434 0
M  V30 10924 C 1017.64 4.13913 1.93714 0
M  V30 10925 C 1018.64 4.99259 1.45039 0
M  V30 10926 C 1016.32 4.59921 2.01937 0
M  V30 10927 C 1018.32 6.28667 1.05151 0
M  V30 10928 C 1016 5.89329 1.6166 0
M  V30 10929 C 1017 6.73529 1.13347 0
M  V30 10930 O 1016.69 8.0052 0.736354 0
M  V30 10931 H 1016.42 0.561443 0.376508 0
M  V30 10932 H 1018.97 1.97974 0.547325 0
M  V30 10933 H 1017.2 2.34355 3.07595 0
M  V30 10934 H 1018.89 2.7521 2.98353 0
M  V30 10935 H 1019.66 4.64925 1.38095 0
M  V30 10936 H 1015.54 3.94518 2.38488 0
M  V30 10937 H 1019.08 6.94339 0.673711 0
M  V30 10938 H 1014.98 6.23182 1.68269 0
M  V30 10939 H 1015.75 8.1393 0.863759 0
M  V30 10940 N 1018.41 -0.709066 1.40748 0
M  V30 10941 C 1019.34 -1.83293 1.35937 0
M  V30 10942 C 1020.32 -1.60983 0.22871 0
M  V30 10943 O 1021.51 -1.8391 0.413435 0
M  V30 10944 C 1018.63 -3.19746 1.11714 0
M  V30 10945 C 1017.68 -3.60872 2.27319 0
M  V30 10946 S 1018.51 -3.67233 3.89743 0
M  V30 10947 C 1019.67 -5.06434 3.67797 0
M  V30 10948 H 1019.9 -1.87095 2.31047 0
M  V30 10949 H 1017.43 -0.876479 1.27111 0
M  V30 10950 H 1019.39 -3.98526 0.984245 0
M  V30 10951 H 1018.05 -3.1357 0.182472 0
M  V30 10952 H 1017.25 -4.59965 2.06029 0
M  V30 10953 H 1016.85 -2.89366 2.36946 0
M  V30 10954 H 1019.14 -5.93544 3.26668 0
M  V30 10955 H 1020.08 -5.32761 4.66445 0
M  V30 10956 H 1020.49 -4.77336 3.01348 0
M  V30 10957 N 1019.89 -1.26353 -0.941956 0
M  V30 10958 C 1021.3 -1.10774 -1.50287 0
M  V30 10959 C 1021.65 0.312229 -1.937 0
M  V30 10960 O 1020.78 1.20364 -1.79838 0
M  V30 10961 C 1021.37 -2.00473 -2.73123 0
M  V30 10962 C 1019.93 -1.89042 -3.25485 0
M  V30 10963 C 1019.08 -1.93869 -1.98267 0
M  V30 10964 H 1022.03 -1.39454 -0.757523 0
M  V30 10965 H 1022.05 -1.55216 -3.47402 0
M  V30 10966 H 1021.56 -3.03812 -2.41495 0
M  V30 10967 H 1019.66 -0.886341 -3.61904 0
M  V30 10968 H 1019.78 -2.74533 -3.92643 0
M  V30 10969 H 1018.14 -1.37912 -2.14132 0
M  V30 10970 H 1018.92 -2.98837 -1.68972 0
M  V30 10971 N 1021.37 1.14642 -1.08144 0
M  V30 10972 C 1022.78 1.6719 -0.830923 0
M  V30 10973 C 1023.13 1.85373 0.642749 0
M  V30 10974 O 1022.25 1.56293 1.49671 0
M  V30 10975 C 1022.85 3.03697 -1.50179 0
M  V30 10976 C 1021.41 3.5329 -1.29858 0
M  V30 10977 C 1020.56 2.28828 -1.5663 0
M  V30 10978 H 1023.51 0.987441 -1.24239 0
M  V30 10979 H 1023.53 3.69023 -0.9275 0
M  V30 10980 H 1023.04 2.90431 -2.57432 0
M  V30 10981 H 1021.14 3.71783 -0.246626 0
M  V30 10982 H 1021.25 4.34231 -2.02436 0
M  V30 10983 H 1019.62 2.34769 -0.987716 0
M  V30 10984 H 1020.4 2.18141 -2.65084 0
M  V30 10985 N 1022.85 0.866709 1.31628 0
M  V30 10986 C 1023.76 0.323408 2.3236 0
M  V30 10987 C 1024.77 -0.564995 1.64572 0
M  V30 10988 O 1025.95 -0.462489 1.96018 0
M  V30 10989 C 1023.01 -0.469045 3.43513 0
M  V30 10990 C 1022.07 0.446928 4.26967 0
M  V30 10991 C 1021.31 -0.307799 5.32812 0
M  V30 10992 O 1021.53 -1.5363 5.49321 0
M  V30 10993 O 1020.46 0.332653 6.0098 0
M  V30 10994 H 1024.29 1.15827 2.80745 0
M  V30 10995 H 1021.87 0.629987 1.35468 0
M  V30 10996 H 1023.76 -0.918405 4.1127 0
M  V30 10997 H 1022.43 -1.28051 2.97296 0
M  V30 10998 H 1021.34 0.944719 3.61975 0
M  V30 10999 H 1022.67 1.2239 4.76741 0
M  V30 11000 N 1024.32 -1.44642 0.625825 0
M  V30 11001 C 1025.29 -2.29085 -0.072526 0
M  V30 11002 C 1026.29 -1.40755 -0.777467 0
M  V30 11003 O 1027.48 -1.62684 -0.622861 0
M  V30 11004 C 1024.61 -3.22212 -1.1132 0
M  V30 11005 H 1025.8 -2.92317 0.670124 0
M  V30 11006 H 1023.35 -1.51466 0.38571 0
M  V30 11007 H 1024.09 -2.63819 -1.88601 0
M  V30 11008 H 1023.87 -3.87299 -0.611709 0
M  V30 11009 H 1025.36 -3.8566 -1.60175 0
M  V30 11010 N 1025.8 -0.366053 -1.5329 0
M  V30 11011 C 1027.05 0.224614 -2.00445 0
M  V30 11012 C 1027.36 1.49829 -1.2574 0
M  V30 11013 O 1028.57 2.16759 -1.63487 0
M  V30 11014 C 1027.03 0.450818 -3.57065 0
M  V30 11015 C 1026.63 -0.808257 -4.40649 0
M  V30 11016 C 1028.38 0.999116 -4.12575 0
M  V30 11017 C 1026.28 -0.551612 -5.88822 0
M  V30 11018 H 1025.21 0.0877114 -0.748881 0
M  V30 11019 H 1027.87 -0.484866 -1.76978 0
M  V30 11020 H 1026.25 1.22157 -3.76688 0
M  V30 11021 H 1027.42 -1.58184 -4.32798 0
M  V30 11022 H 1025.74 -1.27981 -3.96245 0
M  V30 11023 H 1028.33 1.20646 -5.20911 0
M  V30 11024 H 1028.68 1.96139 -3.67199 0
M  V30 11025 H 1029.21 0.288518 -3.96752 0
M  V30 11026 H 1025.95 -1.48423 -6.38475 0
M  V30 11027 H 1025.47 0.183462 -5.99519 0
M  V30 11028 H 1027.15 -0.177307 -6.46757 0
M  V30 11029 N 1027.28 1.57312 -0.0952337 0
M  V30 11030 C 1028.23 2.14032 0.863657 0
M  V30 11031 C 1029.2 1.0589 1.27971 0
M  V30 11032 O 1030.38 1.33678 1.36143 0
M  V30 11033 C 1027.52 2.72513 2.11733 0
M  V30 11034 C 1026.63 3.94887 1.7518 0
M  V30 11035 C 1025.77 4.41533 2.95334 0
M  V30 11036 C 1024.81 5.56496 2.54908 0
M  V30 11037 N 1023.95 5.97993 3.67897 0
M  V30 11038 H 1028.79 2.95655 0.373115 0
M  V30 11039 H 1026.32 1.46085 0.172497 0
M  V30 11040 H 1028.28 3.04539 2.85153 0
M  V30 11041 H 1026.91 1.93618 2.58287 0
M  V30 11042 H 1025.96 3.69175 0.917279 0
M  V30 11043 H 1027.27 4.78322 1.41455 0
M  V30 11044 H 1026.43 4.75343 3.77007 0
M  V30 11045 H 1025.17 3.56999 3.3227 0
M  V30 11046 H 1024.17 5.22314 1.71662 0
M  V30 11047 H 1025.4 6.42779 2.19117 0
M  V30 11048 H 1023.34 5.16405 4.04551 0
M  V30 11049 H 1023.26 6.76225 3.38018 0
M  V30 11050 H 1024.53 6.36434 4.5008 0
M  V30 11051 N 1028.76 -0.17846 1.56586 0
M  V30 11052 C 1030.03 -0.923096 1.72448 0
M  V30 11053 C 1030.41 -2.00692 0.654659 0
M  V30 11054 O 1029.76 -2.26079 -0.33171 0
M  V30 11055 C 1029.97 -1.49435 3.15389 0
M  V30 11056 C 1031.32 -1.97005 3.76131 0
M  V30 11057 O 1032.34 -1.59244 3.18622 0
M  V30 11058 O 1031.2 -2.66541 4.77094 0
M  V30 11059 H 1028.3 -0.434009 0.703964 0
M  V30 11060 H 1030.84 -0.16685 1.68878 0
M  V30 11061 H 1029.62 -0.713933 3.84732 0
M  V30 11062 H 1029.24 -2.31498 3.23256 0
M  V30 11063 N 1030.24 -1.51135 -0.446768 0
M  V30 11064 C 1031.17 -1.66438 -1.56121 0
M  V30 11065 C 1032.15 -0.512061 -1.54327 0
M  V30 11066 O 1033.33 -0.734702 -1.73593 0
M  V30 11067 C 1030.46 -1.66932 -2.94706 0
M  V30 11068 C 1029.5 -2.88016 -3.14562 0
M  V30 11069 S 1030.34 -4.48973 -2.91863 0
M  V30 11070 C 1031.49 -4.52196 -4.32746 0
M  V30 11071 H 1031.73 -2.60702 -1.42904 0
M  V30 11072 H 1029.26 -1.40701 -0.635812 0
M  V30 11073 H 1031.22 -1.679 -3.74593 0
M  V30 11074 H 1029.88 -0.738607 -3.05292 0
M  V30 11075 H 1029.07 -2.84735 -4.15863 0
M  V30 11076 H 1028.67 -2.8474 -2.42485 0
M  V30 11077 H 1030.96 -4.27256 -5.25793 0
M  V30 11078 H 1031.91 -5.53957 -4.41064 0
M  V30 11079 H 1032.32 -3.81624 -4.15961 0
M  V30 11080 N 1031.71 0.701592 -1.41122 0
M  V30 11081 C 1032.94 1.49553 -1.43696 0
M  V30 11082 C 1033.36 1.88053 -0.0421865 0
M  V30 11083 O 1032.72 1.54223 0.953144 0
M  V30 11084 C 1032.77 2.73834 -2.34622 0
M  V30 11085 O 1031.87 3.71088 -1.7991 0
M  V30 11086 H 1031.21 0.450352 -0.487933 0
M  V30 11087 H 1033.74 0.862886 -1.85514 0
M  V30 11088 H 1033.75 3.22209 -2.5029 0
M  V30 11089 H 1032.43 2.45149 -3.35969 0
M  V30 11090 H 1031.01 3.29994 -1.73661 0
M  V30 11091 N 1033.19 1.2685 0.935242 0
M  V30 11092 C 1034.42 1.15645 1.72165 0
M  V30 11093 C 1034.84 -0.283909 1.85945 0
M  V30 11094 O 1034.2 -1.20567 1.354 0
M  V30 11095 C 1034.25 1.83689 3.10307 0
M  V30 11096 O 1033.35 1.12972 3.96625 0
M  V30 11097 H 1032.69 0.402629 0.528002 0
M  V30 11098 H 1035.22 1.67781 1.17093 0
M  V30 11099 H 1035.23 1.90749 3.60664 0
M  V30 11100 H 1033.91 2.88472 2.99595 0
M  V30 11101 H 1032.48 1.13929 3.5507 0
M  V30 11102 N 1034.67 -1.14067 1.0875 0
M  V30 11103 C 1035.9 -1.89582 0.841038 0
M  V30 11104 C 1036.32 -1.78226 -0.601436 0
M  V30 11105 O 1035.68 -1.12491 -1.42181 0
M  V30 11106 C 1035.73 -3.37415 1.27213 0
M  V30 11107 O 1034.83 -4.10191 0.426246 0
M  V30 11108 H 1034.17 -0.589716 0.305173 0
M  V30 11109 H 1036.7 -1.44364 1.44984 0
M  V30 11110 H 1036.71 -3.88234 1.25451 0
M  V30 11111 H 1035.39 -3.44999 2.32268 0
M  V30 11112 H 1033.96 -3.69429 0.507585 0
M  V30 11113 N 1036.15 -0.873678 -1.31166 0
M  V30 11114 C 1037.56 -0.566109 -1.49223 0
M  V30 11115 C 1037.76 0.898889 -1.80339 0
M  V30 11116 O 1036.82 1.68084 -1.88425 0
M  V30 11117 C 1038.13 -1.46952 -2.62346 0
M  V30 11118 C 1039.68 -1.47195 -2.76229 0
M  V30 11119 C 1040.16 -2.36102 -3.92454 0
M  V30 11120 N 1041.65 -2.34003 -3.99746 0
M  V30 11121 C 1042.38 -2.99513 -4.88958 0
M  V30 11122 N 1041.88 -3.74206 -5.83045 0
M  V30 11123 N 1043.67 -2.88802 -4.82234 0
M  V30 11124 H 1035.82 -1.82156 -1.09239 0
M  V30 11125 H 1038.09 -0.779086 -0.54012 0
M  V30 11126 H 1037.79 -2.51213 -2.4614 0
M  V30 11127 H 1037.67 -1.17077 -3.5857 0
M  V30 11128 H 1040.05 -0.436902 -2.91848 0
M  V30 11129 H 1040.13 -1.81095 -1.80661 0
M  V30 11130 H 1039.78 -3.39685 -3.77593 0
M  V30 11131 H 1039.71 -1.99524 -4.87337 0
M  V30 11132 H 1042.2 -1.79713 -3.32433 0
M  V30 11133 H 1042.51 -4.21312 -6.47855 0
M  V30 11134 H 1040.86 -3.78314 -5.83012 0
M  V30 11135 H 1044.05 -2.29984 -4.07707 0
M  V30 11136 H 1044.22 -3.40136 -5.51554 0
M  V30 11137 N 1037.63 1.44308 -0.633487 0
M  V30 11138 C 1038.54 2.34492 0.0711787 0
M  V30 11139 C 1039.55 1.52754 0.8332 0
M  V30 11140 O 1040.73 1.85475 0.784929 0
M  V30 11141 C 1037.79 3.30767 1.03895 0
M  V30 11142 C 1036.85 4.28412 0.276043 0
M  V30 11143 C 1036.09 5.20087 1.19772 0
M  V30 11144 O 1036.31 5.15743 2.4365 0
M  V30 11145 O 1035.24 5.98038 0.680764 0
M  V30 11146 H 1039.07 2.96203 -0.67063 0
M  V30 11147 H 1036.66 1.4412 -0.393678 0
M  V30 11148 H 1038.54 3.90021 1.59566 0
M  V30 11149 H 1037.21 2.71586 1.76133 0
M  V30 11150 H 1036.12 3.72696 -0.32377 0
M  V30 11151 H 1037.45 4.9052 -0.406364 0
M  V30 11152 N 1039.1 0.374177 1.53094 0
M  V30 11153 C 1040.05 -0.48326 2.27524 0
M  V30 11154 C 1041.05 -1.07606 1.30833 0
M  V30 11155 O 1042.25 -1.01827 1.48429 0
M  V30 11156 H 1038.63 -0.174578 0.731455 0
M  V30 11157 H 1040.6 0.166156 2.97937 0
M  V30 11158 C 1039.35 -1.6065 3.08362 0
M  V30 11159 H 1038.67 -1.15966 3.82612 0
M  V30 11160 H 1040.11 -2.18099 3.63606 0
M  V30 11161 C 1038.57 -2.55381 2.19732 0
M  V30 11162 O 1039.1 -3.58414 1.8139 0
M  V30 11163 N 1037.31 -2.24769 1.84194 0
M  V30 11164 H 1036.85 -1.41018 2.15573 0
M  V30 11165 H 1036.81 -2.88404 1.25181 0
M  V30 11166 N 1040.58 -1.57259 0.103575 0
M  V30 11167 C 1041.83 -1.94272 -0.557024 0
M  V30 11168 C 1042.15 -0.986739 -1.68192 0
M  V30 11169 O 1041.42 -0.0402818 -1.95859 0
M  V30 11170 H 1040 -0.717237 -0.208757 0
M  V30 11171 H 1042.66 -1.94167 0.168898 0
M  V30 11172 H 1041.76 -2.96914 -0.961691 0
M  V30 11173 N 1042.06 0.170153 -1.56679 0
M  V30 11174 C 1043.01 1.21064 -1.965 0
M  V30 11175 C 1043.98 1.43928 -0.829092 0
M  V30 11176 O 1045.16 1.56649 -1.08931 0
M  V30 11177 C 1042.3 2.54468 -2.33109 0
M  V30 11178 C 1041.42 2.38974 -3.59883 0
M  V30 11179 C 1040.55 3.65252 -3.857 0
M  V30 11180 C 1039.59 3.44696 -5.05817 0
M  V30 11181 N 1038.73 4.63047 -5.27761 0
M  V30 11182 H 1043.57 0.864055 -2.85198 0
M  V30 11183 H 1041.1 0.415243 -1.41117 0
M  V30 11184 H 1043.06 3.32222 -2.52358 0
M  V30 11185 H 1041.69 2.8712 -1.4752 0
M  V30 11186 H 1040.74 1.5239 -3.48542 0
M  V30 11187 H 1042.06 2.19731 -4.47794 0
M  V30 11188 H 1041.21 4.51441 -4.05322 0
M  V30 11189 H 1039.95 3.87475 -2.96166 0
M  V30 11190 H 1038.95 2.56893 -4.86092 0
M  V30 11191 H 1040.18 3.23894 -5.96883 0
M  V30 11192 H 1038.12 4.85487 -4.41179 0
M  V30 11193 H 1038.04 4.46722 -6.09898 0
M  V30 11194 H 1039.31 5.50516 -5.51863 0
M  V30 11195 N 1043.54 1.5137 0.438746 0
M  V30 11196 C 1044.76 1.68058 1.21537 0
M  V30 11197 C 1045.19 0.376787 1.84288 0
M  V30 11198 O 1044.55 -0.662911 1.68746 0
M  V30 11199 C 1044.59 2.79684 2.27616 0
M  V30 11200 O 1043.7 2.43189 3.33066 0
M  V30 11201 H 1043.04 0.560408 0.356144 0
M  V30 11202 H 1045.57 1.97926 0.518311 0
M  V30 11203 H 1045.58 3.03726 2.72423 0
M  V30 11204 H 1044.25 3.74293 1.81321 0
M  V30 11205 H 1042.83 2.29713 2.93746 0
M  V30 11206 N 1045.02 -0.694098 1.41492 0
M  V30 11207 C 1045.96 -1.80801 1.43456 0
M  V30 11208 C 1046.93 -1.63571 0.288757 0
M  V30 11209 O 1048.12 -1.844 0.490017 0
M  V30 11210 C 1045.26 -3.18694 1.32394 0
M  V30 11211 C 1044.37 -3.47346 2.56855 0
M  V30 11212 C 1043.51 -4.74862 2.38075 0
M  V30 11213 C 1042.55 -4.96486 3.58005 0
M  V30 11214 N 1041.68 -6.15229 3.38287 0
M  V30 11215 H 1046.52 -1.78457 2.38657 0
M  V30 11216 H 1044.06 -0.871455 1.18508 0
M  V30 11217 H 1046.02 -3.98352 1.23982 0
M  V30 11218 H 1044.65 -3.20211 0.407999 0
M  V30 11219 H 1043.7 -2.62083 2.75711 0
M  V30 11220 H 1045.01 -3.59226 3.4606 0
M  V30 11221 H 1044.17 -5.62577 2.27139 0
M  V30 11222 H 1042.9 -4.6523 1.46329 0
M  V30 11223 H 1041.91 -4.07219 3.69395 0
M  V30 11224 H 1043.13 -5.07976 4.50708 0
M  V30 11225 H 1041.08 -6.06807 2.49242 0
M  V30 11226 H 1041 -6.27883 4.21069 0
M  V30 11227 H 1042.27 -7.05674 3.31126 0
M  V30 11228 N 1046.49 -1.27344 -0.928501 0
M  V30 11229 C 1047.72 -1.16557 -1.7155 0
M  V30 11230 C 1048.14 0.274044 -1.86093 0
M  V30 11231 O 1047.5 1.19847 -1.36038 0
M  V30 11232 C 1047.55 -1.85332 -3.09329 0
M  V30 11233 O 1046.65 -1.15074 -3.9602 0
M  V30 11234 H 1046 -0.405423 -0.525859 0
M  V30 11235 H 1048.53 -1.68399 -1.16202 0
M  V30 11236 H 1048.54 -1.92659 -3.59648 0
M  V30 11237 H 1047.21 -2.90056 -2.98061 0
M  V30 11238 H 1045.79 -1.1581 -3.54461 0
M  V30 11239 N 1047.97 1.13488 -1.09353 0
M  V30 11240 C 1048.92 2.18876 -0.732251 0
M  V30 11241 C 1049.89 1.63616 0.286175 0
M  V30 11242 O 1051.07 1.90059 0.167981 0
M  V30 11243 C 1048.21 3.44737 -0.158157 0
M  V30 11244 C 1047.33 4.14104 -1.23053 0
M  V30 11245 C 1046.46 5.27578 -0.619272 0
M  V30 11246 C 1045.5 5.88793 -1.67301 0
M  V30 11247 N 1044.64 6.937 -1.08283 0
M  V30 11248 H 1049.48 2.49128 -1.63522 0
M  V30 11249 H 1047.02 1.22326 -0.816995 0
M  V30 11250 H 1048.97 4.16756 0.192488 0
M  V30 11251 H 1047.6 3.14938 0.708082 0
M  V30 11252 H 1046.66 3.40376 -1.69847 0
M  V30 11253 H 1047.97 4.55683 -2.02865 0
M  V30 11254 H 1047.12 6.0631 -0.217428 0
M  V30 11255 H 1045.86 4.87246 0.210399 0
M  V30 11256 H 1044.87 5.08756 -2.0844 0
M  V30 11257 H 1046.09 6.31197 -2.50533 0
M  V30 11258 H 1044.04 6.55426 -0.274426 0
M  V30 11259 H 1043.95 7.33817 -1.81792 0
M  V30 11260 H 1045.22 7.76286 -0.707167 0
M  V30 11261 N 1049.45 0.880621 1.30701 0
M  V30 11262 C 1050.7 0.492957 1.95583 0
M  V30 11263 C 1051.01 -0.961863 1.70316 0
M  V30 11264 O 1052.22 -1.45617 2.29146 0
M  V30 11265 C 1050.68 0.830656 3.50183 0
M  V30 11266 C 1050.28 2.30295 3.84276 0
M  V30 11267 C 1052.03 0.511979 4.21401 0
M  V30 11268 C 1049.93 2.58251 5.32034 0
M  V30 11269 H 1048.86 0.18062 0.732047 0
M  V30 11270 H 1051.52 1.075 1.48715 0
M  V30 11271 H 1049.9 0.177752 3.95601 0
M  V30 11272 H 1051.07 2.99981 3.49783 0
M  V30 11273 H 1049.39 2.58873 3.2615 0
M  V30 11274 H 1051.98 0.697935 5.30125 0
M  V30 11275 H 1052.33 -0.548327 4.12673 0
M  V30 11276 H 1052.86 1.12189 3.81652 0
M  V30 11277 H 1049.6 3.63005 5.45809 0
M  V30 11278 H 1049.12 1.9317 5.67843 0
M  V30 11279 H 1050.8 2.43527 5.99419 0
M  V30 11280 N 1050.93 -1.4397 0.641131 0
M  V30 11281 C 1052.15 -2.06818 0.155318 0
M  V30 11282 C 1052.58 -1.47665 -1.16519 0
M  V30 11283 O 1051.94 -0.58192 -1.71707 0
M  V30 11284 C 1051.99 -3.60542 0.0647537 0
M  V30 11285 O 1051.09 -4.00674 -0.976447 0
M  V30 11286 H 1050.43 -0.657962 0.0893404 0
M  V30 11287 H 1052.96 -1.84678 0.88064 0
M  V30 11288 H 1052.97 -4.07816 -0.122552 0
M  V30 11289 H 1051.65 -4.02975 1.02878 0
M  V30 11290 H 1050.22 -3.65013 -0.762905 0
M  V30 11291 N 1052.41 -0.382291 -1.52893 0
M  V30 11292 C 1053.82 0.0932841 -1.86467 0
M  V30 11293 C 1054.17 1.4675 -1.30226 0
M  V30 11294 O 1053.29 2.07001 -0.63084 0
M  V30 11295 C 1053.89 0.176048 -3.38342 0
M  V30 11296 C 1052.45 0.595904 -3.71653 0
M  V30 11297 C 1051.6 -0.246511 -2.76202 0
M  V30 11298 H 1054.55 -0.600443 -1.46903 0
M  V30 11299 H 1054.57 0.996512 -3.67219 0
M  V30 11300 H 1054.08 -0.824264 -3.79246 0
M  V30 11301 H 1052.18 1.60384 -3.36315 0
M  V30 11302 H 1052.29 0.358919 -4.77754 0
M  V30 11303 H 1050.66 0.287162 -2.53076 0
M  V30 11304 H 1051.44 -1.24467 -3.19942 0
M  V30 11305 N 1053.89 1.57202 -0.111913 0
M  V30 11306 C 1054.83 2.14936 0.840908 0
M  V30 11307 C 1055.8 1.07242 1.2684 0
M  V30 11308 O 1056.99 1.35114 1.34718 0
M  V30 11309 C 1054.13 2.74743 2.0883 0
M  V30 11310 C 1053.24 3.96723 1.70982 0
M  V30 11311 C 1052.38 4.4464 2.90634 0
M  V30 11312 C 1051.41 5.59169 2.48992 0
M  V30 11313 N 1050.55 6.01862 3.61534 0
M  V30 11314 H 1055.39 2.96034 0.341735 0
M  V30 11315 H 1052.93 1.4626 0.156993 0
M  V30 11316 H 1054.89 3.07546 2.81907 0
M  V30 11317 H 1053.52 1.96346 2.56218 0
M  V30 11318 H 1052.57 3.70127 0.878072 0
M  V30 11319 H 1053.88 4.79795 1.36373 0
M  V30 11320 H 1053.03 4.79315 3.71944 0
M  V30 11321 H 1051.77 3.60503 3.28464 0
M  V30 11322 H 1050.78 5.24106 1.66113 0
M  V30 11323 H 1052 6.45067 2.12287 0
M  V30 11324 H 1049.95 5.20667 3.99051 0
M  V30 11325 H 1049.87 6.79772 3.30827 0
M  V30 11326 H 1051.13 6.41172 4.43305 0
M  V30 11327 N 1055.36 -0.161842 1.56767 0
M  V30 11328 C 1056.59 -0.896274 1.87034 0
M  V30 11329 C 1057.01 -1.74617 0.699314 0
M  V30 11330 O 1056.37 -1.77861 -0.351435 0
M  V30 11331 C 1056.42 -1.74105 3.15784 0
M  V30 11332 O 1055.52 -2.84372 2.98674 0
M  V30 11333 H 1054.86 -0.250523 0.614926 0
M  V30 11334 H 1057.39 -0.157127 2.03996 0
M  V30 11335 H 1057.4 -2.13907 3.4743 0
M  V30 11336 H 1056.08 -1.11684 4.00624 0
M  V30 11337 H 1054.66 -2.48084 2.78404 0
M  V30 11338 N 1056.84 -1.516 -0.430713 0
M  V30 11339 C 1058.12 -1.55142 -1.19123 0
M  V30 11340 C 1058.5 -0.319596 -2.08667 0
M  V30 11341 O 1057.85 0.694927 -2.17676 0
M  V30 11342 C 1058.06 -2.86891 -1.98732 0
M  V30 11343 C 1059.4 -3.39089 -2.55546 0
M  V30 11344 O 1060.43 -2.88486 -2.08936 0
M  V30 11345 O 1059.29 -4.27401 -3.40574 0
M  V30 11346 H 1056.38 -0.624019 -0.542705 0
M  V30 11347 H 1058.93 -1.63917 -0.439244 0
M  V30 11348 H 1057.7 -3.68002 -1.33005 0
M  V30 11349 H 1057.32 -2.81309 -2.80982 0
M  V30 11350 N 1058.32 0.686584 -1.41858 0
M  V30 11351 C 1059.57 1.44879 -1.41908 0
M  V30 11352 C 1059.9 1.94175 -0.0311408 0
M  V30 11353 O 1059.17 1.70131 0.942646 0
M  V30 11354 C 1059.46 2.65428 -2.43352 0
M  V30 11355 C 1059.31 2.2184 -3.91289 0
M  V30 11356 C 1060.63 3.67635 -2.41934 0
M  V30 11357 H 1057.75 0.525477 -0.516762 0
M  V30 11358 H 1060.39 0.781263 -1.73194 0
M  V30 11359 H 1058.54 3.2238 -2.16803 0
M  V30 11360 H 1060.21 1.70146 -4.28775 0
M  V30 11361 H 1058.45 1.53531 -4.05722 0
M  V30 11362 H 1059.13 3.08376 -4.5783 0
M  V30 11363 H 1061.6 3.20376 -2.65516 0
M  V30 11364 H 1060.48 4.49579 -3.14913 0
M  V30 11365 H 1060.74 4.17953 -1.44111 0
M  V30 11366 N 1059.8 1.27835 0.921735 0
M  V30 11367 C 1061.04 1.15702 1.67286 0
M  V30 11368 C 1061.4 -0.293049 1.90155 0
M  V30 11369 O 1060.69 -1.21058 1.48511 0
M  V30 11370 C 1060.89 1.88054 3.03925 0
M  V30 11371 C 1060.71 3.39947 2.94391 0
M  V30 11372 C 1059.48 4.09275 2.96347 0
M  V30 11373 C 1061.68 4.35824 2.7306 0
M  V30 11374 N 1059.66 5.47694 2.77317 0
M  V30 11375 C 1061.04 5.61551 2.62794 0
M  V30 11376 C 1063.09 4.25844 2.57994 0
M  V30 11377 C 1061.79 6.78434 2.38998 0
M  V30 11378 C 1063.82 5.42455 2.35577 0
M  V30 11379 C 1063.18 6.67141 2.26058 0
M  V30 11380 H 1059.28 0.478278 0.618687 0
M  V30 11381 H 1061.86 1.61382 1.08922 0
M  V30 11382 H 1060.04 1.4482 3.60391 0
M  V30 11383 H 1061.77 1.68374 3.68011 0
M  V30 11384 H 1058.52 3.6079 3.06802 0
M  V30 11385 H 1058.95 6.2043 2.70916 0
M  V30 11386 H 1063.59 3.30161 2.64109 0
M  V30 11387 H 1061.31 7.74194 2.31623 0
M  V30 11388 H 1064.89 5.36617 2.24796 0
M  V30 11389 H 1063.77 7.55851 2.08947 0
M  V30 11390 N 1061.28 -1.12907 1.09954 0
M  V30 11391 C 1062.5 -1.88679 0.861099 0
M  V30 11392 C 1062.93 -1.78853 -0.582499 0
M  V30 11393 O 1062.28 -1.13992 -1.4098 0
M  V30 11394 C 1062.33 -3.36047 1.30785 0
M  V30 11395 O 1061.44 -4.09716 0.469728 0
M  V30 11396 H 1060.78 -0.586447 0.31141 0
M  V30 11397 H 1063.31 -1.42818 1.46507 0
M  V30 11398 H 1063.32 -3.86882 1.29562 0
M  V30 11399 H 1061.99 -3.42516 2.35914 0
M  V30 11400 H 1060.57 -3.6887 0.54674 0
M  V30 11401 N 1062.75 -0.88754 -1.30232 0
M  V30 11402 C 1063.68 -0.372481 -2.3051 0
M  V30 11403 C 1064.66 0.546037 -1.61098 0
M  V30 11404 O 1065.85 0.459345 -1.88689 0
M  V30 11405 C 1062.98 0.411605 -3.44852 0
M  V30 11406 C 1061.93 -0.415383 -4.2598 0
M  V30 11407 C 1061.26 0.495463 -5.324 0
M  V30 11408 C 1062.56 -1.65886 -4.95257 0
M  V30 11409 H 1064.25 -1.21045 -2.7384 0
M  V30 11410 H 1061.8 -0.583498 -1.31648 0
M  V30 11411 H 1063.75 0.782584 -4.1407 0
M  V30 11412 H 1062.48 1.28325 -3.00334 0
M  V30 11413 H 1061.14 -0.768534 -3.58454 0
M  V30 11414 H 1060.78 1.36489 -4.84128 0
M  V30 11415 H 1060.48 -0.0540885 -5.87575 0
M  V30 11416 H 1062.01 0.862901 -6.04472 0
M  V30 11417 H 1063.42 -1.35832 -5.56976 0
M  V30 11418 H 1061.82 -2.14881 -5.60309 0
M  V30 11419 H 1062.89 -2.40181 -4.21237 0
M  V30 11420 N 1064.23 1.43628 -0.648757 0
M  V30 11421 C 1065.48 2.01465 -0.16002 0
M  V30 11422 C 1065.8 1.51413 1.22878 0
M  V30 11423 O 1065.07 0.724919 1.81994 0
M  V30 11424 H 1063.65 0.744885 -0.0561672 0
M  V30 11425 H 1066.31 1.75897 -0.839422 0
M  V30 11426 H 1065.41 3.1178 -0.141213 0
M  V30 11427 N 1065.71 0.390394 1.52688 0
M  V30 11428 C 1066.95 -0.191207 2.03504 0
M  V30 11429 C 1067.31 -1.43952 1.27051 0
M  V30 11430 O 1068.52 -2.09835 1.67996 0
M  V30 11431 C 1066.79 -0.451552 3.54536 0
M  V30 11432 S 1068.35 -1.00328 4.27176 0
M  V30 11433 H 1065.16 -0.0537587 0.708965 0
M  V30 11434 H 1067.77 0.538993 1.87923 0
M  V30 11435 H 1066.47 0.464061 4.07768 0
M  V30 11436 H 1066 -1.21015 3.74325 0
M  V30 11437 H 1068.02 -2.28555 4.40428 0
M  V30 11438 N 1067.19 -1.57141 0.120249 0
M  V30 11439 C 1068.44 -1.94413 -0.53727 0
M  V30 11440 C 1068.75 -1.00594 -1.67751 0
M  V30 11441 O 1069.96 -1.27336 -2.39787 0
M  V30 11442 C 1068.41 -3.45521 -1.00714 0
M  V30 11443 C 1068.02 -4.47878 0.104706 0
M  V30 11444 C 1069.76 -3.9171 -1.63596 0
M  V30 11445 C 1067.67 -5.90165 -0.381932 0
M  V30 11446 H 1066.6 -0.725745 -0.204475 0
M  V30 11447 H 1069.25 -1.82404 0.200302 0
M  V30 11448 H 1067.63 -3.52769 -1.79917 0
M  V30 11449 H 1068.81 -4.523 0.881002 0
M  V30 11450 H 1067.12 -4.11448 0.640264 0
M  V30 11451 H 1069.72 -4.95433 -2.01122 0
M  V30 11452 H 1070.06 -3.31756 -2.51483 0
M  V30 11453 H 1070.6 -3.87268 -0.909319 0
M  V30 11454 H 1067.34 -6.53877 0.460921 0
M  V30 11455 H 1066.86 -5.89161 -1.12468 0
M  V30 11456 H 1068.53 -6.41488 -0.842748 0
M  V30 11457 N 1068.67 0.153526 -1.5685 0
M  V30 11458 C 1069.6 1.19162 -2.00805 0
M  V30 11459 C 1070.58 1.45172 -0.886518 0
M  V30 11460 O 1071.76 1.56203 -1.15387 0
M  V30 11461 C 1068.89 2.52637 -2.38311 0
M  V30 11462 C 1067.85 2.41161 -3.53589 0
M  V30 11463 C 1067.17 3.79287 -3.76889 0
M  V30 11464 C 1068.47 1.90122 -4.86468 0
M  V30 11465 H 1070.17 0.82617 -2.87776 0
M  V30 11466 H 1067.71 0.395972 -1.38449 0
M  V30 11467 H 1069.67 3.25478 -2.6766 0
M  V30 11468 H 1068.39 2.91005 -1.4827 0
M  V30 11469 H 1067.05 1.70772 -3.24395 0
M  V30 11470 H 1066.7 4.15079 -2.84109 0
M  V30 11471 H 1066.4 3.72472 -4.54465 0
M  V30 11472 H 1067.92 4.53687 -4.08657 0
M  V30 11473 H 1069.33 2.52752 -5.14577 0
M  V30 11474 H 1067.73 1.94214 -5.67804 0
M  V30 11475 H 1068.8 0.856517 -4.77275 0
M  V30 11476 N 1070.14 1.51827 0.422667 0
M  V30 11477 C 1071.37 1.68803 1.19117 0
M  V30 11478 C 1071.78 0.391228 1.85111 0
M  V30 11479 O 1071.13 -0.64148 1.72136 0
M  V30 11480 C 1071.19 2.75767 2.30636 0
M  V30 11481 C 1070.85 4.17929 1.8489 0
M  V30 11482 C 1071.85 5.02223 1.34416 0
M  V30 11483 C 1069.53 4.641 1.92136 0
M  V30 11484 C 1071.53 6.30756 0.917925 0
M  V30 11485 C 1069.21 5.92626 1.49123 0
M  V30 11486 C 1070.21 6.75782 0.990352 0
M  V30 11487 O 1069.9 8.01902 0.566386 0
M  V30 11488 H 1069.63 0.569303 0.364514 0
M  V30 11489 H 1072.19 1.9909 0.505208 0
M  V30 11490 H 1070.42 2.40827 3.02555 0
M  V30 11491 H 1072.11 2.81476 2.92448 0
M  V30 11492 H 1072.87 4.67749 1.28202 0
M  V30 11493 H 1068.75 3.99488 2.30066 0
M  V30 11494 H 1072.29 6.95612 0.52628 0
M  V30 11495 H 1068.19 6.26611 1.55012 0
M  V30 11496 H 1068.96 8.15579 0.690918 0
M  V30 11497 N 1071.62 -0.679052 1.4222 0
M  V30 11498 C 1072.85 -1.46534 1.45641 0
M  V30 11499 C 1073.26 -1.89088 0.0649574 0
M  V30 11500 O 1072.6 -1.58436 -0.929712 0
M  V30 11501 C 1072.67 -2.74882 2.3169 0
M  V30 11502 C 1072.33 -2.5443 3.79624 0
M  V30 11503 C 1073.33 -2.19307 4.71382 0
M  V30 11504 C 1071.01 -2.69557 4.23845 0
M  V30 11505 C 1073.01 -1.99571 6.05351 0
M  V30 11506 C 1070.69 -2.49437 5.57875 0
M  V30 11507 C 1071.69 -2.14497 6.48444 0
M  V30 11508 O 1071.38 -1.94567 7.79999 0
M  V30 11509 H 1071.11 -0.457542 0.497626 0
M  V30 11510 H 1073.66 -0.842145 1.87342 0
M  V30 11511 H 1071.89 -3.39669 1.8483 0
M  V30 11512 H 1073.58 -3.3675 2.26615 0
M  V30 11513 H 1074.35 -2.0722 4.38503 0
M  V30 11514 H 1070.23 -2.95733 3.53642 0
M  V30 11515 H 1073.77 -1.72222 6.76007 0
M  V30 11516 H 1069.67 -2.61119 5.90328 0
M  V30 11517 H 1070.44 -2.092 7.91314 0
M  V30 11518 N 1073.1 -1.28322 -0.914942 0
M  V30 11519 C 1074.03 -1.06469 -2.01841 0
M  V30 11520 C 1075.01 0.0188681 -1.62589 0
M  V30 11521 O 1076.2 -0.128825 -1.88059 0
M  V30 11522 C 1073.32 -0.617685 -3.3302 0
M  V30 11523 C 1072.37 -1.6977 -3.91255 0
M  V30 11524 S 1073.2 -3.29337 -4.22253 0
M  V30 11525 C 1074.36 -2.86468 -5.56495 0
M  V30 11526 H 1074.59 -1.99893 -2.20068 0
M  V30 11527 H 1072.12 -1.12297 -1.05966 0
M  V30 11528 H 1074.08 -0.366481 -4.08861 0
M  V30 11529 H 1072.74 0.296709 -3.12695 0
M  V30 11530 H 1071.94 -1.33653 -4.85956 0
M  V30 11531 H 1071.54 -1.90164 -3.22046 0
M  V30 11532 H 1073.83 -2.32565 -6.36333 0
M  V30 11533 H 1074.77 -3.79962 -5.97523 0
M  V30 11534 H 1075.18 -2.2522 -5.17626 0
M  V30 11535 N 1074.58 1.12322 -1.10551 0
M  V30 11536 C 1075.81 1.87679 -0.87087 0
M  V30 11537 C 1076.22 1.79711 0.578733 0
M  V30 11538 O 1075.58 1.17185 1.39907 0
M  V30 11539 C 1075.63 3.36846 -1.31213 0
M  V30 11540 O 1075.35 3.44626 -2.70489 0
M  V30 11541 C 1076.85 4.29138 -1.11156 0
M  V30 11542 H 1074.07 0.593788 -0.3125 0
M  V30 11543 H 1076.62 1.42116 -1.47048 0
M  V30 11544 H 1074.77 3.79948 -0.756169 0
M  V30 11545 H 1075.18 4.37441 -2.89389 0
M  V30 11546 H 1076.66 5.32082 -1.46944 0
M  V30 11547 H 1077.14 4.39171 -0.0502963 0
M  V30 11548 H 1077.74 3.91818 -1.65405 0
M  V30 11549 N 1076.06 0.894434 1.2976 0
M  V30 11550 C 1077.29 0.532143 1.99629 0
M  V30 11551 C 1077.69 -0.886234 1.6716 0
M  V30 11552 O 1077.04 -1.59573 0.910065 0
M  V30 11553 C 1077.1 0.638335 3.53787 0
M  V30 11554 C 1076.76 2.02273 4.09798 0
M  V30 11555 C 1077.76 2.99327 4.25087 0
M  V30 11556 C 1075.45 2.33069 4.44954 0
M  V30 11557 C 1077.44 4.25304 4.74758 0
M  V30 11558 C 1075.13 3.59289 4.94322 0
M  V30 11559 C 1076.12 4.55222 5.09178 0
M  V30 11560 O 1075.81 5.79202 5.57477 0
M  V30 11561 H 1075.54 0.203326 0.644697 0
M  V30 11562 H 1078.1 1.2043 1.6639 0
M  V30 11563 H 1076.33 -0.0908338 3.86593 0
M  V30 11564 H 1078.02 0.285956 4.04891 0
M  V30 11565 H 1078.78 2.76849 3.9822 0
M  V30 11566 H 1074.66 1.59162 4.32653 0
M  V30 11567 H 1078.21 5.00189 4.86269 0
M  V30 11568 H 1074.1 3.816 5.20626 0
M  V30 11569 H 1074.87 5.81717 5.75802 0
M  V30 11570 N 1077.53 -1.43282 0.656365 0
M  V30 11571 C 1078.78 -2.01378 0.170702 0
M  V30 11572 C 1079.1 -1.52063 -1.22073 0
M  V30 11573 O 1078.37 -0.73456 -1.81607 0
M  V30 11574 H 1076.95 -0.744577 0.0601168 0
M  V30 11575 H 1079.62 -1.75449 0.848739 0
M  V30 11576 H 1078.71 -3.11701 0.157745 0
M  V30 11577 N 1079.01 -0.398486 -1.52479 0
M  V30 11578 C 1079.96 0.432212 -2.26717 0
M  V30 11579 C 1080.93 1.05007 -1.28696 0
M  V30 11580 O 1082.12 1.07636 -1.57541 0
M  V30 11581 C 1079.26 1.54868 -3.08399 0
M  V30 11582 C 1078.37 0.952779 -4.21362 0
M  V30 11583 C 1077.5 2.04106 -4.90423 0
M  V30 11584 C 1076.54 1.42153 -5.95364 0
M  V30 11585 N 1075.68 2.44951 -6.57984 0
M  V30 11586 H 1080.52 -0.207303 -2.97278 0
M  V30 11587 H 1078.06 -0.114066 -1.46657 0
M  V30 11588 H 1080.01 2.20684 -3.54054 0
M  V30 11589 H 1078.64 2.15837 -2.4003 0
M  V30 11590 H 1077.7 0.183962 -3.79955 0
M  V30 11591 H 1079.01 0.460131 -4.96673 0
M  V30 11592 H 1078.16 2.77672 -5.39429 0
M  V30 11593 H 1076.9 2.56733 -4.14656 0
M  V30 11594 H 1075.91 0.671161 -5.45688 0
M  V30 11595 H 1077.13 0.903093 -6.73068 0
M  V30 11596 H 1075.08 2.9673 -5.85053 0
M  V30 11597 H 1074.99 2.00468 -7.28937 0
M  V30 11598 H 1076.26 3.18119 -7.11632 0
M  V30 11599 N 1080.49 1.57075 -0.12858 0
M  V30 11600 C 1081.72 1.99876 0.534544 0
M  V30 11601 C 1082.13 1.00843 1.59612 0
M  V30 11602 O 1081.49 0.00268947 1.825 0
M  V30 11603 C 1081.54 3.42654 1.15198 0
M  V30 11604 O 1081.26 4.37899 0.132823 0
M  V30 11605 C 1082.76 4.00637 1.8975 0
M  V30 11606 H 1079.98 0.656073 0.140744 0
M  V30 11607 H 1082.53 2.03337 -0.217742 0
M  V30 11608 H 1080.68 3.40101 1.85499 0
M  V30 11609 H 1081.1 5.21253 0.582682 0
M  V30 11610 H 1082.57 5.02592 2.28266 0
M  V30 11611 H 1083.05 3.40313 2.7764 0
M  V30 11612 H 1083.65 4.06764 1.2419 0
M  V30 11613 N 1081.97 -0.145205 1.5693 0
M  V30 11614 C 1083.38 -0.705089 1.72874 0
M  V30 11615 C 1083.73 -1.81577 0.743261 0
M  V30 11616 O 1082.86 -2.16214 -0.0897153 0
M  V30 11617 C 1083.45 -1.28578 3.13454 0
M  V30 11618 C 1082.01 -1.79221 3.30994 0
M  V30 11619 C 1081.16 -0.681392 2.68798 0
M  V30 11620 H 1084.11 0.0804798 1.58496 0
M  V30 11621 H 1084.13 -2.15558 3.13552 0
M  V30 11622 H 1083.64 -0.477186 3.85155 0
M  V30 11623 H 1081.74 -2.62642 2.64292 0
M  V30 11624 H 1081.86 -1.91969 4.38959 0
M  V30 11625 H 1080.22 -1.10847 2.29314 0
M  V30 11626 H 1081 0.115786 3.43105 0
M  V30 11627 N 1083.45 -1.52049 -0.414609 0
M  V30 11628 C 1084.69 -1.65838 -1.16206 0
M  V30 11629 C 1085.02 -0.385623 -1.90639 0
M  V30 11630 O 1084.28 0.631214 -1.85241 0
M  V30 11631 C 1084.58 -2.82735 -2.18622 0
M  V30 11632 C 1084.24 -4.21163 -1.61037 0
M  V30 11633 C 1082.9 -4.58816 -1.45056 0
M  V30 11634 C 1085.26 -5.0745 -1.18928 0
M  V30 11635 C 1082.58 -5.8044 -0.854761 0
M  V30 11636 C 1084.94 -6.29674 -0.607686 0
M  V30 11637 C 1083.6 -6.66081 -0.434968 0
M  V30 11638 H 1082.87 -0.606845 -0.425229 0
M  V30 11639 H 1085.52 -1.86137 -0.450009 0
M  V30 11640 H 1083.82 -2.56749 -2.95952 0
M  V30 11641 H 1085.52 -2.90601 -2.76319 0
M  V30 11642 H 1082.11 -3.91488 -1.74457 0
M  V30 11643 H 1086.29 -4.78948 -1.30086 0
M  V30 11644 H 1081.55 -6.07276 -0.70891 0
M  V30 11645 H 1085.72 -6.95865 -0.272988 0
M  V30 11646 H 1083.35 -7.60195 0.0288116 0
M  V30 11647 N 1084.93 0.6715 -1.42579 0
M  V30 11648 C 1085.86 1.79703 -1.42266 0
M  V30 11649 C 1086.87 1.59599 -0.321268 0
M  V30 11650 O 1088.06 1.68657 -0.584564 0
M  V30 11651 C 1085.16 3.16859 -1.20224 0
M  V30 11652 C 1084.33 3.63783 -2.42859 0
M  V30 11653 C 1083.39 4.79683 -2.16312 0
M  V30 11654 O 1082.42 4.90058 -2.89537 0
M  V30 11655 N 1083.62 5.68622 -1.16831 0
M  V30 11656 H 1086.38 1.80455 -2.39282 0
M  V30 11657 H 1083.95 0.854708 -1.375 0
M  V30 11658 H 1085.94 3.92054 -1.00376 0
M  V30 11659 H 1084.51 3.10987 -0.317188 0
M  V30 11660 H 1083.73 2.7923 -2.78252 0
M  V30 11661 H 1085.02 3.91877 -3.24514 0
M  V30 11662 H 1084.41 5.62894 -0.562746 0
M  V30 11663 H 1082.97 6.43615 -1.0297 0
M  V30 11664 N 1086.4 1.28806 0.908124 0
M  V30 11665 C 1087.34 1.09018 2.01613 0
M  V30 11666 C 1088.35 0.0402059 1.6275 0
M  V30 11667 O 1089.54 0.283853 1.76229 0
M  V30 11668 C 1086.64 0.635712 3.32884 0
M  V30 11669 C 1085.81 1.76235 4.00325 0
M  V30 11670 C 1084.87 1.3003 5.09881 0
M  V30 11671 O 1083.9 2.00354 5.32773 0
M  V30 11672 N 1085.1 0.166575 5.80261 0
M  V30 11673 H 1087.86 2.0444 2.19144 0
M  V30 11674 H 1085.42 1.20633 1.07978 0
M  V30 11675 H 1087.42 0.310097 4.0351 0
M  V30 11676 H 1085.99 -0.225816 3.11783 0
M  V30 11677 H 1085.21 2.25727 3.23173 0
M  V30 11678 H 1086.49 2.51796 4.42127 0
M  V30 11679 H 1085.89 -0.419934 5.64139 0
M  V30 11680 H 1084.45 -0.0997281 6.51724 0
M  V30 11681 N 1087.88 -1.11734 1.11145 0
M  V30 11682 C 1089.13 -1.82766 0.853194 0
M  V30 11683 C 1089.44 -1.85408 -0.623168 0
M  V30 11684 O 1090.65 -2.52509 -0.997574 0
M  V30 11685 C 1089.11 -3.28215 1.47658 0
M  V30 11686 C 1088.71 -3.33911 2.98676 0
M  V30 11687 C 1090.46 -4.04168 1.29803 0
M  V30 11688 C 1088.36 -4.73739 3.54013 0
M  V30 11689 H 1087.29 -0.684807 0.315523 0
M  V30 11690 H 1089.95 -1.25756 1.33633 0
M  V30 11691 H 1088.33 -3.85138 0.921116 0
M  V30 11692 H 1089.5 -2.86887 3.606 0
M  V30 11693 H 1087.82 -2.71437 3.15771 0
M  V30 11694 H 1090.41 -5.07429 1.68582 0
M  V30 11695 H 1090.76 -4.15606 0.240302 0
M  V30 11696 H 1091.29 -3.53623 1.82196 0
M  V30 11697 H 1088.03 -4.67497 4.59485 0
M  V30 11698 H 1087.55 -5.21186 2.9686 0
M  V30 11699 H 1089.23 -5.42691 3.52271 0
M  V30 11700 N 1089.36 -0.901303 -1.29284 0
M  V30 11701 C 1090.61 -0.52401 -1.94774 0
M  V30 11702 C 1090.92 0.934645 -1.71825 0
M  V30 11703 O 1092.13 1.41953 -2.31434 0
M  V30 11704 C 1090.58 -0.886262 -3.48817 0
M  V30 11705 C 1090.19 -2.3638 -3.80564 0
M  V30 11706 C 1091.94 -0.578955 -4.20533 0
M  V30 11707 C 1089.84 -2.66682 -5.27858 0
M  V30 11708 H 1088.77 -0.192244 -0.72908 0
M  V30 11709 H 1091.42 -1.09852 -1.46986 0
M  V30 11710 H 1089.81 -0.240666 -3.95268 0
M  V30 11711 H 1090.98 -3.05508 -3.44966 0
M  V30 11712 H 1089.29 -2.64029 -3.2199 0
M  V30 11713 H 1091.89 -0.782185 -5.28948 0
M  V30 11714 H 1092.23 0.482605 -4.13493 0
M  V30 11715 H 1092.77 -1.18246 -3.79819 0
M  V30 11716 H 1089.51 -3.71643 -5.39965 0
M  V30 11717 H 1089.03 -2.02179 -5.64698 0
M  V30 11718 H 1090.71 -2.53033 -5.95469 0
M  V30 11719 N 1090.84 1.42931 -0.663954 0
M  V30 11720 C 1091.79 2.32577 0.03287 0
M  V30 11721 C 1092.78 1.49217 0.801918 0
M  V30 11722 O 1093.99 1.65358 0.711106 0
M  V30 11723 H 1090.36 0.751424 0.0294198 0
M  V30 11724 H 1092.33 2.89059 -0.740763 0
M  V30 11725 C 1091.08 3.33661 0.978025 0
M  V30 11726 H 1090.4 3.97837 0.395681 0
M  V30 11727 H 1091.84 3.98997 1.43448 0
M  V30 11728 C 1090.3 2.65085 2.07922 0
M  V30 11729 O 1090.83 2.4745 3.16435 0
M  V30 11730 N 1089.04 2.24285 1.84783 0
M  V30 11731 H 1088.59 2.38827 0.965368 0
M  V30 11732 H 1088.54 1.78732 2.58655 0
M  V30 11733 N 1092.32 0.406567 1.52266 0
M  V30 11734 C 1093.25 -0.45552 2.24628 0
M  V30 11735 C 1094.26 -1.01234 1.27497 0
M  V30 11736 O 1095.45 -0.911718 1.5346 0
M  V30 11737 C 1092.55 -1.64578 2.96256 0
M  V30 11738 C 1091.72 -1.2133 4.20235 0
M  V30 11739 C 1090.78 -2.27018 4.7471 0
M  V30 11740 O 1089.81 -1.87714 5.37357 0
M  V30 11741 N 1091.01 -3.5915 4.56061 0
M  V30 11742 H 1093.77 0.164525 2.99248 0
M  V30 11743 H 1091.34 0.233812 1.60203 0
M  V30 11744 H 1093.33 -2.3484 3.29594 0
M  V30 11745 H 1091.9 -2.1718 2.24837 0
M  V30 11746 H 1091.12 -0.338892 3.92741 0
M  V30 11747 H 1092.41 -0.901268 5.00754 0
M  V30 11748 H 1091.8 -3.93834 4.06092 0
M  V30 11749 H 1090.36 -4.25397 4.93843 0
M  V30 11750 N 1093.79 -1.57004 0.136909 0
M  V30 11751 C 1095.04 -1.94972 -0.51662 0
M  V30 11752 C 1095.36 -1.02367 -1.66674 0
M  V30 11753 O 1096.56 -1.29873 -2.38423 0
M  V30 11754 C 1095.02 -3.4657 -0.970435 0
M  V30 11755 C 1094.63 -4.47741 0.152204 0
M  V30 11756 C 1096.37 -3.93423 -1.59432 0
M  V30 11757 C 1094.28 -5.90537 -0.319315 0
M  V30 11758 H 1093.21 -0.727873 -0.196766 0
M  V30 11759 H 1095.86 -1.82181 0.219637 0
M  V30 11760 H 1094.24 -3.54657 -1.76165 0
M  V30 11761 H 1095.41 -4.5134 0.928925 0
M  V30 11762 H 1093.73 -4.10746 0.683867 0
M  V30 11763 H 1096.33 -4.97539 -1.95856 0
M  V30 11764 H 1096.67 -3.34404 -2.47951 0
M  V30 11765 H 1097.2 -3.8821 -0.868193 0
M  V30 11766 H 1093.94 -6.53352 0.530248 0
M  V30 11767 H 1093.46 -5.90321 -1.06213 0
M  V30 11768 H 1095.14 -6.42346 -0.774662 0
M  V30 11769 N 1095.27 0.136881 -1.57004 0
M  V30 11770 C 1096.5 0.866405 -1.88436 0
M  V30 11771 C 1096.92 1.73483 -0.727006 0
M  V30 11772 O 1096.28 1.78398 0.323094 0
M  V30 11773 C 1096.33 1.69059 -3.18514 0
M  V30 11774 O 1095.43 2.79584 -3.03161 0
M  V30 11775 H 1094.77 0.240709 -0.618834 0
M  V30 11776 H 1097.3 0.124653 -2.0422 0
M  V30 11777 H 1097.31 2.08353 -3.50789 0
M  V30 11778 H 1095.99 1.05296 -4.0235 0
M  V30 11779 H 1094.57 2.43623 -2.82315 0
M  V30 11780 N 1096.75 1.52266 0.40654 0
M  V30 11781 C 1097.7 1.75794 1.4955 0
M  V30 11782 C 1098.67 0.600472 1.54866 0
M  V30 11783 O 1099.85 0.838305 1.71397 0
M  V30 11784 C 1096.99 1.91682 2.86971 0
M  V30 11785 C 1096.11 3.19337 2.90943 0
M  V30 11786 C 1095.24 3.25641 4.1968 0
M  V30 11787 C 1094.28 4.47488 4.17637 0
M  V30 11788 N 1093.42 4.51171 5.37949 0
M  V30 11789 H 1098.26 2.68733 1.28789 0
M  V30 11790 H 1095.79 1.33157 0.625102 0
M  V30 11791 H 1097.75 1.98877 3.66748 0
M  V30 11792 H 1096.38 1.02121 3.06221 0
M  V30 11793 H 1095.43 3.21301 2.03642 0
M  V30 11794 H 1096.75 4.09153 2.85299 0
M  V30 11795 H 1095.9 3.31922 5.07851 0
M  V30 11796 H 1094.64 2.33769 4.28023 0
M  V30 11797 H 1093.64 4.41351 3.27856 0
M  V30 11798 H 1094.87 5.40659 4.10932 0
M  V30 11799 H 1092.81 3.62182 5.46955 0
M  V30 11800 H 1092.73 5.34835 5.3431 0
M  V30 11801 H 1094 4.61685 6.28066 0
M  V30 11802 N 1098.23 -0.663929 1.42933 0
M  V30 11803 C 1099.16 -1.78899 1.50058 0
M  V30 11804 C 1100.14 -1.66329 0.356164 0
M  V30 11805 O 1101.32 -1.85587 0.571944 0
M  V30 11806 C 1098.45 -3.17265 1.41281 0
M  V30 11807 C 1097.41 -3.44584 2.53861 0
M  V30 11808 C 1096.73 -4.82638 2.3014 0
M  V30 11809 C 1098.03 -3.40394 3.96143 0
M  V30 11810 H 1099.73 -1.73194 2.44222 0
M  V30 11811 H 1097.27 -0.83182 1.17545 0
M  V30 11812 H 1099.23 -3.95715 1.44872 0
M  V30 11813 H 1097.95 -3.23675 0.43616 0
M  V30 11814 H 1096.61 -2.685 2.49606 0
M  V30 11815 H 1096.26 -4.85711 1.30743 0
M  V30 11816 H 1095.96 -5.01879 3.056 0
M  V30 11817 H 1097.48 -5.63359 2.35497 0
M  V30 11818 H 1098.9 -4.08796 4.01943 0
M  V30 11819 H 1097.29 -3.7117 4.71543 0
M  V30 11820 H 1098.36 -2.38767 4.22041 0
M  V30 11821 N 1099.71 -1.29285 -0.901281 0
M  V30 11822 C 1100.66 -1.10907 -1.99208 0
M  V30 11823 C 1101.64 -0.0289641 -1.60874 0
M  V30 11824 O 1102.83 -0.2505 -1.75218 0
M  V30 11825 C 1099.96 -0.785997 -3.34181 0
M  V30 11826 C 1099.05 -1.90556 -3.78879 0
M  V30 11827 N 1099.44 -3.14888 -3.95827 0
M  V30 11828 C 1097.74 -1.79824 -4.08141 0
M  V30 11829 C 1098.44 -3.87919 -4.33467 0
M  V30 11830 N 1097.41 -3.15852 -4.42424 0
M  V30 11831 H 1101.22 -2.05227 -2.10379 0
M  V30 11832 H 1098.73 -1.20387 -1.08999 0
M  V30 11833 H 1100.73 -0.635381 -4.1203 0
M  V30 11834 H 1099.39 0.149302 -3.24357 0
M  V30 11835 H 1100.4 -3.5036 -3.81403 0
M  V30 11836 H 1097.07 -0.935548 -4.06883 0
M  V30 11837 H 1098.46 -4.94909 -4.54439 0
M  V30 11838 N 1101.18 1.11143 -1.11736 0
M  V30 11839 C 1102.15 2.15456 -0.78174 0
M  V30 11840 C 1103.15 1.59547 0.200383 0
M  V30 11841 O 1104.34 1.74183 -0.0244893 0
M  V30 11842 C 1101.47 3.40523 -0.160364 0
M  V30 11843 H 1102.66 2.46658 -1.70586 0
M  V30 11844 H 1100.22 1.26381 -0.919644 0
M  V30 11845 H 1100.95 3.14932 0.773835 0
M  V30 11846 H 1100.74 3.82386 -0.867378 0
M  V30 11847 H 1102.23 4.17559 0.0582175 0
M  V30 11848 N 1102.66 0.908147 1.28804 0
M  V30 11849 C 1103.91 0.534332 1.94494 0
M  V30 11850 C 1104.22 -0.92552 1.72318 0
M  V30 11851 O 1105.43 -1.40724 2.32183 0
M  V30 11852 C 1103.89 0.904748 3.48342 0
M  V30 11853 C 1103.49 2.38394 3.79305 0
M  V30 11854 C 1105.24 0.601249 4.2022 0
M  V30 11855 C 1103.15 2.69478 5.26437 0
M  V30 11856 H 1102.08 0.196107 0.728051 0
M  V30 11857 H 1104.73 1.1063 1.46401 0
M  V30 11858 H 1103.11 0.261624 3.95135 0
M  V30 11859 H 1104.28 3.07333 3.43341 0
M  V30 11860 H 1102.6 2.65733 3.20586 0
M  V30 11861 H 1105.19 0.810225 5.28526 0
M  V30 11862 H 1105.54 -0.460669 4.13743 0
M  V30 11863 H 1106.07 1.20259 3.79187 0
M  V30 11864 H 1102.81 3.74501 5.37986 0
M  V30 11865 H 1102.33 2.05171 5.63618 0
M  V30 11866 H 1104.01 2.56187 5.94119 0
M  V30 11867 N 1104.14 -1.42577 0.671525 0
M  V30 11868 C 1105.39 -2.00806 0.189663 0
M  V30 11869 C 1105.7 -1.537 -1.20978 0
M  V30 11870 O 1106.91 -2.04325 -1.78784 0
M  V30 11871 C 1105.36 -3.58744 0.288227 0
M  V30 11872 C 1104.97 -4.14839 1.69152 0
M  V30 11873 C 1106.72 -4.24285 -0.13509 0
M  V30 11874 C 1104.62 -5.65131 1.74302 0
M  V30 11875 H 1103.55 -0.751004 0.067146 0
M  V30 11876 H 1106.2 -1.63338 0.83623 0
M  V30 11877 H 1104.59 -3.937 -0.426175 0
M  V30 11878 H 1105.76 -3.91349 2.43274 0
M  V30 11879 H 1104.08 -3.61738 2.0624 0
M  V30 11880 H 1106.67 -5.34573 -0.116709 0
M  V30 11881 H 1107.02 -3.99527 -1.16977 0
M  V30 11882 H 1107.55 -3.94278 0.528191 0
M  V30 11883 H 1104.29 -5.94682 2.75742 0
M  V30 11884 H 1103.81 -5.90621 1.04531 0
M  V30 11885 H 1105.49 -6.29491 1.49498 0
M  V30 11886 N 1105.62 -0.414636 -1.52048 0
M  V30 11887 C 1106.9 0.218172 -1.94379 0
M  V30 11888 C 1107.28 1.62133 -1.35189 0
M  V30 11889 O 1106.62 2.22271 -0.529877 0
M  V30 11890 C 1106.83 0.218932 -3.48313 0
M  V30 11891 C 1108.18 0.435604 -4.2236 0
M  V30 11892 O 1109.21 0.298049 -3.54951 0
M  V30 11893 O 1108.06 0.707217 -5.41905 0
M  V30 11894 H 1105.16 0.142173 -0.814688 0
M  V30 11895 H 1107.7 -0.470977 -1.63033 0
M  V30 11896 H 1106.48 -0.76292 -3.83791 0
M  V30 11897 H 1106.1 0.951949 -3.86036 0
M  V30 11898 N 1107.1 1.56929 -0.145233 0
M  V30 11899 C 1108.51 1.82877 0.375884 0
M  V30 11900 C 1108.86 1.06384 1.64854 0
M  V30 11901 O 1107.98 0.30857 2.14189 0
M  V30 11902 C 1108.58 3.31725 0.688744 0
M  V30 11903 C 1107.14 3.58261 1.15439 0
M  V30 11904 C 1106.28 2.76737 0.176565 0
M  V30 11905 H 1109.24 1.54328 -0.36996 0
M  V30 11906 H 1109.26 3.47784 1.54359 0
M  V30 11907 H 1108.77 3.87371 -0.237694 0
M  V30 11908 H 1106.87 3.08 2.09683 0
M  V30 11909 H 1106.98 4.66732 1.08158 0
M  V30 11910 H 1105.35 2.45761 0.668843 0
M  V30 11911 H 1106.13 3.35154 -0.743432 0
M  V30 11912 N 1108.58 -0.128553 1.57075 0
M  V30 11913 C 1109.52 -1.17719 2.00611 0
M  V30 11914 C 1110.52 -1.43423 0.90146 0
M  V30 11915 O 1111.72 -1.43498 1.08666 0
M  V30 11916 H 1108.1 -0.396683 0.638864 0
M  V30 11917 H 1110.07 -0.783437 2.87932 0
M  V30 11918 C 1108.82 -2.49826 2.41831 0
M  V30 11919 H 1108.14 -2.30883 3.26394 0
M  V30 11920 H 1109.58 -3.21784 2.761 0
M  V30 11921 C 1108.04 -3.11712 1.27816 0
M  V30 11922 O 1108.57 -3.9736 0.588917 0
M  V30 11923 N 1106.78 -2.71442 1.03767 0
M  V30 11924 H 1106.32 -2.01891 1.59994 0
M  V30 11925 H 1106.28 -3.1318 0.276743 0
M  V30 11926 N 1110.05 -1.5248 -0.398459 0
M  V30 11927 C 1111 -1.72965 -1.4855 0
M  V30 11928 C 1111.99 -0.583628 -1.49942 0
M  V30 11929 O 1113.18 -0.841106 -1.55738 0
M  V30 11930 C 1110.31 -1.89339 -2.86366 0
M  V30 11931 C 1109.39 -3.09845 -2.8958 0
M  V30 11932 N 1109.79 -4.32365 -2.62477 0
M  V30 11933 C 1108.08 -3.09897 -3.20749 0
M  V30 11934 C 1108.78 -5.13908 -2.72532 0
M  V30 11935 N 1107.76 -4.49387 -3.05864 0
M  V30 11936 H 1111.56 -2.65327 -1.26406 0
M  V30 11937 H 1109.08 -1.50658 -0.606299 0
M  V30 11938 H 1111.07 -2.02134 -3.64619 0
M  V30 11939 H 1109.73 -0.981841 -3.095 0
M  V30 11940 H 1110.74 -4.60659 -2.36673 0
M  V30 11941 H 1107.42 -2.28518 -3.49408 0
M  V30 11942 H 1108.81 -6.21548 -2.55202 0
M  V30 11943 N 1111.53 0.65634 -1.43283 0
M  V30 11944 C 1112.44 1.79847 -1.50639 0
M  V30 11945 C 1113.46 1.69487 -0.393714 0
M  V30 11946 O 1114.63 1.90712 -0.647379 0
M  V30 11947 C 1111.7 3.16107 -1.42398 0
M  V30 11948 C 1110.76 3.38287 -2.64312 0
M  V30 11949 C 1109.99 4.68046 -2.56454 0
M  V30 11950 O 1110.22 5.4719 -1.61056 0
M  V30 11951 O 1109.15 4.91877 -3.46902 0
M  V30 11952 H 1112.98 1.76596 -2.47078 0
M  V30 11953 H 1110.56 0.814428 -1.25249 0
M  V30 11954 H 1112.44 3.97382 -1.40233 0
M  V30 11955 H 1111.12 3.19956 -0.490929 0
M  V30 11956 H 1110.02 2.56788 -2.72049 0
M  V30 11957 H 1111.36 3.39282 -3.56579 0
M  V30 11958 N 1113.01 1.29761 0.894412 0
M  V30 11959 C 1114.26 1.17409 1.64006 0
M  V30 11960 C 1114.57 -0.272355 1.93695 0
M  V30 11961 O 1115.78 -0.517269 2.66527 0
M  V30 11962 C 1114.23 2.05379 2.95546 0
M  V30 11963 C 1113.84 3.54878 2.73433 0
M  V30 11964 C 1115.59 2.01765 3.73485 0
M  V30 11965 C 1113.49 4.34935 4.00731 0
M  V30 11966 H 1112.42 0.43583 0.615279 0
M  V30 11967 H 1115.07 1.5444 0.990983 0
M  V30 11968 H 1113.46 1.61222 3.61695 0
M  V30 11969 H 1114.63 4.07122 2.15844 0
M  V30 11970 H 1112.94 3.60218 2.08882 0
M  V30 11971 H 1115.54 2.58835 4.67877 0
M  V30 11972 H 1115.88 0.998876 4.04139 0
M  V30 11973 H 1116.42 2.43994 3.14184 0
M  V30 11974 H 1113.16 5.3747 3.75241 0
M  V30 11975 H 1112.68 3.87458 4.5786 0
M  V30 11976 H 1114.36 4.45875 4.68833 0
M  V30 11977 N 1114.49 -1.10549 1.12324 0
M  V30 11978 C 1115.4 -2.20428 0.803032 0
M  V30 11979 C 1116.41 -1.72756 -0.207674 0
M  V30 11980 O 1117.59 -2.01357 -0.0415623 0
M  V30 11981 C 1114.65 -3.45716 0.261032 0
M  V30 11982 C 1113.72 -4.08129 1.33152 0
M  V30 11983 C 1112.95 -5.27436 0.815288 0
M  V30 11984 O 1113.17 -5.69317 -0.351361 0
M  V30 11985 O 1112.11 -5.80674 1.58434 0
M  V30 11986 H 1115.93 -2.50249 1.72073 0
M  V30 11987 H 1113.52 -1.19263 0.899815 0
M  V30 11988 H 1115.4 -4.21384 -0.0364007 0
M  V30 11989 H 1114.07 -3.17525 -0.629249 0
M  V30 11990 H 1112.98 -3.3415 1.6821 0
M  V30 11991 H 1114.31 -4.4052 2.19552 0
M  V30 11992 N 1115.97 -0.914965 -1.28321 0
M  V30 11993 C 1117.21 -0.548749 -1.94923 0
M  V30 11994 C 1117.54 0.907776 -1.72016 0
M  V30 11995 O 1116.8 1.66097 -1.03491 0
M  V30 11996 C 1117.09 -0.805805 -3.48198 0
M  V30 11997 C 1116.76 -2.24207 -3.91206 0
M  V30 11998 C 1115.42 -2.63475 -4.02659 0
M  V30 11999 C 1117.77 -3.17667 -4.13204 0
M  V30 12000 C 1115.1 -3.95353 -4.3349 0
M  V30 12001 C 1117.45 -4.4911 -4.45514 0
M  V30 12002 C 1116.12 -4.8823 -4.55179 0
M  V30 12003 H 1115.39 -0.200801 -0.713274 0
M  V30 12004 H 1118.04 -1.15652 -1.52633 0
M  V30 12005 H 1116.34 -0.115244 -3.9163 0
M  V30 12006 H 1118.04 -0.501609 -3.9785 0
M  V30 12007 H 1114.63 -1.92737 -3.82819 0
M  V30 12008 H 1118.81 -2.88537 -4.03807 0
M  V30 12009 H 1114.07 -4.25362 -4.39178 0
M  V30 12010 H 1118.24 -5.21542 -4.61483 0
M  V30 12011 H 1115.87 -5.90451 -4.78823 0
M  V30 12012 N 1117.44 1.42219 -0.679077 0
M  V30 12013 C 1118.85 1.8459 -0.279877 0
M  V30 12014 C 1119.21 1.56839 1.17881 0
M  V30 12015 O 1118.33 1.03039 1.90294 0
M  V30 12016 C 1118.93 3.35072 -0.501185 0
M  V30 12017 C 1117.48 3.76076 -0.156065 0
M  V30 12018 C 1116.63 2.65763 -0.791549 0
M  V30 12019 H 1119.58 1.32005 -0.880932 0
M  V30 12020 H 1119.6 3.79708 0.245349 0
M  V30 12021 H 1119.12 3.55239 -1.56291 0
M  V30 12022 H 1117.22 3.61516 0.90205 0
M  V30 12023 H 1117.33 4.75334 -0.599572 0
M  V30 12024 H 1115.69 2.53726 -0.222514 0
M  V30 12025 H 1116.48 2.88751 -1.85682 0
M  V30 12026 N 1118.92 0.422693 1.51826 0
M  V30 12027 C 1120.2 -0.20786 1.94492 0
M  V30 12028 C 1120.58 -1.61414 1.36047 0
M  V30 12029 O 1119.93 -2.21987 0.541657 0
M  V30 12030 C 1120.14 -0.200457 3.48424 0
M  V30 12031 C 1121.48 -0.413199 4.22585 0
M  V30 12032 O 1122.51 -0.27922 3.55104 0
M  V30 12033 O 1121.37 -0.678469 5.42272 0
M  V30 12034 H 1118.46 -0.137851 0.81543 0
M  V30 12035 H 1121.01 0.479617 1.62781 0
M  V30 12036 H 1119.78 0.783263 3.83381 0
M  V30 12037 H 1119.4 -0.931464 3.86535 0
M  V30 12038 N 1120.4 -1.5685 0.153553 0
M  V30 12039 C 1121.65 -1.95509 -0.495911 0
M  V30 12040 C 1121.96 -1.04129 -1.65579 0
M  V30 12041 O 1123.17 -1.32394 -2.37032 0
M  V30 12042 C 1121.62 -3.47579 -0.933622 0
M  V30 12043 C 1121.23 -4.47555 0.199684 0
M  V30 12044 C 1122.98 -3.95092 -1.55251 0
M  V30 12045 C 1120.88 -5.90843 -0.256663 0
M  V30 12046 H 1119.81 -0.729919 -0.189035 0
M  V30 12047 H 1122.46 -1.81938 0.238947 0
M  V30 12048 H 1120.85 -3.56506 -1.72394 0
M  V30 12049 H 1122.02 -4.50329 0.976744 0
M  V30 12050 H 1120.33 -4.09997 0.727394 0
M  V30 12051 H 1122.93 -4.99588 -1.90567 0
M  V30 12052 H 1123.27 -3.37015 -2.4439 0
M  V30 12053 H 1123.81 -3.89109 -0.826969 0
M  V30 12054 H 1120.55 -6.52753 0.599515 0
M  V30 12055 H 1120.07 -5.91414 -0.999458 0
M  V30 12056 H 1121.75 -6.43131 -0.70649 0
M  V30 12057 N 1121.88 0.120221 -1.57141 0
M  V30 12058 C 1123.29 0.677497 -1.73974 0
M  V30 12059 C 1123.64 1.80371 -0.772055 0
M  V30 12060 O 1122.76 2.16329 0.0553062 0
M  V30 12061 C 1123.36 1.23575 -3.1546 0
M  V30 12062 C 1121.92 1.73933 -3.33803 0
M  V30 12063 C 1121.07 0.638542 -2.69848 0
M  V30 12064 H 1124.02 -0.105685 -1.58348 0
M  V30 12065 H 1124.04 2.10542 -3.16942 0
M  V30 12066 H 1123.55 0.415851 -3.85866 0
M  V30 12067 H 1121.65 2.58404 -2.68437 0
M  V30 12068 H 1121.76 1.84961 -4.41957 0
M  V30 12069 H 1120.13 1.07185 -2.31049 0
M  V30 12070 H 1120.91 -0.170356 -3.42877 0
M  V30 12071 N 1123.36 1.52689 0.390367 0
M  V30 12072 C 1124.27 1.8029 1.50108 0
M  V30 12073 C 1125.28 0.689582 1.59752 0
M  V30 12074 O 1126.46 0.977024 1.76114 0
M  V30 12075 C 1123.52 1.96475 2.85654 0
M  V30 12076 C 1122.58 3.2039 2.85743 0
M  V30 12077 C 1121.82 3.35793 4.14824 0
M  V30 12078 O 1122.04 2.56033 5.09709 0
M  V30 12079 O 1120.97 4.2904 4.22147 0
M  V30 12080 H 1124.8 2.74605 1.29715 0
M  V30 12081 H 1122.39 1.37763 0.578074 0
M  V30 12082 H 1124.27 2.08835 3.66013 0
M  V30 12083 H 1122.94 1.05351 3.06077 0
M  V30 12084 H 1121.85 3.13473 2.0417 0
M  V30 12085 H 1123.18 4.11356 2.70272 0
M  V30 12086 N 1124.83 -0.648732 1.43629 0
M  V30 12087 C 1125.78 -1.76145 1.49136 0
M  V30 12088 C 1126.75 -1.62569 0.340649 0
M  V30 12089 O 1127.94 -1.82748 0.548435 0
M  V30 12090 C 1125.08 -3.14321 1.42466 0
M  V30 12091 C 1124.19 -3.38999 2.67776 0
M  V30 12092 C 1123.32 -4.67047 2.53062 0
M  V30 12093 C 1122.36 -4.84845 3.7362 0
M  V30 12094 N 1121.5 -6.04155 3.57689 0
M  V30 12095 H 1126.34 -1.70774 2.44213 0
M  V30 12096 H 1123.88 -0.833311 1.2122 0
M  V30 12097 H 1125.84 -3.94206 1.36592 0
M  V30 12098 H 1124.47 -3.18751 0.509666 0
M  V30 12099 H 1123.52 -2.53179 2.83909 0
M  V30 12100 H 1124.83 -3.48035 3.57314 0
M  V30 12101 H 1123.98 -5.55066 2.44922 0
M  V30 12102 H 1122.72 -4.60339 1.61056 0
M  V30 12103 H 1121.73 -3.95261 3.82163 0
M  V30 12104 H 1122.95 -4.9338 4.6664 0
M  V30 12105 H 1120.9 -5.9857 2.6842 0
M  V30 12106 H 1120.82 -6.14169 4.40832 0
M  V30 12107 H 1122.08 -6.94782 3.53409 0
M  V30 12108 N 1126.31 -1.30234 -0.887518 0
M  V30 12109 C 1127.59 -1.09572 -1.62029 0
M  V30 12110 C 1127.97 0.355877 -2.08079 0
M  V30 12111 O 1127.32 1.34692 -1.84582 0
M  V30 12112 C 1127.53 -2.0943 -2.79177 0
M  V30 12113 C 1128.88 -2.4101 -3.4957 0
M  V30 12114 O 1129.9 -2.0772 -2.89363 0
M  V30 12115 O 1128.76 -2.97943 -4.5814 0
M  V30 12116 H 1125.85 -0.420648 -0.712028 0
M  V30 12117 H 1128.4 -1.41651 -0.934517 0
M  V30 12118 H 1127.17 -3.07149 -2.42436 0
M  V30 12119 H 1126.79 -1.78154 -3.55453 0
M  V30 12120 N 1127.79 1.09952 -1.12909 0
M  V30 12121 C 1128.72 2.18477 -0.824014 0
M  V30 12122 C 1129.7 1.68744 0.214324 0
M  V30 12123 O 1130.89 1.94057 0.0744281 0
M  V30 12124 C 1128.02 3.46143 -0.283308 0
M  V30 12125 C 1126.97 4.09178 -1.25528 0
M  V30 12126 C 1126.3 5.31604 -0.574574 0
M  V30 12127 C 1127.6 4.52308 -2.6118 0
M  V30 12128 H 1129.29 2.44254 -1.73148 0
M  V30 12129 H 1126.84 1.17394 -0.833952 0
M  V30 12130 H 1128.79 4.21361 -0.057583 0
M  V30 12131 H 1127.51 3.19872 0.659525 0
M  V30 12132 H 1126.17 3.35973 -1.4669 0
M  V30 12133 H 1125.82 5.01611 0.37356 0
M  V30 12134 H 1125.52 5.74732 -1.22299 0
M  V30 12135 H 1127.04 6.0955 -0.358004 0
M  V30 12136 H 1128.46 5.18776 -2.44017 0
M  V30 12137 H 1126.86 5.06302 -3.22147 0
M  V30 12138 H 1127.93 3.64977 -3.19249 0
M  V30 12139 N 1129.27 0.921757 1.27833 0
M  V30 12140 C 1130.2 0.373575 2.26135 0
M  V30 12141 C 1131.21 -0.492414 1.55174 0
M  V30 12142 O 1132.4 -0.305998 1.75858 0
M  V30 12143 C 1129.5 -0.483911 3.35427 0
M  V30 12144 C 1128.68 0.361411 4.35904 0
M  V30 12145 C 1127.73 -0.432461 5.2442 0
M  V30 12146 O 1126.76 0.15777 5.68981 0
M  V30 12147 N 1127.96 -1.73367 5.54007 0
M  V30 12148 H 1130.73 1.21856 2.73809 0
M  V30 12149 H 1128.29 0.788552 1.41398 0
M  V30 12150 H 1130.28 -1.02193 3.91585 0
M  V30 12151 H 1128.85 -1.22963 2.874 0
M  V30 12152 H 1128.07 1.08076 3.79095 0
M  V30 12153 H 1129.36 0.939528 5.0005 0
M  V30 12154 H 1128.76 -2.23561 5.19651 0
M  V30 12155 H 1127.31 -2.21834 6.12889 0
M  V30 12156 N 1130.75 -1.41857 0.686609 0
M  V30 12157 C 1132.02 -1.95082 0.142228 0
M  V30 12158 C 1132.4 -1.62646 -1.34572 0
M  V30 12159 O 1131.75 -0.928757 -2.08773 0
M  V30 12160 C 1131.96 -3.46415 0.423955 0
M  V30 12161 C 1133.31 -4.23181 0.346842 0
M  V30 12162 O 1134.33 -3.54393 0.358363 0
M  V30 12163 O 1133.19 -5.4568 0.299211 0
M  V30 12164 H 1130.29 -0.826943 0.00974 0
M  V30 12165 H 1132.83 -1.51622 0.762153 0
M  V30 12166 H 1131.6 -3.63273 1.45424 0
M  V30 12167 H 1131.23 -3.96949 -0.227391 0
M  V30 12168 N 1132.22 -0.430739 -1.51599 0
M  V30 12169 C 1133.47 0.138133 -2.02329 0
M  V30 12170 C 1133.8 1.42934 -1.31466 0
M  V30 12171 O 1133.08 1.89743 -0.427551 0
M  V30 12172 C 1133.36 0.363677 -3.58259 0
M  V30 12173 C 1133.21 -0.94572 -4.39746 0
M  V30 12174 C 1134.53 1.13637 -4.25176 0
M  V30 12175 H 1131.65 0.0487287 -0.735387 0
M  V30 12176 H 1134.29 -0.568444 -1.81297 0
M  V30 12177 H 1132.44 0.965552 -3.7631 0
M  V30 12178 H 1134.12 -1.58107 -4.33359 0
M  V30 12179 H 1132.36 -1.55183 -4.05094 0
M  V30 12180 H 1133.03 -0.742031 -5.4699 0
M  V30 12181 H 1135.51 0.626608 -4.11355 0
M  V30 12182 H 1134.38 1.26294 -5.34173 0
M  V30 12183 H 1134.64 2.16273 -3.85588 0
M  V30 12184 N 1133.7 1.56767 -0.161869 0
M  V30 12185 C 1134.63 2.20511 0.767918 0
M  V30 12186 C 1135.61 1.15783 1.24612 0
M  V30 12187 O 1136.8 1.44179 1.301 0
M  V30 12188 C 1133.93 2.83844 2.00125 0
M  V30 12189 C 1132.88 3.94528 1.65926 0
M  V30 12190 C 1132.21 4.44866 2.96646 0
M  V30 12191 C 1133.51 5.14583 0.894497 0
M  V30 12192 H 1135.2 2.98464 0.236607 0
M  V30 12193 H 1132.75 1.43561 0.112363 0
M  V30 12194 H 1134.7 3.27109 2.65664 0
M  V30 12195 H 1133.43 2.03246 2.55654 0
M  V30 12196 H 1132.08 3.51904 1.02759 0
M  V30 12197 H 1131.73 3.61071 3.50196 0
M  V30 12198 H 1131.43 5.19531 2.74521 0
M  V30 12199 H 1132.96 4.90812 3.6323 0
M  V30 12200 H 1134.37 5.54601 1.45228 0
M  V30 12201 H 1132.77 5.95105 0.772636 0
M  V30 12202 H 1133.84 4.84773 -0.110986 0
M  V30 12203 N 1135.18 -0.111886 1.57202 0
M  V30 12204 C 1136.13 -1.13688 2.00858 0
M  V30 12205 C 1137.1 -1.40752 0.881939 0
M  V30 12206 O 1138.28 -1.52498 1.14669 0
M  V30 12207 C 1135.42 -2.45641 2.42393 0
M  V30 12208 C 1134.54 -2.25452 3.68504 0
M  V30 12209 C 1133.67 -3.50686 3.9899 0
M  V30 12210 C 1132.71 -3.25685 5.18262 0
M  V30 12211 N 1131.85 -4.4314 5.44583 0
M  V30 12212 H 1136.69 -0.757611 2.88209 0
M  V30 12213 H 1134.22 -0.362582 1.42561 0
M  V30 12214 H 1136.18 -3.22627 2.64514 0
M  V30 12215 H 1134.81 -2.81447 1.58074 0
M  V30 12216 H 1133.86 -1.39349 3.53958 0
M  V30 12217 H 1135.18 -2.0296 4.55641 0
M  V30 12218 H 1134.33 -4.36087 4.21797 0
M  V30 12219 H 1133.07 -3.76216 3.10343 0
M  V30 12220 H 1132.07 -2.38675 4.95292 0
M  V30 12221 H 1133.3 -3.01518 6.08493 0
M  V30 12222 H 1131.24 -4.68778 4.58893 0
M  V30 12223 H 1131.16 -4.23778 6.26058 0
M  V30 12224 H 1132.43 -5.29654 5.71915 0
M  V30 12225 N 1136.66 -1.52894 -0.382264 0
M  V30 12226 C 1137.9 -1.69958 -1.1355 0
M  V30 12227 C 1138.26 -0.433602 -1.8704 0
M  V30 12228 O 1139.46 -0.480701 -2.64467 0
M  V30 12229 C 1137.73 -2.90465 -2.08242 0
M  V30 12230 S 1139.29 -3.28151 -2.91311 0
M  V30 12231 H 1136.11 -0.598209 -0.384275 0
M  V30 12232 H 1138.71 -1.90957 -0.418998 0
M  V30 12233 H 1137.42 -3.80819 -1.52987 0
M  V30 12234 H 1136.95 -2.71819 -2.84391 0
M  V30 12235 H 1138.96 -2.78863 -4.10426 0
M  V30 12236 N 1138.14 0.641106 -1.43971 0
M  V30 12237 C 1139.38 1.41251 -1.47742 0
M  V30 12238 C 1139.74 1.91722 -0.103353 0
M  V30 12239 O 1140.94 2.68795 -0.0157401 0
M  V30 12240 C 1139.21 2.5537 -2.50042 0
M  V30 12241 S 1140.77 3.43708 -2.72783 0
M  V30 12242 H 1137.59 0.482007 -0.522676 0
M  V30 12243 H 1140.19 0.743161 -1.80824 0
M  V30 12244 H 1138.9 2.16586 -3.48596 0
M  V30 12245 H 1138.43 3.27142 -2.18498 0
M  V30 12246 H 1140.44 4.52495 -2.03624 0
M  V30 12247 N 1139.62 1.30703 0.880598 0
M  V30 12248 C 1140.55 1.20033 2.00286 0
M  V30 12249 C 1141.53 0.0899614 1.69862 0
M  V30 12250 O 1142.71 0.272747 1.92275 0
M  V30 12251 C 1139.84 0.895902 3.35546 0
M  V30 12252 C 1138.8 1.96468 3.80242 0
M  V30 12253 C 1138.12 1.51316 5.12843 0
M  V30 12254 C 1139.42 3.37637 3.98496 0
M  V30 12255 H 1141.12 2.13922 2.0947 0
M  V30 12256 H 1138.66 1.02989 1.00644 0
M  V30 12257 H 1140.61 0.807899 4.13583 0
M  V30 12258 H 1139.34 -0.0786636 3.26505 0
M  V30 12259 H 1138 2.0424 3.04437 0
M  V30 12260 H 1137.65 0.52674 5.00234 0
M  V30 12261 H 1137.35 2.22807 5.43719 0
M  V30 12262 H 1138.87 1.43903 5.93401 0
M  V30 12263 H 1140.28 3.326 4.66959 0
M  V30 12264 H 1138.68 4.07253 4.40755 0
M  V30 12265 H 1139.75 3.79205 3.02211 0
M  V30 12266 N 1141.09 -1.09351 1.1349 0
M  V30 12267 C 1142.04 -2.16008 0.812981 0
M  V30 12268 C 1143.01 -1.64566 -0.225252 0
M  V30 12269 O 1144.2 -1.90552 -0.0973261 0
M  V30 12270 C 1141.34 -3.43913 0.285996 0
M  V30 12271 C 1140.45 -4.09251 1.38338 0
M  V30 12272 C 1139.58 -5.24916 0.814652 0
M  V30 12273 C 1138.62 -5.82178 1.89038 0
M  V30 12274 N 1137.76 -6.89203 1.33955 0
M  V30 12275 H 1142.6 -2.42887 1.72655 0
M  V30 12276 H 1140.14 -1.19209 0.861833 0
M  V30 12277 H 1142.09 -4.17183 -0.0376794 0
M  V30 12278 H 1140.72 -3.17349 -0.590707 0
M  V30 12279 H 1139.78 -3.33838 1.82363 0
M  V30 12280 H 1141.09 -4.4784 2.19638 0
M  V30 12281 H 1140.24 -6.05086 0.442306 0
M  V30 12282 H 1138.98 -4.87691 -0.029416 0
M  V30 12283 H 1137.99 -5.00669 2.27179 0
M  V30 12284 H 1139.21 -6.21464 2.73787 0
M  V30 12285 H 1137.16 -6.53956 0.517494 0
M  V30 12286 H 1137.07 -7.26565 2.08902 0
M  V30 12287 H 1138.34 -7.73126 0.994793 0
M  V30 12288 N 1142.57 -0.928524 -1.27343 0
M  V30 12289 C 1143.99 -0.62889 -1.46687 0
M  V30 12290 C 1144.19 0.821592 -1.83989 0
M  V30 12291 O 1143.24 1.59941 -1.95385 0
M  V30 12292 C 1144.56 -1.57947 -2.55878 0
M  V30 12293 C 1146.1 -1.58778 -2.69738 0
M  V30 12294 C 1146.58 -2.52535 -3.82087 0
M  V30 12295 N 1148.07 -2.50747 -3.89462 0
M  V30 12296 C 1148.81 -3.19981 -4.75814 0
M  V30 12297 N 1148.3 -3.98598 -5.66649 0
M  V30 12298 N 1150.09 -3.08996 -4.69551 0
M  V30 12299 H 1142.25 -1.86625 -1.01414 0
M  V30 12300 H 1144.51 -0.801293 -0.50659 0
M  V30 12301 H 1144.21 -2.61427 -2.35264 0
M  V30 12302 H 1144.09 -1.3218 -3.53282 0
M  V30 12303 H 1146.48 -0.560292 -2.89732 0
M  V30 12304 H 1146.56 -1.88594 -1.72817 0
M  V30 12305 H 1146.2 -3.55395 -3.62846 0
M  V30 12306 H 1146.13 -2.20015 -4.78436 0
M  V30 12307 H 1148.62 -1.93651 -3.24511 0
M  V30 12308 H 1148.93 -4.4841 -6.29403 0
M  V30 12309 H 1147.28 -4.02701 -5.66442 0
M  V30 12310 H 1150.47 -2.4707 -3.97585 0
M  V30 12311 H 1150.64 -3.63223 -5.36631 0
M  V30 12312 N 1144.05 1.41491 -0.694123 0
M  V30 12313 C 1145.33 1.95004 -0.152571 0
M  V30 12314 C 1145.71 1.63357 1.33707 0
M  V30 12315 O 1145.05 0.939815 2.08278 0
M  V30 12316 C 1145.26 3.46186 -0.44232 0
M  V30 12317 C 1146.61 4.22991 -0.369279 0
M  V30 12318 O 1147.64 3.54198 -0.377152 0
M  V30 12319 O 1146.5 5.45514 -0.328145 0
M  V30 12320 H 1143.59 0.826879 -0.0141253 0
M  V30 12321 H 1146.14 1.51216 -0.770183 0
M  V30 12322 H 1144.91 3.62497 -1.47348 0
M  V30 12323 H 1144.53 3.97064 0.206337 0
M  V30 12324 N 1145.53 0.438773 1.51369 0
M  V30 12325 C 1146.94 -0.0240139 1.86685 0
M  V30 12326 C 1147.29 -1.41816 1.35583 0
M  V30 12327 O 1146.41 -2.04517 0.707232 0
M  V30 12328 C 1147.01 -0.0503527 3.38763 0
M  V30 12329 C 1145.57 -0.457556 3.73609 0
M  V30 12330 C 1144.72 0.348852 2.75097 0
M  V30 12331 H 1147.67 0.654552 1.44573 0
M  V30 12332 H 1147.69 -0.859534 3.70665 0
M  V30 12333 H 1147.2 0.964451 3.75925 0
M  V30 12334 H 1145.3 -1.47791 3.42036 0
M  V30 12335 H 1145.41 -0.181357 4.78757 0
M  V30 12336 H 1143.78 -0.193037 2.53967 0
M  V30 12337 H 1144.56 1.36256 3.15102 0
M  V30 12338 N 1147.01 -1.56678 0.170181 0
M  V30 12339 C 1147.95 -2.17909 -0.760556 0
M  V30 12340 C 1148.92 -1.11875 -1.22773 0
M  V30 12341 O 1150.11 -1.40021 -1.2961 0
M  V30 12342 C 1147.25 -2.82305 -1.9849 0
M  V30 12343 C 1146.36 -4.02796 -1.5614 0
M  V30 12344 C 1145.5 -4.55121 -2.73932 0
M  V30 12345 C 1144.53 -5.68025 -2.28067 0
M  V30 12346 N 1143.67 -6.14865 -3.38947 0
M  V30 12347 H 1148.51 -2.97098 -0.231629 0
M  V30 12348 H 1146.05 -1.46742 -0.102602 0
M  V30 12349 H 1148.01 -3.17797 -2.70298 0
M  V30 12350 H 1146.64 -2.05721 -2.48755 0
M  V30 12351 H 1145.69 -3.73131 -0.740097 0
M  V30 12352 H 1147 -4.84526 -1.18472 0
M  V30 12353 H 1146.15 -4.92789 -3.53898 0
M  V30 12354 H 1144.89 -3.72445 -3.14858 0
M  V30 12355 H 1143.9 -5.2991 -1.46546 0
M  V30 12356 H 1145.12 -6.52501 -1.88199 0
M  V30 12357 H 1143.07 -5.35119 -3.79452 0
M  V30 12358 H 1142.99 -6.91582 -3.05369 0
M  V30 12359 H 1144.25 -6.57183 -4.19203 0
M  V30 12360 N 1148.48 0.103547 -1.57259 0
M  V30 12361 C 1149.42 1.15225 -1.98131 0
M  V30 12362 C 1150.43 1.36793 -0.882692 0
M  V30 12363 O 1151.62 1.35595 -1.16088 0
M  V30 12364 C 1148.72 2.50941 -2.27776 0
M  V30 12365 C 1147.89 2.49765 -3.59077 0
M  V30 12366 C 1146.95 3.67344 -3.76756 0
M  V30 12367 O 1145.98 3.50221 -4.48702 0
M  V30 12368 N 1147.18 4.86504 -3.16692 0
M  V30 12369 H 1149.94 0.804448 -2.88702 0
M  V30 12370 H 1147.5 0.292636 -1.59233 0
M  V30 12371 H 1149.5 3.28186 -2.36804 0
M  V30 12372 H 1148.07 2.77843 -1.43255 0
M  V30 12373 H 1147.29 1.58125 -3.61096 0
M  V30 12374 H 1148.57 2.4605 -4.4535 0
M  V30 12375 H 1147.97 5.03319 -2.58236 0
M  V30 12376 H 1146.53 5.61371 -3.31218 0
M  V30 12377 N 1149.96 1.53094 0.37415 0
M  V30 12378 C 1151.38 1.42676 0.715246 0
M  V30 12379 C 1151.58 0.558992 1.93591 0
M  V30 12380 O 1150.63 0.0381328 2.52471 0
M  V30 12381 C 1151.95 2.85746 0.936459 0
M  V30 12382 C 1153.49 2.95322 1.03701 0
M  V30 12383 C 1153.97 4.39436 1.29075 0
M  V30 12384 N 1155.46 4.42826 1.35864 0
M  V30 12385 C 1156.2 5.51433 1.57191 0
M  V30 12386 N 1155.69 6.701 1.75891 0
M  V30 12387 N 1157.48 5.38998 1.59491 0
M  V30 12388 H 1149.64 2.08025 -0.428854 0
M  V30 12389 H 1151.9 0.939078 -0.129758 0
M  V30 12390 H 1151.6 3.51523 0.111448 0
M  V30 12391 H 1151.48 3.28887 1.84698 0
M  V30 12392 H 1153.87 2.29704 1.85257 0
M  V30 12393 H 1153.95 2.55588 0.104066 0
M  V30 12394 H 1153.59 5.05625 0.480231 0
M  V30 12395 H 1153.52 4.76735 2.23677 0
M  V30 12396 H 1156.01 3.57301 1.23061 0
M  V30 12397 H 1156.32 7.48643 1.91713 0
M  V30 12398 H 1154.67 6.73102 1.73086 0
M  V30 12399 H 1157.86 4.45257 1.44444 0
M  V30 12400 H 1158.03 6.23705 1.75771 0
M  V30 12401 N 1151.44 -0.633461 1.44309 0
M  V30 12402 C 1152.69 -1.38902 1.4625 0
M  V30 12403 C 1153 -1.95354 0.0980699 0
M  V30 12404 O 1154.21 -2.715 -0.0049983 0
M  V30 12405 C 1152.66 -2.51477 2.57463 0
M  V30 12406 C 1152.27 -2.01549 4.00103 0
M  V30 12407 C 1154.02 -3.28698 2.68622 0
M  V30 12408 C 1151.92 -3.11452 5.02744 0
M  V30 12409 H 1150.85 -0.521976 0.544112 0
M  V30 12410 H 1153.5 -0.681725 1.70367 0
M  V30 12411 H 1151.89 -3.24771 2.26582 0
M  V30 12412 H 1153.06 -1.35135 4.4054 0
M  V30 12413 H 1151.37 -1.3715 3.93165 0
M  V30 12414 H 1153.97 -4.10624 3.42479 0
M  V30 12415 H 1154.31 -3.78027 1.7436 0
M  V30 12416 H 1154.85 -2.62494 2.98901 0
M  V30 12417 H 1151.59 -2.6707 5.98627 0
M  V30 12418 H 1151.11 -3.76514 4.66902 0
M  V30 12419 H 1152.79 -3.76265 5.2634 0
M  V30 12420 N 1152.92 -1.31168 -0.873655 0
M  V30 12421 C 1154.14 -1.23728 -1.66452 0
M  V30 12422 C 1154.57 0.194869 -1.87088 0
M  V30 12423 O 1153.93 1.1397 -1.40998 0
M  V30 12424 C 1153.97 -1.98285 -3.0119 0
M  V30 12425 O 1153.08 -1.31767 -3.90783 0
M  V30 12426 H 1152.42 -0.427362 -0.508191 0
M  V30 12427 H 1154.95 -1.73176 -1.08955 0
M  V30 12428 H 1154.96 -2.0774 -3.51153 0
M  V30 12429 H 1153.63 -3.02437 -2.8549 0
M  V30 12430 H 1152.21 -1.3074 -3.4923 0
M  V30 12431 N 1154.4 1.08748 -1.14068 0
M  V30 12432 C 1155.65 1.8044 -0.901352 0
M  V30 12433 C 1155.96 1.86995 0.573791 0
M  V30 12434 O 1157.16 2.55065 0.930275 0
M  V30 12435 C 1155.62 3.24185 -1.56308 0
M  V30 12436 C 1155.23 3.25875 -3.07424 0
M  V30 12437 C 1156.97 4.00584 -1.40473 0
M  V30 12438 C 1154.88 4.64186 -3.66449 0
M  V30 12439 H 1153.81 0.676201 -0.333569 0
M  V30 12440 H 1156.46 1.22169 -1.3692 0
M  V30 12441 H 1154.84 3.82561 -1.0229 0
M  V30 12442 H 1156.02 2.77225 -3.6808 0
M  V30 12443 H 1154.33 2.62969 -3.22856 0
M  V30 12444 H 1156.93 5.02781 -1.81976 0
M  V30 12445 H 1157.27 4.14823 -0.350408 0
M  V30 12446 H 1157.8 3.48668 -1.91508 0
M  V30 12447 H 1154.54 4.5515 -4.71719 0
M  V30 12448 H 1154.06 5.13132 -3.10574 0
M  V30 12449 H 1155.74 5.33161 -3.66536 0
M  V30 12450 N 1155.87 0.935264 1.26849 0
M  V30 12451 C 1157.29 0.623198 1.75992 0
M  V30 12452 C 1157.64 -0.861647 1.76267 0
M  V30 12453 O 1156.76 -1.6743 1.37099 0
M  V30 12454 C 1157.36 1.12451 3.19594 0
M  V30 12455 C 1155.92 0.862974 3.66374 0
M  V30 12456 C 1155.06 1.27886 2.4605 0
M  V30 12457 H 1158.01 1.11422 1.13008 0
M  V30 12458 H 1158.03 0.475626 3.77516 0
M  V30 12459 H 1157.55 2.20522 3.19361 0
M  V30 12460 H 1155.65 -0.203606 3.72043 0
M  V30 12461 H 1155.76 1.48582 4.55478 0
M  V30 12462 H 1154.12 0.697335 2.44968 0
M  V30 12463 H 1154.91 2.36837 2.48522 0
M  V30 12464 N 1157.35 -1.41121 0.701616 0
M  V30 12465 C 1158.26 -2.34565 0.0407815 0
M  V30 12466 C 1159.28 -1.56555 -0.75937 0
M  V30 12467 O 1160.45 -1.89008 -0.695542 0
M  V30 12468 C 1157.52 -3.35347 -0.879954 0
M  V30 12469 C 1156.58 -4.29241 -0.0713279 0
M  V30 12470 C 1155.81 -5.25209 -0.948211 0
M  V30 12471 O 1156.04 -5.26781 -2.18766 0
M  V30 12472 O 1154.97 -6.00605 -0.394657 0
M  V30 12473 H 1158.8 -2.92666 0.811188 0
M  V30 12474 H 1156.38 -1.42077 0.461991 0
M  V30 12475 H 1158.26 -3.9719 -1.40776 0
M  V30 12476 H 1156.94 -2.7968 -1.62975 0
M  V30 12477 H 1155.85 -3.70727 0.50122 0
M  V30 12478 H 1157.18 -4.88022 0.639935 0
M  V30 12479 N 1158.83 -0.446794 -1.51134 0
M  V30 12480 C 1159.76 0.350229 -2.30858 0
M  V30 12481 C 1160.74 1.0125 -1.36684 0
M  V30 12482 O 1161.93 1.01433 -1.65605 0
M  V30 12483 C 1159.06 1.4464 -3.15748 0
M  V30 12484 C 1158.01 0.907102 -4.18277 0
M  V30 12485 C 1157.34 2.09974 -4.91747 0
M  V30 12486 C 1158.64 -0.0649758 -5.2226 0
M  V30 12487 H 1160.33 -0.315105 -2.97737 0
M  V30 12488 H 1157.88 -0.152985 -1.43185 0
M  V30 12489 H 1159.83 2.01127 -3.70305 0
M  V30 12490 H 1158.55 2.14016 -2.46708 0
M  V30 12491 H 1157.21 0.364382 -3.64785 0
M  V30 12492 H 1156.86 2.77991 -4.19202 0
M  V30 12493 H 1156.56 1.74523 -5.61084 0
M  V30 12494 H 1158.08 2.66996 -5.49131 0
M  V30 12495 H 1159.5 0.4099 -5.71833 0
M  V30 12496 H 1157.9 -0.332529 -5.99178 0
M  V30 12497 H 1158.97 -0.998681 -4.74504 0
M  V30 12498 N 1160.31 1.56586 -0.178487 0
M  V30 12499 C 1161.24 2.21313 0.744486 0
M  V30 12500 C 1162.22 1.17098 1.23377 0
M  V30 12501 O 1163.4 1.45551 1.28563 0
M  V30 12502 C 1160.53 2.8595 1.97103 0
M  V30 12503 C 1159.49 3.96266 1.61732 0
M  V30 12504 C 1158.81 4.47987 2.91911 0
M  V30 12505 C 1160.11 5.15503 0.839868 0
M  V30 12506 H 1161.81 2.98698 0.204938 0
M  V30 12507 H 1159.35 1.43672 0.0971306 0
M  V30 12508 H 1161.31 3.29909 2.6218 0
M  V30 12509 H 1160.03 2.05946 2.53484 0
M  V30 12510 H 1158.69 3.52974 0.990208 0
M  V30 12511 H 1158.34 3.64765 3.46346 0
M  V30 12512 H 1158.04 5.22413 2.68995 0
M  V30 12513 H 1159.56 4.94637 3.58004 0
M  V30 12514 H 1160.98 5.5611 1.39337 0
M  V30 12515 H 1159.37 5.95891 0.709473 0
M  V30 12516 H 1160.44 4.84628 -0.162396 0
M  V30 12517 N 1161.79 -0.095206 1.57312 0
M  V30 12518 C 1162.75 -1.09974 2.01093 0
M  V30 12519 C 1163.75 -1.32954 0.904424 0
M  V30 12520 O 1164.94 -1.29069 1.16991 0
M  V30 12521 C 1162.07 -2.4489 2.37153 0
M  V30 12522 H 1163.26 -0.722906 2.91057 0
M  V30 12523 H 1160.82 -0.340249 1.52552 0
M  V30 12524 H 1161.55 -2.8745 1.50143 0
M  V30 12525 H 1161.34 -2.29559 3.17876 0
M  V30 12526 H 1162.83 -3.17141 2.71683 0
M  V30 12527 N 1163.26 -1.53291 -0.366026 0
M  V30 12528 C 1164.21 -1.76077 -1.44847 0
M  V30 12529 C 1165.2 -0.615302 -1.4867 0
M  V30 12530 O 1166.39 -0.873952 -1.53919 0
M  V30 12531 C 1163.52 -1.95371 -2.82286 0
M  V30 12532 C 1162.61 -3.15918 -2.82943 0
M  V30 12533 N 1163 -4.37835 -2.53247 0
M  V30 12534 C 1161.29 -3.16631 -3.14103 0
M  V30 12535 C 1162 -5.19573 -2.6157 0
M  V30 12536 N 1160.97 -4.55773 -2.96263 0
M  V30 12537 H 1164.77 -2.67949 -1.2075 0
M  V30 12538 H 1162.29 -1.5191 -0.574206 0
M  V30 12539 H 1164.28 -2.09823 -3.6025 0
M  V30 12540 H 1162.94 -1.04727 -3.07347 0
M  V30 12541 H 1163.96 -4.65575 -2.26848 0
M  V30 12542 H 1160.63 -2.35878 -3.44482 0
M  V30 12543 H 1162.02 -6.26821 -2.41961 0
M  V30 12544 N 1164.74 0.6258 -1.44643 0
M  V30 12545 C 1166.15 1.20751 -1.42394 0
M  V30 12546 C 1166.5 1.95685 -0.142047 0
M  V30 12547 O 1165.63 2.02715 0.757332 0
M  V30 12548 C 1166.22 2.1964 -2.57961 0
M  V30 12549 C 1164.78 2.73227 -2.5889 0
M  V30 12550 C 1163.93 1.48315 -2.34303 0
M  V30 12551 H 1166.88 0.416162 -1.53146 0
M  V30 12552 H 1166.9 3.02342 -2.31019 0
M  V30 12553 H 1166.41 1.65073 -3.51244 0
M  V30 12554 H 1164.52 3.31782 -1.69563 0
M  V30 12555 H 1164.63 3.18902 -3.57545 0
M  V30 12556 H 1162.99 1.76634 -1.83501 0
M  V30 12557 H 1163.78 0.956427 -3.29708 0
M  V30 12558 N 1166.22 1.31629 0.866686 0
M  V30 12559 C 1167.45 1.24293 1.6503 0
M  V30 12560 C 1167.86 -0.193556 1.88207 0
M  V30 12561 O 1167.2 -1.13712 1.44275 0
M  V30 12562 C 1167.26 1.92032 3.03914 0
M  V30 12563 C 1166.93 3.41373 3.03831 0
M  V30 12564 C 1167.92 4.37064 2.81551 0
M  V30 12565 C 1165.61 3.83118 3.24848 0
M  V30 12566 C 1167.6 5.72474 2.80272 0
M  V30 12567 C 1165.29 5.18639 3.23197 0
M  V30 12568 C 1166.29 6.13128 3.00936 0
M  V30 12569 O 1165.98 7.46172 2.99137 0
M  V30 12570 H 1165.71 0.430569 0.521139 0
M  V30 12571 H 1168.26 1.74105 1.0898 0
M  V30 12572 H 1166.49 1.36774 3.61704 0
M  V30 12573 H 1168.18 1.78567 3.64512 0
M  V30 12574 H 1168.95 4.06142 2.65093 0
M  V30 12575 H 1164.83 3.10001 3.41204 0
M  V30 12576 H 1168.37 6.46199 2.62816 0
M  V30 12577 H 1164.27 5.49196 3.39197 0
M  V30 12578 H 1165.04 7.55385 3.15175 0
M  V30 12579 N 1167.7 -1.08142 1.14644 0
M  V30 12580 C 1168.95 -1.80849 0.917685 0
M  V30 12581 C 1169.28 -1.86123 -0.554249 0
M  V30 12582 O 1168.55 -1.33907 -1.41065 0
M  V30 12583 C 1168.84 -3.26325 1.52264 0
M  V30 12584 C 1168.69 -3.29244 3.06461 0
M  V30 12585 C 1170.01 -4.23375 1.20175 0
M  V30 12586 H 1167.13 -0.656559 0.334812 0
M  V30 12587 H 1169.77 -1.26595 1.41682 0
M  V30 12588 H 1167.92 -3.72656 1.09817 0
M  V30 12589 H 1169.59 -2.91216 3.57758 0
M  V30 12590 H 1167.83 -2.68438 3.40769 0
M  V30 12591 H 1168.51 -4.31785 3.43897 0
M  V30 12592 H 1170.98 -3.85394 1.56877 0
M  V30 12593 H 1169.86 -5.23472 1.65132 0
M  V30 12594 H 1170.12 -4.41944 0.117474 0
M  V30 12595 N 1169.18 -0.941978 -1.26351 0
M  V30 12596 C 1170.11 -0.409504 -2.25512 0
M  V30 12597 C 1171.12 0.467665 -1.55938 0
M  V30 12598 O 1172.31 0.277982 -1.76322 0
M  V30 12599 C 1169.41 0.430487 -3.36155 0
M  V30 12600 C 1168.58 -0.430714 -4.35274 0
M  V30 12601 C 1167.64 0.348976 -5.25042 0
M  V30 12602 O 1166.67 -0.24827 -5.68658 0
M  V30 12603 N 1167.87 1.64531 -5.56695 0
M  V30 12604 H 1170.64 -1.26196 -2.71836 0
M  V30 12605 H 1168.2 -0.810947 -1.40126 0
M  V30 12606 H 1170.19 0.959501 -3.93161 0
M  V30 12607 H 1168.76 1.18375 -2.8932 0
M  V30 12608 H 1167.98 -1.14093 -3.77328 0
M  V30 12609 H 1169.27 -1.01896 -4.98492 0
M  V30 12610 H 1168.67 2.15266 -5.23142 0
M  V30 12611 H 1167.22 2.12055 -6.16341 0
M  V30 12612 N 1170.66 1.40747 -0.709091 0
M  V30 12613 C 1171.9 2.00233 -0.242836 0
M  V30 12614 C 1172.22 1.56853 1.1686 0
M  V30 12615 O 1173.42 2.08993 1.73304 0
M  V30 12616 C 1171.88 3.57854 -0.383241 0
M  V30 12617 C 1171.49 4.10209 -1.80091 0
M  V30 12618 C 1173.23 4.24494 0.0225511 0
M  V30 12619 C 1171.14 5.60311 -1.89225 0
M  V30 12620 H 1170.07 0.74896 -0.087034 0
M  V30 12621 H 1172.72 1.61064 -0.879243 0
M  V30 12622 H 1171.1 3.94692 0.321642 0
M  V30 12623 H 1172.28 3.84762 -2.53564 0
M  V30 12624 H 1170.59 3.56142 -2.15758 0
M  V30 12625 H 1173.19 5.34694 -0.0250644 0
M  V30 12626 H 1173.53 4.02488 1.06344 0
M  V30 12627 H 1174.06 3.92739 -0.632541 0
M  V30 12628 H 1170.8 5.87162 -2.91412 0
M  V30 12629 H 1170.32 5.87642 -1.20154 0
M  V30 12630 H 1172 6.25306 -1.66136 0
M  V30 12631 N 1172.13 0.454803 1.50895 0
M  V30 12632 C 1173.07 -0.383826 2.25963 0
M  V30 12633 C 1174.08 -0.971263 1.30653 0
M  V30 12634 O 1175.27 -0.862434 1.56283 0
M  V30 12635 C 1172.37 -1.55069 3.01342 0
M  V30 12636 C 1171.54 -1.07899 4.23883 0
M  V30 12637 C 1170.6 -2.118 4.81692 0
M  V30 12638 O 1169.63 -1.70523 5.43057 0
M  V30 12639 N 1170.83 -3.44459 4.67256 0
M  V30 12640 H 1173.59 0.259646 2.98573 0
M  V30 12641 H 1171.15 0.284661 1.59378 0
M  V30 12642 H 1173.15 -2.24236 3.36898 0
M  V30 12643 H 1171.72 -2.09917 2.31633 0
M  V30 12644 H 1170.94 -0.213773 3.9362 0
M  V30 12645 H 1172.22 -0.741501 5.03368 0
M  V30 12646 H 1171.62 -3.80716 4.18416 0
M  V30 12647 H 1170.18 -4.0947 5.07127 0
M  V30 12648 N 1173.61 -1.56489 0.186789 0
M  V30 12649 C 1174.84 -2.01722 -0.459993 0
M  V30 12650 C 1175.25 -1.06697 -1.5576 0
M  V30 12651 O 1174.61 -0.0704212 -1.82364 0
M  V30 12652 C 1174.66 -3.46693 -1.02401 0
M  V30 12653 O 1174.38 -4.3809 0.0297916 0
M  V30 12654 C 1175.88 -4.07403 -1.7475 0
M  V30 12655 H 1173.1 -0.660845 -0.116298 0
M  V30 12656 H 1175.65 -2.02389 0.293059 0
M  V30 12657 H 1173.8 -3.46752 -1.72749 0
M  V30 12658 H 1174.22 -5.23057 -0.388821 0
M  V30 12659 H 1175.69 -5.10718 -2.09455 0
M  V30 12660 H 1176.17 -3.50383 -2.64818 0
M  V30 12661 H 1176.77 -4.11093 -1.09007 0
M  V30 12662 N 1175.09 0.086862 -1.5736 0
M  V30 12663 C 1176.04 1.11134 -1.99081 0
M  V30 12664 C 1177.02 1.35318 -0.870506 0
M  V30 12665 O 1178.22 1.35871 -1.13437 0
M  V30 12666 C 1175.34 2.42931 -2.42569 0
M  V30 12667 C 1174.43 2.22085 -3.61302 0
M  V30 12668 N 1174.82 1.71128 -4.75971 0
M  V30 12669 C 1173.12 2.52619 -3.67559 0
M  V30 12670 C 1173.82 1.64745 -5.57883 0
M  V30 12671 N 1172.8 2.10257 -5.01291 0
M  V30 12672 H 1176.6 0.710431 -2.85184 0
M  V30 12673 H 1174.11 0.294168 -1.59714 0
M  V30 12674 H 1176.11 3.17069 -2.7069 0
M  V30 12675 H 1174.77 2.83751 -1.57846 0
M  V30 12676 H 1175.78 1.40207 -4.9856 0
M  V30 12677 H 1172.46 2.96908 -2.93516 0
M  V30 12678 H 1173.85 1.26329 -6.59917 0
M  V30 12679 N 1176.57 1.53483 0.357892 0
M  V30 12680 C 1177.98 1.61641 0.934289 0
M  V30 12681 C 1178.33 0.488655 1.90017 0
M  V30 12682 O 1177.45 -0.38378 2.1297 0
M  V30 12683 C 1178.05 2.92987 1.7013 0
M  V30 12684 C 1176.61 3.03456 2.22692 0
M  V30 12685 C 1175.76 2.56992 1.04165 0
M  V30 12686 H 1178.71 1.58112 0.136452 0
M  V30 12687 H 1178.73 2.81221 2.5631 0
M  V30 12688 H 1178.24 3.75047 0.998056 0
M  V30 12689 H 1176.34 2.25999 2.96235 0
M  V30 12690 H 1176.45 4.08673 2.50046 0
M  V30 12691 H 1174.82 2.12052 1.41088 0
M  V30 12692 H 1175.6 3.41477 0.353272 0
M  V30 12693 N 1178.05 -0.61812 1.44973 0
M  V30 12694 C 1179.29 -1.37944 1.48658 0
M  V30 12695 C 1179.62 -1.93805 0.123749 0
M  V30 12696 O 1178.9 -1.74434 -0.860401 0
M  V30 12697 C 1179.18 -2.53515 2.55739 0
M  V30 12698 C 1179.04 -2.02918 4.01428 0
M  V30 12699 C 1180.35 -3.55674 2.59199 0
M  V30 12700 H 1177.47 -0.500223 0.541244 0
M  V30 12701 H 1180.12 -0.69774 1.76725 0
M  V30 12702 H 1178.27 -3.11669 2.31937 0
M  V30 12703 H 1179.94 -1.49494 4.36405 0
M  V30 12704 H 1178.18 -1.33999 4.12586 0
M  V30 12705 H 1178.85 -2.86181 4.72021 0
M  V30 12706 H 1181.33 -3.07343 2.80499 0
M  V30 12707 H 1180.2 -4.34042 3.36004 0
M  V30 12708 H 1180.46 -4.10601 1.63888 0
M  V30 12709 N 1179.52 -1.32087 -0.859693 0
M  V30 12710 C 1180.47 -1.20549 -1.98924 0
M  V30 12711 C 1181.47 -0.111422 -1.69033 0
M  V30 12712 O 1182.67 -0.27401 -1.77902 0
M  V30 12713 H 1179.05 -0.373538 -0.652667 0
M  V30 12714 H 1181.02 -2.16091 -2.05785 0
M  V30 12715 C 1179.77 -0.940226 -3.34746 0
M  V30 12716 H 1179.09 -1.77427 -3.58273 0
M  V30 12717 H 1180.53 -0.899712 -4.14344 0
M  V30 12718 C 1178.99 0.357042 -3.35003 0
M  V30 12719 O 1179.52 1.37054 -3.77596 0
M  V30 12720 N 1177.72 0.37723 -2.88141 0
M  V30 12721 H 1177.27 -0.448051 -2.53674 0
M  V30 12722 H 1177.23 1.24509 -2.88695 0
M  V30 12723 N 1181 1.07532 -1.15215 0
M  V30 12724 C 1181.93 2.14598 -0.805006 0
M  V30 12725 C 1182.95 1.61778 0.182152 0
M  V30 12726 O 1184.14 1.78453 -0.040834 0
M  V30 12727 C 1181.24 3.38444 -0.175736 0
M  V30 12728 C 1180.41 4.20621 -1.19986 0
M  V30 12729 C 1179.47 5.22851 -0.592705 0
M  V30 12730 O 1178.49 5.55121 -1.25815 0
M  V30 12731 N 1179.7 5.7711 0.626425 0
M  V30 12732 H 1182.46 2.44981 -1.7264 0
M  V30 12733 H 1180.02 1.23423 -1.04778 0
M  V30 12734 H 1182.01 4.03969 0.243166 0
M  V30 12735 H 1180.58 3.0579 0.64896 0
M  V30 12736 H 1179.8 3.50941 -1.79539 0
M  V30 12737 H 1181.09 4.72339 -1.89139 0
M  V30 12738 H 1180.49 5.53139 1.18546 0
M  V30 12739 H 1179.05 6.44273 0.98771 0
M  V30 12740 N 1182.48 0.948665 1.2585 0
M  V30 12741 C 1183.41 0.408398 2.24516 0
M  V30 12742 C 1184.39 -0.506954 1.54495 0
M  V30 12743 O 1185.58 -0.442695 1.83228 0
M  V30 12744 C 1182.7 -0.41241 3.3618 0
M  V30 12745 C 1181.75 0.442483 4.24198 0
M  V30 12746 S 1182.58 1.87106 5.01749 0
M  V30 12747 C 1183.74 1.05851 6.16884 0
M  V30 12748 H 1183.97 1.24458 2.69995 0
M  V30 12749 H 1181.5 0.752309 1.34832 0
M  V30 12750 H 1183.46 -0.880064 4.00955 0
M  V30 12751 H 1182.12 -1.22335 2.89297 0
M  V30 12752 H 1181.32 -0.186767 5.03654 0
M  V30 12753 H 1180.92 0.845113 3.64327 0
M  V30 12754 H 1183.21 0.304329 6.76816 0
M  V30 12755 H 1184.15 1.82678 6.8413 0
M  V30 12756 H 1184.56 0.591269 5.61395 0
M  V30 12757 N 1183.96 -1.40369 0.716545 0
M  V30 12758 C 1184.92 -2.29083 0.0733105 0
M  V30 12759 C 1185.92 -1.45415 -0.686378 0
M  V30 12760 O 1187.11 -1.66316 -0.518139 0
M  V30 12761 C 1184.24 -3.28639 -0.906032 0
M  V30 12762 H 1185.44 -2.87464 0.85467 0
M  V30 12763 H 1182.99 -1.48706 0.481256 0
M  V30 12764 H 1183.72 -2.75279 -1.71441 0
M  V30 12765 H 1183.51 -3.90405 -0.364163 0
M  V30 12766 H 1185 -3.95066 -1.35324 0
M  V30 12767 N 1185.44 -0.462799 -1.50652 0
M  V30 12768 C 1186.38 0.335664 -2.28346 0
M  V30 12769 C 1187.35 0.994541 -1.33034 0
M  V30 12770 O 1188.54 1.00857 -1.61964 0
M  V30 12771 C 1185.68 1.41648 -3.1469 0
M  V30 12772 C 1184.79 0.773207 -4.25024 0
M  V30 12773 C 1183.93 1.83121 -4.98638 0
M  V30 12774 C 1182.97 1.16774 -6.00858 0
M  V30 12775 N 1182.1 2.16823 -6.67782 0
M  V30 12776 H 1186.94 -0.333202 -2.96131 0
M  V30 12777 H 1184.48 -0.176166 -1.46041 0
M  V30 12778 H 1186.44 2.05468 -3.63096 0
M  V30 12779 H 1185.07 2.05462 -2.48968 0
M  V30 12780 H 1184.12 0.0226444 -3.80393 0
M  V30 12781 H 1185.43 0.249061 -4.98178 0
M  V30 12782 H 1184.59 2.54543 -5.5072 0
M  V30 12783 H 1183.32 2.38915 -4.25172 0
M  V30 12784 H 1182.33 0.439112 -5.48044 0
M  V30 12785 H 1183.55 0.616809 -6.76293 0
M  V30 12786 H 1181.5 2.71649 -5.97112 0
M  V30 12787 H 1181.42 1.69371 -7.36783 0
M  V30 12788 H 1182.69 2.8765 -7.24484 0
M  V30 12789 N 1186.91 1.56388 -0.195085 0
M  V30 12790 C 1188.16 1.97189 0.44281 0
M  V30 12791 C 1188.48 1.08312 1.62153 0
M  V30 12792 O 1187.75 0.154404 1.95291 0
M  V30 12793 H 1186.33 0.728188 0.166585 0
M  V30 12794 H 1189 1.92852 -0.281815 0
M  V30 12795 H 1188.09 3.02016 0.786945 0
M  V30 12796 N 1188.39 -0.0785156 1.57404 0
M  V30 12797 C 1189.62 -0.792042 1.9114 0
M  V30 12798 C 1190.04 -1.71458 0.790408 0
M  V30 12799 O 1189.39 -1.80959 -0.236662 0
M  V30 12800 C 1189.44 -1.59138 3.24588 0
M  V30 12801 O 1189.16 -0.705931 4.32375 0
M  V30 12802 C 1190.67 -2.4065 3.72293 0
M  V30 12803 H 1187.89 -0.225566 0.63195 0
M  V30 12804 H 1190.43 -0.0507929 2.04437 0
M  V30 12805 H 1188.58 -2.28498 3.12838 0
M  V30 12806 H 1189 -1.26121 5.09111 0
M  V30 12807 H 1190.47 -2.92204 4.68317 0
M  V30 12808 H 1190.95 -3.1987 3.00965 0
M  V30 12809 H 1191.56 -1.7646 3.86965 0
M  V30 12810 N 1189.87 -1.5367 -0.349747 0
M  V30 12811 C 1191.1 -1.74547 -1.11089 0
M  V30 12812 C 1191.51 -0.481741 -1.82551 0
M  V30 12813 O 1190.87 0.546272 -1.74132 0
M  V30 12814 C 1190.92 -2.92148 -2.12913 0
M  V30 12815 O 1190.64 -4.13633 -1.44358 0
M  V30 12816 C 1192.14 -3.25027 -3.01451 0
M  V30 12817 H 1189.36 -0.583376 -0.331532 0
M  V30 12818 H 1191.91 -2.00473 -0.403841 0
M  V30 12819 H 1190.06 -2.68572 -2.79192 0
M  V30 12820 H 1190.48 -4.79601 -2.12329 0
M  V30 12821 H 1191.95 -4.10679 -3.68845 0
M  V30 12822 H 1192.43 -2.41064 -3.67131 0
M  V30 12823 H 1193.03 -3.50586 -2.40768 0
M  V30 12824 N 1191.35 0.610423 -1.45298 0
M  V30 12825 C 1192.26 1.74964 -1.56285 0
M  V30 12826 C 1193.27 1.68149 -0.447436 0
M  V30 12827 O 1194.45 1.88556 -0.707725 0
M  V30 12828 C 1191.52 3.11417 -1.52383 0
M  V30 12829 C 1190.58 3.29707 -2.7494 0
M  V30 12830 C 1189.81 4.5965 -2.71215 0
M  V30 12831 O 1190.03 5.41789 -1.78383 0
M  V30 12832 O 1188.97 4.80591 -3.62375 0
M  V30 12833 H 1192.79 1.68646 -2.52571 0
M  V30 12834 H 1190.38 0.774168 -1.27777 0
M  V30 12835 H 1192.26 3.9272 -1.52805 0
M  V30 12836 H 1190.93 3.18232 -0.592472 0
M  V30 12837 H 1189.84 2.48003 -2.80081 0
M  V30 12838 H 1191.17 3.27766 -3.67192 0
M  V30 12839 N 1192.83 1.32541 0.852676 0
M  V30 12840 C 1193.74 1.23646 1.99371 0
M  V30 12841 C 1194.75 0.149673 1.73355 0
M  V30 12842 O 1195.93 0.370716 1.97959 0
M  V30 12843 C 1192.99 0.961873 3.3309 0
M  V30 12844 C 1192.05 2.1373 3.72315 0
M  V30 12845 C 1191.29 1.87572 4.99652 0
M  V30 12846 O 1191.51 0.819247 5.64486 0
M  V30 12847 O 1190.44 2.73732 5.36054 0
M  V30 12848 H 1194.27 2.19573 2.09813 0
M  V30 12849 H 1191.86 1.12451 0.983627 0
M  V30 12850 H 1193.74 0.825316 4.13239 0
M  V30 12851 H 1192.41 0.0327745 3.23683 0
M  V30 12852 H 1191.32 2.32933 2.92733 0
M  V30 12853 H 1192.65 3.04925 3.86369 0
M  V30 12854 N 1194.3 -1.0692 1.15784 0
M  V30 12855 C 1195.24 -2.13637 0.802141 0
M  V30 12856 C 1196.22 -1.61058 -0.223384 0
M  V30 12857 O 1197.4 -1.88185 -0.108927 0
M  V30 12858 C 1194.53 -3.38146 0.193568 0
M  V30 12859 C 1193.57 -4.09513 1.19169 0
M  V30 12860 S 1194.41 -4.60351 2.73564 0
M  V30 12861 C 1195.56 -5.88129 2.14138 0
M  V30 12862 H 1195.79 -2.4348 1.70601 0
M  V30 12863 H 1193.33 -1.19259 0.980646 0
M  V30 12864 H 1195.29 -4.10222 -0.151106 0
M  V30 12865 H 1193.95 -3.06473 -0.687968 0
M  V30 12866 H 1193.14 -4.98914 0.714183 0
M  V30 12867 H 1192.74 -3.43422 1.48113 0
M  V30 12868 H 1195.03 -6.60547 1.50614 0
M  V30 12869 H 1195.98 -6.406 3.01724 0
M  V30 12870 H 1196.38 -5.41859 1.5827 0
M  V30 12871 N 1195.78 -0.955326 -1.25345 0
M  V30 12872 C 1196.73 -0.474888 -2.25862 0
M  V30 12873 C 1197.7 0.472996 -1.59223 0
M  V30 12874 O 1198.88 0.386094 -1.86853 0
M  V30 12875 C 1196.02 0.240554 -3.44261 0
M  V30 12876 C 1195.14 -0.74465 -4.25534 0
M  V30 12877 C 1194.27 -0.00657513 -5.312 0
M  V30 12878 C 1193.31 -0.982666 -6.04161 0
M  V30 12879 N 1192.45 -0.275418 -7.0156 0
M  V30 12880 H 1197.29 -1.33693 -2.66327 0
M  V30 12881 H 1194.83 -0.670439 -1.30933 0
M  V30 12882 H 1196.78 0.671933 -4.11753 0
M  V30 12883 H 1195.41 1.06664 -3.04668 0
M  V30 12884 H 1194.47 -1.29451 -3.57696 0
M  V30 12885 H 1195.78 -1.48948 -4.76042 0
M  V30 12886 H 1194.93 0.483404 -6.04771 0
M  V30 12887 H 1193.67 0.771035 -4.81567 0
M  V30 12888 H 1192.68 -1.48364 -5.29404 0
M  V30 12889 H 1193.9 -1.76052 -6.55883 0
M  V30 12890 H 1191.85 0.483441 -6.54216 0
M  V30 12891 H 1191.76 -0.959324 -7.49889 0
M  V30 12892 H 1193.03 0.193002 -7.79261 0
M  V30 12893 N 1197.26 1.39987 -0.723979 0
M  V30 12894 C 1198.49 2.0474 -0.276618 0
M  V30 12895 C 1198.9 1.54675 1.0896 0
M  V30 12896 O 1198.24 0.701956 1.69759 0
M  V30 12897 C 1198.3 3.59009 -0.187912 0
M  V30 12898 C 1197.97 4.32 -1.49079 0
M  V30 12899 C 1198.97 4.59385 -2.43436 0
M  V30 12900 C 1196.65 4.70753 -1.75204 0
M  V30 12901 C 1198.64 5.24519 -3.62159 0
M  V30 12902 C 1196.33 5.35617 -2.94206 0
M  V30 12903 C 1197.33 5.62431 -3.87506 0
M  V30 12904 O 1197.02 6.25952 -5.0442 0
M  V30 12905 H 1196.75 0.665164 -0.120554 0
M  V30 12906 H 1199.3 1.80226 -0.98527 0
M  V30 12907 H 1197.53 3.82375 0.576753 0
M  V30 12908 H 1199.22 4.0527 0.225993 0
M  V30 12909 H 1199.99 4.29902 -2.24519 0
M  V30 12910 H 1195.87 4.49247 -1.03433 0
M  V30 12911 H 1199.41 5.45364 -4.34999 0
M  V30 12912 H 1195.31 5.64521 -3.13029 0
M  V30 12913 H 1196.08 6.44448 -5.04608 0
M  V30 12914 N 1198.74 0.470782 1.50404 0
M  V30 12915 C 1199.99 -0.0844409 2.02624 0
M  V30 12916 C 1200.32 -1.39398 1.3521 0
M  V30 12917 O 1199.59 -1.88542 0.477707 0
M  V30 12918 C 1199.88 -0.268563 3.59097 0
M  V30 12919 C 1199.73 1.06198 4.37084 0
M  V30 12920 C 1201.05 -1.02324 4.28039 0
M  V30 12921 H 1198.17 -0.0292141 0.736421 0
M  V30 12922 H 1200.81 0.616312 1.79726 0
M  V30 12923 H 1198.96 -0.865441 3.78738 0
M  V30 12924 H 1200.63 1.69541 4.29015 0
M  V30 12925 H 1198.87 1.65868 4.00837 0
M  V30 12926 H 1199.55 0.886795 5.4483 0
M  V30 12927 H 1202.02 -0.517325 4.12872 0
M  V30 12928 H 1200.9 -1.12087 5.37334 0
M  V30 12929 H 1201.16 -2.05974 3.91187 0
M  V30 12930 N 1200.22 -1.56282 0.203376 0
M  V30 12931 C 1201.15 -2.2247 -0.709183 0
M  V30 12932 C 1202.13 -1.19046 -1.21499 0
M  V30 12933 O 1203.31 -1.47578 -1.26231 0
M  V30 12934 C 1200.44 -2.8905 -1.92529 0
M  V30 12935 C 1199.4 -3.98789 -1.55407 0
M  V30 12936 C 1198.72 -4.52574 -2.84747 0
M  V30 12937 C 1200.02 -5.16774 -0.75775 0
M  V30 12938 H 1201.72 -2.98986 -0.157392 0
M  V30 12939 H 1199.26 -1.43808 -0.0742613 0
M  V30 12940 H 1201.22 -3.34038 -2.56898 0
M  V30 12941 H 1199.94 -2.09952 -2.50175 0
M  V30 12942 H 1198.6 -3.54504 -0.933928 0
M  V30 12943 H 1198.25 -3.70229 -3.40499 0
M  V30 12944 H 1197.95 -5.26627 -2.6065 0
M  V30 12945 H 1199.47 -5.00269 -3.5009 0
M  V30 12946 H 1200.89 -5.58256 -1.30472 0
M  V30 12947 H 1199.28 -5.96945 -0.614583 0
M  V30 12948 H 1200.35 -4.84308 0.239476 0
M  V30 12949 N 1201.7 0.070167 -1.57444 0
M  V30 12950 C 1202.94 0.767495 -1.8696 0
M  V30 12951 C 1203.26 1.78032 -0.795595 0
M  V30 12952 O 1202.53 1.95112 0.175566 0
M  V30 12953 H 1201.11 0.286443 -0.689898 0
M  V30 12954 H 1203.78 0.0458692 -1.94846 0
M  V30 12955 H 1202.87 1.28269 -2.84523 0
M  V30 12956 N 1203.17 1.53854 0.341593 0
M  V30 12957 C 1204.11 1.78295 1.44027 0
M  V30 12958 C 1205.12 0.664303 1.4863 0
M  V30 12959 O 1206.31 0.941073 1.51678 0
M  V30 12960 C 1203.41 1.86947 2.82673 0
M  V30 12961 C 1202.58 3.16898 3.01487 0
M  V30 12962 C 1201.64 3.16483 4.20386 0
M  V30 12963 O 1200.67 3.90197 4.14409 0
M  V30 12964 N 1201.87 2.3899 5.29022 0
M  V30 12965 H 1204.63 2.73102 1.23431 0
M  V30 12966 H 1202.19 1.52928 0.531483 0
M  V30 12967 H 1204.19 1.84118 3.60392 0
M  V30 12968 H 1202.76 0.993169 2.96403 0
M  V30 12969 H 1201.98 3.32835 2.11221 0
M  V30 12970 H 1203.26 4.02733 3.1094 0
M  V30 12971 H 1202.66 1.78657 5.36748 0
M  V30 12972 H 1201.22 2.41957 6.05227 0
M  V30 12973 N 1204.65 -0.602709 1.4562 0
M  V30 12974 C 1205.58 -1.72374 1.5751 0
M  V30 12975 C 1206.56 -1.64669 0.426389 0
M  V30 12976 O 1207.75 -1.82994 0.650143 0
M  V30 12977 C 1204.88 -3.10987 1.5461 0
M  V30 12978 C 1203.83 -3.33507 2.68248 0
M  V30 12979 C 1203.16 -4.72443 2.50403 0
M  V30 12980 C 1204.46 -3.23285 4.10224 0
M  V30 12981 H 1206.15 -1.62679 2.51348 0
M  V30 12982 H 1203.7 -0.781217 1.20967 0
M  V30 12983 H 1205.65 -3.89214 1.61525 0
M  V30 12984 H 1204.37 -3.21533 0.573049 0
M  V30 12985 H 1203.03 -2.57672 2.60769 0
M  V30 12986 H 1202.68 -4.79729 1.51226 0
M  V30 12987 H 1202.38 -4.88466 3.26611 0
M  V30 12988 H 1203.91 -5.52864 2.59179 0
M  V30 12989 H 1205.32 -3.91381 4.1892 0
M  V30 12990 H 1203.72 -3.50837 4.86861 0
M  V30 12991 H 1204.79 -2.20652 4.31788 0
M  V30 12992 N 1206.13 -1.32992 -0.845635 0
M  V30 12993 C 1207.38 -1.24249 -1.60281 0
M  V30 12994 C 1207.71 0.193049 -1.93238 0
M  V30 12995 O 1206.98 1.1326 -1.58122 0
M  V30 12996 C 1207.27 -2.1111 -2.91727 0
M  V30 12997 C 1207.12 -3.63088 -2.65494 0
M  V30 12998 C 1208.44 -1.97913 -3.93089 0
M  V30 12999 H 1205.56 -0.452698 -0.581578 0
M  V30 13000 H 1208.2 -1.63026 -0.975828 0
M  V30 13001 H 1206.35 -1.78169 -3.45236 0
M  V30 13002 H 1208.02 -4.06287 -2.18469 0
M  V30 13003 H 1206.26 -3.85304 -1.99306 0
M  V30 13004 H 1206.94 -4.19202 -3.59129 0
M  V30 13005 H 1209.41 -2.26788 -3.48864 0
M  V30 13006 H 1208.29 -2.60952 -4.82903 0
M  V30 13007 H 1208.55 -0.949378 -4.31786 0
M  V30 13008 N 1207.61 1.06304 -1.1635 0
M  V30 13009 C 1208.86 1.78747 -0.943074 0
M  V30 13010 C 1209.18 1.87646 0.530483 0
M  V30 13011 O 1208.45 1.38506 1.38538 0
M  V30 13012 H 1207.03 0.662072 -0.345932 0
M  V30 13013 H 1209.69 1.28413 -1.46615 0
M  V30 13014 H 1208.78 2.80828 -1.3617 0
M  V30 13015 N 1209.09 0.96196 1.24836 0
M  V30 13016 C 1210.02 0.506241 2.27946 0
M  V30 13017 C 1211 -0.451183 1.64007 0
M  V30 13018 O 1212.18 -0.348552 1.91046 0
M  V30 13019 C 1209.31 -0.209846 3.46665 0
M  V30 13020 C 1208.27 0.663035 4.22833 0
M  V30 13021 C 1207.59 -0.184216 5.34383 0
M  V30 13022 C 1208.89 1.94479 4.84742 0
M  V30 13023 H 1210.59 1.36805 2.66317 0
M  V30 13024 H 1208.13 0.65926 1.28023 0
M  V30 13025 H 1210.08 -0.539838 4.17928 0
M  V30 13026 H 1208.81 -1.10596 3.07305 0
M  V30 13027 H 1207.47 0.976216 3.53363 0
M  V30 13028 H 1207.12 -1.08031 4.91262 0
M  V30 13029 H 1206.82 0.39657 5.8626 0
M  V30 13030 H 1208.34 -0.509009 6.08475 0
M  V30 13031 H 1209.75 1.68074 5.48109 0
M  V30 13032 H 1208.15 2.47183 5.46828 0
M  V30 13033 H 1209.22 2.64332 4.06517 0
M  V30 13034 N 1210.56 -1.39601 0.731392 0
M  V30 13035 C 1211.51 -2.32469 0.0781328 0
M  V30 13036 C 1212.51 -1.52873 -0.729811 0
M  V30 13037 O 1213.71 -1.68563 -0.631402 0
M  V30 13038 H 1210.09 -0.751972 0.00646515 0
M  V30 13039 H 1212.06 -2.85196 0.877833 0
M  V30 13040 C 1210.81 -3.37948 -0.817717 0
M  V30 13041 H 1210.13 -3.99272 -0.205417 0
M  V30 13042 H 1211.57 -4.05387 -1.24248 0
M  V30 13043 C 1210.03 -2.74703 -1.95038 0
M  V30 13044 O 1210.56 -2.62266 -3.04269 0
M  V30 13045 N 1208.76 -2.32845 -1.73872 0
M  V30 13046 H 1208.31 -2.43161 -0.850321 0
M  V30 13047 H 1208.27 -1.90869 -2.49833 0
M  V30 13048 N 1212.04 -0.478751 -1.50152 0
M  V30 13049 C 1213.27 0.0732929 -2.0727 0
M  V30 13050 C 1213.69 1.32066 -1.33941 0
M  V30 13051 O 1213.05 1.7707 -0.389367 0
M  V30 13052 C 1213.1 0.332528 -3.59064 0
M  V30 13053 O 1212.2 1.41158 -3.8749 0
M  V30 13054 H 1211.54 -0.0163684 -0.663798 0
M  V30 13055 H 1214.07 -0.671993 -1.9325 0
M  V30 13056 H 1214.08 0.570735 -4.03988 0
M  V30 13057 H 1212.76 -0.578934 -4.11851 0
M  V30 13058 H 1211.34 1.16008 -3.54396 0
M  V30 13059 N 1213.52 1.56172 -0.211661 0
M  V30 13060 C 1214.93 1.84307 0.297982 0
M  V30 13061 C 1215.28 1.1328 1.60194 0
M  V30 13062 O 1214.41 0.399137 2.12687 0
M  V30 13063 C 1215 3.34348 0.547428 0
M  V30 13064 C 1213.56 3.62835 1.0014 0
M  V30 13065 C 1212.71 2.77237 0.0590326 0
M  V30 13066 H 1215.66 1.5262 -0.435083 0
M  V30 13067 H 1215.68 3.54018 1.39469 0
M  V30 13068 H 1215.19 3.86015 -0.401778 0
M  V30 13069 H 1213.29 3.16616 1.96431 0
M  V30 13070 H 1213.41 4.70899 0.882653 0
M  V30 13071 H 1211.77 2.48377 0.564005 0
M  V30 13072 H 1212.55 3.31699 -0.884913 0
M  V30 13073 N 1215 -0.0618163 1.57479 0
M  V30 13074 C 1215.95 -1.09105 2.05424 0
M  V30 13075 C 1216.94 -1.3947 0.961479 0
M  V30 13076 O 1218.15 -1.3876 1.14655 0
M  V30 13077 H 1214.52 -0.36923 0.655113 0
M  V30 13078 H 1216.49 -0.66061 2.90996 0
M  V30 13079 C 1215.24 -2.39345 2.52209 0
M  V30 13080 H 1214.56 -2.16832 3.35893 0
M  V30 13081 H 1216 -3.09784 2.89499 0
M  V30 13082 C 1214.46 -3.06011 1.40922 0
M  V30 13083 O 1214.99 -3.94504 0.756921 0
M  V30 13084 N 1213.2 -2.66797 1.15186 0
M  V30 13085 H 1212.75 -1.94923 1.68412 0
M  V30 13086 H 1212.7 -3.11724 0.409324 0
M  V30 13087 N 1216.48 -1.54033 -0.333429 0
M  V30 13088 C 1217.7 -1.76031 -1.09672 0
M  V30 13089 C 1218.13 -0.502844 -1.81254 0
M  V30 13090 O 1217.48 0.54509 -1.72912 0
M  V30 13091 C 1217.53 -2.947 -2.07809 0
M  V30 13092 O 1216.64 -2.65555 -3.15522 0
M  V30 13093 H 1215.98 -0.583611 -0.316692 0
M  V30 13094 H 1218.51 -2.01026 -0.380732 0
M  V30 13095 H 1218.52 -3.21771 -2.50853 0
M  V30 13096 H 1217.19 -3.85895 -1.55106 0
M  V30 13097 H 1215.77 -2.49403 -2.77223 0
M  V30 13098 N 1217.95 0.594978 -1.45938 0
M  V30 13099 C 1219.2 1.34976 -1.49881 0
M  V30 13100 C 1219.52 1.95025 -0.14983 0
M  V30 13101 O 1220.72 2.71417 -0.0669868 0
M  V30 13102 C 1219.18 2.44563 -2.6404 0
M  V30 13103 C 1218.79 1.9087 -4.05306 0
M  V30 13104 C 1220.53 3.21461 -2.77242 0
M  V30 13105 C 1218.44 2.98013 -5.10825 0
M  V30 13106 H 1217.37 0.507366 -0.55776 0
M  V30 13107 H 1220.02 0.636316 -1.72114 0
M  V30 13108 H 1218.4 3.1865 -2.35114 0
M  V30 13109 H 1219.57 1.23408 -4.43968 0
M  V30 13110 H 1217.89 1.26678 -3.96663 0
M  V30 13111 H 1220.49 4.01399 -3.53246 0
M  V30 13112 H 1220.83 3.73271 -1.84321 0
M  V30 13113 H 1221.36 2.54477 -3.05756 0
M  V30 13114 H 1218.1 2.51104 -6.05497 0
M  V30 13115 H 1217.62 3.64003 -4.7672 0
M  V30 13116 H 1219.3 3.62178 -5.36131 0
M  V30 13117 N 1219.43 1.33438 0.838571 0
M  V30 13118 C 1220.36 1.26344 1.96365 0
M  V30 13119 C 1221.34 0.143956 1.6949 0
M  V30 13120 O 1222.53 0.333779 1.9131 0
M  V30 13121 C 1219.66 1.0022 3.32526 0
M  V30 13122 C 1218.61 2.08466 3.73799 0
M  V30 13123 C 1217.94 1.67555 5.07769 0
M  V30 13124 C 1219.24 3.50144 3.87552 0
M  V30 13125 H 1220.93 2.20478 2.02558 0
M  V30 13126 H 1218.48 1.06139 0.973168 0
M  V30 13127 H 1220.43 0.939068 4.10803 0
M  V30 13128 H 1219.16 0.0252514 3.2659 0
M  V30 13129 H 1217.81 2.13822 2.97785 0
M  V30 13130 H 1217.46 0.685619 4.98305 0
M  V30 13131 H 1217.16 2.39993 5.36356 0
M  V30 13132 H 1218.69 1.62708 5.88522 0
M  V30 13133 H 1220.1 3.47287 4.56141 0
M  V30 13134 H 1218.5 4.21069 4.27575 0
M  V30 13135 H 1219.57 3.88628 2.89994 0
M  V30 13136 N 1220.91 -1.05686 1.16912 0
M  V30 13137 C 1221.86 -2.13312 0.88129 0
M  V30 13138 C 1222.83 -1.65199 -0.172783 0
M  V30 13139 O 1224.01 -1.90765 -0.0366542 0
M  V30 13140 C 1221.15 -3.42829 0.395264 0
M  V30 13141 C 1220.27 -4.04643 1.51288 0
M  V30 13142 C 1219.4 -5.22059 0.981238 0
M  V30 13143 C 1218.44 -5.75869 2.07464 0
M  V30 13144 N 1217.58 -6.84592 1.55813 0
M  V30 13145 H 1222.42 -2.37271 1.80295 0
M  V30 13146 H 1219.95 -1.16407 0.899322 0
M  V30 13147 H 1221.91 -4.17092 0.0950633 0
M  V30 13148 H 1220.54 -3.19068 -0.489445 0
M  V30 13149 H 1219.59 -3.27867 1.92891 0
M  V30 13150 H 1220.91 -4.40626 2.33774 0
M  V30 13151 H 1220.06 -6.03372 0.634586 0
M  V30 13152 H 1218.8 -4.87538 0.125754 0
M  V30 13153 H 1217.8 -4.93188 2.42992 0
M  V30 13154 H 1219.03 -6.12439 2.93419 0
M  V30 13155 H 1216.97 -6.51978 0.725283 0
M  V30 13156 H 1216.89 -7.19551 2.31911 0
M  V30 13157 H 1218.16 -7.6957 1.24025 0
M  V30 13158 N 1222.39 -0.968567 -1.24324 0
M  V30 13159 C 1223.35 -0.504307 -2.23583 0
M  V30 13160 C 1224.35 0.399626 -1.55755 0
M  V30 13161 O 1225.54 0.194966 -1.73106 0
M  V30 13162 C 1222.67 0.26956 -3.39833 0
M  V30 13163 H 1223.87 -1.3818 -2.6617 0
M  V30 13164 H 1221.42 -0.753241 -1.36952 0
M  V30 13165 H 1222.15 1.16411 -3.02686 0
M  V30 13166 H 1221.94 -0.379133 -3.90263 0
M  V30 13167 H 1223.43 0.583376 -4.13505 0
M  V30 13168 N 1223.87 1.39211 -0.738786 0
M  V30 13169 C 1224.83 2.28937 -0.109746 0
M  V30 13170 C 1225.83 1.46488 0.663157 0
M  V30 13171 O 1227.02 1.67119 0.491614 0
M  V30 13172 C 1224.15 3.30039 0.853633 0
M  V30 13173 H 1225.34 2.86068 -0.900295 0
M  V30 13174 H 1222.9 1.47922 -0.504853 0
M  V30 13175 H 1223.63 2.77971 1.6704 0
M  V30 13176 H 1223.42 3.90935 0.302007 0
M  V30 13177 H 1224.91 3.97169 1.29022 0
M  V30 13178 N 1225.34 0.486708 1.49896 0
M  V30 13179 C 1226.29 -0.299294 2.28851 0
M  V30 13180 C 1227.26 -0.973251 1.346 0
M  V30 13181 O 1228.45 -0.982678 1.63548 0
M  V30 13182 C 1225.59 -1.36624 3.16904 0
M  V30 13183 C 1224.7 -0.705492 4.262 0
M  V30 13184 C 1223.83 -1.75165 5.01488 0
M  V30 13185 C 1222.87 -1.072 6.0264 0
M  V30 13186 N 1222.01 -2.06172 6.71147 0
M  V30 13187 H 1226.85 0.380272 2.95564 0
M  V30 13188 H 1224.39 0.199377 1.45743 0
M  V30 13189 H 1226.35 -1.99666 3.66319 0
M  V30 13190 H 1224.98 -2.01476 2.52205 0
M  V30 13191 H 1224.03 0.0378757 3.80381 0
M  V30 13192 H 1225.34 -0.169774 4.98511 0
M  V30 13193 H 1224.49 -2.45749 5.547 0
M  V30 13194 H 1223.23 -2.3212 4.28919 0
M  V30 13195 H 1222.24 -0.351868 5.48673 0
M  V30 13196 H 1223.46 -0.509139 6.77189 0
M  V30 13197 H 1221.41 -2.62115 6.01358 0
M  V30 13198 H 1221.33 -1.57627 7.39385 0
M  V30 13199 H 1222.59 -2.76088 7.28969 0
M  V30 13200 N 1226.82 -1.56058 0.219941 0
M  V30 13201 C 1228.05 -2.02652 -0.417101 0
M  V30 13202 C 1228.47 -1.09977 -1.53461 0
M  V30 13203 O 1227.82 -0.109088 -1.82174 0
M  V30 13204 C 1227.87 -3.48787 -0.950244 0
M  V30 13205 O 1227.6 -4.37928 0.12271 0
M  V30 13206 C 1229.1 -4.11018 -1.66069 0
M  V30 13207 H 1226.32 -0.663163 -0.102254 0
M  V30 13208 H 1228.86 -2.01722 0.335923 0
M  V30 13209 H 1227.02 -3.50338 -1.65355 0
M  V30 13210 H 1227.43 -5.23764 -0.277785 0
M  V30 13211 H 1228.9 -5.15046 -1.98575 0
M  V30 13212 H 1229.38 -3.55921 -2.57326 0
M  V30 13213 H 1229.99 -4.13313 -1.00263 0
M  V30 13214 N 1228.3 0.053464 -1.57509 0
M  V30 13215 C 1229.23 1.06151 -2.07977 0
M  V30 13216 C 1230.21 1.3924 -0.977047 0
M  V30 13217 O 1231.4 1.48549 -1.25087 0
M  V30 13218 C 1228.53 2.36969 -2.53895 0
M  V30 13219 C 1227.48 2.18186 -3.6821 0
M  V30 13220 C 1226.81 3.54551 -4.00247 0
M  V30 13221 C 1228.11 1.588 -4.97574 0
M  V30 13222 H 1229.8 0.641483 -2.92447 0
M  V30 13223 H 1227.35 0.307122 -1.40687 0
M  V30 13224 H 1229.3 3.07797 -2.87817 0
M  V30 13225 H 1228.02 2.80986 -1.66476 0
M  V30 13226 H 1226.68 1.49796 -3.34599 0
M  V30 13227 H 1226.33 3.96171 -3.09932 0
M  V30 13228 H 1226.03 3.42816 -4.77232 0
M  V30 13229 H 1227.56 4.2678 -4.36682 0
M  V30 13230 H 1228.97 2.19515 -5.29609 0
M  V30 13231 H 1227.37 1.57711 -5.79006 0
M  V30 13232 H 1228.44 0.551254 -4.81756 0
M  V30 13233 N 1229.78 1.54207 0.325255 0
M  V30 13234 C 1231.01 1.76037 1.08141 0
M  V30 13235 C 1231.42 0.50816 1.82248 0
M  V30 13236 O 1230.76 -0.530709 1.75867 0
M  V30 13237 C 1230.82 2.89876 2.12632 0
M  V30 13238 C 1230.49 4.28841 1.57937 0
M  V30 13239 C 1231.48 5.09755 1.02205 0
M  V30 13240 C 1229.17 4.7538 1.62232 0
M  V30 13241 C 1231.16 6.35317 0.514929 0
M  V30 13242 C 1228.85 6.0091 1.11132 0
M  V30 13243 C 1229.85 6.80712 0.558575 0
M  V30 13244 O 1229.54 8.03881 0.05526 0
M  V30 13245 H 1229.27 0.591332 0.327571 0
M  V30 13246 H 1231.82 2.019 0.377572 0
M  V30 13247 H 1230.05 2.59581 2.86627 0
M  V30 13248 H 1231.74 2.99505 2.73955 0
M  V30 13249 H 1232.51 4.74955 0.981954 0
M  V30 13250 H 1228.39 4.1331 2.04195 0
M  V30 13251 H 1231.93 6.97551 0.0828314 0
M  V30 13252 H 1227.83 6.35201 1.14848 0
M  V30 13253 H 1228.59 8.18322 0.170842 0
M  V30 13254 N 1231.26 -0.58723 1.46251 0
M  V30 13255 C 1232.17 -1.72455 1.59048 0
M  V30 13256 C 1233.18 -1.67416 0.47413 0
M  V30 13257 O 1234.36 -1.87406 0.737633 0
M  V30 13258 C 1231.42 -3.08953 1.57318 0
M  V30 13259 C 1230.49 -3.25291 2.80151 0
M  V30 13260 C 1229.72 -4.55277 2.78493 0
M  V30 13261 O 1229.94 -5.38883 1.8698 0
M  V30 13262 O 1228.88 -4.74765 3.69975 0
M  V30 13263 H 1232.7 -1.64606 2.55223 0
M  V30 13264 H 1230.29 -0.753742 1.28993 0
M  V30 13265 H 1232.17 -3.90239 1.59033 0
M  V30 13266 H 1230.84 -3.17249 0.643025 0
M  V30 13267 H 1229.75 -2.43515 2.83991 0
M  V30 13268 H 1231.08 -3.21883 3.7236 0
M  V30 13269 N 1232.74 -1.33881 -0.831482 0
M  V30 13270 C 1233.69 -1.2131 -1.93049 0
M  V30 13271 C 1234.67 -0.114199 -1.60494 0
M  V30 13272 O 1235.86 -0.343027 -1.73644 0
M  V30 13273 C 1232.99 -0.962034 -3.29545 0
M  V30 13274 C 1232.08 -2.10372 -3.68245 0
M  V30 13275 N 1232.47 -3.35427 -3.78579 0
M  V30 13276 C 1230.77 -2.01206 -3.98036 0
M  V30 13277 C 1231.47 -4.10351 -4.12295 0
M  V30 13278 N 1230.44 -3.3886 -4.25059 0
M  V30 13279 H 1234.24 -2.1609 -1.99204 0
M  V30 13280 H 1231.76 -1.25995 -1.02464 0
M  V30 13281 H 1233.76 -0.852895 -4.08082 0
M  V30 13282 H 1232.42 -0.0228423 -3.24692 0
M  V30 13283 H 1233.43 -3.70085 -3.62295 0
M  V30 13284 H 1230.1 -1.14991 -4.01352 0
M  V30 13285 H 1231.49 -5.18302 -4.27566 0
M  V30 13286 N 1234.21 1.05064 -1.1747 0
M  V30 13287 C 1235.44 1.81497 -0.987031 0
M  V30 13288 C 1235.85 1.83323 0.467921 0
M  V30 13289 O 1235.19 1.26006 1.33672 0
M  V30 13290 C 1235.26 3.28826 -1.45306 0
M  V30 13291 C 1234.92 3.50681 -2.93039 0
M  V30 13292 C 1235.92 3.42699 -3.90965 0
M  V30 13293 C 1233.6 3.77602 -3.31243 0
M  V30 13294 C 1235.6 3.61325 -5.25093 0
M  V30 13295 C 1233.28 3.95876 -4.65538 0
M  V30 13296 C 1234.28 3.87737 -5.62271 0
M  V30 13297 O 1233.97 4.055 -6.94136 0
M  V30 13298 H 1233.7 0.578734 -0.349347 0
M  V30 13299 H 1236.26 1.33373 -1.56208 0
M  V30 13300 H 1234.49 3.77872 -0.821581 0
M  V30 13301 H 1236.17 3.86788 -1.23085 0
M  V30 13302 H 1236.94 3.21877 -3.62795 0
M  V30 13303 H 1232.82 3.8304 -2.56517 0
M  V30 13304 H 1236.36 3.54888 -6.00583 0
M  V30 13305 H 1232.26 4.16191 -4.93412 0
M  V30 13306 H 1233.03 4.22718 -7.00894 0
M  V30 13307 N 1235.69 0.975146 1.23809 0
M  V30 13308 C 1236.92 0.658605 1.96665 0
M  V30 13309 C 1237.34 -0.766744 1.71763 0
M  V30 13310 O 1236.7 -1.52151 0.985887 0
M  V30 13311 C 1236.75 0.948438 3.47904 0
M  V30 13312 O 1235.85 0.0377241 4.12383 0
M  V30 13313 H 1235.19 0.248231 0.615855 0
M  V30 13314 H 1237.72 1.30732 1.57386 0
M  V30 13315 H 1237.73 0.883 3.9833 0
M  V30 13316 H 1236.41 1.98717 3.65355 0
M  V30 13317 H 1234.98 0.157122 3.72569 0
M  V30 13318 N 1237.17 -1.38817 0.746158 0
M  V30 13319 C 1238.42 -1.99885 0.298425 0
M  V30 13320 C 1238.74 -1.59518 -1.12156 0
M  V30 13321 O 1238.01 -0.848568 -1.76568 0
M  V30 13322 H 1236.59 -0.739247 0.107347 0
M  V30 13323 H 1239.25 -1.69696 0.9586 0
M  V30 13324 H 1238.35 -3.10067 0.355656 0
M  V30 13325 N 1238.65 -0.49465 -1.49636 0
M  V30 13326 C 1239.9 0.0520143 -2.02033 0
M  V30 13327 C 1240.22 1.38071 -1.37701 0
M  V30 13328 O 1239.49 1.88589 -0.530181 0
M  V30 13329 H 1238.07 0.0222123 -0.74667 0
M  V30 13330 H 1240.73 -0.650445 -1.83726 0
M  V30 13331 H 1239.82 0.186337 -3.11543 0
M  V30 13332 N 1240.13 1.55939 -0.228214 0
M  V30 13333 C 1241.04 2.24213 0.690339 0
M  V30 13334 C 1242.05 1.25197 1.20838 0
M  V30 13335 O 1243.23 1.58026 1.24859 0
M  V30 13336 C 1240.29 2.91384 1.87873 0
M  V30 13337 C 1239.35 4.05761 1.40201 0
M  V30 13338 C 1238.59 4.6972 2.53376 0
M  V30 13339 O 1238.81 4.32687 3.71669 0
M  V30 13340 O 1237.74 5.58587 2.24198 0
M  V30 13341 H 1241.57 3.03383 0.138692 0
M  V30 13342 H 1239.15 1.494 0.00251504 0
M  V30 13343 H 1241.04 3.33758 2.57262 0
M  V30 13344 H 1239.71 2.15168 2.41835 0
M  V30 13345 H 1238.62 3.67943 0.675945 0
M  V30 13346 H 1239.95 4.83739 0.908691 0
M  V30 13347 N 1241.6 -0.0451101 1.57535 0
M  V30 13348 C 1242.83 -0.755068 1.93167 0
M  V30 13349 C 1243.25 -1.68949 0.826915 0
M  V30 13350 O 1242.61 -1.79978 -0.218534 0
M  V30 13351 C 1242.66 -1.50201 3.27829 0
M  V30 13352 O 1241.76 -2.61434 3.18945 0
M  V30 13353 H 1241.11 -0.204219 0.631815 0
M  V30 13354 H 1243.64 -0.00537504 2.04599 0
M  V30 13355 H 1243.65 -1.87547 3.6234 0
M  V30 13356 H 1242.32 -0.816591 4.07805 0
M  V30 13357 H 1240.9 -2.26749 2.96039 0
M  V30 13358 N 1243.08 -1.54377 -0.317073 0
M  V30 13359 C 1244.03 -1.80597 -1.39172 0
M  V30 13360 C 1245.02 -0.662289 -1.46637 0
M  V30 13361 O 1246.21 -0.922477 -1.51061 0
M  V30 13362 C 1243.34 -2.04252 -2.75927 0
M  V30 13363 C 1242.42 -3.2476 -2.72749 0
M  V30 13364 N 1242.81 -4.45671 -2.39189 0
M  V30 13365 C 1241.11 -3.26464 -3.03871 0
M  V30 13366 C 1241.81 -5.27631 -2.44908 0
M  V30 13367 N 1240.79 -4.64968 -2.81613 0
M  V30 13368 H 1244.59 -2.71655 -1.12164 0
M  V30 13369 H 1242.11 -1.5366 -0.525586 0
M  V30 13370 H 1244.1 -2.21178 -3.53392 0
M  V30 13371 H 1242.76 -1.14452 -3.0386 0
M  V30 13372 H 1243.77 -4.72556 -2.11922 0
M  V30 13373 H 1240.45 -2.46718 -3.36803 0
M  V30 13374 H 1241.84 -6.34202 -2.21896 0
M  V30 13375 N 1244.56 0.579466 -1.4656 0
M  V30 13376 C 1245.51 1.70937 -1.57744 0
M  V30 13377 C 1246.5 1.6343 -0.44577 0
M  V30 13378 O 1247.71 1.68884 -0.622762 0
M  V30 13379 H 1244.08 0.565218 -0.496017 0
M  V30 13380 H 1246.05 1.58636 -2.52739 0
M  V30 13381 C 1244.8 3.09321 -1.58794 0
M  V30 13382 H 1244.13 3.1577 -2.45213 0
M  V30 13383 H 1245.57 3.88132 -1.70674 0
M  V30 13384 C 1244.03 3.35404 -0.317165 0
M  V30 13385 O 1244.56 3.97325 0.591228 0
M  V30 13386 N 1242.76 2.89883 -0.204071 0
M  V30 13387 H 1242.31 2.39672 -0.944194 0
M  V30 13388 H 1242.27 3.07706 0.645303 0
M  V30 13389 N 1246.04 1.3432 0.824371 0
M  V30 13390 C 1247.26 1.2982 1.61745 0
M  V30 13391 C 1247.69 -0.125298 1.87682 0
M  V30 13392 O 1247.05 -1.08658 1.45131 0
M  V30 13393 C 1247.09 2.09327 2.93623 0
M  V30 13394 O 1246.2 1.4618 3.85623 0
M  V30 13395 H 1245.54 0.445929 0.491979 0
M  V30 13396 H 1248.07 1.77101 1.02452 0
M  V30 13397 H 1248.08 2.20629 3.43201 0
M  V30 13398 H 1246.75 3.12825 2.74069 0
M  V30 13399 H 1245.33 1.43611 3.44137 0
M  V30 13400 N 1247.52 -1.0444 1.18026 0
M  V30 13401 C 1248.74 -1.81772 0.998684 0
M  V30 13402 C 1249.17 -1.82682 -0.448225 0
M  V30 13403 O 1248.52 -1.24136 -1.32136 0
M  V30 13404 C 1248.57 -3.2542 1.55352 0
M  V30 13405 O 1247.68 -4.05103 0.772351 0
M  V30 13406 H 1247.02 -0.561731 0.354054 0
M  V30 13407 H 1249.55 -1.31557 1.56697 0
M  V30 13408 H 1249.56 -3.76206 1.57903 0
M  V30 13409 H 1248.23 -3.24073 2.60672 0
M  V30 13410 H 1246.81 -3.63798 0.818852 0
M  V30 13411 N 1248.99 -0.981699 -1.2329 0
M  V30 13412 C 1250.22 -0.669025 -1.96313 0
M  V30 13413 C 1250.64 0.757624 -1.72168 0
M  V30 13414 O 1250 1.51626 -0.993942 0
M  V30 13415 C 1250.05 -0.966875 -3.47396 0
M  V30 13416 O 1249.15 -0.0595933 -4.12357 0
M  V30 13417 H 1248.5 -0.251493 -0.61453 0
M  V30 13418 H 1251.03 -1.31564 -1.56691 0
M  V30 13419 H 1251.04 -0.904112 -3.97857 0
M  V30 13420 H 1249.71 -2.00651 -3.64296 0
M  V30 13421 H 1248.29 -0.176878 -3.7248 0
M  V30 13422 N 1250.47 1.3842 -0.753509 0
M  V30 13423 C 1251.7 2.04929 -0.319174 0
M  V30 13424 C 1252.12 1.56457 1.04416 0
M  V30 13425 O 1251.48 0.716527 1.6654 0
M  V30 13426 C 1251.53 3.58887 -0.351054 0
M  V30 13427 O 1250.63 4.07166 0.654963 0
M  V30 13428 H 1249.97 0.648782 -0.141343 0
M  V30 13429 H 1252.5 1.77096 -1.02461 0
M  V30 13430 H 1252.51 4.075 -0.201907 0
M  V30 13431 H 1251.19 3.93525 -1.34576 0
M  V30 13432 H 1249.77 3.69921 0.470435 0
M  V30 13433 N 1251.95 0.502579 1.49372 0
M  V30 13434 C 1252.9 -0.275004 2.29156 0
M  V30 13435 C 1253.87 -0.95892 1.35624 0
M  V30 13436 O 1255.05 -0.965276 1.64581 0
M  V30 13437 C 1252.19 -1.33255 3.18335 0
M  V30 13438 C 1251.31 -0.660248 4.26925 0
M  V30 13439 C 1250.44 -1.69837 5.03318 0
M  V30 13440 C 1249.48 -1.00802 6.03743 0
M  V30 13441 N 1248.62 -1.99042 6.73295 0
M  V30 13442 H 1253.46 0.411599 2.95144 0
M  V30 13443 H 1250.99 0.214824 1.45523 0
M  V30 13444 H 1252.95 -1.95769 3.68416 0
M  V30 13445 H 1251.58 -1.98789 2.54328 0
M  V30 13446 H 1250.63 0.0782181 3.8032 0
M  V30 13447 H 1251.95 -0.11689 4.98663 0
M  V30 13448 H 1251.1 -2.39852 5.57275 0
M  V30 13449 H 1249.84 -2.27558 4.31357 0
M  V30 13450 H 1248.84 -0.293654 5.49015 0
M  V30 13451 H 1250.07 -0.437285 6.77691 0
M  V30 13452 H 1248.01 -2.55722 6.04104 0
M  V30 13453 H 1247.93 -1.49776 7.41015 0
M  V30 13454 H 1249.2 -2.6834 7.31856 0
M  V30 13455 N 1253.43 -1.55816 0.23648 0
M  V30 13456 C 1254.66 -2.03083 -0.395584 0
M  V30 13457 C 1255.07 -1.11599 -1.52286 0
M  V30 13458 O 1254.43 -0.128403 -1.82048 0
M  V30 13459 C 1254.48 -3.49776 -0.913197 0
M  V30 13460 O 1254.2 -4.37773 0.169151 0
M  V30 13461 C 1255.7 -4.12756 -1.617 0
M  V30 13462 H 1252.92 -0.66421 -0.0952146 0
M  V30 13463 H 1255.47 -2.01354 0.357299 0
M  V30 13464 H 1253.62 -3.52072 -1.6163 0
M  V30 13465 H 1254.03 -5.24029 -0.222217 0
M  V30 13466 H 1255.51 -5.17123 -1.93101 0
M  V30 13467 H 1255.99 -3.58631 -2.53537 0
M  V30 13468 H 1256.59 -4.14353 -0.958736 0
M  V30 13469 N 1254.91 0.036755 -1.57557 0
M  V30 13470 C 1256.15 0.729106 -1.88919 0
M  V30 13471 C 1256.48 1.75769 -0.832801 0
M  V30 13472 O 1255.74 1.94985 0.167173 0
M  V30 13473 C 1256.04 1.44206 -3.27016 0
M  V30 13474 C 1255.7 0.550184 -4.47531 0
M  V30 13475 C 1254.36 0.304511 -4.80236 0
M  V30 13476 C 1256.72 -0.0660664 -5.21158 0
M  V30 13477 C 1254.04 -0.566316 -5.8396 0
M  V30 13478 C 1256.4 -0.92455 -6.25807 0
M  V30 13479 C 1255.06 -1.17976 -6.56992 0
M  V30 13480 H 1254.33 0.266799 -0.691303 0
M  V30 13481 H 1256.98 -0.0108698 -1.91497 0
M  V30 13482 H 1255.28 2.25516 -3.2039 0
M  V30 13483 H 1256.98 1.98317 -3.48527 0
M  V30 13484 H 1253.57 0.751814 -4.21955 0
M  V30 13485 H 1257.75 0.110784 -4.96176 0
M  V30 13486 H 1253.01 -0.772428 -6.06501 0
M  V30 13487 H 1257.18 -1.40861 -6.82005 0
M  V30 13488 H 1254.81 -1.85627 -7.37188 0
M  V30 13489 N 1256.39 1.54543 0.308881 0
M  V30 13490 C 1257.3 1.87994 1.4034 0
M  V30 13491 C 1258.31 0.773294 1.55872 0
M  V30 13492 O 1259.49 1.069 1.70688 0
M  V30 13493 C 1256.55 2.11341 2.74838 0
M  V30 13494 C 1255.61 3.35086 2.68358 0
M  V30 13495 C 1254.85 3.5731 3.96441 0
M  V30 13496 O 1255.07 2.82692 4.9542 0
M  V30 13497 O 1254 4.50814 3.98811 0
M  V30 13498 H 1257.83 2.81094 1.14976 0
M  V30 13499 H 1255.41 1.40634 0.504236 0
M  V30 13500 H 1257.3 2.27943 3.54429 0
M  V30 13501 H 1255.97 1.21427 3.00062 0
M  V30 13502 H 1254.88 3.23855 1.87267 0
M  V30 13503 H 1256.21 4.25104 2.48087 0
M  V30 13504 N 1257.86 -0.571685 1.46866 0
M  V30 13505 C 1258.81 -1.67992 1.58263 0
M  V30 13506 C 1259.78 -1.60535 0.426345 0
M  V30 13507 O 1260.97 -1.79584 0.644534 0
M  V30 13508 C 1258.11 -3.06327 1.58927 0
M  V30 13509 C 1257.22 -3.24328 2.85369 0
M  V30 13510 C 1256.35 -4.52976 2.77464 0
M  V30 13511 C 1255.39 -4.64359 3.98795 0
M  V30 13512 N 1254.53 -5.84345 3.89211 0
M  V30 13513 H 1259.37 -1.57589 2.52922 0
M  V30 13514 H 1256.91 -0.767883 1.25467 0
M  V30 13515 H 1258.86 -3.86411 1.57296 0
M  V30 13516 H 1257.49 -3.15601 0.677912 0
M  V30 13517 H 1256.55 -2.37774 2.96931 0
M  V30 13518 H 1257.86 -3.28605 3.7526 0
M  V30 13519 H 1257.01 -5.41303 2.74001 0
M  V30 13520 H 1255.75 -4.51155 1.85231 0
M  V30 13521 H 1254.76 -3.74448 4.02578 0
M  V30 13522 H 1255.98 -4.6795 4.92137 0
M  V30 13523 H 1253.93 -5.835 2.99772 0
M  V30 13524 H 1253.84 -5.89938 4.72768 0
M  V30 13525 H 1255.11 -6.75072 3.89741 0
M  V30 13526 N 1259.34 -1.34755 -0.817236 0
M  V30 13527 C 1260.29 -1.26801 -1.92848 0
M  V30 13528 C 1261.26 -0.142077 -1.65491 0
M  V30 13529 O 1262.44 -0.324006 -1.88029 0
M  V30 13530 C 1259.58 -1.03513 -3.2921 0
M  V30 13531 C 1258.7 -2.24932 -3.68822 0
M  V30 13532 C 1257.83 -1.94881 -4.94161 0
M  V30 13533 C 1256.87 -3.12411 -5.2637 0
M  V30 13534 N 1256.01 -2.82207 -6.42887 0
M  V30 13535 H 1260.85 -2.21832 -1.98983 0
M  V30 13536 H 1258.38 -1.10284 -0.973439 0
M  V30 13537 H 1260.34 -0.88047 -4.07803 0
M  V30 13538 H 1258.97 -0.121478 -3.22571 0
M  V30 13539 H 1258.02 -2.51299 -2.85575 0
M  V30 13540 H 1259.34 -3.12726 -3.88592 0
M  V30 13541 H 1258.49 -1.76184 -5.80555 0
M  V30 13542 H 1257.23 -1.04355 -4.76405 0
M  V30 13543 H 1256.23 -3.31698 -4.3847 0
M  V30 13544 H 1257.46 -4.03724 -5.46062 0
M  V30 13545 H 1255.41 -1.94263 -6.26576 0
M  V30 13546 H 1255.32 -3.63534 -6.62857 0
M  V30 13547 H 1256.59 -2.67026 -7.32337 0
M  V30 13548 N 1260.82 1.03812 -1.18578 0
M  V30 13549 C 1262.24 1.29271 -0.936011 0
M  V30 13550 C 1262.44 1.97551 0.396965 0
M  V30 13551 O 1261.49 2.25769 1.13069 0
M  V30 13552 C 1262.8 2.1489 -2.1034 0
M  V30 13553 C 1264.35 2.28228 -2.14198 0
M  V30 13554 C 1264.83 3.17214 -3.30362 0
M  V30 13555 N 1266.32 3.24802 -3.30239 0
M  V30 13556 C 1267.05 3.9382 -4.16765 0
M  V30 13557 N 1266.55 4.65147 -5.1343 0
M  V30 13558 N 1268.34 3.90125 -4.04671 0
M  V30 13559 H 1260.49 0.579011 -2.04356 0
M  V30 13560 H 1262.76 0.318021 -0.893066 0
M  V30 13561 H 1262.46 1.72029 -3.06755 0
M  V30 13562 H 1262.34 3.15576 -2.06619 0
M  V30 13563 H 1264.72 2.70324 -1.18359 0
M  V30 13564 H 1264.8 1.27124 -2.21976 0
M  V30 13565 H 1264.45 2.75829 -4.26475 0
M  V30 13566 H 1264.38 4.18356 -3.19821 0
M  V30 13567 H 1266.87 2.73994 -2.60261 0
M  V30 13568 H 1267.18 5.15414 -5.7582 0
M  V30 13569 H 1265.53 4.64043 -5.17387 0
M  V30 13570 H 1268.72 3.33536 -3.28438 0
M  V30 13571 H 1268.89 4.43641 -4.7232 0
M  V30 13572 N 1262.3 0.988223 1.22768 0
M  V30 13573 C 1263.55 0.660154 1.91014 0
M  V30 13574 C 1263.87 -0.809788 1.77391 0
M  V30 13575 O 1263.14 -1.57998 1.15817 0
M  V30 13576 H 1261.72 0.24118 0.706995 0
M  V30 13577 H 1264.38 1.25372 1.49224 0
M  V30 13578 H 1263.47 0.918603 2.98275 0
M  V30 13579 N 1263.78 -1.38018 0.760839 0
M  V30 13580 C 1264.72 -2.30387 0.13796 0
M  V30 13581 C 1265.69 -1.50548 -0.701754 0
M  V30 13582 O 1266.88 -1.79154 -0.656381 0
M  V30 13583 C 1264.02 -3.36993 -0.743642 0
M  V30 13584 C 1263.13 -4.31856 0.111489 0
M  V30 13585 C 1262.27 -5.25534 -0.773796 0
M  V30 13586 C 1261.3 -6.12042 0.0845311 0
M  V30 13587 N 1260.44 -6.97995 -0.758118 0
M  V30 13588 H 1265.28 -2.83077 0.931212 0
M  V30 13589 H 1262.82 -1.39361 0.470833 0
M  V30 13590 H 1264.78 -3.97417 -1.26948 0
M  V30 13591 H 1263.41 -2.85695 -1.50261 0
M  V30 13592 H 1262.46 -3.72832 0.755031 0
M  V30 13593 H 1263.77 -4.92758 0.774042 0
M  V30 13594 H 1262.92 -5.9111 -1.36653 0
M  V30 13595 H 1261.66 -4.65017 -1.47006 0
M  V30 13596 H 1260.67 -5.45455 0.689883 0
M  V30 13597 H 1261.89 -6.74629 0.777966 0
M  V30 13598 H 1259.84 -6.40018 -1.4392 0
M  V30 13599 H 1259.76 -7.55846 -0.152623 0
M  V30 13600 H 1261.02 -7.67973 -1.33559 0
M  V30 13601 N 1265.25 -0.510493 -1.49103 0
M  V30 13602 C 1266.2 0.262848 -2.29298 0
M  V30 13603 C 1267.17 0.951714 -1.36131 0
M  V30 13604 O 1268.36 0.956534 -1.65091 0
M  V30 13605 C 1265.5 1.31565 -3.19037 0
M  V30 13606 C 1264.61 0.637598 -4.27269 0
M  V30 13607 C 1263.74 1.67165 -5.04212 0
M  V30 13608 C 1262.78 0.975992 -6.04269 0
M  V30 13609 N 1261.92 1.95468 -6.74342 0
M  V30 13610 H 1266.76 -0.427246 -2.94921 0
M  V30 13611 H 1264.3 -0.222538 -1.45407 0
M  V30 13612 H 1266.25 1.93813 -3.69449 0
M  V30 13613 H 1264.88 1.97438 -2.55379 0
M  V30 13614 H 1263.94 -0.0983863 -3.80273 0
M  V30 13615 H 1265.25 0.0904435 -4.98718 0
M  V30 13616 H 1264.4 2.36893 -5.5854 0
M  V30 13617 H 1263.14 2.25267 -4.32557 0
M  V30 13618 H 1262.15 0.264534 -5.49163 0
M  V30 13619 H 1263.37 0.40134 -6.77913 0
M  V30 13620 H 1261.32 2.52515 -6.05452 0
M  V30 13621 H 1261.23 1.45845 -7.41799 0
M  V30 13622 H 1262.5 2.64455 -7.33269 0
M  V30 13623 O 1266.77 1.56807 -0.386498 0
M  V30 13624 H 1267.46 1.93044 0.159306 0
M  V30 END ATOM
M  V30 BEGIN BOND
M  V30 END BOND
M  V30 END CTAB
M  END
$$$$
