drugbank_target|P34096 Ribonuclease 4 (DB03448)
 OpenBabel12092120023D

  0  0  0     0  0            999 V3000
M  V30 BEGIN CTAB
M  V30 COUNTS 2349 2371 0 0 0
M  V30 BEGIN ATOM
M  V30 1 H -0.908 1.98254 -0.117106 0
M  V30 2 N 0 1.576 0 0
M  V30 3 C 0.933 2.03868 1.02534 0
M  V30 4 C 1.911 0.928543 1.3348 0
M  V30 5 O 3.095 1.19667 1.45644 0
M  V30 6 C 0.222 2.43627 2.35294 0
M  V30 7 C -0.732 3.65373 2.2001 0
M  V30 8 S 0.101 5.13292 1.52614 0
M  V30 9 C 1.257 5.56322 2.86805 0
M  V30 10 H 1.49 2.90518 0.631377 0
M  V30 11 H -0.977 1.52953 0.210867 0
M  V30 12 H 0.981 2.67203 3.11629 0
M  V30 13 H -0.358 1.57376 2.7183 0
M  V30 14 H -1.165 3.90944 3.18086 0
M  V30 15 H -1.563 3.418 1.51819 0
M  V30 16 H 0.729 5.58782 3.83104 0
M  V30 17 H 1.672 6.56266 2.65933 0
M  V30 18 H 2.08 4.83886 2.90714 0
M  V30 19 N 1.4781 -0.272755 1.55222 0
M  V30 20 C 2.4411 -1.32041 1.87344 0
M  V30 21 C 3.4411 -1.42342 0.74803 0
M  V30 22 O 4.6311 -1.41488 1.0162 0
M  V30 23 C 1.7631 -2.70173 2.07893 0
M  V30 24 H 2.9561 -1.04789 2.80997 0
M  V30 25 H 0.5091 -0.51083 1.47717 0
M  V30 26 H 1.2441 -3.02605 1.16622 0
M  V30 27 H 1.0291 -2.64082 2.89833 0
M  V30 28 H 2.5191 -3.45869 2.34017 0
M  V30 29 N 2.9562 -1.48159 -0.537278 0
M  V30 30 C 3.8862 -1.65029 -1.6519 0
M  V30 31 C 4.8672 -0.499281 -1.62607 0
M  V30 32 O 6.0522 -0.730972 -1.79918 0
M  V30 33 C 3.1822 -1.68303 -3.03795 0
M  V30 34 C 2.1362 -2.8283 -3.21234 0
M  V30 35 C 1.4622 -2.71189 -4.60826 0
M  V30 36 C 2.7622 -4.24211 -3.04701 0
M  V30 37 H 4.4562 -2.58341 -1.51328 0
M  V30 38 H 2.0022 -1.24325 -0.726585 0
M  V30 39 H 3.9552 -1.78693 -3.81637 0
M  V30 40 H 2.6792 -0.715635 -3.18663 0
M  V30 41 H 1.3382 -2.71983 -2.45807 0
M  V30 42 H 0.9862 -1.72435 -4.7252 0
M  V30 43 H 0.6862 -3.48035 -4.7344 0
M  V30 44 H 2.2102 -2.83537 -5.40777 0
M  V30 45 H 3.6242 -4.3593 -3.72341 0
M  V30 46 H 2.0212 -5.01998 -3.28813 0
M  V30 47 H 3.0912 -4.41184 -2.01209 0
M  V30 48 N 4.4343 0.785586 -1.36625 0
M  V30 49 C 5.3663 1.90711 -1.2713 0
M  V30 50 C 6.3793 1.61688 -0.189986 0
M  V30 51 O 7.5683 1.72864 -0.445014 0
M  V30 52 C 4.6683 3.25611 -0.939713 0
M  V30 53 C 3.8413 3.82385 -2.12369 0
M  V30 54 C 2.9003 4.95732 -1.76456 0
M  V30 55 O 1.9263 5.12047 -2.48589 0
M  V30 56 N 3.1283 5.76258 -0.700492 0
M  V30 57 H 5.8933 1.99376 -2.23762 0
M  V30 58 H 3.4543 0.964041 -1.30069 0
M  V30 59 H 5.4463 3.98937 -0.680554 0
M  V30 60 H 4.0163 3.12538 -0.0624074 0
M  V30 61 H 3.2363 3.01001 -2.54543 0
M  V30 62 H 4.5243 4.17047 -2.9146 0
M  V30 63 H 3.9223 5.65609 -0.101624 0
M  V30 64 H 2.4793 6.4987 -0.501165 0
M  V30 65 N 5.9124 1.20967 1.01018 0
M  V30 66 C 7.3284 0.965905 1.27053 0
M  V30 67 C 7.5284 -0.350785 1.98423 0
M  V30 68 O 6.5844 -1.07773 2.28344 0
M  V30 69 C 7.8974 2.15294 2.09926 0
M  V30 70 C 9.4454 2.19463 2.23171 0
M  V30 71 C 9.9204 3.3767 3.09424 0
M  V30 72 N 11.4114 3.37724 3.17012 0
M  V30 73 C 12.1464 4.25837 3.83993 0
M  V30 74 N 11.6424 5.24138 4.53047 0
M  V30 75 N 13.4354 4.1366 3.80581 0
M  V30 76 H 5.5864 2.0565 0.531194 0
M  V30 77 H 7.8494 0.90024 0.297106 0
M  V30 78 H 7.5554 3.10684 1.64828 0
M  V30 79 H 7.4294 2.13923 3.10672 0
M  V30 80 H 9.8164 1.24632 2.6749 0
M  V30 81 H 9.8974 2.2488 1.21912 0
M  V30 82 H 9.5414 4.32791 2.65808 0
M  V30 83 H 9.4714 3.29491 4.10784 0
M  V30 84 H 11.9624 2.6658 2.6785 0
M  V30 85 H 12.2754 5.87684 5.01844 0
M  V30 86 H 10.6204 5.28068 4.5185 0
M  V30 87 H 13.8114 3.36127 3.25785 0
M  V30 88 H 13.9844 4.82538 4.32505 0
M  V30 89 N 7.3905 -1.2043 1.01659 0
M  V30 90 C 8.6185 -1.93777 0.725132 0
M  V30 91 C 9.0335 -1.74772 -0.714166 0
M  V30 92 O 8.3905 -1.06169 -1.4844 0
M  V30 93 C 8.4415 -3.45876 1.05129 0
M  V30 94 O 8.1625 -3.6426 2.43406 0
M  V30 95 C 9.6635 -4.36368 0.780891 0
M  V30 96 H 6.8835 -0.615901 0.266284 0
M  V30 97 H 9.4275 -1.52922 1.35776 0
M  V30 98 H 7.5825 -3.8461 0.464065 0
M  V30 99 H 7.9965 -4.58246 2.55169 0
M  V30 100 H 9.4705 -5.41743 1.05918 0
M  V30 101 H 9.9475 -4.38275 -0.284937 0
M  V30 102 H 10.5535 -4.03296 1.35027 0
M  V30 103 N 8.8686 -0.792821 -1.36206 0
M  V30 104 C 9.8186 -0.166598 -2.27391 0
M  V30 105 C 10.8026 0.651479 -1.47121 0
M  V30 106 O 11.9946 0.510994 -1.69463 0
M  V30 107 C 9.1236 0.695033 -3.36191 0
M  V30 108 C 8.2096 -0.132019 -4.23894 0
M  V30 109 N 8.6006 -1.18822 -4.91645 0
M  V30 110 C 6.8986 0.0885952 -4.45912 0
M  V30 111 C 7.5996 -1.69198 -5.56549 0
M  V30 112 N 6.5756 -1.00065 -5.34311 0
M  V30 113 H 10.3776 -0.974947 -2.77258 0
M  V30 114 H 7.8916 -0.632616 -1.49572 0
M  V30 115 H 9.8886 1.1596 -4.00448 0
M  V30 116 H 8.5486 1.50189 -2.87877 0
M  V30 117 H 9.5596 -1.57069 -4.93507 0
M  V30 118 H 6.2366 0.865688 -4.08426 0
M  V30 119 H 7.6266 -2.57395 -6.20643 0
M  V30 120 N 10.3467 1.47872 -0.545128 0
M  V30 121 C 11.5717 2.07391 -0.0190611 0
M  V30 122 C 11.9967 1.39688 1.25971 0
M  V30 123 O 11.3547 0.467816 1.7516 0
M  V30 124 C 11.4027 3.60188 0.172335 0
M  V30 125 O 10.5067 3.9339 1.23766 0
M  V30 126 H 9.8477 0.662411 -0.0459059 0
M  V30 127 H 12.3777 1.90066 -0.757365 0
M  V30 128 H 12.3877 4.06129 0.390305 0
M  V30 129 H 11.0627 4.08865 -0.761725 0
M  V30 130 H 9.6397 3.5921 1.00114 0
M  V30 131 N 11.8248 0.280983 1.55075 0
M  V30 132 C 12.7548 -0.597469 2.25727 0
M  V30 133 C 13.7358 -1.15417 1.24952 0
M  V30 134 O 14.9208 -1.18722 1.53684 0
M  V30 135 C 12.0508 -1.7789 2.98283 0
M  V30 136 C 11.0048 -1.35347 4.06036 0
M  V30 137 C 10.3308 -2.61846 4.66198 0
M  V30 138 C 11.6308 -0.499354 5.19907 0
M  V30 139 H 13.3248 -0.00824265 2.99399 0
M  V30 140 H 10.8708 -0.0025244 1.44 0
M  V30 141 H 12.8238 -2.39937 3.46422 0
M  V30 142 H 11.5478 -2.39405 2.22155 0
M  V30 143 H 10.2068 -0.756156 3.58717 0
M  V30 144 H 9.8548 -3.21632 3.86732 0
M  V30 145 H 9.5548 -2.3409 5.38958 0
M  V30 146 H 11.0788 -3.24732 5.1709 0
M  V30 147 H 12.4928 -1.02498 5.64063 0
M  V30 148 H 10.8898 -0.316424 5.99265 0
M  V30 149 H 11.9598 0.480459 4.82514 0
M  V30 150 N 13.3029 -1.57598 0.00835791 0
M  V30 151 C 14.2329 -2.1198 -0.979113 0
M  V30 152 C 15.2139 -1.03091 -1.35301 0
M  V30 153 O 16.3989 -1.30818 -1.43528 0
M  V30 154 C 13.5289 -2.62995 -2.26828 0
M  V30 155 C 12.4829 -3.76485 -2.03576 0
M  V30 156 C 11.8089 -4.13846 -3.38579 0
M  V30 157 C 13.1089 -5.0342 -1.39161 0
M  V30 158 H 14.8029 -2.94738 -0.526281 0
M  V30 159 H 12.3489 -1.41783 -0.251704 0
M  V30 160 H 14.3019 -2.99669 -2.96271 0
M  V30 161 H 13.0259 -1.7737 -2.7424 0
M  V30 162 H 11.6849 -3.40217 -1.36557 0
M  V30 163 H 11.3329 -3.25232 -3.83709 0
M  V30 164 H 11.0329 -4.90312 -3.23834 0
M  V30 165 H 12.5569 -4.53086 -4.09323 0
M  V30 166 H 13.9709 -5.37812 -1.98573 0
M  V30 167 H 12.3679 -5.84746 -1.34878 0
M  V30 168 H 13.4379 -4.83548 -0.361868 0
M  V30 169 N 14.781 0.264519 -1.55364 0
M  V30 170 C 15.711 1.33121 -1.91836 0
M  V30 171 C 16.692 1.51101 -0.781192 0
M  V30 172 O 17.877 1.64003 -1.04003 0
M  V30 173 C 15.007 2.68921 -2.19769 0
M  V30 174 C 13.961 2.65661 -3.35571 0
M  V30 175 C 13.287 4.05093 -3.49004 0
M  V30 176 C 14.587 2.24187 -4.71739 0
M  V30 177 H 16.281 1.02844 -2.81182 0
M  V30 178 H 13.827 0.493286 -1.35287 0
M  V30 179 H 15.78 3.43663 -2.43872 0
M  V30 180 H 14.504 3.00799 -1.27231 0
M  V30 181 H 13.163 1.93377 -3.1145 0
M  V30 182 H 12.811 4.34206 -2.53917 0
M  V30 183 H 12.511 4.03804 -4.26868 0
M  V30 184 H 14.035 4.81561 -3.75408 0
M  V30 185 H 15.449 2.88654 -4.9533 0
M  V30 186 H 13.846 2.34044 -5.52579 0
M  V30 187 H 14.916 1.19327 -4.69988 0
M  V30 188 N 16.2591 1.48442 0.529413 0
M  V30 189 C 17.1891 1.65902 1.64313 0
M  V30 190 C 18.1701 0.507897 1.6234 0
M  V30 191 O 19.3551 0.740503 1.79528 0
M  V30 192 C 16.4851 1.69911 3.02898 0
M  V30 193 C 15.4391 2.8453 3.19729 0
M  V30 194 C 14.7651 2.73629 4.59381 0
M  V30 195 C 16.0651 4.25821 3.02447 0
M  V30 196 H 17.7591 2.5914 1.49955 0
M  V30 197 H 15.3051 1.24709 0.719982 0
M  V30 198 H 17.2581 1.80715 3.80684 0
M  V30 199 H 15.9821 0.732524 3.18279 0
M  V30 200 H 14.6411 2.73283 2.44361 0
M  V30 201 H 14.2891 1.74938 4.71599 0
M  V30 202 H 13.9891 3.50541 4.71588 0
M  V30 203 H 15.5131 2.86401 5.39265 0
M  V30 204 H 16.9271 4.37898 3.70024 0
M  V30 205 H 15.3241 5.03735 3.26146 0
M  V30 206 H 16.3941 4.42244 1.98867 0
M  V30 207 N 17.7372 -0.778329 1.37039 0
M  V30 208 C 18.6672 -1.90546 1.34962 0
M  V30 209 C 19.6482 -1.68681 0.219274 0
M  V30 210 O 20.8332 -1.89634 0.418624 0
M  V30 211 C 17.9632 -3.27734 1.14925 0
M  V30 212 C 16.9172 -3.64147 2.24902 0
M  V30 213 C 16.2432 -4.99806 1.89996 0
M  V30 214 C 17.5432 -3.71579 3.67051 0
M  V30 215 H 19.2372 -1.92541 2.29277 0
M  V30 216 H 16.7832 -0.924948 1.10366 0
M  V30 217 H 18.7362 -4.06215 1.12104 0
M  V30 218 H 17.4602 -3.26154 0.170631 0
M  V30 219 H 16.1192 -2.8797 2.26868 0
M  V30 220 H 15.7672 -4.94759 0.906796 0
M  V30 221 H 15.4672 -5.25139 2.63634 0
M  V30 222 H 16.9912 -5.80694 1.88749 0
M  V30 223 H 18.4052 -4.40227 3.67251 0
M  V30 224 H 16.8022 -4.08405 4.39688 0
M  V30 225 H 17.8722 -2.72404 4.01154 0
M  V30 226 N 19.2153 -1.21501 -1.00376 0
M  V30 227 C 20.1453 -0.999478 -2.11028 0
M  V30 228 C 21.1263 0.0759671 -1.6993 0
M  V30 229 O 22.3113 -0.0841106 -1.94018 0
M  V30 230 C 19.4413 -0.564709 -3.42678 0
M  V30 231 C 18.3953 -1.58486 -3.97576 0
M  V30 232 C 17.7213 -1.00628 -5.25146 0
M  V30 233 C 19.0213 -2.97204 -4.29496 0
M  V30 234 H 20.7153 -1.92495 -2.29317 0
M  V30 235 H 18.2613 -0.92693 -1.102 0
M  V30 236 H 20.2143 -0.401091 -4.19487 0
M  V30 237 H 18.9383 0.396411 -3.24185 0
M  V30 238 H 17.5973 -1.73606 -3.22888 0
M  V30 239 H 17.2453 -0.0368439 -5.02987 0
M  V30 240 H 16.9453 -1.68771 -5.62841 0
M  V30 241 H 18.4693 -0.854015 -6.04598 0
M  V30 242 H 19.8833 -2.8552 -4.97143 0
M  V30 243 H 18.2803 -3.62372 -4.78338 0
M  V30 244 H 19.3503 -3.47956 -3.3772 0
M  V30 245 N 20.6934 1.19889 -1.02296 0
M  V30 246 C 21.6234 2.25141 -0.619174 0
M  V30 247 C 22.6044 1.66051 0.368915 0
M  V30 248 O 23.7894 1.92546 0.252941 0
M  V30 249 C 20.9194 3.4728 0.0368783 0
M  V30 250 C 19.8734 4.19005 -0.872865 0
M  V30 251 C 19.1994 5.34637 -0.0822402 0
M  V30 252 C 20.4994 4.74452 -2.18387 0
M  V30 253 H 22.1934 2.59171 -1.49903 0
M  V30 254 H 19.7394 1.24579 -0.722222 0
M  V30 255 H 21.6924 4.20098 0.330958 0
M  V30 256 H 20.4164 3.12433 0.95149 0
M  V30 257 H 19.0754 3.48061 -1.15105 0
M  V30 258 H 18.7234 4.96034 0.83422 0
M  V30 259 H 18.4234 5.83557 -0.688149 0
M  V30 260 H 19.9474 6.10255 0.205238 0
M  V30 261 H 21.3614 5.39055 -1.95172 0
M  V30 262 H 19.7584 5.33834 -2.74119 0
M  V30 263 H 20.8284 3.92844 -2.84257 0
M  V30 264 N 22.1715 0.800033 1.35784 0
M  V30 265 C 23.3995 0.389606 2.03199 0
M  V30 266 C 23.8145 -0.997375 1.60306 0
M  V30 267 O 23.1715 -1.64154 0.797481 0
M  V30 268 C 23.2225 0.455855 3.58614 0
M  V30 269 O 22.9435 1.78815 3.99946 0
M  V30 270 C 24.4445 0.0374032 4.43284 0
M  V30 271 H 21.6645 0.159132 0.651857 0
M  V30 272 H 24.2085 1.08183 1.73541 0
M  V30 273 H 22.3635 -0.188057 3.86943 0
M  V30 274 H 22.7775 1.74636 4.94573 0
M  V30 275 H 24.2515 0.134882 5.51835 0
M  V30 276 H 24.7285 -1.01651 4.27275 0
M  V30 277 H 25.3345 0.654215 4.20238 0
M  V30 278 N 23.6496 -1.47581 0.552962 0
M  V30 279 C 24.5796 -2.32762 -0.185451 0
M  V30 280 C 25.5606 -1.43527 -0.912905 0
M  V30 281 O 26.7456 -1.72388 -0.894201 0
M  V30 282 C 23.8756 -3.25219 -1.21859 0
M  V30 283 C 22.8296 -4.23661 -0.607864 0
M  V30 284 C 22.1556 -5.05413 -1.74533 0
M  V30 285 C 23.4556 -5.20481 0.435582 0
M  V30 286 H 25.1496 -2.94749 0.525684 0
M  V30 287 H 22.6956 -1.41738 0.254251 0
M  V30 288 H 24.6486 -3.8365 -1.7433 0
M  V30 289 H 23.3726 -2.61279 -1.95961 0
M  V30 290 H 22.0316 -3.66451 -0.104489 0
M  V30 291 H 21.6796 -4.3788 -2.47529 0
M  V30 292 H 21.3796 -5.72059 -1.34249 0
M  V30 293 H 22.9036 -5.66701 -2.27338 0
M  V30 294 H 24.3176 -5.733 -0.00290157 0
M  V30 295 H 22.7146 -5.95305 0.757067 0
M  V30 296 H 23.7846 -4.66217 1.33303 0
M  V30 297 N 25.1277 -0.289203 -1.54924 0
M  V30 298 C 26.0577 0.58549 -2.2604 0
M  V30 299 C 27.0387 1.14753 -1.25562 0
M  V30 300 O 28.2237 1.17906 -1.54311 0
M  V30 301 C 25.3537 1.76305 -2.99222 0
M  V30 302 C 24.3077 1.33191 -4.06748 0
M  V30 303 C 23.6337 2.5937 -4.6758 0
M  V30 304 C 24.9337 0.471775 -5.20165 0
M  V30 305 H 26.6277 -0.00763532 -2.99399 0
M  V30 306 H 24.1737 -0.00511229 -1.43999 0
M  V30 307 H 26.1267 2.38097 -3.47689 0
M  V30 308 H 24.8507 2.38223 -2.23422 0
M  V30 309 H 23.5097 0.737121 -3.59113 0
M  V30 310 H 23.1577 3.19576 -3.88433 0
M  V30 311 H 22.8577 2.31228 -5.40192 0
M  V30 312 H 24.3817 3.21985 -5.18804 0
M  V30 313 H 25.7957 0.995056 -5.64599 0
M  V30 314 H 24.1927 0.284639 -5.99425 0
M  V30 315 H 25.2627 -0.506041 -4.82252 0
M  V30 316 N 26.6058 1.57591 -0.0167156 0
M  V30 317 C 27.8538 1.90906 0.663285 0
M  V30 318 C 28.1748 0.892509 1.73376 0
M  V30 319 O 27.4448 -0.0677623 1.95783 0
M  V30 320 H 26.0248 0.704637 0.247983 0
M  V30 321 H 28.6868 1.94803 -0.0615909 0
M  V30 322 H 27.7828 2.9116 1.12393 0
M  V30 323 N 28.0839 -0.256276 1.55502 0
M  V30 324 C 29.0139 -1.32102 1.92539 0
M  V30 325 C 29.9949 -1.50684 0.789194 0
M  V30 326 O 31.1799 -1.63449 1.04872 0
M  V30 327 C 28.3099 -2.67752 2.21192 0
M  V30 328 C 27.2639 -2.63878 3.36975 0
M  V30 329 C 26.5899 -4.03236 3.51147 0
M  V30 330 C 27.8899 -2.21682 4.72921 0
M  V30 331 H 29.5839 -1.01351 2.81724 0
M  V30 332 H 27.1299 -0.486105 1.35547 0
M  V30 333 H 29.0829 -3.42365 2.45691 0
M  V30 334 H 27.8069 -3.0012 1.28824 0
M  V30 335 H 26.4659 -1.91722 3.12471 0
M  V30 336 H 26.1139 -4.32854 2.56216 0
M  V30 337 H 25.8139 -4.01535 4.29003 0
M  V30 338 H 27.3379 -4.79563 3.77957 0
M  V30 339 H 28.7519 -2.86023 4.96854 0
M  V30 340 H 27.1489 -2.3111 5.53812 0
M  V30 341 H 28.2189 -1.16833 4.70615 0
M  V30 342 N 29.562 -1.4872 -0.521534 0
M  V30 343 C 30.81 -1.56857 -1.27437 0
M  V30 344 C 31.131 -0.247982 -1.93417 0
M  V30 345 O 30.401 0.731151 -1.81744 0
M  V30 346 H 28.981 -0.577885 -0.473347 0
M  V30 347 H 31.643 -1.85233 -0.606205 0
M  V30 348 H 30.739 -2.35402 -2.0492 0
M  V30 349 N 31.0401 0.771051 -1.3745 0
M  V30 350 C 31.9701 1.89827 -1.3597 0
M  V30 351 C 32.9511 1.68562 -0.228216 0
M  V30 352 O 34.1361 1.8941 -0.428675 0
M  V30 353 C 31.2661 3.2712 -1.16662 0
M  V30 354 C 30.2201 3.6295 -2.2683 0
M  V30 355 C 29.5461 4.98791 -1.92644 0
M  V30 356 C 30.8461 3.69627 -3.69017 0
M  V30 357 H 32.5401 1.91323 -2.30295 0
M  V30 358 H 30.0861 0.919082 -1.10855 0
M  V30 359 H 32.0391 4.05615 -1.14256 0
M  V30 360 H 30.7631 3.26059 -0.187926 0
M  V30 361 H 29.4221 2.86763 -2.28392 0
M  V30 362 H 29.0701 4.94271 -0.933021 0
M  V30 363 H 28.7701 5.23733 -2.66416 0
M  V30 364 H 30.2941 5.79685 -1.91826 0
M  V30 365 H 31.7081 4.38273 -3.69581 0
M  V30 366 H 30.1051 4.06067 -4.41848 0
M  V30 367 H 31.1751 2.70273 -4.02592 0
M  V30 368 N 32.5182 1.22032 0.997298 0
M  V30 369 C 33.7642 1.04376 1.73878 0
M  V30 370 C 34.0972 -0.420716 1.89588 0
M  V30 371 O 33.3722 -1.31202 1.43583 0
M  V30 372 C 33.6552 1.75047 3.14691 0
M  V30 373 C 33.5082 3.29062 3.06656 0
M  V30 374 C 34.8272 1.49928 4.13775 0
M  V30 375 H 31.9462 0.380578 0.631133 0
M  V30 376 H 34.5882 1.50312 1.16217 0
M  V30 377 H 32.7382 1.35996 3.63919 0
M  V30 378 H 34.4102 3.7753 2.65083 0
M  V30 379 H 32.6532 3.58967 2.43568 0
M  V30 380 H 33.3242 3.73683 4.06282 0
M  V30 381 H 35.8002 1.83842 3.73285 0
M  V30 382 H 34.6762 2.01878 5.10428 0
M  V30 383 H 34.9372 0.430929 4.39995 0
M  V30 384 N 33.9963 -1.19345 1.0293 0
M  V30 385 C 34.9283 -2.22036 0.56857 0
M  V30 386 C 35.9413 -1.58865 -0.355779 0
M  V30 387 O 37.1303 -1.77851 -0.152103 0
M  V30 388 C 34.2303 -3.38363 -0.190752 0
M  V30 389 C 33.4033 -4.31118 0.738643 0
M  V30 390 C 32.4623 -5.26194 0.0246497 0
M  V30 391 O 31.4883 -5.65461 0.651354 0
M  V30 392 N 32.6903 -5.66971 -1.24594 0
M  V30 393 H 35.4553 -2.6219 1.45177 0
M  V30 394 H 33.0163 -1.34015 0.908381 0
M  V30 395 H 35.0083 -3.98981 -0.677961 0
M  V30 396 H 33.5783 -2.96994 -0.975366 0
M  V30 397 H 32.7983 -3.68276 1.40593 0
M  V30 398 H 34.0863 -4.90001 1.37029 0
M  V30 399 H 33.4843 -5.37104 -1.77583 0
M  V30 400 H 32.0413 -6.2984 -1.67764 0
M  V30 401 N 35.4744 -0.807222 -1.35358 0
M  V30 402 C 36.8854 -0.44876 -1.81226 0
M  V30 403 C 37.2364 1.02929 -1.67033 0
M  V30 404 O 36.3614 1.79991 -1.20133 0
M  V30 405 C 36.9564 -0.807774 -3.2903 0
M  V30 406 C 35.5154 -0.501901 -3.73039 0
M  V30 407 C 34.6624 -1.03304 -2.57339 0
M  V30 408 H 37.6134 -0.998808 -1.23327 0
M  V30 409 H 37.6344 -0.10554 -3.80354 0
M  V30 410 H 37.1464 -1.88357 -3.39328 0
M  V30 411 H 35.2474 0.565128 -3.68289 0
M  V30 412 H 35.3604 -1.03497 -4.67787 0
M  V30 413 H 33.7244 -0.455339 -2.50597 0
M  V30 414 H 34.5074 -2.11496 -2.70415 0
M  V30 415 N 36.9525 1.47285 -0.560781 0
M  V30 416 C 38.1775 2.07359 -0.0410566 0
M  V30 417 C 38.6025 1.41017 1.24483 0
M  V30 418 O 37.9605 0.486368 1.74654 0
M  V30 419 C 38.0085 3.6035 0.134123 0
M  V30 420 O 37.1125 3.94681 1.19587 0
M  V30 421 H 36.4535 0.661887 -0.0529291 0
M  V30 422 H 38.9835 1.89252 -0.777482 0
M  V30 423 H 38.9935 4.0652 0.347207 0
M  V30 424 H 37.6685 4.08034 -0.805047 0
M  V30 425 H 36.2455 3.60251 0.962987 0
M  V30 426 N 38.4306 0.297415 1.54768 0
M  V30 427 C 39.6606 -0.315165 2.04182 0
M  V30 428 C 40.0686 -1.4834 1.17439 0
M  V30 429 O 39.4116 -1.82695 0.191891 0
M  V30 430 C 39.4736 -0.837583 3.49607 0
M  V30 431 C 39.1376 0.204912 4.5654 0
M  V30 432 C 40.1346 1.03214 5.09552 0
M  V30 433 C 37.8196 0.345578 5.0111 0
M  V30 434 C 39.8136 1.986 6.05671 0
M  V30 435 C 37.5006 1.30289 5.97049 0
M  V30 436 C 38.4986 2.12159 6.49213 0
M  V30 437 O 38.1866 3.06268 7.43273 0
M  V30 438 H 37.9186 -0.0729646 0.672051 0
M  V30 439 H 40.4726 0.433907 2.00765 0
M  V30 440 H 38.7026 -1.63712 3.50336 0
M  V30 441 H 40.3916 -1.36566 3.82236 0
M  V30 442 H 41.1576 0.934312 4.75916 0
M  V30 443 H 37.0366 -0.28171 4.60138 0
M  V30 444 H 40.5806 2.62542 6.46311 0
M  V30 445 H 36.4776 1.40145 6.30103 0
M  V30 446 H 37.2456 3.01205 7.61064 0
M  V30 447 N 39.9087 -1.5758 0.0250728 0
M  V30 448 C 41.1567 -1.91255 -0.653151 0
M  V30 449 C 41.4777 -0.901691 -1.729 0
M  V30 450 O 40.7477 0.0573785 -1.95816 0
M  V30 451 H 39.3277 -0.705942 -0.244243 0
M  V30 452 H 41.9897 -1.94767 0.0719209 0
M  V30 453 H 41.0857 -2.91752 -1.10847 0
M  V30 454 N 41.3868 0.248026 -1.55636 0
M  V30 455 C 42.3188 1.32993 -1.8667 0
M  V30 456 C 43.3318 1.44345 -0.752877 0
M  V30 457 O 44.5208 1.45715 -1.03098 0
M  V30 458 C 41.6208 2.70863 -2.03682 0
M  V30 459 C 40.7938 2.81792 -3.34532 0
M  V30 460 C 39.8528 4.005 -3.41301 0
M  V30 461 O 38.8788 3.9008 -4.14519 0
M  V30 462 N 40.0808 5.13618 -2.70512 0
M  V30 463 H 42.8458 1.06707 -2.8006 0
M  V30 464 H 40.4068 0.438129 -1.55859 0
M  V30 465 H 42.3988 3.48612 -2.05553 0
M  V30 466 H 40.9688 2.89862 -1.17041 0
M  V30 467 H 40.1888 1.90729 -3.44987 0
M  V30 468 H 41.4768 2.86043 -4.20781 0
M  V30 469 H 40.8748 5.24975 -2.10755 0
M  V30 470 H 39.4318 5.89505 -2.78077 0
M  V30 471 N 42.8649 1.48995 0.513639 0
M  V30 472 C 44.1419 1.48338 1.27495 0
M  V30 473 C 44.5219 0.204065 2.10111 0
M  V30 474 O 43.8699 -0.813881 2.13514 0
M  V30 475 C 44.0799 2.75498 2.14247 0
M  V30 476 C 45.4279 3.24484 2.73852 0
M  V30 477 O 46.4519 2.76528 2.24523 0
M  V30 478 O 45.3109 4.07974 3.6362 0
M  V30 479 H 42.4049 0.593149 0.576284 0
M  V30 480 H 44.9509 1.61246 0.528948 0
M  V30 481 H 43.7229 3.60109 1.53092 0
M  V30 482 H 43.3459 2.6539 2.96064 0
M  V30 483 N 44.343 -0.763751 1.37857 0
M  V30 484 C 45.591 -1.51957 1.33243 0
M  V30 485 C 45.912 -1.94835 -0.0801709 0
M  V30 486 O 45.182 -1.66894 -1.02582 0
M  V30 487 H 43.762 -0.563626 0.49024 0
M  V30 488 H 46.424 -0.908504 1.7243 0
M  V30 489 H 45.52 -2.41523 1.97669 0
M  V30 490 N 45.8211 -1.22559 -0.990812 0
M  V30 491 C 46.7541 -0.940773 -2.07905 0
M  V30 492 C 47.7321 0.117082 -1.62178 0
M  V30 493 O 48.9161 -0.0149506 -1.88494 0
M  V30 494 C 46.0431 -0.415321 -3.36144 0
M  V30 495 C 45.0891 -1.45818 -4.00799 0
M  V30 496 S 45.9221 -3.03219 -4.41382 0
M  V30 497 C 47.0781 -2.52317 -5.72789 0
M  V30 498 H 47.3111 -1.8623 -2.31745 0
M  V30 499 H 44.8441 -1.05688 -1.12558 0
M  V30 500 H 46.8021 -0.118747 -4.10328 0
M  V30 501 H 45.4631 0.485121 -3.10331 0
M  V30 502 H 44.6561 -1.04044 -4.93144 0
M  V30 503 H 44.2581 -1.70356 -3.32949 0
M  V30 504 H 46.5501 -1.93688 -6.49224 0
M  V30 505 H 47.4931 -3.43161 -6.19392 0
M  V30 506 H 47.9011 -1.93529 -5.30289 0
M  V30 507 N 47.2992 1.18797 -1.03562 0
M  V30 508 C 48.5292 1.92319 -0.754773 0
M  V30 509 C 48.9372 1.7612 0.691248 0
M  V30 510 O 48.2802 1.08491 1.48241 0
M  V30 511 C 48.3422 3.44284 -1.03484 0
M  V30 512 C 48.0062 3.84258 -2.47376 0
M  V30 513 C 49.0032 3.88459 -3.45537 0
M  V30 514 C 46.6882 4.15701 -2.81954 0
M  V30 515 C 48.6822 4.23545 -4.76328 0
M  V30 516 C 46.3692 4.50458 -4.12954 0
M  V30 517 C 47.3672 4.54356 -5.09951 0
M  V30 518 O 47.0552 4.88305 -6.38603 0
M  V30 519 H 46.7872 0.617527 -0.275021 0
M  V30 520 H 49.3412 1.51683 -1.38497 0
M  V30 521 H 47.5712 3.85135 -0.347513 0
M  V30 522 H 49.2602 3.99049 -0.7426 0
M  V30 523 H 50.0262 3.6431 -3.20162 0
M  V30 524 H 45.9052 4.11847 -2.0713 0
M  V30 525 H 49.4492 4.26502 -5.52035 0
M  V30 526 H 45.3462 4.74067 -4.38099 0
M  V30 527 H 46.1142 5.06227 -6.43177 0
M  V30 528 N 48.7773 0.814389 1.34928 0
M  V30 529 C 49.7093 0.187834 2.28429 0
M  V30 530 C 50.7223 -0.617374 1.5064 0
M  V30 531 O 51.9113 -0.448454 1.72775 0
M  V30 532 C 49.0113 -0.755962 3.30361 0
M  V30 533 C 48.1843 0.00456686 4.374 0
M  V30 534 C 47.2433 -0.858876 5.19143 0
M  V30 535 O 46.2693 -0.306968 5.68372 0
M  V30 536 N 47.4713 -2.17988 5.38016 0
M  V30 537 H 50.2363 0.991105 2.82838 0
M  V30 538 H 47.7973 0.670561 1.4736 0
M  V30 539 H 49.7893 -1.338 3.81942 0
M  V30 540 H 48.3593 -1.46001 2.7641 0
M  V30 541 H 47.5793 0.767865 3.86649 0
M  V30 542 H 48.8673 0.528422 5.06049 0
M  V30 543 H 48.2653 -2.65212 4.99679 0
M  V30 544 H 46.8223 -2.71098 5.92747 0
M  V30 545 N 50.2554 -1.46986 0.568584 0
M  V30 546 C 51.6714 -1.57946 0.229189 0
M  V30 547 C 51.8714 -1.56567 -1.26843 0
M  V30 548 O 50.9274 -1.47511 -2.04931 0
M  V30 549 C 52.2404 -2.87963 0.865909 0
M  V30 550 C 53.7884 -3.01568 0.838188 0
M  V30 551 C 54.2634 -4.34301 1.45419 0
M  V30 552 N 55.7544 -4.40965 1.41788 0
M  V30 553 C 56.4894 -5.42256 1.86403 0
M  V30 554 N 55.9854 -6.50297 2.38926 0
M  V30 555 N 57.7784 -5.3337 1.77405 0
M  V30 556 H 49.9294 -1.46126 1.54146 0
M  V30 557 H 52.1924 -0.696156 0.643484 0
M  V30 558 H 51.8984 -2.94742 1.91886 0
M  V30 559 H 51.7724 -3.75423 0.365687 0
M  V30 560 H 54.1594 -2.94379 -0.206106 0
M  V30 561 H 54.2404 -2.1562 1.37629 0
M  V30 562 H 53.8844 -4.42247 2.49761 0
M  V30 563 H 53.8144 -5.19 0.891435 0
M  V30 564 H 56.3054 -3.63484 1.03381 0
M  V30 565 H 56.6184 -7.23777 2.70863 0
M  V30 566 H 54.9634 -6.51155 2.42944 0
M  V30 567 H 58.1544 -4.47865 1.3614 0
M  V30 568 H 58.3274 -6.12169 2.12492 0
M  V30 569 N 51.7335 -0.305618 -1.54608 0
M  V30 570 C 52.9805 0.302298 -2.00231 0
M  V30 571 C 53.3085 1.5354 -1.19398 0
M  V30 572 O 52.5635 1.93973 -0.259423 0
M  V30 573 C 52.8625 0.698983 -3.50498 0
M  V30 574 C 52.5285 -0.432903 -4.48817 0
M  V30 575 C 51.1905 -0.743622 -4.75419 0
M  V30 576 C 53.5425 -1.19409 -5.07337 0
M  V30 577 C 50.8705 -1.81857 -5.57804 0
M  V30 578 C 53.2225 -2.25899 -5.90891 0
M  V30 579 C 51.8865 -2.57572 -6.15803 0
M  V30 580 H 51.1565 0.110619 -0.732697 0
M  V30 581 H 53.8035 -0.425674 -1.86709 0
M  V30 582 H 52.1085 1.50711 -3.61654 0
M  V30 583 H 53.8055 1.1806 -3.83227 0
M  V30 584 H 50.3955 -0.18063 -4.28219 0
M  V30 585 H 54.5795 -0.967295 -4.86782 0
M  V30 586 H 49.8355 -2.06864 -5.75341 0
M  V30 587 H 54.0095 -2.85335 -6.35261 0
M  V30 588 H 51.6365 -3.40998 -6.7943 0
M  V30 589 N 53.2116 1.57565 -0.0334293 0
M  V30 590 C 54.1416 2.13511 0.945265 0
M  V30 591 C 55.1226 1.05231 1.33643 0
M  V30 592 O 56.3076 1.33084 1.41429 0
M  V30 593 C 53.4376 2.6657 2.22616 0
M  V30 594 C 52.3916 3.79676 1.97561 0
M  V30 595 C 51.7176 4.1918 3.31952 0
M  V30 596 C 53.0176 5.0557 1.31135 0
M  V30 597 H 54.7116 2.95538 0.479325 0
M  V30 598 H 52.2576 1.42166 0.229115 0
M  V30 599 H 54.2106 3.04344 2.91466 0
M  V30 600 H 52.9346 1.8171 2.71384 0
M  V30 601 H 51.5936 3.42347 1.31127 0
M  V30 602 H 51.2416 3.31296 3.78487 0
M  V30 603 H 50.9416 4.95402 3.15992 0
M  V30 604 H 52.4656 4.59541 4.02063 0
M  V30 605 H 53.8796 5.40903 1.89992 0
M  V30 606 H 52.2766 5.86818 1.25559 0
M  V30 607 H 53.3466 4.84062 0.284894 0
M  V30 608 N 54.6897 -0.239769 1.55765 0
M  V30 609 C 56.1057 -0.588624 1.48349 0
M  V30 610 C 56.3057 -1.88005 0.72502 0
M  V30 611 O 55.3617 -2.51186 0.257269 0
M  V30 612 C 56.6747 -0.68474 2.928 0
M  V30 613 C 58.2227 -0.77659 3.03213 0
M  V30 614 C 58.6977 -0.904207 4.48986 0
M  V30 615 N 60.1887 -0.968896 4.52953 0
M  V30 616 C 60.9237 -1.08703 5.63002 0
M  V30 617 N 60.4197 -1.17026 6.82845 0
M  V30 618 N 62.2127 -1.12074 5.50814 0
M  V30 619 H 54.3637 0.607911 2.03515 0
M  V30 620 H 56.6267 0.21083 0.924259 0
M  V30 621 H 56.3327 0.194284 3.51163 0
M  V30 622 H 56.2067 -1.55435 3.43686 0
M  V30 623 H 58.5937 -1.64606 2.44926 0
M  V30 624 H 58.6747 0.118315 2.55526 0
M  V30 625 H 58.3187 -0.0392633 5.07885 0
M  V30 626 H 58.2487 -1.81426 4.9436 0
M  V30 627 H 60.7397 -0.915633 3.6664 0
M  V30 628 H 61.0527 -1.25966 7.62465 0
M  V30 629 H 59.3977 -1.13971 6.85591 0
M  V30 630 H 62.5887 -1.05226 4.5612 0
M  V30 631 H 62.7617 -1.20936 6.36615 0
M  V30 632 N 56.1678 -1.49265 -0.50573 0
M  V30 633 C 57.0998 -1.617 -1.62437 0
M  V30 634 C 58.1128 -0.499924 -1.54934 0
M  V30 635 O 59.3018 -0.771785 -1.60953 0
M  V30 636 C 56.4018 -1.5533 -3.01207 0
M  V30 637 C 55.5748 -2.8249 -3.33943 0
M  V30 638 C 54.6338 -2.69238 -4.52103 0
M  V30 639 O 53.6598 -3.43167 -4.5412 0
M  V30 640 N 54.8618 -1.80468 -5.51735 0
M  V30 641 H 57.6268 -2.58177 -1.52199 0
M  V30 642 H 55.1878 -1.46294 -0.693511 0
M  V30 643 H 57.1798 -1.44125 -3.78167 0
M  V30 644 H 55.7498 -0.667297 -3.05395 0
M  V30 645 H 54.9698 -3.08081 -2.45926 0
M  V30 646 H 56.2578 -3.66802 -3.5261 0
M  V30 647 H 55.6558 -1.19653 -5.52901 0
M  V30 648 H 54.2128 -1.75188 -6.27816 0
M  V30 649 N 57.6459 0.756429 -1.3826 0
M  V30 650 C 58.5959 1.86069 -1.31766 0
M  V30 651 C 59.5799 1.59621 -0.202483 0
M  V30 652 O 60.7719 1.7149 -0.438211 0
M  V30 653 C 57.9009 3.23742 -1.1422 0
M  V30 654 C 56.9869 3.56091 -2.30348 0
M  V30 655 N 57.3779 3.59517 -3.55783 0
M  V30 656 C 55.6759 3.86341 -2.22838 0
M  V30 657 C 56.3769 3.89052 -4.32451 0
M  V30 658 N 55.3529 4.05736 -3.61772 0
M  V30 659 H 59.1549 1.86992 -2.26741 0
M  V30 660 H 56.6689 0.953643 -1.31451 0
M  V30 661 H 58.6659 4.02761 -1.07652 0
M  V30 662 H 57.3259 3.24073 -0.201763 0
M  V30 663 H 58.3369 3.41347 -3.89491 0
M  V30 664 H 55.0139 3.94404 -1.36937 0
M  V30 665 H 56.4039 3.98349 -5.4108 0
M  V30 666 N 59.124 1.23083 0.984299 0
M  V30 667 C 60.37 1.06214 1.72761 0
M  V30 668 C 60.703 -0.400584 1.90024 0
M  V30 669 O 59.978 -1.29672 1.44967 0
M  V30 670 C 60.261 1.78375 3.12817 0
M  V30 671 C 60.114 3.32296 3.03149 0
M  V30 672 C 61.433 1.54309 4.12161 0
M  V30 673 H 58.552 0.387251 0.627061 0
M  V30 674 H 61.194 1.51536 1.14616 0
M  V30 675 H 59.344 1.39848 3.62457 0
M  V30 676 H 61.016 3.8032 2.61064 0
M  V30 677 H 59.259 3.6153 2.39747 0
M  V30 678 H 59.93 3.77972 4.02295 0
M  V30 679 H 62.406 1.87791 3.71314 0
M  V30 680 H 61.282 2.07281 5.08258 0
M  V30 681 H 61.543 0.477572 4.39513 0
M  V30 682 N 60.6021 -1.18246 1.0419 0
M  V30 683 C 61.5521 -2.19843 0.604392 0
M  V30 684 C 62.5361 -1.56962 -0.353814 0
M  V30 685 O 63.7281 -1.76156 -0.17267 0
M  V30 686 C 60.8571 -3.43287 -0.0298975 0
M  V30 687 C 59.9431 -4.13288 0.951531 0
M  V30 688 N 60.3341 -4.59271 2.11906 0
M  V30 689 C 58.6321 -4.39165 0.7778 0
M  V30 690 C 59.3331 -5.13173 2.73912 0
M  V30 691 N 58.3091 -5.04763 2.01779 0
M  V30 692 H 62.1111 -2.53089 1.4941 0
M  V30 693 H 59.6251 -1.34465 0.910658 0
M  V30 694 H 61.6221 -4.15334 -0.361037 0
M  V30 695 H 60.2821 -3.11537 -0.915127 0
M  V30 696 H 61.2931 -4.5368 2.49789 0
M  V30 697 H 57.9701 -4.17461 -0.0572331 0
M  V30 698 H 59.3601 -5.58947 3.72864 0
M  V30 699 N 62.0802 -0.821533 -1.34494 0
M  V30 700 C 63.4912 -0.467956 -1.8074 0
M  V30 701 C 63.8422 1.01151 -1.68116 0
M  V30 702 O 62.9672 1.78707 -1.22036 0
M  V30 703 C 63.5622 -0.842627 -3.28154 0
M  V30 704 C 62.1212 -0.541439 -3.72485 0
M  V30 705 C 61.2682 -1.06028 -2.56229 0
M  V30 706 H 64.2192 -1.01183 -1.22261 0
M  V30 707 H 64.2402 -0.145876 -3.8022 0
M  V30 708 H 63.7522 -1.91945 -3.37311 0
M  V30 709 H 61.8532 0.526034 -3.68868 0
M  V30 710 H 61.9662 -1.08453 -4.66663 0
M  V30 711 H 60.3302 -0.481892 -2.501 0
M  V30 712 H 61.1132 -2.14352 -2.68157 0
M  V30 713 N 63.5583 1.46682 -0.576371 0
M  V30 714 C 64.4683 2.34032 0.163141 0
M  V30 715 C 65.4843 1.49367 0.892501 0
M  V30 716 O 66.6603 1.82252 0.857106 0
M  V30 717 C 63.7253 3.26435 1.16795 0
M  V30 718 C 62.7863 4.26998 0.443944 0
M  V30 719 C 62.0193 5.14986 1.40088 0
M  V30 720 O 62.2423 5.05785 2.637 0
M  V30 721 O 61.1763 5.94906 0.914917 0
M  V30 722 H 65.0023 2.98607 -0.55388 0
M  V30 723 H 62.5873 1.45554 -0.336821 0
M  V30 724 H 64.4693 3.83459 1.74748 0
M  V30 725 H 63.1443 2.64465 1.86655 0
M  V30 726 H 62.0513 3.7368 -0.177271 0
M  V30 727 H 63.3843 4.91736 -0.213566 0
M  V30 728 N 65.0364 0.313813 1.54444 0
M  V30 729 C 65.9464 -0.565714 2.27677 0
M  V30 730 C 66.9624 -1.13754 1.31666 0
M  V30 731 O 68.1384 -1.15959 1.64668 0
M  V30 732 C 65.2034 -1.71528 3.01296 0
M  V30 733 C 64.2644 -1.17624 4.12872 0
M  V30 734 C 63.4974 -2.27102 4.8297 0
M  V30 735 O 63.7204 -3.47256 4.52514 0
M  V30 736 O 62.6544 -1.9307 5.70094 0
M  V30 737 H 66.4804 0.0287296 3.03686 0
M  V30 738 H 64.0654 0.0798312 1.49187 0
M  V30 739 H 65.9474 -2.38476 3.4743 0
M  V30 740 H 64.6224 -2.29608 2.2817 0
M  V30 741 H 63.5294 -0.472124 3.71109 0
M  V30 742 H 64.8624 -0.640695 4.88012 0
M  V30 743 N 66.5145 -1.57545 0.0417849 0
M  V30 744 C 67.7425 -1.96624 -0.643928 0
M  V30 745 C 68.1575 -0.918897 -1.64929 0
M  V30 746 O 67.5145 0.0979323 -1.82237 0
M  V30 747 C 67.5655 -3.35781 -1.33914 0
M  V30 748 O 67.2865 -4.365 -0.374048 0
M  V30 749 C 68.7875 -3.89566 -2.1155 0
M  V30 750 H 66.0075 -0.647316 -0.176702 0
M  V30 751 H 68.5515 -2.04229 0.105304 0
M  V30 752 H 66.7065 -3.29357 -2.03968 0
M  V30 753 H 67.1205 -5.17248 -0.869179 0
M  V30 754 H 68.5945 -4.89242 -2.55628 0
M  V30 755 H 69.0715 -3.24488 -2.9598 0
M  V30 756 H 69.6775 -3.99298 -1.46427 0
M  V30 757 N 67.9926 0.231505 -1.5589 0
M  V30 758 C 69.2406 0.955461 -1.78088 0
M  V30 759 C 69.5616 1.85262 -0.608533 0
M  V30 760 O 68.8316 1.92277 0.375035 0
M  V30 761 H 67.4116 0.355787 -0.656829 0
M  V30 762 H 70.0736 0.245751 -1.93344 0
M  V30 763 H 69.1696 1.56814 -2.69844 0
M  V30 764 N 69.4707 1.49531 0.497807 0
M  V30 765 C 70.7187 1.58865 1.24926 0
M  V30 766 C 71.0397 0.278721 1.92998 0
M  V30 767 O 70.3097 -0.702144 1.82885 0
M  V30 768 H 68.8897 0.585343 0.464094 0
M  V30 769 H 71.5517 1.86174 0.57666 0
M  V30 770 H 70.6477 2.38633 2.01149 0
M  V30 771 N 70.9488 -0.749086 1.3866 0
M  V30 772 C 72.1738 -1.54344 1.38538 0
M  V30 773 C 72.5988 -1.88088 -0.0216655 0
M  V30 774 O 71.9568 -1.50899 -1.00494 0
M  V30 775 C 72.0048 -2.8164 2.25192 0
M  V30 776 O 71.1088 -3.7698 1.67212 0
M  V30 777 H 70.4498 -0.466654 0.472367 0
M  V30 778 H 72.9798 -0.925355 1.82478 0
M  V30 779 H 72.9898 -3.30519 2.3921 0
M  V30 780 H 71.6648 -2.56411 3.27454 0
M  V30 781 H 70.2418 -3.35699 1.6236 0
M  V30 782 N 72.4269 -1.23603 -0.977757 0
M  V30 783 C 73.7039 -0.977897 -1.69401 0
M  V30 784 C 74.0839 0.502738 -2.05026 0
M  V30 785 O 73.4319 1.47459 -1.74551 0
M  V30 786 C 73.6419 -1.89077 -2.93345 0
M  V30 787 C 74.9899 -2.15579 -3.65802 0
M  V30 788 O 76.0139 -1.86648 -3.03383 0
M  V30 789 O 74.8729 -2.64658 -4.78141 0
M  V30 790 H 71.9669 -0.369025 -0.740101 0
M  V30 791 H 74.5129 -1.34657 -1.03274 0
M  V30 792 H 73.2849 -2.89158 -2.63634 0
M  V30 793 H 72.9079 -1.52463 -3.67207 0
M  V30 794 N 73.905 1.17692 -1.04816 0
M  V30 795 C 75.321 1.39863 -0.768794 0
M  V30 796 C 75.521 1.91118 0.638451 0
M  V30 797 O 74.577 2.10036 1.40146 0
M  V30 798 C 75.89 2.39274 -1.82122 0
M  V30 799 C 77.438 2.52987 -1.843 0
M  V30 800 C 77.913 3.55669 -2.88555 0
M  V30 801 N 79.404 3.63183 -2.87493 0
M  V30 802 C 80.139 4.42381 -3.64811 0
M  V30 803 N 79.635 5.25125 -4.51903 0
M  V30 804 N 81.428 4.37217 -3.53267 0
M  V30 805 H 73.579 0.82752 -1.95617 0
M  V30 806 H 75.842 0.426123 -0.846831 0
M  V30 807 H 75.548 2.08678 -2.83102 0
M  V30 808 H 75.422 3.38725 -1.65967 0
M  V30 809 H 77.809 2.82896 -0.839869 0
M  V30 810 H 77.89 1.53623 -2.04532 0
M  V30 811 H 77.534 3.26499 -3.89051 0
M  V30 812 H 77.464 4.54728 -2.65575 0
M  V30 813 H 79.955 3.04103 -2.24343 0
M  V30 814 H 80.268 5.82728 -5.07591 0
M  V30 815 H 78.613 5.24519 -4.55966 0
M  V30 816 H 81.804 3.71626 -2.84625 0
M  V30 817 H 81.977 4.98696 -4.13771 0
M  V30 818 N 75.3831 0.828654 1.34056 0
M  V30 819 C 76.6131 0.431993 2.02033 0
M  V30 820 C 77.0211 -0.96844 1.62536 0
M  V30 821 O 76.3641 -1.6391 0.829408 0
M  V30 822 C 76.4261 0.461224 3.56529 0
M  V30 823 C 76.0901 1.81599 4.1937 0
M  V30 824 C 77.0871 2.7777 4.39477 0
M  V30 825 C 74.7721 2.10604 4.56017 0
M  V30 826 C 76.7661 4.01115 4.95364 0
M  V30 827 C 74.4531 3.34207 5.11614 0
M  V30 828 C 75.4511 4.2928 5.31232 0
M  V30 829 O 75.1391 5.50699 5.8565 0
M  V30 830 H 74.8711 0.170943 0.654029 0
M  V30 831 H 77.4251 1.11988 1.72185 0
M  V30 832 H 75.6551 -0.283388 3.8566 0
M  V30 833 H 77.3441 0.0838149 4.05813 0
M  V30 834 H 78.1101 2.56659 4.11523 0
M  V30 835 H 73.9891 1.37402 4.40047 0
M  V30 836 H 77.5331 4.75333 5.10592 0
M  V30 837 H 73.4301 3.55179 5.38997 0
M  V30 838 H 74.1981 5.52298 6.04077 0
M  V30 839 N 76.8612 -1.46375 0.584142 0
M  V30 840 C 78.1012 -2.0427 0.0729695 0
M  V30 841 C 78.4652 -1.44563 -1.26355 0
M  V30 842 O 79.6662 -1.93667 -1.86405 0
M  V30 843 C 77.9372 -3.57399 0.00967464 0
M  V30 844 S 79.4962 -4.36551 -0.443714 0
M  V30 845 H 76.3142 -0.709975 0.0381673 0
M  V30 846 H 78.9162 -1.79398 0.776962 0
M  V30 847 H 77.6202 -3.98372 0.986319 0
M  V30 848 H 77.1512 -3.8681 -0.717044 0
M  V30 849 H 79.1662 -4.66237 -1.69816 0
M  V30 850 N 78.3393 -0.321999 -1.54275 0
M  V30 851 C 79.2873 0.560206 -2.25753 0
M  V30 852 C 80.2813 1.11984 -1.27106 0
M  V30 853 O 81.4873 1.06806 -1.44888 0
M  V30 854 H 77.8623 0.199304 -0.725108 0
M  V30 855 H 79.8333 -0.0649365 -2.98329 0
M  V30 856 C 78.5823 1.71023 -3.02731 0
M  V30 857 H 77.9053 1.28885 -3.78456 0
M  V30 858 H 79.3453 2.30314 -3.55993 0
M  V30 859 C 77.8043 2.62692 -2.10938 0
M  V30 860 O 78.3343 3.64364 -1.6912 0
M  V30 861 N 76.5403 2.30891 -1.76459 0
M  V30 862 H 76.0873 1.48253 -2.10663 0
M  V30 863 H 76.0453 2.92487 -1.1532 0
M  V30 864 N 79.8174 1.5752 -0.0501392 0
M  V30 865 C 80.7474 2.14502 0.922566 0
M  V30 866 C 81.7284 1.06642 1.3252 0
M  V30 867 O 82.9134 1.34577 1.4001 0
M  V30 868 C 80.0434 2.68916 2.19776 0
M  V30 869 C 78.9974 3.8175 1.93523 0
M  V30 870 C 78.3234 4.22677 3.27487 0
M  V30 871 C 79.6234 5.06932 1.25765 0
M  V30 872 H 81.3174 2.9603 0.447952 0
M  V30 873 H 78.8634 1.42401 0.214024 0
M  V30 874 H 80.8164 3.07419 2.88222 0
M  V30 875 H 79.5404 1.84578 2.69441 0
M  V30 876 H 78.1994 3.43718 1.27489 0
M  V30 877 H 77.8474 3.35291 3.74952 0
M  V30 878 H 77.5474 4.98725 3.1072 0
M  V30 879 H 79.0714 4.63779 3.97166 0
M  V30 880 H 80.4854 5.42888 1.84244 0
M  V30 881 H 78.8824 5.88116 1.19328 0
M  V30 882 H 79.9524 4.84337 0.233536 0
M  V30 883 N 81.2955 -0.223234 1.56011 0
M  V30 884 C 82.2285 -1.30377 1.87289 0
M  V30 885 C 83.2065 -1.45286 0.730112 0
M  V30 886 O 84.3905 -1.61126 0.978302 0
M  V30 887 C 81.5175 -2.67431 2.07843 0
M  V30 888 C 80.5635 -2.69546 3.30526 0
M  V30 889 S 81.3965 -2.23781 4.865 0
M  V30 890 C 82.5525 -3.62714 5.10088 0
M  V30 891 H 82.7855 -1.03652 2.78646 0
M  V30 892 H 80.3185 -0.425393 1.48424 0
M  V30 893 H 82.2765 -3.46336 2.20368 0
M  V30 894 H 80.9375 -2.91381 1.17285 0
M  V30 895 H 80.1305 -3.70255 3.41947 0
M  V30 896 H 79.7325 -1.98703 3.16849 0
M  V30 897 H 82.0245 -4.58391 4.98883 0
M  V30 898 H 82.9675 -3.5621 6.11981 0
M  V30 899 H 83.3755 -3.56323 4.37829 0
M  V30 900 N 82.7736 -1.49793 -0.48987 0
M  V30 901 C 83.7066 -1.61898 -1.60823 0
M  V30 902 C 84.6846 -0.467651 -1.5573 0
M  V30 903 O 85.8686 -0.684682 -1.75626 0
M  V30 904 C 82.9956 -1.58422 -2.99366 0
M  V30 905 C 82.0416 -2.78889 -3.22682 0
M  V30 906 S 82.8746 -4.40429 -3.04602 0
M  V30 907 C 84.0306 -4.39617 -4.4552 0
M  V30 908 H 84.2636 -2.56502 -1.50312 0
M  V30 909 H 81.7966 -1.38822 -0.675849 0
M  V30 910 H 83.7546 -1.57103 -3.79248 0
M  V30 911 H 82.4156 -0.650866 -3.07283 0
M  V30 912 H 81.6086 -2.72708 -4.23847 0
M  V30 913 H 81.2106 -2.77678 -2.50541 0
M  V30 914 H 83.5026 -4.12022 -5.37814 0
M  V30 915 H 84.4456 -5.41097 -4.56749 0
M  V30 916 H 84.8536 -3.69554 -4.2672 0
M  V30 917 N 84.2517 0.741722 -1.39055 0
M  V30 918 C 85.1837 1.8657 -1.33133 0
M  V30 919 C 86.1967 1.61001 -0.241329 0
M  V30 920 O 87.3857 1.7136 -0.499784 0
M  V30 921 C 84.4857 3.22457 -1.04283 0
M  V30 922 C 83.6587 3.75435 -2.24427 0
M  V30 923 C 82.7177 4.89867 -1.92138 0
M  V30 924 O 81.7437 5.03879 -2.64754 0
M  V30 925 N 82.9457 5.73738 -0.88347 0
M  V30 926 H 85.7107 1.92156 -2.29991 0
M  V30 927 H 83.2717 0.922172 -1.3307 0
M  V30 928 H 85.2637 3.9657 -0.807128 0
M  V30 929 H 83.8337 3.12181 -0.161807 0
M  V30 930 H 83.0537 2.92751 -2.6399 0
M  V30 931 H 84.3417 4.07563 -3.04581 0
M  V30 932 H 83.7397 5.64999 -0.281517 0
M  V30 933 H 82.2967 6.47947 -0.707662 0
M  V30 934 N 85.7298 1.2412 0.971189 0
M  V30 935 C 87.1458 1.00584 1.23916 0
M  V30 936 C 87.3458 -0.287481 1.99439 0
M  V30 937 O 86.4018 -1.00454 2.31658 0
M  V30 938 C 87.7148 2.21864 2.0297 0
M  V30 939 C 89.2628 2.26452 2.16076 0
M  V30 940 C 89.7378 3.47343 2.98524 0
M  V30 941 N 91.2288 3.47639 3.06107 0
M  V30 942 C 91.9638 4.37837 3.70251 0
M  V30 943 N 91.4598 5.38286 4.36142 0
M  V30 944 N 93.2528 4.25558 3.67228 0
M  V30 945 H 85.4038 2.07236 0.465499 0
M  V30 946 H 87.6668 0.909236 0.268315 0
M  V30 947 H 87.3728 3.15771 1.54861 0
M  V30 948 H 87.2468 2.23698 3.03709 0
M  V30 949 H 89.6338 1.33078 2.6339 0
M  V30 950 H 89.7148 2.28645 1.14696 0
M  V30 951 H 89.3588 4.41029 2.51905 0
M  V30 952 H 89.2888 3.42393 4.00093 0
M  V30 953 H 91.7798 2.74966 2.59233 0
M  V30 954 H 92.0928 6.03352 4.82894 0
M  V30 955 H 90.4378 5.42176 4.34822 0
M  V30 956 H 93.6288 3.46322 3.14927 0
M  V30 957 H 93.8018 4.96054 4.16935 0
M  V30 958 N 87.2079 -1.17134 1.05439 0
M  V30 959 C 88.6239 -1.39454 0.776201 0
M  V30 960 C 88.8239 -1.91454 -0.628307 0
M  V30 961 O 87.8799 -2.10777 -1.39031 0
M  V30 962 C 89.1929 -2.38305 1.83388 0
M  V30 963 C 90.7409 -2.52006 1.85639 0
M  V30 964 C 91.2159 -3.54133 2.90437 0
M  V30 965 N 92.7069 -3.61653 2.89415 0
M  V30 966 C 93.4419 -4.4044 3.67152 0
M  V30 967 N 92.9379 -5.22721 4.54681 0
M  V30 968 N 94.7309 -4.35337 3.55581 0
M  V30 969 H 86.8819 -0.817134 1.96053 0
M  V30 970 H 89.1449 -0.421626 0.849079 0
M  V30 971 H 88.8509 -2.07173 2.84204 0
M  V30 972 H 88.7249 -3.37841 1.67761 0
M  V30 973 H 91.1119 -2.82447 0.85486 0
M  V30 974 H 91.1929 -1.52537 2.05344 0
M  V30 975 H 90.8369 -3.24431 3.90777 0
M  V30 976 H 90.7669 -4.53313 2.67983 0
M  V30 977 H 93.2579 -3.02909 2.25952 0
M  V30 978 H 93.5709 -5.80027 5.10674 0
M  V30 979 H 91.9159 -5.22093 4.58741 0
M  V30 980 H 95.1069 -3.70112 2.86592 0
M  V30 981 H 95.2799 -4.96494 4.1641 0
M  V30 982 N 88.686 -0.835752 -1.33615 0
M  V30 983 C 89.633 -0.26473 -2.29277 0
M  V30 984 C 90.603 0.617712 -1.54187 0
M  V30 985 O 91.788 0.556641 -1.825 0
M  V30 986 C 88.928 0.556777 -3.40579 0
M  V30 987 C 88.041 -0.349339 -4.30585 0
M  V30 988 C 87.176 0.482969 -5.29 0
M  V30 989 C 86.215 -0.421732 -6.10645 0
M  V30 990 N 85.352 0.372262 -7.01112 0
M  V30 991 H 90.192 -1.08582 -2.77514 0
M  V30 992 H 87.729 -0.546927 -1.36554 0
M  V30 993 H 89.687 1.04852 -4.03809 0
M  V30 994 H 88.317 1.34286 -2.93542 0
M  V30 995 H 87.369 -0.959372 -3.68104 0
M  V30 996 H 88.681 -1.04445 -4.87742 0
M  V30 997 H 87.835 1.03866 -5.97743 0
M  V30 998 H 86.574 1.21153 -4.72412 0
M  V30 999 H 85.579 -0.989464 -5.40823 0
M  V30 1000 H 86.804 -1.14861 -6.69316 0
M  V30 1001 H 84.75 1.08426 -6.46977 0
M  V30 1002 H 84.667 -0.264198 -7.55538 0
M  V30 1003 H 85.935 0.910293 -7.74167 0
M  V30 1004 N 90.1641 1.46063 -0.591896 0
M  V30 1005 C 91.0971 2.27452 0.184617 0
M  V30 1006 C 92.0751 1.36188 0.888351 0
M  V30 1007 O 93.2591 1.65606 0.90039 0
M  V30 1008 C 90.3861 3.14162 1.26571 0
M  V30 1009 C 89.4321 4.21255 0.666814 0
M  V30 1010 S 90.2651 5.33034 -0.513345 0
M  V30 1011 C 91.4211 6.23311 0.56872 0
M  V30 1012 H 91.6541 2.92963 -0.505939 0
M  V30 1013 H 89.1871 1.49676 -0.379014 0
M  V30 1014 H 91.1451 3.6468 1.88463 0
M  V30 1015 H 89.8061 2.47946 1.92826 0
M  V30 1016 H 88.9991 4.81788 1.47974 0
M  V30 1017 H 88.6011 3.73797 0.123359 0
M  V30 1018 H 90.8931 6.61758 1.45198 0
M  V30 1019 H 91.8361 7.081 -7.23824e-05 0
M  V30 1020 H 92.2441 5.57646 0.876996 0
M  V30 1021 N 91.6422 0.330177 1.54103 0
M  V30 1022 C 92.8702 -0.272179 2.05102 0
M  V30 1023 C 93.2852 -1.45267 1.20595 0
M  V30 1024 O 92.6422 -1.8094 0.238144 0
M  V30 1025 C 92.6932 -0.70023 3.54653 0
M  V30 1026 O 92.4142 0.433301 4.35952 0
M  V30 1027 C 93.9152 -1.3647 4.21771 0
M  V30 1028 H 91.1352 -0.0549159 0.668749 0
M  V30 1029 H 93.6792 0.478285 1.98828 0
M  V30 1030 H 91.8342 -1.40066 3.61193 0
M  V30 1031 H 92.2482 0.0947539 5.24414 0
M  V30 1032 H 93.7222 -1.61509 5.27843 0
M  V30 1033 H 94.1992 -2.31409 3.73292 0
M  V30 1034 H 94.8052 -0.706675 4.19388 0
M  V30 1035 N 93.1203 -1.57491 0.0584922 0
M  V30 1036 C 94.0503 -2.14988 -0.911178 0
M  V30 1037 C 95.0313 -1.07343 -1.31952 0
M  V30 1038 O 96.2163 -1.35318 -1.39294 0
M  V30 1039 C 93.3463 -2.70078 -2.18347 0
M  V30 1040 C 92.3003 -3.82771 -1.91495 0
M  V30 1041 C 91.6263 -4.24408 -3.25241 0
M  V30 1042 C 92.9263 -5.07592 -1.23075 0
M  V30 1043 H 94.6203 -2.96263 -0.432246 0
M  V30 1044 H 92.1663 -1.42512 -0.206469 0
M  V30 1045 H 94.1193 -3.08943 -2.86587 0
M  V30 1046 H 92.8433 -1.86005 -2.68458 0
M  V30 1047 H 91.5023 -3.44389 -1.25664 0
M  V30 1048 H 91.1503 -3.37275 -3.73168 0
M  V30 1049 H 90.8503 -5.00366 -3.08071 0
M  V30 1050 H 92.3743 -4.65879 -3.94701 0
M  V30 1051 H 93.7883 -5.43857 -1.81362 0
M  V30 1052 H 92.1853 -5.88741 -1.16207 0
M  V30 1053 H 93.2553 -4.84454 -0.207847 0
M  V30 1054 N 94.5984 0.214957 -1.56127 0
M  V30 1055 C 95.8284 0.953707 -1.8327 0
M  V30 1056 C 96.2364 1.78181 -0.636262 0
M  V30 1057 O 95.5794 1.79191 0.404516 0
M  V30 1058 C 95.6414 1.91516 -3.0424 0
M  V30 1059 C 95.3054 1.27094 -4.38972 0
M  V30 1060 C 96.3024 0.657575 -5.15725 0
M  V30 1061 C 93.9874 1.28073 -4.85698 0
M  V30 1062 C 95.9814 0.0625968 -6.37369 0
M  V30 1063 C 93.6684 0.681914 -6.07283 0
M  V30 1064 C 94.6664 0.0739046 -6.8296 0
M  V30 1065 O 94.3544 -0.515582 -8.02245 0
M  V30 1066 H 94.0864 0.284764 -0.613095 0
M  V30 1067 H 96.6404 0.233283 -2.04071 0
M  V30 1068 H 94.8704 2.67475 -2.79274 0
M  V30 1069 H 96.5594 2.52001 -3.18198 0
M  V30 1070 H 97.3254 0.642288 -4.80728 0
M  V30 1071 H 93.2044 1.74337 -4.26764 0
M  V30 1072 H 96.7484 -0.412593 -6.96379 0
M  V30 1073 H 92.6454 0.694636 -6.41752 0
M  V30 1074 H 93.4134 -0.410544 -8.1747 0
M  V30 1075 N 96.0765 1.50051 0.48192 0
M  V30 1076 C 97.0265 1.64512 1.5786 0
M  V30 1077 C 98.0105 0.500073 1.52932 0
M  V30 1078 O 99.2025 0.753964 1.60139 0
M  V30 1079 C 96.3315 1.73263 2.9637 0
M  V30 1080 C 95.4175 2.93409 3.06222 0
M  V30 1081 N 95.8085 4.17236 2.85915 0
M  V30 1082 C 94.1065 2.91742 3.37346 0
M  V30 1083 C 94.8075 4.981 3.00451 0
M  V30 1084 N 93.7835 4.3184 3.30174 0
M  V30 1085 H 97.5855 2.57955 1.40842 0
M  V30 1086 H 95.0995 1.47086 0.688439 0
M  V30 1087 H 97.0965 1.81724 3.75209 0
M  V30 1088 H 95.7565 0.809711 3.14442 0
M  V30 1089 H 96.7675 4.46909 2.6171 0
M  V30 1090 H 93.4445 2.08907 3.61475 0
M  V30 1091 H 94.8345 6.06532 2.89082 0
M  V30 1092 N 97.5546 -0.734337 1.39446 0
M  V30 1093 C 98.7946 -1.50655 1.38139 0
M  V30 1094 C 99.1586 -1.91986 -0.0228701 0
M  V30 1095 O 100.36 -2.68318 -0.160947 0
M  V30 1096 C 98.6306 -2.71251 2.32718 0
M  V30 1097 S 100.19 -3.60892 2.49605 0
M  V30 1098 H 97.0076 -0.515315 0.489869 0
M  V30 1099 H 99.6096 -0.860392 1.75549 0
M  V30 1100 H 98.3136 -2.39027 3.33608 0
M  V30 1101 H 97.8446 -3.40795 1.96526 0
M  V30 1102 H 99.8596 -4.64899 1.73446 0
M  V30 1103 N 99.0327 -1.24633 -0.964593 0
M  V30 1104 C 99.9797 -1.04144 -2.05968 0
M  V30 1105 C 100.95 0.046262 -1.66036 0
M  V30 1106 O 102.135 -0.108972 -1.90489 0
M  V30 1107 C 99.2747 -0.65563 -3.38815 0
M  V30 1108 C 98.3877 -1.81714 -3.91923 0
M  V30 1109 C 97.5227 -1.37662 -5.13052 0
M  V30 1110 C 96.5617 -2.50788 -5.58365 0
M  V30 1111 N 95.6987 -2.07582 -6.70712 0
M  V30 1112 H 100.539 -1.9787 -2.22827 0
M  V30 1113 H 98.0757 -0.9855 -1.09208 0
M  V30 1114 H 100.034 -0.412954 -4.15151 0
M  V30 1115 H 98.6637 0.244627 -3.21872 0
M  V30 1116 H 97.7157 -2.1734 -3.12198 0
M  V30 1117 H 99.0277 -2.66705 -4.21509 0
M  V30 1118 H 98.1817 -1.093 -5.96773 0
M  V30 1119 H 96.9207 -0.497293 -4.85158 0
M  V30 1120 H 95.9257 -2.79906 -4.73215 0
M  V30 1121 H 97.1507 -3.39283 -5.88272 0
M  V30 1122 H 95.0967 -1.22051 -6.44546 0
M  V30 1123 H 95.0137 -2.86125 -6.99763 0
M  V30 1124 H 96.2817 -1.82369 -7.57867 0
M  V30 1125 N 100.511 1.16574 -1.06058 0
M  V30 1126 C 101.927 1.3904 -0.783585 0
M  V30 1127 C 102.127 1.91784 0.618145 0
M  V30 1128 O 101.183 2.11511 1.37911 0
M  V30 1129 C 102.496 2.37329 -1.84649 0
M  V30 1130 C 104.044 2.51018 -1.86973 0
M  V30 1131 C 104.519 3.52588 -2.92311 0
M  V30 1132 N 106.01 3.60113 -2.91329 0
M  V30 1133 C 106.745 4.38486 -3.69482 0
M  V30 1134 N 106.241 5.20302 -4.57447 0
M  V30 1135 N 108.034 4.33446 -3.57885 0
M  V30 1136 H 100.185 0.806725 -1.96483 0
M  V30 1137 H 102.448 0.417117 -0.851303 0
M  V30 1138 H 102.154 2.05663 -2.85299 0
M  V30 1139 H 102.028 3.36946 -1.6955 0
M  V30 1140 H 104.415 2.81989 -0.869827 0
M  V30 1141 H 104.496 1.51445 -2.0615 0
M  V30 1142 H 104.14 3.22354 -3.92492 0
M  V30 1143 H 104.07 4.51886 -2.70383 0
M  V30 1144 H 106.561 3.01707 -2.27555 0
M  V30 1145 H 106.874 5.77311 -5.13743 0
M  V30 1146 H 105.219 5.19653 -4.61503 0
M  V30 1147 H 108.41 3.68586 -2.88551 0
M  V30 1148 H 108.583 4.94279 -4.19037 0
M  V30 1149 N 101.989 0.842826 1.3317 0
M  V30 1150 C 103.236 0.440447 1.97652 0
M  V30 1151 C 103.564 -1.00123 1.6675 0
M  V30 1152 O 102.819 -1.7155 0.941761 0
M  V30 1153 C 103.118 0.612607 3.52111 0
M  V30 1154 C 102.784 2.02297 4.02972 0
M  V30 1155 C 101.446 2.40874 4.16573 0
M  V30 1156 C 103.798 2.94402 4.30089 0
M  V30 1157 C 101.126 3.70852 4.54627 0
M  V30 1158 C 103.478 4.23865 4.69597 0
M  V30 1159 C 102.142 4.62392 4.81404 0
M  V30 1160 H 101.412 0.161171 0.72326 0
M  V30 1161 H 104.059 1.07061 1.58777 0
M  V30 1162 H 102.364 -0.100849 3.9167 0
M  V30 1163 H 104.061 0.2815 4.00011 0
M  V30 1164 H 100.651 1.71338 3.92863 0
M  V30 1165 H 104.835 2.65835 4.19101 0
M  V30 1166 H 100.091 4.00501 4.61962 0
M  V30 1167 H 104.265 4.95306 4.89536 0
M  V30 1168 H 101.892 5.63154 5.10648 0
M  V30 1169 N 103.467 -1.45747 0.599634 0
M  V30 1170 C 104.415 -2.322 -0.136426 0
M  V30 1171 C 105.409 -1.45497 -0.867583 0
M  V30 1172 O 106.615 -1.62027 -0.78405 0
M  V30 1173 H 102.99 -0.749368 -0.0628588 0
M  V30 1174 H 104.961 -2.92072 0.611281 0
M  V30 1175 C 103.71 -3.28974 -1.12567 0
M  V30 1176 H 103.033 -3.9568 -0.572484 0
M  V30 1177 H 104.473 -3.92212 -1.61077 0
M  V30 1178 C 102.932 -2.55561 -2.19523 0
M  V30 1179 O 103.462 -2.33111 -3.27143 0
M  V30 1180 N 101.668 -2.15832 -1.94589 0
M  V30 1181 H 101.215 -2.3429 -1.07078 0
M  V30 1182 H 101.173 -1.67034 -2.66359 0
M  V30 1183 N 104.945 -0.338344 -1.53925 0
M  V30 1184 C 106.173 0.261298 -2.05243 0
M  V30 1185 C 106.588 1.44625 -1.21363 0
M  V30 1186 O 105.945 1.80811 -0.247736 0
M  V30 1187 C 105.996 0.681412 -3.5502 0
M  V30 1188 O 105.717 -0.456414 -4.35716 0
M  V30 1189 C 107.218 1.34232 -4.22489 0
M  V30 1190 H 104.438 0.0513685 -0.669031 0
M  V30 1191 H 106.982 -0.488822 -1.98572 0
M  V30 1192 H 105.137 1.38148 -3.61931 0
M  V30 1193 H 105.551 -0.122564 -5.24357 0
M  V30 1194 H 107.025 1.58708 -5.28693 0
M  V30 1195 H 107.502 2.29426 -3.74514 0
M  V30 1196 H 108.108 0.684424 -4.19757 0
M  V30 1197 N 106.423 1.57458 -0.0668435 0
M  V30 1198 C 107.67 1.93301 0.603406 0
M  V30 1199 C 107.998 0.946486 1.69917 0
M  V30 1200 O 107.253 -0.0387021 1.95662 0
M  V30 1201 C 107.552 3.35784 1.22409 0
M  V30 1202 C 107.218 4.50179 0.254955 0
M  V30 1203 C 105.88 4.81199 -0.0116746 0
M  V30 1204 C 108.232 5.19598 -0.408338 0
M  V30 1205 C 105.56 5.78978 -0.94877 0
M  V30 1206 C 107.912 6.18381 -1.33372 0
M  V30 1207 C 106.576 6.47821 -1.60887 0
M  V30 1208 H 105.846 0.707338 0.220802 0
M  V30 1209 H 108.493 1.91012 -0.136665 0
M  V30 1210 H 106.798 3.34515 2.03978 0
M  V30 1211 H 108.495 3.60804 1.74989 0
M  V30 1212 H 105.085 4.25983 0.472954 0
M  V30 1213 H 109.269 4.95832 -0.215456 0
M  V30 1214 H 104.525 6.00115 -1.16925 0
M  V30 1215 H 108.699 6.71277 -1.85367 0
M  V30 1216 H 106.326 7.23399 -2.33661 0
M  V30 1217 N 107.901 -0.206675 1.56239 0
M  V30 1218 C 109.15 -0.926964 1.79138 0
M  V30 1219 C 109.463 -1.84901 0.638043 0
M  V30 1220 O 110.669 -2.60906 0.751033 0
M  V30 1221 C 109.125 -1.6986 3.17294 0
M  V30 1222 C 108.733 -0.821956 4.40395 0
M  V30 1223 C 110.477 -2.40922 3.4951 0
M  V30 1224 C 108.384 -1.59179 5.69575 0
M  V30 1225 H 107.314 -0.349864 0.667915 0
M  V30 1226 H 109.965 -0.180487 1.8261 0
M  V30 1227 H 108.347 -2.48853 3.08039 0
M  V30 1228 H 109.521 -0.0715019 4.60745 0
M  V30 1229 H 107.836 -0.222741 4.15804 0
M  V30 1230 H 110.433 -2.99047 4.43255 0
M  V30 1231 H 110.776 -3.14542 2.72707 0
M  V30 1232 H 111.309 -1.68905 3.60161 0
M  V30 1233 H 108.048 -0.898589 6.49312 0
M  V30 1234 H 107.568 -2.31648 5.53262 0
M  V30 1235 H 109.247 -2.14862 6.10281 0
M  V30 1236 N 109.379 -1.50304 -0.473955 0
M  V30 1237 C 110.329 -1.65347 -1.56985 0
M  V30 1238 C 111.313 -0.508176 -1.52664 0
M  V30 1239 O 112.505 -0.762446 -1.59737 0
M  V30 1240 C 109.634 -1.74832 -2.95447 0
M  V30 1241 C 108.72 -2.95028 -3.04662 0
M  V30 1242 N 109.111 -4.18747 -2.83698 0
M  V30 1243 C 107.409 -2.93527 -3.35795 0
M  V30 1244 C 108.11 -4.99687 -2.97805 0
M  V30 1245 N 107.086 -4.33585 -3.2788 0
M  V30 1246 H 110.888 -2.58698 -1.39472 0
M  V30 1247 H 108.402 -1.47449 -0.680629 0
M  V30 1248 H 110.399 -1.83712 -3.7424 0
M  V30 1249 H 109.059 -0.826376 -3.14008 0
M  V30 1250 H 110.07 -4.48291 -2.59337 0
M  V30 1251 H 106.747 -2.10821 -3.60362 0
M  V30 1252 H 108.137 -6.08057 -2.85861 0
M  V30 1253 N 110.857 0.726932 -1.39834 0
M  V30 1254 C 111.767 1.87131 -1.41489 0
M  V30 1255 C 112.783 1.71239 -0.308757 0
M  V30 1256 O 113.959 1.93701 -0.551529 0
M  V30 1257 C 111.024 3.22811 -1.26468 0
M  V30 1258 C 110.085 3.51039 -2.47124 0
M  V30 1259 C 109.318 4.80245 -2.3281 0
M  V30 1260 O 109.541 5.54537 -1.33585 0
M  V30 1261 O 108.475 5.08554 -3.21957 0
M  V30 1262 H 112.301 1.8869 -2.3797 0
M  V30 1263 H 109.886 0.875837 -1.21035 0
M  V30 1264 H 111.768 4.03877 -1.20255 0
M  V30 1265 H 110.443 3.22005 -0.330862 0
M  V30 1266 H 109.35 2.70027 -2.58914 0
M  V30 1267 H 110.683 3.56632 -3.39227 0
M  V30 1268 N 112.336 1.25143 0.95797 0
M  V30 1269 C 113.613 1.00472 1.67823 0
M  V30 1270 C 113.993 -0.470056 2.058 0
M  V30 1271 O 113.341 -1.44663 1.76875 0
M  V30 1272 C 113.551 1.9372 2.90299 0
M  V30 1273 C 114.899 2.21371 3.62326 0
M  V30 1274 O 115.923 1.91451 3.00375 0
M  V30 1275 O 114.782 2.72231 4.7387 0
M  V30 1276 H 111.876 0.380752 0.734137 0
M  V30 1277 H 114.422 1.36283 1.01119 0
M  V30 1278 H 113.194 2.93316 2.59001 0
M  V30 1279 H 112.817 1.58286 3.64735 0
M  V30 1280 N 113.814 -1.1601 1.06675 0
M  V30 1281 C 115.063 -1.85973 0.780818 0
M  V30 1282 C 115.376 -1.82819 -0.695444 0
M  V30 1283 O 116.582 -2.484 -1.09589 0
M  V30 1284 C 115.038 -3.33757 1.34665 0
M  V30 1285 C 114.646 -3.45374 2.85343 0
M  V30 1286 C 116.39 -4.0895 1.13843 0
M  V30 1287 C 114.297 -4.87266 3.35151 0
M  V30 1288 H 113.227 -0.696661 0.288407 0
M  V30 1289 H 115.878 -1.30903 1.28595 0
M  V30 1290 H 114.26 -3.88456 0.769274 0
M  V30 1291 H 115.434 -3.00816 3.49065 0
M  V30 1292 H 113.749 -2.83619 3.04876 0
M  V30 1293 H 116.346 -5.13654 1.4854 0
M  V30 1294 H 116.689 -4.16229 0.0770282 0
M  V30 1295 H 117.222 -3.605 1.68179 0
M  V30 1296 H 113.961 -4.85168 4.40786 0
M  V30 1297 H 113.481 -5.32433 2.76179 0
M  V30 1298 H 115.16 -5.56097 3.30704 0
M  V30 1299 N 115.292 -0.849877 -1.32721 0
M  V30 1300 C 116.538 -0.460855 -1.9811 0
M  V30 1301 C 116.893 0.971716 -1.66059 0
M  V30 1302 O 116.186 1.67184 -0.935944 0
M  V30 1303 C 116.38 -0.631272 -3.51781 0
M  V30 1304 C 116.209 -2.07886 -3.98765 0
M  V30 1305 C 114.979 -2.71637 -4.26077 0
M  V30 1306 C 117.177 -3.04889 -4.14182 0
M  V30 1307 N 115.159 -4.07356 -4.59276 0
M  V30 1308 C 116.53 -4.25583 -4.50865 0
M  V30 1309 C 118.585 -3.01148 -3.96503 0
M  V30 1310 C 117.288 -5.43027 -4.71714 0
M  V30 1311 C 119.314 -4.17832 -4.18533 0
M  V30 1312 C 118.676 -5.37284 -4.55528 0
M  V30 1313 H 114.775 -0.217283 -0.751207 0
M  V30 1314 H 117.359 -1.10026 -1.60631 0
M  V30 1315 H 115.53 -0.0215966 -3.88394 0
M  V30 1316 H 117.262 -0.212614 -4.04141 0
M  V30 1317 H 114.017 -2.22705 -4.17971 0
M  V30 1318 H 114.441 -4.77351 -4.80068 0
M  V30 1319 H 119.083 -2.0992 -3.67006 0
M  V30 1320 H 116.801 -6.34791 -5.00066 0
M  V30 1321 H 120.387 -4.16368 -4.06361 0
M  V30 1322 H 119.267 -6.26071 -4.72234 0
M  V30 1323 N 116.77 1.45427 -0.607355 0
M  V30 1324 C 117.718 2.32269 0.12411 0
M  V30 1325 C 118.712 1.45955 0.859854 0
M  V30 1326 O 119.918 1.6244 0.775447 0
M  V30 1327 H 116.293 0.749691 0.0588839 0
M  V30 1328 H 118.264 2.91743 -0.626762 0
M  V30 1329 C 117.013 3.29567 1.1082 0
M  V30 1330 H 116.336 3.95978 0.551492 0
M  V30 1331 H 117.776 3.93061 1.58995 0
M  V30 1332 C 116.235 2.56722 2.18164 0
M  V30 1333 O 116.765 2.34842 3.25902 0
M  V30 1334 N 114.971 2.16861 1.93442 0
M  V30 1335 H 114.518 2.34855 1.05834 0
M  V30 1336 H 114.476 1.68444 2.65469 0
M  V30 1337 N 118.248 0.346503 1.53744 0
M  V30 1338 C 119.497 -0.250122 2.00143 0
M  V30 1339 C 119.81 -1.51418 1.23822 0
M  V30 1340 O 121.016 -2.18823 1.60713 0
M  V30 1341 C 119.472 -0.496252 3.56462 0
M  V30 1342 C 119.08 0.752077 4.41642 0
M  V30 1343 C 120.824 -1.05157 4.11269 0
M  V30 1344 C 118.731 0.476583 5.89477 0
M  V30 1345 H 117.661 -0.0972409 0.747703 0
M  V30 1346 H 120.312 0.46229 1.77581 0
M  V30 1347 H 118.694 -1.26944 3.75102 0
M  V30 1348 H 119.868 1.5266 4.34778 0
M  V30 1349 H 118.183 1.22925 3.97842 0
M  V30 1350 H 120.78 -1.27269 5.19333 0
M  V30 1351 H 121.123 -2.00799 3.64672 0
M  V30 1352 H 121.656 -0.339019 3.96353 0
M  V30 1353 H 118.395 1.4028 6.40314 0
M  V30 1354 H 117.915 -0.259794 5.99237 0
M  V30 1355 H 119.594 0.0949315 6.4693 0
M  V30 1356 N 119.726 -1.57421 0.075193 0
M  V30 1357 C 121.142 -1.57099 -0.281444 0
M  V30 1358 C 121.342 -1.08486 -1.69803 0
M  V30 1359 O 120.398 -0.752279 -2.41033 0
M  V30 1360 C 121.711 -3.00571 -0.0880041 0
M  V30 1361 C 123.259 -3.12605 -0.157281 0
M  V30 1362 C 123.734 -4.57999 0.0079207 0
M  V30 1363 N 125.225 -4.63176 -0.0475725 0
M  V30 1364 C 125.96 -5.73373 0.0557876 0
M  V30 1365 N 125.456 -6.92473 0.21286 0
M  V30 1366 N 127.249 -5.621 -0.00152098 0
M  V30 1367 H 119.4 -1.87335 1.00098 0
M  V30 1368 H 121.663 -0.86377 0.390646 0
M  V30 1369 H 121.369 -3.40262 0.889629 0
M  V30 1370 H 121.243 -3.67754 -0.838875 0
M  V30 1371 H 123.63 -2.72798 -1.1254 0
M  V30 1372 H 123.711 -2.48053 0.62475 0
M  V30 1373 H 123.355 -4.98496 0.972824 0
M  V30 1374 H 123.285 -5.20586 -0.793556 0
M  V30 1375 H 125.776 -3.7753 -0.167244 0
M  V30 1376 H 126.089 -7.72279 0.283781 0
M  V30 1377 H 124.434 -6.94556 0.248267 0
M  V30 1378 H 127.625 -4.67938 -0.122958 0
M  V30 1379 H 127.798 -6.47948 0.0824844 0
M  V30 1380 N 121.204 0.198386 -1.56346 0
M  V30 1381 C 122.429 0.939682 -1.84891 0
M  V30 1382 C 122.854 1.76202 -0.658369 0
M  V30 1383 O 122.212 1.76993 0.392851 0
M  V30 1384 C 122.26 1.81428 -3.11635 0
M  V30 1385 O 121.364 2.91265 -2.91956 0
M  V30 1386 H 120.705 0.264807 -0.608912 0
M  V30 1387 H 123.235 0.204695 -2.03573 0
M  V30 1388 H 123.245 2.21958 -3.42343 0
M  V30 1389 H 121.92 1.21004 -3.97908 0
M  V30 1390 H 120.497 2.54514 -2.72538 0
M  V30 1391 N 122.682 1.50554 0.465978 0
M  V30 1392 C 123.931 1.61038 1.21448 0
M  V30 1393 C 124.244 0.31865 1.92987 0
M  V30 1394 O 125.45 0.302469 2.6981 0
M  V30 1395 C 123.906 2.84283 2.20706 0
M  V30 1396 C 123.514 4.20352 1.54946 0
M  V30 1397 C 125.258 3.04115 2.96166 0
M  V30 1398 C 123.165 5.34778 2.5252 0
M  V30 1399 H 122.095 0.599718 0.457005 0
M  V30 1400 H 124.746 1.7699 0.484424 0
M  V30 1401 H 123.128 2.61901 2.97025 0
M  V30 1402 H 124.302 4.53008 0.843811 0
M  V30 1403 H 122.617 4.06167 0.917475 0
M  V30 1404 H 125.214 3.86774 3.69202 0
M  V30 1405 H 125.557 2.16045 3.55852 0
M  V30 1406 H 126.09 3.26702 2.26959 0
M  V30 1407 H 122.829 6.25018 1.97566 0
M  V30 1408 H 122.349 5.06534 3.21222 0
M  V30 1409 H 124.028 5.65561 3.14245 0
M  V30 1410 N 124.16 -0.719506 1.40217 0
M  V30 1411 C 125.4 -1.49181 1.39729 0
M  V30 1412 C 125.764 -1.92 -0.00250614 0
M  V30 1413 O 126.965 -2.68473 -0.132479 0
M  V30 1414 C 125.236 -2.68767 2.35582 0
M  V30 1415 S 126.795 -3.58224 2.53418 0
M  V30 1416 H 123.613 -0.510091 0.495307 0
M  V30 1417 H 126.215 -0.841724 1.76452 0
M  V30 1418 H 124.919 -2.35475 3.36124 0
M  V30 1419 H 124.45 -3.38691 2.0013 0
M  V30 1420 H 126.465 -4.63033 1.78367 0
M  V30 1421 N 125.638 -1.25649 -0.95132 0
M  V30 1422 C 126.863 -1.13443 -1.73624 0
M  V30 1423 C 127.288 0.307565 -1.85568 0
M  V30 1424 O 126.646 1.22282 -1.33854 0
M  V30 1425 C 126.694 -1.79723 -3.12621 0
M  V30 1426 O 125.798 -1.07912 -3.98031 0
M  V30 1427 H 125.139 -0.395872 -0.533086 0
M  V30 1428 H 127.669 -1.66276 -1.1922 0
M  V30 1429 H 127.679 -1.86141 -3.63064 0
M  V30 1430 H 126.354 -2.84633 -3.03244 0
M  V30 1431 H 124.931 -1.09398 -3.56492 0
M  V30 1432 N 127.117 1.15442 -1.07289 0
M  V30 1433 C 128.345 1.90096 -0.81676 0
M  V30 1434 C 128.76 1.7798 0.629966 0
M  V30 1435 O 128.117 1.1313 1.43206 0
M  V30 1436 C 128.168 3.40466 -1.21512 0
M  V30 1437 O 127.889 3.52232 -2.60508 0
M  V30 1438 C 129.39 4.32145 -0.988198 0
M  V30 1439 H 126.61 0.602495 -0.295366 0
M  V30 1440 H 129.154 1.4627 -1.42918 0
M  V30 1441 H 127.309 3.81958 -0.647039 0
M  V30 1442 H 127.723 4.45549 -2.76742 0
M  V30 1443 H 129.197 5.36072 -1.31645 0
M  V30 1444 H 129.674 4.39135 0.0755063 0
M  V30 1445 H 130.28 3.96395 -1.54115 0
M  V30 1446 N 128.595 0.856903 1.32268 0
M  V30 1447 C 129.823 0.475439 2.01363 0
M  V30 1448 C 130.238 -0.928486 1.64392 0
M  V30 1449 O 129.595 -1.60624 0.866387 0
M  V30 1450 C 129.646 0.607545 3.56358 0
M  V30 1451 O 129.367 1.95617 3.92002 0
M  V30 1452 C 130.868 0.225382 4.42727 0
M  V30 1453 H 128.088 0.186636 0.644521 0
M  V30 1454 H 130.632 1.15446 1.68797 0
M  V30 1455 H 128.787 -0.0237719 3.87393 0
M  V30 1456 H 129.201 1.95455 4.86721 0
M  V30 1457 H 130.675 0.368813 5.50767 0
M  V30 1458 H 131.152 -0.834369 4.31202 0
M  V30 1459 H 131.758 0.831864 4.17085 0
M  V30 1460 N 130.073 -1.45103 0.615059 0
M  V30 1461 C 131.021 -2.32331 -0.111791 0
M  V30 1462 C 132.015 -1.46409 -0.852102 0
M  V30 1463 O 133.221 -1.62849 -0.766821 0
M  V30 1464 H 129.596 -0.749993 -0.0549072 0
M  V30 1465 H 131.567 -2.91407 0.642225 0
M  V30 1466 C 130.316 -3.3015 -1.09071 0
M  V30 1467 H 129.639 -3.96265 -0.530485 0
M  V30 1468 H 131.079 -3.93898 -1.56908 0
M  V30 1469 C 129.538 -2.57875 -2.168 0
M  V30 1470 O 130.068 -2.36567 -3.24652 0
M  V30 1471 N 128.274 -2.17884 -1.92289 0
M  V30 1472 H 127.821 -2.35413 -1.04587 0
M  V30 1473 H 127.779 -1.6985 -2.64572 0
M  V30 1474 N 131.551 -0.354651 -1.53558 0
M  V30 1475 C 132.8 0.239504 -2.00273 0
M  V30 1476 C 133.113 1.50759 -1.24623 0
M  V30 1477 O 134.319 2.17968 -1.61871 0
M  V30 1478 C 132.775 0.477341 -3.5672 0
M  V30 1479 C 132.383 -0.775488 -4.41237 0
M  V30 1480 C 134.127 1.02975 -4.11821 0
M  V30 1481 C 132.034 -0.507838 -5.89216 0
M  V30 1482 H 130.964 0.0932743 -0.748208 0
M  V30 1483 H 133.615 -0.471701 -1.77334 0
M  V30 1484 H 131.997 1.24953 -3.7577 0
M  V30 1485 H 133.171 -1.54963 -4.33962 0
M  V30 1486 H 131.486 -1.25033 -3.97185 0
M  V30 1487 H 134.083 1.24513 -5.2 0
M  V30 1488 H 134.426 1.98862 -3.65731 0
M  V30 1489 H 134.959 0.317994 -3.96527 0
M  V30 1490 H 131.698 -1.43674 -6.39561 0
M  V30 1491 H 131.218 0.228011 -5.99366 0
M  V30 1492 H 132.897 -0.129238 -6.46871 0
M  V30 1493 N 133.029 1.57378 -0.0835403 0
M  V30 1494 C 133.961 2.10389 0.909338 0
M  V30 1495 C 134.974 1.03858 1.25369 0
M  V30 1496 O 136.163 1.31338 1.20882 0
M  V30 1497 C 133.263 2.55908 2.2218 0
M  V30 1498 C 132.436 3.86145 2.05453 0
M  V30 1499 C 131.495 4.17633 3.20108 0
M  V30 1500 O 130.521 4.87043 2.94581 0
M  V30 1501 N 131.723 3.72113 4.45547 0
M  V30 1502 H 134.488 2.962 0.456657 0
M  V30 1503 H 132.049 1.61579 0.101877 0
M  V30 1504 H 134.041 2.74027 2.97811 0
M  V30 1505 H 132.611 1.75171 2.58909 0
M  V30 1506 H 131.831 3.7729 1.1422 0
M  V30 1507 H 133.119 4.7137 1.91541 0
M  V30 1508 H 132.517 3.16062 4.69171 0
M  V30 1509 H 131.074 3.95409 5.18165 0
M  V30 1510 N 134.507 -0.190092 1.56449 0
M  V30 1511 C 135.747 -0.916414 1.82705 0
M  V30 1512 C 136.111 -1.80235 0.661763 0
M  V30 1513 O 137.312 -2.56484 0.80433 0
M  V30 1514 C 135.583 -1.70691 3.14005 0
M  V30 1515 S 137.142 -2.48457 3.61683 0
M  V30 1516 H 133.96 -0.307281 0.64117 0
M  V30 1517 H 136.562 -0.179433 1.94675 0
M  V30 1518 H 135.266 -1.04677 3.96826 0
M  V30 1519 H 134.797 -2.48562 3.04927 0
M  V30 1520 H 136.812 -3.72756 3.27517 0
M  V30 1521 N 135.985 -1.50799 -0.457987 0
M  V30 1522 C 136.932 -1.70617 -1.5543 0
M  V30 1523 C 137.902 -0.547562 -1.56815 0
M  V30 1524 O 139.087 -0.779647 -1.74144 0
M  V30 1525 C 136.227 -1.81831 -2.93311 0
M  V30 1526 C 135.34 -3.09278 -3.01615 0
M  V30 1527 C 134.475 -3.11209 -4.30491 0
M  V30 1528 C 133.514 -4.33055 -4.32585 0
M  V30 1529 N 132.651 -4.32652 -5.52952 0
M  V30 1530 H 137.491 -2.64207 -1.37836 0
M  V30 1531 H 135.028 -1.30959 -0.669937 0
M  V30 1532 H 136.986 -1.86314 -3.73287 0
M  V30 1533 H 135.616 -0.916685 -3.0951 0
M  V30 1534 H 134.668 -3.14203 -2.1443 0
M  V30 1535 H 135.98 -3.99233 -2.99022 0
M  V30 1536 H 135.134 -3.14494 -5.18824 0
M  V30 1537 H 133.873 -2.19106 -4.35711 0
M  V30 1538 H 132.878 -4.29969 -3.42647 0
M  V30 1539 H 134.103 -5.264 -4.29046 0
M  V30 1540 H 132.049 -3.43409 -5.58933 0
M  V30 1541 H 131.966 -5.16392 -5.52155 0
M  V30 1542 H 133.234 -4.40101 -6.43375 0
M  V30 1543 N 137.463 0.71206 -1.40597 0
M  V30 1544 C 138.411 1.84746 -1.41321 0
M  V30 1545 C 139.405 1.66842 -0.293268 0
M  V30 1546 O 140.611 1.73904 -0.464481 0
M  V30 1547 H 136.986 0.608522 -0.441819 0
M  V30 1548 H 138.957 1.81252 -2.37045 0
M  V30 1549 C 137.706 3.22638 -1.29614 0
M  V30 1550 H 137.029 3.37023 -2.15071 0
M  V30 1551 H 138.469 4.02209 -1.3418 0
M  V30 1552 C 136.928 3.36899 -0.00673121 0
M  V30 1553 O 137.458 3.90186 0.954859 0
M  V30 1554 N 135.664 2.9053 0.0639327 0
M  V30 1555 H 135.211 2.47353 -0.719311 0
M  V30 1556 H 135.169 3.0045 0.926118 0
M  V30 1557 N 138.941 1.26152 0.944643 0
M  V30 1558 C 140.189 1.11271 1.6871 0
M  V30 1559 C 140.51 -0.345166 1.91921 0
M  V30 1560 O 139.78 -1.24387 1.51343 0
M  V30 1561 H 138.36 0.408783 0.625224 0
M  V30 1562 H 141.022 1.58427 1.1352 0
M  V30 1563 H 140.118 1.62879 2.66227 0
M  V30 1564 N 140.419 -1.14872 1.07899 0
M  V30 1565 C 141.366 -2.19791 0.704319 0
M  V30 1566 C 142.336 -1.63238 -0.306987 0
M  V30 1567 O 143.521 -1.8983 -0.192171 0
M  V30 1568 C 140.661 -3.44911 0.114244 0
M  V30 1569 C 139.774 -4.15637 1.1777 0
M  V30 1570 C 138.909 -5.28324 0.552037 0
M  V30 1571 C 137.948 -5.90875 1.59789 0
M  V30 1572 N 137.085 -6.95022 0.994404 0
M  V30 1573 H 141.925 -2.5119 1.60336 0
M  V30 1574 H 139.462 -1.23356 0.801352 0
M  V30 1575 H 141.42 -4.16477 -0.245544 0
M  V30 1576 H 140.05 -3.14011 -0.74813 0
M  V30 1577 H 139.102 -3.42512 1.65499 0
M  V30 1578 H 140.414 -4.5823 1.97046 0
M  V30 1579 H 139.568 -6.06538 0.1402 0
M  V30 1580 H 138.307 -4.86939 -0.272431 0
M  V30 1581 H 137.312 -5.11369 2.01945 0
M  V30 1582 H 138.537 -6.34337 2.42474 0
M  V30 1583 H 136.483 -6.55722 0.190939 0
M  V30 1584 H 136.4 -7.36073 1.72432 0
M  V30 1585 H 137.668 -7.77123 0.608253 0
M  V30 1586 N 141.898 -0.863906 -1.31812 0
M  V30 1587 C 142.831 -0.259963 -2.26714 0
M  V30 1588 C 143.809 0.607392 -1.50829 0
M  V30 1589 O 144.993 0.562155 -1.79922 0
M  V30 1590 C 142.12 0.632456 -3.32743 0
M  V30 1591 C 141.166 -0.162743 -4.26189 0
M  V30 1592 S 141.999 -1.53726 -5.12961 0
M  V30 1593 C 143.155 -0.650803 -6.22507 0
M  V30 1594 H 143.388 -1.06445 -2.77591 0
M  V30 1595 H 140.921 -0.662071 -1.39485 0
M  V30 1596 H 142.879 1.14167 -3.94305 0
M  V30 1597 H 141.54 1.41083 -2.80632 0
M  V30 1598 H 140.733 0.517366 -5.01338 0
M  V30 1599 H 140.335 -0.60385 -3.69093 0
M  V30 1600 H 142.627 0.141134 -6.77353 0
M  V30 1601 H 143.57 -1.37322 -6.94657 0
M  V30 1602 H 143.978 -0.221041 -5.64067 0
M  V30 1603 N 143.376 1.44774 -0.622745 0
M  V30 1604 C 144.324 2.32387 0.0994683 0
M  V30 1605 C 145.318 1.46859 0.844326 0
M  V30 1606 O 146.524 1.63254 0.758174 0
M  V30 1607 H 142.899 0.750273 0.0509291 0
M  V30 1608 H 144.87 2.91062 -0.65767 0
M  V30 1609 C 143.619 3.30723 1.07319 0
M  V30 1610 H 142.942 3.96541 0.509462 0
M  V30 1611 H 144.382 3.94725 1.54817 0
M  V30 1612 C 142.841 2.59021 2.15429 0
M  V30 1613 O 143.371 2.38286 3.23393 0
M  V30 1614 N 141.577 2.189 1.91131 0
M  V30 1615 H 141.124 2.35964 1.03337 0
M  V30 1616 H 141.082 1.71251 2.63668 0
M  V30 1617 N 144.854 0.36279 1.53368 0
M  V30 1618 C 146.094 -0.227882 2.03126 0
M  V30 1619 C 146.458 -1.4622 1.24434 0
M  V30 1620 O 147.659 -2.12831 1.64184 0
M  V30 1621 C 145.93 -0.515427 3.53664 0
M  V30 1622 S 147.489 -1.08017 4.25297 0
M  V30 1623 H 144.307 -0.0665377 0.70788 0
M  V30 1624 H 146.909 0.50501 1.88865 0
M  V30 1625 H 145.613 0.390436 4.08539 0
M  V30 1626 H 145.144 -1.27747 3.72081 0
M  V30 1627 H 147.159 -2.36462 4.36234 0
M  V30 1628 N 146.332 -1.57332 0.0918853 0
M  V30 1629 C 147.282 -2.10385 -0.87876 0
M  V30 1630 C 148.266 -1.01814 -1.24591 0
M  V30 1631 O 149.458 -1.28093 -1.22152 0
M  V30 1632 C 146.587 -2.68517 -2.13901 0
M  V30 1633 C 145.673 -3.84126 -1.79744 0
M  V30 1634 N 146.064 -4.92288 -1.1613 0
M  V30 1635 C 144.362 -3.93801 -2.09373 0
M  V30 1636 C 145.063 -5.7295 -1.00513 0
M  V30 1637 N 144.039 -5.21876 -1.5214 0
M  V30 1638 H 147.841 -2.91395 -0.38293 0
M  V30 1639 H 145.355 -1.62017 -0.111423 0
M  V30 1640 H 147.352 -3.04852 -2.84378 0
M  V30 1641 H 146.012 -1.88961 -2.64053 0
M  V30 1642 H 147.023 -5.1123 -0.828504 0
M  V30 1643 H 143.7 -3.25249 -2.61762 0
M  V30 1644 H 145.09 -6.69978 -0.507902 0
M  V30 1645 N 147.81 0.181792 -1.56548 0
M  V30 1646 C 148.72 1.24538 -1.98815 0
M  V30 1647 C 149.736 1.49045 -0.897861 0
M  V30 1648 O 150.912 1.61399 -1.20467 0
M  V30 1649 C 147.977 2.56683 -2.33055 0
M  V30 1650 C 147.038 2.40131 -3.55859 0
M  V30 1651 C 146.271 3.65975 -3.88456 0
M  V30 1652 O 146.494 4.70711 -3.22161 0
M  V30 1653 O 145.428 3.6071 -4.81842 0
M  V30 1654 H 149.254 0.916647 -2.89536 0
M  V30 1655 H 146.839 0.387842 -1.44278 0
M  V30 1656 H 148.721 3.34655 -2.56094 0
M  V30 1657 H 147.396 2.89157 -1.45498 0
M  V30 1658 H 146.303 1.60226 -3.38051 0
M  V30 1659 H 147.636 2.12585 -4.43924 0
M  V30 1660 N 149.288 1.51039 0.449983 0
M  V30 1661 C 150.536 1.62759 1.19808 0
M  V30 1662 C 150.857 0.339981 1.92013 0
M  V30 1663 O 150.127 -0.643606 1.85026 0
M  V30 1664 H 148.707 0.599811 0.445237 0
M  V30 1665 H 151.369 1.87914 0.517138 0
M  V30 1666 H 150.465 2.44911 1.93455 0
M  V30 1667 N 150.766 -0.704594 1.40972 0
M  V30 1668 C 152.012 -1.46675 1.40051 0
M  V30 1669 C 152.345 -1.94199 0.00641102 0
M  V30 1670 O 151.62 -1.68916 -0.964235 0
M  V30 1671 C 151.903 -2.68505 2.39952 0
M  V30 1672 C 151.756 -2.26805 3.88432 0
M  V30 1673 C 153.075 -3.70686 2.37233 0
M  V30 1674 H 150.194 -0.532015 0.510028 0
M  V30 1675 H 152.836 -0.803255 1.72185 0
M  V30 1676 H 150.986 -3.25114 2.1268 0
M  V30 1677 H 152.658 -1.75592 4.26574 0
M  V30 1678 H 150.901 -1.58685 4.03734 0
M  V30 1679 H 151.572 -3.14181 4.53866 0
M  V30 1680 H 154.048 -3.23731 2.61415 0
M  V30 1681 H 152.924 -4.53553 3.09162 0
M  V30 1682 H 153.185 -4.19754 1.38777 0
M  V30 1683 N 152.244 -1.26651 -0.937939 0
M  V30 1684 C 153.49 -1.12553 -1.687 0
M  V30 1685 C 153.823 0.329782 -1.91379 0
M  V30 1686 O 153.098 1.24202 -1.4968 0
M  V30 1687 C 153.381 -1.89862 -3.05981 0
M  V30 1688 C 153.234 -3.43318 -2.90607 0
M  V30 1689 C 154.553 -1.69499 -4.0615 0
M  V30 1690 H 151.672 -0.410257 -0.612257 0
M  V30 1691 H 154.314 -1.55685 -1.08913 0
M  V30 1692 H 152.464 -1.53204 -3.57017 0
M  V30 1693 H 154.136 -3.89747 -2.46769 0
M  V30 1694 H 152.379 -3.70179 -2.26164 0
M  V30 1695 H 153.05 -3.92642 -3.8799 0
M  V30 1696 H 155.526 -2.01442 -3.64088 0
M  V30 1697 H 154.402 -2.26002 -5.00214 0
M  V30 1698 H 154.663 -0.640365 -4.37438 0
M  V30 1699 N 153.722 1.14298 -1.08507 0
M  V30 1700 C 154.669 2.19414 -0.715965 0
M  V30 1701 C 155.639 1.63399 0.298326 0
M  V30 1702 O 156.824 1.89929 0.182101 0
M  V30 1703 C 153.964 3.44845 -0.132534 0
M  V30 1704 C 153.077 4.15007 -1.19973 0
M  V30 1705 C 152.212 5.28024 -0.580048 0
M  V30 1706 C 151.251 5.9002 -1.62921 0
M  V30 1707 N 150.388 6.94485 -1.03125 0
M  V30 1708 H 155.228 2.50336 -1.61666 0
M  V30 1709 H 152.765 1.2293 -0.807882 0
M  V30 1710 H 154.723 4.16601 0.223454 0
M  V30 1711 H 153.353 3.14403 0.731467 0
M  V30 1712 H 152.405 3.41629 -1.67313 0
M  V30 1713 H 153.717 4.57178 -1.99473 0
M  V30 1714 H 152.871 6.06455 -0.172364 0
M  V30 1715 H 151.61 4.87076 0.246603 0
M  V30 1716 H 150.615 5.10291 -2.04654 0
M  V30 1717 H 151.84 6.33042 -2.45835 0
M  V30 1718 H 149.786 6.55612 -0.225711 0
M  V30 1719 H 149.703 7.35148 -1.76334 0
M  V30 1720 H 150.971 7.7679 -0.649458 0
M  V30 1721 N 155.201 0.870884 1.31352 0
M  V30 1722 C 156.447 0.482987 1.96965 0
M  V30 1723 C 156.78 -0.962462 1.68672 0
M  V30 1724 O 156.055 -1.6779 0.98371 0
M  V30 1725 C 156.338 0.741752 3.52378 0
M  V30 1726 C 156.191 2.2368 3.9024 0
M  V30 1727 C 157.51 0.208838 4.39604 0
M  V30 1728 H 154.629 0.176955 0.715441 0
M  V30 1729 H 157.271 1.09229 1.55464 0
M  V30 1730 H 155.421 0.223149 3.87859 0
M  V30 1731 H 157.093 2.82273 3.64856 0
M  V30 1732 H 155.336 2.70901 3.38814 0
M  V30 1733 H 156.007 2.3685 4.98604 0
M  V30 1734 H 158.483 0.652529 4.10952 0
M  V30 1735 H 157.359 0.419336 5.47296 0
M  V30 1736 H 157.62 -0.889275 4.33064 0
M  V30 1737 N 156.679 -1.44442 0.630414 0
M  V30 1738 C 157.907 -2.06414 0.141671 0
M  V30 1739 C 158.322 -1.47105 -1.18345 0
M  V30 1740 O 157.679 -0.593662 -1.72574 0
M  V30 1741 C 157.73 -3.61494 0.0199784 0
M  V30 1742 O 157.451 -4.18594 1.29269 0
M  V30 1743 C 158.952 -4.40499 -0.497544 0
M  V30 1744 H 156.172 -0.666292 0.0793452 0
M  V30 1745 H 158.716 -1.85323 0.864614 0
M  V30 1746 H 156.871 -3.8185 -0.653402 0
M  V30 1747 H 157.285 -5.12026 1.13707 0
M  V30 1748 H 158.759 -5.49433 -0.531708 0
M  V30 1749 H 159.236 -4.11895 -1.52445 0
M  V30 1750 H 159.842 -4.25061 0.142562 0
M  V30 1751 N 158.157 -0.370918 -1.53173 0
M  V30 1752 C 159.434 0.273754 -1.93675 0
M  V30 1753 C 159.814 1.65938 -1.3049 0
M  V30 1754 O 159.162 2.23698 -0.465999 0
M  V30 1755 C 159.372 0.318602 -3.47543 0
M  V30 1756 C 160.72 0.556392 -4.20939 0
M  V30 1757 O 161.744 0.399587 -3.53952 0
M  V30 1758 O 160.603 0.862133 -5.39657 0
M  V30 1759 H 157.697 0.165448 -0.810281 0
M  V30 1760 H 160.243 -0.42409 -1.64315 0
M  V30 1761 H 159.015 -0.652687 -3.85818 0
M  V30 1762 H 158.638 1.06212 -3.83151 0
M  V30 1763 N 159.635 1.57281 -0.100228 0
M  V30 1764 C 160.875 1.96419 0.56558 0
M  V30 1765 C 161.239 0.981265 1.65031 0
M  V30 1766 O 162.44 1.26133 2.37369 0
M  V30 1767 C 160.711 3.39996 1.10171 0
M  V30 1768 S 162.27 4.01134 1.77867 0
M  V30 1769 H 159.088 0.68667 0.184406 0
M  V30 1770 H 161.69 1.94662 -0.180851 0
M  V30 1771 H 160.394 4.09296 0.300803 0
M  V30 1772 H 159.925 3.45361 1.88385 0
M  V30 1773 H 161.94 3.90358 3.06326 0
M  V30 1774 N 161.113 -0.173488 1.56642 0
M  V30 1775 C 162.529 -0.525174 1.50712 0
M  V30 1776 C 162.729 -1.8476 0.804107 0
M  V30 1777 O 161.785 -2.49869 0.363574 0
M  V30 1778 C 163.098 -0.559937 2.95441 0
M  V30 1779 C 164.646 -0.647288 3.06234 0
M  V30 1780 C 165.121 -0.712963 4.52417 0
M  V30 1781 N 166.612 -0.775911 4.56655 0
M  V30 1782 C 167.347 -0.847264 5.67106 0
M  V30 1783 N 166.843 -0.879585 6.87194 0
M  V30 1784 N 168.636 -0.886117 5.55071 0
M  V30 1785 H 160.787 0.693681 2.00753 0
M  V30 1786 H 163.05 0.249841 0.914485 0
M  V30 1787 H 162.756 0.343049 3.50023 0
M  V30 1788 H 162.63 -1.40718 3.49969 0
M  V30 1789 H 165.017 -1.5407 2.51687 0
M  V30 1790 H 165.098 0.226586 2.54794 0
M  V30 1791 H 164.742 0.176183 5.07594 0
M  V30 1792 H 164.672 -1.60295 5.0161 0
M  V30 1793 H 167.163 -0.759304 3.70193 0
M  V30 1794 H 167.476 -0.935144 7.67121 0
M  V30 1795 H 165.821 -0.847898 6.89808 0
M  V30 1796 H 169.012 -0.857853 4.60172 0
M  V30 1797 H 169.185 -0.938263 6.41171 0
M  V30 1798 N 162.591 -1.51276 -0.441967 0
M  V30 1799 C 163.868 -1.54252 -1.20273 0
M  V30 1800 C 164.248 -0.30408 -2.08898 0
M  V30 1801 O 163.596 0.711084 -2.17154 0
M  V30 1802 C 163.806 -2.85406 -2.00859 0
M  V30 1803 C 165.154 -3.37181 -2.58059 0
M  V30 1804 O 166.178 -2.86925 -2.11074 0
M  V30 1805 O 165.037 -4.24858 -3.43741 0
M  V30 1806 H 162.131 -0.619969 -0.547328 0
M  V30 1807 H 164.677 -1.63586 -0.451413 0
M  V30 1808 H 163.449 -3.67003 -1.35736 0
M  V30 1809 H 163.072 -2.79213 -2.83065 0
M  V30 1810 N 164.069 0.697108 -1.41344 0
M  V30 1811 C 165.297 1.48593 -1.43972 0
M  V30 1812 C 165.712 1.88747 -0.0445612 0
M  V30 1813 O 165.069 1.56682 0.935785 0
M  V30 1814 C 165.12 2.74946 -2.34706 0
M  V30 1815 O 164.841 2.36484 -3.68791 0
M  V30 1816 C 166.342 3.687 -2.46121 0
M  V30 1817 H 163.562 0.457964 -0.490418 0
M  V30 1818 H 166.106 0.858429 -1.8561 0
M  V30 1819 H 164.261 3.33937 -1.9638 0
M  V30 1820 H 164.675 3.17918 -4.17167 0
M  V30 1821 H 166.149 4.54145 -3.13777 0
M  V30 1822 H 166.626 4.13081 -1.49199 0
M  V30 1823 H 167.232 3.15613 -2.85076 0
M  V30 1824 N 165.547 1.27147 0.931209 0
M  V30 1825 C 166.795 1.13055 1.6752 0
M  V30 1826 C 167.116 -0.324791 1.92276 0
M  V30 1827 O 166.386 -1.22775 1.52654 0
M  V30 1828 H 164.966 0.415391 0.620854 0
M  V30 1829 H 167.628 1.59623 1.11833 0
M  V30 1830 H 166.724 1.65694 2.64485 0
M  V30 1831 N 167.025 -1.13721 1.09112 0
M  V30 1832 C 168.25 -1.89314 0.847053 0
M  V30 1833 C 168.675 -1.78416 -0.595774 0
M  V30 1834 O 168.033 -1.12942 -1.41823 0
M  V30 1835 C 168.081 -3.3701 1.28284 0
M  V30 1836 O 167.185 -4.10054 0.439267 0
M  V30 1837 H 166.526 -0.588745 0.307044 0
M  V30 1838 H 169.056 -1.43902 1.45442 0
M  V30 1839 H 169.066 -3.87834 1.26683 0
M  V30 1840 H 167.741 -3.4426 2.33363 0
M  V30 1841 H 166.318 -3.69266 0.519312 0
M  V30 1842 N 168.503 -0.877838 -1.30888 0
M  V30 1843 C 169.728 -0.506629 -2.01117 0
M  V30 1844 C 170.153 0.895564 -1.65412 0
M  V30 1845 O 169.511 1.5923 -0.866922 0
M  V30 1846 C 169.559 -0.680223 -3.54126 0
M  V30 1847 O 168.663 0.277033 -4.11468 0
M  V30 1848 H 168.004 -0.200518 -0.633 0
M  V30 1849 H 170.534 -1.18342 -1.66902 0
M  V30 1850 H 170.544 -0.5765 -4.03907 0
M  V30 1851 H 169.219 -1.70261 -3.79452 0
M  V30 1852 H 167.796 0.127606 -3.72682 0
M  V30 1853 N 169.982 1.44106 -0.638065 0
M  V30 1854 C 171.398 1.56672 -0.304286 0
M  V30 1855 C 171.598 1.6244 1.19228 0
M  V30 1856 O 170.654 1.57121 1.9766 0
M  V30 1857 C 171.967 2.83503 -1.00231 0
M  V30 1858 C 173.515 2.97226 -0.981116 0
M  V30 1859 C 173.99 4.26868 -1.65974 0
M  V30 1860 N 175.481 4.33698 -1.62666 0
M  V30 1861 C 176.216 5.32745 -2.12063 0
M  V30 1862 N 175.712 6.38157 -2.6968 0
M  V30 1863 N 177.505 5.24299 -2.02651 0
M  V30 1864 H 169.656 1.38605 -1.60942 0
M  V30 1865 H 171.919 0.664661 -0.675965 0
M  V30 1866 H 171.625 2.85251 -2.0573 0
M  V30 1867 H 171.499 3.73251 -0.54439 0
M  V30 1868 H 173.886 2.95027 0.0654188 0
M  V30 1869 H 173.967 2.08808 -1.47759 0
M  V30 1870 H 173.611 4.29826 -2.70576 0
M  V30 1871 H 173.541 5.14156 -1.13804 0
M  V30 1872 H 176.032 3.58138 -1.20606 0
M  V30 1873 H 176.345 7.10029 -3.05087 0
M  V30 1874 H 174.69 6.38823 -2.73734 0
M  V30 1875 H 177.881 4.4086 -1.57353 0
M  V30 1876 H 178.054 6.01334 -2.41457 0
M  V30 1877 N 171.46 0.379036 1.52974 0
M  V30 1878 C 172.423 -0.448865 2.24762 0
M  V30 1879 C 173.423 -0.998689 1.26027 0
M  V30 1880 O 174.613 -0.882313 1.50203 0
M  V30 1881 C 171.745 -1.62872 2.99476 0
M  V30 1882 H 172.938 0.179491 2.99362 0
M  V30 1883 H 170.491 0.13096 1.5575 0
M  V30 1884 H 171.226 -2.29479 2.29151 0
M  V30 1885 H 171.011 -1.24128 3.71934 0
M  V30 1886 H 172.501 -2.2151 3.5401 0
M  V30 1887 N 172.938 -1.57226 0.108567 0
M  V30 1888 C 174.349 -1.8195 -0.418464 0
M  V30 1889 C 174.7 -1.02508 -1.67292 0
M  V30 1890 O 173.825 -0.258496 -2.14851 0
M  V30 1891 C 174.42 -3.30028 -0.765979 0
M  V30 1892 C 172.979 -3.55469 -1.23769 0
M  V30 1893 C 172.126 -2.7625 -0.241106 0
M  V30 1894 H 175.077 -1.55149 0.33384 0
M  V30 1895 H 175.098 -3.44086 -1.62434 0
M  V30 1896 H 174.61 -3.87821 0.147219 0
M  V30 1897 H 172.711 -3.03022 -2.16814 0
M  V30 1898 H 172.824 -4.6408 -1.19022 0
M  V30 1899 H 171.188 -2.44133 -0.72602 0
M  V30 1900 H 171.971 -3.36797 0.665007 0
M  V30 1901 N 174.416 0.165178 -1.56732 0
M  V30 1902 C 175.364 1.22369 -1.97809 0
M  V30 1903 C 176.358 1.45488 -0.867741 0
M  V30 1904 O 177.564 1.45995 -1.05288 0
M  V30 1905 H 173.939 0.411486 -0.629431 0
M  V30 1906 H 175.91 0.850425 -2.86025 0
M  V30 1907 C 174.659 2.55403 -2.35934 0
M  V30 1908 H 173.982 2.38438 -3.20916 0
M  V30 1909 H 175.422 3.2814 -2.68514 0
M  V30 1910 C 173.881 3.14611 -1.20506 0
M  V30 1911 O 174.411 3.98626 -0.496016 0
M  V30 1912 N 172.617 2.7379 -0.97403 0
M  V30 1913 H 172.164 2.0557 -1.55238 0
M  V30 1914 H 172.122 3.1374 -0.203573 0
M  V30 1915 N 175.894 1.51508 0.433938 0
M  V30 1916 C 177.134 1.66006 1.19253 0
M  V30 1917 C 177.498 0.369868 1.88404 0
M  V30 1918 O 178.699 0.39066 2.65946 0
M  V30 1919 C 176.97 2.83229 2.17981 0
M  V30 1920 S 178.529 3.18075 3.02281 0
M  V30 1921 H 175.347 0.584821 0.404358 0
M  V30 1922 H 177.949 1.89425 0.48357 0
M  V30 1923 H 176.653 3.75407 1.65824 0
M  V30 1924 H 176.184 2.6201 2.93453 0
M  V30 1925 H 178.199 2.64772 4.19655 0
M  V30 1926 N 177.372 -0.689602 1.41712 0
M  V30 1927 C 178.788 -1.00093 1.24312 0
M  V30 1928 C 178.988 -2.01036 0.136729 0
M  V30 1929 O 178.044 -2.47562 -0.496918 0
M  V30 1930 C 179.357 -1.51985 2.59463 0
M  V30 1931 C 180.905 -1.63838 2.66695 0
M  V30 1932 C 181.38 -2.1913 4.02177 0
M  V30 1933 N 182.871 -2.26483 4.04054 0
M  V30 1934 C 183.606 -2.70306 5.0569 0
M  V30 1935 N 183.102 -3.13691 6.17713 0
M  V30 1936 N 184.895 -2.69923 4.9305 0
M  V30 1937 H 177.046 -0.0210029 2.1239 0
M  V30 1938 H 179.309 -0.0718733 0.945272 0
M  V30 1939 H 179.015 -0.85269 3.41207 0
M  V30 1940 H 178.889 -2.50103 2.82362 0
M  V30 1941 H 181.276 -2.29664 1.85306 0
M  V30 1942 H 181.357 -0.642492 2.476 0
M  V30 1943 H 181.001 -1.53918 4.84016 0
M  V30 1944 H 180.931 -3.19482 4.18615 0
M  V30 1945 H 183.422 -1.95874 3.23174 0
M  V30 1946 H 183.735 -3.45773 6.9113 0
M  V30 1947 H 182.08 -3.11585 6.21241 0
M  V30 1948 H 185.271 -2.35382 4.04614 0
M  V30 1949 H 185.444 -3.03758 5.72394 0
M  V30 1950 N 178.85 -1.27639 -0.924453 0
M  V30 1951 C 180.08 -1.16819 -1.70402 0
M  V30 1952 C 180.488 0.277191 -1.87158 0
M  V30 1953 O 179.831 1.20025 -1.39067 0
M  V30 1954 C 179.893 -1.78305 -3.12166 0
M  V30 1955 C 179.557 -3.27502 -3.18734 0
M  V30 1956 C 180.554 -4.2409 -3.00738 0
M  V30 1957 C 178.239 -3.68269 -3.4159 0
M  V30 1958 C 180.233 -5.59422 -3.05492 0
M  V30 1959 C 177.92 -5.0373 -3.45977 0
M  V30 1960 C 178.918 -5.99116 -3.27946 0
M  V30 1961 O 178.606 -7.32108 -3.32074 0
M  V30 1962 H 178.338 -0.406931 -0.539799 0
M  V30 1963 H 180.892 -1.69078 -1.16626 0
M  V30 1964 H 179.122 -1.20528 -3.67437 0
M  V30 1965 H 180.811 -1.62154 -3.72103 0
M  V30 1966 H 181.577 -3.93931 -2.82919 0
M  V30 1967 H 177.456 -2.94496 -3.54673 0
M  V30 1968 H 181 -6.33852 -2.91337 0
M  V30 1969 H 176.897 -5.33543 -3.63321 0
M  V30 1970 H 177.665 -7.40598 -3.48507 0
M  V30 1971 N 180.328 1.1314 -1.09713 0
M  V30 1972 C 181.744 1.36477 -0.827423 0
M  V30 1973 C 181.944 1.93654 0.556817 0
M  V30 1974 O 181 2.15791 1.31112 0
M  V30 1975 C 182.313 2.31334 -1.92106 0
M  V30 1976 C 183.861 2.44943 -1.94864 0
M  V30 1977 C 184.336 3.4311 -3.0338 0
M  V30 1978 N 185.827 3.50662 -3.02639 0
M  V30 1979 C 186.562 4.2651 -3.83246 0
M  V30 1980 N 186.058 5.05485 -4.73768 0
M  V30 1981 N 187.851 4.2184 -3.71493 0
M  V30 1982 H 180.002 0.743807 -1.9895 0
M  V30 1983 H 182.265 0.389823 -0.864143 0
M  V30 1984 H 181.971 1.96483 -2.91698 0
M  V30 1985 H 181.845 3.31381 -1.80184 0
M  V30 1986 H 184.232 2.79079 -0.959099 0
M  V30 1987 H 184.313 1.4481 -2.10864 0
M  V30 1988 H 183.957 3.09704 -4.02549 0
M  V30 1989 H 183.887 4.43055 -2.84622 0
M  V30 1990 H 186.378 2.94315 -2.37039 0
M  V30 1991 H 186.691 5.60675 -5.3185 0
M  V30 1992 H 185.036 5.04708 -4.77802 0
M  V30 1993 H 188.227 3.5922 -3.00131 0
M  V30 1994 H 188.4 4.80697 -4.3455 0
M  V30 1995 N 181.806 0.884767 1.30421 0
M  V30 1996 C 182.769 0.356277 2.26414 0
M  V30 1997 C 183.769 -0.501124 1.52792 0
M  V30 1998 O 184.959 -0.30831 1.7145 0
M  V30 1999 C 182.091 -0.492316 3.37326 0
M  V30 2000 H 183.284 1.20389 2.74675 0
M  V30 2001 H 180.837 0.661607 1.41607 0
M  V30 2002 H 181.572 -1.36052 2.94381 0
M  V30 2003 H 181.357 0.121832 3.91911 0
M  V30 2004 H 182.847 -0.853871 4.08777 0
M  V30 2005 N 183.284 -1.43765 0.645699 0
M  V30 2006 C 184.533 -2.01116 0.153412 0
M  V30 2007 C 184.846 -1.51493 -1.23731 0
M  V30 2008 O 186.052 -2.01067 -1.8244 0
M  V30 2009 C 184.508 -3.59206 0.223473 0
M  V30 2010 C 184.116 -4.17823 1.61642 0
M  V30 2011 C 185.86 -4.23972 -0.211597 0
M  V30 2012 C 183.767 -5.68183 1.64081 0
M  V30 2013 H 182.697 -0.752093 0.0535891 0
M  V30 2014 H 185.348 -1.6482 0.806633 0
M  V30 2015 H 183.73 -3.92867 -0.497118 0
M  V30 2016 H 184.904 -3.95674 2.36176 0
M  V30 2017 H 183.219 -3.65399 1.99681 0
M  V30 2018 H 185.816 -5.34275 -0.213112 0
M  V30 2019 H 186.159 -3.97352 -1.24165 0
M  V30 2020 H 186.692 -3.95166 0.456988 0
M  V30 2021 H 183.431 -5.99559 2.64971 0
M  V30 2022 H 182.951 -5.9241 0.938611 0
M  V30 2023 H 184.63 -6.32085 1.3812 0
M  V30 2024 N 184.763 -0.387143 -1.52771 0
M  V30 2025 C 185.726 0.436939 -2.24997 0
M  V30 2026 C 186.726 0.991991 -1.26555 0
M  V30 2027 O 187.916 0.874335 -1.50669 0
M  V30 2028 C 185.048 1.61281 -3.00335 0
M  V30 2029 H 186.241 -0.195365 -2.99263 0
M  V30 2030 H 183.794 -0.139218 -1.55679 0
M  V30 2031 H 184.529 2.2826 -2.30364 0
M  V30 2032 H 184.314 1.22154 -3.72587 0
M  V30 2033 H 185.804 2.19629 -3.5518 0
M  V30 2034 N 186.241 1.57166 -0.116904 0
M  V30 2035 C 187.466 1.999 0.55271 0
M  V30 2036 C 187.891 0.996039 1.59564 0
M  V30 2037 O 187.249 -0.032556 1.81271 0
M  V30 2038 C 187.297 3.4152 1.15742 0
M  V30 2039 O 186.401 3.44106 2.27299 0
M  V30 2040 H 185.742 0.649447 0.138258 0
M  V30 2041 H 188.272 2.03573 -0.204759 0
M  V30 2042 H 188.282 3.79684 1.49346 0
M  V30 2043 H 186.957 4.14034 0.393493 0
M  V30 2044 H 185.534 3.17759 1.9515 0
M  V30 2045 N 187.719 -0.156864 1.56817 0
M  V30 2046 C 188.947 -0.886316 1.86955 0
M  V30 2047 C 189.362 -1.75185 0.703975 0
M  V30 2048 O 188.719 -1.79555 -0.326552 0
M  V30 2049 C 188.77 -1.75117 3.16253 0
M  V30 2050 O 188.491 -0.920537 4.2832 0
M  V30 2051 C 189.992 -2.58905 3.59837 0
M  V30 2052 H 187.212 -0.25678 0.619923 0
M  V30 2053 H 189.756 -0.152615 2.0393 0
M  V30 2054 H 187.911 -2.43805 3.01062 0
M  V30 2055 H 188.325 -1.51337 5.02192 0
M  V30 2056 H 189.799 -3.1518 4.53172 0
M  V30 2057 H 190.276 -3.34472 2.84649 0
M  V30 2058 H 190.882 -1.95526 3.7769 0
M  V30 2059 N 189.197 -1.51736 -0.425897 0
M  V30 2060 C 190.613 -1.40166 -0.76326 0
M  V30 2061 C 190.813 -0.492962 -1.95377 0
M  V30 2062 O 189.869 0.0475815 -2.52455 0
M  V30 2063 C 191.182 -2.82403 -1.03291 0
M  V30 2064 C 192.73 -2.91632 -1.13665 0
M  V30 2065 C 193.205 -4.34801 -1.43916 0
M  V30 2066 N 194.696 -4.3796 -1.50816 0
M  V30 2067 C 195.431 -5.4578 -1.75817 0
M  V30 2068 N 194.927 -6.63744 -1.98534 0
M  V30 2069 N 196.72 -5.33274 -1.77694 0
M  V30 2070 H 188.871 -2.09361 0.358 0
M  V30 2071 H 191.134 -0.942941 0.0978094 0
M  V30 2072 H 190.84 -3.50943 -0.230696 0
M  V30 2073 H 190.714 -3.22428 -1.95754 0
M  V30 2074 H 193.101 -2.23284 -1.92947 0
M  V30 2075 H 193.182 -2.55088 -0.190756 0
M  V30 2076 H 192.826 -5.03703 -0.65157 0
M  V30 2077 H 192.756 -4.68868 -2.39729 0
M  V30 2078 H 195.247 -3.52919 -1.35118 0
M  V30 2079 H 195.56 -7.41704 -2.17013 0
M  V30 2080 H 193.905 -6.66839 -1.95832 0
M  V30 2081 H 197.096 -4.40098 -1.59473 0
M  V30 2082 H 197.269 -6.1738 -1.9684 0
M  V30 2083 N 190.675 0.682077 -1.42076 0
M  V30 2084 C 192.091 0.994324 -1.24841 0
M  V30 2085 C 192.291 2.0096 -0.147389 0
M  V30 2086 O 191.347 2.47822 0.483782 0
M  V30 2087 C 192.66 1.50607 -2.60265 0
M  V30 2088 C 194.208 1.62421 -2.6756 0
M  V30 2089 C 194.683 2.16994 -4.03333 0
M  V30 2090 N 196.174 2.24337 -4.0525 0
M  V30 2091 C 196.909 2.67621 -5.07116 0
M  V30 2092 N 196.405 3.1041 -6.19368 0
M  V30 2093 N 198.198 2.67305 -4.94474 0
M  V30 2094 H 190.349 0.00973908 -2.12398 0
M  V30 2095 H 192.612 0.0668593 -0.945639 0
M  V30 2096 H 192.318 0.834583 -3.41654 0
M  V30 2097 H 192.192 2.48602 -2.83684 0
M  V30 2098 H 194.579 2.28678 -1.86521 0
M  V30 2099 H 194.66 0.629352 -2.47937 0
M  V30 2100 H 194.304 1.51349 -4.84826 0
M  V30 2101 H 194.234 3.17258 -4.20304 0
M  V30 2102 H 196.725 1.94158 -3.24209 0
M  V30 2103 H 197.038 3.42103 -6.92954 0
M  V30 2104 H 195.383 3.08286 -6.22884 0
M  V30 2105 H 198.574 2.33233 -4.05857 0
M  V30 2106 H 198.747 3.00718 -5.73997 0
M  V30 2107 N 192.153 1.28127 0.917671 0
M  V30 2108 C 193.399 1.15223 1.66888 0
M  V30 2109 C 193.732 -0.299293 1.9188 0
M  V30 2110 O 193.007 -1.21805 1.51637 0
M  V30 2111 C 193.29 1.94706 3.02922 0
M  V30 2112 C 193.143 3.47898 2.85109 0
M  V30 2113 C 194.462 1.75939 4.03402 0
M  V30 2114 H 191.581 0.419946 0.605652 0
M  V30 2115 H 194.223 1.57398 1.06423 0
M  V30 2116 H 192.373 1.58864 3.54534 0
M  V30 2117 H 194.045 3.93624 2.40537 0
M  V30 2118 H 192.288 3.7373 2.20246 0
M  V30 2119 H 192.959 3.98765 3.81694 0
M  V30 2120 H 195.435 2.07209 3.60837 0
M  V30 2121 H 194.311 2.33931 4.96556 0
M  V30 2122 H 194.572 0.709877 4.36364 0
M  V30 2123 N 193.631 -1.12557 1.10312 0
M  V30 2124 C 194.877 -1.84311 0.846011 0
M  V30 2125 C 195.21 -1.83805 -0.626859 0
M  V30 2126 O 194.485 -1.28268 -1.46211 0
M  V30 2127 C 194.768 -3.32048 1.39341 0
M  V30 2128 C 194.621 -3.41016 2.93305 0
M  V30 2129 C 195.94 -4.27764 1.03468 0
M  V30 2130 H 193.059 -0.669192 0.30879 0
M  V30 2131 H 195.701 -1.32057 1.36605 0
M  V30 2132 H 193.851 -3.76678 0.951087 0
M  V30 2133 H 195.523 -3.05031 3.46055 0
M  V30 2134 H 193.766 -2.81603 3.29973 0
M  V30 2135 H 194.437 -4.44948 3.26689 0
M  V30 2136 H 196.913 -3.91253 1.41633 0
M  V30 2137 H 195.789 -5.29549 1.44463 0
M  V30 2138 H 196.05 -4.42064 -0.0560404 0
M  V30 2139 N 195.109 -0.891671 -1.2995 0
M  V30 2140 C 196.358 -0.509521 -1.95158 0
M  V30 2141 C 196.671 0.947388 -1.71125 0
M  V30 2142 O 197.877 1.43669 -2.30372 0
M  V30 2143 C 196.333 -0.860315 -3.49466 0
M  V30 2144 C 195.941 -2.33545 -3.8231 0
M  V30 2145 C 197.685 -0.547687 -4.20952 0
M  V30 2146 C 195.592 -2.62752 -5.29826 0
M  V30 2147 H 194.522 -0.18682 -0.730489 0
M  V30 2148 H 197.173 -1.08756 -1.47798 0
M  V30 2149 H 195.555 -0.211285 -3.95436 0
M  V30 2150 H 196.729 -3.02936 -3.47227 0
M  V30 2151 H 195.044 -2.61629 -3.23944 0
M  V30 2152 H 197.641 -0.742854 -5.29515 0
M  V30 2153 H 197.984 0.51332 -4.13123 0
M  V30 2154 H 198.517 -1.1542 -3.80688 0
M  V30 2155 H 195.256 -3.6762 -5.42712 0
M  V30 2156 H 194.776 -1.97977 -5.66185 0
M  V30 2157 H 196.455 -2.48601 -5.97333 0
M  V30 2158 N 196.587 1.43421 -0.653314 0
M  V30 2159 C 197.55 2.29182 0.0287951 0
M  V30 2160 C 198.55 1.42213 0.750465 0
M  V30 2161 O 199.74 1.63843 0.591701 0
M  V30 2162 C 196.872 3.24278 1.05151 0
M  V30 2163 H 198.065 2.90985 -0.725786 0
M  V30 2164 H 195.618 1.50702 -0.414545 0
M  V30 2165 H 196.353 2.6737 1.83532 0
M  V30 2166 H 196.138 3.88396 0.537687 0
M  V30 2167 H 197.628 3.88647 1.52786 0
M  V30 2168 N 198.065 0.39524 1.52563 0
M  V30 2169 C 199.305 -0.184744 2.03563 0
M  V30 2170 C 199.669 -1.43548 1.27507 0
M  V30 2171 O 200.87 -2.093 1.68662 0
M  V30 2172 C 199.141 -0.440294 3.54678 0
M  V30 2173 S 200.7 -0.989712 4.27493 0
M  V30 2174 H 197.518 -0.0515075 0.709132 0
M  V30 2175 H 200.12 0.544957 1.87751 0
M  V30 2176 H 198.824 0.477005 4.07618 0
M  V30 2177 H 198.355 -1.19825 3.74707 0
M  V30 2178 H 200.37 -2.27155 4.41152 0
M  V30 2179 N 199.544 -1.57102 0.125237 0
M  V30 2180 C 200.454 -2.19191 -0.8362 0
M  V30 2181 C 201.47 -1.16985 -1.28805 0
M  V30 2182 O 202.646 -1.49479 -1.34974 0
M  V30 2183 C 199.711 -2.78407 -2.06617 0
M  V30 2184 C 198.772 -3.9567 -1.66565 0
M  V30 2185 C 198.005 -4.52052 -2.83698 0
M  V30 2186 O 198.228 -4.07326 -3.99302 0
M  V30 2187 O 197.162 -5.42645 -2.60423 0
M  V30 2188 H 200.988 -3.01816 -0.337776 0
M  V30 2189 H 198.573 -1.4906 -0.100695 0
M  V30 2190 H 200.455 -3.16129 -2.7864 0
M  V30 2191 H 199.13 -1.9881 -2.55453 0
M  V30 2192 H 198.037 -3.62705 -0.916296 0
M  V30 2193 H 199.37 -4.76722 -1.22464 0
M  V30 2194 N 201.022 0.148545 -1.56898 0
M  V30 2195 C 202.27 0.859717 -1.82902 0
M  V30 2196 C 202.591 1.81775 -0.70588 0
M  V30 2197 O 201.861 1.93994 0.272586 0
M  V30 2198 H 200.441 0.320469 -0.674766 0
M  V30 2199 H 203.103 0.142918 -1.94375 0
M  V30 2200 H 202.199 1.4229 -2.77777 0
M  V30 2201 N 202.5 1.5196 0.417844 0
M  V30 2202 C 203.448 1.75278 1.52907 0
M  V30 2203 C 204.442 0.619611 1.57662 0
M  V30 2204 O 205.648 0.801457 1.61173 0
M  V30 2205 H 202.023 0.554141 0.508362 0
M  V30 2206 H 203.994 2.68389 1.30422 0
M  V30 2207 C 202.743 1.91262 2.90369 0
M  V30 2208 H 202.066 2.77872 2.8745 0
M  V30 2209 H 203.506 2.11581 3.67436 0
M  V30 2210 C 201.965 0.677431 3.30019 0
M  V30 2211 O 202.495 -0.158799 4.01386 0
M  V30 2212 N 200.701 0.515851 2.85985 0
M  V30 2213 H 200.248 1.19744 2.28077 0
M  V30 2214 H 200.206 -0.309315 3.12875 0
M  V30 2215 N 203.978 -0.674533 1.42435 0
M  V30 2216 C 205.389 -1.25514 1.38214 0
M  V30 2217 C 205.74 -1.96055 0.0755464 0
M  V30 2218 O 204.865 -2.00028 -0.8257 0
M  V30 2219 C 205.46 -2.28269 2.50357 0
M  V30 2220 C 204.019 -2.81856 2.49467 0
M  V30 2221 C 203.166 -1.56182 2.29134 0
M  V30 2222 H 206.117 -0.467902 1.51646 0
M  V30 2223 H 206.138 -3.10009 2.20624 0
M  V30 2224 H 205.65 -1.769 3.45439 0
M  V30 2225 H 203.751 -3.37346 1.58204 0
M  V30 2226 H 203.864 -3.30854 3.46515 0
M  V30 2227 H 202.228 -1.82761 1.774 0
M  V30 2228 H 203.011 -1.06778 3.26272 0
M  V30 2229 N 205.456 -1.28612 -0.910864 0
M  V30 2230 C 206.388 -1.08589 -2.01844 0
M  V30 2231 C 207.401 -0.0367419 -1.62759 0
M  V30 2232 O 208.59 -0.280101 -1.76289 0
M  V30 2233 C 205.69 -0.628626 -3.33019 0
M  V30 2234 C 204.863 -1.75382 -4.00699 0
M  V30 2235 C 203.922 -1.28945 -5.10156 0
M  V30 2236 O 202.948 -1.9922 -5.33198 0
M  V30 2237 N 204.15 -0.154224 -5.80295 0
M  V30 2238 H 206.915 -2.03973 -2.19579 0
M  V30 2239 H 204.476 -1.20403 -1.08234 0
M  V30 2240 H 206.468 -0.301508 -4.03575 0
M  V30 2241 H 205.038 0.232451 -3.11735 0
M  V30 2242 H 204.258 -2.25039 -3.23653 0
M  V30 2243 H 205.546 -2.50854 -4.42662 0
M  V30 2244 H 204.944 0.43194 -5.64049 0
M  V30 2245 H 203.501 0.113599 -6.51701 0
M  V30 2246 N 206.934 1.1197 -1.10907 0
M  V30 2247 C 208.18 1.8386 -0.855773 0
M  V30 2248 C 208.513 1.84134 0.617103 0
M  V30 2249 O 207.788 1.29041 1.45529 0
M  V30 2250 C 208.071 3.31305 -1.411 0
M  V30 2251 C 207.924 3.39456 -2.9511 0
M  V30 2252 C 209.243 4.2721 -1.05736 0
M  V30 2253 H 206.362 0.667545 -0.312334 0
M  V30 2254 H 209.004 1.31331 -1.37303 0
M  V30 2255 H 207.154 3.76169 -0.97105 0
M  V30 2256 H 208.826 3.03191 -3.47668 0
M  V30 2257 H 207.069 2.79849 -3.31462 0
M  V30 2258 H 207.74 4.43209 -3.29044 0
M  V30 2259 H 210.216 3.90497 -1.43706 0
M  V30 2260 H 209.092 5.28775 -1.47269 0
M  V30 2261 H 209.353 4.42088 0.0325958 0
M  V30 2262 N 208.412 0.89855 1.29475 0
M  V30 2263 C 209.823 0.572537 1.77705 0
M  V30 2264 C 210.174 -0.911778 1.73727 0
M  V30 2265 O 209.299 -1.71288 1.32247 0
M  V30 2266 C 209.894 1.03252 3.22683 0
M  V30 2267 C 208.453 0.757687 3.68695 0
M  V30 2268 C 207.6 1.20787 2.49612 0
M  V30 2269 H 210.551 1.08139 1.16153 0
M  V30 2270 H 210.572 0.367307 3.78723 0
M  V30 2271 H 210.084 2.11285 3.25546 0
M  V30 2272 H 208.185 -0.310079 3.71308 0
M  V30 2273 H 208.298 1.35476 4.59547 0
M  V30 2274 H 206.662 0.626888 2.46865 0
M  V30 2275 H 207.445 2.29622 2.55203 0
M  V30 2276 N 209.89 -1.43072 0.660911 0
M  V30 2277 C 211.136 -2.0202 0.177708 0
M  V30 2278 C 211.469 -1.52066 -1.20787 0
M  V30 2279 O 210.744 -0.716987 -1.80802 0
M  V30 2280 C 211.027 -3.59561 0.197019 0
M  V30 2281 C 210.88 -4.19727 1.61706 0
M  V30 2282 C 212.199 -4.37664 -0.462396 0
M  V30 2283 H 209.318 -0.734034 0.0660494 0
M  V30 2284 H 211.96 -1.70272 0.843058 0
M  V30 2285 H 210.11 -3.86739 -0.369527 0
M  V30 2286 H 211.782 -4.03553 2.23479 0
M  V30 2287 H 210.025 -3.76084 2.16201 0
M  V30 2288 H 210.696 -5.28834 1.58237 0
M  V30 2289 H 213.172 -4.16095 0.0197215 0
M  V30 2290 H 212.048 -5.47305 -0.418188 0
M  V30 2291 H 212.309 -4.14493 -1.53778 0
M  V30 2292 N 211.368 -0.403325 -1.52352 0
M  V30 2293 C 212.318 0.442244 -2.2367 0
M  V30 2294 C 213.302 1.01823 -1.24583 0
M  V30 2295 O 214.494 0.942005 -1.49851 0
M  V30 2296 C 211.623 1.5615 -3.05732 0
M  V30 2297 C 210.709 0.996575 -4.12225 0
M  V30 2298 N 211.1 0.157804 -5.05554 0
M  V30 2299 C 209.398 1.26767 -4.27605 0
M  V30 2300 C 210.099 -0.155853 -5.81491 0
M  V30 2301 N 209.075 0.451775 -5.41719 0
M  V30 2302 H 212.877 -0.204964 -2.93184 0
M  V30 2303 H 210.391 -0.213418 -1.60992 0
M  V30 2304 H 212.388 2.17981 -3.55373 0
M  V30 2305 H 211.048 2.21139 -2.37755 0
M  V30 2306 H 212.059 -0.206049 -5.1749 0
M  V30 2307 H 208.736 1.91757 -3.70858 0
M  V30 2308 H 210.126 -0.836329 -6.66675 0
M  V30 2309 N 212.846 1.57033 -0.133567 0
M  V30 2310 C 214.093 1.95686 0.520877 0
M  V30 2311 C 214.421 1.0177 1.6575 0
M  V30 2312 O 213.676 0.0443195 1.9565 0
M  V30 2313 C 213.975 3.40674 1.08057 0
M  V30 2314 C 213.641 4.50855 0.0637899 0
M  V30 2315 C 212.303 4.80716 -0.215757 0
M  V30 2316 C 214.655 5.17398 -0.62835 0
M  V30 2317 C 211.983 5.74433 -1.19348 0
M  V30 2318 C 214.335 6.12167 -1.5948 0
M  V30 2319 C 212.999 6.40414 -1.88218 0
M  V30 2320 H 212.269 0.716067 0.190602 0
M  V30 2321 H 214.916 1.9026 -0.217556 0
M  V30 2322 H 213.221 3.42865 1.89606 0
M  V30 2323 H 214.918 3.67902 1.59529 0
M  V30 2324 H 211.508 4.27605 0.291855 0
M  V30 2325 H 215.692 4.94472 -0.425562 0
M  V30 2326 H 210.948 5.94616 -1.42272 0
M  V30 2327 H 215.122 6.6281 -2.13671 0
M  V30 2328 H 212.749 7.12838 -2.64133 0
M  V30 2329 N 214.325 -0.140222 1.56975 0
M  V30 2330 C 215.602 -0.880769 1.74648 0
M  V30 2331 C 215.982 -1.99036 0.703404 0
M  V30 2332 O 215.33 -2.26821 -0.27648 0
M  V30 2333 C 215.54 -1.417 3.18939 0
M  V30 2334 C 216.888 -1.87774 3.80823 0
M  V30 2335 O 217.912 -1.51427 3.2241 0
M  V30 2336 O 216.771 -2.54827 4.83452 0
M  V30 2337 H 213.865 -0.416713 0.714338 0
M  V30 2338 H 216.411 -0.125618 1.69234 0
M  V30 2339 H 215.183 -0.619902 3.86359 0
M  V30 2340 H 214.806 -2.23546 3.28805 0
M  V30 2341 N 215.803 -1.52179 -0.40978 0
M  V30 2342 C 217.051 -1.65878 -1.15451 0
M  V30 2343 C 217.372 -0.390771 -1.91044 0
M  V30 2344 O 216.642 0.594323 -1.86667 0
M  V30 2345 H 215.222 -0.611405 -0.429177 0
M  V30 2346 H 217.884 -1.89219 -0.467134 0
M  V30 2347 H 216.98 -2.49954 -1.86894 0
M  V30 2348 O 217.32 0.555659 -1.5164 0
M  V30 2349 H 218.011 1.21079 -1.51194 0
M  V30 END ATOM
M  V30 BEGIN BOND
M  V30 END BOND
M  V30 END CTAB
M  END
$$$$
