drugbank_target|P34024 1-phosphatidylinositol phosphodiesterase (DB03106)
 OpenBabel12092120263D

  0  0  0     0  0            999 V3000
M  V30 BEGIN CTAB
M  V30 COUNTS 5182 5237 0 0 0
M  V30 BEGIN ATOM
M  V30 1 H -0.908 1.98254 -0.117106 0
M  V30 2 N 0 1.576 0 0
M  V30 3 C 0.933 2.03868 1.02534 0
M  V30 4 C 1.911 0.928543 1.3348 0
M  V30 5 O 3.095 1.19667 1.45644 0
M  V30 6 C 0.222 2.43627 2.35294 0
M  V30 7 C -0.732 3.65373 2.2001 0
M  V30 8 S 0.101 5.13292 1.52614 0
M  V30 9 C 1.257 5.56322 2.86805 0
M  V30 10 H 1.49 2.90518 0.631377 0
M  V30 11 H -0.977 1.52953 0.210867 0
M  V30 12 H 0.981 2.67203 3.11629 0
M  V30 13 H -0.358 1.57376 2.7183 0
M  V30 14 H -1.165 3.90944 3.18086 0
M  V30 15 H -1.563 3.418 1.51819 0
M  V30 16 H 0.729 5.58782 3.83104 0
M  V30 17 H 1.672 6.56266 2.65933 0
M  V30 18 H 2.08 4.83886 2.90714 0
M  V30 19 N 1.4781 -0.272755 1.55222 0
M  V30 20 C 2.7081 -1.02107 1.79604 0
M  V30 21 C 3.1161 -1.80419 0.569693 0
M  V30 22 O 2.4591 -1.77566 -0.470743 0
M  V30 23 C 2.5211 -2.02675 2.96922 0
M  V30 24 C 2.1851 -1.43299 4.33952 0
M  V30 25 C 3.1821 -0.84853 5.12929 0
M  V30 26 C 0.8671 -1.46012 4.8061 0
M  V30 27 C 2.8611 -0.299109 6.36698 0
M  V30 28 C 0.5481 -0.906833 6.04334 0
M  V30 29 C 1.5461 -0.32733 6.82215 0
M  V30 30 O 1.2341 0.217479 8.03606 0
M  V30 31 H 0.9661 -0.307322 0.602104 0
M  V30 32 H 3.5201 -0.308862 2.03065 0
M  V30 33 H 1.7501 -2.77656 2.69155 0
M  V30 34 H 3.4391 -2.63637 3.08626 0
M  V30 35 H 4.2051 -0.820265 4.78013 0
M  V30 36 H 0.0841 -1.90056 4.2 0
M  V30 37 H 3.6281 0.153852 6.9743 0
M  V30 38 H -0.4749 -0.932339 6.38731 0
M  V30 39 H 0.2931 0.106863 8.1843 0
M  V30 40 N 2.9562 -1.48159 -0.537278 0
M  V30 41 C 3.9032 -1.62138 -1.64256 0
M  V30 42 C 4.8732 -0.463668 -1.59497 0
M  V30 43 O 6.0582 -0.686241 -1.78032 0
M  V30 44 C 3.1982 -1.66028 -3.02537 0
M  V30 45 C 2.3112 -2.92855 -3.17585 0
M  V30 46 C 1.4462 -2.87952 -4.46382 0
M  V30 47 C 0.4852 -4.09516 -4.54932 0
M  V30 48 N -0.3778 -4.02733 -5.75109 0
M  V30 49 H 4.4622 -2.56529 -1.51647 0
M  V30 50 H 1.9992 -1.27224 -0.738414 0
M  V30 51 H 3.9572 -1.66265 -3.82638 0
M  V30 52 H 2.5872 -0.751331 -3.13934 0
M  V30 53 H 1.6392 -3.02395 -2.30784 0
M  V30 54 H 2.9512 -3.82822 -3.19764 0
M  V30 55 H 2.1052 -2.8655 -5.34765 0
M  V30 56 H 0.8442 -1.95702 -4.46712 0
M  V30 57 H -0.1508 -4.11201 -3.64957 0
M  V30 58 H 1.0742 -5.02917 -4.56346 0
M  V30 59 H -0.9798 -3.13299 -5.76351 0
M  V30 60 H -1.0628 -4.86397 -5.78752 0
M  V30 61 H 0.2052 -4.05379 -6.65799 0
M  V30 62 N 4.4343 0.785586 -1.36625 0
M  V30 63 C 5.3823 1.91978 -1.31329 0
M  V30 64 C 6.3763 1.68162 -0.204416 0
M  V30 65 O 7.5823 1.76122 -0.371645 0
M  V30 66 H 3.9573 0.631087 -0.408942 0
M  V30 67 H 5.9283 1.93562 -2.27104 0
M  V30 68 C 4.6773 3.29055 -1.12329 0
M  V30 69 H 4.0003 3.4795 -1.96903 0
M  V30 70 H 5.4403 4.08756 -1.12671 0
M  V30 71 C 3.8993 3.36461 0.171861 0
M  V30 72 O 4.4293 3.84576 1.16035 0
M  V30 73 N 2.6353 2.89782 0.217846 0
M  V30 74 H 2.1823 2.50819 -0.587183 0
M  V30 75 H 2.1403 2.95119 1.08408 0
M  V30 76 N 5.9124 1.20967 1.01018 0
M  V30 77 C 7.1424 1.04803 1.78044 0
M  V30 78 C 7.5504 -0.405462 1.84804 0
M  V30 79 O 6.8934 -1.2932 1.30468 0
M  V30 80 C 6.9554 1.56377 3.23707 0
M  V30 81 C 6.6194 3.04767 3.40538 0
M  V30 82 C 7.6164 4.02366 3.29239 0
M  V30 83 C 5.3014 3.43862 3.66147 0
M  V30 84 C 7.2954 5.37049 3.43304 0
M  V30 85 C 4.9824 4.78699 3.79855 0
M  V30 86 C 5.9804 5.75101 3.68439 0
M  V30 87 O 5.6684 7.07493 3.81719 0
M  V30 88 H 5.4004 0.368778 0.56655 0
M  V30 89 H 7.9544 1.60642 1.27997 0
M  V30 90 H 6.1844 0.949297 3.74867 0
M  V30 91 H 7.8734 1.36136 3.8239 0
M  V30 92 H 8.6394 3.73506 3.09384 0
M  V30 93 H 4.5184 2.69364 3.74118 0
M  V30 94 H 8.0624 6.12277 3.34309 0
M  V30 95 H 3.9594 5.07247 3.99213 0
M  V30 96 H 4.7274 7.1483 3.98697 0
M  V30 97 N 7.3905 -1.2043 1.01659 0
M  V30 98 C 8.3205 -2.25466 0.607226 0
M  V30 99 C 9.3015 -1.65853 -0.377716 0
M  V30 100 O 10.4865 -1.92409 -0.263149 0
M  V30 101 C 7.6165 -3.47256 -0.0552949 0
M  V30 102 C 6.5705 -4.19462 0.850632 0
M  V30 103 C 5.8965 -5.34673 0.0538859 0
M  V30 104 C 7.1965 -4.75603 2.15868 0
M  V30 105 H 8.8905 -2.59962 1.48526 0
M  V30 106 H 6.4365 -1.2496 0.715605 0
M  V30 107 H 8.3895 -4.19917 -0.353233 0
M  V30 108 H 7.1135 -3.11924 -0.968045 0
M  V30 109 H 5.7725 -3.48667 1.13257 0
M  V30 110 H 5.4205 -4.95585 -0.860514 0
M  V30 111 H 5.1205 -5.83913 0.657192 0
M  V30 112 H 6.6445 -6.10138 -0.237598 0
M  V30 113 H 8.0585 -5.40083 1.92311 0
M  V30 114 H 6.4555 -5.3528 2.71284 0
M  V30 115 H 7.5255 -3.94346 2.82169 0
M  V30 116 N 8.8686 -0.792821 -1.36206 0
M  V30 117 C 9.8006 -0.151469 -2.28699 0
M  V30 118 C 10.8136 0.641262 -1.49638 0
M  V30 119 O 12.0026 0.475885 -1.72039 0
M  V30 120 C 9.1026 0.808424 -3.29117 0
M  V30 121 C 8.2756 0.0650202 -4.37352 0
M  V30 122 C 7.3346 0.941358 -5.17711 0
M  V30 123 O 6.3606 0.397352 -5.67811 0
M  V30 124 N 7.5626 2.2652 -5.3448 0
M  V30 125 H 10.3276 -0.945982 -2.84379 0
M  V30 126 H 7.8886 -0.647032 -1.48409 0
M  V30 127 H 9.8806 1.3986 -3.79765 0
M  V30 128 H 8.4506 1.5038 -2.74052 0
M  V30 129 H 7.6706 -0.706255 -3.87822 0
M  V30 130 H 8.9586 -0.447847 -5.06825 0
M  V30 131 H 8.3566 2.73128 -4.95396 0
M  V30 132 H 6.9136 2.80493 -5.88359 0
M  V30 133 N 10.3467 1.47872 -0.545128 0
M  V30 134 C 11.7627 1.5829 -0.204032 0
M  V30 135 C 11.9627 1.54529 1.29317 0
M  V30 136 O 11.0187 1.44232 2.07252 0
M  V30 137 C 12.3317 2.89304 -0.819987 0
M  V30 138 C 13.8797 3.02864 -0.790105 0
M  V30 139 C 14.3547 4.3656 -1.38491 0
M  V30 140 N 15.8457 4.43165 -1.34755 0
M  V30 141 C 16.5807 5.45153 -1.77753 0
M  V30 142 N 16.0767 6.54016 -2.2855 0
M  V30 143 N 17.8697 5.36125 -1.68897 0
M  V30 144 H 10.0207 1.4856 -1.51802 0
M  V30 145 H 12.2837 0.706305 -0.632327 0
M  V30 146 H 11.9897 2.97757 -1.87173 0
M  V30 147 H 11.8637 3.75957 -0.305915 0
M  V30 148 H 14.2507 2.94014 0.252913 0
M  V30 149 H 14.3317 2.17782 -1.34181 0
M  V30 150 H 13.9757 4.46164 -2.42693 0
M  V30 151 H 13.9057 5.20353 -0.808754 0
M  V30 152 H 16.3967 3.65083 -0.975855 0
M  V30 153 H 16.7097 7.27994 -2.59314 0
M  V30 154 H 15.0547 6.54938 -2.32553 0
M  V30 155 H 18.2457 4.49975 -1.28998 0
M  V30 156 H 18.4187 6.15472 -2.02726 0
M  V30 157 N 11.8248 0.280983 1.55075 0
M  V30 158 C 13.0528 -0.337293 2.04132 0
M  V30 159 C 13.4678 -1.4903 1.15912 0
M  V30 160 O 12.8248 -1.81606 0.180459 0
M  V30 161 C 12.8758 -0.812706 3.52246 0
M  V30 162 O 12.5968 0.294387 4.3711 0
M  V30 163 C 14.0978 -1.4982 4.17216 0
M  V30 164 H 11.3178 -0.0761638 0.666663 0
M  V30 165 H 13.8618 0.414787 2.00249 0
M  V30 166 H 12.0168 -1.51486 3.56554 0
M  V30 167 H 12.4308 -0.0721325 5.2445 0
M  V30 168 H 13.9048 -1.7822 5.22438 0
M  V30 169 H 14.3818 -2.43168 3.65741 0
M  V30 170 H 14.9878 -0.839742 4.16927 0
M  V30 171 N 13.3029 -1.57598 0.00835791 0
M  V30 172 C 14.2329 -2.1198 -0.979113 0
M  V30 173 C 15.2139 -1.03091 -1.35301 0
M  V30 174 O 16.3989 -1.30818 -1.43528 0
M  V30 175 C 13.5289 -2.62995 -2.26828 0
M  V30 176 C 12.4829 -3.76485 -2.03576 0
M  V30 177 C 11.8089 -4.13846 -3.38579 0
M  V30 178 C 13.1089 -5.0342 -1.39161 0
M  V30 179 H 14.8029 -2.94738 -0.526281 0
M  V30 180 H 12.3489 -1.41783 -0.251704 0
M  V30 181 H 14.3019 -2.99669 -2.96271 0
M  V30 182 H 13.0259 -1.7737 -2.7424 0
M  V30 183 H 11.6849 -3.40217 -1.36557 0
M  V30 184 H 11.3329 -3.25232 -3.83709 0
M  V30 185 H 11.0329 -4.90312 -3.23834 0
M  V30 186 H 12.5569 -4.53086 -4.09323 0
M  V30 187 H 13.9709 -5.37812 -1.98573 0
M  V30 188 H 12.3679 -5.84746 -1.34878 0
M  V30 189 H 13.4379 -4.83548 -0.361868 0
M  V30 190 N 14.781 0.264519 -1.55364 0
M  V30 191 C 16.027 0.99646 -1.76631 0
M  V30 192 C 16.36 1.85632 -0.570478 0
M  V30 193 O 15.635 1.89647 0.43175 0
M  V30 194 C 15.918 1.87187 -3.07625 0
M  V30 195 C 15.771 1.04138 -4.37579 0
M  V30 196 C 17.09 2.85749 -3.34717 0
M  V30 197 H 14.209 0.360841 -0.642622 0
M  V30 198 H 16.851 0.268218 -1.88097 0
M  V30 199 H 15.001 2.49279 -2.9798 0
M  V30 200 H 16.673 0.440517 -4.59192 0
M  V30 201 H 14.916 0.345115 -4.32425 0
M  V30 202 H 15.587 1.68729 -5.2558 0
M  V30 203 H 18.063 2.33793 -3.4421 0
M  V30 204 H 16.939 3.44136 -4.27623 0
M  V30 205 H 17.2 3.61311 -2.54768 0
M  V30 206 N 16.2591 1.48442 0.529413 0
M  V30 207 C 17.1891 1.65902 1.64313 0
M  V30 208 C 18.1701 0.507897 1.6234 0
M  V30 209 O 19.3551 0.740503 1.79528 0
M  V30 210 C 16.4851 1.69911 3.02898 0
M  V30 211 C 15.4391 2.8453 3.19729 0
M  V30 212 C 14.7651 2.73629 4.59381 0
M  V30 213 C 16.0651 4.25821 3.02447 0
M  V30 214 H 17.7591 2.5914 1.49955 0
M  V30 215 H 15.3051 1.24709 0.719982 0
M  V30 216 H 17.2581 1.80715 3.80684 0
M  V30 217 H 15.9821 0.732524 3.18279 0
M  V30 218 H 14.6411 2.73283 2.44361 0
M  V30 219 H 14.2891 1.74938 4.71599 0
M  V30 220 H 13.9891 3.50541 4.71588 0
M  V30 221 H 15.5131 2.86401 5.39265 0
M  V30 222 H 16.9271 4.37898 3.70024 0
M  V30 223 H 15.3241 5.03735 3.26146 0
M  V30 224 H 16.3941 4.42244 1.98867 0
M  V30 225 N 17.7372 -0.778329 1.37039 0
M  V30 226 C 18.6672 -1.90546 1.34962 0
M  V30 227 C 19.6482 -1.68681 0.219274 0
M  V30 228 O 20.8332 -1.89634 0.418624 0
M  V30 229 C 17.9632 -3.27734 1.14925 0
M  V30 230 C 16.9172 -3.64147 2.24902 0
M  V30 231 C 16.2432 -4.99806 1.89996 0
M  V30 232 C 17.5432 -3.71579 3.67051 0
M  V30 233 H 19.2372 -1.92541 2.29277 0
M  V30 234 H 16.7832 -0.924948 1.10366 0
M  V30 235 H 18.7362 -4.06215 1.12104 0
M  V30 236 H 17.4602 -3.26154 0.170631 0
M  V30 237 H 16.1192 -2.8797 2.26868 0
M  V30 238 H 15.7672 -4.94759 0.906796 0
M  V30 239 H 15.4672 -5.25139 2.63634 0
M  V30 240 H 16.9912 -5.80694 1.88749 0
M  V30 241 H 18.4052 -4.40227 3.67251 0
M  V30 242 H 16.8022 -4.08405 4.39688 0
M  V30 243 H 17.8722 -2.72404 4.01154 0
M  V30 244 N 19.2153 -1.21501 -1.00376 0
M  V30 245 C 20.1453 -0.999478 -2.11028 0
M  V30 246 C 21.1263 0.0759671 -1.6993 0
M  V30 247 O 22.3113 -0.0841106 -1.94018 0
M  V30 248 C 19.4413 -0.564709 -3.42678 0
M  V30 249 C 18.3953 -1.58486 -3.97576 0
M  V30 250 C 17.7213 -1.00628 -5.25146 0
M  V30 251 C 19.0213 -2.97204 -4.29496 0
M  V30 252 H 20.7153 -1.92495 -2.29317 0
M  V30 253 H 18.2613 -0.92693 -1.102 0
M  V30 254 H 20.2143 -0.401091 -4.19487 0
M  V30 255 H 18.9383 0.396411 -3.24185 0
M  V30 256 H 17.5973 -1.73606 -3.22888 0
M  V30 257 H 17.2453 -0.0368439 -5.02987 0
M  V30 258 H 16.9453 -1.68771 -5.62841 0
M  V30 259 H 18.4693 -0.854015 -6.04598 0
M  V30 260 H 19.8833 -2.8552 -4.97143 0
M  V30 261 H 18.2803 -3.62372 -4.78338 0
M  V30 262 H 19.3503 -3.47956 -3.3772 0
M  V30 263 N 20.6934 1.19889 -1.02296 0
M  V30 264 C 21.9334 1.91125 -0.724602 0
M  V30 265 C 22.2974 1.77464 0.732835 0
M  V30 266 O 23.4984 2.43241 1.144 0
M  V30 267 C 21.7694 3.38187 -1.15604 0
M  V30 268 S 23.3284 4.27702 -0.980621 0
M  V30 269 H 20.1464 0.66018 -0.263976 0
M  V30 270 H 22.7484 1.44978 -1.31155 0
M  V30 271 H 21.4524 3.45653 -2.21251 0
M  V30 272 H 20.9834 3.89363 -0.562131 0
M  V30 273 H 22.9984 4.96073 0.112225 0
M  V30 274 N 22.1715 0.800033 1.35784 0
M  V30 275 C 23.4185 0.377342 1.98953 0
M  V30 276 C 23.7465 -1.05378 1.6348 0
M  V30 277 O 23.0015 -1.74459 0.886707 0
M  V30 278 C 23.3005 0.500276 3.53881 0
M  V30 279 C 22.9665 1.89375 4.09204 0
M  V30 280 C 21.6285 2.27499 4.24025 0
M  V30 281 C 23.9805 2.8057 4.39238 0
M  V30 282 C 21.3085 3.562 4.66195 0
M  V30 283 C 23.6605 4.0871 4.82844 0
M  V30 284 C 22.3245 4.46843 4.95871 0
M  V30 285 H 21.5945 0.138079 0.728021 0
M  V30 286 H 24.2415 1.01955 1.62103 0
M  V30 287 H 22.5465 -0.225405 3.91151 0
M  V30 288 H 24.2435 0.154097 4.00704 0
M  V30 289 H 20.8335 1.58753 3.98115 0
M  V30 290 H 25.0175 2.52367 4.27346 0
M  V30 291 H 20.2735 3.85602 4.74469 0
M  V30 292 H 24.4475 4.79481 5.05046 0
M  V30 293 H 22.0745 5.46623 5.28306 0
M  V30 294 N 23.6496 -1.47581 0.552962 0
M  V30 295 C 24.8986 -2.01684 0.0251995 0
M  V30 296 C 25.2116 -1.43317 -1.33115 0
M  V30 297 O 26.4176 -1.89057 -1.94858 0
M  V30 298 C 24.8736 -3.599 -0.00542052 0
M  V30 299 C 24.4816 -4.27257 1.34742 0
M  V30 300 C 26.2256 -4.21768 -0.4808 0
M  V30 301 C 24.1326 -5.77467 1.27614 0
M  V30 302 H 23.0626 -0.753979 0.00565033 0
M  V30 303 H 25.7136 -1.69616 0.70018 0
M  V30 304 H 24.0956 -3.88911 -0.745961 0
M  V30 305 H 25.2696 -4.09893 2.10534 0
M  V30 306 H 23.5846 -3.77358 1.76039 0
M  V30 307 H 26.1816 -5.31838 -0.55246 0
M  V30 308 H 26.5246 -3.88651 -1.49184 0
M  V30 309 H 27.0576 -3.97273 0.204752 0
M  V30 310 H 23.7966 -6.15196 2.26304 0
M  V30 311 H 23.3166 -5.9718 0.55996 0
M  V30 312 H 24.9956 -6.3959 0.976421 0
M  V30 313 N 25.1277 -0.289203 -1.54924 0
M  V30 314 C 26.0577 0.58549 -2.2604 0
M  V30 315 C 27.0387 1.14753 -1.25562 0
M  V30 316 O 28.2237 1.17906 -1.54311 0
M  V30 317 C 25.3537 1.76305 -2.99222 0
M  V30 318 C 24.3077 1.33191 -4.06748 0
M  V30 319 C 23.6337 2.5937 -4.6758 0
M  V30 320 C 24.9337 0.471775 -5.20165 0
M  V30 321 H 26.6277 -0.00763532 -2.99399 0
M  V30 322 H 24.1737 -0.00511229 -1.43999 0
M  V30 323 H 26.1267 2.38097 -3.47689 0
M  V30 324 H 24.8507 2.38223 -2.23422 0
M  V30 325 H 23.5097 0.737121 -3.59113 0
M  V30 326 H 23.1577 3.19576 -3.88433 0
M  V30 327 H 22.8577 2.31228 -5.40192 0
M  V30 328 H 24.3817 3.21985 -5.18804 0
M  V30 329 H 25.7957 0.995056 -5.64599 0
M  V30 330 H 24.1927 0.284639 -5.99425 0
M  V30 331 H 25.2627 -0.506041 -4.82252 0
M  V30 332 N 26.6058 1.57591 -0.0167156 0
M  V30 333 C 27.8358 1.95292 0.674149 0
M  V30 334 C 28.2438 0.891097 1.66901 0
M  V30 335 O 27.5868 -0.136908 1.83189 0
M  V30 336 C 27.6488 3.29072 1.44747 0
M  V30 337 C 27.3128 4.52879 0.612331 0
M  V30 338 C 28.3098 5.1979 -0.107126 0
M  V30 339 C 25.9948 4.99242 0.553381 0
M  V30 340 C 27.9888 6.31375 -0.874339 0
M  V30 341 C 25.6758 6.10713 -0.217546 0
M  V30 342 C 26.6738 6.76637 -0.930123 0
M  V30 343 O 26.3618 7.85969 -1.68844 0
M  V30 344 H 26.0938 0.648275 0.191615 0
M  V30 345 H 28.6478 2.05284 -0.0690148 0
M  V30 346 H 26.8778 3.15535 2.2355 0
M  V30 347 H 28.5668 3.51764 2.02526 0
M  V30 348 H 29.3328 4.84948 -0.0708392 0
M  V30 349 H 25.2118 4.47744 1.09757 0
M  V30 350 H 28.7558 6.82764 -1.43106 0
M  V30 351 H 24.6528 6.44994 -0.255593 0
M  V30 352 H 25.4208 8.02571 -1.6069 0
M  V30 353 N 28.0839 -0.256276 1.55502 0
M  V30 354 C 29.3309 -0.985619 1.76895 0
M  V30 355 C 29.6589 -1.85671 0.579355 0
M  V30 356 O 28.9139 -1.90744 -0.437651 0
M  V30 357 C 29.2129 -1.88432 3.03691 0
M  V30 358 C 28.8789 -1.16936 4.35473 0
M  V30 359 C 27.5409 -0.97173 4.71286 0
M  V30 360 C 29.8929 -0.661889 5.1698 0
M  V30 361 C 27.2209 -0.254179 5.86149 0
M  V30 362 C 29.5729 0.042149 6.32586 0
M  V30 363 C 28.2369 0.25134 6.67027 0
M  V30 364 H 27.5069 -0.360663 0.647304 0
M  V30 365 H 30.1539 -0.256483 1.89775 0
M  V30 366 H 28.4589 -2.68021 2.85783 0
M  V30 367 H 30.1559 -2.45015 3.1744 0
M  V30 368 H 26.7459 -1.33332 4.07333 0
M  V30 369 H 30.9299 -0.802145 4.89775 0
M  V30 370 H 26.1859 -0.0815408 6.11346 0
M  V30 371 H 30.3599 0.443049 6.94989 0
M  V30 372 H 27.9869 0.809314 7.5588 0
M  V30 373 N 29.562 -1.4872 -0.521534 0
M  V30 374 C 30.809 -1.57168 -1.27689 0
M  V30 375 C 31.137 -0.249275 -1.92896 0
M  V30 376 O 30.392 0.761162 -1.80291 0
M  V30 377 C 30.691 -2.66497 -2.38148 0
M  V30 378 C 30.357 -4.08664 -1.90538 0
M  V30 379 C 29.019 -4.47357 -1.77271 0
M  V30 380 C 31.371 -4.97724 -1.54663 0
M  V30 381 C 28.699 -5.72905 -1.26478 0
M  V30 382 C 31.051 -6.2377 -1.05329 0
M  V30 383 C 29.715 -6.61311 -0.906861 0
M  V30 384 H 28.985 -0.575117 -0.467249 0
M  V30 385 H 31.632 -1.82472 -0.581051 0
M  V30 386 H 29.937 -2.35085 -3.13437 0
M  V30 387 H 31.634 -2.70246 -2.96257 0
M  V30 388 H 28.224 -3.78111 -2.01816 0
M  V30 389 H 32.408 -4.68501 -1.63768 0
M  V30 390 H 27.664 -6.00709 -1.13835 0
M  V30 391 H 31.838 -6.9217 -0.76644 0
M  V30 392 H 29.465 -7.5848 -0.511083 0
M  V30 393 N 31.0401 0.771051 -1.3745 0
M  V30 394 C 32.2681 1.56015 -1.35893 0
M  V30 395 C 32.6831 1.88718 0.0555523 0
M  V30 396 O 32.0401 1.51502 1.01752 0
M  V30 397 C 32.0911 2.87001 -2.19801 0
M  V30 398 O 31.8121 2.557 -3.55738 0
M  V30 399 C 33.3131 3.81228 -2.26231 0
M  V30 400 H 30.5331 0.483317 -0.465453 0
M  V30 401 H 33.0771 0.955611 -1.80799 0
M  V30 402 H 31.2321 3.43877 -1.78402 0
M  V30 403 H 31.6461 3.39584 -3.99729 0
M  V30 404 H 33.1201 4.70139 -2.89263 0
M  V30 405 H 33.5971 4.20409 -1.27093 0
M  V30 406 H 34.2031 3.30281 -2.67945 0
M  V30 407 N 32.5182 1.22032 0.997298 0
M  V30 408 C 33.7652 1.04222 1.73621 0
M  V30 409 C 34.0932 -0.423264 1.89839 0
M  V30 410 O 33.3482 -1.3302 1.43542 0
M  V30 411 C 33.6472 1.69345 3.14733 0
M  V30 412 C 33.3132 3.19226 3.18442 0
M  V30 413 C 31.9752 3.60124 3.19161 0
M  V30 414 C 34.3272 4.15181 3.15078 0
M  V30 415 C 31.6552 4.95467 3.14212 0
M  V30 416 C 34.0072 5.50495 3.1167 0
M  V30 417 C 32.6712 5.90779 3.10703 0
M  V30 418 H 31.9412 0.381374 0.635323 0
M  V30 419 H 34.5882 1.51732 1.16831 0
M  V30 420 H 32.8932 1.14147 3.74803 0
M  V30 421 H 34.5902 1.53059 3.7064 0
M  V30 422 H 31.1802 2.86659 3.18629 0
M  V30 423 H 35.3642 3.84605 3.13676 0
M  V30 424 H 30.6202 5.25916 3.11805 0
M  V30 425 H 34.7942 6.24576 3.08022 0
M  V30 426 H 32.4212 6.9562 3.06622 0
M  V30 427 N 33.9963 -1.19345 1.0293 0
M  V30 428 C 35.4073 -1.70725 0.755633 0
M  V30 429 C 35.7583 -1.82326 -0.724676 0
M  V30 430 O 34.8833 -1.49471 -1.56484 0
M  V30 431 C 35.4783 -3.10084 1.36503 0
M  V30 432 C 34.0373 -3.58723 1.13994 0
M  V30 433 C 33.1843 -2.35577 1.46283 0
M  V30 434 H 36.1353 -1.0418 1.19718 0
M  V30 435 H 36.1563 -3.72787 0.762217 0
M  V30 436 H 35.6683 -3.01609 2.44241 0
M  V30 437 H 33.7693 -3.72512 0.0807901 0
M  V30 438 H 33.8823 -4.42816 1.82894 0
M  V30 439 H 32.2463 -2.38935 0.88217 0
M  V30 440 H 33.0293 -2.29731 2.55105 0
M  V30 441 N 35.4744 -0.807222 -1.35358 0
M  V30 442 C 36.4044 -0.232509 -2.3234 0
M  V30 443 C 37.3854 0.642386 -1.57504 0
M  V30 444 O 38.5704 0.572526 -1.85569 0
M  V30 445 C 35.7004 0.619238 -3.41735 0
M  V30 446 C 34.6544 -0.157215 -4.27711 0
M  V30 447 C 33.9804 0.816273 -5.28433 0
M  V30 448 C 35.2804 -1.35656 -5.04376 0
M  V30 449 H 36.9744 -1.04276 -2.80654 0
M  V30 450 H 34.5204 -0.50288 -1.34934 0
M  V30 451 H 36.4734 1.03137 -4.08584 0
M  V30 452 H 35.1974 1.46239 -2.92031 0
M  V30 453 H 33.8564 -0.550525 -3.62443 0
M  V30 454 H 33.5044 1.65494 -4.74996 0
M  V30 455 H 33.2044 0.301067 -5.86828 0
M  V30 456 H 34.7284 1.22659 -5.98153 0
M  V30 457 H 36.1424 -1.01927 -5.64166 0
M  V30 458 H 34.5394 -1.8063 -5.7227 0
M  V30 459 H 35.6094 -2.14288 -4.34981 0
M  V30 460 N 36.9525 1.47285 -0.560781 0
M  V30 461 C 38.2005 2.02064 -0.0379868 0
M  V30 462 C 38.5215 1.43711 1.31803 0
M  V30 463 O 37.7915 0.61362 1.86042 0
M  V30 464 H 36.3715 0.746918 -0.0110531 0
M  V30 465 H 39.0335 1.80648 -0.731598 0
M  V30 466 H 38.1295 3.12064 0.0474463 0
M  V30 467 N 38.4306 0.297415 1.54768 0
M  V30 468 C 39.6786 -0.312295 1.99673 0
M  V30 469 C 39.9996 -1.54686 1.18732 0
M  V30 470 O 39.2696 -1.93854 0.282382 0
M  V30 471 H 37.8496 -0.118381 0.73756 0
M  V30 472 H 40.5116 0.407915 1.90583 0
M  V30 473 H 39.6076 -0.586813 3.06534 0
M  V30 474 N 39.9087 -1.5758 0.0250728 0
M  V30 475 C 40.8557 -2.09973 -0.958129 0
M  V30 476 C 41.8257 -1.00085 -1.3256 0
M  V30 477 O 43.0107 -1.27481 -1.41962 0
M  V30 478 C 40.1507 -2.62812 -2.2366 0
M  V30 479 C 39.2637 -3.86693 -1.92594 0
M  V30 480 C 38.3987 -4.27941 -3.14707 0
M  V30 481 C 37.4377 -5.44591 -2.79442 0
M  V30 482 N 36.5747 -5.81014 -3.94167 0
M  V30 483 H 41.4147 -2.937 -0.504428 0
M  V30 484 H 38.9517 -1.45172 -0.237392 0
M  V30 485 H 40.9097 -2.91536 -2.98434 0
M  V30 486 H 39.5397 -1.81922 -2.66654 0
M  V30 487 H 38.5917 -3.64723 -1.0808 0
M  V30 488 H 39.9037 -4.71547 -1.62619 0
M  V30 489 H 39.0577 -4.58079 -3.97804 0
M  V30 490 H 37.7967 -3.41845 -3.4784 0
M  V30 491 H 36.8017 -5.1415 -1.94755 0
M  V30 492 H 38.0267 -6.32382 -2.47528 0
M  V30 493 H 35.9727 -4.97874 -4.2715 0
M  V30 494 H 35.8897 -6.60498 -3.67801 0
M  V30 495 H 37.1577 -6.15756 -4.7798 0
M  V30 496 N 41.3868 0.248026 -1.55636 0
M  V30 497 C 42.3498 1.29044 -1.89421 0
M  V30 498 C 43.3498 1.41134 -0.770581 0
M  V30 499 O 44.5398 1.39854 -1.03858 0
M  V30 500 C 41.6718 2.66831 -2.12165 0
M  V30 501 H 42.8648 1.00305 -2.82629 0
M  V30 502 H 40.4178 0.487265 -1.48511 0
M  V30 503 H 41.1528 3.00711 -1.21422 0
M  V30 504 H 40.9378 2.59438 -2.93997 0
M  V30 505 H 42.4278 3.42103 -2.3949 0
M  V30 506 N 42.8649 1.48995 0.513639 0
M  V30 507 C 44.0949 1.61297 1.291 0
M  V30 508 C 44.5029 0.278656 1.87137 0
M  V30 509 O 43.8459 -0.744325 1.67945 0
M  V30 510 C 43.9079 2.61326 2.46879 0
M  V30 511 C 43.5719 4.05993 2.09807 0
M  V30 512 C 44.5689 4.93183 1.64519 0
M  V30 513 C 42.2539 4.51642 2.19829 0
M  V30 514 C 44.2479 6.24056 1.2974 0
M  V30 515 C 41.9349 5.82532 1.84662 0
M  V30 516 C 42.9329 6.68562 1.3969 0
M  V30 517 O 42.6209 7.97014 1.04992 0
M  V30 518 H 42.3529 0.546236 0.39825 0
M  V30 519 H 44.9069 1.95673 0.62459 0
M  V30 520 H 43.1369 2.22104 3.16554 0
M  V30 521 H 44.8259 2.6329 3.08923 0
M  V30 522 H 45.5919 4.59147 1.56233 0
M  V30 523 H 41.4709 3.84855 2.53786 0
M  V30 524 H 45.0149 6.91161 0.945659 0
M  V30 525 H 40.9119 6.16099 1.92594 0
M  V30 526 H 41.6799 8.09913 1.18249 0
M  V30 527 N 44.343 -0.763751 1.37857 0
M  V30 528 C 45.568 -1.55805 1.36893 0
M  V30 529 C 45.993 -1.88054 -0.0416135 0
M  V30 530 O 45.351 -1.49825 -1.02089 0
M  V30 531 C 45.399 -2.84012 2.22192 0
M  V30 532 O 44.503 -3.78732 1.63204 0
M  V30 533 H 43.844 -0.471638 0.46739 0
M  V30 534 H 46.374 -0.944657 1.81487 0
M  V30 535 H 46.384 -3.33037 2.35691 0
M  V30 536 H 45.059 -2.59869 3.24716 0
M  V30 537 H 43.636 -3.37402 1.58791 0
M  V30 538 N 45.8211 -1.22559 -0.990812 0
M  V30 539 C 46.7511 -1.0218 -2.09956 0
M  V30 540 C 47.7321 0.0579394 -1.70001 0
M  V30 541 O 48.9171 -0.104684 -1.93918 0
M  V30 542 C 46.0471 -0.601023 -3.4206 0
M  V30 543 C 45.0011 -1.62694 -3.95872 0
M  V30 544 C 44.3271 -1.06193 -5.24049 0
M  V30 545 C 45.6271 -3.01743 -4.2632 0
M  V30 546 H 47.3211 -1.94916 -2.27262 0
M  V30 547 H 44.8671 -0.938566 -1.09211 0
M  V30 548 H 46.8201 -0.445561 -4.19038 0
M  V30 549 H 45.5441 0.362005 -3.24588 0
M  V30 550 H 44.2031 -1.77021 -3.21028 0
M  V30 551 H 43.8511 -0.0901903 -5.02919 0
M  V30 552 H 43.5511 -1.74732 -5.61019 0
M  V30 553 H 45.0751 -0.918092 -6.03658 0
M  V30 554 H 46.4891 -2.90777 -4.94087 0
M  V30 555 H 44.8861 -3.67425 -4.74467 0
M  V30 556 H 45.9561 -3.51518 -3.34011 0
M  V30 557 N 47.2992 1.18797 -1.03562 0
M  V30 558 C 48.2472 2.24297 -0.615905 0
M  V30 559 C 49.2412 1.65643 0.354808 0
M  V30 560 O 50.4472 1.78618 0.22265 0
M  V30 561 H 46.8222 0.729909 -0.180934 0
M  V30 562 H 48.7932 2.5701 -1.5162 0
M  V30 563 C 47.5422 3.47698 0.0104735 0
M  V30 564 H 46.8652 3.93125 -0.727509 0
M  V30 565 H 48.3052 4.23159 0.266995 0
M  V30 566 C 46.7642 3.12489 1.25905 0
M  V30 567 O 47.2942 3.25761 2.35038 0
M  V30 568 N 45.5002 2.6686 1.15039 0
M  V30 569 H 45.0472 2.56261 0.262328 0
M  V30 570 H 45.0052 2.43674 1.98672 0
M  V30 571 N 48.7773 0.814389 1.34928 0
M  V30 572 C 49.7253 0.218424 2.31572 0
M  V30 573 C 50.7193 -0.636128 1.57002 0
M  V30 574 O 51.9253 -0.52842 1.72069 0
M  V30 575 H 48.3003 0.0518799 0.750208 0
M  V30 576 H 50.2713 1.04852 2.79372 0
M  V30 577 C 49.0203 -0.61207 3.4227 0
M  V30 578 H 48.3433 0.0361578 3.99784 0
M  V30 579 H 49.7833 -0.995317 4.12152 0
M  V30 580 C 48.2423 -1.78087 2.85984 0
M  V30 581 O 48.7723 -2.8787 2.80168 0
M  V30 582 N 46.9783 -1.59488 2.42924 0
M  V30 583 H 46.5253 -0.701874 2.47854 0
M  V30 584 H 46.4833 -2.37846 2.05613 0
M  V30 585 N 50.2554 -1.46986 0.568584 0
M  V30 586 C 51.5014 -2.0332 0.0571487 0
M  V30 587 C 51.8564 -1.43384 -1.28291 0
M  V30 588 O 51.1494 -0.584304 -1.82473 0
M  V30 589 C 51.3434 -3.57306 -0.081836 0
M  V30 590 C 51.1724 -4.32174 1.24321 0
M  V30 591 C 49.9424 -4.71633 1.81358 0
M  V30 592 C 52.1404 -4.66598 2.16312 0
M  V30 593 N 50.1224 -5.31191 3.07748 0
M  V30 594 C 51.4934 -5.26578 3.27285 0
M  V30 595 C 53.5484 -4.48527 2.16166 0
M  V30 596 C 52.2514 -5.70395 4.38226 0
M  V30 597 C 54.2774 -4.93351 3.26127 0
M  V30 598 C 53.6394 -5.5339 4.3582 0
M  V30 599 H 49.7384 -0.77943 0.063351 0
M  V30 600 H 52.3224 -1.79323 0.758378 0
M  V30 601 H 50.4934 -3.81046 -0.752207 0
M  V30 602 H 52.2254 -4.00282 -0.59637 0
M  V30 603 H 48.9804 -4.53946 1.35019 0
M  V30 604 H 49.4044 -5.65505 3.72201 0
M  V30 605 H 54.0464 -4.01456 1.32638 0
M  V30 606 H 51.7644 -6.16452 5.22506 0
M  V30 607 H 55.3504 -4.81131 3.27115 0
M  V30 608 H 54.2304 -5.87441 5.19503 0
M  V30 609 N 51.7335 -0.305618 -1.54608 0
M  V30 610 C 52.6815 0.584119 -2.25146 0
M  V30 611 C 53.6755 1.13326 -1.25911 0
M  V30 612 O 54.8815 1.08337 -1.43747 0
M  V30 613 H 51.2565 0.206983 -0.722954 0
M  V30 614 H 53.2275 -0.033291 -2.98381 0
M  V30 615 C 51.9765 1.74225 -3.009 0
M  V30 616 H 51.2995 1.32892 -3.77067 0
M  V30 617 H 52.7395 2.34077 -3.53531 0
M  V30 618 C 51.1985 2.64914 -2.0814 0
M  V30 619 O 51.7285 3.66137 -1.65246 0
M  V30 620 N 49.9345 2.3275 -1.74 0
M  V30 621 H 49.4815 1.50479 -2.09078 0
M  V30 622 H 49.4395 2.93694 -1.12211 0
M  V30 623 N 53.2116 1.57565 -0.0334293 0
M  V30 624 C 54.1586 2.10478 0.946981 0
M  V30 625 C 55.1286 1.00787 1.32027 0
M  V30 626 O 56.3136 1.28232 1.41284 0
M  V30 627 C 53.4536 2.63994 2.22263 0
M  V30 628 C 52.5666 3.87709 1.90541 0
M  V30 629 C 51.7016 4.29604 3.12433 0
M  V30 630 C 50.7406 5.46065 2.76549 0
M  V30 631 N 49.8776 5.83096 3.9108 0
M  V30 632 H 54.7176 2.93963 0.488846 0
M  V30 633 H 52.2546 1.45296 0.22969 0
M  V30 634 H 54.2126 2.93114 2.96884 0
M  V30 635 H 52.8426 1.83333 2.65685 0
M  V30 636 H 51.8946 3.65291 1.06144 0
M  V30 637 H 53.2066 4.72403 1.60116 0
M  V30 638 H 52.3606 4.60182 3.9537 0
M  V30 639 H 51.0996 3.43685 3.46023 0
M  V30 640 H 50.1046 5.15176 1.92026 0
M  V30 641 H 51.3296 6.33685 2.44171 0
M  V30 642 H 49.2756 5.00132 4.24504 0
M  V30 643 H 49.1926 6.6244 3.64293 0
M  V30 644 H 50.4606 6.18282 4.74708 0
M  V30 645 N 54.6897 -0.239769 1.55765 0
M  V30 646 C 56.1007 -0.808263 1.68297 0
M  V30 647 C 56.4517 -1.85736 0.632181 0
M  V30 648 O 55.5767 -2.15277 -0.220204 0
M  V30 649 C 56.1717 -1.47284 3.05111 0
M  V30 650 C 54.7307 -1.98895 3.19559 0
M  V30 651 C 53.8777 -0.842575 2.64189 0
M  V30 652 H 56.8287 -0.0154422 1.58692 0
M  V30 653 H 56.8497 -2.34111 2.99954 0
M  V30 654 H 56.3617 -0.709053 3.81568 0
M  V30 655 H 54.4627 -2.78132 2.47938 0
M  V30 656 H 54.5757 -2.18143 4.26556 0
M  V30 657 H 52.9397 -1.24501 2.22197 0
M  V30 658 H 53.7227 -0.0917552 3.43177 0
M  V30 659 N 56.1678 -1.49265 -0.50573 0
M  V30 660 C 57.4168 -1.57761 -1.25675 0
M  V30 661 C 57.7298 -0.267371 -1.93764 0
M  V30 662 O 58.9358 -0.230827 -2.70517 0
M  V30 663 C 57.3918 -2.78332 -2.28165 0
M  V30 664 C 56.9998 -4.16096 -1.66037 0
M  V30 665 C 58.7438 -2.96155 -3.04125 0
M  V30 666 C 56.6508 -5.27895 -2.6661 0
M  V30 667 H 55.5808 -0.587391 -0.472745 0
M  V30 668 H 58.2318 -1.75644 -0.53118 0
M  V30 669 H 56.6138 -2.53934 -3.03865 0
M  V30 670 H 57.7878 -4.50612 -0.963622 0
M  V30 671 H 56.1028 -4.03591 -1.02484 0
M  V30 672 H 58.6998 -3.76849 -3.79327 0
M  V30 673 H 59.0428 -2.06534 -3.61455 0
M  V30 674 H 59.5758 -3.2057 -2.35541 0
M  V30 675 H 56.3148 -6.1956 -2.14068 0
M  V30 676 H 55.8348 -4.97839 -3.34539 0
M  V30 677 H 57.5138 -5.57031 -3.29129 0
M  V30 678 N 57.6459 0.756429 -1.3826 0
M  V30 679 C 58.5929 1.87011 -1.35261 0
M  V30 680 C 59.5629 1.64695 -0.215616 0
M  V30 681 O 60.7479 1.864 -0.407399 0
M  V30 682 C 57.8879 3.24275 -1.18068 0
M  V30 683 C 57.0009 3.58442 -2.41129 0
M  V30 684 C 56.1359 4.84994 -2.16689 0
M  V30 685 C 55.1749 5.11939 -3.35537 0
M  V30 686 N 54.3119 6.29685 -3.10549 0
M  V30 687 H 59.1519 1.8891 -2.30472 0
M  V30 688 H 56.6889 0.923373 -1.14509 0
M  V30 689 H 58.6469 4.03479 -1.06116 0
M  V30 690 H 57.2769 3.21711 -0.264973 0
M  V30 691 H 56.3289 2.74103 -2.63764 0
M  V30 692 H 57.6409 3.74283 -3.29717 0
M  V30 693 H 56.7949 5.72135 -2.01857 0
M  V30 694 H 55.5339 4.71286 -1.25462 0
M  V30 695 H 54.5389 4.23268 -3.50891 0
M  V30 696 H 55.7639 5.27546 -4.27635 0
M  V30 697 H 53.7099 6.17306 -2.21967 0
M  V30 698 H 53.6269 6.46014 -3.92686 0
M  V30 699 H 54.8949 7.19722 -2.99367 0
M  V30 700 N 59.124 1.23083 0.984299 0
M  V30 701 C 60.072 1.00593 2.09723 0
M  V30 702 C 61.066 -0.0538014 1.69315 0
M  V30 703 O 62.272 0.0993719 1.79725 0
M  V30 704 H 58.647 0.30817 0.685956 0
M  V30 705 H 60.618 1.95012 2.2586 0
M  V30 706 C 59.367 0.609601 3.42314 0
M  V30 707 H 58.69 1.41675 3.73856 0
M  V30 708 H 60.13 0.491726 4.21139 0
M  V30 709 C 58.589 -0.681745 3.2993 0
M  V30 710 O 59.119 -1.73192 3.62446 0
M  V30 711 N 57.325 -0.656178 2.83095 0
M  V30 712 H 56.872 0.198759 2.56832 0
M  V30 713 H 56.83 -1.52044 2.75191 0
M  V30 714 N 60.6021 -1.18246 1.0419 0
M  V30 715 C 61.8271 -1.92736 0.765996 0
M  V30 716 C 62.2521 -1.75728 -0.67091 0
M  V30 717 O 61.6101 -1.06825 -1.46486 0
M  V30 718 C 61.6581 -3.42148 1.13875 0
M  V30 719 O 60.7621 -4.11548 0.264954 0
M  V30 720 H 60.1031 -0.601238 0.281797 0
M  V30 721 H 62.6331 -1.49942 1.39207 0
M  V30 722 H 62.6431 -3.92858 1.1012 0
M  V30 723 H 61.3181 -3.53848 2.18551 0
M  V30 724 H 59.8951 -3.71137 0.362226 0
M  V30 725 N 62.0802 -0.821533 -1.34494 0
M  V30 726 C 63.3262 -0.409552 -1.98622 0
M  V30 727 C 63.6592 1.0244 -1.64984 0
M  V30 728 O 62.9342 1.71325 -0.920758 0
M  V30 729 C 63.2172 -0.610458 -3.54888 0
M  V30 730 C 63.0702 -2.09043 -3.98273 0
M  V30 731 C 64.3892 -0.0455379 -4.40076 0
M  V30 732 H 61.5082 -0.15028 -0.721516 0
M  V30 733 H 64.1502 -1.03384 -1.59411 0
M  V30 734 H 62.3002 -0.079044 -3.8842 0
M  V30 735 H 63.9722 -2.68537 -3.75081 0
M  V30 736 H 62.2152 -2.58139 -3.48635 0
M  V30 737 H 62.8862 -2.18182 -5.07051 0
M  V30 738 H 65.3622 -0.499557 -4.1309 0
M  V30 739 H 64.2382 -0.215922 -5.48475 0
M  V30 740 H 64.4992 1.04939 -4.29465 0
M  V30 741 N 63.5583 1.46682 -0.576371 0
M  V30 742 C 64.7863 2.06798 -0.0649635 0
M  V30 743 C 65.2013 1.42612 1.23723 0
M  V30 744 O 64.5583 0.529203 1.74659 0
M  V30 745 C 64.6093 3.6132 0.114202 0
M  V30 746 O 64.3303 4.23104 -1.13644 0
M  V30 747 C 65.8313 4.38349 0.66069 0
M  V30 748 H 63.0513 0.668778 -0.0545616 0
M  V30 749 H 65.5953 1.88404 -0.795237 0
M  V30 750 H 63.7503 3.79162 0.794673 0
M  V30 751 H 64.1643 5.15894 -0.946253 0
M  V30 752 H 65.6383 5.47081 0.73526 0
M  V30 753 H 66.1153 4.05953 1.67627 0
M  V30 754 H 66.7213 4.25297 0.0152951 0
M  V30 755 N 65.0364 0.313813 1.54444 0
M  V30 756 C 66.2644 -0.293918 2.04802 0
M  V30 757 C 66.6794 -1.46537 1.19047 0
M  V30 758 O 66.0364 -1.81182 0.218939 0
M  V30 759 C 66.0874 -0.737806 3.53891 0
M  V30 760 O 65.8084 0.387038 4.36387 0
M  V30 761 C 67.3094 -1.40936 4.203 0
M  V30 762 H 64.5294 -0.0620057 0.668129 0
M  V30 763 H 67.0734 0.457169 1.99324 0
M  V30 764 H 65.2284 -1.43889 3.59687 0
M  V30 765 H 65.6424 0.0391274 5.24485 0
M  V30 766 H 67.1164 -1.67099 5.26101 0
M  V30 767 H 67.5934 -2.35355 3.70816 0
M  V30 768 H 68.1994 -0.751117 4.18615 0
M  V30 769 N 66.5145 -1.57545 0.0417849 0
M  V30 770 C 67.4615 -2.10977 -0.935805 0
M  V30 771 C 68.4315 -1.01486 -1.31491 0
M  V30 772 O 69.6165 -1.2898 -1.40602 0
M  V30 773 C 66.7565 -2.65169 -2.2086 0
M  V30 774 C 65.8695 -3.88714 -1.88482 0
M  V30 775 C 65.0045 -4.31254 -3.1015 0
M  V30 776 C 64.0435 -5.47524 -2.7365 0
M  V30 777 N 63.1805 -5.85162 -3.87982 0
M  V30 778 H 68.0205 -2.94218 -0.473249 0
M  V30 779 H 65.5575 -1.45415 -0.221981 0
M  V30 780 H 67.5155 -2.94685 -2.95325 0
M  V30 781 H 66.1455 -1.8474 -2.64709 0
M  V30 782 H 65.1975 -3.65849 -1.04205 0
M  V30 783 H 66.5095 -4.73245 -1.57608 0
M  V30 784 H 65.6635 -4.62273 -3.92923 0
M  V30 785 H 64.4025 -3.45516 -3.44195 0
M  V30 786 H 63.4075 -5.16187 -1.89291 0
M  V30 787 H 64.6325 -6.34971 -2.40807 0
M  V30 788 H 62.5785 -5.02377 -4.21846 0
M  V30 789 H 62.4955 -6.64362 -3.60775 0
M  V30 790 H 63.7635 -6.20791 -4.71422 0
M  V30 791 N 67.9926 0.231505 -1.5589 0
M  V30 792 C 68.9246 1.31006 -1.8807 0
M  V30 793 C 69.9376 1.43539 -0.768145 0
M  V30 794 O 71.1266 1.44614 -1.04638 0
M  V30 795 C 68.2266 2.68688 -2.06543 0
M  V30 796 C 67.3996 2.78228 -3.37502 0
M  V30 797 C 66.4586 3.96857 -3.4553 0
M  V30 798 O 65.4846 3.85662 -4.18633 0
M  V30 799 N 66.6866 5.1072 -2.75944 0
M  V30 800 H 69.4516 1.03731 -2.81176 0
M  V30 801 H 67.0126 0.421573 -1.56315 0
M  V30 802 H 69.0046 3.46412 -2.09239 0
M  V30 803 H 67.5746 2.88605 -1.20109 0
M  V30 804 H 66.7946 1.87059 -3.46991 0
M  V30 805 H 68.0826 2.81564 -4.23791 0
M  V30 806 H 67.4806 5.2271 -2.16311 0
M  V30 807 H 66.0376 5.86523 -2.84314 0
M  V30 808 N 69.4707 1.49531 0.497807 0
M  V30 809 C 70.7167 1.60388 1.25089 0
M  V30 810 C 71.0717 0.288328 1.90227 0
M  V30 811 O 70.3647 -0.711706 1.77891 0
M  V30 812 C 70.5587 2.70252 2.33878 0
M  V30 813 C 70.3877 4.12363 1.79408 0
M  V30 814 C 69.1577 4.7911 1.60566 0
M  V30 815 C 71.3557 4.97491 1.30412 0
M  V30 816 N 69.3377 6.05525 1.01059 0
M  V30 817 C 70.7087 6.14411 0.830595 0
M  V30 818 C 72.7637 4.83466 1.19015 0
M  V30 819 C 71.4667 7.1885 0.254371 0
M  V30 820 C 73.4927 5.88057 0.627892 0
M  V30 821 C 72.8547 7.04208 0.16461 0
M  V30 822 H 68.9537 0.641246 0.447579 0
M  V30 823 H 71.5377 1.86549 0.557441 0
M  V30 824 H 69.7087 2.45858 3.0068 0
M  V30 825 H 71.4407 2.70613 3.00917 0
M  V30 826 H 68.1957 4.35961 1.85026 0
M  V30 827 H 68.6197 6.73028 0.732236 0
M  V30 828 H 73.2617 3.93978 1.53431 0
M  V30 829 H 70.9797 8.08036 -0.102052 0
M  V30 830 H 74.5657 5.79266 0.542444 0
M  V30 831 H 73.4457 7.83757 -0.263669 0
M  V30 832 N 70.9488 -0.749086 1.3866 0
M  V30 833 C 71.8818 -1.87111 1.30631 0
M  V30 834 C 72.8598 -1.61572 0.18251 0
M  V30 835 O 74.0438 -1.85019 0.360592 0
M  V30 836 C 71.1708 -3.22815 1.02511 0
M  V30 837 C 70.2168 -3.67234 2.1689 0
M  V30 838 S 71.0498 -3.78245 3.79066 0
M  V30 839 C 72.2058 -5.16761 3.53142 0
M  V30 840 H 72.4388 -1.93636 2.25594 0
M  V30 841 H 69.9718 -0.912525 1.24549 0
M  V30 842 H 71.9298 -4.01181 0.869701 0
M  V30 843 H 70.5908 -3.13964 0.0925884 0
M  V30 844 H 69.7838 -4.65677 1.92771 0
M  V30 845 H 69.3858 -2.96034 2.28561 0
M  V30 846 H 71.6778 -6.02656 3.09534 0
M  V30 847 H 72.6208 -5.45902 4.50995 0
M  V30 848 H 73.0288 -4.85771 2.87554 0
M  V30 849 N 72.4269 -1.23603 -0.977757 0
M  V30 850 C 73.6519 -1.09735 -1.75991 0
M  V30 851 C 74.0769 0.346858 -1.84874 0
M  V30 852 O 73.4349 1.25093 -1.3123 0
M  V30 853 C 73.4829 -1.73051 -3.16363 0
M  V30 854 O 72.5869 -0.994452 -4.0023 0
M  V30 855 H 71.9279 -0.384476 -0.541364 0
M  V30 856 H 74.4579 -1.6371 -1.2272 0
M  V30 857 H 74.4679 -1.78398 -3.66931 0
M  V30 858 H 73.1429 -2.78137 -3.09213 0
M  V30 859 H 71.7199 -1.01812 -3.58732 0
M  V30 860 N 73.905 1.17692 -1.04816 0
M  V30 861 C 74.868 2.19787 -0.650117 0
M  V30 862 C 75.868 1.58044 0.296427 0
M  V30 863 O 77.058 1.74012 0.0808097 0
M  V30 864 C 74.19 3.40869 0.0456987 0
M  V30 865 H 75.383 2.56516 -1.5537 0
M  V30 866 H 72.936 1.31708 -0.841594 0
M  V30 867 H 73.671 3.09681 0.962726 0
M  V30 868 H 73.456 3.86928 -0.634727 0
M  V30 869 H 74.946 4.16445 0.310432 0
M  V30 870 N 75.3831 0.828654 1.34056 0
M  V30 871 C 76.3131 0.269443 2.3194 0
M  V30 872 C 77.2941 -0.617247 1.58506 0
M  V30 873 O 78.4791 -0.542931 1.86456 0
M  V30 874 C 75.6091 -0.564793 3.42677 0
M  V30 875 C 74.5631 0.225241 4.27407 0
M  V30 876 C 73.8891 -0.7321 5.29664 0
M  V30 877 C 75.1891 1.43663 5.02154 0
M  V30 878 H 76.8831 1.08728 2.7896 0
M  V30 879 H 74.4291 0.524283 1.34117 0
M  V30 880 H 76.3821 -0.966233 4.10173 0
M  V30 881 H 75.1061 -1.41574 2.9432 0
M  V30 882 H 73.7651 0.608117 3.61521 0
M  V30 883 H 73.4131 -1.57916 4.77568 0
M  V30 884 H 73.1131 -0.20767 5.87233 0
M  V30 885 H 74.6371 -1.13128 6.00029 0
M  V30 886 H 76.0511 1.1089 5.62473 0
M  V30 887 H 74.4481 1.89711 5.69324 0
M  V30 888 H 75.5181 2.21181 4.31517 0
M  V30 889 N 76.8612 -1.46375 0.584142 0
M  V30 890 C 78.2722 -1.86031 0.157959 0
M  V30 891 C 78.6232 -1.48753 -1.27933 0
M  V30 892 O 77.7482 -0.903098 -1.96655 0
M  V30 893 C 78.3432 -3.37642 0.279892 0
M  V30 894 C 76.9022 -3.76289 -0.09143 0
M  V30 895 C 76.0492 -2.7039 0.615178 0
M  V30 896 H 79.0002 -1.37509 0.792274 0
M  V30 897 H 79.0212 -3.77275 -0.494364 0
M  V30 898 H 78.5332 -3.64742 1.32607 0
M  V30 899 H 76.6342 -3.54806 -1.13769 0
M  V30 900 H 76.7472 -4.78246 0.285886 0
M  V30 901 H 75.1112 -2.5464 0.0552833 0
M  V30 902 H 75.8942 -3.0033 1.66303 0
M  V30 903 N 78.3393 -0.321999 -1.54275 0
M  V30 904 C 79.6163 0.335232 -1.92706 0
M  V30 905 C 79.9963 1.70006 -1.25145 0
M  V30 906 O 79.3443 2.25067 -0.394596 0
M  V30 907 C 79.5543 0.429008 -3.46353 0
M  V30 908 C 80.9023 0.690029 -4.18956 0
M  V30 909 O 81.9263 0.511992 -3.52501 0
M  V30 910 O 80.7853 1.03338 -5.36641 0
M  V30 911 H 77.8793 0.191143 -0.804608 0
M  V30 912 H 80.4253 -0.3716 -1.65581 0
M  V30 913 H 79.1973 -0.529611 -3.87699 0
M  V30 914 H 78.8203 1.18348 -3.79578 0
M  V30 915 N 79.8174 1.5752 -0.0501392 0
M  V30 916 C 81.0454 1.96963 0.633492 0
M  V30 917 C 81.4604 0.927631 1.6444 0
M  V30 918 O 80.8174 -0.0882665 1.82286 0
M  V30 919 C 80.8684 3.36487 1.32132 0
M  V30 920 O 80.5894 4.36693 0.350894 0
M  V30 921 C 82.0904 3.90682 2.09481 0
M  V30 922 H 79.3104 0.648244 0.173266 0
M  V30 923 H 81.8544 2.0417 -0.116134 0
M  V30 924 H 80.0094 3.30434 2.02218 0
M  V30 925 H 80.4234 5.17702 0.841735 0
M  V30 926 H 81.8974 4.90591 2.5303 0
M  V30 927 H 82.3744 3.26053 2.94255 0
M  V30 928 H 82.9804 4.00069 1.44307 0
M  V30 929 N 81.2955 -0.223234 1.56011 0
M  V30 930 C 82.5235 -0.964812 1.83027 0
M  V30 931 C 82.9385 -1.78013 0.62904 0
M  V30 932 O 82.2955 -1.78008 -0.402414 0
M  V30 933 C 82.3465 -1.88373 3.08542 0
M  V30 934 O 82.0675 -1.10137 4.2403 0
M  V30 935 C 83.5685 -2.73934 3.48533 0
M  V30 936 H 80.7885 -0.282842 0.608475 0
M  V30 937 H 83.3325 -0.238971 2.03099 0
M  V30 938 H 81.4875 -2.56354 2.9045 0
M  V30 939 H 81.9015 -1.72501 4.95322 0
M  V30 940 H 83.3755 -3.34117 4.39397 0
M  V30 941 H 83.8525 -3.46244 2.70207 0
M  V30 942 H 84.4585 -2.11369 3.69057 0
M  V30 943 N 82.7736 -1.49793 -0.48987 0
M  V30 944 C 83.7216 -1.67783 -1.61095 0
M  V30 945 C 84.7156 -0.543683 -1.60438 0
M  V30 946 O 85.9216 -0.723647 -1.64813 0
M  V30 947 H 82.2966 -0.529255 -0.534222 0
M  V30 948 H 84.2676 -2.61861 -1.43078 0
M  V30 949 C 83.0166 -1.77191 -2.99164 0
M  V30 950 H 82.3396 -2.63841 -3.0038 0
M  V30 951 H 83.7796 -1.93809 -3.77113 0
M  V30 952 C 82.2386 -0.519203 -3.32875 0
M  V30 953 O 82.7686 0.350124 -4.00171 0
M  V30 954 N 80.9746 -0.378816 -2.8812 0
M  V30 955 H 80.5216 -1.08725 -2.33531 0
M  V30 956 H 80.4796 0.458239 -3.11043 0
M  V30 957 N 84.2517 0.741722 -1.39055 0
M  V30 958 C 85.1817 1.869 -1.39966 0
M  V30 959 C 86.1627 1.6804 -0.26392 0
M  V30 960 O 87.3477 1.88458 -0.468755 0
M  V30 961 C 84.4777 3.24572 -1.23574 0
M  V30 962 C 83.4317 3.58056 -2.34477 0
M  V30 963 C 82.7577 4.94593 -2.0318 0
M  V30 964 C 84.0577 3.61716 -3.76774 0
M  V30 965 H 85.7517 1.86395 -2.34302 0
M  V30 966 H 83.2977 0.895361 -1.1278 0
M  V30 967 H 85.2507 4.031 -1.22834 0
M  V30 968 H 83.9747 3.25587 -0.257045 0
M  V30 969 H 82.6337 2.81854 -2.34423 0
M  V30 970 H 82.2817 4.92181 -1.03765 0
M  V30 971 H 81.9817 5.17964 -2.77465 0
M  V30 972 H 83.5057 5.75486 -2.04079 0
M  V30 973 H 84.9197 4.30335 -3.78794 0
M  V30 974 H 83.3167 3.96603 -4.50362 0
M  V30 975 H 84.3867 2.61672 -4.08235 0
M  V30 976 N 85.7298 1.2412 0.971189 0
M  V30 977 C 86.6928 1.03156 2.04674 0
M  V30 978 C 87.6928 -0.00990322 1.60797 0
M  V30 979 O 88.8828 0.230729 1.72665 0
M  V30 980 C 86.0148 0.562765 3.36223 0
M  V30 981 H 87.2078 1.98614 2.24705 0
M  V30 982 H 84.7608 1.06293 1.14593 0
M  V30 983 H 85.4958 -0.395176 3.21883 0
M  V30 984 H 85.2808 1.31441 3.69413 0
M  V30 985 H 86.7708 0.437015 4.15307 0
M  V30 986 N 87.2079 -1.17134 1.05439 0
M  V30 987 C 88.1709 -2.19439 0.661764 0
M  V30 988 C 89.1709 -1.58199 -0.288042 0
M  V30 989 O 90.3609 -1.74053 -0.0715803 0
M  V30 990 C 87.4929 -3.40889 -0.0276209 0
M  V30 991 H 88.6859 -2.55688 1.56728 0
M  V30 992 H 86.2389 -1.31259 0.848567 0
M  V30 993 H 86.9739 -3.10187 -0.94629 0
M  V30 994 H 86.7589 -3.86586 0.655238 0
M  V30 995 H 88.2489 -4.16603 -0.288342 0
M  V30 996 N 88.686 -0.835752 -1.33615 0
M  V30 997 C 89.616 -0.281739 -2.31794 0
M  V30 998 C 90.597 0.608833 -1.58831 0
M  V30 999 O 91.782 0.533035 -1.86741 0
M  V30 1000 C 88.912 0.546612 -3.42971 0
M  V30 1001 C 87.866 -0.247904 -4.27281 0
M  V30 1002 C 87.192 0.704001 -5.30045 0
M  V30 1003 C 88.492 -1.46324 -5.01385 0
M  V30 1004 H 90.186 -1.10206 -2.78379 0
M  V30 1005 H 87.732 -0.531388 -1.33837 0
M  V30 1006 H 89.685 0.944467 -4.1068 0
M  V30 1007 H 88.409 1.40011 -2.95067 0
M  V30 1008 H 87.068 -0.627281 -3.61194 0
M  V30 1009 H 86.716 1.55381 -4.78399 0
M  V30 1010 H 86.416 0.176524 -5.87335 0
M  V30 1011 H 87.94 1.09944 -6.0062 0
M  V30 1012 H 89.354 -1.13871 -5.61877 0
M  V30 1013 H 87.751 -1.92728 -5.6831 0
M  V30 1014 H 88.821 -2.23467 -4.30338 0
M  V30 1015 N 90.1641 1.46063 -0.591896 0
M  V30 1016 C 91.3891 2.07226 -0.0850314 0
M  V30 1017 C 91.8141 1.43625 1.21463 0
M  V30 1018 O 91.1721 0.523305 1.73583 0
M  V30 1019 C 91.2201 3.60554 0.0576567 0
M  V30 1020 O 90.3241 3.97128 1.11188 0
M  V30 1021 H 89.6651 0.660615 -0.0669568 0
M  V30 1022 H 92.1951 1.8756 -0.81745 0
M  V30 1023 H 92.2051 4.07165 0.2609 0
M  V30 1024 H 90.8801 4.06235 -0.891416 0
M  V30 1025 H 89.4571 3.62213 0.886356 0
M  V30 1026 N 91.6422 0.330177 1.54103 0
M  V30 1027 C 92.8912 -0.271336 1.99867 0
M  V30 1028 C 93.2042 -1.52723 1.22209 0
M  V30 1029 O 94.4102 -2.20515 1.58383 0
M  V30 1030 C 92.8662 -0.534032 3.55916 0
M  V30 1031 C 92.4742 0.705193 4.42415 0
M  V30 1032 C 94.2182 -1.09514 4.1013 0
M  V30 1033 C 92.1252 0.414035 5.89949 0
M  V30 1034 H 91.0552 -0.105166 0.74663 0
M  V30 1035 H 93.7062 0.443429 1.78062 0
M  V30 1036 H 92.0882 -1.30915 3.73734 0
M  V30 1037 H 93.2622 1.4804 4.36372 0
M  V30 1038 H 91.5772 1.18698 3.99124 0
M  V30 1039 H 94.1742 -1.3277 5.17954 0
M  V30 1040 H 94.5172 -2.04656 3.62521 0
M  V30 1041 H 95.0502 -0.381038 3.95971 0
M  V30 1042 H 91.7892 1.33481 6.41766 0
M  V30 1043 H 91.3092 -0.323336 5.98928 0
M  V30 1044 H 92.9882 0.0263105 6.46995 0
M  V30 1045 N 93.1203 -1.57491 0.0584922 0
M  V30 1046 C 94.5313 -1.80526 -0.476138 0
M  V30 1047 C 94.8823 -0.971334 -1.70469 0
M  V30 1048 O 94.0073 -0.190012 -2.15564 0
M  V30 1049 C 94.6023 -3.27424 -0.870587 0
M  V30 1050 C 93.1613 -3.51351 -1.35015 0
M  V30 1051 C 92.3083 -2.75343 -0.32887 0
M  V30 1052 H 95.2593 -1.56133 0.284312 0
M  V30 1053 H 95.2803 -3.38745 -1.73299 0
M  V30 1054 H 94.7923 -3.88093 0.0237627 0
M  V30 1055 H 92.8933 -2.95971 -2.26345 0
M  V30 1056 H 93.0063 -4.60059 -1.33726 0
M  V30 1057 H 91.3703 -2.417 -0.803321 0
M  V30 1058 H 92.1533 -3.38743 0.557521 0
M  V30 1059 N 94.5984 0.214957 -1.56127 0
M  V30 1060 C 95.8464 0.936518 -1.79091 0
M  V30 1061 C 96.1674 1.84606 -0.628148 0
M  V30 1062 O 95.4374 1.92664 0.35462 0
M  V30 1063 H 94.0174 0.3488 -0.660566 0
M  V30 1064 H 96.6794 0.22523 -1.93594 0
M  V30 1065 H 95.7754 1.53943 -2.71492 0
M  V30 1066 N 96.0765 1.50051 0.48192 0
M  V30 1067 C 97.3045 1.64237 1.25832 0
M  V30 1068 C 97.7195 0.321336 1.86045 0
M  V30 1069 O 97.0765 -0.695478 1.68729 0
M  V30 1070 C 97.1275 2.72548 2.37487 0
M  V30 1071 O 96.8485 3.99529 1.79745 0
M  V30 1072 C 98.3495 2.9761 3.28547 0
M  V30 1073 H 95.5695 0.55237 0.380957 0
M  V30 1074 H 98.1135 1.96207 0.576467 0
M  V30 1075 H 96.2685 2.43303 3.01467 0
M  V30 1076 H 96.6825 4.59342 2.5319 0
M  V30 1077 H 98.1565 3.77084 4.03127 0
M  V30 1078 H 98.6335 2.0826 3.86684 0
M  V30 1079 H 99.2395 3.28345 2.70314 0
M  V30 1080 N 97.5546 -0.734337 1.39446 0
M  V30 1081 C 98.5046 -1.83949 1.34709 0
M  V30 1082 C 99.4886 -1.59279 0.227851 0
M  V30 1083 O 100.681 -1.70771 0.465438 0
M  V30 1084 C 97.8096 -3.21884 1.19356 0
M  V30 1085 C 96.8956 -3.52381 2.35984 0
M  V30 1086 N 97.2866 -3.53811 3.61457 0
M  V30 1087 C 95.5846 -3.82747 2.28956 0
M  V30 1088 C 96.2856 -3.82122 4.38586 0
M  V30 1089 N 95.2616 -3.9993 3.68181 0
M  V30 1090 H 99.0636 -1.83361 2.29687 0
M  V30 1091 H 96.5776 -0.932609 1.32952 0
M  V30 1092 H 98.5746 -4.00998 1.14046 0
M  V30 1093 H 97.2346 -3.23711 0.253295 0
M  V30 1094 H 98.2456 -3.35107 3.94872 0
M  V30 1095 H 94.9226 -3.92175 1.43194 0
M  V30 1096 H 96.3126 -3.89691 5.47349 0
M  V30 1097 N 99.0327 -1.24633 -0.964593 0
M  V30 1098 C 100.31 -0.995809 -1.68354 0
M  V30 1099 C 100.69 0.480964 -2.05548 0
M  V30 1100 O 100.038 1.45599 -1.76105 0
M  V30 1101 C 100.248 -1.92177 -2.91323 0
M  V30 1102 C 101.596 -2.19446 -3.63495 0
M  V30 1103 O 102.62 -1.89855 -3.01386 0
M  V30 1104 O 101.479 -2.69714 -4.75307 0
M  V30 1105 H 98.5727 -0.376854 -0.736146 0
M  V30 1106 H 101.119 -1.35745 -1.0184 0
M  V30 1107 H 99.8907 -2.91938 -2.60553 0
M  V30 1108 H 99.5137 -1.56349 -3.65569 0
M  V30 1109 N 100.511 1.16574 -1.06058 0
M  V30 1110 C 101.739 1.90952 -0.796552 0
M  V30 1111 C 102.154 1.77302 0.648808 0
M  V30 1112 O 101.511 1.11605 1.44397 0
M  V30 1113 C 101.562 3.41736 -1.17894 0
M  V30 1114 O 101.283 3.54975 -2.56758 0
M  V30 1115 C 102.784 4.33169 -0.942308 0
M  V30 1116 H 100.004 0.605594 -0.288959 0
M  V30 1117 H 102.548 1.47777 -1.41358 0
M  V30 1118 H 100.703 3.82623 -0.606491 0
M  V30 1119 H 101.117 4.4846 -2.72 0
M  V30 1120 H 102.591 5.37439 -1.25952 0
M  V30 1121 H 103.068 4.3903 0.122078 0
M  V30 1122 H 103.674 3.98007 -1.49902 0
M  V30 1123 N 101.989 0.842826 1.3317 0
M  V30 1124 C 102.922 0.223862 2.27099 0
M  V30 1125 C 103.9 -0.631311 1.49844 0
M  V30 1126 O 105.084 -0.590708 1.79005 0
M  V30 1127 C 102.211 -0.685313 3.31694 0
M  V30 1128 C 101.257 0.094919 4.26394 0
M  V30 1129 S 102.09 1.45546 5.15341 0
M  V30 1130 C 103.246 0.551685 6.23464 0
M  V30 1131 H 103.479 1.02015 2.79249 0
M  V30 1132 H 101.012 0.639797 1.4052 0
M  V30 1133 H 102.97 -1.20426 3.92438 0
M  V30 1134 H 101.631 -1.4553 2.78352 0
M  V30 1135 H 100.824 -0.597059 5.00451 0
M  V30 1136 H 100.426 0.545054 3.70007 0
M  V30 1137 H 102.718 -0.248877 6.77043 0
M  V30 1138 H 103.661 1.26253 6.96754 0
M  V30 1139 H 104.069 0.131275 5.64347 0
M  V30 1140 N 103.467 -1.45747 0.599634 0
M  V30 1141 C 104.692 -2.07178 0.0960198 0
M  V30 1142 C 105.117 -1.44268 -1.207 0
M  V30 1143 O 104.475 -0.532503 -1.73303 0
M  V30 1144 C 104.523 -3.60579 -0.0385348 0
M  V30 1145 O 103.627 -3.97713 -1.0908 0
M  V30 1146 H 102.968 -0.660251 0.0704593 0
M  V30 1147 H 105.498 -1.87124 0.827385 0
M  V30 1148 H 105.508 -4.07298 -0.239304 0
M  V30 1149 H 104.183 -4.05756 0.912947 0
M  V30 1150 H 102.76 -3.62678 -0.867135 0
M  V30 1151 N 104.945 -0.338344 -1.53925 0
M  V30 1152 C 106.175 0.260919 -2.04946 0
M  V30 1153 C 106.583 1.45174 -1.2133 0
M  V30 1154 O 105.926 1.82122 -0.240262 0
M  V30 1155 C 105.988 0.744596 -3.51704 0
M  V30 1156 C 105.652 -0.325883 -4.55837 0
M  V30 1157 C 106.649 -1.16687 -5.06636 0
M  V30 1158 C 104.334 -0.478317 -5.00017 0
M  V30 1159 C 106.328 -2.14588 -6.00192 0
M  V30 1160 C 104.015 -1.46073 -5.93385 0
M  V30 1161 C 105.013 -2.29297 -6.4336 0
M  V30 1162 O 104.701 -3.25867 -7.34892 0
M  V30 1163 H 104.433 0.0551207 -0.673749 0
M  V30 1164 H 106.987 -0.486984 -1.99544 0
M  V30 1165 H 105.217 1.54366 -3.54553 0
M  V30 1166 H 106.906 1.26383 -3.85723 0
M  V30 1167 H 107.672 -1.06016 -4.73271 0
M  V30 1168 H 103.551 0.159613 -4.60724 0
M  V30 1169 H 107.095 -2.79585 -6.39123 0
M  V30 1170 H 102.992 -1.56802 -6.26166 0
M  V30 1171 H 103.76 -3.21278 -7.5281 0
M  V30 1172 N 106.423 1.57458 -0.0668435 0
M  V30 1173 C 107.371 2.13639 0.919851 0
M  V30 1174 C 108.365 1.07204 1.31163 0
M  V30 1175 O 109.571 1.25591 1.28945 0
M  V30 1176 H 105.946 0.683048 0.314562 0
M  V30 1177 H 107.917 2.95415 0.421047 0
M  V30 1178 C 106.666 2.70892 2.17975 0
M  V30 1179 H 105.989 3.5246 1.88711 0
M  V30 1180 H 107.429 3.13803 2.85138 0
M  V30 1181 C 105.888 1.65414 2.93496 0
M  V30 1182 O 106.418 1.07619 3.87015 0
M  V30 1183 N 104.624 1.36564 2.56512 0
M  V30 1184 H 104.171 1.83751 1.80536 0
M  V30 1185 H 104.129 0.66223 3.07347 0
M  V30 1186 N 107.901 -0.206675 1.56239 0
M  V30 1187 C 109.149 -0.927007 1.79586 0
M  V30 1188 C 109.47 -1.8427 0.637929 0
M  V30 1189 O 108.74 -1.92849 -0.344398 0
M  V30 1190 H 107.32 -0.345292 0.662407 0
M  V30 1191 H 109.982 -0.21496 1.93711 0
M  V30 1192 H 109.078 -1.52501 2.72305 0
M  V30 1193 N 109.379 -1.50304 -0.473955 0
M  V30 1194 C 110.656 -1.51667 -1.23518 0
M  V30 1195 C 111.036 -0.259701 -2.09496 0
M  V30 1196 O 110.384 0.756986 -2.15597 0
M  V30 1197 C 110.594 -2.81082 -2.06868 0
M  V30 1198 C 111.942 -3.31631 -2.65153 0
M  V30 1199 O 112.966 -2.82384 -2.17113 0
M  V30 1200 O 111.825 -4.17471 -3.52675 0
M  V30 1201 H 108.919 -0.60822 -0.560355 0
M  V30 1202 H 111.465 -1.62592 -0.486011 0
M  V30 1203 H 110.237 -3.64041 -1.4349 0
M  V30 1204 H 109.86 -2.73146 -2.88924 0
M  V30 1205 N 110.857 0.726932 -1.39834 0
M  V30 1206 C 112.106 1.48214 -1.36805 0
M  V30 1207 C 112.419 1.95576 0.0305291 0
M  V30 1208 O 113.625 2.7088 0.183417 0
M  V30 1209 C 112.081 2.67854 -2.40379 0
M  V30 1210 C 111.689 2.27408 -3.85992 0
M  V30 1211 C 113.433 3.45641 -2.46439 0
M  V30 1212 C 111.34 3.43819 -4.81189 0
M  V30 1213 H 110.27 0.556606 -0.508631 0
M  V30 1214 H 112.921 0.792216 -1.65518 0
M  V30 1215 H 111.303 3.3896 -2.04749 0
M  V30 1216 H 112.477 1.63795 -4.30706 0
M  V30 1217 H 110.792 1.62692 -3.83302 0
M  V30 1218 H 113.389 4.32244 -3.14753 0
M  V30 1219 H 113.732 3.88669 -1.49139 0
M  V30 1220 H 114.265 2.8157 -2.81004 0
M  V30 1221 H 111.004 3.05834 -5.79781 0
M  V30 1222 H 110.524 4.06385 -4.41148 0
M  V30 1223 H 112.203 4.10043 -5.00474 0
M  V30 1224 N 112.336 1.25143 0.95797 0
M  V30 1225 C 113.564 1.12424 1.73691 0
M  V30 1226 C 113.979 -0.322304 1.86029 0
M  V30 1227 O 113.336 -1.22186 1.35561 0
M  V30 1228 C 113.387 1.76933 3.15241 0
M  V30 1229 O 113.108 3.15932 3.03511 0
M  V30 1230 C 114.609 1.6995 4.09429 0
M  V30 1231 H 111.829 0.3923 0.544373 0
M  V30 1232 H 114.373 1.6544 1.20207 0
M  V30 1233 H 112.528 1.27895 3.6568 0
M  V30 1234 H 112.942 3.47598 3.9278 0
M  V30 1235 H 114.416 2.19753 5.06372 0
M  V30 1236 H 114.893 0.662619 4.34173 0
M  V30 1237 H 115.499 2.18461 3.64904 0
M  V30 1238 N 113.814 -1.1601 1.06675 0
M  V30 1239 C 115.06 -1.87145 0.796766 0
M  V30 1240 C 115.415 -1.8037 -0.669658 0
M  V30 1241 O 114.708 -1.21116 -1.48463 0
M  V30 1242 C 114.902 -3.35547 1.23057 0
M  V30 1243 C 114.731 -3.56769 2.73762 0
M  V30 1244 C 113.501 -3.72635 3.41279 0
M  V30 1245 C 115.699 -3.55166 3.7197 0
M  V30 1246 N 113.681 -3.81845 4.80695 0
M  V30 1247 C 115.052 -3.70406 4.97191 0
M  V30 1248 C 117.107 -3.384 3.65226 0
M  V30 1249 C 115.81 -3.70615 6.16471 0
M  V30 1250 C 117.836 -3.39904 4.83962 0
M  V30 1251 C 117.198 -3.55667 6.08013 0
M  V30 1252 H 113.297 -0.702267 0.344014 0
M  V30 1253 H 115.881 -1.39165 1.36166 0
M  V30 1254 H 114.052 -3.82159 0.693456 0
M  V30 1255 H 115.784 -3.94363 0.908844 0
M  V30 1256 H 112.539 -3.73121 2.91681 0
M  V30 1257 H 112.963 -3.90209 5.53232 0
M  V30 1258 H 117.605 -3.25138 2.70269 0
M  V30 1259 H 115.323 -3.82658 7.11757 0
M  V30 1260 H 118.909 -3.28169 4.80413 0
M  V30 1261 H 117.789 -3.56755 6.98352 0
M  V30 1262 N 115.292 -0.849877 -1.32721 0
M  V30 1263 C 116.52 -0.464754 -2.01613 0
M  V30 1264 C 116.935 0.937191 -1.63897 0
M  V30 1265 O 116.292 1.61081 -0.857856 0
M  V30 1266 C 116.343 -0.588638 -3.56675 0
M  V30 1267 O 116.064 -1.93535 -3.93034 0
M  V30 1268 C 117.565 -0.2019 -4.4284 0
M  V30 1269 H 114.785 -0.183215 -0.645502 0
M  V30 1270 H 117.329 -1.1455 -1.69407 0
M  V30 1271 H 115.484 0.0443159 -3.87375 0
M  V30 1272 H 115.898 -1.92871 -4.87751 0
M  V30 1273 H 117.372 -0.339599 -5.50954 0
M  V30 1274 H 117.849 0.857224 -4.30753 0
M  V30 1275 H 118.455 -0.809733 -4.17521 0
M  V30 1276 N 116.77 1.45427 -0.607355 0
M  V30 1277 C 117.7 2.3329 0.0989352 0
M  V30 1278 C 118.681 1.46816 0.859007 0
M  V30 1279 O 119.866 1.75588 0.829604 0
M  V30 1280 C 116.996 3.29518 1.09705 0
M  V30 1281 C 115.95 4.25626 0.450206 0
M  V30 1282 C 115.276 5.11542 1.55655 0
M  V30 1283 C 116.576 5.18505 -0.628455 0
M  V30 1284 H 118.27 2.92595 -0.634716 0
M  V30 1285 H 115.816 1.40696 -0.306681 0
M  V30 1286 H 117.769 3.89855 1.59971 0
M  V30 1287 H 116.493 2.68372 1.86129 0
M  V30 1288 H 115.152 3.66586 -0.0315886 0
M  V30 1289 H 114.8 4.46765 2.31107 0
M  V30 1290 H 114.5 5.76647 1.12925 0
M  V30 1291 H 116.024 5.74748 2.06148 0
M  V30 1292 H 117.438 5.72916 -0.209877 0
M  V30 1293 H 115.835 5.92085 -0.977489 0
M  V30 1294 H 116.905 4.60948 -1.50514 0
M  V30 1295 N 118.248 0.346503 1.53744 0
M  V30 1296 C 119.476 -0.25041 2.05379 0
M  V30 1297 C 119.891 -1.43979 1.22129 0
M  V30 1298 O 119.248 -1.80677 0.257321 0
M  V30 1299 C 119.299 -0.662575 3.55376 0
M  V30 1300 O 119.02 0.479515 4.35468 0
M  V30 1301 C 120.521 -1.31989 4.23195 0
M  V30 1302 H 117.741 -0.0478198 0.669294 0
M  V30 1303 H 120.285 0.499346 1.9831 0
M  V30 1304 H 118.44 -1.36227 3.62658 0
M  V30 1305 H 118.854 0.15037 5.24284 0
M  V30 1306 H 120.328 -1.55902 5.29527 0
M  V30 1307 H 120.805 -2.27436 3.75725 0
M  V30 1308 H 121.411 -0.662154 4.20114 0
M  V30 1309 N 119.726 -1.57421 0.075193 0
M  V30 1310 C 120.673 -2.12915 -0.890843 0
M  V30 1311 C 121.643 -1.04252 -1.29309 0
M  V30 1312 O 122.828 -1.31933 -1.37834 0
M  V30 1313 C 119.968 -2.69795 -2.15186 0
M  V30 1314 C 119.081 -3.92624 -1.80194 0
M  V30 1315 C 118.216 -4.37736 -3.00933 0
M  V30 1316 C 117.255 -5.53205 -2.61974 0
M  V30 1317 N 116.392 -5.9326 -3.75483 0
M  V30 1318 H 121.232 -2.95156 -0.410735 0
M  V30 1319 H 118.769 -1.45854 -0.191086 0
M  V30 1320 H 120.727 -3.00883 -2.89008 0
M  V30 1321 H 119.357 -1.90313 -2.60731 0
M  V30 1322 H 118.409 -3.67977 -0.964218 0
M  V30 1323 H 119.721 -4.76482 -1.47534 0
M  V30 1324 H 118.875 -4.70503 -3.8303 0
M  V30 1325 H 117.614 -3.52739 -3.36789 0
M  V30 1326 H 116.619 -5.20086 -1.783 0
M  V30 1327 H 117.844 -6.39936 -2.27284 0
M  V30 1328 H 115.79 -5.11212 -4.11094 0
M  V30 1329 H 115.707 -6.71865 -3.46602 0
M  V30 1330 H 116.975 -6.30651 -4.58148 0
M  V30 1331 N 121.204 0.198386 -1.56346 0
M  V30 1332 C 122.615 0.763358 -1.70381 0
M  V30 1333 C 122.966 1.83995 -0.681203 0
M  V30 1334 O 122.091 2.15785 0.16305 0
M  V30 1335 C 122.686 1.39143 -3.08909 0
M  V30 1336 C 121.245 1.90352 -3.2472 0
M  V30 1337 C 120.392 0.772233 -2.6633 0
M  V30 1338 H 123.343 -0.0266377 -1.58678 0
M  V30 1339 H 123.364 2.26076 -3.06055 0
M  V30 1340 H 122.876 0.607638 -3.83314 0
M  V30 1341 H 120.977 2.71461 -2.55225 0
M  V30 1342 H 121.09 2.06757 -4.3219 0
M  V30 1343 H 119.454 1.18566 -2.2542 0
M  V30 1344 H 120.237 0.00073556 -3.433 0
M  V30 1345 N 122.682 1.50554 0.465978 0
M  V30 1346 C 123.612 1.72722 1.57128 0
M  V30 1347 C 124.593 0.576294 1.6004 0
M  V30 1348 O 125.778 0.81598 1.76225 0
M  V30 1349 C 122.908 1.82605 2.95419 0
M  V30 1350 C 121.862 2.97835 3.07373 0
M  V30 1351 C 121.188 2.92867 4.47363 0
M  V30 1352 C 122.488 4.38265 2.84114 0
M  V30 1353 H 124.182 2.65267 1.38829 0
M  V30 1354 H 121.728 1.2765 0.666441 0
M  V30 1355 H 123.681 1.96698 3.72677 0
M  V30 1356 H 122.405 0.866858 3.14886 0
M  V30 1357 H 121.064 2.83401 2.3255 0
M  V30 1358 H 120.712 1.94783 4.63755 0
M  V30 1359 H 120.412 3.70227 4.56296 0
M  V30 1360 H 121.936 3.09015 5.26633 0
M  V30 1361 H 123.35 4.53198 3.51118 0
M  V30 1362 H 121.747 5.17115 3.04487 0
M  V30 1363 H 122.817 4.50281 1.7993 0
M  V30 1364 N 124.16 -0.719506 1.40217 0
M  V30 1365 C 125.123 -1.8153 1.39927 0
M  V30 1366 C 126.123 -1.58095 0.293723 0
M  V30 1367 O 127.313 -1.65209 0.552429 0
M  V30 1368 C 124.445 -3.19561 1.18716 0
M  V30 1369 H 125.638 -1.83186 2.37451 0
M  V30 1370 H 123.191 -0.924746 1.26008 0
M  V30 1371 H 123.926 -3.23557 0.219366 0
M  V30 1372 H 123.711 -3.3797 1.98793 0
M  V30 1373 H 125.201 -3.99598 1.21291 0
M  V30 1374 N 125.638 -1.25649 -0.95132 0
M  V30 1375 C 126.57 -1.02112 -2.05197 0
M  V30 1376 C 127.583 0.0150571 -1.62793 0
M  V30 1377 O 128.772 -0.223874 -1.77091 0
M  V30 1378 C 125.872 -0.522361 -3.3485 0
M  V30 1379 C 125.045 -1.62546 -4.06076 0
M  V30 1380 C 124.104 -1.12649 -5.14001 0
M  V30 1381 O 123.13 -1.82156 -5.39266 0
M  V30 1382 N 124.332 0.03047 -5.80492 0
M  V30 1383 H 127.097 -1.96885 -2.25957 0
M  V30 1384 H 124.658 -1.16899 -1.1201 0
M  V30 1385 H 126.65 -0.172961 -4.0433 0
M  V30 1386 H 125.22 0.33151 -3.10837 0
M  V30 1387 H 124.44 -2.14628 -3.30649 0
M  V30 1388 H 125.728 -2.36644 -4.50419 0
M  V30 1389 H 125.126 0.611169 -5.62389 0
M  V30 1390 H 123.683 0.320875 -6.5101 0
M  V30 1391 N 127.117 1.15442 -1.07289 0
M  V30 1392 C 128.345 1.90096 -0.81676 0
M  V30 1393 C 128.76 1.7798 0.629966 0
M  V30 1394 O 128.117 1.1313 1.43206 0
M  V30 1395 C 128.168 3.40466 -1.21512 0
M  V30 1396 O 127.889 3.52232 -2.60508 0
M  V30 1397 C 129.39 4.32145 -0.988198 0
M  V30 1398 H 126.61 0.602495 -0.295366 0
M  V30 1399 H 129.154 1.4627 -1.42918 0
M  V30 1400 H 127.309 3.81958 -0.647039 0
M  V30 1401 H 127.723 4.45549 -2.76742 0
M  V30 1402 H 129.197 5.36072 -1.31645 0
M  V30 1403 H 129.674 4.39135 0.0755063 0
M  V30 1404 H 130.28 3.96395 -1.54115 0
M  V30 1405 N 128.595 0.856903 1.32268 0
M  V30 1406 C 129.527 0.260412 2.27716 0
M  V30 1407 C 130.54 -0.569137 1.52528 0
M  V30 1408 O 131.729 -0.39326 1.74114 0
M  V30 1409 C 128.829 -0.650477 3.32599 0
M  V30 1410 C 128.002 0.14372 4.37164 0
M  V30 1411 C 127.061 -0.69328 5.21613 0
M  V30 1412 O 126.087 -0.12599 5.69061 0
M  V30 1413 N 127.289 -2.00761 5.44679 0
M  V30 1414 H 130.054 1.08059 2.79541 0
M  V30 1415 H 127.615 0.717103 1.45152 0
M  V30 1416 H 129.607 -1.21581 3.86005 0
M  V30 1417 H 128.177 -1.37133 2.80915 0
M  V30 1418 H 127.397 0.890486 3.8401 0
M  V30 1419 H 128.685 0.68915 5.04111 0
M  V30 1420 H 128.083 -2.49181 5.07863 0
M  V30 1421 H 126.64 -2.52103 6.01072 0
M  V30 1422 N 130.073 -1.45103 0.615059 0
M  V30 1423 C 131.301 -2.06553 0.11977 0
M  V30 1424 C 131.716 -1.45842 -1.19898 0
M  V30 1425 O 131.073 -0.575325 -1.73194 0
M  V30 1426 C 131.124 -3.61495 -0.018364 0
M  V30 1427 O 130.845 -4.19942 1.24822 0
M  V30 1428 C 132.346 -4.39947 -0.544237 0
M  V30 1429 H 129.566 -0.667096 0.0722739 0
M  V30 1430 H 132.11 -1.8623 0.84491 0
M  V30 1431 H 130.265 -3.81135 -0.693865 0
M  V30 1432 H 130.679 -5.13204 1.0827 0
M  V30 1433 H 132.153 -5.48838 -0.589953 0
M  V30 1434 H 132.63 -4.10255 -1.56805 0
M  V30 1435 H 133.236 -4.25188 0.0974703 0
M  V30 1436 N 131.551 -0.354651 -1.53558 0
M  V30 1437 C 132.484 0.540273 -2.21712 0
M  V30 1438 C 133.462 1.09161 -1.2051 0
M  V30 1439 O 134.646 1.14979 -1.49372 0
M  V30 1440 C 131.773 1.74435 -2.90328 0
M  V30 1441 C 130.819 1.32146 -4.05512 0
M  V30 1442 S 131.652 0.331924 -5.3447 0
M  V30 1443 C 132.808 1.54258 -6.06593 0
M  V30 1444 H 133.041 -0.0385776 -2.97275 0
M  V30 1445 H 130.574 -0.138736 -1.53775 0
M  V30 1446 H 132.532 2.43507 -3.30476 0
M  V30 1447 H 131.193 2.29444 -2.1451 0
M  V30 1448 H 130.386 2.21952 -4.52497 0
M  V30 1449 H 129.988 0.710091 -3.67197 0
M  V30 1450 H 132.28 2.47534 -6.30661 0
M  V30 1451 H 133.223 1.11431 -6.99277 0
M  V30 1452 H 133.631 1.74367 -5.36895 0
M  V30 1453 N 133.029 1.57378 -0.0835403 0
M  V30 1454 C 134.254 1.98682 0.594987 0
M  V30 1455 C 134.679 0.961969 1.61641 0
M  V30 1456 O 134.037 -0.0709989 1.81161 0
M  V30 1457 C 134.085 3.38988 1.2296 0
M  V30 1458 O 133.189 3.39208 2.34546 0
M  V30 1459 H 132.53 0.646368 0.152002 0
M  V30 1460 H 135.06 2.03961 -0.161533 0
M  V30 1461 H 135.07 3.76431 1.57366 0
M  V30 1462 H 133.745 4.13107 0.481228 0
M  V30 1463 H 132.322 3.13548 2.01846 0
M  V30 1464 N 134.507 -0.190092 1.56449 0
M  V30 1465 C 135.437 -1.23816 1.97969 0
M  V30 1466 C 136.418 -1.47201 0.852395 0
M  V30 1467 O 137.603 -1.58854 1.1171 0
M  V30 1468 C 134.733 -2.5813 2.3235 0
M  V30 1469 C 133.687 -2.49348 3.47864 0
M  V30 1470 C 133.013 -3.8798 3.67934 0
M  V30 1471 C 134.313 -2.01424 4.81898 0
M  V30 1472 H 136.007 -0.89311 2.85769 0
M  V30 1473 H 133.553 -0.428177 1.37487 0
M  V30 1474 H 135.506 -3.31637 2.59991 0
M  V30 1475 H 134.23 -2.94386 1.41438 0
M  V30 1476 H 132.889 -1.78297 3.20321 0
M  V30 1477 H 132.537 -4.21597 2.74344 0
M  V30 1478 H 132.237 -3.82978 4.45648 0
M  V30 1479 H 133.761 -4.63101 3.97957 0
M  V30 1480 H 135.175 -2.64693 5.08538 0
M  V30 1481 H 133.572 -2.07413 5.63116 0
M  V30 1482 H 134.642 -0.967677 4.75146 0
M  V30 1483 N 135.985 -1.50799 -0.457987 0
M  V30 1484 C 137.215 -1.65977 -1.23025 0
M  V30 1485 C 137.623 -0.347918 -1.85974 0
M  V30 1486 O 136.966 0.68148 -1.70592 0
M  V30 1487 C 137.028 -2.70309 -2.3701 0
M  V30 1488 C 136.692 -4.135 -1.94594 0
M  V30 1489 C 137.689 -4.98949 -1.46101 0
M  V30 1490 C 135.374 -4.5949 -2.02915 0
M  V30 1491 C 137.368 -6.28442 -1.06489 0
M  V30 1492 C 135.055 -5.88984 -1.62914 0
M  V30 1493 C 136.053 -6.73286 -1.1478 0
M  V30 1494 O 135.741 -8.00362 -0.75339 0
M  V30 1495 H 135.473 -0.56064 -0.377702 0
M  V30 1496 H 138.027 -1.97857 -0.551537 0
M  V30 1497 H 136.257 -2.337 -3.08093 0
M  V30 1498 H 137.946 -2.74574 -2.98938 0
M  V30 1499 H 138.712 -4.6463 -1.39084 0
M  V30 1500 H 134.591 -3.94009 -2.39328 0
M  V30 1501 H 138.135 -6.94194 -0.688488 0
M  V30 1502 H 134.032 -6.22822 -1.69595 0
M  V30 1503 H 134.8 -8.13744 -0.88108 0
M  V30 1504 N 137.463 0.71206 -1.40597 0
M  V30 1505 C 138.395 1.83704 -1.37061 0
M  V30 1506 C 139.408 1.60453 -0.275426 0
M  V30 1507 O 140.597 1.70262 -0.53602 0
M  V30 1508 C 137.697 3.20172 -1.11099 0
M  V30 1509 C 136.87 3.7059 -2.3234 0
M  V30 1510 C 135.929 4.85681 -2.02485 0
M  V30 1511 O 134.955 4.9815 -2.75382 0
M  V30 1512 N 136.157 5.71735 -1.00497 0
M  V30 1513 H 138.922 1.87235 -2.34016 0
M  V30 1514 H 136.483 0.893739 -1.34996 0
M  V30 1515 H 138.475 3.94768 -0.891064 0
M  V30 1516 H 137.045 3.11767 -0.227989 0
M  V30 1517 H 136.265 2.87085 -2.7014 0
M  V30 1518 H 137.553 4.01011 -3.13157 0
M  V30 1519 H 136.951 5.64275 -0.401298 0
M  V30 1520 H 135.508 6.463 -0.844942 0
M  V30 1521 N 138.941 1.26152 0.944643 0
M  V30 1522 C 139.873 1.03199 2.04652 0
M  V30 1523 C 140.886 -0.00642356 1.62799 0
M  V30 1524 O 142.075 0.233263 1.76969 0
M  V30 1525 C 139.175 0.540111 3.34568 0
M  V30 1526 C 138.348 1.64697 4.05208 0
M  V30 1527 C 137.407 1.15374 5.13396 0
M  V30 1528 O 136.433 1.85013 5.38293 0
M  V30 1529 N 137.635 0.00031529 5.805 0
M  V30 1530 H 140.4 1.9808 2.2491 0
M  V30 1531 H 137.961 1.17491 1.11389 0
M  V30 1532 H 139.953 0.194401 4.04233 0
M  V30 1533 H 138.523 -0.315021 3.11009 0
M  V30 1534 H 137.743 2.16379 3.29506 0
M  V30 1535 H 139.031 2.3903 4.49157 0
M  V30 1536 H 138.429 -0.581336 5.62705 0
M  V30 1537 H 136.986 -0.286346 6.51171 0
M  V30 1538 N 140.419 -1.14872 1.07899 0
M  V30 1539 C 141.349 -2.2193 0.725887 0
M  V30 1540 C 142.33 -1.67622 -0.28927 0
M  V30 1541 O 143.515 -1.93533 -0.160787 0
M  V30 1542 C 140.645 -3.47061 0.128856 0
M  V30 1543 C 139.599 -4.14363 1.07178 0
M  V30 1544 C 138.925 -5.33636 0.337229 0
M  V30 1545 C 140.225 -4.63492 2.40775 0
M  V30 1546 H 141.919 -2.51724 1.62097 0
M  V30 1547 H 139.465 -1.20991 0.780838 0
M  V30 1548 H 141.418 -4.21199 -0.130147 0
M  V30 1549 H 140.142 -3.16617 -0.80134 0
M  V30 1550 H 138.801 -3.42173 1.3158 0
M  V30 1551 H 138.449 -4.99449 -0.596606 0
M  V30 1552 H 138.149 -5.79609 0.965788 0
M  V30 1553 H 139.673 -6.10539 0.0861567 0
M  V30 1554 H 141.087 -5.2913 2.20669 0
M  V30 1555 H 139.484 -5.20148 2.99276 0
M  V30 1556 H 140.554 -3.78834 3.02676 0
M  V30 1557 N 141.898 -0.863906 -1.31812 0
M  V30 1558 C 142.808 -0.318461 -2.32428 0
M  V30 1559 C 143.824 0.568496 -1.64451 0
M  V30 1560 O 145 0.46666 -1.95919 0
M  V30 1561 C 142.065 0.476355 -3.43412 0
M  V30 1562 C 141.126 -0.43784 -4.27061 0
M  V30 1563 C 140.359 0.319138 -5.32745 0
M  V30 1564 O 140.582 1.54799 -5.48993 0
M  V30 1565 O 139.516 -0.319861 -6.01049 0
M  V30 1566 H 143.342 -1.15229 -2.80991 0
M  V30 1567 H 140.927 -0.627103 -1.35602 0
M  V30 1568 H 142.809 0.927156 -4.11074 0
M  V30 1569 H 141.484 1.28683 -2.97022 0
M  V30 1570 H 140.391 -0.937013 -3.62175 0
M  V30 1571 H 141.724 -1.21375 -4.77 0
M  V30 1572 N 143.376 1.44774 -0.622745 0
M  V30 1573 C 144.339 2.29069 0.0774015 0
M  V30 1574 C 145.339 1.4059 0.780461 0
M  V30 1575 O 146.529 1.62551 0.626322 0
M  V30 1576 C 143.661 3.21974 1.12006 0
M  V30 1577 H 144.854 2.92459 -0.663901 0
M  V30 1578 H 142.407 1.51548 -0.382486 0
M  V30 1579 H 143.142 2.63417 1.89162 0
M  V30 1580 H 142.927 3.87168 0.619951 0
M  V30 1581 H 144.417 3.85318 1.60995 0
M  V30 1582 N 144.854 0.36279 1.53368 0
M  V30 1583 C 146.102 -0.227326 2.00817 0
M  V30 1584 C 146.423 -1.49511 1.25186 0
M  V30 1585 O 145.693 -1.92482 0.364348 0
M  V30 1586 H 144.273 -0.0869923 0.741917 0
M  V30 1587 H 146.935 0.488381 1.88682 0
M  V30 1588 H 146.031 -0.456273 3.08747 0
M  V30 1589 N 146.332 -1.57332 0.0918853 0
M  V30 1590 C 147.581 -1.93412 -0.572249 0
M  V30 1591 C 147.894 -0.975515 -1.69538 0
M  V30 1592 O 149.1 -1.22991 -2.42045 0
M  V30 1593 C 147.556 -3.43648 -1.0693 0
M  V30 1594 C 147.164 -4.47994 0.0239049 0
M  V30 1595 C 148.908 -3.88695 -1.70635 0
M  V30 1596 C 146.815 -5.89381 -0.488319 0
M  V30 1597 H 145.745 -0.721939 -0.217532 0
M  V30 1598 H 148.396 -1.82735 0.167369 0
M  V30 1599 H 146.778 -3.49466 -1.8625 0
M  V30 1600 H 147.952 -4.53815 0.799277 0
M  V30 1601 H 146.267 -4.12536 0.565946 0
M  V30 1602 H 148.864 -4.91725 -2.10025 0
M  V30 1603 H 149.207 -3.27166 -2.57426 0
M  V30 1604 H 149.74 -3.85564 -0.979023 0
M  V30 1605 H 146.479 -6.54602 0.342906 0
M  V30 1606 H 145.999 -5.87037 -1.23077 0
M  V30 1607 H 147.678 -6.39863 -0.958317 0
M  V30 1608 N 147.81 0.181792 -1.56548 0
M  V30 1609 C 149.226 0.53316 -1.50431 0
M  V30 1610 C 149.426 1.85184 -0.794297 0
M  V30 1611 O 148.482 2.50058 -0.350318 0
M  V30 1612 C 149.795 0.575597 -2.9514 0
M  V30 1613 C 151.343 0.663519 -3.05886 0
M  V30 1614 C 151.818 0.736946 -4.52032 0
M  V30 1615 N 153.309 0.800118 -4.56237 0
M  V30 1616 C 154.044 0.877327 -5.66649 0
M  V30 1617 N 153.54 0.916016 -6.86718 0
M  V30 1618 N 155.333 0.915542 -5.54594 0
M  V30 1619 H 147.484 -0.683025 -2.01118 0
M  V30 1620 H 149.747 -0.244988 -0.915797 0
M  V30 1621 H 149.453 -0.324482 -3.502 0
M  V30 1622 H 149.327 1.42572 -3.49218 0
M  V30 1623 H 151.714 1.55403 -2.50867 0
M  V30 1624 H 151.795 -0.21307 -2.54911 0
M  V30 1625 H 151.439 -0.149262 -5.07681 0
M  V30 1626 H 151.369 1.62953 -5.00753 0
M  V30 1627 H 153.86 0.778926 -3.69785 0
M  V30 1628 H 154.173 0.975813 -7.66614 0
M  V30 1629 H 152.518 0.884469 -6.89349 0
M  V30 1630 H 155.709 0.882245 -4.59711 0
M  V30 1631 H 155.882 0.972253 -6.40665 0
M  V30 1632 N 149.288 1.51039 0.449983 0
M  V30 1633 C 150.518 1.66627 1.22143 0
M  V30 1634 C 150.926 0.357776 1.85786 0
M  V30 1635 O 150.269 -0.672424 1.70951 0
M  V30 1636 C 150.331 2.71562 2.35573 0
M  V30 1637 C 149.995 4.14526 1.92399 0
M  V30 1638 C 150.992 4.99717 1.43453 0
M  V30 1639 C 148.677 4.60559 2.00475 0
M  V30 1640 C 150.671 6.28998 1.03155 0
M  V30 1641 C 148.358 5.8984 1.59788 0
M  V30 1642 C 149.356 6.73886 1.11208 0
M  V30 1643 O 149.044 8.0075 0.710935 0
M  V30 1644 H 148.776 0.562635 0.374724 0
M  V30 1645 H 151.33 1.98146 0.541036 0
M  V30 1646 H 149.56 2.3533 3.06849 0
M  V30 1647 H 151.249 2.76156 2.97478 0
M  V30 1648 H 152.015 4.65361 1.36618 0
M  V30 1649 H 147.894 3.95273 2.37235 0
M  V30 1650 H 151.438 6.9455 0.651663 0
M  V30 1651 H 147.335 6.23713 1.66289 0
M  V30 1652 H 148.103 8.142 0.837913 0
M  V30 1653 N 150.766 -0.704594 1.40972 0
M  V30 1654 C 152.015 -1.46018 1.39146 0
M  V30 1655 C 152.328 -1.956 0.000589254 0
M  V30 1656 O 153.534 -2.71137 -0.1403 0
M  V30 1657 C 151.99 -2.63996 2.4461 0
M  V30 1658 C 151.598 -2.21238 3.89561 0
M  V30 1659 C 153.342 -3.41677 2.51907 0
M  V30 1660 C 151.249 -3.3612 4.86598 0
M  V30 1661 H 150.179 -0.548444 0.517422 0
M  V30 1662 H 152.83 -0.765784 1.66757 0
M  V30 1663 H 151.212 -3.3566 2.10115 0
M  V30 1664 H 152.386 -1.56923 4.33257 0
M  V30 1665 H 150.701 -1.56574 3.85841 0
M  V30 1666 H 153.298 -4.27182 3.2159 0
M  V30 1667 H 153.641 -3.86247 1.55303 0
M  V30 1668 H 154.174 -2.77064 2.85448 0
M  V30 1669 H 150.913 -2.96572 5.84573 0
M  V30 1670 H 150.433 -3.99315 4.47557 0
M  V30 1671 H 152.112 -4.02029 5.06934 0
M  V30 1672 N 152.244 -1.26651 -0.937939 0
M  V30 1673 C 153.521 -1.0313 -1.66204 0
M  V30 1674 C 153.901 0.437256 -2.06522 0
M  V30 1675 O 153.249 1.41831 -1.79154 0
M  V30 1676 C 153.459 -1.98314 -2.87181 0
M  V30 1677 C 154.807 -2.27107 -3.58758 0
M  V30 1678 O 155.831 -1.96205 -2.97291 0
M  V30 1679 O 154.69 -2.79736 -4.69479 0
M  V30 1680 H 151.784 -0.392384 -0.727986 0
M  V30 1681 H 154.33 -1.37874 -0.989382 0
M  V30 1682 H 153.102 -2.97399 -2.54302 0
M  V30 1683 H 152.725 -1.64068 -3.6217 0
M  V30 1684 N 153.722 1.14298 -1.08507 0
M  V30 1685 C 154.971 1.84708 -0.810305 0
M  V30 1686 C 155.284 1.83903 0.666271 0
M  V30 1687 O 156.49 2.50112 1.05624 0
M  V30 1688 C 154.946 3.31572 -1.39957 0
M  V30 1689 C 154.554 3.40791 -2.90801 0
M  V30 1690 C 156.298 4.07087 -1.20334 0
M  V30 1691 C 154.205 4.81872 -3.4286 0
M  V30 1692 H 153.135 0.691985 -0.299454 0
M  V30 1693 H 155.786 1.28841 -1.30661 0
M  V30 1694 H 154.168 3.87183 -0.830976 0
M  V30 1695 H 155.342 2.95225 -3.53806 0
M  V30 1696 H 153.657 2.78732 -3.0935 0
M  V30 1697 H 156.254 5.11225 -1.56693 0
M  V30 1698 H 156.597 4.16054 -0.143237 0
M  V30 1699 H 157.13 3.57779 -1.73893 0
M  V30 1700 H 153.869 4.78094 -4.48449 0
M  V30 1701 H 153.389 5.27972 -2.84615 0
M  V30 1702 H 155.068 5.50765 -3.39509 0
M  V30 1703 N 155.201 0.870884 1.31352 0
M  V30 1704 C 156.617 0.562932 1.49343 0
M  V30 1705 C 156.817 -0.902725 1.80148 0
M  V30 1706 O 155.873 -1.68484 1.88067 0
M  V30 1707 C 157.186 1.46393 2.62659 0
M  V30 1708 C 158.734 1.46607 2.76542 0
M  V30 1709 C 159.209 2.35266 3.92955 0
M  V30 1710 N 160.7 2.33151 4.00243 0
M  V30 1711 C 161.435 2.98471 4.89594 0
M  V30 1712 N 160.931 3.72964 5.8384 0
M  V30 1713 N 162.724 2.87775 4.82848 0
M  V30 1714 H 154.875 1.81923 1.09626 0
M  V30 1715 H 157.138 0.777934 0.541777 0
M  V30 1716 H 156.844 2.50689 2.46674 0
M  V30 1717 H 156.718 1.16314 3.58819 0
M  V30 1718 H 159.105 0.43069 2.9194 0
M  V30 1719 H 159.186 1.8071 1.81046 0
M  V30 1720 H 158.83 3.38881 3.78315 0
M  V30 1721 H 158.76 1.98487 4.87761 0
M  V30 1722 H 161.251 1.79006 3.32814 0
M  V30 1723 H 161.564 4.19932 6.4875 0
M  V30 1724 H 159.909 3.77073 5.83816 0
M  V30 1725 H 163.1 2.29116 4.08195 0
M  V30 1726 H 163.273 3.38961 5.52277 0
M  V30 1727 N 156.679 -1.44442 0.630414 0
M  V30 1728 C 157.642 -2.29107 -0.0652523 0
M  V30 1729 C 158.642 -1.41002 -0.772995 0
M  V30 1730 O 159.832 -1.62881 -0.617692 0
M  V30 1731 C 156.964 -3.22564 -1.10296 0
M  V30 1732 H 158.157 -2.92103 0.679401 0
M  V30 1733 H 155.71 -1.51343 0.390517 0
M  V30 1734 H 156.445 -2.64416 -1.87762 0
M  V30 1735 H 156.23 -3.87491 -0.59941 0
M  V30 1736 H 157.72 -3.86167 -1.5895 0
M  V30 1737 N 158.157 -0.370918 -1.53173 0
M  V30 1738 C 159.104 0.473035 -2.259 0
M  V30 1739 C 160.074 1.07311 -1.26781 0
M  V30 1740 O 161.259 1.1046 -1.55574 0
M  V30 1741 C 158.399 1.60405 -3.05556 0
M  V30 1742 C 157.512 1.02863 -4.19575 0
M  V30 1743 C 156.647 2.12918 -4.86661 0
M  V30 1744 C 155.686 1.52869 -5.92704 0
M  V30 1745 N 154.823 2.56779 -6.53459 0
M  V30 1746 H 159.663 -0.153649 -2.97604 0
M  V30 1747 H 157.2 -0.0875946 -1.46839 0
M  V30 1748 H 159.158 2.27034 -3.50016 0
M  V30 1749 H 157.788 2.20131 -2.36097 0
M  V30 1750 H 156.84 0.252465 -3.79561 0
M  V30 1751 H 158.152 0.549642 -4.95762 0
M  V30 1752 H 157.306 2.87356 -5.34333 0
M  V30 1753 H 156.045 2.6417 -4.09958 0
M  V30 1754 H 155.05 0.769479 -5.44389 0
M  V30 1755 H 156.275 1.02435 -6.7133 0
M  V30 1756 H 154.221 3.07235 -5.79606 0
M  V30 1757 H 154.138 2.13583 -7.25202 0
M  V30 1758 H 155.406 3.30903 -7.05779 0
M  V30 1759 N 159.635 1.57281 -0.100228 0
M  V30 1760 C 160.912 1.86014 0.604812 0
M  V30 1761 C 161.292 0.998025 1.86018 0
M  V30 1762 O 160.64 0.0718184 2.28387 0
M  V30 1763 C 160.85 3.36784 0.915278 0
M  V30 1764 C 162.198 4.04957 1.27651 0
M  V30 1765 O 163.222 3.41695 1.00613 0
M  V30 1766 O 162.081 5.16593 1.7831 0
M  V30 1767 H 159.175 0.76942 0.303185 0
M  V30 1768 H 161.721 1.69176 -0.133313 0
M  V30 1769 H 160.493 3.91292 0.0248896 0
M  V30 1770 H 160.116 3.58987 1.70921 0
M  V30 1771 N 161.113 -0.173488 1.56642 0
M  V30 1772 C 162.061 -1.23417 1.97157 0
M  V30 1773 C 163.055 -1.45946 0.860013 0
M  V30 1774 O 164.261 -1.46551 1.04512 0
M  V30 1775 H 160.636 -0.414818 0.62724 0
M  V30 1776 H 162.607 -0.865582 2.8557 0
M  V30 1777 C 161.356 -2.5665 2.34576 0
M  V30 1778 H 160.679 -2.40137 3.19647 0
M  V30 1779 H 162.119 -3.2956 2.6677 0
M  V30 1780 C 160.578 -3.15245 1.18836 0
M  V30 1781 O 161.108 -3.98883 0.474869 0
M  V30 1782 N 159.314 -2.74303 0.959497 0
M  V30 1783 H 158.861 -2.0639 1.54146 0
M  V30 1784 H 158.819 -3.13844 0.186932 0
M  V30 1785 N 162.591 -1.51276 -0.441967 0
M  V30 1786 C 163.521 -1.752 -1.54361 0
M  V30 1787 C 164.502 -0.601682 -1.59103 0
M  V30 1788 O 165.687 -0.843913 -1.74905 0
M  V30 1789 C 162.817 -1.87282 -2.92477 0
M  V30 1790 C 161.771 -3.02687 -3.02596 0
M  V30 1791 C 161.097 -2.99947 -4.42647 0
M  V30 1792 C 162.397 -4.4273 -2.77106 0
M  V30 1793 H 164.091 -2.67442 -1.34592 0
M  V30 1794 H 161.637 -1.28694 -0.646048 0
M  V30 1795 H 163.59 -2.02602 -3.695 0
M  V30 1796 H 162.314 -0.916844 -3.13467 0
M  V30 1797 H 160.973 -2.87065 -2.28012 0
M  V30 1798 H 160.621 -2.02136 -4.60597 0
M  V30 1799 H 160.321 -3.77439 -4.50348 0
M  V30 1800 H 161.845 -3.17354 -5.2165 0
M  V30 1801 H 163.259 -4.58727 -3.43864 0
M  V30 1802 H 161.656 -5.21893 -2.96222 0
M  V30 1803 H 162.726 -4.53087 -1.72744 0
M  V30 1804 N 164.069 0.697108 -1.41344 0
M  V30 1805 C 165.017 1.83237 -1.43272 0
M  V30 1806 C 166.011 1.66522 -0.310947 0
M  V30 1807 O 167.217 1.73402 -0.482899 0
M  V30 1808 H 163.592 0.603802 -0.448249 0
M  V30 1809 H 165.563 1.78727 -2.38954 0
M  V30 1810 C 164.312 3.21245 -1.33029 0
M  V30 1811 H 163.635 3.34723 -2.18633 0
M  V30 1812 H 165.075 4.00763 -1.38439 0
M  V30 1813 C 163.534 3.36873 -0.0424635 0
M  V30 1814 O 164.064 3.91177 0.913421 0
M  V30 1815 N 162.27 2.90581 0.0331145 0
M  V30 1816 H 161.817 2.46577 -0.745506 0
M  V30 1817 H 161.775 3.01416 0.894199 0
M  V30 1818 N 165.547 1.27147 0.931209 0
M  V30 1819 C 166.796 1.12664 1.67302 0
M  V30 1820 C 167.109 -0.327718 1.92835 0
M  V30 1821 O 168.315 -0.593392 2.64936 0
M  V30 1822 C 166.771 1.9683 3.01307 0
M  V30 1823 C 166.379 3.46901 2.83485 0
M  V30 1824 C 168.123 1.90985 3.79111 0
M  V30 1825 C 166.03 4.23279 4.13024 0
M  V30 1826 H 164.96 0.41803 0.627509 0
M  V30 1827 H 167.611 1.51539 1.03481 0
M  V30 1828 H 165.993 1.50797 3.66164 0
M  V30 1829 H 167.167 4.00773 2.27415 0
M  V30 1830 H 165.482 3.54088 2.19113 0
M  V30 1831 H 168.079 2.45328 4.75098 0
M  V30 1832 H 168.422 0.882718 4.06834 0
M  V30 1833 H 168.955 2.34895 3.21044 0
M  V30 1834 H 165.694 5.26503 3.90481 0
M  V30 1835 H 165.214 3.74186 4.6877 0
M  V30 1836 H 166.893 4.32265 4.81411 0
M  V30 1837 N 167.025 -1.13721 1.09112 0
M  V30 1838 C 168.255 -1.88499 0.845671 0
M  V30 1839 C 168.663 -1.79218 -0.606432 0
M  V30 1840 O 168.006 -1.1544 -1.42896 0
M  V30 1841 C 168.068 -3.38954 1.19793 0
M  V30 1842 C 167.732 -3.72018 2.65428 0
M  V30 1843 C 168.729 -3.7153 3.63677 0
M  V30 1844 C 166.414 -4.01775 3.01467 0
M  V30 1845 C 168.408 -4.00336 4.95994 0
M  V30 1846 C 166.095 -4.30243 4.33975 0
M  V30 1847 C 167.093 -4.29508 5.31048 0
M  V30 1848 O 166.781 -4.5728 6.61173 0
M  V30 1849 H 166.513 -0.603702 0.304171 0
M  V30 1850 H 169.067 -1.44903 1.45576 0
M  V30 1851 H 167.297 -3.83039 0.530871 0
M  V30 1852 H 168.986 -3.95052 0.932146 0
M  V30 1853 H 169.752 -3.4862 3.37179 0
M  V30 1854 H 165.631 -4.01496 2.26544 0
M  V30 1855 H 169.175 -3.99678 5.71755 0
M  V30 1856 H 165.072 -4.52625 4.60219 0
M  V30 1857 H 165.84 -4.74964 6.66597 0
M  V30 1858 N 168.503 -0.877838 -1.30888 0
M  V30 1859 C 169.453 -0.310872 -2.25871 0
M  V30 1860 C 170.437 0.556596 -1.50966 0
M  V30 1861 O 171.629 0.402187 -1.7237 0
M  V30 1862 C 168.758 0.479821 -3.3993 0
M  V30 1863 C 167.844 -0.401333 -4.22197 0
M  V30 1864 N 168.235 -1.49848 -4.83093 0
M  V30 1865 C 166.533 -0.195167 -4.45573 0
M  V30 1866 C 167.234 -2.0425 -5.44662 0
M  V30 1867 N 166.21 -1.33843 -5.26865 0
M  V30 1868 H 170.012 -1.1493 -2.70496 0
M  V30 1869 H 167.526 -0.726458 -1.45246 0
M  V30 1870 H 169.523 0.902582 -4.07012 0
M  V30 1871 H 168.183 1.31577 -2.96846 0
M  V30 1872 H 169.194 -1.88137 -4.82519 0
M  V30 1873 H 165.871 0.604192 -4.13105 0
M  V30 1874 H 167.261 -2.96345 -6.03017 0
M  V30 1875 N 169.982 1.44106 -0.638065 0
M  V30 1876 C 171.23 2.01579 -0.145043 0
M  V30 1877 C 171.551 1.50496 1.24 0
M  V30 1878 O 170.821 0.711374 1.82527 0
M  V30 1879 H 169.401 0.745282 -0.05063 0
M  V30 1880 H 172.063 1.76516 -0.826327 0
M  V30 1881 H 171.159 3.11877 -0.118039 0
M  V30 1882 N 171.46 0.379036 1.52974 0
M  V30 1883 C 172.871 -0.0972525 1.86447 0
M  V30 1884 C 173.222 -1.47027 1.29914 0
M  V30 1885 O 172.347 -2.07135 0.626433 0
M  V30 1886 C 172.942 -0.183248 3.38304 0
M  V30 1887 C 171.501 -0.603812 3.71525 0
M  V30 1888 C 170.648 0.240632 2.76254 0
M  V30 1889 H 173.599 0.597316 1.4703 0
M  V30 1890 H 173.62 -1.00432 3.67006 0
M  V30 1891 H 173.132 0.816191 3.79421 0
M  V30 1892 H 171.233 -1.61099 3.35973 0
M  V30 1893 H 171.346 -0.369086 4.77676 0
M  V30 1894 H 169.71 -0.292548 2.53014 0
M  V30 1895 H 170.493 1.23786 3.20206 0
M  V30 1896 N 172.938 -1.57226 0.108567 0
M  V30 1897 C 174.187 -1.94008 -0.551703 0
M  V30 1898 C 174.5 -0.993442 -1.68494 0
M  V30 1899 O 175.706 -1.25551 -2.40726 0
M  V30 1900 C 174.162 -3.44763 -1.03279 0
M  V30 1901 C 173.77 -4.47943 0.0714193 0
M  V30 1902 C 175.514 -3.90483 -1.66503 0
M  V30 1903 C 173.421 -5.89865 -0.425779 0
M  V30 1904 H 172.351 -0.724206 -0.209863 0
M  V30 1905 H 175.002 -1.82547 0.186741 0
M  V30 1906 H 173.384 -3.51422 -1.82533 0
M  V30 1907 H 174.558 -4.52942 0.847365 0
M  V30 1908 H 172.873 -4.11913 0.609669 0
M  V30 1909 H 175.47 -4.93925 -2.04798 0
M  V30 1910 H 175.813 -3.29877 -2.53942 0
M  V30 1911 H 176.346 -3.86581 -0.938074 0
M  V30 1912 H 173.085 -6.54202 0.412316 0
M  V30 1913 H 172.605 -5.88309 -1.16843 0
M  V30 1914 H 174.284 -6.40844 -0.890397 0
M  V30 1915 N 174.416 0.165178 -1.56732 0
M  V30 1916 C 175.663 0.880807 -1.8234 0
M  V30 1917 C 175.991 1.81977 -0.686621 0
M  V30 1918 O 175.246 1.92971 0.325697 0
M  V30 1919 C 175.545 1.70405 -3.1416 0
M  V30 1920 C 175.211 0.913475 -4.4155 0
M  V30 1921 C 173.873 0.695303 -4.7615 0
M  V30 1922 C 176.225 0.359349 -5.1996 0
M  V30 1923 C 173.553 -0.0879947 -5.86634 0
M  V30 1924 C 175.905 -0.410893 -6.31264 0
M  V30 1925 C 174.569 -0.639808 -6.64427 0
M  V30 1926 H 173.839 0.32231 -0.667231 0
M  V30 1927 H 176.486 0.145402 -1.90947 0
M  V30 1928 H 174.791 2.50903 -3.00923 0
M  V30 1929 H 176.488 2.26091 -3.31186 0
M  V30 1930 H 173.078 1.09357 -4.14414 0
M  V30 1931 H 177.262 0.515228 -4.93618 0
M  V30 1932 H 172.518 -0.27503 -6.10781 0
M  V30 1933 H 176.692 -0.847494 -6.91224 0
M  V30 1934 H 174.319 -1.24864 -7.49875 0
M  V30 1935 N 175.894 1.51508 0.433938 0
M  V30 1936 C 176.824 1.76016 1.53429 0
M  V30 1937 C 177.805 0.610112 1.58782 0
M  V30 1938 O 178.99 0.853177 1.74455 0
M  V30 1939 C 176.12 1.88831 2.9148 0
M  V30 1940 C 175.074 3.04288 3.00987 0
M  V30 1941 C 174.4 3.0229 4.4105 0
M  V30 1942 C 175.7 4.44193 2.74754 0
M  V30 1943 H 177.394 2.68152 1.33171 0
M  V30 1944 H 174.94 1.29035 0.639214 0
M  V30 1945 H 176.893 2.04559 3.6842 0
M  V30 1946 H 175.617 0.933455 3.12976 0
M  V30 1947 H 174.276 2.8827 2.26486 0
M  V30 1948 H 173.924 2.04576 4.59519 0
M  V30 1949 H 173.624 3.79822 4.4834 0
M  V30 1950 H 175.148 3.20116 5.1996 0
M  V30 1951 H 176.562 4.60544 3.41426 0
M  V30 1952 H 174.959 5.23457 2.9345 0
M  V30 1953 H 176.029 4.53996 1.70339 0
M  V30 1954 N 177.372 -0.689602 1.41712 0
M  V30 1955 C 178.32 -1.82475 1.44242 0
M  V30 1956 C 179.314 -1.66354 0.319774 0
M  V30 1957 O 180.52 -1.73143 0.492089 0
M  V30 1958 H 176.895 -0.601416 0.451445 0
M  V30 1959 H 178.866 -1.77458 2.39899 0
M  V30 1960 C 177.615 -3.20535 1.3473 0
M  V30 1961 H 176.938 -3.33559 2.20405 0
M  V30 1962 H 178.378 -4.00023 1.40562 0
M  V30 1963 C 176.837 -3.36846 0.0603281 0
M  V30 1964 O 177.367 -3.91656 -0.892663 0
M  V30 1965 N 175.573 -2.90595 -0.0177039 0
M  V30 1966 H 175.12 -2.46178 0.758572 0
M  V30 1967 H 175.078 -3.01886 -0.878201 0
M  V30 1968 N 178.85 -1.27639 -0.924453 0
M  V30 1969 C 179.813 -1.10681 -2.00705 0
M  V30 1970 C 180.813 -0.0497823 -1.60723 0
M  V30 1971 O 182.003 -0.294654 -1.7169 0
M  V30 1972 C 179.135 -0.687164 -3.33902 0
M  V30 1973 H 180.328 -2.06817 -2.17179 0
M  V30 1974 H 177.881 -1.10473 -1.10569 0
M  V30 1975 H 178.616 0.275439 -3.23128 0
M  V30 1976 H 178.401 -1.45061 -3.6428 0
M  V30 1977 H 179.891 -0.590853 -4.13399 0
M  V30 1978 N 180.328 1.1314 -1.09713 0
M  V30 1979 C 181.553 1.88862 -0.857081 0
M  V30 1980 C 181.978 1.78729 0.586304 0
M  V30 1981 O 181.336 1.13692 1.41222 0
M  V30 1982 C 181.384 3.36325 -1.30069 0
M  V30 1983 O 180.488 4.09815 -0.461007 0
M  V30 1984 H 179.829 0.587108 -0.310162 0
M  V30 1985 H 182.359 1.43129 -1.46203 0
M  V30 1986 H 182.369 3.87157 -1.28738 0
M  V30 1987 H 181.044 3.43017 -2.35185 0
M  V30 1988 H 179.621 3.68986 -0.538888 0
M  V30 1989 N 181.806 0.884767 1.30421 0
M  V30 1990 C 182.736 0.367574 2.30589 0
M  V30 1991 C 183.717 -0.549464 1.60981 0
M  V30 1992 O 184.902 -0.46336 1.88591 0
M  V30 1993 C 182.032 -0.418944 3.44764 0
M  V30 1994 C 180.986 0.406316 4.26067 0
M  V30 1995 C 180.312 -0.506793 5.32293 0
M  V30 1996 C 181.612 1.64832 4.95608 0
M  V30 1997 H 183.306 1.20462 2.74097 0
M  V30 1998 H 180.852 0.580695 1.31772 0
M  V30 1999 H 182.805 -0.791395 4.13902 0
M  V30 2000 H 181.529 -1.28964 3.0006 0
M  V30 2001 H 180.188 0.760903 3.58617 0
M  V30 2002 H 179.836 -1.37519 4.83836 0
M  V30 2003 H 179.536 0.0415828 5.87585 0
M  V30 2004 H 181.06 -0.875764 6.04287 0
M  V30 2005 H 182.474 1.34646 5.57264 0
M  V30 2006 H 180.871 2.13688 5.60765 0
M  V30 2007 H 181.941 2.39284 4.21748 0
M  V30 2008 N 183.284 -1.43765 0.645699 0
M  V30 2009 C 184.509 -2.06767 0.161883 0
M  V30 2010 C 184.934 -1.48034 -1.16049 0
M  V30 2011 O 184.292 -0.587369 -1.71522 0
M  V30 2012 C 184.34 -3.60519 0.0762003 0
M  V30 2013 O 183.444 -4.00982 -0.963721 0
M  V30 2014 H 182.785 -0.657675 0.091429 0
M  V30 2015 H 185.315 -1.84397 0.886499 0
M  V30 2016 H 185.325 -4.07853 -0.109604 0
M  V30 2017 H 184 -4.02646 1.04157 0
M  V30 2018 H 182.577 -3.65253 -0.751312 0
M  V30 2019 N 184.763 -0.387143 -1.52771 0
M  V30 2020 C 186.011 0.195349 -2.01154 0
M  V30 2021 C 186.332 1.475 -1.27549 0
M  V30 2022 O 185.602 1.91878 -0.394924 0
M  V30 2023 H 184.182 0.075178 -0.743207 0
M  V30 2024 H 186.844 -0.518337 -1.87881 0
M  V30 2025 H 185.94 0.407096 -3.09434 0
M  V30 2026 N 186.241 1.57166 -0.116904 0
M  V30 2027 C 187.487 1.95412 0.542405 0
M  V30 2028 C 187.82 1.00019 1.66463 0
M  V30 2029 O 187.095 0.0370346 1.94465 0
M  V30 2030 C 187.378 3.43615 1.07708 0
M  V30 2031 C 187.231 4.49781 -0.0415868 0
M  V30 2032 C 188.55 3.93616 1.96861 0
M  V30 2033 H 185.669 0.710543 0.195696 0
M  V30 2034 H 188.311 1.89027 -0.192038 0
M  V30 2035 H 186.461 3.49187 1.70296 0
M  V30 2036 H 188.133 4.56308 -0.676793 0
M  V30 2037 H 186.376 4.28033 -0.705019 0
M  V30 2038 H 187.047 5.50733 0.373717 0
M  V30 2039 H 189.523 3.90335 1.44146 0
M  V30 2040 H 188.399 4.97838 2.3119 0
M  V30 2041 H 188.66 3.34188 2.89432 0
M  V30 2042 N 187.719 -0.156864 1.56817 0
M  V30 2043 C 188.649 -1.19589 2.00551 0
M  V30 2044 C 189.63 -1.4536 0.883426 0
M  V30 2045 O 190.815 -1.56449 1.15054 0
M  V30 2046 C 187.945 -2.53143 2.37773 0
M  V30 2047 C 186.899 -2.41913 3.53075 0
M  V30 2048 C 186.225 -3.80088 3.76081 0
M  V30 2049 C 187.525 -1.91157 4.86062 0
M  V30 2050 H 189.219 -0.832293 2.87599 0
M  V30 2051 H 186.765 -0.398918 1.38364 0
M  V30 2052 H 188.718 -3.26047 2.66967 0
M  V30 2053 H 187.442 -2.91319 1.4765 0
M  V30 2054 H 186.101 -1.71462 3.24031 0
M  V30 2055 H 185.749 -4.15683 2.83225 0
M  V30 2056 H 185.449 -3.73439 4.53671 0
M  V30 2057 H 186.973 -4.54556 4.0769 0
M  V30 2058 H 188.387 -2.53846 5.14038 0
M  V30 2059 H 186.784 -1.95422 5.67389 0
M  V30 2060 H 187.854 -0.866673 4.77092 0
M  V30 2061 N 189.197 -1.51736 -0.425897 0
M  V30 2062 C 190.107 -1.76738 -1.54275 0
M  V30 2063 C 191.123 -0.65211 -1.61318 0
M  V30 2064 O 192.299 -0.935654 -1.78346 0
M  V30 2065 C 189.364 -1.89755 -2.90162 0
M  V30 2066 C 188.425 -3.13633 -2.93143 0
M  V30 2067 C 187.658 -3.2602 -4.22548 0
M  V30 2068 O 187.881 -2.44067 -5.15546 0
M  V30 2069 O 186.815 -4.19071 -4.32046 0
M  V30 2070 H 190.641 -2.71502 -1.36089 0
M  V30 2071 H 188.226 -1.36376 -0.610069 0
M  V30 2072 H 190.108 -2.00236 -3.70788 0
M  V30 2073 H 188.783 -0.981785 -3.08452 0
M  V30 2074 H 187.69 -3.08622 -2.11431 0
M  V30 2075 H 189.023 -4.04936 -2.798 0
M  V30 2076 N 190.675 0.682077 -1.42076 0
M  V30 2077 C 191.903 1.47057 -1.4554 0
M  V30 2078 C 192.318 1.8869 -0.0645779 0
M  V30 2079 O 191.675 1.57666 0.919115 0
M  V30 2080 C 191.726 2.72442 -2.37609 0
M  V30 2081 O 191.447 2.32559 -3.71279 0
M  V30 2082 C 192.948 3.66069 -2.50017 0
M  V30 2083 H 190.168 0.452737 -0.495248 0
M  V30 2084 H 192.712 0.838695 -1.8651 0
M  V30 2085 H 190.867 3.31835 -1.9991 0
M  V30 2086 H 191.281 3.13475 -4.20516 0
M  V30 2087 H 192.755 4.50792 -3.18576 0
M  V30 2088 H 193.232 4.11476 -1.53572 0
M  V30 2089 H 193.838 3.12572 -2.88407 0
M  V30 2090 N 192.153 1.28127 0.917671 0
M  V30 2091 C 193.402 1.14432 1.66097 0
M  V30 2092 C 193.715 -0.307247 1.93172 0
M  V30 2093 O 194.921 -0.565259 2.65551 0
M  V30 2094 C 193.377 2.00015 2.99202 0
M  V30 2095 C 192.985 3.49889 2.79789 0
M  V30 2096 C 194.729 1.94996 3.77064 0
M  V30 2097 C 192.636 4.27636 4.08511 0
M  V30 2098 H 191.566 0.424662 0.62304 0
M  V30 2099 H 194.217 1.52628 1.01868 0
M  V30 2100 H 192.599 1.54672 3.64544 0
M  V30 2101 H 193.773 4.03162 2.23152 0
M  V30 2102 H 192.088 3.56392 2.15345 0
M  V30 2103 H 194.685 2.50354 4.72469 0
M  V30 2104 H 195.028 0.925819 4.05875 0
M  V30 2105 H 195.561 2.38287 3.18534 0
M  V30 2106 H 192.3 5.30615 3.84874 0
M  V30 2107 H 191.82 3.79137 4.64774 0
M  V30 2108 H 193.499 4.37346 4.76799 0
M  V30 2109 N 193.631 -1.12557 1.10312 0
M  V30 2110 C 194.859 -1.87864 0.866873 0
M  V30 2111 C 195.274 -1.79588 -0.582557 0
M  V30 2112 O 194.631 -1.16887 -1.40156 0
M  V30 2113 C 194.682 -3.37125 1.30496 0
M  V30 2114 O 194.403 -3.45201 2.69755 0
M  V30 2115 C 195.904 -4.29373 1.10243 0
M  V30 2116 H 193.124 -0.594452 0.311236 0
M  V30 2117 H 195.668 -1.42429 1.46745 0
M  V30 2118 H 193.823 -3.80109 0.748081 0
M  V30 2119 H 194.237 -4.38056 2.88457 0
M  V30 2120 H 195.711 -5.32394 1.45811 0
M  V30 2121 H 196.188 -4.39181 0.0409492 0
M  V30 2122 H 196.794 -3.92169 1.64571 0
M  V30 2123 N 195.109 -0.891671 -1.2995 0
M  V30 2124 C 196.041 -0.320695 -2.26945 0
M  V30 2125 C 197.054 0.528497 -1.53983 0
M  V30 2126 O 198.243 0.346959 -1.75096 0
M  V30 2127 C 195.343 0.562066 -3.34207 0
M  V30 2128 C 194.516 -0.259576 -4.36629 0
M  V30 2129 C 193.575 0.554739 -5.23268 0
M  V30 2130 O 192.601 -0.0249311 -5.69195 0
M  V30 2131 N 193.803 1.8625 -5.4981 0
M  V30 2132 H 196.568 -1.15432 -2.76578 0
M  V30 2133 H 194.129 -0.755336 -1.432 0
M  V30 2134 H 196.121 1.11304 -3.89093 0
M  V30 2135 H 194.691 1.29637 -2.84452 0
M  V30 2136 H 193.911 -0.991986 -3.81514 0
M  V30 2137 H 195.199 -0.822564 -5.02107 0
M  V30 2138 H 194.597 2.35628 -5.14292 0
M  V30 2139 H 193.154 2.36078 -6.07545 0
M  V30 2140 N 196.587 1.43421 -0.653314 0
M  V30 2141 C 197.834 2.01812 -0.166745 0
M  V30 2142 C 198.162 1.51535 1.21931 0
M  V30 2143 O 197.417 0.698975 1.82792 0
M  V30 2144 C 197.716 3.57176 -0.126623 0
M  V30 2145 C 197.382 4.26798 -1.45444 0
M  V30 2146 C 196.044 4.45534 -1.81805 0
M  V30 2147 C 198.396 4.66225 -2.32989 0
M  V30 2148 C 195.724 5.00961 -3.05377 0
M  V30 2149 C 198.076 5.23021 -3.55853 0
M  V30 2150 C 196.74 5.39973 -3.9241 0
M  V30 2151 H 196.01 0.738484 -0.0610162 0
M  V30 2152 H 198.657 1.71896 -0.84404 0
M  V30 2153 H 196.962 3.86634 0.634123 0
M  V30 2154 H 198.659 4.00112 0.266723 0
M  V30 2155 H 195.249 4.12561 -1.16153 0
M  V30 2156 H 199.433 4.51443 -2.06187 0
M  V30 2157 H 194.689 5.12271 -3.3375 0
M  V30 2158 H 198.863 5.52518 -4.23907 0
M  V30 2159 H 196.49 5.82687 -4.88242 0
M  V30 2160 N 198.065 0.39524 1.52563 0
M  V30 2161 C 198.995 -0.428384 2.29537 0
M  V30 2162 C 199.976 -1.05831 1.33169 0
M  V30 2163 O 201.161 -1.06995 1.62067 0
M  V30 2164 C 198.291 -1.55274 3.10656 0
M  V30 2165 C 197.245 -1.04855 4.14957 0
M  V30 2166 C 196.571 -2.26543 4.84337 0
M  V30 2167 C 197.871 -0.112324 5.22179 0
M  V30 2168 H 199.565 0.213867 2.98635 0
M  V30 2169 H 197.111 0.104298 1.43622 0
M  V30 2170 H 199.064 -2.1358 3.63265 0
M  V30 2171 H 197.788 -2.22266 2.39302 0
M  V30 2172 H 196.447 -0.487985 3.63338 0
M  V30 2173 H 196.095 -2.92059 4.09525 0
M  V30 2174 H 195.795 -1.93466 5.54837 0
M  V30 2175 H 197.319 -2.85481 5.39753 0
M  V30 2176 H 198.733 -0.603752 5.70112 0
M  V30 2177 H 197.13 0.128968 5.99961 0
M  V30 2178 H 198.2 0.837052 4.77621 0
M  V30 2179 N 199.544 -1.57102 0.125237 0
M  V30 2180 C 200.491 -2.15641 -0.822655 0
M  V30 2181 C 201.461 -1.08313 -1.25927 0
M  V30 2182 O 202.646 -1.36251 -1.33567 0
M  V30 2183 C 199.786 -2.76504 -2.06494 0
M  V30 2184 C 198.899 -3.98158 -1.67612 0
M  V30 2185 C 198.034 -4.47088 -2.86854 0
M  V30 2186 C 197.073 -5.6126 -2.44242 0
M  V30 2187 N 196.21 -6.04905 -3.56419 0
M  V30 2188 H 201.05 -2.96313 -0.316625 0
M  V30 2189 H 198.587 -1.46388 -0.144588 0
M  V30 2190 H 200.545 -3.09925 -2.79289 0
M  V30 2191 H 199.175 -1.98512 -2.54545 0
M  V30 2192 H 198.227 -3.70858 -0.846661 0
M  V30 2193 H 199.539 -4.80934 -1.32301 0
M  V30 2194 H 198.693 -4.82451 -3.67867 0
M  V30 2195 H 197.432 -3.63275 -3.25396 0
M  V30 2196 H 196.437 -5.25495 -1.61663 0
M  V30 2197 H 197.662 -6.46843 -2.0681 0
M  V30 2198 H 195.608 -5.24032 -3.94623 0
M  V30 2199 H 195.525 -6.82552 -3.25051 0
M  V30 2200 H 196.793 -6.44907 -4.37853 0
M  V30 2201 N 201.022 0.148545 -1.56898 0
M  V30 2202 C 201.969 1.18345 -1.98149 0
M  V30 2203 C 202.939 1.42772 -0.848848 0
M  V30 2204 O 204.124 1.55132 -1.11079 0
M  V30 2205 C 201.264 2.51231 -2.36594 0
M  V30 2206 C 200.377 2.33991 -3.63142 0
M  V30 2207 C 199.512 3.59902 -3.90697 0
M  V30 2208 C 198.551 3.37692 -5.1052 0
M  V30 2209 N 197.688 4.5573 -5.34092 0
M  V30 2210 H 202.528 0.82467 -2.86362 0
M  V30 2211 H 200.065 0.395756 -1.41676 0
M  V30 2212 H 202.023 3.28713 -2.56912 0
M  V30 2213 H 200.653 2.85059 -1.51463 0
M  V30 2214 H 199.705 1.47572 -3.50609 0
M  V30 2215 H 201.017 2.13539 -4.5078 0
M  V30 2216 H 200.171 4.45813 -4.11505 0
M  V30 2217 H 198.91 3.83357 -3.01477 0
M  V30 2218 H 197.915 2.5017 -4.89587 0
M  V30 2219 H 199.14 3.15637 -6.0129 0
M  V30 2220 H 197.086 4.79361 -4.47827 0
M  V30 2221 H 197.003 4.38274 -6.15996 0
M  V30 2222 H 198.271 5.42858 -5.59397 0
M  V30 2223 N 202.5 1.5196 0.417844 0
M  V30 2224 C 203.448 1.75278 1.52907 0
M  V30 2225 C 204.442 0.619611 1.57662 0
M  V30 2226 O 205.648 0.801457 1.61173 0
M  V30 2227 H 202.023 0.554141 0.508362 0
M  V30 2228 H 203.994 2.68389 1.30422 0
M  V30 2229 C 202.743 1.91262 2.90369 0
M  V30 2230 H 202.066 2.77872 2.8745 0
M  V30 2231 H 203.506 2.11581 3.67436 0
M  V30 2232 C 201.965 0.677431 3.30019 0
M  V30 2233 O 202.495 -0.158799 4.01386 0
M  V30 2234 N 200.701 0.515851 2.85985 0
M  V30 2235 H 200.248 1.19744 2.28077 0
M  V30 2236 H 200.206 -0.309315 3.12875 0
M  V30 2237 N 203.978 -0.674533 1.42435 0
M  V30 2238 C 205.389 -1.25514 1.38214 0
M  V30 2239 C 205.74 -1.96055 0.0755464 0
M  V30 2240 O 204.865 -2.00028 -0.8257 0
M  V30 2241 C 205.46 -2.28269 2.50357 0
M  V30 2242 C 204.019 -2.81856 2.49467 0
M  V30 2243 C 203.166 -1.56182 2.29134 0
M  V30 2244 H 206.117 -0.467902 1.51646 0
M  V30 2245 H 206.138 -3.10009 2.20624 0
M  V30 2246 H 205.65 -1.769 3.45439 0
M  V30 2247 H 203.751 -3.37346 1.58204 0
M  V30 2248 H 203.864 -3.30854 3.46515 0
M  V30 2249 H 202.228 -1.82761 1.774 0
M  V30 2250 H 203.011 -1.06778 3.26272 0
M  V30 2251 N 205.456 -1.28612 -0.910864 0
M  V30 2252 C 206.403 -1.12786 -2.01365 0
M  V30 2253 C 207.373 -0.024201 -1.66082 0
M  V30 2254 O 208.558 -0.189667 -1.89855 0
M  V30 2255 C 205.698 -0.798743 -3.35729 0
M  V30 2256 C 204.811 -1.98173 -3.83864 0
M  V30 2257 C 203.946 -1.59298 -5.06752 0
M  V30 2258 C 202.985 -2.74245 -5.47226 0
M  V30 2259 N 202.122 -2.35842 -6.61304 0
M  V30 2260 H 206.962 -2.07142 -2.14234 0
M  V30 2261 H 204.499 -1.03093 -1.0493 0
M  V30 2262 H 206.457 -0.588662 -4.13026 0
M  V30 2263 H 205.087 0.10789 -3.2262 0
M  V30 2264 H 204.139 -2.30386 -3.02699 0
M  V30 2265 H 205.451 -2.84343 -4.09818 0
M  V30 2266 H 204.605 -1.34513 -5.916 0
M  V30 2267 H 203.344 -0.702618 -4.82612 0
M  V30 2268 H 202.349 -2.99725 -4.60918 0
M  V30 2269 H 203.574 -3.63928 -5.73353 0
M  V30 2270 H 201.52 -1.49279 -6.38789 0
M  V30 2271 H 201.437 -3.15546 -6.86998 0
M  V30 2272 H 202.705 -2.14348 -7.4945 0
M  V30 2273 N 206.934 1.1197 -1.10907 0
M  V30 2274 C 207.844 2.21433 -0.774896 0
M  V30 2275 C 208.86 1.72478 0.229657 0
M  V30 2276 O 210.036 2.01288 0.0672008 0
M  V30 2277 C 207.101 3.4602 -0.216986 0
M  V30 2278 C 206.162 4.09791 -1.27944 0
M  V30 2279 C 205.395 5.28431 -0.748055 0
M  V30 2280 O 205.618 5.68823 0.423833 0
M  V30 2281 O 204.552 5.82644 -1.51027 0
M  V30 2282 H 208.378 2.5242 -1.68873 0
M  V30 2283 H 205.963 1.20399 -0.884555 0
M  V30 2284 H 207.845 4.21304 0.090059 0
M  V30 2285 H 206.52 3.16698 0.669633 0
M  V30 2286 H 205.427 3.36265 -1.63941 0
M  V30 2287 H 206.76 4.4328 -2.13925 0
M  V30 2288 N 208.412 0.89855 1.29475 0
M  V30 2289 C 209.64 0.539261 1.99749 0
M  V30 2290 C 210.055 -0.875716 1.67262 0
M  V30 2291 O 209.412 -1.57786 0.917049 0
M  V30 2292 C 209.463 0.72061 3.54245 0
M  V30 2293 O 209.184 2.07989 3.8558 0
M  V30 2294 C 210.685 0.366118 4.41786 0
M  V30 2295 H 207.905 0.207047 0.638258 0
M  V30 2296 H 210.449 1.20758 1.65039 0
M  V30 2297 H 208.604 0.0994862 3.87272 0
M  V30 2298 H 209.018 2.10841 4.80257 0
M  V30 2299 H 210.492 0.543848 5.49314 0
M  V30 2300 H 210.969 -0.696763 4.33638 0
M  V30 2301 H 211.575 0.964135 4.14228 0
M  V30 2302 N 209.89 -1.43072 0.660911 0
M  V30 2303 C 211.139 -2.00942 0.174735 0
M  V30 2304 C 211.452 -1.52797 -1.22117 0
M  V30 2305 O 212.658 -2.02991 -1.80297 0
M  V30 2306 C 211.114 -3.58948 0.261559 0
M  V30 2307 C 210.722 -4.16085 1.66064 0
M  V30 2308 C 212.466 -4.24173 -0.166617 0
M  V30 2309 C 210.373 -5.6641 1.70098 0
M  V30 2310 H 209.303 -0.751483 0.0615631 0
M  V30 2311 H 211.954 -1.63955 0.824069 0
M  V30 2312 H 210.336 -3.93372 -0.455421 0
M  V30 2313 H 211.51 -3.93147 2.40359 0
M  V30 2314 H 209.825 -3.6326 2.03546 0
M  V30 2315 H 212.422 -5.34471 -0.156433 0
M  V30 2316 H 212.765 -3.98647 -1.19943 0
M  V30 2317 H 213.298 -3.94659 0.498875 0
M  V30 2318 H 210.037 -5.96715 2.71315 0
M  V30 2319 H 209.557 -5.91382 1.00139 0
M  V30 2320 H 211.236 -6.30585 1.44816 0
M  V30 2321 N 211.368 -0.403325 -1.52352 0
M  V30 2322 C 212.617 0.175668 -2.00934 0
M  V30 2323 C 212.93 1.46718 -1.29356 0
M  V30 2324 O 214.136 2.12708 -1.68724 0
M  V30 2325 C 212.592 0.363612 -3.58058 0
M  V30 2326 C 212.2 -0.915472 -4.38547 0
M  V30 2327 C 213.944 0.89821 -4.14888 0
M  V30 2328 C 211.851 -0.695035 -5.87302 0
M  V30 2329 H 210.781 0.0694234 -0.750797 0
M  V30 2330 H 213.432 -0.527879 -1.75743 0
M  V30 2331 H 211.814 1.12935 -3.79555 0
M  V30 2332 H 212.988 -1.68691 -4.28812 0
M  V30 2333 H 211.303 -1.37606 -3.93006 0
M  V30 2334 H 213.9 1.07907 -5.23699 0
M  V30 2335 H 214.243 1.87126 -3.71873 0
M  V30 2336 H 214.776 0.191681 -3.97338 0
M  V30 2337 H 211.515 -1.63948 -6.34666 0
M  V30 2338 H 211.035 0.0372116 -5.99788 0
M  V30 2339 H 212.714 -0.33497 -6.46132 0
M  V30 2340 N 212.846 1.57033 -0.133567 0
M  V30 2341 C 213.779 2.11824 0.848872 0
M  V30 2342 C 214.757 1.03833 1.2513 0
M  V30 2343 O 215.941 1.31579 1.34978 0
M  V30 2344 C 213.068 2.62692 2.138 0
M  V30 2345 C 212.114 3.82705 1.88253 0
M  V30 2346 S 212.947 5.2438 1.08563 0
M  V30 2347 C 214.103 5.78627 2.38624 0
M  V30 2348 H 214.336 2.94824 0.38289 0
M  V30 2349 H 211.869 1.5419 0.0804796 0
M  V30 2350 H 213.827 2.92652 2.87863 0
M  V30 2351 H 212.488 1.79847 2.57515 0
M  V30 2352 H 211.681 4.16496 2.83809 0
M  V30 2353 H 211.283 3.53437 1.22305 0
M  V30 2354 H 213.575 5.8924 3.34369 0
M  V30 2355 H 214.518 6.76443 2.09358 0
M  V30 2356 H 214.926 5.06783 2.48658 0
M  V30 2357 N 214.325 -0.140222 1.56975 0
M  V30 2358 C 215.741 -0.493088 1.51792 0
M  V30 2359 C 215.941 -1.83013 0.843116 0
M  V30 2360 O 214.997 -2.49041 0.416493 0
M  V30 2361 C 216.31 -0.497144 2.96562 0
M  V30 2362 C 217.858 -0.582186 3.07538 0
M  V30 2363 C 218.333 -0.616838 4.53827 0
M  V30 2364 N 219.824 -0.678873 4.58198 0
M  V30 2365 C 220.559 -0.726782 5.68775 0
M  V30 2366 N 220.055 -0.733623 6.88905 0
M  V30 2367 N 221.848 -0.768179 5.56826 0
M  V30 2368 H 213.999 0.736108 1.99237 0
M  V30 2369 H 216.262 0.269182 0.90898 0
M  V30 2370 H 215.968 0.417217 3.49217 0
M  V30 2371 H 215.842 -1.33263 3.52875 0
M  V30 2372 H 218.229 -1.48697 2.54899 0
M  V30 2373 H 218.31 0.280581 2.54257 0
M  V30 2374 H 217.954 0.283812 5.07106 0
M  V30 2375 H 217.884 -1.49619 5.04898 0
M  V30 2376 H 220.375 -0.68061 3.7172 0
M  V30 2377 H 220.688 -0.772215 7.68932 0
M  V30 2378 H 219.033 -0.701389 6.91452 0
M  V30 2379 H 222.224 -0.760051 4.61888 0
M  V30 2380 H 222.397 -0.80205 6.43017 0
M  V30 2381 N 215.803 -1.52179 -0.40978 0
M  V30 2382 C 216.733 -1.78435 -1.5061 0
M  V30 2383 C 217.714 -0.635295 -1.57791 0
M  V30 2384 O 218.899 -0.880823 -1.73076 0
M  V30 2385 C 216.029 -1.93444 -2.88439 0
M  V30 2386 C 214.983 -3.09038 -2.96108 0
M  V30 2387 C 214.309 -3.09268 -4.36185 0
M  V30 2388 C 215.609 -4.48508 -2.67652 0
M  V30 2389 H 217.303 -2.70237 -1.28889 0
M  V30 2390 H 214.849 -1.30036 -0.618605 0
M  V30 2391 H 216.802 -2.10394 -3.65119 0
M  V30 2392 H 215.526 -0.983129 -3.11452 0
M  V30 2393 H 214.185 -2.91837 -2.21872 0
M  V30 2394 H 213.833 -2.11861 -4.56206 0
M  V30 2395 H 213.533 -3.86907 -4.42241 0
M  V30 2396 H 215.057 -3.28348 -5.14801 0
M  V30 2397 H 216.471 -4.65918 -3.34056 0
M  V30 2398 H 214.868 -5.28059 -2.85085 0
M  V30 2399 H 215.938 -4.56649 -1.63095 0
M  V30 2400 N 217.281 0.66697 -1.42791 0
M  V30 2401 C 218.228 1.7803 -1.4688 0
M  V30 2402 C 219.198 1.6299 -0.319919 0
M  V30 2403 O 220.383 1.83432 -0.525118 0
M  V30 2404 C 217.523 3.1611 -1.38451 0
M  V30 2405 C 216.636 3.42381 -2.63437 0
M  V30 2406 C 215.771 4.70232 -2.47094 0
M  V30 2407 C 214.81 4.89564 -3.67415 0
M  V30 2408 N 213.947 6.08661 -3.49966 0
M  V30 2409 H 218.787 1.7387 -2.42019 0
M  V30 2410 H 216.324 0.84868 -1.20149 0
M  V30 2411 H 218.282 3.95914 -1.31561 0
M  V30 2412 H 216.912 3.19374 -0.469033 0
M  V30 2413 H 215.964 2.56774 -2.80662 0
M  V30 2414 H 217.276 3.52557 -3.52853 0
M  V30 2415 H 216.43 5.5814 -2.37834 0
M  V30 2416 H 215.169 4.62353 -1.5518 0
M  V30 2417 H 214.174 4.00096 -3.77099 0
M  V30 2418 H 215.399 4.99282 -4.6032 0
M  V30 2419 H 213.345 6.0194 -2.60776 0
M  V30 2420 H 213.262 6.19733 -4.32975 0
M  V30 2421 H 214.53 6.99226 -3.44532 0
M  V30 2422 N 218.759 1.29093 0.90403 0
M  V30 2423 C 220.036 1.075 1.63411 0
M  V30 2424 C 220.416 -0.382346 2.07609 0
M  V30 2425 O 219.764 -1.37031 1.82851 0
M  V30 2426 C 219.974 2.05858 2.81822 0
M  V30 2427 C 221.322 2.36539 3.52611 0
M  V30 2428 O 222.346 2.04019 2.91984 0
M  V30 2429 O 221.205 2.92085 4.61897 0
M  V30 2430 H 218.299 0.411547 0.717327 0
M  V30 2431 H 220.845 1.40449 0.952479 0
M  V30 2432 H 219.617 3.04037 2.46327 0
M  V30 2433 H 219.24 1.73613 3.57693 0
M  V30 2434 N 220.237 -1.11381 1.11499 0
M  V30 2435 C 221.147 -2.21019 0.786628 0
M  V30 2436 C 222.163 -1.72597 -0.220507 0
M  V30 2437 O 223.339 -2.01321 -0.0565251 0
M  V30 2438 C 220.404 -3.459 0.235333 0
M  V30 2439 C 219.465 -4.09107 1.30115 0
M  V30 2440 C 218.698 -5.28027 0.776068 0
M  V30 2441 O 218.921 -5.6904 -0.393661 0
M  V30 2442 O 217.855 -5.81835 1.54114 0
M  V30 2443 H 221.681 -2.51521 1.70209 0
M  V30 2444 H 219.266 -1.19928 0.890928 0
M  V30 2445 H 221.148 -4.21346 -0.067715 0
M  V30 2446 H 219.823 -3.17049 -0.652828 0
M  V30 2447 H 218.73 -3.35391 1.65722 0
M  V30 2448 H 220.063 -4.42139 2.16273 0
M  V30 2449 N 221.715 -0.905404 -1.28997 0
M  V30 2450 C 222.647 -0.344748 -2.26592 0
M  V30 2451 C 223.66 0.512135 -1.54535 0
M  V30 2452 O 224.849 0.328368 -1.75454 0
M  V30 2453 C 221.949 0.526587 -3.34784 0
M  V30 2454 C 221.122 -0.305871 -4.36329 0
M  V30 2455 C 220.181 0.499209 -5.23827 0
M  V30 2456 O 219.207 -0.0853004 -5.69136 0
M  V30 2457 N 220.409 1.80408 -5.51755 0
M  V30 2458 H 223.174 -1.18359 -2.75338 0
M  V30 2459 H 220.735 -0.770481 -1.42391 0
M  V30 2460 H 222.727 1.07171 -3.90252 0
M  V30 2461 H 221.297 1.26613 -2.85811 0
M  V30 2462 H 220.517 -1.0324 -3.80441 0
M  V30 2463 H 221.805 -0.875773 -5.01206 0
M  V30 2464 H 221.203 2.3016 -5.16762 0
M  V30 2465 H 219.76 2.29621 -6.10014 0
M  V30 2466 N 223.193 1.4272 -0.668489 0
M  V30 2467 C 224.141 2.32586 0.0254857 0
M  V30 2468 C 225.135 1.49471 0.797176 0
M  V30 2469 O 226.341 1.65583 0.705853 0
M  V30 2470 H 222.716 0.751514 0.0270339 0
M  V30 2471 H 224.687 2.88823 -0.749936 0
M  V30 2472 C 223.436 3.3397 0.967427 0
M  V30 2473 H 222.759 3.97961 0.383048 0
M  V30 2474 H 224.199 3.9945 1.42181 0
M  V30 2475 C 222.658 2.65744 2.0708 0
M  V30 2476 O 223.188 2.48454 3.15648 0
M  V30 2477 N 221.394 2.2487 1.8407 0
M  V30 2478 H 220.941 2.39132 0.95778 0
M  V30 2479 H 220.899 1.79552 2.58086 0
M  V30 2480 N 224.671 0.411399 1.52136 0
M  V30 2481 C 225.896 -0.165538 2.06738 0
M  V30 2482 C 226.321 -1.379 1.27926 0
M  V30 2483 O 225.679 -1.78628 0.310114 0
M  V30 2484 C 225.727 -0.492124 3.57226 0
M  V30 2485 O 224.831 -1.58276 3.80818 0
M  V30 2486 H 224.172 -0.0132132 0.663869 0
M  V30 2487 H 226.702 0.585253 1.96051 0
M  V30 2488 H 226.712 -0.750104 4.01045 0
M  V30 2489 H 225.387 0.394922 4.14021 0
M  V30 2490 H 223.964 -1.31677 3.48877 0
M  V30 2491 N 226.149 -1.5696 0.141893 0
M  V30 2492 C 227.097 -2.17784 -0.816874 0
M  V30 2493 C 228.091 -1.1334 -1.25899 0
M  V30 2494 O 229.297 -1.316 -1.22806 0
M  V30 2495 H 225.672 -0.697278 -0.281615 0
M  V30 2496 H 227.643 -2.97087 -0.279621 0
M  V30 2497 C 226.392 -2.80983 -2.04802 0
M  V30 2498 H 225.715 -3.61062 -1.7168 0
M  V30 2499 H 227.155 -3.2705 -2.69841 0
M  V30 2500 C 225.614 -1.79228 -2.8527 0
M  V30 2501 O 226.144 -1.25962 -3.8144 0
M  V30 2502 N 224.35 -1.48647 -2.49704 0
M  V30 2503 H 223.897 -1.92155 -1.71564 0
M  V30 2504 H 223.855 -0.808115 -3.03837 0
M  V30 2505 N 227.627 0.131896 -1.57047 0
M  V30 2506 C 228.904 0.871495 -1.75112 0
M  V30 2507 C 229.284 1.9866 -0.713949 0
M  V30 2508 O 228.632 2.26965 0.264447 0
M  V30 2509 C 228.842 1.40007 -3.19686 0
M  V30 2510 C 230.19 1.85752 -3.81813 0
M  V30 2511 O 231.214 1.49715 -3.23209 0
M  V30 2512 O 230.073 2.5226 -4.84796 0
M  V30 2513 H 227.167 0.412919 -0.716538 0
M  V30 2514 H 229.713 0.116641 -1.69299 0
M  V30 2515 H 228.485 0.599404 -3.86682 0
M  V30 2516 H 228.108 2.218 -3.29986 0
M  V30 2517 N 229.106 1.52395 0.401703 0
M  V30 2518 C 230.331 1.70972 1.17403 0
M  V30 2519 C 230.756 0.421615 1.83314 0
M  V30 2520 O 230.114 -0.621564 1.70312 0
M  V30 2521 C 230.162 2.85151 2.20728 0
M  V30 2522 O 229.266 2.51238 3.27037 0
M  V30 2523 H 228.607 0.568927 0.342372 0
M  V30 2524 H 231.137 1.99131 0.469891 0
M  V30 2525 H 231.147 3.10279 2.64936 0
M  V30 2526 H 229.822 3.78603 1.7214 0
M  V30 2527 H 228.399 2.36808 2.88057 0
M  V30 2528 N 230.584 -0.659388 1.43143 0
M  V30 2529 C 231.831 -1.41935 1.44433 0
M  V30 2530 C 232.159 -1.94387 0.0663522 0
M  V30 2531 O 231.414 -1.72314 -0.927706 0
M  V30 2532 C 231.713 -2.62206 2.42864 0
M  V30 2533 C 231.379 -2.28208 3.88886 0
M  V30 2534 C 230.041 -2.18647 4.28657 0
M  V30 2535 C 232.393 -2.00887 4.8093 0
M  V30 2536 C 229.721 -1.79914 5.58433 0
M  V30 2537 C 232.073 -1.63653 6.11065 0
M  V30 2538 C 230.737 -1.52614 6.49819 0
M  V30 2539 H 230.007 -0.519376 0.528517 0
M  V30 2540 H 232.654 -0.750453 1.76183 0
M  V30 2541 H 230.959 -3.34199 2.04495 0
M  V30 2542 H 232.656 -3.2041 2.41119 0
M  V30 2543 H 229.246 -2.36557 3.57406 0
M  V30 2544 H 233.43 -2.07198 4.5098 0
M  V30 2545 H 228.686 -1.69948 5.87305 0
M  V30 2546 H 232.86 -1.41543 6.81864 0
M  V30 2547 H 230.487 -1.22371 7.50286 0
M  V30 2548 N 232.062 -1.29571 -0.897171 0
M  V30 2549 C 233.339 -1.08365 -1.62839 0
M  V30 2550 C 233.719 0.371331 -2.07808 0
M  V30 2551 O 233.067 1.3606 -1.83576 0
M  V30 2552 C 233.277 -2.0735 -2.80726 0
M  V30 2553 C 234.625 -2.38406 -3.51351 0
M  V30 2554 O 235.649 -2.05564 -2.90898 0
M  V30 2555 O 234.508 -2.9453 -4.60341 0
M  V30 2556 H 231.602 -0.415345 -0.715134 0
M  V30 2557 H 234.148 -1.40952 -0.945018 0
M  V30 2558 H 232.92 -3.05339 -2.44711 0
M  V30 2559 H 232.543 -1.75507 -3.56767 0
M  V30 2560 N 233.54 1.10788 -1.12088 0
M  V30 2561 C 234.77 1.86191 -0.895351 0
M  V30 2562 C 235.178 1.80763 0.558702 0
M  V30 2563 O 234.521 1.19188 1.39785 0
M  V30 2564 C 234.583 3.35659 -1.28737 0
M  V30 2565 C 234.247 3.64849 -2.75198 0
M  V30 2566 C 235.244 3.61757 -3.734 0
M  V30 2567 C 232.929 3.93641 -3.12013 0
M  V30 2568 C 234.923 3.87045 -5.06434 0
M  V30 2569 C 232.61 4.18585 -4.4523 0
M  V30 2570 C 233.608 4.15277 -5.42249 0
M  V30 2571 O 233.296 4.3959 -6.73065 0
M  V30 2572 H 233.028 0.595425 -0.32007 0
M  V30 2573 H 235.582 1.40992 -1.49367 0
M  V30 2574 H 233.812 3.81497 -0.63224 0
M  V30 2575 H 235.501 3.92441 -1.03656 0
M  V30 2576 H 236.267 3.39557 -3.46303 0
M  V30 2577 H 232.146 3.95348 -2.37109 0
M  V30 2578 H 235.69 3.84378 -5.82151 0
M  V30 2579 H 231.587 4.40264 -4.72057 0
M  V30 2580 H 232.355 4.57123 -6.78956 0
M  V30 2581 N 235.018 0.912232 1.28515 0
M  V30 2582 C 236.434 0.610159 1.47476 0
M  V30 2583 C 236.634 -0.844955 1.82928 0
M  V30 2584 O 235.69 -1.62416 1.93332 0
M  V30 2585 C 237.003 1.54675 2.57868 0
M  V30 2586 C 238.551 1.55331 2.71738 0
M  V30 2587 C 239.026 2.47649 3.85272 0
M  V30 2588 N 240.517 2.45767 3.92623 0
M  V30 2589 C 241.252 3.13896 4.79851 0
M  V30 2590 N 240.748 3.9135 5.71679 0
M  V30 2591 N 242.541 3.02991 4.73448 0
M  V30 2592 H 234.692 1.85318 1.03783 0
M  V30 2593 H 236.955 0.794777 0.516753 0
M  V30 2594 H 236.661 2.5841 2.38574 0
M  V30 2595 H 236.535 1.27671 3.54937 0
M  V30 2596 H 238.922 0.52335 2.90422 0
M  V30 2597 H 239.003 1.86378 1.75205 0
M  V30 2598 H 238.647 3.50745 3.67342 0
M  V30 2599 H 238.577 2.13904 4.81199 0
M  V30 2600 H 241.068 1.89503 3.26951 0
M  V30 2601 H 241.381 4.40359 6.35062 0
M  V30 2602 H 239.726 3.95455 5.71524 0
M  V30 2603 H 242.917 2.41987 4.007 0
M  V30 2604 H 243.09 3.5636 5.41213 0
M  V30 2605 N 236.496 -1.42363 0.676048 0
M  V30 2606 C 237.745 -2.00745 0.196037 0
M  V30 2607 C 238.058 -1.54083 -1.20489 0
M  V30 2608 O 239.264 -2.04891 -1.78134 0
M  V30 2609 C 237.72 -3.58651 0.299616 0
M  V30 2610 C 237.328 -4.143 1.70468 0
M  V30 2611 C 239.072 -4.24326 -0.121619 0
M  V30 2612 C 236.979 -5.64574 1.76096 0
M  V30 2613 H 235.909 -0.750787 0.0695301 0
M  V30 2614 H 238.56 -1.63072 0.841412 0
M  V30 2615 H 236.942 -3.93833 -0.413673 0
M  V30 2616 H 238.116 -3.90575 2.44515 0
M  V30 2617 H 236.431 -3.61081 2.07387 0
M  V30 2618 H 239.028 -5.34607 -0.0997362 0
M  V30 2619 H 239.371 -3.99897 -1.15708 0
M  V30 2620 H 239.904 -3.94108 0.540706 0
M  V30 2621 H 236.643 -5.93804 2.77628 0
M  V30 2622 H 236.163 -5.90286 1.06406 0
M  V30 2623 H 237.842 -6.29013 1.51496 0
M  V30 2624 N 237.974 -0.419461 -1.51915 0
M  V30 2625 C 238.906 0.43646 -2.25006 0
M  V30 2626 C 239.919 1.00149 -1.28351 0
M  V30 2627 O 241.108 0.898674 -1.54227 0
M  V30 2628 C 238.208 1.6206 -2.9764 0
M  V30 2629 C 237.381 1.17763 -4.21249 0
M  V30 2630 C 236.44 2.22985 -4.76617 0
M  V30 2631 O 235.466 1.83151 -5.38929 0
M  V30 2632 N 236.668 3.55271 -4.59089 0
M  V30 2633 H 239.433 -0.18989 -2.99098 0
M  V30 2634 H 236.994 -0.247386 -1.59999 0
M  V30 2635 H 238.986 2.32038 -3.31573 0
M  V30 2636 H 237.556 2.15266 -2.2667 0
M  V30 2637 H 236.776 0.305582 -3.93014 0
M  V30 2638 H 238.064 0.858781 -5.015 0
M  V30 2639 H 237.462 3.90377 -4.09417 0
M  V30 2640 H 236.019 4.21195 -4.97432 0
M  V30 2641 N 239.452 1.56882 -0.150215 0
M  V30 2642 C 240.863 1.82995 0.370076 0
M  V30 2643 C 241.214 1.06907 1.64515 0
M  V30 2644 O 240.339 0.315369 2.1409 0
M  V30 2645 C 240.934 3.31942 0.678208 0
M  V30 2646 C 239.493 3.58625 1.14301 0
M  V30 2647 C 238.64 2.76792 0.167778 0
M  V30 2648 H 241.591 1.54209 -0.374858 0
M  V30 2649 H 241.612 3.48272 1.53254 0
M  V30 2650 H 241.124 3.87294 -0.249991 0
M  V30 2651 H 239.225 3.08664 2.08704 0
M  V30 2652 H 239.338 4.67073 1.06676 0
M  V30 2653 H 237.702 2.45972 0.661037 0
M  V30 2654 H 238.485 3.34916 -0.754069 0
M  V30 2655 N 240.93 -0.123565 1.57115 0
M  V30 2656 C 241.86 -1.15309 2.03042 0
M  V30 2657 C 242.841 -1.43454 0.914061 0
M  V30 2658 O 244.026 -1.53973 1.18347 0
M  V30 2659 C 241.156 -2.48043 2.43089 0
M  V30 2660 C 240.11 -2.3437 3.58127 0
M  V30 2661 C 239.436 -3.72026 3.84059 0
M  V30 2662 C 240.736 -1.80804 4.90007 0
M  V30 2663 H 242.43 -0.771102 2.893 0
M  V30 2664 H 239.976 -0.369479 1.39179 0
M  V30 2665 H 241.929 -3.20311 2.73823 0
M  V30 2666 H 240.653 -2.88122 1.53796 0
M  V30 2667 H 239.312 -1.64551 3.27595 0
M  V30 2668 H 238.96 -4.09582 2.91979 0
M  V30 2669 H 238.66 -3.63732 4.6149 0
M  V30 2670 H 240.184 -4.45806 4.1724 0
M  V30 2671 H 241.598 -2.42886 5.19307 0
M  V30 2672 H 239.995 -1.83343 5.71407 0
M  V30 2673 H 241.065 -0.76528 4.78823 0
M  V30 2674 N 242.408 -1.52605 -0.393616 0
M  V30 2675 C 243.657 -1.66649 -1.13627 0
M  V30 2676 C 243.97 -0.410364 -1.91247 0
M  V30 2677 O 245.176 -0.430854 -2.68059 0
M  V30 2678 C 243.632 -2.9449 -2.06891 0
M  V30 2679 C 243.24 -4.27266 -1.34714 0
M  V30 2680 C 244.984 -3.17899 -2.81319 0
M  V30 2681 C 242.891 -5.46217 -2.26717 0
M  V30 2682 H 241.821 -0.62084 -0.427871 0
M  V30 2683 H 244.472 -1.791 -0.399428 0
M  V30 2684 H 242.854 -2.75774 -2.84191 0
M  V30 2685 H 244.028 -4.56518 -0.626714 0
M  V30 2686 H 242.343 -4.10081 -0.722643 0
M  V30 2687 H 244.94 -4.03949 -3.50328 0
M  V30 2688 H 245.283 -2.32777 -3.45139 0
M  V30 2689 H 245.816 -3.37159 -2.11113 0
M  V30 2690 H 242.555 -6.33733 -1.67521 0
M  V30 2691 H 242.075 -5.21283 -2.96689 0
M  V30 2692 H 243.754 -5.7991 -2.86903 0
M  V30 2693 N 243.887 0.651787 -1.4349 0
M  V30 2694 C 244.835 1.78586 -1.49029 0
M  V30 2695 C 245.829 1.65448 -0.363767 0
M  V30 2696 O 247.035 1.71777 -0.537821 0
M  V30 2697 H 243.41 0.589236 -0.467231 0
M  V30 2698 H 245.381 1.71035 -2.44519 0
M  V30 2699 C 244.13 3.16851 -1.43181 0
M  V30 2700 H 243.453 3.27598 -2.29171 0
M  V30 2701 H 244.893 3.96156 -1.51118 0
M  V30 2702 C 243.352 3.36568 -0.149616 0
M  V30 2703 O 243.882 3.93885 0.788509 0
M  V30 2704 N 242.088 2.90539 -0.0593484 0
M  V30 2705 H 241.635 2.4408 -0.823575 0
M  V30 2706 H 241.593 3.04108 0.797853 0
M  V30 2707 N 245.365 1.30045 0.890287 0
M  V30 2708 C 246.614 1.17929 1.63633 0
M  V30 2709 C 246.927 -0.266204 1.9378 0
M  V30 2710 O 248.133 -0.508804 2.6669 0
M  V30 2711 C 246.589 2.06317 2.94892 0
M  V30 2712 C 246.197 3.55745 2.72305 0
M  V30 2713 C 247.941 2.0295 3.72843 0
M  V30 2714 C 245.848 4.36205 3.99348 0
M  V30 2715 H 244.778 0.437782 0.613892 0
M  V30 2716 H 247.429 1.54754 0.986075 0
M  V30 2717 H 245.811 1.6237 3.61182 0
M  V30 2718 H 246.985 4.07805 2.1455 0
M  V30 2719 H 245.3 3.6088 2.07737 0
M  V30 2720 H 247.897 2.60319 4.67053 0
M  V30 2721 H 248.24 1.0117 4.0382 0
M  V30 2722 H 248.773 2.4499 3.13408 0
M  V30 2723 H 245.512 5.38659 3.73533 0
M  V30 2724 H 245.032 3.8891 4.56628 0
M  V30 2725 H 246.711 4.47362 4.67415 0
M  V30 2726 N 246.843 -1.10192 1.12674 0
M  V30 2727 C 248.073 -1.85713 0.905213 0
M  V30 2728 C 248.481 -1.81056 -0.549108 0
M  V30 2729 O 247.824 -1.19927 -1.39151 0
M  V30 2730 C 247.886 -3.34972 1.30516 0
M  V30 2731 C 247.55 -3.63385 2.77129 0
M  V30 2732 C 248.547 -3.59772 3.75313 0
M  V30 2733 C 246.232 -3.91981 3.14096 0
M  V30 2734 C 248.226 -3.84354 5.08479 0
M  V30 2735 C 245.913 -4.16218 4.47443 0
M  V30 2736 C 246.911 -4.12395 5.44444 0
M  V30 2737 O 246.599 -4.36014 6.75387 0
M  V30 2738 H 246.331 -0.593719 0.323223 0
M  V30 2739 H 248.885 -1.40198 1.50112 0
M  V30 2740 H 247.115 -3.81156 0.652463 0
M  V30 2741 H 248.804 -3.91886 1.05736 0
M  V30 2742 H 249.57 -3.37716 3.48099 0
M  V30 2743 H 245.449 -3.94085 2.39202 0
M  V30 2744 H 248.993 -3.81285 5.84181 0
M  V30 2745 H 244.89 -4.37754 4.74386 0
M  V30 2746 H 245.658 -4.53516 6.8137 0
M  V30 2747 N 248.321 -0.919034 -1.28029 0
M  V30 2748 C 249.268 -0.410005 -2.27129 0
M  V30 2749 C 250.238 0.518405 -1.57803 0
M  V30 2750 O 251.423 0.439451 -1.8567 0
M  V30 2751 C 248.563 0.339054 -3.4343 0
M  V30 2752 C 247.676 -0.622468 -4.27492 0
M  V30 2753 C 246.811 0.145567 -5.31001 0
M  V30 2754 C 245.85 -0.809226 -6.06727 0
M  V30 2755 N 244.987 -0.0743728 -7.02061 0
M  V30 2756 H 249.827 -1.26011 -2.70047 0
M  V30 2757 H 247.364 -0.632663 -1.328 0
M  V30 2758 H 249.322 0.789586 -4.0966 0
M  V30 2759 H 247.952 1.15346 -3.01488 0
M  V30 2760 H 247.004 -1.19153 -3.61257 0
M  V30 2761 H 248.316 -1.35252 -4.80113 0
M  V30 2762 H 247.47 0.656417 -6.03139 0
M  V30 2763 H 246.209 0.908643 -4.79161 0
M  V30 2764 H 245.214 -1.3314 -5.33436 0
M  V30 2765 H 246.439 -1.57194 -6.60656 0
M  V30 2766 H 244.385 0.670616 -6.52563 0
M  V30 2767 H 244.302 -0.744157 -7.52329 0
M  V30 2768 H 245.57 0.416109 -7.78389 0
M  V30 2769 N 249.799 1.42003 -0.683588 0
M  V30 2770 C 251.076 1.95112 -0.138075 0
M  V30 2771 C 251.456 1.62359 1.34918 0
M  V30 2772 O 250.804 0.924311 2.08971 0
M  V30 2773 C 251.014 3.46505 -0.416581 0
M  V30 2774 C 252.362 4.23254 -0.337834 0
M  V30 2775 O 253.386 3.54468 -0.35082 0
M  V30 2776 O 252.245 5.45743 -0.287596 0
M  V30 2777 H 249.339 0.826961 -0.00797996 0
M  V30 2778 H 251.885 1.51784 -0.758924 0
M  V30 2779 H 250.657 3.63582 -1.4465 0
M  V30 2780 H 250.28 3.969 0.235839 0
M  V30 2781 N 251.277 0.427512 1.51691 0
M  V30 2782 C 252.507 -0.140986 2.06118 0
M  V30 2783 C 252.915 -1.37854 1.29588 0
M  V30 2784 O 252.258 -1.80411 0.346036 0
M  V30 2785 C 252.32 -0.538276 3.55447 0
M  V30 2786 C 251.984 0.591095 4.53161 0
M  V30 2787 C 252.981 1.46027 4.98971 0
M  V30 2788 C 250.666 0.769028 4.96378 0
M  V30 2789 C 252.66 2.49216 5.8666 0
M  V30 2790 C 250.347 1.80421 5.83859 0
M  V30 2791 C 251.345 2.66417 6.28897 0
M  V30 2792 O 251.033 3.68159 7.14643 0
M  V30 2793 H 250.765 -0.0157455 0.675817 0
M  V30 2794 H 253.319 0.602495 1.96365 0
M  V30 2795 H 251.549 -1.33432 3.6295 0
M  V30 2796 H 253.238 -1.0368 3.92435 0
M  V30 2797 H 254.004 1.33429 4.66285 0
M  V30 2798 H 249.883 0.109273 4.6087 0
M  V30 2799 H 253.427 3.16372 6.21735 0
M  V30 2800 H 249.324 1.93042 6.15959 0
M  V30 2801 H 250.092 3.64622 7.32798 0
M  V30 2802 N 252.755 -1.56801 0.158532 0
M  V30 2803 C 254.002 -1.9649 -0.489679 0
M  V30 2804 C 254.33 -1.04394 -1.6411 0
M  V30 2805 O 253.585 -0.0754401 -1.95555 0
M  V30 2806 C 253.884 -3.4235 -1.02623 0
M  V30 2807 C 253.55 -4.50899 0.00794526 0
M  V30 2808 C 252.212 -4.80312 0.292207 0
M  V30 2809 C 254.564 -5.16333 0.710584 0
M  V30 2810 C 251.892 -5.72461 1.28472 0
M  V30 2811 C 254.244 -6.09553 1.69199 0
M  V30 2812 C 252.908 -6.37339 1.98383 0
M  V30 2813 H 252.178 -0.719009 -0.179186 0
M  V30 2814 H 254.825 -1.8989 0.247798 0
M  V30 2815 H 253.13 -3.45838 -1.84128 0
M  V30 2816 H 254.827 -3.70393 -1.53656 0
M  V30 2817 H 251.417 -4.28015 -0.22379 0
M  V30 2818 H 255.601 -4.93732 0.504174 0
M  V30 2819 H 250.857 -5.92278 1.51714 0
M  V30 2820 H 255.031 -6.59327 2.24189 0
M  V30 2821 H 252.658 -7.08546 2.7544 0
M  V30 2822 N 254.233 0.115231 -1.57178 0
M  V30 2823 C 255.463 0.835224 -1.88964 0
M  V30 2824 C 255.871 1.73774 -0.74829 0
M  V30 2825 O 255.214 1.81401 0.289739 0
M  V30 2826 C 255.276 1.7178 -3.15804 0
M  V30 2827 C 254.94 0.989198 -4.46166 0
M  V30 2828 C 255.937 0.328263 -5.18863 0
M  V30 2829 C 253.622 0.969256 -4.9286 0
M  V30 2830 C 255.616 -0.342873 -6.36477 0
M  V30 2831 C 253.303 0.294324 -6.10391 0
M  V30 2832 C 254.301 -0.360582 -6.82048 0
M  V30 2833 O 253.989 -1.02474 -7.97342 0
M  V30 2834 H 253.721 0.245197 -0.629964 0
M  V30 2835 H 256.275 0.10303 -2.05141 0
M  V30 2836 H 254.505 2.49173 -2.95719 0
M  V30 2837 H 256.194 2.31255 -3.33581 0
M  V30 2838 H 256.96 0.335263 -4.8384 0
M  V30 2839 H 252.839 1.46844 -4.36987 0
M  V30 2840 H 256.383 -0.854629 -6.92345 0
M  V30 2841 H 252.28 0.285099 -6.4487 0
M  V30 2842 H 253.048 -0.929594 -8.13204 0
M  V30 2843 N 255.711 1.52812 0.385517 0
M  V30 2844 C 256.939 1.71907 1.15133 0
M  V30 2845 C 257.354 0.439004 1.83625 0
M  V30 2846 O 256.711 -0.586765 1.7281 0
M  V30 2847 C 256.762 2.87099 2.19673 0
M  V30 2848 O 256.483 4.10151 1.53973 0
M  V30 2849 C 257.984 3.17902 3.08955 0
M  V30 2850 H 255.204 0.575479 0.345057 0
M  V30 2851 H 257.748 1.99476 0.45052 0
M  V30 2852 H 255.903 2.61982 2.85384 0
M  V30 2853 H 256.317 4.74514 2.23465 0
M  V30 2854 H 257.791 4.01959 3.7833 0
M  V30 2855 H 258.268 2.3243 3.72657 0
M  V30 2856 H 258.874 3.44871 2.48885 0
M  V30 2857 N 257.189 -0.644168 1.43834 0
M  V30 2858 C 258.417 -1.43147 1.49387 0
M  V30 2859 C 258.832 -1.88452 0.114583 0
M  V30 2860 O 258.189 -1.60047 -0.876989 0
M  V30 2861 C 258.24 -2.66046 2.44748 0
M  V30 2862 O 257.961 -2.22633 3.77314 0
M  V30 2863 C 259.462 -3.59311 2.59635 0
M  V30 2864 H 256.682 -0.439447 0.507077 0
M  V30 2865 H 259.226 -0.78895 1.88669 0
M  V30 2866 H 257.381 -3.26418 2.08638 0
M  V30 2867 H 257.795 -3.02216 4.28679 0
M  V30 2868 H 259.269 -4.42187 3.30416 0
M  V30 2869 H 259.746 -4.07259 1.64427 0
M  V30 2870 H 260.352 -3.04816 2.96593 0
M  V30 2871 N 258.668 -1.30515 -0.883378 0
M  V30 2872 C 260.079 -1.17509 -1.45081 0
M  V30 2873 C 260.43 0.223605 -1.94922 0
M  V30 2874 O 259.555 1.12041 -1.85137 0
M  V30 2875 C 260.15 -2.12715 -2.63701 0
M  V30 2876 C 258.709 -2.03682 -3.16529 0
M  V30 2877 C 257.856 -2.02706 -1.89224 0
M  V30 2878 H 260.807 -1.42762 -0.693165 0
M  V30 2879 H 260.828 -1.70891 -3.39965 0
M  V30 2880 H 260.34 -3.14505 -2.27395 0
M  V30 2881 H 258.441 -1.05039 -3.57488 0
M  V30 2882 H 258.554 -2.92146 -3.7972 0
M  V30 2883 H 256.918 -1.4753 -2.07622 0
M  V30 2884 H 257.701 -3.06229 -1.55174 0
M  V30 2885 N 260.146 1.09593 -1.13257 0
M  V30 2886 C 261.562 1.33775 -0.870423 0
M  V30 2887 C 261.762 1.95327 0.494926 0
M  V30 2888 O 260.818 2.19853 1.2418 0
M  V30 2889 C 262.131 2.25106 -1.99369 0
M  V30 2890 C 263.679 2.3862 -2.02558 0
M  V30 2891 C 264.154 3.33285 -3.14142 0
M  V30 2892 N 265.645 3.40857 -3.13641 0
M  V30 2893 C 266.38 4.14101 -3.96621 0
M  V30 2894 N 265.876 4.90157 -4.8961 0
M  V30 2895 N 267.669 4.09808 -3.84726 0
M  V30 2896 H 259.82 0.680136 -2.01216 0
M  V30 2897 H 262.083 0.362133 -0.876107 0
M  V30 2898 H 261.789 1.87103 -2.97801 0
M  V30 2899 H 261.663 3.25481 -1.90635 0
M  V30 2900 H 264.05 2.75887 -1.0474 0
M  V30 2901 H 264.131 1.38028 -2.15364 0
M  V30 2902 H 263.775 2.96741 -4.12198 0
M  V30 2903 H 263.705 4.33776 -2.98574 0
M  V30 2904 H 266.196 2.86624 -2.46282 0
M  V30 2905 H 266.509 5.4347 -5.49418 0
M  V30 2906 H 264.854 4.89251 -4.93617 0
M  V30 2907 H 268.045 3.4949 -3.11408 0
M  V30 2908 H 268.218 4.66629 -4.49623 0
M  V30 2909 N 261.624 0.925811 1.2754 0
M  V30 2910 C 262.852 0.581509 1.9856 0
M  V30 2911 C 263.267 -0.840041 1.69082 0
M  V30 2912 O 262.624 -1.55805 0.950312 0
M  V30 2913 C 262.675 0.795589 3.52637 0
M  V30 2914 O 262.396 2.16121 3.81082 0
M  V30 2915 C 263.897 0.459744 4.4091 0
M  V30 2916 H 261.117 0.220538 0.633722 0
M  V30 2917 H 263.661 1.24232 1.6244 0
M  V30 2918 H 261.816 0.18161 3.86974 0
M  V30 2919 H 262.23 2.2098 4.75676 0
M  V30 2920 H 263.704 0.660244 5.48037 0
M  V30 2921 H 264.181 -0.604625 4.35018 0
M  V30 2922 H 264.787 1.05178 4.12089 0
M  V30 2923 N 263.102 -1.41638 0.69111 0
M  V30 2924 C 264.379 -1.95036 0.148421 0
M  V30 2925 C 264.759 -1.63072 -1.34055 0
M  V30 2926 O 264.107 -0.93538 -2.08478 0
M  V30 2927 C 264.317 -3.46279 0.434951 0
M  V30 2928 C 265.665 -4.23069 0.360275 0
M  V30 2929 O 266.689 -3.54277 0.369613 0
M  V30 2930 O 265.548 -5.45583 0.316534 0
M  V30 2931 H 262.642 -0.826908 0.0123654 0
M  V30 2932 H 265.188 -1.5138 0.766963 0
M  V30 2933 H 263.96 -3.6281 1.46576 0
M  V30 2934 H 263.583 -3.97019 -0.214787 0
M  V30 2935 N 264.58 -0.43555 -1.51462 0
M  V30 2936 C 265.808 0.130242 -2.0649 0
M  V30 2937 C 266.223 1.36614 -1.30315 0
M  V30 2938 O 265.58 1.78869 -0.362223 0
M  V30 2939 C 265.631 0.454253 -3.58635 0
M  V30 2940 O 265.352 -0.73259 -4.31931 0
M  V30 2941 C 266.853 1.07091 -4.3017 0
M  V30 2942 H 264.073 0.00871669 -0.670943 0
M  V30 2943 H 266.617 -0.614117 -1.95061 0
M  V30 2944 H 264.772 1.14851 -3.69984 0
M  V30 2945 H 265.186 -0.455787 -5.22516 0
M  V30 2946 H 266.66 1.24764 -5.37716 0
M  V30 2947 H 267.137 2.05144 -3.88346 0
M  V30 2948 H 267.743 0.416089 -4.2326 0
M  V30 2949 N 266.058 1.56714 -0.166846 0
M  V30 2950 C 267.283 2.01557 0.488833 0
M  V30 2951 C 267.708 1.0463 1.56314 0
M  V30 2952 O 267.066 0.0251304 1.81283 0
M  V30 2953 C 267.114 3.4503 1.04818 0
M  V30 2954 O 266.218 3.51163 2.16236 0
M  V30 2955 H 265.559 0.653516 0.117526 0
M  V30 2956 H 268.089 2.02818 -0.269421 0
M  V30 2957 H 268.099 3.84243 1.37191 0
M  V30 2958 H 266.774 4.15077 0.261572 0
M  V30 2959 H 265.351 3.23807 1.84942 0
M  V30 2960 N 267.536 -0.106894 1.57237 0
M  V30 2961 C 268.484 -1.14944 2.02215 0
M  V30 2962 C 269.478 -1.42167 0.92114 0
M  V30 2963 O 270.684 -1.41987 1.10634 0
M  V30 2964 H 267.059 -0.387841 0.64427 0
M  V30 2965 H 269.03 -0.743683 2.88984 0
M  V30 2966 C 267.779 -2.4647 2.4525 0
M  V30 2967 H 267.102 -2.26363 3.29545 0
M  V30 2968 H 268.542 -3.17948 2.80508 0
M  V30 2969 C 267.001 -3.09921 1.321 0
M  V30 2970 O 267.531 -3.9651 0.643622 0
M  V30 2971 N 265.737 -2.69986 1.07497 0
M  V30 2972 H 265.284 -1.99667 1.62761 0
M  V30 2973 H 265.242 -3.12769 0.319876 0
M  V30 2974 N 269.014 -1.53014 -0.377408 0
M  V30 2975 C 269.961 -1.78616 -1.46168 0
M  V30 2976 C 270.931 -0.629917 -1.53692 0
M  V30 2977 O 272.116 -0.870861 -1.69766 0
M  V30 2978 C 269.256 -1.97123 -2.8326 0
M  V30 2979 C 268.369 -3.24831 -2.84796 0
M  V30 2980 C 267.504 -3.33591 -4.13389 0
M  V30 2981 C 266.543 -4.55377 -4.09021 0
M  V30 2982 N 265.68 -4.61355 -5.29241 0
M  V30 2983 H 270.52 -2.71142 -1.23637 0
M  V30 2984 H 268.057 -1.34326 -0.599577 0
M  V30 2985 H 270.015 -2.05839 -3.62886 0
M  V30 2986 H 268.645 -1.07946 -3.04216 0
M  V30 2987 H 267.697 -3.25128 -1.97474 0
M  V30 2988 H 269.009 -4.14523 -2.77439 0
M  V30 2989 H 268.163 -3.41554 -5.01424 0
M  V30 2990 H 266.902 -2.41894 -4.23484 0
M  V30 2991 H 265.907 -4.47527 -3.19373 0
M  V30 2992 H 267.132 -5.48402 -4.00539 0
M  V30 2993 H 265.078 -3.72554 -5.39944 0
M  V30 2994 H 264.995 -5.44935 -5.24006 0
M  V30 2995 H 266.263 -4.73586 -6.19141 0
M  V30 2996 N 270.492 0.636531 -1.44174 0
M  V30 2997 C 271.741 1.39213 -1.45954 0
M  V30 2998 C 272.054 1.95374 -0.0939119 0
M  V30 2999 O 273.26 2.71498 0.0107767 0
M  V30 3000 C 271.716 2.52025 -2.56927 0
M  V30 3001 C 271.324 2.024 -3.99673 0
M  V30 3002 C 273.068 3.29269 -2.67922 0
M  V30 3003 C 270.975 3.12521 -5.0208 0
M  V30 3004 H 269.905 0.523132 -0.542999 0
M  V30 3005 H 272.556 0.685349 -1.70221 0
M  V30 3006 H 270.938 3.25253 -2.25891 0
M  V30 3007 H 272.112 1.36073 -4.40251 0
M  V30 3008 H 270.427 1.37987 -3.92872 0
M  V30 3009 H 273.024 4.11352 -3.41605 0
M  V30 3010 H 273.367 3.78397 -1.73555 0
M  V30 3011 H 273.9 2.63129 -2.98342 0
M  V30 3012 H 270.639 2.68343 -5.98057 0
M  V30 3013 H 270.159 3.77507 -4.66099 0
M  V30 3014 H 271.838 3.77385 -5.25538 0
M  V30 3015 N 271.97 1.30982 0.876444 0
M  V30 3016 C 273.381 1.18277 1.44456 0
M  V30 3017 C 273.732 -0.213265 1.95037 0
M  V30 3018 O 272.857 -1.11057 1.85729 0
M  V30 3019 C 273.452 2.1411 2.62569 0
M  V30 3020 C 272.011 2.05358 3.15444 0
M  V30 3021 C 271.158 2.03706 1.88146 0
M  V30 3022 H 274.109 1.43127 0.685584 0
M  V30 3023 H 274.13 1.72692 3.39054 0
M  V30 3024 H 273.642 3.15706 2.25724 0
M  V30 3025 H 271.743 1.06934 3.56926 0
M  V30 3026 H 271.856 2.94156 3.78166 0
M  V30 3027 H 270.22 1.48629 2.06837 0
M  V30 3028 H 271.003 3.07047 1.53547 0
M  V30 3029 N 273.449 -1.08991 1.13837 0
M  V30 3030 C 274.677 -1.85011 0.926202 0
M  V30 3031 C 275.092 -1.8135 -0.525127 0
M  V30 3032 O 274.449 -1.21287 -1.36366 0
M  V30 3033 C 274.5 -3.32802 1.41155 0
M  V30 3034 O 274.221 -3.36444 2.80601 0
M  V30 3035 C 275.722 -4.25649 1.23847 0
M  V30 3036 H 272.942 -0.584249 0.32999 0
M  V30 3037 H 275.486 -1.37688 1.51202 0
M  V30 3038 H 273.641 -3.77536 0.868631 0
M  V30 3039 H 274.055 -4.28657 3.02248 0
M  V30 3040 H 275.529 -5.27485 1.62675 0
M  V30 3041 H 276.006 -4.38828 0.18065 0
M  V30 3042 H 276.612 -3.86735 1.76964 0
M  V30 3043 N 274.927 -0.932562 -1.27047 0
M  V30 3044 C 275.857 -0.452902 -2.29066 0
M  V30 3045 C 276.838 0.489338 -1.62909 0
M  V30 3046 O 278.023 0.393046 -1.90181 0
M  V30 3047 C 275.153 0.290698 -3.46081 0
M  V30 3048 C 274.107 -0.564168 -4.24265 0
M  V30 3049 C 273.433 0.308886 -5.33807 0
M  V30 3050 C 274.733 -1.83112 -4.89149 0
M  V30 3051 H 276.427 -1.30552 -2.69437 0
M  V30 3052 H 273.973 -0.629201 -1.29526 0
M  V30 3053 H 275.926 0.637233 -4.16554 0
M  V30 3054 H 274.65 1.17738 -3.0464 0
M  V30 3055 H 273.309 -0.893477 -3.55545 0
M  V30 3056 H 272.957 1.19467 -4.88607 0
M  V30 3057 H 272.657 -0.259633 -5.87026 0
M  V30 3058 H 274.181 0.650884 -6.07121 0
M  V30 3059 H 275.595 -1.55236 -5.51883 0
M  V30 3060 H 273.992 -2.34353 -5.52448 0
M  V30 3061 H 275.062 -2.54772 -4.12576 0
M  V30 3062 N 276.405 1.4127 -0.698611 0
M  V30 3063 C 277.352 2.30773 -0.0352094 0
M  V30 3064 C 278.322 1.47273 0.768111 0
M  V30 3065 O 279.507 1.76053 0.735524 0
M  V30 3066 C 276.647 3.33346 0.893 0
M  V30 3067 C 275.76 4.31924 0.0809695 0
M  V30 3068 C 274.895 5.21566 1.0071 0
M  V30 3069 C 273.934 6.11811 0.188155 0
M  V30 3070 N 273.071 6.93926 1.06825 0
M  V30 3071 H 277.911 2.86943 -0.804207 0
M  V30 3072 H 275.448 1.4132 -0.408294 0
M  V30 3073 H 277.406 3.91368 1.44523 0
M  V30 3074 H 276.036 2.78719 1.62836 0
M  V30 3075 H 275.088 3.75825 -0.588224 0
M  V30 3076 H 276.4 4.95716 -0.553801 0
M  V30 3077 H 275.554 5.84437 1.62845 0
M  V30 3078 H 274.293 4.58008 1.67572 0
M  V30 3079 H 273.298 5.47986 -0.446254 0
M  V30 3080 H 274.523 6.77425 -0.476716 0
M  V30 3081 H 272.469 6.32973 1.72283 0
M  V30 3082 H 272.386 7.54416 0.489123 0
M  V30 3083 H 273.654 7.61262 1.67632 0
M  V30 3084 N 277.883 0.443576 1.51229 0
M  V30 3085 C 279.16 -0.181038 1.9476 0
M  V30 3086 C 279.54 -1.59523 1.38259 0
M  V30 3087 O 278.888 -2.2122 0.572198 0
M  V30 3088 C 279.098 -0.152422 3.48667 0
M  V30 3089 C 280.446 -0.354923 4.23114 0
M  V30 3090 O 281.47 -0.230257 3.55455 0
M  V30 3091 O 280.329 -0.603674 5.43156 0
M  V30 3092 H 277.423 -0.1266 0.817252 0
M  V30 3093 H 279.969 0.502004 1.62105 0
M  V30 3094 H 278.741 0.836022 3.82265 0
M  V30 3095 H 278.364 -0.878107 3.87782 0
M  V30 3096 N 279.361 -1.56624 0.175154 0
M  V30 3097 C 280.607 -1.9729 -0.469506 0
M  V30 3098 C 280.94 -1.06128 -1.62636 0
M  V30 3099 O 280.215 -0.109183 -1.94193 0
M  V30 3100 C 280.498 -3.47375 -0.948804 0
M  V30 3101 C 280.351 -4.49317 0.208491 0
M  V30 3102 C 281.67 -4.00652 -1.82116 0
M  V30 3103 H 278.789 -0.717317 -0.16919 0
M  V30 3104 H 281.431 -1.88184 0.262062 0
M  V30 3105 H 279.581 -3.55267 -1.57219 0
M  V30 3106 H 281.253 -4.53482 0.845682 0
M  V30 3107 H 279.496 -4.25121 0.863395 0
M  V30 3108 H 280.167 -5.51741 -0.169059 0
M  V30 3109 H 282.643 -3.95416 -1.2956 0
M  V30 3110 H 281.519 -5.06075 -2.12554 0
M  V30 3111 H 281.78 -3.44699 -2.7683 0
M  V30 3112 N 280.839 0.0985539 -1.57292 0
M  V30 3113 C 282.255 0.45267 -1.53046 0
M  V30 3114 C 282.455 1.80713 -0.891342 0
M  V30 3115 O 281.511 2.4785 -0.482375 0
M  V30 3116 C 282.824 0.418341 -2.97776 0
M  V30 3117 C 284.372 0.500443 -3.08973 0
M  V30 3118 C 284.847 0.496297 -4.55303 0
M  V30 3119 N 286.338 0.557151 -4.59837 0
M  V30 3120 C 287.073 0.575726 -5.70502 0
M  V30 3121 N 286.569 0.550714 -6.90608 0
M  V30 3122 N 288.362 0.620277 -5.58667 0
M  V30 3123 H 280.513 -0.788673 -1.97215 0
M  V30 3124 H 282.776 -0.293188 -0.901524 0
M  V30 3125 H 282.482 -0.509659 -3.47988 0
M  V30 3126 H 282.356 1.2386 -3.56284 0
M  V30 3127 H 284.743 1.41886 -2.58751 0
M  V30 3128 H 284.824 -0.347894 -2.53423 0
M  V30 3129 H 284.468 -0.418162 -5.06176 0
M  V30 3130 H 284.398 1.3618 -5.08687 0
M  V30 3131 H 286.889 0.581816 -3.73394 0
M  V30 3132 H 287.202 0.568075 -7.70709 0
M  V30 3133 H 285.547 0.517816 -6.93068 0
M  V30 3134 H 288.738 0.637322 -4.63741 0
M  V30 3135 H 288.911 0.631283 -6.44918 0
M  V30 3136 N 282.317 1.53212 0.369288 0
M  V30 3137 C 283.565 1.68881 1.11012 0
M  V30 3138 C 283.886 0.441285 1.89941 0
M  V30 3139 O 283.156 -0.544623 1.88177 0
M  V30 3140 H 281.736 0.622569 0.412816 0
M  V30 3141 H 284.398 1.90391 0.416802 0
M  V30 3142 H 283.494 2.54822 1.80201 0
M  V30 3143 N 283.795 -0.628877 1.44509 0
M  V30 3144 C 284.742 -1.74074 1.51549 0
M  V30 3145 C 285.712 -1.62084 0.363021 0
M  V30 3146 O 286.897 -1.81975 0.573567 0
M  V30 3147 C 284.037 -3.12328 1.46784 0
M  V30 3148 C 283.15 -3.35277 2.72422 0
M  V30 3149 C 282.285 -4.63515 2.59475 0
M  V30 3150 C 281.324 -4.7965 3.80266 0
M  V30 3151 N 280.461 -5.99168 3.65981 0
M  V30 3152 H 285.301 -1.67392 2.46544 0
M  V30 3153 H 282.838 -0.816527 1.22357 0
M  V30 3154 H 284.796 -3.92286 1.42012 0
M  V30 3155 H 283.426 -3.18018 0.553544 0
M  V30 3156 H 282.478 -2.49242 2.87372 0
M  V30 3157 H 283.79 -3.43078 3.62076 0
M  V30 3158 H 282.944 -5.51638 2.52548 0
M  V30 3159 H 281.683 -4.58076 1.67384 0
M  V30 3160 H 280.688 -3.89957 3.87574 0
M  V30 3161 H 281.913 -4.86902 4.73395 0
M  V30 3162 H 279.859 -5.94814 2.76644 0
M  V30 3163 H 279.776 -6.08035 4.49254 0
M  V30 3164 H 281.044 -6.89846 3.6295 0
M  V30 3165 N 285.273 -1.31445 -0.869486 0
M  V30 3166 C 286.522 -1.20517 -1.61736 0
M  V30 3167 C 286.835 0.235341 -1.94179 0
M  V30 3168 O 288.041 0.466312 -2.67465 0
M  V30 3169 C 286.497 -2.10982 -2.91573 0
M  V30 3170 C 286.105 -3.60032 -2.66611 0
M  V30 3171 C 287.849 -2.08856 -3.69567 0
M  V30 3172 C 285.756 -4.42503 -3.92358 0
M  V30 3173 H 284.686 -0.447493 -0.606849 0
M  V30 3174 H 287.337 -1.56303 -0.96133 0
M  V30 3175 H 285.719 -1.68095 -3.58553 0
M  V30 3176 H 286.893 -4.11167 -2.08035 0
M  V30 3177 H 285.208 -3.64139 -2.0197 0
M  V30 3178 H 287.805 -2.67716 -4.62852 0
M  V30 3179 H 288.148 -1.07582 -4.02159 0
M  V30 3180 H 288.681 -2.49945 -3.09471 0
M  V30 3181 H 285.42 -5.44533 -3.64916 0
M  V30 3182 H 284.94 -3.96125 -4.50383 0
M  V30 3183 H 286.619 -4.54741 -4.60238 0
M  V30 3184 N 286.751 1.08385 -1.14413 0
M  V30 3185 C 287.681 2.17321 -0.854044 0
M  V30 3186 C 288.662 1.69024 0.191049 0
M  V30 3187 O 289.847 1.94141 0.0476779 0
M  V30 3188 C 286.977 3.45719 -0.330983 0
M  V30 3189 C 285.931 4.07409 -1.31155 0
M  V30 3190 C 285.257 5.30762 -0.64778 0
M  V30 3191 C 286.557 4.48665 -2.67388 0
M  V30 3192 H 288.251 2.41845 -1.76498 0
M  V30 3193 H 285.797 1.16233 -0.850051 0
M  V30 3194 H 287.75 4.21241 -0.115645 0
M  V30 3195 H 286.474 3.2075 0.615381 0
M  V30 3196 H 285.133 3.33919 -1.51306 0
M  V30 3197 H 284.781 5.02078 0.304398 0
M  V30 3198 H 284.481 5.72992 -1.30207 0
M  V30 3199 H 286.005 6.08998 -0.441972 0
M  V30 3200 H 287.419 5.15364 -2.51143 0
M  V30 3201 H 285.816 5.01814 -3.29093 0
M  V30 3202 H 286.886 3.60543 -3.24248 0
M  V30 3203 N 288.23 0.939286 1.26551 0
M  V30 3204 C 289.16 0.465044 2.28822 0
M  V30 3205 C 290.141 -0.480692 1.63167 0
M  V30 3206 O 291.326 -0.382955 1.90387 0
M  V30 3207 C 288.456 -0.27234 3.46231 0
M  V30 3208 C 287.41 0.58666 4.2396 0
M  V30 3209 C 286.736 -0.280573 5.33963 0
M  V30 3210 C 288.036 1.85704 4.88171 0
M  V30 3211 H 289.73 1.31979 2.68741 0
M  V30 3212 H 287.276 0.636061 1.29191 0
M  V30 3213 H 289.229 -0.615133 4.16886 0
M  V30 3214 H 287.953 -1.16121 3.0526 0
M  V30 3215 H 286.612 0.91232 3.55067 0
M  V30 3216 H 286.26 -1.16874 4.89234 0
M  V30 3217 H 285.96 0.29076 5.8688 0
M  V30 3218 H 287.484 -0.618678 6.07458 0
M  V30 3219 H 288.898 1.58161 5.51052 0
M  V30 3220 H 287.295 2.37279 5.51197 0
M  V30 3221 H 288.365 2.56957 4.11219 0
M  V30 3222 N 289.708 -1.40897 0.706093 0
M  V30 3223 C 290.638 -2.33418 0.0620085 0
M  V30 3224 C 291.619 -1.52385 -0.755827 0
M  V30 3225 O 292.804 -1.80886 -0.706674 0
M  V30 3226 C 289.934 -3.36293 -0.867445 0
M  V30 3227 C 288.888 -4.27716 -0.155932 0
M  V30 3228 C 288.214 -5.2105 -1.20046 0
M  V30 3229 C 289.514 -5.12944 0.984149 0
M  V30 3230 H 291.208 -2.87527 0.83477 0
M  V30 3231 H 288.754 -1.38249 0.402875 0
M  V30 3232 H 290.707 -3.99949 -1.32735 0
M  V30 3233 H 289.431 -2.80556 -1.67199 0
M  V30 3234 H 288.09 -3.65498 0.284047 0
M  V30 3235 H 287.738 -4.61624 -1.99781 0
M  V30 3236 H 287.438 -5.83056 -0.729328 0
M  V30 3237 H 288.962 -5.87584 -1.66066 0
M  V30 3238 H 290.376 -5.70109 0.604048 0
M  V30 3239 H 288.773 -5.83945 1.38304 0
M  V30 3240 H 289.843 -4.49485 1.81911 0
M  V30 3241 N 291.186 -0.45159 -1.50991 0
M  V30 3242 C 292.411 0.110667 -2.07105 0
M  V30 3243 C 292.836 1.3446 -1.31538 0
M  V30 3244 O 292.194 1.77743 -0.357365 0
M  V30 3245 C 292.242 0.397238 -3.58405 0
M  V30 3246 O 291.346 1.48124 -3.84881 0
M  V30 3247 H 290.687 -0.00439271 -0.663985 0
M  V30 3248 H 293.217 -0.637026 -1.9443 0
M  V30 3249 H 293.227 0.64351 -4.02893 0
M  V30 3250 H 291.902 -0.504553 -4.12828 0
M  V30 3251 H 290.479 1.22381 -3.52246 0
M  V30 3252 N 292.664 1.56529 -0.183458 0
M  V30 3253 C 293.574 2.22144 0.754272 0
M  V30 3254 C 294.59 1.21684 1.24374 0
M  V30 3255 O 295.766 1.54385 1.29333 0
M  V30 3256 C 292.831 2.85884 1.96141 0
M  V30 3257 C 291.892 4.01579 1.51765 0
M  V30 3258 C 291.125 4.6227 2.66725 0
M  V30 3259 O 291.348 4.21865 3.83909 0
M  V30 3260 O 290.282 5.51936 2.40104 0
M  V30 3261 H 294.108 3.02861 0.225527 0
M  V30 3262 H 291.693 1.49331 0.0453032 0
M  V30 3263 H 293.575 3.26253 2.66715 0
M  V30 3264 H 292.25 2.08154 2.47899 0
M  V30 3265 H 291.157 3.65856 0.781049 0
M  V30 3266 H 292.49 4.80938 1.04686 0
M  V30 3267 N 294.142 -0.090211 1.57342 0
M  V30 3268 C 295.09 -1.12792 2.03422 0
M  V30 3269 C 296.084 -1.41182 0.936166 0
M  V30 3270 O 297.29 -1.40805 1.12133 0
M  V30 3271 H 293.665 -0.380986 0.648347 0
M  V30 3272 H 295.636 -0.71299 2.89757 0
M  V30 3273 C 294.385 -2.43855 2.47851 0
M  V30 3274 H 293.708 -2.22855 3.31927 0
M  V30 3275 H 295.148 -3.14955 2.83865 0
M  V30 3276 C 293.607 -3.08503 1.3538 0
M  V30 3277 O 294.137 -3.95805 0.685641 0
M  V30 3278 N 292.343 -2.68831 1.10355 0
M  V30 3279 H 291.89 -1.97929 1.64869 0
M  V30 3280 H 291.848 -3.12412 0.353031 0
M  V30 3281 N 295.62 -1.53406 -0.361157 0
M  V30 3282 C 296.57 -1.76536 -1.44287 0
M  V30 3283 C 297.554 -0.620019 -1.48474 0
M  V30 3284 O 298.746 -0.878834 -1.53641 0
M  V30 3285 C 295.875 -1.96266 -2.81664 0
M  V30 3286 C 294.961 -3.16815 -2.81938 0
M  V30 3287 N 295.352 -4.38637 -2.51855 0
M  V30 3288 C 293.65 -3.17627 -3.13096 0
M  V30 3289 C 294.351 -5.20401 -2.59919 0
M  V30 3290 N 293.327 -4.56712 -2.94814 0
M  V30 3291 H 297.129 -2.68331 -1.19899 0
M  V30 3292 H 294.643 -1.52091 -0.56938 0
M  V30 3293 H 296.64 -2.10966 -3.59582 0
M  V30 3294 H 295.3 -1.05702 -3.07013 0
M  V30 3295 H 296.311 -4.66293 -2.25369 0
M  V30 3296 H 292.988 -2.36971 -3.43731 0
M  V30 3297 H 294.378 -6.27586 -2.39969 0
M  V30 3298 N 297.098 0.621204 -1.44841 0
M  V30 3299 C 298.326 1.40752 -1.51646 0
M  V30 3300 C 298.741 1.88246 -0.144549 0
M  V30 3301 O 298.098 1.61422 0.851416 0
M  V30 3302 C 298.149 2.62119 -2.4895 0
M  V30 3303 O 297.87 2.16602 -3.80808 0
M  V30 3304 C 299.371 3.55135 -2.65319 0
M  V30 3305 H 296.591 0.431325 -0.514004 0
M  V30 3306 H 299.135 0.758835 -1.899 0
M  V30 3307 H 297.29 3.23058 -2.13805 0
M  V30 3308 H 297.704 2.95358 -4.33433 0
M  V30 3309 H 299.178 4.36874 -3.37409 0
M  V30 3310 H 299.655 4.04592 -1.70886 0
M  V30 3311 H 300.261 3.00058 -3.01405 0
M  V30 3312 N 298.576 1.31904 0.862503 0
M  V30 3313 C 299.523 1.20182 1.9704 0
M  V30 3314 C 300.493 0.0858247 1.65878 0
M  V30 3315 O 301.678 0.26 1.8902 0
M  V30 3316 C 298.818 0.922797 3.32533 0
M  V30 3317 C 297.931 2.12284 3.76244 0
M  V30 3318 C 297.066 1.77996 5.00491 0
M  V30 3319 C 296.105 2.94366 5.36671 0
M  V30 3320 N 295.242 2.60223 6.52095 0
M  V30 3321 H 300.082 2.14951 2.06398 0
M  V30 3322 H 297.619 1.06917 1.01031 0
M  V30 3323 H 299.577 0.741548 4.10557 0
M  V30 3324 H 298.207 0.0119227 3.22798 0
M  V30 3325 H 297.259 2.41461 2.9394 0
M  V30 3326 H 298.571 2.99357 3.98982 0
M  V30 3327 H 297.725 1.56377 5.862 0
M  V30 3328 H 296.464 0.881252 4.79672 0
M  V30 3329 H 295.469 3.16625 4.49476 0
M  V30 3330 H 296.694 3.84957 5.59451 0
M  V30 3331 H 294.64 1.72884 6.32809 0
M  V30 3332 H 294.557 3.40827 6.74814 0
M  V30 3333 H 295.825 2.42016 7.40978 0
M  V30 3334 N 300.054 -1.07777 1.14986 0
M  V30 3335 C 301.001 -2.14867 0.842672 0
M  V30 3336 C 301.971 -1.6486 -0.202552 0
M  V30 3337 O 303.156 -1.90668 -0.0710568 0
M  V30 3338 C 300.296 -3.43486 0.333363 0
M  V30 3339 C 299.409 -4.07306 1.43965 0
M  V30 3340 C 298.544 -5.23744 0.886914 0
M  V30 3341 C 297.583 -5.79517 1.97043 0
M  V30 3342 N 296.72 -6.87291 1.4344 0
M  V30 3343 H 301.56 -2.40485 1.75986 0
M  V30 3344 H 299.097 -1.1801 0.878179 0
M  V30 3345 H 301.055 -4.17195 0.0198163 0
M  V30 3346 H 299.685 -3.18133 -0.546916 0
M  V30 3347 H 298.737 -3.31293 1.86946 0
M  V30 3348 H 300.049 -4.44771 2.25788 0
M  V30 3349 H 299.203 -6.04419 0.525651 0
M  V30 3350 H 297.942 -4.87685 0.0377957 0
M  V30 3351 H 296.947 -4.97491 2.34057 0
M  V30 3352 H 298.172 -6.17632 2.82325 0
M  V30 3353 H 296.118 -6.5318 0.607567 0
M  V30 3354 H 296.035 -7.23617 2.18895 0
M  V30 3355 H 297.303 -7.71682 1.10124 0
M  V30 3356 N 301.532 -0.945985 -1.26051 0
M  V30 3357 C 302.943 -0.638096 -1.75457 0
M  V30 3358 C 303.294 0.846672 -1.76991 0
M  V30 3359 O 302.419 1.66262 -1.38513 0
M  V30 3360 C 303.014 -1.15157 -3.18629 0
M  V30 3361 C 301.573 -0.894004 -3.65629 0
M  V30 3362 C 300.72 -1.29967 -2.44957 0
M  V30 3363 H 303.671 -1.12376 -1.1206 0
M  V30 3364 H 303.692 -0.507615 -3.77099 0
M  V30 3365 H 303.204 -2.23222 -3.1748 0
M  V30 3366 H 301.305 0.172057 -3.72203 0
M  V30 3367 H 301.418 -1.52439 -4.54202 0
M  V30 3368 H 299.782 -0.718078 -2.44368 0
M  V30 3369 H 300.565 -2.38935 -2.46505 0
M  V30 3370 N 303.011 1.40521 -0.713556 0
M  V30 3371 C 303.941 2.33381 -0.0743864 0
M  V30 3372 C 304.922 1.52784 0.747735 0
M  V30 3373 O 306.107 1.81258 0.697071 0
M  V30 3374 C 303.237 3.36748 0.849598 0
M  V30 3375 C 302.191 4.27793 0.133247 0
M  V30 3376 C 301.517 5.21679 1.17281 0
M  V30 3377 C 302.817 5.12415 -1.01134 0
M  V30 3378 H 304.511 2.87081 -0.850007 0
M  V30 3379 H 302.057 1.38034 -0.410201 0
M  V30 3380 H 304.01 4.00648 1.30612 0
M  V30 3381 H 302.734 2.81439 1.65709 0
M  V30 3382 H 301.393 3.65342 -0.303426 0
M  V30 3383 H 301.041 4.62677 1.9733 0
M  V30 3384 H 300.741 5.83435 0.698397 0
M  V30 3385 H 302.265 5.88456 1.62947 0
M  V30 3386 H 303.679 5.69781 -0.634274 0
M  V30 3387 H 302.076 5.83203 -1.41399 0
M  V30 3388 H 303.146 4.48514 -1.84292 0
M  V30 3389 N 304.489 0.459591 1.5075 0
M  V30 3390 C 305.735 -0.0994966 2.02556 0
M  V30 3391 C 306.068 -1.40399 1.3417 0
M  V30 3392 O 305.343 -1.88892 0.463683 0
M  V30 3393 C 305.626 -0.295242 3.58888 0
M  V30 3394 C 305.479 1.02947 4.37861 0
M  V30 3395 C 306.798 -1.05502 4.27267 0
M  V30 3396 H 303.917 -0.034686 0.736183 0
M  V30 3397 H 306.559 0.602938 1.8018 0
M  V30 3398 H 304.709 -0.893563 3.78084 0
M  V30 3399 H 306.381 1.66348 4.30263 0
M  V30 3400 H 304.624 1.62885 4.02058 0
M  V30 3401 H 305.295 0.846281 5.45474 0
M  V30 3402 H 307.771 -0.547993 4.12476 0
M  V30 3403 H 306.647 -1.16077 5.36486 0
M  V30 3404 H 306.908 -2.08875 3.89645 0
M  V30 3405 N 305.967 -1.56429 0.191757 0
M  V30 3406 C 307.216 -1.9666 -0.448088 0
M  V30 3407 C 307.529 -1.08136 -1.62991 0
M  V30 3408 O 308.735 -1.38135 -2.33733 0
M  V30 3409 C 307.191 -3.49753 -0.848585 0
M  V30 3410 C 306.799 -4.46935 0.308764 0
M  V30 3411 C 308.543 -3.9876 -1.4557 0
M  V30 3412 C 306.45 -5.91293 -0.112506 0
M  V30 3413 H 305.38 -0.734312 -0.171179 0
M  V30 3414 H 308.031 -1.81301 0.283242 0
M  V30 3415 H 306.413 -3.60604 -1.63649 0
M  V30 3416 H 307.587 -4.47813 1.08627 0
M  V30 3417 H 305.902 -4.08102 0.827158 0
M  V30 3418 H 308.499 -5.04086 -1.78328 0
M  V30 3419 H 308.842 -3.42875 -2.36099 0
M  V30 3420 H 309.375 -3.9101 -0.731836 0
M  V30 3421 H 306.114 -6.51097 0.758514 0
M  V30 3422 H 305.634 -5.93676 -0.854941 0
M  V30 3423 H 307.313 -6.44663 -0.549448 0
M  V30 3424 N 307.445 0.0818655 -1.57387 0
M  V30 3425 C 308.393 1.11712 -2.04018 0
M  V30 3426 C 309.387 1.40683 -0.94364 0
M  V30 3427 O 310.593 1.40209 -1.12878 0
M  V30 3428 H 306.968 0.377542 -0.650358 0
M  V30 3429 H 308.939 0.697614 -2.90131 0
M  V30 3430 C 307.688 2.42537 -2.49141 0
M  V30 3431 H 307.011 2.21092 -3.33104 0
M  V30 3432 H 308.451 3.13446 -2.85531 0
M  V30 3433 C 306.91 3.0778 -1.37014 0
M  V30 3434 O 307.44 3.95436 -0.706621 0
M  V30 3435 N 305.646 2.68242 -1.11779 0
M  V30 3436 H 305.193 1.97052 -1.65917 0
M  V30 3437 H 305.151 3.1222 -0.369594 0
M  V30 3438 N 308.923 1.53595 0.353017 0
M  V30 3439 C 310.148 1.7462 1.11904 0
M  V30 3440 C 310.573 0.479721 1.8188 0
M  V30 3441 O 309.931 -0.567066 1.72204 0
M  V30 3442 C 309.979 2.92029 2.11545 0
M  V30 3443 O 309.083 2.61516 3.18878 0
M  V30 3444 H 308.424 0.579531 0.324099 0
M  V30 3445 H 310.954 2.00525 0.406301 0
M  V30 3446 H 310.964 3.18551 2.5493 0
M  V30 3447 H 309.639 3.83888 1.60008 0
M  V30 3448 H 308.216 2.45852 2.80377 0
M  V30 3449 N 310.401 -0.613514 1.45168 0
M  V30 3450 C 311.817 -0.933629 1.29443 0
M  V30 3451 C 312.017 -2.00028 0.243101 0
M  V30 3452 O 311.073 -2.49848 -0.364992 0
M  V30 3453 C 312.386 -1.38018 2.67155 0
M  V30 3454 C 313.934 -1.49471 2.75004 0
M  V30 3455 C 314.409 -1.97503 4.13227 0
M  V30 3456 N 315.9 -2.04746 4.15491 0
M  V30 3457 C 316.635 -2.43121 5.19307 0
M  V30 3458 N 316.131 -2.80506 6.33473 0
M  V30 3459 N 317.924 -2.43408 5.06664 0
M  V30 3460 H 310.075 0.0916097 2.12202 0
M  V30 3461 H 312.338 -0.0216655 0.947752 0
M  V30 3462 H 312.044 -0.670625 3.45247 0
M  V30 3463 H 311.918 -2.34784 2.95222 0
M  V30 3464 H 314.305 -2.19519 1.9722 0
M  V30 3465 H 314.386 -0.510342 2.50657 0
M  V30 3466 H 314.03 -1.28045 4.91495 0
M  V30 3467 H 313.96 -2.96843 4.34962 0
M  V30 3468 H 316.451 -1.78468 3.33103 0
M  V30 3469 H 316.764 -3.08652 7.08487 0
M  V30 3470 H 315.109 -2.78216 6.36884 0
M  V30 3471 H 318.3 -2.13604 4.16523 0
M  V30 3472 H 318.473 -2.72989 5.87691 0
M  V30 3473 N 311.879 -1.3236 -0.855495 0
M  V30 3474 C 312.826 -1.21225 -1.964 0
M  V30 3475 C 313.796 -0.0946204 -1.6583 0
M  V30 3476 O 314.981 -0.27002 -1.8888 0
M  V30 3477 C 312.121 -0.940419 -3.32039 0
M  V30 3478 C 311.234 -2.14276 -3.75113 0
M  V30 3479 C 310.369 -1.80648 -4.9954 0
M  V30 3480 C 309.408 -2.97208 -5.35102 0
M  V30 3481 N 308.545 -2.63678 -6.50706 0
M  V30 3482 H 313.385 -2.16042 -2.05255 0
M  V30 3483 H 310.922 -1.07451 -1.00463 0
M  V30 3484 H 312.88 -0.763311 -4.10158 0
M  V30 3485 H 311.51 -0.0290413 -3.22787 0
M  V30 3486 H 310.562 -2.43017 -2.92655 0
M  V30 3487 H 311.874 -3.01468 -3.97389 0
M  V30 3488 H 311.028 -1.59484 -5.85363 0
M  V30 3489 H 309.767 -0.906678 -4.79198 0
M  V30 3490 H 308.772 -3.19004 -4.47791 0
M  V30 3491 H 309.997 -3.87918 -5.57401 0
M  V30 3492 H 307.943 -1.76238 -6.31883 0
M  V30 3493 H 307.86 -3.444 -6.72997 0
M  V30 3494 H 309.128 -2.45942 -7.39684 0
M  V30 3495 N 313.357 1.07166 -1.15556 0
M  V30 3496 C 314.604 1.79798 -0.931604 0
M  V30 3497 C 314.932 1.8682 0.54115 0
M  V30 3498 O 314.187 1.34942 1.41736 0
M  V30 3499 C 314.486 3.24707 -1.49332 0
M  V30 3500 C 314.152 3.37781 -2.98688 0
M  V30 3501 C 312.814 3.41057 -3.39461 0
M  V30 3502 C 315.166 3.40424 -3.94665 0
M  V30 3503 C 312.494 3.4458 -4.74849 0
M  V30 3504 C 314.846 3.45485 -5.29927 0
M  V30 3505 C 313.51 3.47039 -5.70193 0
M  V30 3506 H 312.78 0.657928 -0.340898 0
M  V30 3507 H 315.427 1.26091 -1.44129 0
M  V30 3508 H 313.732 3.81208 -0.904859 0
M  V30 3509 H 315.429 3.79486 -1.29582 0
M  V30 3510 H 312.019 3.35932 -2.66172 0
M  V30 3511 H 316.203 3.37113 -3.64237 0
M  V30 3512 H 311.459 3.44083 -5.05388 0
M  V30 3513 H 315.633 3.46476 -6.04092 0
M  V30 3514 H 313.26 3.49522 -6.75084 0
M  V30 3515 N 314.835 0.952656 1.25548 0
M  V30 3516 C 316.083 0.605176 1.92826 0
M  V30 3517 C 316.404 -0.860261 1.74999 0
M  V30 3518 O 315.674 -1.6125 1.11244 0
M  V30 3519 H 314.254 0.220832 0.713612 0
M  V30 3520 H 316.916 1.21047 1.52754 0
M  V30 3521 H 316.012 0.832798 3.00784 0
M  V30 3522 N 316.313 -1.40141 0.720998 0
M  V30 3523 C 317.246 -2.2819 0.020916 0
M  V30 3524 C 318.224 -1.43633 -0.762129 0
M  V30 3525 O 319.408 -1.7304 -0.747633 0
M  V30 3526 C 316.535 -3.24281 -0.977715 0
M  V30 3527 C 315.581 -4.25548 -0.284836 0
M  V30 3528 S 316.414 -5.26247 0.991169 0
M  V30 3529 C 317.57 -6.259 -0.0052214 0
M  V30 3530 H 317.803 -2.87218 0.767649 0
M  V30 3531 H 315.336 -1.45656 0.512233 0
M  V30 3532 H 317.294 -3.80167 -1.54865 0
M  V30 3533 H 315.955 -2.643 -1.69719 0
M  V30 3534 H 315.148 -4.93154 -1.03996 0
M  V30 3535 H 314.75 -3.73389 0.213684 0
M  V30 3536 H 317.042 -6.72143 -0.850279 0
M  V30 3537 H 317.985 -7.05224 0.637599 0
M  V30 3538 H 318.393 -5.63277 -0.371366 0
M  V30 3539 N 317.792 -0.46758 -1.50504 0
M  V30 3540 C 318.724 0.364655 -2.26281 0
M  V30 3541 C 319.737 0.960151 -1.31472 0
M  V30 3542 O 320.926 0.849153 -1.57008 0
M  V30 3543 C 318.026 1.52509 -3.02645 0
M  V30 3544 C 317.199 1.04302 -4.24782 0
M  V30 3545 C 316.258 2.07709 -4.8347 0
M  V30 3546 O 315.284 1.65913 -5.44483 0
M  V30 3547 N 316.486 3.40485 -4.70159 0
M  V30 3548 H 319.251 -0.28495 -2.98342 0
M  V30 3549 H 316.812 -0.298163 -1.59131 0
M  V30 3550 H 318.804 2.21371 -3.38787 0
M  V30 3551 H 317.374 2.07945 -2.33404 0
M  V30 3552 H 316.594 0.180393 -3.93787 0
M  V30 3553 H 317.882 0.698798 -5.03978 0
M  V30 3554 H 317.28 3.77155 -4.21629 0
M  V30 3555 H 315.837 4.05156 -5.1058 0
M  V30 3556 N 319.27 1.56325 -0.20005 0
M  V30 3557 C 320.517 1.97719 0.437411 0
M  V30 3558 C 320.845 1.08709 1.61284 0
M  V30 3559 O 320.1 0.127261 1.95286 0
M  V30 3560 C 320.399 3.4495 0.935103 0
M  V30 3561 C 320.065 4.5072 -0.12749 0
M  V30 3562 C 318.727 4.79368 -0.419451 0
M  V30 3563 C 321.079 5.14268 -0.847231 0
M  V30 3564 C 318.407 5.68854 -1.43604 0
M  V30 3565 C 320.759 6.04852 -1.85301 0
M  V30 3566 C 319.423 6.31855 -2.15211 0
M  V30 3567 H 318.693 0.723507 0.16006 0
M  V30 3568 H 321.34 1.89166 -0.298056 0
M  V30 3569 H 319.645 3.50599 1.74894 0
M  V30 3570 H 321.342 3.74337 1.43781 0
M  V30 3571 H 317.932 4.28458 0.11023 0
M  V30 3572 H 322.116 4.92222 -0.634901 0
M  V30 3573 H 317.372 5.88047 -1.67364 0
M  V30 3574 H 321.546 6.53152 -2.41591 0
M  V30 3575 H 319.173 7.00994 -2.94129 0
M  V30 3576 N 320.748 -0.0735177 1.57428 0
M  V30 3577 C 321.996 -0.771472 1.86796 0
M  V30 3578 C 322.317 -1.78201 0.791804 0
M  V30 3579 O 321.587 -1.95074 -0.179718 0
M  V30 3580 H 320.167 -0.28791 0.689287 0
M  V30 3581 H 322.829 -0.0500161 1.94836 0
M  V30 3582 H 321.925 -1.28874 2.8425 0
M  V30 3583 N 322.226 -1.5378 -0.344866 0
M  V30 3584 C 323.189 -1.80981 -1.40637 0
M  V30 3585 C 324.189 -0.680816 -1.45676 0
M  V30 3586 O 325.379 -0.949095 -1.46075 0
M  V30 3587 C 322.511 -1.95063 -2.79577 0
M  V30 3588 H 323.704 -2.75803 -1.17783 0
M  V30 3589 H 321.257 -1.45173 -0.579181 0
M  V30 3590 H 321.992 -1.02379 -3.07716 0
M  V30 3591 H 321.777 -2.77198 -2.77315 0
M  V30 3592 H 323.267 -2.17629 -3.56409 0
M  V30 3593 N 323.704 0.605807 -1.45491 0
M  V30 3594 C 325.115 1.18777 -1.44045 0
M  V30 3595 C 325.466 1.95471 -0.169001 0
M  V30 3596 O 324.591 2.0374 0.729324 0
M  V30 3597 C 325.186 2.16064 -2.60963 0
M  V30 3598 C 323.745 2.69633 -2.62631 0
M  V30 3599 C 322.892 1.45072 -2.36325 0
M  V30 3600 H 325.843 0.395017 -1.53705 0
M  V30 3601 H 325.864 2.9913 -2.35163 0
M  V30 3602 H 325.376 1.60217 -3.53486 0
M  V30 3603 H 323.477 3.29414 -1.74119 0
M  V30 3604 H 323.59 3.13944 -3.61906 0
M  V30 3605 H 321.954 1.74089 -1.85917 0
M  V30 3606 H 322.737 0.910899 -3.30995 0
M  V30 3607 N 325.182 1.32811 0.848464 0
M  V30 3608 C 326.13 1.22231 1.97895 0
M  V30 3609 C 327.124 0.125749 1.68933 0
M  V30 3610 O 328.33 0.289083 1.77663 0
M  V30 3611 H 324.705 0.379058 0.649476 0
M  V30 3612 H 326.676 2.17828 2.03945 0
M  V30 3613 C 325.425 0.968572 3.33937 0
M  V30 3614 H 324.748 1.80458 3.56756 0
M  V30 3615 H 326.188 0.934808 4.13567 0
M  V30 3616 C 324.647 -0.328628 3.35293 0
M  V30 3617 O 325.177 -1.33848 3.78745 0
M  V30 3618 N 323.383 -0.352788 2.88451 0
M  V30 3619 H 322.93 0.469541 2.53285 0
M  V30 3620 H 322.888 -1.22057 2.89741 0
M  V30 3621 N 326.66 -1.06551 1.16123 0
M  V30 3622 C 327.592 -2.13908 0.823171 0
M  V30 3623 C 328.605 -1.61926 -0.16843 0
M  V30 3624 O 329.794 -1.78412 0.055962 0
M  V30 3625 C 326.894 -3.38283 0.204424 0
M  V30 3626 C 326.067 -4.19589 1.23548 0
M  V30 3627 C 325.126 -5.2233 0.637011 0
M  V30 3628 O 324.152 -5.54034 1.30516 0
M  V30 3629 N 325.354 -5.77621 -0.577474 0
M  V30 3630 H 328.119 -2.43508 1.74711 0
M  V30 3631 H 325.68 -1.2253 1.05821 0
M  V30 3632 H 327.672 -4.0416 -0.208909 0
M  V30 3633 H 326.242 -3.06329 -0.623012 0
M  V30 3634 H 325.462 -3.49406 1.82507 0
M  V30 3635 H 326.75 -4.70718 1.93137 0
M  V30 3636 H 326.148 -5.54125 -1.13853 0
M  V30 3637 H 324.705 -6.45087 -0.933053 0
M  V30 3638 N 328.138 -0.959301 -1.25041 0
M  V30 3639 C 329.384 -0.617525 -1.9317 0
M  V30 3640 C 329.717 0.843981 -1.74902 0
M  V30 3641 O 328.992 1.60615 -1.09696 0
M  V30 3642 C 329.275 -0.982736 -3.46431 0
M  V30 3643 C 329.128 -2.50032 -3.73904 0
M  V30 3644 C 330.447 -0.511176 -4.37121 0
M  V30 3645 H 327.566 -0.22582 -0.701552 0
M  V30 3646 H 330.208 -1.19679 -1.4757 0
M  V30 3647 H 328.358 -0.489806 -3.854 0
M  V30 3648 H 330.03 -3.06737 -3.44544 0
M  V30 3649 H 328.273 -2.93598 -3.19348 0
M  V30 3650 H 328.944 -2.70635 -4.81103 0
M  V30 3651 H 331.42 -0.934075 -4.0548 0
M  V30 3652 H 330.296 -0.795361 -5.43107 0
M  V30 3653 H 330.557 0.588834 -4.38161 0
M  V30 3654 N 329.616 1.39756 -0.72842 0
M  V30 3655 C 330.865 1.99879 -0.270407 0
M  V30 3656 C 331.178 1.58449 1.14688 0
M  V30 3657 O 332.384 2.11362 1.70407 0
M  V30 3658 C 330.84 3.57292 -0.43252 0
M  V30 3659 C 330.448 4.07688 -1.85727 0
M  V30 3660 C 332.192 4.24485 -0.0359507 0
M  V30 3661 C 330.099 5.5765 -1.96928 0
M  V30 3662 H 329.029 0.747689 -0.0973472 0
M  V30 3663 H 331.68 1.59837 -0.901355 0
M  V30 3664 H 330.062 3.95097 0.267219 0
M  V30 3665 H 331.236 3.81231 -2.58843 0
M  V30 3666 H 329.551 3.53135 -2.20646 0
M  V30 3667 H 332.148 5.34609 -0.0987484 0
M  V30 3668 H 332.491 4.03915 1.00787 0
M  V30 3669 H 333.024 3.9183 -0.686604 0
M  V30 3670 H 329.763 5.8309 -2.99476 0
M  V30 3671 H 329.283 5.8593 -1.28241 0
M  V30 3672 H 330.962 6.22957 -1.74737 0
M  V30 3673 N 331.094 0.475555 1.50254 0
M  V30 3674 C 332.026 -0.352649 2.26471 0
M  V30 3675 C 333.039 -0.953165 1.3198 0
M  V30 3676 O 334.228 -0.840815 1.57457 0
M  V30 3677 C 331.328 -1.50902 3.0345 0
M  V30 3678 C 330.501 -1.02047 4.25329 0
M  V30 3679 C 329.56 -2.05142 4.84565 0
M  V30 3680 O 328.586 -1.63023 5.45355 0
M  V30 3681 N 329.788 -3.37987 4.71959 0
M  V30 3682 H 332.553 0.300767 2.98187 0
M  V30 3683 H 330.114 0.306598 1.5897 0
M  V30 3684 H 332.106 -2.19572 3.39956 0
M  V30 3685 H 330.676 -2.06705 2.34504 0
M  V30 3686 H 329.896 -0.159507 3.93877 0
M  V30 3687 H 331.184 -0.672061 5.04342 0
M  V30 3688 H 330.582 -3.74913 4.23623 0
M  V30 3689 H 329.139 -4.02443 5.12721 0
M  V30 3690 N 332.573 -1.56217 0.208337 0
M  V30 3691 C 333.85 -1.89739 -0.475234 0
M  V30 3692 C 334.23 -1.1238 -1.78701 0
M  V30 3693 O 333.578 -0.228979 -2.2735 0
M  V30 3694 C 333.788 -3.42289 -0.681101 0
M  V30 3695 C 335.136 -4.12789 -0.994507 0
M  V30 3696 O 336.16 -3.47814 -0.768357 0
M  V30 3697 O 335.019 -5.27649 -1.42299 0
M  V30 3698 H 332.113 -0.788478 -0.249461 0
M  V30 3699 H 334.659 -1.67855 0.249538 0
M  V30 3700 H 333.431 -3.90534 0.244722 0
M  V30 3701 H 333.054 -3.69909 -1.45785 0
M  V30 3702 N 334.051 0.0651679 -1.57465 0
M  V30 3703 C 335.328 0.79644 -1.78651 0
M  V30 3704 C 335.708 1.95454 -0.797566 0
M  V30 3705 O 335.056 2.27882 0.167946 0
M  V30 3706 C 335.266 1.26322 -3.25337 0
M  V30 3707 C 336.614 1.6939 -3.89348 0
M  V30 3708 O 337.638 1.35872 -3.29268 0
M  V30 3709 O 336.497 2.31471 -4.95059 0
M  V30 3710 H 333.591 0.382157 -0.733407 0
M  V30 3711 H 336.137 0.0447311 -1.69641 0
M  V30 3712 H 334.909 0.434859 -3.88876 0
M  V30 3713 H 334.532 2.07604 -3.39096 0
M  V30 3714 N 335.529 1.53961 0.336706 0
M  V30 3715 C 336.759 1.75229 1.09446 0
M  V30 3716 C 337.167 0.494602 1.82621 0
M  V30 3717 O 336.51 -0.543764 1.75468 0
M  V30 3718 C 336.572 2.88288 2.1478 0
M  V30 3719 C 336.236 4.27656 1.6112 0
M  V30 3720 C 337.233 5.08981 1.0599 0
M  V30 3721 C 334.918 4.74161 1.6576 0
M  V30 3722 C 336.912 6.34916 0.562129 0
M  V30 3723 C 334.599 6.00067 1.15595 0
M  V30 3724 C 335.597 6.80278 0.609147 0
M  V30 3725 O 335.285 8.03818 0.114999 0
M  V30 3726 H 335.017 0.588881 0.331956 0
M  V30 3727 H 337.571 2.01614 0.392566 0
M  V30 3728 H 335.801 2.57443 2.88548 0
M  V30 3729 H 337.49 2.97461 2.76174 0
M  V30 3730 H 338.256 4.74213 1.01722 0
M  V30 3731 H 334.135 4.11781 2.07261 0
M  V30 3732 H 337.679 6.9747 0.134668 0
M  V30 3733 H 333.576 6.3433 1.19566 0
M  V30 3734 H 334.344 8.18172 0.231651 0
M  V30 3735 N 337.007 -0.598083 1.45811 0
M  V30 3736 C 337.955 -1.72932 1.55555 0
M  V30 3737 C 338.949 -1.63984 0.424921 0
M  V30 3738 O 340.155 -1.69663 0.601205 0
M  V30 3739 H 336.53 -0.571489 0.488779 0
M  V30 3740 H 338.501 -1.61842 2.50699 0
M  V30 3741 C 337.25 -3.11318 1.54843 0
M  V30 3742 H 336.573 -3.18867 2.41172 0
M  V30 3743 H 338.013 -3.90274 1.65717 0
M  V30 3744 C 336.472 -3.3578 0.274427 0
M  V30 3745 O 337.002 -3.9654 -0.641778 0
M  V30 3746 N 335.208 -2.90119 0.167139 0
M  V30 3747 H 334.755 -2.40855 0.913596 0
M  V30 3748 H 334.713 -3.0686 -0.684435 0
M  V30 3749 N 338.485 -1.33259 -0.841409 0
M  V30 3750 C 339.733 -1.24326 -1.59334 0
M  V30 3751 C 340.054 0.191564 -1.94057 0
M  V30 3752 O 339.324 1.11967 -1.60749 0
M  V30 3753 H 337.904 -0.457174 -0.590763 0
M  V30 3754 H 340.566 -1.66947 -1.00571 0
M  V30 3755 H 339.662 -1.8352 -2.52442 0
M  V30 3756 N 339.963 1.05934 -1.16686 0
M  V30 3757 C 341.374 1.60263 -0.957745 0
M  V30 3758 C 341.725 1.89789 0.49745 0
M  V30 3759 O 340.85 1.67401 1.37135 0
M  V30 3760 C 341.445 2.91172 -1.73218 0
M  V30 3761 C 340.004 3.42188 -1.56794 0
M  V30 3762 C 339.151 2.16028 -1.73859 0
M  V30 3763 H 342.102 0.888392 -1.31504 0
M  V30 3764 H 342.123 3.60744 -1.21014 0
M  V30 3765 H 341.635 2.6965 -2.79124 0
M  V30 3766 H 339.736 3.68762 -0.533437 0
M  V30 3767 H 339.849 4.17273 -2.35414 0
M  V30 3768 H 338.213 2.26426 -1.16633 0
M  V30 3769 H 338.996 1.96985 -2.81161 0
M  V30 3770 N 341.441 0.965919 1.2453 0
M  V30 3771 C 342.666 0.643971 1.97149 0
M  V30 3772 C 343.091 -0.779487 1.71189 0
M  V30 3773 O 342.449 -1.5288 0.974553 0
M  V30 3774 C 342.497 0.922557 3.48599 0
M  V30 3775 O 341.601 0.00707672 4.12399 0
M  V30 3776 H 340.942 0.243647 0.617683 0
M  V30 3777 H 343.472 1.29558 1.58353 0
M  V30 3778 H 343.482 0.853373 3.98976 0
M  V30 3779 H 342.157 1.95996 3.66822 0
M  V30 3780 H 340.734 0.12943 3.72675 0
M  V30 3781 N 342.919 -1.39368 0.735821 0
M  V30 3782 C 344.165 -2.00794 0.284544 0
M  V30 3783 C 344.498 -1.58255 -1.12557 0
M  V30 3784 O 343.773 -0.811819 -1.76748 0
M  V30 3785 C 344.056 -3.58011 0.387337 0
M  V30 3786 C 343.909 -4.10566 1.83728 0
M  V30 3787 C 345.228 -4.395 -0.22975 0
M  V30 3788 H 342.347 -0.729501 0.104866 0
M  V30 3789 H 344.989 -1.65564 0.93213 0
M  V30 3790 H 343.139 -3.88154 -0.164006 0
M  V30 3791 H 344.811 -3.91139 2.44556 0
M  V30 3792 H 343.054 -3.64095 2.35833 0
M  V30 3793 H 343.725 -5.19702 1.86047 0
M  V30 3794 H 346.201 -4.15406 0.240257 0
M  V30 3795 H 345.077 -5.48752 -0.127485 0
M  V30 3796 H 345.338 -4.22062 -1.3159 0
M  V30 3797 N 344.397 -0.483516 -1.5 0
M  V30 3798 C 345.344 0.304164 -2.28787 0
M  V30 3799 C 346.314 0.976114 -1.34392 0
M  V30 3800 O 347.499 0.986156 -1.63339 0
M  V30 3801 C 344.639 1.37298 -3.16612 0
M  V30 3802 C 343.752 0.714561 -4.26049 0
M  V30 3803 C 342.887 1.76232 -5.01114 0
M  V30 3804 C 341.926 1.08483 -6.0241 0
M  V30 3805 N 341.063 2.076 -6.70706 0
M  V30 3806 H 345.903 -0.373981 -2.95644 0
M  V30 3807 H 343.44 -0.196275 -1.45785 0
M  V30 3808 H 345.398 2.00445 -3.65893 0
M  V30 3809 H 344.028 2.02012 -2.51776 0
M  V30 3810 H 343.08 -0.0297798 -3.80388 0
M  V30 3811 H 344.392 0.180383 -4.98474 0
M  V30 3812 H 343.546 2.46929 -5.54176 0
M  V30 3813 H 342.285 2.33033 -4.28424 0
M  V30 3814 H 341.29 0.363545 -5.48597 0
M  V30 3815 H 342.515 0.523551 -6.77079 0
M  V30 3816 H 340.461 2.63394 -6.00799 0
M  V30 3817 H 340.378 1.59201 -7.39047 0
M  V30 3818 H 341.646 2.77639 -7.2838 0
M  V30 3819 N 345.875 1.56104 -0.216619 0
M  V30 3820 C 347.103 2.02563 0.421413 0
M  V30 3821 C 347.518 1.0965 1.53695 0
M  V30 3822 O 346.875 0.10521 1.82196 0
M  V30 3823 C 346.926 3.48584 0.957665 0
M  V30 3824 O 346.647 4.37953 -0.113389 0
M  V30 3825 C 348.148 4.10664 1.66943 0
M  V30 3826 H 345.368 0.662944 0.103665 0
M  V30 3827 H 347.912 2.01793 -0.331629 0
M  V30 3828 H 346.067 3.49985 1.661 0
M  V30 3829 H 346.481 5.23704 0.288932 0
M  V30 3830 H 347.955 5.14622 1.99671 0
M  V30 3831 H 348.432 3.55373 2.58083 0
M  V30 3832 H 349.038 4.13098 1.01142 0
M  V30 3833 N 347.353 -0.0568162 1.57498 0
M  V30 3834 C 348.3 -1.06591 2.04712 0
M  V30 3835 C 349.27 -1.3758 0.930644 0
M  V30 3836 O 350.455 -1.48392 1.19935 0
M  V30 3837 C 347.595 -2.3701 2.50839 0
M  V30 3838 C 346.708 -2.12421 3.76167 0
M  V30 3839 C 345.843 -3.36511 4.11015 0
M  V30 3840 C 344.882 -3.07353 5.2934 0
M  V30 3841 N 344.019 -4.23816 5.59754 0
M  V30 3842 H 348.859 -0.65631 2.90683 0
M  V30 3843 H 346.396 -0.312481 1.43743 0
M  V30 3844 H 348.354 -3.13175 2.7564 0
M  V30 3845 H 346.984 -2.75744 1.67825 0
M  V30 3846 H 346.036 -1.2688 3.58616 0
M  V30 3847 H 347.348 -1.86894 4.62463 0
M  V30 3848 H 346.502 -4.21062 4.36797 0
M  V30 3849 H 345.241 -3.65128 3.23315 0
M  V30 3850 H 344.246 -2.212 5.03339 0
M  V30 3851 H 345.471 -2.80043 6.1867 0
M  V30 3852 H 343.417 -4.52436 4.75014 0
M  V30 3853 H 343.334 -4.01614 6.40501 0
M  V30 3854 H 344.602 -5.0932 5.90096 0
M  V30 3855 N 348.832 -1.54138 -0.328536 0
M  V30 3856 C 350.079 -1.72105 -1.06706 0
M  V30 3857 C 350.407 -0.492111 -1.88171 0
M  V30 3858 O 349.662 0.526153 -1.88494 0
M  V30 3859 C 349.961 -2.9457 -2.02393 0
M  V30 3860 C 349.627 -4.29544 -1.37122 0
M  V30 3861 C 348.289 -4.6624 -1.19052 0
M  V30 3862 C 350.641 -5.1333 -0.902331 0
M  V30 3863 C 347.969 -5.84325 -0.527331 0
M  V30 3864 C 350.321 -6.32094 -0.252988 0
M  V30 3865 C 348.985 -6.67473 -0.0600901 0
M  V30 3866 H 348.255 -0.629775 -0.390466 0
M  V30 3867 H 350.902 -1.88372 -0.34473 0
M  V30 3868 H 349.207 -2.72969 -2.81061 0
M  V30 3869 H 350.904 -3.05665 -2.59557 0
M  V30 3870 H 347.494 -4.0067 -1.52188 0
M  V30 3871 H 351.678 -4.855 -1.02974 0
M  V30 3872 H 346.934 -6.103 -0.366634 0
M  V30 3873 H 351.108 -6.96299 0.118366 0
M  V30 3874 H 348.735 -7.58832 0.455828 0
M  V30 3875 N 350.31 0.590341 -1.46126 0
M  V30 3876 C 351.257 1.69994 -1.56111 0
M  V30 3877 C 352.227 1.61065 -0.405867 0
M  V30 3878 O 353.412 1.8039 -0.621613 0
M  V30 3879 C 350.552 3.08326 -1.55013 0
M  V30 3880 C 349.665 3.27936 -2.81215 0
M  V30 3881 C 348.8 4.56473 -2.71673 0
M  V30 3882 C 347.839 4.694 -3.92849 0
M  V30 3883 N 346.976 5.89254 -3.81738 0
M  V30 3884 H 351.816 1.60797 -2.50895 0
M  V30 3885 H 349.353 0.783799 -1.24479 0
M  V30 3886 H 351.311 3.88383 -1.52362 0
M  V30 3887 H 349.941 3.16439 -0.637667 0
M  V30 3888 H 348.993 2.41536 -2.93879 0
M  V30 3889 H 350.305 3.33357 -3.71045 0
M  V30 3890 H 349.459 5.44748 -2.67085 0
M  V30 3891 H 348.198 4.53477 -1.7947 0
M  V30 3892 H 347.203 3.79544 -3.97777 0
M  V30 3893 H 348.428 4.7418 -4.86138 0
M  V30 3894 H 346.374 5.87271 -2.92317 0
M  V30 3895 H 346.291 5.95911 -4.65217 0
M  V30 3896 H 347.559 6.79981 -3.81112 0
M  V30 3897 N 351.788 1.33704 0.83433 0
M  V30 3898 C 352.698 1.26382 1.97648 0
M  V30 3899 C 353.714 0.173548 1.73132 0
M  V30 3900 O 354.89 0.397962 1.97429 0
M  V30 3901 C 351.955 1.00769 3.31733 0
M  V30 3902 C 351.016 2.1884 3.69334 0
M  V30 3903 C 350.249 1.9444 4.9702 0
M  V30 3904 O 350.472 0.896961 5.63303 0
M  V30 3905 O 349.406 2.81093 5.32231 0
M  V30 3906 H 353.232 2.22444 2.06767 0
M  V30 3907 H 350.817 1.13795 0.968037 0
M  V30 3908 H 352.699 0.882186 4.12062 0
M  V30 3909 H 351.374 0.0773783 3.23608 0
M  V30 3910 H 350.281 2.36946 2.89495 0
M  V30 3911 H 351.614 3.10221 3.82131 0
M  V30 3912 N 353.266 -1.05314 1.17247 0
M  V30 3913 C 354.515 -1.77685 0.954521 0
M  V30 3914 C 354.828 -1.88616 -0.518025 0
M  V30 3915 O 356.034 -2.57714 -0.854144 0
M  V30 3916 C 354.49 -3.19402 1.65863 0
M  V30 3917 C 354.098 -3.16605 3.16963 0
M  V30 3918 C 355.842 -3.96237 1.52303 0
M  V30 3919 C 353.749 -4.53103 3.80068 0
M  V30 3920 H 352.679 -0.666 0.353496 0
M  V30 3921 H 355.33 -1.1805 1.40486 0
M  V30 3922 H 353.712 -3.79355 1.13602 0
M  V30 3923 H 354.886 -2.66176 3.76148 0
M  V30 3924 H 353.201 -2.53268 3.30521 0
M  V30 3925 H 355.798 -4.97157 1.96822 0
M  V30 3926 H 356.141 -4.136 0.473401 0
M  V30 3927 H 356.674 -3.42829 2.01775 0
M  V30 3928 H 353.413 -4.40946 4.85023 0
M  V30 3929 H 352.933 -5.03686 3.2567 0
M  V30 3930 H 354.612 -5.22045 3.82202 0
M  V30 3931 N 354.744 -0.972509 -1.24016 0
M  V30 3932 C 355.99 -0.637978 -1.92504 0
M  V30 3933 C 356.323 0.825383 -1.75787 0
M  V30 3934 O 355.598 1.59442 -1.11393 0
M  V30 3935 C 355.881 -1.01942 -3.45369 0
M  V30 3936 C 355.734 -2.53983 -3.71231 0
M  V30 3937 C 357.053 -0.55751 -4.36555 0
M  V30 3938 H 354.172 -0.233248 -0.699117 0
M  V30 3939 H 356.814 -1.21238 -1.46292 0
M  V30 3940 H 354.964 -0.530656 -3.84859 0
M  V30 3941 H 356.636 -3.10374 -3.41271 0
M  V30 3942 H 354.879 -2.96968 -3.16216 0
M  V30 3943 H 355.55 -2.75723 -4.78206 0
M  V30 3944 H 358.026 -0.977029 -4.04467 0
M  V30 3945 H 356.902 -0.85292 -5.42233 0
M  V30 3946 H 357.163 0.542328 -4.38761 0
M  V30 3947 N 356.222 1.38976 -0.743202 0
M  V30 3948 C 357.154 2.29096 -0.0689228 0
M  V30 3949 C 358.167 1.47229 0.694791 0
M  V30 3950 O 359.356 1.70212 0.537597 0
M  V30 3951 C 356.456 3.25988 0.926548 0
M  V30 3952 C 355.629 4.36833 0.222647 0
M  V30 3953 C 354.688 5.13981 1.12739 0
M  V30 3954 O 353.714 5.6601 0.601795 0
M  V30 3955 N 354.916 5.25966 2.45641 0
M  V30 3956 H 357.681 2.87604 -0.842846 0
M  V30 3957 H 355.242 1.50645 -0.593109 0
M  V30 3958 H 357.234 3.74476 1.5346 0
M  V30 3959 H 355.804 2.68453 1.60162 0
M  V30 3960 H 355.024 3.90116 -0.565983 0
M  V30 3961 H 356.312 5.0811 -0.264841 0
M  V30 3962 H 355.71 4.85228 2.9081 0
M  V30 3963 H 354.267 5.77865 3.01522 0
M  V30 3964 N 357.7 0.491464 1.49741 0
M  V30 3965 C 358.928 -0.0535151 2.06831 0
M  V30 3966 C 359.343 -1.31683 1.35296 0
M  V30 3967 O 358.7 -1.77402 0.42836 0
M  V30 3968 C 358.751 -0.320835 3.60073 0
M  V30 3969 O 358.472 0.892394 4.28915 0
M  V30 3970 C 359.973 -0.910519 4.33848 0
M  V30 3971 H 357.193 0.0161909 0.670805 0
M  V30 3972 H 359.737 0.68609 1.92647 0
M  V30 3973 H 357.892 -1.0104 3.73991 0
M  V30 3974 H 358.306 0.649401 5.20464 0
M  V30 3975 H 359.78 -1.04721 5.41976 0
M  V30 3976 H 360.257 -1.90589 3.95692 0
M  V30 3977 H 360.863 -0.258712 4.24512 0
M  V30 3978 N 359.178 -1.55987 0.224894 0
M  V30 3979 C 360.141 -2.19178 -0.670348 0
M  V30 3980 C 361.141 -1.15461 -1.11917 0
M  V30 3981 O 362.331 -1.40675 -1.02743 0
M  V30 3982 C 359.463 -2.81777 -1.9187 0
M  V30 3983 H 360.656 -2.99662 -0.119364 0
M  V30 3984 H 358.209 -1.5628 -0.0247128 0
M  V30 3985 H 358.944 -2.05172 -2.51147 0
M  V30 3986 H 358.729 -3.57732 -1.60531 0
M  V30 3987 H 360.219 -3.30205 -2.55645 0
M  V30 3988 N 360.656 0.0484629 -1.57525 0
M  V30 3989 C 361.886 0.754326 -1.92337 0
M  V30 3990 C 362.294 1.70443 -0.82132 0
M  V30 3991 O 361.637 1.82466 0.21254 0
M  V30 3992 C 361.699 1.58231 -3.22805 0
M  V30 3993 C 361.363 0.799074 -4.4996 0
M  V30 3994 C 362.36 0.1079 -5.19788 0
M  V30 3995 C 360.045 0.759345 -4.96527 0
M  V30 3996 C 362.039 -0.612516 -6.3445 0
M  V30 3997 C 359.726 0.0351713 -6.1109 0
M  V30 3998 C 360.724 -0.649537 -6.79904 0
M  V30 3999 O 360.412 -1.36199 -7.92278 0
M  V30 4000 H 360.144 0.218257 -0.639797 0
M  V30 4001 H 362.698 0.0159295 -2.05394 0
M  V30 4002 H 360.928 2.36406 -3.06021 0
M  V30 4003 H 362.617 2.16898 -3.43089 0
M  V30 4004 H 363.383 0.129748 -4.84826 0
M  V30 4005 H 359.262 1.28177 -4.42822 0
M  V30 4006 H 362.806 -1.14751 -6.88097 0
M  V30 4007 H 358.703 0.0113314 -6.45499 0
M  V30 4008 H 359.471 -1.27366 -8.0853 0
M  V30 4009 N 362.134 1.5431 0.320358 0
M  V30 4010 C 363.066 1.80262 1.41556 0
M  V30 4011 C 364.079 0.684723 1.477 0
M  V30 4012 O 365.268 0.961886 1.50366 0
M  V30 4013 C 362.368 1.90825 2.8007 0
M  V30 4014 C 361.541 3.21023 2.97091 0
M  V30 4015 C 360.6 3.22247 4.15985 0
M  V30 4016 O 359.626 3.95871 4.08992 0
M  V30 4017 N 360.828 2.46258 5.25678 0
M  V30 4018 H 363.593 2.74778 1.19655 0
M  V30 4019 H 361.154 1.53646 0.510358 0
M  V30 4020 H 363.146 1.89067 3.57821 0
M  V30 4021 H 361.716 1.03392 2.95006 0
M  V30 4022 H 360.936 3.35715 2.06614 0
M  V30 4023 H 362.224 4.0698 3.05361 0
M  V30 4024 H 361.622 1.86037 5.34235 0
M  V30 4025 H 360.179 2.50275 6.01835 0
M  V30 4026 N 363.613 -0.582584 1.46437 0
M  V30 4027 C 364.576 -1.67366 1.56592 0
M  V30 4028 C 365.576 -1.54575 0.443072 0
M  V30 4029 O 366.766 -1.59191 0.707381 0
M  V30 4030 C 363.898 -3.06791 1.48634 0
M  V30 4031 H 365.091 -1.5972 2.5383 0
M  V30 4032 H 362.644 -0.800432 1.34249 0
M  V30 4033 H 363.379 -3.19993 0.526763 0
M  V30 4034 H 363.164 -3.17484 2.30101 0
M  V30 4035 H 364.654 -3.86218 1.58826 0
M  V30 4036 N 365.091 -1.34144 -0.827227 0
M  V30 4037 C 366.316 -1.29476 -1.62021 0
M  V30 4038 C 366.741 0.129292 -1.87655 0
M  V30 4039 O 366.099 1.08967 -1.449 0
M  V30 4040 C 366.147 -2.08702 -2.94068 0
M  V30 4041 O 365.251 -1.45359 -3.85933 0
M  V30 4042 H 364.592 -0.444881 -0.492927 0
M  V30 4043 H 367.122 -1.76882 -1.02829 0
M  V30 4044 H 367.132 -2.19898 -3.43669 0
M  V30 4045 H 365.807 -3.12241 -2.74734 0
M  V30 4046 H 364.384 -1.42879 -3.44442 0
M  V30 4047 N 366.569 1.04691 -1.17803 0
M  V30 4048 C 367.516 2.12557 -0.899343 0
M  V30 4049 C 368.486 1.65339 0.158771 0
M  V30 4050 O 369.671 1.90789 0.0204797 0
M  V30 4051 C 366.811 3.42481 -0.424315 0
M  V30 4052 C 365.924 4.03346 -1.54713 0
M  V30 4053 C 365.059 5.21208 -1.02546 0
M  V30 4054 C 364.098 5.74089 -2.12339 0
M  V30 4055 N 363.235 6.83247 -1.61612 0
M  V30 4056 H 368.075 2.35734 -1.823 0
M  V30 4057 H 365.612 1.1564 -0.909159 0
M  V30 4058 H 367.57 4.16996 -0.130421 0
M  V30 4059 H 366.2 3.19471 0.462377 0
M  V30 4060 H 365.252 3.2622 -1.95664 0
M  V30 4061 H 366.564 4.38628 -2.37501 0
M  V30 4062 H 365.718 6.02812 -0.685718 0
M  V30 4063 H 364.457 4.87414 -0.167084 0
M  V30 4064 H 363.462 4.91111 -2.47165 0
M  V30 4065 H 364.687 6.0993 -2.98601 0
M  V30 4066 H 362.633 6.5134 -0.780533 0
M  V30 4067 H 362.55 7.17559 -2.38003 0
M  V30 4068 H 363.818 7.68491 -1.30545 0
M  V30 4069 N 368.047 0.979072 1.23499 0
M  V30 4070 C 369.01 0.523244 2.23147 0
M  V30 4071 C 370.01 -0.386406 1.56088 0
M  V30 4072 O 371.2 -0.180283 1.73265 0
M  V30 4073 C 368.332 -0.240739 3.40049 0
M  V30 4074 H 369.525 1.40432 2.64989 0
M  V30 4075 H 367.078 0.764824 1.36309 0
M  V30 4076 H 367.813 -1.13841 3.03662 0
M  V30 4077 H 367.598 0.412207 3.89927 0
M  V30 4078 H 369.088 -0.548297 4.13985 0
M  V30 4079 N 369.525 -1.3858 0.750561 0
M  V30 4080 C 370.802 -1.94231 0.231009 0
M  V30 4081 C 371.182 -1.68611 -1.27018 0
M  V30 4082 O 370.53 -1.02296 -2.04323 0
M  V30 4083 C 370.74 -3.44123 0.581428 0
M  V30 4084 C 372.088 -4.2116 0.539389 0
M  V30 4085 O 373.112 -3.52391 0.519541 0
M  V30 4086 O 371.971 -5.43749 0.54765 0
M  V30 4087 H 369.065 -0.825639 0.0474263 0
M  V30 4088 H 371.611 -1.4799 0.830478 0
M  V30 4089 H 370.383 -3.56267 1.61833 0
M  V30 4090 H 370.006 -3.97573 -0.0462047 0
M  V30 4091 N 371.003 -0.499398 -1.49478 0
M  V30 4092 C 371.951 0.293604 -2.3074 0
M  V30 4093 C 372.945 0.96427 -1.39277 0
M  V30 4094 O 374.151 0.892141 -1.56336 0
M  V30 4095 H 370.526 0.113541 -0.743379 0
M  V30 4096 H 372.497 -0.411772 -2.95545 0
M  V30 4097 C 371.246 1.3462 -3.20582 0
M  V30 4098 H 370.569 0.83954 -3.90886 0
M  V30 4099 H 372.009 1.87308 -3.80384 0
M  V30 4100 C 370.468 2.36351 -2.40083 0
M  V30 4101 O 370.998 3.422 -2.10385 0
M  V30 4102 N 369.204 2.0878 -2.02137 0
M  V30 4103 H 368.751 1.22723 -2.26488 0
M  V30 4104 H 368.709 2.77075 -1.48583 0
M  V30 4105 N 372.481 1.55866 -0.233164 0
M  V30 4106 C 373.428 2.20796 0.67215 0
M  V30 4107 C 374.398 1.16731 1.18166 0
M  V30 4108 O 375.583 1.45129 1.23864 0
M  V30 4109 C 372.723 2.90072 1.86955 0
M  V30 4110 C 371.836 4.08759 1.39786 0
M  V30 4111 C 370.971 4.65787 2.55374 0
M  V30 4112 C 370.01 5.76752 2.04998 0
M  V30 4113 N 369.147 6.28021 3.13901 0
M  V30 4114 H 373.987 2.9779 0.111749 0
M  V30 4115 H 371.524 1.47036 0.0434007 0
M  V30 4116 H 373.482 3.28428 2.57276 0
M  V30 4117 H 372.112 2.15575 2.40265 0
M  V30 4118 H 371.164 3.7581 0.589173 0
M  V30 4119 H 372.476 4.88906 0.98856 0
M  V30 4120 H 371.63 5.06646 3.33758 0
M  V30 4121 H 370.369 3.84828 2.99598 0
M  V30 4122 H 369.374 5.35383 1.25079 0
M  V30 4123 H 370.599 6.59553 1.61759 0
M  V30 4124 H 368.545 5.49971 3.57586 0
M  V30 4125 H 368.462 7.03323 2.7726 0
M  V30 4126 H 369.73 6.73538 3.92386 0
M  V30 4127 N 373.959 -0.0401083 1.57549 0
M  V30 4128 C 374.889 -1.04384 2.08869 0
M  V30 4129 C 375.87 -1.38407 0.988817 0
M  V30 4130 O 377.055 -1.47483 1.26342 0
M  V30 4131 C 374.185 -2.34808 2.55895 0
M  V30 4132 C 373.139 -2.15057 3.70047 0
M  V30 4133 C 372.465 -3.51145 4.03239 0
M  V30 4134 C 373.765 -1.54576 4.98902 0
M  V30 4135 H 375.459 -0.616666 2.92981 0
M  V30 4136 H 373.005 -0.295184 1.40942 0
M  V30 4137 H 374.958 -3.05346 2.90417 0
M  V30 4138 H 373.682 -2.79565 1.68853 0
M  V30 4139 H 372.341 -1.46954 3.35857 0
M  V30 4140 H 371.989 -3.93529 3.13279 0
M  V30 4141 H 371.689 -3.38758 4.80122 0
M  V30 4142 H 373.213 -4.23062 4.40285 0
M  V30 4143 H 374.627 -2.15017 5.31451 0
M  V30 4144 H 373.024 -1.52796 5.80322 0
M  V30 4145 H 374.094 -0.51039 4.82206 0
M  V30 4146 N 375.437 -1.54477 -0.31217 0
M  V30 4147 C 376.684 -1.73227 -1.04875 0
M  V30 4148 C 377.012 -0.512042 -1.87639 0
M  V30 4149 O 376.267 0.506131 -1.89042 0
M  V30 4150 C 376.566 -2.967 -1.99258 0
M  V30 4151 C 376.232 -4.30974 -1.32559 0
M  V30 4152 C 374.894 -4.67477 -1.141 0
M  V30 4153 C 377.246 -5.14258 -0.847835 0
M  V30 4154 C 374.574 -5.84852 -0.465326 0
M  V30 4155 C 376.926 -6.32327 -0.185931 0
M  V30 4156 C 375.59 -6.67499 0.0107077 0
M  V30 4157 H 374.86 -0.633881 -0.383765 0
M  V30 4158 H 377.507 -1.88727 -0.324731 0
M  V30 4159 H 375.812 -2.75935 -2.7815 0
M  V30 4160 H 377.509 -3.08401 -2.563 0
M  V30 4161 H 374.099 -4.02262 -1.4793 0
M  V30 4162 H 378.283 -4.86565 -0.978192 0
M  V30 4163 H 373.539 -6.10654 -0.301883 0
M  V30 4164 H 377.713 -6.96135 0.192211 0
M  V30 4165 H 375.34 -7.58306 0.536287 0
M  V30 4166 N 376.915 0.57481 -1.46744 0
M  V30 4167 C 377.845 1.69337 -1.60771 0
M  V30 4168 C 378.826 1.63825 -0.457736 0
M  V30 4169 O 380.011 1.8172 -0.684947 0
M  V30 4170 C 377.141 3.0798 -1.60517 0
M  V30 4171 C 376.095 3.28327 -2.74564 0
M  V30 4172 C 375.421 4.67578 -2.59373 0
M  V30 4173 C 376.721 3.15398 -4.16319 0
M  V30 4174 H 378.415 1.57853 -2.54407 0
M  V30 4175 H 375.961 0.75799 -1.22436 0
M  V30 4176 H 377.914 3.86061 -1.68923 0
M  V30 4177 H 376.638 3.20381 -0.634305 0
M  V30 4178 H 375.297 2.52649 -2.65639 0
M  V30 4179 H 374.945 4.76755 -1.60353 0
M  V30 4180 H 374.645 4.82144 -3.35873 0
M  V30 4181 H 376.169 5.47817 -2.69682 0
M  V30 4182 H 377.583 3.83315 -4.26313 0
M  V30 4183 H 375.98 3.41482 -4.93468 0
M  V30 4184 H 377.05 2.12372 -4.3592 0
M  V30 4185 N 378.394 1.34581 0.820102 0
M  V30 4186 C 379.342 1.26401 1.95258 0
M  V30 4187 C 380.336 0.161553 1.68628 0
M  V30 4188 O 381.542 0.326703 1.7701 0
M  V30 4189 H 377.917 0.392749 0.64129 0
M  V30 4190 H 379.888 2.22105 1.99279 0
M  V30 4191 C 378.637 1.03919 3.31807 0
M  V30 4192 H 377.96 1.87984 3.52848 0
M  V30 4193 H 379.4 1.02232 4.11491 0
M  V30 4194 C 377.859 -0.257433 3.35915 0
M  V30 4195 O 378.389 -1.25784 3.81499 0
M  V30 4196 N 376.595 -0.291524 2.89134 0
M  V30 4197 H 376.142 0.523161 2.52232 0
M  V30 4198 H 376.1 -1.15883 2.92264 0
M  V30 4199 N 379.872 -1.04064 1.18357 0
M  V30 4200 C 380.822 -2.10393 0.878561 0
M  V30 4201 C 381.806 -1.60183 -0.151713 0
M  V30 4202 O 382.998 -1.76923 0.0523303 0
M  V30 4203 C 380.127 -3.4089 0.406096 0
M  V30 4204 C 379.213 -3.97866 1.46844 0
M  V30 4205 N 379.604 -4.28657 2.68489 0
M  V30 4206 C 377.902 -4.2574 1.32896 0
M  V30 4207 C 378.603 -4.74253 3.36836 0
M  V30 4208 N 377.579 -4.75068 2.64219 0
M  V30 4209 H 381.381 -2.32076 1.80327 0
M  V30 4210 H 378.895 -1.21818 1.07397 0
M  V30 4211 H 380.892 -4.16557 0.169088 0
M  V30 4212 H 379.552 -3.20633 -0.512275 0
M  V30 4213 H 380.563 -4.18304 3.05356 0
M  V30 4214 H 377.24 -4.1481 0.473134 0
M  V30 4215 H 378.63 -5.07096 4.40798 0
M  V30 4216 N 381.35 -0.985608 -1.22978 0
M  V30 4217 C 382.599 -0.652881 -1.90841 0
M  V30 4218 C 382.912 0.817842 -1.77681 0
M  V30 4219 O 384.118 1.26185 -2.40395 0
M  V30 4220 C 382.574 -1.11717 -3.42122 0
M  V30 4221 C 382.182 -2.6126 -3.63933 0
M  V30 4222 C 383.926 -0.85843 -4.1573 0
M  V30 4223 C 381.833 -3.0133 -5.08876 0
M  V30 4224 H 380.763 -0.240491 -0.714619 0
M  V30 4225 H 383.414 -1.1942 -1.39324 0
M  V30 4226 H 381.796 -0.504027 -3.92779 0
M  V30 4227 H 382.97 -3.27858 -3.23799 0
M  V30 4228 H 381.285 -2.84937 -3.03644 0
M  V30 4229 H 383.882 -1.13359 -5.22546 0
M  V30 4230 H 384.225 0.205461 -4.15793 0
M  V30 4231 H 384.758 -1.43341 -3.71077 0
M  V30 4232 H 381.497 -4.06864 -5.13947 0
M  V30 4233 H 381.017 -2.3943 -5.49939 0
M  V30 4234 H 382.696 -2.92224 -5.77247 0
M  V30 4235 N 382.828 1.3818 -0.7579 0
M  V30 4236 C 384.053 2.04827 -0.325679 0
M  V30 4237 C 384.478 1.56788 1.03919 0
M  V30 4238 O 383.836 0.721811 1.66312 0
M  V30 4239 C 383.884 3.58774 -0.362447 0
M  V30 4240 O 382.988 4.07372 0.642033 0
M  V30 4241 H 382.329 0.64833 -0.143402 0
M  V30 4242 H 384.859 1.7677 -1.03023 0
M  V30 4243 H 384.869 4.07434 -0.214844 0
M  V30 4244 H 383.544 3.93096 -1.35824 0
M  V30 4245 H 382.121 3.70068 0.458688 0
M  V30 4246 N 384.306 0.507319 1.49211 0
M  V30 4247 C 385.269 -0.256763 2.27757 0
M  V30 4248 C 386.269 -0.888287 1.34038 0
M  V30 4249 O 387.459 -0.751841 1.5714 0
M  V30 4250 C 384.591 -1.36905 3.12202 0
M  V30 4251 H 385.784 0.432557 2.96764 0
M  V30 4252 H 383.337 0.262488 1.5408 0
M  V30 4253 H 384.072 -2.09233 2.47775 0
M  V30 4254 H 383.857 -0.921599 3.81115 0
M  V30 4255 H 385.347 -1.9071 3.7151 0
M  V30 4256 N 385.784 -1.5574 0.241426 0
M  V30 4257 C 387.012 -2.03208 -0.389134 0
M  V30 4258 C 387.427 -1.12082 -1.51931 0
M  V30 4259 O 386.784 -0.134183 -1.82006 0
M  V30 4260 C 386.835 -3.50064 -0.902087 0
M  V30 4261 O 386.556 -4.37717 0.18305 0
M  V30 4262 C 388.057 -4.13268 -1.60389 0
M  V30 4263 H 385.277 -0.664509 -0.0931053 0
M  V30 4264 H 387.821 -2.0124 0.36369 0
M  V30 4265 H 385.976 -3.52583 -1.60511 0
M  V30 4266 H 386.39 -5.24097 -0.205579 0
M  V30 4267 H 387.864 -5.17733 -1.91458 0
M  V30 4268 H 388.341 -3.59434 -2.52397 0
M  V30 4269 H 388.947 -4.14655 -0.945576 0
M  V30 4270 N 387.262 0.0317525 -1.57568 0
M  V30 4271 C 388.487 0.738664 -1.938 0
M  V30 4272 C 388.912 1.68242 -0.841208 0
M  V30 4273 O 388.27 1.80157 0.203267 0
M  V30 4274 C 388.318 1.47417 -3.29091 0
M  V30 4275 O 387.422 2.5872 -3.2115 0
M  V30 4276 H 386.763 0.198856 -0.633524 0
M  V30 4277 H 389.293 -0.0119713 -2.04596 0
M  V30 4278 H 389.303 1.84468 -3.63917 0
M  V30 4279 H 387.978 0.781988 -4.08482 0
M  V30 4280 H 386.555 2.24231 -2.97951 0
M  V30 4281 N 388.74 1.54641 0.303973 0
M  V30 4282 C 389.67 1.88386 1.3796 0
M  V30 4283 C 390.651 0.742485 1.5304 0
M  V30 4284 O 391.836 0.997959 1.66597 0
M  V30 4285 C 388.966 2.12854 2.74427 0
M  V30 4286 C 387.92 3.28702 2.74115 0
M  V30 4287 C 387.246 3.38582 4.13844 0
M  V30 4288 C 388.546 4.65881 2.3612 0
M  V30 4289 H 390.24 2.78474 1.09966 0
M  V30 4290 H 387.786 1.33988 0.527556 0
M  V30 4291 H 389.739 2.35047 3.49758 0
M  V30 4292 H 388.463 1.19535 3.03939 0
M  V30 4293 H 387.122 3.06428 2.0124 0
M  V30 4294 H 386.77 2.42784 4.40528 0
M  V30 4295 H 386.47 4.16453 4.14537 0
M  V30 4296 H 387.994 3.63031 4.90959 0
M  V30 4297 H 389.408 4.87823 3.01167 0
M  V30 4298 H 387.805 5.46444 2.48031 0
M  V30 4299 H 388.875 4.66799 1.3125 0
M  V30 4300 N 390.218 -0.567019 1.47046 0
M  V30 4301 C 391.446 -1.35027 1.56765 0
M  V30 4302 C 391.861 -1.8758 0.214316 0
M  V30 4303 O 391.218 -1.64471 -0.790919 0
M  V30 4304 C 391.269 -2.52698 2.58507 0
M  V30 4305 O 390.99 -2.0232 3.88585 0
M  V30 4306 C 392.491 -3.45043 2.78316 0
M  V30 4307 H 389.711 -0.41195 0.529658 0
M  V30 4308 H 392.255 -0.687832 1.92585 0
M  V30 4309 H 390.41 -3.149 2.25648 0
M  V30 4310 H 390.824 -2.79068 4.44096 0
M  V30 4311 H 392.298 -4.2405 3.53391 0
M  V30 4312 H 392.775 -3.97971 1.85784 0
M  V30 4313 H 393.381 -2.88665 3.12334 0
M  V30 4314 N 391.696 -1.35014 -0.812953 0
M  V30 4315 C 392.943 -1.27931 -1.56971 0
M  V30 4316 C 393.271 0.148034 -1.93936 0
M  V30 4317 O 392.526 1.11175 -1.61054 0
M  V30 4318 C 392.825 -2.12524 -2.87347 0
M  V30 4319 C 392.491 -3.61401 -2.6963 0
M  V30 4320 C 391.153 -4.01983 -2.64506 0
M  V30 4321 C 393.505 -4.55894 -2.52607 0
M  V30 4322 C 390.833 -5.35235 -2.40293 0
M  V30 4323 C 393.185 -5.89336 -2.29925 0
M  V30 4324 C 391.849 -6.2907 -2.23219 0
M  V30 4325 H 391.119 -0.468131 -0.574399 0
M  V30 4326 H 393.766 -1.66851 -0.939836 0
M  V30 4327 H 392.071 -1.66463 -3.54679 0
M  V30 4328 H 393.768 -2.04383 -3.45005 0
M  V30 4329 H 390.358 -3.29193 -2.74463 0
M  V30 4330 H 394.542 -4.25431 -2.55583 0
M  V30 4331 H 389.798 -5.65028 -2.33566 0
M  V30 4332 H 393.972 -6.62139 -2.15743 0
M  V30 4333 H 391.599 -7.32256 -2.04219 0
M  V30 4334 N 393.175 1.03435 -1.18907 0
M  V30 4335 C 394.403 1.80381 -1.01342 0
M  V30 4336 C 394.818 1.83649 0.438005 0
M  V30 4337 O 394.175 1.27655 1.30424 0
M  V30 4338 C 394.226 3.25689 -1.56873 0
M  V30 4339 O 393.947 3.22673 -2.96334 0
M  V30 4340 C 395.448 4.19255 -1.44014 0
M  V30 4341 H 392.668 0.56784 -0.35749 0
M  V30 4342 H 395.212 1.30317 -1.576 0
M  V30 4343 H 393.367 3.72962 -1.04777 0
M  V30 4344 H 393.781 4.13748 -3.22355 0
M  V30 4345 H 395.255 5.19123 -1.87657 0
M  V30 4346 H 395.732 4.37467 -0.389815 0
M  V30 4347 H 396.338 3.77851 -1.95214 0
M  V30 4348 N 394.653 0.992116 1.22453 0
M  V30 4349 C 396.064 0.702776 1.72968 0
M  V30 4350 C 396.415 -0.780399 1.80012 0
M  V30 4351 O 395.54 -1.61007 1.44589 0
M  V30 4352 C 396.135 1.26903 3.14135 0
M  V30 4353 C 394.694 1.02909 3.62059 0
M  V30 4354 C 393.841 1.38969 2.39964 0
M  V30 4355 H 396.792 1.16457 1.07812 0
M  V30 4356 H 396.813 0.647223 3.74955 0
M  V30 4357 H 396.325 2.34851 3.08977 0
M  V30 4358 H 394.426 -0.0337979 3.72585 0
M  V30 4359 H 394.539 1.69191 4.48231 0
M  V30 4360 H 392.903 0.808279 2.41535 0
M  V30 4361 H 393.686 2.4792 2.37467 0
M  V30 4362 N 396.131 -1.37776 0.765217 0
M  V30 4363 C 397.547 -1.53297 0.444108 0
M  V30 4364 C 397.747 -1.72515 -1.04119 0
M  V30 4365 O 396.803 -1.74278 -1.82711 0
M  V30 4366 C 398.116 -2.73328 1.25349 0
M  V30 4367 C 399.664 -2.87185 1.24473 0
M  V30 4368 C 400.139 -4.10191 2.03733 0
M  V30 4369 N 401.63 -4.17291 2.01053 0
M  V30 4370 C 402.365 -5.11488 2.59166 0
M  V30 4371 N 401.861 -6.11285 3.26041 0
M  V30 4372 N 403.654 -5.03924 2.49032 0
M  V30 4373 H 395.805 -1.23552 1.72768 0
M  V30 4374 H 398.068 -0.601103 0.733062 0
M  V30 4375 H 397.774 -2.6557 2.30577 0
M  V30 4376 H 397.648 -3.66834 0.87823 0
M  V30 4377 H 400.035 -2.94418 0.20047 0
M  V30 4378 H 400.116 -1.94657 1.65959 0
M  V30 4379 H 399.76 -4.0372 3.08176 0
M  V30 4380 H 399.69 -5.01821 1.59633 0
M  V30 4381 H 402.181 -3.45825 1.5236 0
M  V30 4382 H 402.494 -6.79678 3.67774 0
M  V30 4383 H 400.839 -6.11583 3.30138 0
M  V30 4384 H 404.03 -4.24902 1.96407 0
M  V30 4385 H 404.203 -5.77152 2.94617 0
M  V30 4386 N 397.609 -0.515225 -1.4894 0
M  V30 4387 C 398.541 0.292481 -2.27326 0
M  V30 4388 C 399.554 0.917838 -1.3446 0
M  V30 4389 O 400.743 0.798772 -1.5963 0
M  V30 4390 C 397.843 1.42803 -3.07344 0
M  V30 4391 C 397.016 0.907347 -4.27885 0
M  V30 4392 C 396.075 1.92222 -4.89834 0
M  V30 4393 O 395.101 1.48506 -5.49486 0
M  V30 4394 N 396.303 3.25355 -4.80754 0
M  V30 4395 H 399.068 -0.379721 -2.97285 0
M  V30 4396 H 396.629 -0.348638 -1.58102 0
M  V30 4397 H 398.621 2.10481 -3.45658 0
M  V30 4398 H 397.191 2.00414 -2.39902 0
M  V30 4399 H 396.411 0.0550218 -3.94162 0
M  V30 4400 H 397.699 0.538108 -5.05946 0
M  V30 4401 H 397.097 3.6355 -4.33414 0
M  V30 4402 H 395.654 3.88707 -5.23211 0
M  V30 4403 N 399.087 1.5561 -0.249682 0
M  V30 4404 C 400.317 2.03116 0.377803 0
M  V30 4405 C 400.725 1.12822 1.51881 0
M  V30 4406 O 400.068 0.13562 1.83199 0
M  V30 4407 C 400.13 3.46866 0.944693 0
M  V30 4408 C 399.794 4.56955 -0.0644259 0
M  V30 4409 C 400.791 5.12485 -0.874957 0
M  V30 4410 C 398.476 5.01936 -0.19132 0
M  V30 4411 C 400.47 6.11491 -1.79881 0
M  V30 4412 C 398.157 6.00773 -1.11868 0
M  V30 4413 C 399.155 6.5543 -1.92095 0
M  V30 4414 O 398.843 7.5234 -2.83267 0
M  V30 4415 H 398.575 0.669489 0.0935961 0
M  V30 4416 H 401.129 2.02004 -0.371966 0
M  V30 4417 H 399.359 3.45136 1.74407 0
M  V30 4418 H 401.048 3.77856 1.48255 0
M  V30 4419 H 401.814 4.78564 -0.787523 0
M  V30 4420 H 397.693 4.59055 0.423072 0
M  V30 4421 H 401.237 6.54078 -2.42543 0
M  V30 4422 H 397.134 6.34114 -1.20703 0
M  V30 4423 H 397.902 7.69966 -2.7766 0
M  V30 4424 N 400.565 -0.0233959 1.57583 0
M  V30 4425 C 401.528 -1.00693 2.05897 0
M  V30 4426 C 402.528 -1.28693 0.964092 0
M  V30 4427 O 403.718 -1.23602 1.22753 0
M  V30 4428 C 400.85 -2.33825 2.4807 0
M  V30 4429 H 402.043 -0.589476 2.9405 0
M  V30 4430 H 399.596 -0.270354 1.53944 0
M  V30 4431 H 400.331 -2.80307 1.6309 0
M  V30 4432 H 400.116 -2.1483 3.2801 0
M  V30 4433 H 401.606 -3.04426 2.85857 0
M  V30 4434 N 402.043 -1.548 -0.295768 0
M  V30 4435 C 403.006 -1.85363 -1.34808 0
M  V30 4436 C 404.006 -0.726817 -1.43436 0
M  V30 4437 O 405.196 -0.995088 -1.42981 0
M  V30 4438 C 402.328 -2.03859 -2.73229 0
M  V30 4439 H 403.521 -2.7941 -1.08949 0
M  V30 4440 H 401.074 -1.46942 -0.532702 0
M  V30 4441 H 401.809 -1.12117 -3.04303 0
M  V30 4442 H 401.594 -2.8588 -2.68356 0
M  V30 4443 H 403.084 -2.28857 -3.49305 0
M  V30 4444 N 403.521 0.559213 -1.47345 0
M  V30 4445 C 404.484 1.64854 -1.59235 0
M  V30 4446 C 405.484 1.53851 -0.467607 0
M  V30 4447 O 406.674 1.58045 -0.732617 0
M  V30 4448 C 403.806 3.04388 -1.53496 0
M  V30 4449 H 404.999 1.55662 -2.56339 0
M  V30 4450 H 402.552 0.778973 -1.35505 0
M  V30 4451 H 403.287 3.19115 -0.577604 0
M  V30 4452 H 403.072 3.13783 -2.35123 0
M  V30 4453 H 404.562 3.83642 -1.6495 0
M  V30 4454 N 404.999 1.35443 0.805782 0
M  V30 4455 C 405.929 1.31095 1.93226 0
M  V30 4456 C 406.91 0.185244 1.69088 0
M  V30 4457 O 408.095 0.380332 1.90439 0
M  V30 4458 C 405.225 1.08299 3.29983 0
M  V30 4459 C 404.179 2.17519 3.68605 0
M  V30 4460 C 403.505 1.79887 5.03532 0
M  V30 4461 C 404.805 3.5949 3.78898 0
M  V30 4462 H 406.499 2.25352 1.97122 0
M  V30 4463 H 404.045 1.0848 0.946996 0
M  V30 4464 H 405.998 1.03897 4.08391 0
M  V30 4465 H 404.722 0.104885 3.26432 0
M  V30 4466 H 403.381 2.2102 2.92482 0
M  V30 4467 H 403.029 0.80693 4.96485 0
M  V30 4468 H 402.729 2.53001 5.30344 0
M  V30 4469 H 404.253 1.77011 5.84379 0
M  V30 4470 H 405.667 3.58307 4.47536 0
M  V30 4471 H 404.064 4.31371 4.1718 0
M  V30 4472 H 405.134 3.95584 2.80431 0
M  V30 4473 N 406.477 -1.02803 1.19454 0
M  V30 4474 C 407.425 -2.13213 0.929673 0
M  V30 4475 C 408.419 -1.69011 -0.114806 0
M  V30 4476 O 409.625 -1.79967 0.0345147 0
M  V30 4477 H 406 -0.69662 0.28324 0
M  V30 4478 H 407.971 -2.32744 1.86743 0
M  V30 4479 C 406.72 -3.4429 0.485797 0
M  V30 4480 H 406.043 -3.7872 1.28105 0
M  V30 4481 H 407.483 -4.22638 0.339582 0
M  V30 4482 C 405.942 -3.27258 -0.800244 0
M  V30 4483 O 406.472 -3.55967 -1.86146 0
M  V30 4484 N 404.678 -2.80545 -0.75781 0
M  V30 4485 H 404.225 -2.57382 0.106039 0
M  V30 4486 H 404.183 -2.6953 -1.61867 0
M  V30 4487 N 407.956 -0.998596 -1.21925 0
M  V30 4488 C 408.904 -0.546641 -2.26085 0
M  V30 4489 C 409.898 0.405576 -1.64473 0
M  V30 4490 O 411.104 0.277471 -1.77849 0
M  V30 4491 H 407.479 -0.158403 -0.735127 0
M  V30 4492 H 409.45 -1.43645 -2.61551 0
M  V30 4493 C 408.199 0.117388 -3.47502 0
M  V30 4494 H 407.522 -0.606277 -3.95176 0
M  V30 4495 H 408.962 0.396993 -4.22137 0
M  V30 4496 C 407.421 1.35455 -3.0847 0
M  V30 4497 O 407.951 2.44944 -3.18379 0
M  V30 4498 N 406.157 1.23191 -2.63196 0
M  V30 4499 H 405.704 0.341006 -2.55333 0
M  V30 4500 H 405.662 2.06071 -2.37449 0
M  V30 4501 N 409.434 1.37368 -0.772513 0
M  V30 4502 C 410.381 2.30262 -0.157488 0
M  V30 4503 C 411.351 1.51137 0.688965 0
M  V30 4504 O 412.536 1.79704 0.641168 0
M  V30 4505 C 409.676 3.37611 0.715045 0
M  V30 4506 C 408.789 4.31746 -0.148098 0
M  V30 4507 C 407.924 5.26171 0.729213 0
M  V30 4508 C 406.963 6.11948 -0.136418 0
M  V30 4509 N 406.1 6.98613 0.698914 0
M  V30 4510 H 410.94 2.82277 -0.955179 0
M  V30 4511 H 408.477 1.38957 -0.482631 0
M  V30 4512 H 410.435 3.98479 1.23575 0
M  V30 4513 H 409.065 2.86959 1.47833 0
M  V30 4514 H 408.117 3.72178 -0.786613 0
M  V30 4515 H 409.429 4.92084 -0.81579 0
M  V30 4516 H 408.583 5.92247 1.31637 0
M  V30 4517 H 407.322 4.66246 1.43059 0
M  V30 4518 H 406.327 5.4485 -0.736102 0
M  V30 4519 H 407.552 6.73945 -0.835134 0
M  V30 4520 H 405.498 6.41215 1.38489 0
M  V30 4521 H 405.415 7.55948 0.0885358 0
M  V30 4522 H 406.683 7.69077 1.27044 0
M  V30 4523 N 410.912 0.523116 1.48665 0
M  V30 4524 C 412.158 -0.0134963 2.02796 0
M  V30 4525 C 412.491 -1.34582 1.40004 0
M  V30 4526 O 411.766 -1.86756 0.543381 0
M  V30 4527 C 412.049 -0.14276 3.59817 0
M  V30 4528 C 411.902 1.21425 4.331 0
M  V30 4529 C 413.221 -0.872856 4.31357 0
M  V30 4530 H 410.34 -0.00343074 0.736992 0
M  V30 4531 H 412.982 0.678816 1.7746 0
M  V30 4532 H 411.132 -0.732401 3.81534 0
M  V30 4533 H 412.804 1.84447 4.2282 0
M  V30 4534 H 411.047 1.79791 3.94788 0
M  V30 4535 H 411.718 1.07687 5.41394 0
M  V30 4536 H 414.194 -0.372555 4.14429 0
M  V30 4537 H 413.07 -0.932185 5.40927 0
M  V30 4538 H 413.331 -1.92161 3.98154 0
M  V30 4539 N 412.39 -1.55475 0.257931 0
M  V30 4540 C 413.3 -2.2549 -0.647425 0
M  V30 4541 C 414.316 -1.2748 -1.18427 0
M  V30 4542 O 415.492 -1.6038 -1.2182 0
M  V30 4543 C 412.557 -2.94916 -1.82278 0
M  V30 4544 C 411.618 -4.08363 -1.32432 0
M  V30 4545 C 410.851 -4.74469 -2.44366 0
M  V30 4546 O 411.074 -4.39701 -3.63344 0
M  V30 4547 O 410.008 -5.62763 -2.13497 0
M  V30 4548 H 413.834 -3.03593 -0.0807707 0
M  V30 4549 H 411.419 -1.49377 0.0259962 0
M  V30 4550 H 413.301 -3.38606 -2.50846 0
M  V30 4551 H 411.976 -2.19744 -2.37685 0
M  V30 4552 H 410.883 -3.69166 -0.605605 0
M  V30 4553 H 412.216 -4.85385 -0.816211 0
M  V30 4554 N 413.868 0.0150385 -1.57593 0
M  V30 4555 C 414.8 1.03912 -2.04291 0
M  V30 4556 C 415.813 1.31618 -0.958146 0
M  V30 4557 O 417.002 1.28859 -1.23522 0
M  V30 4558 C 414.102 2.37749 -2.41514 0
M  V30 4559 C 413.275 2.29198 -3.72541 0
M  V30 4560 C 412.334 3.45598 -3.96797 0
M  V30 4561 O 411.36 3.24461 -4.67668 0
M  V30 4562 N 412.562 4.67945 -3.43523 0
M  V30 4563 H 415.327 0.64099 -2.92765 0
M  V30 4564 H 412.888 0.20272 -1.60626 0
M  V30 4565 H 414.88 3.14364 -2.54867 0
M  V30 4566 H 413.45 2.69357 -1.58637 0
M  V30 4567 H 412.67 1.3759 -3.69408 0
M  V30 4568 H 413.958 2.20642 -4.5847 0
M  V30 4569 H 413.356 4.88017 -2.86104 0
M  V30 4570 H 411.913 5.41878 -3.62232 0
M  V30 4571 N 415.346 1.54954 0.287554 0
M  V30 4572 C 416.593 1.74873 1.02106 0
M  V30 4573 C 416.921 0.541829 1.86801 0
M  V30 4574 O 416.176 -0.475992 1.89823 0
M  V30 4575 C 416.475 2.99833 1.94512 0
M  V30 4576 C 416.141 4.33029 1.25686 0
M  V30 4577 C 414.803 4.69233 1.06649 0
M  V30 4578 C 417.155 5.15542 0.765913 0
M  V30 4579 C 414.483 5.85518 0.372222 0
M  V30 4580 C 416.835 6.32542 0.0853101 0
M  V30 4581 C 415.499 6.67398 -0.1169 0
M  V30 4582 H 414.769 0.639906 0.373632 0
M  V30 4583 H 417.416 1.89219 0.294665 0
M  V30 4584 H 415.721 2.80325 2.73725 0
M  V30 4585 H 417.418 3.1244 2.51361 0
M  V30 4586 H 414.008 4.04564 1.41512 0
M  V30 4587 H 418.192 4.88059 0.90066 0
M  V30 4588 H 413.448 6.11057 0.204695 0
M  V30 4589 H 417.622 6.95741 -0.302936 0
M  V30 4590 H 415.249 7.57357 -0.656859 0
M  V30 4591 N 416.824 -0.551391 1.4764 0
M  V30 4592 C 418.07 -1.31024 1.54792 0
M  V30 4593 C 418.403 -1.9304 0.211967 0
M  V30 4594 O 417.678 -1.78175 -0.77999 0
M  V30 4595 C 417.961 -2.41593 2.67029 0
M  V30 4596 C 417.814 -1.84408 4.10261 0
M  V30 4597 C 419.133 -3.43488 2.75143 0
M  V30 4598 H 416.252 -0.475031 0.563485 0
M  V30 4599 H 418.894 -0.616454 1.79722 0
M  V30 4600 H 417.044 -3.00772 2.45904 0
M  V30 4601 H 418.716 -1.29445 4.42766 0
M  V30 4602 H 416.959 -1.15051 4.18265 0
M  V30 4603 H 417.63 -2.64367 4.84576 0
M  V30 4604 H 420.106 -2.94236 2.94218 0
M  V30 4605 H 418.982 -4.18274 3.55441 0
M  V30 4606 H 419.243 -4.02703 1.82435 0
M  V30 4607 N 418.302 -1.35869 -0.798587 0
M  V30 4608 C 419.232 -1.32118 -1.92528 0
M  V30 4609 C 420.213 -0.194209 -1.68988 0
M  V30 4610 O 421.398 -0.390426 -1.90235 0
M  V30 4611 C 418.528 -1.10047 -3.29404 0
M  V30 4612 C 417.482 -2.19471 -3.67446 0
M  V30 4613 C 416.808 -1.82555 -5.02571 0
M  V30 4614 C 418.108 -3.61495 -3.76987 0
M  V30 4615 H 419.802 -2.26394 -1.95924 0
M  V30 4616 H 417.348 -1.08981 -0.94123 0
M  V30 4617 H 419.301 -1.06061 -4.07835 0
M  V30 4618 H 418.025 -0.122195 -3.26371 0
M  V30 4619 H 416.684 -2.22568 -2.91306 0
M  V30 4620 H 416.332 -0.833249 -4.9605 0
M  V30 4621 H 416.032 -2.5581 -5.28995 0
M  V30 4622 H 417.556 -1.80108 -5.83432 0
M  V30 4623 H 418.97 -3.60676 -4.4563 0
M  V30 4624 H 417.367 -4.33577 -4.14887 0
M  V30 4625 H 418.437 -3.97065 -2.78329 0
M  V30 4626 N 419.78 1.02168 -1.19998 0
M  V30 4627 C 420.728 2.12717 -0.940967 0
M  V30 4628 C 421.722 1.69069 0.105841 0
M  V30 4629 O 422.928 1.79946 -0.0440583 0
M  V30 4630 H 419.303 0.695108 -0.28693 0
M  V30 4631 H 421.274 2.3175 -1.87975 0
M  V30 4632 C 420.023 3.44027 -0.504049 0
M  V30 4633 H 419.346 3.78036 -1.30112 0
M  V30 4634 H 420.786 4.22452 -0.361991 0
M  V30 4635 C 419.245 3.27678 0.782878 0
M  V30 4636 O 419.775 3.56949 1.84256 0
M  V30 4637 N 417.981 2.80943 0.742921 0
M  V30 4638 H 417.528 2.57322 -0.119687 0
M  V30 4639 H 417.486 2.70385 1.60435 0
M  V30 4640 N 421.258 1.00505 1.21394 0
M  V30 4641 C 422.188 0.585684 2.26035 0
M  V30 4642 C 423.169 -0.393525 1.65485 0
M  V30 4643 O 424.354 -0.281497 1.92149 0
M  V30 4644 C 421.484 -0.0884283 3.47187 0
M  V30 4645 C 420.438 0.810567 4.20254 0
M  V30 4646 C 419.764 0.00286382 5.347 0
M  V30 4647 C 421.064 2.1132 4.77641 0
M  V30 4648 H 422.758 1.46039 2.61368 0
M  V30 4649 H 420.304 0.703648 1.25638 0
M  V30 4650 H 422.257 -0.393286 4.19561 0
M  V30 4651 H 420.981 -0.997766 3.10986 0
M  V30 4652 H 419.64 1.09925 3.49731 0
M  V30 4653 H 419.288 -0.907765 4.94741 0
M  V30 4654 H 418.988 0.601444 5.84514 0
M  V30 4655 H 420.512 -0.295808 6.09883 0
M  V30 4656 H 421.926 1.87148 5.41893 0
M  V30 4657 H 420.323 2.66164 5.37845 0
M  V30 4658 H 421.393 2.78393 3.9702 0
M  V30 4659 N 422.737 -1.36956 0.779787 0
M  V30 4660 C 423.965 -2.03755 0.359398 0
M  V30 4661 C 424.38 -1.58807 -1.02106 0
M  V30 4662 O 423.737 -0.773024 -1.6532 0
M  V30 4663 C 423.788 -3.59251 0.402568 0
M  V30 4664 O 423.509 -4.02557 1.72858 0
M  V30 4665 C 425.01 -4.43291 -0.0284068 0
M  V30 4666 H 422.23 -0.654148 0.149437 0
M  V30 4667 H 424.774 -1.75128 1.05595 0
M  V30 4668 H 422.929 -3.86621 -0.245478 0
M  V30 4669 H 423.343 -4.97111 1.67275 0
M  V30 4670 H 424.817 -5.51975 0.0529466 0
M  V30 4671 H 425.294 -4.25719 -1.07982 0
M  V30 4672 H 425.9 -4.21163 0.591758 0
M  V30 4673 N 424.215 -0.530993 -1.48385 0
M  V30 4674 C 425.44 0.000729535 -2.074 0
M  V30 4675 C 425.865 1.27298 -1.3848 0
M  V30 4676 O 425.223 1.75599 -0.451081 0
M  V30 4677 C 425.271 0.206697 -3.60007 0
M  V30 4678 O 424.375 1.27514 -3.92191 0
M  V30 4679 H 423.716 -0.039583 -0.662819 0
M  V30 4680 H 426.246 -0.739194 -1.9078 0
M  V30 4681 H 426.256 0.42904 -4.05738 0
M  V30 4682 H 424.931 -0.722675 -4.09573 0
M  V30 4683 H 423.508 1.03537 -3.58238 0
M  V30 4684 N 425.693 1.55336 -0.266172 0
M  V30 4685 C 426.603 2.2583 0.635458 0
M  V30 4686 C 427.619 1.28106 1.17749 0
M  V30 4687 O 428.795 1.61024 1.20968 0
M  V30 4688 C 425.86 2.95879 1.80712 0
M  V30 4689 C 424.921 4.09059 1.30265 0
M  V30 4690 C 424.154 4.75759 2.41846 0
M  V30 4691 O 424.377 4.41622 3.61007 0
M  V30 4692 O 423.311 5.63888 2.1051 0
M  V30 4693 H 427.137 3.03631 0.0646693 0
M  V30 4694 H 424.722 1.49361 -0.0339177 0
M  V30 4695 H 426.604 3.39932 2.49047 0
M  V30 4696 H 425.279 2.21002 2.36516 0
M  V30 4697 H 424.186 3.69482 0.586019 0
M  V30 4698 H 425.519 4.85811 0.790458 0
M  V30 4699 N 427.171 -0.0066808 1.57599 0
M  V30 4700 C 428.118 -1.00024 2.08 0
M  V30 4701 C 429.088 -1.34549 0.973943 0
M  V30 4702 O 430.273 -1.44502 1.24595 0
M  V30 4703 C 427.413 -2.2891 2.58252 0
M  V30 4704 C 426.526 -2.00346 3.82734 0
M  V30 4705 C 425.661 -3.23265 4.21513 0
M  V30 4706 C 424.7 -2.90357 5.3885 0
M  V30 4707 N 423.837 -4.05793 5.72954 0
M  V30 4708 H 428.677 -0.563499 2.92624 0
M  V30 4709 H 426.214 -0.266592 1.44664 0
M  V30 4710 H 428.172 -3.04247 2.85464 0
M  V30 4711 H 426.802 -2.70265 1.76512 0
M  V30 4712 H 425.854 -1.15406 3.62471 0
M  V30 4713 H 427.166 -1.72086 4.68175 0
M  V30 4714 H 426.32 -4.06953 4.49971 0
M  V30 4715 H 425.059 -3.54657 3.34768 0
M  V30 4716 H 424.064 -2.05075 5.10122 0
M  V30 4717 H 425.289 -2.60219 6.27266 0
M  V30 4718 H 423.235 -4.37094 4.89167 0
M  V30 4719 H 423.152 -3.81034 6.52954 0
M  V30 4720 H 424.42 -4.90289 6.06001 0
M  V30 4721 N 428.649 -1.55105 -0.279332 0
M  V30 4722 C 429.895 -1.75672 -1.01327 0
M  V30 4723 C 430.228 -0.552739 -1.86168 0
M  V30 4724 O 429.503 0.449827 -1.89227 0
M  V30 4725 C 429.786 -3.05825 -1.90114 0
M  V30 4726 C 429.639 -4.36565 -1.08309 0
M  V30 4727 C 430.958 -3.31975 -2.8893 0
M  V30 4728 H 428.077 -0.639149 -0.366957 0
M  V30 4729 H 430.719 -1.87833 -0.286154 0
M  V30 4730 H 428.869 -2.95588 -2.52111 0
M  V30 4731 H 430.541 -4.58751 -0.484314 0
M  V30 4732 H 428.784 -4.32076 -0.386362 0
M  V30 4733 H 429.455 -5.23946 -1.73737 0
M  V30 4734 H 431.931 -3.41963 -2.37067 0
M  V30 4735 H 430.807 -4.2432 -3.48201 0
M  V30 4736 H 431.068 -2.51309 -3.63725 0
M  V30 4737 N 430.127 0.543554 -1.4793 0
M  V30 4738 C 431.543 0.870806 -1.3375 0
M  V30 4739 C 431.743 1.9864 -0.338261 0
M  V30 4740 O 430.799 2.51305 0.245371 0
M  V30 4741 C 432.112 1.25114 -2.73435 0
M  V30 4742 C 433.66 1.3618 -2.81823 0
M  V30 4743 C 434.135 1.77563 -4.22179 0
M  V30 4744 N 435.626 1.8469 -4.24787 0
M  V30 4745 C 436.361 2.18067 -5.30315 0
M  V30 4746 N 435.857 2.49963 -6.46135 0
M  V30 4747 N 437.65 2.18958 -5.17701 0
M  V30 4748 H 429.801 -0.19275 -2.11524 0
M  V30 4749 H 432.064 -0.0235777 -0.947707 0
M  V30 4750 H 431.77 0.50514 -3.48053 0
M  V30 4751 H 431.644 2.20431 -3.06088 0
M  V30 4752 H 434.031 2.09859 -2.07468 0
M  V30 4753 H 434.112 0.390169 -2.52807 0
M  V30 4754 H 433.756 1.04449 -4.97044 0
M  V30 4755 H 433.686 2.75753 -4.48629 0
M  V30 4756 H 436.177 1.62372 -3.41239 0
M  V30 4757 H 436.49 2.74497 -7.22406 0
M  V30 4758 H 434.835 2.47513 -6.49432 0
M  V30 4759 H 438.026 1.93488 -4.2624 0
M  V30 4760 H 438.199 2.44639 -6.00047 0
M  V30 4761 N 431.605 1.3629 0.791371 0
M  V30 4762 C 432.853 1.30154 1.5461 0
M  V30 4763 C 433.174 -0.119409 1.94634 0
M  V30 4764 O 432.444 -1.05924 1.64794 0
M  V30 4765 H 431.024 0.478784 0.573389 0
M  V30 4766 H 433.686 1.70565 0.94306 0
M  V30 4767 H 432.782 1.92762 2.45457 0
M  V30 4768 N 433.083 -1.0153 1.20538 0
M  V30 4769 C 434.013 -2.11972 0.979295 0
M  V30 4770 C 434.994 -1.6985 -0.0921787 0
M  V30 4771 O 436.179 -1.94089 0.0655932 0
M  V30 4772 C 433.309 -3.43201 0.531984 0
M  V30 4773 C 432.263 -3.9907 1.54685 0
M  V30 4774 C 431.589 -5.26082 0.956127 0
M  V30 4775 C 432.889 -4.32313 2.93092 0
M  V30 4776 H 434.583 -2.31143 1.90298 0
M  V30 4777 H 432.129 -1.11079 0.916372 0
M  V30 4778 H 434.082 -4.1985 0.361044 0
M  V30 4779 H 432.806 -3.23792 -0.427327 0
M  V30 4780 H 431.465 -3.2453 1.70517 0
M  V30 4781 H 431.113 -5.02999 -0.0111538 0
M  V30 4782 H 430.813 -5.64426 1.63393 0
M  V30 4783 H 432.337 -6.05386 0.796284 0
M  V30 4784 H 433.751 -4.99845 2.80763 0
M  V30 4785 H 432.148 -4.81774 3.57791 0
M  V30 4786 H 433.218 -3.41025 3.44717 0
M  V30 4787 N 434.561 -1.01147 -1.20859 0
M  V30 4788 C 435.809 -0.696486 -1.89719 0
M  V30 4789 C 436.13 0.775788 -1.78904 0
M  V30 4790 O 435.4 1.55759 -1.18811 0
M  V30 4791 H 433.98 -0.254628 -0.702263 0
M  V30 4792 H 436.642 -1.28197 -1.46804 0
M  V30 4793 H 435.738 -0.975357 -2.96468 0
M  V30 4794 N 436.039 1.36541 -0.78704 0
M  V30 4795 C 437.288 1.98552 -0.35494 0
M  V30 4796 C 437.601 1.63171 1.07864 0
M  V30 4797 O 438.807 2.18399 1.61289 0
M  V30 4798 C 437.263 3.55136 -0.583671 0
M  V30 4799 C 436.871 3.99444 -2.02851 0
M  V30 4800 C 438.615 4.2395 -0.215957 0
M  V30 4801 C 436.522 5.48796 -2.20403 0
M  V30 4802 H 435.452 0.742888 -0.128972 0
M  V30 4803 H 438.103 1.5587 -0.968337 0
M  V30 4804 H 436.485 3.95875 0.0994046 0
M  V30 4805 H 437.659 3.6991 -2.74779 0
M  V30 4806 H 435.974 3.43459 -2.35425 0
M  V30 4807 H 438.571 5.33709 -0.325405 0
M  V30 4808 H 438.914 4.07827 0.835646 0
M  V30 4809 H 439.447 3.88565 -0.852175 0
M  V30 4810 H 436.186 5.69864 -3.23937 0
M  V30 4811 H 435.706 5.79964 -1.52977 0
M  V30 4812 H 437.385 6.14986 -2.01002 0
M  V30 4813 N 437.518 0.538854 1.48102 0
M  V30 4814 C 438.448 -0.207654 2.32575 0
M  V30 4815 C 439.429 -0.926559 1.4265 0
M  V30 4816 O 440.614 -0.91061 1.71527 0
M  V30 4817 C 437.744 -1.24957 3.24042 0
M  V30 4818 C 436.698 -0.648263 4.23062 0
M  V30 4819 C 436.024 -1.79348 5.03725 0
M  V30 4820 C 437.324 0.385897 5.20872 0
M  V30 4821 H 439.018 0.497534 2.95237 0
M  V30 4822 H 436.564 0.240715 1.41974 0
M  V30 4823 H 438.517 -1.77983 3.81969 0
M  V30 4824 H 437.241 -1.98446 2.59397 0
M  V30 4825 H 435.9 -0.139452 3.66335 0
M  V30 4826 H 435.548 -2.51696 4.35498 0
M  V30 4827 H 435.248 -1.39702 5.70751 0
M  V30 4828 H 436.772 -2.32735 5.64506 0
M  V30 4829 H 438.186 -0.057607 5.73271 0
M  V30 4830 H 436.583 0.700227 5.96001 0
M  V30 4831 H 437.653 1.28848 4.67468 0
M  V30 4832 N 438.996 -1.55193 0.274407 0
M  V30 4833 C 440.245 -1.98758 -0.343213 0
M  V30 4834 C 440.558 -1.16624 -1.5703 0
M  V30 4835 O 441.764 -1.5033 -2.26082 0
M  V30 4836 C 440.22 -3.53759 -0.661996 0
M  V30 4837 C 439.828 -4.4467 0.54524 0
M  V30 4838 C 441.572 -4.05916 -1.24228 0
M  V30 4839 C 439.479 -5.91058 0.201084 0
M  V30 4840 H 438.409 -0.742353 -0.132014 0
M  V30 4841 H 441.06 -1.79545 0.378948 0
M  V30 4842 H 439.442 -3.68772 -1.44304 0
M  V30 4843 H 440.616 -4.41426 1.32212 0
M  V30 4844 H 438.931 -4.03143 1.04232 0
M  V30 4845 H 441.528 -5.12831 -1.51357 0
M  V30 4846 H 441.871 -3.54908 -2.17592 0
M  V30 4847 H 442.404 -3.9434 -0.523542 0
M  V30 4848 H 439.143 -6.46161 1.10258 0
M  V30 4849 H 438.663 -5.97373 -0.539045 0
M  V30 4850 H 440.342 -6.46669 -0.206954 0
M  V30 4851 N 440.474 -0.00167713 -1.576 0
M  V30 4852 C 441.407 1.02317 -2.03977 0
M  V30 4853 C 442.385 1.33381 -0.929963 0
M  V30 4854 O 443.569 1.45517 -1.19822 0
M  V30 4855 C 440.696 2.35035 -2.43878 0
M  V30 4856 C 439.742 2.19621 -3.65607 0
M  V30 4857 S 440.575 1.52068 -5.13455 0
M  V30 4858 C 441.731 2.86212 -5.56627 0
M  V30 4859 H 441.964 0.628285 -2.90585 0
M  V30 4860 H 439.497 0.209239 -1.52976 0
M  V30 4861 H 441.455 3.11345 -2.67534 0
M  V30 4862 H 440.116 2.71663 -1.57665 0
M  V30 4863 H 439.309 3.1767 -3.91282 0
M  V30 4864 H 438.911 1.51455 -3.41961 0
M  V30 4865 H 441.203 3.82509 -5.59189 0
M  V30 4866 H 442.146 2.65235 -6.56549 0
M  V30 4867 H 442.554 2.90199 -4.84195 0
M  V30 4868 N 441.952 1.55251 0.271103 0
M  V30 4869 C 443.229 1.66664 1.02384 0
M  V30 4870 C 443.609 0.534363 2.04225 0
M  V30 4871 O 442.957 -0.465337 2.23712 0
M  V30 4872 C 443.167 3.05961 1.67895 0
M  V30 4873 C 444.515 3.63772 2.18986 0
M  V30 4874 O 445.539 3.08606 1.77878 0
M  V30 4875 O 444.398 4.60429 2.94393 0
M  V30 4876 H 441.492 0.676957 0.475035 0
M  V30 4877 H 444.038 1.67589 0.26681 0
M  V30 4878 H 442.81 3.79815 0.941071 0
M  V30 4879 H 442.433 3.08943 2.5028 0
M  V30 4880 N 443.43 -0.535701 1.48216 0
M  V30 4881 C 444.677 -1.29183 1.55942 0
M  V30 4882 C 445.005 -1.93125 0.230857 0
M  V30 4883 O 444.26 -1.79556 -0.778331 0
M  V30 4884 C 444.559 -2.4068 2.64212 0
M  V30 4885 C 444.225 -1.94428 4.06827 0
M  V30 4886 C 442.887 -1.81532 4.45645 0
M  V30 4887 C 445.239 -1.59405 4.96225 0
M  V30 4888 C 442.567 -1.31939 5.71672 0
M  V30 4889 C 444.919 -1.11276 6.22736 0
M  V30 4890 C 443.583 -0.969924 6.60416 0
M  V30 4891 H 442.853 -0.472715 0.570632 0
M  V30 4892 H 445.5 -0.598437 1.81909 0
M  V30 4893 H 443.805 -3.15666 2.32083 0
M  V30 4894 H 445.502 -2.98822 2.67407 0
M  V30 4895 H 442.092 -2.05415 3.76168 0
M  V30 4896 H 446.276 -1.68231 4.66917 0
M  V30 4897 H 441.532 -1.19562 5.99596 0
M  V30 4898 H 445.706 -0.832453 6.91407 0
M  V30 4899 H 443.333 -0.583436 7.57958 0
M  V30 4900 N 444.908 -1.36708 -0.784132 0
M  V30 4901 C 446.319 -1.27947 -1.35965 0
M  V30 4902 C 446.67 0.0784013 -1.96043 0
M  V30 4903 O 445.795 0.979989 -1.92938 0
M  V30 4904 C 446.39 -2.31689 -2.47195 0
M  V30 4905 C 444.949 -2.26601 -3.00548 0
M  V30 4906 C 444.096 -2.16184 -1.73666 0
M  V30 4907 H 447.047 -1.4751 -0.585358 0
M  V30 4908 H 447.068 -1.95638 -3.26352 0
M  V30 4909 H 446.58 -3.30506 -2.03439 0
M  V30 4910 H 444.681 -1.31268 -3.48711 0
M  V30 4911 H 444.794 -3.19508 -3.57004 0
M  V30 4912 H 443.158 -1.62524 -1.96107 0
M  V30 4913 H 443.941 -3.16896 -1.32031 0
M  V30 4914 N 446.386 1.0089 -1.21074 0
M  V30 4915 C 447.296 2.13039 -0.982425 0
M  V30 4916 C 448.312 1.73881 0.0642161 0
M  V30 4917 O 449.488 2.01012 -0.12496 0
M  V30 4918 C 446.553 3.42377 -0.545803 0
M  V30 4919 C 445.614 3.95731 -1.6642 0
M  V30 4920 C 444.847 5.18896 -1.24832 0
M  V30 4921 O 445.07 5.70273 -0.120265 0
M  V30 4922 O 444.004 5.65597 -2.05873 0
M  V30 4923 H 447.83 2.35175 -1.92163 0
M  V30 4924 H 445.415 1.1142 -0.995285 0
M  V30 4925 H 447.297 4.20244 -0.311912 0
M  V30 4926 H 445.972 3.21639 0.364727 0
M  V30 4927 H 444.879 3.19108 -1.95246 0
M  V30 4928 H 446.212 4.20872 -2.55201 0
M  V30 4929 N 447.864 1.01787 1.20321 0
M  V30 4930 C 448.811 0.589197 2.23153 0
M  V30 4931 C 449.781 -0.391367 1.61423 0
M  V30 4932 O 450.966 -0.290518 1.88575 0
M  V30 4933 C 448.106 -0.0650747 3.45039 0
M  V30 4934 C 447.219 0.960207 4.21194 0
M  V30 4935 C 446.354 0.276854 5.30478 0
M  V30 4936 C 445.393 1.2888 5.98378 0
M  V30 4937 N 444.53 0.632031 6.99249 0
M  V30 4938 H 449.37 1.47071 2.59179 0
M  V30 4939 H 446.907 0.736192 1.27352 0
M  V30 4940 H 448.865 -0.461552 4.14639 0
M  V30 4941 H 447.495 -0.910233 3.09701 0
M  V30 4942 H 446.547 1.47484 3.50646 0
M  V30 4943 H 447.859 1.72977 4.67847 0
M  V30 4944 H 447.013 -0.175056 6.06447 0
M  V30 4945 H 445.752 -0.525004 4.84866 0
M  V30 4946 H 444.757 1.75109 5.21169 0
M  V30 4947 H 445.982 2.09196 6.46076 0
M  V30 4948 H 443.928 -0.149935 6.55829 0
M  V30 4949 H 443.845 1.33964 7.44036 0
M  V30 4950 H 445.113 0.203755 7.79234 0
M  V30 4951 N 449.342 -1.36122 0.79427 0
M  V30 4952 C 450.274 -2.28683 0.153903 0
M  V30 4953 C 451.287 -1.49707 -0.639669 0
M  V30 4954 O 452.476 -1.7209 -0.474054 0
M  V30 4955 C 449.576 -3.29202 -0.804921 0
M  V30 4956 C 448.749 -4.37358 -0.060366 0
M  V30 4957 C 447.808 -5.17811 -0.935849 0
M  V30 4958 O 446.834 -5.67853 -0.391309 0
M  V30 4959 N 448.036 -5.34721 -2.25951 0
M  V30 4960 H 450.801 -2.84278 0.949008 0
M  V30 4961 H 448.362 -1.4834 0.648611 0
M  V30 4962 H 450.354 -3.79914 -1.39455 0
M  V30 4963 H 448.924 -2.74212 -1.50088 0
M  V30 4964 H 448.144 -3.87746 0.710382 0
M  V30 4965 H 449.432 -5.06777 0.45324 0
M  V30 4966 H 448.83 -4.95687 -2.72601 0
M  V30 4967 H 447.387 -5.88657 -2.79867 0
M  V30 4968 N 450.82 -0.546701 -1.47814 0
M  V30 4969 C 452.048 -0.0232857 -2.06887 0
M  V30 4970 C 452.463 1.26571 -1.4009 0
M  V30 4971 O 451.82 1.7569 -0.493906 0
M  V30 4972 C 451.871 0.186975 -3.61016 0
M  V30 4973 O 451.592 -1.05097 -4.25307 0
M  V30 4974 C 453.093 0.748872 -4.36929 0
M  V30 4975 H 450.313 -0.0410763 -0.669742 0
M  V30 4976 H 452.857 -0.757117 -1.89968 0
M  V30 4977 H 451.012 0.870903 -3.77484 0
M  V30 4978 H 451.426 -0.842121 -5.17695 0
M  V30 4979 H 452.9 0.845334 -5.45489 0
M  V30 4980 H 453.377 1.75772 -4.02493 0
M  V30 4981 H 453.983 0.100979 -4.2518 0
M  V30 4982 N 452.299 1.55045 -0.282633 0
M  V30 4983 C 453.548 1.98938 0.332667 0
M  V30 4984 C 453.861 1.17455 1.56409 0
M  V30 4985 O 455.067 1.51527 2.25282 0
M  V30 4986 C 453.523 3.54105 0.643226 0
M  V30 4987 C 453.131 4.44374 -0.568814 0
M  V30 4988 C 454.875 4.06569 1.22074 0
M  V30 4989 C 452.782 5.90943 -0.232426 0
M  V30 4990 H 451.712 0.743043 0.128075 0
M  V30 4991 H 454.363 1.79341 -0.388464 0
M  V30 4992 H 452.745 3.69532 1.42346 0
M  V30 4993 H 453.919 4.40718 -1.34551 0
M  V30 4994 H 452.234 4.02585 -1.06369 0
M  V30 4995 H 454.831 5.13626 1.48635 0
M  V30 4996 H 455.174 3.56057 2.15707 0
M  V30 4997 H 455.707 3.94612 0.502621 0
M  V30 4998 H 452.446 6.45567 -1.13683 0
M  V30 4999 H 451.966 5.9765 0.507357 0
M  V30 5000 H 453.645 6.4677 0.172657 0
M  V30 5001 N 453.777 0.010035 1.57597 0
M  V30 5002 C 454.724 -0.978122 2.09049 0
M  V30 5003 C 455.694 -1.33509 0.988159 0
M  V30 5004 O 456.879 -1.43172 1.26121 0
M  V30 5005 C 454.019 -2.26158 2.60666 0
M  V30 5006 C 453.132 -1.96275 3.84838 0
M  V30 5007 C 452.267 -3.18776 4.24918 0
M  V30 5008 C 451.306 -2.84625 5.41899 0
M  V30 5009 N 450.443 -3.99693 5.77226 0
M  V30 5010 H 455.283 -0.532431 2.93205 0
M  V30 5011 H 452.82 -0.251234 1.44939 0
M  V30 5012 H 454.778 -3.01202 2.88675 0
M  V30 5013 H 453.408 -2.68378 1.79369 0
M  V30 5014 H 452.46 -1.11555 3.63675 0
M  V30 5015 H 453.772 -1.67111 4.69974 0
M  V30 5016 H 452.926 -4.02157 4.54262 0
M  V30 5017 H 451.665 -3.51087 3.38511 0
M  V30 5018 H 450.67 -1.99653 5.12268 0
M  V30 5019 H 451.895 -2.53551 6.29991 0
M  V30 5020 H 449.841 -4.31882 4.93776 0
M  V30 5021 H 449.758 -3.74087 6.56959 0
M  V30 5022 H 451.026 -4.83834 6.11167 0
M  V30 5023 N 455.255 -1.55392 -0.262866 0
M  V30 5024 C 456.203 -1.8977 -1.345 0
M  V30 5025 C 457.197 -0.775063 -1.50629 0
M  V30 5026 O 458.403 -0.959519 -1.52293 0
M  V30 5027 H 454.778 -0.602467 -0.450041 0
M  V30 5028 H 456.749 -2.80147 -1.02762 0
M  V30 5029 C 455.498 -2.19501 -2.69657 0
M  V30 5030 H 454.821 -3.05378 -2.5804 0
M  V30 5031 H 456.261 -2.47469 -3.44289 0
M  V30 5032 C 454.72 -1.00597 -3.21531 0
M  V30 5033 O 455.25 -0.245768 -4.00947 0
M  V30 5034 N 453.456 -0.800911 -2.79345 0
M  V30 5035 H 453.003 -1.42079 -2.14875 0
M  V30 5036 H 452.961 -0.00697996 -3.14399 0
M  V30 5037 N 456.733 0.527833 -1.48498 0
M  V30 5038 C 457.982 1.28003 -1.55878 0
M  V30 5039 C 458.295 1.9414 -0.238577 0
M  V30 5040 O 459.501 2.7083 -0.190643 0
M  V30 5041 C 457.957 2.32272 -2.74914 0
M  V30 5042 C 457.565 1.72196 -4.13585 0
M  V30 5043 C 459.309 3.08488 -2.91608 0
M  V30 5044 C 457.216 2.74417 -5.23879 0
M  V30 5045 H 456.146 0.481413 -0.580308 0
M  V30 5046 H 458.797 0.557195 -1.74836 0
M  V30 5047 H 457.179 3.07601 -2.49395 0
M  V30 5048 H 458.353 1.03041 -4.49132 0
M  V30 5049 H 456.668 1.08464 -4.02025 0
M  V30 5050 H 459.265 3.84879 -3.71177 0
M  V30 5051 H 459.608 3.64481 -2.01145 0
M  V30 5052 H 460.141 2.40274 -3.17038 0
M  V30 5053 H 456.88 2.23242 -6.16314 0
M  V30 5054 H 456.4 3.41893 -4.92818 0
M  V30 5055 H 458.079 3.37362 -5.52083 0
M  V30 5056 N 458.211 1.37122 0.776871 0
M  V30 5057 C 459.46 1.31373 1.53049 0
M  V30 5058 C 459.773 -0.101016 1.95339 0
M  V30 5059 O 460.979 -0.280953 2.70042 0
M  V30 5060 C 459.435 2.30567 2.76346 0
M  V30 5061 C 459.043 3.77543 2.41175 0
M  V30 5062 C 460.787 2.33818 3.54301 0
M  V30 5063 C 458.694 4.68481 3.60943 0
M  V30 5064 H 457.624 0.488234 0.574581 0
M  V30 5065 H 460.275 1.62554 0.851372 0
M  V30 5066 H 458.657 1.92396 3.46121 0
M  V30 5067 H 459.831 4.24521 1.79216 0
M  V30 5068 H 458.146 3.77187 1.76405 0
M  V30 5069 H 460.743 2.98965 4.4331 0
M  V30 5070 H 461.086 1.3503 3.93793 0
M  V30 5071 H 461.619 2.7067 2.91518 0
M  V30 5072 H 458.358 5.68378 3.26537 0
M  V30 5073 H 457.878 4.2621 4.22025 0
M  V30 5074 H 459.557 4.85366 4.27819 0
M  V30 5075 N 459.689 -1.00246 1.21608 0
M  V30 5076 C 460.636 -2.09073 0.977613 0
M  V30 5077 C 461.606 -1.65815 -0.097297 0
M  V30 5078 O 462.791 -1.90734 0.0503445 0
M  V30 5079 C 459.931 -3.40671 0.551133 0
M  V30 5080 C 459.044 -3.97326 1.69576 0
M  V30 5081 C 458.179 -5.17043 1.2182 0
M  V30 5082 C 457.218 -5.65813 2.335 0
M  V30 5083 N 456.355 -6.76778 1.86859 0
M  V30 5084 H 461.195 -2.28806 1.90924 0
M  V30 5085 H 458.732 -1.12186 0.951452 0
M  V30 5086 H 460.69 -4.16225 0.285097 0
M  V30 5087 H 459.32 -3.20967 -0.343489 0
M  V30 5088 H 458.372 -3.18734 2.07637 0
M  V30 5089 H 459.684 -4.29511 2.53617 0
M  V30 5090 H 458.838 -5.99852 0.908975 0
M  V30 5091 H 457.577 -4.86458 0.347869 0
M  V30 5092 H 456.582 -4.81599 2.65222 0
M  V30 5093 H 457.807 -5.98427 3.21033 0
M  V30 5094 H 455.753 -6.47994 1.02174 0
M  V30 5095 H 455.67 -7.08231 2.64471 0
M  V30 5096 H 456.938 -7.63116 1.58978 0
M  V30 5097 N 461.167 -1.02423 -1.1978 0
M  V30 5098 C 462.115 -0.594474 -2.24875 0
M  V30 5099 C 463.109 0.370598 -1.65296 0
M  V30 5100 O 464.315 0.239684 -1.78397 0
M  V30 5101 H 460.69 -0.173961 -0.731602 0
M  V30 5102 H 462.661 -1.4916 -2.58445 0
M  V30 5103 C 461.41 0.0436512 -3.47673 0
M  V30 5104 H 460.733 -0.689963 -3.93801 0
M  V30 5105 H 462.173 0.307362 -4.22884 0
M  V30 5106 C 460.632 1.28881 -3.11274 0
M  V30 5107 O 461.162 2.38135 -3.23503 0
M  V30 5108 N 459.368 1.1758 -2.6575 0
M  V30 5109 H 458.915 0.286769 -2.55999 0
M  V30 5110 H 458.873 2.00988 -2.41767 0
M  V30 5111 N 462.645 1.35699 -0.801477 0
M  V30 5112 C 463.593 2.3177 -0.196317 0
M  V30 5113 C 464.587 1.56388 0.651081 0
M  V30 5114 O 465.793 1.71557 0.544815 0
M  V30 5115 H 462.168 0.750669 -0.0447189 0
M  V30 5116 H 464.139 2.8036 -1.02181 0
M  V30 5117 C 462.888 3.41671 0.644702 0
M  V30 5118 H 462.211 3.998 0.0019921 0
M  V30 5119 H 463.651 4.11184 1.0346 0
M  V30 5120 C 462.11 2.84271 1.80808 0
M  V30 5121 O 462.64 2.77408 2.9053 0
M  V30 5122 N 460.846 2.41391 1.61799 0
M  V30 5123 H 460.393 2.47173 0.725493 0
M  V30 5124 H 460.351 2.03334 2.39797 0
M  V30 5125 N 464.123 0.554532 1.47522 0
M  V30 5126 C 465.07 -0.19466 2.29978 0
M  V30 5127 C 466.04 -0.910882 1.38896 0
M  V30 5128 O 467.225 -0.907102 1.67858 0
M  V30 5129 C 464.365 -1.22035 3.22802 0
M  V30 5130 C 463.478 -0.510474 4.28973 0
M  V30 5131 C 462.613 -1.52123 5.08952 0
M  V30 5132 C 461.652 -0.796173 6.069 0
M  V30 5133 N 460.789 -1.75363 6.79847 0
M  V30 5134 H 465.629 0.51461 2.93523 0
M  V30 5135 H 463.166 0.265607 1.44682 0
M  V30 5136 H 465.124 -1.8276 3.7504 0
M  V30 5137 H 463.754 -1.89769 2.61127 0
M  V30 5138 H 462.806 0.211234 3.79813 0
M  V30 5139 H 464.118 0.0576503 4.98767 0
M  V30 5140 H 463.272 -2.20207 5.65326 0
M  V30 5141 H 462.011 -2.12327 4.39054 0
M  V30 5142 H 461.016 -0.101388 5.49707 0
M  V30 5143 H 462.241 -0.199911 6.78806 0
M  V30 5144 H 460.187 -2.3443 6.12682 0
M  V30 5145 H 460.104 -1.23759 7.45801 0
M  V30 5146 H 461.372 -2.4257 7.40797 0
M  V30 5147 N 465.601 -1.54893 0.290851 0
M  V30 5148 C 466.848 -1.99933 -0.321391 0
M  V30 5149 C 467.176 -1.17927 -1.54672 0
M  V30 5150 O 466.431 -0.240902 -1.94212 0
M  V30 5151 C 466.73 -3.49815 -0.732397 0
M  V30 5152 C 466.396 -4.4921 0.390056 0
M  V30 5153 C 465.058 -4.76107 0.698223 0
M  V30 5154 C 467.41 -5.08453 1.14562 0
M  V30 5155 C 464.738 -5.59514 1.76526 0
M  V30 5156 C 467.09 -5.9302 2.2025 0
M  V30 5157 C 465.754 -6.18232 2.51684 0
M  V30 5158 H 465.024 -0.731608 -0.117605 0
M  V30 5159 H 467.671 -1.87107 0.407839 0
M  V30 5160 H 465.976 -3.60199 -1.54155 0
M  V30 5161 H 467.673 -3.82083 -1.21712 0
M  V30 5162 H 464.263 -4.28372 0.13976 0
M  V30 5163 H 468.447 -4.87683 0.920801 0
M  V30 5164 H 463.703 -5.77289 2.01364 0
M  V30 5165 H 467.877 -6.37955 2.7926 0
M  V30 5166 H 465.504 -6.82653 3.34499 0
M  V30 5167 N 467.08 -0.0183926 -1.57589 0
M  V30 5168 C 468.028 0.985111 -2.10709 0
M  V30 5169 C 469.022 1.34397 -1.0312 0
M  V30 5170 O 470.228 1.32746 -1.21567 0
M  V30 5171 H 466.603 0.335418 -0.673052 0
M  V30 5172 H 468.574 0.511689 -2.9398 0
M  V30 5173 C 467.323 2.26202 -2.64061 0
M  V30 5174 H 466.646 1.9946 -3.4649 0
M  V30 5175 H 468.086 2.94652 -3.04887 0
M  V30 5176 C 466.545 2.98444 -1.5631 0
M  V30 5177 O 467.075 3.90142 -0.956674 0
M  V30 5178 N 465.281 2.6059 -1.28612 0
M  V30 5179 H 464.828 1.86101 -1.78112 0
M  V30 5180 H 464.786 3.09238 -0.567406 0
M  V30 5181 O 468.597 1.61027 0.12348 0
M  V30 5182 H 469.288 1.78369 0.755254 0
M  V30 END ATOM
M  V30 BEGIN BOND
M  V30 END BOND
M  V30 END CTAB
M  END
$$$$
