drugbank_target|P34981 Thyrotropin-releasing hormone receptor (DB09421)
 OpenBabel12092121043D

  0  0  0     0  0            999 V3000
M  V30 BEGIN CTAB
M  V30 COUNTS 6394 6467 0 0 0
M  V30 BEGIN ATOM
M  V30 1 H -0.908 1.98254 -0.117106 0
M  V30 2 N 0 1.576 0 0
M  V30 3 C 0.933 2.03868 1.02534 0
M  V30 4 C 1.911 0.928543 1.3348 0
M  V30 5 O 3.095 1.19667 1.45644 0
M  V30 6 C 0.222 2.43627 2.35294 0
M  V30 7 C -0.732 3.65373 2.2001 0
M  V30 8 S 0.101 5.13292 1.52614 0
M  V30 9 C 1.257 5.56322 2.86805 0
M  V30 10 H 1.49 2.90518 0.631377 0
M  V30 11 H -0.977 1.52953 0.210867 0
M  V30 12 H 0.981 2.67203 3.11629 0
M  V30 13 H -0.358 1.57376 2.7183 0
M  V30 14 H -1.165 3.90944 3.18086 0
M  V30 15 H -1.563 3.418 1.51819 0
M  V30 16 H 0.729 5.58782 3.83104 0
M  V30 17 H 1.672 6.56266 2.65933 0
M  V30 18 H 2.08 4.83886 2.90714 0
M  V30 19 N 1.4781 -0.272755 1.55222 0
M  V30 20 C 2.3881 -1.35918 1.91216 0
M  V30 21 C 3.4041 -1.54026 0.809436 0
M  V30 22 O 4.5801 -1.68148 1.10852 0
M  V30 23 C 1.6451 -2.69834 2.17693 0
M  V30 24 C 0.7061 -2.6047 3.41253 0
M  V30 25 C -0.0609 -3.88 3.66458 0
M  V30 26 O 0.1621 -4.88693 2.94169 0
M  V30 27 O -0.9039 -3.88189 4.59992 0
M  V30 28 H 2.9221 -1.0839 2.83699 0
M  V30 29 H 0.5071 -0.471301 1.41771 0
M  V30 30 H 2.3891 -3.49017 2.36147 0
M  V30 31 H 1.0641 -2.97148 1.28392 0
M  V30 32 H -0.0289 -1.79663 3.28134 0
M  V30 33 H 1.3041 -2.38106 4.30774 0
M  V30 34 N 2.9562 -1.48159 -0.537278 0
M  V30 35 C 3.9042 -1.62573 -1.66352 0
M  V30 36 C 4.8982 -0.492366 -1.62087 0
M  V30 37 O 6.1042 -0.670847 -1.67032 0
M  V30 38 H 2.4792 -0.511992 -0.550789 0
M  V30 39 H 4.4502 -2.57176 -1.51337 0
M  V30 40 C 3.1992 -1.67583 -3.04649 0
M  V30 41 H 2.5222 -2.54151 -3.08622 0
M  V30 42 H 3.9622 -1.81713 -3.83088 0
M  V30 43 C 2.4212 -0.413039 -3.34358 0
M  V30 44 O 2.9512 0.477259 -3.98855 0
M  V30 45 N 1.1572 -0.286961 -2.8918 0
M  V30 46 H 0.7042 -1.01241 -2.36871 0
M  V30 47 H 0.6622 0.556963 -3.09427 0
M  V30 48 N 4.4343 0.785586 -1.36625 0
M  V30 49 C 5.3443 1.92964 -1.33425 0
M  V30 50 C 6.3603 1.72394 -0.235851 0
M  V30 51 O 7.5363 1.95866 -0.468878 0
M  V30 52 C 4.6013 3.27884 -1.12662 0
M  V30 53 C 3.6623 3.61204 -2.32013 0
M  V30 54 C 2.8953 4.89687 -2.12231 0
M  V30 55 O 3.1183 5.59704 -1.09945 0
M  V30 56 O 2.0523 5.21752 -3.00098 0
M  V30 57 H 5.8783 1.98613 -2.29753 0
M  V30 58 H 3.4633 0.926384 -1.17211 0
M  V30 59 H 5.3453 4.08614 -1.03016 0
M  V30 60 H 4.0203 3.23118 -0.193991 0
M  V30 61 H 2.9273 2.80765 -2.47228 0
M  V30 62 H 4.2603 3.70698 -3.23796 0
M  V30 63 N 5.9124 1.20967 1.01018 0
M  V30 64 C 7.1404 1.04956 1.78303 0
M  V30 65 C 7.5554 -0.400915 1.84494 0
M  V30 66 O 6.9124 -1.27826 1.30257 0
M  V30 67 C 6.9634 1.63403 3.22462 0
M  V30 68 O 6.6844 3.02775 3.16637 0
M  V30 69 C 8.1854 1.52432 4.16268 0
M  V30 70 H 5.4054 0.368858 0.560522 0
M  V30 71 H 7.9494 1.60193 1.27116 0
M  V30 72 H 6.1044 1.1227 3.70775 0
M  V30 73 H 6.5184 3.30626 4.07169 0
M  V30 74 H 7.9924 1.98078 5.15237 0
M  V30 75 H 8.4694 0.477875 4.36592 0
M  V30 76 H 9.0754 2.02787 3.73841 0
M  V30 77 N 7.3905 -1.2043 1.01659 0
M  V30 78 C 8.6365 -1.90079 0.706963 0
M  V30 79 C 8.9695 -1.78648 -0.761474 0
M  V30 80 O 8.2445 -1.17069 -1.55323 0
M  V30 81 C 8.5275 -3.41469 1.14327 0
M  V30 82 C 8.3805 -3.61833 2.67201 0
M  V30 83 C 9.6995 -4.34261 0.714529 0
M  V30 84 H 6.8185 -0.690254 0.2583 0
M  V30 85 H 9.4605 -1.41826 1.26433 0
M  V30 86 H 7.6105 -3.82696 0.669056 0
M  V30 87 H 9.2825 -3.2986 3.22475 0
M  V30 88 H 7.5255 -3.05304 3.08175 0
M  V30 89 H 8.1965 -4.67955 2.92783 0
M  V30 90 H 10.6725 -4.00682 1.12221 0
M  V30 91 H 9.5485 -5.38806 1.04784 0
M  V30 92 H 9.8095 -4.40431 -0.383799 0
M  V30 93 N 8.8686 -0.792821 -1.36206 0
M  V30 94 C 10.0936 -0.377701 -2.03932 0
M  V30 95 C 10.5186 0.998947 -1.59382 0
M  V30 96 O 9.8766 1.64421 -0.763903 0
M  V30 97 C 9.9246 -0.453635 -3.57735 0
M  V30 98 O 9.0286 0.538151 -4.08874 0
M  V30 99 H 8.3696 -0.159855 -0.644471 0
M  V30 100 H 10.8996 -1.07488 -1.7409 0
M  V30 101 H 10.9096 -0.318464 -4.06755 0
M  V30 102 H 9.5846 -1.45784 -3.89512 0
M  V30 103 H 8.1616 0.364359 -3.71116 0
M  V30 104 N 10.3467 1.47872 -0.545128 0
M  V30 105 C 11.2567 2.33633 0.212746 0
M  V30 106 C 12.2727 1.4744 0.923983 0
M  V30 107 O 13.4487 1.80393 0.895572 0
M  V30 108 C 10.5137 3.23884 1.23693 0
M  V30 109 C 9.5747 4.25961 0.534417 0
M  V30 110 C 8.8077 5.11899 1.5098 0
M  V30 111 O 9.0307 5.00077 2.7437 0
M  V30 112 O 7.9647 5.92831 1.0409 0
M  V30 113 H 11.7907 2.99714 -0.490416 0
M  V30 114 H 9.3757 1.46235 -0.305871 0
M  V30 115 H 11.2577 3.79666 1.82843 0
M  V30 116 H 9.9327 2.60446 1.92222 0
M  V30 117 H 8.8397 3.73972 -0.0979679 0
M  V30 118 H 10.1727 4.92079 -0.109213 0
M  V30 119 N 11.8248 0.280983 1.55075 0
M  V30 120 C 12.7548 -0.597469 2.25727 0
M  V30 121 C 13.7358 -1.15417 1.24952 0
M  V30 122 O 14.9208 -1.18722 1.53684 0
M  V30 123 C 12.0508 -1.7789 2.98283 0
M  V30 124 C 11.0048 -1.35347 4.06036 0
M  V30 125 C 10.3308 -2.61846 4.66198 0
M  V30 126 C 11.6308 -0.499354 5.19907 0
M  V30 127 H 13.3248 -0.00824265 2.99399 0
M  V30 128 H 10.8708 -0.0025244 1.44 0
M  V30 129 H 12.8238 -2.39937 3.46422 0
M  V30 130 H 11.5478 -2.39405 2.22155 0
M  V30 131 H 10.2068 -0.756156 3.58717 0
M  V30 132 H 9.8548 -3.21632 3.86732 0
M  V30 133 H 9.5548 -2.3409 5.38958 0
M  V30 134 H 11.0788 -3.24732 5.1709 0
M  V30 135 H 12.4928 -1.02498 5.64063 0
M  V30 136 H 10.8898 -0.316424 5.99265 0
M  V30 137 H 11.9598 0.480459 4.82514 0
M  V30 138 N 13.3029 -1.57598 0.00835791 0
M  V30 139 C 14.2509 -2.10078 -0.998508 0
M  V30 140 C 15.2449 -1.02262 -1.35051 0
M  V30 141 O 16.4509 -1.20719 -1.33518 0
M  V30 142 H 12.8259 -0.670903 -0.339696 0
M  V30 143 H 14.7969 -2.93648 -0.530398 0
M  V30 144 C 13.5459 -2.62615 -2.27879 0
M  V30 145 H 12.8689 -3.45213 -2.01662 0
M  V30 146 H 14.3089 -3.03004 -2.96588 0
M  V30 147 C 12.7679 -1.54407 -2.99433 0
M  V30 148 O 13.2979 -0.931812 -3.90743 0
M  V30 149 N 11.5039 -1.2695 -2.61404 0
M  V30 150 H 11.0509 -1.76924 -1.87232 0
M  V30 151 H 11.0089 -0.547704 -3.09593 0
M  V30 152 N 14.781 0.264519 -1.55364 0
M  V30 153 C 15.713 1.34965 -1.85248 0
M  V30 154 C 16.726 1.45136 -0.737525 0
M  V30 155 O 17.915 1.46801 -1.01547 0
M  V30 156 C 15.015 2.73008 -2.00797 0
M  V30 157 C 14.188 2.85324 -3.31525 0
M  V30 158 C 13.247 4.04097 -3.37034 0
M  V30 159 O 12.273 3.94455 -4.10358 0
M  V30 160 N 13.475 5.16458 -2.65049 0
M  V30 161 H 16.24 1.09672 -2.78913 0
M  V30 162 H 13.801 0.454635 -1.55386 0
M  V30 163 H 15.793 3.50772 -2.01844 0
M  V30 164 H 14.363 2.91087 -1.1396 0
M  V30 165 H 13.583 1.94377 -3.42945 0
M  V30 166 H 14.871 2.9049 -4.17724 0
M  V30 167 H 14.269 5.27181 -2.05175 0
M  V30 168 H 12.826 5.92422 -2.71809 0
M  V30 169 N 16.2591 1.48442 0.529413 0
M  V30 170 C 17.4871 1.60151 1.30994 0
M  V30 171 C 17.9021 0.261985 1.86973 0
M  V30 172 O 17.2591 -0.748805 1.66431 0
M  V30 173 C 17.3101 2.64854 2.46038 0
M  V30 174 O 17.0311 3.93608 1.92365 0
M  V30 175 C 18.5321 2.87007 3.37849 0
M  V30 176 H 15.7521 0.539971 0.398338 0
M  V30 177 H 18.2961 1.94273 0.638597 0
M  V30 178 H 16.4511 2.33589 3.09055 0
M  V30 179 H 16.8651 4.51055 2.67675 0
M  V30 180 H 18.3391 3.64068 4.14919 0
M  V30 181 H 18.8161 1.95852 3.93114 0
M  V30 182 H 19.4221 3.19579 2.80623 0
M  V30 183 N 17.7372 -0.778329 1.37039 0
M  V30 184 C 18.6692 -1.90034 1.2814 0
M  V30 185 C 19.6822 -1.61585 0.198558 0
M  V30 186 O 20.8712 -1.72625 0.454175 0
M  V30 187 C 17.9712 -3.25108 0.956968 0
M  V30 188 C 17.1442 -3.81253 2.14394 0
M  V30 189 C 16.2032 -4.94789 1.79082 0
M  V30 190 O 15.2292 -5.10721 2.51301 0
M  V30 191 N 16.4312 -5.75878 0.731043 0
M  V30 192 H 19.1962 -1.98186 2.24816 0
M  V30 193 H 16.7572 -0.957129 1.30578 0
M  V30 194 H 18.7492 -3.9857 0.701701 0
M  V30 195 H 17.3192 -3.125 0.0789812 0
M  V30 196 H 16.5392 -2.99647 2.56135 0
M  V30 197 H 17.8272 -4.15495 2.93668 0
M  V30 198 H 17.2252 -5.65547 0.131618 0
M  V30 199 H 15.7822 -6.49596 0.535622 0
M  V30 200 N 19.2153 -1.21501 -1.00376 0
M  V30 201 C 20.1453 -0.999478 -2.11028 0
M  V30 202 C 21.1263 0.0759671 -1.6993 0
M  V30 203 O 22.3113 -0.0841106 -1.94018 0
M  V30 204 C 19.4413 -0.564709 -3.42678 0
M  V30 205 C 18.3953 -1.58486 -3.97576 0
M  V30 206 C 17.7213 -1.00628 -5.25146 0
M  V30 207 C 19.0213 -2.97204 -4.29496 0
M  V30 208 H 20.7153 -1.92495 -2.29317 0
M  V30 209 H 18.2613 -0.92693 -1.102 0
M  V30 210 H 20.2143 -0.401091 -4.19487 0
M  V30 211 H 18.9383 0.396411 -3.24185 0
M  V30 212 H 17.5973 -1.73606 -3.22888 0
M  V30 213 H 17.2453 -0.0368439 -5.02987 0
M  V30 214 H 16.9453 -1.68771 -5.62841 0
M  V30 215 H 18.4693 -0.854015 -6.04598 0
M  V30 216 H 19.8833 -2.8552 -4.97143 0
M  V30 217 H 18.2803 -3.62372 -4.78338 0
M  V30 218 H 19.3503 -3.47956 -3.3772 0
M  V30 219 N 20.6934 1.19889 -1.02296 0
M  V30 220 C 21.6254 2.22334 -0.556787 0
M  V30 221 C 22.6384 1.58674 0.364199 0
M  V30 222 O 23.8274 1.77768 0.161533 0
M  V30 223 C 20.9274 3.38257 0.208694 0
M  V30 224 C 20.1004 4.31504 -0.71577 0
M  V30 225 C 19.1594 5.262 0.00325597 0
M  V30 226 O 18.1854 5.65798 -0.621357 0
M  V30 227 N 19.3874 5.66303 1.27599 0
M  V30 228 H 22.1524 2.62957 -1.43784 0
M  V30 229 H 19.7134 1.34495 -0.901261 0
M  V30 230 H 21.7054 3.98616 0.699111 0
M  V30 231 H 20.2754 2.96472 0.991102 0
M  V30 232 H 19.4954 3.69016 -1.38638 0
M  V30 233 H 20.7834 4.9072 -1.34428 0
M  V30 234 H 20.1814 5.36155 1.80429 0
M  V30 235 H 18.7384 6.28942 1.71102 0
M  V30 236 N 22.1715 0.800033 1.35784 0
M  V30 237 C 23.5825 0.439142 1.81462 0
M  V30 238 C 23.9335 -1.03813 1.66485 0
M  V30 239 O 23.0585 -1.80626 1.19177 0
M  V30 240 C 23.6535 0.790314 3.29453 0
M  V30 241 C 22.2125 0.482111 3.733 0
M  V30 242 C 21.3595 1.01938 2.57883 0
M  V30 243 H 24.3105 0.992254 1.23855 0
M  V30 244 H 24.3315 0.0853677 3.80404 0
M  V30 245 H 23.8435 1.86554 3.40322 0
M  V30 246 H 21.9445 -0.584652 3.67984 0
M  V30 247 H 22.0575 1.01015 4.6833 0
M  V30 248 H 20.4215 0.442043 2.50835 0
M  V30 249 H 21.2045 2.10059 2.71533 0
M  V30 250 N 23.6496 -1.47581 0.552962 0
M  V30 251 C 25.0656 -1.5818 0.212424 0
M  V30 252 C 25.2656 -1.55213 -1.28496 0
M  V30 253 O 24.3216 -1.45329 -2.06484 0
M  V30 254 C 25.6346 -2.88865 0.835318 0
M  V30 255 C 27.1826 -3.0244 0.806156 0
M  V30 256 C 27.6576 -4.35819 1.40804 0
M  V30 257 N 29.1486 -4.42444 1.37103 0
M  V30 258 C 29.8836 -5.44202 1.80641 0
M  V30 259 N 29.3796 -6.52795 2.32015 0
M  V30 260 N 31.1726 -5.35222 1.71738 0
M  V30 261 H 23.3236 -1.47753 1.52587 0
M  V30 262 H 25.5866 -0.702941 0.636064 0
M  V30 263 H 25.2926 -2.9676 1.88749 0
M  V30 264 H 25.1666 -3.7579 0.325848 0
M  V30 265 H 27.5536 -2.94144 -0.237317 0
M  V30 266 H 27.6346 -2.17068 1.35334 0
M  V30 267 H 27.2786 -4.44871 2.45056 0
M  V30 268 H 27.2086 -5.19916 0.836338 0
M  V30 269 H 29.6996 -3.6456 0.995202 0
M  V30 270 H 30.0126 -7.26609 2.63171 0
M  V30 271 H 28.3576 -6.53696 2.36023 0
M  V30 272 H 31.5486 -4.49284 1.31382 0
M  V30 273 H 31.7216 -6.14389 2.05987 0
M  V30 274 N 25.1277 -0.289203 -1.54924 0
M  V30 275 C 26.0907 0.579144 -2.21762 0
M  V30 276 C 27.0907 1.07047 -1.1999 0
M  V30 277 O 28.2807 0.968384 -1.44803 0
M  V30 278 C 25.4127 1.80055 -2.8947 0
M  V30 279 H 26.6057 -0.00464908 -2.999 0
M  V30 280 H 24.1587 -0.0399306 -1.56249 0
M  V30 281 H 24.8937 2.42449 -2.15381 0
M  V30 282 H 24.6787 1.45602 -3.64064 0
M  V30 283 H 26.1687 2.41773 -3.40493 0
M  V30 284 N 26.6058 1.57591 -0.0167156 0
M  V30 285 C 27.8518 1.91567 0.665582 0
M  V30 286 C 28.1848 0.892298 1.72487 0
M  V30 287 O 27.4598 -0.0867127 1.94307 0
M  V30 288 C 27.7428 3.36069 1.29342 0
M  V30 289 C 27.5958 4.49135 0.244541 0
M  V30 290 C 28.9148 3.803 2.21495 0
M  V30 291 H 26.0338 0.69666 0.240488 0
M  V30 292 H 28.6758 1.89866 -0.0714356 0
M  V30 293 H 26.8258 3.3765 1.92158 0
M  V30 294 H 28.4978 4.59689 -0.385228 0
M  V30 295 H 26.7408 4.3165 -0.431379 0
M  V30 296 H 27.4118 5.47242 0.723207 0
M  V30 297 H 29.8878 3.80377 1.68678 0
M  V30 298 H 28.7638 4.82127 2.62382 0
M  V30 299 H 29.0248 3.15104 3.101 0
M  V30 300 N 28.0839 -0.256276 1.55502 0
M  V30 301 C 29.3299 -0.987079 1.77157 0
M  V30 302 C 29.6629 -1.85327 0.580315 0
M  V30 303 O 28.9379 -1.89874 -0.421686 0
M  V30 304 C 29.2209 -1.85553 3.08613 0
M  V30 305 C 29.0739 -1.01816 4.38125 0
M  V30 306 C 30.3929 -2.8397 3.36228 0
M  V30 307 H 27.5119 -0.357428 0.644526 0
M  V30 308 H 30.1539 -0.258239 1.88237 0
M  V30 309 H 28.3039 -2.47695 2.99298 0
M  V30 310 H 29.9759 -0.416159 4.59419 0
M  V30 311 H 28.2189 -0.322178 4.32602 0
M  V30 312 H 28.8899 -1.65939 5.26468 0
M  V30 313 H 31.3659 -2.31964 3.45445 0
M  V30 314 H 30.2419 -3.41864 4.29442 0
M  V30 315 H 30.5029 -3.59955 2.56681 0
M  V30 316 N 29.562 -1.4872 -0.521534 0
M  V30 317 C 30.525 -1.63379 -1.60748 0
M  V30 318 C 31.525 -0.50661 -1.52611 0
M  V30 319 O 32.715 -0.772601 -1.5613 0
M  V30 320 C 29.847 -1.61192 -3.00383 0
M  V30 321 H 31.04 -2.60217 -1.49087 0
M  V30 322 H 28.593 -1.37444 -0.744235 0
M  V30 323 H 29.328 -0.65863 -3.17541 0
M  V30 324 H 29.113 -2.43032 -3.07698 0
M  V30 325 H 30.603 -1.7466 -3.7932 0
M  V30 326 N 31.0401 0.771051 -1.3745 0
M  V30 327 C 31.9701 1.89827 -1.3597 0
M  V30 328 C 32.9511 1.68562 -0.228216 0
M  V30 329 O 34.1361 1.8941 -0.428675 0
M  V30 330 C 31.2661 3.2712 -1.16662 0
M  V30 331 C 30.2201 3.6295 -2.2683 0
M  V30 332 C 29.5461 4.98791 -1.92644 0
M  V30 333 C 30.8461 3.69627 -3.69017 0
M  V30 334 H 32.5401 1.91323 -2.30295 0
M  V30 335 H 30.0861 0.919082 -1.10855 0
M  V30 336 H 32.0391 4.05615 -1.14256 0
M  V30 337 H 30.7631 3.26059 -0.187926 0
M  V30 338 H 29.4221 2.86763 -2.28392 0
M  V30 339 H 29.0701 4.94271 -0.933021 0
M  V30 340 H 28.7701 5.23733 -2.66416 0
M  V30 341 H 30.2941 5.79685 -1.91826 0
M  V30 342 H 31.7081 4.38273 -3.69581 0
M  V30 343 H 30.1051 4.06067 -4.41848 0
M  V30 344 H 31.1751 2.70273 -4.02592 0
M  V30 345 N 32.5182 1.22032 0.997298 0
M  V30 346 C 33.4282 1.00271 2.12092 0
M  V30 347 C 34.4442 -0.047621 1.73935 0
M  V30 348 O 35.6202 0.144136 2.00884 0
M  V30 349 C 32.6852 0.578449 3.4184 0
M  V30 350 C 31.7462 1.70189 3.94125 0
M  V30 351 C 30.9792 1.29778 5.17681 0
M  V30 352 O 31.2022 0.174676 5.70132 0
M  V30 353 O 30.1362 2.11261 5.63607 0
M  V30 354 H 33.9622 1.94398 2.3333 0
M  V30 355 H 31.5472 1.00587 1.10465 0
M  V30 356 H 33.4292 0.351998 4.19927 0
M  V30 357 H 32.1042 -0.334019 3.21972 0
M  V30 358 H 31.0112 1.98282 3.1723 0
M  V30 359 H 32.3442 2.59206 4.18417 0
M  V30 360 N 33.9963 -1.19345 1.0293 0
M  V30 361 C 35.2263 -1.92717 0.744563 0
M  V30 362 C 35.6343 -1.75751 -0.700579 0
M  V30 363 O 34.9773 -1.07703 -1.48815 0
M  V30 364 C 35.0393 -3.44828 1.01657 0
M  V30 365 C 34.7033 -3.85564 2.45335 0
M  V30 366 C 35.7003 -3.90286 3.43472 0
M  V30 367 C 33.3853 -4.1719 2.79746 0
M  V30 368 C 35.3793 -4.26065 4.74075 0
M  V30 369 C 33.0663 -4.52642 4.10559 0
M  V30 370 C 34.0643 -4.57054 5.07534 0
M  V30 371 O 33.7523 -4.91685 6.36004 0
M  V30 372 H 33.4843 -0.618977 0.271742 0
M  V30 373 H 36.0383 -1.52415 1.37691 0
M  V30 374 H 34.2683 -3.85314 0.327084 0
M  V30 375 H 35.9573 -3.99437 0.721427 0
M  V30 376 H 36.7233 -3.66002 3.18225 0
M  V30 377 H 32.6023 -4.1294 2.04943 0
M  V30 378 H 36.1463 -4.29423 5.49765 0
M  V30 379 H 32.0433 -4.76383 4.35579 0
M  V30 380 H 32.8113 -5.09631 6.40483 0
M  V30 381 N 35.4744 -0.807222 -1.35358 0
M  V30 382 C 36.4064 -0.175717 -2.28525 0
M  V30 383 C 37.4194 0.625354 -1.5031 0
M  V30 384 O 38.6084 0.457611 -1.72535 0
M  V30 385 C 35.7084 0.773471 -3.29956 0
M  V30 386 C 34.8814 0.0186296 -4.37396 0
M  V30 387 C 33.9404 0.886395 -5.18681 0
M  V30 388 O 32.9664 0.337106 -5.68201 0
M  V30 389 N 34.1684 2.20839 -5.36852 0
M  V30 390 H 36.9334 -0.976091 -2.83359 0
M  V30 391 H 34.4944 -0.662737 -1.47714 0
M  V30 392 H 36.4864 1.35824 -3.81227 0
M  V30 393 H 35.0564 1.47465 -2.75632 0
M  V30 394 H 34.2764 -0.747349 -3.87051 0
M  V30 395 H 35.5644 -0.501577 -5.06322 0
M  V30 396 H 34.9624 2.67858 -4.98265 0
M  V30 397 H 33.5194 2.74237 -5.91301 0
M  V30 398 N 36.9525 1.47285 -0.560781 0
M  V30 399 C 38.1985 2.02764 -0.0381184 0
M  V30 400 C 38.5315 1.43384 1.30976 0
M  V30 401 O 37.8065 0.590733 1.85312 0
M  V30 402 C 38.0895 3.60064 0.0511427 0
M  V30 403 C 37.9425 4.2987 -1.32408 0
M  V30 404 C 39.2615 4.33439 0.762795 0
M  V30 405 H 36.3805 0.736841 -0.0153264 0
M  V30 406 H 39.0225 1.75675 -0.723759 0
M  V30 407 H 37.1725 3.83274 0.635065 0
M  V30 408 H 38.8445 4.17989 -1.95148 0
M  V30 409 H 37.0875 3.90085 -1.8978 0
M  V30 410 H 37.7585 5.38478 -1.21431 0
M  V30 411 H 40.2345 4.15243 0.266965 0
M  V30 412 H 39.1105 5.43124 0.794221 0
M  V30 413 H 39.3715 4.02915 1.81966 0
M  V30 414 N 38.4306 0.297415 1.54768 0
M  V30 415 C 39.6766 -0.313376 2.00364 0
M  V30 416 C 40.0096 -1.53815 1.18553 0
M  V30 417 O 39.2846 -1.92739 0.261103 0
M  V30 418 C 39.5676 -0.673525 3.53745 0
M  V30 419 C 39.4206 0.560133 4.46299 0
M  V30 420 C 40.7396 -1.50143 4.13697 0
M  V30 421 H 37.8586 -0.112428 0.728374 0
M  V30 422 H 40.5006 0.4088 1.8555 0
M  V30 423 H 38.6506 -1.28881 3.665 0
M  V30 424 H 40.3226 1.19863 4.45455 0
M  V30 425 H 38.5656 1.19405 4.17043 0
M  V30 426 H 39.2366 0.26405 5.51368 0
M  V30 427 H 41.7126 -0.981588 4.04356 0
M  V30 428 H 40.5886 -1.72221 5.21182 0
M  V30 429 H 40.8496 -2.48952 3.65343 0
M  V30 430 N 39.9087 -1.5758 0.0250728 0
M  V30 431 C 41.1367 -1.9593 -0.664747 0
M  V30 432 C 41.5517 -0.901352 -1.65895 0
M  V30 433 O 40.9087 0.117255 -1.82123 0
M  V30 434 C 40.9597 -3.34342 -1.37468 0
M  V30 435 O 40.6807 -4.36079 -0.420324 0
M  V30 436 C 42.1817 -3.873 -2.1567 0
M  V30 437 H 39.4017 -0.645405 -0.183557 0
M  V30 438 H 41.9457 -2.04329 0.0836372 0
M  V30 439 H 40.1007 -3.27175 -2.0745 0
M  V30 440 H 40.5147 -5.16297 -0.923991 0
M  V30 441 H 41.9887 -4.86504 -2.60803 0
M  V30 442 H 42.4657 -3.21331 -2.99405 0
M  V30 443 H 43.0717 -3.97723 -1.50654 0
M  V30 444 N 41.3868 0.248026 -1.55636 0
M  V30 445 C 42.6358 0.974134 -1.76617 0
M  V30 446 C 42.9488 1.86528 -0.588796 0
M  V30 447 O 44.1548 2.62805 -0.681594 0
M  V30 448 C 42.6108 1.78213 -3.12679 0
M  V30 449 C 42.2188 0.93843 -4.38061 0
M  V30 450 C 43.9628 2.50104 -3.42999 0
M  V30 451 C 41.8698 1.74225 -5.65155 0
M  V30 452 H 40.7998 0.36745 -0.658405 0
M  V30 453 H 43.4508 0.22884 -1.82067 0
M  V30 454 H 41.8328 2.56933 -3.01333 0
M  V30 455 H 43.0068 0.193635 -4.60393 0
M  V30 456 H 41.3218 0.332905 -4.15067 0
M  V30 457 H 43.9188 3.10694 -4.3517 0
M  V30 458 H 44.2618 3.21662 -2.64271 0
M  V30 459 H 44.7948 1.78395 -3.55556 0
M  V30 460 H 41.5338 1.07043 -6.46701 0
M  V30 461 H 41.0538 2.46235 -5.46926 0
M  V30 462 H 42.7328 2.30967 -6.0437 0
M  V30 463 N 42.8649 1.48995 0.513639 0
M  V30 464 C 43.7949 1.67636 1.62544 0
M  V30 465 C 44.7759 0.525087 1.61793 0
M  V30 466 O 45.9609 0.759502 1.78732 0
M  V30 467 C 43.0909 1.73114 3.01079 0
M  V30 468 C 42.0449 2.87905 3.16693 0
M  V30 469 C 41.3709 2.78486 4.56453 0
M  V30 470 C 42.6709 4.29005 2.97913 0
M  V30 471 H 44.3649 2.60716 1.47198 0
M  V30 472 H 41.9109 1.25465 0.706714 0
M  V30 473 H 43.8639 1.84742 3.78746 0
M  V30 474 H 42.5879 0.766241 3.17484 0
M  V30 475 H 41.2469 2.75859 2.41448 0
M  V30 476 H 40.8949 1.7993 4.69717 0
M  V30 477 H 40.5949 3.55523 4.67843 0
M  V30 478 H 42.1189 2.92104 5.36197 0
M  V30 479 H 43.5329 4.41798 3.65359 0
M  V30 480 H 41.9299 5.07166 3.20785 0
M  V30 481 H 42.9999 4.44329 1.94165 0
M  V30 482 N 44.343 -0.763751 1.37857 0
M  V30 483 C 45.273 -1.89103 1.36975 0
M  V30 484 C 46.254 -1.68439 0.237152 0
M  V30 485 O 47.439 -1.8918 0.438713 0
M  V30 486 C 44.569 -3.26496 1.18395 0
M  V30 487 C 43.523 -3.61741 2.28751 0
M  V30 488 C 42.849 -4.97762 1.95286 0
M  V30 489 C 44.149 -3.67665 3.70972 0
M  V30 490 H 45.843 -1.90099 2.31307 0
M  V30 491 H 43.389 -0.91319 1.11341 0
M  V30 492 H 45.342 -4.05003 1.16406 0
M  V30 493 H 44.066 -3.25955 0.205215 0
M  V30 494 H 42.725 -2.85547 2.29909 0
M  V30 495 H 42.373 -4.93769 0.959221 0
M  V30 496 H 42.073 -5.22313 2.69189 0
M  V30 497 H 43.597 -5.7866 1.94898 0
M  V30 498 H 45.011 -4.36307 3.719 0
M  V30 499 H 43.408 -4.03718 4.43995 0
M  V30 500 H 44.478 -2.68134 4.0402 0
M  V30 501 N 45.8211 -1.22559 -0.990812 0
M  V30 502 C 47.0671 -1.05297 -1.73322 0
M  V30 503 C 47.4001 0.410655 -1.89808 0
M  V30 504 O 46.6751 1.30439 -1.44277 0
M  V30 505 C 46.9581 -1.76713 -3.13759 0
M  V30 506 C 46.8111 -3.30684 -3.04907 0
M  V30 507 C 48.1301 -1.52121 -4.12974 0
M  V30 508 H 45.2491 -0.38392 -0.629106 0
M  V30 509 H 47.8911 -1.50926 -1.15418 0
M  V30 510 H 46.0411 -1.37924 -3.63193 0
M  V30 511 H 47.7131 -3.7893 -2.63077 0
M  V30 512 H 45.9561 -3.60253 -2.41661 0
M  V30 513 H 46.6271 -3.75833 -4.04294 0
M  V30 514 H 49.1031 -1.85819 -3.72304 0
M  V30 515 H 47.9791 -2.04582 -5.0935 0
M  V30 516 H 48.2401 -0.454257 -4.3976 0
M  V30 517 N 47.2992 1.18797 -1.03562 0
M  V30 518 C 48.2292 2.24472 -0.643019 0
M  V30 519 C 49.2102 1.66433 0.351283 0
M  V30 520 O 50.3952 1.92803 0.232505 0
M  V30 521 C 47.5252 3.473 4.24935e-05 0
M  V30 522 C 46.4792 4.18055 -0.917257 0
M  V30 523 C 45.8052 5.34519 -0.138941 0
M  V30 524 C 47.1052 4.72109 -2.23407 0
M  V30 525 H 48.7992 2.57566 -1.52643 0
M  V30 526 H 46.3452 1.23806 -0.735394 0
M  V30 527 H 48.2982 4.20426 0.286383 0
M  V30 528 H 47.0222 3.13424 0.918299 0
M  V30 529 H 45.6812 3.46821 -1.1879 0
M  V30 530 H 45.3292 4.96891 0.781562 0
M  V30 531 H 45.0292 5.82794 -0.750005 0
M  V30 532 H 46.5532 6.10438 0.1405 0
M  V30 533 H 47.9672 5.36955 -2.00879 0
M  V30 534 H 46.3642 5.30897 -2.79765 0
M  V30 535 H 47.4342 3.89807 -2.88407 0
M  V30 536 N 48.7773 0.814389 1.34928 0
M  V30 537 C 50.0263 0.394871 1.97797 0
M  V30 538 C 50.3393 -1.04555 1.65311 0
M  V30 539 O 51.5453 -1.56856 2.21604 0
M  V30 540 C 50.0013 0.655103 3.53888 0
M  V30 541 C 49.6093 2.10858 3.95276 0
M  V30 542 C 51.3533 0.301329 4.23429 0
M  V30 543 C 49.2603 2.31415 5.44244 0
M  V30 544 H 48.1903 0.143913 0.740139 0
M  V30 545 H 50.8413 0.999544 1.53888 0
M  V30 546 H 49.2233 -0.0196253 3.95995 0
M  V30 547 H 50.3973 2.82176 3.64298 0
M  V30 548 H 48.7123 2.42297 3.38646 0
M  V30 549 H 51.3093 0.432869 5.32945 0
M  V30 550 H 51.6523 -0.75331 4.09428 0
M  V30 551 H 52.1853 0.930288 3.86769 0
M  V30 552 H 48.9243 3.35353 5.63222 0
M  V30 553 H 48.4443 1.6463 5.76764 0
M  V30 554 H 50.1233 2.13352 6.10811 0
M  V30 555 N 50.2554 -1.46986 0.568584 0
M  V30 556 C 51.5044 -2.01646 0.0465894 0
M  V30 557 C 51.8174 -1.44721 -1.31587 0
M  V30 558 O 53.0234 -1.91113 -1.92842 0
M  V30 559 C 51.4794 -3.59885 0.032752 0
M  V30 560 C 51.0874 -4.25804 1.39266 0
M  V30 561 C 52.8314 -4.22255 -0.436038 0
M  V30 562 C 50.7384 -5.76081 1.33732 0
M  V30 563 H 49.6684 -0.753876 0.013647 0
M  V30 564 H 52.3194 -1.68864 0.718131 0
M  V30 565 H 50.7014 -3.8968 -0.704669 0
M  V30 566 H 51.8754 -4.07637 2.1487 0
M  V30 567 H 50.1904 -3.7547 1.80032 0
M  V30 568 H 52.7874 -5.32394 -0.49602 0
M  V30 569 H 53.1304 -3.90212 -1.45053 0
M  V30 570 H 53.6634 -3.97033 0.246877 0
M  V30 571 H 50.4024 -6.12761 2.32817 0
M  V30 572 H 49.9224 -5.96553 0.623267 0
M  V30 573 H 51.6014 -6.38518 1.0442 0
M  V30 574 N 51.7335 -0.305618 -1.54608 0
M  V30 575 C 52.9735 0.303114 -2.0214 0
M  V30 576 C 53.3375 1.50737 -1.18921 0
M  V30 577 O 54.5385 2.18778 -1.56172 0
M  V30 578 C 52.8095 0.646332 -3.51507 0
M  V30 579 S 54.3685 1.23727 -4.20995 0
M  V30 580 H 51.1865 0.0927643 -0.704923 0
M  V30 581 H 53.7885 -0.434566 -1.90609 0
M  V30 582 H 52.4925 -0.238541 -4.09706 0
M  V30 583 H 52.0235 1.41468 -3.67084 0
M  V30 584 H 54.0385 2.52489 -4.27158 0
M  V30 585 N 53.2116 1.57565 -0.0334293 0
M  V30 586 C 54.4596 1.91598 0.642999 0
M  V30 587 C 54.7806 0.910847 1.7242 0
M  V30 588 O 54.0506 -0.0469931 1.95844 0
M  V30 589 H 52.6306 0.707228 0.240496 0
M  V30 590 H 55.2926 1.94726 -0.0822488 0
M  V30 591 H 54.3886 2.92336 1.09298 0
M  V30 592 N 54.6897 -0.239769 1.55765 0
M  V30 593 C 55.6197 -1.30052 1.9393 0
M  V30 594 C 56.6007 -1.49839 0.805132 0
M  V30 595 O 57.7857 -1.62328 1.06599 0
M  V30 596 C 54.9157 -2.65391 2.2402 0
M  V30 597 C 53.8697 -2.60289 3.39755 0
M  V30 598 C 53.1957 -3.99489 3.55405 0
M  V30 599 C 54.4957 -2.16654 4.75246 0
M  V30 600 H 56.1897 -0.983573 2.82783 0
M  V30 601 H 53.7357 -0.471701 1.36055 0
M  V30 602 H 55.6887 -3.3974 2.49308 0
M  V30 603 H 54.4127 -2.98736 1.32 0
M  V30 604 H 53.0717 -1.88398 3.14487 0
M  V30 605 H 52.7197 -4.30112 2.60793 0
M  V30 606 H 52.4197 -3.96962 4.33238 0
M  V30 607 H 53.9437 -4.75528 3.83022 0
M  V30 608 H 55.3577 -2.80737 4.99859 0
M  V30 609 H 53.7547 -2.25223 5.56232 0
M  V30 610 H 54.8247 -1.11835 4.71827 0
M  V30 611 N 56.1678 -1.49265 -0.50573 0
M  V30 612 C 57.4158 -1.582 -1.25766 0
M  V30 613 C 57.7368 -0.268482 -1.93143 0
M  V30 614 O 57.0068 0.711833 -1.8251 0
M  V30 615 H 55.5868 -0.582873 -0.467191 0
M  V30 616 H 58.2488 -1.85865 -0.586525 0
M  V30 617 H 57.3448 -2.37563 -2.02412 0
M  V30 618 N 57.6459 0.756429 -1.3826 0
M  V30 619 C 58.8949 1.51082 -1.3363 0
M  V30 620 C 59.2079 1.95467 0.0720068 0
M  V30 621 O 60.4139 2.7043 0.240834 0
M  V30 622 C 58.8699 2.72893 -2.34644 0
M  V30 623 C 58.4779 2.35544 -3.81081 0
M  V30 624 C 60.2219 3.50791 -2.39052 0
M  V30 625 C 58.1289 3.53948 -4.73787 0
M  V30 626 H 57.0589 0.56727 -0.49671 0
M  V30 627 H 59.7099 0.827147 -1.638 0
M  V30 628 H 58.0919 3.43227 -1.97513 0
M  V30 629 H 59.2659 1.72894 -4.27135 0
M  V30 630 H 57.5809 1.70786 -3.79764 0
M  V30 631 H 60.1779 4.38823 -3.05513 0
M  V30 632 H 60.5209 3.91745 -1.40861 0
M  V30 633 H 61.0539 2.87467 -2.74968 0
M  V30 634 H 57.7929 3.18064 -5.73163 0
M  V30 635 H 57.3129 4.15651 -4.32428 0
M  V30 636 H 58.9919 4.20566 -4.91663 0
M  V30 637 N 59.124 1.23083 0.984299 0
M  V30 638 C 60.37 1.06214 1.72761 0
M  V30 639 C 60.703 -0.400584 1.90024 0
M  V30 640 O 59.978 -1.29672 1.44967 0
M  V30 641 C 60.261 1.78375 3.12817 0
M  V30 642 C 60.114 3.32296 3.03149 0
M  V30 643 C 61.433 1.54309 4.12161 0
M  V30 644 H 58.552 0.387251 0.627061 0
M  V30 645 H 61.194 1.51536 1.14616 0
M  V30 646 H 59.344 1.39848 3.62457 0
M  V30 647 H 61.016 3.8032 2.61064 0
M  V30 648 H 59.259 3.6153 2.39747 0
M  V30 649 H 59.93 3.77972 4.02295 0
M  V30 650 H 62.406 1.87791 3.71314 0
M  V30 651 H 61.282 2.07281 5.08258 0
M  V30 652 H 61.543 0.477572 4.39513 0
M  V30 653 N 60.6021 -1.18246 1.0419 0
M  V30 654 C 61.8501 -1.87886 0.744543 0
M  V30 655 C 62.1711 -1.8082 -0.730006 0
M  V30 656 O 61.4411 -1.22736 -1.52685 0
M  V30 657 H 60.0211 -0.695556 0.272417 0
M  V30 658 H 62.6831 -1.43494 1.31892 0
M  V30 659 H 61.7791 -2.9389 1.05049 0
M  V30 660 N 62.0802 -0.821533 -1.34494 0
M  V30 661 C 63.0282 -0.230702 -2.31453 0
M  V30 662 C 64.0222 0.627793 -1.57338 0
M  V30 663 O 65.2282 0.519288 -1.72347 0
M  V30 664 H 61.6032 -0.0558577 -0.749923 0
M  V30 665 H 63.5742 -1.06332 -2.78812 0
M  V30 666 C 62.3232 0.59391 -3.4259 0
M  V30 667 H 61.6462 -0.0573588 -3.99759 0
M  V30 668 H 63.0862 0.973446 -4.12674 0
M  V30 669 C 61.5452 1.76568 -2.86924 0
M  V30 670 O 62.0752 2.8638 -2.81691 0
M  V30 671 N 60.2812 1.58198 -2.43766 0
M  V30 672 H 59.8282 0.68872 -2.48222 0
M  V30 673 H 59.7862 2.36752 -2.06871 0
M  V30 674 N 63.5583 1.46682 -0.576371 0
M  V30 675 C 64.8073 2.01619 -0.0572825 0
M  V30 676 C 65.1203 1.45417 1.30818 0
M  V30 677 O 66.3263 1.92133 1.91825 0
M  V30 678 C 64.7823 3.59863 -0.0518371 0
M  V30 679 C 64.3903 4.25059 -1.41523 0
M  V30 680 C 66.1343 4.2248 0.413639 0
M  V30 681 C 64.0413 5.75364 -1.36785 0
M  V30 682 H 62.9713 0.753794 -0.0176448 0
M  V30 683 H 65.6223 1.68481 -0.727076 0
M  V30 684 H 64.0043 3.90048 0.683994 0
M  V30 685 H 65.1783 4.06491 -2.17029 0
M  V30 686 H 63.4933 3.7451 -1.8202 0
M  V30 687 H 66.0903 5.3265 0.467779 0
M  V30 688 H 66.4333 3.90976 1.42982 0
M  V30 689 H 66.9663 3.96897 -0.267929 0
M  V30 690 H 63.7053 6.11518 -2.36063 0
M  V30 691 H 63.2253 5.96214 -0.654895 0
M  V30 692 H 64.9043 6.37955 -1.07805 0
M  V30 693 N 65.0364 0.313813 1.54444 0
M  V30 694 C 65.9694 -0.598866 2.20202 0
M  V30 695 C 66.9474 -1.12318 1.17573 0
M  V30 696 O 68.1314 -1.18899 1.46271 0
M  V30 697 C 65.2584 -1.82071 2.85601 0
M  V30 698 C 64.3044 -1.42851 4.01865 0
M  V30 699 S 65.1374 -0.473512 5.33402 0
M  V30 700 C 66.2934 -1.70286 6.0229 0
M  V30 701 H 66.5264 -0.0402532 2.97273 0
M  V30 702 H 64.0594 0.0979165 1.54089 0
M  V30 703 H 66.0174 -2.52184 3.23904 0
M  V30 704 H 64.6784 -2.3505 2.08351 0
M  V30 705 H 63.8714 -2.33871 4.46453 0
M  V30 706 H 63.4734 -0.807198 3.65185 0
M  V30 707 H 65.7654 -2.64168 6.23876 0
M  V30 708 H 66.7084 -1.29932 6.96077 0
M  V30 709 H 67.1164 -1.88541 5.32083 0
M  V30 710 N 66.5145 -1.57545 0.0417849 0
M  V30 711 C 67.7605 -1.92601 -0.635021 0
M  V30 712 C 68.0935 -0.919627 -1.71045 0
M  V30 713 O 67.3685 0.0557892 -1.9442 0
M  V30 714 C 67.6515 -3.38085 -1.23979 0
M  V30 715 C 67.5045 -4.49467 -0.173057 0
M  V30 716 C 68.8235 -3.83776 -2.15416 0
M  V30 717 H 65.9425 -0.700397 -0.229374 0
M  V30 718 H 68.5845 -1.89728 0.101633 0
M  V30 719 H 66.7345 -3.40664 -1.86762 0
M  V30 720 H 68.4065 -4.59018 0.458312 0
M  V30 721 H 66.6495 -4.30909 0.499996 0
M  V30 722 H 67.3205 -5.48323 -0.636054 0
M  V30 723 H 69.7965 -3.83013 -1.62605 0
M  V30 724 H 68.6725 -4.8624 -2.54679 0
M  V30 725 H 68.9335 -3.19998 -3.05047 0
M  V30 726 N 67.9926 0.231505 -1.5589 0
M  V30 727 C 69.2386 0.95877 -1.78705 0
M  V30 728 C 69.5716 1.8438 -0.609725 0
M  V30 729 O 68.8466 1.90521 0.391426 0
M  V30 730 C 69.1296 1.8062 -3.11526 0
M  V30 731 C 68.9826 0.948328 -4.39689 0
M  V30 732 C 70.3016 2.78585 -3.40703 0
M  V30 733 H 67.4206 0.347129 -0.650131 0
M  V30 734 H 70.0626 0.228259 -1.88624 0
M  V30 735 H 68.2126 2.42902 -3.03201 0
M  V30 736 H 69.8846 0.343016 -4.60023 0
M  V30 737 H 68.1276 0.253314 -4.3306 0
M  V30 738 H 68.7986 1.57543 -5.29041 0
M  V30 739 H 71.2746 2.26439 -3.49091 0
M  V30 740 H 70.1506 3.34988 -4.34826 0
M  V30 741 H 70.4116 3.55825 -2.62375 0
M  V30 742 N 69.4707 1.49531 0.497807 0
M  V30 743 C 70.4007 1.6935 1.60757 0
M  V30 744 C 71.3817 0.542218 1.61227 0
M  V30 745 O 72.5667 0.778417 1.77917 0
M  V30 746 C 69.6967 1.76298 2.99226 0
M  V30 747 C 68.6507 2.91248 3.13622 0
M  V30 748 C 67.9767 2.83312 4.53474 0
M  V30 749 C 69.2767 4.3214 2.93346 0
M  V30 750 H 70.9707 2.62263 1.44425 0
M  V30 751 H 68.5167 1.26208 0.693367 0
M  V30 752 H 70.4697 1.88749 3.76765 0
M  V30 753 H 69.1937 0.799871 3.16654 0
M  V30 754 H 67.8527 2.78404 2.38509 0
M  V30 755 H 67.5007 1.84902 4.67782 0
M  V30 756 H 67.2007 3.60465 4.64046 0
M  V30 757 H 68.7247 2.97775 5.33069 0
M  V30 758 H 70.1387 4.45649 3.60652 0
M  V30 759 H 68.5357 5.1054 3.15387 0
M  V30 760 H 69.6057 4.46363 1.89441 0
M  V30 761 N 70.9488 -0.749086 1.3866 0
M  V30 762 C 72.1948 -1.51056 1.35314 0
M  V30 763 C 72.5278 -1.94121 -0.0553751 0
M  V30 764 O 71.8028 -1.65763 -1.01749 0
M  V30 765 C 72.0858 -2.76003 2.31288 0
M  V30 766 C 71.9388 -2.39047 3.8102 0
M  V30 767 C 73.2578 -3.78046 2.2532 0
M  V30 768 H 70.3768 -0.547972 0.492844 0
M  V30 769 H 73.0188 -0.857628 1.69543 0
M  V30 770 H 71.1688 -3.31716 2.02229 0
M  V30 771 H 72.8408 -1.89074 4.20771 0
M  V30 772 H 71.0838 -1.71449 3.98482 0
M  V30 773 H 71.7548 -3.28462 4.4364 0
M  V30 774 H 74.2308 -3.31884 2.50983 0
M  V30 775 H 73.1068 -4.63159 2.94576 0
M  V30 776 H 73.3678 -4.23957 1.25352 0
M  V30 777 N 72.4269 -1.23603 -0.977757 0
M  V30 778 C 73.6729 -1.07129 -1.72195 0
M  V30 779 C 74.0059 0.390501 -1.90233 0
M  V30 780 O 73.2809 1.28902 -1.45653 0
M  V30 781 C 73.5639 -1.80031 -3.11867 0
M  V30 782 C 73.4169 -3.33899 -3.01383 0
M  V30 783 C 74.7359 -1.56492 -4.11337 0
M  V30 784 H 71.8549 -0.390571 -0.624999 0
M  V30 785 H 74.4969 -1.52142 -1.13811 0
M  V30 786 H 72.6469 -1.41768 -3.6171 0
M  V30 787 H 74.3189 -3.81699 -2.59043 0
M  V30 788 H 72.5619 -3.62796 -2.37827 0
M  V30 789 H 73.2329 -3.801 -4.00285 0
M  V30 790 H 75.7089 -1.89757 -3.70313 0
M  V30 791 H 74.5849 -2.09973 -5.07151 0
M  V30 792 H 74.8459 -0.500874 -4.39254 0
M  V30 793 N 73.905 1.17692 -1.04816 0
M  V30 794 C 74.838 2.20436 -0.590173 0
M  V30 795 C 75.816 1.58115 0.379244 0
M  V30 796 O 77 1.86228 0.291762 0
M  V30 797 C 74.127 3.38424 0.136817 0
M  V30 798 C 73.173 4.19176 -0.787023 0
M  V30 799 S 74.006 4.84815 -2.27409 0
M  V30 800 C 75.162 6.06195 -1.55817 0
M  V30 801 H 75.395 2.58944 -1.46067 0
M  V30 802 H 72.928 1.28246 -0.859784 0
M  V30 803 H 74.886 4.06798 0.550076 0
M  V30 804 H 73.547 2.98312 0.983299 0
M  V30 805 H 72.74 5.03499 -0.224681 0
M  V30 806 H 72.342 3.56219 -1.13947 0
M  V30 807 H 74.634 6.72078 -0.855387 0
M  V30 808 H 75.577 6.6695 -2.37873 0
M  V30 809 H 75.985 5.54701 -1.04722 0
M  V30 810 N 75.3831 0.828654 1.34056 0
M  V30 811 C 76.7991 0.515135 1.51058 0
M  V30 812 C 76.9991 -0.959581 1.77184 0
M  V30 813 O 76.0551 -1.74382 1.82612 0
M  V30 814 C 77.3681 1.37963 2.67183 0
M  V30 815 C 78.9161 1.37735 2.81066 0
M  V30 816 C 79.3911 2.22645 4.00241 0
M  V30 817 N 80.8821 2.203 4.07458 0
M  V30 818 C 81.6171 2.82744 4.98842 0
M  V30 819 N 81.1131 3.54201 5.9541 0
M  V30 820 N 82.9061 2.72268 4.91759 0
M  V30 821 H 75.0571 1.78343 1.15358 0
M  V30 822 H 77.3201 0.760304 0.566252 0
M  V30 823 H 77.0261 2.42714 2.54525 0
M  V30 824 H 76.9001 1.0484 3.62338 0
M  V30 825 H 79.2871 0.337593 2.93163 0
M  V30 826 H 79.3681 1.74859 1.86703 0
M  V30 827 H 79.0121 3.26674 3.88905 0
M  V30 828 H 78.9421 1.82869 4.93829 0
M  V30 829 H 81.4331 1.68327 3.38341 0
M  V30 830 H 81.7461 3.9908 6.61782 0
M  V30 831 H 80.0911 3.58308 5.95517 0
M  V30 832 H 83.2821 2.16014 4.15278 0
M  V30 833 H 83.4551 3.21219 5.62781 0
M  V30 834 N 76.8612 -1.46375 0.584142 0
M  V30 835 C 78.0892 -2.06761 0.0759296 0
M  V30 836 C 78.5042 -1.43266 -1.22965 0
M  V30 837 O 77.8612 -0.538458 -1.74376 0
M  V30 838 C 77.9122 -3.61375 -0.0950384 0
M  V30 839 O 77.6332 -4.22495 1.15887 0
M  V30 840 C 79.1342 -4.38693 -0.637434 0
M  V30 841 H 76.3542 -0.668479 0.0581075 0
M  V30 842 H 78.8982 -1.8798 0.805218 0
M  V30 843 H 77.0532 -3.79578 -0.774554 0
M  V30 844 H 77.4672 -5.15385 0.973598 0
M  V30 845 H 78.9412 -5.47464 -0.706237 0
M  V30 846 H 79.4182 -4.06836 -1.65472 0
M  V30 847 H 80.0242 -4.25299 0.00725967 0
M  V30 848 N 78.3393 -0.321999 -1.54275 0
M  V30 849 C 79.2863 0.544664 -2.24281 0
M  V30 850 C 80.2563 1.1129 -1.23303 0
M  V30 851 O 81.4413 1.15354 -1.51981 0
M  V30 852 C 78.5813 1.70045 -3.00298 0
M  V30 853 C 77.6943 1.16159 -4.1609 0
M  V30 854 C 76.8293 2.28293 -4.79641 0
M  V30 855 C 75.8683 1.71648 -5.8754 0
M  V30 856 N 75.0053 2.77438 -6.44959 0
M  V30 857 H 79.8453 -0.0588907 -2.97942 0
M  V30 858 H 77.3823 -0.0408345 -1.47043 0
M  V30 859 H 79.3403 2.38054 -3.42616 0
M  V30 860 H 77.9703 2.27531 -2.28975 0
M  V30 861 H 77.0223 0.373092 -3.78566 0
M  V30 862 H 78.3343 0.707087 -4.93763 0
M  V30 863 H 77.4883 3.0421 -5.2492 0
M  V30 864 H 76.2273 2.77079 -4.01346 0
M  V30 865 H 75.2323 0.942282 -5.41665 0
M  V30 866 H 76.4573 1.23741 -6.67731 0
M  V30 867 H 74.4033 3.25519 -5.69538 0
M  V30 868 H 74.3203 2.36547 -7.1804 0
M  V30 869 H 75.5883 3.53189 -6.94894 0
M  V30 870 N 79.8174 1.5752 -0.0501392 0
M  V30 871 C 80.7674 2.07981 0.934231 0
M  V30 872 C 81.7514 0.984745 1.27246 0
M  V30 873 O 82.9434 1.24809 1.25506 0
M  V30 874 C 80.0724 2.62751 2.20945 0
M  V30 875 C 79.1584 3.79225 1.89865 0
M  V30 876 N 79.5494 4.89036 1.29142 0
M  V30 877 C 77.8474 3.88111 2.19741 0
M  V30 878 C 78.5484 5.70084 1.15669 0
M  V30 879 N 77.5244 5.17659 1.65923 0
M  V30 880 H 81.3264 2.90277 0.460053 0
M  V30 881 H 78.8404 1.61665 0.15434 0
M  V30 882 H 80.8374 2.97205 2.9236 0
M  V30 883 H 79.4974 1.81894 2.6897 0
M  V30 884 H 80.5084 5.08854 0.963756 0
M  V30 885 H 77.1854 3.18194 2.70293 0
M  V30 886 H 78.5754 6.68395 0.685356 0
M  V30 887 N 81.2955 -0.223234 1.56011 0
M  V30 888 C 82.2285 -1.30377 1.87289 0
M  V30 889 C 83.2065 -1.45286 0.730112 0
M  V30 890 O 84.3905 -1.61126 0.978302 0
M  V30 891 C 81.5175 -2.67431 2.07843 0
M  V30 892 C 80.5635 -2.69546 3.30526 0
M  V30 893 S 81.3965 -2.23781 4.865 0
M  V30 894 C 82.5525 -3.62714 5.10088 0
M  V30 895 H 82.7855 -1.03652 2.78646 0
M  V30 896 H 80.3185 -0.425393 1.48424 0
M  V30 897 H 82.2765 -3.46336 2.20368 0
M  V30 898 H 80.9375 -2.91381 1.17285 0
M  V30 899 H 80.1305 -3.70255 3.41947 0
M  V30 900 H 79.7325 -1.98703 3.16849 0
M  V30 901 H 82.0245 -4.58391 4.98883 0
M  V30 902 H 82.9675 -3.5621 6.11981 0
M  V30 903 H 83.3755 -3.56323 4.37829 0
M  V30 904 N 82.7736 -1.49793 -0.48987 0
M  V30 905 C 84.1896 -1.36803 -0.822022 0
M  V30 906 C 84.3896 -0.409652 -1.97292 0
M  V30 907 O 83.4456 0.154614 -2.52026 0
M  V30 908 C 84.7586 -2.77768 -1.15175 0
M  V30 909 C 86.3066 -2.86549 -1.25931 0
M  V30 910 C 86.7816 -4.28306 -1.62228 0
M  V30 911 N 88.2726 -4.31169 -1.69256 0
M  V30 912 C 89.0076 -5.37832 -1.98807 0
M  V30 913 N 88.5036 -6.54726 -2.26507 0
M  V30 914 N 90.2966 -5.25258 -2.00152 0
M  V30 915 H 82.4476 -2.10691 0.268881 0
M  V30 916 H 84.7106 -0.946241 0.057728 0
M  V30 917 H 84.4166 -3.49648 -0.379335 0
M  V30 918 H 84.2906 -3.13836 -2.09253 0
M  V30 919 H 86.6776 -2.14899 -2.02243 0
M  V30 920 H 86.7586 -2.54049 -0.298776 0
M  V30 921 H 86.4026 -5.00486 -0.864622 0
M  V30 922 H 86.3326 -4.58279 -2.594 0
M  V30 923 H 88.8236 -3.4687 -1.49965 0
M  V30 924 H 89.1366 -7.31833 -2.48276 0
M  V30 925 H 87.4816 -6.57933 -2.23939 0
M  V30 926 H 90.6726 -4.32938 -1.77996 0
M  V30 927 H 90.8456 -6.08476 -2.22848 0
M  V30 928 N 84.2517 0.741722 -1.39055 0
M  V30 929 C 85.4797 1.53098 -1.39171 0
M  V30 930 C 85.8947 1.88794 0.0155099 0
M  V30 931 O 85.2517 1.53626 0.985159 0
M  V30 932 C 85.3027 2.82274 -2.2584 0
M  V30 933 O 85.0237 2.48097 -3.61081 0
M  V30 934 C 86.5247 3.76343 -2.34266 0
M  V30 935 H 83.7447 0.473335 -0.4756 0
M  V30 936 H 86.2887 0.917045 -1.82785 0
M  V30 937 H 84.4437 3.40015 -1.85656 0
M  V30 938 H 84.8577 3.31029 -4.06842 0
M  V30 939 H 86.3317 4.63898 -2.9917 0
M  V30 940 H 86.8087 4.17619 -1.35982 0
M  V30 941 H 87.4147 3.24523 -2.74891 0
M  V30 942 N 85.7298 1.2412 0.971189 0
M  V30 943 C 87.1408 1.07236 1.52831 0
M  V30 944 C 87.4918 -0.357352 1.92918 0
M  V30 945 O 86.6168 -1.24528 1.76979 0
M  V30 946 C 87.2118 1.94043 2.77728 0
M  V30 947 C 85.7708 1.81394 3.29808 0
M  V30 948 C 84.9178 1.89189 2.02738 0
M  V30 949 H 87.8688 1.37648 0.789864 0
M  V30 950 H 87.8898 1.47066 3.5093 0
M  V30 951 H 87.4018 2.98093 2.4852 0
M  V30 952 H 85.5028 0.801634 3.63874 0
M  V30 953 H 85.6158 2.65294 3.98944 0
M  V30 954 H 83.9798 1.32877 2.17292 0
M  V30 955 H 84.7628 2.94812 1.759 0
M  V30 956 N 87.2079 -1.17134 1.05439 0
M  V30 957 C 88.4359 -1.91372 0.786414 0
M  V30 958 C 88.8509 -1.76955 -0.658202 0
M  V30 959 O 88.2079 -1.10838 -1.44987 0
M  V30 960 C 88.2589 -3.42356 1.1608 0
M  V30 961 O 87.9799 -3.56332 2.54871 0
M  V30 962 C 89.4809 -4.33663 0.919322 0
M  V30 963 H 86.7009 -0.607118 0.285743 0
M  V30 964 H 89.2449 -1.48525 1.40572 0
M  V30 965 H 87.3999 -3.82939 0.586191 0
M  V30 966 H 87.8139 -4.49896 2.69618 0
M  V30 967 H 89.2879 -5.38099 1.231 0
M  V30 968 H 89.7649 -4.38959 -0.145359 0
M  V30 969 H 90.3709 -3.98796 1.47789 0
M  V30 970 N 88.686 -0.835752 -1.33615 0
M  V30 971 C 89.634 -0.255238 -2.31195 0
M  V30 972 C 90.628 0.61107 -1.57995 0
M  V30 973 O 91.834 0.500979 -1.72888 0
M  V30 974 H 88.209 -0.0638085 -0.749288 0
M  V30 975 H 90.18 -1.09283 -2.77669 0
M  V30 976 C 88.929 0.55754 -3.43201 0
M  V30 977 H 88.252 -0.0997553 -3.99676 0
M  V30 978 H 89.692 0.929622 -4.13683 0
M  V30 979 C 88.151 1.73515 -2.88781 0
M  V30 980 O 88.681 2.83376 -2.84712 0
M  V30 981 N 86.887 1.55603 -2.4543 0
M  V30 982 H 86.434 0.662354 -2.48939 0
M  V30 983 H 86.392 2.34545 -2.09371 0
M  V30 984 N 90.1641 1.46063 -0.591896 0
M  V30 985 C 91.4041 2.04228 -0.0838014 0
M  V30 986 C 91.7681 1.45231 1.25587 0
M  V30 987 O 92.9691 1.94653 1.85375 0
M  V30 988 C 91.2401 3.57389 -0.0286282 0
M  V30 989 S 92.7991 4.3678 0.420557 0
M  V30 990 H 89.6171 0.709762 -0.0419319 0
M  V30 991 H 92.2191 1.78983 -0.786465 0
M  V30 992 H 90.9231 3.97843 -1.00743 0
M  V30 993 H 90.4541 3.87185 0.69652 0
M  V30 994 H 92.4691 4.67131 1.67341 0
M  V30 995 N 91.6422 0.330177 1.54103 0
M  V30 996 C 92.8722 -0.271784 2.04805 0
M  V30 997 C 93.2802 -1.45816 1.20559 0
M  V30 998 O 92.6232 -1.82247 0.2306 0
M  V30 999 C 92.6852 -0.763238 3.51305 0
M  V30 1000 C 92.3492 0.301705 4.56003 0
M  V30 1001 C 93.3462 1.13999 5.07248 0
M  V30 1002 C 91.0312 0.451793 5.00264 0
M  V30 1003 C 93.0252 2.11402 6.01322 0
M  V30 1004 C 90.7122 1.42924 5.94151 0
M  V30 1005 C 91.7102 2.25882 6.44567 0
M  V30 1006 O 91.3982 3.21965 7.3661 0
M  V30 1007 H 91.1302 -0.058693 0.673447 0
M  V30 1008 H 93.6842 0.476395 1.99799 0
M  V30 1009 H 91.9142 -1.56244 3.5373 0
M  V30 1010 H 93.6032 -1.28427 3.85047 0
M  V30 1011 H 94.3692 1.03505 4.73827 0
M  V30 1012 H 90.2482 -0.184044 4.60632 0
M  V30 1013 H 93.7922 2.76192 6.40596 0
M  V30 1014 H 89.6892 1.53479 6.26988 0
M  V30 1015 H 90.4572 3.17281 7.54503 0
M  V30 1016 N 93.1203 -1.57491 0.0584922 0
M  V30 1017 C 94.0503 -2.14988 -0.911178 0
M  V30 1018 C 95.0313 -1.07343 -1.31952 0
M  V30 1019 O 96.2163 -1.35318 -1.39294 0
M  V30 1020 C 93.3463 -2.70078 -2.18347 0
M  V30 1021 C 92.3003 -3.82771 -1.91495 0
M  V30 1022 C 91.6263 -4.24408 -3.25241 0
M  V30 1023 C 92.9263 -5.07592 -1.23075 0
M  V30 1024 H 94.6203 -2.96263 -0.432246 0
M  V30 1025 H 92.1663 -1.42512 -0.206469 0
M  V30 1026 H 94.1193 -3.08943 -2.86587 0
M  V30 1027 H 92.8433 -1.86005 -2.68458 0
M  V30 1028 H 91.5023 -3.44389 -1.25664 0
M  V30 1029 H 91.1503 -3.37275 -3.73168 0
M  V30 1030 H 90.8503 -5.00366 -3.08071 0
M  V30 1031 H 92.3743 -4.65879 -3.94701 0
M  V30 1032 H 93.7883 -5.43857 -1.81362 0
M  V30 1033 H 92.1853 -5.88741 -1.16207 0
M  V30 1034 H 93.2553 -4.84454 -0.207847 0
M  V30 1035 N 94.5984 0.214957 -1.56127 0
M  V30 1036 C 95.8444 0.939762 -1.79712 0
M  V30 1037 C 96.1774 1.83723 -0.629247 0
M  V30 1038 O 95.4524 1.90925 0.371197 0
M  V30 1039 C 95.7354 1.77306 -3.13424 0
M  V30 1040 C 95.5884 0.90164 -4.40671 0
M  V30 1041 C 96.9074 2.74956 -3.43638 0
M  V30 1042 H 94.0264 0.340214 -0.653776 0
M  V30 1043 H 96.6684 0.20824 -1.88855 0
M  V30 1044 H 94.8184 2.39673 -3.0576 0
M  V30 1045 H 96.4904 0.294206 -4.60361 0
M  V30 1046 H 94.7334 0.207368 -4.33304 0
M  V30 1047 H 95.4044 1.51923 -5.30682 0
M  V30 1048 H 97.8804 2.22724 -3.51473 0
M  V30 1049 H 96.7564 3.30358 -4.38355 0
M  V30 1050 H 97.0174 3.53023 -2.66134 0
M  V30 1051 N 96.0765 1.50051 0.48192 0
M  V30 1052 C 97.3015 1.64508 1.26301 0
M  V30 1053 C 97.7265 0.323851 1.85291 0
M  V30 1054 O 97.0845 -0.710969 1.66778 0
M  V30 1055 C 97.1325 2.7305 2.35533 0
M  V30 1056 O 96.2365 2.3355 3.39895 0
M  V30 1057 H 95.5775 0.549978 0.372048 0
M  V30 1058 H 98.1075 1.9636 0.574786 0
M  V30 1059 H 98.1175 2.95799 2.8101 0
M  V30 1060 H 96.7925 3.68946 1.91967 0
M  V30 1061 H 95.3695 2.21205 3.00204 0
M  V30 1062 N 97.5546 -0.734337 1.39446 0
M  V30 1063 C 98.4846 -1.86155 1.40955 0
M  V30 1064 C 99.4656 -1.67898 0.272827 0
M  V30 1065 O 100.651 -1.88207 0.478743 0
M  V30 1066 C 97.7806 -3.23912 1.25294 0
M  V30 1067 C 96.7346 -3.56808 2.36373 0
M  V30 1068 C 96.0606 -4.93508 2.058 0
M  V30 1069 C 97.3606 -3.59713 3.78687 0
M  V30 1070 H 99.0546 -1.8515 2.35287 0
M  V30 1071 H 96.6006 -0.889367 1.13253 0
M  V30 1072 H 98.5536 -4.02443 1.2497 0
M  V30 1073 H 97.2776 -3.25446 0.274308 0
M  V30 1074 H 95.9366 -2.80606 2.35914 0
M  V30 1075 H 95.5846 -4.91623 1.06374 0
M  V30 1076 H 95.2846 -5.16486 2.80208 0
M  V30 1077 H 96.8086 -5.74396 2.07128 0
M  V30 1078 H 98.2226 -4.2832 3.81071 0
M  V30 1079 H 96.6196 -3.94209 4.52459 0
M  V30 1080 H 97.6896 -2.59504 4.09617 0
M  V30 1081 N 99.0327 -1.24633 -0.964593 0
M  V30 1082 C 99.9957 -1.0424 -2.04124 0
M  V30 1083 C 100.996 0.00137563 -1.608 0
M  V30 1084 O 102.186 -0.239883 -1.7254 0
M  V30 1085 C 99.3177 -0.580588 -3.3592 0
M  V30 1086 H 100.511 -1.99803 -2.23649 0
M  V30 1087 H 98.0637 -1.06899 -1.14027 0
M  V30 1088 H 98.7987 0.3781 -3.22088 0
M  V30 1089 H 98.5837 -1.33398 -3.6871 0
M  V30 1090 H 100.074 -0.459034 -4.15069 0
M  V30 1091 N 100.511 1.16574 -1.06058 0
M  V30 1092 C 101.757 1.87324 -0.777022 0
M  V30 1093 C 102.09 1.81351 0.694645 0
M  V30 1094 O 101.365 1.22753 1.50871 0
M  V30 1095 C 101.648 3.36991 -1.26922 0
M  V30 1096 C 101.501 3.51667 -2.80447 0
M  V30 1097 C 102.82 4.3131 -0.87521 0
M  V30 1098 H 99.9388 0.680191 -0.28374 0
M  V30 1099 H 102.581 1.37036 -1.3161 0
M  V30 1100 H 100.731 3.79949 -0.81063 0
M  V30 1101 H 102.403 3.17664 -3.34495 0
M  V30 1102 H 100.646 2.93656 -3.19294 0
M  V30 1103 H 101.317 4.56766 -3.0995 0
M  V30 1104 H 103.793 3.9624 -1.27014 0
M  V30 1105 H 102.669 5.34545 -1.2471 0
M  V30 1106 H 102.93 4.41552 0.220071 0
M  V30 1107 N 101.989 0.842826 1.3317 0
M  V30 1108 C 102.952 0.284065 2.27433 0
M  V30 1109 C 103.952 -0.54948 1.5112 0
M  V30 1110 O 105.142 -0.362699 1.70382 0
M  V30 1111 C 102.274 -0.599384 3.35589 0
M  V30 1112 H 103.467 1.11589 2.78366 0
M  V30 1113 H 101.02 0.616221 1.4364 0
M  V30 1114 H 101.755 -1.45349 2.89904 0
M  V30 1115 H 101.54 -0.00291266 3.921 0
M  V30 1116 H 103.03 -0.983488 4.05854 0
M  V30 1117 N 103.467 -1.45747 0.599634 0
M  V30 1118 C 104.744 -1.95585 0.0240846 0
M  V30 1119 C 105.124 -1.54217 -1.44154 0
M  V30 1120 O 104.472 -0.800903 -2.14004 0
M  V30 1121 C 104.682 -3.48344 0.21385 0
M  V30 1122 C 106.03 -4.24504 0.0904902 0
M  V30 1123 O 107.054 -3.55911 0.143558 0
M  V30 1124 O 105.913 -5.46491 -0.0310766 0
M  V30 1125 H 103.007 -0.82602 -0.0402478 0
M  V30 1126 H 105.553 -1.55951 0.669139 0
M  V30 1127 H 104.325 -3.71397 1.23206 0
M  V30 1128 H 103.948 -3.9485 -0.466842 0
M  V30 1129 N 104.945 -0.338344 -1.53925 0
M  V30 1130 C 105.875 0.51328 -2.27789 0
M  V30 1131 C 106.856 1.107 -1.29149 0
M  V30 1132 O 108.041 1.12937 -1.57984 0
M  V30 1133 C 105.171 1.66697 -3.04679 0
M  V30 1134 C 104.125 1.20183 -4.1078 0
M  V30 1135 C 103.451 2.44363 -4.75595 0
M  V30 1136 C 104.751 0.30605 -5.21403 0
M  V30 1137 H 106.445 -0.102883 -2.99223 0
M  V30 1138 H 103.991 -0.0509219 -1.4391 0
M  V30 1139 H 105.944 2.26915 -3.55088 0
M  V30 1140 H 104.668 2.30995 -2.30887 0
M  V30 1141 H 103.327 0.622499 -3.61276 0
M  V30 1142 H 102.975 3.07057 -3.98403 0
M  V30 1143 H 102.675 2.13925 -5.47275 0
M  V30 1144 H 104.199 3.05317 -5.28786 0
M  V30 1145 H 105.613 0.814929 -5.67478 0
M  V30 1146 H 104.01 0.0937929 -6.00027 0
M  V30 1147 H 105.08 -0.65921 -4.80398 0
M  V30 1148 N 106.423 1.57458 -0.0668435 0
M  V30 1149 C 107.356 2.08033 0.93795 0
M  V30 1150 C 108.334 0.984321 1.29421 0
M  V30 1151 O 109.518 1.25736 1.40437 0
M  V30 1152 C 106.645 2.53388 2.24749 0
M  V30 1153 C 105.691 3.74376 2.04315 0
M  V30 1154 S 106.524 5.19303 1.30706 0
M  V30 1155 C 107.68 5.67986 2.62951 0
M  V30 1156 H 107.913 2.92935 0.50759 0
M  V30 1157 H 105.446 1.5371 0.145804 0
M  V30 1158 H 107.404 2.8018 3.00016 0
M  V30 1159 H 106.065 1.68763 2.64911 0
M  V30 1160 H 105.258 4.04083 3.01218 0
M  V30 1161 H 104.86 3.47931 1.37186 0
M  V30 1162 H 107.152 5.74528 3.5906 0
M  V30 1163 H 108.095 6.66955 2.3786 0
M  V30 1164 H 108.503 4.95781 2.69929 0
M  V30 1165 N 107.901 -0.206675 1.56239 0
M  V30 1166 C 109.147 -0.930218 1.80208 0
M  V30 1167 C 109.48 -1.83387 0.638981 0
M  V30 1168 O 108.755 -1.91119 -0.361066 0
M  V30 1169 C 109.038 -1.75641 3.1436 0
M  V30 1170 C 108.891 -0.878257 4.41142 0
M  V30 1171 C 110.21 -2.73129 3.45092 0
M  V30 1172 H 107.329 -0.336742 0.655571 0
M  V30 1173 H 109.971 -0.198222 1.88963 0
M  V30 1174 H 108.121 -2.38048 3.07027 0
M  V30 1175 H 109.793 -0.269787 4.6051 0
M  V30 1176 H 108.036 -0.184385 4.33408 0
M  V30 1177 H 108.707 -1.49106 5.3148 0
M  V30 1178 H 111.183 -2.20856 3.52649 0
M  V30 1179 H 110.059 -3.28028 4.40101 0
M  V30 1180 H 110.32 -3.51606 2.68003 0
M  V30 1181 N 109.379 -1.50304 -0.473955 0
M  V30 1182 C 110.309 -1.71886 -1.58042 0
M  V30 1183 C 111.29 -0.567799 -1.60344 0
M  V30 1184 O 112.475 -0.806623 -1.76656 0
M  V30 1185 C 109.605 -1.81036 -2.96384 0
M  V30 1186 C 108.559 -2.962 -3.08949 0
M  V30 1187 C 107.885 -2.9049 -4.48909 0
M  V30 1188 C 109.185 -4.36752 -2.86434 0
M  V30 1189 H 110.879 -2.64527 -1.40234 0
M  V30 1190 H 108.425 -1.27295 -0.673201 0
M  V30 1191 H 110.378 -1.94719 -3.73714 0
M  V30 1192 H 109.102 -0.850147 -3.15341 0
M  V30 1193 H 107.761 -2.82164 -2.3405 0
M  V30 1194 H 107.409 -1.92321 -4.64781 0
M  V30 1195 H 107.109 -3.67802 -4.58253 0
M  V30 1196 H 108.633 -3.06218 -5.28264 0
M  V30 1197 H 110.047 -4.5133 -3.53517 0
M  V30 1198 H 108.444 -5.15493 -3.07225 0
M  V30 1199 H 109.514 -4.49321 -1.82316 0
M  V30 1200 N 110.857 0.726932 -1.39834 0
M  V30 1201 C 112.103 1.48884 -1.377 0
M  V30 1202 C 112.436 1.94185 0.0244852 0
M  V30 1203 O 111.711 1.67361 0.990986 0
M  V30 1204 C 111.994 2.72288 -2.3565 0
M  V30 1205 C 111.847 2.32956 -3.84775 0
M  V30 1206 C 113.166 3.74414 -2.31306 0
M  V30 1207 H 110.285 0.540062 -0.5015 0
M  V30 1208 H 112.927 0.830547 -1.70886 0
M  V30 1209 H 111.077 3.28457 -2.07481 0
M  V30 1210 H 112.749 1.82356 -4.23726 0
M  V30 1211 H 110.992 1.65088 -4.01159 0
M  V30 1212 H 111.663 3.21362 -4.4881 0
M  V30 1213 H 114.139 3.27849 -2.56231 0
M  V30 1214 H 113.015 4.58414 -3.01907 0
M  V30 1215 H 113.276 4.21909 -1.32081 0
M  V30 1216 N 112.336 1.25143 0.95797 0
M  V30 1217 C 113.299 1.05321 2.03569 0
M  V30 1218 C 114.299 0.007152 1.60798 0
M  V30 1219 O 115.489 0.24903 1.72411 0
M  V30 1220 C 112.621 0.598394 3.35607 0
M  V30 1221 H 113.814 2.00986 2.22586 0
M  V30 1222 H 111.367 1.07502 1.13459 0
M  V30 1223 H 112.102 -0.361014 3.22284 0
M  V30 1224 H 111.887 1.35351 3.67998 0
M  V30 1225 H 113.377 0.48104 4.1482 0
M  V30 1226 N 113.814 -1.1601 1.06675 0
M  V30 1227 C 114.777 -2.18724 0.685001 0
M  V30 1228 C 115.777 -1.58496 -0.271246 0
M  V30 1229 O 116.967 -1.74119 -0.0531156 0
M  V30 1230 C 114.099 -3.40899 0.00853648 0
M  V30 1231 H 115.292 -2.54011 1.59431 0
M  V30 1232 H 112.845 -1.30352 0.862441 0
M  V30 1233 H 113.58 -3.11173 -0.913337 0
M  V30 1234 H 113.365 -3.8587 0.696204 0
M  V30 1235 H 114.855 -4.16886 -0.24414 0
M  V30 1236 N 115.292 -0.849877 -1.32721 0
M  V30 1237 C 116.54 -0.450032 -1.97026 0
M  V30 1238 C 116.861 0.996604 -1.67609 0
M  V30 1239 O 116.131 1.6958 -0.980786 0
M  V30 1240 H 114.711 -0.163426 -0.728904 0
M  V30 1241 H 117.373 -1.08526 -1.6189 0
M  V30 1242 H 116.469 -0.591146 -3.0645 0
M  V30 1243 N 116.77 1.45427 -0.607355 0
M  V30 1244 C 117.7 2.3329 0.0989352 0
M  V30 1245 C 118.681 1.46816 0.859007 0
M  V30 1246 O 119.866 1.75588 0.829604 0
M  V30 1247 C 116.996 3.29518 1.09705 0
M  V30 1248 C 115.95 4.25626 0.450206 0
M  V30 1249 C 115.276 5.11542 1.55655 0
M  V30 1250 C 116.576 5.18505 -0.628455 0
M  V30 1251 H 118.27 2.92595 -0.634716 0
M  V30 1252 H 115.816 1.40696 -0.306681 0
M  V30 1253 H 117.769 3.89855 1.59971 0
M  V30 1254 H 116.493 2.68372 1.86129 0
M  V30 1255 H 115.152 3.66586 -0.0315886 0
M  V30 1256 H 114.8 4.46765 2.31107 0
M  V30 1257 H 114.5 5.76647 1.12925 0
M  V30 1258 H 116.024 5.74748 2.06148 0
M  V30 1259 H 117.438 5.72916 -0.209877 0
M  V30 1260 H 115.835 5.92085 -0.977489 0
M  V30 1261 H 116.905 4.60948 -1.50514 0
M  V30 1262 N 118.248 0.346503 1.53744 0
M  V30 1263 C 119.659 -0.136779 1.86198 0
M  V30 1264 C 120.01 -1.49749 1.26766 0
M  V30 1265 O 119.135 -2.08417 0.582355 0
M  V30 1266 C 119.73 -0.254966 3.37839 0
M  V30 1267 C 118.289 -0.682482 3.70161 0
M  V30 1268 C 117.436 0.181981 2.76702 0
M  V30 1269 H 120.387 0.565994 1.48264 0
M  V30 1270 H 120.408 -1.08195 3.64793 0
M  V30 1271 H 119.92 0.735526 3.81066 0
M  V30 1272 H 118.021 -1.68189 3.3248 0
M  V30 1273 H 118.134 -0.470326 4.76786 0
M  V30 1274 H 116.498 -0.34615 2.52337 0
M  V30 1275 H 117.281 1.16966 3.2276 0
M  V30 1276 N 119.726 -1.57421 0.075193 0
M  V30 1277 C 120.674 -2.14124 -0.908508 0
M  V30 1278 C 121.668 -1.07898 -1.30592 0
M  V30 1279 O 122.874 -1.26273 -1.28277 0
M  V30 1280 H 119.249 -0.684707 -0.310935 0
M  V30 1281 H 121.22 -2.95634 -0.405374 0
M  V30 1282 C 119.969 -2.72044 -2.16535 0
M  V30 1283 H 119.292 -3.53456 -1.86839 0
M  V30 1284 H 120.732 -3.15311 -2.83469 0
M  V30 1285 C 119.191 -1.66968 -2.92615 0
M  V30 1286 O 119.721 -1.0967 -3.86439 0
M  V30 1287 N 117.927 -1.37923 -2.55784 0
M  V30 1288 H 117.474 -1.84706 -1.79559 0
M  V30 1289 H 117.432 -0.67852 -3.06991 0
M  V30 1290 N 121.204 0.198386 -1.56346 0
M  V30 1291 C 122.453 0.917451 -1.79627 0
M  V30 1292 C 122.766 1.8456 -0.64784 0
M  V30 1293 O 123.972 2.60504 -0.764859 0
M  V30 1294 C 122.428 1.68175 -3.18191 0
M  V30 1295 C 122.036 0.798589 -4.40825 0
M  V30 1296 C 123.78 2.39065 -3.50782 0
M  V30 1297 C 121.687 1.56157 -5.70411 0
M  V30 1298 H 120.617 0.346317 -0.669762 0
M  V30 1299 H 123.268 0.170801 -1.82703 0
M  V30 1300 H 121.65 2.47216 -3.09354 0
M  V30 1301 H 122.824 0.0470665 -4.60776 0
M  V30 1302 H 121.139 0.200686 -4.15916 0
M  V30 1303 H 123.736 2.96692 -4.44835 0
M  V30 1304 H 124.079 3.13091 -2.74371 0
M  V30 1305 H 124.612 1.66993 -3.61052 0
M  V30 1306 H 121.351 0.864142 -6.49779 0
M  V30 1307 H 120.871 2.2871 -5.54483 0
M  V30 1308 H 122.55 2.11622 -6.11412 0
M  V30 1309 N 122.682 1.50554 0.465978 0
M  V30 1310 C 123.91 1.65563 1.24083 0
M  V30 1311 C 124.325 0.341051 1.85694 0
M  V30 1312 O 123.682 -0.677543 1.69457 0
M  V30 1313 C 123.733 2.75051 2.34583 0
M  V30 1314 O 123.454 4.01413 1.75497 0
M  V30 1315 C 124.955 3.01078 3.25372 0
M  V30 1316 H 122.175 0.55638 0.375077 0
M  V30 1317 H 124.719 1.96807 0.555624 0
M  V30 1318 H 122.874 2.46486 2.9887 0
M  V30 1319 H 123.288 4.62002 2.48303 0
M  V30 1320 H 124.762 3.81339 3.99105 0
M  V30 1321 H 125.239 2.12349 3.84453 0
M  V30 1322 H 125.845 3.31194 2.66816 0
M  V30 1323 N 124.16 -0.719506 1.40217 0
M  V30 1324 C 125.437 -1.47221 1.28784 0
M  V30 1325 C 125.817 -2.10883 -0.0956067 0
M  V30 1326 O 125.165 -1.99833 -1.10811 0
M  V30 1327 C 125.375 -2.5111 2.42373 0
M  V30 1328 C 126.723 -3.17053 2.82423 0
M  V30 1329 O 127.747 -2.61429 2.41937 0
M  V30 1330 O 126.606 -4.17742 3.52355 0
M  V30 1331 H 123.7 -0.654491 0.50554 0
M  V30 1332 H 126.246 -0.752014 1.52128 0
M  V30 1333 H 125.018 -2.02556 3.34793 0
M  V30 1334 H 124.641 -3.3067 2.20778 0
M  V30 1335 N 125.638 -1.25649 -0.95132 0
M  V30 1336 C 126.863 -1.13443 -1.73624 0
M  V30 1337 C 127.288 0.307565 -1.85568 0
M  V30 1338 O 126.646 1.22282 -1.33854 0
M  V30 1339 C 126.694 -1.79723 -3.12621 0
M  V30 1340 O 125.798 -1.07912 -3.98031 0
M  V30 1341 H 125.139 -0.395872 -0.533086 0
M  V30 1342 H 127.669 -1.66276 -1.1922 0
M  V30 1343 H 127.679 -1.86141 -3.63064 0
M  V30 1344 H 126.354 -2.84633 -3.03244 0
M  V30 1345 H 124.931 -1.09398 -3.56492 0
M  V30 1346 N 127.117 1.15442 -1.07289 0
M  V30 1347 C 128.366 1.85557 -0.790669 0
M  V30 1348 C 128.679 1.83186 0.685739 0
M  V30 1349 O 129.885 2.48977 1.0827 0
M  V30 1350 C 128.341 3.33038 -1.36433 0
M  V30 1351 C 127.949 3.43856 -2.8717 0
M  V30 1352 C 129.693 4.0834 -1.1601 0
M  V30 1353 C 127.6 4.85482 -3.3773 0
M  V30 1354 H 126.53 0.695122 -0.292098 0
M  V30 1355 H 129.181 1.30219 -1.29287 0
M  V30 1356 H 127.563 3.88043 -0.789864 0
M  V30 1357 H 128.737 2.98961 -3.50655 0
M  V30 1358 H 127.052 2.81998 -3.06376 0
M  V30 1359 H 129.649 5.12859 -1.51262 0
M  V30 1360 H 129.992 4.16182 -0.0991007 0
M  V30 1361 H 130.525 3.59603 -1.70089 0
M  V30 1362 H 127.264 4.82823 -4.43353 0
M  V30 1363 H 126.784 5.30961 -2.78999 0
M  V30 1364 H 128.463 5.54335 -3.33648 0
M  V30 1365 N 128.595 0.856903 1.32268 0
M  V30 1366 C 129.825 0.47475 2.01071 0
M  V30 1367 C 130.233 -0.933746 1.64553 0
M  V30 1368 O 129.576 -1.62114 0.863989 0
M  V30 1369 C 129.638 0.536746 3.55471 0
M  V30 1370 C 129.302 1.90453 4.15423 0
M  V30 1371 C 130.299 2.87029 4.33486 0
M  V30 1372 C 127.984 2.20229 4.51447 0
M  V30 1373 C 129.978 4.11532 4.86744 0
M  V30 1374 C 127.665 3.44984 5.0441 0
M  V30 1375 C 128.663 4.40452 5.22007 0
M  V30 1376 O 128.351 5.62998 5.73837 0
M  V30 1377 H 128.083 0.184778 0.650256 0
M  V30 1378 H 130.637 1.15615 1.69771 0
M  V30 1379 H 128.867 -0.20152 3.86175 0
M  V30 1380 H 130.556 0.169875 4.05544 0
M  V30 1381 H 131.322 2.6533 4.05986 0
M  V30 1382 H 127.201 1.46705 4.37034 0
M  V30 1383 H 130.745 4.86056 5.00395 0
M  V30 1384 H 126.642 3.66532 5.31342 0
M  V30 1385 H 127.41 5.64987 5.92226 0
M  V30 1386 N 130.073 -1.45103 0.615059 0
M  V30 1387 C 131.321 -2.01784 0.112955 0
M  V30 1388 C 131.642 -1.48504 -1.26378 0
M  V30 1389 O 130.912 -0.682245 -1.83636 0
M  V30 1390 H 129.492 -0.745993 0.0387668 0
M  V30 1391 H 132.154 -1.77808 0.798141 0
M  V30 1392 H 131.25 -3.12025 0.0684069 0
M  V30 1393 N 131.551 -0.354651 -1.53558 0
M  V30 1394 C 132.776 0.242153 -2.05981 0
M  V30 1395 C 133.201 1.42553 -1.2272 0
M  V30 1396 O 132.559 1.79656 -0.243604 0
M  V30 1397 C 132.607 0.624367 -3.55154 0
M  V30 1398 O 131.711 1.72301 -3.74681 0
M  V30 1399 H 131.052 0.0378432 -0.662921 0
M  V30 1400 H 133.582 -0.512087 -1.98088 0
M  V30 1401 H 133.592 0.898433 -3.97985 0
M  V30 1402 H 132.267 -0.240989 -4.15201 0
M  V30 1403 H 130.844 1.44535 -3.4375 0
M  V30 1404 N 133.029 1.57378 -0.0835403 0
M  V30 1405 C 134.275 1.95025 0.577664 0
M  V30 1406 C 134.63 0.964049 1.66505 0
M  V30 1407 O 133.923 -0.0118235 1.91596 0
M  V30 1408 C 134.117 3.37063 1.1884 0
M  V30 1409 C 133.946 4.49409 0.16171 0
M  V30 1410 C 132.716 5.04642 -0.257756 0
M  V30 1411 C 134.914 5.10722 -0.605634 0
M  V30 1412 N 132.896 6.00537 -1.27393 0
M  V30 1413 C 134.267 6.02225 -1.47395 0
M  V30 1414 C 136.322 4.93501 -0.660418 0
M  V30 1415 C 135.025 6.78355 -2.39221 0
M  V30 1416 C 137.051 5.70283 -1.56623 0
M  V30 1417 C 136.413 6.61444 -2.4222 0
M  V30 1418 H 132.512 0.760512 0.182058 0
M  V30 1419 H 135.096 1.94013 -0.163419 0
M  V30 1420 H 133.267 3.3879 1.89936 0
M  V30 1421 H 134.999 3.61917 1.81103 0
M  V30 1422 H 131.754 4.73428 0.127702 0
M  V30 1423 H 132.178 6.53184 -1.77987 0
M  V30 1424 H 136.82 4.22798 -0.0128221 0
M  V30 1425 H 134.538 7.48327 -3.05011 0
M  V30 1426 H 138.124 5.58976 -1.61361 0
M  V30 1427 H 137.004 7.1982 -3.11174 0
M  V30 1428 N 134.507 -0.190092 1.56449 0
M  V30 1429 C 135.753 -0.911052 1.81184 0
M  V30 1430 C 136.086 -1.82699 0.658396 0
M  V30 1431 O 135.361 -1.91491 -0.340775 0
M  V30 1432 C 135.644 -1.72297 3.16205 0
M  V30 1433 C 135.497 -0.831419 4.42049 0
M  V30 1434 C 136.816 -2.69454 3.47969 0
M  V30 1435 H 133.935 -0.32977 0.659106 0
M  V30 1436 H 136.577 -0.178169 1.89163 0
M  V30 1437 H 134.727 -2.34778 3.09534 0
M  V30 1438 H 136.399 -0.220929 4.60771 0
M  V30 1439 H 134.642 -0.138406 4.33579 0
M  V30 1440 H 135.313 -1.43461 5.33032 0
M  V30 1441 H 137.789 -2.17104 3.54972 0
M  V30 1442 H 136.665 -3.23342 4.43555 0
M  V30 1443 H 136.926 -3.48744 2.71717 0
M  V30 1444 N 135.985 -1.50799 -0.457987 0
M  V30 1445 C 137.215 -1.65977 -1.23025 0
M  V30 1446 C 137.623 -0.347918 -1.85974 0
M  V30 1447 O 136.966 0.68148 -1.70592 0
M  V30 1448 C 137.028 -2.70309 -2.3701 0
M  V30 1449 C 136.692 -4.135 -1.94594 0
M  V30 1450 C 137.689 -4.98949 -1.46101 0
M  V30 1451 C 135.374 -4.5949 -2.02915 0
M  V30 1452 C 137.368 -6.28442 -1.06489 0
M  V30 1453 C 135.055 -5.88984 -1.62914 0
M  V30 1454 C 136.053 -6.73286 -1.1478 0
M  V30 1455 O 135.741 -8.00362 -0.75339 0
M  V30 1456 H 135.473 -0.56064 -0.377702 0
M  V30 1457 H 138.027 -1.97857 -0.551537 0
M  V30 1458 H 136.257 -2.337 -3.08093 0
M  V30 1459 H 137.946 -2.74574 -2.98938 0
M  V30 1460 H 138.712 -4.6463 -1.39084 0
M  V30 1461 H 134.591 -3.94009 -2.39328 0
M  V30 1462 H 138.135 -6.94194 -0.688488 0
M  V30 1463 H 134.032 -6.22822 -1.69595 0
M  V30 1464 H 134.8 -8.13744 -0.88108 0
M  V30 1465 N 137.463 0.71206 -1.40597 0
M  V30 1466 C 138.711 1.46907 -1.38791 0
M  V30 1467 C 139.032 1.94998 0.00780391 0
M  V30 1468 O 138.302 1.70587 0.963174 0
M  V30 1469 H 136.882 0.545043 -0.51082 0
M  V30 1470 H 139.544 0.843882 -1.75683 0
M  V30 1471 H 138.64 2.34021 -2.06496 0
M  V30 1472 N 138.941 1.26152 0.944643 0
M  V30 1473 C 140.171 1.14094 1.72239 0
M  V30 1474 C 140.579 -0.306931 1.86694 0
M  V30 1475 O 139.922 -1.22222 1.3714 0
M  V30 1476 C 139.984 1.73316 3.14963 0
M  V30 1477 C 139.648 3.2239 3.23904 0
M  V30 1478 C 140.645 4.19252 3.07447 0
M  V30 1479 C 138.33 3.62788 3.47405 0
M  V30 1480 C 140.324 5.54491 3.14353 0
M  V30 1481 C 138.011 4.98162 3.53947 0
M  V30 1482 C 139.009 5.93823 3.37436 0
M  V30 1483 O 138.697 7.26732 3.43679 0
M  V30 1484 H 138.429 0.398292 0.546205 0
M  V30 1485 H 140.983 1.67201 1.19301 0
M  V30 1486 H 139.213 1.14667 3.69308 0
M  V30 1487 H 140.902 1.56214 3.74636 0
M  V30 1488 H 141.668 3.8938 2.8915 0
M  V30 1489 H 137.547 2.88816 3.59313 0
M  V30 1490 H 141.091 6.29137 3.01384 0
M  V30 1491 H 136.988 5.27695 3.71763 0
M  V30 1492 H 137.756 7.3496 3.60245 0
M  V30 1493 N 140.419 -1.14872 1.07899 0
M  V30 1494 C 141.665 -1.86064 0.806725 0
M  V30 1495 C 141.998 -1.82434 -0.665706 0
M  V30 1496 O 141.273 -1.25138 -1.48899 0
M  V30 1497 C 141.556 -3.34929 1.32267 0
M  V30 1498 C 141.409 -3.47161 2.86006 0
M  V30 1499 C 142.728 -4.29863 0.943717 0
M  V30 1500 H 139.847 -0.675591 0.294526 0
M  V30 1501 H 142.489 -1.34925 1.33773 0
M  V30 1502 H 140.639 -3.78611 0.870974 0
M  V30 1503 H 142.311 -3.12302 3.39507 0
M  V30 1504 H 140.554 -2.88539 3.23925 0
M  V30 1505 H 141.225 -4.51777 3.17177 0
M  V30 1506 H 143.701 -3.9417 1.33302 0
M  V30 1507 H 142.577 -5.32494 1.33198 0
M  V30 1508 H 142.838 -4.41846 -0.149796 0
M  V30 1509 N 141.898 -0.863906 -1.31812 0
M  V30 1510 C 143.146 -0.470904 -1.96537 0
M  V30 1511 C 143.467 0.978771 -1.68657 0
M  V30 1512 O 142.737 1.6853 -0.998717 0
M  V30 1513 H 141.317 -0.171148 -0.72713 0
M  V30 1514 H 143.979 -1.10236 -1.60729 0
M  V30 1515 H 143.075 -0.623616 -3.05806 0
M  V30 1516 N 143.376 1.44774 -0.622745 0
M  V30 1517 C 144.616 2.04004 -0.127102 0
M  V30 1518 C 144.98 1.47862 1.22478 0
M  V30 1519 O 146.181 1.98541 1.81204 0
M  V30 1520 C 144.452 3.57247 -0.104429 0
M  V30 1521 S 146.011 4.37574 0.327814 0
M  V30 1522 H 142.829 0.708713 -0.0569776 0
M  V30 1523 H 145.431 1.77275 -0.824253 0
M  V30 1524 H 144.135 3.95616 -1.09159 0
M  V30 1525 H 143.666 3.88575 0.614236 0
M  V30 1526 H 145.681 4.70575 1.57395 0
M  V30 1527 N 144.854 0.36279 1.53368 0
M  V30 1528 C 145.784 -0.476976 2.28576 0
M  V30 1529 C 146.765 -1.08631 1.30894 0
M  V30 1530 O 147.95 -1.10409 1.59761 0
M  V30 1531 C 145.08 -1.61828 3.07293 0
M  V30 1532 C 144.034 -1.13633 4.1264 0
M  V30 1533 C 143.36 -2.36766 4.79423 0
M  V30 1534 C 144.66 -0.223061 5.21823 0
M  V30 1535 H 146.354 0.150474 2.99022 0
M  V30 1536 H 143.9 0.0738103 1.43811 0
M  V30 1537 H 145.853 -2.21237 3.58653 0
M  V30 1538 H 144.577 -2.27292 2.34533 0
M  V30 1539 H 143.236 -0.564945 3.62221 0
M  V30 1540 H 142.884 -3.0068 4.03238 0
M  V30 1541 H 142.584 -2.05192 5.50609 0
M  V30 1542 H 144.108 -2.96865 5.33576 0
M  V30 1543 H 145.522 -0.724545 5.68703 0
M  V30 1544 H 143.919 0.001678 6.001 0
M  V30 1545 H 144.989 0.735553 4.79289 0
M  V30 1546 N 146.332 -1.57332 0.0918853 0
M  V30 1547 C 147.572 -1.96117 -0.575988 0
M  V30 1548 C 147.936 -0.972499 -1.65549 0
M  V30 1549 O 149.137 -1.24872 -2.38034 0
M  V30 1550 C 147.408 -3.39407 -1.11973 0
M  V30 1551 S 148.967 -4.00185 -1.79992 0
M  V30 1552 H 145.785 -0.685682 -0.188045 0
M  V30 1553 H 148.387 -1.94755 0.170525 0
M  V30 1554 H 147.091 -4.09131 -0.322504 0
M  V30 1555 H 146.622 -3.44358 -1.90214 0
M  V30 1556 H 148.637 -3.88728 -3.08391 0
M  V30 1557 N 147.81 0.181792 -1.56548 0
M  V30 1558 C 149.059 0.898348 -1.8059 0
M  V30 1559 C 149.372 1.83862 -0.667379 0
M  V30 1560 O 150.578 2.59678 -0.792446 0
M  V30 1561 C 149.034 1.64791 -3.19956 0
M  V30 1562 C 148.642 0.751789 -4.41647 0
M  V30 1563 C 150.386 2.35331 -3.53298 0
M  V30 1564 C 148.293 1.50098 -5.72035 0
M  V30 1565 H 147.223 0.339194 -0.673397 0
M  V30 1566 H 149.874 0.151413 -1.82874 0
M  V30 1567 H 148.256 2.43921 -3.11959 0
M  V30 1568 H 149.43 -0.0018076 -4.608 0
M  V30 1569 H 147.745 0.156562 -4.16106 0
M  V30 1570 H 150.342 2.91958 -4.47956 0
M  V30 1571 H 150.685 3.10164 -2.77676 0
M  V30 1572 H 151.218 1.63154 -3.62803 0
M  V30 1573 H 147.957 0.795175 -6.50659 0
M  V30 1574 H 147.477 2.22817 -5.56878 0
M  V30 1575 H 149.156 2.05125 -6.13622 0
M  V30 1576 N 149.288 1.51039 0.449983 0
M  V30 1577 C 150.516 1.66869 1.2232 0
M  V30 1578 C 150.931 0.360727 1.85322 0
M  V30 1579 O 150.288 -0.659531 1.70166 0
M  V30 1580 C 150.339 2.77524 2.31652 0
M  V30 1581 O 150.06 4.03252 1.7123 0
M  V30 1582 C 151.561 3.04512 3.2216 0
M  V30 1583 H 148.781 0.560326 0.369155 0
M  V30 1584 H 151.325 1.97385 0.534719 0
M  V30 1585 H 149.48 2.49642 2.96239 0
M  V30 1586 H 149.894 4.64609 2.43389 0
M  V30 1587 H 151.368 3.85551 3.95038 0
M  V30 1588 H 151.845 2.16415 3.8218 0
M  V30 1589 H 152.451 3.34005 2.63288 0
M  V30 1590 N 150.766 -0.704594 1.40972 0
M  V30 1591 C 151.996 -1.49138 1.42974 0
M  V30 1592 C 152.404 -1.89175 0.0308406 0
M  V30 1593 O 151.747 -1.56734 -0.958138 0
M  V30 1594 C 151.809 -2.79016 2.26694 0
M  V30 1595 C 151.473 -2.61236 3.74973 0
M  V30 1596 C 152.47 -2.27773 4.67349 0
M  V30 1597 C 150.155 -2.77158 4.18914 0
M  V30 1598 C 152.149 -2.10457 6.01653 0
M  V30 1599 C 149.836 -2.59459 5.53285 0
M  V30 1600 C 150.834 -2.26158 6.4447 0
M  V30 1601 O 150.522 -2.08605 7.76363 0
M  V30 1602 H 150.254 -0.466443 0.489292 0
M  V30 1603 H 152.808 -0.8758 1.85793 0
M  V30 1604 H 151.038 -3.42947 1.78673 0
M  V30 1605 H 152.727 -3.40782 2.20504 0
M  V30 1606 H 153.493 -2.15095 4.34694 0
M  V30 1607 H 149.372 -3.02064 3.48251 0
M  V30 1608 H 152.916 -1.84387 6.72791 0
M  V30 1609 H 148.813 -2.71725 5.85522 0
M  V30 1610 H 149.581 -2.23439 7.87412 0
M  V30 1611 N 152.244 -1.26651 -0.937939 0
M  V30 1612 C 153.174 -1.10993 -2.05433 0
M  V30 1613 C 154.155 -0.0142161 -1.70094 0
M  V30 1614 O 155.34 -0.186837 -1.93299 0
M  V30 1615 C 152.47 -0.745561 -3.39203 0
M  V30 1616 C 151.424 -1.79337 -3.88616 0
M  V30 1617 C 150.75 -1.28324 -5.19073 0
M  V30 1618 C 152.05 -3.19553 -4.13138 0
M  V30 1619 H 153.744 -2.0438 -2.1879 0
M  V30 1620 H 151.29 -0.984041 -1.05131 0
M  V30 1621 H 153.243 -0.622888 -4.16771 0
M  V30 1622 H 151.967 0.22401 -3.25831 0
M  V30 1623 H 150.626 -1.90477 -3.13231 0
M  V30 1624 H 150.274 -0.303414 -5.02084 0
M  V30 1625 H 149.974 -1.98369 -5.53103 0
M  V30 1626 H 151.498 -1.1733 -5.99221 0
M  V30 1627 H 152.912 -3.11471 -4.81309 0
M  V30 1628 H 151.309 -3.87218 -4.58457 0
M  V30 1629 H 152.379 -3.65368 -3.18801 0
M  V30 1630 N 153.722 1.14298 -1.08507 0
M  V30 1631 C 154.654 2.1907 -0.673859 0
M  V30 1632 C 155.667 1.60381 0.279577 0
M  V30 1633 O 156.856 1.78374 0.0670754 0
M  V30 1634 C 153.956 3.38888 0.0290979 0
M  V30 1635 C 153.129 4.27103 -0.943494 0
M  V30 1636 C 152.188 5.25477 -0.275676 0
M  V30 1637 O 151.214 5.61709 -0.920401 0
M  V30 1638 N 152.416 5.7227 0.974013 0
M  V30 1639 H 155.181 2.54965 -1.57521 0
M  V30 1640 H 152.742 1.29528 -0.971287 0
M  V30 1641 H 154.734 4.01761 0.48683 0
M  V30 1642 H 153.304 3.01309 0.832555 0
M  V30 1643 H 152.524 3.61149 -1.58004 0
M  V30 1644 H 153.812 4.82905 -1.60251 0
M  V30 1645 H 153.21 5.44965 1.51755 0
M  V30 1646 H 151.767 6.37127 1.37522 0
M  V30 1647 N 155.201 0.870884 1.31352 0
M  V30 1648 C 156.431 0.496049 2.00557 0
M  V30 1649 C 156.839 -0.916241 1.65534 0
M  V30 1650 O 156.182 -1.61188 0.881134 0
M  V30 1651 C 156.244 0.574418 3.54881 0
M  V30 1652 C 155.908 1.94849 4.1338 0
M  V30 1653 C 156.905 2.91611 4.30417 0
M  V30 1654 C 154.59 2.25005 4.49086 0
M  V30 1655 C 156.584 4.16672 4.82352 0
M  V30 1656 C 154.271 3.50315 5.00722 0
M  V30 1657 C 155.269 4.45964 5.17306 0
M  V30 1658 O 154.957 5.69052 5.67833 0
M  V30 1659 H 154.689 0.191664 0.64826 0
M  V30 1660 H 157.243 1.17409 1.68536 0
M  V30 1661 H 155.473 -0.160549 3.86367 0
M  V30 1662 H 157.162 0.212879 4.05341 0
M  V30 1663 H 157.928 2.69622 4.03149 0
M  V30 1664 H 153.807 1.51332 4.35453 0
M  V30 1665 H 157.351 4.91336 4.95211 0
M  V30 1666 H 153.248 3.72147 5.27424 0
M  V30 1667 H 154.016 5.71236 5.86201 0
M  V30 1668 N 156.679 -1.44442 0.630414 0
M  V30 1669 C 157.609 -2.33418 -0.0618083 0
M  V30 1670 C 158.59 -1.48165 -0.835541 0
M  V30 1671 O 159.775 -1.76886 -0.801564 0
M  V30 1672 C 156.905 -3.31222 -1.04449 0
M  V30 1673 C 155.859 -4.26288 -0.382436 0
M  V30 1674 C 155.185 -5.13954 -1.47497 0
M  V30 1675 C 156.485 -5.1744 0.710865 0
M  V30 1676 H 158.179 -2.91548 0.681184 0
M  V30 1677 H 155.725 -1.40191 0.329026 0
M  V30 1678 H 157.678 -3.92351 -1.53748 0
M  V30 1679 H 156.402 -2.71299 -1.81836 0
M  V30 1680 H 155.061 -3.6649 0.0899054 0
M  V30 1681 H 154.709 -4.50385 -2.2397 0
M  V30 1682 H 154.409 -5.7837 -1.03737 0
M  V30 1683 H 155.933 -5.77955 -1.96979 0
M  V30 1684 H 157.347 -5.72509 0.300996 0
M  V30 1685 H 155.744 -5.90455 1.07156 0
M  V30 1686 H 156.814 -4.58496 1.57829 0
M  V30 1687 N 158.157 -0.370918 -1.53173 0
M  V30 1688 C 159.405 0.216673 -2.00935 0
M  V30 1689 C 159.726 1.48845 -1.25977 0
M  V30 1690 O 158.996 1.92286 -0.374551 0
M  V30 1691 H 157.576 0.0830565 -0.742368 0
M  V30 1692 H 160.238 -0.49838 -1.8842 0
M  V30 1693 H 159.334 0.439893 -3.08984 0
M  V30 1694 N 159.635 1.57281 -0.100228 0
M  V30 1695 C 160.884 1.93713 0.561984 0
M  V30 1696 C 161.197 0.984492 1.69018 0
M  V30 1697 O 162.403 1.24273 2.41389 0
M  V30 1698 C 160.859 3.4421 1.05106 0
M  V30 1699 C 160.467 4.47975 -0.0476628 0
M  V30 1700 C 162.211 3.89595 1.68571 0
M  V30 1701 C 160.118 5.89631 0.457055 0
M  V30 1702 H 159.048 0.723082 0.2137 0
M  V30 1703 H 161.699 1.82644 -0.177057 0
M  V30 1704 H 160.081 3.50449 1.84395 0
M  V30 1705 H 161.255 4.53385 -0.823333 0
M  V30 1706 H 159.57 4.1223 -0.587816 0
M  V30 1707 H 162.167 4.92832 2.07414 0
M  V30 1708 H 162.51 3.28526 2.55688 0
M  V30 1709 H 163.043 3.86078 0.958562 0
M  V30 1710 H 159.782 6.54411 -0.377616 0
M  V30 1711 H 159.302 5.87681 1.19962 0
M  V30 1712 H 160.981 6.40363 0.92437 0
M  V30 1713 N 161.113 -0.173488 1.56642 0
M  V30 1714 C 162.061 -1.23417 1.97157 0
M  V30 1715 C 163.055 -1.45946 0.860013 0
M  V30 1716 O 164.261 -1.46551 1.04512 0
M  V30 1717 H 160.636 -0.414818 0.62724 0
M  V30 1718 H 162.607 -0.865582 2.8557 0
M  V30 1719 C 161.356 -2.5665 2.34576 0
M  V30 1720 H 160.679 -2.40137 3.19647 0
M  V30 1721 H 162.119 -3.2956 2.6677 0
M  V30 1722 C 160.578 -3.15245 1.18836 0
M  V30 1723 O 161.108 -3.98883 0.474869 0
M  V30 1724 N 159.314 -2.74303 0.959497 0
M  V30 1725 H 158.861 -2.0639 1.54146 0
M  V30 1726 H 158.819 -3.13844 0.186932 0
M  V30 1727 N 162.591 -1.51276 -0.441967 0
M  V30 1728 C 163.554 -1.7167 -1.51862 0
M  V30 1729 C 164.554 -0.586793 -1.49711 0
M  V30 1730 O 165.744 -0.854276 -1.51815 0
M  V30 1731 C 162.876 -1.76889 -2.91416 0
M  V30 1732 H 164.069 -2.67754 -1.35084 0
M  V30 1733 H 161.622 -1.41196 -0.670333 0
M  V30 1734 H 162.357 -0.826026 -3.13604 0
M  V30 1735 H 162.142 -2.59001 -2.94382 0
M  V30 1736 H 163.632 -1.94522 -3.69528 0
M  V30 1737 N 164.069 0.697108 -1.41344 0
M  V30 1738 C 165.294 1.49096 -1.44171 0
M  V30 1739 C 165.719 1.88038 -0.0481568 0
M  V30 1740 O 165.077 1.54525 0.948243 0
M  V30 1741 C 165.125 2.73088 -2.3549 0
M  V30 1742 O 164.229 3.70514 -1.81088 0
M  V30 1743 H 163.57 0.448801 -0.489361 0
M  V30 1744 H 166.1 0.856992 -1.85787 0
M  V30 1745 H 166.11 3.21413 -2.51312 0
M  V30 1746 H 164.785 2.44081 -3.36745 0
M  V30 1747 H 163.362 3.29441 -1.74708 0
M  V30 1748 N 165.547 1.27147 0.931209 0
M  V30 1749 C 166.772 1.16191 1.71797 0
M  V30 1750 C 167.197 -0.278004 1.86034 0
M  V30 1751 O 166.555 -1.20137 1.35782 0
M  V30 1752 C 166.603 1.84673 3.09723 0
M  V30 1753 O 165.707 1.14231 3.96264 0
M  V30 1754 H 165.048 0.404303 0.526721 0
M  V30 1755 H 167.578 1.68152 1.1656 0
M  V30 1756 H 167.588 1.91893 3.60057 0
M  V30 1757 H 166.263 2.89421 2.98677 0
M  V30 1758 H 164.84 1.15056 3.54706 0
M  V30 1759 N 167.025 -1.13721 1.09112 0
M  V30 1760 C 168.265 -1.86576 0.834801 0
M  V30 1761 C 168.629 -1.81435 -0.628122 0
M  V30 1762 O 169.83 -2.49497 -1.00024 0
M  V30 1763 C 168.101 -3.30872 1.35124 0
M  V30 1764 S 169.66 -4.21257 1.22832 0
M  V30 1765 H 166.478 -0.643666 0.302017 0
M  V30 1766 H 169.08 -1.37085 1.39385 0
M  V30 1767 H 167.784 -3.32166 2.41027 0
M  V30 1768 H 167.315 -3.85423 0.788185 0
M  V30 1769 H 169.33 -4.95884 0.177191 0
M  V30 1770 N 168.503 -0.877838 -1.30888 0
M  V30 1771 C 169.728 -0.506629 -2.01117 0
M  V30 1772 C 170.153 0.895564 -1.65412 0
M  V30 1773 O 169.511 1.5923 -0.866922 0
M  V30 1774 C 169.559 -0.680223 -3.54126 0
M  V30 1775 O 168.663 0.277033 -4.11468 0
M  V30 1776 H 168.004 -0.200518 -0.633 0
M  V30 1777 H 170.534 -1.18342 -1.66902 0
M  V30 1778 H 170.544 -0.5765 -4.03907 0
M  V30 1779 H 169.219 -1.70261 -3.79452 0
M  V30 1780 H 167.796 0.127606 -3.72682 0
M  V30 1781 N 169.982 1.44106 -0.638065 0
M  V30 1782 C 171.231 2.01194 -0.142744 0
M  V30 1783 C 171.544 1.50835 1.24532 0
M  V30 1784 O 172.75 2.00096 1.83504 0
M  V30 1785 C 171.206 3.59319 -0.20442 0
M  V30 1786 C 170.814 4.18674 -1.59423 0
M  V30 1787 C 172.558 4.23854 0.234079 0
M  V30 1788 C 170.465 5.69045 -1.61065 0
M  V30 1789 H 169.395 0.752367 -0.0495998 0
M  V30 1790 H 172.046 1.65246 -0.797881 0
M  V30 1791 H 170.428 3.92598 0.517946 0
M  V30 1792 H 171.602 3.96921 -2.34074 0
M  V30 1793 H 169.917 3.66453 -1.97741 0
M  V30 1794 H 172.514 5.34155 0.241443 0
M  V30 1795 H 172.857 3.96688 1.2627 0
M  V30 1796 H 173.39 3.95403 -0.436025 0
M  V30 1797 H 170.129 6.00956 -2.61787 0
M  V30 1798 H 169.649 5.929 -0.90718 0
M  V30 1799 H 171.328 6.32809 -1.34766 0
M  V30 1800 N 171.46 0.379036 1.52974 0
M  V30 1801 C 172.688 -0.20679 2.05864 0
M  V30 1802 C 173.103 -1.41356 1.25155 0
M  V30 1803 O 172.46 -1.8009 0.295588 0
M  V30 1804 C 172.511 -0.587045 3.56702 0
M  V30 1805 O 172.232 0.571776 4.34353 0
M  V30 1806 C 173.733 -1.22983 4.25899 0
M  V30 1807 H 170.953 -0.0336123 0.670158 0
M  V30 1808 H 173.497 0.541298 1.97206 0
M  V30 1809 H 171.652 -1.28504 3.65466 0
M  V30 1810 H 172.066 0.261544 5.23847 0
M  V30 1811 H 173.54 -1.44635 5.32715 0
M  V30 1812 H 174.017 -2.19416 3.80465 0
M  V30 1813 H 174.623 -0.572892 4.21424 0
M  V30 1814 N 172.938 -1.57226 0.108567 0
M  V30 1815 C 173.901 -2.13602 -0.831082 0
M  V30 1816 C 174.901 -1.06841 -1.20173 0
M  V30 1817 O 176.091 -1.32666 -1.12895 0
M  V30 1818 C 173.223 -2.66769 -2.12243 0
M  V30 1819 H 174.416 -2.97951 -0.341317 0
M  V30 1820 H 171.969 -1.55667 -0.14057 0
M  V30 1821 H 172.704 -1.85977 -2.65675 0
M  V30 1822 H 172.489 -3.44839 -1.86625 0
M  V30 1823 H 173.979 -3.10332 -2.79435 0
M  V30 1824 N 174.416 0.165178 -1.56732 0
M  V30 1825 C 175.663 0.880807 -1.8234 0
M  V30 1826 C 175.991 1.81977 -0.686621 0
M  V30 1827 O 175.246 1.92971 0.325697 0
M  V30 1828 C 175.545 1.70405 -3.1416 0
M  V30 1829 C 175.211 0.913475 -4.4155 0
M  V30 1830 C 173.873 0.695303 -4.7615 0
M  V30 1831 C 176.225 0.359349 -5.1996 0
M  V30 1832 C 173.553 -0.0879947 -5.86634 0
M  V30 1833 C 175.905 -0.410893 -6.31264 0
M  V30 1834 C 174.569 -0.639808 -6.64427 0
M  V30 1835 H 173.839 0.32231 -0.667231 0
M  V30 1836 H 176.486 0.145402 -1.90947 0
M  V30 1837 H 174.791 2.50903 -3.00923 0
M  V30 1838 H 176.488 2.26091 -3.31186 0
M  V30 1839 H 173.078 1.09357 -4.14414 0
M  V30 1840 H 177.262 0.515228 -4.93618 0
M  V30 1841 H 172.518 -0.27503 -6.10781 0
M  V30 1842 H 176.692 -0.847494 -6.91224 0
M  V30 1843 H 174.319 -1.24864 -7.49875 0
M  V30 1844 N 175.894 1.51508 0.433938 0
M  V30 1845 C 177.122 1.68157 1.20543 0
M  V30 1846 C 177.537 0.380362 1.84929 0
M  V30 1847 O 176.894 -0.641446 1.70856 0
M  V30 1848 C 176.945 2.79965 2.28696 0
M  V30 1849 O 176.666 4.05045 1.66943 0
M  V30 1850 C 178.167 3.07912 3.18912 0
M  V30 1851 H 175.387 0.56421 0.363191 0
M  V30 1852 H 177.931 1.97941 0.513754 0
M  V30 1853 H 176.086 2.5277 2.93574 0
M  V30 1854 H 176.5 4.67165 2.38448 0
M  V30 1855 H 177.974 3.89719 3.90926 0
M  V30 1856 H 178.451 2.20456 3.79863 0
M  V30 1857 H 179.057 3.36779 2.59731 0
M  V30 1858 N 177.372 -0.689602 1.41712 0
M  V30 1859 C 178.621 -1.44534 1.40686 0
M  V30 1860 C 178.934 -1.95588 0.0213352 0
M  V30 1861 O 180.14 -2.71271 -0.111534 0
M  V30 1862 C 178.596 -2.61387 2.47396 0
M  V30 1863 C 178.204 -2.17094 3.91885 0
M  V30 1864 C 179.948 -3.38986 2.55517 0
M  V30 1865 C 177.855 -3.3094 4.90135 0
M  V30 1866 H 176.785 -0.542925 0.52321 0
M  V30 1867 H 179.436 -0.748054 1.6756 0
M  V30 1868 H 177.818 -3.33412 2.13664 0
M  V30 1869 H 178.992 -1.52318 4.34897 0
M  V30 1870 H 177.307 -1.52473 3.8748 0
M  V30 1871 H 179.904 -4.23747 3.26102 0
M  V30 1872 H 180.247 -3.84578 1.59391 0
M  V30 1873 H 180.78 -2.74021 2.8837 0
M  V30 1874 H 177.519 -2.90355 5.87685 0
M  V30 1875 H 177.039 -3.94546 4.51767 0
M  V30 1876 H 178.718 -3.9663 5.11169 0
M  V30 1877 N 178.85 -1.27639 -0.924453 0
M  V30 1878 C 179.76 -1.12466 -2.05885 0
M  V30 1879 C 180.776 -0.053869 -1.73917 0
M  V30 1880 O 181.952 -0.261012 -1.99702 0
M  V30 1881 C 179.017 -0.776768 -3.37886 0
M  V30 1882 C 178.078 -1.92878 -3.83532 0
M  V30 1883 C 177.311 -1.59739 -5.09234 0
M  V30 1884 O 177.534 -0.506782 -5.68144 0
M  V30 1885 O 176.468 -2.43761 -5.50331 0
M  V30 1886 H 180.294 -2.07671 -2.21599 0
M  V30 1887 H 177.879 -1.06857 -1.04413 0
M  V30 1888 H 179.761 -0.596229 -4.17161 0
M  V30 1889 H 178.436 0.145732 -3.23372 0
M  V30 1890 H 177.343 -2.1644 -3.0513 0
M  V30 1891 H 178.676 -2.8316 -4.02593 0
M  V30 1892 N 180.328 1.1314 -1.09713 0
M  V30 1893 C 181.744 1.36477 -0.827423 0
M  V30 1894 C 181.944 1.93654 0.556817 0
M  V30 1895 O 181 2.15791 1.31112 0
M  V30 1896 C 182.313 2.31334 -1.92106 0
M  V30 1897 C 183.861 2.44943 -1.94864 0
M  V30 1898 C 184.336 3.4311 -3.0338 0
M  V30 1899 N 185.827 3.50662 -3.02639 0
M  V30 1900 C 186.562 4.2651 -3.83246 0
M  V30 1901 N 186.058 5.05485 -4.73768 0
M  V30 1902 N 187.851 4.2184 -3.71493 0
M  V30 1903 H 180.002 0.743807 -1.9895 0
M  V30 1904 H 182.265 0.389823 -0.864143 0
M  V30 1905 H 181.971 1.96483 -2.91698 0
M  V30 1906 H 181.845 3.31381 -1.80184 0
M  V30 1907 H 184.232 2.79079 -0.959099 0
M  V30 1908 H 184.313 1.4481 -2.10864 0
M  V30 1909 H 183.957 3.09704 -4.02549 0
M  V30 1910 H 183.887 4.43055 -2.84622 0
M  V30 1911 H 186.378 2.94315 -2.37039 0
M  V30 1912 H 186.691 5.60675 -5.3185 0
M  V30 1913 H 185.036 5.04708 -4.77802 0
M  V30 1914 H 188.227 3.5922 -3.00131 0
M  V30 1915 H 188.4 4.80697 -4.3455 0
M  V30 1916 N 181.806 0.884767 1.30421 0
M  V30 1917 C 183.036 0.517293 2.00019 0
M  V30 1918 C 183.444 -0.898632 1.66497 0
M  V30 1919 O 182.787 -1.60245 0.898181 0
M  V30 1920 C 182.849 0.612025 3.54252 0
M  V30 1921 C 182.513 1.99222 4.1129 0
M  V30 1922 C 183.51 2.9616 4.273 0
M  V30 1923 C 181.195 2.29755 4.46674 0
M  V30 1924 C 183.189 4.21764 4.77906 0
M  V30 1925 C 180.876 3.55606 4.96979 0
M  V30 1926 C 181.874 4.51425 5.12547 0
M  V30 1927 O 181.562 5.75043 5.61766 0
M  V30 1928 H 181.294 0.198529 0.64619 0
M  V30 1929 H 183.848 1.1919 1.67281 0
M  V30 1930 H 182.078 -0.119561 3.86515 0
M  V30 1931 H 183.767 0.255859 4.05093 0
M  V30 1932 H 184.533 2.73882 4.00267 0
M  V30 1933 H 180.412 1.55942 4.33824 0
M  V30 1934 H 183.956 4.96561 4.89972 0
M  V30 1935 H 179.853 3.7772 5.23448 0
M  V30 1936 H 180.621 5.77422 5.80109 0
M  V30 1937 N 183.284 -1.43765 0.645699 0
M  V30 1938 C 184.533 -2.01116 0.153412 0
M  V30 1939 C 184.846 -1.51493 -1.23731 0
M  V30 1940 O 186.052 -2.01067 -1.8244 0
M  V30 1941 C 184.508 -3.59206 0.223473 0
M  V30 1942 C 184.116 -4.17823 1.61642 0
M  V30 1943 C 185.86 -4.23972 -0.211597 0
M  V30 1944 C 183.767 -5.68183 1.64081 0
M  V30 1945 H 182.697 -0.752093 0.0535891 0
M  V30 1946 H 185.348 -1.6482 0.806633 0
M  V30 1947 H 183.73 -3.92867 -0.497118 0
M  V30 1948 H 184.904 -3.95674 2.36176 0
M  V30 1949 H 183.219 -3.65399 1.99681 0
M  V30 1950 H 185.816 -5.34275 -0.213112 0
M  V30 1951 H 186.159 -3.97352 -1.24165 0
M  V30 1952 H 186.692 -3.95166 0.456988 0
M  V30 1953 H 183.431 -5.99559 2.64971 0
M  V30 1954 H 182.951 -5.9241 0.938611 0
M  V30 1955 H 184.63 -6.32085 1.3812 0
M  V30 1956 N 184.763 -0.387143 -1.52771 0
M  V30 1957 C 185.726 0.436939 -2.24997 0
M  V30 1958 C 186.726 0.991991 -1.26555 0
M  V30 1959 O 187.916 0.874335 -1.50669 0
M  V30 1960 C 185.048 1.61281 -3.00335 0
M  V30 1961 H 186.241 -0.195365 -2.99263 0
M  V30 1962 H 183.794 -0.139218 -1.55679 0
M  V30 1963 H 184.529 2.2826 -2.30364 0
M  V30 1964 H 184.314 1.22154 -3.72587 0
M  V30 1965 H 185.804 2.19629 -3.5518 0
M  V30 1966 N 186.241 1.57166 -0.116904 0
M  V30 1967 C 187.49 1.94298 0.541407 0
M  V30 1968 C 187.803 1.00236 1.67964 0
M  V30 1969 O 189.009 1.26826 2.40057 0
M  V30 1970 C 187.465 3.45306 1.01449 0
M  V30 1971 C 187.073 4.47899 -0.0951738 0
M  V30 1972 C 188.817 3.91361 1.6443 0
M  V30 1973 C 186.724 5.90083 0.394491 0
M  V30 1974 H 185.654 0.725308 0.206019 0
M  V30 1975 H 188.305 1.82446 -0.196419 0
M  V30 1976 H 186.687 3.52385 1.80667 0
M  V30 1977 H 187.861 4.52486 -0.871374 0
M  V30 1978 H 186.176 4.11583 -0.631505 0
M  V30 1979 H 188.773 4.95004 2.02176 0
M  V30 1980 H 189.116 3.3122 2.52189 0
M  V30 1981 H 189.649 3.87073 0.917559 0
M  V30 1982 H 186.388 6.53974 -0.447004 0
M  V30 1983 H 185.908 5.88921 1.13722 0
M  V30 1984 H 187.587 6.41307 0.856399 0
M  V30 1985 N 187.719 -0.156864 1.56817 0
M  V30 1986 C 188.959 -0.877453 1.84608 0
M  V30 1987 C 189.323 -1.78791 0.699845 0
M  V30 1988 O 190.524 -2.5472 0.858553 0
M  V30 1989 C 188.795 -1.63992 3.17555 0
M  V30 1990 S 190.354 -2.40729 3.66872 0
M  V30 1991 H 187.172 -0.293612 0.647544 0
M  V30 1992 H 189.774 -0.138099 1.95012 0
M  V30 1993 H 188.478 -0.962363 3.98957 0
M  V30 1994 H 188.009 -2.42038 3.10131 0
M  V30 1995 H 190.024 -3.65725 3.3535 0
M  V30 1996 N 189.197 -1.51736 -0.425897 0
M  V30 1997 C 190.147 -1.70258 -1.51645 0
M  V30 1998 C 191.131 -0.556488 -1.5097 0
M  V30 1999 O 192.323 -0.812879 -1.5723 0
M  V30 2000 C 189.452 -1.84143 -2.89735 0
M  V30 2001 C 188.538 -3.04572 -2.95122 0
M  V30 2002 N 188.929 -4.2756 -2.70233 0
M  V30 2003 C 187.227 -3.04061 -3.26286 0
M  V30 2004 C 187.928 -5.08908 -2.81757 0
M  V30 2005 N 186.904 -4.43797 -3.13919 0
M  V30 2006 H 190.706 -2.63004 -1.31172 0
M  V30 2007 H 188.22 -1.4954 -0.633375 0
M  V30 2008 H 190.217 -1.95525 -3.68206 0
M  V30 2009 H 188.877 -0.925857 -3.1122 0
M  V30 2010 H 189.888 -4.56315 -2.44943 0
M  V30 2011 H 186.565 -2.22179 -3.53473 0
M  V30 2012 H 187.955 -6.16843 -2.66372 0
M  V30 2013 N 190.675 0.682077 -1.42076 0
M  V30 2014 C 192.086 1.26246 -1.37546 0
M  V30 2015 C 192.437 1.96092 -0.0651481 0
M  V30 2016 O 191.562 1.99587 0.836297 0
M  V30 2017 C 192.157 2.29594 -2.49143 0
M  V30 2018 C 190.716 2.83175 -2.47969 0
M  V30 2019 C 189.863 1.57395 -2.28303 0
M  V30 2020 H 192.814 0.475937 -1.51395 0
M  V30 2021 H 192.835 3.11175 -2.18976 0
M  V30 2022 H 192.347 1.78729 -3.44496 0
M  V30 2023 H 190.448 3.3818 -1.56413 0
M  V30 2024 H 190.561 3.32687 -3.44755 0
M  V30 2025 H 188.925 1.83699 -1.76428 0
M  V30 2026 H 189.708 1.08507 -3.25701 0
M  V30 2027 N 192.153 1.28127 0.917671 0
M  V30 2028 C 193.402 1.14432 1.66097 0
M  V30 2029 C 193.715 -0.307247 1.93172 0
M  V30 2030 O 194.921 -0.565259 2.65551 0
M  V30 2031 C 193.377 2.00015 2.99202 0
M  V30 2032 C 192.985 3.49889 2.79789 0
M  V30 2033 C 194.729 1.94996 3.77064 0
M  V30 2034 C 192.636 4.27636 4.08511 0
M  V30 2035 H 191.566 0.424662 0.62304 0
M  V30 2036 H 194.217 1.52628 1.01868 0
M  V30 2037 H 192.599 1.54672 3.64544 0
M  V30 2038 H 193.773 4.03162 2.23152 0
M  V30 2039 H 192.088 3.56392 2.15345 0
M  V30 2040 H 194.685 2.50354 4.72469 0
M  V30 2041 H 195.028 0.925819 4.05875 0
M  V30 2042 H 195.561 2.38287 3.18534 0
M  V30 2043 H 192.3 5.30615 3.84874 0
M  V30 2044 H 191.82 3.79137 4.64774 0
M  V30 2045 H 193.499 4.37346 4.76799 0
M  V30 2046 N 193.631 -1.12557 1.10312 0
M  V30 2047 C 194.578 -2.18247 0.750781 0
M  V30 2048 C 195.548 -1.63853 -0.272293 0
M  V30 2049 O 196.733 -1.90195 -0.151862 0
M  V30 2050 C 193.873 -3.44591 0.187379 0
M  V30 2051 C 192.986 -4.13046 1.2656 0
M  V30 2052 C 192.121 -5.27034 0.663978 0
M  V30 2053 C 191.16 -5.87353 1.72287 0
M  V30 2054 N 190.297 -6.92757 1.1416 0
M  V30 2055 H 195.137 -2.47732 1.65628 0
M  V30 2056 H 192.674 -1.21629 0.827337 0
M  V30 2057 H 194.632 -4.16904 -0.157148 0
M  V30 2058 H 193.262 -3.15527 -0.681355 0
M  V30 2059 H 192.314 -3.38924 1.72727 0
M  V30 2060 H 193.626 -4.53947 2.06721 0
M  V30 2061 H 192.78 -6.06104 0.268824 0
M  V30 2062 H 191.519 -4.87407 -0.169082 0
M  V30 2063 H 190.524 -5.06971 2.12746 0
M  V30 2064 H 191.749 -6.29051 2.55875 0
M  V30 2065 H 189.695 -6.5517 0.329984 0
M  V30 2066 H 189.612 -7.3225 1.88007 0
M  V30 2067 H 190.88 -7.75658 0.772956 0
M  V30 2068 N 195.109 -0.891671 -1.2995 0
M  V30 2069 C 196.072 -0.36828 -2.26222 0
M  V30 2070 C 197.072 0.493014 -1.53056 0
M  V30 2071 O 198.262 0.299213 -1.71611 0
M  V30 2072 C 195.394 0.47442 -3.37583 0
M  V30 2073 H 196.587 -1.21844 -2.74033 0
M  V30 2074 H 194.14 -0.669107 -1.41254 0
M  V30 2075 H 194.875 1.34489 -2.95099 0
M  V30 2076 H 194.66 -0.142615 -3.91841 0
M  V30 2077 H 196.15 0.83218 -4.09224 0
M  V30 2078 N 196.587 1.43421 -0.653314 0
M  V30 2079 C 197.519 2.29071 0.0769134 0
M  V30 2080 C 198.532 1.42513 0.787017 0
M  V30 2081 O 199.721 1.66449 0.644757 0
M  V30 2082 C 196.821 3.19436 1.13199 0
M  V30 2083 C 195.994 4.34533 0.500006 0
M  V30 2084 C 195.053 5.05771 1.45198 0
M  V30 2085 O 194.079 5.61037 0.960538 0
M  V30 2086 N 195.281 5.0928 2.78594 0
M  V30 2087 H 198.046 2.92382 -0.658235 0
M  V30 2088 H 195.607 1.54112 -0.496104 0
M  V30 2089 H 197.599 3.63958 1.76964 0
M  V30 2090 H 196.169 2.57724 1.7691 0
M  V30 2091 H 195.389 3.92925 -0.316738 0
M  V30 2092 H 196.677 5.08766 0.0588345 0
M  V30 2093 H 196.075 4.65751 3.2108 0
M  V30 2094 H 194.632 5.57519 3.37662 0
M  V30 2095 N 198.065 0.39524 1.52563 0
M  V30 2096 C 199.312 -0.185044 2.01653 0
M  V30 2097 C 199.64 -1.46317 1.28146 0
M  V30 2098 O 198.895 -1.9213 0.372074 0
M  V30 2099 C 199.194 -0.493444 3.53977 0
M  V30 2100 C 198.86 0.69384 4.4553 0
M  V30 2101 C 197.522 1.01954 4.70275 0
M  V30 2102 C 199.874 1.48785 4.99512 0
M  V30 2103 C 197.202 2.14069 5.46252 0
M  V30 2104 C 199.554 2.59965 5.76716 0
M  V30 2105 C 198.218 2.93037 5.99738 0
M  V30 2106 H 197.488 -0.0677123 0.7379 0
M  V30 2107 H 200.135 0.533807 1.8391 0
M  V30 2108 H 198.44 -1.29369 3.69825 0
M  V30 2109 H 200.137 -0.955163 3.89458 0
M  V30 2110 H 196.727 0.429987 4.26438 0
M  V30 2111 H 200.911 1.24946 4.80315 0
M  V30 2112 H 196.167 2.40056 5.62302 0
M  V30 2113 H 200.341 3.21887 6.17545 0
M  V30 2114 H 197.968 3.8003 6.58393 0
M  V30 2115 N 199.544 -1.57102 0.125237 0
M  V30 2116 C 200.474 -2.18659 -0.819174 0
M  V30 2117 C 201.455 -1.12843 -1.27281 0
M  V30 2118 O 202.64 -1.41104 -1.33429 0
M  V30 2119 C 199.77 -2.79096 -2.06695 0
M  V30 2120 C 198.724 -3.90548 -1.75088 0
M  V30 2121 C 198.05 -4.37821 -3.06948 0
M  V30 2122 C 199.35 -5.12356 -1.01435 0
M  V30 2123 H 201.044 -2.9783 -0.306202 0
M  V30 2124 H 198.59 -1.4326 -0.145839 0
M  V30 2125 H 200.543 -3.2082 -2.73226 0
M  V30 2126 H 199.267 -1.97223 -2.60328 0
M  V30 2127 H 197.926 -3.49409 -1.10944 0
M  V30 2128 H 197.574 -3.52799 -3.58527 0
M  V30 2129 H 197.274 -5.12982 -2.86571 0
M  V30 2130 H 198.798 -4.822 -3.74587 0
M  V30 2131 H 200.212 -5.5106 -1.58132 0
M  V30 2132 H 198.609 -5.9314 -0.911319 0
M  V30 2133 H 199.679 -4.849 -0.00218681 0
M  V30 2134 N 201.022 0.148545 -1.56898 0
M  V30 2135 C 202.262 0.86765 -1.85071 0
M  V30 2136 C 202.626 1.78417 -0.709317 0
M  V30 2137 O 203.827 2.54261 -0.872049 0
M  V30 2138 C 202.098 1.62306 -3.1842 0
M  V30 2139 S 203.657 2.3878 -3.68143 0
M  V30 2140 H 200.475 0.290174 -0.649092 0
M  V30 2141 H 203.077 0.127755 -1.95082 0
M  V30 2142 H 201.781 0.941192 -3.99462 0
M  V30 2143 H 201.312 2.4039 -3.1141 0
M  V30 2144 H 203.327 3.63942 -3.37285 0
M  V30 2145 N 202.5 1.5196 0.417844 0
M  V30 2146 C 203.728 1.69426 1.18753 0
M  V30 2147 C 204.143 0.399955 1.84515 0
M  V30 2148 O 203.5 -0.623288 1.71527 0
M  V30 2149 C 203.551 2.82375 2.25714 0
M  V30 2150 O 203.272 4.06793 1.62638 0
M  V30 2151 C 204.773 3.11277 3.15628 0
M  V30 2152 H 201.993 0.568031 0.357186 0
M  V30 2153 H 204.537 1.98475 0.49273 0
M  V30 2154 H 202.692 2.5587 2.90877 0
M  V30 2155 H 203.106 4.69667 2.3348 0
M  V30 2156 H 204.58 3.93843 3.86771 0
M  V30 2157 H 205.057 2.24473 3.77503 0
M  V30 2158 H 205.663 3.39515 2.56144 0
M  V30 2159 N 203.978 -0.674533 1.42435 0
M  V30 2160 C 205.225 -1.43459 1.42919 0
M  V30 2161 C 205.553 -1.94446 0.0457312 0
M  V30 2162 O 204.808 -1.7132 -0.94593 0
M  V30 2163 C 205.107 -2.64767 2.40069 0
M  V30 2164 C 204.773 -2.3232 3.86443 0
M  V30 2165 C 203.435 -2.23182 4.26314 0
M  V30 2166 C 205.787 -2.05977 4.78773 0
M  V30 2167 C 203.115 -1.85827 5.56494 0
M  V30 2168 C 205.467 -1.70125 6.09295 0
M  V30 2169 C 204.131 -1.59498 6.48164 0
M  V30 2170 H 203.401 -0.524952 0.522978 0
M  V30 2171 H 206.048 -0.769097 1.75377 0
M  V30 2172 H 204.353 -3.36349 2.00939 0
M  V30 2173 H 206.05 -3.22949 2.37707 0
M  V30 2174 H 202.64 -2.40334 3.54877 0
M  V30 2175 H 206.824 -2.11969 4.48757 0
M  V30 2176 H 202.08 -1.76168 5.8547 0
M  V30 2177 H 206.254 -1.48767 6.80324 0
M  V30 2178 H 203.881 -1.30322 7.48946 0
M  V30 2179 N 205.456 -1.28612 -0.910864 0
M  V30 2180 C 206.681 -1.1891 -1.69927 0
M  V30 2181 C 207.106 0.248372 -1.86453 0
M  V30 2182 O 206.464 1.17961 -1.37676 0
M  V30 2183 C 206.512 -1.89578 -3.06745 0
M  V30 2184 O 205.616 -1.20521 -3.94396 0
M  V30 2185 H 204.957 -0.412632 -0.520222 0
M  V30 2186 H 207.487 -1.69985 -1.1387 0
M  V30 2187 H 207.497 -1.97597 -3.56958 0
M  V30 2188 H 206.172 -2.94136 -2.94035 0
M  V30 2189 H 204.749 -1.20684 -3.52831 0
M  V30 2190 N 206.934 1.1197 -1.10907 0
M  V30 2191 C 208.35 1.35591 -0.841852 0
M  V30 2192 C 208.55 1.94233 0.536246 0
M  V30 2193 O 207.606 2.1717 1.28816 0
M  V30 2194 C 208.919 2.29284 -1.94549 0
M  V30 2195 C 210.467 2.42862 -1.97451 0
M  V30 2196 C 210.942 3.39873 -3.07002 0
M  V30 2197 N 212.433 3.47433 -3.06341 0
M  V30 2198 C 213.168 4.22421 -3.87748 0
M  V30 2199 N 212.664 5.00432 -4.79103 0
M  V30 2200 N 214.457 4.17876 -3.75946 0
M  V30 2201 H 206.608 0.722664 -1.99728 0
M  V30 2202 H 208.871 0.380635 -0.868229 0
M  V30 2203 H 208.577 1.93378 -2.93765 0
M  V30 2204 H 208.451 3.29452 -1.83688 0
M  V30 2205 H 210.838 2.78046 -0.988645 0
M  V30 2206 H 210.919 1.42566 -2.12388 0
M  V30 2207 H 210.563 3.05417 -4.05811 0
M  V30 2208 H 210.493 4.40011 -2.89306 0
M  V30 2209 H 212.984 2.91784 -2.40147 0
M  V30 2210 H 213.297 5.55002 -5.37766 0
M  V30 2211 H 211.642 4.99612 -4.83128 0
M  V30 2212 H 214.833 3.56016 -3.03924 0
M  V30 2213 H 215.006 4.76061 -4.39624 0
M  V30 2214 N 208.412 0.89855 1.29475 0
M  V30 2215 C 209.375 0.380272 2.26023 0
M  V30 2216 C 210.375 -0.484891 1.53315 0
M  V30 2217 O 211.565 -0.290108 1.71767 0
M  V30 2218 C 208.697 -0.45651 3.3783 0
M  V30 2219 H 209.89 1.23295 2.73383 0
M  V30 2220 H 207.443 0.676589 1.40897 0
M  V30 2221 H 208.178 -1.32922 2.95808 0
M  V30 2222 H 207.963 0.163393 3.91759 0
M  V30 2223 H 209.453 -0.810466 4.0966 0
M  V30 2224 N 209.89 -1.43072 0.660911 0
M  V30 2225 C 210.837 -2.30785 -0.0259884 0
M  V30 2226 C 211.807 -1.45184 -0.806888 0
M  V30 2227 O 212.992 -1.74041 -0.781943 0
M  V30 2228 C 210.132 -3.30861 -0.981067 0
M  V30 2229 C 209.245 -4.31558 -0.195458 0
M  V30 2230 C 208.38 -5.18712 -1.14503 0
M  V30 2231 C 207.419 -6.11097 -0.350299 0
M  V30 2232 N 206.556 -6.90849 -1.25186 0
M  V30 2233 H 211.396 -2.88975 0.727846 0
M  V30 2234 H 208.933 -1.42353 0.370682 0
M  V30 2235 H 210.891 -3.87399 -1.54849 0
M  V30 2236 H 209.521 -2.74304 -1.70169 0
M  V30 2237 H 208.573 -3.77252 0.488374 0
M  V30 2238 H 209.885 -4.9701 0.422176 0
M  V30 2239 H 209.039 -5.79914 -1.78284 0
M  V30 2240 H 207.778 -4.53404 -1.79656 0
M  V30 2241 H 206.783 -5.48976 0.300808 0
M  V30 2242 H 208.008 -6.7845 0.296941 0
M  V30 2243 H 205.954 -6.28182 -1.89005 0
M  V30 2244 H 205.871 -7.52854 -0.688971 0
M  V30 2245 H 207.139 -7.5655 -1.87757 0
M  V30 2246 N 211.368 -0.403325 -1.52352 0
M  V30 2247 C 212.315 0.425011 -2.26853 0
M  V30 2248 C 213.285 1.04598 -1.29029 0
M  V30 2249 O 214.47 1.07135 -1.57882 0
M  V30 2250 C 211.61 1.53888 -3.08889 0
M  V30 2251 C 210.723 0.939396 -4.21663 0
M  V30 2252 C 209.858 2.02547 -4.91068 0
M  V30 2253 C 208.897 1.40263 -5.95813 0
M  V30 2254 N 208.034 2.4286 -6.58759 0
M  V30 2255 H 212.874 -0.21674 -2.97211 0
M  V30 2256 H 210.411 -0.118722 -1.4662 0
M  V30 2257 H 212.369 2.19558 -3.54753 0
M  V30 2258 H 210.999 2.15074 -2.40714 0
M  V30 2259 H 210.051 0.171898 -3.80011 0
M  V30 2260 H 211.363 0.44436 -4.96817 0
M  V30 2261 H 210.517 2.75958 -5.40308 0
M  V30 2262 H 209.256 2.55415 -4.15469 0
M  V30 2263 H 208.261 0.653833 -5.45898 0
M  V30 2264 H 209.486 0.881719 -6.73352 0
M  V30 2265 H 207.432 2.94871 -5.85992 0
M  V30 2266 H 207.349 1.98152 -7.2957 0
M  V30 2267 H 208.617 3.15858 -7.12639 0
M  V30 2268 N 212.846 1.57033 -0.133567 0
M  V30 2269 C 214.095 1.94861 0.520768 0
M  V30 2270 C 214.408 1.02012 1.66892 0
M  V30 2271 O 215.614 1.29365 2.38699 0
M  V30 2272 C 214.07 3.46362 0.977809 0
M  V30 2273 C 213.678 4.47773 -0.142674 0
M  V30 2274 C 215.422 3.93083 1.60269 0
M  V30 2275 C 213.329 5.90468 0.331883 0
M  V30 2276 H 212.259 0.727453 0.198315 0
M  V30 2277 H 214.91 1.82227 -0.215759 0
M  V30 2278 H 213.292 3.54282 1.7692 0
M  V30 2279 H 214.466 4.51536 -0.919317 0
M  V30 2280 H 212.781 4.10891 -0.675124 0
M  V30 2281 H 215.378 4.97121 1.96914 0
M  V30 2282 H 215.721 3.33876 2.48662 0
M  V30 2283 H 216.254 3.88025 0.876453 0
M  V30 2284 H 212.993 6.53463 -0.516341 0
M  V30 2285 H 212.513 5.90094 1.07469 0
M  V30 2286 H 214.192 6.42179 0.788332 0
M  V30 2287 N 214.325 -0.140222 1.56975 0
M  V30 2288 C 215.574 -0.850152 1.82908 0
M  V30 2289 C 215.887 -1.82028 0.715892 0
M  V30 2290 O 217.093 -2.57485 0.861016 0
M  V30 2291 C 215.549 -1.5625 3.24213 0
M  V30 2292 C 215.157 -0.63443 4.43485 0
M  V30 2293 C 216.901 -2.25881 3.59413 0
M  V30 2294 C 214.808 -1.34879 5.75814 0
M  V30 2295 H 213.738 -0.321221 0.682153 0
M  V30 2296 H 216.389 -0.102874 1.83211 0
M  V30 2297 H 214.771 -2.35565 3.18316 0
M  V30 2298 H 215.945 0.12398 4.60633 0
M  V30 2299 H 214.26 -0.0461836 4.16374 0
M  V30 2300 H 216.857 -2.79978 4.5554 0
M  V30 2301 H 217.2 -3.02693 2.85802 0
M  V30 2302 H 217.733 -1.53477 3.67001 0
M  V30 2303 H 214.472 -0.622385 6.52539 0
M  V30 2304 H 213.992 -2.07974 5.6259 0
M  V30 2305 H 215.671 -1.88784 6.18845 0
M  V30 2306 N 215.803 -1.52179 -0.40978 0
M  V30 2307 C 217.052 -1.65434 -1.15388 0
M  V30 2308 C 217.365 -0.390056 -1.91671 0
M  V30 2309 O 218.571 -0.402399 -2.68501 0
M  V30 2310 C 217.027 -2.92279 -2.10003 0
M  V30 2311 C 216.635 -4.25813 -1.39239 0
M  V30 2312 C 218.379 -3.14897 -2.84675 0
M  V30 2313 C 216.286 -5.43782 -2.32498 0
M  V30 2314 H 215.216 -0.616267 -0.434432 0
M  V30 2315 H 217.867 -1.78666 -0.418401 0
M  V30 2316 H 216.249 -2.72744 -2.871 0
M  V30 2317 H 217.423 -4.55828 -0.675099 0
M  V30 2318 H 215.738 -4.09292 -0.766097 0
M  V30 2319 H 218.335 -4.0021 -3.54593 0
M  V30 2320 H 218.678 -2.29103 -3.47588 0
M  V30 2321 H 219.211 -3.34901 -2.14677 0
M  V30 2322 H 215.95 -6.3192 -1.74233 0
M  V30 2323 H 215.47 -5.18106 -3.02201 0
M  V30 2324 H 217.149 -5.76834 -2.93038 0
M  V30 2325 N 217.281 0.66697 -1.42791 0
M  V30 2326 C 218.528 1.42699 -1.43678 0
M  V30 2327 C 218.856 1.94419 -0.0560425 0
M  V30 2328 O 218.111 1.7182 0.936831 0
M  V30 2329 C 218.41 2.6349 -2.4147 0
M  V30 2330 C 218.076 2.30267 -3.8767 0
M  V30 2331 C 216.738 2.20918 -4.27491 0
M  V30 2332 C 219.09 2.03435 -4.79858 0
M  V30 2333 C 216.418 1.82873 -5.57471 0
M  V30 2334 C 218.77 1.66892 -6.10188 0
M  V30 2335 C 217.434 1.56058 -6.49001 0
M  V30 2336 H 216.704 0.522171 -0.525755 0
M  V30 2337 H 219.351 0.759785 -1.75783 0
M  V30 2338 H 217.656 3.35279 -2.0272 0
M  V30 2339 H 219.353 3.21684 -2.39417 0
M  V30 2340 H 215.943 2.38449 -3.56146 0
M  V30 2341 H 220.127 2.09586 -4.49875 0
M  V30 2342 H 215.383 1.7306 -5.86396 0
M  V30 2343 H 219.557 1.45157 -6.81104 0
M  V30 2344 H 217.184 1.26348 -7.49627 0
M  V30 2345 N 218.759 1.29093 0.90403 0
M  V30 2346 C 220.005 1.16986 1.65656 0
M  V30 2347 C 220.338 -0.278925 1.92186 0
M  V30 2348 O 219.613 -1.2019 1.5292 0
M  V30 2349 C 219.896 1.97908 3.0084 0
M  V30 2350 C 219.749 3.50903 2.81403 0
M  V30 2351 C 221.068 1.80208 4.01513 0
M  V30 2352 H 218.187 0.426346 0.601164 0
M  V30 2353 H 220.829 1.58518 1.04747 0
M  V30 2354 H 218.979 1.62616 3.52829 0
M  V30 2355 H 220.651 3.96153 2.36348 0
M  V30 2356 H 218.894 3.76045 2.1627 0
M  V30 2357 H 219.565 4.02791 3.77443 0
M  V30 2358 H 222.041 2.11025 3.58619 0
M  V30 2359 H 220.917 2.39184 4.94047 0
M  V30 2360 H 221.178 0.756119 4.35586 0
M  V30 2361 N 220.237 -1.11381 1.11499 0
M  V30 2362 C 221.483 -1.83597 0.875423 0
M  V30 2363 C 221.838 -1.83048 -0.592555 0
M  V30 2364 O 221.131 -1.27304 -1.43193 0
M  V30 2365 C 221.325 -3.30026 1.37177 0
M  V30 2366 C 221.154 -3.44837 2.88647 0
M  V30 2367 C 219.924 -3.57825 3.56776 0
M  V30 2368 C 222.122 -3.3907 3.86699 0
M  V30 2369 N 220.104 -3.61113 4.96458 0
M  V30 2370 C 221.475 -3.48986 5.12454 0
M  V30 2371 C 223.53 -3.22605 3.7925 0
M  V30 2372 C 222.233 -3.44135 6.31636 0
M  V30 2373 C 224.259 -3.19072 4.97943 0
M  V30 2374 C 223.621 -3.29559 6.22551 0
M  V30 2375 H 219.72 -0.687044 0.37349 0
M  V30 2376 H 222.304 -1.33265 1.41946 0
M  V30 2377 H 220.475 -3.78874 0.854919 0
M  V30 2378 H 222.207 -3.90153 1.07529 0
M  V30 2379 H 218.962 -3.60414 3.07244 0
M  V30 2380 H 219.386 -3.66394 5.69284 0
M  V30 2381 H 224.028 -3.13382 2.83816 0
M  V30 2382 H 221.746 -3.52126 7.27347 0
M  V30 2383 H 225.332 -3.07498 4.93899 0
M  V30 2384 H 224.212 -3.26815 7.12855 0
M  V30 2385 N 221.715 -0.905404 -1.28997 0
M  V30 2386 C 222.678 -0.392253 -2.25819 0
M  V30 2387 C 223.678 0.476753 -1.5357 0
M  V30 2388 O 224.868 0.280994 -1.71919 0
M  V30 2389 C 222 0.438588 -3.38067 0
M  V30 2390 H 223.193 -1.24743 -2.72725 0
M  V30 2391 H 220.746 -0.684051 -1.40536 0
M  V30 2392 H 221.481 1.31352 -2.96508 0
M  V30 2393 H 221.266 -0.184167 -3.91667 0
M  V30 2394 H 222.756 0.78873 -4.10084 0
M  V30 2395 N 223.193 1.4272 -0.668489 0
M  V30 2396 C 224.44 2.01624 -0.18814 0
M  V30 2397 C 224.768 1.5282 1.20317 0
M  V30 2398 O 224.023 0.718323 1.8204 0
M  V30 2399 C 224.322 3.57021 -0.164499 0
M  V30 2400 C 223.988 4.25232 -1.49962 0
M  V30 2401 C 222.65 4.4358 -1.8652 0
M  V30 2402 C 225.002 4.63727 -2.37921 0
M  V30 2403 C 222.33 4.97694 -3.10674 0
M  V30 2404 C 224.682 5.19218 -3.6138 0
M  V30 2405 C 223.346 5.3578 -3.98115 0
M  V30 2406 H 222.616 0.737795 -0.0688454 0
M  V30 2407 H 225.263 1.70991 -0.862225 0
M  V30 2408 H 223.568 3.87285 0.593079 0
M  V30 2409 H 225.265 4.00372 0.224271 0
M  V30 2410 H 221.855 4.11306 -1.20522 0
M  V30 2411 H 226.039 4.4923 -2.10964 0
M  V30 2412 H 221.295 5.08702 -3.39164 0
M  V30 2413 H 225.469 5.4799 -4.29743 0
M  V30 2414 H 223.096 5.77475 -4.94395 0
M  V30 2415 N 224.671 0.411399 1.52136 0
M  V30 2416 C 225.899 -0.163076 2.06256 0
M  V30 2417 C 226.314 -1.3867 1.28125 0
M  V30 2418 O 225.671 -1.79423 0.333721 0
M  V30 2419 C 225.722 -0.511252 3.57867 0
M  V30 2420 O 225.443 0.66378 4.33042 0
M  V30 2421 C 226.944 -1.13921 4.28412 0
M  V30 2422 H 224.164 -0.0193897 0.67072 0
M  V30 2423 H 226.708 0.583007 1.96013 0
M  V30 2424 H 224.863 -1.20723 3.6811 0
M  V30 2425 H 225.277 0.372601 5.23175 0
M  V30 2426 H 226.751 -1.33302 5.35663 0
M  V30 2427 H 227.228 -2.11296 3.85033 0
M  V30 2428 H 227.834 -0.483373 4.22544 0
M  V30 2429 N 226.149 -1.5696 0.141893 0
M  V30 2430 C 227.374 -2.00754 -0.520838 0
M  V30 2431 C 227.799 -1.0213 -1.57959 0
M  V30 2432 O 227.157 0.00371324 -1.813 0
M  V30 2433 C 227.205 -3.43318 -1.10294 0
M  V30 2434 O 226.309 -3.47679 -2.21795 0
M  V30 2435 H 225.65 -0.651564 -0.127908 0
M  V30 2436 H 228.18 -2.03221 0.23712 0
M  V30 2437 H 228.19 -3.82012 -1.43287 0
M  V30 2438 H 226.865 -4.14608 -0.327574 0
M  V30 2439 H 225.442 -3.20824 -1.9007 0
M  V30 2440 N 227.627 0.131896 -1.57047 0
M  V30 2441 C 228.557 1.16384 -2.02428 0
M  V30 2442 C 229.538 1.43936 -0.90644 0
M  V30 2443 O 230.723 1.54599 -1.17528 0
M  V30 2444 C 227.853 2.49328 -2.4177 0
M  V30 2445 C 226.807 2.36266 -3.56879 0
M  V30 2446 C 226.133 3.74057 -3.8208 0
M  V30 2447 C 227.433 1.834 -4.89042 0
M  V30 2448 H 229.127 0.786433 -2.88887 0
M  V30 2449 H 226.673 0.376855 -1.38981 0
M  V30 2450 H 228.626 3.21759 -2.7212 0
M  V30 2451 H 227.35 2.88934 -1.52266 0
M  V30 2452 H 226.009 1.66286 -3.26718 0
M  V30 2453 H 225.657 4.11125 -2.89803 0
M  V30 2454 H 225.357 3.66174 -4.59554 0
M  V30 2455 H 226.881 4.48012 -4.1487 0
M  V30 2456 H 228.295 2.45636 -5.18011 0
M  V30 2457 H 226.692 1.8637 -5.70426 0
M  V30 2458 H 227.762 0.790662 -4.7841 0
M  V30 2459 N 229.106 1.52395 0.401703 0
M  V30 2460 C 230.336 1.70429 1.1678 0
M  V30 2461 C 230.744 0.416702 1.84554 0
M  V30 2462 O 230.087 -0.617697 1.73003 0
M  V30 2463 C 230.149 2.78919 2.26814 0
M  V30 2464 C 229.813 4.20437 1.79113 0
M  V30 2465 C 230.81 5.04028 1.27482 0
M  V30 2466 C 228.495 4.66704 1.85722 0
M  V30 2467 C 230.489 6.31961 0.830913 0
M  V30 2468 C 228.176 5.94625 1.40942 0
M  V30 2469 C 229.174 6.77082 0.897128 0
M  V30 2470 O 228.862 8.02607 0.455822 0
M  V30 2471 H 228.594 0.574272 0.356634 0
M  V30 2472 H 231.148 1.99767 0.477724 0
M  V30 2473 H 229.378 2.44973 2.99207 0
M  V30 2474 H 231.067 2.8548 2.88541 0
M  V30 2475 H 231.833 4.69471 1.21744 0
M  V30 2476 H 227.712 4.0262 2.24539 0
M  V30 2477 H 231.256 6.96271 0.430368 0
M  V30 2478 H 227.153 6.28688 1.46362 0
M  V30 2479 H 227.921 8.16453 0.578457 0
M  V30 2480 N 230.584 -0.659388 1.43143 0
M  V30 2481 C 231.824 -1.43121 1.45931 0
M  V30 2482 C 232.188 -1.91838 0.0789298 0
M  V30 2483 O 233.389 -2.68794 -0.018491 0
M  V30 2484 C 231.66 -2.58534 2.46769 0
M  V30 2485 S 233.219 -3.47154 2.68384 0
M  V30 2486 H 230.037 -0.488624 0.516496 0
M  V30 2487 H 232.639 -0.766128 1.79863 0
M  V30 2488 H 231.343 -2.21007 3.45809 0
M  V30 2489 H 230.874 -3.29898 2.14315 0
M  V30 2490 H 232.889 -4.55051 1.97845 0
M  V30 2491 N 232.062 -1.29571 -0.897171 0
M  V30 2492 C 232.995 -1.0924 -2.00354 0
M  V30 2493 C 233.973 -0.00354011 -1.626 0
M  V30 2494 O 235.157 -0.15473 -1.87864 0
M  V30 2495 C 232.284 -0.66352 -3.32137 0
M  V30 2496 C 231.33 -1.75146 -3.88878 0
M  V30 2497 S 232.163 -3.35124 -4.17674 0
M  V30 2498 C 233.319 -2.9411 -5.52494 0
M  V30 2499 H 233.552 -2.02907 -2.17292 0
M  V30 2500 H 231.085 -1.13746 -1.04408 0
M  V30 2501 H 233.043 -0.422791 -4.08317 0
M  V30 2502 H 231.704 0.253588 -3.13075 0
M  V30 2503 H 230.897 -1.40337 -4.84068 0
M  V30 2504 H 230.499 -1.94584 -3.19395 0
M  V30 2505 H 232.791 -2.41312 -6.33068 0
M  V30 2506 H 233.734 -3.88161 -5.9223 0
M  V30 2507 H 234.142 -2.32332 -5.14473 0
M  V30 2508 N 233.54 1.10788 -1.12088 0
M  V30 2509 C 234.47 2.19083 -0.807755 0
M  V30 2510 C 235.451 1.6858 0.226859 0
M  V30 2511 O 236.636 1.93997 0.0888475 0
M  V30 2512 C 233.766 3.46344 -0.257576 0
M  V30 2513 C 232.72 4.101 -1.22483 0
M  V30 2514 C 232.046 5.32016 -0.535052 0
M  V30 2515 C 233.346 4.54236 -2.57811 0
M  V30 2516 H 235.04 2.45534 -1.71328 0
M  V30 2517 H 232.586 1.1801 -0.825205 0
M  V30 2518 H 234.539 4.21392 -0.0262679 0
M  V30 2519 H 233.263 3.19373 0.683278 0
M  V30 2520 H 231.922 3.37054 -1.44189 0
M  V30 2521 H 231.57 5.01319 0.410827 0
M  V30 2522 H 231.27 5.75625 -1.18024 0
M  V30 2523 H 232.794 6.09799 -0.312695 0
M  V30 2524 H 234.208 5.20575 -2.40155 0
M  V30 2525 H 232.605 5.08682 -3.18375 0
M  V30 2526 H 233.675 3.6734 -3.16528 0
M  V30 2527 N 235.018 0.912232 1.28515 0
M  V30 2528 C 236.264 0.554851 1.95686 0
M  V30 2529 C 236.619 -0.89138 1.70506 0
M  V30 2530 O 235.912 -1.62529 1.01464 0
M  V30 2531 C 236.106 0.798392 3.48368 0
M  V30 2532 C 235.935 2.26674 3.88393 0
M  V30 2533 C 234.705 2.91657 4.12631 0
M  V30 2534 C 236.903 3.24303 3.99164 0
M  V30 2535 N 234.885 4.28805 4.39317 0
M  V30 2536 C 236.256 4.4661 4.30046 0
M  V30 2537 C 238.311 3.19723 3.81683 0
M  V30 2538 C 237.014 5.64915 4.45268 0
M  V30 2539 C 239.04 4.37325 3.98121 0
M  V30 2540 C 238.402 5.58406 4.29375 0
M  V30 2541 H 234.501 0.252876 0.739985 0
M  V30 2542 H 237.085 1.17565 1.55199 0
M  V30 2543 H 235.256 0.20688 3.87849 0
M  V30 2544 H 236.988 0.405193 4.02666 0
M  V30 2545 H 233.743 2.42393 4.06869 0
M  V30 2546 H 234.167 4.99712 4.56746 0
M  V30 2547 H 238.809 2.27191 3.56573 0
M  V30 2548 H 236.527 6.57927 4.6921 0
M  V30 2549 H 240.113 4.35282 3.86033 0
M  V30 2550 H 238.993 6.47889 4.41825 0
M  V30 2551 N 236.496 -1.42363 0.676048 0
M  V30 2552 C 237.743 -2.01522 0.19883 0
M  V30 2553 C 238.071 -1.53456 -1.19505 0
M  V30 2554 O 237.326 -0.727967 -1.81657 0
M  V30 2555 C 237.625 -3.56929 0.183431 0
M  V30 2556 C 237.291 -4.24431 1.52215 0
M  V30 2557 C 235.953 -4.42585 1.8887 0
M  V30 2558 C 238.305 -4.62459 2.40377 0
M  V30 2559 C 235.633 -4.96039 3.13309 0
M  V30 2560 C 237.985 -5.17294 3.64129 0
M  V30 2561 C 236.649 -5.33661 4.00951 0
M  V30 2562 H 235.919 -0.737419 0.0727571 0
M  V30 2563 H 238.566 -1.70531 0.871281 0
M  V30 2564 H 236.871 -3.87594 -0.572532 0
M  V30 2565 H 238.568 -4.00486 -0.203035 0
M  V30 2566 H 235.158 -4.10661 1.22701 0
M  V30 2567 H 239.342 -4.48105 2.13343 0
M  V30 2568 H 234.598 -5.06896 3.41857 0
M  V30 2569 H 238.772 -5.45704 4.32644 0
M  V30 2570 H 236.399 -5.74845 4.9745 0
M  V30 2571 N 237.974 -0.419461 -1.51915 0
M  V30 2572 C 239.221 0.152939 -2.01922 0
M  V30 2573 C 239.549 1.4426 -1.30458 0
M  V30 2574 O 238.804 1.91514 -0.402593 0
M  V30 2575 C 239.103 0.437067 -3.54717 0
M  V30 2576 C 238.769 -0.764632 -4.44369 0
M  V30 2577 C 237.431 -1.09423 -4.68594 0
M  V30 2578 C 239.783 -1.56713 -4.97082 0
M  V30 2579 C 237.111 -2.22732 -5.42777 0
M  V30 2580 C 239.463 -2.69107 -5.72507 0
M  V30 2581 C 238.127 -3.02541 -5.95 0
M  V30 2582 H 237.397 0.0559644 -0.738884 0
M  V30 2583 H 240.044 -0.562998 -1.83037 0
M  V30 2584 H 238.349 1.23469 -3.71837 0
M  V30 2585 H 240.046 0.893083 -3.90928 0
M  V30 2586 H 236.636 -0.497775 -4.257 0
M  V30 2587 H 240.82 -1.32571 -4.78266 0
M  V30 2588 H 236.076 -2.48971 -5.58411 0
M  V30 2589 H 240.25 -3.31671 -6.12346 0
M  V30 2590 H 237.877 -3.90457 -6.52264 0
M  V30 2591 N 239.452 1.56882 -0.150215 0
M  V30 2592 C 240.382 2.19935 0.784284 0
M  V30 2593 C 241.363 1.14854 1.25469 0
M  V30 2594 O 242.548 1.43209 1.31168 0
M  V30 2595 C 239.678 2.82349 2.02229 0
M  V30 2596 C 238.632 3.93285 1.68853 0
M  V30 2597 C 237.958 4.42649 2.99944 0
M  V30 2598 C 239.258 5.13904 0.932714 0
M  V30 2599 H 240.952 2.9828 0.258781 0
M  V30 2600 H 238.498 1.43473 0.123029 0
M  V30 2601 H 240.451 3.25126 2.68088 0
M  V30 2602 H 239.175 2.0134 2.57157 0
M  V30 2603 H 237.834 3.5113 1.05371 0
M  V30 2604 H 237.482 3.58458 3.52869 0
M  V30 2605 H 237.182 5.17476 2.78374 0
M  V30 2606 H 238.706 4.88099 3.66868 0
M  V30 2607 H 240.12 5.53506 1.49345 0
M  V30 2608 H 238.517 5.94515 0.81684 0
M  V30 2609 H 239.587 4.84842 -0.0749568 0
M  V30 2610 N 240.93 -0.123565 1.57115 0
M  V30 2611 C 241.86 -1.15309 2.03042 0
M  V30 2612 C 242.841 -1.43454 0.914061 0
M  V30 2613 O 244.026 -1.53973 1.18347 0
M  V30 2614 C 241.156 -2.48043 2.43089 0
M  V30 2615 C 240.11 -2.3437 3.58127 0
M  V30 2616 C 239.436 -3.72026 3.84059 0
M  V30 2617 C 240.736 -1.80804 4.90007 0
M  V30 2618 H 242.43 -0.771102 2.893 0
M  V30 2619 H 239.976 -0.369479 1.39179 0
M  V30 2620 H 241.929 -3.20311 2.73823 0
M  V30 2621 H 240.653 -2.88122 1.53796 0
M  V30 2622 H 239.312 -1.64551 3.27595 0
M  V30 2623 H 238.96 -4.09582 2.91979 0
M  V30 2624 H 238.66 -3.63732 4.6149 0
M  V30 2625 H 240.184 -4.45806 4.1724 0
M  V30 2626 H 241.598 -2.42886 5.19307 0
M  V30 2627 H 239.995 -1.83343 5.71407 0
M  V30 2628 H 241.065 -0.76528 4.78823 0
M  V30 2629 N 242.408 -1.52605 -0.393616 0
M  V30 2630 C 243.685 -1.58001 -1.15304 0
M  V30 2631 C 244.065 -0.370385 -2.07825 0
M  V30 2632 O 243.413 0.641638 -2.19306 0
M  V30 2633 C 243.623 -2.91652 -1.91677 0
M  V30 2634 C 244.971 -3.4522 -2.47201 0
M  V30 2635 O 245.995 -2.93495 -2.01839 0
M  V30 2636 O 244.854 -4.35579 -3.3005 0
M  V30 2637 H 241.948 -0.637068 -0.527327 0
M  V30 2638 H 244.494 -1.64939 -0.399141 0
M  V30 2639 H 243.266 -3.71136 -1.23992 0
M  V30 2640 H 242.889 -2.88077 -2.74039 0
M  V30 2641 N 243.887 0.651787 -1.4349 0
M  V30 2642 C 244.817 1.77621 -1.51569 0
M  V30 2643 C 245.798 1.66022 -0.370253 0
M  V30 2644 O 246.983 1.85095 -0.587658 0
M  V30 2645 C 244.113 3.16056 -1.43966 0
M  V30 2646 C 243.067 3.4242 -2.56774 0
M  V30 2647 C 242.393 4.8067 -2.34223 0
M  V30 2648 C 243.693 3.37023 -3.99015 0
M  V30 2649 H 245.387 1.71117 -2.45681 0
M  V30 2650 H 242.933 0.821825 -1.18246 0
M  V30 2651 H 244.886 3.94472 -1.48221 0
M  V30 2652 H 243.61 3.23293 -0.463586 0
M  V30 2653 H 242.269 2.66375 -2.51873 0
M  V30 2654 H 241.917 4.84585 -1.34856 0
M  V30 2655 H 241.617 4.9927 -3.09844 0
M  V30 2656 H 243.141 5.61342 -2.40265 0
M  V30 2657 H 244.555 4.05374 -4.05395 0
M  V30 2658 H 242.952 3.67159 -4.74673 0
M  V30 2659 H 244.022 2.3518 -4.2405 0
M  V30 2660 N 245.365 1.30045 0.890287 0
M  V30 2661 C 246.313 1.15873 2.01683 0
M  V30 2662 C 247.307 0.0719403 1.69247 0
M  V30 2663 O 248.513 0.232414 1.78493 0
M  V30 2664 H 244.888 0.358203 0.661207 0
M  V30 2665 H 246.859 2.11229 2.10772 0
M  V30 2666 C 245.608 0.861842 3.36849 0
M  V30 2667 H 244.931 1.69016 3.62317 0
M  V30 2668 H 246.371 0.802762 4.16331 0
M  V30 2669 C 244.83 -0.435132 3.34078 0
M  V30 2670 O 245.36 -1.4583 3.74295 0
M  V30 2671 N 243.566 -0.444377 2.87182 0
M  V30 2672 H 243.113 0.388723 2.5465 0
M  V30 2673 H 243.071 -1.31213 2.85711 0
M  V30 2674 N 246.843 -1.10192 1.12674 0
M  V30 2675 C 248.092 -1.81573 0.8783 0
M  V30 2676 C 248.405 -1.86249 -0.597557 0
M  V30 2677 O 249.611 -2.5386 -0.962681 0
M  V30 2678 C 248.067 -3.26149 1.52167 0
M  V30 2679 C 247.675 -3.29763 3.03249 0
M  V30 2680 C 249.419 -4.0234 1.3536 0
M  V30 2681 C 247.326 -4.68815 3.60508 0
M  V30 2682 H 246.256 -0.680394 0.324931 0
M  V30 2683 H 248.907 -1.23902 1.35353 0
M  V30 2684 H 247.289 -3.83832 0.974104 0
M  V30 2685 H 248.463 -2.8189 3.6452 0
M  V30 2686 H 246.778 -2.67059 3.19481 0
M  V30 2687 H 249.375 -5.05058 1.75559 0
M  V30 2688 H 249.718 -4.15235 0.297554 0
M  V30 2689 H 250.251 -3.51079 1.87052 0
M  V30 2690 H 246.99 -4.61121 4.65884 0
M  V30 2691 H 246.51 -5.17045 3.04014 0
M  V30 2692 H 248.189 -5.37785 3.59717 0
M  V30 2693 N 248.321 -0.919034 -1.28029 0
M  V30 2694 C 249.546 -0.570357 -1.99403 0
M  V30 2695 C 249.971 0.842486 -1.68178 0
M  V30 2696 O 249.329 1.56391 -0.917141 0
M  V30 2697 C 249.377 -0.792541 -3.51783 0
M  V30 2698 O 248.481 0.145988 -4.12142 0
M  V30 2699 H 247.822 -0.220555 -0.6263 0
M  V30 2700 H 250.352 -1.23592 -1.63053 0
M  V30 2701 H 250.362 -0.704708 -4.01868 0
M  V30 2702 H 249.037 -1.82247 -3.73844 0
M  V30 2703 H 247.614 0.00897528 -3.72899 0
M  V30 2704 N 249.799 1.42003 -0.683588 0
M  V30 2705 C 251.027 2.05746 -0.218182 0
M  V30 2706 C 251.442 1.51396 1.12804 0
M  V30 2707 O 250.799 0.657303 1.70252 0
M  V30 2708 C 250.85 3.61171 -0.154131 0
M  V30 2709 O 250.571 4.13508 -1.44716 0
M  V30 2710 C 252.072 4.42042 0.333713 0
M  V30 2711 H 249.292 0.662888 -0.10402 0
M  V30 2712 H 251.836 1.81987 -0.9328 0
M  V30 2713 H 249.991 3.84012 0.511231 0
M  V30 2714 H 250.405 5.07453 -1.32632 0
M  V30 2715 H 251.879 5.51028 0.327423 0
M  V30 2716 H 252.356 4.17269 1.37053 0
M  V30 2717 H 252.962 4.24239 -0.300222 0
M  V30 2718 N 251.277 0.427512 1.51691 0
M  V30 2719 C 252.507 -0.140986 2.06118 0
M  V30 2720 C 252.915 -1.37854 1.29588 0
M  V30 2721 O 252.258 -1.80411 0.346036 0
M  V30 2722 C 252.32 -0.538276 3.55447 0
M  V30 2723 C 251.984 0.591095 4.53161 0
M  V30 2724 C 252.981 1.46027 4.98971 0
M  V30 2725 C 250.666 0.769028 4.96378 0
M  V30 2726 C 252.66 2.49216 5.8666 0
M  V30 2727 C 250.347 1.80421 5.83859 0
M  V30 2728 C 251.345 2.66417 6.28897 0
M  V30 2729 O 251.033 3.68159 7.14643 0
M  V30 2730 H 250.765 -0.0157455 0.675817 0
M  V30 2731 H 253.319 0.602495 1.96365 0
M  V30 2732 H 251.549 -1.33432 3.6295 0
M  V30 2733 H 253.238 -1.0368 3.92435 0
M  V30 2734 H 254.004 1.33429 4.66285 0
M  V30 2735 H 249.883 0.109273 4.6087 0
M  V30 2736 H 253.427 3.16372 6.21735 0
M  V30 2737 H 249.324 1.93042 6.15959 0
M  V30 2738 H 250.092 3.64622 7.32798 0
M  V30 2739 N 252.755 -1.56801 0.158532 0
M  V30 2740 C 253.702 -2.17337 -0.776729 0
M  V30 2741 C 254.672 -1.1096 -1.23601 0
M  V30 2742 O 255.857 -1.39054 -1.30647 0
M  V30 2743 C 252.997 -2.80822 -2.00582 0
M  V30 2744 C 252.11 -4.01624 -1.59129 0
M  V30 2745 C 251.245 -4.53072 -2.77306 0
M  V30 2746 C 250.284 -5.66314 -2.32282 0
M  V30 2747 N 249.421 -6.12329 -3.43508 0
M  V30 2748 H 254.261 -2.96918 -0.253701 0
M  V30 2749 H 251.798 -1.46661 -0.113504 0
M  V30 2750 H 253.756 -3.15779 -2.72652 0
M  V30 2751 H 252.386 -2.03866 -2.50277 0
M  V30 2752 H 251.438 -3.72571 -0.767806 0
M  V30 2753 H 252.75 -4.83633 -1.2207 0
M  V30 2754 H 251.904 -4.90145 -3.57551 0
M  V30 2755 H 250.643 -3.70095 -3.17617 0
M  V30 2756 H 249.648 -5.28806 -1.5048 0
M  V30 2757 H 250.873 -6.51085 -1.93043 0
M  V30 2758 H 248.819 -5.32284 -3.83418 0
M  V30 2759 H 248.736 -6.89293 -3.105 0
M  V30 2760 H 250.004 -6.5405 -4.24075 0
M  V30 2761 N 254.233 0.115231 -1.57178 0
M  V30 2762 C 255.51 0.852873 -1.76027 0
M  V30 2763 C 255.89 1.97892 -0.73498 0
M  V30 2764 O 255.238 2.27232 0.24036 0
M  V30 2765 C 255.448 1.36608 -3.21153 0
M  V30 2766 C 256.796 1.81692 -3.83762 0
M  V30 2767 O 257.82 1.46278 -3.24779 0
M  V30 2768 O 256.679 2.47104 -4.87444 0
M  V30 2769 H 253.773 0.405296 -0.720877 0
M  V30 2770 H 256.319 0.0986785 -1.69413 0
M  V30 2771 H 255.091 0.558357 -3.87296 0
M  V30 2772 H 254.714 2.18287 -3.3232 0
M  V30 2773 N 255.711 1.52812 0.385517 0
M  V30 2774 C 256.674 1.77188 1.45386 0
M  V30 2775 C 257.674 0.641953 1.4743 0
M  V30 2776 O 258.864 0.910033 1.4854 0
M  V30 2777 C 255.996 1.87582 2.8465 0
M  V30 2778 H 257.189 2.72583 1.25054 0
M  V30 2779 H 254.742 1.43586 0.617467 0
M  V30 2780 H 255.477 0.941849 3.10322 0
M  V30 2781 H 255.262 2.69748 2.84567 0
M  V30 2782 H 256.752 2.08102 3.62054 0
M  V30 2783 N 257.189 -0.644168 1.43834 0
M  V30 2784 C 258.438 -1.39985 1.45214 0
M  V30 2785 C 258.751 -1.95421 0.0835494 0
M  V30 2786 O 259.957 -2.71488 -0.0251748 0
M  V30 2787 C 258.413 -2.53384 2.55587 0
M  V30 2788 C 258.021 -2.04517 3.98594 0
M  V30 2789 C 259.765 -3.30685 2.66172 0
M  V30 2790 C 257.672 -3.1518 5.00416 0
M  V30 2791 H 256.602 -0.526005 0.540218 0
M  V30 2792 H 259.253 -0.694367 1.69855 0
M  V30 2793 H 257.635 -3.26446 2.24163 0
M  V30 2794 H 258.809 -1.38405 4.39523 0
M  V30 2795 H 257.124 -1.40068 3.92135 0
M  V30 2796 H 259.721 -4.13158 3.39418 0
M  V30 2797 H 260.064 -3.79312 1.71546 0
M  V30 2798 H 260.597 -2.64708 2.96942 0
M  V30 2799 H 257.336 -2.71511 5.96625 0
M  V30 2800 H 256.856 -3.79974 4.64091 0
M  V30 2801 H 258.535 -3.80166 5.23529 0
M  V30 2802 N 258.668 -1.30515 -0.883378 0
M  V30 2803 C 259.914 -1.19607 -1.63774 0
M  V30 2804 C 260.247 0.248314 -1.92606 0
M  V30 2805 O 259.522 1.17742 -1.54813 0
M  V30 2806 C 259.805 -2.02669 -2.97653 0
M  V30 2807 C 259.658 -3.55335 -2.75784 0
M  V30 2808 C 260.977 -1.86573 -3.98596 0
M  V30 2809 H 258.096 -0.435856 -0.594305 0
M  V30 2810 H 260.738 -1.60165 -1.02212 0
M  V30 2811 H 258.888 -1.68208 -3.50197 0
M  V30 2812 H 260.56 -3.99863 -2.30016 0
M  V30 2813 H 258.803 -3.79438 -2.1026 0
M  V30 2814 H 259.474 -4.08745 -3.70988 0
M  V30 2815 H 261.95 -2.16703 -3.55217 0
M  V30 2816 H 260.826 -2.47014 -4.90179 0
M  V30 2817 H 261.087 -0.825321 -4.34328 0
M  V30 2818 N 260.146 1.09593 -1.13257 0
M  V30 2819 C 261.395 1.81105 -0.887917 0
M  V30 2820 C 261.708 1.86563 0.587672 0
M  V30 2821 O 262.914 2.54367 0.949204 0
M  V30 2822 C 261.37 3.25338 -1.53895 0
M  V30 2823 C 260.978 3.28151 -3.04994 0
M  V30 2824 C 262.722 4.01617 -1.37492 0
M  V30 2825 C 260.629 4.66897 -3.6299 0
M  V30 2826 H 259.559 0.678661 -0.328534 0
M  V30 2827 H 262.21 1.23183 -1.36008 0
M  V30 2828 H 260.592 3.8331 -0.994446 0
M  V30 2829 H 261.766 2.79953 -3.66009 0
M  V30 2830 H 260.081 2.65361 -3.20893 0
M  V30 2831 H 262.678 5.04119 -1.78235 0
M  V30 2832 H 263.021 4.15072 -0.31957 0
M  V30 2833 H 263.554 3.50082 -1.88912 0
M  V30 2834 H 260.293 4.58643 -4.68323 0
M  V30 2835 H 259.813 5.15426 -3.06752 0
M  V30 2836 H 261.492 5.3587 -3.62563 0
M  V30 2837 N 261.624 0.925811 1.2754 0
M  V30 2838 C 262.849 0.580924 1.99098 0
M  V30 2839 C 263.274 -0.833555 1.68622 0
M  V30 2840 O 262.632 -1.55903 0.925422 0
M  V30 2841 C 262.68 0.811186 3.51358 0
M  V30 2842 O 261.784 -0.124129 4.12213 0
M  V30 2843 H 261.125 0.223873 0.625122 0
M  V30 2844 H 263.655 1.24455 1.62395 0
M  V30 2845 H 263.665 0.72601 4.01489 0
M  V30 2846 H 262.34 1.84227 3.72872 0
M  V30 2847 H 260.917 0.0108006 3.72898 0
M  V30 2848 N 263.102 -1.41638 0.69111 0
M  V30 2849 C 264.342 -2.03166 0.224291 0
M  V30 2850 C 264.706 -1.53537 -1.15284 0
M  V30 2851 O 265.907 -2.0696 -1.71525 0
M  V30 2852 C 264.178 -3.56342 0.274758 0
M  V30 2853 S 265.737 -4.3864 -0.118669 0
M  V30 2854 H 262.555 -0.705188 0.0907263 0
M  V30 2855 H 265.157 -1.7314 0.907895 0
M  V30 2856 H 263.861 -3.89958 1.2791 0
M  V30 2857 H 263.392 -3.91063 -0.428142 0
M  V30 2858 H 265.407 -4.77549 -1.34764 0
M  V30 2859 N 264.58 -0.43555 -1.51462 0
M  V30 2860 C 265.828 0.131254 -2.01673 0
M  V30 2861 C 266.149 1.43368 -1.32177 0
M  V30 2862 O 265.419 1.90524 -0.455769 0
M  V30 2863 H 263.999 0.0514954 -0.745223 0
M  V30 2864 H 266.661 -0.577847 -1.86137 0
M  V30 2865 H 265.757 0.308446 -3.10572 0
M  V30 2866 N 266.058 1.56714 -0.166846 0
M  V30 2867 C 267.288 2.00828 0.48494 0
M  V30 2868 C 267.696 1.04612 1.57648 0
M  V30 2869 O 267.039 0.0383201 1.8366 0
M  V30 2870 C 267.101 3.4137 1.12723 0
M  V30 2871 C 266.765 4.56654 0.177886 0
M  V30 2872 C 267.762 5.16402 -0.60207 0
M  V30 2873 C 265.447 5.02244 0.0750139 0
M  V30 2874 C 267.441 6.20167 -1.47215 0
M  V30 2875 C 265.128 6.05859 -0.798649 0
M  V30 2876 C 266.126 6.64691 -1.57082 0
M  V30 2877 O 265.814 7.66297 -2.42989 0
M  V30 2878 H 265.546 0.663587 0.128953 0
M  V30 2879 H 268.1 2.03692 -0.264365 0
M  V30 2880 H 266.33 3.35406 1.92457 0
M  V30 2881 H 268.019 3.69466 1.68076 0
M  V30 2882 H 268.785 4.82065 -0.53274 0
M  V30 2883 H 264.664 4.56167 0.665812 0
M  V30 2884 H 268.208 6.66016 -2.07531 0
M  V30 2885 H 264.105 6.39621 -0.869199 0
M  V30 2886 H 264.873 7.83601 -2.36455 0
M  V30 2887 N 267.536 -0.106894 1.57237 0
M  V30 2888 C 268.483 -1.13049 2.01217 0
M  V30 2889 C 269.453 -1.40471 0.886403 0
M  V30 2890 O 270.638 -1.52133 1.15153 0
M  V30 2891 C 267.778 -2.4487 2.43172 0
M  V30 2892 C 266.891 -2.24281 3.69218 0
M  V30 2893 C 266.026 -3.49417 4.00101 0
M  V30 2894 C 265.065 -3.24038 5.19294 0
M  V30 2895 N 264.202 -4.41409 5.45988 0
M  V30 2896 H 269.042 -0.748456 2.88448 0
M  V30 2897 H 266.579 -0.358054 1.42676 0
M  V30 2898 H 268.537 -3.21786 2.65537 0
M  V30 2899 H 267.167 -2.80944 1.58967 0
M  V30 2900 H 266.219 -1.38224 3.54398 0
M  V30 2901 H 267.531 -2.01512 4.56283 0
M  V30 2902 H 266.685 -4.34746 4.2318 0
M  V30 2903 H 265.424 -3.75229 3.11535 0
M  V30 2904 H 264.429 -2.37102 4.96047 0
M  V30 2905 H 265.654 -2.99584 6.09447 0
M  V30 2906 H 263.6 -4.67319 4.60379 0
M  V30 2907 H 263.517 -4.21788 6.274 0
M  V30 2908 H 264.785 -5.27836 5.73593 0
M  V30 2909 N 269.014 -1.53014 -0.377408 0
M  V30 2910 C 270.263 -1.67845 -1.11853 0
M  V30 2911 C 270.576 -0.430625 -1.90801 0
M  V30 2912 O 271.782 -0.459261 -2.67587 0
M  V30 2913 C 270.238 -2.96668 -2.03756 0
M  V30 2914 C 269.846 -4.28671 -1.30175 0
M  V30 2915 C 271.59 -3.20865 -2.77932 0
M  V30 2916 C 269.497 -5.48591 -2.20911 0
M  V30 2917 H 268.427 -0.625343 -0.421263 0
M  V30 2918 H 271.078 -1.79514 -0.380409 0
M  V30 2919 H 269.46 -2.78773 -2.8125 0
M  V30 2920 H 270.634 -4.57157 -0.578259 0
M  V30 2921 H 268.949 -4.10825 -0.679108 0
M  V30 2922 H 271.546 -4.07642 -3.46024 0
M  V30 2923 H 271.889 -2.36424 -3.4265 0
M  V30 2924 H 272.422 -3.39379 -2.07525 0
M  V30 2925 H 269.161 -6.35474 -1.6079 0
M  V30 2926 H 268.681 -5.244 -2.91144 0
M  V30 2927 H 270.36 -5.8292 -2.80736 0
M  V30 2928 N 270.492 0.636531 -1.44174 0
M  V30 2929 C 271.717 1.42847 -1.50364 0
M  V30 2930 C 272.142 1.87665 -0.127867 0
M  V30 2931 O 271.5 1.58408 0.88185 0
M  V30 2932 C 271.548 2.62854 -2.4686 0
M  V30 2933 O 270.652 3.62501 -1.9664 0
M  V30 2934 H 269.993 0.427642 -0.507955 0
M  V30 2935 H 272.523 0.777422 -1.89255 0
M  V30 2936 H 272.533 3.10465 -2.64718 0
M  V30 2937 H 271.208 2.29578 -3.46795 0
M  V30 2938 H 269.785 3.21735 -1.88523 0
M  V30 2939 N 271.97 1.30982 0.876444 0
M  V30 2940 C 273.386 1.09498 1.16113 0
M  V30 2941 C 273.586 -0.13875 2.01022 0
M  V30 2942 O 272.642 -0.829935 2.38471 0
M  V30 2943 C 273.955 2.36308 1.85954 0
M  V30 2944 C 275.503 2.41856 1.98683 0
M  V30 2945 C 275.978 3.6853 2.71937 0
M  V30 2946 N 277.469 3.69387 2.79477 0
M  V30 2947 C 278.204 4.64096 3.36753 0
M  V30 2948 N 277.7 5.69155 3.95012 0
M  V30 2949 N 279.493 4.51626 3.3465 0
M  V30 2950 H 271.644 2.10118 0.310494 0
M  V30 2951 H 273.907 0.926634 0.200131 0
M  V30 2952 H 273.613 3.26388 1.31011 0
M  V30 2953 H 273.487 2.4561 2.86278 0
M  V30 2954 H 275.874 1.52249 2.52793 0
M  V30 2955 H 275.955 2.36523 0.9742 0
M  V30 2956 H 275.599 4.58499 2.18496 0
M  V30 2957 H 275.529 3.71127 3.73593 0
M  V30 2958 H 278.02 2.93438 2.38123 0
M  V30 2959 H 278.333 6.3751 4.36808 0
M  V30 2960 H 276.678 5.72937 3.93406 0
M  V30 2961 H 279.869 3.68728 2.8837 0
M  V30 2962 H 280.042 5.25614 3.7899 0
M  V30 2963 N 273.449 -1.08991 1.13837 0
M  V30 2964 C 274.397 -2.17841 0.815347 0
M  V30 2965 C 275.391 -1.68164 -0.204233 0
M  V30 2966 O 276.597 -1.79897 -0.0609304 0
M  V30 2967 H 272.972 -0.710654 0.245915 0
M  V30 2968 H 274.943 -2.42315 1.74143 0
M  V30 2969 C 273.692 -3.46381 0.302614 0
M  V30 2970 H 273.015 -3.84979 1.0785 0
M  V30 2971 H 274.455 -4.23844 0.115074 0
M  V30 2972 C 272.914 -3.22556 -0.972591 0
M  V30 2973 O 273.444 -3.45599 -2.04754 0
M  V30 2974 N 271.65 -2.76134 -0.905455 0
M  V30 2975 H 271.197 -2.57582 -0.0305421 0
M  V30 2976 H 271.155 -2.60571 -1.75926 0
M  V30 2977 N 274.927 -0.932562 -1.27047 0
M  V30 2978 C 276.157 -0.591173 -1.97961 0
M  V30 2979 C 276.565 0.836219 -1.69717 0
M  V30 2980 O 275.908 1.56801 -0.957036 0
M  V30 2981 C 275.97 -0.743082 -3.51736 0
M  V30 2982 C 275.634 -2.1435 -4.03613 0
M  V30 2983 C 276.631 -3.11815 -4.16014 0
M  V30 2984 C 274.316 -2.46175 -4.37839 0
M  V30 2985 C 276.31 -4.39211 -4.61923 0
M  V30 2986 C 273.997 -3.73806 -4.83438 0
M  V30 2987 C 274.995 -4.70137 -4.95439 0
M  V30 2988 O 274.683 -5.95496 -5.40037 0
M  V30 2989 H 274.415 -0.222375 -0.638377 0
M  V30 2990 H 276.969 -1.25317 -1.62742 0
M  V30 2991 H 275.199 -0.0239739 -3.86693 0
M  V30 2992 H 276.888 -0.40603 -4.03864 0
M  V30 2993 H 277.654 -2.88549 -3.89826 0
M  V30 2994 H 273.533 -1.71936 -4.27737 0
M  V30 2995 H 277.077 -5.14404 -4.71205 0
M  V30 2996 H 272.974 -3.96888 -5.09068 0
M  V30 2997 H 273.742 -5.98554 -5.58279 0
M  V30 2998 N 276.405 1.4127 -0.698611 0
M  V30 2999 C 277.635 2.05205 -0.239644 0
M  V30 3000 C 278.043 1.52684 1.11733 0
M  V30 3001 O 277.386 0.671222 1.70998 0
M  V30 3002 C 277.448 3.59289 -0.123126 0
M  V30 3003 C 277.112 4.34619 -1.41263 0
M  V30 3004 C 278.109 4.63701 -2.35111 0
M  V30 3005 C 275.794 4.73837 -1.66684 0
M  V30 3006 C 277.788 5.30966 -3.52639 0
M  V30 3007 C 275.475 5.40837 -2.84498 0
M  V30 3008 C 276.473 5.69329 -3.77298 0
M  V30 3009 O 276.161 6.34949 -4.93047 0
M  V30 3010 H 275.893 0.66723 -0.108537 0
M  V30 3011 H 278.447 1.81974 -0.952602 0
M  V30 3012 H 276.677 3.81272 0.645628 0
M  V30 3013 H 278.366 4.04797 0.299056 0
M  V30 3014 H 279.132 4.33882 -2.16729 0
M  V30 3015 H 275.011 4.51039 -0.953135 0
M  V30 3016 H 278.555 5.53121 -4.25091 0
M  V30 3017 H 274.452 5.70075 -3.02795 0
M  V30 3018 H 275.22 6.53445 -4.92902 0
M  V30 3019 N 277.883 0.443576 1.51229 0
M  V30 3020 C 279.108 -0.121648 2.07043 0
M  V30 3021 C 279.533 -1.35156 1.30823 0
M  V30 3022 O 278.891 -1.7793 0.347934 0
M  V30 3023 C 278.939 -0.41624 3.5819 0
M  V30 3024 O 278.043 -1.50163 3.8409 0
M  V30 3025 H 277.384 0.000871367 0.663999 0
M  V30 3026 H 279.914 0.626706 1.94765 0
M  V30 3027 H 279.924 -0.664867 4.02546 0
M  V30 3028 H 278.599 0.482653 4.1309 0
M  V30 3029 H 277.176 -1.24248 3.51592 0
M  V30 3030 N 279.361 -1.56624 0.175154 0
M  V30 3031 C 280.772 -1.83561 -0.340916 0
M  V30 3032 C 281.123 -1.09511 -1.62794 0
M  V30 3033 O 280.248 -0.349389 -2.13561 0
M  V30 3034 C 280.843 -3.32979 -0.625313 0
M  V30 3035 C 279.402 -3.60399 -1.08581 0
M  V30 3036 C 278.549 -2.77024 -0.123722 0
M  V30 3037 H 281.5 -1.53593 0.399344 0
M  V30 3038 H 281.521 -3.50666 -1.47694 0
M  V30 3039 H 281.033 -3.86847 0.311575 0
M  V30 3040 H 279.134 -3.11945 -2.03767 0
M  V30 3041 H 279.247 -4.68711 -0.992317 0
M  V30 3042 H 277.611 -2.46993 -0.621821 0
M  V30 3043 H 278.394 -3.33674 0.807256 0
M  V30 3044 N 280.839 0.0985539 -1.57292 0
M  V30 3045 C 282.088 0.801358 -1.85098 0
M  V30 3046 C 282.401 1.80066 -0.763902 0
M  V30 3047 O 283.607 2.55112 -0.928981 0
M  V30 3048 C 282.063 1.47599 -3.28242 0
M  V30 3049 C 281.671 0.516624 -4.45011 0
M  V30 3050 C 283.415 2.16272 -3.65276 0
M  V30 3051 C 281.322 1.19564 -5.79188 0
M  V30 3052 H 280.252 0.303022 -0.69043 0
M  V30 3053 H 282.903 0.0542623 -1.8342 0
M  V30 3054 H 281.285 2.27042 -3.2445 0
M  V30 3055 H 282.459 -0.246065 -4.60143 0
M  V30 3056 H 280.774 -0.064227 -4.1635 0
M  V30 3057 H 283.371 2.67802 -4.62803 0
M  V30 3058 H 283.714 2.95009 -2.93727 0
M  V30 3059 H 284.247 1.43693 -3.70941 0
M  V30 3060 H 280.986 0.449157 -6.53959 0
M  V30 3061 H 280.506 1.92984 -5.67906 0
M  V30 3062 H 282.185 1.7231 -6.23633 0
M  V30 3063 N 282.317 1.53212 0.369288 0
M  V30 3064 C 283.547 1.72868 1.13139 0
M  V30 3065 C 283.955 0.455754 1.83629 0
M  V30 3066 O 283.298 -0.580861 1.74275 0
M  V30 3067 C 283.36 2.83667 2.20847 0
M  V30 3068 C 283.024 4.24142 1.70155 0
M  V30 3069 C 284.021 5.06619 1.16763 0
M  V30 3070 C 281.706 4.70539 1.7578 0
M  V30 3071 C 283.7 6.33581 0.696678 0
M  V30 3072 C 281.387 5.97481 1.28297 0
M  V30 3073 C 282.385 6.78833 0.753307 0
M  V30 3074 O 282.073 8.03393 0.285475 0
M  V30 3075 H 281.805 0.581707 0.344373 0
M  V30 3076 H 284.359 2.00736 0.435243 0
M  V30 3077 H 282.589 2.51265 2.93944 0
M  V30 3078 H 284.278 2.91536 2.82421 0
M  V30 3079 H 285.044 4.71948 1.11758 0
M  V30 3080 H 280.923 4.07293 2.15949 0
M  V30 3081 H 284.467 6.97027 0.282581 0
M  V30 3082 H 280.364 6.31651 1.32994 0
M  V30 3083 H 281.132 8.17497 0.405145 0
M  V30 3084 N 283.795 -0.628877 1.44509 0
M  V30 3085 C 284.725 -1.75187 1.54376 0
M  V30 3086 C 285.706 -1.65411 0.396618 0
M  V30 3087 O 286.891 -1.84137 0.617031 0
M  V30 3088 C 284.021 -3.13725 1.48976 0
M  V30 3089 C 282.975 -3.38291 2.62189 0
M  V30 3090 C 282.301 -4.76883 2.41841 0
M  V30 3091 C 283.601 -3.30632 4.04326 0
M  V30 3092 H 285.295 -1.67187 2.48373 0
M  V30 3093 H 282.841 -0.802909 1.19538 0
M  V30 3094 H 284.794 -3.92064 1.54478 0
M  V30 3095 H 283.518 -3.22515 0.514961 0
M  V30 3096 H 282.177 -2.62334 2.56079 0
M  V30 3097 H 281.825 -4.82378 1.42548 0
M  V30 3098 H 281.525 -4.94278 3.17747 0
M  V30 3099 H 283.049 -5.57449 2.49165 0
M  V30 3100 H 284.463 -3.98873 4.11793 0
M  V30 3101 H 282.86 -3.59561 4.80454 0
M  V30 3102 H 283.93 -2.28404 4.27738 0
M  V30 3103 N 285.273 -1.31445 -0.869486 0
M  V30 3104 C 286.206 -1.13465 -1.97992 0
M  V30 3105 C 287.184 -0.0380291 -1.62556 0
M  V30 3106 O 288.368 -0.194544 -1.87493 0
M  V30 3107 C 285.495 -0.733822 -3.30655 0
M  V30 3108 C 284.541 -1.83356 -3.85075 0
M  V30 3109 S 285.374 -3.43909 -4.10472 0
M  V30 3110 C 286.53 -3.05763 -5.46132 0
M  V30 3111 H 286.763 -2.07471 -2.1294 0
M  V30 3112 H 284.296 -1.15936 -1.01972 0
M  V30 3113 H 286.254 -0.509306 -4.07328 0
M  V30 3114 H 284.915 0.187123 -3.13542 0
M  V30 3115 H 284.108 -1.50574 -4.80982 0
M  V30 3116 H 283.71 -2.01315 -3.15195 0
M  V30 3117 H 286.002 -2.54686 -6.27807 0
M  V30 3118 H 286.945 -4.00635 -5.83864 0
M  V30 3119 H 287.353 -2.43192 -5.09429 0
M  V30 3120 N 286.751 1.08385 -1.14413 0
M  V30 3121 C 288.028 1.77429 -0.823297 0
M  V30 3122 C 288.408 1.9974 0.683163 0
M  V30 3123 O 287.756 1.60739 1.62405 0
M  V30 3124 C 287.966 3.09004 -1.62227 0
M  V30 3125 C 289.314 3.83532 -1.82177 0
M  V30 3126 O 290.338 3.18786 -1.58915 0
M  V30 3127 O 289.197 4.99792 -2.21067 0
M  V30 3128 H 286.291 0.769999 -0.301712 0
M  V30 3129 H 288.837 1.14846 -1.24934 0
M  V30 3130 H 287.609 2.88316 -2.64555 0
M  V30 3131 H 287.232 3.79316 -1.19187 0
M  V30 3132 N 288.23 0.939286 1.26551 0
M  V30 3133 C 289.477 0.585847 1.9384 0
M  V30 3134 C 289.805 -0.874784 1.73718 0
M  V30 3135 O 289.06 -1.64092 1.06642 0
M  V30 3136 C 289.359 0.872106 3.46596 0
M  V30 3137 C 289.025 2.31632 3.86856 0
M  V30 3138 C 287.687 2.71111 3.97558 0
M  V30 3139 C 290.039 3.25494 4.07066 0
M  V30 3140 C 287.367 4.03553 4.25866 0
M  V30 3141 C 289.719 4.57531 4.36862 0
M  V30 3142 C 288.383 4.96828 4.45778 0
M  V30 3143 H 287.653 0.214377 0.709312 0
M  V30 3144 H 290.3 1.18544 1.50398 0
M  V30 3145 H 288.605 0.18996 3.91339 0
M  V30 3146 H 290.302 0.577442 3.96821 0
M  V30 3147 H 286.892 2.00008 3.79071 0
M  V30 3148 H 291.076 2.9619 3.98227 0
M  V30 3149 H 286.332 4.33665 4.30981 0
M  V30 3150 H 290.506 5.30254 4.51446 0
M  V30 3151 H 288.133 5.99482 4.67468 0
M  V30 3152 N 289.708 -1.40897 0.706093 0
M  V30 3153 C 290.956 -2.00657 0.241054 0
M  V30 3154 C 291.277 -1.56241 -1.16678 0
M  V30 3155 O 290.547 -0.79765 -1.78926 0
M  V30 3156 H 289.127 -0.742018 0.0861308 0
M  V30 3157 H 291.789 -1.72372 0.909604 0
M  V30 3158 H 290.885 -3.10958 0.266705 0
M  V30 3159 N 291.186 -0.45159 -1.50991 0
M  V30 3160 C 292.432 0.110237 -2.025 0
M  V30 3161 C 292.765 1.41109 -1.33424 0
M  V30 3162 O 292.04 1.89135 -0.453659 0
M  V30 3163 C 292.323 0.314271 -3.58726 0
M  V30 3164 C 292.176 -1.00623 -4.38401 0
M  V30 3165 C 293.495 1.07767 -4.26702 0
M  V30 3166 H 290.614 0.0385897 -0.735989 0
M  V30 3167 H 293.256 -0.593374 -1.80497 0
M  V30 3168 H 291.406 0.913601 -3.77605 0
M  V30 3169 H 293.078 -1.64064 -4.31139 0
M  V30 3170 H 291.321 -1.6075 -4.02917 0
M  V30 3171 H 291.992 -0.817341 -5.45915 0
M  V30 3172 H 294.468 0.56986 -4.12179 0
M  V30 3173 H 293.344 1.18921 -5.35863 0
M  V30 3174 H 293.605 2.10939 -3.88532 0
M  V30 3175 N 292.664 1.56529 -0.183458 0
M  V30 3176 C 293.911 1.97244 0.458357 0
M  V30 3177 C 294.239 1.06992 1.62428 0
M  V30 3178 O 293.494 0.106542 1.9541 0
M  V30 3179 C 293.793 3.43939 0.971637 0
M  V30 3180 C 293.459 4.5083 -0.0796784 0
M  V30 3181 C 292.121 4.79786 -0.368584 0
M  V30 3182 C 294.473 5.15138 -0.792638 0
M  V30 3183 C 291.801 5.70345 -1.37563 0
M  V30 3184 C 294.153 6.06784 -1.78875 0
M  V30 3185 C 292.817 6.34102 -2.08497 0
M  V30 3186 H 292.087 0.721768 0.167725 0
M  V30 3187 H 294.734 1.89472 -0.277976 0
M  V30 3188 H 293.039 3.48724 1.78602 0
M  V30 3189 H 294.736 3.72791 1.47744 0
M  V30 3190 H 291.326 4.28317 0.155668 0
M  V30 3191 H 295.51 4.92868 -0.582659 0
M  V30 3192 H 290.766 5.89789 -1.61118 0
M  V30 3193 H 294.94 6.55677 -2.3465 0
M  V30 3194 H 292.567 7.04074 -2.86678 0
M  V30 3195 N 294.142 -0.090211 1.57342 0
M  V30 3196 C 295.372 -0.805055 1.90269 0
M  V30 3197 C 295.78 -1.72561 0.775842 0
M  V30 3198 O 295.123 -1.81839 -0.260843 0
M  V30 3199 C 295.185 -1.66734 3.18497 0
M  V30 3200 C 294.849 -0.918092 4.47683 0
M  V30 3201 C 295.846 -0.245674 5.19319 0
M  V30 3202 C 293.531 -0.890724 4.94339 0
M  V30 3203 C 295.525 0.444088 6.35851 0
M  V30 3204 C 293.212 -0.197179 6.10782 0
M  V30 3205 C 294.21 0.469044 6.81388 0
M  V30 3206 O 293.898 1.15146 7.95611 0
M  V30 3207 H 293.63 -0.235143 0.633785 0
M  V30 3208 H 296.184 -0.0703805 2.05279 0
M  V30 3209 H 294.414 -2.44437 2.99646 0
M  V30 3210 H 296.103 -2.25919 3.37217 0
M  V30 3211 H 296.869 -0.258246 4.84312 0
M  V30 3212 H 292.748 -1.39873 4.39268 0
M  V30 3213 H 296.292 0.964667 6.90898 0
M  V30 3214 H 292.189 -0.18247 6.45242 0
M  V30 3215 H 292.957 1.05885 8.11622 0
M  V30 3216 N 295.62 -1.53406 -0.361157 0
M  V30 3217 C 296.866 -1.70054 -1.10496 0
M  V30 3218 C 297.199 -0.453278 -1.88836 0
M  V30 3219 O 296.474 0.5495 -1.86576 0
M  V30 3220 C 296.757 -2.95317 -2.06058 0
M  V30 3221 C 296.61 -4.3021 -1.31298 0
M  V30 3222 C 297.929 -3.16193 -3.06121 0
M  V30 3223 H 295.048 -0.618799 -0.400321 0
M  V30 3224 H 297.69 -1.86052 -0.385318 0
M  V30 3225 H 295.84 -2.81809 -2.67425 0
M  V30 3226 H 297.512 -4.55538 -0.726807 0
M  V30 3227 H 295.755 -4.29421 -0.614853 0
M  V30 3228 H 296.426 -5.14 -2.01265 0
M  V30 3229 H 298.902 -3.28916 -2.5486 0
M  V30 3230 H 297.778 -4.05266 -3.70204 0
M  V30 3231 H 298.039 -2.31676 -3.76535 0
M  V30 3232 N 297.098 0.621204 -1.44841 0
M  V30 3233 C 298.344 1.3826 -1.48365 0
M  V30 3234 C 298.677 1.93831 -0.119624 0
M  V30 3235 O 297.952 1.74251 0.864111 0
M  V30 3236 C 298.235 2.54058 -2.55199 0
M  V30 3237 C 298.088 2.03772 -4.00995 0
M  V30 3238 C 299.407 3.56225 -2.58442 0
M  V30 3239 H 296.526 0.501374 -0.540179 0
M  V30 3240 H 299.168 0.7015 -1.76576 0
M  V30 3241 H 297.318 3.12162 -2.31274 0
M  V30 3242 H 298.99 1.50423 -4.36086 0
M  V30 3243 H 297.233 1.34876 -4.12299 0
M  V30 3244 H 297.904 2.87185 -4.71411 0
M  V30 3245 H 300.38 3.07939 -2.79844 0
M  V30 3246 H 299.256 4.34756 -3.3508 0
M  V30 3247 H 299.517 4.10949 -1.63013 0
M  V30 3248 N 298.576 1.31904 0.862503 0
M  V30 3249 C 299.987 1.19803 1.43193 0
M  V30 3250 C 300.338 -0.192567 1.95253 0
M  V30 3251 O 299.463 -1.09081 1.86896 0
M  V30 3252 C 300.058 2.16883 2.60283 0
M  V30 3253 C 298.617 2.08692 3.13248 0
M  V30 3254 C 297.764 2.05691 1.85975 0
M  V30 3255 H 300.715 1.43846 0.670365 0
M  V30 3256 H 300.736 1.76278 3.37204 0
M  V30 3257 H 300.248 3.18083 2.22363 0
M  V30 3258 H 298.349 1.10713 3.55771 0
M  V30 3259 H 298.462 2.9815 3.75025 0
M  V30 3260 H 296.826 1.50814 2.05249 0
M  V30 3261 H 297.609 3.08659 1.50282 0
M  V30 3262 N 300.054 -1.07777 1.14986 0
M  V30 3263 C 300.987 -2.14228 0.786243 0
M  V30 3264 C 301.965 -1.60888 -0.235347 0
M  V30 3265 O 303.149 -1.88099 -0.122909 0
M  V30 3266 C 300.276 -3.38281 0.168433 0
M  V30 3267 C 299.322 -4.10387 1.16123 0
M  V30 3268 S 300.155 -4.62371 2.70135 0
M  V30 3269 C 301.311 -5.89704 2.09762 0
M  V30 3270 H 301.544 -2.44741 1.68787 0
M  V30 3271 H 299.077 -1.19984 0.971756 0
M  V30 3272 H 301.035 -4.10098 -0.181588 0
M  V30 3273 H 299.696 -3.05953 -0.710725 0
M  V30 3274 H 298.889 -4.99431 0.677086 0
M  V30 3275 H 298.491 -3.44513 1.45556 0
M  V30 3276 H 300.783 -6.61648 1.45701 0
M  V30 3277 H 301.726 -6.42824 2.96955 0
M  V30 3278 H 302.134 -5.4302 1.54239 0
M  V30 3279 N 301.532 -0.945985 -1.26051 0
M  V30 3280 C 302.781 -0.591836 -1.92822 0
M  V30 3281 C 303.094 0.873956 -1.7499 0
M  V30 3282 O 304.3 1.33769 -2.36259 0
M  V30 3283 C 302.756 -1.00776 -3.45503 0
M  V30 3284 C 302.364 -2.4955 -3.7206 0
M  V30 3285 C 304.108 -0.725735 -4.1825 0
M  V30 3286 C 302.015 -2.84988 -5.18205 0
M  V30 3287 H 300.945 -0.217635 -0.721908 0
M  V30 3288 H 303.596 -1.14927 -1.43052 0
M  V30 3289 H 301.978 -0.378812 -3.94184 0
M  V30 3290 H 303.152 -3.1739 -3.34066 0
M  V30 3291 H 301.467 -2.75133 -3.12555 0
M  V30 3292 H 304.064 -0.966771 -5.25887 0
M  V30 3293 H 304.407 0.337639 -4.14929 0
M  V30 3294 H 304.94 -1.31463 -3.7545 0
M  V30 3295 H 301.679 -3.90307 -5.26631 0
M  V30 3296 H 301.199 -2.21813 -5.57278 0
M  V30 3297 H 302.878 -2.73712 -5.86252 0
M  V30 3298 N 303.011 1.40521 -0.713556 0
M  V30 3299 C 303.941 2.33381 -0.0743864 0
M  V30 3300 C 304.922 1.52784 0.747735 0
M  V30 3301 O 306.107 1.81258 0.697071 0
M  V30 3302 C 303.237 3.36748 0.849598 0
M  V30 3303 C 302.191 4.27793 0.133247 0
M  V30 3304 C 301.517 5.21679 1.17281 0
M  V30 3305 C 302.817 5.12415 -1.01134 0
M  V30 3306 H 304.511 2.87081 -0.850007 0
M  V30 3307 H 302.057 1.38034 -0.410201 0
M  V30 3308 H 304.01 4.00648 1.30612 0
M  V30 3309 H 302.734 2.81439 1.65709 0
M  V30 3310 H 301.393 3.65342 -0.303426 0
M  V30 3311 H 301.041 4.62677 1.9733 0
M  V30 3312 H 300.741 5.83435 0.698397 0
M  V30 3313 H 302.265 5.88456 1.62947 0
M  V30 3314 H 303.679 5.69781 -0.634274 0
M  V30 3315 H 302.076 5.83203 -1.41399 0
M  V30 3316 H 303.146 4.48514 -1.84292 0
M  V30 3317 N 304.489 0.459591 1.5075 0
M  V30 3318 C 305.452 -0.329093 2.26825 0
M  V30 3319 C 306.452 -0.930481 1.31144 0
M  V30 3320 O 307.642 -0.801453 1.54669 0
M  V30 3321 C 304.774 -1.46768 3.07688 0
M  V30 3322 H 305.967 0.337924 2.9799 0
M  V30 3323 H 303.52 0.213336 1.54837 0
M  V30 3324 H 304.255 -2.17009 2.40993 0
M  V30 3325 H 304.04 -1.04238 3.77991 0
M  V30 3326 H 305.53 -2.02433 3.65254 0
M  V30 3327 N 305.967 -1.56429 0.191757 0
M  V30 3328 C 307.195 -2.01867 -0.453586 0
M  V30 3329 C 307.61 -1.07191 -1.5542 0
M  V30 3330 O 306.967 -0.0762108 -1.82341 0
M  V30 3331 C 307.018 -3.47017 -1.013 0
M  V30 3332 O 306.739 -4.38078 0.0437005 0
M  V30 3333 C 308.24 -4.07956 -1.73456 0
M  V30 3334 H 305.46 -0.661211 -0.114199 0
M  V30 3335 H 308.004 -2.02295 0.299483 0
M  V30 3336 H 306.159 -3.47298 -1.71647 0
M  V30 3337 H 306.573 -5.23178 -0.372212 0
M  V30 3338 H 308.047 -5.1138 -2.07833 0
M  V30 3339 H 308.524 -3.51222 -2.63704 0
M  V30 3340 H 309.13 -4.11437 -1.07702 0
M  V30 3341 N 307.445 0.0818655 -1.57387 0
M  V30 3342 C 308.691 0.784074 -1.8703 0
M  V30 3343 C 309.024 1.77729 -0.782689 0
M  V30 3344 O 308.299 1.93384 0.208051 0
M  V30 3345 C 308.582 1.50105 -3.27323 0
M  V30 3346 C 308.435 0.524925 -4.46727 0
M  V30 3347 C 309.754 2.44843 -3.65705 0
M  V30 3348 H 306.873 0.283582 -0.680257 0
M  V30 3349 H 309.515 0.0474352 -1.89941 0
M  V30 3350 H 307.665 2.12897 -3.24972 0
M  V30 3351 H 309.337 -0.0970111 -4.61198 0
M  V30 3352 H 307.58 -0.160606 -4.33503 0
M  V30 3353 H 308.251 1.064 -5.41648 0
M  V30 3354 H 310.727 1.92135 -3.69085 0
M  V30 3355 H 309.603 2.92018 -4.64776 0
M  V30 3356 H 309.864 3.29197 -2.95096 0
M  V30 3357 N 308.923 1.53595 0.353017 0
M  V30 3358 C 309.853 1.83902 1.43883 0
M  V30 3359 C 310.834 0.693421 1.55324 0
M  V30 3360 O 312.019 0.944452 1.69687 0
M  V30 3361 C 309.149 2.04016 2.8106 0
M  V30 3362 C 308.103 3.19814 2.84434 0
M  V30 3363 C 307.429 3.25244 4.24406 0
M  V30 3364 C 308.729 4.58133 2.50822 0
M  V30 3365 H 310.423 2.74835 1.1877 0
M  V30 3366 H 307.969 1.32242 0.569917 0
M  V30 3367 H 309.922 2.238 3.57059 0
M  V30 3368 H 308.646 1.09804 3.07588 0
M  V30 3369 H 307.305 2.9987 2.10887 0
M  V30 3370 H 306.953 2.28646 4.48029 0
M  V30 3371 H 306.653 4.03054 4.27576 0
M  V30 3372 H 308.177 3.47228 5.0226 0
M  V30 3373 H 309.591 4.77995 3.16534 0
M  V30 3374 H 307.988 5.38276 2.6529 0
M  V30 3375 H 309.058 4.62387 1.46034 0
M  V30 3376 N 310.401 -0.613514 1.45168 0
M  V30 3377 C 311.631 -1.39743 1.52169 0
M  V30 3378 C 312.039 -1.88596 0.151086 0
M  V30 3379 O 311.382 -1.6251 -0.856521 0
M  V30 3380 C 311.444 -2.64035 2.43979 0
M  V30 3381 C 311.108 -2.36861 3.90827 0
M  V30 3382 C 312.105 -1.97591 4.80889 0
M  V30 3383 C 309.79 -2.49956 4.35692 0
M  V30 3384 C 311.784 -1.71768 6.1382 0
M  V30 3385 C 309.471 -2.23747 5.68665 0
M  V30 3386 C 310.469 -1.84714 6.57548 0
M  V30 3387 O 310.157 -1.58809 7.88058 0
M  V30 3388 H 309.889 -0.434382 0.517966 0
M  V30 3389 H 312.443 -0.75587 1.90986 0
M  V30 3390 H 310.673 -3.3089 2.00122 0
M  V30 3391 H 312.362 -3.26069 2.41731 0
M  V30 3392 H 313.128 -1.87015 4.47493 0
M  V30 3393 H 309.007 -2.79305 3.66756 0
M  V30 3394 H 312.551 -1.41227 6.83155 0
M  V30 3395 H 308.448 -2.33938 6.01617 0
M  V30 3396 H 309.216 -1.7291 8.00028 0
M  V30 3397 N 311.879 -1.3236 -0.855495 0
M  V30 3398 C 313.127 -1.22629 -1.60644 0
M  V30 3399 C 313.448 0.212136 -1.93843 0
M  V30 3400 O 312.718 1.13666 -1.59552 0
M  V30 3401 H 311.298 -0.450882 -0.595579 0
M  V30 3402 H 313.96 -1.65871 -1.02337 0
M  V30 3403 H 313.056 -1.80832 -2.54374 0
M  V30 3404 N 313.357 1.07166 -1.15556 0
M  V30 3405 C 314.604 1.79798 -0.931604 0
M  V30 3406 C 314.932 1.8682 0.54115 0
M  V30 3407 O 314.187 1.34942 1.41736 0
M  V30 3408 C 314.486 3.24707 -1.49332 0
M  V30 3409 C 314.152 3.37781 -2.98688 0
M  V30 3410 C 312.814 3.41057 -3.39461 0
M  V30 3411 C 315.166 3.40424 -3.94665 0
M  V30 3412 C 312.494 3.4458 -4.74849 0
M  V30 3413 C 314.846 3.45485 -5.29927 0
M  V30 3414 C 313.51 3.47039 -5.70193 0
M  V30 3415 H 312.78 0.657928 -0.340898 0
M  V30 3416 H 315.427 1.26091 -1.44129 0
M  V30 3417 H 313.732 3.81208 -0.904859 0
M  V30 3418 H 315.429 3.79486 -1.29582 0
M  V30 3419 H 312.019 3.35932 -2.66172 0
M  V30 3420 H 316.203 3.37113 -3.64237 0
M  V30 3421 H 311.459 3.44083 -5.05388 0
M  V30 3422 H 315.633 3.46476 -6.04092 0
M  V30 3423 H 313.26 3.49522 -6.75084 0
M  V30 3424 N 314.835 0.952656 1.25548 0
M  V30 3425 C 316.084 0.602053 1.92505 0
M  V30 3426 C 316.397 -0.864663 1.75451 0
M  V30 3427 O 317.603 -1.32514 2.36965 0
M  V30 3428 C 316.059 1.02607 3.44963 0
M  V30 3429 C 315.667 2.51519 3.70732 0
M  V30 3430 C 317.411 0.747905 4.1786 0
M  V30 3431 C 315.318 2.87732 5.16686 0
M  V30 3432 H 314.248 0.22146 0.720744 0
M  V30 3433 H 316.899 1.15684 1.42441 0
M  V30 3434 H 315.281 0.399712 3.93978 0
M  V30 3435 H 316.455 3.19157 3.32378 0
M  V30 3436 H 314.77 2.76786 3.11092 0
M  V30 3437 H 317.367 0.994647 5.25367 0
M  V30 3438 H 317.71 -0.315629 4.15102 0
M  V30 3439 H 318.243 1.33452 3.74747 0
M  V30 3440 H 314.982 3.93095 5.24554 0
M  V30 3441 H 314.502 2.24765 5.56094 0
M  V30 3442 H 316.181 2.76817 5.84792 0
M  V30 3443 N 316.313 -1.40141 0.720998 0
M  V30 3444 C 317.276 -2.29058 0.0805834 0
M  V30 3445 C 318.276 -1.45632 -0.681758 0
M  V30 3446 O 319.466 -1.6648 -0.512856 0
M  V30 3447 C 316.598 -3.28925 -0.895593 0
M  V30 3448 H 317.791 -2.87191 0.863793 0
M  V30 3449 H 315.344 -1.48553 0.485975 0
M  V30 3450 H 316.079 -2.75822 -1.70566 0
M  V30 3451 H 315.864 -3.90519 -0.351766 0
M  V30 3452 H 317.354 -3.95494 -1.34069 0
M  V30 3453 N 317.792 -0.46758 -1.50504 0
M  V30 3454 C 319.208 -0.121533 -1.59137 0
M  V30 3455 C 319.408 1.3717 -1.47603 0
M  V30 3456 O 318.464 2.14464 -1.33272 0
M  V30 3457 C 319.777 -0.6686 -2.93173 0
M  V30 3458 C 321.325 -0.631716 -3.06559 0
M  V30 3459 C 321.8 -1.15627 -4.43164 0
M  V30 3460 N 323.291 -1.11553 -4.49567 0
M  V30 3461 C 324.026 -1.49195 -5.5365 0
M  V30 3462 N 323.522 -1.94269 -6.65005 0
M  V30 3463 N 325.315 -1.4082 -5.44175 0
M  V30 3464 H 317.466 -1.4388 -1.56245 0
M  V30 3465 H 319.729 -0.594784 -0.738198 0
M  V30 3466 H 319.435 -1.71453 -3.07078 0
M  V30 3467 H 319.309 -0.11021 -3.77039 0
M  V30 3468 H 321.696 0.405297 -2.92304 0
M  V30 3469 H 321.777 -1.22687 -2.24458 0
M  V30 3470 H 321.421 -2.1919 -4.58168 0
M  V30 3471 H 321.351 -0.537365 -5.23851 0
M  V30 3472 H 323.842 -0.784895 -3.69659 0
M  V30 3473 H 324.155 -2.21148 -7.40482 0
M  V30 3474 H 322.5 -1.98219 -6.66134 0
M  V30 3475 H 325.691 -1.0545 -4.56068 0
M  V30 3476 H 325.864 -1.70481 -6.25172 0
M  V30 3477 N 319.27 1.56325 -0.20005 0
M  V30 3478 C 320.519 1.96895 0.437652 0
M  V30 3479 C 320.832 1.08999 1.62415 0
M  V30 3480 O 322.038 1.39372 2.32997 0
M  V30 3481 C 320.494 3.50198 0.830025 0
M  V30 3482 C 320.102 4.46765 -0.332461 0
M  V30 3483 C 321.846 3.99526 1.43453 0
M  V30 3484 C 319.753 5.91344 0.0811468 0
M  V30 3485 H 318.683 0.735209 0.167282 0
M  V30 3486 H 321.334 1.81148 -0.292853 0
M  V30 3487 H 319.716 3.61467 1.61734 0
M  V30 3488 H 320.89 4.47231 -1.11 0
M  V30 3489 H 319.205 4.07657 -0.848789 0
M  V30 3490 H 321.802 5.05025 1.75652 0
M  V30 3491 H 322.145 3.44122 2.34277 0
M  V30 3492 H 322.678 3.91393 0.71109 0
M  V30 3493 H 319.417 6.50685 -0.793033 0
M  V30 3494 H 318.937 5.94121 0.823445 0
M  V30 3495 H 320.616 6.44945 0.515252 0
M  V30 3496 N 320.748 -0.0735177 1.57428 0
M  V30 3497 C 321.678 -1.0879 2.06608 0
M  V30 3498 C 322.659 -1.40473 0.959237 0
M  V30 3499 O 323.844 -1.5013 1.23185 0
M  V30 3500 C 320.974 -2.40183 2.50857 0
M  V30 3501 C 319.928 -2.22858 3.65402 0
M  V30 3502 C 319.254 -3.59619 3.957 0
M  V30 3503 C 320.554 -1.65123 4.95511 0
M  V30 3504 H 322.248 -0.678673 2.91607 0
M  V30 3505 H 319.794 -0.325013 1.40284 0
M  V30 3506 H 321.747 -3.11437 2.83874 0
M  V30 3507 H 320.471 -2.83083 1.62885 0
M  V30 3508 H 319.13 -1.54045 3.32664 0
M  V30 3509 H 318.778 -4.00086 3.04861 0
M  V30 3510 H 318.478 -3.48866 4.72828 0
M  V30 3511 H 320.002 -4.32306 4.31212 0
M  V30 3512 H 321.416 -2.26241 5.26771 0
M  V30 3513 H 319.813 -1.65071 5.7695 0
M  V30 3514 H 320.883 -0.612559 4.81015 0
M  V30 3515 N 322.226 -1.5378 -0.344866 0
M  V30 3516 C 323.473 -1.70963 -1.08526 0
M  V30 3517 C 323.801 -0.472126 -1.88683 0
M  V30 3518 O 323.056 0.546116 -1.87926 0
M  V30 3519 C 323.355 -2.92407 -2.05506 0
M  V30 3520 C 323.021 -4.28066 -1.41671 0
M  V30 3521 C 321.683 -4.64951 -1.2399 0
M  V30 3522 C 324.035 -5.12344 -0.956726 0
M  V30 3523 C 321.363 -5.83733 -0.589277 0
M  V30 3524 C 323.715 -6.3179 -0.320015 0
M  V30 3525 C 322.379 -6.67372 -0.130881 0
M  V30 3526 H 321.649 -0.625598 -0.397124 0
M  V30 3527 H 324.296 -1.87995 -0.36469 0
M  V30 3528 H 322.601 -2.69973 -2.8394 0
M  V30 3529 H 324.298 -3.02895 -2.62784 0
M  V30 3530 H 320.888 -3.99034 -1.56429 0
M  V30 3531 H 325.072 -4.8438 -1.08118 0
M  V30 3532 H 320.328 -6.09877 -0.431344 0
M  V30 3533 H 324.502 -6.96386 0.0445072 0
M  V30 3534 H 322.129 -7.59273 0.375318 0
M  V30 3535 N 323.704 0.605807 -1.45491 0
M  V30 3536 C 324.634 1.72709 -1.57143 0
M  V30 3537 C 325.615 1.6476 -0.422884 0
M  V30 3538 O 326.8 1.83132 -0.646247 0
M  V30 3539 C 323.93 3.11316 -1.53948 0
M  V30 3540 C 322.884 3.34077 -2.67537 0
M  V30 3541 C 322.21 4.72975 -2.49397 0
M  V30 3542 C 323.51 3.24158 -4.09535 0
M  V30 3543 H 325.204 1.63214 -2.51001 0
M  V30 3544 H 322.75 0.78379 -1.208 0
M  V30 3545 H 324.703 3.89557 -1.60696 0
M  V30 3546 H 323.427 3.21655 -0.566205 0
M  V30 3547 H 322.086 2.58227 -2.6022 0
M  V30 3548 H 321.734 4.8005 -1.50205 0
M  V30 3549 H 321.434 4.8916 -3.25571 0
M  V30 3550 H 322.958 5.53414 -2.58002 0
M  V30 3551 H 324.372 3.92271 -4.18086 0
M  V30 3552 H 322.769 3.51872 -4.86113 0
M  V30 3553 H 323.839 2.2157 -4.31317 0
M  V30 3554 N 325.182 1.32811 0.848464 0
M  V30 3555 C 326.13 1.22231 1.97895 0
M  V30 3556 C 327.124 0.125749 1.68933 0
M  V30 3557 O 328.33 0.289083 1.77663 0
M  V30 3558 H 324.705 0.379058 0.649476 0
M  V30 3559 H 326.676 2.17828 2.03945 0
M  V30 3560 C 325.425 0.968572 3.33937 0
M  V30 3561 H 324.748 1.80458 3.56756 0
M  V30 3562 H 326.188 0.934808 4.13567 0
M  V30 3563 C 324.647 -0.328628 3.35293 0
M  V30 3564 O 325.177 -1.33848 3.78745 0
M  V30 3565 N 323.383 -0.352788 2.88451 0
M  V30 3566 H 322.93 0.469541 2.53285 0
M  V30 3567 H 322.888 -1.22057 2.89741 0
M  V30 3568 N 326.66 -1.06551 1.16123 0
M  V30 3569 C 328.071 -1.60768 0.949232 0
M  V30 3570 C 328.422 -1.89523 -0.507508 0
M  V30 3571 O 327.547 -1.66671 -1.38021 0
M  V30 3572 C 328.142 -2.92086 1.71671 0
M  V30 3573 C 326.701 -3.43015 1.54977 0
M  V30 3574 C 325.848 -2.16947 1.72711 0
M  V30 3575 H 328.799 -0.895354 1.31031 0
M  V30 3576 H 328.82 -3.6138 1.19099 0
M  V30 3577 H 328.332 -2.71127 2.7769 0
M  V30 3578 H 326.433 -3.69039 0.513873 0
M  V30 3579 H 326.546 -4.18516 2.33198 0
M  V30 3580 H 324.91 -2.27041 1.15431 0
M  V30 3581 H 325.693 -1.98473 2.80113 0
M  V30 3582 N 328.138 -0.959301 -1.25041 0
M  V30 3583 C 329.387 -0.612254 -1.92183 0
M  V30 3584 C 329.7 0.855347 -1.75907 0
M  V30 3585 O 330.906 1.31256 -2.37664 0
M  V30 3586 C 329.362 -1.04435 -3.44414 0
M  V30 3587 C 328.97 -2.53482 -3.69393 0
M  V30 3588 C 330.714 -0.770055 -4.17457 0
M  V30 3589 C 328.621 -2.90468 -5.15153 0
M  V30 3590 H 327.551 -0.225279 -0.719559 0
M  V30 3591 H 330.202 -1.16438 -1.41825 0
M  V30 3592 H 328.584 -0.4206 -3.9376 0
M  V30 3593 H 329.758 -3.20916 -3.30681 0
M  V30 3594 H 328.073 -2.78432 -3.0962 0
M  V30 3595 H 330.67 -1.02249 -5.24832 0
M  V30 3596 H 331.013 0.293611 -4.15263 0
M  V30 3597 H 331.546 -1.35437 -3.74034 0
M  V30 3598 H 328.285 -3.95871 -5.22462 0
M  V30 3599 H 327.805 -2.27711 -5.54894 0
M  V30 3600 H 329.484 -2.79914 -5.83315 0
M  V30 3601 N 329.616 1.39756 -0.72842 0
M  V30 3602 C 331.027 1.83498 -0.344289 0
M  V30 3603 C 331.378 1.60868 1.12321 0
M  V30 3604 O 330.503 1.09634 1.86573 0
M  V30 3605 C 331.098 3.33114 -0.618112 0
M  V30 3606 C 329.657 3.753 -0.287549 0
M  V30 3607 C 328.804 2.62831 -0.884048 0
M  V30 3608 H 331.755 1.28842 -0.926578 0
M  V30 3609 H 331.776 3.80334 0.112349 0
M  V30 3610 H 331.288 3.49553 -1.68625 0
M  V30 3611 H 329.389 3.64451 0.775012 0
M  V30 3612 H 329.502 4.72945 -0.765512 0
M  V30 3613 H 327.866 2.52792 -0.311149 0
M  V30 3614 H 328.649 2.82078 -1.95671 0
M  V30 3615 N 331.094 0.475555 1.50254 0
M  V30 3616 C 332.319 -0.0777042 2.07254 0
M  V30 3617 C 332.744 -1.3235 1.3366 0
M  V30 3618 O 332.102 -1.77152 0.385597 0
M  V30 3619 C 332.15 -0.340169 3.58992 0
M  V30 3620 O 331.254 -1.41982 3.87188 0
M  V30 3621 H 330.595 0.0149556 0.663832 0
M  V30 3622 H 333.125 0.667878 1.93392 0
M  V30 3623 H 333.135 -0.579332 4.03866 0
M  V30 3624 H 331.81 0.570167 4.11973 0
M  V30 3625 H 330.387 -1.16762 3.54148 0
M  V30 3626 N 332.573 -1.56217 0.208337 0
M  V30 3627 C 333.85 -1.89739 -0.475234 0
M  V30 3628 C 334.23 -1.1238 -1.78701 0
M  V30 3629 O 333.578 -0.228979 -2.2735 0
M  V30 3630 C 333.788 -3.42289 -0.681101 0
M  V30 3631 C 335.136 -4.12789 -0.994507 0
M  V30 3632 O 336.16 -3.47814 -0.768357 0
M  V30 3633 O 335.019 -5.27649 -1.42299 0
M  V30 3634 H 332.113 -0.788478 -0.249461 0
M  V30 3635 H 334.659 -1.67855 0.249538 0
M  V30 3636 H 333.431 -3.90534 0.244722 0
M  V30 3637 H 333.054 -3.69909 -1.45785 0
M  V30 3638 N 334.051 0.0651679 -1.57465 0
M  V30 3639 C 335.462 0.616213 -1.76238 0
M  V30 3640 C 335.813 1.7756 -0.834689 0
M  V30 3641 O 334.938 2.1639 -0.0204156 0
M  V30 3642 C 335.533 1.12462 -3.1959 0
M  V30 3643 C 334.092 1.62147 -3.39684 0
M  V30 3644 C 333.239 0.543739 -2.71917 0
M  V30 3645 H 336.19 -0.161022 -1.57881 0
M  V30 3646 H 336.211 1.99324 -3.24114 0
M  V30 3647 H 335.723 0.280592 -3.87084 0
M  V30 3648 H 333.824 2.48854 -2.77313 0
M  V30 3649 H 333.937 1.69385 -4.48158 0
M  V30 3650 H 332.301 0.990352 -2.34657 0
M  V30 3651 H 333.084 -0.290216 -3.42071 0
M  V30 3652 N 335.529 1.53961 0.336706 0
M  V30 3653 C 336.476 1.82428 1.41381 0
M  V30 3654 C 337.446 0.670444 1.51968 0
M  V30 3655 O 338.631 0.915565 1.67398 0
M  V30 3656 C 335.771 2.04564 2.77934 0
M  V30 3657 C 334.884 3.32267 2.76084 0
M  V30 3658 C 334.019 3.44434 4.04399 0
M  V30 3659 C 333.058 4.66061 3.96804 0
M  V30 3660 N 332.195 4.75224 5.16823 0
M  V30 3661 H 337.035 2.74324 1.16405 0
M  V30 3662 H 334.572 1.35869 0.563752 0
M  V30 3663 H 336.53 2.15388 3.57301 0
M  V30 3664 H 335.16 1.15974 3.01247 0
M  V30 3665 H 334.212 3.3025 1.88784 0
M  V30 3666 H 335.524 4.21733 2.66351 0
M  V30 3667 H 334.678 3.54728 4.92192 0
M  V30 3668 H 333.417 2.53037 4.16921 0
M  V30 3669 H 332.422 4.55838 3.07396 0
M  V30 3670 H 333.647 5.58829 3.85858 0
M  V30 3671 H 331.593 3.86739 5.29876 0
M  V30 3672 H 331.51 5.58636 5.09374 0
M  V30 3673 H 332.778 4.89835 6.06367 0
M  V30 3674 N 337.007 -0.598083 1.45811 0
M  V30 3675 C 337.917 -1.73632 1.57763 0
M  V30 3676 C 338.933 -1.67763 0.461676 0
M  V30 3677 O 340.109 -1.87949 0.723685 0
M  V30 3678 C 337.174 -3.10114 1.55018 0
M  V30 3679 C 336.235 -3.27364 2.77726 0
M  V30 3680 C 335.468 -4.57334 2.75102 0
M  V30 3681 O 335.691 -5.40258 1.8297 0
M  V30 3682 O 334.625 -4.77502 3.66437 0
M  V30 3683 H 338.451 -1.66498 2.53992 0
M  V30 3684 H 336.036 -0.763308 1.28429 0
M  V30 3685 H 337.918 -3.9141 1.56129 0
M  V30 3686 H 336.593 -3.17718 0.619431 0
M  V30 3687 H 335.5 -2.45619 2.82174 0
M  V30 3688 H 336.833 -3.24641 3.69958 0
M  V30 3689 N 338.485 -1.33259 -0.841409 0
M  V30 3690 C 339.433 -1.23279 -1.97244 0
M  V30 3691 C 340.427 -0.134706 -1.68864 0
M  V30 3692 O 341.633 -0.298501 -1.77508 0
M  V30 3693 H 338.008 -0.382497 -0.647457 0
M  V30 3694 H 339.979 -2.18906 -2.02787 0
M  V30 3695 C 338.728 -0.986268 -3.33419 0
M  V30 3696 H 338.051 -1.82347 -3.55794 0
M  V30 3697 H 339.491 -0.956728 -4.13065 0
M  V30 3698 C 337.95 0.310842 -3.35463 0
M  V30 3699 O 338.48 1.31838 -3.79449 0
M  V30 3700 N 336.686 0.337485 -2.88634 0
M  V30 3701 H 336.233 -0.482967 -2.53032 0
M  V30 3702 H 336.191 1.20518 -2.90384 0
M  V30 3703 N 339.963 1.05934 -1.16686 0
M  V30 3704 C 341.188 1.83029 -0.975455 0
M  V30 3705 C 341.613 1.82096 0.471452 0
M  V30 3706 O 340.971 1.22443 1.33706 0
M  V30 3707 C 341.019 3.27372 -1.51195 0
M  V30 3708 O 340.123 4.06054 -0.720701 0
M  V30 3709 H 339.464 0.566194 -0.346872 0
M  V30 3710 H 341.994 1.33541 -1.55009 0
M  V30 3711 H 342.004 3.78186 -1.53099 0
M  V30 3712 H 340.679 3.27366 -2.56523 0
M  V30 3713 H 339.256 3.64812 -0.772458 0
M  V30 3714 N 341.441 0.965919 1.2453 0
M  V30 3715 C 342.388 0.49402 2.25451 0
M  V30 3716 C 343.358 -0.45948 1.59618 0
M  V30 3717 O 344.543 -0.370238 1.87173 0
M  V30 3718 C 341.683 -0.211359 3.44452 0
M  V30 3719 C 340.796 0.7807 4.24887 0
M  V30 3720 C 339.931 0.0516105 5.31175 0
M  V30 3721 C 338.97 1.03385 6.03306 0
M  V30 3722 N 338.107 0.334887 7.01301 0
M  V30 3723 H 342.947 1.35946 2.65184 0
M  V30 3724 H 340.484 0.681515 1.3036 0
M  V30 3725 H 342.442 -0.637 4.12308 0
M  V30 3726 H 341.072 -1.04077 3.05562 0
M  V30 3727 H 340.124 1.32479 3.56586 0
M  V30 3728 H 341.436 1.52978 4.74762 0
M  V30 3729 H 340.59 -0.432114 6.05159 0
M  V30 3730 H 339.329 -0.730179 4.82203 0
M  V30 3731 H 338.334 1.52847 5.28127 0
M  V30 3732 H 339.559 1.81606 6.54367 0
M  V30 3733 H 337.505 -0.427959 6.54603 0
M  V30 3734 H 337.422 1.02287 7.49048 0
M  V30 3735 H 338.69 -0.126928 7.79397 0
M  V30 3736 N 342.919 -1.39368 0.735821 0
M  V30 3737 C 344.147 -2.04795 0.294393 0
M  V30 3738 C 344.562 -1.55478 -1.07107 0
M  V30 3739 O 343.919 -0.720038 -1.67695 0
M  V30 3740 C 343.97 -3.6035 0.288071 0
M  V30 3741 O 343.691 -4.07852 1.59963 0
M  V30 3742 C 345.192 -4.42976 -0.169422 0
M  V30 3743 H 342.412 -0.658571 0.128551 0
M  V30 3744 H 344.956 -1.78399 0.999701 0
M  V30 3745 H 343.111 -3.85645 -0.368355 0
M  V30 3746 H 343.525 -5.02181 1.51375 0
M  V30 3747 H 344.999 -5.51864 -0.122687 0
M  V30 3748 H 345.476 -4.22068 -1.21472 0
M  V30 3749 H 346.082 -4.22832 0.457469 0
M  V30 3750 N 344.397 -0.483516 -1.5 0
M  V30 3751 C 345.643 0.0593261 -2.03313 0
M  V30 3752 C 345.998 1.36288 -1.35806 0
M  V30 3753 O 345.291 1.85519 -0.478897 0
M  V30 3754 C 345.485 0.286226 -3.56252 0
M  V30 3755 C 345.314 -0.993788 -4.38582 0
M  V30 3756 C 344.084 -1.54064 -4.81241 0
M  V30 3757 C 346.282 -1.89249 -4.78215 0
M  V30 3758 N 344.264 -2.76838 -5.47936 0
M  V30 3759 C 345.635 -2.96606 -5.44449 0
M  V30 3760 C 347.69 -1.90138 -4.60165 0
M  V30 3761 C 346.393 -4.04857 -5.94544 0
M  V30 3762 C 348.419 -2.97353 -5.1121 0
M  V30 3763 C 347.781 -4.03429 -5.77429 0
M  V30 3764 H 343.88 -0.0186322 -0.781778 0
M  V30 3765 H 346.464 -0.654489 -1.8337 0
M  V30 3766 H 344.635 0.969086 -3.76116 0
M  V30 3767 H 346.367 0.824515 -3.96212 0
M  V30 3768 H 343.122 -1.08813 -4.6093 0
M  V30 3769 H 343.546 -3.39221 -5.85882 0
M  V30 3770 H 348.188 -1.09441 -4.0839 0
M  V30 3771 H 345.906 -4.86363 -6.4535 0
M  V30 3772 H 349.492 -2.99039 -4.99066 0
M  V30 3773 H 348.372 -4.85025 -6.16214 0
M  V30 3774 N 345.875 1.56104 -0.216619 0
M  V30 3775 C 346.822 2.2007 0.695531 0
M  V30 3776 C 347.792 1.15471 1.19397 0
M  V30 3777 O 348.977 1.43807 1.25396 0
M  V30 3778 C 346.117 2.88073 1.90021 0
M  V30 3779 C 345.23 4.07253 1.44113 0
M  V30 3780 C 344.365 4.63052 2.603 0
M  V30 3781 C 343.404 5.74545 2.11103 0
M  V30 3782 N 342.541 6.24656 3.20545 0
M  V30 3783 H 347.381 2.97655 0.143327 0
M  V30 3784 H 344.918 1.46982 0.0589934 0
M  V30 3785 H 346.876 3.25681 2.60745 0
M  V30 3786 H 345.506 2.13015 2.42538 0
M  V30 3787 H 344.558 3.75164 0.628999 0
M  V30 3788 H 345.87 4.8783 1.04036 0
M  V30 3789 H 345.024 5.03078 3.39113 0
M  V30 3790 H 343.763 3.81628 3.03663 0
M  V30 3791 H 342.768 5.34027 1.3075 0
M  V30 3792 H 343.993 6.57801 1.68746 0
M  V30 3793 H 341.939 5.46148 3.63399 0
M  V30 3794 H 341.856 7.00343 2.84704 0
M  V30 3795 H 343.124 6.69338 3.99508 0
M  V30 3796 N 347.353 -0.0568162 1.57498 0
M  V30 3797 C 348.301 -1.08452 2.05769 0
M  V30 3798 C 349.295 -1.39164 0.965903 0
M  V30 3799 O 350.501 -1.38395 1.15095 0
M  V30 3800 H 346.876 -0.367148 0.656282 0
M  V30 3801 H 348.847 -0.651368 2.91204 0
M  V30 3802 C 347.596 -2.38543 2.52968 0
M  V30 3803 H 346.919 -2.15765 3.36579 0
M  V30 3804 H 348.359 -3.08863 2.90481 0
M  V30 3805 C 346.818 -3.05562 1.41893 0
M  V30 3806 O 347.348 -3.94262 0.769442 0
M  V30 3807 N 345.554 -2.6643 1.16032 0
M  V30 3808 H 345.101 -1.94387 1.6903 0
M  V30 3809 H 345.059 -3.11593 0.419219 0
M  V30 3810 N 348.832 -1.54138 -0.328536 0
M  V30 3811 C 350.109 -1.62749 -1.08499 0
M  V30 3812 C 350.489 -0.458198 -2.06067 0
M  V30 3813 O 349.837 0.548046 -2.2183 0
M  V30 3814 C 350.047 -2.99519 -1.79135 0
M  V30 3815 C 351.395 -3.55394 -2.32337 0
M  V30 3816 O 352.419 -3.01792 -1.89209 0
M  V30 3817 O 351.278 -4.49186 -3.11279 0
M  V30 3818 H 348.372 -0.65886 -0.499832 0
M  V30 3819 H 350.918 -1.66484 -0.328826 0
M  V30 3820 H 349.69 -3.76061 -1.08139 0
M  V30 3821 H 349.313 -2.99441 -2.61574 0
M  V30 3822 N 350.31 0.590341 -1.46126 0
M  V30 3823 C 351.535 1.37991 -1.54833 0
M  V30 3824 C 351.96 1.87163 -0.187506 0
M  V30 3825 O 351.318 1.61133 0.831008 0
M  V30 3826 C 351.366 2.54867 -2.55098 0
M  V30 3827 O 350.47 3.56061 -2.08073 0
M  V30 3828 H 349.811 0.411265 -0.521303 0
M  V30 3829 H 352.341 0.716819 -1.91632 0
M  V30 3830 H 352.351 3.01886 -2.74461 0
M  V30 3831 H 351.026 2.18429 -3.53923 0
M  V30 3832 H 349.603 3.15574 -1.98664 0
M  V30 3833 N 351.788 1.33704 0.83433 0
M  V30 3834 C 353.016 1.28467 1.62185 0
M  V30 3835 C 353.431 -0.143526 1.88254 0
M  V30 3836 O 352.788 -1.08709 1.4659 0
M  V30 3837 C 352.839 2.06174 2.96942 0
M  V30 3838 O 352.56 3.43422 2.72016 0
M  V30 3839 C 354.061 2.08201 3.91366 0
M  V30 3840 H 351.281 0.4424 0.504503 0
M  V30 3841 H 353.825 1.76145 1.03891 0
M  V30 3842 H 351.98 1.62167 3.51825 0
M  V30 3843 H 352.394 3.83453 3.57861 0
M  V30 3844 H 353.868 2.67017 4.83121 0
M  V30 3845 H 354.345 1.07343 4.2588 0
M  V30 3846 H 354.951 2.52246 3.42421 0
M  V30 3847 N 353.266 -1.05314 1.17247 0
M  V30 3848 C 354.216 -2.11313 0.856196 0
M  V30 3849 C 355.2 -1.60013 -0.168694 0
M  V30 3850 O 356.392 -1.76968 0.0335624 0
M  V30 3851 C 353.521 -3.41301 0.369917 0
M  V30 3852 C 352.607 -3.99401 1.42616 0
M  V30 3853 N 352.998 -4.31481 2.63928 0
M  V30 3854 C 351.296 -4.27126 1.28373 0
M  V30 3855 C 351.997 -4.77799 3.31787 0
M  V30 3856 N 350.973 -4.77843 2.59166 0
M  V30 3857 H 354.775 -2.33976 1.77856 0
M  V30 3858 H 352.289 -1.2295 1.06099 0
M  V30 3859 H 354.286 -4.16713 0.124897 0
M  V30 3860 H 352.946 -3.20072 -0.546253 0
M  V30 3861 H 353.957 -4.21519 3.00902 0
M  V30 3862 H 350.634 -4.15289 0.429111 0
M  V30 3863 H 352.024 -5.11743 4.35395 0
M  V30 3864 N 354.744 -0.972509 -1.24016 0
M  V30 3865 C 355.676 -0.464375 -2.24446 0
M  V30 3866 C 356.689 0.4295 -1.57032 0
M  V30 3867 O 357.878 0.234902 -1.76948 0
M  V30 3868 C 354.978 0.348385 -3.37105 0
M  V30 3869 C 354.151 -0.53673 -4.34094 0
M  V30 3870 C 353.21 0.220838 -5.25736 0
M  V30 3871 O 352.236 -0.386867 -5.67884 0
M  V30 3872 N 353.438 1.50907 -5.60542 0
M  V30 3873 H 356.203 -1.32788 -2.68677 0
M  V30 3874 H 353.764 -0.844877 -1.38107 0
M  V30 3875 H 355.756 0.863341 -3.95384 0
M  V30 3876 H 354.326 1.11285 -2.92121 0
M  V30 3877 H 353.546 -1.23261 -3.74433 0
M  V30 3878 H 354.834 -1.14022 -4.95859 0
M  V30 3879 H 354.232 2.02444 -5.28236 0
M  V30 3880 H 352.789 1.96962 -6.21329 0
M  V30 3881 N 356.222 1.38976 -0.743202 0
M  V30 3882 C 357.17 2.32394 -0.0978389 0
M  V30 3883 C 358.164 1.53486 0.716824 0
M  V30 3884 O 359.37 1.69092 0.617088 0
M  V30 3885 H 355.745 0.75189 -0.0128402 0
M  V30 3886 H 357.716 2.84441 -0.901981 0
M  V30 3887 C 356.465 3.38629 0.789036 0
M  V30 3888 H 355.788 3.99432 0.171559 0
M  V30 3889 H 357.228 4.06426 1.20807 0
M  V30 3890 C 355.687 2.76347 1.92702 0
M  V30 3891 O 356.217 2.64836 3.02034 0
M  V30 3892 N 354.423 2.34311 1.71891 0
M  V30 3893 H 353.97 2.43873 0.829675 0
M  V30 3894 H 353.928 1.9298 2.48205 0
M  V30 3895 N 357.7 0.491464 1.49741 0
M  V30 3896 C 358.928 -0.0535151 2.06831 0
M  V30 3897 C 359.343 -1.31683 1.35296 0
M  V30 3898 O 358.7 -1.77402 0.42836 0
M  V30 3899 C 358.751 -0.320835 3.60073 0
M  V30 3900 O 358.472 0.892394 4.28915 0
M  V30 3901 C 359.973 -0.910519 4.33848 0
M  V30 3902 H 357.193 0.0161909 0.670805 0
M  V30 3903 H 359.737 0.68609 1.92647 0
M  V30 3904 H 357.892 -1.0104 3.73991 0
M  V30 3905 H 358.306 0.649401 5.20464 0
M  V30 3906 H 359.78 -1.04721 5.41976 0
M  V30 3907 H 360.257 -1.90589 3.95692 0
M  V30 3908 H 360.863 -0.258712 4.24512 0
M  V30 3909 N 359.178 -1.55987 0.224894 0
M  V30 3910 C 360.126 -2.21808 -0.700283 0
M  V30 3911 C 361.12 -1.19854 -1.19714 0
M  V30 3912 O 362.326 -1.37925 -1.15658 0
M  V30 3913 H 358.701 -0.711226 -0.244258 0
M  V30 3914 H 360.672 -2.98152 -0.121749 0
M  V30 3915 C 359.421 -2.91444 -1.8962 0
M  V30 3916 H 358.744 -3.69655 -1.52299 0
M  V30 3917 H 360.184 -3.40894 -2.52125 0
M  V30 3918 C 358.643 -1.94098 -2.75368 0
M  V30 3919 O 359.173 -1.46004 -3.74227 0
M  V30 3920 N 357.379 -1.61675 -2.41474 0
M  V30 3921 H 356.926 -2.00979 -1.61137 0
M  V30 3922 H 356.884 -0.968036 -2.99126 0
M  V30 3923 N 360.656 0.0484629 -1.57525 0
M  V30 3924 C 361.586 1.0549 -2.08313 0
M  V30 3925 C 362.567 1.38929 -0.981463 0
M  V30 3926 O 363.752 1.48151 -1.25558 0
M  V30 3927 C 360.882 2.36162 -2.54646 0
M  V30 3928 C 359.836 2.17016 -3.68901 0
M  V30 3929 C 359.162 3.53278 -4.01371 0
M  V30 3930 C 360.462 1.57219 -4.98076 0
M  V30 3931 H 362.156 0.632195 -2.92649 0
M  V30 3932 H 359.702 0.302654 -1.40784 0
M  V30 3933 H 361.655 3.06882 -2.88793 0
M  V30 3934 H 360.379 2.80456 -1.67368 0
M  V30 3935 H 359.038 1.48733 -3.35073 0
M  V30 3936 H 358.686 3.95185 -3.11188 0
M  V30 3937 H 358.386 3.41299 -4.78318 0
M  V30 3938 H 359.91 4.25391 -4.38035 0
M  V30 3939 H 361.324 2.17832 -5.30304 0
M  V30 3940 H 359.721 1.55871 -5.79503 0
M  V30 3941 H 360.791 0.535956 -4.81929 0
M  V30 3942 N 362.134 1.5431 0.320358 0
M  V30 3943 C 363.082 1.84647 1.4145 0
M  V30 3944 C 364.076 0.718624 1.53402 0
M  V30 3945 O 365.282 0.902335 1.5575 0
M  V30 3946 H 361.657 0.585349 0.472091 0
M  V30 3947 H 363.628 2.7614 1.13089 0
M  V30 3948 C 362.377 2.09341 2.77617 0
M  V30 3949 H 361.7 2.9559 2.69196 0
M  V30 3950 H 363.14 2.3452 3.53237 0
M  V30 3951 C 361.599 0.885939 3.25043 0
M  V30 3952 O 362.129 0.0967891 4.01583 0
M  V30 3953 N 360.335 0.696682 2.82125 0
M  V30 3954 H 359.882 1.34006 2.2 0
M  V30 3955 H 359.84 -0.109712 3.14209 0
M  V30 3956 N 363.613 -0.582584 1.46437 0
M  V30 3957 C 364.859 -1.34278 1.51978 0
M  V30 3958 C 365.192 -1.93446 0.170973 0
M  V30 3959 O 364.467 -1.76481 -0.817608 0
M  V30 3960 C 364.75 -2.47203 2.61845 0
M  V30 3961 C 364.603 -1.93069 4.06257 0
M  V30 3962 C 365.922 -3.49247 2.67795 0
M  V30 3963 H 363.041 -0.486876 0.553282 0
M  V30 3964 H 365.683 -0.654437 1.78374 0
M  V30 3965 H 363.833 -3.0592 2.39469 0
M  V30 3966 H 365.505 -1.38808 4.3992 0
M  V30 3967 H 363.748 -1.23898 4.1573 0
M  V30 3968 H 364.419 -2.74586 4.7886 0
M  V30 3969 H 366.895 -3.00411 2.8791 0
M  V30 3970 H 365.771 -4.25719 3.46489 0
M  V30 3971 H 366.032 -4.06482 1.73852 0
M  V30 3972 N 365.091 -1.34144 -0.827227 0
M  V30 3973 C 366.039 -1.25364 -1.95925 0
M  V30 3974 C 367.033 -0.152608 -1.68711 0
M  V30 3975 O 368.239 -0.317311 -1.77181 0
M  V30 3976 H 364.614 -0.389342 -0.643364 0
M  V30 3977 H 366.585 -2.21045 -2.00454 0
M  V30 3978 C 365.334 -1.02158 -3.32354 0
M  V30 3979 H 364.657 -1.86111 -3.5384 0
M  V30 3980 H 366.097 -1.00048 -4.12027 0
M  V30 3981 C 364.556 0.275244 -3.35774 0
M  V30 3982 O 365.086 1.27806 -3.80826 0
M  V30 3983 N 363.292 0.306853 -2.88975 0
M  V30 3984 H 362.839 -0.509777 -2.52506 0
M  V30 3985 H 362.797 1.17432 -2.91646 0
M  V30 3986 N 366.569 1.04691 -1.17803 0
M  V30 3987 C 367.797 1.81446 -0.99423 0
M  V30 3988 C 368.212 1.83174 0.457459 0
M  V30 3989 O 367.569 1.26265 1.31771 0
M  V30 3990 C 367.62 3.27334 -1.5341 0
M  V30 3991 O 367.341 3.25798 -2.92895 0
M  V30 3992 C 368.842 4.20759 -1.39559 0
M  V30 3993 H 366.062 0.571599 -0.351447 0
M  V30 3994 H 368.606 1.31982 -1.56208 0
M  V30 3995 H 366.761 3.74052 -1.00815 0
M  V30 3996 H 367.175 4.17144 -3.17949 0
M  V30 3997 H 368.649 5.21084 -1.82141 0
M  V30 3998 H 369.126 4.37856 -0.343394 0
M  V30 3999 H 369.732 3.79901 -1.91195 0
M  V30 4000 N 368.047 0.979072 1.23499 0
M  V30 4001 C 369.272 0.664845 1.96455 0
M  V30 4002 C 369.697 -0.761287 1.72006 0
M  V30 4003 O 369.055 -1.51837 0.990713 0
M  V30 4004 C 369.103 0.959479 3.47601 0
M  V30 4005 O 368.207 0.0508168 4.12369 0
M  V30 4006 H 367.548 0.250185 0.615064 0
M  V30 4007 H 370.078 1.31231 1.5697 0
M  V30 4008 H 370.088 0.895642 3.98048 0
M  V30 4009 H 368.763 1.99876 3.64723 0
M  V30 4010 H 367.34 0.16895 3.72517 0
M  V30 4011 N 369.525 -1.3858 0.750561 0
M  V30 4012 C 370.473 -2.32339 0.110162 0
M  V30 4013 C 371.467 -1.53864 -0.708674 0
M  V30 4014 O 372.673 -1.69417 -0.608112 0
M  V30 4015 H 369.048 -0.751812 0.0168275 0
M  V30 4016 H 371.019 -2.83959 0.917053 0
M  V30 4017 C 369.768 -3.39043 -0.771067 0
M  V30 4018 H 369.091 -3.99517 -0.150374 0
M  V30 4019 H 370.531 -4.07061 -1.1865 0
M  V30 4020 C 368.99 -2.77365 -1.91234 0
M  V30 4021 O 369.52 -2.66434 -3.00626 0
M  V30 4022 N 367.726 -2.35219 -1.70646 0
M  V30 4023 H 367.273 -2.4431 -0.81673 0
M  V30 4024 H 367.231 -1.94294 -2.47178 0
M  V30 4025 N 371.003 -0.499398 -1.49478 0
M  V30 4026 C 372.419 -0.155261 -1.58843 0
M  V30 4027 C 372.619 1.34008 -1.50479 0
M  V30 4028 O 371.675 2.11589 -1.37791 0
M  V30 4029 C 372.988 -0.730636 -2.91689 0
M  V30 4030 C 374.536 -0.696599 -3.0515 0
M  V30 4031 C 375.011 -1.25001 -4.40612 0
M  V30 4032 N 376.502 -1.21064 -4.47099 0
M  V30 4033 C 377.237 -1.60905 -5.50361 0
M  V30 4034 N 376.733 -2.08331 -6.60735 0
M  V30 4035 N 378.526 -1.52331 -5.41065 0
M  V30 4036 H 370.677 -1.47162 -1.53158 0
M  V30 4037 H 372.94 -0.610309 -0.725415 0
M  V30 4038 H 372.646 -1.77928 -3.03372 0
M  V30 4039 H 372.52 -0.190161 -3.7672 0
M  V30 4040 H 374.907 0.343204 -2.93097 0
M  V30 4041 H 374.988 -1.2742 -2.21806 0
M  V30 4042 H 374.632 -2.28859 -4.53416 0
M  V30 4043 H 374.562 -0.64836 -5.22593 0
M  V30 4044 H 377.053 -0.863128 -3.67911 0
M  V30 4045 H 377.366 -2.36805 -7.35624 0
M  V30 4046 H 375.711 -2.12304 -6.6178 0
M  V30 4047 H 378.902 -1.151 -4.53729 0
M  V30 4048 H 379.075 -1.83704 -6.21415 0
M  V30 4049 N 372.481 1.55866 -0.233164 0
M  V30 4050 C 373.721 2.00506 0.397078 0
M  V30 4051 C 374.085 1.1176 1.56121 0
M  V30 4052 O 375.286 1.45796 2.25825 0
M  V30 4053 C 373.557 3.4811 0.809601 0
M  V30 4054 S 375.116 4.14765 1.43231 0
M  V30 4055 H 371.934 0.699828 0.125547 0
M  V30 4056 H 374.536 1.92429 -0.345177 0
M  V30 4057 H 373.24 4.10373 -0.0471601 0
M  V30 4058 H 372.771 3.60085 1.58438 0
M  V30 4059 H 374.786 4.14914 2.7214 0
M  V30 4060 N 373.959 -0.0401083 1.57549 0
M  V30 4061 C 375.206 -0.733125 1.88763 0
M  V30 4062 C 375.534 -1.75946 0.829058 0
M  V30 4063 O 374.789 -1.94949 -0.171323 0
M  V30 4064 C 375.088 -1.44902 3.26708 0
M  V30 4065 C 374.754 -0.559707 4.47413 0
M  V30 4066 C 373.416 -0.314731 4.8017 0
M  V30 4067 C 375.768 0.0549743 5.21171 0
M  V30 4068 C 373.096 0.553886 5.8408 0
M  V30 4069 C 375.448 0.911229 6.26003 0
M  V30 4070 C 374.112 1.16577 6.57241 0
M  V30 4071 H 373.382 -0.268269 0.690733 0
M  V30 4072 H 376.029 0.00679408 1.91499 0
M  V30 4073 H 374.334 -2.26197 3.1991 0
M  V30 4074 H 376.031 -1.99058 3.48105 0
M  V30 4075 H 372.621 -0.760793 4.21794 0
M  V30 4076 H 376.805 -0.121344 4.96152 0
M  V30 4077 H 372.061 0.759518 6.06664 0
M  V30 4078 H 376.235 1.3941 6.82303 0
M  V30 4079 H 373.862 1.84058 7.37582 0
M  V30 4080 N 375.437 -1.54477 -0.31217 0
M  V30 4081 C 376.385 -1.85395 -1.40469 0
M  V30 4082 C 377.379 -0.726749 -1.53019 0
M  V30 4083 O 378.585 -0.910582 -1.55269 0
M  V30 4084 H 374.96 -0.587845 -0.46898 0
M  V30 4085 H 376.931 -2.76736 -1.11623 0
M  V30 4086 C 375.68 -2.10811 -2.76503 0
M  V30 4087 H 375.003 -2.97014 -2.67625 0
M  V30 4088 H 376.443 -2.3639 -3.51988 0
M  V30 4089 C 374.902 -0.903165 -3.24568 0
M  V30 4090 O 375.432 -0.118085 -4.01526 0
M  V30 4091 N 373.638 -0.711634 -2.81752 0
M  V30 4092 H 373.185 -1.35171 -2.19286 0
M  V30 4093 H 373.143 0.0930473 -3.14262 0
M  V30 4094 N 376.915 0.57481 -1.46744 0
M  V30 4095 C 378.14 1.36341 -1.56288 0
M  V30 4096 C 378.565 1.86954 -0.207347 0
M  V30 4097 O 377.923 1.62006 0.813871 0
M  V30 4098 C 377.971 2.52147 -2.57787 0
M  V30 4099 O 377.075 3.53834 -2.11838 0
M  V30 4100 H 376.416 0.405713 -0.525636 0
M  V30 4101 H 378.946 0.696453 -1.92382 0
M  V30 4102 H 378.956 2.98958 -2.77648 0
M  V30 4103 H 377.631 2.14663 -3.5622 0
M  V30 4104 H 376.208 3.1345 -2.01999 0
M  V30 4105 N 378.394 1.34581 0.820102 0
M  V30 4106 C 379.622 1.3018 1.60813 0
M  V30 4107 C 380.037 -0.123551 1.88395 0
M  V30 4108 O 379.394 -1.07148 1.47735 0
M  V30 4109 C 379.445 2.09312 2.94739 0
M  V30 4110 O 379.166 3.46288 2.68358 0
M  V30 4111 C 380.667 2.1234 3.89136 0
M  V30 4112 H 377.887 0.447726 0.499782 0
M  V30 4113 H 380.431 1.77237 1.02017 0
M  V30 4114 H 378.586 1.65889 3.50085 0
M  V30 4115 H 379 3.87227 3.53774 0
M  V30 4116 H 380.474 2.72126 4.80262 0
M  V30 4117 H 380.951 1.11854 4.24718 0
M  V30 4118 H 381.557 2.55864 3.39726 0
M  V30 4119 N 379.872 -1.04064 1.18357 0
M  V30 4120 C 381.118 -1.77528 0.980397 0
M  V30 4121 C 381.451 -1.87948 -0.48879 0
M  V30 4122 O 380.726 -1.3876 -1.36293 0
M  V30 4123 C 381.009 -3.20797 1.63588 0
M  V30 4124 C 380.862 -3.1832 3.17793 0
M  V30 4125 C 382.181 -4.18911 1.34914 0
M  V30 4126 H 379.3 -0.644443 0.357578 0
M  V30 4127 H 381.942 -1.2156 1.46024 0
M  V30 4128 H 380.092 -3.68586 1.22788 0
M  V30 4129 H 381.764 -2.78521 3.67728 0
M  V30 4130 H 380.007 -2.56351 3.49952 0
M  V30 4131 H 380.678 -4.19489 3.58794 0
M  V30 4132 H 383.154 -3.7967 1.70265 0
M  V30 4133 H 382.03 -5.17374 1.83346 0
M  V30 4134 H 382.291 -4.41262 0.272027 0
M  V30 4135 N 381.35 -0.985608 -1.22978 0
M  V30 4136 C 382.575 -0.675254 -1.961 0
M  V30 4137 C 383 0.752154 -1.72407 0
M  V30 4138 O 382.358 1.5131 -0.998751 0
M  V30 4139 C 382.406 -0.977899 -3.47087 0
M  V30 4140 O 381.51 -0.072685 -4.12336 0
M  V30 4141 H 380.851 -0.253443 -0.613728 0
M  V30 4142 H 383.381 -1.32061 -1.56272 0
M  V30 4143 H 383.391 -0.916739 -3.97567 0
M  V30 4144 H 382.066 -2.01807 -3.63657 0
M  V30 4145 H 380.643 -0.188703 -3.72422 0
M  V30 4146 N 382.828 1.3818 -0.7579 0
M  V30 4147 C 384.053 2.04827 -0.325679 0
M  V30 4148 C 384.478 1.56788 1.03919 0
M  V30 4149 O 383.836 0.721811 1.66312 0
M  V30 4150 C 383.884 3.58774 -0.362447 0
M  V30 4151 O 382.988 4.07372 0.642033 0
M  V30 4152 H 382.329 0.64833 -0.143402 0
M  V30 4153 H 384.859 1.7677 -1.03023 0
M  V30 4154 H 384.869 4.07434 -0.214844 0
M  V30 4155 H 383.544 3.93096 -1.35824 0
M  V30 4156 H 382.121 3.70068 0.458688 0
M  V30 4157 N 384.306 0.507319 1.49211 0
M  V30 4158 C 385.722 0.163682 1.58758 0
M  V30 4159 C 385.922 -1.33208 1.51188 0
M  V30 4160 O 384.978 -2.10855 1.38911 0
M  V30 4161 C 386.291 0.746095 2.91297 0
M  V30 4162 C 387.839 0.712773 3.04776 0
M  V30 4163 C 388.314 1.27336 4.39943 0
M  V30 4164 N 389.805 1.23433 4.46451 0
M  V30 4165 C 390.54 1.63821 5.495 0
M  V30 4166 N 390.036 2.11832 6.5962 0
M  V30 4167 N 391.829 1.55198 5.4025 0
M  V30 4168 H 383.98 1.47972 1.52375 0
M  V30 4169 H 386.243 0.614147 0.722168 0
M  V30 4170 H 385.949 1.79534 3.02424 0
M  V30 4171 H 385.823 0.210137 3.76614 0
M  V30 4172 H 388.21 -0.327656 2.93275 0
M  V30 4173 H 388.291 1.28595 2.21127 0
M  V30 4174 H 387.935 2.3126 4.52196 0
M  V30 4175 H 387.865 0.676066 5.22242 0
M  V30 4176 H 390.356 0.882627 3.67448 0
M  V30 4177 H 390.669 2.40703 7.34358 0
M  V30 4178 H 389.014 2.1581 6.60644 0
M  V30 4179 H 392.205 1.17505 4.53112 0
M  V30 4180 H 392.378 1.86997 6.20432 0
M  V30 4181 N 385.784 -1.5574 0.241426 0
M  V30 4182 C 386.731 -2.21149 -0.660432 0
M  V30 4183 C 387.701 -1.17356 -1.17545 0
M  V30 4184 O 388.886 -1.45784 -1.23093 0
M  V30 4185 C 386.026 -2.91059 -1.85414 0
M  V30 4186 C 385.139 -4.09495 -1.37616 0
M  V30 4187 C 384.274 -4.67135 -2.529 0
M  V30 4188 C 383.313 -5.77831 -2.01936 0
M  V30 4189 N 382.45 -6.29677 -3.10566 0
M  V30 4190 H 387.29 -2.97845 -0.095955 0
M  V30 4191 H 384.827 -1.47057 -0.0356024 0
M  V30 4192 H 386.785 -3.29788 -2.5553 0
M  V30 4193 H 385.415 -2.16846 -2.39118 0
M  V30 4194 H 384.467 -3.76117 -0.569235 0
M  V30 4195 H 385.779 -4.89423 -0.962618 0
M  V30 4196 H 384.933 -5.08409 -3.31067 0
M  V30 4197 H 383.672 -3.86411 -2.97553 0
M  V30 4198 H 382.677 -5.36039 -1.22238 0
M  V30 4199 H 383.902 -6.60402 -1.58259 0
M  V30 4200 H 381.848 -5.5186 -3.54664 0
M  V30 4201 H 381.765 -7.04783 -2.73526 0
M  V30 4202 H 383.033 -6.75609 -3.88809 0
M  V30 4203 N 387.262 0.0317525 -1.57568 0
M  V30 4204 C 388.194 1.06073 -2.03178 0
M  V30 4205 C 389.207 1.32627 -0.944132 0
M  V30 4206 O 390.396 1.30162 -1.22148 0
M  V30 4207 C 387.496 2.40297 -2.38978 0
M  V30 4208 C 386.669 2.33137 -3.70089 0
M  V30 4209 C 385.728 3.49787 -3.9311 0
M  V30 4210 O 384.754 3.29403 -4.64201 0
M  V30 4211 N 385.956 4.71562 -3.38541 0
M  V30 4212 H 388.721 0.672006 -2.92069 0
M  V30 4213 H 386.282 0.219745 -1.60402 0
M  V30 4214 H 388.274 3.1705 -2.51518 0
M  V30 4215 H 386.844 2.71024 -1.55771 0
M  V30 4216 H 386.064 1.415 -3.67928 0
M  V30 4217 H 387.352 2.25493 -4.56104 0
M  V30 4218 H 386.75 4.91024 -2.80912 0
M  V30 4219 H 385.307 5.45689 -3.56464 0
M  V30 4220 N 388.74 1.54641 0.303973 0
M  V30 4221 C 389.986 1.74038 1.04109 0
M  V30 4222 C 390.319 0.523051 1.87024 0
M  V30 4223 O 389.594 -0.479874 1.88487 0
M  V30 4224 C 389.877 3.02761 1.94955 0
M  V30 4225 C 389.73 4.34787 1.1524 0
M  V30 4226 C 391.049 3.27336 2.94175 0
M  V30 4227 H 388.168 0.63323 0.377079 0
M  V30 4228 H 390.81 1.87354 0.316001 0
M  V30 4229 H 388.96 2.9154 2.56782 0
M  V30 4230 H 390.632 4.57922 0.557236 0
M  V30 4231 H 388.875 4.31407 0.455053 0
M  V30 4232 H 389.546 5.21116 1.8205 0
M  V30 4233 H 392.022 3.38148 2.42477 0
M  V30 4234 H 390.898 4.18726 3.54908 0
M  V30 4235 H 391.159 2.45491 3.67677 0
M  V30 4236 N 390.218 -0.567019 1.47046 0
M  V30 4237 C 391.446 -1.35027 1.56765 0
M  V30 4238 C 391.861 -1.8758 0.214316 0
M  V30 4239 O 391.218 -1.64471 -0.790919 0
M  V30 4240 C 391.269 -2.52698 2.58507 0
M  V30 4241 O 390.99 -2.0232 3.88585 0
M  V30 4242 C 392.491 -3.45043 2.78316 0
M  V30 4243 H 389.711 -0.41195 0.529658 0
M  V30 4244 H 392.255 -0.687832 1.92585 0
M  V30 4245 H 390.41 -3.149 2.25648 0
M  V30 4246 H 390.824 -2.79068 4.44096 0
M  V30 4247 H 392.298 -4.2405 3.53391 0
M  V30 4248 H 392.775 -3.97971 1.85784 0
M  V30 4249 H 393.381 -2.88665 3.12334 0
M  V30 4250 N 391.696 -1.35014 -0.812953 0
M  V30 4251 C 392.643 -1.27412 -1.92444 0
M  V30 4252 C 393.613 -0.14733 -1.65445 0
M  V30 4253 O 394.798 -0.329974 -1.87925 0
M  V30 4254 C 391.938 -1.04558 -3.28879 0
M  V30 4255 C 391.051 -2.26101 -3.68106 0
M  V30 4256 C 390.186 -1.96449 -4.9354 0
M  V30 4257 C 389.225 -3.14081 -5.25376 0
M  V30 4258 N 388.362 -2.84246 -6.41988 0
M  V30 4259 H 393.202 -2.22463 -1.98278 0
M  V30 4260 H 390.739 -1.10593 -0.969933 0
M  V30 4261 H 392.697 -0.893413 -4.07522 0
M  V30 4262 H 391.327 -0.131719 -3.22531 0
M  V30 4263 H 390.379 -2.52204 -2.84775 0
M  V30 4264 H 391.691 -3.13959 -3.87597 0
M  V30 4265 H 390.845 -1.78026 -5.79993 0
M  V30 4266 H 389.584 -1.05867 -4.76071 0
M  V30 4267 H 388.589 -3.33089 -4.37415 0
M  V30 4268 H 389.814 -4.05455 -5.44778 0
M  V30 4269 H 387.76 -1.96252 -6.25956 0
M  V30 4270 H 387.677 -3.65637 -6.61699 0
M  V30 4271 H 388.945 -2.6935 -7.31485 0
M  V30 4272 N 393.175 1.03435 -1.18907 0
M  V30 4273 C 394.108 2.11162 -0.86521 0
M  V30 4274 C 395.086 1.6165 0.175473 0
M  V30 4275 O 396.27 1.88425 0.0530129 0
M  V30 4276 C 393.397 3.37423 -0.293868 0
M  V30 4277 C 392.443 4.05795 -1.31274 0
M  V30 4278 S 393.276 4.52027 -2.8711 0
M  V30 4279 C 394.432 5.81513 -2.31504 0
M  V30 4280 H 394.665 2.38308 -1.77754 0
M  V30 4281 H 392.198 1.16295 -1.01562 0
M  V30 4282 H 394.156 4.1049 0.0292572 0
M  V30 4283 H 392.817 3.0838 0.596682 0
M  V30 4284 H 392.01 4.96574 -0.86198 0
M  V30 4285 H 391.612 3.38874 -1.58242 0
M  V30 4286 H 393.904 6.55784 -1.70157 0
M  V30 4287 H 394.847 6.3136 -3.20608 0
M  V30 4288 H 395.255 5.36921 -1.74286 0
M  V30 4289 N 394.653 0.992116 1.22453 0
M  V30 4290 C 395.583 0.561677 2.26644 0
M  V30 4291 C 396.564 -0.411055 1.65059 0
M  V30 4292 O 397.749 -0.301861 1.9184 0
M  V30 4293 C 394.879 -0.125247 3.47074 0
M  V30 4294 C 393.833 0.765948 4.21091 0
M  V30 4295 C 393.159 -0.0538484 5.34673 0
M  V30 4296 C 394.459 2.06242 4.79856 0
M  V30 4297 H 396.153 1.43259 2.62902 0
M  V30 4298 H 393.699 0.690283 1.26377 0
M  V30 4299 H 395.652 -0.437764 4.1912 0
M  V30 4300 H 394.376 -1.03069 3.0991 0
M  V30 4301 H 393.035 1.0621 3.50878 0
M  V30 4302 H 392.683 -0.960188 4.9375 0
M  V30 4303 H 392.383 0.539415 5.85119 0
M  V30 4304 H 393.907 -0.360477 6.09535 0
M  V30 4305 H 395.321 1.8139 5.43848 0
M  V30 4306 H 393.718 2.60444 5.40638 0
M  V30 4307 H 394.788 2.74167 3.99951 0
M  V30 4308 N 396.131 -1.37776 0.765217 0
M  V30 4309 C 397.094 -2.28686 0.153416 0
M  V30 4310 C 398.094 -1.47727 -0.635081 0
M  V30 4311 O 399.284 -1.68027 -0.459632 0
M  V30 4312 C 396.416 -3.31608 -0.790495 0
M  V30 4313 H 397.609 -2.84297 0.954723 0
M  V30 4314 H 395.162 -1.46932 0.53299 0
M  V30 4315 H 395.897 -2.81109 -1.61705 0
M  V30 4316 H 395.682 -3.9144 -0.227348 0
M  V30 4317 H 397.172 -3.99559 -1.21419 0
M  V30 4318 N 397.609 -0.515225 -1.4894 0
M  V30 4319 C 398.855 0.0242508 -2.02785 0
M  V30 4320 C 399.188 1.35323 -1.39289 0
M  V30 4321 O 398.463 1.87041 -0.533469 0
M  V30 4322 C 398.746 0.16184 -3.59736 0
M  V30 4323 C 398.599 -1.19127 -4.33738 0
M  V30 4324 C 399.918 0.895719 -4.30888 0
M  V30 4325 H 397.037 0.00733914 -0.736963 0
M  V30 4326 H 399.679 -0.669395 -1.77818 0
M  V30 4327 H 397.829 0.752624 -3.8114 0
M  V30 4328 H 399.501 -1.82202 -4.23792 0
M  V30 4329 H 397.744 -1.77695 -3.95736 0
M  V30 4330 H 398.415 -1.04815 -5.41957 0
M  V30 4331 H 400.891 0.394528 -4.14225 0
M  V30 4332 H 399.767 0.960859 -5.40425 0
M  V30 4333 H 400.028 1.9427 -3.97129 0
M  V30 4334 N 399.087 1.5561 -0.249682 0
M  V30 4335 C 400.333 1.99306 0.374841 0
M  V30 4336 C 400.666 1.13767 1.57387 0
M  V30 4337 O 399.941 0.201711 1.93451 0
M  V30 4338 C 400.224 3.51507 0.781986 0
M  V30 4339 C 400.077 4.4781 -0.422629 0
M  V30 4340 C 401.396 4.08884 1.62793 0
M  V30 4341 H 398.515 0.724572 0.134773 0
M  V30 4342 H 401.157 1.86719 -0.351549 0
M  V30 4343 H 399.307 3.62363 1.4009 0
M  V30 4344 H 400.979 4.48931 -1.06108 0
M  V30 4345 H 399.222 4.20518 -1.06524 0
M  V30 4346 H 399.893 5.51919 -0.0943766 0
M  V30 4347 H 402.369 4.01147 1.10547 0
M  V30 4348 H 401.245 5.1564 1.88166 0
M  V30 4349 H 401.506 3.57515 2.60068 0
M  V30 4350 N 400.565 -0.0233959 1.57583 0
M  V30 4351 C 401.811 -0.714119 1.89811 0
M  V30 4352 C 402.144 -1.74702 0.848113 0
M  V30 4353 O 401.419 -1.94023 -0.136135 0
M  V30 4354 C 401.702 -1.37853 3.32669 0
M  V30 4355 C 401.555 -0.358764 4.48367 0
M  V30 4356 C 402.874 -2.31101 3.7454 0
M  V30 4357 H 399.993 -0.25814 0.690314 0
M  V30 4358 H 402.635 0.0230927 1.89986 0
M  V30 4359 H 400.785 -2.00689 3.3265 0
M  V30 4360 H 402.457 0.268115 4.6052 0
M  V30 4361 H 400.7 0.321387 4.32608 0
M  V30 4362 H 401.371 -0.862242 5.45224 0
M  V30 4363 H 403.847 -1.78304 3.75961 0
M  V30 4364 H 402.723 -2.74567 4.75294 0
M  V30 4365 H 402.984 -3.18018 3.0711 0
M  V30 4366 N 402.043 -1.548 -0.295768 0
M  V30 4367 C 403.292 -1.73538 -1.02798 0
M  V30 4368 C 403.605 -0.531159 -1.8825 0
M  V30 4369 O 404.811 -0.600458 -2.64777 0
M  V30 4370 C 403.267 -3.07051 -1.87744 0
M  V30 4371 C 402.875 -4.34968 -1.07269 0
M  V30 4372 C 404.619 -3.35146 -2.60533 0
M  V30 4373 C 402.526 -5.5953 -1.91521 0
M  V30 4374 H 401.456 -0.646794 -0.387522 0
M  V30 4375 H 404.107 -1.81278 -0.284718 0
M  V30 4376 H 402.489 -2.93289 -2.66078 0
M  V30 4377 H 403.663 -4.5958 -0.335117 0
M  V30 4378 H 401.978 -4.13847 -0.460384 0
M  V30 4379 H 404.575 -4.2541 -3.23929 0
M  V30 4380 H 404.918 -2.54255 -3.29636 0
M  V30 4381 H 405.451 -3.49902 -1.89244 0
M  V30 4382 H 402.19 -6.43103 -1.26878 0
M  V30 4383 H 401.71 -5.39096 -2.62937 0
M  V30 4384 H 403.389 -5.96982 -2.49442 0
M  V30 4385 N 403.521 0.559213 -1.47345 0
M  V30 4386 C 404.451 1.67622 -1.62558 0
M  V30 4387 C 405.432 1.63331 -0.475087 0
M  V30 4388 O 406.617 1.80983 -0.704182 0
M  V30 4389 C 403.747 3.0626 -1.63774 0
M  V30 4390 C 402.701 3.25397 -2.7803 0
M  V30 4391 C 402.027 4.64801 -2.64318 0
M  V30 4392 C 403.327 3.10965 -4.19641 0
M  V30 4393 H 405.021 1.55146 -2.56067 0
M  V30 4394 H 402.567 0.744961 -1.23233 0
M  V30 4395 H 404.52 3.84247 -1.73008 0
M  V30 4396 H 403.244 3.1969 -0.66825 0
M  V30 4397 H 401.903 2.49817 -2.68304 0
M  V30 4398 H 401.551 4.75028 -1.65401 0
M  V30 4399 H 401.251 4.78555 -3.40968 0
M  V30 4400 H 402.775 5.44926 -2.75478 0
M  V30 4401 H 404.189 3.78772 -4.30354 0
M  V30 4402 H 402.586 3.36229 -4.97062 0
M  V30 4403 H 403.656 2.07736 -4.38148 0
M  V30 4404 N 404.999 1.35443 0.805782 0
M  V30 4405 C 406.246 1.28761 1.56291 0
M  V30 4406 C 406.574 -0.137747 1.94012 0
M  V30 4407 O 405.829 -1.1032 1.61642 0
M  V30 4408 C 406.128 2.14045 2.86216 0
M  V30 4409 C 405.794 3.62826 2.67709 0
M  V30 4410 C 404.456 4.0338 2.6237 0
M  V30 4411 C 406.808 4.57227 2.50186 0
M  V30 4412 C 404.136 5.36501 2.37451 0
M  V30 4413 C 406.488 5.90547 2.26797 0
M  V30 4414 C 405.152 6.30245 2.1988 0
M  V30 4415 H 404.422 0.471171 0.571908 0
M  V30 4416 H 407.069 1.67347 0.930974 0
M  V30 4417 H 405.374 1.68342 3.53791 0
M  V30 4418 H 407.071 2.0621 3.43917 0
M  V30 4419 H 403.661 3.30644 2.72713 0
M  V30 4420 H 407.845 4.2678 2.53323 0
M  V30 4421 H 403.101 5.66259 2.30567 0
M  V30 4422 H 407.275 6.63274 2.12228 0
M  V30 4423 H 404.902 7.33328 2.00333 0
M  V30 4424 N 406.477 -1.02803 1.19454 0
M  V30 4425 C 407.44 -2.09264 0.934955 0
M  V30 4426 C 408.44 -1.60576 -0.0849015 0
M  V30 4427 O 409.63 -1.73554 0.149933 0
M  V30 4428 C 406.762 -3.38482 0.40531 0
M  V30 4429 H 407.955 -2.33726 1.87916 0
M  V30 4430 H 405.508 -1.19426 1.00832 0
M  V30 4431 H 406.243 -3.19689 -0.544899 0
M  V30 4432 H 406.028 -3.75142 1.14065 0
M  V30 4433 H 407.518 -4.16894 0.242806 0
M  V30 4434 N 407.956 -0.998596 -1.21925 0
M  V30 4435 C 408.886 -0.573688 -2.26343 0
M  V30 4436 C 409.867 0.402296 -1.65274 0
M  V30 4437 O 411.052 0.291683 -1.91997 0
M  V30 4438 C 408.182 0.106839 -3.47136 0
M  V30 4439 C 407.136 -0.788269 -4.20678 0
M  V30 4440 C 406.462 0.0254927 -5.34694 0
M  V30 4441 C 407.762 -2.08784 -4.78755 0
M  V30 4442 H 409.456 -1.44651 -2.62138 0
M  V30 4443 H 407.002 -0.696975 -1.26009 0
M  V30 4444 H 408.955 0.415531 -4.19346 0
M  V30 4445 H 407.679 1.01424 -3.10452 0
M  V30 4446 H 406.338 -1.08069 -3.50309 0
M  V30 4447 H 405.986 0.933989 -4.94253 0
M  V30 4448 H 405.686 -0.570437 -5.84825 0
M  V30 4449 H 407.21 0.328147 -6.09718 0
M  V30 4450 H 408.624 -1.84272 -5.42878 0
M  V30 4451 H 407.021 -2.63307 -5.39249 0
M  V30 4452 H 408.091 -2.76284 -3.98491 0
M  V30 4453 N 409.434 1.37368 -0.772513 0
M  V30 4454 C 410.364 2.32856 -0.173304 0
M  V30 4455 C 411.345 1.55818 0.682262 0
M  V30 4456 O 412.53 1.84052 0.619566 0
M  V30 4457 C 409.66 3.40048 0.706007 0
M  V30 4458 C 408.614 4.27973 -0.0483144 0
M  V30 4459 C 407.94 5.26184 0.950491 0
M  V30 4460 C 409.24 5.07665 -1.22776 0
M  V30 4461 H 410.934 2.83217 -0.971002 0
M  V30 4462 H 408.48 1.3617 -0.468377 0
M  V30 4463 H 410.433 4.05827 1.13501 0
M  V30 4464 H 409.157 2.88214 1.53623 0
M  V30 4465 H 407.816 3.63726 -0.458107 0
M  V30 4466 H 407.464 4.7063 1.77529 0
M  V30 4467 H 407.164 5.85872 0.450314 0
M  V30 4468 H 408.688 5.94838 1.37842 0
M  V30 4469 H 410.102 5.66578 -0.875366 0
M  V30 4470 H 408.499 5.76681 -1.66007 0
M  V30 4471 H 409.569 4.40294 -2.03149 0
M  V30 4472 N 410.912 0.523116 1.48665 0
M  V30 4473 C 412.158 -0.00540031 2.03399 0
M  V30 4474 C 412.513 -1.3264 1.39372 0
M  V30 4475 O 411.806 -1.84184 0.527916 0
M  V30 4476 C 412 -0.191671 3.56886 0
M  V30 4477 C 411.829 1.10972 4.35793 0
M  V30 4478 C 410.599 1.66769 4.76987 0
M  V30 4479 C 412.797 2.01861 4.73029 0
M  V30 4480 N 410.779 2.91268 5.40404 0
M  V30 4481 C 412.15 3.10937 5.36394 0
M  V30 4482 C 414.205 2.02271 4.54962 0
M  V30 4483 C 412.908 4.20478 5.83601 0
M  V30 4484 C 414.934 3.10802 5.03146 0
M  V30 4485 C 414.296 4.18597 5.6653 0
M  V30 4486 H 410.395 0.0393531 0.781009 0
M  V30 4487 H 412.979 0.702876 1.8157 0
M  V30 4488 H 411.15 -0.869025 3.78553 0
M  V30 4489 H 412.882 -0.719177 3.98259 0
M  V30 4490 H 409.637 1.20996 4.57883 0
M  V30 4491 H 410.061 3.54635 5.76683 0
M  V30 4492 H 414.703 1.2023 4.05345 0
M  V30 4493 H 412.421 5.03303 6.32228 0
M  V30 4494 H 416.007 3.12166 4.90962 0
M  V30 4495 H 414.887 5.01193 6.03138 0
M  V30 4496 N 412.39 -1.55475 0.257931 0
M  V30 4497 C 413.323 -2.179 -0.677862 0
M  V30 4498 C 414.301 -1.13448 -1.16483 0
M  V30 4499 O 415.485 -1.41889 -1.24095 0
M  V30 4500 C 412.612 -2.78851 -1.92249 0
M  V30 4501 C 411.658 -3.96454 -1.57246 0
M  V30 4502 S 412.491 -5.31349 -0.665501 0
M  V30 4503 C 413.647 -5.9576 -1.91889 0
M  V30 4504 H 413.88 -2.96934 -0.147396 0
M  V30 4505 H 411.413 -1.54342 0.0423023 0
M  V30 4506 H 413.371 -3.14602 -2.63697 0
M  V30 4507 H 412.032 -1.99742 -2.42409 0
M  V30 4508 H 411.225 -4.37731 -2.49814 0
M  V30 4509 H 410.827 -3.62038 -0.938325 0
M  V30 4510 H 413.119 -6.13947 -2.86487 0
M  V30 4511 H 414.062 -6.9094 -1.54942 0
M  V30 4512 H 414.47 -5.2494 -2.076 0
M  V30 4513 N 413.868 0.0150385 -1.57593 0
M  V30 4514 C 415.279 0.559832 -1.78109 0
M  V30 4515 C 415.63 1.74814 -0.890756 0
M  V30 4516 O 414.755 2.16216 -0.0892482 0
M  V30 4517 C 415.35 1.02238 -3.23006 0
M  V30 4518 C 413.909 1.51258 -3.44671 0
M  V30 4519 C 413.056 0.456955 -2.73509 0
M  V30 4520 H 416.007 -0.211169 -1.57289 0
M  V30 4521 H 416.028 1.88912 -3.30292 0
M  V30 4522 H 415.54 0.157302 -3.87781 0
M  V30 4523 H 413.641 2.39905 -2.8509 0
M  V30 4524 H 413.754 1.55042 -4.5332 0
M  V30 4525 H 412.118 0.915196 -2.37689 0
M  V30 4526 H 412.901 -0.398896 -3.40975 0
M  V30 4527 N 415.346 1.54954 0.287554 0
M  V30 4528 C 416.576 1.78622 1.03816 0
M  V30 4529 C 416.984 0.552451 1.80955 0
M  V30 4530 O 416.327 -0.487665 1.77109 0
M  V30 4531 C 416.389 2.94975 2.055 0
M  V30 4532 C 416.053 4.32565 1.47433 0
M  V30 4533 C 417.05 5.12096 0.897436 0
M  V30 4534 C 414.735 4.79195 1.50591 0
M  V30 4535 C 416.729 6.36383 0.359851 0
M  V30 4536 C 414.416 6.03441 0.964459 0
M  V30 4537 C 415.414 6.81872 0.392413 0
M  V30 4538 O 415.102 8.03777 -0.140788 0
M  V30 4539 H 414.834 0.599144 0.313053 0
M  V30 4540 H 417.388 2.02761 0.328225 0
M  V30 4541 H 415.618 2.66493 2.80211 0
M  V30 4542 H 417.307 3.06097 2.6657 0
M  V30 4543 H 418.073 4.77209 0.865841 0
M  V30 4544 H 413.952 4.18167 1.94055 0
M  V30 4545 H 417.496 6.97545 -0.0872951 0
M  V30 4546 H 413.393 6.37813 0.993246 0
M  V30 4547 H 414.161 8.18495 -0.0287617 0
M  V30 4548 N 416.824 -0.551391 1.4764 0
M  V30 4549 C 418.24 -0.877887 1.33287 0
M  V30 4550 C 418.44 -1.98817 0.327721 0
M  V30 4551 O 417.496 -2.51171 -0.258695 0
M  V30 4552 C 418.809 -1.26563 2.72768 0
M  V30 4553 C 420.357 -1.37673 2.81097 0
M  V30 4554 C 420.832 -1.79799 4.21232 0
M  V30 4555 N 422.323 -1.8694 4.23802 0
M  V30 4556 C 423.058 -2.20876 5.29151 0
M  V30 4557 N 422.554 -2.53386 6.448 0
M  V30 4558 N 424.347 -2.217 5.16532 0
M  V30 4559 H 416.498 0.18153 2.11623 0
M  V30 4560 H 418.761 0.0185514 0.947818 0
M  V30 4561 H 418.467 -0.523591 3.47781 0
M  V30 4562 H 418.341 -2.22052 3.04915 0
M  V30 4563 H 420.728 -2.10956 2.06353 0
M  V30 4564 H 420.809 -0.40357 2.52596 0
M  V30 4565 H 420.453 -1.07083 4.96483 0
M  V30 4566 H 420.383 -2.78128 4.4716 0
M  V30 4567 H 422.874 -1.64179 3.40373 0
M  V30 4568 H 423.187 -2.78325 7.20941 0
M  V30 4569 H 421.532 -2.50953 6.48111 0
M  V30 4570 H 424.723 -1.95745 4.25207 0
M  V30 4571 H 424.896 -2.47818 5.98741 0
M  V30 4572 N 418.302 -1.35869 -0.798587 0
M  V30 4573 C 419.53 -1.32722 -1.58722 0
M  V30 4574 C 419.945 0.0935631 -1.88568 0
M  V30 4575 O 419.302 1.04784 -1.49421 0
M  V30 4576 C 419.353 -2.13974 -2.91371 0
M  V30 4577 O 419.074 -3.50514 -2.62815 0
M  V30 4578 C 420.575 -2.18504 -3.85708 0
M  V30 4579 H 417.795 -0.45562 -0.492596 0
M  V30 4580 H 420.339 -1.78837 -0.991843 0
M  V30 4581 H 418.494 -1.71438 -3.47402 0
M  V30 4582 H 418.908 -3.92806 -3.47568 0
M  V30 4583 H 420.382 -2.79732 -4.75872 0
M  V30 4584 H 420.859 -1.18597 -4.22885 0
M  V30 4585 H 421.465 -2.61236 -3.35612 0
M  V30 4586 N 419.78 1.02168 -1.19998 0
M  V30 4587 C 420.71 2.12488 -0.96804 0
M  V30 4588 C 421.691 1.69799 0.101185 0
M  V30 4589 O 422.876 1.94121 -0.0552993 0
M  V30 4590 C 420.006 3.43479 -0.513776 0
M  V30 4591 C 418.96 3.99884 -1.52566 0
M  V30 4592 C 418.286 5.26582 -0.928214 0
M  V30 4593 C 419.586 4.33861 -2.90795 0
M  V30 4594 H 421.28 2.32149 -1.89069 0
M  V30 4595 H 418.826 1.11564 -0.910468 0
M  V30 4596 H 420.779 4.20036 -0.338774 0
M  V30 4597 H 419.503 3.23561 0.444493 0
M  V30 4598 H 418.162 3.25429 -1.68794 0
M  V30 4599 H 417.81 5.02986 0.0378289 0
M  V30 4600 H 417.51 5.65284 -1.60397 0
M  V30 4601 H 419.034 6.05799 -0.764167 0
M  V30 4602 H 420.448 5.01327 -2.78109 0
M  V30 4603 H 418.845 4.83664 -3.55231 0
M  V30 4604 H 419.915 3.42848 -3.42904 0
M  V30 4605 N 421.258 1.00505 1.21394 0
M  V30 4606 C 422.504 0.688793 1.90745 0
M  V30 4607 C 422.837 -0.778486 1.77914 0
M  V30 4608 O 422.112 -1.56433 1.15581 0
M  V30 4609 C 422.395 1.11063 3.42545 0
M  V30 4610 C 422.248 2.63737 3.64367 0
M  V30 4611 C 423.567 0.673059 4.34923 0
M  V30 4612 H 420.686 0.251702 0.692687 0
M  V30 4613 H 423.328 1.25074 1.43026 0
M  V30 4614 H 421.478 0.632508 3.83317 0
M  V30 4615 H 423.15 3.19313 3.32922 0
M  V30 4616 H 421.393 3.05248 3.08231 0
M  V30 4617 H 422.064 2.88305 4.70727 0
M  V30 4618 H 424.54 1.08392 4.01734 0
M  V30 4619 H 423.416 0.996383 5.39781 0
M  V30 4620 H 423.677 -0.425808 4.40045 0
M  V30 4621 N 422.737 -1.36956 0.779787 0
M  V30 4622 C 423.983 -1.99787 0.348281 0
M  V30 4623 C 424.316 -1.61756 -1.07465 0
M  V30 4624 O 423.591 -0.867639 -1.74075 0
M  V30 4625 C 423.874 -3.56597 0.50104 0
M  V30 4626 C 423.727 -4.04513 1.96697 0
M  V30 4627 C 425.046 -4.40008 -0.0898097 0
M  V30 4628 H 422.165 -0.725796 0.128022 0
M  V30 4629 H 424.807 -1.62514 0.984331 0
M  V30 4630 H 422.957 -3.88479 -0.0404347 0
M  V30 4631 H 424.629 -3.83161 2.56876 0
M  V30 4632 H 422.872 -3.56408 2.47297 0
M  V30 4633 H 423.543 -5.1352 2.02486 0
M  V30 4634 H 426.019 -4.14431 0.372293 0
M  V30 4635 H 424.895 -5.4888 0.0471605 0
M  V30 4636 H 425.156 -4.26035 -1.18096 0
M  V30 4637 N 424.215 -0.530993 -1.48385 0
M  V30 4638 C 425.461 0.00274135 -2.028 0
M  V30 4639 C 425.794 1.33838 -1.40716 0
M  V30 4640 O 425.069 1.86465 -0.553277 0
M  V30 4641 C 425.352 0.123676 -3.59888 0
M  V30 4642 C 425.205 -1.2372 -4.3245 0
M  V30 4643 C 426.524 0.849967 -4.31814 0
M  V30 4644 H 423.643 -0.000477758 -0.737 0
M  V30 4645 H 426.285 -0.688217 -1.77098 0
M  V30 4646 H 424.435 0.712157 -3.81917 0
M  V30 4647 H 426.107 -1.86687 -4.21836 0
M  V30 4648 H 424.35 -1.81882 -3.93829 0
M  V30 4649 H 425.021 -1.10557 -5.40815 0
M  V30 4650 H 427.497 0.350572 -4.14621 0
M  V30 4651 H 426.373 0.903486 -5.41413 0
M  V30 4652 H 426.634 1.90047 -3.99167 0
M  V30 4653 N 425.693 1.55336 -0.266172 0
M  V30 4654 C 426.641 2.23587 0.641228 0
M  V30 4655 C 427.635 1.22986 1.16494 0
M  V30 4656 O 428.841 1.40943 1.1196 0
M  V30 4657 H 425.216 0.717452 0.225315 0
M  V30 4658 H 427.187 2.9837 0.0426561 0
M  V30 4659 C 425.936 2.96369 1.81826 0
M  V30 4660 H 425.259 3.73563 1.42445 0
M  V30 4661 H 426.699 3.47459 2.42998 0
M  V30 4662 C 425.158 2.0133 2.70125 0
M  V30 4663 O 425.688 1.55875 3.70224 0
M  V30 4664 N 423.894 1.6802 2.37102 0
M  V30 4665 H 423.441 2.05181 1.55751 0
M  V30 4666 H 423.399 1.047 2.96454 0
M  V30 4667 N 427.171 -0.0066808 1.57599 0
M  V30 4668 C 428.396 -0.707738 1.94951 0
M  V30 4669 C 428.821 -1.66882 0.867868 0
M  V30 4670 O 428.179 -1.80457 -0.17458 0
M  V30 4671 C 428.227 -1.42162 3.31394 0
M  V30 4672 O 427.331 -2.53578 3.25226 0
M  V30 4673 H 426.672 -0.188752 0.636607 0
M  V30 4674 H 429.202 0.0445193 2.04552 0
M  V30 4675 H 429.212 -1.78655 3.66806 0
M  V30 4676 H 427.887 -0.716903 4.09675 0
M  V30 4677 H 426.464 -2.19463 3.01481 0
M  V30 4678 N 428.649 -1.55105 -0.279332 0
M  V30 4679 C 429.896 -1.75412 -1.01177 0
M  V30 4680 C 430.224 -0.551728 -1.86511 0
M  V30 4681 O 429.479 0.465919 -1.90073 0
M  V30 4682 C 429.778 -3.0086 -1.92919 0
M  V30 4683 C 429.444 -4.33689 -1.23387 0
M  V30 4684 C 428.106 -4.69792 -1.04159 0
M  V30 4685 C 430.458 -5.15941 -0.738562 0
M  V30 4686 C 427.786 -5.85707 -0.341166 0
M  V30 4687 C 430.138 -6.32579 -0.0517636 0
M  V30 4688 C 428.802 -6.67326 0.152292 0
M  V30 4689 H 428.072 -0.641879 -0.370233 0
M  V30 4690 H 430.719 -1.89373 -0.284627 0
M  V30 4691 H 429.024 -2.81773 -2.72234 0
M  V30 4692 H 430.721 -3.13768 -2.49701 0
M  V30 4693 H 427.311 -4.05309 -1.39364 0
M  V30 4694 H 431.495 -4.8853 -0.874764 0
M  V30 4695 H 426.751 -6.11157 -0.172287 0
M  V30 4696 H 430.925 -6.9557 0.339828 0
M  V30 4697 H 428.552 -7.56998 0.697014 0
M  V30 4698 N 430.127 0.543554 -1.4793 0
M  V30 4699 C 431.057 1.65888 -1.64327 0
M  V30 4700 C 432.038 1.62818 -0.492383 0
M  V30 4701 O 433.223 1.80226 -0.723338 0
M  V30 4702 C 430.353 3.04506 -1.67013 0
M  V30 4703 C 429.307 3.2243 -2.81466 0
M  V30 4704 C 428.633 4.61972 -2.69233 0
M  V30 4705 C 429.933 3.06496 -4.22915 0
M  V30 4706 H 431.627 1.52421 -2.57698 0
M  V30 4707 H 429.173 0.731849 -1.24016 0
M  V30 4708 H 431.126 3.82391 -1.77074 0
M  V30 4709 H 429.85 3.18964 -0.70212 0
M  V30 4710 H 428.509 2.46957 -2.70938 0
M  V30 4711 H 428.157 4.73247 -1.7043 0
M  V30 4712 H 427.857 4.74911 -3.46025 0
M  V30 4713 H 429.381 5.41974 -2.81242 0
M  V30 4714 H 430.795 3.74186 -4.34348 0
M  V30 4715 H 429.192 3.30938 -5.006 0
M  V30 4716 H 430.262 2.03077 -4.40327 0
M  V30 4717 N 431.605 1.3629 0.791371 0
M  V30 4718 C 432.83 1.33726 1.58531 0
M  V30 4719 C 433.255 -0.0794933 1.87932 0
M  V30 4720 O 432.613 -1.05087 1.47738 0
M  V30 4721 C 432.661 2.16425 2.88431 0
M  V30 4722 O 431.765 1.5554 3.81944 0
M  V30 4723 H 431.106 0.457793 0.480959 0
M  V30 4724 H 433.636 1.79547 0.981031 0
M  V30 4725 H 433.646 2.28933 3.37718 0
M  V30 4726 H 432.321 3.19415 2.66359 0
M  V30 4727 H 430.898 1.51961 3.40532 0
M  V30 4728 N 433.083 -1.0153 1.20538 0
M  V30 4729 C 434.308 -1.79283 1.04271 0
M  V30 4730 C 434.733 -1.8372 -0.403544 0
M  V30 4731 O 434.091 -1.27321 -1.2907 0
M  V30 4732 C 434.139 -3.21535 1.63241 0
M  V30 4733 O 433.243 -4.03099 0.870908 0
M  V30 4734 H 432.584 -0.55293 0.367647 0
M  V30 4735 H 435.114 -1.27696 1.59859 0
M  V30 4736 H 435.124 -3.72243 1.6703 0
M  V30 4737 H 433.799 -3.1762 2.68497 0
M  V30 4738 H 432.376 -3.61693 0.907323 0
M  V30 4739 N 434.561 -1.01147 -1.20859 0
M  V30 4740 C 435.972 -0.730205 -1.71828 0
M  V30 4741 C 436.323 0.751662 -1.8123 0
M  V30 4742 O 435.448 1.58686 -1.47132 0
M  V30 4743 C 436.043 -1.31885 -3.12077 0
M  V30 4744 C 434.602 -1.08656 -3.60376 0
M  V30 4745 C 433.749 -1.42769 -2.37723 0
M  V30 4746 H 436.7 -1.18158 -1.05945 0
M  V30 4747 H 436.721 -0.706793 -3.73878 0
M  V30 4748 H 436.233 -2.39737 -3.05201 0
M  V30 4749 H 434.334 -0.0254814 -3.72591 0
M  V30 4750 H 434.447 -1.76301 -4.45483 0
M  V30 4751 H 432.811 -0.846603 -2.40218 0
M  V30 4752 H 433.594 -2.51666 -2.33493 0
M  V30 4753 N 436.039 1.36541 -0.78704 0
M  V30 4754 C 437.286 1.99304 -0.358341 0
M  V30 4755 C 437.614 1.62467 1.06933 0
M  V30 4756 O 436.869 0.870019 1.75297 0
M  V30 4757 C 437.168 3.54343 -0.466485 0
M  V30 4758 C 436.834 4.10993 -1.85461 0
M  V30 4759 C 435.496 4.26177 -2.23443 0
M  V30 4760 C 437.848 4.41895 -2.76366 0
M  V30 4761 C 435.176 4.69573 -3.51736 0
M  V30 4762 C 437.528 4.86722 -4.04084 0
M  V30 4763 C 436.192 5.00112 -4.42091 0
M  V30 4764 H 435.462 0.729306 -0.131126 0
M  V30 4765 H 438.109 1.63068 -1.00404 0
M  V30 4766 H 436.414 3.90918 0.262719 0
M  V30 4767 H 438.111 4.00833 -0.115854 0
M  V30 4768 H 434.701 3.99612 -1.54946 0
M  V30 4769 H 438.885 4.29735 -2.48277 0
M  V30 4770 H 434.141 4.78127 -3.81057 0
M  V30 4771 H 438.315 5.09598 -4.7464 0
M  V30 4772 H 435.942 5.33498 -5.41557 0
M  V30 4773 N 437.518 0.538854 1.48102 0
M  V30 4774 C 438.45 -0.256278 2.27763 0
M  V30 4775 C 439.463 -0.89633 1.35904 0
M  V30 4776 O 440.652 -0.773275 1.60881 0
M  V30 4777 C 437.752 -1.37896 3.09577 0
M  V30 4778 C 436.925 -0.839159 4.29275 0
M  V30 4779 C 435.984 -1.84405 4.9283 0
M  V30 4780 O 435.01 -1.39746 5.51779 0
M  V30 4781 N 436.212 -3.17666 4.85869 0
M  V30 4782 H 438.977 0.426968 2.96643 0
M  V30 4783 H 436.538 0.373747 1.57527 0
M  V30 4784 H 438.53 -2.04955 3.48963 0
M  V30 4785 H 437.1 -1.96572 2.4306 0
M  V30 4786 H 436.32 0.00769287 3.94199 0
M  V30 4787 H 437.608 -0.457548 5.06739 0
M  V30 4788 H 437.006 -3.56609 4.39143 0
M  V30 4789 H 435.563 -3.80334 5.29329 0
M  V30 4790 N 438.996 -1.55193 0.274407 0
M  V30 4791 C 439.906 -2.26164 -0.623473 0
M  V30 4792 C 440.922 -1.28729 -1.17068 0
M  V30 4793 O 442.098 -1.61663 -1.20112 0
M  V30 4794 C 439.163 -2.96833 -1.7914 0
M  V30 4795 C 438.224 -4.09745 -1.28093 0
M  V30 4796 C 437.457 -4.77034 -2.3932 0
M  V30 4797 O 437.68 -4.4353 -3.5866 0
M  V30 4798 O 436.614 -5.64996 -2.07516 0
M  V30 4799 H 440.44 -3.03661 -0.0485661 0
M  V30 4800 H 438.025 -1.49341 0.0418382 0
M  V30 4801 H 439.907 -3.41248 -2.4724 0
M  V30 4802 H 438.582 -2.22253 -2.35341 0
M  V30 4803 H 437.489 -3.69787 -0.566416 0
M  V30 4804 H 438.822 -4.86224 -0.764683 0
M  V30 4805 N 440.474 -0.00167713 -1.576 0
M  V30 4806 C 441.422 1.0074 -2.09652 0
M  V30 4807 C 442.416 1.35483 -1.01689 0
M  V30 4808 O 443.622 1.34028 -1.20152 0
M  V30 4809 H 439.997 0.342537 -0.669457 0
M  V30 4810 H 441.968 0.542841 -2.93421 0
M  V30 4811 C 440.717 2.2899 -2.61647 0
M  V30 4812 H 440.04 2.03124 -3.44355 0
M  V30 4813 H 441.48 2.9787 -3.01744 0
M  V30 4814 C 439.939 3.00085 -1.53136 0
M  V30 4815 O 440.469 3.91135 -0.91524 0
M  V30 4816 N 438.675 2.6194 -1.25841 0
M  V30 4817 H 438.222 1.8798 -1.76129 0
M  V30 4818 H 438.18 3.09822 -0.534576 0
M  V30 4819 N 441.952 1.55251 0.271103 0
M  V30 4820 C 443.198 1.7713 0.999832 0
M  V30 4821 C 443.553 0.56659 1.83868 0
M  V30 4822 O 442.846 -0.44069 1.86463 0
M  V30 4823 C 443.04 3.01879 1.91321 0
M  V30 4824 C 442.869 4.34368 1.16426 0
M  V30 4825 C 441.639 4.97593 0.879169 0
M  V30 4826 C 443.837 5.1131 0.553749 0
M  V30 4827 N 441.819 6.13813 0.103618 0
M  V30 4828 C 443.19 6.19938 -0.0875442 0
M  V30 4829 C 445.245 4.95754 0.461782 0
M  V30 4830 C 443.948 7.14703 -0.811942 0
M  V30 4831 C 445.974 5.90875 -0.249027 0
M  V30 4832 C 445.336 6.98893 -0.879051 0
M  V30 4833 H 441.435 0.700407 0.347784 0
M  V30 4834 H 444.019 1.92744 0.275314 0
M  V30 4835 H 442.19 2.87637 2.60997 0
M  V30 4836 H 443.922 3.12154 2.57569 0
M  V30 4837 H 440.677 4.58538 1.18491 0
M  V30 4838 H 441.101 6.76455 -0.271543 0
M  V30 4839 H 445.743 4.12342 0.934552 0
M  V30 4840 H 443.461 7.97634 -1.29639 0
M  V30 4841 H 447.047 5.80916 -0.320529 0
M  V30 4842 H 445.927 7.71231 -1.42031 0
M  V30 4843 N 443.43 -0.535701 1.48216 0
M  V30 4844 C 444.677 -1.29183 1.55942 0
M  V30 4845 C 445.005 -1.93125 0.230857 0
M  V30 4846 O 444.26 -1.79556 -0.778331 0
M  V30 4847 C 444.559 -2.4068 2.64212 0
M  V30 4848 C 444.225 -1.94428 4.06827 0
M  V30 4849 C 442.887 -1.81532 4.45645 0
M  V30 4850 C 445.239 -1.59405 4.96225 0
M  V30 4851 C 442.567 -1.31939 5.71672 0
M  V30 4852 C 444.919 -1.11276 6.22736 0
M  V30 4853 C 443.583 -0.969924 6.60416 0
M  V30 4854 H 442.853 -0.472715 0.570632 0
M  V30 4855 H 445.5 -0.598437 1.81909 0
M  V30 4856 H 443.805 -3.15666 2.32083 0
M  V30 4857 H 445.502 -2.98822 2.67407 0
M  V30 4858 H 442.092 -2.05415 3.76168 0
M  V30 4859 H 446.276 -1.68231 4.66917 0
M  V30 4860 H 441.532 -1.19562 5.99596 0
M  V30 4861 H 445.706 -0.832453 6.91407 0
M  V30 4862 H 443.333 -0.583436 7.57958 0
M  V30 4863 N 444.908 -1.36708 -0.784132 0
M  V30 4864 C 445.838 -1.34153 -1.91116 0
M  V30 4865 C 446.819 -0.212121 -1.68772 0
M  V30 4866 O 448.004 -0.410581 -1.8981 0
M  V30 4867 C 445.134 -1.13535 -3.28218 0
M  V30 4868 C 444.088 -2.23356 -3.65097 0
M  V30 4869 C 443.414 -1.87875 -5.00607 0
M  V30 4870 C 444.714 -3.65473 -3.73131 0
M  V30 4871 H 446.408 -2.28459 -1.93512 0
M  V30 4872 H 443.954 -1.09973 -0.929618 0
M  V30 4873 H 445.907 -1.10381 -4.06687 0
M  V30 4874 H 444.631 -0.156804 -3.26223 0
M  V30 4875 H 443.29 -2.25645 -2.88929 0
M  V30 4876 H 442.938 -0.885814 -4.95139 0
M  V30 4877 H 442.638 -2.61406 -5.26252 0
M  V30 4878 H 444.162 -1.86286 -5.81489 0
M  V30 4879 H 445.576 -3.65382 -4.41779 0
M  V30 4880 H 443.973 -4.37953 -4.10265 0
M  V30 4881 H 445.043 -3.99995 -2.74102 0
M  V30 4882 N 446.386 1.0089 -1.21074 0
M  V30 4883 C 447.316 2.1145 -0.990523 0
M  V30 4884 C 448.297 1.69897 0.0831699 0
M  V30 4885 O 449.482 1.94052 -0.0758853 0
M  V30 4886 C 446.612 3.42914 -0.550177 0
M  V30 4887 C 445.566 3.98244 -1.56799 0
M  V30 4888 C 444.892 5.25568 -0.984013 0
M  V30 4889 C 446.192 4.30752 -2.95381 0
M  V30 4890 H 447.886 2.3013 -1.91521 0
M  V30 4891 H 445.432 1.10592 -0.92225 0
M  V30 4892 H 447.385 4.19653 -0.383305 0
M  V30 4893 H 446.109 3.24014 0.41015 0
M  V30 4894 H 444.768 3.23621 -1.72236 0
M  V30 4895 H 444.416 5.02998 -0.0155216 0
M  V30 4896 H 444.116 5.63551 -1.66384 0
M  V30 4897 H 445.64 6.04955 -0.828378 0
M  V30 4898 H 447.054 4.98349 -2.8341 0
M  V30 4899 H 445.451 4.79869 -3.60341 0
M  V30 4900 H 446.521 3.39192 -3.46521 0
M  V30 4901 N 447.864 1.01787 1.20321 0
M  V30 4902 C 449.111 0.707936 1.89722 0
M  V30 4903 C 449.439 -0.762535 1.78929 0
M  V30 4904 O 448.694 -1.56977 1.16861 0
M  V30 4905 C 448.993 1.09076 3.40349 0
M  V30 4906 C 448.659 2.55765 3.71342 0
M  V30 4907 C 447.321 2.95845 3.79511 0
M  V30 4908 C 449.673 3.50723 3.85542 0
M  V30 4909 C 447.001 4.2982 3.99339 0
M  V30 4910 C 449.353 4.84387 4.06881 0
M  V30 4911 C 448.017 5.24172 4.1328 0
M  V30 4912 H 447.287 0.259052 0.694243 0
M  V30 4913 H 449.934 1.27868 1.42555 0
M  V30 4914 H 448.239 0.438453 3.89339 0
M  V30 4915 H 449.936 0.828636 3.92345 0
M  V30 4916 H 446.526 2.2371 3.65584 0
M  V30 4917 H 450.71 3.20916 3.78585 0
M  V30 4918 H 445.966 4.60196 4.02529 0
M  V30 4919 H 450.14 5.57891 4.1681 0
M  V30 4920 H 447.767 6.27997 4.28396 0
M  V30 4921 N 449.342 -1.36122 0.79427 0
M  V30 4922 C 450.582 -2.00942 0.374376 0
M  V30 4923 C 450.946 -1.61666 -1.03577 0
M  V30 4924 O 452.147 -2.19113 -1.55701 0
M  V30 4925 C 450.418 -3.53323 0.538327 0
M  V30 4926 S 451.977 -4.38311 0.20703 0
M  V30 4927 H 448.795 -0.696515 0.142785 0
M  V30 4928 H 451.397 -1.65929 1.03382 0
M  V30 4929 H 450.101 -3.79395 1.56484 0
M  V30 4930 H 449.632 -3.93162 -0.136882 0
M  V30 4931 H 451.647 -4.8623 -0.989695 0
M  V30 4932 N 450.82 -0.546701 -1.47814 0
M  V30 4933 C 452.236 -0.205717 -1.58269 0
M  V30 4934 C 452.436 1.29153 -1.54667 0
M  V30 4935 O 451.492 2.07098 -1.44453 0
M  V30 4936 C 452.805 -0.823065 -2.89216 0
M  V30 4937 C 454.353 -0.793328 -3.02779 0
M  V30 4938 C 454.828 -1.38955 -4.36412 0
M  V30 4939 N 456.319 -1.35227 -4.43021 0
M  V30 4940 C 457.054 -1.78333 -5.44963 0
M  V30 4941 N 456.55 -2.29246 -6.53772 0
M  V30 4942 N 458.343 -1.69467 -5.35945 0
M  V30 4943 H 450.494 -1.5196 -1.48398 0
M  V30 4944 H 452.757 -0.633078 -0.705632 0
M  V30 4945 H 452.463 -1.8749 -2.97558 0
M  V30 4946 H 452.337 -0.309915 -3.75925 0
M  V30 4947 H 454.724 0.249784 -2.94041 0
M  V30 4948 H 454.805 -1.34412 -2.17639 0
M  V30 4949 H 454.449 -2.43168 -4.45906 0
M  V30 4950 H 454.379 -0.814291 -5.20266 0
M  V30 4951 H 456.87 -0.979739 -3.64979 0
M  V30 4952 H 457.183 -2.60089 -7.27718 0
M  V30 4953 H 455.528 -2.3325 -6.5469 0
M  V30 4954 H 458.719 -1.29477 -4.49837 0
M  V30 4955 H 458.892 -2.03381 -6.15256 0
M  V30 4956 N 452.299 1.55045 -0.282633 0
M  V30 4957 C 453.548 1.98938 0.332667 0
M  V30 4958 C 453.861 1.17455 1.56409 0
M  V30 4959 O 455.067 1.51527 2.25282 0
M  V30 4960 C 453.523 3.54105 0.643226 0
M  V30 4961 C 453.131 4.44374 -0.568814 0
M  V30 4962 C 454.875 4.06569 1.22074 0
M  V30 4963 C 452.782 5.90943 -0.232426 0
M  V30 4964 H 451.712 0.743043 0.128075 0
M  V30 4965 H 454.363 1.79341 -0.388464 0
M  V30 4966 H 452.745 3.69532 1.42346 0
M  V30 4967 H 453.919 4.40718 -1.34551 0
M  V30 4968 H 452.234 4.02585 -1.06369 0
M  V30 4969 H 454.831 5.13626 1.48635 0
M  V30 4970 H 455.174 3.56057 2.15707 0
M  V30 4971 H 455.707 3.94612 0.502621 0
M  V30 4972 H 452.446 6.45567 -1.13683 0
M  V30 4973 H 451.966 5.9765 0.507357 0
M  V30 4974 H 453.645 6.4677 0.172657 0
M  V30 4975 N 453.777 0.010035 1.57597 0
M  V30 4976 C 455.017 -0.677084 1.9286 0
M  V30 4977 C 455.381 -1.70377 0.885192 0
M  V30 4978 O 456.582 -2.44199 1.12339 0
M  V30 4979 C 454.853 -1.29452 3.33132 0
M  V30 4980 S 456.412 -2.00537 3.90295 0
M  V30 4981 H 453.23 -0.223409 0.674989 0
M  V30 4982 H 455.832 0.0691289 1.95378 0
M  V30 4983 H 454.536 -0.534593 4.06903 0
M  V30 4984 H 454.067 -2.07845 3.34012 0
M  V30 4985 H 456.082 -3.28168 3.72183 0
M  V30 4986 N 455.255 -1.55392 -0.262866 0
M  V30 4987 C 456.504 -1.75679 -0.990943 0
M  V30 4988 C 456.817 -0.57097 -1.87081 0
M  V30 4989 O 458.023 -0.656486 -2.63444 0
M  V30 4990 C 456.479 -3.10964 -1.81188 0
M  V30 4991 C 456.087 -4.37146 -0.980188 0
M  V30 4992 C 457.831 -3.40597 -2.53365 0
M  V30 4993 C 455.738 -5.63466 -1.7961 0
M  V30 4994 H 454.668 -0.654868 -0.373716 0
M  V30 4995 H 457.319 -1.81841 -0.246203 0
M  V30 4996 H 455.701 -2.98867 -2.59797 0
M  V30 4997 H 456.875 -4.60187 -0.237558 0
M  V30 4998 H 455.19 -4.14731 -0.372497 0
M  V30 4999 H 457.787 -4.32186 -3.14833 0
M  V30 5000 H 458.13 -2.6119 -3.24169 0
M  V30 5001 H 458.663 -3.53838 -1.81779 0
M  V30 5002 H 455.402 -6.4565 -1.13209 0
M  V30 5003 H 454.922 -5.44552 -2.51443 0
M  V30 5004 H 456.601 -6.02139 -2.36723 0
M  V30 5005 N 456.733 0.527833 -1.48498 0
M  V30 5006 C 457.963 1.30633 -1.60058 0
M  V30 5007 C 458.371 1.87394 -0.260786 0
M  V30 5008 O 457.714 1.67227 0.760317 0
M  V30 5009 C 457.776 2.49361 -2.58958 0
M  V30 5010 C 457.44 2.13671 -4.03972 0
M  V30 5011 C 458.437 1.69217 -4.91591 0
M  V30 5012 C 456.122 2.24129 -4.49524 0
M  V30 5013 C 458.116 1.35689 -6.2279 0
M  V30 5014 C 455.803 1.90212 -5.80743 0
M  V30 5015 C 456.801 1.46063 -6.67199 0
M  V30 5016 O 456.489 1.12593 -7.95976 0
M  V30 5017 H 456.221 0.403444 -0.54241 0
M  V30 5018 H 458.775 0.643233 -1.95068 0
M  V30 5019 H 457.005 3.18659 -2.19073 0
M  V30 5020 H 458.694 3.11421 -2.6033 0
M  V30 5021 H 459.46 1.60607 -4.57636 0
M  V30 5022 H 455.339 2.57447 -3.82416 0
M  V30 5023 H 458.883 1.01157 -6.90227 0
M  V30 5024 H 454.78 1.98464 -6.14233 0
M  V30 5025 H 455.548 1.25972 -8.08748 0
M  V30 5026 N 458.211 1.37122 0.776871 0
M  V30 5027 C 459.141 1.35164 1.90402 0
M  V30 5028 C 460.122 0.221069 1.68657 0
M  V30 5029 O 461.307 0.420642 1.8959 0
M  V30 5030 C 458.437 1.15274 3.27611 0
M  V30 5031 C 457.391 2.25289 3.63908 0
M  V30 5032 C 456.717 1.90527 4.99603 0
M  V30 5033 C 458.017 3.67446 3.71188 0
M  V30 5034 H 459.711 2.29482 1.92297 0
M  V30 5035 H 457.257 1.10465 0.923773 0
M  V30 5036 H 459.21 1.12536 4.06096 0
M  V30 5037 H 457.934 0.174102 3.26136 0
M  V30 5038 H 456.593 2.27174 2.87728 0
M  V30 5039 H 456.241 0.91206 4.94662 0
M  V30 5040 H 455.941 2.64193 5.24858 0
M  V30 5041 H 457.465 1.89367 5.80493 0
M  V30 5042 H 458.879 3.67719 4.39836 0
M  V30 5043 H 457.276 4.40123 4.07936 0
M  V30 5044 H 458.346 4.01443 2.71977 0
M  V30 5045 N 459.689 -1.00246 1.21608 0
M  V30 5046 C 460.637 -2.11193 0.97469 0
M  V30 5047 C 461.631 -1.69216 -0.0789303 0
M  V30 5048 O 462.837 -1.79853 0.0726806 0
M  V30 5049 H 459.212 -0.690455 0.297953 0
M  V30 5050 H 461.183 -2.2873 1.91638 0
M  V30 5051 C 459.932 -3.43182 0.558717 0
M  V30 5052 H 459.255 -3.75918 1.3611 0
M  V30 5053 H 460.695 -4.21823 0.429154 0
M  V30 5054 C 459.154 -3.28882 -0.730648 0
M  V30 5055 O 459.684 -3.59835 -1.78554 0
M  V30 5056 N 457.89 -2.8209 -0.698131 0
M  V30 5057 H 457.437 -2.57099 0.16061 0
M  V30 5058 H 457.395 -2.72903 -1.56113 0
M  V30 5059 N 461.167 -1.02423 -1.1978 0
M  V30 5060 C 462.392 -0.7373 -1.93852 0
M  V30 5061 C 462.817 0.696923 -1.74713 0
M  V30 5062 O 462.175 1.48056 -1.04638 0
M  V30 5063 C 462.223 -1.08783 -3.438 0
M  V30 5064 O 461.327 -0.20383 -4.11896 0
M  V30 5065 H 460.668 -0.27284 -0.605355 0
M  V30 5066 H 463.198 -1.36966 -1.51992 0
M  V30 5067 H 463.208 -1.04276 -3.9445 0
M  V30 5068 H 461.883 -2.13274 -3.57053 0
M  V30 5069 H 460.46 -0.307091 -3.71633 0
M  V30 5070 N 462.645 1.35699 -0.801477 0
M  V30 5071 C 463.608 2.28199 -0.213994 0
M  V30 5072 C 464.608 1.49359 0.595691 0
M  V30 5073 O 465.798 1.69186 0.414921 0
M  V30 5074 C 462.93 3.33587 0.702297 0
M  V30 5075 H 464.123 2.81666 -1.02976 0
M  V30 5076 H 461.676 1.45467 -0.571759 0
M  V30 5077 H 462.411 2.85297 1.54195 0
M  V30 5078 H 462.196 3.91906 0.123484 0
M  V30 5079 H 463.686 4.02638 1.10783 0
M  V30 5080 N 464.123 0.554532 1.47522 0
M  V30 5081 C 465.372 0.0273458 2.01681 0
M  V30 5082 C 465.685 -1.32962 1.43459 0
M  V30 5083 O 466.891 -1.94657 1.89265 0
M  V30 5084 C 465.347 -0.00159057 3.599 0
M  V30 5085 C 464.955 1.35197 4.27113 0
M  V30 5086 C 466.699 -0.476311 4.21819 0
M  V30 5087 C 464.606 1.28229 5.77331 0
M  V30 5088 H 463.536 0.00645269 0.753972 0
M  V30 5089 H 466.187 0.701985 1.69542 0
M  V30 5090 H 464.569 -0.741821 3.8899 0
M  V30 5091 H 465.743 2.1097 4.09668 0
M  V30 5092 H 464.058 1.76441 3.77171 0
M  V30 5093 H 466.655 -0.5468 5.31897 0
M  V30 5094 H 466.998 -1.4877 3.8881 0
M  V30 5095 H 467.531 0.20898 3.97251 0
M  V30 5096 H 464.27 2.26959 6.14955 0
M  V30 5097 H 463.79 0.566314 5.97121 0
M  V30 5098 H 465.469 0.983226 6.39485 0
M  V30 5099 N 465.601 -1.54893 0.290851 0
M  V30 5100 C 466.549 -2.24579 -0.605576 0
M  V30 5101 C 467.543 -1.24824 -1.14522 0
M  V30 5102 O 468.749 -1.42706 -1.09704 0
M  V30 5103 H 465.124 -0.720946 -0.213872 0
M  V30 5104 H 467.095 -2.984 0.0048173 0
M  V30 5105 C 465.844 -2.99224 -1.77088 0
M  V30 5106 H 465.167 -3.75782 -1.36484 0
M  V30 5107 H 466.607 -3.51281 -2.3744 0
M  V30 5108 C 465.066 -2.05602 -2.66888 0
M  V30 5109 O 465.596 -1.61745 -3.67698 0
M  V30 5110 N 463.802 -1.71771 -2.34399 0
M  V30 5111 H 463.349 -2.07633 -1.52468 0
M  V30 5112 H 463.307 -1.09403 -2.94751 0
M  V30 5113 N 467.08 -0.0183926 -1.57589 0
M  V30 5114 C 468.491 0.521927 -1.79256 0
M  V30 5115 C 468.842 1.72885 -0.927636 0
M  V30 5116 O 467.967 2.15978 -0.135091 0
M  V30 5117 C 468.562 0.953632 -3.25102 0
M  V30 5118 C 467.121 1.43913 -3.47801 0
M  V30 5119 C 466.268 0.398837 -2.74417 0
M  V30 5120 H 469.219 -0.244485 -1.56805 0
M  V30 5121 H 469.24 1.81863 -3.34224 0
M  V30 5122 H 468.752 0.0750123 -3.88028 0
M  V30 5123 H 466.853 2.33804 -2.90115 0
M  V30 5124 H 466.966 1.45391 -4.56507 0
M  V30 5125 H 465.33 0.864572 -2.39577 0
M  V30 5126 H 466.113 -0.471132 -3.40052 0
M  V30 5127 N 468.558 1.5553 0.254621 0
M  V30 5128 C 469.804 1.77262 0.985193 0
M  V30 5129 C 470.137 0.582286 1.85265 0
M  V30 5130 O 469.412 -0.419666 1.89919 0
M  V30 5131 C 469.695 3.0881 1.85225 0
M  V30 5132 C 469.548 4.38233 1.0135 0
M  V30 5133 C 470.867 3.3653 2.83612 0
M  V30 5134 H 467.986 0.644906 0.356742 0
M  V30 5135 H 470.628 1.88264 0.256236 0
M  V30 5136 H 468.778 2.99562 2.47376 0
M  V30 5137 H 470.45 4.59463 0.411269 0
M  V30 5138 H 468.693 4.32636 0.317574 0
M  V30 5139 H 469.364 5.26644 1.65379 0
M  V30 5140 H 471.84 3.45691 2.31596 0
M  V30 5141 H 470.716 4.29805 3.41407 0
M  V30 5142 H 470.977 2.57064 3.59681 0
M  V30 5143 N 470.036 -0.519951 1.48776 0
M  V30 5144 C 471.285 -1.27175 1.56555 0
M  V30 5145 C 471.598 -1.9401 0.248869 0
M  V30 5146 O 472.804 -2.70725 0.205004 0
M  V30 5147 C 471.26 -2.30811 2.76142 0
M  V30 5148 C 470.868 -1.7 4.14493 0
M  V30 5149 C 472.612 -3.06937 2.9324 0
M  V30 5150 C 470.519 -2.71635 5.25327 0
M  V30 5151 H 469.449 -0.478329 0.582853 0
M  V30 5152 H 472.1 -0.547916 1.75129 0
M  V30 5153 H 470.482 -3.06274 2.51023 0
M  V30 5154 H 471.656 -1.00658 4.49672 0
M  V30 5155 H 469.971 -1.06331 4.02595 0
M  V30 5156 H 472.568 -3.82905 3.73213 0
M  V30 5157 H 472.911 -3.63409 2.03075 0
M  V30 5158 H 473.444 -2.38589 3.18308 0
M  V30 5159 H 470.183 -2.1997 6.1749 0
M  V30 5160 H 469.703 -3.39275 4.94624 0
M  V30 5161 H 471.382 -3.34429 5.53865 0
M  V30 5162 N 471.514 -1.37532 -0.769588 0
M  V30 5163 C 472.744 -1.35861 -1.55645 0
M  V30 5164 C 473.152 0.0574398 -1.89113 0
M  V30 5165 O 472.495 1.03021 -1.52093 0
M  V30 5166 C 472.557 -2.13431 -2.89288 0
M  V30 5167 C 472.221 -3.62378 -2.78444 0
M  V30 5168 C 473.218 -4.56215 -2.49326 0
M  V30 5169 C 470.903 -4.05529 -2.96398 0
M  V30 5170 C 472.897 -5.91181 -2.38294 0
M  V30 5171 C 470.584 -5.40579 -2.84987 0
M  V30 5172 C 471.582 -6.33218 -2.55975 0
M  V30 5173 O 471.27 -7.65787 -2.44594 0
M  V30 5174 H 471.002 -0.467001 -0.48876 0
M  V30 5175 H 473.556 -1.81505 -0.961515 0
M  V30 5176 H 471.786 -1.62481 -3.50909 0
M  V30 5177 H 473.475 -2.04368 -3.50697 0
M  V30 5178 H 474.241 -4.24187 -2.35139 0
M  V30 5179 H 470.12 -3.33781 -3.1798 0
M  V30 5180 H 473.664 -6.63457 -2.15571 0
M  V30 5181 H 469.561 -5.72209 -2.98743 0
M  V30 5182 H 470.329 -7.76132 -2.59927 0
M  V30 5183 N 472.992 0.995999 -1.22138 0
M  V30 5184 C 473.94 2.10673 -0.985876 0
M  V30 5185 C 474.934 1.69255 0.0699553 0
M  V30 5186 O 476.14 1.79812 -0.0822176 0
M  V30 5187 H 472.515 0.688865 -0.30161 0
M  V30 5188 H 474.486 2.27711 -1.92848 0
M  V30 5189 C 473.235 3.42881 -0.576909 0
M  V30 5190 H 472.558 3.75191 -1.38101 0
M  V30 5191 H 473.998 4.21589 -0.451518 0
M  V30 5192 C 472.457 3.29265 0.713196 0
M  V30 5193 O 472.987 3.60777 1.76643 0
M  V30 5194 N 471.193 2.82456 0.683162 0
M  V30 5195 H 470.74 2.5701 -0.174242 0
M  V30 5196 H 470.698 2.73727 1.54663 0
M  V30 5197 N 474.47 1.03057 1.19235 0
M  V30 5198 C 475.4 0.633497 2.24742 0
M  V30 5199 C 476.381 -0.358335 1.66283 0
M  V30 5200 O 477.566 -0.240676 1.92703 0
M  V30 5201 C 474.696 -0.0147648 3.47297 0
M  V30 5202 C 473.65 0.899527 4.18441 0
M  V30 5203 C 472.976 0.116281 5.34574 0
M  V30 5204 C 474.276 2.21404 4.73051 0
M  V30 5205 H 475.97 1.5155 2.58211 0
M  V30 5206 H 473.516 0.73014 1.24117 0
M  V30 5207 H 475.469 -0.304202 4.20301 0
M  V30 5208 H 474.193 -0.931577 3.13032 0
M  V30 5209 H 472.852 1.17319 3.47321 0
M  V30 5210 H 472.5 -0.802619 4.96555 0
M  V30 5211 H 472.2 0.725293 5.83107 0
M  V30 5212 H 473.724 -0.166376 6.10373 0
M  V30 5213 H 475.138 1.98601 5.37802 0
M  V30 5214 H 473.535 2.77512 5.32078 0
M  V30 5215 H 474.605 2.86752 3.91026 0
M  V30 5216 N 475.948 -1.35272 0.808662 0
M  V30 5217 C 476.881 -2.27595 0.165994 0
M  V30 5218 C 477.859 -1.48189 -0.669241 0
M  V30 5219 O 479.043 -1.77444 -0.636073 0
M  V30 5220 C 476.17 -3.29843 -0.769505 0
M  V30 5221 C 475.216 -4.26498 -0.0136267 0
M  V30 5222 S 476.049 -5.18878 1.32384 0
M  V30 5223 C 477.205 -6.24666 0.392838 0
M  V30 5224 H 477.438 -2.81755 0.948756 0
M  V30 5225 H 474.971 -1.42103 0.603828 0
M  V30 5226 H 476.929 -3.89247 -1.30374 0
M  V30 5227 H 475.59 -2.74558 -1.52567 0
M  V30 5228 H 474.783 -4.98769 -0.724227 0
M  V30 5229 H 474.385 -3.71274 0.450713 0
M  V30 5230 H 476.677 -6.7619 -0.4211 0
M  V30 5231 H 477.62 -6.99741 1.0848 0
M  V30 5232 H 478.028 -5.64499 -0.0123908 0
M  V30 5233 N 477.426 -0.562348 -1.47226 0
M  V30 5234 C 478.651 -0.0432632 -2.07355 0
M  V30 5235 C 479.076 1.24332 -1.41149 0
M  V30 5236 O 478.434 1.74603 -0.488226 0
M  V30 5237 C 478.482 0.130288 -3.60365 0
M  V30 5238 O 477.586 1.19166 -3.94808 0
M  V30 5239 H 476.927 -0.0536334 -0.66183 0
M  V30 5240 H 479.457 -0.779495 -1.89169 0
M  V30 5241 H 479.467 0.342881 -4.06557 0
M  V30 5242 H 478.142 -0.809389 -4.07948 0
M  V30 5243 H 476.719 0.959153 -3.60354 0
M  V30 5244 N 478.904 1.54736 -0.299062 0
M  V30 5245 C 479.836 2.20891 0.61153 0
M  V30 5246 C 480.849 1.20104 1.09904 0
M  V30 5247 O 482.038 1.46707 1.01683 0
M  V30 5248 C 479.138 2.84018 1.84897 0
M  V30 5249 C 478.311 4.10719 1.50428 0
M  V30 5250 C 477.37 4.57667 2.59667 0
M  V30 5251 O 476.396 5.2291 2.24842 0
M  V30 5252 N 477.598 4.29821 3.90172 0
M  V30 5253 H 480.363 2.99666 0.0452001 0
M  V30 5254 H 477.924 1.61446 -0.121178 0
M  V30 5255 H 479.916 3.1236 2.5732 0
M  V30 5256 H 478.486 2.09095 2.32375 0
M  V30 5257 H 477.706 3.89408 0.612781 0
M  V30 5258 H 478.994 4.93223 1.24934 0
M  V30 5259 H 478.392 3.77549 4.21276 0
M  V30 5260 H 476.949 4.62877 4.58899 0
M  V30 5261 N 480.382 0.0267497 1.57577 0
M  V30 5262 C 481.329 -0.955894 2.10075 0
M  V30 5263 C 482.299 -1.32453 1.00226 0
M  V30 5264 O 483.484 -1.41826 1.27632 0
M  V30 5265 C 480.624 -2.2338 2.6305 0
M  V30 5266 C 479.737 -1.92183 3.86898 0
M  V30 5267 C 478.872 -3.14251 4.28275 0
M  V30 5268 C 477.911 -2.78862 5.44888 0
M  V30 5269 N 477.048 -3.93548 5.81433 0
M  V30 5270 H 481.888 -0.501303 2.93753 0
M  V30 5271 H 479.425 -0.235847 1.45197 0
M  V30 5272 H 481.383 -2.98124 2.91853 0
M  V30 5273 H 480.013 -2.6646 1.82205 0
M  V30 5274 H 479.065 -1.07692 3.64838 0
M  V30 5275 H 480.377 -1.62117 4.7172 0
M  V30 5276 H 479.531 -3.97317 4.58502 0
M  V30 5277 H 478.27 -3.47476 3.42215 0
M  V30 5278 H 477.275 -1.94208 5.14357 0
M  V30 5279 H 478.5 -2.46855 6.32645 0
M  V30 5280 H 476.446 -4.2662 4.98328 0
M  V30 5281 H 476.363 -3.67098 6.6089 0
M  V30 5282 H 477.631 -4.77325 6.16264 0
M  V30 5283 N 481.861 -1.55662 -0.24637 0
M  V30 5284 C 483.108 -1.77519 -0.974335 0
M  V30 5285 C 483.436 -0.591165 -1.85298 0
M  V30 5286 O 482.691 0.425497 -1.91018 0
M  V30 5287 C 482.99 -3.04885 -1.86494 0
M  V30 5288 C 482.656 -4.36209 -1.14161 0
M  V30 5289 C 481.318 -4.71896 -0.941701 0
M  V30 5290 C 483.67 -5.17391 -0.628957 0
M  V30 5291 C 480.998 -5.86299 -0.216852 0
M  V30 5292 C 483.35 -6.32546 0.0824273 0
M  V30 5293 C 482.014 -6.66853 0.293807 0
M  V30 5294 H 481.284 -0.649588 -0.356535 0
M  V30 5295 H 483.931 -1.89934 -0.244394 0
M  V30 5296 H 482.236 -2.87484 -2.66196 0
M  V30 5297 H 483.933 -3.18994 -2.42989 0
M  V30 5298 H 480.523 -4.08174 -1.30736 0
M  V30 5299 H 484.707 -4.90276 -0.770943 0
M  V30 5300 H 479.963 -6.11385 -0.0426124 0
M  V30 5301 H 484.137 -6.94693 0.487292 0
M  V30 5302 H 481.764 -7.55349 0.857428 0
M  V30 5303 N 483.339 0.512053 -1.4905 0
M  V30 5304 C 484.755 0.84224 -1.35567 0
M  V30 5305 C 484.955 1.97878 -0.380319 0
M  V30 5306 O 484.011 2.51769 0.19201 0
M  V30 5307 C 485.324 1.19286 -2.76028 0
M  V30 5308 C 486.872 1.30171 -2.84648 0
M  V30 5309 C 487.347 1.68568 -4.25851 0
M  V30 5310 N 488.838 1.75638 -4.28609 0
M  V30 5311 C 489.573 2.06769 -5.34821 0
M  V30 5312 N 489.069 2.36201 -6.51292 0
M  V30 5313 N 490.862 2.07927 -5.22229 0
M  V30 5314 H 483.013 -0.237574 -2.11067 0
M  V30 5315 H 485.276 -0.0436747 -0.946993 0
M  V30 5316 H 484.982 0.431199 -3.49047 0
M  V30 5317 H 484.856 2.13889 -3.10695 0
M  V30 5318 H 487.243 2.05411 -2.11873 0
M  V30 5319 H 487.324 0.336457 -2.53578 0
M  V30 5320 H 486.968 0.938824 -4.99148 0
M  V30 5321 H 486.898 2.66174 -4.54377 0
M  V30 5322 H 489.389 1.55097 -3.44606 0
M  V30 5323 H 489.702 2.59112 -7.28066 0
M  V30 5324 H 488.047 2.33681 -6.54536 0
M  V30 5325 H 491.238 1.84403 -4.30248 0
M  V30 5326 H 491.411 2.31856 -6.05101 0
M  V30 5327 N 484.817 1.37938 0.762283 0
M  V30 5328 C 485.78 1.34279 1.85747 0
M  V30 5329 C 486.78 0.244969 1.58923 0
M  V30 5330 O 487.97 0.501365 1.66829 0
M  V30 5331 C 485.102 1.08833 3.23061 0
M  V30 5332 H 486.295 2.31705 1.90401 0
M  V30 5333 H 483.848 1.23105 0.963057 0
M  V30 5334 H 484.583 0.119767 3.24079 0
M  V30 5335 H 484.368 1.88306 3.43923 0
M  V30 5336 H 485.858 1.08946 4.03138 0
M  V30 5337 N 486.295 -0.989507 1.22664 0
M  V30 5338 C 487.258 -2.06183 1.00106 0
M  V30 5339 C 488.258 -1.60765 -0.0337726 0
M  V30 5340 O 489.448 -1.72989 0.205072 0
M  V30 5341 C 486.58 -3.37021 0.51279 0
M  V30 5342 H 487.773 -2.27629 1.95256 0
M  V30 5343 H 485.326 -1.16158 1.0458 0
M  V30 5344 H 486.061 -3.21261 -0.442917 0
M  V30 5345 H 485.846 -3.71323 1.25942 0
M  V30 5346 H 487.336 -4.1591 0.375315 0
M  V30 5347 N 487.773 -1.03688 -1.18687 0
M  V30 5348 C 489.02 -0.73803 -1.88572 0
M  V30 5349 C 489.348 0.733973 -1.8012 0
M  V30 5350 O 488.603 1.55098 -1.19344 0
M  V30 5351 C 488.902 -1.14477 -3.3857 0
M  V30 5352 C 488.568 -2.61641 -3.67226 0
M  V30 5353 C 487.23 -3.01846 -3.74757 0
M  V30 5354 C 489.582 -3.56812 -3.79914 0
M  V30 5355 C 486.91 -4.36118 -3.92451 0
M  V30 5356 C 489.262 -4.90799 -3.99123 0
M  V30 5357 C 487.926 -5.3068 -4.04888 0
M  V30 5358 H 487.196 -0.270064 -0.690034 0
M  V30 5359 H 489.843 -1.3012 -1.40503 0
M  V30 5360 H 488.148 -0.500337 -3.88592 0
M  V30 5361 H 489.845 -0.89095 -3.90977 0
M  V30 5362 H 486.435 -2.29498 -3.61979 0
M  V30 5363 H 490.619 -3.26899 -3.73431 0
M  V30 5364 H 485.875 -4.66542 -3.95157 0
M  V30 5365 H 490.049 -5.64451 -4.07882 0
M  V30 5366 H 487.676 -6.34733 -4.18351 0
M  V30 5367 N 489.251 1.34841 -0.815825 0
M  V30 5368 C 490.667 1.51543 -0.500697 0
M  V30 5369 C 490.867 1.76261 0.976444 0
M  V30 5370 O 489.923 1.8094 1.76117 0
M  V30 5371 C 491.236 2.68487 -1.35407 0
M  V30 5372 C 492.784 2.82368 -1.35046 0
M  V30 5373 C 493.259 4.02347 -2.18816 0
M  V30 5374 N 494.75 4.09542 -2.16402 0
M  V30 5375 C 495.485 5.01517 -2.77971 0
M  V30 5376 N 494.981 5.98763 -3.48503 0
M  V30 5377 N 496.774 4.94334 -2.67563 0
M  V30 5378 H 488.925 1.17055 -1.77234 0
M  V30 5379 H 491.188 0.573481 -0.754866 0
M  V30 5380 H 490.894 2.56829 -2.40274 0
M  V30 5381 H 490.768 3.63321 -1.01377 0
M  V30 5382 H 493.155 2.93471 -0.309604 0
M  V30 5383 H 493.236 1.88363 -1.73069 0
M  V30 5384 H 492.88 3.92004 -3.22948 0
M  V30 5385 H 492.81 4.95551 -1.78148 0
M  V30 5386 H 495.301 3.39932 -1.65091 0
M  V30 5387 H 495.614 6.6556 -3.92747 0
M  V30 5388 H 493.959 5.98909 -3.52609 0
M  V30 5389 H 497.15 4.1732 -2.12041 0
M  V30 5390 H 497.323 5.6582 -3.15834 0
M  V30 5391 N 490.729 0.570148 1.46925 0
M  V30 5392 C 491.676 -0.170257 2.30171 0
M  V30 5393 C 492.646 -0.896099 1.39855 0
M  V30 5394 O 493.831 -0.889248 1.68811 0
M  V30 5395 C 490.971 -1.18605 3.24079 0
M  V30 5396 C 490.084 -0.464947 4.29491 0
M  V30 5397 C 489.219 -1.46716 5.10537 0
M  V30 5398 C 488.258 -0.731758 6.0771 0
M  V30 5399 N 487.395 -1.68142 6.81669 0
M  V30 5400 H 492.235 0.545713 2.92961 0
M  V30 5401 H 489.772 0.280938 1.44392 0
M  V30 5402 H 491.73 -1.78771 3.76957 0
M  V30 5403 H 490.36 -1.86989 2.63125 0
M  V30 5404 H 489.412 0.251506 3.79568 0
M  V30 5405 H 490.724 0.110548 4.98677 0
M  V30 5406 H 489.878 -2.14199 5.6763 0
M  V30 5407 H 488.617 -2.07658 4.41282 0
M  V30 5408 H 487.622 -0.0430787 5.49783 0
M  V30 5409 H 488.847 -0.127904 6.7898 0
M  V30 5410 H 486.793 -2.27918 6.15134 0
M  V30 5411 H 486.71 -1.15841 7.47072 0
M  V30 5412 H 487.978 -2.347 7.43328 0
M  V30 5413 N 492.207 -1.54576 0.307264 0
M  V30 5414 C 493.137 -2.26708 -0.55907 0
M  V30 5415 C 494.118 -1.26893 -1.1328 0
M  V30 5416 O 495.303 -1.55677 -1.16097 0
M  V30 5417 C 492.433 -3.01259 -1.72801 0
M  V30 5418 C 491.387 -4.08275 -1.28435 0
M  V30 5419 C 490.713 -4.70575 -2.53895 0
M  V30 5420 C 492.013 -5.2068 -0.411038 0
M  V30 5421 H 493.707 -2.9937 0.042576 0
M  V30 5422 H 491.253 -1.43983 0.0219173 0
M  V30 5423 H 493.206 -3.50444 -2.34023 0
M  V30 5424 H 491.93 -2.26187 -2.356 0
M  V30 5425 H 490.589 -3.59949 -0.695161 0
M  V30 5426 H 490.237 -3.92136 -3.15021 0
M  V30 5427 H 489.937 -5.42854 -2.24908 0
M  V30 5428 H 491.461 -5.22527 -3.15908 0
M  V30 5429 H 492.875 -5.65721 -0.929097 0
M  V30 5430 H 491.272 -5.99716 -0.214664 0
M  V30 5431 H 492.342 -4.81629 0.562287 0
M  V30 5432 N 493.685 -0.035106 -1.57561 0
M  V30 5433 C 494.925 0.646316 -1.93913 0
M  V30 5434 C 495.289 1.68947 -0.912185 0
M  V30 5435 O 496.49 2.42381 -1.1621 0
M  V30 5436 C 494.761 1.24136 -3.35149 0
M  V30 5437 S 496.32 1.94302 -3.93436 0
M  V30 5438 H 493.138 0.212642 -0.678457 0
M  V30 5439 H 495.74 -0.100203 -1.95243 0
M  V30 5440 H 494.444 0.46979 -4.07702 0
M  V30 5441 H 493.975 2.02505 -3.37276 0
M  V30 5442 H 495.99 3.22205 -3.77357 0
M  V30 5443 N 495.163 1.55791 0.238111 0
M  V30 5444 C 496.111 1.91885 1.31464 0
M  V30 5445 C 497.105 0.798929 1.49377 0
M  V30 5446 O 498.311 0.983626 1.50747 0
M  V30 5447 H 494.686 0.609551 0.440399 0
M  V30 5448 H 496.657 2.81747 0.982925 0
M  V30 5449 C 495.406 2.23763 2.6613 0
M  V30 5450 H 494.729 3.09444 2.53149 0
M  V30 5451 H 496.169 2.52915 3.40309 0
M  V30 5452 C 494.628 1.05699 3.1989 0
M  V30 5453 O 495.158 0.309524 4.00506 0
M  V30 5454 N 493.364 0.845251 2.78036 0
M  V30 5455 H 492.911 1.4548 2.12588 0
M  V30 5456 H 492.869 0.0569973 3.14348 0
M  V30 5457 N 496.642 -0.504142 1.49319 0
M  V30 5458 C 497.882 -1.26867 1.60263 0
M  V30 5459 C 498.246 -1.89924 0.281578 0
M  V30 5460 O 499.447 -2.67479 0.266176 0
M  V30 5461 C 497.718 -2.30956 2.72753 0
M  V30 5462 S 499.277 -3.1679 3.03628 0
M  V30 5463 H 496.095 -0.431198 0.565322 0
M  V30 5464 H 498.697 -0.571407 1.86963 0
M  V30 5465 H 497.401 -1.83156 3.67263 0
M  V30 5466 H 496.932 -3.05356 2.48035 0
M  V30 5467 H 498.947 -4.31549 2.44908 0
M  V30 5468 N 498.12 -1.38341 -0.754957 0
M  V30 5469 C 499.067 -1.3546 -1.86867 0
M  V30 5470 C 500.037 -0.217369 -1.64672 0
M  V30 5471 O 501.222 -0.409383 -1.86356 0
M  V30 5472 C 498.362 -1.18413 -3.24149 0
M  V30 5473 C 497.475 -2.41511 -3.58185 0
M  V30 5474 C 496.61 -2.17205 -4.84763 0
M  V30 5475 C 495.649 -3.36081 -5.11582 0
M  V30 5476 N 494.786 -3.11219 -6.29354 0
M  V30 5477 H 499.626 -2.30672 -1.88664 0
M  V30 5478 H 497.163 -1.14607 -0.922154 0
M  V30 5479 H 499.121 -1.06545 -4.03366 0
M  V30 5480 H 497.751 -0.268397 -3.21682 0
M  V30 5481 H 496.803 -2.64056 -2.73822 0
M  V30 5482 H 498.115 -3.30115 -3.73932 0
M  V30 5483 H 497.269 -2.02465 -5.7192 0
M  V30 5484 H 496.008 -1.25964 -4.71152 0
M  V30 5485 H 495.013 -3.51341 -4.22894 0
M  V30 5486 H 496.238 -4.28196 -5.27091 0
M  V30 5487 H 494.184 -2.22624 -6.17069 0
M  V30 5488 H 494.101 -3.93373 -6.45596 0
M  V30 5489 H 495.369 -3.00132 -7.19403 0
M  V30 5490 N 499.598 0.982988 -1.23187 0
M  V30 5491 C 500.53 2.07729 -0.968572 0
M  V30 5492 C 501.543 1.62702 0.0564821 0
M  V30 5493 O 502.732 1.77603 -0.178733 0
M  V30 5494 C 499.832 3.36071 -0.436974 0
M  V30 5495 C 499.005 4.10081 -1.52159 0
M  V30 5496 C 498.064 5.16701 -0.99532 0
M  V30 5497 O 497.09 5.43727 -1.68373 0
M  V30 5498 N 498.292 5.80226 0.178192 0
M  V30 5499 H 501.057 2.30894 -1.9107 0
M  V30 5500 H 498.618 1.14949 -1.1401 0
M  V30 5501 H 500.61 4.04639 -0.0700051 0
M  V30 5502 H 499.18 3.09893 0.410509 0
M  V30 5503 H 498.4 3.36004 -2.06144 0
M  V30 5504 H 499.688 4.56295 -2.25105 0
M  V30 5505 H 499.086 5.60651 0.754096 0
M  V30 5506 H 497.643 6.49982 0.486449 0
M  V30 5507 N 501.076 1.04316 1.18135 0
M  V30 5508 C 502.023 0.636398 2.21853 0
M  V30 5509 C 502.993 -0.357039 1.62217 0
M  V30 5510 O 504.178 -0.250453 1.89149 0
M  V30 5511 C 501.318 0.00812779 3.45099 0
M  V30 5512 C 500.431 1.04933 4.19062 0
M  V30 5513 C 499.566 0.389313 5.29771 0
M  V30 5514 C 498.605 1.41544 5.9551 0
M  V30 5515 N 497.742 0.78021 6.97751 0
M  V30 5516 H 502.582 1.52536 2.56002 0
M  V30 5517 H 500.119 0.76304 1.25762 0
M  V30 5518 H 502.077 -0.373497 4.15525 0
M  V30 5519 H 500.707 -0.844336 3.11562 0
M  V30 5520 H 499.759 1.54888 3.47439 0
M  V30 5521 H 501.071 1.82862 4.64072 0
M  V30 5522 H 500.225 -0.0463805 6.06682 0
M  V30 5523 H 498.964 -0.422038 4.8587 0
M  V30 5524 H 497.969 1.86124 5.17337 0
M  V30 5525 H 499.194 2.22854 6.41493 0
M  V30 5526 H 497.14 -0.0107899 6.55999 0
M  V30 5527 H 497.057 1.49716 7.41027 0
M  V30 5528 H 498.325 0.368996 7.78626 0
M  V30 5529 N 502.554 -1.34406 0.822964 0
M  V30 5530 C 503.965 -1.8069 0.469879 0
M  V30 5531 C 504.316 -1.68223 -1.00972 0
M  V30 5532 O 503.441 -1.22226 -1.78577 0
M  V30 5533 C 504.036 -3.28064 0.846118 0
M  V30 5534 C 502.595 -3.72428 0.545402 0
M  V30 5535 C 501.742 -2.56116 1.06301 0
M  V30 5536 H 504.693 -1.22153 1.01313 0
M  V30 5537 H 504.714 -3.80205 0.149922 0
M  V30 5538 H 504.226 -3.37107 1.92304 0
M  V30 5539 H 502.327 -3.68924 -0.522109 0
M  V30 5540 H 502.44 -4.66548 1.0895 0
M  V30 5541 H 500.804 -2.50048 0.484554 0
M  V30 5542 H 501.587 -2.67928 2.14638 0
M  V30 5543 N 504.032 -0.577932 -1.46621 0
M  V30 5544 C 505.26 -0.0671642 -2.06791 0
M  V30 5545 C 505.675 1.23571 -1.42743 0
M  V30 5546 O 505.032 1.74602 -0.531062 0
M  V30 5547 C 505.083 0.110357 -3.61332 0
M  V30 5548 O 504.804 -1.14095 -4.22982 0
M  V30 5549 C 506.305 0.656025 -4.38419 0
M  V30 5550 H 503.525 -0.0552732 -0.66872 0
M  V30 5551 H 506.069 -0.797242 -1.8832 0
M  V30 5552 H 504.224 0.790637 -3.79246 0
M  V30 5553 H 504.638 -0.951742 -5.15793 0
M  V30 5554 H 506.112 0.729438 -5.47159 0
M  V30 5555 H 506.589 1.67195 -4.06131 0
M  V30 5556 H 507.195 0.0107692 -4.25299 0
M  V30 5557 N 505.51 1.54411 -0.315457 0
M  V30 5558 C 506.42 2.27737 0.56329 0
M  V30 5559 C 507.436 1.31787 1.13614 0
M  V30 5560 O 508.612 1.64791 1.15784 0
M  V30 5561 C 505.677 3.01478 1.71207 0
M  V30 5562 C 504.738 4.12997 1.17185 0
M  V30 5563 C 503.971 4.83212 2.26588 0
M  V30 5564 O 504.194 4.52884 3.46775 0
M  V30 5565 O 503.128 5.70299 1.92463 0
M  V30 5566 H 506.954 3.03683 -0.0319614 0
M  V30 5567 H 504.539 1.49178 -0.0814188 0
M  V30 5568 H 506.421 3.47683 2.38106 0
M  V30 5569 H 505.096 2.28414 2.29366 0
M  V30 5570 H 504.003 3.71159 0.468174 0
M  V30 5571 H 505.336 4.8808 0.635501 0
M  V30 5572 N 506.988 0.0434614 1.5754 0
M  V30 5573 C 507.935 -0.93356 2.11077 0
M  V30 5574 C 508.905 -1.31383 1.01626 0
M  V30 5575 O 510.09 -1.40465 1.29129 0
M  V30 5576 C 507.23 -2.20578 2.65404 0
M  V30 5577 C 506.343 -1.88068 3.88914 0
M  V30 5578 C 505.478 -3.09691 4.31584 0
M  V30 5579 C 504.517 -2.73067 5.47815 0
M  V30 5580 N 503.654 -3.87359 5.85574 0
M  V30 5581 H 508.494 -0.470118 2.94268 0
M  V30 5582 H 506.031 -0.220434 1.45439 0
M  V30 5583 H 507.989 -2.95011 2.94999 0
M  V30 5584 H 506.619 -2.64513 1.85021 0
M  V30 5585 H 505.671 -1.03816 3.6596 0
M  V30 5586 H 506.983 -1.57104 4.73413 0
M  V30 5587 H 506.137 -3.92431 4.62691 0
M  V30 5588 H 504.876 -3.43827 3.45882 0
M  V30 5589 H 503.881 -1.88742 5.16388 0
M  V30 5590 H 505.106 -2.40131 6.35227 0
M  V30 5591 H 503.052 -4.21311 5.02825 0
M  V30 5592 H 502.969 -3.60068 6.64746 0
M  V30 5593 H 504.237 -4.70761 6.21292 0
M  V30 5594 N 508.466 -1.55915 -0.229846 0
M  V30 5595 C 509.877 -1.68809 -0.797531 0
M  V30 5596 C 510.228 -0.643995 -1.8533 0
M  V30 5597 O 509.353 0.206492 -2.15413 0
M  V30 5598 C 509.948 -3.06043 -1.45338 0
M  V30 5599 C 508.507 -3.20819 -1.96856 0
M  V30 5600 C 507.654 -2.6472 -0.825736 0
M  V30 5601 H 510.605 -1.58699 -0.00533733 0
M  V30 5602 H 510.626 -3.01438 -2.32196 0
M  V30 5603 H 510.138 -3.82012 -0.684743 0
M  V30 5604 H 508.239 -2.49704 -2.76548 0
M  V30 5605 H 508.352 -4.27937 -2.15423 0
M  V30 5606 H 506.716 -2.22985 -1.23084 0
M  V30 5607 H 507.499 -3.43229 -0.0699019 0
M  V30 5608 N 509.944 0.496216 -1.49584 0
M  V30 5609 C 510.907 1.57952 -1.66084 0
M  V30 5610 C 511.907 1.51729 -0.53244 0
M  V30 5611 O 513.097 1.54796 -0.79899 0
M  V30 5612 C 510.229 2.97604 -1.66268 0
M  V30 5613 H 511.422 1.44649 -2.6271 0
M  V30 5614 H 508.975 0.7208 -1.38687 0
M  V30 5615 H 509.71 3.16378 -0.712432 0
M  V30 5616 H 509.495 3.03528 -2.4822 0
M  V30 5617 H 510.985 3.76301 -1.81073 0
M  V30 5618 N 511.423 1.38739 0.74761 0
M  V30 5619 C 512.371 1.36573 1.88283 0
M  V30 5620 C 513.365 0.250712 1.67534 0
M  V30 5621 O 514.571 0.420073 1.7503 0
M  V30 5622 H 510.946 0.42619 0.619569 0
M  V30 5623 H 512.917 2.32356 1.87226 0
M  V30 5624 C 511.666 1.21361 3.25832 0
M  V30 5625 H 510.989 2.06424 3.42388 0
M  V30 5626 H 512.429 1.23901 4.05493 0
M  V30 5627 C 510.888 -0.0790099 3.36807 0
M  V30 5628 O 511.418 -1.05385 3.8763 0
M  V30 5629 N 509.624 -0.13785 2.90273 0
M  V30 5630 H 509.171 0.656128 2.49104 0
M  V30 5631 H 509.129 -1.00228 2.97996 0
M  V30 5632 N 512.901 -0.976442 1.23707 0
M  V30 5633 C 514.131 -1.75087 1.09673 0
M  V30 5634 C 514.539 -1.85852 -0.354344 0
M  V30 5635 O 513.882 -1.33985 -1.25673 0
M  V30 5636 C 513.944 -3.19272 1.65245 0
M  V30 5637 C 513.608 -3.32004 3.14042 0
M  V30 5638 C 514.605 -3.18017 4.11292 0
M  V30 5639 C 512.29 -3.56525 3.53829 0
M  V30 5640 C 514.284 -3.28363 5.46312 0
M  V30 5641 C 511.971 -3.6651 4.88993 0
M  V30 5642 C 512.969 -3.52439 5.85043 0
M  V30 5643 O 512.657 -3.62063 7.1775 0
M  V30 5644 H 512.389 -0.556164 0.384262 0
M  V30 5645 H 514.943 -1.23518 1.64111 0
M  V30 5646 H 513.173 -3.72107 1.05231 0
M  V30 5647 H 514.862 -3.7849 1.46629 0
M  V30 5648 H 515.628 -2.98966 3.81896 0
M  V30 5649 H 511.507 -3.66547 2.79579 0
M  V30 5650 H 515.051 -3.17297 6.21263 0
M  V30 5651 H 510.948 -3.85072 5.18063 0
M  V30 5652 H 511.716 -3.78833 7.25553 0
M  V30 5653 N 514.379 -1.04941 -1.1758 0
M  V30 5654 C 515.604 -0.778253 -1.92245 0
M  V30 5655 C 516.029 0.659707 -1.76152 0
M  V30 5656 O 515.387 1.45803 -1.07755 0
M  V30 5657 C 515.435 -1.16051 -3.41416 0
M  V30 5658 O 514.539 -0.291153 -4.11371 0
M  V30 5659 H 513.88 -0.285619 -0.599431 0
M  V30 5660 H 516.41 -1.40159 -1.49052 0
M  V30 5661 H 516.42 -1.12619 -3.92149 0
M  V30 5662 H 515.095 -2.208 -3.52449 0
M  V30 5663 H 513.672 -0.385851 -3.70898 0
M  V30 5664 N 515.857 1.33968 -0.830081 0
M  V30 5665 C 517.103 1.98357 -0.422191 0
M  V30 5666 C 517.436 1.65633 1.01387 0
M  V30 5667 O 516.711 0.931648 1.70735 0
M  V30 5668 C 516.994 3.54492 -0.633043 0
M  V30 5669 C 516.847 3.96934 -2.11574 0
M  V30 5670 C 518.166 4.40039 -0.0735584 0
M  V30 5671 H 515.285 0.720544 -0.154871 0
M  V30 5672 H 517.927 1.58749 -1.04397 0
M  V30 5673 H 516.077 3.88361 -0.103775 0
M  V30 5674 H 517.749 3.73363 -2.7092 0
M  V30 5675 H 515.992 3.46984 -2.60354 0
M  V30 5676 H 516.663 5.05651 -2.21406 0
M  V30 5677 H 519.139 4.12764 -0.52585 0
M  V30 5678 H 518.015 5.48327 -0.250841 0
M  V30 5679 H 518.276 4.30124 1.02202 0
M  V30 5680 N 517.335 0.585699 1.46312 0
M  V30 5681 C 518.298 -0.135673 2.28798 0
M  V30 5682 C 519.298 -0.815988 1.38558 0
M  V30 5683 O 520.488 -0.667487 1.60904 0
M  V30 5684 C 517.62 -1.20163 3.1902 0
M  V30 5685 H 518.813 0.589257 2.94054 0
M  V30 5686 H 516.366 0.343794 1.52472 0
M  V30 5687 H 517.101 -1.95804 2.58517 0
M  V30 5688 H 516.886 -0.718282 3.85465 0
M  V30 5689 H 518.376 -1.70749 3.81096 0
M  V30 5690 N 518.813 -1.54241 0.323641 0
M  V30 5691 C 519.743 -2.27289 -0.534993 0
M  V30 5692 C 520.724 -1.28087 -1.11927 0
M  V30 5693 O 521.909 -1.56899 -1.14439 0
M  V30 5694 C 519.039 -3.03075 -1.69596 0
M  V30 5695 C 517.993 -4.09614 -1.24098 0
M  V30 5696 C 517.319 -4.73242 -2.4889 0
M  V30 5697 C 518.619 -5.21087 -0.355789 0
M  V30 5698 H 520.313 -2.99308 0.0743257 0
M  V30 5699 H 517.859 -1.43952 0.0371874 0
M  V30 5700 H 519.812 -3.52907 -2.30293 0
M  V30 5701 H 518.536 -2.28673 -2.33187 0
M  V30 5702 H 517.195 -3.60666 -0.656945 0
M  V30 5703 H 516.843 -3.95455 -3.10845 0
M  V30 5704 H 516.543 -5.45209 -2.19138 0
M  V30 5705 H 518.067 -5.25848 -3.10348 0
M  V30 5706 H 519.481 -5.66675 -0.869042 0
M  V30 5707 H 517.878 -5.9991 -0.151045 0
M  V30 5708 H 518.948 -4.81005 0.613339 0
M  V30 5709 N 520.291 -0.0518155 -1.57515 0
M  V30 5710 C 521.239 0.940195 -2.12751 0
M  V30 5711 C 522.233 1.3218 -1.05948 0
M  V30 5712 O 523.439 1.30138 -1.24355 0
M  V30 5713 H 519.814 0.321066 -0.680015 0
M  V30 5714 H 521.785 0.449217 -2.94999 0
M  V30 5715 C 520.534 2.2055 -2.68799 0
M  V30 5716 H 519.857 1.92066 -3.50643 0
M  V30 5717 H 521.297 2.88119 -3.11068 0
M  V30 5718 C 519.756 2.95061 -1.62605 0
M  V30 5719 O 520.286 3.88025 -1.03921 0
M  V30 5720 N 518.492 2.57804 -1.34111 0
M  V30 5721 H 518.039 1.82281 -1.8202 0
M  V30 5722 H 517.997 3.07964 -0.632872 0
M  V30 5723 N 521.769 1.56035 0.221574 0
M  V30 5724 C 522.999 1.82864 0.961468 0
M  V30 5725 C 523.407 0.628703 1.78449 0
M  V30 5726 O 522.75 -0.412109 1.79018 0
M  V30 5727 C 522.812 3.03425 1.92804 0
M  V30 5728 C 522.476 4.38429 1.28954 0
M  V30 5729 C 523.473 5.15441 0.679431 0
M  V30 5730 C 521.158 4.85151 1.30131 0
M  V30 5731 C 523.152 6.37337 0.0896148 0
M  V30 5732 C 520.839 6.06989 0.707651 0
M  V30 5733 C 521.837 6.82923 0.102855 0
M  V30 5734 O 521.525 8.02456 -0.48157 0
M  V30 5735 H 521.257 0.611883 0.28736 0
M  V30 5736 H 523.811 2.0397 0.241932 0
M  V30 5737 H 522.041 2.78138 2.68656 0
M  V30 5738 H 523.73 3.17127 2.53348 0
M  V30 5739 H 524.496 4.80452 0.662661 0
M  V30 5740 H 520.375 4.26021 1.76145 0
M  V30 5741 H 523.919 6.96547 -0.383069 0
M  V30 5742 H 519.816 6.41451 0.721834 0
M  V30 5743 H 520.584 8.17636 -0.375887 0
M  V30 5744 N 523.247 -0.488276 1.49845 0
M  V30 5745 C 524.472 -1.26997 1.63971 0
M  V30 5746 C 524.897 -1.85427 0.315994 0
M  V30 5747 O 524.255 -1.66475 -0.718032 0
M  V30 5748 C 524.303 -2.36689 2.72049 0
M  V30 5749 O 523.407 -3.40882 2.32107 0
M  V30 5750 H 522.748 -0.374376 0.548396 0
M  V30 5751 H 525.278 -0.583104 1.96115 0
M  V30 5752 H 525.288 -2.82262 2.94605 0
M  V30 5753 H 523.963 -1.93529 3.68129 0
M  V30 5754 H 522.54 -3.01139 2.19931 0
M  V30 5755 N 524.725 -1.39134 -0.740242 0
M  V30 5756 C 525.971 -1.36273 -1.50192 0
M  V30 5757 C 526.304 0.0430136 -1.94152 0
M  V30 5758 O 525.579 1.00691 -1.66408 0
M  V30 5759 C 525.862 -2.33041 -2.74525 0
M  V30 5760 C 525.715 -3.82535 -2.36617 0
M  V30 5761 C 527.034 -2.27723 -3.76604 0
M  V30 5762 H 524.153 -0.496323 -0.544823 0
M  V30 5763 H 526.795 -1.70085 -0.846815 0
M  V30 5764 H 524.945 -2.04337 -3.30422 0
M  V30 5765 H 526.617 -4.21967 -1.86391 0
M  V30 5766 H 524.86 -3.99565 -1.68909 0
M  V30 5767 H 525.531 -4.45723 -3.2563 0
M  V30 5768 H 528.007 -2.53091 -3.30279 0
M  V30 5769 H 526.883 -2.97519 -4.61274 0
M  V30 5770 H 527.144 -1.28049 -4.2315 0
M  V30 5771 N 526.204 0.969867 -1.24223 0
M  V30 5772 C 527.453 1.70687 -1.07466 0
M  V30 5773 C 527.766 1.91736 0.386861 0
M  V30 5774 O 528.972 2.62986 0.674581 0
M  V30 5775 C 527.428 3.07217 -1.87472 0
M  V30 5776 C 527.036 2.94018 -3.3802 0
M  V30 5777 C 528.78 3.84804 -1.79237 0
M  V30 5778 C 526.687 4.25844 -4.10379 0
M  V30 5779 H 525.617 0.640067 -0.398536 0
M  V30 5780 H 528.268 1.08092 -1.48285 0
M  V30 5781 H 526.65 3.70628 -1.39466 0
M  V30 5782 H 527.824 2.39632 -3.9359 0
M  V30 5783 H 526.139 2.29898 -3.47183 0
M  V30 5784 H 528.736 4.82417 -2.30603 0
M  V30 5785 H 529.079 4.09356 -0.757197 0
M  V30 5786 H 529.612 3.28115 -2.24912 0
M  V30 5787 H 526.351 4.06486 -5.14246 0
M  V30 5788 H 525.871 4.80054 -3.59594 0
M  V30 5789 H 527.55 4.94475 -4.17257 0
M  V30 5790 N 527.682 1.05563 1.17022 0
M  V30 5791 C 528.629 0.659893 2.21165 0
M  V30 5792 C 529.599 -0.339813 1.62587 0
M  V30 5793 O 530.784 -0.230378 1.89404 0
M  V30 5794 C 527.924 0.0447297 3.45071 0
M  V30 5795 C 527.037 1.09372 4.17926 0
M  V30 5796 C 526.172 0.445481 5.29329 0
M  V30 5797 C 525.211 1.47852 5.93975 0
M  V30 5798 N 524.348 0.854172 6.96885 0
M  V30 5799 H 529.188 1.55243 2.54369 0
M  V30 5800 H 526.725 0.776336 1.24946 0
M  V30 5801 H 528.683 -0.329404 4.15898 0
M  V30 5802 H 527.313 -0.811244 3.1244 0
M  V30 5803 H 526.365 1.58564 3.45777 0
M  V30 5804 H 527.677 1.87773 4.62107 0
M  V30 5805 H 526.831 0.0179688 6.06697 0
M  V30 5806 H 525.57 -0.370481 4.86291 0
M  V30 5807 H 524.575 1.91601 5.15334 0
M  V30 5808 H 525.8 2.29645 6.39093 0
M  V30 5809 H 523.746 0.0587882 6.55974 0
M  V30 5810 H 523.663 1.57567 7.39397 0
M  V30 5811 H 524.931 0.451559 7.78191 0
M  V30 5812 N 529.16 -1.33526 0.837174 0
M  V30 5813 C 530.07 -2.33023 0.271568 0
M  V30 5814 C 531.086 -1.63272 -0.601514 0
M  V30 5815 O 532.262 -1.94939 -0.506038 0
M  V30 5816 C 529.327 -3.42382 -0.545448 0
M  V30 5817 C 528.388 -4.27857 0.351709 0
M  V30 5818 C 527.621 -5.31994 -0.426409 0
M  V30 5819 O 527.844 -5.45763 -1.65828 0
M  V30 5820 O 526.778 -6.01572 0.1987 0
M  V30 5821 H 530.604 -2.83256 1.09545 0
M  V30 5822 H 528.189 -1.36837 0.599655 0
M  V30 5823 H 530.071 -4.09122 -1.00979 0
M  V30 5824 H 528.746 -2.94369 -1.34641 0
M  V30 5825 H 527.653 -3.6399 0.863853 0
M  V30 5826 H 528.986 -4.79349 1.1174 0
M  V30 5827 N 530.638 -0.59345 -1.46 0
M  V30 5828 C 531.863 -0.0872365 -2.07216 0
M  V30 5829 C 532.288 1.2131 -1.43755 0
M  V30 5830 O 531.646 1.73528 -0.525152 0
M  V30 5831 C 531.694 0.0538197 -3.6056 0
M  V30 5832 O 530.798 1.10765 -3.97247 0
M  V30 5833 H 530.139 -0.0676598 -0.660544 0
M  V30 5834 H 532.669 -0.819445 -1.87473 0
M  V30 5835 H 532.679 0.256567 -4.07193 0
M  V30 5836 H 531.354 -0.895739 -4.0614 0
M  V30 5837 H 529.931 0.882501 -3.62307 0
M  V30 5838 N 532.116 1.54067 -0.331816 0
M  V30 5839 C 533.393 1.92915 0.322955 0
M  V30 5840 C 533.773 1.26225 1.69205 0
M  V30 5841 O 533.121 0.408919 2.24811 0
M  V30 5842 C 533.331 3.46619 0.406946 0
M  V30 5843 C 534.679 4.19386 0.663339 0
M  V30 5844 O 535.703 3.5282 0.489536 0
M  V30 5845 O 534.562 5.37288 0.999193 0
M  V30 5846 H 531.656 0.805808 0.186016 0
M  V30 5847 H 534.202 1.65342 -0.382135 0
M  V30 5848 H 532.974 3.87354 -0.554287 0
M  V30 5849 H 532.597 3.80324 1.15929 0
M  V30 5850 N 533.594 0.0601682 1.57485 0
M  V30 5851 C 534.544 -0.920969 2.08572 0
M  V30 5852 C 535.528 -1.26617 0.992827 0
M  V30 5853 O 536.72 -1.24708 1.25606 0
M  V30 5854 C 533.849 -2.19267 2.64153 0
M  V30 5855 C 532.935 -1.87447 3.80427 0
M  V30 5856 N 533.326 -1.26025 4.89848 0
M  V30 5857 C 531.624 -2.17265 3.89502 0
M  V30 5858 C 532.325 -1.12036 5.70809 0
M  V30 5859 N 531.301 -1.62624 5.18705 0
M  V30 5860 H 535.103 -0.441561 2.90564 0
M  V30 5861 H 532.617 -0.144043 1.6176 0
M  V30 5862 H 534.614 -2.90462 2.99061 0
M  V30 5863 H 533.274 -2.67806 1.83603 0
M  V30 5864 H 534.285 -0.931336 5.09457 0
M  V30 5865 H 530.962 -2.68262 3.19909 0
M  V30 5866 H 532.352 -0.642783 6.68818 0
M  V30 5867 N 535.072 -1.5615 -0.213296 0
M  V30 5868 C 536.319 -1.79546 -0.936462 0
M  V30 5869 C 536.647 -0.630337 -1.84003 0
M  V30 5870 O 535.902 0.384883 -1.91878 0
M  V30 5871 C 536.201 -3.08772 -1.79985 0
M  V30 5872 C 535.867 -4.38532 -1.04882 0
M  V30 5873 C 534.529 -4.73787 -0.841393 0
M  V30 5874 C 536.881 -5.18609 -0.51907 0
M  V30 5875 C 534.209 -5.86627 -0.0924403 0
M  V30 5876 C 536.561 -6.32229 0.216581 0
M  V30 5877 C 535.225 -6.6608 0.435191 0
M  V30 5878 H 534.495 -0.657004 -0.342676 0
M  V30 5879 H 537.142 -1.9041 -0.204051 0
M  V30 5880 H 535.447 -2.93065 -2.60038 0
M  V30 5881 H 537.144 -3.24077 -2.36168 0
M  V30 5882 H 533.734 -4.10855 -1.22048 0
M  V30 5883 H 537.918 -4.91801 -0.666775 0
M  V30 5884 H 533.174 -6.11338 0.087081 0
M  V30 5885 H 537.348 -6.93503 0.634538 0
M  V30 5886 H 534.975 -7.5336 1.01746 0
M  V30 5887 N 536.55 0.480323 -1.50102 0
M  V30 5888 C 537.775 1.26126 -1.64642 0
M  V30 5889 C 538.2 1.85257 -0.325823 0
M  V30 5890 O 537.558 1.66854 0.709194 0
M  V30 5891 C 537.606 2.35243 -2.73301 0
M  V30 5892 O 536.71 3.39646 -2.33911 0
M  V30 5893 H 536.051 0.371463 -0.550374 0
M  V30 5894 H 538.581 0.572696 -1.96421 0
M  V30 5895 H 538.591 2.80695 -2.96098 0
M  V30 5896 H 537.266 1.91574 -3.6915 0
M  V30 5897 H 535.843 2.99969 -2.21525 0
M  V30 5898 N 538.028 1.39524 0.732853 0
M  V30 5899 C 539.256 1.40143 1.52209 0
M  V30 5900 C 539.671 -0.00348836 1.888 0
M  V30 5901 O 539.028 -0.975357 1.5425 0
M  V30 5902 C 539.079 2.27632 2.8083 0
M  V30 5903 O 538.8 3.62654 2.45792 0
M  V30 5904 C 540.301 2.36658 3.74844 0
M  V30 5905 H 537.521 0.478604 0.470297 0
M  V30 5906 H 540.065 1.83366 0.905388 0
M  V30 5907 H 538.22 1.87818 3.38826 0
M  V30 5908 H 538.634 4.08941 3.28431 0
M  V30 5909 H 540.108 3.02118 4.61984 0
M  V30 5910 H 540.585 1.38638 4.16745 0
M  V30 5911 H 541.191 2.76951 3.22766 0
M  V30 5912 N 539.506 -0.963266 1.24736 0
M  V30 5913 C 540.416 -2.09246 1.06082 0
M  V30 5914 C 541.432 -1.74 0.000363101 0
M  V30 5915 O 542.608 -2.0041 0.199479 0
M  V30 5916 C 539.673 -3.40115 0.672498 0
M  V30 5917 C 538.734 -3.89282 1.80993 0
M  V30 5918 C 537.967 -5.13905 1.44004 0
M  V30 5919 O 538.19 -5.69434 0.331835 0
M  V30 5920 O 537.124 -5.57566 2.26723 0
M  V30 5921 H 540.95 -2.27881 2.00759 0
M  V30 5922 H 538.535 -1.07649 1.03595 0
M  V30 5923 H 540.417 -4.18797 0.467668 0
M  V30 5924 H 539.092 -3.22771 -0.245102 0
M  V30 5925 H 537.999 -3.11642 2.06955 0
M  V30 5926 H 539.332 -4.1111 2.70646 0
M  V30 5927 N 540.985 -1.06182 -1.16461 0
M  V30 5928 C 541.915 -0.692861 -2.22984 0
M  V30 5929 C 542.896 0.314122 -1.67174 0
M  V30 5930 O 544.081 0.189499 -1.93273 0
M  V30 5931 C 541.211 -0.07732 -3.47214 0
M  V30 5932 C 540.165 -1.01015 -4.15909 0
M  V30 5933 C 539.491 -0.257973 -5.34077 0
M  V30 5934 C 540.791 -2.33868 -4.67015 0
M  V30 5935 H 542.485 -1.58343 -2.54102 0
M  V30 5936 H 540.031 -0.76279 -1.22137 0
M  V30 5937 H 541.984 0.19266 -4.20959 0
M  V30 5938 H 540.708 0.848254 -3.15392 0
M  V30 5939 H 539.367 -1.26486 -3.44088 0
M  V30 5940 H 539.015 0.670684 -4.98509 0
M  V30 5941 H 538.715 -0.879638 -5.80979 0
M  V30 5942 H 540.239 0.00448788 -6.106 0
M  V30 5943 H 541.653 -2.1279 -5.32347 0
M  V30 5944 H 540.05 -2.91522 -5.24533 0
M  V30 5945 H 541.12 -2.97019 -3.83286 0
M  V30 5946 N 542.463 1.3308 -0.844243 0
M  V30 5947 C 543.74 1.92178 -0.364261 0
M  V30 5948 C 544.12 1.76961 1.15101 0
M  V30 5949 O 543.468 1.16128 1.9679 0
M  V30 5950 C 543.678 3.393 -0.817106 0
M  V30 5951 C 545.026 4.16444 -0.828236 0
M  V30 5952 O 546.05 3.47975 -0.761062 0
M  V30 5953 O 544.909 5.38685 -0.920926 0
M  V30 5954 H 542.003 0.820411 -0.10419 0
M  V30 5955 H 544.549 1.41918 -0.930453 0
M  V30 5956 H 543.321 3.44272 -1.85991 0
M  V30 5957 H 542.944 3.96947 -0.227785 0
M  V30 5958 N 543.941 0.601185 1.45683 0
M  V30 5959 C 545.218 0.0261659 1.95582 0
M  V30 5960 C 545.598 -1.4399 1.5437 0
M  V30 5961 O 544.946 -2.13919 0.80318 0
M  V30 5962 C 545.156 0.217557 3.48321 0
M  V30 5963 C 546.504 0.0950076 4.24494 0
M  V30 5964 O 547.528 0.147345 3.55895 0
M  V30 5965 O 546.387 -0.025261 5.46494 0
M  V30 5966 H 543.481 -0.0393688 0.826062 0
M  V30 5967 H 546.027 0.670798 1.55879 0
M  V30 5968 H 544.799 1.23601 3.71266 0
M  V30 5969 H 544.422 -0.46264 3.94899 0
M  V30 5970 N 545.419 -1.53889 0.339982 0
M  V30 5971 C 546.668 -2.00035 -0.258604 0
M  V30 5972 C 546.981 -1.23179 -1.51942 0
M  V30 5973 O 548.187 -1.59784 -2.19503 0
M  V30 5974 C 546.643 -3.56249 -0.511359 0
M  V30 5975 C 546.251 -4.41957 0.733349 0
M  V30 5976 C 547.995 -4.1082 -1.069 0
M  V30 5977 C 545.902 -5.89673 0.451591 0
M  V30 5978 H 544.832 -0.747284 -0.10041 0
M  V30 5979 H 547.483 -1.77776 0.454758 0
M  V30 5980 H 545.865 -3.7456 -1.28533 0
M  V30 5981 H 547.039 -4.35421 1.50815 0
M  V30 5982 H 545.354 -3.9836 1.21237 0
M  V30 5983 H 547.951 -5.18789 -1.2947 0
M  V30 5984 H 548.294 -3.63817 -2.02343 0
M  V30 5985 H 548.827 -3.96205 -0.355817 0
M  V30 5986 H 545.566 -6.40903 1.37565 0
M  V30 5987 H 545.086 -5.99122 -0.285193 0
M  V30 5988 H 546.765 -6.46965 0.0675067 0
M  V30 5989 N 546.897 -0.0685191 -1.57451 0
M  V30 5990 C 548.125 0.610462 -1.97689 0
M  V30 5991 C 548.54 1.63346 -0.946758 0
M  V30 5992 O 547.897 1.82377 0.0669868 0
M  V30 5993 C 547.948 1.28196 -3.38006 0
M  V30 5994 O 547.669 0.299906 -4.37072 0
M  V30 5995 C 549.17 2.04907 -3.931 0
M  V30 5996 H 546.39 0.165689 -0.650222 0
M  V30 5997 H 548.934 -0.139953 -2.04021 0
M  V30 5998 H 547.089 1.98348 -3.32771 0
M  V30 5999 H 547.503 0.78126 -5.18649 0
M  V30 6000 H 548.977 2.47287 -4.93511 0
M  V30 6001 H 549.454 2.9043 -3.29465 0
M  V30 6002 H 550.06 1.39629 -4.01726 0
M  V30 6003 N 548.375 1.56261 0.205012 0
M  V30 6004 C 549.621 1.80306 0.9283 0
M  V30 6005 C 549.954 0.640932 1.83319 0
M  V30 6006 O 549.229 -0.359032 1.91158 0
M  V30 6007 C 549.512 3.14547 1.75306 0
M  V30 6008 C 549.365 4.41236 0.873562 0
M  V30 6009 C 550.684 3.45382 2.72762 0
M  V30 6010 H 547.803 0.655929 0.336044 0
M  V30 6011 H 550.445 1.88984 0.196211 0
M  V30 6012 H 548.595 3.0728 2.37721 0
M  V30 6013 H 550.267 4.60539 0.264887 0
M  V30 6014 H 548.51 4.33427 0.179773 0
M  V30 6015 H 549.181 5.31639 1.48541 0
M  V30 6016 H 551.657 3.52884 2.20481 0
M  V30 6017 H 550.533 4.40449 3.2756 0
M  V30 6018 H 550.794 2.68377 3.51321 0
M  V30 6019 N 549.853 -0.472356 1.50355 0
M  V30 6020 C 551.081 -1.24784 1.65035 0
M  V30 6021 C 551.496 -1.85837 0.333176 0
M  V30 6022 O 550.853 -1.69168 -0.68472 0
M  V30 6023 C 550.904 -2.35747 2.74054 0
M  V30 6024 O 550.625 -1.77197 4.00665 0
M  V30 6025 C 552.126 -3.26645 2.99696 0
M  V30 6026 H 549.346 -0.377432 0.554785 0
M  V30 6027 H 551.89 -0.563962 1.9657 0
M  V30 6028 H 550.045 -2.99912 2.45217 0
M  V30 6029 H 550.459 -2.5026 4.60945 0
M  V30 6030 H 551.933 -4.00718 3.79644 0
M  V30 6031 H 552.41 -3.8535 2.10718 0
M  V30 6032 H 553.016 -2.68218 3.3006 0
M  V30 6033 N 551.331 -1.39911 -0.725443 0
M  V30 6034 C 552.608 -1.28158 -1.47766 0
M  V30 6035 C 552.988 0.104545 -2.10841 0
M  V30 6036 O 552.336 1.11657 -1.99361 0
M  V30 6037 C 552.546 -2.41306 -2.52135 0
M  V30 6038 C 553.894 -2.81076 -3.18247 0
M  V30 6039 O 554.918 -2.40827 -2.62452 0
M  V30 6040 O 553.777 -3.50581 -4.19231 0
M  V30 6041 H 550.871 -0.502761 -0.656628 0
M  V30 6042 H 553.417 -1.51808 -0.758456 0
M  V30 6043 H 552.189 -3.33932 -2.03974 0
M  V30 6044 H 551.812 -2.19374 -3.31603 0
M  V30 6045 N 552.809 0.956637 -1.25245 0
M  V30 6046 C 554.037 1.73571 -1.12608 0
M  V30 6047 C 554.452 1.86063 0.320324 0
M  V30 6048 O 553.809 1.35691 1.22042 0
M  V30 6049 C 553.86 3.15053 -1.77268 0
M  V30 6050 O 553.581 3.03174 -3.16255 0
M  V30 6051 C 555.082 4.09248 -1.70386 0
M  V30 6052 H 552.302 0.543955 -0.392879 0
M  V30 6053 H 554.846 1.20031 -1.65568 0
M  V30 6054 H 553.001 3.65543 -1.28284 0
M  V30 6055 H 553.415 3.9241 -3.48015 0
M  V30 6056 H 554.889 5.06138 -2.20291 0
M  V30 6057 H 555.366 4.34102 -0.667239 0
M  V30 6058 H 555.972 3.64672 -2.18849 0
M  V30 6059 N 554.287 1.06798 1.15896 0
M  V30 6060 C 555.517 0.807522 1.90165 0
M  V30 6061 C 555.925 -0.642417 1.7796 0
M  V30 6062 O 555.268 -1.45193 1.12537 0
M  V30 6063 C 555.33 1.12939 3.41299 0
M  V30 6064 C 554.994 2.57879 3.7729 0
M  V30 6065 C 555.991 3.56118 3.78782 0
M  V30 6066 C 553.676 2.93311 4.07767 0
M  V30 6067 C 555.67 4.87827 4.10248 0
M  V30 6068 C 553.357 4.25219 4.38899 0
M  V30 6069 C 554.355 5.22287 4.4012 0
M  V30 6070 O 554.043 6.51826 4.70508 0
M  V30 6071 H 553.775 0.291946 0.609708 0
M  V30 6072 H 556.329 1.42627 1.47806 0
M  V30 6073 H 554.559 0.45359 3.84031 0
M  V30 6074 H 556.248 0.852363 3.9685 0
M  V30 6075 H 557.014 3.30086 3.55342 0
M  V30 6076 H 552.893 2.18409 4.05979 0
M  V30 6077 H 556.437 5.63586 4.11116 0
M  V30 6078 H 552.334 4.51006 4.61805 0
M  V30 6079 H 553.102 6.56893 4.88298 0
M  V30 6080 N 555.766 -1.3263 0.851289 0
M  V30 6081 C 556.696 -2.31449 0.308771 0
M  V30 6082 C 557.677 -1.59531 -0.590255 0
M  V30 6083 O 558.862 -1.87351 -0.511205 0
M  V30 6084 C 555.992 -3.43586 -0.506548 0
M  V30 6085 C 554.946 -4.26963 0.297753 0
M  V30 6086 C 554.272 -5.30831 -0.642094 0
M  V30 6087 C 555.572 -4.99643 1.52166 0
M  V30 6088 H 557.266 -2.77074 1.13447 0
M  V30 6089 H 554.812 -1.33207 0.546971 0
M  V30 6090 H 556.765 -4.11754 -0.896474 0
M  V30 6091 H 555.489 -2.96681 -1.36558 0
M  V30 6092 H 554.148 -3.60437 0.669391 0
M  V30 6093 H 553.796 -4.8018 -1.49788 0
M  V30 6094 H 553.496 -5.87501 -0.107968 0
M  V30 6095 H 555.02 -6.01862 -1.02927 0
M  V30 6096 H 556.434 -5.6051 1.20421 0
M  V30 6097 H 554.831 -5.66022 1.99347 0
M  V30 6098 H 555.901 -4.27701 2.28474 0
M  V30 6099 N 557.244 -0.608902 -1.45362 0
M  V30 6100 C 558.469 -0.10921 -2.07112 0
M  V30 6101 C 558.894 1.19779 -1.45033 0
M  V30 6102 O 558.252 1.72961 -0.543527 0
M  V30 6103 C 558.3 0.0155745 -3.60597 0
M  V30 6104 O 557.404 1.06546 -3.98399 0
M  V30 6105 H 556.745 -0.0746619 -0.659789 0
M  V30 6106 H 559.275 -0.839283 -1.86594 0
M  V30 6107 H 559.285 0.213364 -4.07442 0
M  V30 6108 H 557.96 -0.938765 -4.05167 0
M  V30 6109 H 556.537 0.844024 -3.63223 0
M  V30 6110 N 558.722 1.53707 -0.348139 0
M  V30 6111 C 559.685 2.23812 0.494058 0
M  V30 6112 C 560.685 1.23989 1.02388 0
M  V30 6113 O 561.875 1.48395 0.912396 0
M  V30 6114 C 559.007 2.96133 1.68872 0
M  V30 6115 H 560.2 2.99663 -0.119141 0
M  V30 6116 H 557.753 1.55983 -0.0995539 0
M  V30 6117 H 558.488 2.24481 2.34049 0
M  V30 6118 H 558.273 3.69357 1.31596 0
M  V30 6119 H 559.763 3.49475 2.28597 0
M  V30 6120 N 560.2 0.0768682 1.57412 0
M  V30 6121 C 561.428 -0.59997 1.9801 0
M  V30 6122 C 561.843 -1.62842 0.955408 0
M  V30 6123 O 561.2 -1.8241 -0.057314 0
M  V30 6124 C 561.251 -1.26401 3.38681 0
M  V30 6125 O 560.972 -0.276723 4.37225 0
M  V30 6126 C 562.473 -2.0282 3.94182 0
M  V30 6127 H 559.693 -0.162239 0.651091 0
M  V30 6128 H 562.237 0.150771 2.03943 0
M  V30 6129 H 560.392 -1.96581 3.33819 0
M  V30 6130 H 560.806 -0.753744 5.19056 0
M  V30 6131 H 562.28 -2.44667 4.94815 0
M  V30 6132 H 562.757 -2.88678 3.31001 0
M  V30 6133 H 563.363 -1.37496 4.02461 0
M  V30 6134 N 561.678 -1.56367 -0.196722 0
M  V30 6135 C 562.625 -1.94417 -1.24382 0
M  V30 6136 C 563.595 -0.804543 -1.45315 0
M  V30 6137 O 564.78 -1.06256 -1.58475 0
M  V30 6138 C 561.92 -2.28757 -2.58388 0
M  V30 6139 C 561.033 -3.55775 -2.45047 0
M  V30 6140 C 560.168 -3.79445 -3.71746 0
M  V30 6141 C 559.207 -4.99894 -3.53231 0
M  V30 6142 N 558.344 -5.19826 -4.71938 0
M  V30 6143 H 563.184 -2.83691 -0.912338 0
M  V30 6144 H 560.721 -1.40392 -0.439135 0
M  V30 6145 H 562.679 -2.46682 -3.36457 0
M  V30 6146 H 561.309 -1.42625 -2.89582 0
M  V30 6147 H 560.361 -3.45905 -1.58284 0
M  V30 6148 H 561.673 -4.44 -2.27299 0
M  V30 6149 H 560.827 -3.97601 -4.58256 0
M  V30 6150 H 559.566 -2.89546 -3.92446 0
M  V30 6151 H 558.571 -4.81662 -2.65107 0
M  V30 6152 H 559.796 -5.913 -3.33978 0
M  V30 6153 H 557.742 -4.32875 -4.92905 0
M  V30 6154 H 557.659 -6.02228 -4.57009 0
M  V30 6155 H 558.927 -5.42439 -5.59803 0
M  V30 6156 N 563.156 0.464375 -1.50603 0
M  V30 6157 C 564.402 1.21776 -1.62168 0
M  V30 6158 C 564.735 1.91476 -0.324154 0
M  V30 6159 O 564.01 1.8242 0.674782 0
M  V30 6160 C 564.293 2.25614 -2.80661 0
M  V30 6161 C 564.146 1.60175 -4.20314 0
M  V30 6162 C 565.465 3.26862 -2.94702 0
M  V30 6163 H 562.584 0.44137 -0.590222 0
M  V30 6164 H 565.226 0.510623 -1.8301 0
M  V30 6165 H 563.376 2.85923 -2.63021 0
M  V30 6166 H 565.048 1.03411 -4.4956 0
M  V30 6167 H 563.291 0.904697 -4.24261 0
M  V30 6168 H 563.962 2.35665 -4.99165 0
M  V30 6169 H 566.438 2.76582 -3.10872 0
M  V30 6170 H 565.314 3.96839 -3.79223 0
M  V30 6171 H 565.575 3.91382 -2.05603 0
M  V30 6172 N 564.634 1.40294 0.718013 0
M  V30 6173 C 565.859 1.41941 1.5122 0
M  V30 6174 C 566.284 0.0202371 1.88089 0
M  V30 6175 O 565.642 -0.971078 1.53101 0
M  V30 6176 C 565.69 2.3141 2.76554 0
M  V30 6177 O 564.794 1.75567 3.73162 0
M  V30 6178 H 564.135 0.482644 0.456016 0
M  V30 6179 H 566.665 1.84494 0.884478 0
M  V30 6180 H 566.675 2.46513 3.25108 0
M  V30 6181 H 565.35 3.33085 2.49053 0
M  V30 6182 H 563.927 1.69798 3.31999 0
M  V30 6183 N 566.112 -0.949982 1.2575 0
M  V30 6184 C 567.359 -1.69515 1.10774 0
M  V30 6185 C 567.687 -1.91316 -0.350479 0
M  V30 6186 O 566.942 -1.48515 -1.27443 0
M  V30 6187 C 567.241 -3.08039 1.81237 0
M  V30 6188 C 566.907 -3.06023 3.31151 0
M  V30 6189 C 565.569 -3.0518 3.72047 0
M  V30 6190 C 567.921 -2.98998 4.26907 0
M  V30 6191 C 565.249 -2.95067 5.07102 0
M  V30 6192 C 567.601 -2.90426 5.61992 0
M  V30 6193 C 566.265 -2.87922 6.0221 0
M  V30 6194 H 565.535 -0.6203 0.405351 0
M  V30 6195 H 568.182 -1.10953 1.56082 0
M  V30 6196 H 566.487 -3.70172 1.28373 0
M  V30 6197 H 568.184 -3.64526 1.67098 0
M  V30 6198 H 564.774 -3.07453 2.98614 0
M  V30 6199 H 568.958 -2.98764 3.963 0
M  V30 6200 H 564.214 -2.915 5.37436 0
M  V30 6201 H 568.388 -2.83952 6.35881 0
M  V30 6202 H 566.015 -2.79841 7.06819 0
M  V30 6203 N 567.59 -1.07411 -1.15328 0
M  V30 6204 C 568.867 -0.710732 -1.82231 0
M  V30 6205 C 569.247 0.806732 -1.95077 0
M  V30 6206 O 568.595 1.72139 -1.50268 0
M  V30 6207 C 568.805 -1.42586 -3.18544 0
M  V30 6208 C 570.153 -1.57836 -3.94174 0
M  V30 6209 O 571.177 -1.38669 -3.281 0
M  V30 6210 O 570.036 -1.8938 -5.12638 0
M  V30 6211 H 567.13 -0.25297 -0.78736 0
M  V30 6212 H 569.676 -1.17508 -1.22434 0
M  V30 6213 H 568.448 -2.46008 -3.04296 0
M  V30 6214 H 568.071 -0.952332 -3.86026 0
M  V30 6215 N 569.068 1.32177 -0.85831 0
M  V30 6216 C 570.345 1.91781 -0.384624 0
M  V30 6217 C 570.725 1.78171 1.13217 0
M  V30 6218 O 570.073 1.18209 1.95548 0
M  V30 6219 C 570.283 3.38414 -0.853047 0
M  V30 6220 C 571.631 4.15542 -0.872359 0
M  V30 6221 O 572.655 3.47148 -0.797926 0
M  V30 6222 O 571.514 5.37678 -0.978009 0
M  V30 6223 H 568.608 0.819259 -0.112886 0
M  V30 6224 H 571.154 1.40923 -0.945453 0
M  V30 6225 H 569.926 3.4228 -1.89632 0
M  V30 6226 H 569.549 3.96683 -0.269874 0
M  V30 6227 N 570.547 0.616602 1.45037 0
M  V30 6228 C 571.775 0.121968 2.0654 0
M  V30 6229 C 572.19 -1.19743 1.45969 0
M  V30 6230 O 571.547 -1.73133 0.577168 0
M  V30 6231 C 571.598 -0.0145171 3.61497 0
M  V30 6232 O 571.319 1.25269 4.19809 0
M  V30 6233 C 572.82 -0.539555 4.40004 0
M  V30 6234 H 570.04 0.0729837 0.667019 0
M  V30 6235 H 572.584 0.846891 1.8614 0
M  V30 6236 H 570.739 -0.689809 3.81209 0
M  V30 6237 H 571.153 1.08816 5.13088 0
M  V30 6238 H 572.627 -0.584112 5.48901 0
M  V30 6239 H 573.104 -1.56368 4.10421 0
M  V30 6240 H 573.71 0.101995 4.25178 0
M  V30 6241 N 572.025 -1.5352 0.356285 0
M  V30 6242 C 573.265 -2.03027 -0.23649 0
M  V30 6243 C 573.629 -1.23813 -1.46746 0
M  V30 6244 O 574.83 -1.63281 -2.13525 0
M  V30 6245 C 573.101 -3.53442 -0.530415 0
M  V30 6246 S 574.66 -4.24836 -1.09819 0
M  V30 6247 H 571.478 -0.707591 -0.0695378 0
M  V30 6248 H 574.08 -1.89077 0.496999 0
M  V30 6249 H 572.784 -4.087 0.373114 0
M  V30 6250 H 572.315 -3.71536 -1.29323 0
M  V30 6251 H 574.33 -4.35228 -2.38309 0
M  V30 6252 N 573.503 -0.0852151 -1.57369 0
M  V30 6253 C 574.433 0.874556 -2.16503 0
M  V30 6254 C 575.414 1.30111 -1.09568 0
M  V30 6255 O 576.599 1.36977 -1.37662 0
M  V30 6256 C 573.729 2.13731 -2.73745 0
M  V30 6257 C 572.683 1.84971 -3.85966 0
M  V30 6258 C 572.009 3.17991 -4.29867 0
M  V30 6259 C 573.309 1.14442 -5.09608 0
M  V30 6260 H 575.003 0.381899 -2.96954 0
M  V30 6261 H 572.549 0.18225 -1.42842 0
M  V30 6262 H 574.502 2.81302 -3.13763 0
M  V30 6263 H 573.226 2.65263 -1.90534 0
M  V30 6264 H 571.885 1.19801 -3.46473 0
M  V30 6265 H 571.533 3.6739 -3.4356 0
M  V30 6266 H 571.233 2.99534 -5.05523 0
M  V30 6267 H 572.757 3.86737 -4.72511 0
M  V30 6268 H 574.171 1.72105 -5.46857 0
M  V30 6269 H 572.568 1.06197 -5.90629 0
M  V30 6270 H 573.638 0.12559 -4.84737 0
M  V30 6271 N 574.981 1.5647 0.188427 0
M  V30 6272 C 575.944 1.9421 1.21718 0
M  V30 6273 C 576.944 0.823901 1.38089 0
M  V30 6274 O 578.134 1.09122 1.35787 0
M  V30 6275 C 575.266 2.22197 2.58537 0
M  V30 6276 H 576.459 2.86252 0.894418 0
M  V30 6277 H 574.012 1.50263 0.430211 0
M  V30 6278 H 574.747 1.32814 2.95856 0
M  V30 6279 H 574.532 3.03688 2.48025 0
M  V30 6280 H 576.022 2.52376 3.3271 0
M  V30 6281 N 576.459 -0.456382 1.50847 0
M  V30 6282 C 577.684 -1.2349 1.66628 0
M  V30 6283 C 578.109 -1.84715 0.355254 0
M  V30 6284 O 577.467 -1.67961 -0.682559 0
M  V30 6285 C 577.515 -2.30865 2.77009 0
M  V30 6286 O 576.619 -3.35882 2.39285 0
M  V30 6287 H 575.96 -0.36266 0.556214 0
M  V30 6288 H 578.49 -0.541374 1.97308 0
M  V30 6289 H 578.5 -2.75949 3.00526 0
M  V30 6290 H 577.175 -1.85677 3.72152 0
M  V30 6291 H 575.752 -2.96406 2.26269 0
M  V30 6292 N 577.937 -1.40673 -0.710563 0
M  V30 6293 C 578.847 -1.43663 -1.85467 0
M  V30 6294 C 579.863 -0.328721 -1.70867 0
M  V30 6295 O 581.039 -0.574098 -1.93044 0
M  V30 6296 C 578.104 -1.30226 -3.21313 0
M  V30 6297 C 577.165 -2.51204 -3.48131 0
M  V30 6298 C 576.398 -2.38398 -4.77495 0
M  V30 6299 O 576.621 -1.40048 -5.5294 0
M  V30 6300 O 575.555 -3.2787 -5.04762 0
M  V30 6301 H 579.381 -2.40156 -1.859 0
M  V30 6302 H 576.966 -1.22049 -0.861652 0
M  V30 6303 H 578.848 -1.2496 -4.02446 0
M  V30 6304 H 577.523 -0.368419 -3.21597 0
M  V30 6305 H 576.43 -2.62048 -2.66987 0
M  V30 6306 H 577.763 -3.43366 -3.52648 0
M  V30 6307 N 579.415 0.9433 -1.26252 0
M  V30 6308 C 580.661 1.69175 -1.11837 0
M  V30 6309 C 580.994 1.91238 0.337891 0
M  V30 6310 O 580.269 1.49152 1.24836 0
M  V30 6311 C 580.552 3.06783 -1.88563 0
M  V30 6312 C 580.405 2.9206 -3.42083 0
M  V30 6313 C 581.724 4.06865 -1.67776 0
M  V30 6314 H 578.843 0.61399 -0.407658 0
M  V30 6315 H 581.485 1.09572 -1.55222 0
M  V30 6316 H 579.635 3.57663 -1.51689 0
M  V30 6317 H 581.307 2.48419 -3.88698 0
M  V30 6318 H 579.55 2.27731 -3.69217 0
M  V30 6319 H 580.221 3.89651 -3.90994 0
M  V30 6320 H 582.697 3.64939 -1.99897 0
M  V30 6321 H 581.573 5.01168 -2.23879 0
M  V30 6322 H 581.834 4.37705 -0.621816 0
M  V30 6323 N 580.893 1.08022 1.14757 0
M  V30 6324 C 582.118 0.82895 1.90114 0
M  V30 6325 C 582.543 -0.612772 1.77839 0
M  V30 6326 O 581.901 -1.42895 1.11583 0
M  V30 6327 C 581.949 1.25062 3.38219 0
M  V30 6328 O 581.053 0.400119 4.10454 0
M  V30 6329 H 580.394 0.301412 0.591648 0
M  V30 6330 H 582.924 1.44062 1.45284 0
M  V30 6331 H 582.934 1.22977 3.89025 0
M  V30 6332 H 581.609 2.30067 3.46471 0
M  V30 6333 H 580.186 0.484052 3.69745 0
M  V30 6334 N 582.371 -1.3172 0.865308 0
M  V30 6335 C 583.618 -1.96876 0.473931 0
M  V30 6336 C 583.946 -1.68425 -0.972786 0
M  V30 6337 O 583.201 -0.970742 -1.69927 0
M  V30 6338 C 583.5 -3.5102 0.672283 0
M  V30 6339 C 583.166 -3.9948 2.09108 0
M  V30 6340 C 581.828 -4.12425 2.4791 0
M  V30 6341 C 584.18 -4.2503 3.0166 0
M  V30 6342 C 581.508 -4.48267 3.78515 0
M  V30 6343 C 583.86 -4.62335 4.31774 0
M  V30 6344 C 582.524 -4.73486 4.70497 0
M  V30 6345 H 581.794 -0.72042 0.173424 0
M  V30 6346 H 584.441 -1.56937 1.0974 0
M  V30 6347 H 582.746 -3.91785 -0.034356 0
M  V30 6348 H 584.443 -3.99475 0.349353 0
M  V30 6349 H 581.033 -3.89898 1.77981 0
M  V30 6350 H 585.217 -4.14529 2.7291 0
M  V30 6351 H 580.473 -4.55097 4.08285 0
M  V30 6352 H 584.647 -4.81058 5.03543 0
M  V30 6353 H 582.274 -5.01016 5.71741 0
M  V30 6354 N 583.85 -0.624285 -1.44708 0
M  V30 6355 C 585.075 -0.131171 -2.06985 0
M  V30 6356 C 585.5 1.18234 -1.46295 0
M  V30 6357 O 584.858 1.72375 -0.561842 0
M  V30 6358 C 584.906 -0.0226724 -3.60593 0
M  V30 6359 O 584.01 1.02314 -3.99507 0
M  V30 6360 H 583.351 -0.0816556 -0.65896 0
M  V30 6361 H 585.88 -0.859027 -1.85693 0
M  V30 6362 H 585.891 0.170138 -4.07645 0
M  V30 6363 H 584.566 -0.981685 -4.04148 0
M  V30 6364 H 583.143 0.805452 -3.64097 0
M  V30 6365 N 585.328 1.53329 -0.364422 0
M  V30 6366 C 586.26 2.23286 0.517293 0
M  V30 6367 C 587.273 1.24657 1.04711 0
M  V30 6368 O 588.462 1.50887 0.95369 0
M  V30 6369 C 585.562 2.91604 1.72685 0
M  V30 6370 C 584.735 4.1673 1.32873 0
M  V30 6371 C 583.794 4.68269 2.40022 0
M  V30 6372 O 582.82 5.31976 2.02461 0
M  V30 6373 N 584.022 4.45983 3.7159 0
M  V30 6374 H 586.787 2.99588 -0.0819391 0
M  V30 6375 H 584.348 1.60787 -0.189544 0
M  V30 6376 H 586.34 3.22992 2.4384 0
M  V30 6377 H 584.91 2.18763 2.23297 0
M  V30 6378 H 584.13 3.91657 0.447069 0
M  V30 6379 H 585.418 4.98078 1.03902 0
M  V30 6380 H 584.816 3.95077 4.04883 0
M  V30 6381 H 583.373 4.81924 4.38854 0
M  V30 6382 N 586.806 0.0935595 1.57322 0
M  V30 6383 C 588.031 -0.582324 1.99057 0
M  V30 6384 C 588.456 -1.61025 0.972242 0
M  V30 6385 O 587.814 -1.81202 -0.0594622 0
M  V30 6386 C 587.862 -1.20799 3.39765 0
M  V30 6387 O 586.966 -2.32382 3.40694 0
M  V30 6388 H 586.307 -0.147884 0.647323 0
M  V30 6389 H 588.837 0.174516 2.03854 0
M  V30 6390 H 588.847 -1.54966 3.77425 0
M  V30 6391 H 587.522 -0.454914 4.13405 0
M  V30 6392 H 586.099 -1.99845 3.14827 0
M  V30 6393 O 588.323 -1.61433 -0.0465113 0
M  V30 6394 H 589.014 -1.8177 -0.669292 0
M  V30 END ATOM
M  V30 BEGIN BOND
M  V30 END BOND
M  V30 END CTAB
M  END
$$$$
