drugbank_target|P34998 Corticotropin-releasing factor receptor 1 (DB09067)
 OpenBabel12092121043D

  0  0  0     0  0            999 V3000
M  V30 BEGIN CTAB
M  V30 COUNTS 7174 7279 0 0 0
M  V30 BEGIN ATOM
M  V30 1 H -0.908 1.98254 -0.117106 0
M  V30 2 N 0 1.576 0 0
M  V30 3 C 0.933 2.03868 1.02534 0
M  V30 4 C 1.911 0.928543 1.3348 0
M  V30 5 O 3.095 1.19667 1.45644 0
M  V30 6 C 0.222 2.43627 2.35294 0
M  V30 7 C -0.732 3.65373 2.2001 0
M  V30 8 S 0.101 5.13292 1.52614 0
M  V30 9 C 1.257 5.56322 2.86805 0
M  V30 10 H 1.49 2.90518 0.631377 0
M  V30 11 H -0.977 1.52953 0.210867 0
M  V30 12 H 0.981 2.67203 3.11629 0
M  V30 13 H -0.358 1.57376 2.7183 0
M  V30 14 H -1.165 3.90944 3.18086 0
M  V30 15 H -1.563 3.418 1.51819 0
M  V30 16 H 0.729 5.58782 3.83104 0
M  V30 17 H 1.672 6.56266 2.65933 0
M  V30 18 H 2.08 4.83886 2.90714 0
M  V30 19 N 1.4781 -0.272755 1.55222 0
M  V30 20 C 2.7261 -1.00234 1.75492 0
M  V30 21 C 3.0471 -1.8681 0.5592 0
M  V30 22 O 2.3171 -1.91215 -0.425882 0
M  V30 23 H 0.8971 -0.373076 0.647166 0
M  V30 24 H 3.5591 -0.296926 1.92625 0
M  V30 25 H 2.6551 -1.63913 2.65592 0
M  V30 26 N 2.9562 -1.48159 -0.537278 0
M  V30 27 C 4.2042 -1.55497 -1.29094 0
M  V30 28 C 4.5252 -0.227454 -1.93669 0
M  V30 29 O 3.7952 0.750386 -1.80959 0
M  V30 30 H 2.3752 -0.572832 -0.47945 0
M  V30 31 H 5.0372 -1.84579 -0.625818 0
M  V30 32 H 4.1332 -2.33216 -2.07405 0
M  V30 33 N 4.4343 0.785586 -1.36625 0
M  V30 34 C 5.3843 1.88822 -1.27789 0
M  V30 35 C 6.3683 1.60014 -0.168579 0
M  V30 36 O 7.5603 1.72381 -0.401737 0
M  V30 37 C 4.6893 3.26092 -1.07327 0
M  V30 38 C 3.7753 3.60897 -2.22743 0
M  V30 39 N 4.1663 3.66982 -3.48077 0
M  V30 40 C 2.4643 3.90981 -2.14593 0
M  V30 41 C 3.1653 3.98137 -4.24101 0
M  V30 42 N 2.1413 4.13319 -3.53084 0
M  V30 43 H 5.9433 1.91759 -2.22723 0
M  V30 44 H 3.4573 0.981311 -1.29399 0
M  V30 45 H 5.4543 4.04954 -0.990842 0
M  V30 46 H 4.1143 3.24428 -0.132977 0
M  V30 47 H 5.1253 3.49531 -3.82163 0
M  V30 48 H 1.8023 3.9722 -1.2854 0
M  V30 49 H 3.1923 4.09737 -5.32509 0
M  V30 50 N 5.9124 1.20967 1.01018 0
M  V30 51 C 7.3234 1.02319 1.56165 0
M  V30 52 C 7.6744 -0.418546 1.91684 0
M  V30 53 O 6.7994 -1.30096 1.72928 0
M  V30 54 C 7.3944 1.85109 2.8376 0
M  V30 55 C 5.9534 1.70809 3.35412 0
M  V30 56 C 5.1004 1.82643 2.08655 0
M  V30 57 H 8.0514 1.35065 0.833255 0
M  V30 58 H 8.0724 1.35827 3.55431 0
M  V30 59 H 7.5844 2.90035 2.57878 0
M  V30 60 H 5.6854 0.685464 3.66241 0
M  V30 61 H 5.7984 2.52467 4.07182 0
M  V30 62 H 4.1624 1.25896 2.21409 0
M  V30 63 H 4.9454 2.89066 1.85191 0
M  V30 64 N 7.3905 -1.2043 1.01659 0
M  V30 65 C 8.3225 -2.22626 0.544988 0
M  V30 66 C 9.3355 -1.58479 -0.372609 0
M  V30 67 O 10.5245 -1.77679 -0.170958 0
M  V30 68 C 7.6245 -3.38141 -0.22663 0
M  V30 69 C 6.7975 -4.31877 0.692876 0
M  V30 70 C 5.8565 -5.26191 -0.0311616 0
M  V30 71 O 4.8825 -5.6612 0.591343 0
M  V30 72 N 6.0845 -5.65618 -1.30601 0
M  V30 73 H 8.8495 -2.63716 1.42388 0
M  V30 74 H 6.4105 -1.34971 0.894116 0
M  V30 75 H 8.4025 -3.98239 -0.72024 0
M  V30 76 H 6.9725 -2.95943 -1.00681 0
M  V30 77 H 6.1925 -3.69746 1.36679 0
M  V30 78 H 7.4805 -4.91426 1.31824 0
M  V30 79 H 6.8785 -5.3519 -1.83269 0
M  V30 80 H 5.4355 -6.28025 -1.74435 0
M  V30 81 N 8.8686 -0.792821 -1.36206 0
M  V30 82 C 9.7986 -0.207853 -2.32573 0
M  V30 83 C 10.7796 0.659055 -1.56813 0
M  V30 84 O 11.9646 0.592176 -1.84951 0
M  V30 85 C 9.0946 0.655449 -3.41059 0
M  V30 86 C 8.0486 -0.111842 -4.27854 0
M  V30 87 C 7.3746 0.872274 -5.27537 0
M  V30 88 C 8.6746 -1.30299 -5.05786 0
M  V30 89 H 10.3686 -1.01294 -2.81744 0
M  V30 90 H 7.9146 -0.48854 -1.3546 0
M  V30 91 H 9.8676 1.07464 -4.07467 0
M  V30 92 H 8.5916 1.49328 -2.90463 0
M  V30 93 H 7.2506 -0.512053 -3.63006 0
M  V30 94 H 6.8986 1.70523 -4.73214 0
M  V30 95 H 6.5986 0.363291 -5.86476 0
M  V30 96 H 8.1226 1.28996 -5.96818 0
M  V30 97 H 9.5366 -0.959379 -5.65216 0
M  V30 98 H 7.9336 -1.7455 -5.74154 0
M  V30 99 H 9.0036 -2.09663 -4.37229 0
M  V30 100 N 10.3467 1.47872 -0.545128 0
M  V30 101 C 11.7627 1.5829 -0.204032 0
M  V30 102 C 11.9627 1.54529 1.29317 0
M  V30 103 O 11.0187 1.44232 2.07252 0
M  V30 104 C 12.3317 2.89304 -0.819987 0
M  V30 105 C 13.8797 3.02864 -0.790105 0
M  V30 106 C 14.3547 4.3656 -1.38491 0
M  V30 107 N 15.8457 4.43165 -1.34755 0
M  V30 108 C 16.5807 5.45153 -1.77753 0
M  V30 109 N 16.0767 6.54016 -2.2855 0
M  V30 110 N 17.8697 5.36125 -1.68897 0
M  V30 111 H 10.0207 1.4856 -1.51802 0
M  V30 112 H 12.2837 0.706305 -0.632327 0
M  V30 113 H 11.9897 2.97757 -1.87173 0
M  V30 114 H 11.8637 3.75957 -0.305915 0
M  V30 115 H 14.2507 2.94014 0.252913 0
M  V30 116 H 14.3317 2.17782 -1.34181 0
M  V30 117 H 13.9757 4.46164 -2.42693 0
M  V30 118 H 13.9057 5.20353 -0.808754 0
M  V30 119 H 16.3967 3.65083 -0.975855 0
M  V30 120 H 16.7097 7.27994 -2.59314 0
M  V30 121 H 15.0547 6.54938 -2.32553 0
M  V30 122 H 18.2457 4.49975 -1.28998 0
M  V30 123 H 18.4187 6.15472 -2.02726 0
M  V30 124 N 11.8248 0.280983 1.55075 0
M  V30 125 C 12.7548 -0.597469 2.25727 0
M  V30 126 C 13.7358 -1.15417 1.24952 0
M  V30 127 O 14.9208 -1.18722 1.53684 0
M  V30 128 C 12.0508 -1.7789 2.98283 0
M  V30 129 C 11.0048 -1.35347 4.06036 0
M  V30 130 C 10.3308 -2.61846 4.66198 0
M  V30 131 C 11.6308 -0.499354 5.19907 0
M  V30 132 H 13.3248 -0.00824265 2.99399 0
M  V30 133 H 10.8708 -0.0025244 1.44 0
M  V30 134 H 12.8238 -2.39937 3.46422 0
M  V30 135 H 11.5478 -2.39405 2.22155 0
M  V30 136 H 10.2068 -0.756156 3.58717 0
M  V30 137 H 9.8548 -3.21632 3.86732 0
M  V30 138 H 9.5548 -2.3409 5.38958 0
M  V30 139 H 11.0788 -3.24732 5.1709 0
M  V30 140 H 12.4928 -1.02498 5.64063 0
M  V30 141 H 10.8898 -0.316424 5.99265 0
M  V30 142 H 11.9598 0.480459 4.82514 0
M  V30 143 N 13.3029 -1.57598 0.00835791 0
M  V30 144 C 14.5489 -1.91211 -0.675732 0
M  V30 145 C 14.8819 -0.883139 -1.72958 0
M  V30 146 O 14.1569 0.097016 -1.94258 0
M  V30 147 C 14.4399 -3.35379 -1.31123 0
M  V30 148 C 14.2929 -4.48999 -0.268356 0
M  V30 149 C 15.6119 -3.7912 -2.23508 0
M  V30 150 H 12.7309 -0.695374 -0.244179 0
M  V30 151 H 15.3729 -1.89901 0.0613655 0
M  V30 152 H 13.5229 -3.36626 -1.93946 0
M  V30 153 H 15.1949 -4.59887 0.360844 0
M  V30 154 H 13.4379 -4.31873 0.408482 0
M  V30 155 H 14.1089 -5.46851 -0.752218 0
M  V30 156 H 16.5849 -3.79477 -1.70693 0
M  V30 157 H 15.4609 -4.80729 -2.64936 0
M  V30 158 H 15.7219 -3.13455 -3.11766 0
M  V30 159 N 14.781 0.264519 -1.55364 0
M  V30 160 C 15.728 1.32717 -1.88825 0
M  V30 161 C 16.698 1.48675 -0.740605 0
M  V30 162 O 17.883 1.62945 -0.992657 0
M  V30 163 C 15.023 2.68089 -2.17307 0
M  V30 164 C 14.136 2.60284 -3.44785 0
M  V30 165 C 13.271 3.87892 -3.62924 0
M  V30 166 C 12.31 3.74631 -4.84064 0
M  V30 167 N 11.447 4.94092 -4.98816 0
M  V30 168 H 16.287 1.03481 -2.79456 0
M  V30 169 H 13.824 0.499757 -1.3835 0
M  V30 170 H 15.782 3.46864 -2.31821 0
M  V30 171 H 14.412 2.95509 -1.299 0
M  V30 172 H 13.464 1.73173 -3.38697 0
M  V30 173 H 14.776 2.46388 -4.33698 0
M  V30 174 H 13.93 4.75109 -3.77302 0
M  V30 175 H 12.669 4.04664 -2.7221 0
M  V30 176 H 11.674 2.85797 -4.69681 0
M  V30 177 H 12.899 3.5937 -5.76221 0
M  V30 178 H 10.845 5.11259 -4.11036 0
M  V30 179 H 10.762 4.8276 -5.81789 0
M  V30 180 H 12.03 5.82857 -5.17588 0
M  V30 181 N 16.2591 1.48442 0.529413 0
M  V30 182 C 17.2221 1.62524 1.61612 0
M  V30 183 C 18.2221 0.498509 1.52877 0
M  V30 184 O 19.4121 0.76431 1.56537 0
M  V30 185 C 16.5441 1.59597 3.01233 0
M  V30 186 H 17.7371 2.59423 1.50465 0
M  V30 187 H 15.2901 1.37047 0.751514 0
M  V30 188 H 16.0251 0.641781 3.17886 0
M  V30 189 H 15.8101 2.41397 3.08982 0
M  V30 190 H 17.3001 1.72646 3.80241 0
M  V30 191 N 17.7372 -0.778329 1.37039 0
M  V30 192 C 18.6672 -1.90546 1.34962 0
M  V30 193 C 19.6482 -1.68681 0.219274 0
M  V30 194 O 20.8332 -1.89634 0.418624 0
M  V30 195 C 17.9632 -3.27734 1.14925 0
M  V30 196 C 16.9172 -3.64147 2.24902 0
M  V30 197 C 16.2432 -4.99806 1.89996 0
M  V30 198 C 17.5432 -3.71579 3.67051 0
M  V30 199 H 19.2372 -1.92541 2.29277 0
M  V30 200 H 16.7832 -0.924948 1.10366 0
M  V30 201 H 18.7362 -4.06215 1.12104 0
M  V30 202 H 17.4602 -3.26154 0.170631 0
M  V30 203 H 16.1192 -2.8797 2.26868 0
M  V30 204 H 15.7672 -4.94759 0.906796 0
M  V30 205 H 15.4672 -5.25139 2.63634 0
M  V30 206 H 16.9912 -5.80694 1.88749 0
M  V30 207 H 18.4052 -4.40227 3.67251 0
M  V30 208 H 16.8022 -4.08405 4.39688 0
M  V30 209 H 17.8722 -2.72404 4.01154 0
M  V30 210 N 19.2153 -1.21501 -1.00376 0
M  V30 211 C 20.1453 -0.999478 -2.11028 0
M  V30 212 C 21.1263 0.0759671 -1.6993 0
M  V30 213 O 22.3113 -0.0841106 -1.94018 0
M  V30 214 C 19.4413 -0.564709 -3.42678 0
M  V30 215 C 18.3953 -1.58486 -3.97576 0
M  V30 216 C 17.7213 -1.00628 -5.25146 0
M  V30 217 C 19.0213 -2.97204 -4.29496 0
M  V30 218 H 20.7153 -1.92495 -2.29317 0
M  V30 219 H 18.2613 -0.92693 -1.102 0
M  V30 220 H 20.2143 -0.401091 -4.19487 0
M  V30 221 H 18.9383 0.396411 -3.24185 0
M  V30 222 H 17.5973 -1.73606 -3.22888 0
M  V30 223 H 17.2453 -0.0368439 -5.02987 0
M  V30 224 H 16.9453 -1.68771 -5.62841 0
M  V30 225 H 18.4693 -0.854015 -6.04598 0
M  V30 226 H 19.8833 -2.8552 -4.97143 0
M  V30 227 H 18.2803 -3.62372 -4.78338 0
M  V30 228 H 19.3503 -3.47956 -3.3772 0
M  V30 229 N 20.6934 1.19889 -1.02296 0
M  V30 230 C 21.6234 2.25141 -0.619174 0
M  V30 231 C 22.6044 1.66051 0.368915 0
M  V30 232 O 23.7894 1.92546 0.252941 0
M  V30 233 C 20.9194 3.4728 0.0368783 0
M  V30 234 C 19.8734 4.19005 -0.872865 0
M  V30 235 C 19.1994 5.34637 -0.0822402 0
M  V30 236 C 20.4994 4.74452 -2.18387 0
M  V30 237 H 22.1934 2.59171 -1.49903 0
M  V30 238 H 19.7394 1.24579 -0.722222 0
M  V30 239 H 21.6924 4.20098 0.330958 0
M  V30 240 H 20.4164 3.12433 0.95149 0
M  V30 241 H 19.0754 3.48061 -1.15105 0
M  V30 242 H 18.7234 4.96034 0.83422 0
M  V30 243 H 18.4234 5.83557 -0.688149 0
M  V30 244 H 19.9474 6.10255 0.205238 0
M  V30 245 H 21.3614 5.39055 -1.95172 0
M  V30 246 H 19.7584 5.33834 -2.74119 0
M  V30 247 H 20.8284 3.92844 -2.84257 0
M  V30 248 N 22.1715 0.800033 1.35784 0
M  V30 249 C 23.1015 0.220184 2.3246 0
M  V30 250 C 24.0825 -0.65073 1.57161 0
M  V30 251 O 25.2675 -0.582359 1.85263 0
M  V30 252 C 22.3975 -0.637353 3.41402 0
M  V30 253 C 21.3515 0.134531 4.27789 0
M  V30 254 C 20.6775 -0.844285 5.27992 0
M  V30 255 C 21.9775 1.32979 5.05088 0
M  V30 256 H 23.6715 1.02787 2.81203 0
M  V30 257 H 21.2175 0.495717 1.35199 0
M  V30 258 H 23.1705 -1.05302 4.08031 0
M  V30 259 H 21.8945 -1.47785 2.91251 0
M  V30 260 H 20.5535 0.531296 3.6273 0
M  V30 261 H 20.2015 -1.68011 4.74111 0
M  V30 262 H 19.9015 -0.332184 5.8666 0
M  V30 263 H 21.4255 -1.2583 5.97494 0
M  V30 264 H 22.8395 0.98934 5.64699 0
M  V30 265 H 21.2365 1.77593 5.7322 0
M  V30 266 H 22.3065 2.11978 4.36111 0
M  V30 267 N 23.6496 -1.47581 0.552962 0
M  V30 268 C 24.8976 -2.02082 0.0272703 0
M  V30 269 C 25.2186 -1.4301 -1.32563 0
M  V30 270 O 24.4886 -0.603745 -1.86365 0
M  V30 271 H 23.0686 -0.746966 0.00709182 0
M  V30 272 H 25.7306 -1.81033 0.722008 0
M  V30 273 H 24.8266 -3.12034 -0.0639951 0
M  V30 274 N 25.1277 -0.289203 -1.54924 0
M  V30 275 C 26.0577 0.58549 -2.2604 0
M  V30 276 C 27.0387 1.14753 -1.25562 0
M  V30 277 O 28.2237 1.17906 -1.54311 0
M  V30 278 C 25.3537 1.76305 -2.99222 0
M  V30 279 C 24.3077 1.33191 -4.06748 0
M  V30 280 C 23.6337 2.5937 -4.6758 0
M  V30 281 C 24.9337 0.471775 -5.20165 0
M  V30 282 H 26.6277 -0.00763532 -2.99399 0
M  V30 283 H 24.1737 -0.00511229 -1.43999 0
M  V30 284 H 26.1267 2.38097 -3.47689 0
M  V30 285 H 24.8507 2.38223 -2.23422 0
M  V30 286 H 23.5097 0.737121 -3.59113 0
M  V30 287 H 23.1577 3.19576 -3.88433 0
M  V30 288 H 22.8577 2.31228 -5.40192 0
M  V30 289 H 24.3817 3.21985 -5.18804 0
M  V30 290 H 25.7957 0.995056 -5.64599 0
M  V30 291 H 24.1927 0.284639 -5.99425 0
M  V30 292 H 25.2627 -0.506041 -4.82252 0
M  V30 293 N 26.6058 1.57591 -0.0167156 0
M  V30 294 C 27.5538 2.10604 0.987353 0
M  V30 295 C 28.5478 1.02977 1.34507 0
M  V30 296 O 29.7538 1.21425 1.32875 0
M  V30 297 H 26.1288 0.672695 0.336134 0
M  V30 298 H 28.0998 2.93925 0.514817 0
M  V30 299 C 26.8488 2.6382 2.26483 0
M  V30 300 H 26.1718 3.46278 1.99829 0
M  V30 301 H 27.6118 3.04573 2.94977 0
M  V30 302 C 26.0708 1.55992 2.9861 0
M  V30 303 O 26.6008 0.952521 3.90243 0
M  V30 304 N 24.8068 1.28335 2.60727 0
M  V30 305 H 24.3538 1.77914 1.86291 0
M  V30 306 H 24.3118 0.564115 3.09298 0
M  V30 307 N 28.0839 -0.256276 1.55502 0
M  V30 308 C 29.4949 -0.826068 1.67431 0
M  V30 309 C 29.8459 -1.86396 0.612446 0
M  V30 310 O 28.9709 -2.15031 -0.243025 0
M  V30 311 C 29.5659 -1.50512 3.03532 0
M  V30 312 C 28.1249 -2.02273 3.17431 0
M  V30 313 C 27.2719 -0.870548 2.63281 0
M  V30 314 H 30.2229 -0.0322728 1.58667 0
M  V30 315 H 30.2439 -2.37279 2.97454 0
M  V30 316 H 29.7559 -0.749484 3.80794 0
M  V30 317 H 27.8569 -2.80746 2.44974 0
M  V30 318 H 27.9699 -2.22655 4.24219 0
M  V30 319 H 26.3339 -1.26851 2.20864 0
M  V30 320 H 27.1169 -0.128149 3.43061 0
M  V30 321 N 29.562 -1.4872 -0.521534 0
M  V30 322 C 30.808 -1.574 -1.27879 0
M  V30 323 C 31.141 -0.250817 -1.92573 0
M  V30 324 O 30.416 0.743934 -1.79711 0
M  V30 325 C 30.699 -2.71843 -2.36164 0
M  V30 326 C 30.552 -4.13893 -1.76105 0
M  V30 327 C 31.871 -2.82008 -3.37875 0
M  V30 328 H 28.99 -0.572941 -0.463581 0
M  V30 329 H 31.632 -1.80927 -0.580119 0
M  V30 330 H 29.782 -2.51914 -2.95756 0
M  V30 331 H 31.454 -4.45284 -1.20499 0
M  V30 332 H 29.697 -4.20498 -1.06601 0
M  V30 333 H 30.368 -4.89804 -2.5455 0
M  V30 334 H 32.844 -3.00086 -2.88249 0
M  V30 335 H 31.72 -3.63796 -4.11028 0
M  V30 336 H 31.981 -1.90511 -3.98946 0
M  V30 337 N 31.0401 0.771051 -1.3745 0
M  V30 338 C 32.2651 1.56529 -1.36065 0
M  V30 339 C 32.6901 1.88029 0.0515859 0
M  V30 340 O 32.0481 1.49282 1.02882 0
M  V30 341 C 32.0961 2.85187 -2.20683 0
M  V30 342 O 31.2001 3.79593 -1.61193 0
M  V30 343 H 30.5411 0.47411 -0.464883 0
M  V30 344 H 33.0711 0.954269 -1.80983 0
M  V30 345 H 33.0811 3.34283 -2.33921 0
M  V30 346 H 31.7561 2.61588 -3.23334 0
M  V30 347 H 30.3331 3.38239 -1.56999 0
M  V30 348 N 32.5182 1.22032 0.997298 0
M  V30 349 C 33.4812 0.987909 2.06816 0
M  V30 350 C 34.4812 -0.0440084 1.6074 0
M  V30 351 O 35.6712 0.194053 1.73116 0
M  V30 352 C 32.8032 0.49132 3.37341 0
M  V30 353 H 33.9962 1.93803 2.28868 0
M  V30 354 H 31.5492 1.03838 1.16822 0
M  V30 355 H 32.2842 -0.463364 3.20973 0
M  V30 356 H 32.0692 1.23575 3.72118 0
M  V30 357 H 33.5592 0.348824 4.16141 0
M  V30 358 N 33.9963 -1.19345 1.0293 0
M  V30 359 C 35.2213 -1.93538 0.745511 0
M  V30 360 C 35.6463 -1.75007 -0.689511 0
M  V30 361 O 35.0043 -1.05265 -1.47611 0
M  V30 362 C 35.0523 -3.43336 1.10239 0
M  V30 363 O 34.1563 -4.11806 0.221289 0
M  V30 364 H 33.4973 -0.604193 0.275404 0
M  V30 365 H 36.0273 -1.5141 1.37609 0
M  V30 366 H 36.0373 -3.94004 1.05947 0
M  V30 367 H 34.7123 -3.56146 2.14786 0
M  V30 368 H 33.2893 -3.715 0.322842 0
M  V30 369 N 35.4744 -0.807222 -1.35358 0
M  V30 370 C 36.4044 -0.232509 -2.3234 0
M  V30 371 C 37.3854 0.642386 -1.57504 0
M  V30 372 O 38.5704 0.572526 -1.85569 0
M  V30 373 C 35.7004 0.619238 -3.41735 0
M  V30 374 C 34.6544 -0.157215 -4.27711 0
M  V30 375 C 33.9804 0.816273 -5.28433 0
M  V30 376 C 35.2804 -1.35656 -5.04376 0
M  V30 377 H 36.9744 -1.04276 -2.80654 0
M  V30 378 H 34.5204 -0.50288 -1.34934 0
M  V30 379 H 36.4734 1.03137 -4.08584 0
M  V30 380 H 35.1974 1.46239 -2.92031 0
M  V30 381 H 33.8564 -0.550525 -3.62443 0
M  V30 382 H 33.5044 1.65494 -4.74996 0
M  V30 383 H 33.2044 0.301067 -5.86828 0
M  V30 384 H 34.7284 1.22659 -5.98153 0
M  V30 385 H 36.1424 -1.01927 -5.64166 0
M  V30 386 H 34.5394 -1.8063 -5.7227 0
M  V30 387 H 35.6094 -2.14288 -4.34981 0
M  V30 388 N 36.9525 1.47285 -0.560781 0
M  V30 389 C 37.8845 2.28118 0.222438 0
M  V30 390 C 38.8975 1.37219 0.876056 0
M  V30 391 O 40.0865 1.62011 0.749307 0
M  V30 392 C 37.1865 3.1159 1.33285 0
M  V30 393 C 36.3595 4.30473 0.77534 0
M  V30 394 C 35.4185 4.95513 1.77069 0
M  V30 395 O 34.4445 5.53792 1.31539 0
M  V30 396 N 35.6465 4.90531 3.10418 0
M  V30 397 H 38.4115 2.95976 -0.470958 0
M  V30 398 H 35.9725 1.56955 -0.39709 0
M  V30 399 H 37.9645 3.51967 1.99752 0
M  V30 400 H 36.5345 2.45951 1.92943 0
M  V30 401 H 35.7545 3.94144 -0.0662113 0
M  V30 402 H 37.0425 5.07362 0.382272 0
M  V30 403 H 36.4405 4.44389 3.5005 0
M  V30 404 H 34.9975 5.34917 3.72434 0
M  V30 405 N 38.4306 0.297415 1.54768 0
M  V30 406 C 39.7076 -0.365847 1.92148 0
M  V30 407 C 40.0876 -1.71975 1.22424 0
M  V30 408 O 39.4356 -2.25666 0.358739 0
M  V30 409 C 39.6456 -0.484056 3.45627 0
M  V30 410 C 40.9936 -0.756594 4.17805 0
M  V30 411 O 42.0176 -0.568007 3.51642 0
M  V30 412 O 40.8766 -1.11863 5.34929 0
M  V30 413 H 37.9706 -0.203919 0.801465 0
M  V30 414 H 40.5166 0.34521 1.66152 0
M  V30 415 H 39.2886 0.467865 3.88493 0
M  V30 416 H 38.9116 -1.24372 3.77647 0
M  V30 417 N 39.9087 -1.5758 0.0250728 0
M  V30 418 C 40.8407 -2.06869 -0.986796 0
M  V30 419 C 41.8537 -0.991332 -1.29137 0
M  V30 420 O 43.0427 -1.26761 -1.25674 0
M  V30 421 C 40.1427 -2.47486 -2.31525 0
M  V30 422 C 39.3157 -3.78253 -2.19643 0
M  V30 423 C 38.3747 -4.05464 -3.35388 0
M  V30 424 O 37.4007 -4.75774 -3.12454 0
M  V30 425 N 38.6027 -3.55321 -4.59051 0
M  V30 426 H 41.3677 -2.94302 -0.566276 0
M  V30 427 H 38.9287 -1.6109 -0.161776 0
M  V30 428 H 40.9207 -2.62785 -3.07776 0
M  V30 429 H 39.4907 -1.65441 -2.65232 0
M  V30 430 H 38.7107 -3.7279 -1.28144 0
M  V30 431 H 39.9987 -4.63936 -2.08903 0
M  V30 432 H 39.3967 -2.98431 -4.80578 0
M  V30 433 H 37.9537 -3.75905 -5.32483 0
M  V30 434 N 41.3868 0.248026 -1.55636 0
M  V30 435 C 42.3368 1.30994 -1.86614 0
M  V30 436 C 43.3208 1.43543 -0.726918 0
M  V30 437 O 44.5128 1.46804 -0.988818 0
M  V30 438 C 41.6418 2.6656 -2.16335 0
M  V30 439 C 40.7278 2.58019 -3.36581 0
M  V30 440 N 41.1188 2.1911 -4.55878 0
M  V30 441 C 39.4168 2.89035 -3.39669 0
M  V30 442 C 40.1178 2.21174 -5.38012 0
M  V30 443 N 39.0938 2.60632 -4.77045 0
M  V30 444 H 42.8958 0.999583 -2.76379 0
M  V30 445 H 40.4098 0.456652 -1.55848 0
M  V30 446 H 42.4068 3.43194 -2.36692 0
M  V30 447 H 41.0668 2.98463 -1.27867 0
M  V30 448 H 42.0778 1.90672 -4.81523 0
M  V30 449 H 38.7548 3.25485 -2.61469 0
M  V30 450 H 40.1448 1.9344 -6.43452 0
M  V30 451 N 42.8649 1.48995 0.513639 0
M  V30 452 C 44.1049 1.59452 1.27885 0
M  V30 453 C 44.4689 0.269479 1.90099 0
M  V30 454 O 45.6699 0.249139 2.67643 0
M  V30 455 C 43.9409 2.71277 2.32688 0
M  V30 456 S 45.4999 3.01604 3.18717 0
M  V30 457 H 42.3179 0.562565 0.434789 0
M  V30 458 H 44.9199 1.86595 0.583301 0
M  V30 459 H 43.6239 3.66089 1.8549 0
M  V30 460 H 43.1549 2.46086 3.06929 0
M  V30 461 H 45.1699 2.42155 4.331 0
M  V30 462 N 44.343 -0.763751 1.37857 0
M  V30 463 C 45.253 -1.90817 1.36478 0
M  V30 464 C 46.269 -1.71997 0.263248 0
M  V30 465 O 47.445 -1.95095 0.499979 0
M  V30 466 C 44.51 -3.2605 1.17864 0
M  V30 467 C 43.571 -3.57467 2.3773 0
M  V30 468 C 42.804 -4.86249 2.19995 0
M  V30 469 O 43.027 -5.57884 1.18836 0
M  V30 470 O 41.961 -5.16911 3.08361 0
M  V30 471 H 45.787 -1.94933 2.32884 0
M  V30 472 H 43.372 -0.907619 1.1867 0
M  V30 473 H 45.254 -4.06924 1.09504 0
M  V30 474 H 43.929 -3.22769 0.245372 0
M  V30 475 H 42.836 -2.76796 2.51664 0
M  V30 476 H 44.169 -3.655 3.29652 0
M  V30 477 N 45.8211 -1.22559 -0.990812 0
M  V30 478 C 47.0461 -1.07862 -1.77145 0
M  V30 479 C 47.4711 0.366447 -1.84496 0
M  V30 480 O 46.8291 1.26478 -1.29896 0
M  V30 481 C 46.8771 -1.69686 -3.18181 0
M  V30 482 O 45.9811 -0.951946 -4.01263 0
M  V30 483 H 45.3221 -0.378712 -0.545411 0
M  V30 484 H 47.8521 -1.62399 -1.2445 0
M  V30 485 H 47.8621 -1.74496 -3.68802 0
M  V30 486 H 46.5371 -2.74841 -3.12146 0
M  V30 487 H 45.1141 -0.980011 -3.59792 0
M  V30 488 N 47.2992 1.18797 -1.03562 0
M  V30 489 C 48.2292 2.24472 -0.643019 0
M  V30 490 C 49.2102 1.66433 0.351283 0
M  V30 491 O 50.3952 1.92803 0.232505 0
M  V30 492 C 47.5252 3.473 4.24935e-05 0
M  V30 493 C 46.4792 4.18055 -0.917257 0
M  V30 494 C 45.8052 5.34519 -0.138941 0
M  V30 495 C 47.1052 4.72109 -2.23407 0
M  V30 496 H 48.7992 2.57566 -1.52643 0
M  V30 497 H 46.3452 1.23806 -0.735394 0
M  V30 498 H 48.2982 4.20426 0.286383 0
M  V30 499 H 47.0222 3.13424 0.918299 0
M  V30 500 H 45.6812 3.46821 -1.1879 0
M  V30 501 H 45.3292 4.96891 0.781562 0
M  V30 502 H 45.0292 5.82794 -0.750005 0
M  V30 503 H 46.5532 6.10438 0.1405 0
M  V30 504 H 47.9672 5.36955 -2.00879 0
M  V30 505 H 46.3642 5.30897 -2.79765 0
M  V30 506 H 47.4342 3.89807 -2.88407 0
M  V30 507 N 48.7773 0.814389 1.34928 0
M  V30 508 C 50.0023 0.410097 2.03305 0
M  V30 509 C 50.4273 -0.973464 1.60951 0
M  V30 510 O 49.7853 -1.63185 0.789964 0
M  V30 511 C 49.8333 0.51049 3.56968 0
M  V30 512 O 48.9373 -0.473035 4.09678 0
M  V30 513 H 48.2783 0.170088 0.641846 0
M  V30 514 H 50.8083 1.10244 1.72358 0
M  V30 515 H 50.8183 0.383135 4.06197 0
M  V30 516 H 49.4933 1.51963 3.87144 0
M  V30 517 H 48.0703 -0.305272 3.71648 0
M  V30 518 N 50.2554 -1.46986 0.568584 0
M  V30 519 C 51.1854 -2.32946 -0.160753 0
M  V30 520 C 52.1664 -1.44487 -0.897631 0
M  V30 521 O 53.3514 -1.73327 -0.875867 0
M  V30 522 C 50.4814 -3.26494 -1.18403 0
M  V30 523 C 49.4354 -4.24282 -0.562895 0
M  V30 524 C 48.7614 -5.07236 -1.69163 0
M  V30 525 C 50.0614 -5.19989 0.490761 0
M  V30 526 H 51.7554 -2.94175 0.556916 0
M  V30 527 H 49.3014 -1.4146 0.26927 0
M  V30 528 H 51.2544 -3.85477 -1.70251 0
M  V30 529 H 49.9784 -2.63343 -1.93179 0
M  V30 530 H 48.6374 -3.66541 -0.0656164 0
M  V30 531 H 48.2854 -4.4048 -2.42871 0
M  V30 532 H 47.9854 -5.7345 -1.28174 0
M  V30 533 H 49.5094 -5.6908 -2.21314 0
M  V30 534 H 50.9234 -5.73271 0.0579047 0
M  V30 535 H 49.3204 -5.94469 0.820165 0
M  V30 536 H 50.3904 -4.64777 1.3824 0
M  V30 537 N 51.7335 -0.305618 -1.54608 0
M  V30 538 C 52.6965 0.555591 -2.22364 0
M  V30 539 C 53.6965 1.05768 -1.21119 0
M  V30 540 O 54.8865 0.952972 -1.45822 0
M  V30 541 C 52.0185 1.76974 -2.91364 0
M  V30 542 H 53.2115 -0.0364572 -2.99878 0
M  V30 543 H 50.7645 -0.0565007 -1.56198 0
M  V30 544 H 51.4995 2.40151 -2.17941 0
M  V30 545 H 51.2845 1.41732 -3.65588 0
M  V30 546 H 52.7745 2.38148 -3.43038 0
M  V30 547 N 53.2116 1.57565 -0.0334293 0
M  V30 548 C 54.4366 1.96689 0.657895 0
M  V30 549 C 54.8616 0.910057 1.64619 0
M  V30 550 O 54.2196 -0.128598 1.80843 0
M  V30 551 C 54.2676 3.34905 1.33683 0
M  V30 552 O 53.3716 3.31574 2.45219 0
M  V30 553 H 52.7126 0.641205 0.172489 0
M  V30 554 H 55.2426 2.04372 -0.0965621 0
M  V30 555 H 55.2526 3.71234 1.69262 0
M  V30 556 H 53.9276 4.11366 0.612411 0
M  V30 557 H 52.5046 3.06968 2.11719 0
M  V30 558 N 54.6897 -0.239769 1.55765 0
M  V30 559 C 55.6377 -1.31668 1.91745 0
M  V30 560 C 56.6317 -1.49462 0.797338 0
M  V30 561 O 57.8377 -1.50852 0.982021 0
M  V30 562 H 54.2127 -0.441048 0.609082 0
M  V30 563 H 56.1837 -0.985923 2.81642 0
M  V30 564 C 54.9327 -2.66368 2.2348 0
M  V30 565 H 54.2557 -2.53478 3.09175 0
M  V30 566 H 55.6957 -3.40578 2.52553 0
M  V30 567 C 54.1547 -3.20002 1.05359 0
M  V30 568 O 54.6847 -4.00538 0.305261 0
M  V30 569 N 52.8907 -2.78126 0.842292 0
M  V30 570 H 52.4377 -2.12742 1.45253 0
M  V30 571 H 52.3957 -3.14354 0.053652 0
M  V30 572 N 56.1678 -1.49265 -0.50573 0
M  V30 573 C 57.4168 -1.57761 -1.25675 0
M  V30 574 C 57.7298 -0.267371 -1.93764 0
M  V30 575 O 58.9358 -0.230827 -2.70517 0
M  V30 576 C 57.3918 -2.78332 -2.28165 0
M  V30 577 C 56.9998 -4.16096 -1.66037 0
M  V30 578 C 58.7438 -2.96155 -3.04125 0
M  V30 579 C 56.6508 -5.27895 -2.6661 0
M  V30 580 H 55.5808 -0.587391 -0.472745 0
M  V30 581 H 58.2318 -1.75644 -0.53118 0
M  V30 582 H 56.6138 -2.53934 -3.03865 0
M  V30 583 H 57.7878 -4.50612 -0.963622 0
M  V30 584 H 56.1028 -4.03591 -1.02484 0
M  V30 585 H 58.6998 -3.76849 -3.79327 0
M  V30 586 H 59.0428 -2.06534 -3.61455 0
M  V30 587 H 59.5758 -3.2057 -2.35541 0
M  V30 588 H 56.3148 -6.1956 -2.14068 0
M  V30 589 H 55.8348 -4.97839 -3.34539 0
M  V30 590 H 57.5138 -5.57031 -3.29129 0
M  V30 591 N 57.6459 0.756429 -1.3826 0
M  V30 592 C 58.8709 1.55077 -1.37717 0
M  V30 593 C 59.2959 1.88073 0.03164 0
M  V30 594 O 58.6539 1.50364 1.01293 0
M  V30 595 C 58.7019 2.8283 -2.23695 0
M  V30 596 O 57.8059 3.77862 -1.6521 0
M  V30 597 H 57.1469 0.469152 -0.469885 0
M  V30 598 H 59.6769 0.935019 -1.81985 0
M  V30 599 H 59.6869 3.31783 -2.37453 0
M  V30 600 H 58.3619 2.58144 -3.2609 0
M  V30 601 H 56.9389 3.36555 -1.60578 0
M  V30 602 N 59.124 1.23083 0.984299 0
M  V30 603 C 60.372 1.05848 1.72165 0
M  V30 604 C 60.693 -0.406049 1.90726 0
M  V30 605 O 59.963 -1.29139 1.47309 0
M  V30 606 H 58.543 0.388685 0.637913 0
M  V30 607 H 61.205 1.54736 1.18503 0
M  V30 608 H 60.301 1.54327 2.71274 0
M  V30 609 N 60.6021 -1.18246 1.0419 0
M  V30 610 C 61.5321 -2.24127 0.654914 0
M  V30 611 C 62.5131 -1.66617 -0.342451 0
M  V30 612 O 63.6981 -1.92924 -0.222277 0
M  V30 613 C 60.8281 -3.47295 0.0183757 0
M  V30 614 C 59.7821 -4.17563 0.939414 0
M  V30 615 C 59.1081 -5.34438 0.167286 0
M  V30 616 C 60.4081 -4.70917 2.25908 0
M  V30 617 H 62.1021 -2.56753 1.54007 0
M  V30 618 H 59.6481 -1.23414 0.74195 0
M  V30 619 H 61.6011 -4.20572 -0.264082 0
M  V30 620 H 60.3251 -3.13907 -0.901664 0
M  V30 621 H 58.9841 -3.46186 1.20628 0
M  V30 622 H 58.6321 -4.97298 -0.7552 0
M  V30 623 H 58.3321 -5.82388 0.780901 0
M  V30 624 H 59.8561 -6.10504 -0.108125 0
M  V30 625 H 61.2701 -5.35882 2.03724 0
M  V30 626 H 59.6671 -5.29406 2.82577 0
M  V30 627 H 60.7371 -3.88272 2.9047 0
M  V30 628 N 62.0802 -0.821533 -1.34494 0
M  V30 629 C 63.0122 -0.199946 -2.28326 0
M  V30 630 C 64.0252 0.609377 -1.50965 0
M  V30 631 O 65.2142 0.439285 -1.7301 0
M  V30 632 C 62.3142 0.738431 -3.30757 0
M  V30 633 C 61.4872 -0.0277632 -4.37391 0
M  V30 634 C 60.5462 0.831332 -5.19591 0
M  V30 635 O 59.5722 0.276822 -5.68526 0
M  V30 636 N 60.7742 2.15132 -5.39165 0
M  V30 637 H 63.5392 -1.00609 -2.82308 0
M  V30 638 H 61.1002 -0.678366 -1.47003 0
M  V30 639 H 63.0922 1.31773 -3.82646 0
M  V30 640 H 61.6622 1.44533 -2.7718 0
M  V30 641 H 60.8822 -0.788359 -3.86236 0
M  V30 642 H 62.1702 -0.555251 -5.05761 0
M  V30 643 H 61.5682 2.62559 -5.01078 0
M  V30 644 H 60.1252 2.6795 -5.94177 0
M  V30 645 N 63.5583 1.46682 -0.576371 0
M  V30 646 C 64.7983 2.04306 -0.0621356 0
M  V30 647 C 65.1623 1.4389 1.2712 0
M  V30 648 O 66.3633 1.92675 1.87429 0
M  V30 649 C 64.6343 3.57399 0.00927922 0
M  V30 650 S 66.1933 4.36309 0.466859 0
M  V30 651 H 63.0113 0.710167 -0.0344016 0
M  V30 652 H 65.6133 1.79807 -0.767437 0
M  V30 653 H 64.3173 3.98889 -0.965178 0
M  V30 654 H 63.8483 3.86424 0.737547 0
M  V30 655 H 65.8633 4.6533 1.72287 0
M  V30 656 N 65.0364 0.313813 1.54444 0
M  V30 657 C 65.9844 -0.572171 2.25453 0
M  V30 658 C 66.9784 -1.12657 1.2651 0
M  V30 659 O 68.1844 -1.07573 1.44319 0
M  V30 660 H 64.5594 -0.203146 0.724041 0
M  V30 661 H 66.5304 0.0491145 2.9836 0
M  V30 662 C 65.2794 -1.72626 3.0182 0
M  V30 663 H 64.6024 -1.30891 3.77767 0
M  V30 664 H 66.0424 -2.32199 3.54767 0
M  V30 665 C 64.5014 -2.63806 2.09542 0
M  V30 666 O 65.0314 -3.65256 1.67185 0
M  V30 667 N 63.2374 -2.31824 1.75232 0
M  V30 668 H 62.7844 -1.49368 2.09873 0
M  V30 669 H 62.7424 -2.93095 1.13767 0
M  V30 670 N 66.5145 -1.57545 0.0417849 0
M  V30 671 C 67.4775 -2.09885 -0.92093 0
M  V30 672 C 68.4775 -1.01648 -1.24596 0
M  V30 673 O 69.6675 -1.27759 -1.1842 0
M  V30 674 C 66.7995 -2.57527 -2.23367 0
M  V30 675 H 67.9925 -2.96236 -0.467382 0
M  V30 676 H 65.5455 -1.5493 -0.206467 0
M  V30 677 H 66.2805 -1.74542 -2.73323 0
M  V30 678 H 66.0655 -3.36613 -2.01083 0
M  V30 679 H 67.5555 -2.98201 -2.92346 0
M  V30 680 N 67.9926 0.231505 -1.5589 0
M  V30 681 C 69.2176 0.978689 -1.82856 0
M  V30 682 C 69.6426 1.77559 -0.620846 0
M  V30 683 O 69.0006 1.76119 0.430305 0
M  V30 684 C 69.0486 1.87997 -3.07716 0
M  V30 685 O 68.1526 2.97393 -2.85712 0
M  V30 686 H 67.4936 0.277663 -0.603158 0
M  V30 687 H 70.0236 0.24783 -2.03093 0
M  V30 688 H 70.0336 2.2917 -3.37558 0
M  V30 689 H 68.7086 1.29417 -3.95252 0
M  V30 690 H 67.2856 2.60238 -2.67078 0
M  V30 691 N 69.4707 1.49531 0.497807 0
M  V30 692 C 70.7167 1.59415 1.25358 0
M  V30 693 C 71.0497 0.281422 1.9215 0
M  V30 694 O 70.3247 -0.715249 1.80871 0
M  V30 695 C 70.6077 2.75566 2.3181 0
M  V30 696 C 70.4607 4.16642 1.69498 0
M  V30 697 C 71.7797 2.87347 3.33346 0
M  V30 698 H 68.8987 0.580244 0.454408 0
M  V30 699 H 71.5407 1.81827 0.551262 0
M  V30 700 H 69.6907 2.56587 2.91711 0
M  V30 701 H 71.3627 4.47145 1.13399 0
M  V30 702 H 69.6057 4.22141 0.998978 0
M  V30 703 H 70.2767 4.93792 2.46725 0
M  V30 704 H 72.7527 3.04634 2.83438 0
M  V30 705 H 71.6287 3.70289 4.05188 0
M  V30 706 H 71.8897 1.96834 3.95865 0
M  V30 707 N 70.9488 -0.749086 1.3866 0
M  V30 708 C 72.2258 -1.4992 1.25632 0
M  V30 709 C 72.6058 -2.10633 -0.140317 0
M  V30 710 O 71.9538 -1.97437 -1.15025 0
M  V30 711 C 72.1638 -2.56195 2.36992 0
M  V30 712 C 73.5118 -3.22972 2.75634 0
M  V30 713 O 74.5358 -2.66502 2.36337 0
M  V30 714 O 73.3948 -4.25122 3.43415 0
M  V30 715 H 70.4888 -0.665067 0.491544 0
M  V30 716 H 73.0348 -0.784113 1.50498 0
M  V30 717 H 71.8068 -2.09612 3.30422 0
M  V30 718 H 71.4298 -3.35279 2.13714 0
M  V30 719 N 72.4269 -1.23603 -0.977757 0
M  V30 720 C 73.3569 -1.04401 -2.0886 0
M  V30 721 C 74.3379 0.0399052 -1.70053 0
M  V30 722 O 75.5229 -0.125246 -1.93796 0
M  V30 723 C 72.6529 -0.637269 -3.41403 0
M  V30 724 C 71.6069 -1.66883 -3.94124 0
M  V30 725 C 70.9329 -1.11745 -5.22893 0
M  V30 726 C 72.2329 -3.06247 -4.23096 0
M  V30 727 H 73.9269 -1.97316 -2.25182 0
M  V30 728 H 71.4729 -0.950096 -1.08209 0
M  V30 729 H 73.4259 -0.48998 -4.18542 0
M  V30 730 H 72.1499 0.327557 -3.24953 0
M  V30 731 H 70.8089 -1.80416 -3.19133 0
M  V30 732 H 70.4569 -0.143527 -5.02795 0
M  V30 733 H 70.1569 -1.80672 -5.59134 0
M  V30 734 H 71.6809 -0.982067 -6.02651 0
M  V30 735 H 73.0949 -2.96001 -4.90975 0
M  V30 736 H 71.4919 -3.72436 -4.70544 0
M  V30 737 H 72.5619 -3.55041 -3.30263 0
M  V30 738 N 73.905 1.17692 -1.04816 0
M  V30 739 C 75.154 1.87192 -0.751132 0
M  V30 740 C 75.467 1.8169 0.724441 0
M  V30 741 O 76.673 2.46625 1.13527 0
M  V30 742 C 75.129 3.35857 -1.29338 0
M  V30 743 C 74.737 3.4987 -2.79812 0
M  V30 744 C 76.481 4.10709 -1.07322 0
M  V30 745 C 74.388 4.92536 -3.27356 0
M  V30 746 H 73.318 0.701162 -0.277288 0
M  V30 747 H 75.969 1.32932 -1.26496 0
M  V30 748 H 74.351 3.89631 -0.707376 0
M  V30 749 H 75.525 3.06332 -3.44235 0
M  V30 750 H 73.84 2.88433 -3.00325 0
M  V30 751 H 76.437 5.15952 -1.4035 0
M  V30 752 H 76.78 4.16299 -0.0108001 0
M  V30 753 H 77.313 3.6313 -1.62423 0
M  V30 754 H 74.052 4.92119 -4.33012 0
M  V30 755 H 73.572 5.3676 -2.67673 0
M  V30 756 H 75.251 5.61288 -3.21815 0
M  V30 757 N 75.3831 0.828654 1.34056 0
M  V30 758 C 76.6311 0.41863 1.97717 0
M  V30 759 C 76.9521 -1.02314 1.66002 0
M  V30 760 O 76.2221 -1.71119 0.953683 0
M  V30 761 H 74.8021 0.151809 0.731412 0
M  V30 762 H 77.4641 1.05936 1.63596 0
M  V30 763 H 76.5601 0.542318 3.07352 0
M  V30 764 N 76.8612 -1.46375 0.584142 0
M  V30 765 C 78.0892 -2.06761 0.0759296 0
M  V30 766 C 78.5042 -1.43266 -1.22965 0
M  V30 767 O 77.8612 -0.538458 -1.74376 0
M  V30 768 C 77.9122 -3.61375 -0.0950384 0
M  V30 769 O 77.6332 -4.22495 1.15887 0
M  V30 770 C 79.1342 -4.38693 -0.637434 0
M  V30 771 H 76.3542 -0.668479 0.0581075 0
M  V30 772 H 78.8982 -1.8798 0.805218 0
M  V30 773 H 77.0532 -3.79578 -0.774554 0
M  V30 774 H 77.4672 -5.15385 0.973598 0
M  V30 775 H 78.9412 -5.47464 -0.706237 0
M  V30 776 H 79.4182 -4.06836 -1.65472 0
M  V30 777 H 80.0242 -4.25299 0.00725967 0
M  V30 778 N 78.3393 -0.321999 -1.54275 0
M  V30 779 C 79.5793 0.281657 -2.0245 0
M  V30 780 C 79.9433 1.49468 -1.20513 0
M  V30 781 O 81.1443 2.17109 -1.58484 0
M  V30 782 C 79.4153 0.609014 -3.52173 0
M  V30 783 S 80.9743 1.19255 -4.22284 0
M  V30 784 H 77.7923 0.0852825 -0.705867 0
M  V30 785 H 80.3943 -0.454758 -1.90137 0
M  V30 786 H 79.0983 -0.281982 -4.0943 0
M  V30 787 H 78.6293 1.37567 -3.68563 0
M  V30 788 H 80.6443 2.47944 -4.29812 0
M  V30 789 N 79.8174 1.5752 -0.0501392 0
M  V30 790 C 81.0634 1.93755 0.618901 0
M  V30 791 C 81.4184 0.928514 1.68512 0
M  V30 792 O 80.7114 -0.0524613 1.91528 0
M  V30 793 C 80.9054 3.34467 1.25963 0
M  V30 794 C 80.7344 4.48965 0.257 0
M  V30 795 C 79.5044 5.05075 -0.150656 0
M  V30 796 C 81.7024 5.11891 -0.497166 0
M  V30 797 N 79.6844 6.03104 -1.14626 0
M  V30 798 C 81.0554 6.05216 -1.34588 0
M  V30 799 C 83.1104 4.9479 -0.55559 0
M  V30 800 C 81.8134 6.83277 -2.24778 0
M  V30 801 C 83.8394 5.73477 -1.44492 0
M  V30 802 C 83.2014 6.66433 -2.28136 0
M  V30 803 H 79.3004 0.756479 0.198149 0
M  V30 804 H 81.8844 1.94316 -0.122229 0
M  V30 805 H 80.0554 3.34685 1.97079 0
M  V30 806 H 81.7874 3.57994 1.88739 0
M  V30 807 H 78.5424 4.7305 0.228094 0
M  V30 808 H 78.9664 6.56813 -1.64092 0
M  V30 809 H 83.6084 4.2273 0.0768625 0
M  V30 810 H 81.3264 7.54629 -2.89069 0
M  V30 811 H 84.9124 5.62273 -1.49468 0
M  V30 812 H 83.7924 7.26258 -2.95835 0
M  V30 813 N 81.2955 -0.223234 1.56011 0
M  V30 814 C 82.7065 -0.790368 1.69145 0
M  V30 815 C 83.0575 -1.85055 0.651845 0
M  V30 816 O 82.1825 -2.15498 -0.197359 0
M  V30 817 C 82.7775 -1.4404 3.06656 0
M  V30 818 C 81.3365 -1.95494 3.2165 0
M  V30 819 C 80.4835 -0.814506 2.65068 0
M  V30 820 H 83.4345 0.00139011 1.587 0
M  V30 821 H 83.4555 -2.30916 3.0242 0
M  V30 822 H 82.9675 -0.668543 3.82298 0
M  V30 823 H 81.0685 -2.75487 2.50874 0
M  V30 824 H 81.1815 -2.13607 4.28846 0
M  V30 825 H 79.5455 -1.22137 2.23505 0
M  V30 826 H 80.3285 -0.0553515 3.43255 0
M  V30 827 N 82.7736 -1.49793 -0.48987 0
M  V30 828 C 84.1896 -1.36803 -0.822022 0
M  V30 829 C 84.3896 -0.409652 -1.97292 0
M  V30 830 O 83.4456 0.154614 -2.52026 0
M  V30 831 C 84.7586 -2.77768 -1.15175 0
M  V30 832 C 86.3066 -2.86549 -1.25931 0
M  V30 833 C 86.7816 -4.28306 -1.62228 0
M  V30 834 N 88.2726 -4.31169 -1.69256 0
M  V30 835 C 89.0076 -5.37832 -1.98807 0
M  V30 836 N 88.5036 -6.54726 -2.26507 0
M  V30 837 N 90.2966 -5.25258 -2.00152 0
M  V30 838 H 82.4476 -2.10691 0.268881 0
M  V30 839 H 84.7106 -0.946241 0.057728 0
M  V30 840 H 84.4166 -3.49648 -0.379335 0
M  V30 841 H 84.2906 -3.13836 -2.09253 0
M  V30 842 H 86.6776 -2.14899 -2.02243 0
M  V30 843 H 86.7586 -2.54049 -0.298776 0
M  V30 844 H 86.4026 -5.00486 -0.864622 0
M  V30 845 H 86.3326 -4.58279 -2.594 0
M  V30 846 H 88.8236 -3.4687 -1.49965 0
M  V30 847 H 89.1366 -7.31833 -2.48276 0
M  V30 848 H 87.4816 -6.57933 -2.23939 0
M  V30 849 H 90.6726 -4.32938 -1.77996 0
M  V30 850 H 90.8456 -6.08476 -2.22848 0
M  V30 851 N 84.2517 0.741722 -1.39055 0
M  V30 852 C 85.4767 1.53607 -1.39354 0
M  V30 853 C 85.9017 1.88096 0.0116905 0
M  V30 854 O 85.2597 1.5143 0.996924 0
M  V30 855 C 85.3077 2.80441 -2.26682 0
M  V30 856 O 84.4117 3.76088 -1.69208 0
M  V30 857 H 83.7527 0.464142 -0.474835 0
M  V30 858 H 86.2827 0.915665 -1.82967 0
M  V30 859 H 86.2927 3.29246 -2.40959 0
M  V30 860 H 84.9677 2.5467 -3.2881 0
M  V30 861 H 83.5447 3.34833 -1.64138 0
M  V30 862 N 85.7298 1.2412 0.971189 0
M  V30 863 C 87.1408 1.07236 1.52831 0
M  V30 864 C 87.4918 -0.357352 1.92918 0
M  V30 865 O 86.6168 -1.24528 1.76979 0
M  V30 866 C 87.2118 1.94043 2.77728 0
M  V30 867 C 85.7708 1.81394 3.29808 0
M  V30 868 C 84.9178 1.89189 2.02738 0
M  V30 869 H 87.8688 1.37648 0.789864 0
M  V30 870 H 87.8898 1.47066 3.5093 0
M  V30 871 H 87.4018 2.98093 2.4852 0
M  V30 872 H 85.5028 0.801634 3.63874 0
M  V30 873 H 85.6158 2.65294 3.98944 0
M  V30 874 H 83.9798 1.32877 2.17292 0
M  V30 875 H 84.7628 2.94812 1.759 0
M  V30 876 N 87.2079 -1.17134 1.05439 0
M  V30 877 C 88.1709 -2.19439 0.661764 0
M  V30 878 C 89.1709 -1.58199 -0.288042 0
M  V30 879 O 90.3609 -1.74053 -0.0715803 0
M  V30 880 C 87.4929 -3.40889 -0.0276209 0
M  V30 881 H 88.6859 -2.55688 1.56728 0
M  V30 882 H 86.2389 -1.31259 0.848567 0
M  V30 883 H 86.9739 -3.10187 -0.94629 0
M  V30 884 H 86.7589 -3.86586 0.655238 0
M  V30 885 H 88.2489 -4.16603 -0.288342 0
M  V30 886 N 88.686 -0.835752 -1.33615 0
M  V30 887 C 89.934 -0.429109 -1.97492 0
M  V30 888 C 90.255 1.01433 -1.66543 0
M  V30 889 O 89.525 1.70611 -0.962744 0
M  V30 890 H 88.105 -0.155686 -0.730596 0
M  V30 891 H 90.767 -1.06802 -1.63031 0
M  V30 892 H 89.863 -0.55861 -3.0706 0
M  V30 893 N 90.1641 1.46063 -0.591896 0
M  V30 894 C 91.0961 2.28539 0.174001 0
M  V30 895 C 92.1091 1.39047 0.846753 0
M  V30 896 O 93.2981 1.63564 0.714774 0
M  V30 897 C 90.3981 3.14347 1.26645 0
M  V30 898 C 89.5711 4.32021 0.683856 0
M  V30 899 C 88.6301 4.99157 1.66518 0
M  V30 900 O 87.6561 5.56458 1.19763 0
M  V30 901 N 88.8581 4.97005 2.99943 0
M  V30 902 H 91.6231 2.94911 -0.533633 0
M  V30 903 H 89.1841 1.56077 -0.430294 0
M  V30 904 H 91.1761 3.56125 1.92242 0
M  V30 905 H 89.7461 2.49988 1.87682 0
M  V30 906 H 88.9661 3.93915 -0.1498 0
M  V30 907 H 90.2541 5.08059 0.274567 0
M  V30 908 H 89.6521 4.51714 3.40545 0
M  V30 909 H 88.2091 5.42696 3.61004 0
M  V30 910 N 91.6422 0.330177 1.54103 0
M  V30 911 C 92.5722 -0.525353 2.27513 0
M  V30 912 C 93.5532 -1.11383 1.2856 0
M  V30 913 O 94.7382 -1.13773 1.57383 0
M  V30 914 C 91.8682 -1.6831 3.03791 0
M  V30 915 C 90.8222 -1.2236 4.10137 0
M  V30 916 C 90.1482 -2.46882 4.74293 0
M  V30 917 C 91.4482 -0.333697 5.21233 0
M  V30 918 H 93.1422 0.087013 2.99274 0
M  V30 919 H 90.6882 0.0432893 1.43935 0
M  V30 920 H 92.6412 -2.28795 3.5388 0
M  V30 921 H 91.3652 -2.32216 2.29659 0
M  V30 922 H 90.0242 -0.64165 3.60941 0
M  V30 923 H 89.6722 -3.09165 3.96769 0
M  V30 924 H 89.3722 -2.16825 5.46133 0
M  V30 925 H 90.8962 -3.08117 5.27159 0
M  V30 926 H 92.3102 -0.845013 5.67038 0
M  V30 927 H 90.7072 -0.125612 5.99969 0
M  V30 928 H 91.7772 0.633724 4.80741 0
M  V30 929 N 93.1203 -1.57491 0.0584922 0
M  V30 930 C 94.3663 -1.93264 -0.614558 0
M  V30 931 C 94.6993 -0.937717 -1.7006 0
M  V30 932 O 93.9743 0.0351652 -1.94468 0
M  V30 933 C 94.2573 -3.3938 -1.20386 0
M  V30 934 C 94.1103 -4.49625 -0.125375 0
M  V30 935 C 95.4293 -3.86039 -2.11334 0
M  V30 936 H 92.5483 -0.702791 -0.221933 0
M  V30 937 H 95.1903 -1.8961 0.12175 0
M  V30 938 H 93.3403 -3.42626 -1.83139 0
M  V30 939 H 95.0123 -4.58506 0.506971 0
M  V30 940 H 93.2553 -4.30354 0.545672 0
M  V30 941 H 93.9263 -5.48967 -0.577861 0
M  V30 942 H 96.4023 -3.84716 -1.58534 0
M  V30 943 H 95.2783 -4.88914 -2.49507 0
M  V30 944 H 95.5393 -3.23215 -3.01636 0
M  V30 945 N 94.5984 0.214957 -1.56127 0
M  V30 946 C 95.8444 0.939762 -1.79712 0
M  V30 947 C 96.1774 1.83723 -0.629247 0
M  V30 948 O 95.4524 1.90925 0.371197 0
M  V30 949 C 95.7354 1.77306 -3.13424 0
M  V30 950 C 95.5884 0.90164 -4.40671 0
M  V30 951 C 96.9074 2.74956 -3.43638 0
M  V30 952 H 94.0264 0.340214 -0.653776 0
M  V30 953 H 96.6684 0.20824 -1.88855 0
M  V30 954 H 94.8184 2.39673 -3.0576 0
M  V30 955 H 96.4904 0.294206 -4.60361 0
M  V30 956 H 94.7334 0.207368 -4.33304 0
M  V30 957 H 95.4044 1.51923 -5.30682 0
M  V30 958 H 97.8804 2.22724 -3.51473 0
M  V30 959 H 96.7564 3.30358 -4.38355 0
M  V30 960 H 97.0174 3.53023 -2.66134 0
M  V30 961 N 96.0765 1.50051 0.48192 0
M  V30 962 C 97.4925 1.37237 0.814756 0
M  V30 963 C 97.6925 0.420109 1.97072 0
M  V30 964 O 96.7485 -0.141246 2.52105 0
M  V30 965 C 98.0615 2.78375 1.13701 0
M  V30 966 C 99.6095 2.87213 1.2441 0
M  V30 967 C 100.084 4.29161 1.59954 0
M  V30 968 N 101.575 4.32061 1.66967 0
M  V30 969 C 102.31 5.38879 1.95952 0
M  V30 970 N 101.806 6.55918 2.23031 0
M  V30 971 N 103.599 5.26312 1.97363 0
M  V30 972 H 95.7505 2.10546 -0.28005 0
M  V30 973 H 98.0135 0.945921 -0.0627454 0
M  V30 974 H 97.7195 3.49845 0.360787 0
M  V30 975 H 97.5935 3.14941 2.07586 0
M  V30 976 H 99.9805 2.15969 2.01101 0
M  V30 977 H 100.061 2.54204 0.285299 0
M  V30 978 H 99.7055 5.00938 0.838067 0
M  V30 979 H 99.6355 4.59648 2.56966 0
M  V30 980 H 102.126 3.47661 1.48123 0
M  V30 981 H 102.439 7.33139 2.44391 0
M  V30 982 H 100.784 6.59112 2.20447 0
M  V30 983 H 103.975 4.33876 1.75697 0
M  V30 984 H 104.148 6.09649 2.19618 0
M  V30 985 N 97.5546 -0.734337 1.39446 0
M  V30 986 C 98.9656 -1.31264 1.32766 0
M  V30 987 C 99.3166 -1.96198 -0.00767497 0
M  V30 988 O 98.4416 -1.96346 -0.909796 0
M  V30 989 C 99.0366 -2.38682 2.4045 0
M  V30 990 C 97.5956 -2.92184 2.37288 0
M  V30 991 C 96.7426 -1.6576 2.22304 0
M  V30 992 H 99.6936 -0.531799 1.49525 0
M  V30 993 H 99.7146 -3.19087 2.07276 0
M  V30 994 H 99.2266 -1.91392 3.37625 0
M  V30 995 H 97.3276 -3.43752 1.43754 0
M  V30 996 H 97.4406 -3.45253 3.3217 0
M  V30 997 H 95.8046 -1.9012 1.69489 0
M  V30 998 H 96.5876 -1.20521 3.21449 0
M  V30 999 N 99.0327 -1.24633 -0.964593 0
M  V30 1000 C 100.273 -1.09981 -1.72289 0
M  V30 1001 C 100.637 0.354792 -1.88693 0
M  V30 1002 O 101.838 0.62289 -2.61483 0
M  V30 1003 C 100.109 -1.82262 -3.07434 0
M  V30 1004 S 101.668 -1.83379 -3.98645 0
M  V30 1005 H 98.4857 -0.393292 -0.59232 0
M  V30 1006 H 101.088 -1.58009 -1.15123 0
M  V30 1007 H 99.7917 -2.87206 -2.93157 0
M  V30 1008 H 99.3227 -1.3458 -3.69664 0
M  V30 1009 H 101.338 -0.903691 -4.87901 0
M  V30 1010 N 100.511 1.16574 -1.06058 0
M  V30 1011 C 101.922 1.68662 -0.800632 0
M  V30 1012 C 102.273 1.84184 0.67608 0
M  V30 1013 O 101.398 1.53568 1.52466 0
M  V30 1014 C 101.993 3.06356 -1.44676 0
M  V30 1015 C 100.552 3.55575 -1.23465 0
M  V30 1016 C 99.6988 2.31616 -1.52477 0
M  V30 1017 H 102.65 1.00969 -1.22438 0
M  V30 1018 H 102.671 3.70636 -0.860788 0
M  V30 1019 H 102.183 2.95027 -2.52152 0
M  V30 1020 H 100.284 3.72167 -0.179527 0
M  V30 1021 H 100.397 4.37812 -1.94571 0
M  V30 1022 H 98.7608 2.36512 -0.945209 0
M  V30 1023 H 99.5438 2.22887 -2.61106 0
M  V30 1024 N 101.989 0.842826 1.3317 0
M  V30 1025 C 102.952 0.284065 2.27433 0
M  V30 1026 C 103.952 -0.54948 1.5112 0
M  V30 1027 O 105.142 -0.362699 1.70382 0
M  V30 1028 C 102.274 -0.599384 3.35589 0
M  V30 1029 H 103.467 1.11589 2.78366 0
M  V30 1030 H 101.02 0.616221 1.4364 0
M  V30 1031 H 101.755 -1.45349 2.89904 0
M  V30 1032 H 101.54 -0.00291266 3.921 0
M  V30 1033 H 103.03 -0.983488 4.05854 0
M  V30 1034 N 103.467 -1.45747 0.599634 0
M  V30 1035 C 104.714 -2.02292 0.0917284 0
M  V30 1036 C 105.042 -1.46906 -1.27472 0
M  V30 1037 O 104.297 -0.630652 -1.8526 0
M  V30 1038 C 104.596 -3.57399 -0.00602758 0
M  V30 1039 C 104.262 -4.31902 1.29503 0
M  V30 1040 C 102.924 -4.51974 1.65144 0
M  V30 1041 C 105.276 -4.74551 2.15525 0
M  V30 1042 C 102.604 -5.11949 2.86574 0
M  V30 1043 C 104.956 -5.35868 3.36196 0
M  V30 1044 C 103.62 -5.54165 3.72099 0
M  V30 1045 H 102.89 -0.740239 0.0335658 0
M  V30 1046 H 105.537 -1.7491 0.779661 0
M  V30 1047 H 103.842 -3.84014 -0.777183 0
M  V30 1048 H 105.539 -3.98846 -0.415038 0
M  V30 1049 H 102.129 -4.16588 1.00761 0
M  V30 1050 H 106.313 -4.58784 1.8929 0
M  V30 1051 H 101.569 -5.24305 3.14507 0
M  V30 1052 H 105.743 -5.6787 4.03109 0
M  V30 1053 H 103.37 -6.00406 4.6628 0
M  V30 1054 N 104.945 -0.338344 -1.53925 0
M  V30 1055 C 106.192 0.259758 -2.00827 0
M  V30 1056 C 106.52 1.50973 -1.22628 0
M  V30 1057 O 105.775 1.93379 -0.300509 0
M  V30 1058 C 106.074 0.62448 -3.51902 0
M  V30 1059 C 105.74 -0.528006 -4.47798 0
M  V30 1060 C 104.402 -0.844298 -4.73735 0
M  V30 1061 C 106.754 -1.30143 -5.0469 0
M  V30 1062 C 104.082 -1.93648 -5.53821 0
M  V30 1063 C 106.434 -2.38382 -5.85967 0
M  V30 1064 C 105.098 -2.70576 -6.10201 0
M  V30 1065 H 104.368 0.0950523 -0.734878 0
M  V30 1066 H 107.015 -0.465182 -1.85764 0
M  V30 1067 H 105.32 1.43006 -3.64769 0
M  V30 1068 H 107.017 1.09905 -3.85645 0
M  V30 1069 H 103.607 -0.271421 -4.2774 0
M  V30 1070 H 107.791 -1.07033 -4.84621 0
M  V30 1071 H 103.047 -2.19021 -5.70824 0
M  V30 1072 H 107.221 -2.98746 -6.29066 0
M  V30 1073 H 104.848 -3.55333 -6.72044 0
M  V30 1074 N 106.423 1.57458 -0.0668435 0
M  V30 1075 C 107.653 1.97337 0.611677 0
M  V30 1076 C 108.061 0.943744 1.63982 0
M  V30 1077 O 107.404 -0.0785584 1.83532 0
M  V30 1078 C 107.466 3.33511 1.34205 0
M  V30 1079 C 107.13 4.54598 0.467941 0
M  V30 1080 C 108.127 5.19186 -0.272439 0
M  V30 1081 C 105.812 5.0075 0.39427 0
M  V30 1082 C 107.806 6.28274 -1.07476 0
M  V30 1083 C 105.493 6.09711 -0.411729 0
M  V30 1084 C 106.491 6.73335 -1.14492 0
M  V30 1085 O 106.179 7.80199 -1.93763 0
M  V30 1086 H 105.911 0.654042 0.170893 0
M  V30 1087 H 108.465 2.04961 -0.134289 0
M  V30 1088 H 106.695 3.22487 2.13398 0
M  V30 1089 H 108.384 3.58029 1.91233 0
M  V30 1090 H 109.15 4.84477 -0.225086 0
M  V30 1091 H 105.029 4.51009 0.954569 0
M  V30 1092 H 108.573 6.77866 -1.64755 0
M  V30 1093 H 104.47 6.43854 -0.460664 0
M  V30 1094 H 105.238 7.97053 -1.86142 0
M  V30 1095 N 107.901 -0.206675 1.56239 0
M  V30 1096 C 109.149 -0.927007 1.79586 0
M  V30 1097 C 109.47 -1.8427 0.637929 0
M  V30 1098 O 108.74 -1.92849 -0.344398 0
M  V30 1099 H 107.32 -0.345292 0.662407 0
M  V30 1100 H 109.982 -0.21496 1.93711 0
M  V30 1101 H 109.078 -1.52501 2.72305 0
M  V30 1102 N 109.379 -1.50304 -0.473955 0
M  V30 1103 C 110.625 -1.61389 -1.22806 0
M  V30 1104 C 110.958 -0.311955 -1.91678 0
M  V30 1105 O 110.233 0.686384 -1.81986 0
M  V30 1106 C 110.516 -2.79219 -2.27396 0
M  V30 1107 C 110.369 -4.19286 -1.62848 0
M  V30 1108 C 111.688 -2.92614 -3.28732 0
M  V30 1109 H 108.807 -0.587399 -0.445119 0
M  V30 1110 H 111.449 -1.82681 -0.522265 0
M  V30 1111 H 109.599 -2.61195 -2.87592 0
M  V30 1112 H 111.271 -4.48892 -1.06271 0
M  V30 1113 H 109.514 -4.23677 -0.931693 0
M  V30 1114 H 110.185 -4.97655 -2.38838 0
M  V30 1115 H 112.661 -3.09105 -2.78556 0
M  V30 1116 H 111.537 -3.76688 -3.99246 0
M  V30 1117 H 111.798 -2.03107 -3.92683 0
M  V30 1118 N 110.857 0.726932 -1.39834 0
M  V30 1119 C 112.273 1.03354 -1.21615 0
M  V30 1120 C 112.473 2.01327 -0.08338 0
M  V30 1121 O 111.529 2.46158 0.56238 0
M  V30 1122 C 112.842 1.58811 -2.55342 0
M  V30 1123 C 114.39 1.70851 -2.62257 0
M  V30 1124 C 114.865 2.29716 -3.96225 0
M  V30 1125 N 116.356 2.37116 -3.97907 0
M  V30 1126 C 117.091 2.83619 -4.98345 0
M  V30 1127 N 116.587 3.29958 -6.09179 0
M  V30 1128 N 118.38 2.82901 -4.8572 0
M  V30 1129 H 110.531 0.0773069 -2.12259 0
M  V30 1130 H 112.794 0.0969102 -0.943034 0
M  V30 1131 H 112.5 0.942855 -3.38826 0
M  V30 1132 H 112.374 2.57502 -2.75632 0
M  V30 1133 H 114.761 2.34497 -1.79152 0
M  V30 1134 H 114.842 0.707913 -2.45809 0
M  V30 1135 H 114.486 1.66696 -4.79765 0
M  V30 1136 H 114.416 3.30469 -4.09997 0
M  V30 1137 H 116.907 2.04374 -3.17868 0
M  V30 1138 H 117.22 3.63976 -6.8172 0
M  V30 1139 H 115.565 3.27946 -6.12761 0
M  V30 1140 H 118.756 2.46027 -3.98231 0
M  V30 1141 H 118.929 3.18827 -5.6414 0
M  V30 1142 N 112.336 1.25143 0.95797 0
M  V30 1143 C 113.566 1.12261 1.73439 0
M  V30 1144 C 113.974 -0.326715 1.86358 0
M  V30 1145 O 113.317 -1.2367 1.35836 0
M  V30 1146 C 113.379 1.69966 3.16784 0
M  V30 1147 C 113.043 3.18936 3.27305 0
M  V30 1148 C 114.04 4.15968 3.11877 0
M  V30 1149 C 111.725 3.59083 3.51234 0
M  V30 1150 C 113.719 5.51126 3.20217 0
M  V30 1151 C 111.406 4.9438 3.5921 0
M  V30 1152 C 112.404 5.90211 3.43716 0
M  V30 1153 O 112.092 7.23046 3.51368 0
M  V30 1154 H 111.824 0.392476 0.550399 0
M  V30 1155 H 114.378 1.65927 1.21068 0
M  V30 1156 H 112.608 1.10744 3.70503 0
M  V30 1157 H 114.297 1.52232 3.76272 0
M  V30 1158 H 115.063 3.86292 2.93264 0
M  V30 1159 H 110.942 2.84989 3.62356 0
M  V30 1160 H 114.486 6.25905 3.0804 0
M  V30 1161 H 110.383 5.23723 3.77339 0
M  V30 1162 H 111.151 7.31097 3.6802 0
M  V30 1163 N 113.814 -1.1601 1.06675 0
M  V30 1164 C 114.762 -2.22586 0.675157 0
M  V30 1165 C 115.756 -1.66525 -0.310766 0
M  V30 1166 O 116.962 -1.79145 -0.175215 0
M  V30 1167 H 113.337 -0.724855 0.200223 0
M  V30 1168 H 115.308 -2.52899 1.58381 0
M  V30 1169 C 114.057 -3.47604 0.0817162 0
M  V30 1170 H 113.38 -3.91058 0.831484 0
M  V30 1171 H 114.82 -4.23718 -0.154708 0
M  V30 1172 C 113.279 -3.15718 -1.17576 0
M  V30 1173 O 113.809 -3.31878 -2.26318 0
M  V30 1174 N 112.015 -2.69816 -1.07923 0
M  V30 1175 H 111.562 -2.56866 -0.194293 0
M  V30 1176 H 111.52 -2.48855 -1.92141 0
M  V30 1177 N 115.292 -0.849877 -1.32721 0
M  V30 1178 C 116.52 -0.464754 -2.01613 0
M  V30 1179 C 116.935 0.937191 -1.63897 0
M  V30 1180 O 116.292 1.61081 -0.857856 0
M  V30 1181 C 116.343 -0.588638 -3.56675 0
M  V30 1182 O 116.064 -1.93535 -3.93034 0
M  V30 1183 C 117.565 -0.2019 -4.4284 0
M  V30 1184 H 114.785 -0.183215 -0.645502 0
M  V30 1185 H 117.329 -1.1455 -1.69407 0
M  V30 1186 H 115.484 0.0443159 -3.87375 0
M  V30 1187 H 115.898 -1.92871 -4.87751 0
M  V30 1188 H 117.372 -0.339599 -5.50954 0
M  V30 1189 H 117.849 0.857224 -4.30753 0
M  V30 1190 H 118.455 -0.809733 -4.17521 0
M  V30 1191 N 116.77 1.45427 -0.607355 0
M  V30 1192 C 117.998 2.06614 -0.108814 0
M  V30 1193 C 118.413 1.45204 1.2067 0
M  V30 1194 O 117.77 0.566132 1.73497 0
M  V30 1195 C 117.821 3.61481 0.0375347 0
M  V30 1196 O 117.542 4.20598 -1.22593 0
M  V30 1197 C 119.043 4.39652 0.567561 0
M  V30 1198 H 116.263 0.66747 -0.0687351 0
M  V30 1199 H 118.807 1.86675 -0.835022 0
M  V30 1200 H 116.962 3.80762 0.714068 0
M  V30 1201 H 117.376 5.1377 -1.05547 0
M  V30 1202 H 118.85 5.48518 0.61905 0
M  V30 1203 H 119.327 4.09417 1.58978 0
M  V30 1204 H 119.933 4.25234 -0.0749202 0
M  V30 1205 N 118.248 0.346503 1.53744 0
M  V30 1206 C 119.196 -0.52422 2.26616 0
M  V30 1207 C 120.19 -1.09948 1.28871 0
M  V30 1208 O 121.396 -1.04488 1.46568 0
M  V30 1209 H 117.771 -0.187743 0.728187 0
M  V30 1210 H 119.742 0.11239 2.98188 0
M  V30 1211 C 118.491 -1.66186 3.05414 0
M  V30 1212 H 117.814 -1.22848 3.80458 0
M  V30 1213 H 119.254 -2.24622 3.59612 0
M  V30 1214 C 117.713 -2.59302 2.1509 0
M  V30 1215 O 118.243 -3.61628 1.74895 0
M  V30 1216 N 116.449 -2.28055 1.8011 0
M  V30 1217 H 115.996 -1.44883 2.12994 0
M  V30 1218 H 115.954 -2.90615 1.19958 0
M  V30 1219 N 119.726 -1.57421 0.075193 0
M  V30 1220 C 120.674 -2.14124 -0.908508 0
M  V30 1221 C 121.668 -1.07898 -1.30592 0
M  V30 1222 O 122.874 -1.26273 -1.28277 0
M  V30 1223 H 119.249 -0.684707 -0.310935 0
M  V30 1224 H 121.22 -2.95634 -0.405374 0
M  V30 1225 C 119.969 -2.72044 -2.16535 0
M  V30 1226 H 119.292 -3.53456 -1.86839 0
M  V30 1227 H 120.732 -3.15311 -2.83469 0
M  V30 1228 C 119.191 -1.66968 -2.92615 0
M  V30 1229 O 119.721 -1.0967 -3.86439 0
M  V30 1230 N 117.927 -1.37923 -2.55784 0
M  V30 1231 H 117.474 -1.84706 -1.79559 0
M  V30 1232 H 117.432 -0.67852 -3.06991 0
M  V30 1233 N 121.204 0.198386 -1.56346 0
M  V30 1234 C 122.452 0.91747 -1.80075 0
M  V30 1235 C 122.773 1.83929 -0.647692 0
M  V30 1236 O 122.043 1.93029 0.334166 0
M  V30 1237 H 120.623 0.341774 -0.664228 0
M  V30 1238 H 123.285 0.204684 -1.93822 0
M  V30 1239 H 122.381 1.51055 -2.7311 0
M  V30 1240 N 122.682 1.50554 0.465978 0
M  V30 1241 C 123.912 1.65323 1.23903 0
M  V30 1242 C 124.32 0.338051 1.86155 0
M  V30 1243 O 123.663 -0.690518 1.70228 0
M  V30 1244 C 123.725 2.69048 2.3844 0
M  V30 1245 C 123.389 4.12462 1.96784 0
M  V30 1246 C 124.386 4.98168 1.48745 0
M  V30 1247 C 122.071 4.58407 2.05349 0
M  V30 1248 C 124.065 6.27868 1.0982 0
M  V30 1249 C 121.752 5.88112 1.66035 0
M  V30 1250 C 122.75 6.72668 1.18349 0
M  V30 1251 O 122.438 7.99951 0.795825 0
M  V30 1252 H 122.17 0.558629 0.38067 0
M  V30 1253 H 124.724 1.97561 0.562022 0
M  V30 1254 H 122.954 2.32062 3.09328 0
M  V30 1255 H 124.643 2.72985 3.0039 0
M  V30 1256 H 125.409 4.63885 1.41546 0
M  V30 1257 H 121.288 3.92735 2.41414 0
M  V30 1258 H 124.832 6.93819 0.725293 0
M  V30 1259 H 120.729 6.21914 1.72895 0
M  V30 1260 H 121.497 8.13265 0.924222 0
M  V30 1261 N 124.16 -0.719506 1.40217 0
M  V30 1262 C 125.576 -1.02707 1.22161 0
M  V30 1263 C 125.776 -2.0128 0.0940557 0
M  V30 1264 O 124.832 -2.46452 -0.549318 0
M  V30 1265 C 126.145 -1.57454 2.56181 0
M  V30 1266 C 127.693 -1.69458 2.63159 0
M  V30 1267 C 128.168 -2.27611 3.97438 0
M  V30 1268 N 129.659 -2.35002 3.99159 0
M  V30 1269 C 130.394 -2.80972 4.99842 0
M  V30 1270 N 129.89 -3.26723 6.10921 0
M  V30 1271 N 131.683 -2.80321 4.87213 0
M  V30 1272 H 123.834 -0.0660492 2.12297 0
M  V30 1273 H 126.097 -0.0919077 0.943534 0
M  V30 1274 H 125.803 -0.924873 3.39321 0
M  V30 1275 H 125.677 -2.56036 2.76993 0
M  V30 1276 H 128.064 -2.33543 1.80393 0
M  V30 1277 H 128.145 -0.694867 2.46181 0
M  V30 1278 H 127.789 -1.6415 4.80643 0
M  V30 1279 H 127.719 -3.2829 4.11744 0
M  V30 1280 H 130.21 -2.02685 3.18947 0
M  V30 1281 H 130.523 -3.60355 6.8364 0
M  V30 1282 H 128.868 -3.24692 6.14492 0
M  V30 1283 H 132.059 -2.43912 3.9953 0
M  V30 1284 H 132.232 -3.15831 5.65822 0
M  V30 1285 N 125.638 -1.25649 -0.95132 0
M  V30 1286 C 126.548 -1.08073 -2.08224 0
M  V30 1287 C 127.564 -0.0169666 -1.73992 0
M  V30 1288 O 128.74 -0.218593 -2.0021 0
M  V30 1289 C 125.805 -0.704922 -3.39458 0
M  V30 1290 C 124.866 -1.84699 -3.87537 0
M  V30 1291 C 124.099 -1.48902 -5.12508 0
M  V30 1292 O 124.322 -0.386156 -5.69091 0
M  V30 1293 O 123.256 -2.32033 -5.55378 0
M  V30 1294 H 127.082 -2.02924 -2.25954 0
M  V30 1295 H 124.667 -1.04618 -1.06656 0
M  V30 1296 H 126.549 -0.507609 -4.18332 0
M  V30 1297 H 125.224 0.214291 -3.2299 0
M  V30 1298 H 124.131 -2.09919 -3.09653 0
M  V30 1299 H 125.464 -2.74557 -4.08509 0
M  V30 1300 N 127.117 1.15442 -1.07289 0
M  V30 1301 C 128.357 1.8788 -0.805012 0
M  V30 1302 C 128.721 1.80413 0.656907 0
M  V30 1303 O 129.922 2.47874 1.0398 0
M  V30 1304 C 128.193 3.3298 -1.29843 0
M  V30 1305 S 129.752 4.23158 -1.16114 0
M  V30 1306 H 126.57 0.64839 -0.291739 0
M  V30 1307 H 129.172 1.39285 -1.37186 0
M  V30 1308 H 127.876 3.35958 -2.35712 0
M  V30 1309 H 127.407 3.86629 -0.726767 0
M  V30 1310 H 129.422 4.96103 -0.0982778 0
M  V30 1311 N 128.595 0.856903 1.32268 0
M  V30 1312 C 129.525 0.31858 2.31316 0
M  V30 1313 C 130.506 -0.583487 1.59779 0
M  V30 1314 O 131.691 -0.503259 1.87566 0
M  V30 1315 C 128.821 -0.491979 3.43798 0
M  V30 1316 C 127.775 0.315849 4.26833 0
M  V30 1317 C 127.101 -0.619586 5.31098 0
M  V30 1318 C 128.401 1.54282 4.98993 0
M  V30 1319 H 130.095 1.14621 2.76591 0
M  V30 1320 H 127.641 0.552613 1.32974 0
M  V30 1321 H 129.594 -0.879012 4.1213 0
M  V30 1322 H 128.318 -1.35299 2.97257 0
M  V30 1323 H 126.977 0.684664 3.6015 0
M  V30 1324 H 126.625 -1.47751 4.8081 0
M  V30 1325 H 126.325 -0.0830621 5.87541 0
M  V30 1326 H 127.849 -1.00375 6.02293 0
M  V30 1327 H 129.263 1.22796 5.59995 0
M  V30 1328 H 127.66 2.01745 5.65172 0
M  V30 1329 H 128.73 2.30285 4.26728 0
M  V30 1330 N 130.073 -1.45103 0.615059 0
M  V30 1331 C 131.036 -2.29025 -0.0895485 0
M  V30 1332 C 132.036 -1.40174 -0.787906 0
M  V30 1333 O 133.226 -1.62217 -0.634933 0
M  V30 1334 C 130.358 -3.21376 -1.13711 0
M  V30 1335 H 131.551 -2.92807 0.648382 0
M  V30 1336 H 129.104 -1.51749 0.374444 0
M  V30 1337 H 129.839 -2.6241 -1.90556 0
M  V30 1338 H 129.624 -3.86834 -0.640475 0
M  V30 1339 H 131.114 -3.84459 -1.63036 0
M  V30 1340 N 131.551 -0.354651 -1.53558 0
M  V30 1341 C 132.499 0.512195 -2.26891 0
M  V30 1342 C 133.493 1.09263 -1.29452 0
M  V30 1343 O 134.699 1.03709 -1.47121 0
M  V30 1344 H 131.074 0.183878 -0.729173 0
M  V30 1345 H 133.045 -0.128202 -2.98124 0
M  V30 1346 C 131.794 1.64563 -3.06291 0
M  V30 1347 H 131.117 1.20829 -3.81104 0
M  V30 1348 H 132.557 2.22711 -3.60799 0
M  V30 1349 C 131.016 2.58158 -2.16462 0
M  V30 1350 O 131.546 3.60695 -1.76811 0
M  V30 1351 N 129.752 2.27096 -1.81317 0
M  V30 1352 H 129.299 1.43751 -2.1376 0
M  V30 1353 H 129.257 2.89975 -1.21498 0
M  V30 1354 N 133.029 1.57378 -0.0835403 0
M  V30 1355 C 134.277 1.93547 0.581718 0
M  V30 1356 C 134.598 0.96524 1.69435 0
M  V30 1357 O 133.868 0.0153369 1.95894 0
M  V30 1358 H 132.448 0.714521 0.217874 0
M  V30 1359 H 135.11 1.94366 -0.144158 0
M  V30 1360 H 134.206 2.95665 0.999423 0
M  V30 1361 N 134.507 -0.190092 1.56449 0
M  V30 1362 C 135.732 -0.929864 1.85387 0
M  V30 1363 C 136.157 -1.7585 0.667704 0
M  V30 1364 O 135.515 -1.77198 -0.383459 0
M  V30 1365 C 135.563 -1.79773 3.12593 0
M  V30 1366 O 134.667 -2.89713 2.93496 0
M  V30 1367 H 134.008 -0.261574 0.610307 0
M  V30 1368 H 136.538 -0.193896 2.03679 0
M  V30 1369 H 136.548 -2.20139 3.43515 0
M  V30 1370 H 135.223 -1.18892 3.98544 0
M  V30 1371 H 133.8 -2.53065 2.73884 0
M  V30 1372 N 135.985 -1.50799 -0.457987 0
M  V30 1373 C 137.231 -1.63648 -1.20792 0
M  V30 1374 C 137.586 -0.338662 -1.89396 0
M  V30 1375 O 136.879 0.664291 -1.79716 0
M  V30 1376 C 137.073 -2.76358 -2.2663 0
M  V30 1377 C 136.902 -4.16974 -1.68411 0
M  V30 1378 C 135.672 -4.83199 -1.47807 0
M  V30 1379 C 137.87 -5.00774 -1.17176 0
M  V30 1380 N 135.852 -6.07991 -0.849692 0
M  V30 1381 C 137.223 -6.16397 -0.667403 0
M  V30 1382 C 139.278 -4.86452 -1.06155 0
M  V30 1383 C 137.981 -7.19272 -0.0636908 0
M  V30 1384 C 140.007 -5.89515 -0.471759 0
M  V30 1385 C 139.369 -7.04397 0.0221557 0
M  V30 1386 H 135.468 -0.652888 -0.43042 0
M  V30 1387 H 138.052 -1.87962 -0.507785 0
M  V30 1388 H 136.223 -2.53744 -2.94056 0
M  V30 1389 H 137.955 -2.78496 -2.93636 0
M  V30 1390 H 134.71 -4.40714 -1.73403 0
M  V30 1391 H 135.134 -6.74733 -0.553537 0
M  V30 1392 H 139.776 -3.97907 -1.42932 0
M  V30 1393 H 137.494 -8.07481 0.316253 0
M  V30 1394 H 141.08 -5.805 -0.388671 0
M  V30 1395 H 139.96 -7.82782 0.471375 0
M  V30 1396 N 137.463 0.71206 -1.40597 0
M  V30 1397 C 138.426 1.80785 -1.40888 0
M  V30 1398 C 139.426 1.57937 -0.302103 0
M  V30 1399 O 140.616 1.64913 -0.561182 0
M  V30 1400 C 137.748 3.18927 -1.20409 0
M  V30 1401 H 138.941 1.81924 -2.38419 0
M  V30 1402 H 136.494 0.91805 -1.26497 0
M  V30 1403 H 137.229 3.23436 -0.236522 0
M  V30 1404 H 137.014 3.36911 -2.00582 0
M  V30 1405 H 138.504 3.98949 -1.23408 0
M  V30 1406 N 138.941 1.26152 0.944643 0
M  V30 1407 C 139.904 1.07474 2.0244 0
M  V30 1408 C 140.904 0.0242064 1.60782 0
M  V30 1409 O 142.094 0.267302 1.72137 0
M  V30 1410 C 139.226 0.633956 3.34953 0
M  V30 1411 H 140.419 2.03336 2.20442 0
M  V30 1412 H 137.972 1.087 1.12312 0
M  V30 1413 H 138.707 -0.326811 3.22649 0
M  V30 1414 H 138.492 1.39247 3.66542 0
M  V30 1415 H 139.982 0.52501 4.14287 0
M  V30 1416 N 140.419 -1.14872 1.07899 0
M  V30 1417 C 141.835 -1.37776 0.805606 0
M  V30 1418 C 142.035 -1.92743 -0.587555 0
M  V30 1419 O 141.091 -2.13678 -1.34528 0
M  V30 1420 C 142.404 -2.34361 1.88402 0
M  V30 1421 C 143.952 -2.48012 1.90942 0
M  V30 1422 C 144.427 -3.47893 2.97883 0
M  V30 1423 N 145.918 -3.55433 2.97021 0
M  V30 1424 C 146.653 -4.32553 3.76412 0
M  V30 1425 N 146.149 -5.12959 4.65666 0
M  V30 1426 N 147.942 -4.27697 3.64735 0
M  V30 1427 H 140.093 -0.775365 1.97742 0
M  V30 1428 H 142.356 -0.403521 0.857831 0
M  V30 1429 H 142.062 -2.01098 2.88535 0
M  V30 1430 H 141.936 -3.34206 1.74889 0
M  V30 1431 H 144.323 -2.8057 0.914579 0
M  V30 1432 H 144.404 -1.48147 2.08534 0
M  V30 1433 H 144.048 -3.16069 3.97571 0
M  V30 1434 H 143.978 -4.47527 2.77538 0
M  V30 1435 H 146.469 -2.98048 2.32326 0
M  V30 1436 H 146.782 -5.69065 5.22862 0
M  V30 1437 H 145.127 -5.12245 4.69712 0
M  V30 1438 H 148.318 -3.63949 2.94378 0
M  V30 1439 H 148.491 -4.8755 4.26848 0
M  V30 1440 N 141.898 -0.863906 -1.31812 0
M  V30 1441 C 143.144 -0.472535 -1.97218 0
M  V30 1442 C 143.477 0.971394 -1.68159 0
M  V30 1443 O 142.752 1.68309 -0.974798 0
M  V30 1444 C 143.035 -0.723054 -3.52766 0
M  V30 1445 C 142.888 -2.21608 -3.91421 0
M  V30 1446 C 144.207 -0.185522 -4.39709 0
M  V30 1447 H 141.326 -0.173158 -0.71637 0
M  V30 1448 H 143.968 -1.08403 -1.56041 0
M  V30 1449 H 142.118 -0.202577 -3.87971 0
M  V30 1450 H 143.79 -2.80334 -3.66347 0
M  V30 1451 H 142.033 -2.691 -3.40246 0
M  V30 1452 H 142.704 -2.34203 -4.99853 0
M  V30 1453 H 145.18 -0.630726 -4.11292 0
M  V30 1454 H 144.056 -0.390306 -5.47511 0
M  V30 1455 H 144.317 0.912229 -4.32586 0
M  V30 1456 N 143.376 1.44774 -0.622745 0
M  V30 1457 C 144.324 2.32387 0.0994683 0
M  V30 1458 C 145.318 1.46859 0.844326 0
M  V30 1459 O 146.524 1.63254 0.758174 0
M  V30 1460 H 142.899 0.750273 0.0509291 0
M  V30 1461 H 144.87 2.91062 -0.65767 0
M  V30 1462 C 143.619 3.30723 1.07319 0
M  V30 1463 H 142.942 3.96541 0.509462 0
M  V30 1464 H 144.382 3.94725 1.54817 0
M  V30 1465 C 142.841 2.59021 2.15429 0
M  V30 1466 O 143.371 2.38286 3.23393 0
M  V30 1467 N 141.577 2.189 1.91131 0
M  V30 1468 H 141.124 2.35964 1.03337 0
M  V30 1469 H 141.082 1.71251 2.63668 0
M  V30 1470 N 144.854 0.36279 1.53368 0
M  V30 1471 C 146.084 -0.228281 2.05335 0
M  V30 1472 C 146.492 -1.43226 1.23625 0
M  V30 1473 O 145.835 -1.81717 0.269206 0
M  V30 1474 C 145.897 -0.688549 3.52845 0
M  V30 1475 C 145.561 0.398362 4.5526 0
M  V30 1476 C 146.558 1.24732 5.04716 0
M  V30 1477 C 144.243 0.557805 4.99193 0
M  V30 1478 C 146.237 2.2411 5.96702 0
M  V30 1479 C 143.924 1.55495 5.90986 0
M  V30 1480 C 144.922 2.39503 6.39631 0
M  V30 1481 O 144.61 3.37517 7.29615 0
M  V30 1482 H 144.342 -0.044395 0.674541 0
M  V30 1483 H 146.896 0.518668 1.98744 0
M  V30 1484 H 145.126 -1.48706 3.56964 0
M  V30 1485 H 146.815 -1.20231 3.87685 0
M  V30 1486 H 147.581 1.13532 4.71525 0
M  V30 1487 H 143.46 -0.0862959 4.60919 0
M  V30 1488 H 147.004 2.89718 6.34594 0
M  V30 1489 H 142.901 1.66744 6.23592 0
M  V30 1490 H 143.669 3.33213 7.47604 0
M  V30 1491 N 146.332 -1.57332 0.0918853 0
M  V30 1492 C 147.557 -1.98995 -0.584442 0
M  V30 1493 C 147.982 -0.970528 -1.61128 0
M  V30 1494 O 147.34 0.0613904 -1.81196 0
M  V30 1495 C 147.388 -3.39636 -1.21161 0
M  V30 1496 O 146.492 -3.40447 -2.32744 0
M  V30 1497 H 145.833 -0.647165 -0.148572 0
M  V30 1498 H 148.363 -2.03873 0.172347 0
M  V30 1499 H 148.373 -3.7726 -1.55367 0
M  V30 1500 H 147.048 -4.13356 -0.459313 0
M  V30 1501 H 145.625 -3.14614 -2.0018 0
M  V30 1502 N 147.81 0.181792 -1.56548 0
M  V30 1503 C 148.72 1.24538 -1.98815 0
M  V30 1504 C 149.736 1.49045 -0.897861 0
M  V30 1505 O 150.912 1.61399 -1.20467 0
M  V30 1506 C 147.977 2.56683 -2.33055 0
M  V30 1507 C 147.038 2.40131 -3.55859 0
M  V30 1508 C 146.271 3.65975 -3.88456 0
M  V30 1509 O 146.494 4.70711 -3.22161 0
M  V30 1510 O 145.428 3.6071 -4.81842 0
M  V30 1511 H 149.254 0.916647 -2.89536 0
M  V30 1512 H 146.839 0.387842 -1.44278 0
M  V30 1513 H 148.721 3.34655 -2.56094 0
M  V30 1514 H 147.396 2.89157 -1.45498 0
M  V30 1515 H 146.303 1.60226 -3.38051 0
M  V30 1516 H 147.636 2.12585 -4.43924 0
M  V30 1517 N 149.288 1.51039 0.449983 0
M  V30 1518 C 150.528 1.64732 1.21007 0
M  V30 1519 C 150.892 0.349865 1.88785 0
M  V30 1520 O 152.093 0.362431 2.66345 0
M  V30 1521 C 150.364 2.80902 2.20973 0
M  V30 1522 S 151.923 3.14851 3.05638 0
M  V30 1523 H 148.741 0.5805 0.410538 0
M  V30 1524 H 151.343 1.88901 0.503634 0
M  V30 1525 H 150.047 3.73627 1.69796 0
M  V30 1526 H 149.578 2.58882 2.96215 0
M  V30 1527 H 151.593 2.60306 4.22439 0
M  V30 1528 N 150.766 -0.704594 1.40972 0
M  V30 1529 C 151.698 -1.82974 1.38033 0
M  V30 1530 C 152.711 -1.60305 0.283931 0
M  V30 1531 O 153.9 -1.69975 0.545042 0
M  V30 1532 C 151 -3.19578 1.12795 0
M  V30 1533 C 150.173 -3.69352 2.34302 0
M  V30 1534 C 149.232 -4.84601 2.05058 0
M  V30 1535 O 148.258 -4.96682 2.7802 0
M  V30 1536 N 149.46 -5.71194 1.03528 0
M  V30 1537 H 152.225 -1.85991 2.35005 0
M  V30 1538 H 149.786 -0.886567 1.35468 0
M  V30 1539 H 151.778 -3.9429 0.911987 0
M  V30 1540 H 150.348 -3.11642 0.24452 0
M  V30 1541 H 149.568 -2.85649 2.71659 0
M  V30 1542 H 150.856 -3.99345 3.1528 0
M  V30 1543 H 150.254 -5.64054 0.431217 0
M  V30 1544 H 148.811 -6.45843 0.879205 0
M  V30 1545 N 152.244 -1.26651 -0.937939 0
M  V30 1546 C 153.154 -1.10276 -2.07066 0
M  V30 1547 C 154.17 -0.0354197 -1.73964 0
M  V30 1548 O 155.346 -0.239816 -1.99967 0
M  V30 1549 C 152.411 -0.740887 -3.38691 0
M  V30 1550 C 151.472 -1.88799 -3.85556 0
M  V30 1551 C 150.705 -1.54329 -5.10899 0
M  V30 1552 O 150.928 -0.446494 -5.6865 0
M  V30 1553 O 149.862 -2.37911 -5.52885 0
M  V30 1554 H 153.688 -2.05309 -2.23789 0
M  V30 1555 H 151.273 -1.05743 -1.0554 0
M  V30 1556 H 153.155 -0.55195 -4.1777 0
M  V30 1557 H 151.83 0.180022 -3.23199 0
M  V30 1558 H 150.737 -2.13191 -3.07409 0
M  V30 1559 H 152.07 -2.78874 -4.05574 0
M  V30 1560 N 153.722 1.14298 -1.08507 0
M  V30 1561 C 154.971 1.84708 -0.810305 0
M  V30 1562 C 155.284 1.83903 0.666271 0
M  V30 1563 O 156.49 2.50112 1.05624 0
M  V30 1564 C 154.946 3.31572 -1.39957 0
M  V30 1565 C 154.554 3.40791 -2.90801 0
M  V30 1566 C 156.298 4.07087 -1.20334 0
M  V30 1567 C 154.205 4.81872 -3.4286 0
M  V30 1568 H 153.135 0.691985 -0.299454 0
M  V30 1569 H 155.786 1.28841 -1.30661 0
M  V30 1570 H 154.168 3.87183 -0.830976 0
M  V30 1571 H 155.342 2.95225 -3.53806 0
M  V30 1572 H 153.657 2.78732 -3.0935 0
M  V30 1573 H 156.254 5.11225 -1.56693 0
M  V30 1574 H 156.597 4.16054 -0.143237 0
M  V30 1575 H 157.13 3.57779 -1.73893 0
M  V30 1576 H 153.869 4.78094 -4.48449 0
M  V30 1577 H 153.389 5.27972 -2.84615 0
M  V30 1578 H 155.068 5.50765 -3.39509 0
M  V30 1579 N 155.201 0.870884 1.31352 0
M  V30 1580 C 156.131 0.343096 2.30966 0
M  V30 1581 C 157.112 -0.566507 1.60389 0
M  V30 1582 O 158.297 -0.483336 1.88089 0
M  V30 1583 C 155.427 -0.455487 3.443 0
M  V30 1584 C 154.381 0.361103 4.26474 0
M  V30 1585 C 153.707 -0.563221 5.31725 0
M  V30 1586 C 155.007 1.59566 4.97329 0
M  V30 1587 H 156.701 1.17548 2.75359 0
M  V30 1588 H 154.247 0.566686 1.32381 0
M  V30 1589 H 156.2 -0.83525 4.13039 0
M  V30 1590 H 154.924 -1.32139 2.98675 0
M  V30 1591 H 153.583 0.722825 3.59403 0
M  V30 1592 H 153.231 -1.42643 4.82351 0
M  V30 1593 H 152.931 -0.0207409 5.87596 0
M  V30 1594 H 154.455 -0.939808 6.03324 0
M  V30 1595 H 155.869 1.28728 5.58661 0
M  V30 1596 H 154.266 2.07728 5.63 0
M  V30 1597 H 155.336 2.34798 4.24262 0
M  V30 1598 N 156.679 -1.44442 0.630414 0
M  V30 1599 C 157.627 -2.32437 -0.0871428 0
M  V30 1600 C 158.621 -1.47304 -0.836525 0
M  V30 1601 O 159.827 -1.63653 -0.749506 0
M  V30 1602 H 156.202 -0.750533 -0.0469495 0
M  V30 1603 H 158.173 -2.90709 0.673096 0
M  V30 1604 C 156.922 -3.31288 -1.05563 0
M  V30 1605 H 156.245 -3.96805 -0.488426 0
M  V30 1606 H 157.685 -3.9554 -1.52721 0
M  V30 1607 C 156.144 -2.6016 -2.14052 0
M  V30 1608 O 156.674 -2.39997 -3.22124 0
M  V30 1609 N 154.88 -2.19911 -1.89967 0
M  V30 1610 H 154.427 -2.36509 -1.02085 0
M  V30 1611 H 154.385 -1.72646 -2.62756 0
M  V30 1612 N 158.157 -0.370918 -1.53173 0
M  V30 1613 C 159.067 0.480823 -2.2962 0
M  V30 1614 C 160.083 1.08789 -1.35798 0
M  V30 1615 O 161.259 1.09768 -1.68858 0
M  V30 1616 C 158.324 1.60227 -3.07454 0
M  V30 1617 C 157.385 1.0222 -4.16953 0
M  V30 1618 C 156.618 2.0902 -4.91066 0
M  V30 1619 O 156.841 3.30222 -4.65091 0
M  V30 1620 O 155.775 1.71778 -5.76867 0
M  V30 1621 H 159.601 -0.141421 -3.03371 0
M  V30 1622 H 157.186 -0.135146 -1.48787 0
M  V30 1623 H 159.068 2.25417 -3.56041 0
M  V30 1624 H 157.743 2.20982 -2.36535 0
M  V30 1625 H 156.65 0.334064 -3.72605 0
M  V30 1626 H 157.983 0.459131 -4.90054 0
M  V30 1627 N 159.635 1.57281 -0.100228 0
M  V30 1628 C 160.545 2.17833 0.870965 0
M  V30 1629 C 161.561 1.14921 1.30649 0
M  V30 1630 O 162.737 1.47313 1.37335 0
M  V30 1631 C 159.802 2.75085 2.1102 0
M  V30 1632 C 158.863 3.9297 1.72838 0
M  V30 1633 C 158.096 4.47482 2.90854 0
M  V30 1634 O 158.319 4.00922 4.05731 0
M  V30 1635 O 157.253 5.38433 2.69023 0
M  V30 1636 H 161.079 3.0124 0.38575 0
M  V30 1637 H 158.664 1.48881 0.124397 0
M  V30 1638 H 160.546 3.11656 2.83634 0
M  V30 1639 H 159.221 1.94721 2.58584 0
M  V30 1640 H 158.128 3.61201 0.973883 0
M  V30 1641 H 159.461 4.74713 1.30033 0
M  V30 1642 N 161.113 -0.173488 1.56642 0
M  V30 1643 C 162.06 -1.21482 1.96242 0
M  V30 1644 C 163.03 -1.44104 0.826027 0
M  V30 1645 O 164.215 -1.5688 1.08597 0
M  V30 1646 C 161.355 -2.54964 2.32567 0
M  V30 1647 C 160.468 -2.39739 3.59373 0
M  V30 1648 C 159.603 -3.66072 3.84921 0
M  V30 1649 C 158.642 -3.45771 5.05083 0
M  V30 1650 N 157.779 -4.64169 5.26775 0
M  V30 1651 H 162.619 -0.870123 2.85014 0
M  V30 1652 H 160.156 -0.418245 1.41029 0
M  V30 1653 H 162.114 -3.32758 2.5165 0
M  V30 1654 H 160.744 -2.87433 1.46908 0
M  V30 1655 H 159.796 -1.53131 3.48217 0
M  V30 1656 H 161.108 -2.20683 4.47326 0
M  V30 1657 H 160.262 -4.52303 4.0436 0
M  V30 1658 H 159.001 -3.88105 2.9534 0
M  V30 1659 H 158.006 -2.57927 4.85545 0
M  V30 1660 H 159.231 -3.25163 5.96193 0
M  V30 1661 H 157.177 -4.86425 4.40144 0
M  V30 1662 H 157.094 -4.48019 6.08946 0
M  V30 1663 H 158.362 -5.51689 5.5069 0
M  V30 1664 N 162.591 -1.51276 -0.441967 0
M  V30 1665 C 163.538 -1.72256 -1.53612 0
M  V30 1666 C 164.508 -0.564164 -1.56225 0
M  V30 1667 O 165.693 -0.798074 -1.73307 0
M  V30 1668 C 162.833 -1.84932 -2.91366 0
M  V30 1669 C 161.946 -3.12459 -2.98317 0
M  V30 1670 C 161.081 -3.15758 -4.27166 0
M  V30 1671 C 160.12 -4.37619 -4.27967 0
M  V30 1672 N 159.257 -4.38493 -5.48333 0
M  V30 1673 H 164.097 -2.65654 -1.35026 0
M  V30 1674 H 161.634 -1.31662 -0.656009 0
M  V30 1675 H 163.592 -1.90263 -3.7129 0
M  V30 1676 H 162.222 -0.949461 -3.08521 0
M  V30 1677 H 161.274 -3.1646 -2.11086 0
M  V30 1678 H 162.586 -4.02382 -2.94771 0
M  V30 1679 H 161.74 -3.19979 -5.15459 0
M  V30 1680 H 160.479 -2.23715 -4.33362 0
M  V30 1681 H 159.484 -4.33579 -3.38067 0
M  V30 1682 H 160.709 -5.30921 -4.23438 0
M  V30 1683 H 158.655 -3.49318 -5.55259 0
M  V30 1684 H 158.572 -5.22219 -5.46647 0
M  V30 1685 H 159.84 -4.469 -6.38671 0
M  V30 1686 N 164.069 0.697108 -1.41344 0
M  V30 1687 C 165.294 1.49096 -1.44171 0
M  V30 1688 C 165.719 1.88038 -0.0481568 0
M  V30 1689 O 165.077 1.54525 0.948243 0
M  V30 1690 C 165.125 2.73088 -2.3549 0
M  V30 1691 O 164.229 3.70514 -1.81088 0
M  V30 1692 H 163.57 0.448801 -0.489361 0
M  V30 1693 H 166.1 0.856992 -1.85787 0
M  V30 1694 H 166.11 3.21413 -2.51312 0
M  V30 1695 H 164.785 2.44081 -3.36745 0
M  V30 1696 H 163.362 3.29441 -1.74708 0
M  V30 1697 N 165.547 1.27147 0.931209 0
M  V30 1698 C 166.494 1.09568 2.03134 0
M  V30 1699 C 167.464 -0.00222433 1.661 0
M  V30 1700 O 168.649 0.159439 1.90133 0
M  V30 1701 C 165.789 0.745231 3.36957 0
M  V30 1702 C 164.902 1.92041 3.86968 0
M  V30 1703 C 164.037 1.51216 5.09222 0
M  V30 1704 C 163.076 2.65504 5.5152 0
M  V30 1705 N 162.213 2.25291 6.64972 0
M  V30 1706 H 167.053 2.03708 2.17502 0
M  V30 1707 H 164.59 1.01411 1.06556 0
M  V30 1708 H 166.548 0.522878 4.1391 0
M  V30 1709 H 165.178 -0.159202 3.22407 0
M  V30 1710 H 164.23 2.25541 3.06326 0
M  V30 1711 H 165.542 2.77787 4.1429 0
M  V30 1712 H 164.696 1.25084 5.93666 0
M  V30 1713 H 163.435 0.625749 4.83669 0
M  V30 1714 H 162.44 2.92354 4.65628 0
M  V30 1715 H 163.665 3.54761 5.7907 0
M  V30 1716 H 161.611 1.39098 6.41083 0
M  V30 1717 H 161.528 3.04577 6.91931 0
M  V30 1718 H 162.796 2.02398 7.52765 0
M  V30 1719 N 167.025 -1.13721 1.09112 0
M  V30 1720 C 168.271 -1.85198 0.826414 0
M  V30 1721 C 168.604 -1.83129 -0.646319 0
M  V30 1722 O 167.879 -1.2671 -1.47563 0
M  V30 1723 C 168.162 -3.33507 1.35812 0
M  V30 1724 C 168.015 -3.44108 2.89672 0
M  V30 1725 C 169.334 -4.28838 0.989256 0
M  V30 1726 H 166.453 -0.67243 0.301675 0
M  V30 1727 H 169.095 -1.33499 1.35197 0
M  V30 1728 H 167.245 -3.77666 0.911082 0
M  V30 1729 H 168.917 -3.08684 3.428 0
M  V30 1730 H 167.16 -2.85087 3.26967 0
M  V30 1731 H 167.831 -4.48388 3.21951 0
M  V30 1732 H 170.307 -3.92734 1.37475 0
M  V30 1733 H 169.183 -5.31051 1.38838 0
M  V30 1734 H 169.444 -4.4198 -0.102924 0
M  V30 1735 N 168.503 -0.877838 -1.30888 0
M  V30 1736 C 169.453 -0.310872 -2.25871 0
M  V30 1737 C 170.437 0.556596 -1.50966 0
M  V30 1738 O 171.629 0.402187 -1.7237 0
M  V30 1739 C 168.758 0.479821 -3.3993 0
M  V30 1740 C 167.844 -0.401333 -4.22197 0
M  V30 1741 N 168.235 -1.49848 -4.83093 0
M  V30 1742 C 166.533 -0.195167 -4.45573 0
M  V30 1743 C 167.234 -2.0425 -5.44662 0
M  V30 1744 N 166.21 -1.33843 -5.26865 0
M  V30 1745 H 170.012 -1.1493 -2.70496 0
M  V30 1746 H 167.526 -0.726458 -1.45246 0
M  V30 1747 H 169.523 0.902582 -4.07012 0
M  V30 1748 H 168.183 1.31577 -2.96846 0
M  V30 1749 H 169.194 -1.88137 -4.82519 0
M  V30 1750 H 165.871 0.604192 -4.13105 0
M  V30 1751 H 167.261 -2.96345 -6.03017 0
M  V30 1752 N 169.982 1.44106 -0.638065 0
M  V30 1753 C 171.212 2.06037 -0.152394 0
M  V30 1754 C 171.62 1.47808 1.18108 0
M  V30 1755 O 170.963 0.598092 1.73691 0
M  V30 1756 C 171.025 3.59488 0.0293714 0
M  V30 1757 C 170.689 4.4022 -1.22702 0
M  V30 1758 C 171.686 4.73256 -2.15232 0
M  V30 1759 C 169.371 4.8048 -1.46437 0
M  V30 1760 C 171.365 5.45444 -3.29802 0
M  V30 1761 C 169.052 5.52417 -2.61303 0
M  V30 1762 C 170.05 5.84819 -3.52811 0
M  V30 1763 O 169.738 6.55289 -4.65673 0
M  V30 1764 H 169.47 0.671233 -0.0801401 0
M  V30 1765 H 172.024 1.85851 -0.874563 0
M  V30 1766 H 170.254 3.78191 0.806758 0
M  V30 1767 H 171.943 4.03164 0.470475 0
M  V30 1768 H 172.709 4.42684 -1.98131 0
M  V30 1769 H 168.588 4.54676 -0.760977 0
M  V30 1770 H 172.132 5.70653 -4.01249 0
M  V30 1771 H 168.029 5.82404 -2.78344 0
M  V30 1772 H 168.797 6.73762 -4.64744 0
M  V30 1773 N 171.46 0.379036 1.52974 0
M  V30 1774 C 172.41 -0.477772 2.22938 0
M  V30 1775 C 173.394 -1.03792 1.22948 0
M  V30 1776 O 174.586 -0.965725 1.48333 0
M  V30 1777 C 171.715 -1.60994 3.03209 0
M  V30 1778 C 170.801 -1.06203 4.10587 0
M  V30 1779 N 171.192 -0.238214 5.05239 0
M  V30 1780 C 169.49 -1.33554 4.25534 0
M  V30 1781 C 170.191 0.0633235 5.81666 0
M  V30 1782 N 169.167 -0.537901 5.40932 0
M  V30 1783 H 172.969 0.158295 2.93473 0
M  V30 1784 H 170.483 0.187778 1.61311 0
M  V30 1785 H 172.48 -2.23607 3.5186 0
M  V30 1786 H 171.14 -2.24893 2.34207 0
M  V30 1787 H 172.151 0.123695 5.17752 0
M  V30 1788 H 168.828 -1.97632 3.6776 0
M  V30 1789 H 170.218 0.730161 6.67921 0
M  V30 1790 N 172.938 -1.57226 0.108567 0
M  V30 1791 C 174.184 -1.95121 -0.552761 0
M  V30 1792 C 174.517 -0.991345 -1.66991 0
M  V30 1793 O 173.792 -0.0267211 -1.94482 0
M  V30 1794 C 174.075 -3.43039 -1.09528 0
M  V30 1795 C 173.928 -4.49797 0.0177332 0
M  V30 1796 C 175.247 -3.92567 -1.98945 0
M  V30 1797 H 172.366 -0.709496 -0.199461 0
M  V30 1798 H 175.008 -1.89126 0.182011 0
M  V30 1799 H 173.158 -3.48279 -1.72146 0
M  V30 1800 H 174.83 -4.56661 0.652584 0
M  V30 1801 H 173.073 -4.284 0.682309 0
M  V30 1802 H 173.744 -5.50528 -0.402919 0
M  V30 1803 H 176.22 -3.89565 -1.46214 0
M  V30 1804 H 175.096 -4.96605 -2.33827 0
M  V30 1805 H 175.357 -3.32648 -2.91201 0
M  V30 1806 N 174.416 0.165178 -1.56732 0
M  V30 1807 C 175.379 1.18822 -1.95995 0
M  V30 1808 C 176.379 1.3685 -0.84431 0
M  V30 1809 O 177.569 1.34152 -1.11126 0
M  V30 1810 C 174.701 2.5521 -2.26011 0
M  V30 1811 H 175.894 0.851825 -2.87548 0
M  V30 1812 H 173.447 0.407857 -1.50885 0
M  V30 1813 H 174.182 2.93852 -1.37191 0
M  V30 1814 H 173.967 2.43489 -3.07336 0
M  V30 1815 H 175.457 3.28927 -2.57288 0
M  V30 1816 N 175.894 1.51508 0.433938 0
M  V30 1817 C 177.14 1.64588 1.18484 0
M  V30 1818 C 177.473 0.362666 1.90784 0
M  V30 1819 O 176.748 -0.637892 1.83742 0
M  V30 1820 C 177.031 2.85149 2.19913 0
M  V30 1821 C 176.884 4.23456 1.51674 0
M  V30 1822 C 178.203 3.01227 3.20858 0
M  V30 1823 H 175.322 0.598994 0.429389 0
M  V30 1824 H 177.964 1.84002 0.473647 0
M  V30 1825 H 176.114 2.68729 2.80566 0
M  V30 1826 H 177.786 4.51552 0.943322 0
M  V30 1827 H 176.029 4.25998 0.819035 0
M  V30 1828 H 176.7 5.03812 2.2556 0
M  V30 1829 H 179.176 3.16382 2.70263 0
M  V30 1830 H 178.052 3.87141 3.89118 0
M  V30 1831 H 178.313 2.13447 3.8716 0
M  V30 1832 N 177.372 -0.689602 1.41712 0
M  V30 1833 C 178.621 -1.44534 1.40686 0
M  V30 1834 C 178.934 -1.95588 0.0213352 0
M  V30 1835 O 180.14 -2.71271 -0.111534 0
M  V30 1836 C 178.596 -2.61387 2.47396 0
M  V30 1837 C 178.204 -2.17094 3.91885 0
M  V30 1838 C 179.948 -3.38986 2.55517 0
M  V30 1839 C 177.855 -3.3094 4.90135 0
M  V30 1840 H 176.785 -0.542925 0.52321 0
M  V30 1841 H 179.436 -0.748054 1.6756 0
M  V30 1842 H 177.818 -3.33412 2.13664 0
M  V30 1843 H 178.992 -1.52318 4.34897 0
M  V30 1844 H 177.307 -1.52473 3.8748 0
M  V30 1845 H 179.904 -4.23747 3.26102 0
M  V30 1846 H 180.247 -3.84578 1.59391 0
M  V30 1847 H 180.78 -2.74021 2.8837 0
M  V30 1848 H 177.519 -2.90355 5.87685 0
M  V30 1849 H 177.039 -3.94546 4.51767 0
M  V30 1850 H 178.718 -3.9663 5.11169 0
M  V30 1851 N 178.85 -1.27639 -0.924453 0
M  V30 1852 C 180.099 -1.13549 -1.66702 0
M  V30 1853 C 180.412 0.317487 -1.93006 0
M  V30 1854 O 181.618 0.579333 -2.65247 0
M  V30 1855 C 180.074 -1.98426 -3.00259 0
M  V30 1856 C 179.682 -3.484 -2.81641 0
M  V30 1857 C 181.426 -1.92993 -3.78092 0
M  V30 1858 C 179.333 -4.25464 -4.10773 0
M  V30 1859 H 178.263 -0.421351 -0.625283 0
M  V30 1860 H 180.914 -1.52085 -1.02676 0
M  V30 1861 H 179.296 -1.52736 -3.6536 0
M  V30 1862 H 180.47 -4.01973 -2.25287 0
M  V30 1863 H 178.785 -3.55245 -2.17232 0
M  V30 1864 H 181.382 -2.47844 -4.7379 0
M  V30 1865 H 181.725 -0.904281 -4.0636 0
M  V30 1866 H 182.258 -2.36595 -3.19793 0
M  V30 1867 H 178.997 -5.28566 -3.87683 0
M  V30 1868 H 178.517 -3.76667 -4.66779 0
M  V30 1869 H 180.196 -4.34812 -4.79111 0
M  V30 1870 N 180.328 1.1314 -1.09713 0
M  V30 1871 C 181.276 2.20717 -0.733934 0
M  V30 1872 C 182.27 1.6729 0.266506 0
M  V30 1873 O 183.476 1.79547 0.127656 0
M  V30 1874 H 179.851 0.719292 -0.21937 0
M  V30 1875 H 181.822 2.48611 -1.6503 0
M  V30 1876 C 180.571 3.47265 -0.173849 0
M  V30 1877 H 179.894 3.88716 -0.934873 0
M  V30 1878 H 181.334 4.23979 0.0423126 0
M  V30 1879 C 179.793 3.18724 1.09164 0
M  V30 1880 O 180.323 3.37762 2.17439 0
M  V30 1881 N 178.529 2.72583 1.00732 0
M  V30 1882 H 178.076 2.57291 0.126121 0
M  V30 1883 H 178.034 2.53862 1.85476 0
M  V30 1884 N 181.806 0.884767 1.30421 0
M  V30 1885 C 183.036 0.517293 2.00019 0
M  V30 1886 C 183.444 -0.898632 1.66497 0
M  V30 1887 O 182.787 -1.60245 0.898181 0
M  V30 1888 C 182.849 0.612025 3.54252 0
M  V30 1889 C 182.513 1.99222 4.1129 0
M  V30 1890 C 183.51 2.9616 4.273 0
M  V30 1891 C 181.195 2.29755 4.46674 0
M  V30 1892 C 183.189 4.21764 4.77906 0
M  V30 1893 C 180.876 3.55606 4.96979 0
M  V30 1894 C 181.874 4.51425 5.12547 0
M  V30 1895 O 181.562 5.75043 5.61766 0
M  V30 1896 H 181.294 0.198529 0.64619 0
M  V30 1897 H 183.848 1.1919 1.67281 0
M  V30 1898 H 182.078 -0.119561 3.86515 0
M  V30 1899 H 183.767 0.255859 4.05093 0
M  V30 1900 H 184.533 2.73882 4.00267 0
M  V30 1901 H 180.412 1.55942 4.33824 0
M  V30 1902 H 183.956 4.96561 4.89972 0
M  V30 1903 H 179.853 3.7772 5.23448 0
M  V30 1904 H 180.621 5.77422 5.80109 0
M  V30 1905 N 183.284 -1.43765 0.645699 0
M  V30 1906 C 184.214 -2.33471 -0.0370477 0
M  V30 1907 C 185.195 -1.49042 -0.819779 0
M  V30 1908 O 186.38 -1.77726 -0.782758 0
M  V30 1909 C 183.51 -3.32311 -1.0093 0
M  V30 1910 C 182.464 -4.2667 -0.337201 0
M  V30 1911 C 181.79 -5.1549 -1.42037 0
M  V30 1912 C 183.09 -5.16657 0.765706 0
M  V30 1913 H 184.784 -2.90809 0.712069 0
M  V30 1914 H 182.33 -1.39834 0.343876 0
M  V30 1915 H 184.283 -3.9396 -1.49578 0
M  V30 1916 H 183.007 -2.73213 -1.78948 0
M  V30 1917 H 181.666 -3.66374 0.128771 0
M  V30 1918 H 181.314 -4.52735 -2.1918 0
M  V30 1919 H 181.014 -5.79438 -0.975966 0
M  V30 1920 H 182.538 -5.80012 -1.90838 0
M  V30 1921 H 183.952 -5.72158 0.361702 0
M  V30 1922 H 182.349 -5.89286 1.13413 0
M  V30 1923 H 183.419 -4.56796 1.62683 0
M  V30 1924 N 184.763 -0.387143 -1.52771 0
M  V30 1925 C 186.011 0.195349 -2.01154 0
M  V30 1926 C 186.332 1.475 -1.27549 0
M  V30 1927 O 185.602 1.91878 -0.394924 0
M  V30 1928 H 184.182 0.075178 -0.743207 0
M  V30 1929 H 186.844 -0.518337 -1.87881 0
M  V30 1930 H 185.94 0.407096 -3.09434 0
M  V30 1931 N 186.241 1.57166 -0.116904 0
M  V30 1932 C 187.191 2.11756 0.845178 0
M  V30 1933 C 188.175 1.03783 1.22955 0
M  V30 1934 O 189.367 1.3002 1.20099 0
M  V30 1935 C 186.496 2.71886 2.09602 0
M  V30 1936 C 185.582 3.86937 1.7361 0
M  V30 1937 N 185.973 4.94073 1.08284 0
M  V30 1938 C 184.271 3.97082 2.03082 0
M  V30 1939 C 184.972 5.74477 0.913855 0
M  V30 1940 N 183.948 5.2423 1.43818 0
M  V30 1941 H 187.75 2.91967 0.336523 0
M  V30 1942 H 185.264 1.62174 0.0856332 0
M  V30 1943 H 187.261 3.09338 2.79492 0
M  V30 1944 H 185.921 1.93138 2.61013 0
M  V30 1945 H 186.932 5.12483 0.747067 0
M  V30 1946 H 183.609 3.29372 2.56554 0
M  V30 1947 H 184.999 6.70701 0.40125 0
M  V30 1948 N 187.719 -0.156864 1.56817 0
M  V30 1949 C 188.959 -0.877453 1.84608 0
M  V30 1950 C 189.323 -1.78791 0.699845 0
M  V30 1951 O 190.524 -2.5472 0.858553 0
M  V30 1952 C 188.795 -1.63992 3.17555 0
M  V30 1953 S 190.354 -2.40729 3.66872 0
M  V30 1954 H 187.172 -0.293612 0.647544 0
M  V30 1955 H 189.774 -0.138099 1.95012 0
M  V30 1956 H 188.478 -0.962363 3.98957 0
M  V30 1957 H 188.009 -2.42038 3.10131 0
M  V30 1958 H 190.024 -3.65725 3.3535 0
M  V30 1959 N 189.197 -1.51736 -0.425897 0
M  V30 1960 C 190.446 -1.64201 -1.17136 0
M  V30 1961 C 190.759 -0.369705 -1.92074 0
M  V30 1962 O 191.965 -0.373898 -2.68913 0
M  V30 1963 C 190.421 -2.90035 -2.13091 0
M  V30 1964 C 190.029 -4.24312 -1.43747 0
M  V30 1965 C 191.773 -3.1186 -2.87999 0
M  V30 1966 C 189.68 -5.41285 -2.38253 0
M  V30 1967 H 188.61 -0.611624 -0.440944 0
M  V30 1968 H 191.261 -1.78212 -0.437328 0
M  V30 1969 H 189.643 -2.69684 -2.89977 0
M  V30 1970 H 190.817 -4.55086 -0.723408 0
M  V30 1971 H 189.132 -4.08456 -0.809465 0
M  V30 1972 H 191.729 -3.96427 -3.58817 0
M  V30 1973 H 192.072 -2.25403 -3.49999 0
M  V30 1974 H 192.605 -3.32605 -2.18217 0
M  V30 1975 H 189.344 -6.30037 -1.80925 0
M  V30 1976 H 188.864 -5.14872 -3.0768 0
M  V30 1977 H 190.543 -5.73694 -2.99139 0
M  V30 1978 N 190.675 0.682077 -1.42076 0
M  V30 1979 C 191.9 1.47558 -1.45744 0
M  V30 1980 C 192.325 1.87977 -0.0680981 0
M  V30 1981 O 191.683 1.55522 0.9318 0
M  V30 1982 C 191.731 2.70575 -2.38373 0
M  V30 1983 O 190.835 3.68573 -1.85007 0
M  V30 1984 H 190.176 0.443585 -0.494093 0
M  V30 1985 H 192.706 0.837238 -1.86686 0
M  V30 1986 H 192.716 3.18729 -2.54707 0
M  V30 1987 H 191.391 2.40495 -3.39315 0
M  V30 1988 H 189.968 3.2757 -1.78192 0
M  V30 1989 N 192.153 1.28127 0.917671 0
M  V30 1990 C 193.083 1.14248 2.03641 0
M  V30 1991 C 194.064 0.0412748 1.7005 0
M  V30 1992 O 195.249 0.217566 1.92977 0
M  V30 1993 C 192.379 0.799431 3.37974 0
M  V30 1994 C 191.333 1.85497 3.85713 0
M  V30 1995 C 190.659 1.36565 5.16966 0
M  V30 1996 C 191.959 3.26085 4.08002 0
M  V30 1997 H 193.653 2.07835 2.15511 0
M  V30 1998 H 191.199 1.00064 1.03553 0
M  V30 1999 H 193.152 0.689114 4.15727 0
M  V30 2000 H 191.876 -0.172145 3.26146 0
M  V30 2001 H 190.535 1.95437 3.10161 0
M  V30 2002 H 190.183 0.383253 5.01538 0
M  V30 2003 H 189.883 2.07143 5.49878 0
M  V30 2004 H 191.407 1.26848 5.97279 0
M  V30 2005 H 192.821 3.19089 4.76293 0
M  V30 2006 H 191.218 3.94462 4.52238 0
M  V30 2007 H 192.288 3.70394 3.12948 0
M  V30 2008 N 193.631 -1.12557 1.10312 0
M  V30 2009 C 194.877 -1.84311 0.846011 0
M  V30 2010 C 195.21 -1.83805 -0.626859 0
M  V30 2011 O 194.485 -1.28268 -1.46211 0
M  V30 2012 C 194.768 -3.32048 1.39341 0
M  V30 2013 C 194.621 -3.41016 2.93305 0
M  V30 2014 C 195.94 -4.27764 1.03468 0
M  V30 2015 H 193.059 -0.669192 0.30879 0
M  V30 2016 H 195.701 -1.32057 1.36605 0
M  V30 2017 H 193.851 -3.76678 0.951087 0
M  V30 2018 H 195.523 -3.05031 3.46055 0
M  V30 2019 H 193.766 -2.81603 3.29973 0
M  V30 2020 H 194.437 -4.44948 3.26689 0
M  V30 2021 H 196.913 -3.91253 1.41633 0
M  V30 2022 H 195.789 -5.29549 1.44463 0
M  V30 2023 H 196.05 -4.42064 -0.0560404 0
M  V30 2024 N 195.109 -0.891671 -1.2995 0
M  V30 2025 C 196.072 -0.36828 -2.26222 0
M  V30 2026 C 197.072 0.493014 -1.53056 0
M  V30 2027 O 198.262 0.299213 -1.71611 0
M  V30 2028 C 195.394 0.47442 -3.37583 0
M  V30 2029 H 196.587 -1.21844 -2.74033 0
M  V30 2030 H 194.14 -0.669107 -1.41254 0
M  V30 2031 H 194.875 1.34489 -2.95099 0
M  V30 2032 H 194.66 -0.142615 -3.91841 0
M  V30 2033 H 196.15 0.83218 -4.09224 0
M  V30 2034 N 196.587 1.43421 -0.653314 0
M  V30 2035 C 197.517 2.33487 0.0246656 0
M  V30 2036 C 198.498 1.49475 0.811863 0
M  V30 2037 O 199.683 1.78139 0.773322 0
M  V30 2038 C 196.813 3.32841 0.99166 0
M  V30 2039 C 195.767 4.26842 0.314568 0
M  V30 2040 C 195.093 5.16236 1.39302 0
M  V30 2041 C 196.393 5.16243 -0.793095 0
M  V30 2042 H 198.087 2.90427 -0.727481 0
M  V30 2043 H 195.633 1.39649 -0.351287 0
M  V30 2044 H 197.586 3.94747 1.47487 0
M  V30 2045 H 196.31 2.74158 1.77497 0
M  V30 2046 H 194.969 3.663 -0.148199 0
M  V30 2047 H 194.617 4.53891 2.16776 0
M  V30 2048 H 194.317 5.79948 0.945223 0
M  V30 2049 H 195.841 5.81015 1.87759 0
M  V30 2050 H 197.255 5.71958 -0.392039 0
M  V30 2051 H 195.652 5.88676 -1.16536 0
M  V30 2052 H 196.722 4.55927 -1.65103 0
M  V30 2053 N 198.065 0.39524 1.52563 0
M  V30 2054 C 198.995 -0.428384 2.29537 0
M  V30 2055 C 199.976 -1.05831 1.33169 0
M  V30 2056 O 201.161 -1.06995 1.62067 0
M  V30 2057 C 198.291 -1.55274 3.10656 0
M  V30 2058 C 197.245 -1.04855 4.14957 0
M  V30 2059 C 196.571 -2.26543 4.84337 0
M  V30 2060 C 197.871 -0.112324 5.22179 0
M  V30 2061 H 199.565 0.213867 2.98635 0
M  V30 2062 H 197.111 0.104298 1.43622 0
M  V30 2063 H 199.064 -2.1358 3.63265 0
M  V30 2064 H 197.788 -2.22266 2.39302 0
M  V30 2065 H 196.447 -0.487985 3.63338 0
M  V30 2066 H 196.095 -2.92059 4.09525 0
M  V30 2067 H 195.795 -1.93466 5.54837 0
M  V30 2068 H 197.319 -2.85481 5.39753 0
M  V30 2069 H 198.733 -0.603752 5.70112 0
M  V30 2070 H 197.13 0.128968 5.99961 0
M  V30 2071 H 198.2 0.837052 4.77621 0
M  V30 2072 N 199.544 -1.57102 0.125237 0
M  V30 2073 C 200.79 -1.95697 -0.532035 0
M  V30 2074 C 201.123 -1.009 -1.6593 0
M  V30 2075 O 200.398 -0.047347 -1.94442 0
M  V30 2076 C 200.681 -3.44181 -1.05884 0
M  V30 2077 C 200.534 -4.49752 0.0654392 0
M  V30 2078 C 201.853 -3.94655 -1.9477 0
M  V30 2079 H 198.972 -0.711571 -0.191925 0
M  V30 2080 H 201.614 -1.88923 0.20206 0
M  V30 2081 H 199.764 -3.50085 -1.68442 0
M  V30 2082 H 201.436 -4.55943 0.700982 0
M  V30 2083 H 199.679 -4.27653 0.727709 0
M  V30 2084 H 200.35 -5.50924 -0.344505 0
M  V30 2085 H 202.826 -3.91094 -1.42074 0
M  V30 2086 H 201.702 -4.99057 -2.28546 0
M  V30 2087 H 201.963 -3.35718 -2.87656 0
M  V30 2088 N 201.022 0.148545 -1.56898 0
M  V30 2089 C 201.985 1.16736 -1.97244 0
M  V30 2090 C 202.985 1.35947 -0.858777 0
M  V30 2091 O 204.175 1.32966 -1.12542 0
M  V30 2092 C 201.307 2.52798 -2.28705 0
M  V30 2093 H 202.5 0.821279 -2.88435 0
M  V30 2094 H 200.053 0.391831 -1.51309 0
M  V30 2095 H 200.788 2.92381 -1.403 0
M  V30 2096 H 200.573 2.40216 -3.09901 0
M  V30 2097 H 202.063 3.26179 -2.60762 0
M  V30 2098 N 202.5 1.5196 0.417844 0
M  V30 2099 C 203.747 1.65591 1.16559 0
M  V30 2100 C 204.075 0.381565 1.90721 0
M  V30 2101 O 203.33 -0.635156 1.85106 0
M  V30 2102 C 203.629 2.82269 2.19223 0
M  V30 2103 C 203.295 4.20819 1.61933 0
M  V30 2104 C 201.957 4.58506 1.46033 0
M  V30 2105 C 204.309 5.07196 1.20008 0
M  V30 2106 C 201.637 5.80257 0.867113 0
M  V30 2107 C 203.989 6.29544 0.621086 0
M  V30 2108 C 202.653 6.65987 0.449144 0
M  V30 2109 H 201.923 0.605939 0.42652 0
M  V30 2110 H 204.57 1.86041 0.45397 0
M  V30 2111 H 202.875 2.56118 2.96498 0
M  V30 2112 H 204.572 2.90012 2.76936 0
M  V30 2113 H 201.162 3.91116 1.7529 0
M  V30 2114 H 205.346 4.7867 1.31105 0
M  V30 2115 H 200.602 6.07124 0.721833 0
M  V30 2116 H 204.776 6.95805 0.287798 0
M  V30 2117 H 202.403 7.60199 -0.012632 0
M  V30 2118 N 203.978 -0.674533 1.42435 0
M  V30 2119 C 205.224 -1.43671 1.43131 0
M  V30 2120 C 205.557 -1.94142 0.0476021 0
M  V30 2121 O 204.832 -1.70924 -0.928188 0
M  V30 2122 C 205.115 -2.63355 2.45594 0
M  V30 2123 C 204.968 -2.18514 3.93156 0
M  V30 2124 C 206.287 -3.65571 2.45043 0
M  V30 2125 H 203.406 -0.521077 0.521198 0
M  V30 2126 H 206.048 -0.766551 1.7385 0
M  V30 2127 H 204.198 -3.2053 2.19528 0
M  V30 2128 H 205.87 -1.66504 4.30202 0
M  V30 2129 H 204.113 -1.50086 4.07009 0
M  V30 2130 H 204.784 -3.04484 4.60428 0
M  V30 2131 H 207.26 -3.18113 2.68223 0
M  V30 2132 H 206.136 -4.46893 3.18713 0
M  V30 2133 H 206.397 -4.16716 1.47649 0
M  V30 2134 N 205.456 -1.28612 -0.910864 0
M  V30 2135 C 206.386 -1.15326 -2.03032 0
M  V30 2136 C 207.367 -0.0502924 -1.70026 0
M  V30 2137 O 208.552 -0.227797 -1.92859 0
M  V30 2138 C 205.682 -0.817343 -3.37545 0
M  V30 2139 C 204.636 -1.8754 -3.84724 0
M  V30 2140 C 203.962 -1.39305 -5.16235 0
M  V30 2141 C 205.262 -3.28244 -4.06267 0
M  V30 2142 H 206.956 -2.08975 -2.14406 0
M  V30 2143 H 204.502 -1.00612 -1.03021 0
M  V30 2144 H 206.455 -0.711151 -4.15356 0
M  V30 2145 H 205.179 0.154846 -3.26233 0
M  V30 2146 H 203.838 -1.97079 -3.09121 0
M  V30 2147 H 203.486 -0.409846 -5.01328 0
M  V30 2148 H 203.186 -2.10057 -5.48771 0
M  V30 2149 H 204.71 -1.30014 -5.96598 0
M  V30 2150 H 206.124 -3.21611 -4.74594 0
M  V30 2151 H 204.521 -3.96855 -4.5014 0
M  V30 2152 H 205.591 -3.72048 -3.10979 0
M  V30 2153 N 206.934 1.1197 -1.10907 0
M  V30 2154 C 208.181 1.83588 -0.854507 0
M  V30 2155 C 208.509 1.84357 0.6199 0
M  V30 2156 O 207.764 1.28809 1.47332 0
M  V30 2157 C 208.063 3.30749 -1.35425 0
M  V30 2158 C 207.729 3.50146 -2.84093 0
M  V30 2159 C 206.391 3.55148 -3.2469 0
M  V30 2160 C 208.743 3.56857 -3.79872 0
M  V30 2161 C 206.071 3.6441 -4.59806 0
M  V30 2162 C 208.423 3.6765 -5.14797 0
M  V30 2163 C 207.087 3.7091 -5.54961 0
M  V30 2164 H 206.357 0.671795 -0.312686 0
M  V30 2165 H 209.004 1.32091 -1.38652 0
M  V30 2166 H 207.309 3.84703 -0.742361 0
M  V30 2167 H 209.006 3.8464 -1.1337 0
M  V30 2168 H 205.596 3.46919 -2.51685 0
M  V30 2169 H 209.78 3.52258 -3.49611 0
M  V30 2170 H 205.036 3.65208 -4.9034 0
M  V30 2171 H 209.21 3.71786 -5.88853 0
M  V30 2172 H 206.837 3.7784 -6.59652 0
M  V30 2173 N 208.412 0.89855 1.29475 0
M  V30 2174 C 209.342 0.39201 2.30186 0
M  V30 2175 C 210.323 -0.532359 1.61555 0
M  V30 2176 O 211.508 -0.443331 1.89072 0
M  V30 2177 C 208.638 -0.382353 3.45189 0
M  V30 2178 C 207.592 0.451483 4.25612 0
M  V30 2179 C 206.918 -0.450307 5.328 0
M  V30 2180 C 208.218 1.70079 4.93832 0
M  V30 2181 H 209.912 1.23362 2.72804 0
M  V30 2182 H 207.458 0.594638 1.31149 0
M  V30 2183 H 209.411 -0.747451 4.14718 0
M  V30 2184 H 208.135 -1.25774 3.01411 0
M  V30 2185 H 206.794 0.798897 3.57789 0
M  V30 2186 H 206.442 -1.32379 4.85268 0
M  V30 2187 H 206.142 0.103902 5.87508 0
M  V30 2188 H 207.666 -0.811623 6.05182 0
M  V30 2189 H 209.08 1.40549 5.55805 0
M  V30 2190 H 207.477 2.19623 5.58467 0
M  V30 2191 H 208.547 2.43744 4.19186 0
M  V30 2192 N 209.89 -1.43072 0.660911 0
M  V30 2193 C 211.306 -1.56169 0.329173 0
M  V30 2194 C 211.506 -1.64317 -1.16629 0
M  V30 2195 O 210.562 -1.60245 -1.95135 0
M  V30 2196 C 211.875 -2.81873 1.04729 0
M  V30 2197 C 213.423 -2.95627 1.02828 0
M  V30 2198 C 213.898 -4.24174 1.72744 0
M  V30 2199 N 215.389 -4.31055 1.69545 0
M  V30 2200 C 216.124 -5.29304 2.20511 0
M  V30 2201 N 215.62 -6.33786 2.79799 0
M  V30 2202 N 217.413 -5.21008 2.10966 0
M  V30 2203 H 209.564 -1.36027 1.63127 0
M  V30 2204 H 211.827 -0.653823 0.686454 0
M  V30 2205 H 211.533 -2.81942 2.10242 0
M  V30 2206 H 211.407 -3.72338 0.603702 0
M  V30 2207 H 213.794 -2.95094 -0.0184742 0
M  V30 2208 H 213.875 -2.06431 1.51063 0
M  V30 2209 H 213.519 -4.25467 2.7738 0
M  V30 2210 H 213.449 -5.1228 1.2197 0
M  V30 2211 H 215.94 -3.56174 1.26288 0
M  V30 2212 H 216.253 -7.05086 3.16344 0
M  V30 2213 H 214.598 -6.34387 2.83863 0
M  V30 2214 H 217.789 -4.38301 1.64347 0
M  V30 2215 H 217.962 -5.97416 2.50993 0
M  V30 2216 N 211.368 -0.403325 -1.52352 0
M  V30 2217 C 212.298 0.416205 -2.29761 0
M  V30 2218 C 213.279 1.05123 -1.33728 0
M  V30 2219 O 214.464 1.06134 -1.62632 0
M  V30 2220 C 211.594 1.53624 -3.11475 0
M  V30 2221 C 210.548 1.02653 -4.15507 0
M  V30 2222 C 209.874 2.23971 -4.85532 0
M  V30 2223 C 211.174 0.08463 -5.22231 0
M  V30 2224 H 212.868 -0.229701 -2.98518 0
M  V30 2225 H 210.414 -0.111913 -1.43564 0
M  V30 2226 H 212.367 2.1165 -3.64393 0
M  V30 2227 H 211.091 2.20994 -2.40477 0
M  V30 2228 H 209.75 0.46871 -3.63591 0
M  V30 2229 H 209.398 2.89883 -4.11068 0
M  V30 2230 H 209.098 1.90521 -5.55856 0
M  V30 2231 H 210.622 2.82614 -5.41259 0
M  V30 2232 H 212.036 0.573509 -5.70424 0
M  V30 2233 H 210.433 -0.160783 -5.99885 0
M  V30 2234 H 211.503 -0.86237 -4.7717 0
M  V30 2235 N 212.846 1.57033 -0.133567 0
M  V30 2236 C 214.262 1.58035 0.222944 0
M  V30 2237 C 214.462 1.14713 1.6566 0
M  V30 2238 O 213.518 0.841218 2.38075 0
M  V30 2239 C 214.831 3.00691 -0.0236116 0
M  V30 2240 C 216.379 3.12973 0.0411512 0
M  V30 2241 C 216.854 4.57654 -0.177899 0
M  V30 2242 N 218.345 4.63033 -0.124365 0
M  V30 2243 C 219.08 5.72771 -0.268553 0
M  V30 2244 N 218.576 6.91206 -0.46972 0
M  V30 2245 N 220.369 5.61718 -0.2071 0
M  V30 2246 H 212.52 1.8349 -1.06981 0
M  V30 2247 H 214.783 0.848677 -0.422436 0
M  V30 2248 H 214.489 3.36726 -1.0153 0
M  V30 2249 H 214.363 3.70614 0.701808 0
M  V30 2250 H 216.75 2.76787 1.02338 0
M  V30 2251 H 216.831 2.45564 -0.716383 0
M  V30 2252 H 216.475 4.94542 -1.15717 0
M  V30 2253 H 216.405 5.23173 0.599797 0
M  V30 2254 H 218.896 3.7789 0.027011 0
M  V30 2255 H 219.209 7.70693 -0.570212 0
M  V30 2256 H 217.554 6.93156 -0.505876 0
M  V30 2257 H 220.745 4.68072 -0.0507986 0
M  V30 2258 H 220.918 6.47195 -0.322909 0
M  V30 2259 N 214.325 -0.140222 1.56975 0
M  V30 2260 C 215.736 -0.699596 1.73097 0
M  V30 2261 C 216.087 -1.8134 0.749022 0
M  V30 2262 O 215.212 -2.16241 -0.0828503 0
M  V30 2263 C 215.807 -1.27582 3.1386 0
M  V30 2264 C 214.366 -1.78169 3.31561 0
M  V30 2265 C 213.513 -0.672855 2.69013 0
M  V30 2266 H 216.464 0.0855115 1.58469 0
M  V30 2267 H 216.485 -2.14561 3.14235 0
M  V30 2268 H 215.997 -0.464955 3.85305 0
M  V30 2269 H 214.098 -2.61801 2.65124 0
M  V30 2270 H 214.211 -1.90574 4.39566 0
M  V30 2271 H 212.575 -1.10118 2.29665 0
M  V30 2272 H 213.358 0.126679 3.43066 0
M  V30 2273 N 215.803 -1.52179 -0.40978 0
M  V30 2274 C 217.051 -1.65878 -1.15451 0
M  V30 2275 C 217.372 -0.390771 -1.91044 0
M  V30 2276 O 216.642 0.594323 -1.86667 0
M  V30 2277 H 215.222 -0.611405 -0.429177 0
M  V30 2278 H 217.884 -1.89219 -0.467134 0
M  V30 2279 H 216.98 -2.49954 -1.86894 0
M  V30 2280 N 217.281 0.66697 -1.42791 0
M  V30 2281 C 218.521 1.43892 -1.4517 0
M  V30 2282 C 218.885 1.91877 -0.0687551 0
M  V30 2283 O 220.086 2.6878 0.0327455 0
M  V30 2284 C 218.357 2.59839 -2.45395 0
M  V30 2285 S 219.916 3.48572 -2.66539 0
M  V30 2286 H 216.734 0.491356 -0.513897 0
M  V30 2287 H 219.336 0.775656 -1.79454 0
M  V30 2288 H 218.04 2.22838 -3.44632 0
M  V30 2289 H 217.571 3.3103 -2.12562 0
M  V30 2290 H 219.586 4.56094 -1.95429 0
M  V30 2291 N 218.759 1.29093 0.90403 0
M  V30 2292 C 219.987 1.19689 1.68766 0
M  V30 2293 C 220.402 -0.243113 1.87228 0
M  V30 2294 O 219.759 -1.16326 1.40621 0
M  V30 2295 C 219.81 1.90144 3.07453 0
M  V30 2296 O 219.531 3.2852 2.89838 0
M  V30 2297 C 221.032 1.87162 4.01852 0
M  V30 2298 H 218.252 0.415035 0.527244 0
M  V30 2299 H 220.796 1.7039 1.13082 0
M  V30 2300 H 218.951 1.43289 3.59926 0
M  V30 2301 H 219.365 3.63944 3.77684 0
M  V30 2302 H 220.839 2.41032 4.96596 0
M  V30 2303 H 221.316 0.84617 4.30972 0
M  V30 2304 H 221.922 2.33741 3.5531 0
M  V30 2305 N 220.237 -1.11381 1.11499 0
M  V30 2306 C 221.187 -2.15555 0.74298 0
M  V30 2307 C 222.171 -1.58894 -0.253276 0
M  V30 2308 O 223.363 -1.76897 -0.0602918 0
M  V30 2309 C 220.492 -3.42782 0.188481 0
M  V30 2310 C 219.578 -4.064 1.21244 0
M  V30 2311 N 219.969 -4.44864 2.40685 0
M  V30 2312 C 218.267 -4.3333 1.05552 0
M  V30 2313 C 218.968 -4.94715 3.05994 0
M  V30 2314 N 217.944 -4.90909 2.33472 0
M  V30 2315 H 221.746 -2.43074 1.65203 0
M  V30 2316 H 219.26 -1.28401 0.994329 0
M  V30 2317 H 221.257 -4.16789 -0.0961693 0
M  V30 2318 H 219.917 -3.16727 -0.715149 0
M  V30 2319 H 220.928 -4.36876 2.78136 0
M  V30 2320 H 217.605 -4.1698 0.208372 0
M  V30 2321 H 218.995 -5.34103 4.07656 0
M  V30 2322 N 221.715 -0.905404 -1.28997 0
M  V30 2323 C 222.961 -0.544465 -1.95977 0
M  V30 2324 C 223.316 0.90041 -1.70031 0
M  V30 2325 O 222.609 1.63064 -1.00601 0
M  V30 2326 C 222.803 -0.779906 -3.48787 0
M  V30 2327 C 222.632 -2.24612 -3.89589 0
M  V30 2328 C 221.402 -2.89464 -4.14172 0
M  V30 2329 C 223.6 -3.22182 -4.00878 0
M  V30 2330 N 221.582 -4.26469 -4.41585 0
M  V30 2331 C 222.953 -4.44323 -4.32409 0
M  V30 2332 C 225.008 -3.17694 -3.83373 0
M  V30 2333 C 223.711 -5.62546 -4.48258 0
M  V30 2334 C 225.737 -4.35208 -4.00435 0
M  V30 2335 C 225.099 -5.56121 -4.3233 0
M  V30 2336 H 221.198 -0.248948 -0.741316 0
M  V30 2337 H 223.782 -1.1674 -1.5582 0
M  V30 2338 H 221.953 -0.186308 -3.87953 0
M  V30 2339 H 223.685 -0.383833 -4.02876 0
M  V30 2340 H 220.44 -2.40232 -4.08149 0
M  V30 2341 H 220.864 -4.97283 -4.5939 0
M  V30 2342 H 225.506 -2.25297 -3.57773 0
M  V30 2343 H 223.224 -6.55429 -4.72692 0
M  V30 2344 H 226.81 -4.33228 -3.88336 0
M  V30 2345 H 225.69 -6.45537 -4.45255 0
M  V30 2346 N 223.193 1.4272 -0.668489 0
M  V30 2347 C 224.441 2.01226 -0.187769 0
M  V30 2348 C 224.762 1.53092 1.2078 0
M  V30 2349 O 224.032 0.74993 1.80977 0
M  V30 2350 H 222.612 0.744041 -0.0664272 0
M  V30 2351 H 225.274 1.74723 -0.863583 0
M  V30 2352 H 224.37 3.11556 -0.184166 0
M  V30 2353 N 224.671 0.411399 1.52136 0
M  V30 2354 C 225.948 -0.222308 1.94333 0
M  V30 2355 C 226.328 -1.6242 1.34844 0
M  V30 2356 O 225.676 -2.22384 0.525145 0
M  V30 2357 C 225.886 -0.226345 3.48265 0
M  V30 2358 C 227.234 -0.444592 4.22266 0
M  V30 2359 O 228.258 -0.305602 3.54887 0
M  V30 2360 O 227.117 -0.718749 5.41753 0
M  V30 2361 H 224.211 -0.143907 0.814383 0
M  V30 2362 H 226.757 0.467506 1.63133 0
M  V30 2363 H 225.529 0.75475 3.83952 0
M  V30 2364 H 225.152 -0.960163 3.85832 0
M  V30 2365 N 226.149 -1.5696 0.141893 0
M  V30 2366 C 227.081 -2.13619 -0.830627 0
M  V30 2367 C 228.094 -1.08439 -1.21428 0
M  V30 2368 O 229.283 -1.35734 -1.15925 0
M  V30 2369 C 226.383 -2.63978 -2.12529 0
M  V30 2370 C 225.556 -3.93504 -1.9098 0
M  V30 2371 C 224.615 -4.29225 -3.04388 0
M  V30 2372 O 223.641 -4.97641 -2.76302 0
M  V30 2373 N 224.843 -3.88393 -4.31429 0
M  V30 2374 H 227.608 -2.97691 -0.34641 0
M  V30 2375 H 225.169 -1.61846 -0.0418375 0
M  V30 2376 H 227.161 -2.84891 -2.87436 0
M  V30 2377 H 225.731 -1.84659 -2.52229 0
M  V30 2378 H 224.951 -3.81269 -1.00139 0
M  V30 2379 H 226.239 -4.78154 -1.73914 0
M  V30 2380 H 225.637 -3.33257 -4.57117 0
M  V30 2381 H 224.194 -4.14368 -5.03133 0
M  V30 2382 N 227.627 0.131896 -1.57047 0
M  V30 2383 C 228.59 1.14638 -1.98471 0
M  V30 2384 C 229.59 1.35029 -0.873148 0
M  V30 2385 O 230.78 1.31764 -1.13946 0
M  V30 2386 C 227.912 2.50358 -2.31373 0
M  V30 2387 H 229.105 0.79064 -2.8929 0
M  V30 2388 H 226.658 0.375761 -1.51716 0
M  V30 2389 H 227.393 2.90876 -1.43393 0
M  V30 2390 H 227.178 2.36915 -3.12432 0
M  V30 2391 H 228.668 3.23395 -2.64207 0
M  V30 2392 N 229.106 1.52395 0.401703 0
M  V30 2393 C 230.383 1.57387 1.16141 0
M  V30 2394 C 230.763 0.359359 2.08019 0
M  V30 2395 O 230.111 -0.65326 2.18963 0
M  V30 2396 C 230.321 2.90631 1.93221 0
M  V30 2397 C 231.669 3.43904 2.49028 0
M  V30 2398 O 232.693 2.92421 2.03393 0
M  V30 2399 O 231.552 4.33823 3.32356 0
M  V30 2400 H 228.646 0.634262 0.530698 0
M  V30 2401 H 231.192 1.64725 0.407883 0
M  V30 2402 H 229.964 3.70473 1.25958 0
M  V30 2403 H 229.587 2.8662 2.75563 0
M  V30 2404 N 230.584 -0.659388 1.43143 0
M  V30 2405 C 231.832 -1.41654 1.44147 0
M  V30 2406 C 232.153 -1.94893 0.0645739 0
M  V30 2407 O 231.423 -1.74044 -0.899198 0
M  V30 2408 H 230.003 -0.525708 0.530697 0
M  V30 2409 H 232.665 -0.778097 1.78694 0
M  V30 2410 H 231.761 -2.26195 2.1504 0
M  V30 2411 N 232.062 -1.29571 -0.897171 0
M  V30 2412 C 233.025 -1.14913 -1.98312 0
M  V30 2413 C 234.025 -0.0838629 -1.60581 0
M  V30 2414 O 235.215 -0.331006 -1.71026 0
M  V30 2415 C 232.347 -0.757835 -3.3237 0
M  V30 2416 H 233.54 -2.11377 -2.12743 0
M  V30 2417 H 231.093 -1.12793 -1.08201 0
M  V30 2418 H 231.828 0.206837 -3.2364 0
M  V30 2419 H 231.613 -1.52755 -3.61121 0
M  V30 2420 H 233.103 -0.678408 -4.12053 0
M  V30 2421 N 233.54 1.10788 -1.12088 0
M  V30 2422 C 234.47 2.19083 -0.807755 0
M  V30 2423 C 235.451 1.6858 0.226859 0
M  V30 2424 O 236.636 1.93997 0.0888475 0
M  V30 2425 C 233.766 3.46344 -0.257576 0
M  V30 2426 C 232.72 4.101 -1.22483 0
M  V30 2427 C 232.046 5.32016 -0.535052 0
M  V30 2428 C 233.346 4.54236 -2.57811 0
M  V30 2429 H 235.04 2.45534 -1.71328 0
M  V30 2430 H 232.586 1.1801 -0.825205 0
M  V30 2431 H 234.539 4.21392 -0.0262679 0
M  V30 2432 H 233.263 3.19373 0.683278 0
M  V30 2433 H 231.922 3.37054 -1.44189 0
M  V30 2434 H 231.57 5.01319 0.410827 0
M  V30 2435 H 231.27 5.75625 -1.18024 0
M  V30 2436 H 232.794 6.09799 -0.312695 0
M  V30 2437 H 234.208 5.20575 -2.40155 0
M  V30 2438 H 232.605 5.08682 -3.18375 0
M  V30 2439 H 233.675 3.6734 -3.16528 0
M  V30 2440 N 235.018 0.912232 1.28515 0
M  V30 2441 C 235.928 0.404506 2.31086 0
M  V30 2442 C 236.944 -0.50707 1.66448 0
M  V30 2443 O 238.12 -0.393624 1.97516 0
M  V30 2444 C 235.185 -0.348572 3.44943 0
M  V30 2445 C 234.246 0.59604 4.25142 0
M  V30 2446 C 233.479 -0.121194 5.33562 0
M  V30 2447 O 233.702 -1.34317 5.5436 0
M  V30 2448 O 232.636 0.542716 5.99448 0
M  V30 2449 H 236.462 1.25579 2.76521 0
M  V30 2450 H 234.047 0.676998 1.33181 0
M  V30 2451 H 235.929 -0.77395 4.14232 0
M  V30 2452 H 234.604 -1.17571 3.01594 0
M  V30 2453 H 233.511 1.07079 3.58448 0
M  V30 2454 H 234.844 1.38995 4.72167 0
M  V30 2455 N 236.496 -1.42363 0.676048 0
M  V30 2456 C 237.742 -2.0182 0.199125 0
M  V30 2457 C 238.075 -1.53339 -1.19168 0
M  V30 2458 O 237.35 -0.736124 -1.80032 0
M  V30 2459 C 237.633 -3.59331 0.235144 0
M  V30 2460 C 237.486 -4.17989 1.66149 0
M  V30 2461 C 238.805 -4.3813 -0.41595 0
M  V30 2462 H 235.924 -0.733293 0.0738311 0
M  V30 2463 H 238.566 -1.69368 0.86107 0
M  V30 2464 H 236.716 -3.87109 -0.328487 0
M  V30 2465 H 238.388 -4.0116 2.27747 0
M  V30 2466 H 236.631 -3.7377 2.20178 0
M  V30 2467 H 237.302 -5.27126 1.63837 0
M  V30 2468 H 239.778 -4.16051 0.0638529 0
M  V30 2469 H 238.654 -5.47717 -0.360115 0
M  V30 2470 H 238.915 -4.16101 -1.49373 0
M  V30 2471 N 237.974 -0.419461 -1.51915 0
M  V30 2472 C 239.222 0.152637 -2.01523 0
M  V30 2473 C 239.543 1.44762 -1.30649 0
M  V30 2474 O 238.813 1.90997 -0.435535 0
M  V30 2475 H 237.393 0.0593966 -0.744635 0
M  V30 2476 H 240.055 -0.558073 -1.86739 0
M  V30 2477 H 239.151 0.341369 -3.10227 0
M  V30 2478 N 239.452 1.56882 -0.150215 0
M  V30 2479 C 240.415 2.1573 0.774157 0
M  V30 2480 C 241.415 1.0999 1.17298 0
M  V30 2481 O 242.605 1.35613 1.09338 0
M  V30 2482 C 239.737 2.72302 2.05096 0
M  V30 2483 H 240.93 2.98752 0.262201 0
M  V30 2484 H 238.483 1.55985 0.099248 0
M  V30 2485 H 239.218 1.92956 2.6065 0
M  V30 2486 H 239.003 3.49665 1.77416 0
M  V30 2487 H 240.493 3.17632 2.71109 0
M  V30 2488 N 240.93 -0.123565 1.57115 0
M  V30 2489 C 242.341 -0.681198 1.73829 0
M  V30 2490 C 242.692 -1.80535 0.768214 0
M  V30 2491 O 241.817 -2.16317 -0.0599103 0
M  V30 2492 C 242.412 -1.24246 3.15196 0
M  V30 2493 C 240.971 -1.74643 3.33432 0
M  V30 2494 C 240.118 -0.644284 2.69711 0
M  V30 2495 H 243.069 0.102315 1.5837 0
M  V30 2496 H 243.09 -2.11216 3.16493 0
M  V30 2497 H 242.602 -0.424062 3.85776 0
M  V30 2498 H 240.703 -2.58974 2.67886 0
M  V30 2499 H 240.816 -1.85902 4.41562 0
M  V30 2500 H 239.18 -1.07676 2.3082 0
M  V30 2501 H 239.963 0.163058 3.42913 0
M  V30 2502 N 242.408 -1.52605 -0.393616 0
M  V30 2503 C 243.654 -1.68624 -1.13743 0
M  V30 2504 C 244.009 -0.418687 -1.87789 0
M  V30 2505 O 243.302 0.58747 -1.82371 0
M  V30 2506 C 243.496 -2.85721 -2.14705 0
M  V30 2507 C 243.325 -4.23742 -1.50575 0
M  V30 2508 C 242.095 -4.89033 -1.2718 0
M  V30 2509 C 244.293 -5.05293 -0.958311 0
M  V30 2510 N 242.275 -6.11048 -0.591058 0
M  V30 2511 C 243.646 -6.18673 -0.405367 0
M  V30 2512 C 245.701 -4.90517 -0.854274 0
M  V30 2513 C 244.404 -7.18895 0.241434 0
M  V30 2514 C 246.43 -5.90986 -0.221301 0
M  V30 2515 C 245.792 -7.03669 0.320894 0
M  V30 2516 H 241.891 -0.670556 -0.402342 0
M  V30 2517 H 244.475 -1.89946 -0.427607 0
M  V30 2518 H 242.646 -2.65987 -2.83029 0
M  V30 2519 H 244.378 -2.90699 -2.8156 0
M  V30 2520 H 241.133 -4.47672 -1.54554 0
M  V30 2521 H 241.557 -6.76474 -0.266862 0
M  V30 2522 H 246.199 -4.03612 -1.25926 0
M  V30 2523 H 243.917 -8.05413 0.658448 0
M  V30 2524 H 247.503 -5.81626 -0.142111 0
M  V30 2525 H 246.383 -7.80078 0.802956 0
M  V30 2526 N 243.887 0.651787 -1.4349 0
M  V30 2527 C 245.112 1.44434 -1.48841 0
M  V30 2528 C 245.537 1.8779 -0.107955 0
M  V30 2529 O 244.895 1.57464 0.898602 0
M  V30 2530 C 244.943 2.65458 -2.44059 0
M  V30 2531 O 244.047 3.64566 -1.92784 0
M  V30 2532 H 243.388 0.433005 -0.503391 0
M  V30 2533 H 245.918 0.797451 -1.88419 0
M  V30 2534 H 245.928 3.13255 -2.6141 0
M  V30 2535 H 244.603 2.33244 -3.4434 0
M  V30 2536 H 243.18 3.23716 -1.851 0
M  V30 2537 N 245.365 1.30045 0.890287 0
M  V30 2538 C 246.613 1.18327 1.63839 0
M  V30 2539 C 246.934 -0.263455 1.93212 0
M  V30 2540 O 246.204 -1.17856 1.56482 0
M  V30 2541 H 244.784 0.434933 0.607324 0
M  V30 2542 H 247.446 1.631 1.06698 0
M  V30 2543 H 246.542 1.74024 2.59079 0
M  V30 2544 N 246.843 -1.10192 1.12674 0
M  V30 2545 C 247.806 -2.14786 0.799979 0
M  V30 2546 C 248.806 -1.59711 -0.18685 0
M  V30 2547 O 249.996 -1.74156 0.0392558 0
M  V30 2548 C 247.128 -3.40374 0.189228 0
M  V30 2549 H 248.321 -2.45203 1.72671 0
M  V30 2550 H 245.874 -1.25597 0.930326 0
M  V30 2551 H 246.609 -3.15577 -0.747107 0
M  V30 2552 H 246.394 -3.81637 0.899766 0
M  V30 2553 H 247.884 -4.17594 -0.0228143 0
M  V30 2554 N 248.321 -0.919034 -1.28029 0
M  V30 2555 C 249.732 -0.600735 -1.76771 0
M  V30 2556 C 250.083 0.884024 -1.75156 0
M  V30 2557 O 249.208 1.69163 -1.34956 0
M  V30 2558 C 249.803 -1.08372 -3.21 0
M  V30 2559 C 248.362 -0.816248 -3.67443 0
M  V30 2560 C 247.509 -1.24742 -2.47658 0
M  V30 2561 H 250.46 -1.09974 -1.14418 0
M  V30 2562 H 250.481 -0.427512 -3.78091 0
M  V30 2563 H 249.993 -2.16437 -3.22144 0
M  V30 2564 H 248.094 0.250968 -3.71754 0
M  V30 2565 H 248.207 -1.4277 -4.57333 0
M  V30 2566 H 246.571 -0.666083 -2.45836 0
M  V30 2567 H 247.354 -2.33653 -2.51518 0
M  V30 2568 N 249.799 1.42003 -0.683588 0
M  V30 2569 C 251.046 2.01413 -0.209514 0
M  V30 2570 C 251.374 1.54088 1.1869 0
M  V30 2571 O 250.629 0.737591 1.81268 0
M  V30 2572 C 250.928 3.56827 -0.202357 0
M  V30 2573 C 250.594 4.23617 -1.54464 0
M  V30 2574 C 249.256 4.41577 -1.91215 0
M  V30 2575 C 251.608 4.61178 -2.42826 0
M  V30 2576 C 248.936 4.9437 -3.15935 0
M  V30 2577 C 251.288 5.15355 -3.66867 0
M  V30 2578 C 249.952 5.31528 -4.03776 0
M  V30 2579 H 249.222 0.737023 -0.0766668 0
M  V30 2580 H 251.869 1.70067 -0.880312 0
M  V30 2581 H 250.174 3.87892 0.551969 0
M  V30 2582 H 251.871 4.00588 0.181793 0
M  V30 2583 H 248.461 4.10004 -1.24877 0
M  V30 2584 H 252.645 4.46968 -2.15717 0
M  V30 2585 H 247.901 5.05076 -3.44541 0
M  V30 2586 H 252.075 5.43402 -4.35531 0
M  V30 2587 H 249.702 5.72199 -5.00492 0
M  V30 2588 N 251.277 0.427512 1.51691 0
M  V30 2589 C 252.209 -0.424521 2.25234 0
M  V30 2590 C 253.222 -0.994671 1.2888 0
M  V30 2591 O 254.411 -0.890483 1.54702 0
M  V30 2592 C 251.511 -1.60479 2.98496 0
M  V30 2593 C 250.684 -1.15527 4.21868 0
M  V30 2594 C 249.743 -2.20454 4.77793 0
M  V30 2595 O 248.769 -1.8029 5.39893 0
M  V30 2596 N 249.971 -3.52831 4.60967 0
M  V30 2597 H 252.736 0.205749 2.98993 0
M  V30 2598 H 250.297 0.255867 1.59865 0
M  V30 2599 H 252.289 -2.30276 3.32799 0
M  V30 2600 H 250.859 -2.14061 2.27809 0
M  V30 2601 H 250.079 -0.284736 3.9317 0
M  V30 2602 H 251.367 -0.832173 5.01949 0
M  V30 2603 H 250.765 -3.88201 4.11481 0
M  V30 2604 H 249.322 -4.18551 4.99658 0
M  V30 2605 N 252.755 -1.56801 0.158532 0
M  V30 2606 C 254.001 -1.96781 -0.490405 0
M  V30 2607 C 254.334 -1.04397 -1.63753 0
M  V30 2608 O 253.609 -0.0885805 -1.94298 0
M  V30 2609 C 253.892 -3.4635 -0.985594 0
M  V30 2610 C 253.745 -4.49512 0.160824 0
M  V30 2611 C 255.064 -3.98697 -1.86355 0
M  V30 2612 H 252.183 -0.715482 -0.176788 0
M  V30 2613 H 254.825 -1.88451 0.242088 0
M  V30 2614 H 252.975 -3.53579 -1.60978 0
M  V30 2615 H 254.647 -4.54353 0.797537 0
M  V30 2616 H 252.89 -4.26013 0.818256 0
M  V30 2617 H 253.561 -5.51531 -0.227569 0
M  V30 2618 H 256.037 -3.94019 -1.33746 0
M  V30 2619 H 254.913 -5.03792 -2.17909 0
M  V30 2620 H 255.174 -3.41744 -2.8047 0
M  V30 2621 N 254.233 0.115231 -1.57178 0
M  V30 2622 C 255.649 0.468877 -1.52557 0
M  V30 2623 C 255.849 1.81649 -0.872125 0
M  V30 2624 O 254.905 2.48347 -0.45606 0
M  V30 2625 C 256.218 0.4499 -2.97315 0
M  V30 2626 C 257.766 0.533185 -3.08425 0
M  V30 2627 C 258.241 0.54456 -4.54751 0
M  V30 2628 N 259.732 0.605892 -4.5922 0
M  V30 2629 C 260.467 0.636203 -5.6986 0
M  V30 2630 N 259.963 0.623931 -6.89985 0
M  V30 2631 N 261.756 0.679496 -5.57978 0
M  V30 2632 H 253.907 -0.767712 -1.9804 0
M  V30 2633 H 256.17 -0.283609 -0.904583 0
M  V30 2634 H 255.876 -0.472721 -3.48509 0
M  V30 2635 H 255.75 1.27632 -3.5495 0
M  V30 2636 H 258.137 1.44623 -2.57232 0
M  V30 2637 H 258.218 -0.320995 -2.53778 0
M  V30 2638 H 257.862 -0.364452 -5.06591 0
M  V30 2639 H 257.792 1.41568 -5.07214 0
M  V30 2640 H 260.283 0.621386 -3.72756 0
M  V30 2641 H 260.596 0.649787 -7.70063 0
M  V30 2642 H 258.941 0.591296 -6.9248 0
M  V30 2643 H 262.132 0.686472 -4.63039 0
M  V30 2644 H 262.305 0.69965 -6.44212 0
M  V30 2645 N 255.711 1.52812 0.385517 0
M  V30 2646 C 257.127 1.4214 0.725829 0
M  V30 2647 C 257.327 0.544589 1.94001 0
M  V30 2648 O 256.383 0.0193693 2.52493 0
M  V30 2649 C 257.696 2.85042 0.957668 0
M  V30 2650 C 259.244 2.94543 1.05892 0
M  V30 2651 C 259.719 4.38464 1.32337 0
M  V30 2652 N 261.21 4.41804 1.39151 0
M  V30 2653 C 261.945 5.5025 1.61285 0
M  V30 2654 N 261.441 6.68775 1.80866 0
M  V30 2655 N 263.234 5.37798 1.63492 0
M  V30 2656 H 255.385 2.08338 -0.413383 0
M  V30 2657 H 257.648 0.940016 -0.122775 0
M  V30 2658 H 257.354 3.51431 0.137568 0
M  V30 2659 H 257.228 3.27505 1.87137 0
M  V30 2660 H 259.615 2.28321 1.86959 0
M  V30 2661 H 259.696 2.55504 0.123057 0
M  V30 2662 H 259.34 5.05254 0.517793 0
M  V30 2663 H 259.27 4.75059 2.27214 0
M  V30 2664 H 261.761 3.56377 1.25713 0
M  V30 2665 H 262.074 7.47197 1.97271 0
M  V30 2666 H 260.419 6.71797 1.78083 0
M  V30 2667 H 263.61 4.44171 1.47749 0
M  V30 2668 H 263.783 6.22382 1.80402 0
M  V30 2669 N 257.189 -0.644168 1.43834 0
M  V30 2670 C 258.414 -1.43642 1.49605 0
M  V30 2671 C 258.839 -1.8773 0.117913 0
M  V30 2672 O 258.197 -1.57938 -0.890239 0
M  V30 2673 C 258.245 -2.6416 2.45463 0
M  V30 2674 O 257.349 -3.63538 1.94714 0
M  V30 2675 H 256.69 -0.430329 0.50568 0
M  V30 2676 H 259.22 -0.787448 1.8884 0
M  V30 2677 H 259.23 -3.11864 2.63068 0
M  V30 2678 H 257.905 -2.31414 3.45572 0
M  V30 2679 H 256.482 -3.2273 1.86814 0
M  V30 2680 N 258.668 -1.30515 -0.883378 0
M  V30 2681 C 259.917 -1.18795 -1.63005 0
M  V30 2682 C 260.23 0.255923 -1.93919 0
M  V30 2683 O 261.436 0.494654 -2.66956 0
M  V30 2684 C 259.892 -2.07878 -2.93794 0
M  V30 2685 C 259.5 -3.57184 -2.70414 0
M  V30 2686 C 261.244 -2.04924 -3.71761 0
M  V30 2687 C 259.151 -4.38317 -3.97029 0
M  V30 2688 H 258.081 -0.441031 -0.611562 0
M  V30 2689 H 260.732 -1.55275 -0.977854 0
M  V30 2690 H 259.114 -1.64283 -3.60315 0
M  V30 2691 H 260.288 -4.08937 -2.12384 0
M  V30 2692 H 258.603 -3.61976 -2.0582 0
M  V30 2693 H 261.2 -2.62792 -4.65665 0
M  V30 2694 H 261.543 -1.0331 -4.03277 0
M  V30 2695 H 262.076 -2.46649 -3.12104 0
M  V30 2696 H 258.815 -5.40632 -3.70671 0
M  V30 2697 H 258.335 -3.91326 -4.54559 0
M  V30 2698 H 260.014 -4.49834 -4.65036 0
M  V30 2699 N 260.146 1.09593 -1.13257 0
M  V30 2700 C 261.562 1.33775 -0.870423 0
M  V30 2701 C 261.762 1.95327 0.494926 0
M  V30 2702 O 260.818 2.19853 1.2418 0
M  V30 2703 C 262.131 2.25106 -1.99369 0
M  V30 2704 C 263.679 2.3862 -2.02558 0
M  V30 2705 C 264.154 3.33285 -3.14142 0
M  V30 2706 N 265.645 3.40857 -3.13641 0
M  V30 2707 C 266.38 4.14101 -3.96621 0
M  V30 2708 N 265.876 4.90157 -4.8961 0
M  V30 2709 N 267.669 4.09808 -3.84726 0
M  V30 2710 H 259.82 0.680136 -2.01216 0
M  V30 2711 H 262.083 0.362133 -0.876107 0
M  V30 2712 H 261.789 1.87103 -2.97801 0
M  V30 2713 H 261.663 3.25481 -1.90635 0
M  V30 2714 H 264.05 2.75887 -1.0474 0
M  V30 2715 H 264.131 1.38028 -2.15364 0
M  V30 2716 H 263.775 2.96741 -4.12198 0
M  V30 2717 H 263.705 4.33776 -2.98574 0
M  V30 2718 H 266.196 2.86624 -2.46282 0
M  V30 2719 H 266.509 5.4347 -5.49418 0
M  V30 2720 H 264.854 4.89251 -4.93617 0
M  V30 2721 H 268.045 3.4949 -3.11408 0
M  V30 2722 H 268.218 4.66629 -4.49623 0
M  V30 2723 N 261.624 0.925811 1.2754 0
M  V30 2724 C 262.864 0.572521 1.96218 0
M  V30 2725 C 263.228 -0.869719 1.71172 0
M  V30 2726 O 264.429 -1.33119 2.33523 0
M  V30 2727 C 262.7 0.887325 3.4621 0
M  V30 2728 S 264.259 0.642266 4.34074 0
M  V30 2729 H 261.077 0.211403 0.678845 0
M  V30 2730 H 263.679 1.19384 1.54815 0
M  V30 2731 H 262.383 1.93469 3.61936 0
M  V30 2732 H 261.914 0.255123 3.92572 0
M  V30 2733 H 263.929 -0.500822 4.93666 0
M  V30 2734 N 263.102 -1.41638 0.69111 0
M  V30 2735 C 264.032 -2.3347 0.037248 0
M  V30 2736 C 265.013 -1.51575 -0.771947 0
M  V30 2737 O 266.198 -1.80126 -0.72582 0
M  V30 2738 C 263.328 -3.35354 -0.903064 0
M  V30 2739 C 262.282 -4.27526 -0.201288 0
M  V30 2740 C 261.608 -5.19747 -1.25565 0
M  V30 2741 C 262.908 -5.13959 0.929689 0
M  V30 2742 H 264.602 -2.88397 0.804227 0
M  V30 2743 H 262.148 -1.38669 0.388189 0
M  V30 2744 H 264.101 -3.98519 -1.36969 0
M  V30 2745 H 262.825 -2.78767 -1.70166 0
M  V30 2746 H 261.484 -3.65779 0.245265 0
M  V30 2747 H 261.132 -4.59479 -2.04666 0
M  V30 2748 H 260.832 -5.8225 -0.791128 0
M  V30 2749 H 262.356 -5.85789 -1.72288 0
M  V30 2750 H 263.77 -5.70718 0.543546 0
M  V30 2751 H 262.167 -5.85379 1.32103 0
M  V30 2752 H 263.237 -4.51389 1.77133 0
M  V30 2753 N 264.58 -0.43555 -1.51462 0
M  V30 2754 C 265.996 -0.0877501 -1.59359 0
M  V30 2755 C 266.196 1.4027 -1.4466 0
M  V30 2756 O 265.252 2.17243 -1.28693 0
M  V30 2757 C 266.565 -0.606264 -2.94525 0
M  V30 2758 C 268.113 -0.566548 -3.0783 0
M  V30 2759 C 268.588 -1.06201 -4.45517 0
M  V30 2760 N 270.079 -1.01992 -4.51832 0
M  V30 2761 C 270.814 -1.37417 -5.5669 0
M  V30 2762 N 270.31 -1.80119 -6.68976 0
M  V30 2763 N 272.103 -1.29245 -5.47039 0
M  V30 2764 H 264.254 -1.40533 -1.59261 0
M  V30 2765 H 266.517 -0.578992 -0.750648 0
M  V30 2766 H 266.223 -1.64901 -3.10645 0
M  V30 2767 H 266.097 -0.0302097 -3.77188 0
M  V30 2768 H 268.484 0.467208 -2.91378 0
M  V30 2769 H 268.565 -1.17898 -2.2701 0
M  V30 2770 H 268.209 -2.09422 -4.62715 0
M  V30 2771 H 268.139 -0.426127 -5.24873 0
M  V30 2772 H 270.63 -0.706308 -3.71241 0
M  V30 2773 H 270.943 -2.05392 -7.45006 0
M  V30 2774 H 269.288 -1.84044 -6.70189 0
M  V30 2775 H 272.479 -0.957522 -4.58202 0
M  V30 2776 H 272.652 -1.57182 -6.28648 0
M  V30 2777 N 266.058 1.56714 -0.166846 0
M  V30 2778 C 267.006 2.19056 0.782123 0
M  V30 2779 C 268 1.15328 1.24079 0
M  V30 2780 O 269.206 1.33537 1.20697 0
M  V30 2781 H 265.581 0.70167 0.270486 0
M  V30 2782 H 267.552 2.97494 0.232322 0
M  V30 2783 C 266.301 2.84206 2.00306 0
M  V30 2784 H 265.624 3.63748 1.65914 0
M  V30 2785 H 267.064 3.31302 2.64604 0
M  V30 2786 C 265.523 1.83744 2.82382 0
M  V30 2787 O 266.053 1.32014 3.79388 0
M  V30 2788 N 264.259 1.52601 2.47308 0
M  V30 2789 H 263.806 1.9486 1.68485 0
M  V30 2790 H 263.764 0.856351 3.02513 0
M  V30 2791 N 267.536 -0.106894 1.57237 0
M  V30 2792 C 268.785 -0.811163 1.8467 0
M  V30 2793 C 269.098 -1.80469 0.754342 0
M  V30 2794 O 270.304 -2.55601 0.915439 0
M  V30 2795 C 268.76 -1.49337 3.27454 0
M  V30 2796 C 268.368 -0.540217 4.44731 0
M  V30 2797 C 270.112 -2.18206 3.64124 0
M  V30 2798 C 268.019 -1.22634 5.78545 0
M  V30 2799 H 266.949 -0.306679 0.688813 0
M  V30 2800 H 269.6 -0.0639887 1.83388 0
M  V30 2801 H 267.982 -2.2876 3.23241 0
M  V30 2802 H 269.156 0.221659 4.60267 0
M  V30 2803 H 267.471 0.042146 4.16379 0
M  V30 2804 H 270.068 -2.70253 4.61376 0
M  V30 2805 H 270.411 -2.96562 2.92158 0
M  V30 2806 H 270.944 -1.45658 3.70174 0
M  V30 2807 H 267.683 -0.483832 6.53712 0
M  V30 2808 H 267.203 -1.95993 5.66874 0
M  V30 2809 H 268.882 -1.75615 6.2271 0
M  V30 2810 N 269.014 -1.53014 -0.377408 0
M  V30 2811 C 270.263 -1.67845 -1.11853 0
M  V30 2812 C 270.576 -0.430625 -1.90801 0
M  V30 2813 O 271.782 -0.459261 -2.67587 0
M  V30 2814 C 270.238 -2.96668 -2.03756 0
M  V30 2815 C 269.846 -4.28671 -1.30175 0
M  V30 2816 C 271.59 -3.20865 -2.77932 0
M  V30 2817 C 269.497 -5.48591 -2.20911 0
M  V30 2818 H 268.427 -0.625343 -0.421263 0
M  V30 2819 H 271.078 -1.79514 -0.380409 0
M  V30 2820 H 269.46 -2.78773 -2.8125 0
M  V30 2821 H 270.634 -4.57157 -0.578259 0
M  V30 2822 H 268.949 -4.10825 -0.679108 0
M  V30 2823 H 271.546 -4.07642 -3.46024 0
M  V30 2824 H 271.889 -2.36424 -3.4265 0
M  V30 2825 H 272.422 -3.39379 -2.07525 0
M  V30 2826 H 269.161 -6.35474 -1.6079 0
M  V30 2827 H 268.681 -5.244 -2.91144 0
M  V30 2828 H 270.36 -5.8292 -2.80736 0
M  V30 2829 N 270.492 0.636531 -1.44174 0
M  V30 2830 C 271.442 1.74233 -1.47061 0
M  V30 2831 C 272.426 1.57331 -0.337034 0
M  V30 2832 O 273.618 1.67159 -0.581973 0
M  V30 2833 C 270.747 3.12897 -1.41246 0
M  V30 2834 C 269.833 3.35288 -2.59698 0
M  V30 2835 N 270.224 3.2807 -3.84972 0
M  V30 2836 C 268.522 3.66065 -2.54778 0
M  V30 2837 C 269.223 3.51001 -4.63867 0
M  V30 2838 N 268.199 3.73616 -3.94857 0
M  V30 2839 H 272.001 1.67103 -2.41773 0
M  V30 2840 H 269.515 0.838806 -1.3906 0
M  V30 2841 H 271.512 3.92189 -1.41398 0
M  V30 2842 H 270.172 3.21197 -0.47569 0
M  V30 2843 H 271.183 3.07109 -4.17019 0
M  V30 2844 H 267.86 3.81379 -1.6987 0
M  V30 2845 H 269.25 3.51059 -5.72894 0
M  V30 2846 N 271.97 1.30982 0.876444 0
M  V30 2847 C 273.216 1.21484 1.63136 0
M  V30 2848 C 273.571 -0.226339 1.91064 0
M  V30 2849 O 272.864 -1.15788 1.52656 0
M  V30 2850 C 273.058 1.98572 2.9716 0
M  V30 2851 C 272.887 3.50039 2.82317 0
M  V30 2852 C 271.657 4.19393 2.81847 0
M  V30 2853 C 273.855 4.45111 2.57644 0
M  V30 2854 N 271.837 5.57061 2.57985 0
M  V30 2855 C 273.208 5.70402 2.42986 0
M  V30 2856 C 275.263 4.3461 2.42937 0
M  V30 2857 C 273.966 6.8638 2.15115 0
M  V30 2858 C 275.992 5.50365 2.16454 0
M  V30 2859 C 275.354 6.74642 2.02578 0
M  V30 2860 H 271.453 0.499632 0.601575 0
M  V30 2861 H 274.037 1.65094 1.03209 0
M  V30 2862 H 272.208 1.5734 3.55104 0
M  V30 2863 H 273.94 1.81146 3.61895 0
M  V30 2864 H 270.695 3.71303 2.93991 0
M  V30 2865 H 271.119 6.29529 2.49043 0
M  V30 2866 H 275.761 3.39199 2.52396 0
M  V30 2867 H 273.479 7.81824 2.04394 0
M  V30 2868 H 277.065 5.44154 2.05884 0
M  V30 2869 H 275.945 7.62699 1.82374 0
M  V30 2870 N 273.449 -1.08991 1.13837 0
M  V30 2871 C 274.397 -2.17841 0.815347 0
M  V30 2872 C 275.391 -1.68164 -0.204233 0
M  V30 2873 O 276.597 -1.79897 -0.0609304 0
M  V30 2874 H 272.972 -0.710654 0.245915 0
M  V30 2875 H 274.943 -2.42315 1.74143 0
M  V30 2876 C 273.692 -3.46381 0.302614 0
M  V30 2877 H 273.015 -3.84979 1.0785 0
M  V30 2878 H 274.455 -4.23844 0.115074 0
M  V30 2879 C 272.914 -3.22556 -0.972591 0
M  V30 2880 O 273.444 -3.45599 -2.04754 0
M  V30 2881 N 271.65 -2.76134 -0.905455 0
M  V30 2882 H 271.197 -2.57582 -0.0305421 0
M  V30 2883 H 271.155 -2.60571 -1.75926 0
M  V30 2884 N 274.927 -0.932562 -1.27047 0
M  V30 2885 C 275.857 -0.452902 -2.29066 0
M  V30 2886 C 276.838 0.489338 -1.62909 0
M  V30 2887 O 278.023 0.393046 -1.90181 0
M  V30 2888 C 275.153 0.290698 -3.46081 0
M  V30 2889 C 274.107 -0.564168 -4.24265 0
M  V30 2890 C 273.433 0.308886 -5.33807 0
M  V30 2891 C 274.733 -1.83112 -4.89149 0
M  V30 2892 H 276.427 -1.30552 -2.69437 0
M  V30 2893 H 273.973 -0.629201 -1.29526 0
M  V30 2894 H 275.926 0.637233 -4.16554 0
M  V30 2895 H 274.65 1.17738 -3.0464 0
M  V30 2896 H 273.309 -0.893477 -3.55545 0
M  V30 2897 H 272.957 1.19467 -4.88607 0
M  V30 2898 H 272.657 -0.259633 -5.87026 0
M  V30 2899 H 274.181 0.650884 -6.07121 0
M  V30 2900 H 275.595 -1.55236 -5.51883 0
M  V30 2901 H 273.992 -2.34353 -5.52448 0
M  V30 2902 H 275.062 -2.54772 -4.12576 0
M  V30 2903 N 276.405 1.4127 -0.698611 0
M  V30 2904 C 277.654 2.00408 -0.227949 0
M  V30 2905 C 277.967 1.55981 1.18023 0
M  V30 2906 O 279.173 2.07699 1.74852 0
M  V30 2907 C 277.629 3.58129 -0.356636 0
M  V30 2908 C 277.237 4.11536 -1.77037 0
M  V30 2909 C 278.981 4.24466 0.0540969 0
M  V30 2910 C 276.888 5.61701 -1.85055 0
M  V30 2911 H 275.818 0.749586 -0.0814657 0
M  V30 2912 H 278.469 1.61713 -0.867249 0
M  V30 2913 H 276.851 3.94442 0.350965 0
M  V30 2914 H 278.025 3.86636 -2.50698 0
M  V30 2915 H 276.34 3.57736 -2.13105 0
M  V30 2916 H 278.937 5.34698 0.0146723 0
M  V30 2917 H 279.28 4.01687 1.09332 0
M  V30 2918 H 279.813 3.93198 -0.603337 0
M  V30 2919 H 276.552 5.89312 -2.8704 0
M  V30 2920 H 276.072 5.88519 -1.15783 0
M  V30 2921 H 277.751 6.26524 -1.61484 0
M  V30 2922 N 277.883 0.443576 1.51229 0
M  V30 2923 C 279.108 -0.121648 2.07043 0
M  V30 2924 C 279.533 -1.35156 1.30823 0
M  V30 2925 O 278.891 -1.7793 0.347934 0
M  V30 2926 C 278.939 -0.41624 3.5819 0
M  V30 2927 O 278.043 -1.50163 3.8409 0
M  V30 2928 H 277.384 0.000871367 0.663999 0
M  V30 2929 H 279.914 0.626706 1.94765 0
M  V30 2930 H 279.924 -0.664867 4.02546 0
M  V30 2931 H 278.599 0.482653 4.1309 0
M  V30 2932 H 277.176 -1.24248 3.51592 0
M  V30 2933 N 279.361 -1.56624 0.175154 0
M  V30 2934 C 280.324 -2.16934 -0.739738 0
M  V30 2935 C 281.324 -1.11842 -1.15533 0
M  V30 2936 O 282.514 -1.37335 -1.07167 0
M  V30 2937 C 279.646 -2.75531 -2.00738 0
M  V30 2938 H 280.839 -2.99131 -0.214639 0
M  V30 2939 H 278.392 -1.56123 -0.0744197 0
M  V30 2940 H 279.127 -1.97078 -2.57548 0
M  V30 2941 H 278.912 -3.52444 -1.71831 0
M  V30 2942 H 280.402 -3.21904 -2.66021 0
M  V30 2943 N 280.839 0.0985539 -1.57292 0
M  V30 2944 C 282.086 0.802678 -1.85912 0
M  V30 2945 C 282.414 1.78901 -0.763186 0
M  V30 2946 O 281.669 1.94178 0.243559 0
M  V30 2947 C 281.968 1.56927 -3.21105 0
M  V30 2948 C 281.634 0.725376 -4.45027 0
M  V30 2949 C 280.296 0.492726 -4.78671 0
M  V30 2950 C 282.648 0.138493 -5.21016 0
M  V30 2951 C 279.976 -0.336727 -5.85733 0
M  V30 2952 C 282.328 -0.678264 -6.28953 0
M  V30 2953 C 280.992 -0.921039 -6.61115 0
M  V30 2954 H 280.262 0.293721 -0.680301 0
M  V30 2955 H 282.909 0.0642841 -1.91392 0
M  V30 2956 H 281.214 2.37914 -3.11294 0
M  V30 2957 H 282.911 2.11841 -3.40477 0
M  V30 2958 H 279.501 0.916815 -4.18679 0
M  V30 2959 H 283.685 0.305404 -4.95359 0
M  V30 2960 H 278.941 -0.533836 -6.09065 0
M  V30 2961 H 283.115 -1.1399 -6.87007 0
M  V30 2962 H 280.742 -1.56556 -7.43905 0
M  V30 2963 N 282.317 1.53212 0.369288 0
M  V30 2964 C 283.566 1.68436 1.10961 0
M  V30 2965 C 283.879 0.440738 1.9057 0
M  V30 2966 O 285.085 0.473446 2.6734 0
M  V30 2967 C 283.541 2.97744 2.0218 0
M  V30 2968 C 283.149 4.29355 1.279 0
M  V30 2969 C 284.893 3.22334 2.76226 0
M  V30 2970 C 282.8 5.49755 2.17999 0
M  V30 2971 H 281.73 0.627568 0.41794 0
M  V30 2972 H 284.381 1.79713 0.370884 0
M  V30 2973 H 282.763 2.8026 2.79768 0
M  V30 2974 H 283.937 4.57458 0.554007 0
M  V30 2975 H 282.252 4.11179 0.657311 0
M  V30 2976 H 284.849 4.09471 3.43857 0
M  V30 2977 H 285.192 2.38238 3.41392 0
M  V30 2978 H 285.725 3.40475 2.05723 0
M  V30 2979 H 282.464 6.36318 1.57417 0
M  V30 2980 H 281.984 5.25937 2.88359 0
M  V30 2981 H 283.663 5.84401 2.77641 0
M  V30 2982 N 283.795 -0.628877 1.44509 0
M  V30 2983 C 284.725 -1.75187 1.54376 0
M  V30 2984 C 285.706 -1.65411 0.396618 0
M  V30 2985 O 286.891 -1.84137 0.617031 0
M  V30 2986 C 284.021 -3.13725 1.48976 0
M  V30 2987 C 282.975 -3.38291 2.62189 0
M  V30 2988 C 282.301 -4.76883 2.41841 0
M  V30 2989 C 283.601 -3.30632 4.04326 0
M  V30 2990 H 285.295 -1.67187 2.48373 0
M  V30 2991 H 282.841 -0.802909 1.19538 0
M  V30 2992 H 284.794 -3.92064 1.54478 0
M  V30 2993 H 283.518 -3.22515 0.514961 0
M  V30 2994 H 282.177 -2.62334 2.56079 0
M  V30 2995 H 281.825 -4.82378 1.42548 0
M  V30 2996 H 281.525 -4.94278 3.17747 0
M  V30 2997 H 283.049 -5.57449 2.49165 0
M  V30 2998 H 284.463 -3.98873 4.11793 0
M  V30 2999 H 282.86 -3.59561 4.80454 0
M  V30 3000 H 283.93 -2.28404 4.27738 0
M  V30 3001 N 285.273 -1.31445 -0.869486 0
M  V30 3002 C 286.689 -1.10113 -1.15531 0
M  V30 3003 C 286.889 0.128087 -2.01092 0
M  V30 3004 O 285.945 0.817276 -2.38908 0
M  V30 3005 C 287.258 -2.37291 -1.84698 0
M  V30 3006 C 288.806 -2.42906 -1.97397 0
M  V30 3007 C 289.281 -3.69967 -2.69979 0
M  V30 3008 N 290.772 -3.70864 -2.77514 0
M  V30 3009 C 291.507 -4.65875 -3.34287 0
M  V30 3010 N 291.003 -5.71242 -3.91988 0
M  V30 3011 N 292.796 -4.53394 -3.3225 0
M  V30 3012 H 284.947 -2.1028 -0.299347 0
M  V30 3013 H 287.21 -0.927683 -0.195214 0
M  V30 3014 H 286.916 -3.27078 -1.29278 0
M  V30 3015 H 286.79 -2.47125 -2.84972 0
M  V30 3016 H 289.177 -1.53588 -2.51982 0
M  V30 3017 H 289.258 -2.37036 -0.961643 0
M  V30 3018 H 288.902 -4.59652 -2.16062 0
M  V30 3019 H 288.832 -3.73103 -3.7162 0
M  V30 3020 H 291.323 -2.94697 -2.36563 0
M  V30 3021 H 291.636 -6.39817 -4.33421 0
M  V30 3022 H 289.981 -5.75015 -3.90362 0
M  V30 3023 H 293.172 -3.70252 -2.8641 0
M  V30 3024 H 293.345 -5.27617 -3.76197 0
M  V30 3025 N 286.751 1.08385 -1.14413 0
M  V30 3026 C 287.699 2.17406 -0.826888 0
M  V30 3027 C 288.693 1.6827 0.195312 0
M  V30 3028 O 289.899 1.79927 0.0513892 0
M  V30 3029 H 286.274 0.70934 -0.249681 0
M  V30 3030 H 288.245 2.41388 -1.75426 0
M  V30 3031 C 286.994 3.46215 -0.320979 0
M  V30 3032 H 286.317 3.84401 -1.0989 0
M  V30 3033 H 287.757 4.23777 -0.137549 0
M  V30 3034 C 286.216 3.23067 0.955472 0
M  V30 3035 O 286.746 3.4668 2.02918 0
M  V30 3036 N 284.952 2.7661 0.890798 0
M  V30 3037 H 284.499 2.57594 0.0168815 0
M  V30 3038 H 284.457 2.61501 1.74542 0
M  V30 3039 N 288.23 0.939286 1.26551 0
M  V30 3040 C 289.193 0.451987 2.24699 0
M  V30 3041 C 290.193 -0.435869 1.5478 0
M  V30 3042 O 291.383 -0.235314 1.72603 0
M  V30 3043 C 288.515 -0.348801 3.39111 0
M  V30 3044 H 289.708 1.3193 2.69322 0
M  V30 3045 H 287.261 0.721072 1.38673 0
M  V30 3046 H 287.996 -1.23444 2.99887 0
M  V30 3047 H 287.781 0.287945 3.91041 0
M  V30 3048 H 289.271 -0.679726 4.12031 0
M  V30 3049 N 289.708 -1.40897 0.706093 0
M  V30 3050 C 290.936 -2.05373 0.250887 0
M  V30 3051 C 291.351 -1.53172 -1.10381 0
M  V30 3052 O 290.708 -0.684305 -1.69185 0
M  V30 3053 C 290.759 -3.6088 0.211571 0
M  V30 3054 O 290.48 -4.11153 1.51276 0
M  V30 3055 C 291.981 -4.42517 -0.263346 0
M  V30 3056 H 289.201 -0.66115 0.114552 0
M  V30 3057 H 291.745 -1.80479 0.961635 0
M  V30 3058 H 289.9 -3.84777 -0.450073 0
M  V30 3059 H 290.314 -5.05279 1.40689 0
M  V30 3060 H 291.788 -5.51479 -0.239718 0
M  V30 3061 H 292.265 -4.19396 -1.30397 0
M  V30 3062 H 292.871 -4.23708 0.367677 0
M  V30 3063 N 291.186 -0.45159 -1.50991 0
M  V30 3064 C 292.432 0.102439 -2.03142 0
M  V30 3065 C 292.787 1.39138 -1.32884 0
M  V30 3066 O 292.08 1.86493 -0.439438 0
M  V30 3067 C 292.274 0.361728 -3.55565 0
M  V30 3068 C 292.103 -0.900535 -4.40591 0
M  V30 3069 C 290.873 -1.43821 -4.844 0
M  V30 3070 C 293.071 -1.79063 -4.82121 0
M  V30 3071 N 291.053 -2.65153 -5.53685 0
M  V30 3072 C 292.424 -2.84991 -5.50618 0
M  V30 3073 C 294.479 -1.80334 -4.64095 0
M  V30 3074 C 293.182 -3.92155 -6.02998 0
M  V30 3075 C 295.208 -2.86442 -5.17402 0
M  V30 3076 C 294.57 -3.9109 -5.85857 0
M  V30 3077 H 290.669 -0.00204537 -0.781997 0
M  V30 3078 H 293.253 -0.615446 -1.84717 0
M  V30 3079 H 291.424 1.04865 -3.73976 0
M  V30 3080 H 293.156 0.908372 -3.94374 0
M  V30 3081 H 289.911 -0.990117 -4.63135 0
M  V30 3082 H 290.335 -3.26717 -5.92946 0
M  V30 3083 H 294.977 -1.00753 -4.1062 0
M  V30 3084 H 292.695 -4.72565 -6.55521 0
M  V30 3085 H 296.281 -2.88386 -5.05297 0
M  V30 3086 H 295.161 -4.71845 -6.26364 0
M  V30 3087 N 292.664 1.56529 -0.183458 0
M  V30 3088 C 293.911 1.97244 0.458357 0
M  V30 3089 C 294.239 1.06992 1.62428 0
M  V30 3090 O 293.494 0.106542 1.9541 0
M  V30 3091 C 293.793 3.43939 0.971637 0
M  V30 3092 C 293.459 4.5083 -0.0796784 0
M  V30 3093 C 292.121 4.79786 -0.368584 0
M  V30 3094 C 294.473 5.15138 -0.792638 0
M  V30 3095 C 291.801 5.70345 -1.37563 0
M  V30 3096 C 294.153 6.06784 -1.78875 0
M  V30 3097 C 292.817 6.34102 -2.08497 0
M  V30 3098 H 292.087 0.721768 0.167725 0
M  V30 3099 H 294.734 1.89472 -0.277976 0
M  V30 3100 H 293.039 3.48724 1.78602 0
M  V30 3101 H 294.736 3.72791 1.47744 0
M  V30 3102 H 291.326 4.28317 0.155668 0
M  V30 3103 H 295.51 4.92868 -0.582659 0
M  V30 3104 H 290.766 5.89789 -1.61118 0
M  V30 3105 H 294.94 6.55677 -2.3465 0
M  V30 3106 H 292.567 7.04074 -2.86678 0
M  V30 3107 N 294.142 -0.090211 1.57342 0
M  V30 3108 C 295.388 -0.793982 1.86611 0
M  V30 3109 C 295.721 -1.78142 0.773252 0
M  V30 3110 O 294.996 -1.93271 -0.218304 0
M  V30 3111 C 295.279 -1.51839 3.26523 0
M  V30 3112 C 295.132 -0.548609 4.46442 0
M  V30 3113 C 296.451 -2.46779 3.64401 0
M  V30 3114 H 293.57 -0.287186 0.678744 0
M  V30 3115 H 296.212 -0.0575076 1.89913 0
M  V30 3116 H 294.362 -2.14617 3.23839 0
M  V30 3117 H 296.034 0.0725513 4.61243 0
M  V30 3118 H 294.277 0.137614 4.33582 0
M  V30 3119 H 294.948 -1.09271 5.41076 0
M  V30 3120 H 297.424 -1.94089 3.68061 0
M  V30 3121 H 296.3 -2.94479 4.63221 0
M  V30 3122 H 296.561 -3.30758 2.93346 0
M  V30 3123 N 295.62 -1.53406 -0.361157 0
M  V30 3124 C 296.866 -1.70054 -1.10496 0
M  V30 3125 C 297.199 -0.453278 -1.88836 0
M  V30 3126 O 296.474 0.5495 -1.86576 0
M  V30 3127 C 296.757 -2.95317 -2.06058 0
M  V30 3128 C 296.61 -4.3021 -1.31298 0
M  V30 3129 C 297.929 -3.16193 -3.06121 0
M  V30 3130 H 295.048 -0.618799 -0.400321 0
M  V30 3131 H 297.69 -1.86052 -0.385318 0
M  V30 3132 H 295.84 -2.81809 -2.67425 0
M  V30 3133 H 297.512 -4.55538 -0.726807 0
M  V30 3134 H 295.755 -4.29421 -0.614853 0
M  V30 3135 H 296.426 -5.14 -2.01265 0
M  V30 3136 H 298.902 -3.28916 -2.5486 0
M  V30 3137 H 297.778 -4.05266 -3.70204 0
M  V30 3138 H 298.039 -2.31676 -3.76535 0
M  V30 3139 N 297.098 0.621204 -1.44841 0
M  V30 3140 C 298.03 1.74615 -1.48466 0
M  V30 3141 C 299.043 1.58377 -0.37691 0
M  V30 3142 O 300.232 1.66508 -0.643215 0
M  V30 3143 C 297.332 3.12459 -1.31236 0
M  V30 3144 C 296.505 3.55064 -2.55438 0
M  V30 3145 C 295.564 4.71821 -2.32963 0
M  V30 3146 O 294.59 4.79628 -3.06505 0
M  V30 3147 N 295.792 5.64186 -1.36654 0
M  V30 3148 H 298.557 1.71973 -2.45449 0
M  V30 3149 H 296.118 0.806077 -1.40407 0
M  V30 3150 H 298.11 3.88302 -1.14032 0
M  V30 3151 H 296.68 3.09686 -0.4258 0
M  V30 3152 H 295.9 2.69324 -2.87851 0
M  V30 3153 H 297.188 3.80284 -3.38026 0
M  V30 3154 H 296.586 5.6058 -0.759344 0
M  V30 3155 H 295.143 6.39618 -1.25425 0
M  V30 3156 N 298.576 1.31904 0.862503 0
M  V30 3157 C 299.506 1.22782 1.98612 0
M  V30 3158 C 300.487 0.113362 1.69722 0
M  V30 3159 O 301.672 0.299218 1.91881 0
M  V30 3160 C 298.802 0.942058 3.34279 0
M  V30 3161 C 297.756 2.0169 3.77499 0
M  V30 3162 C 297.082 1.58369 5.10709 0
M  V30 3163 C 298.382 3.43096 3.93805 0
M  V30 3164 H 300.076 2.16788 2.06502 0
M  V30 3165 H 297.622 1.04366 0.992154 0
M  V30 3166 H 299.575 0.864818 4.1243 0
M  V30 3167 H 298.299 -0.0336603 3.26583 0
M  V30 3168 H 296.958 2.08416 3.01593 0
M  V30 3169 H 296.606 0.595628 4.99461 0
M  V30 3170 H 296.306 2.30279 5.40597 0
M  V30 3171 H 297.83 1.52067 5.91361 0
M  V30 3172 H 299.244 3.39003 4.62331 0
M  V30 3173 H 297.641 4.13288 4.35101 0
M  V30 3174 H 298.711 3.83334 2.96957 0
M  V30 3175 N 300.054 -1.07777 1.14986 0
M  V30 3176 C 301.282 -1.84018 0.945773 0
M  V30 3177 C 301.697 -1.81897 -0.505863 0
M  V30 3178 O 301.054 -1.22726 -1.35072 0
M  V30 3179 C 301.105 -3.31287 1.44677 0
M  V30 3180 O 300.826 -3.33449 2.84154 0
M  V30 3181 C 302.327 -4.24311 1.28355 0
M  V30 3182 H 299.547 -0.580716 0.336169 0
M  V30 3183 H 302.091 -1.36077 1.52654 0
M  V30 3184 H 300.246 -3.76594 0.908625 0
M  V30 3185 H 300.66 -4.25427 3.06777 0
M  V30 3186 H 302.134 -5.2573 1.68261 0
M  V30 3187 H 302.611 -4.38612 0.227184 0
M  V30 3188 H 303.217 -3.84836 1.81056 0
M  V30 3189 N 301.532 -0.945985 -1.26051 0
M  V30 3190 C 302.465 -0.403619 -2.24602 0
M  V30 3191 C 303.443 0.510241 -1.54387 0
M  V30 3192 O 304.627 0.446593 -1.83133 0
M  V30 3193 C 301.754 0.419564 -3.36091 0
M  V30 3194 C 300.8 -0.433454 -4.24292 0
M  V30 3195 S 301.633 -1.86037 -5.02146 0
M  V30 3196 C 302.789 -1.04538 -6.17108 0
M  V30 3197 H 303.022 -1.23883 -2.7026 0
M  V30 3198 H 300.555 -0.749438 -1.34992 0
M  V30 3199 H 302.513 0.888595 -4.00767 0
M  V30 3200 H 301.174 1.22951 -2.89036 0
M  V30 3201 H 300.367 0.197486 -5.03613 0
M  V30 3202 H 299.969 -0.837357 -3.64506 0
M  V30 3203 H 302.261 -0.289923 -6.76879 0
M  V30 3204 H 303.204 -1.81222 -6.84518 0
M  V30 3205 H 303.612 -0.579319 -5.61519 0
M  V30 3206 N 303.011 1.40521 -0.713556 0
M  V30 3207 C 304.236 2.05759 -0.26035 0
M  V30 3208 C 304.661 1.53403 1.08854 0
M  V30 3209 O 304.019 0.668535 1.68524 0
M  V30 3210 C 304.067 3.59745 -0.248122 0
M  V30 3211 O 303.171 4.05123 0.77131 0
M  V30 3212 H 302.512 0.652564 -0.122703 0
M  V30 3213 H 305.042 1.79958 -0.973467 0
M  V30 3214 H 305.052 4.07911 -0.0851129 0
M  V30 3215 H 303.727 3.97218 -1.2325 0
M  V30 3216 H 302.304 3.68422 0.57619 0
M  V30 3217 N 304.489 0.459591 1.5075 0
M  V30 3218 C 305.9 0.00171547 1.867 0
M  V30 3219 C 306.251 -1.39934 1.37525 0
M  V30 3220 O 305.376 -2.03523 0.735349 0
M  V30 3221 C 305.971 -0.00366298 3.388 0
M  V30 3222 C 304.53 -0.406026 3.74204 0
M  V30 3223 C 303.677 0.38673 2.7459 0
M  V30 3224 H 306.628 0.674413 1.43657 0
M  V30 3225 H 306.649 -0.808371 3.71814 0
M  V30 3226 H 306.161 1.01617 3.74561 0
M  V30 3227 H 304.262 -1.43063 3.4404 0
M  V30 3228 H 304.375 -0.115362 4.78961 0
M  V30 3229 H 302.739 -0.158019 2.54209 0
M  V30 3230 H 303.522 1.40585 3.13194 0
M  V30 3231 N 305.967 -1.56429 0.191757 0
M  V30 3232 C 306.877 -2.22541 -0.742481 0
M  V30 3233 C 307.893 -1.22342 -1.23727 0
M  V30 3234 O 309.069 -1.55069 -1.28513 0
M  V30 3235 C 306.134 -2.8692 -1.94623 0
M  V30 3236 C 305.195 -4.02378 -1.49633 0
M  V30 3237 C 304.428 -4.63678 -2.6427 0
M  V30 3238 O 304.651 -4.23895 -3.81666 0
M  V30 3239 O 303.585 -5.53202 -2.37174 0
M  V30 3240 H 307.411 -3.02977 -0.209462 0
M  V30 3241 H 304.996 -1.49353 -0.0373832 0
M  V30 3242 H 306.878 -3.27663 -2.64982 0
M  V30 3243 H 305.553 -2.09466 -2.46791 0
M  V30 3244 H 304.46 -3.66265 -0.761636 0
M  V30 3245 H 305.793 -4.81487 -1.02134 0
M  V30 3246 N 307.445 0.0818655 -1.57387 0
M  V30 3247 C 308.691 0.784074 -1.8703 0
M  V30 3248 C 309.024 1.77729 -0.782689 0
M  V30 3249 O 308.299 1.93384 0.208051 0
M  V30 3250 C 308.582 1.50105 -3.27323 0
M  V30 3251 C 308.435 0.524925 -4.46727 0
M  V30 3252 C 309.754 2.44843 -3.65705 0
M  V30 3253 H 306.873 0.283582 -0.680257 0
M  V30 3254 H 309.515 0.0474352 -1.89941 0
M  V30 3255 H 307.665 2.12897 -3.24972 0
M  V30 3256 H 309.337 -0.0970111 -4.61198 0
M  V30 3257 H 307.58 -0.160606 -4.33503 0
M  V30 3258 H 308.251 1.064 -5.41648 0
M  V30 3259 H 310.727 1.92135 -3.69085 0
M  V30 3260 H 309.603 2.92018 -4.64776 0
M  V30 3261 H 309.864 3.29197 -2.95096 0
M  V30 3262 N 308.923 1.53595 0.353017 0
M  V30 3263 C 309.873 1.77299 1.43349 0
M  V30 3264 C 310.857 0.627884 1.48143 0
M  V30 3265 O 312.049 0.88697 1.53173 0
M  V30 3266 C 309.178 1.97757 2.80619 0
M  V30 3267 C 308.264 3.18305 2.80254 0
M  V30 3268 N 308.655 4.39967 2.49526 0
M  V30 3269 C 306.953 3.19283 3.11407 0
M  V30 3270 C 307.654 5.21772 2.57156 0
M  V30 3271 N 306.63 4.58269 2.92388 0
M  V30 3272 H 310.432 2.68963 1.18474 0
M  V30 3273 H 307.946 1.52391 0.561306 0
M  V30 3274 H 309.943 2.1287 3.58458 0
M  V30 3275 H 308.603 1.07329 3.06448 0
M  V30 3276 H 309.614 4.67482 2.22893 0
M  V30 3277 H 306.291 2.3879 3.4247 0
M  V30 3278 H 307.681 6.2885 2.36638 0
M  V30 3279 N 310.401 -0.613514 1.45168 0
M  V30 3280 C 311.333 -1.73825 1.4939 0
M  V30 3281 C 312.346 -1.58175 0.385304 0
M  V30 3282 O 313.535 -1.66165 0.652036 0
M  V30 3283 C 310.635 -3.11758 1.32891 0
M  V30 3284 C 309.808 -3.53704 2.57317 0
M  V30 3285 C 308.867 -4.70579 2.35462 0
M  V30 3286 O 307.893 -4.77996 3.09044 0
M  V30 3287 N 309.095 -5.63454 1.39644 0
M  V30 3288 H 311.86 -1.70669 2.46358 0
M  V30 3289 H 309.421 -0.79862 1.40832 0
M  V30 3290 H 311.413 -3.87692 1.1609 0
M  V30 3291 H 309.983 -3.09456 0.442218 0
M  V30 3292 H 309.203 -2.67794 2.89275 0
M  V30 3293 H 310.491 -3.78486 3.40038 0
M  V30 3294 H 309.889 -5.6017 0.789062 0
M  V30 3295 H 308.446 -6.38944 1.28816 0
M  V30 3296 N 311.879 -1.3236 -0.855495 0
M  V30 3297 C 313.104 -1.2601 -1.64731 0
M  V30 3298 C 313.529 0.169068 -1.87339 0
M  V30 3299 O 312.887 1.12016 -1.42556 0
M  V30 3300 C 312.935 -2.02417 -2.98429 0
M  V30 3301 O 312.039 -1.3714 -3.8893 0
M  V30 3302 H 311.38 -0.434325 -0.502253 0
M  V30 3303 H 313.91 -1.74661 -1.06558 0
M  V30 3304 H 313.92 -2.12559 -3.48257 0
M  V30 3305 H 312.595 -3.06343 -2.81295 0
M  V30 3306 H 311.172 -1.3554 -3.47395 0
M  V30 3307 N 313.357 1.07166 -1.15556 0
M  V30 3308 C 314.305 2.16517 -0.8499 0
M  V30 3309 C 315.299 1.68468 0.177454 0
M  V30 3310 O 316.505 1.79971 0.0323026 0
M  V30 3311 H 312.88 0.706652 -0.25719 0
M  V30 3312 H 314.851 2.39514 -1.77976 0
M  V30 3313 C 313.6 3.45855 -0.357682 0
M  V30 3314 H 312.923 3.83214 -1.13961 0
M  V30 3315 H 314.363 4.23607 -0.182489 0
M  V30 3316 C 312.822 3.24062 0.921152 0
M  V30 3317 O 313.352 3.48813 1.9923 0
M  V30 3318 N 311.558 2.77539 0.86141 0
M  V30 3319 H 311.105 2.57598 -0.0104408 0
M  V30 3320 H 311.063 2.63337 1.71758 0
M  V30 3321 N 314.835 0.952656 1.25548 0
M  V30 3322 C 316.081 0.607272 1.93494 0
M  V30 3323 C 316.414 -0.853245 1.74452 0
M  V30 3324 O 315.689 -1.61194 1.08843 0
M  V30 3325 C 315.972 0.96435 3.46947 0
M  V30 3326 C 315.825 2.48045 3.75225 0
M  V30 3327 C 317.144 0.487987 4.37386 0
M  V30 3328 H 314.263 0.222096 0.702739 0
M  V30 3329 H 316.905 1.18895 1.48203 0
M  V30 3330 H 315.055 0.469361 3.85654 0
M  V30 3331 H 316.727 3.04905 3.46166 0
M  V30 3332 H 314.97 2.919 3.209 0
M  V30 3333 H 315.641 2.6808 4.82532 0
M  V30 3334 H 318.117 0.912558 4.0597 0
M  V30 3335 H 316.993 0.766547 5.43521 0
M  V30 3336 H 317.254 -0.612063 4.37843 0
M  V30 3337 N 316.313 -1.40141 0.720998 0
M  V30 3338 C 317.561 -2.0039 0.262323 0
M  V30 3339 C 317.882 -1.57469 -1.15015 0
M  V30 3340 O 317.152 -0.816582 -1.78069 0
M  V30 3341 H 315.732 -0.741063 0.093996 0
M  V30 3342 H 318.394 -1.71398 0.927835 0
M  V30 3343 H 317.49 -3.10658 0.299671 0
M  V30 3344 N 317.792 -0.46758 -1.50504 0
M  V30 3345 C 319.038 0.0808869 -2.03239 0
M  V30 3346 C 319.393 1.37721 -1.34353 0
M  V30 3347 O 318.686 1.86016 -0.459194 0
M  V30 3348 C 318.88 0.323995 -3.55928 0
M  V30 3349 C 318.709 -0.947215 -4.39611 0
M  V30 3350 C 317.479 -1.48951 -4.82848 0
M  V30 3351 C 319.677 -1.84166 -4.80195 0
M  V30 3352 N 317.659 -2.71011 -5.50842 0
M  V30 3353 C 319.03 -2.90815 -5.47564 0
M  V30 3354 C 321.085 -1.85246 -4.62156 0
M  V30 3355 C 319.788 -3.98529 -5.98805 0
M  V30 3356 C 321.814 -2.91914 -5.14335 0
M  V30 3357 C 321.176 -3.97282 -5.81676 0
M  V30 3358 H 317.275 -0.0103394 -0.781932 0
M  V30 3359 H 319.859 -0.635003 -1.84054 0
M  V30 3360 H 318.03 1.00892 -3.75067 0
M  V30 3361 H 319.762 0.866492 -3.95315 0
M  V30 3362 H 316.517 -1.03918 -4.62058 0
M  V30 3363 H 316.941 -3.32988 -5.89447 0
M  V30 3364 H 321.583 -1.05103 -4.09528 0
M  V30 3365 H 319.301 -4.79491 -6.50472 0
M  V30 3366 H 322.887 -2.93729 -5.0221 0
M  V30 3367 H 321.767 -4.78462 -6.21324 0
M  V30 3368 N 319.27 1.56325 -0.20005 0
M  V30 3369 C 320.51 1.99619 0.439519 0
M  V30 3370 C 320.874 1.08423 1.58456 0
M  V30 3371 O 322.075 1.40973 2.28867 0
M  V30 3372 C 320.346 3.46314 0.883258 0
M  V30 3373 S 321.905 4.11634 1.51997 0
M  V30 3374 H 318.723 0.697007 0.140363 0
M  V30 3375 H 321.325 1.93118 -0.304282 0
M  V30 3376 H 320.029 4.10381 0.0398967 0
M  V30 3377 H 319.56 3.56643 1.6604 0
M  V30 3378 H 321.575 4.09049 2.8088 0
M  V30 3379 N 320.748 -0.0735177 1.57428 0
M  V30 3380 C 322.164 -0.428264 1.53747 0
M  V30 3381 C 322.364 -1.79272 0.91998 0
M  V30 3382 O 321.42 -2.47051 0.521745 0
M  V30 3383 C 322.733 -0.370914 2.98404 0
M  V30 3384 C 324.281 -0.451224 3.0973 0
M  V30 3385 C 324.756 -0.4238 4.56035 0
M  V30 3386 N 326.247 -0.483925 4.60665 0
M  V30 3387 C 326.982 -0.484891 5.71346 0
M  V30 3388 N 326.478 -0.440775 6.91396 0
M  V30 3389 N 328.271 -0.531319 5.59583 0
M  V30 3390 H 320.422 0.819949 1.95935 0
M  V30 3391 H 322.685 0.307493 0.896745 0
M  V30 3392 H 322.391 0.564956 3.47133 0
M  V30 3393 H 322.265 -1.18176 3.5821 0
M  V30 3394 H 324.652 -1.37752 2.60976 0
M  V30 3395 H 324.733 0.388167 2.52838 0
M  V30 3396 H 324.377 0.498638 5.05446 0
M  V30 3397 H 324.307 -1.2807 5.10789 0
M  V30 3398 H 326.798 -0.522338 3.74273 0
M  V30 3399 H 327.111 -0.44539 7.71515 0
M  V30 3400 H 325.456 -0.40749 6.93804 0
M  V30 3401 H 328.647 -0.563464 4.64696 0
M  V30 3402 H 328.82 -0.528603 6.4584 0
M  V30 3403 N 322.226 -1.5378 -0.344866 0
M  V30 3404 C 323.156 -1.84662 -1.42906 0
M  V30 3405 C 324.137 -0.701648 -1.54955 0
M  V30 3406 O 325.322 -0.953438 -1.69184 0
M  V30 3407 C 322.452 -2.05503 -2.79974 0
M  V30 3408 C 321.406 -3.21318 -2.82734 0
M  V30 3409 C 320.732 -3.2749 -4.22675 0
M  V30 3410 C 322.032 -4.59456 -2.48389 0
M  V30 3411 H 323.726 -2.75461 -1.17311 0
M  V30 3412 H 321.272 -1.32542 -0.562896 0
M  V30 3413 H 323.225 -2.25691 -3.55867 0
M  V30 3414 H 321.949 -1.11434 -3.07002 0
M  V30 3415 H 320.608 -3.00984 -2.09294 0
M  V30 3416 H 320.256 -2.31019 -4.4681 0
M  V30 3417 H 319.956 -4.05316 -4.25433 0
M  V30 3418 H 321.48 -3.49887 -5.00412 0
M  V30 3419 H 322.894 -4.79667 -3.13995 0
M  V30 3420 H 321.291 -5.39675 -2.62432 0
M  V30 3421 H 322.361 -4.63155 -1.4358 0
M  V30 3422 N 323.704 0.605807 -1.45491 0
M  V30 3423 C 324.95 1.36679 -1.49823 0
M  V30 3424 C 325.283 1.93693 -0.140175 0
M  V30 3425 O 324.558 1.75158 0.845581 0
M  V30 3426 C 324.841 2.51337 -2.57879 0
M  V30 3427 C 324.694 1.99508 -4.03134 0
M  V30 3428 C 326.013 3.53463 -2.62205 0
M  V30 3429 H 323.132 0.495617 -0.545466 0
M  V30 3430 H 325.774 0.682732 -1.7731 0
M  V30 3431 H 323.924 3.09691 -2.34571 0
M  V30 3432 H 325.596 1.45789 -4.37656 0
M  V30 3433 H 323.839 1.30496 -4.13707 0
M  V30 3434 H 324.51 2.82169 -4.74431 0
M  V30 3435 H 326.986 3.04953 -2.83095 0
M  V30 3436 H 325.862 4.31178 -3.39672 0
M  V30 3437 H 326.123 4.09197 -1.67363 0
M  V30 3438 N 325.182 1.32811 0.848464 0
M  V30 3439 C 326.41 1.26739 1.63538 0
M  V30 3440 C 326.825 -0.163484 1.88091 0
M  V30 3441 O 326.182 -1.10258 1.45429 0
M  V30 3442 C 326.233 2.03013 2.99112 0
M  V30 3443 O 325.954 3.40518 2.75643 0
M  V30 3444 C 327.455 2.04038 3.93552 0
M  V30 3445 H 324.675 0.437024 0.509167 0
M  V30 3446 H 327.219 1.75033 1.05753 0
M  V30 3447 H 325.374 1.58426 3.53525 0
M  V30 3448 H 325.788 3.79635 3.61908 0
M  V30 3449 H 327.262 2.61877 4.85926 0
M  V30 3450 H 327.739 1.0282 4.26995 0
M  V30 3451 H 328.345 2.486 3.45077 0
M  V30 3452 N 326.66 -1.06551 1.16123 0
M  V30 3453 C 327.623 -2.12132 0.867906 0
M  V30 3454 C 328.623 -1.60224 -0.135944 0
M  V30 3455 O 329.813 -1.73943 0.0946422 0
M  V30 3456 C 326.945 -3.396 0.297419 0
M  V30 3457 H 328.138 -2.39586 1.80385 0
M  V30 3458 H 325.691 -1.22574 0.969812 0
M  V30 3459 H 326.426 -3.17794 -0.64633 0
M  V30 3460 H 326.211 -3.78581 1.02073 0
M  V30 3461 H 327.701 -4.17455 0.110052 0
M  V30 3462 N 328.138 -0.959301 -1.25041 0
M  V30 3463 C 329.101 -0.487677 -2.23952 0
M  V30 3464 C 330.101 0.41119 -1.55454 0
M  V30 3465 O 331.291 0.207825 -1.72956 0
M  V30 3466 C 328.423 0.294807 -3.39623 0
M  V30 3467 H 329.616 -1.36198 -2.67189 0
M  V30 3468 H 327.169 -0.743042 -1.37508 0
M  V30 3469 H 327.904 1.18658 -3.01813 0
M  V30 3470 H 327.689 -0.35012 -3.90534 0
M  V30 3471 H 329.179 0.614089 -4.1306 0
M  V30 3472 N 329.616 1.39756 -0.72842 0
M  V30 3473 C 330.846 2.04651 -0.283117 0
M  V30 3474 C 331.254 1.5502 1.08469 0
M  V30 3475 O 330.597 0.707343 1.69536 0
M  V30 3476 C 330.659 3.58947 -0.199309 0
M  V30 3477 C 330.323 4.31525 -1.5045 0
M  V30 3478 C 331.32 4.5861 -2.44894 0
M  V30 3479 C 329.005 4.70195 -1.76698 0
M  V30 3480 C 330.999 5.23366 -3.63822 0
M  V30 3481 C 328.686 5.3468 -2.95906 0
M  V30 3482 C 329.684 5.61198 -3.89289 0
M  V30 3483 O 329.372 6.24347 -5.06404 0
M  V30 3484 H 329.104 0.664777 -0.122666 0
M  V30 3485 H 331.658 1.79913 -0.990987 0
M  V30 3486 H 329.888 3.82556 0.56461 0
M  V30 3487 H 331.577 4.0534 0.213125 0
M  V30 3488 H 332.343 4.29187 -2.25883 0
M  V30 3489 H 328.222 4.48916 -1.04859 0
M  V30 3490 H 331.766 5.4398 -4.36728 0
M  V30 3491 H 327.663 5.63524 -3.14819 0
M  V30 3492 H 328.431 6.42842 -5.06652 0
M  V30 3493 N 331.094 0.475555 1.50254 0
M  V30 3494 C 332.042 -0.330276 2.30243 0
M  V30 3495 C 333.036 -0.986306 1.37726 0
M  V30 3496 O 334.242 -0.9169 1.54897 0
M  V30 3497 H 330.617 -0.125353 0.741479 0
M  V30 3498 H 332.588 0.364702 2.96163 0
M  V30 3499 C 331.337 -1.39704 3.18399 0
M  V30 3500 H 330.66 -0.901621 3.89501 0
M  V30 3501 H 332.1 -1.93336 3.77355 0
M  V30 3502 C 330.559 -2.4014 2.36293 0
M  V30 3503 O 331.089 -3.45504 2.04914 0
M  V30 3504 N 329.295 -2.1197 1.98789 0
M  V30 3505 H 328.842 -1.2631 2.24507 0
M  V30 3506 H 328.8 -2.79403 1.44157 0
M  V30 3507 N 332.573 -1.56217 0.208337 0
M  V30 3508 C 333.803 -2.02043 -0.431523 0
M  V30 3509 C 334.211 -1.08755 -1.54819 0
M  V30 3510 O 333.554 -0.0870009 -1.83494 0
M  V30 3511 C 333.616 -3.44239 -1.03633 0
M  V30 3512 C 333.28 -4.56965 -0.0567502 0
M  V30 3513 C 334.277 -5.14624 0.738773 0
M  V30 3514 C 331.962 -5.02266 0.0581736 0
M  V30 3515 C 333.956 -6.16045 1.63605 0
M  V30 3516 C 331.643 -6.03528 0.959001 0
M  V30 3517 C 332.641 -6.60293 1.7465 0
M  V30 3518 O 332.329 -7.59586 2.6322 0
M  V30 3519 H 332.061 -0.666772 -0.111313 0
M  V30 3520 H 334.615 -2.02919 0.318277 0
M  V30 3521 H 332.845 -3.40391 -1.83497 0
M  V30 3522 H 334.534 -3.73793 -1.58221 0
M  V30 3523 H 335.3 -4.80483 0.660364 0
M  V30 3524 H 331.179 -4.57771 -0.544633 0
M  V30 3525 H 334.723 -6.60279 2.25116 0
M  V30 3526 H 330.62 -6.37092 1.03848 0
M  V30 3527 H 331.388 -7.77057 2.57148 0
M  V30 3528 N 334.051 0.0651679 -1.57465 0
M  V30 3529 C 335.298 0.763063 -1.87573 0
M  V30 3530 C 335.626 1.77242 -0.800961 0
M  V30 3531 O 334.881 1.94651 0.202316 0
M  V30 3532 C 335.18 1.50081 -3.24362 0
M  V30 3533 C 334.846 0.630816 -4.46466 0
M  V30 3534 C 333.508 0.391082 -4.79608 0
M  V30 3535 C 335.86 0.0279465 -5.21193 0
M  V30 3536 C 333.188 -0.460894 -5.84887 0
M  V30 3537 C 335.54 -0.811522 -6.27373 0
M  V30 3538 C 334.204 -1.06106 -6.59013 0
M  V30 3539 H 333.474 0.279224 -0.686378 0
M  V30 3540 H 336.121 0.0236726 -1.91485 0
M  V30 3541 H 334.426 2.31258 -3.16271 0
M  V30 3542 H 336.123 2.04571 -3.44894 0
M  V30 3543 H 332.713 0.8278 -4.2053 0
M  V30 3544 H 336.897 0.200262 -4.95896 0
M  V30 3545 H 332.153 -0.662907 -6.07796 0
M  V30 3546 H 336.327 -1.28537 -6.84435 0
M  V30 3547 H 333.954 -1.723 -7.40417 0
M  V30 3548 N 335.529 1.53961 0.336706 0
M  V30 3549 C 336.479 1.7881 1.41461 0
M  V30 3550 C 337.463 0.643561 1.47469 0
M  V30 3551 O 338.655 0.903166 1.52223 0
M  V30 3552 C 335.784 2.00722 2.78506 0
M  V30 3553 C 334.87 3.2126 2.76862 0
M  V30 3554 N 335.261 4.42588 2.44845 0
M  V30 3555 C 333.559 3.22568 3.08004 0
M  V30 3556 C 334.26 5.2447 2.51607 0
M  V30 3557 N 333.236 4.61344 2.87511 0
M  V30 3558 H 337.038 2.70205 1.15615 0
M  V30 3559 H 334.552 1.52978 0.545112 0
M  V30 3560 H 336.549 2.1666 3.5618 0
M  V30 3561 H 335.209 1.10573 3.05293 0
M  V30 3562 H 336.22 4.69819 2.17922 0
M  V30 3563 H 332.897 2.42409 3.39918 0
M  V30 3564 H 334.287 6.31324 2.29955 0
M  V30 3565 N 337.007 -0.598083 1.45811 0
M  V30 3566 C 338.253 -1.35882 1.50545 0
M  V30 3567 C 338.586 -1.93616 0.150445 0
M  V30 3568 O 337.861 -1.75604 -0.83628 0
M  V30 3569 C 338.144 -2.49966 2.59208 0
M  V30 3570 C 337.997 -1.97367 4.04186 0
M  V30 3571 C 339.316 -3.52068 2.64076 0
M  V30 3572 H 336.435 -0.492717 0.548087 0
M  V30 3573 H 339.077 -0.673319 1.77669 0
M  V30 3574 H 337.227 -3.08443 2.3621 0
M  V30 3575 H 338.899 -1.43466 4.38423 0
M  V30 3576 H 337.142 -1.283 4.14393 0
M  V30 3577 H 337.813 -2.79649 4.75921 0
M  V30 3578 H 340.289 -3.03448 2.84708 0
M  V30 3579 H 339.165 -4.2937 3.41954 0
M  V30 3580 H 339.426 -4.08304 1.69531 0
M  V30 3581 N 338.485 -1.33259 -0.841409 0
M  V30 3582 C 339.713 -1.27605 -1.62864 0
M  V30 3583 C 340.128 0.153507 -1.88175 0
M  V30 3584 O 339.485 1.09485 -1.46011 0
M  V30 3585 C 339.536 -2.04596 -2.98031 0
M  V30 3586 O 339.257 -3.41975 -2.73834 0
M  V30 3587 C 340.758 -2.06122 -3.92465 0
M  V30 3588 H 337.978 -0.439718 -0.506842 0
M  V30 3589 H 340.522 -1.75591 -1.04824 0
M  V30 3590 H 338.677 -1.60299 -3.5268 0
M  V30 3591 H 339.091 -3.81549 -3.59889 0
M  V30 3592 H 340.565 -2.64451 -4.84531 0
M  V30 3593 H 341.042 -1.05083 -4.26444 0
M  V30 3594 H 341.648 -2.50427 -3.43753 0
M  V30 3595 N 339.963 1.05934 -1.16686 0
M  V30 3596 C 340.911 2.15603 -0.872817 0
M  V30 3597 C 341.905 1.68647 0.159576 0
M  V30 3598 O 343.111 1.79995 0.0132125 0
M  V30 3599 H 339.486 0.703885 -0.264671 0
M  V30 3600 H 341.457 2.37613 -1.80507 0
M  V30 3601 C 340.206 3.45457 -0.394344 0
M  V30 3602 H 339.529 3.81984 -1.18019 0
M  V30 3603 H 340.969 4.2339 -0.227408 0
M  V30 3604 C 339.428 3.25021 0.88673 0
M  V30 3605 O 339.958 3.50906 1.95519 0
M  V30 3606 N 338.164 2.78437 0.831925 0
M  V30 3607 H 337.711 2.57572 -0.0377619 0
M  V30 3608 H 337.669 2.65144 1.68956 0
M  V30 3609 N 341.441 0.965919 1.2453 0
M  V30 3610 C 342.688 0.626831 1.92554 0
M  V30 3611 C 343.016 -0.837739 1.75534 0
M  V30 3612 O 342.271 -1.61793 1.10098 0
M  V30 3613 C 342.57 0.945428 3.44669 0
M  V30 3614 C 342.236 2.39785 3.81856 0
M  V30 3615 C 340.898 2.79483 3.91718 0
M  V30 3616 C 343.25 3.34055 4.00071 0
M  V30 3617 C 340.578 4.12496 4.1721 0
M  V30 3618 C 342.93 4.66694 4.27059 0
M  V30 3619 C 341.594 5.06172 4.3514 0
M  V30 3620 H 340.864 0.229374 0.704605 0
M  V30 3621 H 343.511 1.21707 1.4785 0
M  V30 3622 H 341.816 0.272926 3.90848 0
M  V30 3623 H 343.513 0.661484 3.95507 0
M  V30 3624 H 340.103 2.08003 3.74743 0
M  V30 3625 H 344.287 3.04571 3.91855 0
M  V30 3626 H 339.543 4.42709 4.21685 0
M  V30 3627 H 343.717 5.3971 4.40097 0
M  V30 3628 H 341.344 6.09262 4.54646 0
M  V30 3629 N 342.919 -1.39368 0.735821 0
M  V30 3630 C 344.166 -2.00497 0.284123 0
M  V30 3631 C 344.494 -1.58387 -1.12889 0
M  V30 3632 O 343.749 -0.804359 -1.78406 0
M  V30 3633 C 344.048 -3.5583 0.334651 0
M  V30 3634 C 343.714 -4.17593 1.7008 0
M  V30 3635 C 342.376 -4.34176 2.07472 0
M  V30 3636 C 344.728 -4.51848 2.59775 0
M  V30 3637 C 342.056 -4.82304 3.34065 0
M  V30 3638 C 344.408 -5.01384 3.85741 0
M  V30 3639 C 343.072 -5.16175 4.23225 0
M  V30 3640 H 342.342 -0.73367 0.103968 0
M  V30 3641 H 344.989 -1.66683 0.942825 0
M  V30 3642 H 343.294 -3.89674 -0.407625 0
M  V30 3643 H 344.991 -4.00986 -0.0329927 0
M  V30 3644 H 341.581 -4.05087 1.40008 0
M  V30 3645 H 345.765 -4.38653 2.32157 0
M  V30 3646 H 341.021 -4.91941 3.63049 0
M  V30 3647 H 345.195 -5.26863 4.55399 0
M  V30 3648 H 342.822 -5.5323 5.21384 0
M  V30 3649 N 344.397 -0.483516 -1.5 0
M  V30 3650 C 345.643 0.0593261 -2.03313 0
M  V30 3651 C 345.998 1.36288 -1.35806 0
M  V30 3652 O 345.291 1.85519 -0.478897 0
M  V30 3653 C 345.485 0.286226 -3.56252 0
M  V30 3654 C 345.314 -0.993788 -4.38582 0
M  V30 3655 C 344.084 -1.54064 -4.81241 0
M  V30 3656 C 346.282 -1.89249 -4.78215 0
M  V30 3657 N 344.264 -2.76838 -5.47936 0
M  V30 3658 C 345.635 -2.96606 -5.44449 0
M  V30 3659 C 347.69 -1.90138 -4.60165 0
M  V30 3660 C 346.393 -4.04857 -5.94544 0
M  V30 3661 C 348.419 -2.97353 -5.1121 0
M  V30 3662 C 347.781 -4.03429 -5.77429 0
M  V30 3663 H 343.88 -0.0186322 -0.781778 0
M  V30 3664 H 346.464 -0.654489 -1.8337 0
M  V30 3665 H 344.635 0.969086 -3.76116 0
M  V30 3666 H 346.367 0.824515 -3.96212 0
M  V30 3667 H 343.122 -1.08813 -4.6093 0
M  V30 3668 H 343.546 -3.39221 -5.85882 0
M  V30 3669 H 348.188 -1.09441 -4.0839 0
M  V30 3670 H 345.906 -4.86363 -6.4535 0
M  V30 3671 H 349.492 -2.99039 -4.99066 0
M  V30 3672 H 348.372 -4.85025 -6.16214 0
M  V30 3673 N 345.875 1.56104 -0.216619 0
M  V30 3674 C 346.808 2.16026 0.735395 0
M  V30 3675 C 347.786 1.1032 1.1945 0
M  V30 3676 O 348.97 1.38549 1.27814 0
M  V30 3677 C 346.097 2.73656 1.99575 0
M  V30 3678 C 345.143 3.92146 1.67702 0
M  V30 3679 S 345.976 5.29397 0.806145 0
M  V30 3680 C 347.132 5.90463 2.07617 0
M  V30 3681 H 347.365 2.96439 0.226072 0
M  V30 3682 H 344.898 1.544 -0.00136639 0
M  V30 3683 H 346.856 3.075 2.71945 0
M  V30 3684 H 345.517 1.93245 2.47619 0
M  V30 3685 H 344.71 4.30954 2.61332 0
M  V30 3686 H 344.312 3.59423 1.03398 0
M  V30 3687 H 346.604 6.06136 3.02664 0
M  V30 3688 H 347.547 6.86589 1.73207 0
M  V30 3689 H 347.955 5.19252 2.21445 0
M  V30 3690 N 347.353 -0.0568162 1.57498 0
M  V30 3691 C 348.6 -0.753104 1.87975 0
M  V30 3692 C 348.928 -1.76815 0.81035 0
M  V30 3693 O 348.183 -1.94756 -0.19199 0
M  V30 3694 C 348.482 -1.48359 3.25153 0
M  V30 3695 C 348.148 -0.60713 4.46794 0
M  V30 3696 C 346.81 -0.365642 4.79809 0
M  V30 3697 C 349.162 -0.000305978 5.212 0
M  V30 3698 C 346.49 0.491905 5.84634 0
M  V30 3699 C 348.842 0.844781 6.26934 0
M  V30 3700 C 347.506 1.096 6.58441 0
M  V30 3701 H 346.776 -0.27558 0.687849 0
M  V30 3702 H 349.423 -0.0135173 1.91495 0
M  V30 3703 H 347.728 -2.29577 3.17492 0
M  V30 3704 H 349.425 -2.02739 3.45974 0
M  V30 3705 H 346.015 -0.805487 4.20963 0
M  V30 3706 H 350.199 -0.173961 4.95995 0
M  V30 3707 H 345.455 0.695131 6.07436 0
M  V30 3708 H 349.629 1.32165 6.83744 0
M  V30 3709 H 347.256 1.76224 7.39492 0
M  V30 3710 N 348.832 -1.54138 -0.328536 0
M  V30 3711 C 350.08 -1.71765 -1.06496 0
M  V30 3712 C 350.401 -0.49149 -1.88704 0
M  V30 3713 O 349.671 0.494539 -1.89555 0
M  V30 3714 H 348.251 -0.633295 -0.396164 0
M  V30 3715 H 350.913 -1.91429 -0.366176 0
M  V30 3716 H 350.009 -2.5951 -1.73381 0
M  V30 3717 N 350.31 0.590341 -1.46126 0
M  V30 3718 C 351.22 1.72793 -1.58681 0
M  V30 3719 C 352.236 1.67516 -0.470566 0
M  V30 3720 O 353.412 1.87562 -0.733642 0
M  V30 3721 C 350.477 3.09287 -1.5666 0
M  V30 3722 C 349.538 3.25886 -2.79458 0
M  V30 3723 C 348.771 4.55869 -2.77524 0
M  V30 3724 O 348.994 5.3928 -1.85832 0
M  V30 3725 O 347.928 4.75552 -3.68964 0
M  V30 3726 H 351.754 1.65149 -2.54872 0
M  V30 3727 H 349.339 0.756486 -1.28832 0
M  V30 3728 H 351.221 3.90577 -1.58202 0
M  V30 3729 H 349.896 3.17385 -0.636271 0
M  V30 3730 H 348.803 2.44119 -2.83472 0
M  V30 3731 H 350.136 3.22675 -3.71674 0
M  V30 3732 N 351.788 1.33704 0.83433 0
M  V30 3733 C 353.036 1.25169 1.58673 0
M  V30 3734 C 353.357 -0.18127 1.94156 0
M  V30 3735 O 352.627 -1.11113 1.6134 0
M  V30 3736 H 351.207 0.4603 0.58833 0
M  V30 3737 H 353.869 1.67478 0.996847 0
M  V30 3738 H 352.965 1.84856 2.51465 0
M  V30 3739 N 353.266 -1.05314 1.17247 0
M  V30 3740 C 354.506 -1.79869 0.970898 0
M  V30 3741 C 354.87 -1.85594 -0.491808 0
M  V30 3742 O 356.071 -2.56229 -0.812409 0
M  V30 3743 C 354.342 -3.19937 1.59295 0
M  V30 3744 S 355.901 -4.10986 1.53741 0
M  V30 3745 H 352.719 -0.61949 0.348931 0
M  V30 3746 H 355.321 -1.26368 1.49169 0
M  V30 3747 H 354.025 -3.13372 2.65003 0
M  V30 3748 H 353.556 -3.78515 1.07191 0
M  V30 3749 H 355.571 -4.93203 0.544537 0
M  V30 3750 N 354.744 -0.972509 -1.24016 0
M  V30 3751 C 355.974 -0.653853 -1.9598 0
M  V30 3752 C 356.382 0.781801 -1.72292 0
M  V30 3753 O 355.725 1.53677 -1.00644 0
M  V30 3754 C 355.787 -0.854608 -3.49194 0
M  V30 3755 C 355.451 -2.27082 -3.96589 0
M  V30 3756 C 356.448 -3.24892 -4.05883 0
M  V30 3757 C 354.133 -2.5998 -4.29786 0
M  V30 3758 C 356.127 -4.53684 -4.47716 0
M  V30 3759 C 353.814 -3.88997 -4.71301 0
M  V30 3760 C 354.812 -4.85661 -4.80232 0
M  V30 3761 O 354.5 -6.12376 -5.20818 0
M  V30 3762 H 354.232 -0.242572 -0.630979 0
M  V30 3763 H 356.786 -1.30431 -1.58673 0
M  V30 3764 H 355.016 -0.146985 -3.86421 0
M  V30 3765 H 356.705 -0.534311 -4.02368 0
M  V30 3766 H 357.471 -3.00805 -3.80449 0
M  V30 3767 H 353.35 -1.85457 -4.22051 0
M  V30 3768 H 356.894 -5.29135 -4.54601 0
M  V30 3769 H 352.791 -4.12882 -4.96184 0
M  V30 3770 H 353.559 -6.16013 -5.38953 0
M  V30 3771 N 356.222 1.38976 -0.743202 0
M  V30 3772 C 357.152 2.33171 -0.123873 0
M  V30 3773 C 358.133 1.54336 0.71516 0
M  V30 3774 O 359.318 1.82696 0.658467 0
M  V30 3775 C 356.448 3.38474 0.777978 0
M  V30 3776 C 355.402 4.27979 0.0424758 0
M  V30 3777 C 354.728 5.2405 1.06189 0
M  V30 3778 C 356.028 5.10155 -1.1198 0
M  V30 3779 H 357.722 2.85213 -0.910709 0
M  V30 3780 H 355.268 1.37133 -0.439388 0
M  V30 3781 H 357.221 4.03328 1.22084 0
M  V30 3782 H 355.945 2.84891 1.59702 0
M  V30 3783 H 354.604 3.64616 -0.380853 0
M  V30 3784 H 354.252 4.66758 1.87472 0
M  V30 3785 H 353.952 5.84785 0.574485 0
M  V30 3786 H 355.476 5.9178 1.50428 0
M  V30 3787 H 356.89 5.68307 -0.75499 0
M  V30 3788 H 355.287 5.80073 -1.53738 0
M  V30 3789 H 356.357 4.44504 -1.93764 0
M  V30 3790 N 357.7 0.491464 1.49741 0
M  V30 3791 C 358.65 -0.311086 2.25868 0
M  V30 3792 C 359.634 -0.943857 1.30308 0
M  V30 3793 O 360.826 -0.853035 1.55088 0
M  V30 3794 C 357.955 -1.38059 3.14316 0
M  V30 3795 C 357.041 -0.754541 4.17334 0
M  V30 3796 N 357.432 0.137216 5.05614 0
M  V30 3797 C 355.73 -1.01621 4.34269 0
M  V30 3798 C 356.431 0.494614 5.79593 0
M  V30 3799 N 355.407 -0.135169 5.43432 0
M  V30 3800 H 359.209 0.37555 2.91491 0
M  V30 3801 H 356.723 0.306917 1.59473 0
M  V30 3802 H 358.72 -1.96891 3.67477 0
M  V30 3803 H 357.38 -2.06901 2.50244 0
M  V30 3804 H 358.391 0.50741 5.15408 0
M  V30 3805 H 355.068 -1.69808 3.81407 0
M  V30 3806 H 356.458 1.2236 6.60665 0
M  V30 3807 N 359.178 -1.55987 0.224894 0
M  V30 3808 C 360.406 -2.02784 -0.410665 0
M  V30 3809 C 360.821 -1.10464 -1.53112 0
M  V30 3810 O 360.178 -0.114871 -1.82138 0
M  V30 3811 C 360.229 -3.49087 -0.939165 0
M  V30 3812 O 359.95 -4.37887 0.136614 0
M  V30 3813 C 361.451 -4.11543 -1.64763 0
M  V30 3814 H 358.671 -0.663484 -0.100148 0
M  V30 3815 H 361.215 -2.01614 0.342326 0
M  V30 3816 H 359.37 -3.50861 -1.64242 0
M  V30 3817 H 359.784 -5.23849 -0.261155 0
M  V30 3818 H 361.258 -5.15673 -1.96939 0
M  V30 3819 H 361.735 -3.56736 -2.56195 0
M  V30 3820 H 362.341 -4.13629 -0.989503 0
M  V30 3821 N 360.656 0.0484629 -1.57525 0
M  V30 3822 C 361.619 1.03956 -2.04269 0
M  V30 3823 C 362.619 1.30211 -0.943496 0
M  V30 3824 O 363.809 1.25539 -1.20771 0
M  V30 3825 C 360.941 2.37742 -2.44319 0
M  V30 3826 H 362.134 0.636182 -2.93075 0
M  V30 3827 H 359.687 0.294811 -1.53494 0
M  V30 3828 H 360.422 2.82866 -1.5861 0
M  V30 3829 H 360.207 2.20021 -3.24551 0
M  V30 3830 H 361.697 3.08936 -2.80978 0
M  V30 3831 N 362.134 1.5431 0.320358 0
M  V30 3832 C 363.383 1.7188 1.05546 0
M  V30 3833 C 363.696 0.501143 1.89071 0
M  V30 3834 O 364.902 0.558258 2.65699 0
M  V30 3835 C 363.358 3.04025 1.92605 0
M  V30 3836 C 362.966 4.33207 1.14176 0
M  V30 3837 C 364.71 3.30959 2.65832 0
M  V30 3838 C 362.617 5.56412 2.00399 0
M  V30 3839 H 361.547 0.640547 0.397763 0
M  V30 3840 H 364.198 1.80802 0.313522 0
M  V30 3841 H 362.58 2.89019 2.7071 0
M  V30 3842 H 363.754 4.58989 0.40819 0
M  V30 3843 H 362.069 4.13062 0.526165 0
M  V30 3844 H 364.666 4.20203 3.30656 0
M  V30 3845 H 365.009 2.48979 3.33639 0
M  V30 3846 H 365.542 3.46847 1.94787 0
M  V30 3847 H 362.281 6.41004 1.37094 0
M  V30 3848 H 361.801 5.34844 2.7148 0
M  V30 3849 H 363.48 5.92938 2.58908 0
M  V30 3850 N 363.613 -0.582584 1.46437 0
M  V30 3851 C 364.859 -1.34278 1.51978 0
M  V30 3852 C 365.192 -1.93446 0.170973 0
M  V30 3853 O 364.467 -1.76481 -0.817608 0
M  V30 3854 C 364.75 -2.47203 2.61845 0
M  V30 3855 C 364.603 -1.93069 4.06257 0
M  V30 3856 C 365.922 -3.49247 2.67795 0
M  V30 3857 H 363.041 -0.486876 0.553282 0
M  V30 3858 H 365.683 -0.654437 1.78374 0
M  V30 3859 H 363.833 -3.0592 2.39469 0
M  V30 3860 H 365.505 -1.38808 4.3992 0
M  V30 3861 H 363.748 -1.23898 4.1573 0
M  V30 3862 H 364.419 -2.74586 4.7886 0
M  V30 3863 H 366.895 -3.00411 2.8791 0
M  V30 3864 H 365.771 -4.25719 3.46489 0
M  V30 3865 H 366.032 -4.06482 1.73852 0
M  V30 3866 N 365.091 -1.34144 -0.827227 0
M  V30 3867 C 366.021 -1.28005 -1.95287 0
M  V30 3868 C 367.002 -0.158321 -1.69362 0
M  V30 3869 O 368.187 -0.349987 -1.9102 0
M  V30 3870 C 365.317 -1.03036 -3.31664 0
M  V30 3871 C 364.271 -2.11628 -3.72019 0
M  V30 3872 C 363.597 -1.71854 -5.0633 0
M  V30 3873 C 364.897 -3.53417 -3.8457 0
M  V30 3874 H 366.591 -2.22187 -2.00682 0
M  V30 3875 H 364.137 -1.0696 -0.964135 0
M  V30 3876 H 366.09 -0.973863 -4.09993 0
M  V30 3877 H 364.814 -0.0529391 -3.26557 0
M  V30 3878 H 363.473 -2.16339 -2.95961 0
M  V30 3879 H 363.121 -0.727841 -4.97706 0
M  V30 3880 H 362.821 -2.44531 -5.34302 0
M  V30 3881 H 364.345 -1.67692 -5.87122 0
M  V30 3882 H 365.759 -3.51142 -4.5318 0
M  V30 3883 H 364.156 -4.24679 -4.2399 0
M  V30 3884 H 365.226 -3.91072 -2.86689 0
M  V30 3885 N 366.569 1.04691 -1.17803 0
M  V30 3886 C 367.797 1.81446 -0.99423 0
M  V30 3887 C 368.212 1.83174 0.457459 0
M  V30 3888 O 367.569 1.26265 1.31771 0
M  V30 3889 C 367.62 3.27334 -1.5341 0
M  V30 3890 O 367.341 3.25798 -2.92895 0
M  V30 3891 C 368.842 4.20759 -1.39559 0
M  V30 3892 H 366.062 0.571599 -0.351447 0
M  V30 3893 H 368.606 1.31982 -1.56208 0
M  V30 3894 H 366.761 3.74052 -1.00815 0
M  V30 3895 H 367.175 4.17144 -3.17949 0
M  V30 3896 H 368.649 5.21084 -1.82141 0
M  V30 3897 H 369.126 4.37856 -0.343394 0
M  V30 3898 H 369.732 3.79901 -1.91195 0
M  V30 3899 N 368.047 0.979072 1.23499 0
M  V30 3900 C 369.277 0.664237 1.95631 0
M  V30 3901 C 369.685 -0.772653 1.72704 0
M  V30 3902 O 369.028 -1.53141 1.01457 0
M  V30 3903 C 369.09 0.873115 3.48736 0
M  V30 3904 C 368.754 2.29182 3.95379 0
M  V30 3905 C 369.751 3.2704 4.04155 0
M  V30 3906 C 367.436 2.62256 4.28401 0
M  V30 3907 C 369.43 4.56052 4.45304 0
M  V30 3908 C 367.117 3.91491 4.69231 0
M  V30 3909 C 368.115 4.88201 4.77649 0
M  V30 3910 O 367.803 6.15129 5.17563 0
M  V30 3911 H 367.535 0.245915 0.629684 0
M  V30 3912 H 370.089 1.3127 1.57979 0
M  V30 3913 H 368.319 0.167476 3.86337 0
M  V30 3914 H 370.008 0.555642 4.02079 0
M  V30 3915 H 370.774 3.02819 3.78848 0
M  V30 3916 H 366.653 1.87692 4.21061 0
M  V30 3917 H 370.197 5.31538 4.51789 0
M  V30 3918 H 366.094 4.15508 4.93987 0
M  V30 3919 H 366.862 6.18862 5.35679 0
M  V30 3920 N 369.525 -1.3858 0.750561 0
M  V30 3921 C 370.75 -2.04997 0.314812 0
M  V30 3922 C 371.175 -1.56235 -1.04749 0
M  V30 3923 O 370.533 -0.712981 -1.66692 0
M  V30 3924 C 370.581 -3.58961 0.343415 0
M  V30 3925 O 369.685 -4.07025 -0.663628 0
M  V30 3926 H 369.026 -0.649081 0.139962 0
M  V30 3927 H 371.556 -1.77313 1.02084 0
M  V30 3928 H 371.566 -4.07542 0.193233 0
M  V30 3929 H 370.241 -3.93811 1.33738 0
M  V30 3930 H 368.818 -3.6982 -0.478307 0
M  V30 3931 N 371.003 -0.499398 -1.49478 0
M  V30 3932 C 372.231 0.0425456 -2.06856 0
M  V30 3933 C 372.646 1.30964 -1.35992 0
M  V30 3934 O 372.003 1.77172 -0.437762 0
M  V30 3935 C 372.054 0.301735 -3.60239 0
M  V30 3936 O 371.775 -0.915127 -4.28436 0
M  V30 3937 C 373.276 0.887499 -4.34325 0
M  V30 3938 H 370.496 -0.0197482 -0.670709 0
M  V30 3939 H 373.04 -0.696297 -1.92281 0
M  V30 3940 H 371.195 0.990556 -3.74522 0
M  V30 3941 H 371.609 -0.676993 -5.20113 0
M  V30 3942 H 373.083 1.01845 -5.42523 0
M  V30 3943 H 373.56 1.88488 -3.96698 0
M  V30 3944 H 374.166 0.236196 -4.24644 0
M  V30 3945 N 372.481 1.55866 -0.233164 0
M  V30 3946 C 373.758 1.90471 0.444988 0
M  V30 3947 C 374.138 1.15209 1.7689 0
M  V30 3948 O 373.486 0.265119 2.26957 0
M  V30 3949 C 373.696 3.4333 0.626559 0
M  V30 3950 C 375.044 4.14319 0.92871 0
M  V30 3951 O 376.068 3.48993 0.712926 0
M  V30 3952 O 374.927 5.29846 1.33887 0
M  V30 3953 H 372.021 0.792347 0.236885 0
M  V30 3954 H 374.567 1.67437 -0.276211 0
M  V30 3955 H 373.339 3.90095 -0.306822 0
M  V30 3956 H 372.962 3.72181 1.39881 0
M  V30 3957 N 373.959 -0.0401083 1.57549 0
M  V30 3958 C 375.375 -0.395556 1.54621 0
M  V30 3959 C 375.575 -1.77281 0.957799 0
M  V30 3960 O 374.631 -2.45888 0.574031 0
M  V30 3961 C 375.944 -0.307535 2.99123 0
M  V30 3962 C 377.492 -0.385425 3.10618 0
M  V30 3963 C 377.967 -0.326973 4.56831 0
M  V30 3964 N 379.458 -0.386102 4.61588 0
M  V30 3965 C 380.193 -0.363591 5.72246 0
M  V30 3966 N 379.689 -0.29402 6.92176 0
M  V30 3967 N 381.482 -0.412503 5.60584 0
M  V30 3968 H 373.633 0.861325 1.94152 0
M  V30 3969 H 375.896 0.326445 0.890021 0
M  V30 3970 H 375.602 0.638461 3.45856 0
M  V30 3971 H 375.476 -1.10552 3.60636 0
M  V30 3972 H 377.863 -1.32185 2.63839 0
M  V30 3973 H 377.944 0.44171 2.51957 0
M  V30 3974 H 377.588 0.605738 5.04275 0
M  V30 3975 H 377.518 -1.17207 5.13391 0
M  V30 3976 H 380.009 -0.442832 3.75296 0
M  V30 3977 H 380.322 -0.28164 7.72287 0
M  V30 3978 H 378.667 -0.260232 6.94513 0
M  V30 3979 H 381.858 -0.464769 4.65787 0
M  V30 3980 H 382.031 -0.391492 6.46816 0
M  V30 3981 N 375.437 -1.54477 -0.31217 0
M  V30 3982 C 376.367 -1.87652 -1.38957 0
M  V30 3983 C 377.348 -0.734358 -1.53431 0
M  V30 3984 O 378.533 -0.98911 -1.67123 0
M  V30 3985 C 375.663 -2.11396 -2.75552 0
M  V30 3986 C 374.617 -3.27243 -2.75855 0
M  V30 3987 C 373.943 -3.36382 -4.15633 0
M  V30 3988 C 375.243 -4.64622 -2.38587 0
M  V30 3989 H 376.937 -2.77887 -1.11442 0
M  V30 3990 H 374.483 -1.33707 -0.534655 0
M  V30 3991 H 376.436 -2.33189 -3.51 0
M  V30 3992 H 375.16 -1.17921 -3.04569 0
M  V30 3993 H 373.819 -3.05356 -2.02863 0
M  V30 3994 H 373.467 -2.40445 -4.41809 0
M  V30 3995 H 373.167 -4.14249 -4.1674 0
M  V30 3996 H 374.691 -3.60422 -4.92877 0
M  V30 3997 H 376.105 -4.86219 -3.03749 0
M  V30 3998 H 374.502 -5.45121 -2.50925 0
M  V30 3999 H 375.572 -4.66097 -1.33723 0
M  V30 4000 N 376.915 0.57481 -1.46744 0
M  V30 4001 C 378.331 0.898981 -1.31873 0
M  V30 4002 C 378.531 1.99313 -0.29605 0
M  V30 4003 O 377.587 2.50728 0.298621 0
M  V30 4004 C 378.9 1.30886 -2.7072 0
M  V30 4005 C 380.448 1.42127 -2.78871 0
M  V30 4006 C 380.923 1.86478 -4.18318 0
M  V30 4007 N 382.414 1.93658 -4.20774 0
M  V30 4008 C 383.149 2.29267 -5.2557 0
M  V30 4009 N 382.645 2.63612 -6.40688 0
M  V30 4010 N 384.438 2.29889 -5.1294 0
M  V30 4011 H 376.589 -0.147839 -2.11885 0
M  V30 4012 H 378.852 -0.00347013 -0.947994 0
M  V30 4013 H 378.558 0.578853 -3.46904 0
M  V30 4014 H 378.432 2.26874 -3.01343 0
M  V30 4015 H 380.819 2.14213 -2.0297 0
M  V30 4016 H 380.9 0.443705 -2.51922 0
M  V30 4017 H 380.544 1.14968 -4.94717 0
M  V30 4018 H 380.474 2.85207 -4.42679 0
M  V30 4019 H 382.965 1.69574 -3.37718 0
M  V30 4020 H 383.278 2.89759 -7.16421 0
M  V30 4021 H 381.623 2.61232 -6.44036 0
M  V30 4022 H 384.814 2.02485 -4.22039 0
M  V30 4023 H 384.987 2.57312 -5.94722 0
M  V30 4024 N 378.394 1.34581 0.820102 0
M  V30 4025 C 379.341 1.2639 1.93117 0
M  V30 4026 C 380.311 0.138554 1.65521 0
M  V30 4027 O 381.496 0.320004 1.88097 0
M  V30 4028 C 378.636 1.02812 3.29429 0
M  V30 4029 C 377.749 2.24146 3.693 0
M  V30 4030 C 376.884 1.93829 4.94574 0
M  V30 4031 C 375.923 3.1129 5.27034 0
M  V30 4032 N 375.06 2.80838 6.43486 0
M  V30 4033 H 379.9 2.21408 1.99455 0
M  V30 4034 H 377.437 1.10077 0.975784 0
M  V30 4035 H 379.395 0.871788 4.0799 0
M  V30 4036 H 378.025 0.114612 3.22596 0
M  V30 4037 H 377.077 2.50691 2.86109 0
M  V30 4038 H 378.389 3.11899 3.89257 0
M  V30 4039 H 377.543 1.74948 5.80929 0
M  V30 4040 H 376.282 1.03341 4.76626 0
M  V30 4041 H 375.287 3.30764 4.39175 0
M  V30 4042 H 376.512 4.02561 5.4692 0
M  V30 4043 H 374.458 1.92929 6.26988 0
M  V30 4044 H 374.375 3.62123 6.63629 0
M  V30 4045 H 375.643 2.65467 7.32903 0
M  V30 4046 N 379.872 -1.04064 1.18357 0
M  V30 4047 C 381.118 -1.77658 0.990412 0
M  V30 4048 C 381.473 -1.86446 -0.474944 0
M  V30 4049 O 380.766 -1.36153 -1.34807 0
M  V30 4050 C 380.96 -3.20634 1.57888 0
M  V30 4051 C 380.789 -3.25782 3.09994 0
M  V30 4052 C 379.559 -3.34411 3.7881 0
M  V30 4053 C 381.757 -3.13791 4.0748 0
M  V30 4054 N 379.739 -3.28809 5.18418 0
M  V30 4055 C 381.11 -3.15689 5.33611 0
M  V30 4056 C 383.165 -2.97833 3.98998 0
M  V30 4057 C 381.868 -3.03268 6.52243 0
M  V30 4058 C 383.894 -2.86759 5.17227 0
M  V30 4059 C 383.256 -2.893 6.4225 0
M  V30 4060 H 379.355 -0.661901 0.416427 0
M  V30 4061 H 381.939 -1.23968 1.50133 0
M  V30 4062 H 380.11 -3.7267 1.09414 0
M  V30 4063 H 381.842 -3.82525 1.32124 0
M  V30 4064 H 378.597 -3.40144 3.29543 0
M  V30 4065 H 379.021 -3.29448 5.91433 0
M  V30 4066 H 383.663 -2.94698 3.03171 0
M  V30 4067 H 381.381 -3.05156 7.48268 0
M  V30 4068 H 384.967 -2.75465 5.12455 0
M  V30 4069 H 383.847 -2.80818 7.32196 0
M  V30 4070 N 381.35 -0.985608 -1.22978 0
M  V30 4071 C 382.283 -0.47487 -2.23204 0
M  V30 4072 C 383.261 0.460865 -1.55932 0
M  V30 4073 O 384.445 0.388105 -1.84461 0
M  V30 4074 C 381.572 0.312427 -3.37256 0
M  V30 4075 C 380.618 -0.568219 -4.22698 0
M  V30 4076 S 381.451 -2.01919 -4.95973 0
M  V30 4077 C 382.607 -1.24118 -6.1347 0
M  V30 4078 H 382.84 -1.32419 -2.66181 0
M  V30 4079 H 380.373 -0.792005 -1.32539 0
M  V30 4080 H 382.331 0.760645 -4.03391 0
M  V30 4081 H 380.992 1.13693 -2.92801 0
M  V30 4082 H 380.185 0.0371657 -5.03986 0
M  V30 4083 H 379.787 -0.952897 -3.61657 0
M  V30 4084 H 382.079 -0.505121 -6.75614 0
M  V30 4085 H 383.022 -2.02907 -6.78406 0
M  V30 4086 H 383.43 -0.757669 -5.59392 0
M  V30 4087 N 382.828 1.3818 -0.7579 0
M  V30 4088 C 384.075 2.00019 -0.315985 0
M  V30 4089 C 384.403 1.60163 1.10355 0
M  V30 4090 O 383.658 0.83264 1.77103 0
M  V30 4091 C 383.957 3.55252 -0.391218 0
M  V30 4092 C 383.623 4.14834 -1.76702 0
M  V30 4093 C 382.285 4.30821 -2.14353 0
M  V30 4094 C 384.637 4.47658 -2.66931 0
M  V30 4095 C 381.965 4.76928 -3.41696 0
M  V30 4096 C 384.317 4.95184 -3.93669 0
M  V30 4097 C 382.981 5.09377 -4.31383 0
M  V30 4098 H 382.251 0.731923 -0.115627 0
M  V30 4099 H 384.898 1.65161 -0.969223 0
M  V30 4100 H 383.203 3.90273 0.34558 0
M  V30 4101 H 384.9 4.00988 -0.030805 0
M  V30 4102 H 381.49 4.02808 -1.46435 0
M  V30 4103 H 385.674 4.34904 -2.39106 0
M  V30 4104 H 380.93 4.86103 -3.70829 0
M  V30 4105 H 385.104 5.19551 -4.63724 0
M  V30 4106 H 382.731 5.44865 -5.30119 0
M  V30 4107 N 384.306 0.507319 1.49211 0
M  V30 4108 C 385.555 -0.0368315 2.01666 0
M  V30 4109 C 385.868 -1.37459 1.39156 0
M  V30 4110 O 387.074 -2.00579 1.82976 0
M  V30 4111 C 385.53 -0.116089 3.59713 0
M  V30 4112 C 385.138 1.2154 4.31198 0
M  V30 4113 C 386.882 -0.610268 4.2009 0
M  V30 4114 C 384.789 1.09796 5.81119 0
M  V30 4115 H 383.719 -0.0175376 0.753796 0
M  V30 4116 H 386.37 0.647691 1.71689 0
M  V30 4117 H 384.752 -0.8652 3.86433 0
M  V30 4118 H 385.926 1.9783 4.16173 0
M  V30 4119 H 384.241 1.64352 3.82593 0
M  V30 4120 H 386.838 -0.715742 5.29888 0
M  V30 4121 H 387.181 -1.61064 3.8388 0
M  V30 4122 H 387.714 0.0824916 3.97714 0
M  V30 4123 H 384.453 2.0728 6.21864 0
M  V30 4124 H 383.973 0.376058 5.9862 0
M  V30 4125 H 385.652 0.779281 6.4229 0
M  V30 4126 N 385.784 -1.5574 0.241426 0
M  V30 4127 C 387.024 -2.00714 -0.38644 0
M  V30 4128 C 387.388 -1.12586 -1.55526 0
M  V30 4129 O 388.589 -1.46992 -2.25048 0
M  V30 4130 C 386.86 -3.48534 -0.791128 0
M  V30 4131 S 388.419 -4.15519 -1.41029 0
M  V30 4132 H 385.237 -0.700484 -0.121834 0
M  V30 4133 H 387.839 -1.92243 0.355377 0
M  V30 4134 H 386.543 -4.10342 0.0689225 0
M  V30 4135 H 386.074 -3.6092 -1.56526 0
M  V30 4136 H 388.089 -4.16352 -2.69936 0
M  V30 4137 N 387.262 0.0317525 -1.57568 0
M  V30 4138 C 388.511 0.722131 -1.8833 0
M  V30 4139 C 388.824 1.76664 -0.839587 0
M  V30 4140 O 390.03 2.50942 -1.03635 0
M  V30 4141 C 388.486 1.33544 -3.34207 0
M  V30 4142 C 388.094 0.327415 -4.46802 0
M  V30 4143 C 389.838 2.00585 -3.7412 0
M  V30 4144 C 387.745 0.948915 -5.83738 0
M  V30 4145 H 386.675 0.273466 -0.702661 0
M  V30 4146 H 389.326 -0.0235811 -1.83485 0
M  V30 4147 H 387.708 2.13077 -3.33788 0
M  V30 4148 H 388.882 -0.441006 -4.58685 0
M  V30 4149 H 387.197 -0.240758 -4.15703 0
M  V30 4150 H 389.794 2.47932 -4.73744 0
M  V30 4151 H 390.137 2.82285 -3.05975 0
M  V30 4152 H 390.67 1.27831 -3.76702 0
M  V30 4153 H 387.409 0.171387 -6.55276 0
M  V30 4154 H 386.929 1.68724 -5.7558 0
M  V30 4155 H 388.608 1.45705 -6.3038 0
M  V30 4156 N 388.74 1.54641 0.303973 0
M  V30 4157 C 389.988 1.73437 1.0375 0
M  V30 4158 C 390.309 0.521449 1.87899 0
M  V30 4159 O 389.579 -0.46432 1.90318 0
M  V30 4160 H 388.159 0.639518 0.386039 0
M  V30 4161 H 390.821 1.91988 0.335675 0
M  V30 4162 H 389.917 2.62235 1.69231 0
M  V30 4163 N 390.218 -0.567019 1.47046 0
M  V30 4164 C 391.464 -1.32434 1.54379 0
M  V30 4165 C 391.819 -1.91365 0.199276 0
M  V30 4166 O 391.112 -1.74378 -0.793915 0
M  V30 4167 C 391.306 -2.4623 2.59047 0
M  V30 4168 C 391.135 -1.98448 4.03545 0
M  V30 4169 C 389.905 -1.82741 4.71098 0
M  V30 4170 C 392.103 -1.53477 4.90866 0
M  V30 4171 N 390.085 -1.29196 6.00151 0
M  V30 4172 C 391.456 -1.1163 6.09868 0
M  V30 4173 C 393.511 -1.41438 4.77388 0
M  V30 4174 C 392.214 -0.589425 7.16881 0
M  V30 4175 C 394.24 -0.901528 5.84488 0
M  V30 4176 C 393.602 -0.492932 7.02673 0
M  V30 4177 H 389.701 -0.477005 0.61967 0
M  V30 4178 H 392.285 -0.643856 1.83746 0
M  V30 4179 H 390.456 -3.11821 2.31564 0
M  V30 4180 H 392.188 -3.13213 2.56281 0
M  V30 4181 H 388.943 -2.05162 4.26855 0
M  V30 4182 H 389.367 -1.0454 6.6888 0
M  V30 4183 H 394.009 -1.71643 3.86392 0
M  V30 4184 H 391.727 -0.274994 8.07632 0
M  V30 4185 H 395.313 -0.812071 5.76105 0
M  V30 4186 H 394.193 -0.102227 7.84133 0
M  V30 4187 N 391.696 -1.35014 -0.812953 0
M  V30 4188 C 392.944 -1.27678 -1.56661 0
M  V30 4189 C 393.265 0.150359 -1.94419 0
M  V30 4190 O 392.535 1.08532 -1.63088 0
M  V30 4191 H 391.115 -0.469602 -0.580933 0
M  V30 4192 H 393.777 -1.69043 -0.970076 0
M  V30 4193 H 392.873 -1.88833 -2.48492 0
M  V30 4194 N 393.175 1.03435 -1.18907 0
M  V30 4195 C 394.421 1.77005 -0.989798 0
M  V30 4196 C 394.754 1.88205 0.478816 0
M  V30 4197 O 394.029 1.39481 1.35556 0
M  V30 4198 C 394.312 3.19925 -1.65287 0
M  V30 4199 C 394.165 3.1663 -3.19477 0
M  V30 4200 C 395.484 4.18189 -1.37134 0
M  V30 4201 H 392.603 0.642538 -0.360991 0
M  V30 4202 H 395.245 1.20784 -1.46667 0
M  V30 4203 H 393.395 3.67929 -1.24741 0
M  V30 4204 H 395.067 2.76567 -3.692 0
M  V30 4205 H 393.31 2.54491 -3.51307 0
M  V30 4206 H 393.981 4.1758 -3.61013 0
M  V30 4207 H 396.457 3.78761 -1.72276 0
M  V30 4208 H 395.333 5.16394 -1.86087 0
M  V30 4209 H 395.594 4.41112 -0.295424 0
M  V30 4210 N 394.653 0.992116 1.22453 0
M  V30 4211 C 396.064 0.702776 1.72968 0
M  V30 4212 C 396.415 -0.780399 1.80012 0
M  V30 4213 O 395.54 -1.61007 1.44589 0
M  V30 4214 C 396.135 1.26903 3.14135 0
M  V30 4215 C 394.694 1.02909 3.62059 0
M  V30 4216 C 393.841 1.38969 2.39964 0
M  V30 4217 H 396.792 1.16457 1.07812 0
M  V30 4218 H 396.813 0.647223 3.74955 0
M  V30 4219 H 396.325 2.34851 3.08977 0
M  V30 4220 H 394.426 -0.0337979 3.72585 0
M  V30 4221 H 394.539 1.69191 4.48231 0
M  V30 4222 H 392.903 0.808279 2.41535 0
M  V30 4223 H 393.686 2.4792 2.37467 0
M  V30 4224 N 396.131 -1.37776 0.765217 0
M  V30 4225 C 397.378 -1.99849 0.326588 0
M  V30 4226 C 397.706 -1.60746 -1.09504 0
M  V30 4227 O 396.961 -0.84202 -1.76659 0
M  V30 4228 C 397.26 -3.5504 0.410053 0
M  V30 4229 C 396.926 -4.13891 1.78899 0
M  V30 4230 C 395.588 -4.29678 2.16635 0
M  V30 4231 C 397.94 -4.46236 2.69301 0
M  V30 4232 C 395.268 -4.7511 3.44221 0
M  V30 4233 C 397.62 -4.93089 3.9629 0
M  V30 4234 C 396.284 -5.07082 4.34078 0
M  V30 4235 H 395.554 -0.7313 0.119507 0
M  V30 4236 H 398.201 -1.64645 0.977968 0
M  V30 4237 H 396.506 -3.90451 -0.324878 0
M  V30 4238 H 398.203 -4.00966 0.0520699 0
M  V30 4239 H 394.793 -4.02026 1.48569 0
M  V30 4240 H 398.977 -4.3363 2.41409 0
M  V30 4241 H 394.233 -4.84129 3.73402 0
M  V30 4242 H 398.407 -5.17084 4.66472 0
M  V30 4243 H 396.034 -5.42046 5.33001 0
M  V30 4244 N 397.609 -0.515225 -1.4894 0
M  V30 4245 C 399.02 -0.0710067 -1.86565 0
M  V30 4246 C 399.371 1.34733 -1.42623 0
M  V30 4247 O 398.496 2.00653 -0.810379 0
M  V30 4248 C 399.091 -0.122083 -3.3858 0
M  V30 4249 C 397.65 0.266863 -3.75453 0
M  V30 4250 C 396.797 -0.488376 -2.72966 0
M  V30 4251 H 399.748 -0.727266 -1.41055 0
M  V30 4252 H 399.769 0.669818 -3.74558 0
M  V30 4253 H 399.281 -1.15448 -3.70531 0
M  V30 4254 H 397.382 1.30196 -3.49113 0
M  V30 4255 H 397.495 -0.0624811 -4.79059 0
M  V30 4256 H 395.859 0.0635622 -2.54621 0
M  V30 4257 H 396.642 -1.52113 -3.07761 0
M  V30 4258 N 399.087 1.5561 -0.249682 0
M  V30 4259 C 400.336 1.98187 0.37479 0
M  V30 4260 C 400.649 1.14111 1.58865 0
M  V30 4261 O 401.855 1.46714 2.28445 0
M  V30 4262 C 400.311 3.52661 0.718192 0
M  V30 4263 C 399.919 4.45481 -0.474428 0
M  V30 4264 C 401.663 4.03888 1.3067 0
M  V30 4265 C 399.57 5.91303 -0.107026 0
M  V30 4266 H 398.5 0.740159 0.143808 0
M  V30 4267 H 401.151 1.80125 -0.350336 0
M  V30 4268 H 399.533 3.66429 1.50152 0
M  V30 4269 H 400.707 4.43473 -1.25172 0
M  V30 4270 H 399.022 4.04751 -0.978052 0
M  V30 4271 H 401.619 5.10358 1.59496 0
M  V30 4272 H 401.962 3.51401 2.23211 0
M  V30 4273 H 402.495 3.93457 0.586211 0
M  V30 4274 H 399.234 6.47833 -0.999642 0
M  V30 4275 H 398.754 5.9644 0.634013 0
M  V30 4276 H 400.433 6.46258 0.309807 0
M  V30 4277 N 400.565 -0.0233959 1.57583 0
M  V30 4278 C 401.814 -0.712133 1.8871 0
M  V30 4279 C 402.127 -1.76217 0.848944 0
M  V30 4280 O 403.333 -2.50389 1.04964 0
M  V30 4281 C 401.789 -1.3177 3.3491 0
M  V30 4282 C 401.397 -0.303715 4.46969 0
M  V30 4283 C 403.141 -1.98598 3.75179 0
M  V30 4284 C 401.048 -0.917945 5.84233 0
M  V30 4285 H 399.978 -0.269735 0.704101 0
M  V30 4286 H 402.629 0.0333114 1.8347 0
M  V30 4287 H 401.011 -2.11304 3.34913 0
M  V30 4288 H 402.185 0.465325 4.58445 0
M  V30 4289 H 400.5 0.2628 4.1557 0
M  V30 4290 H 403.097 -2.45416 4.75053 0
M  V30 4291 H 403.44 -2.80659 3.07468 0
M  V30 4292 H 403.973 -1.25831 3.77374 0
M  V30 4293 H 400.712 -0.136633 6.55358 0
M  V30 4294 H 400.232 -1.65669 5.76467 0
M  V30 4295 H 401.911 -1.4236 6.31144 0
M  V30 4296 N 402.043 -1.548 -0.295768 0
M  V30 4297 C 403.289 -1.74588 -1.03184 0
M  V30 4298 C 403.622 -0.532962 -1.86744 0
M  V30 4299 O 402.897 0.469872 -1.88739 0
M  V30 4300 C 403.18 -3.03791 -1.93347 0
M  V30 4301 C 403.033 -4.35392 -1.12933 0
M  V30 4302 C 404.352 -3.28892 -2.92435 0
M  V30 4303 H 401.471 -0.635221 -0.373715 0
M  V30 4304 H 404.113 -1.87519 -0.30606 0
M  V30 4305 H 402.263 -2.92898 -2.55232 0
M  V30 4306 H 403.935 -4.58211 -0.532943 0
M  V30 4307 H 402.178 -4.31642 -0.432168 0
M  V30 4308 H 402.849 -5.22074 -1.79284 0
M  V30 4309 H 405.325 -3.39429 -2.4068 0
M  V30 4310 H 404.201 -4.20603 -3.52682 0
M  V30 4311 H 404.462 -2.47437 -3.6637 0
M  V30 4312 N 403.521 0.559213 -1.47345 0
M  V30 4313 C 404.484 1.64854 -1.59235 0
M  V30 4314 C 405.484 1.53851 -0.467607 0
M  V30 4315 O 406.674 1.58045 -0.732617 0
M  V30 4316 C 403.806 3.04388 -1.53496 0
M  V30 4317 H 404.999 1.55662 -2.56339 0
M  V30 4318 H 402.552 0.778973 -1.35505 0
M  V30 4319 H 403.287 3.19115 -0.577604 0
M  V30 4320 H 403.072 3.13783 -2.35123 0
M  V30 4321 H 404.562 3.83642 -1.6495 0
M  V30 4322 N 404.999 1.35443 0.805782 0
M  V30 4323 C 406.245 1.2996 1.56467 0
M  V30 4324 C 406.6 -0.124742 1.91995 0
M  V30 4325 O 405.893 -1.07533 1.58579 0
M  V30 4326 C 406.087 2.14045 2.86216 0
M  V30 4327 C 405.916 3.64512 2.63365 0
M  V30 4328 C 404.686 4.33744 2.59219 0
M  V30 4329 C 406.884 4.58142 2.33688 0
M  V30 4330 N 404.866 5.69953 2.28094 0
M  V30 4331 C 406.237 5.8248 2.12408 0
M  V30 4332 C 408.292 4.46877 2.19558 0
M  V30 4333 C 406.995 6.96818 1.78429 0
M  V30 4334 C 409.021 5.61065 1.86976 0
M  V30 4335 C 408.383 6.84431 1.66532 0
M  V30 4336 H 404.482 0.530817 0.574245 0
M  V30 4337 H 407.066 1.70333 0.943126 0
M  V30 4338 H 405.237 1.75942 3.46264 0
M  V30 4339 H 406.969 2.00075 3.51784 0
M  V30 4340 H 403.724 3.86365 2.73896 0
M  V30 4341 H 404.148 6.41845 2.15323 0
M  V30 4342 H 408.79 3.52102 2.34061 0
M  V30 4343 H 406.508 7.91559 1.62664 0
M  V30 4344 H 410.094 5.54302 1.7675 0
M  V30 4345 H 408.974 7.71294 1.41688 0
M  V30 4346 N 406.477 -1.02803 1.19454 0
M  V30 4347 C 407.44 -2.09264 0.934955 0
M  V30 4348 C 408.44 -1.60576 -0.0849015 0
M  V30 4349 O 409.63 -1.73554 0.149933 0
M  V30 4350 C 406.762 -3.38482 0.40531 0
M  V30 4351 H 407.955 -2.33726 1.87916 0
M  V30 4352 H 405.508 -1.19426 1.00832 0
M  V30 4353 H 406.243 -3.19689 -0.544899 0
M  V30 4354 H 406.028 -3.75142 1.14065 0
M  V30 4355 H 407.518 -4.16894 0.242806 0
M  V30 4356 N 407.956 -0.998596 -1.21925 0
M  V30 4357 C 409.205 -0.673085 -1.90138 0
M  V30 4358 C 409.518 0.79895 -1.78539 0
M  V30 4359 O 410.724 1.23628 -2.4172 0
M  V30 4360 C 409.18 -1.15339 -3.40918 0
M  V30 4361 C 408.788 -2.65106 -3.61141 0
M  V30 4362 C 410.532 -0.902476 -4.14796 0
M  V30 4363 C 408.439 -3.0671 -5.05651 0
M  V30 4364 H 407.369 -0.248057 -0.712028 0
M  V30 4365 H 410.02 -1.20891 -1.38049 0
M  V30 4366 H 408.402 -0.545658 -3.92223 0
M  V30 4367 H 409.576 -3.31274 -3.20304 0
M  V30 4368 H 407.891 -2.88142 -3.00605 0
M  V30 4369 H 410.488 -1.18895 -5.21314 0
M  V30 4370 H 410.831 0.161349 -4.15987 0
M  V30 4371 H 411.364 -1.47269 -3.69536 0
M  V30 4372 H 408.103 -4.12292 -5.09603 0
M  V30 4373 H 407.623 -2.45249 -5.47369 0
M  V30 4374 H 409.302 -2.9833 -5.74115 0
M  V30 4375 N 409.434 1.37368 -0.772513 0
M  V30 4376 C 410.682 1.99279 -0.336516 0
M  V30 4377 C 411.003 1.6163 1.09091 0
M  V30 4378 O 410.273 0.882109 1.74916 0
M  V30 4379 H 408.853 0.737063 -0.121435 0
M  V30 4380 H 411.515 1.67836 -0.990809 0
M  V30 4381 H 410.611 3.09332 -0.414763 0
M  V30 4382 N 410.912 0.523116 1.48665 0
M  V30 4383 C 411.859 -0.243398 2.29513 0
M  V30 4384 C 412.829 -0.940139 1.36933 0
M  V30 4385 O 414.014 -0.942503 1.65896 0
M  V30 4386 C 411.154 -1.28855 3.20141 0
M  V30 4387 C 410.267 -0.60135 4.27794 0
M  V30 4388 C 409.402 -1.62884 5.05611 0
M  V30 4389 C 408.441 -0.924726 6.05075 0
M  V30 4390 N 407.578 -1.89744 6.75975 0
M  V30 4391 H 412.418 0.452234 2.94549 0
M  V30 4392 H 409.955 0.234858 1.45213 0
M  V30 4393 H 411.913 -1.90674 3.71079 0
M  V30 4394 H 410.543 -1.95266 2.57043 0
M  V30 4395 H 409.595 0.130623 3.80176 0
M  V30 4396 H 410.907 -0.0481585 4.98777 0
M  V30 4397 H 410.061 -2.32149 5.60528 0
M  V30 4398 H 408.8 -2.21592 4.34452 0
M  V30 4399 H 407.805 -0.217966 5.49368 0
M  V30 4400 H 409.03 -0.343851 6.78229 0
M  V30 4401 H 406.976 -2.47373 6.07571 0
M  V30 4402 H 406.893 -1.3955 7.43009 0
M  V30 4403 H 408.161 -2.58229 7.35485 0
M  V30 4404 N 412.39 -1.55475 0.257931 0
M  V30 4405 C 413.32 -2.24815 -0.630912 0
M  V30 4406 C 414.301 -1.23224 -1.17259 0
M  V30 4407 O 415.486 -1.51904 -1.20991 0
M  V30 4408 C 412.616 -2.95609 -1.82298 0
M  V30 4409 C 411.57 -4.03982 -1.41359 0
M  V30 4410 C 410.896 -4.6226 -2.68738 0
M  V30 4411 C 412.196 -5.19109 -0.57648 0
M  V30 4412 H 413.89 -2.99354 -0.0526878 0
M  V30 4413 H 411.436 -1.4398 -0.023901 0
M  V30 4414 H 413.389 -3.42822 -2.45054 0
M  V30 4415 H 412.113 -2.18577 -2.42676 0
M  V30 4416 H 410.772 -3.57555 -0.809324 0
M  V30 4417 H 410.42 -3.81915 -3.27338 0
M  V30 4418 H 410.12 -5.35424 -2.42065 0
M  V30 4419 H 411.644 -5.12212 -3.32372 0
M  V30 4420 H 413.058 -5.62479 -1.10861 0
M  V30 4421 H 411.455 -5.98729 -0.405351 0
M  V30 4422 H 412.525 -4.83174 0.408776 0
M  V30 4423 N 413.868 0.0150385 -1.57593 0
M  V30 4424 C 415.098 0.713359 -1.93894 0
M  V30 4425 C 415.506 1.68663 -0.857289 0
M  V30 4426 O 414.849 1.82876 0.173788 0
M  V30 4427 C 414.911 1.51348 -3.26089 0
M  V30 4428 C 414.575 0.703451 -4.51554 0
M  V30 4429 C 415.572 -0.00237924 -5.199 0
M  V30 4430 C 413.257 0.653854 -4.98026 0
M  V30 4431 C 415.251 -0.746955 -6.33008 0
M  V30 4432 C 412.938 -0.0944578 -6.11027 0
M  V30 4433 C 413.936 -0.793609 -6.78374 0
M  V30 4434 O 413.624 -1.52974 -7.89211 0
M  V30 4435 H 413.356 0.204637 -0.644282 0
M  V30 4436 H 415.91 -0.0276411 -2.05381 0
M  V30 4437 H 414.14 2.29862 -3.10967 0
M  V30 4438 H 415.829 2.09572 -3.47612 0
M  V30 4439 H 416.595 0.0268803 -4.84993 0
M  V30 4440 H 412.474 1.18756 -4.45441 0
M  V30 4441 H 416.018 -1.2932 -6.85509 0
M  V30 4442 H 411.915 -0.125591 -6.45378 0
M  V30 4443 H 412.683 -1.44488 -8.05646 0
M  V30 4444 N 415.346 1.54954 0.287554 0
M  V30 4445 C 416.576 1.78622 1.03816 0
M  V30 4446 C 416.984 0.552451 1.80955 0
M  V30 4447 O 416.327 -0.487665 1.77109 0
M  V30 4448 C 416.389 2.94975 2.055 0
M  V30 4449 C 416.053 4.32565 1.47433 0
M  V30 4450 C 417.05 5.12096 0.897436 0
M  V30 4451 C 414.735 4.79195 1.50591 0
M  V30 4452 C 416.729 6.36383 0.359851 0
M  V30 4453 C 414.416 6.03441 0.964459 0
M  V30 4454 C 415.414 6.81872 0.392413 0
M  V30 4455 O 415.102 8.03777 -0.140788 0
M  V30 4456 H 414.834 0.599144 0.313053 0
M  V30 4457 H 417.388 2.02761 0.328225 0
M  V30 4458 H 415.618 2.66493 2.80211 0
M  V30 4459 H 417.307 3.06097 2.6657 0
M  V30 4460 H 418.073 4.77209 0.865841 0
M  V30 4461 H 413.952 4.18167 1.94055 0
M  V30 4462 H 417.496 6.97545 -0.0872951 0
M  V30 4463 H 413.393 6.37813 0.993246 0
M  V30 4464 H 414.161 8.18495 -0.0287617 0
M  V30 4465 N 416.824 -0.551391 1.4764 0
M  V30 4466 C 418.101 -1.31229 1.45046 0
M  V30 4467 C 418.481 -2.10563 0.150527 0
M  V30 4468 O 417.829 -2.11374 -0.867956 0
M  V30 4469 C 418.039 -2.21189 2.69956 0
M  V30 4470 C 419.387 -2.82021 3.1741 0
M  V30 4471 O 420.411 -2.31488 2.70724 0
M  V30 4472 O 419.27 -3.73885 3.98588 0
M  V30 4473 H 416.364 -0.591193 0.578291 0
M  V30 4474 H 418.91 -0.569813 1.59847 0
M  V30 4475 H 417.682 -1.62207 3.56096 0
M  V30 4476 H 417.305 -3.02722 2.57769 0
M  V30 4477 N 418.302 -1.35869 -0.798587 0
M  V30 4478 C 419.25 -1.29491 -1.93222 0
M  V30 4479 C 420.244 -0.18836 -1.6835 0
M  V30 4480 O 421.45 -0.354822 -1.76468 0
M  V30 4481 H 417.825 -0.402901 -0.63496 0
M  V30 4482 H 419.796 -2.25247 -1.9572 0
M  V30 4483 C 418.545 -1.09184 -3.30112 0
M  V30 4484 H 417.868 -1.93574 -3.49813 0
M  V30 4485 H 419.308 -1.08766 -4.09812 0
M  V30 4486 C 417.767 0.203959 -3.36282 0
M  V30 4487 O 418.297 1.19699 -3.83451 0
M  V30 4488 N 416.503 0.245488 -2.89561 0
M  V30 4489 H 416.05 -0.563223 -2.51367 0
M  V30 4490 H 416.008 1.11219 -2.94071 0
M  V30 4491 N 419.78 1.02168 -1.19998 0
M  V30 4492 C 420.69 2.14069 -0.959774 0
M  V30 4493 C 421.706 1.73804 0.082655 0
M  V30 4494 O 422.882 2.01133 -0.103633 0
M  V30 4495 C 419.947 3.42936 -0.509459 0
M  V30 4496 C 419.008 3.97474 -1.62213 0
M  V30 4497 C 418.241 5.2019 -1.19321 0
M  V30 4498 O 418.464 5.70369 -0.0597726 0
M  V30 4499 O 417.398 5.67749 -1.99863 0
M  V30 4500 H 421.224 2.37199 -1.89658 0
M  V30 4501 H 418.809 1.12469 -0.983411 0
M  V30 4502 H 420.691 4.20551 -0.267322 0
M  V30 4503 H 419.366 3.21234 0.398821 0
M  V30 4504 H 418.273 3.21161 -1.9185 0
M  V30 4505 H 419.606 4.23555 -2.50723 0
M  V30 4506 N 421.258 1.00505 1.21394 0
M  V30 4507 C 422.205 0.565496 2.23765 0
M  V30 4508 C 423.175 -0.408466 1.60999 0
M  V30 4509 O 424.36 -0.310503 1.88257 0
M  V30 4510 C 421.5 -0.101667 3.4495 0
M  V30 4511 C 420.613 0.915479 4.22188 0
M  V30 4512 C 419.748 0.220574 5.30742 0
M  V30 4513 C 418.787 1.22527 5.99711 0
M  V30 4514 N 417.924 0.557831 6.9988 0
M  V30 4515 H 422.764 1.44314 2.60725 0
M  V30 4516 H 420.301 0.722643 1.28126 0
M  V30 4517 H 422.259 -0.505504 4.14126 0
M  V30 4518 H 420.889 -0.94303 3.08718 0
M  V30 4519 H 419.941 1.43756 3.52191 0
M  V30 4520 H 421.253 1.68005 4.69655 0
M  V30 4521 H 420.407 -0.239368 6.06228 0
M  V30 4522 H 419.146 -0.576401 4.84282 0
M  V30 4523 H 418.151 1.69571 5.22997 0
M  V30 4524 H 419.376 2.02332 6.48258 0
M  V30 4525 H 417.322 -0.219486 6.55633 0
M  V30 4526 H 417.239 1.26065 7.45415 0
M  V30 4527 H 418.507 0.121095 7.79406 0
M  V30 4528 N 422.737 -1.36956 0.779787 0
M  V30 4529 C 423.977 -2.01328 0.353043 0
M  V30 4530 C 424.341 -1.60558 -1.05286 0
M  V30 4531 O 425.542 -2.1745 -1.58016 0
M  V30 4532 C 423.813 -3.53874 0.500822 0
M  V30 4533 S 425.372 -4.38506 0.16053 0
M  V30 4534 H 422.19 -0.69799 0.13539 0
M  V30 4535 H 424.792 -1.67016 1.01617 0
M  V30 4536 H 423.496 -3.81034 1.52451 0
M  V30 4537 H 423.027 -3.92994 -0.178574 0
M  V30 4538 H 425.042 -4.85153 -1.04121 0
M  V30 4539 N 424.215 -0.530993 -1.48385 0
M  V30 4540 C 425.461 -0.00538653 -2.03399 0
M  V30 4541 C 425.816 1.31899 -1.40073 0
M  V30 4542 O 425.109 1.83901 -0.537676 0
M  V30 4543 C 425.303 0.172742 -3.56982 0
M  V30 4544 C 425.132 -1.13282 -4.35198 0
M  V30 4545 C 423.902 -1.69296 -4.76096 0
M  V30 4546 C 426.1 -2.04367 -4.71952 0
M  V30 4547 N 424.082 -2.9413 -5.38851 0
M  V30 4548 C 425.453 -3.13777 -5.34737 0
M  V30 4549 C 427.508 -2.04681 -4.53883 0
M  V30 4550 C 426.211 -4.23567 -5.81363 0
M  V30 4551 C 428.237 -3.13466 -5.01491 0
M  V30 4552 C 427.599 -4.21595 -5.64302 0
M  V30 4553 H 423.698 -0.0434945 -0.780789 0
M  V30 4554 H 426.282 -0.712495 -1.81195 0
M  V30 4555 H 424.453 0.848937 -3.79009 0
M  V30 4556 H 426.185 0.698046 -3.98634 0
M  V30 4557 H 422.94 -1.23422 -4.57235 0
M  V30 4558 H 423.364 -3.57689 -5.74794 0
M  V30 4559 H 428.006 -1.22378 -4.04702 0
M  V30 4560 H 425.724 -5.06648 -6.2955 0
M  V30 4561 H 429.31 -3.14765 -4.893 0
M  V30 4562 H 428.19 -5.04384 -6.00472 0
M  V30 4563 N 425.693 1.55336 -0.266172 0
M  V30 4564 C 426.94 1.99397 0.353158 0
M  V30 4565 C 427.268 1.15451 1.56529 0
M  V30 4566 O 426.523 0.209974 1.9457 0
M  V30 4567 C 426.822 3.48606 0.787957 0
M  V30 4568 C 426.488 4.49773 -0.318541 0
M  V30 4569 C 425.15 4.77158 -0.62239 0
M  V30 4570 C 427.502 5.10212 -1.06459 0
M  V30 4571 C 424.83 5.62251 -1.67602 0
M  V30 4572 C 427.182 5.96449 -2.10788 0
M  V30 4573 C 425.846 6.22158 -2.41817 0
M  V30 4574 H 425.116 0.729644 0.12923 0
M  V30 4575 H 427.763 1.87732 -0.37802 0
M  V30 4576 H 426.068 3.57701 1.59866 0
M  V30 4577 H 427.765 3.80098 1.27775 0
M  V30 4578 H 424.355 4.2854 -0.0715925 0
M  V30 4579 H 428.539 4.89086 -0.843098 0
M  V30 4580 H 423.795 5.80419 -1.92155 0
M  V30 4581 H 427.969 6.42317 -2.69076 0
M  V30 4582 H 425.596 6.87888 -3.23596 0
M  V30 4583 N 427.171 -0.0066808 1.57599 0
M  V30 4584 C 428.419 -0.691552 1.899 0
M  V30 4585 C 428.74 -1.74682 0.866672 0
M  V30 4586 O 428.01 -1.95661 -0.0968189 0
M  V30 4587 H 426.59 -0.258416 0.700878 0
M  V30 4588 H 429.252 0.0326655 1.94873 0
M  V30 4589 H 428.348 -1.16702 2.8946 0
M  V30 4590 N 428.649 -1.55105 -0.279332 0
M  V30 4591 C 429.596 -1.8755 -1.34513 0
M  V30 4592 C 430.566 -0.726384 -1.49375 0
M  V30 4593 O 431.751 -0.977063 -1.63884 0
M  V30 4594 C 428.891 -2.14738 -2.70151 0
M  V30 4595 C 428.004 -3.42285 -2.63562 0
M  V30 4596 C 427.139 -3.59206 -3.91337 0
M  V30 4597 C 426.178 -4.80467 -3.79233 0
M  V30 4598 N 425.315 -4.94079 -4.98829 0
M  V30 4599 H 430.155 -2.78456 -1.06143 0
M  V30 4600 H 427.692 -1.37867 -0.512936 0
M  V30 4601 H 429.65 -2.28501 -3.49061 0
M  V30 4602 H 428.28 -1.27075 -2.96735 0
M  V30 4603 H 427.332 -3.37029 -1.76397 0
M  V30 4604 H 428.644 -4.31328 -2.50515 0
M  V30 4605 H 427.798 -3.72751 -4.78687 0
M  V30 4606 H 426.537 -2.68337 -4.07243 0
M  V30 4607 H 425.542 -4.66932 -2.90266 0
M  V30 4608 H 426.767 -5.72765 -3.64852 0
M  V30 4609 H 424.713 -4.06139 -5.15158 0
M  V30 4610 H 424.63 -5.77156 -4.8829 0
M  V30 4611 H 425.898 -5.12003 -5.8777 0
M  V30 4612 N 430.127 0.543554 -1.4793 0
M  V30 4613 C 431.543 0.870806 -1.3375 0
M  V30 4614 C 431.743 1.9864 -0.338261 0
M  V30 4615 O 430.799 2.51305 0.245371 0
M  V30 4616 C 432.112 1.25114 -2.73435 0
M  V30 4617 C 433.66 1.3618 -2.81823 0
M  V30 4618 C 434.135 1.77563 -4.22179 0
M  V30 4619 N 435.626 1.8469 -4.24787 0
M  V30 4620 C 436.361 2.18067 -5.30315 0
M  V30 4621 N 435.857 2.49963 -6.46135 0
M  V30 4622 N 437.65 2.18958 -5.17701 0
M  V30 4623 H 429.801 -0.19275 -2.11524 0
M  V30 4624 H 432.064 -0.0235777 -0.947707 0
M  V30 4625 H 431.77 0.50514 -3.48053 0
M  V30 4626 H 431.644 2.20431 -3.06088 0
M  V30 4627 H 434.031 2.09859 -2.07468 0
M  V30 4628 H 434.112 0.390169 -2.52807 0
M  V30 4629 H 433.756 1.04449 -4.97044 0
M  V30 4630 H 433.686 2.75753 -4.48629 0
M  V30 4631 H 436.177 1.62372 -3.41239 0
M  V30 4632 H 436.49 2.74497 -7.22406 0
M  V30 4633 H 434.835 2.47513 -6.49432 0
M  V30 4634 H 438.026 1.93488 -4.2624 0
M  V30 4635 H 438.199 2.44639 -6.00047 0
M  V30 4636 N 431.605 1.3629 0.791371 0
M  V30 4637 C 433.016 1.27225 1.36641 0
M  V30 4638 C 433.367 -0.0887968 1.95999 0
M  V30 4639 O 432.492 -0.990207 1.92416 0
M  V30 4640 C 433.087 2.30375 2.48421 0
M  V30 4641 C 431.646 2.25004 3.01746 0
M  V30 4642 C 430.793 2.15259 1.7481 0
M  V30 4643 H 433.744 1.47198 0.593173 0
M  V30 4644 H 433.765 1.93905 3.27385 0
M  V30 4645 H 433.277 3.29422 2.05189 0
M  V30 4646 H 431.378 1.29417 3.49403 0
M  V30 4647 H 431.491 3.1761 3.58693 0
M  V30 4648 H 429.855 1.61482 1.96966 0
M  V30 4649 H 430.638 3.16191 1.33709 0
M  V30 4650 N 433.083 -1.0153 1.20538 0
M  V30 4651 C 434.331 -1.74803 1.01432 0
M  V30 4652 C 434.652 -1.8963 -0.454456 0
M  V30 4653 O 433.922 -1.43975 -1.32846 0
M  V30 4654 H 432.502 -0.647598 0.372324 0
M  V30 4655 H 435.164 -1.22402 1.5167 0
M  V30 4656 H 434.26 -2.75114 1.47373 0
M  V30 4657 N 434.561 -1.01147 -1.20859 0
M  V30 4658 C 435.807 -0.698899 -1.90377 0
M  V30 4659 C 436.14 0.76904 -1.78324 0
M  V30 4660 O 435.415 1.55817 -1.16409 0
M  V30 4661 C 435.698 -1.12878 -3.41951 0
M  V30 4662 C 435.551 -2.65665 -3.62963 0
M  V30 4663 C 436.87 -0.696114 -4.3456 0
M  V30 4664 H 433.989 -0.255372 -0.691342 0
M  V30 4665 H 436.631 -1.25831 -1.42361 0
M  V30 4666 H 434.781 -0.652827 -3.82976 0
M  V30 4667 H 436.453 -3.21074 -3.31224 0
M  V30 4668 H 434.696 -3.06878 -3.06608 0
M  V30 4669 H 435.367 -2.90797 -4.69192 0
M  V30 4670 H 437.843 -1.10521 -4.01154 0
M  V30 4671 H 436.719 -1.025 -5.39245 0
M  V30 4672 H 436.98 0.402465 -4.40264 0
M  V30 4673 N 436.039 1.36541 -0.78704 0
M  V30 4674 C 437.269 2.03266 -0.369662 0
M  V30 4675 C 437.677 1.59481 1.01796 0
M  V30 4676 O 437.02 0.778612 1.66383 0
M  V30 4677 C 437.082 3.57779 -0.351371 0
M  V30 4678 C 436.746 4.24756 -1.68617 0
M  V30 4679 C 437.743 4.47811 -2.64124 0
M  V30 4680 C 435.428 4.62277 -1.96481 0
M  V30 4681 C 437.422 5.07464 -3.85693 0
M  V30 4682 C 435.109 5.21649 -3.18317 0
M  V30 4683 C 436.107 5.44182 -4.12741 0
M  V30 4684 O 435.795 6.02307 -5.32429 0
M  V30 4685 H 435.527 0.658977 -0.150751 0
M  V30 4686 H 438.081 1.75548 -1.0664 0
M  V30 4687 H 436.311 3.84606 0.401847 0
M  V30 4688 H 438 4.05879 0.0410147 0
M  V30 4689 H 438.766 4.19221 -2.43883 0
M  V30 4690 H 434.645 4.44065 -1.23805 0
M  V30 4691 H 438.189 5.24968 -4.59407 0
M  V30 4692 H 434.086 5.49664 -3.38437 0
M  V30 4693 H 434.854 6.20775 -5.33461 0
M  V30 4694 N 437.518 0.538854 1.48102 0
M  V30 4695 C 438.746 0.0123136 2.06896 0
M  V30 4696 C 439.161 -1.27312 1.39417 0
M  V30 4697 O 438.518 -1.75949 0.484582 0
M  V30 4698 C 438.569 -0.206118 3.60912 0
M  V30 4699 O 438.29 1.0284 4.25859 0
M  V30 4700 C 439.791 -0.772033 4.36526 0
M  V30 4701 H 437.011 0.0375239 0.66995 0
M  V30 4702 H 439.555 0.747032 1.90367 0
M  V30 4703 H 437.71 -0.89091 3.77017 0
M  V30 4704 H 438.124 0.814654 5.18135 0
M  V30 4705 H 439.598 -0.874251 5.45033 0
M  V30 4706 H 440.075 -1.77904 4.01555 0
M  V30 4707 H 440.681 -0.123526 4.25121 0
M  V30 4708 N 438.996 -1.55193 0.274407 0
M  V30 4709 C 440.273 -1.91584 -0.394331 0
M  V30 4710 C 440.653 -1.19858 -1.73774 0
M  V30 4711 O 440.001 -0.3252 -2.26174 0
M  V30 4712 C 440.211 -3.4487 -0.535311 0
M  V30 4713 C 441.559 -4.16636 -0.818534 0
M  V30 4714 O 442.583 -3.5076 -0.620146 0
M  V30 4715 O 441.442 -5.33209 -1.19792 0
M  V30 4716 H 438.536 -0.798349 -0.215794 0
M  V30 4717 H 441.082 -1.66646 0.320507 0
M  V30 4718 H 439.854 -3.89145 0.410141 0
M  V30 4719 H 439.477 -3.75759 -1.29964 0
M  V30 4720 N 440.474 -0.00167713 -1.576 0
M  V30 4721 C 441.704 0.692754 -1.94639 0
M  V30 4722 C 442.112 1.67744 -0.87513 0
M  V30 4723 O 441.455 1.8305 0.154382 0
M  V30 4724 C 441.517 1.47881 -3.27676 0
M  V30 4725 C 441.181 0.655518 -4.52274 0
M  V30 4726 C 442.178 -0.0575214 -5.19868 0
M  V30 4727 C 439.863 0.600994 -4.98692 0
M  V30 4728 C 441.857 -0.814052 -6.3218 0
M  V30 4729 C 439.544 -0.15926 -6.10892 0
M  V30 4730 C 440.542 -0.865515 -6.77494 0
M  V30 4731 O 440.23 -1.61336 -7.87544 0
M  V30 4732 H 439.962 0.197792 -0.646417 0
M  V30 4733 H 442.516 -0.049423 -2.05341 0
M  V30 4734 H 440.746 2.2655 -3.13388 0
M  V30 4735 H 442.435 2.05874 -3.49816 0
M  V30 4736 H 443.201 -0.0245611 -4.84994 0
M  V30 4737 H 439.08 1.14025 -4.46676 0
M  V30 4738 H 442.624 -1.36584 -6.84098 0
M  V30 4739 H 438.521 -0.194035 -6.45208 0
M  V30 4740 H 439.289 -1.53025 -8.04068 0
M  V30 4741 N 441.952 1.55251 0.271103 0
M  V30 4742 C 443.201 1.75151 1.00025 0
M  V30 4743 C 443.514 0.561041 1.87381 0
M  V30 4744 O 444.72 0.642506 2.63788 0
M  V30 4745 C 443.176 3.09999 1.82835 0
M  V30 4746 C 442.784 4.3662 1.00336 0
M  V30 4747 C 444.528 3.39249 2.55168 0
M  V30 4748 C 442.435 5.62506 1.82595 0
M  V30 4749 H 441.365 0.652877 0.377183 0
M  V30 4750 H 444.016 1.81708 0.255843 0
M  V30 4751 H 442.398 2.97485 2.61378 0
M  V30 4752 H 443.572 4.60055 0.261959 0
M  V30 4753 H 441.887 4.14527 0.394486 0
M  V30 4754 H 444.484 4.3051 3.1712 0
M  V30 4755 H 444.827 2.59467 3.2555 0
M  V30 4756 H 445.36 3.52869 1.83653 0
M  V30 4757 H 442.099 6.45041 1.16631 0
M  V30 4758 H 441.619 5.43211 2.54327 0
M  V30 4759 H 443.298 6.00875 2.39913 0
M  V30 4760 N 443.43 -0.535701 1.48216 0
M  V30 4761 C 444.66 -1.3148 1.59363 0
M  V30 4762 C 445.068 -1.8753 0.250844 0
M  V30 4763 O 444.411 -1.66821 -0.769174 0
M  V30 4764 C 444.473 -2.50731 2.57632 0
M  V30 4765 C 444.137 -2.15811 4.02833 0
M  V30 4766 C 445.134 -1.71822 4.90686 0
M  V30 4767 C 442.819 -2.26509 4.48329 0
M  V30 4768 C 444.813 -1.3899 6.22062 0
M  V30 4769 C 442.5 -1.93289 5.79726 0
M  V30 4770 C 443.498 -1.49599 6.66415 0
M  V30 4771 O 443.186 -1.16812 7.95368 0
M  V30 4772 H 442.918 -0.406315 0.540263 0
M  V30 4773 H 445.472 -0.653569 1.94725 0
M  V30 4774 H 443.702 -3.19817 2.1738 0
M  V30 4775 H 445.391 -3.12797 2.58675 0
M  V30 4776 H 446.157 -1.63031 4.56778 0
M  V30 4777 H 442.036 -2.59471 3.81045 0
M  V30 4778 H 445.58 -1.04816 6.89681 0
M  V30 4779 H 441.477 -2.01718 6.13172 0
M  V30 4780 H 442.245 -1.30259 8.08069 0
M  V30 4781 N 444.908 -1.36708 -0.784132 0
M  V30 4782 C 445.84 -1.27333 -1.90575 0
M  V30 4783 C 446.853 -0.191706 -1.61667 0
M  V30 4784 O 448.042 -0.446854 -1.72816 0
M  V30 4785 C 445.142 -0.943177 -3.25511 0
M  V30 4786 C 444.315 -2.12776 -3.82158 0
M  V30 4787 C 443.374 -1.76983 -4.95544 0
M  V30 4788 O 442.4 -2.49134 -5.11782 0
M  V30 4789 N 443.602 -0.706624 -5.76183 0
M  V30 4790 H 446.367 -2.23974 -1.99138 0
M  V30 4791 H 443.928 -1.30171 -0.962656 0
M  V30 4792 H 445.92 -0.684799 -3.98864 0
M  V30 4793 H 444.49 -0.0657333 -3.12531 0
M  V30 4794 H 443.71 -2.54863 -3.0073 0
M  V30 4795 H 444.998 -2.91904 -4.16737 0
M  V30 4796 H 444.396 -0.107643 -5.65598 0
M  V30 4797 H 442.953 -0.50808 -6.49817 0
M  V30 4798 N 446.386 1.0089 -1.21074 0
M  V30 4799 C 447.634 1.74262 -1.02358 0
M  V30 4800 C 447.955 1.89869 0.444393 0
M  V30 4801 O 447.225 1.44677 1.32081 0
M  V30 4802 H 445.805 0.645615 -0.375754 0
M  V30 4803 H 448.467 1.21596 -1.52317 0
M  V30 4804 H 447.563 2.74328 -1.4883 0
M  V30 4805 N 447.864 1.01787 1.20321 0
M  V30 4806 C 449.275 0.739307 1.71438 0
M  V30 4807 C 449.626 -0.742041 1.81627 0
M  V30 4808 O 448.751 -1.57903 1.47971 0
M  V30 4809 C 449.346 1.33538 3.11373 0
M  V30 4810 C 447.905 1.10566 3.59795 0
M  V30 4811 C 447.052 1.44028 2.36962 0
M  V30 4812 H 450.003 1.18718 1.05317 0
M  V30 4813 H 450.024 0.726611 3.73498 0
M  V30 4814 H 449.536 2.41352 3.03926 0
M  V30 4815 H 447.637 0.0452405 3.72573 0
M  V30 4816 H 447.75 1.78661 4.44542 0
M  V30 4817 H 446.114 0.85933 2.39766 0
M  V30 4818 H 446.897 2.52901 2.32155 0
M  V30 4819 N 449.342 -1.36122 0.79427 0
M  V30 4820 C 450.275 -2.27759 0.141845 0
M  V30 4821 C 451.253 -1.47471 -0.684921 0
M  V30 4822 O 452.437 -1.76759 -0.654857 0
M  V30 4823 C 449.564 -3.29008 -0.804446 0
M  V30 4824 C 448.61 -4.26459 -0.0588617 0
M  V30 4825 S 449.443 -5.20253 1.26873 0
M  V30 4826 C 450.599 -6.25048 0.326562 0
M  V30 4827 H 450.832 -2.82746 0.918818 0
M  V30 4828 H 448.365 -1.42736 0.588722 0
M  V30 4829 H 450.323 -3.87842 -1.34495 0
M  V30 4830 H 448.984 -2.72924 -1.5547 0
M  V30 4831 H 448.177 -4.97973 -0.777087 0
M  V30 4832 H 447.779 -3.71731 0.411309 0
M  V30 4833 H 450.071 -6.75705 -0.492795 0
M  V30 4834 H 451.014 -7.00852 1.01053 0
M  V30 4835 H 451.422 -5.64454 -0.0722627 0
M  V30 4836 N 450.82 -0.546701 -1.47814 0
M  V30 4837 C 452.069 -0.0166497 -2.01693 0
M  V30 4838 C 452.382 1.33721 -1.42752 0
M  V30 4839 O 453.588 1.95658 -1.8823 0
M  V30 4840 C 452.044 0.0206769 -3.59894 0
M  V30 4841 C 451.652 -1.3293 -4.27824 0
M  V30 4842 C 453.396 0.498674 -4.21561 0
M  V30 4843 C 451.303 -1.25165 -5.78003 0
M  V30 4844 H 450.233 -0.0024541 -0.753996 0
M  V30 4845 H 452.884 -0.692984 -1.69912 0
M  V30 4846 H 451.266 0.76244 -3.88591 0
M  V30 4847 H 452.44 -2.08795 -4.10781 0
M  V30 4848 H 450.755 -1.74438 -3.78101 0
M  V30 4849 H 453.352 0.575 -5.31599 0
M  V30 4850 H 453.695 1.5083 -3.88016 0
M  V30 4851 H 454.228 -0.18791 -3.97356 0
M  V30 4852 H 450.967 -2.23695 -6.1615 0
M  V30 4853 H 450.487 -0.53464 -5.97412 0
M  V30 4854 H 452.166 -0.949299 -6.39998 0
M  V30 4855 N 452.299 1.55045 -0.282633 0
M  V30 4856 C 453.229 2.2579 0.595066 0
M  V30 4857 C 454.21 1.25074 1.15284 0
M  V30 4858 O 455.395 1.5381 1.18559 0
M  V30 4859 C 452.525 2.98472 1.77572 0
M  V30 4860 C 451.479 4.0618 1.34914 0
M  V30 4861 C 450.805 4.66477 2.6135 0
M  V30 4862 C 452.105 5.1996 0.493821 0
M  V30 4863 H 453.799 2.994 0.00505653 0
M  V30 4864 H 451.345 1.44 0.000992001 0
M  V30 4865 H 453.298 3.46677 2.39568 0
M  V30 4866 H 452.022 2.2241 2.39168 0
M  V30 4867 H 450.681 3.58797 0.752338 0
M  V30 4868 H 450.329 3.87074 3.2122 0
M  V30 4869 H 450.029 5.39207 2.33516 0
M  V30 4870 H 451.553 5.17435 3.24181 0
M  V30 4871 H 452.967 5.64172 1.01898 0
M  V30 4872 H 451.364 5.99299 0.310047 0
M  V30 4873 H 452.434 4.82462 -0.485593 0
M  V30 4874 N 453.777 0.010035 1.57597 0
M  V30 4875 C 455.023 -0.673697 1.91283 0
M  V30 4876 C 455.356 -1.72863 0.884979 0
M  V30 4877 O 454.631 -1.94268 -0.0949487 0
M  V30 4878 C 454.914 -1.30766 3.35518 0
M  V30 4879 C 454.767 -0.263578 4.49027 0
M  V30 4880 C 456.086 -2.23105 3.79358 0
M  V30 4881 H 453.205 -0.243439 0.695634 0
M  V30 4882 H 455.847 0.0633864 1.89894 0
M  V30 4883 H 453.997 -1.93588 3.36832 0
M  V30 4884 H 455.669 0.365738 4.59848 0
M  V30 4885 H 453.912 0.413077 4.31829 0
M  V30 4886 H 454.583 -0.746398 5.4693 0
M  V30 4887 H 457.059 -1.70289 3.79659 0
M  V30 4888 H 455.935 -2.64424 4.81011 0
M  V30 4889 H 456.196 -3.11433 3.13787 0
M  V30 4890 N 455.255 -1.55392 -0.262866 0
M  V30 4891 C 456.185 -1.91978 -1.32917 0
M  V30 4892 C 457.166 -0.7828 -1.51017 0
M  V30 4893 O 458.351 -1.04178 -1.63892 0
M  V30 4894 C 455.481 -2.20055 -2.68687 0
M  V30 4895 C 454.435 -3.35854 -2.65304 0
M  V30 4896 C 453.761 -3.49435 -4.04721 0
M  V30 4897 C 455.061 -4.71977 -2.23685 0
M  V30 4898 H 456.755 -2.81292 -1.02544 0
M  V30 4899 H 454.301 -1.3534 -0.491846 0
M  V30 4900 H 456.254 -2.44237 -3.43404 0
M  V30 4901 H 454.978 -1.27551 -3.00663 0
M  V30 4902 H 453.637 -3.11655 -1.93045 0
M  V30 4903 H 453.285 -2.54379 -4.33936 0
M  V30 4904 H 452.985 -4.27297 -4.0335 0
M  V30 4905 H 454.509 -3.7592 -4.81161 0
M  V30 4906 H 455.923 -4.95637 -2.88127 0
M  V30 4907 H 454.32 -5.52828 -2.33456 0
M  V30 4908 H 455.39 -4.70115 -1.18827 0
M  V30 4909 N 456.733 0.527833 -1.48498 0
M  V30 4910 C 457.663 1.64136 -1.66077 0
M  V30 4911 C 458.644 1.62286 -0.509625 0
M  V30 4912 O 459.829 1.79449 -0.742413 0
M  V30 4913 C 456.959 3.02717 -1.70234 0
M  V30 4914 C 455.913 3.19426 -2.8487 0
M  V30 4915 C 455.239 4.5909 -2.74118 0
M  V30 4916 C 456.539 3.01993 -4.26142 0
M  V30 4917 H 458.233 1.4968 -2.593 0
M  V30 4918 H 455.779 0.718654 -1.24785 0
M  V30 4919 H 457.732 3.80491 -1.8112 0
M  V30 4920 H 456.456 3.18201 -0.735911 0
M  V30 4921 H 455.115 2.4407 -2.73542 0
M  V30 4922 H 454.763 4.71413 -1.7544 0
M  V30 4923 H 454.463 4.71214 -3.51042 0
M  V30 4924 H 455.987 5.3896 -2.86974 0
M  V30 4925 H 457.401 3.69558 -4.38292 0
M  V30 4926 H 455.798 3.2561 -5.04082 0
M  V30 4927 H 456.868 1.98396 -4.42456 0
M  V30 4928 N 458.211 1.37122 0.776871 0
M  V30 4929 C 459.46 1.31373 1.53049 0
M  V30 4930 C 459.773 -0.101016 1.95339 0
M  V30 4931 O 460.979 -0.280953 2.70042 0
M  V30 4932 C 459.435 2.30567 2.76346 0
M  V30 4933 C 459.043 3.77543 2.41175 0
M  V30 4934 C 460.787 2.33818 3.54301 0
M  V30 4935 C 458.694 4.68481 3.60943 0
M  V30 4936 H 457.624 0.488234 0.574581 0
M  V30 4937 H 460.275 1.62554 0.851372 0
M  V30 4938 H 458.657 1.92396 3.46121 0
M  V30 4939 H 459.831 4.24521 1.79216 0
M  V30 4940 H 458.146 3.77187 1.76405 0
M  V30 4941 H 460.743 2.98965 4.4331 0
M  V30 4942 H 461.086 1.3503 3.93793 0
M  V30 4943 H 461.619 2.7067 2.91518 0
M  V30 4944 H 458.358 5.68378 3.26537 0
M  V30 4945 H 457.878 4.2621 4.22025 0
M  V30 4946 H 459.557 4.85366 4.27819 0
M  V30 4947 N 459.689 -1.00246 1.21608 0
M  V30 4948 C 460.637 -2.11193 0.97469 0
M  V30 4949 C 461.631 -1.69216 -0.0789303 0
M  V30 4950 O 462.837 -1.79853 0.0726806 0
M  V30 4951 H 459.212 -0.690455 0.297953 0
M  V30 4952 H 461.183 -2.2873 1.91638 0
M  V30 4953 C 459.932 -3.43182 0.558717 0
M  V30 4954 H 459.255 -3.75918 1.3611 0
M  V30 4955 H 460.695 -4.21823 0.429154 0
M  V30 4956 C 459.154 -3.28882 -0.730648 0
M  V30 4957 O 459.684 -3.59835 -1.78554 0
M  V30 4958 N 457.89 -2.8209 -0.698131 0
M  V30 4959 H 457.437 -2.57099 0.16061 0
M  V30 4960 H 457.395 -2.72903 -1.56113 0
M  V30 4961 N 461.167 -1.02423 -1.1978 0
M  V30 4962 C 462.414 -0.717988 -1.89344 0
M  V30 4963 C 462.742 0.753036 -1.79331 0
M  V30 4964 O 461.997 1.56355 -1.17692 0
M  V30 4965 C 462.296 -1.1088 -3.39765 0
M  V30 4966 C 461.962 -2.57731 -3.6998 0
M  V30 4967 C 460.624 -2.97854 -3.77937 0
M  V30 4968 C 462.976 -3.52763 -3.83677 0
M  V30 4969 C 460.304 -4.31931 -3.97054 0
M  V30 4970 C 462.656 -4.86538 -4.04306 0
M  V30 4971 C 461.32 -5.26356 -4.10494 0
M  V30 4972 H 460.59 -0.26273 -0.692859 0
M  V30 4973 H 463.237 -1.28623 -1.41875 0
M  V30 4974 H 461.542 -0.459094 -3.89101 0
M  V30 4975 H 463.239 -0.849432 -3.919 0
M  V30 4976 H 459.829 -2.25646 -3.64393 0
M  V30 4977 H 464.013 -3.2292 -3.76877 0
M  V30 4978 H 459.269 -4.62324 -4.00083 0
M  V30 4979 H 463.443 -5.60093 -4.13846 0
M  V30 4980 H 461.07 -6.3026 -4.2506 0
M  V30 4981 N 462.645 1.35699 -0.801477 0
M  V30 4982 C 463.894 1.98165 -0.375979 0
M  V30 4983 C 464.207 1.64306 1.06127 0
M  V30 4984 O 465.413 2.20097 1.58964 0
M  V30 4985 C 463.869 3.54497 -0.621305 0
M  V30 4986 C 463.477 3.9727 -2.07076 0
M  V30 4987 C 465.221 4.23697 -0.26091 0
M  V30 4988 C 463.128 5.46427 -2.26211 0
M  V30 4989 H 462.058 0.741478 -0.136844 0
M  V30 4990 H 464.709 1.54834 -0.984814 0
M  V30 4991 H 463.091 3.95958 0.0574112 0
M  V30 4992 H 464.265 3.66974 -2.78687 0
M  V30 4993 H 462.58 3.40943 -2.39054 0
M  V30 4994 H 465.177 5.33334 -0.381994 0
M  V30 4995 H 465.52 4.0869 0.792344 0
M  V30 4996 H 466.053 3.87639 -0.893339 0
M  V30 4997 H 462.792 5.66396 -3.29963 0
M  V30 4998 H 462.312 5.78309 -1.59119 0
M  V30 4999 H 463.991 6.12819 -2.07513 0
M  V30 5000 N 464.123 0.554532 1.47522 0
M  V30 5001 C 465.37 0.029479 2.02479 0
M  V30 5002 C 465.698 -1.31929 1.42916 0
M  V30 5003 O 464.953 -1.87112 0.573385 0
M  V30 5004 C 465.252 -0.115927 3.57212 0
M  V30 5005 C 464.918 1.16161 4.3568 0
M  V30 5006 C 463.58 1.51168 4.56839 0
M  V30 5007 C 465.932 2.0083 4.80954 0
M  V30 5008 C 463.26 2.70696 5.2052 0
M  V30 5009 C 465.612 3.19559 5.45953 0
M  V30 5010 C 464.276 3.54882 5.65345 0
M  V30 5011 H 463.546 0.0107871 0.740921 0
M  V30 5012 H 466.193 0.725506 1.77225 0
M  V30 5013 H 464.498 -0.894902 3.81443 0
M  V30 5014 H 466.195 -0.53749 3.97381 0
M  V30 5015 H 462.785 0.879026 4.19489 0
M  V30 5016 H 466.969 1.75093 4.64388 0
M  V30 5017 H 462.225 2.98236 5.33728 0
M  V30 5018 H 466.399 3.85456 5.79997 0
M  V30 5019 H 464.026 4.47596 6.1446 0
M  V30 5020 N 465.601 -1.54893 0.290851 0
M  V30 5021 C 466.531 -2.26103 -0.583084 0
M  V30 5022 C 467.512 -1.25684 -1.14619 0
M  V30 5023 O 468.697 -1.54436 -1.17741 0
M  V30 5024 C 465.827 -2.99409 -1.75987 0
M  V30 5025 C 464.781 -4.0689 -1.32758 0
M  V30 5026 C 464.107 -4.67856 -2.58872 0
M  V30 5027 C 465.407 -5.20215 -0.46624 0
M  V30 5028 H 467.101 -2.99398 0.0108214 0
M  V30 5029 H 464.647 -1.43998 0.00664468 0
M  V30 5030 H 466.6 -3.47943 -2.37727 0
M  V30 5031 H 465.324 -2.23675 -2.37985 0
M  V30 5032 H 463.983 -3.59191 -0.733299 0
M  V30 5033 H 463.631 -3.88772 -3.19163 0
M  V30 5034 H 463.331 -5.40438 -2.30653 0
M  V30 5035 H 464.855 -5.19147 -3.21433 0
M  V30 5036 H 466.269 -5.64704 -0.989047 0
M  V30 5037 H 464.666 -5.99455 -0.27826 0
M  V30 5038 H 465.736 -4.82198 0.511173 0
M  V30 5039 N 467.08 -0.0183926 -1.57589 0
M  V30 5040 C 468.327 0.662562 -1.91354 0
M  V30 5041 C 468.655 1.72747 -0.893788 0
M  V30 5042 O 467.91 1.9545 0.0988509 0
M  V30 5043 C 468.209 1.32676 -3.31861 0
M  V30 5044 C 467.875 0.393267 -4.49182 0
M  V30 5045 C 466.537 0.136302 -4.81007 0
M  V30 5046 C 468.889 -0.248366 -5.20608 0
M  V30 5047 C 466.217 -0.770282 -5.81621 0
M  V30 5048 C 468.569 -1.14294 -6.22189 0
M  V30 5049 C 467.233 -1.4089 -6.52462 0
M  V30 5050 H 466.503 0.242448 -0.700214 0
M  V30 5051 H 469.15 -0.0778629 -1.91342 0
M  V30 5052 H 467.455 2.14168 -3.28084 0
M  V30 5053 H 469.152 1.86001 -3.55253 0
M  V30 5054 H 465.742 0.603723 -4.24327 0
M  V30 5055 H 469.926 -0.062883 -4.9626 0
M  V30 5056 H 465.182 -0.984154 -6.03427 0
M  V30 5057 H 469.356 -1.64637 -6.76659 0
M  V30 5058 H 466.983 -2.11306 -7.30242 0
M  V30 5059 N 468.558 1.5553 0.254621 0
M  V30 5060 C 469.506 1.9048 1.33492 0
M  V30 5061 C 470.5 0.78304 1.50216 0
M  V30 5062 O 471.706 0.967582 1.51782 0
M  V30 5063 H 468.081 0.604846 0.44684 0
M  V30 5064 H 470.052 2.80688 1.01275 0
M  V30 5065 C 468.801 2.20928 2.68489 0
M  V30 5066 H 468.124 3.06742 2.56417 0
M  V30 5067 H 469.564 2.49291 3.42972 0
M  V30 5068 C 468.023 1.023 3.20993 0
M  V30 5069 O 468.553 0.267027 4.00811 0
M  V30 5070 N 466.759 0.815714 2.78917 0
M  V30 5071 H 466.306 1.43217 2.14119 0
M  V30 5072 H 466.264 0.0236532 3.14391 0
M  V30 5073 N 470.036 -0.519951 1.48776 0
M  V30 5074 C 471.285 -1.27175 1.56555 0
M  V30 5075 C 471.598 -1.9401 0.248869 0
M  V30 5076 O 472.804 -2.70725 0.205004 0
M  V30 5077 C 471.26 -2.30811 2.76142 0
M  V30 5078 C 470.868 -1.7 4.14493 0
M  V30 5079 C 472.612 -3.06937 2.9324 0
M  V30 5080 C 470.519 -2.71635 5.25327 0
M  V30 5081 H 469.449 -0.478329 0.582853 0
M  V30 5082 H 472.1 -0.547916 1.75129 0
M  V30 5083 H 470.482 -3.06274 2.51023 0
M  V30 5084 H 471.656 -1.00658 4.49672 0
M  V30 5085 H 469.971 -1.06331 4.02595 0
M  V30 5086 H 472.568 -3.82905 3.73213 0
M  V30 5087 H 472.911 -3.63409 2.03075 0
M  V30 5088 H 473.444 -2.38589 3.18308 0
M  V30 5089 H 470.183 -2.1997 6.1749 0
M  V30 5090 H 469.703 -3.39275 4.94624 0
M  V30 5091 H 471.382 -3.34429 5.53865 0
M  V30 5092 N 471.514 -1.37532 -0.769588 0
M  V30 5093 C 472.76 -1.33057 -1.53048 0
M  V30 5094 C 473.093 0.0841865 -1.94017 0
M  V30 5095 O 472.368 1.04198 -1.64235 0
M  V30 5096 C 472.651 -2.27166 -2.79406 0
M  V30 5097 C 472.504 -3.77429 -2.44677 0
M  V30 5098 C 473.823 -2.19683 -3.81349 0
M  V30 5099 H 470.942 -0.484655 -0.555228 0
M  V30 5100 H 473.584 -1.68251 -0.882702 0
M  V30 5101 H 471.734 -1.97283 -3.34682 0
M  V30 5102 H 473.406 -4.17918 -1.953 0
M  V30 5103 H 471.649 -3.95892 -1.77346 0
M  V30 5104 H 472.32 -4.38716 -3.35011 0
M  V30 5105 H 474.796 -2.46029 -3.35573 0
M  V30 5106 H 473.672 -2.87668 -4.67481 0
M  V30 5107 H 473.933 -1.19045 -4.25771 0
M  V30 5108 N 472.992 0.995999 -1.22138 0
M  V30 5109 C 474.408 1.25917 -0.980667 0
M  V30 5110 C 474.608 1.98819 0.327604 0
M  V30 5111 O 473.664 2.29587 1.05101 0
M  V30 5112 C 474.977 2.07399 -2.17729 0
M  V30 5113 C 476.525 2.20594 -2.22052 0
M  V30 5114 C 477 3.05462 -3.41258 0
M  V30 5115 N 478.491 3.13049 -3.41401 0
M  V30 5116 C 479.226 3.78997 -4.30289 0
M  V30 5117 N 478.722 4.46899 -5.2939 0
M  V30 5118 N 480.515 3.75728 -4.18073 0
M  V30 5119 H 472.666 0.507158 -2.06256 0
M  V30 5120 H 474.929 0.28658 -0.903646 0
M  V30 5121 H 474.635 1.61191 -3.12586 0
M  V30 5122 H 474.509 3.08154 -2.17534 0
M  V30 5123 H 476.896 2.66017 -1.27745 0
M  V30 5124 H 476.977 1.1928 -2.26287 0
M  V30 5125 H 476.621 2.60739 -4.35864 0
M  V30 5126 H 476.551 4.06911 -3.34262 0
M  V30 5127 H 479.042 2.64721 -2.69688 0
M  V30 5128 H 479.355 4.94952 -5.935 0
M  V30 5129 H 477.7 4.45657 -5.33306 0
M  V30 5130 H 480.891 3.2184 -3.39907 0
M  V30 5131 H 481.064 4.26845 -4.87553 0
M  V30 5132 N 474.47 1.03057 1.19235 0
M  V30 5133 C 475.719 0.72326 1.88287 0
M  V30 5134 C 476.032 -0.751333 1.80594 0
M  V30 5135 O 477.238 -1.17176 2.44912 0
M  V30 5136 C 475.694 1.24338 3.3774 0
M  V30 5137 C 475.302 2.74587 3.53986 0
M  V30 5138 C 477.046 1.01213 4.12257 0
M  V30 5139 C 474.953 3.20009 4.97341 0
M  V30 5140 H 473.883 0.266848 0.705201 0
M  V30 5141 H 476.534 1.24509 1.34795 0
M  V30 5142 H 474.916 0.649457 3.90638 0
M  V30 5143 H 476.09 3.39649 3.11408 0
M  V30 5144 H 474.405 2.9601 2.9286 0
M  V30 5145 H 477.002 1.32675 5.17978 0
M  V30 5146 H 477.345 -0.051001 4.16269 0
M  V30 5147 H 477.878 1.57014 3.65501 0
M  V30 5148 H 474.617 4.25659 4.98493 0
M  V30 5149 H 474.137 2.59676 5.40674 0
M  V30 5150 H 475.816 3.13447 5.66003 0
M  V30 5151 N 475.948 -1.35272 0.808662 0
M  V30 5152 C 476.878 -2.32315 0.234981 0
M  V30 5153 C 477.859 -1.57572 -0.64071 0
M  V30 5154 O 479.044 -1.8563 -0.570551 0
M  V30 5155 C 476.174 -3.41801 -0.615601 0
M  V30 5156 C 475.128 -4.27694 0.161767 0
M  V30 5157 C 474.454 -5.28519 -0.810649 0
M  V30 5158 C 475.754 -5.04231 1.36193 0
M  V30 5159 H 477.448 -2.80543 1.04575 0
M  V30 5160 H 474.994 -1.3488 0.504315 0
M  V30 5161 H 476.947 -4.08693 -1.02702 0
M  V30 5162 H 475.671 -2.92186 -1.45928 0
M  V30 5163 H 474.33 -3.62384 0.554382 0
M  V30 5164 H 473.978 -4.75171 -1.64988 0
M  V30 5165 H 473.678 -5.8686 -0.294822 0
M  V30 5166 H 475.202 -5.98283 -1.22023 0
M  V30 5167 H 476.616 -5.64058 1.02528 0
M  V30 5168 H 475.013 -5.72077 1.81239 0
M  V30 5169 H 476.083 -4.34753 2.14751 0
M  V30 5170 N 477.426 -0.562348 -1.47226 0
M  V30 5171 C 478.359 0.230405 -2.27034 0
M  V30 5172 C 479.337 0.915609 -1.3437 0
M  V30 5173 O 480.521 0.933573 -1.63758 0
M  V30 5174 C 477.648 1.32874 -3.11548 0
M  V30 5175 C 476.694 0.751552 -4.19826 0
M  V30 5176 S 477.527 -0.405848 -5.3396 0
M  V30 5177 C 478.683 0.694186 -6.22038 0
M  V30 5178 H 478.916 -0.446811 -2.93923 0
M  V30 5179 H 476.449 -0.348781 -1.50409 0
M  V30 5180 H 478.407 1.95773 -3.60809 0
M  V30 5181 H 477.068 1.97782 -2.44011 0
M  V30 5182 H 476.261 1.57651 -4.78709 0
M  V30 5183 H 475.863 0.198645 -3.73472 0
M  V30 5184 H 478.155 1.58501 -6.58698 0
M  V30 5185 H 479.098 0.142592 -7.07956 0
M  V30 5186 H 479.506 0.989169 -5.55766 0
M  V30 5187 N 478.904 1.54736 -0.299062 0
M  V30 5188 C 480.132 2.04512 0.313447 0
M  V30 5189 C 480.547 1.17643 1.47667 0
M  V30 5190 O 479.904 0.20164 1.81383 0
M  V30 5191 C 479.955 3.53171 0.771542 0
M  V30 5192 O 479.676 4.36736 -0.345379 0
M  V30 5193 C 481.177 4.18936 1.4494 0
M  V30 5194 H 478.397 0.667507 0.0683784 0
M  V30 5195 H 480.941 1.99752 -0.438129 0
M  V30 5196 H 479.096 3.58298 1.47314 0
M  V30 5197 H 479.51 5.24499 0.0109219 0
M  V30 5198 H 480.984 5.24482 1.72111 0
M  V30 5199 H 481.461 3.68554 2.38883 0
M  V30 5200 H 482.067 4.17879 0.791028 0
M  V30 5201 N 480.382 0.0267497 1.57577 0
M  V30 5202 C 481.329 -0.955894 2.10075 0
M  V30 5203 C 482.299 -1.32453 1.00226 0
M  V30 5204 O 483.484 -1.41826 1.27632 0
M  V30 5205 C 480.624 -2.2338 2.6305 0
M  V30 5206 C 479.737 -1.92183 3.86898 0
M  V30 5207 C 478.872 -3.14251 4.28275 0
M  V30 5208 C 477.911 -2.78862 5.44888 0
M  V30 5209 N 477.048 -3.93548 5.81433 0
M  V30 5210 H 481.888 -0.501303 2.93753 0
M  V30 5211 H 479.425 -0.235847 1.45197 0
M  V30 5212 H 481.383 -2.98124 2.91853 0
M  V30 5213 H 480.013 -2.6646 1.82205 0
M  V30 5214 H 479.065 -1.07692 3.64838 0
M  V30 5215 H 480.377 -1.62117 4.7172 0
M  V30 5216 H 479.531 -3.97317 4.58502 0
M  V30 5217 H 478.27 -3.47476 3.42215 0
M  V30 5218 H 477.275 -1.94208 5.14357 0
M  V30 5219 H 478.5 -2.46855 6.32645 0
M  V30 5220 H 476.446 -4.2662 4.98328 0
M  V30 5221 H 476.363 -3.67098 6.6089 0
M  V30 5222 H 477.631 -4.77325 6.16264 0
M  V30 5223 N 481.861 -1.55662 -0.24637 0
M  V30 5224 C 482.791 -1.93377 -1.30873 0
M  V30 5225 C 483.772 -0.798773 -1.50179 0
M  V30 5226 O 484.957 -1.0591 -1.62778 0
M  V30 5227 C 482.087 -2.22893 -2.66338 0
M  V30 5228 C 481.041 -3.38649 -2.61727 0
M  V30 5229 C 480.367 -3.53708 -4.00992 0
M  V30 5230 C 481.667 -4.74323 -2.18666 0
M  V30 5231 H 483.361 -2.82363 -0.995552 0
M  V30 5232 H 480.907 -1.35854 -0.477464 0
M  V30 5233 H 482.86 -2.47866 -3.40794 0
M  V30 5234 H 481.584 -1.30733 -2.99293 0
M  V30 5235 H 480.243 -3.13685 -1.89729 0
M  V30 5236 H 479.891 -2.58967 -4.31214 0
M  V30 5237 H 479.591 -4.31551 -3.98795 0
M  V30 5238 H 481.115 -3.81003 -4.77147 0
M  V30 5239 H 482.529 -4.98665 -2.82854 0
M  V30 5240 H 480.926 -5.55273 -2.27579 0
M  V30 5241 H 481.996 -4.71349 -1.13834 0
M  V30 5242 N 483.339 0.512053 -1.4905 0
M  V30 5243 C 484.755 0.84224 -1.35567 0
M  V30 5244 C 484.955 1.97878 -0.380319 0
M  V30 5245 O 484.011 2.51769 0.19201 0
M  V30 5246 C 485.324 1.19286 -2.76028 0
M  V30 5247 C 486.872 1.30171 -2.84648 0
M  V30 5248 C 487.347 1.68568 -4.25851 0
M  V30 5249 N 488.838 1.75638 -4.28609 0
M  V30 5250 C 489.573 2.06769 -5.34821 0
M  V30 5251 N 489.069 2.36201 -6.51292 0
M  V30 5252 N 490.862 2.07927 -5.22229 0
M  V30 5253 H 483.013 -0.237574 -2.11067 0
M  V30 5254 H 485.276 -0.0436747 -0.946993 0
M  V30 5255 H 484.982 0.431199 -3.49047 0
M  V30 5256 H 484.856 2.13889 -3.10695 0
M  V30 5257 H 487.243 2.05411 -2.11873 0
M  V30 5258 H 487.324 0.336457 -2.53578 0
M  V30 5259 H 486.968 0.938824 -4.99148 0
M  V30 5260 H 486.898 2.66174 -4.54377 0
M  V30 5261 H 489.389 1.55097 -3.44606 0
M  V30 5262 H 489.702 2.59112 -7.28066 0
M  V30 5263 H 488.047 2.33681 -6.54536 0
M  V30 5264 H 491.238 1.84403 -4.30248 0
M  V30 5265 H 491.411 2.31856 -6.05101 0
M  V30 5266 N 484.817 1.37938 0.762283 0
M  V30 5267 C 485.78 1.34279 1.85747 0
M  V30 5268 C 486.78 0.244969 1.58923 0
M  V30 5269 O 487.97 0.501365 1.66829 0
M  V30 5270 C 485.102 1.08833 3.23061 0
M  V30 5271 H 486.295 2.31705 1.90401 0
M  V30 5272 H 483.848 1.23105 0.963057 0
M  V30 5273 H 484.583 0.119767 3.24079 0
M  V30 5274 H 484.368 1.88306 3.43923 0
M  V30 5275 H 485.858 1.08946 4.03138 0
M  V30 5276 N 486.295 -0.989507 1.22664 0
M  V30 5277 C 487.52 -1.77031 1.08051 0
M  V30 5278 C 487.945 -1.84535 -0.364483 0
M  V30 5279 O 487.303 -1.3003 -1.2634 0
M  V30 5280 C 487.351 -3.18 1.70024 0
M  V30 5281 O 486.455 -4.01161 0.956216 0
M  V30 5282 H 485.796 -0.545008 0.379292 0
M  V30 5283 H 488.326 -1.24277 1.62531 0
M  V30 5284 H 488.336 -3.68616 1.74888 0
M  V30 5285 H 487.011 -3.11853 2.75174 0
M  V30 5286 H 485.588 -3.59687 0.98384 0
M  V30 5287 N 487.773 -1.03688 -1.18687 0
M  V30 5288 C 489.001 -0.757918 -1.92518 0
M  V30 5289 C 489.416 0.684398 -1.75959 0
M  V30 5290 O 488.773 1.46617 -1.08673 0
M  V30 5291 C 488.824 -1.10985 -3.44042 0
M  V30 5292 O 488.545 -2.49554 -3.60076 0
M  V30 5293 C 490.046 -0.854844 -4.3498 0
M  V30 5294 H 487.266 -0.276699 -0.611293 0
M  V30 5295 H 489.81 -1.38352 -1.50595 0
M  V30 5296 H 487.965 -0.529279 -3.83767 0
M  V30 5297 H 488.379 -2.6291 -4.53849 0
M  V30 5298 H 489.853 -1.15098 -5.39867 0
M  V30 5299 H 490.33 0.210507 -4.38695 0
M  V30 5300 H 490.936 -1.41853 -4.00946 0
M  V30 5301 N 489.251 1.34841 -0.815825 0
M  V30 5302 C 490.479 2.0273 -0.413294 0
M  V30 5303 C 490.894 1.61459 0.978599 0
M  V30 5304 O 490.251 0.816584 1.63212 0
M  V30 5305 C 490.302 3.58058 -0.497676 0
M  V30 5306 O 490.023 3.97832 -1.8347 0
M  V30 5307 C 491.524 4.4321 -0.0891339 0
M  V30 5308 H 488.744 0.649956 -0.166728 0
M  V30 5309 H 491.288 1.72267 -1.10201 0
M  V30 5310 H 489.443 3.87136 0.142886 0
M  V30 5311 H 489.857 4.92501 -1.80396 0
M  V30 5312 H 491.331 5.5164 -0.199274 0
M  V30 5313 H 491.808 4.28432 0.966571 0
M  V30 5314 H 492.414 4.19446 -0.703214 0
M  V30 5315 N 490.729 0.570148 1.46925 0
M  V30 5316 C 491.954 0.0542592 2.07329 0
M  V30 5317 C 492.379 -1.23582 1.41806 0
M  V30 5318 O 491.737 -1.74341 0.497479 0
M  V30 5319 C 491.785 -0.111175 3.60429 0
M  V30 5320 O 490.889 -1.17071 3.95434 0
M  V30 5321 H 490.23 0.0571425 0.661537 0
M  V30 5322 H 492.76 0.789516 1.88753 0
M  V30 5323 H 492.77 -0.321315 4.06733 0
M  V30 5324 H 491.445 0.831012 4.07513 0
M  V30 5325 H 490.022 -0.940029 3.60857 0
M  V30 5326 N 492.207 -1.54576 0.307264 0
M  V30 5327 C 493.117 -2.27435 -0.57536 0
M  V30 5328 C 494.133 -1.31183 -1.14311 0
M  V30 5329 O 495.309 -1.64175 -1.16656 0
M  V30 5330 C 492.374 -3.00566 -1.72803 0
M  V30 5331 C 491.435 -4.12369 -1.19373 0
M  V30 5332 C 490.668 -4.82003 -2.29147 0
M  V30 5333 O 490.891 -4.51038 -3.49171 0
M  V30 5334 O 489.825 -5.69271 -1.95485 0
M  V30 5335 H 493.651 -3.03696 0.0158558 0
M  V30 5336 H 491.236 -1.49219 0.0735064 0
M  V30 5337 H 493.118 -3.46416 -2.39946 0
M  V30 5338 H 491.793 -2.27195 -2.30574 0
M  V30 5339 H 490.7 -3.70905 -0.487851 0
M  V30 5340 H 492.033 -4.87736 -0.661376 0
M  V30 5341 N 493.685 -0.035106 -1.57561 0
M  V30 5342 C 494.913 0.652258 -1.9635 0
M  V30 5343 C 495.328 1.65317 -0.911897 0
M  V30 5344 O 494.685 1.82194 0.105657 0
M  V30 5345 C 494.736 1.35337 -3.35211 0
M  V30 5346 O 494.457 0.392548 -4.36338 0
M  V30 5347 C 495.958 2.13199 -3.88666 0
M  V30 5348 H 493.178 0.179444 -0.646561 0
M  V30 5349 H 495.722 -0.0966459 -2.04271 0
M  V30 5350 H 493.877 2.05362 -3.28489 0
M  V30 5351 H 494.291 0.891097 -5.16875 0
M  V30 5352 H 495.765 2.577 -4.88154 0
M  V30 5353 H 496.242 2.97353 -3.23231 0
M  V30 5354 H 496.848 1.48118 -3.98674 0
M  V30 5355 N 495.163 1.55791 0.238111 0
M  V30 5356 C 496.412 1.77234 0.962868 0
M  V30 5357 C 496.725 0.600661 1.86149 0
M  V30 5358 O 497.931 0.698315 2.62366 0
M  V30 5359 C 496.387 3.13808 1.76218 0
M  V30 5360 C 495.995 4.3865 0.910518 0
M  V30 5361 C 497.739 3.44585 2.47914 0
M  V30 5362 C 495.646 5.66252 1.70623 0
M  V30 5363 H 494.576 0.660731 0.36325 0
M  V30 5364 H 497.227 1.8221 0.217242 0
M  V30 5365 H 495.609 3.02963 2.55009 0
M  V30 5366 H 496.783 4.60507 0.164316 0
M  V30 5367 H 495.098 4.15271 0.30647 0
M  V30 5368 H 497.695 4.3714 3.07917 0
M  V30 5369 H 498.038 2.66314 3.19973 0
M  V30 5370 H 498.571 3.56685 1.76127 0
M  V30 5371 H 495.31 6.47369 1.02923 0
M  V30 5372 H 494.83 5.48483 2.42748 0
M  V30 5373 H 496.509 6.05829 2.27114 0
M  V30 5374 N 496.642 -0.504142 1.49319 0
M  V30 5375 C 497.574 -1.62265 1.61872 0
M  V30 5376 C 498.587 -1.54881 0.501573 0
M  V30 5377 O 499.776 -1.6087 0.773497 0
M  V30 5378 C 496.876 -3.01042 1.55651 0
M  V30 5379 C 496.049 -3.33642 2.82845 0
M  V30 5380 C 495.108 -4.51816 2.69719 0
M  V30 5381 O 494.134 -4.53755 3.4365 0
M  V30 5382 N 495.336 -5.51543 1.81055 0
M  V30 5383 H 498.101 -1.51924 2.58339 0
M  V30 5384 H 495.662 -0.691954 1.46368 0
M  V30 5385 H 497.654 -3.78013 1.44528 0
M  V30 5386 H 496.224 -3.05323 0.670546 0
M  V30 5387 H 495.444 -2.45598 3.08343 0
M  V30 5388 H 496.732 -3.5222 3.67177 0
M  V30 5389 H 496.13 -5.52774 1.20241 0
M  V30 5390 H 494.687 -6.27629 1.75856 0
M  V30 5391 N 498.12 -1.38341 -0.754957 0
M  V30 5392 C 499.35 -1.37504 -1.54195 0
M  V30 5393 C 499.758 0.0373787 -1.89163 0
M  V30 5394 O 499.101 1.01402 -1.53178 0
M  V30 5395 C 499.163 -2.16488 -2.87008 0
M  V30 5396 C 498.827 -3.65311 -2.74585 0
M  V30 5397 C 499.824 -4.58834 -2.44474 0
M  V30 5398 C 497.509 -4.08649 -2.9208 0
M  V30 5399 C 499.503 -5.93675 -2.32011 0
M  V30 5400 C 497.19 -5.43571 -2.79237 0
M  V30 5401 C 498.188 -6.35898 -2.49245 0
M  V30 5402 O 497.876 -7.68338 -2.36458 0
M  V30 5403 H 497.608 -0.472159 -0.483779 0
M  V30 5404 H 500.162 -1.82515 -0.94221 0
M  V30 5405 H 498.392 -1.66194 -3.49166 0
M  V30 5406 H 500.081 -2.08076 -3.4851 0
M  V30 5407 H 500.847 -4.26657 -2.30627 0
M  V30 5408 H 496.726 -3.37134 -3.14422 0
M  V30 5409 H 500.27 -6.65706 -2.08522 0
M  V30 5410 H 496.167 -5.75345 -2.92657 0
M  V30 5411 H 496.935 -7.78845 -2.5168 0
M  V30 5412 N 499.598 0.982988 -1.23187 0
M  V30 5413 C 501.014 1.2487 -0.993967 0
M  V30 5414 C 501.214 1.99155 0.306498 0
M  V30 5415 O 500.27 2.30688 1.0266 0
M  V30 5416 C 501.583 2.05078 -2.19917 0
M  V30 5417 C 503.131 2.18227 -2.2438 0
M  V30 5418 C 503.606 3.01825 -3.44479 0
M  V30 5419 N 505.097 3.09411 -3.44702 0
M  V30 5420 C 505.832 3.74412 -4.34285 0
M  V30 5421 N 505.328 4.41259 -5.341 0
M  V30 5422 N 507.121 3.71273 -4.22035 0
M  V30 5423 H 499.272 0.485253 -2.06783 0
M  V30 5424 H 501.535 0.276979 -0.906635 0
M  V30 5425 H 501.241 1.57867 -3.14279 0
M  V30 5426 H 501.115 3.05829 -2.2079 0
M  V30 5427 H 503.502 2.64648 -1.30559 0
M  V30 5428 H 503.583 1.16873 -2.2754 0
M  V30 5429 H 503.227 2.56102 -4.38605 0
M  V30 5430 H 503.157 4.03342 -3.38559 0
M  V30 5431 H 505.648 2.61845 -2.7248 0
M  V30 5432 H 505.961 4.88629 -5.98717 0
M  V30 5433 H 504.306 4.39975 -5.38002 0
M  V30 5434 H 507.497 3.18217 -3.43301 0
M  V30 5435 H 507.67 4.21649 -4.92053 0
M  V30 5436 N 501.076 1.04316 1.18135 0
M  V30 5437 C 502.023 0.636398 2.21853 0
M  V30 5438 C 502.993 -0.357039 1.62217 0
M  V30 5439 O 504.178 -0.250453 1.89149 0
M  V30 5440 C 501.318 0.00812779 3.45099 0
M  V30 5441 C 500.431 1.04933 4.19062 0
M  V30 5442 C 499.566 0.389313 5.29771 0
M  V30 5443 C 498.605 1.41544 5.9551 0
M  V30 5444 N 497.742 0.78021 6.97751 0
M  V30 5445 H 502.582 1.52536 2.56002 0
M  V30 5446 H 500.119 0.76304 1.25762 0
M  V30 5447 H 502.077 -0.373497 4.15525 0
M  V30 5448 H 500.707 -0.844336 3.11562 0
M  V30 5449 H 499.759 1.54888 3.47439 0
M  V30 5450 H 501.071 1.82862 4.64072 0
M  V30 5451 H 500.225 -0.0463805 6.06682 0
M  V30 5452 H 498.964 -0.422038 4.8587 0
M  V30 5453 H 497.969 1.86124 5.17337 0
M  V30 5454 H 499.194 2.22854 6.41493 0
M  V30 5455 H 497.14 -0.0107899 6.55999 0
M  V30 5456 H 497.057 1.49716 7.41027 0
M  V30 5457 H 498.325 0.368996 7.78626 0
M  V30 5458 N 502.554 -1.34406 0.822964 0
M  V30 5459 C 503.517 -2.2783 0.250271 0
M  V30 5460 C 504.517 -1.50288 -0.571854 0
M  V30 5461 O 505.707 -1.69825 -0.387952 0
M  V30 5462 C 502.839 -3.34663 -0.649137 0
M  V30 5463 H 504.032 -2.79992 1.07444 0
M  V30 5464 H 501.585 -1.44539 0.594829 0
M  V30 5465 H 502.32 -2.87714 -1.49637 0
M  V30 5466 H 502.105 -3.92052 -0.0611199 0
M  V30 5467 H 503.595 -4.04349 -1.04363 0
M  V30 5468 N 504.032 -0.577932 -1.46621 0
M  V30 5469 C 505.278 -0.0617793 -2.02706 0
M  V30 5470 C 505.611 1.29294 -1.44903 0
M  V30 5471 O 504.886 1.8461 -0.61232 0
M  V30 5472 C 505.169 0.00911824 -3.60099 0
M  V30 5473 C 505.022 -1.37416 -4.28295 0
M  V30 5474 C 506.341 0.712159 -4.343 0
M  V30 5475 H 503.46 -0.0239246 -0.736612 0
M  V30 5476 H 506.102 -0.744211 -1.74818 0
M  V30 5477 H 504.252 0.590292 -3.83989 0
M  V30 5478 H 505.924 -2.00013 -4.15683 0
M  V30 5479 H 504.167 -1.94319 -3.87843 0
M  V30 5480 H 504.838 -1.27707 -5.37024 0
M  V30 5481 H 507.314 0.218486 -4.15526 0
M  V30 5482 H 506.19 0.730782 -5.44014 0
M  V30 5483 H 506.451 1.77251 -4.05012 0
M  V30 5484 N 505.51 1.54411 -0.315457 0
M  V30 5485 C 506.457 2.24048 0.554166 0
M  V30 5486 C 507.427 1.2283 1.11812 0
M  V30 5487 O 508.612 1.51491 1.15997 0
M  V30 5488 C 505.752 2.99574 1.71316 0
M  V30 5489 C 504.865 4.15594 1.17922 0
M  V30 5490 C 504 4.78669 2.30324 0
M  V30 5491 C 503.039 5.86807 1.74137 0
M  V30 5492 N 502.176 6.43777 2.8017 0
M  V30 5493 H 507.016 2.97964 -0.0462602 0
M  V30 5494 H 504.553 1.47059 -0.0346009 0
M  V30 5495 H 506.511 3.41604 2.39505 0
M  V30 5496 H 505.141 2.28008 2.285 0
M  V30 5497 H 504.193 3.78404 0.389136 0
M  V30 5498 H 505.505 4.93459 0.728012 0
M  V30 5499 H 504.659 5.23626 3.06433 0
M  V30 5500 H 503.398 4.00168 2.78778 0
M  V30 5501 H 502.403 5.41261 0.965236 0
M  V30 5502 H 503.628 6.67201 1.2657 0
M  V30 5503 H 501.574 5.68153 3.2793 0
M  V30 5504 H 501.491 7.17031 2.39588 0
M  V30 5505 H 502.759 6.9339 3.56132 0
M  V30 5506 N 506.988 0.0434614 1.5754 0
M  V30 5507 C 507.951 -0.918696 2.09982 0
M  V30 5508 C 508.951 -1.24488 1.01781 0
M  V30 5509 O 510.141 -1.18284 1.27885 0
M  V30 5510 C 507.273 -2.23093 2.57764 0
M  V30 5511 H 508.466 -0.464229 2.96285 0
M  V30 5512 H 506.019 -0.204818 1.54952 0
M  V30 5513 H 506.754 -2.73137 1.74832 0
M  V30 5514 H 506.539 -2.00724 3.36827 0
M  V30 5515 H 508.029 -2.92028 2.98512 0
M  V30 5516 N 508.466 -1.55915 -0.229846 0
M  V30 5517 C 509.694 -1.82617 -0.972562 0
M  V30 5518 C 510.109 -0.621488 -1.78278 0
M  V30 5519 O 509.466 0.409956 -1.77836 0
M  V30 5520 C 509.517 -3.0774 -1.89679 0
M  V30 5521 O 509.238 -4.23559 -1.11934 0
M  V30 5522 C 510.739 -3.47368 -2.75409 0
M  V30 5523 H 507.959 -0.60727 -0.285419 0
M  V30 5524 H 510.503 -2.02996 -0.247579 0
M  V30 5525 H 508.658 -2.89361 -2.57583 0
M  V30 5526 H 509.072 -4.94586 -1.74599 0
M  V30 5527 H 510.546 -4.37977 -3.35977 0
M  V30 5528 H 511.023 -2.68737 -3.47386 0
M  V30 5529 H 511.629 -3.68158 -2.12931 0
M  V30 5530 N 509.944 0.496216 -1.49584 0
M  V30 5531 C 510.874 1.60576 -1.69521 0
M  V30 5532 C 511.855 1.61169 -0.543933 0
M  V30 5533 O 513.04 1.77834 -0.78031 0
M  V30 5534 C 510.17 2.99038 -1.76616 0
M  V30 5535 C 509.124 3.13312 -2.91581 0
M  V30 5536 C 508.45 4.53172 -2.83794 0
M  V30 5537 C 509.75 2.92886 -4.32452 0
M  V30 5538 H 511.444 1.44146 -2.62416 0
M  V30 5539 H 508.99 0.692024 -1.26282 0
M  V30 5540 H 510.943 3.76564 -1.8915 0
M  V30 5541 H 509.667 3.16568 -0.80324 0
M  V30 5542 H 508.326 2.38213 -2.78658 0
M  V30 5543 H 507.974 4.67585 -1.854 0
M  V30 5544 H 507.674 4.63662 -3.60958 0
M  V30 5545 H 509.198 5.32752 -2.98342 0
M  V30 5546 H 510.612 3.60178 -4.46032 0
M  V30 5547 H 509.009 3.14844 -5.10875 0
M  V30 5548 H 510.079 1.88966 -4.46565 0
M  V30 5549 N 511.423 1.38739 0.74761 0
M  V30 5550 C 512.669 1.35475 1.50912 0
M  V30 5551 C 513.002 -0.0533093 1.94127 0
M  V30 5552 O 512.277 -1.01572 1.65871 0
M  V30 5553 C 512.56 2.31582 2.75757 0
M  V30 5554 C 512.413 3.81274 2.38642 0
M  V30 5555 C 513.732 2.25722 3.77806 0
M  V30 5556 H 510.851 0.493427 0.547447 0
M  V30 5557 H 513.493 1.69634 0.855823 0
M  V30 5558 H 511.643 2.02582 3.31501 0
M  V30 5559 H 513.315 4.20972 1.88626 0
M  V30 5560 H 511.558 3.98664 1.71025 0
M  V30 5561 H 512.229 4.4399 3.27989 0
M  V30 5562 H 514.705 2.51336 3.31616 0
M  V30 5563 H 513.581 2.95069 4.62845 0
M  V30 5564 H 513.842 1.25803 4.23823 0
M  V30 5565 N 512.901 -0.976442 1.23707 0
M  V30 5566 C 513.831 -2.08749 1.04624 0
M  V30 5567 C 514.812 -1.70057 -0.0380956 0
M  V30 5568 O 515.997 -1.93782 0.127308 0
M  V30 5569 C 513.127 -3.41335 0.640902 0
M  V30 5570 C 512.081 -3.93947 1.67302 0
M  V30 5571 C 511.407 -5.22774 1.12301 0
M  V30 5572 C 512.707 -4.22769 3.06697 0
M  V30 5573 H 514.401 -2.24972 1.97555 0
M  V30 5574 H 511.947 -1.08108 0.951247 0
M  V30 5575 H 513.9 -4.18489 0.494434 0
M  V30 5576 H 512.624 -3.24988 -0.324099 0
M  V30 5577 H 511.283 -3.18941 1.80755 0
M  V30 5578 H 510.931 -5.0278 0.148877 0
M  V30 5579 H 510.631 -5.58942 1.81267 0
M  V30 5580 H 512.155 -6.02546 0.988479 0
M  V30 5581 H 513.569 -4.90659 2.96524 0
M  V30 5582 H 511.966 -4.70147 3.72937 0
M  V30 5583 H 513.036 -3.29885 3.55392 0
M  V30 5584 N 514.379 -1.04941 -1.1758 0
M  V30 5585 C 515.309 -0.669172 -2.23706 0
M  V30 5586 C 516.29 0.331835 -1.66832 0
M  V30 5587 O 517.475 0.209988 -1.93061 0
M  V30 5588 C 514.605 -0.0404889 -3.47276 0
M  V30 5589 C 513.559 -0.965983 -4.16957 0
M  V30 5590 C 512.885 -0.201312 -5.34321 0
M  V30 5591 C 514.185 -2.28902 -4.69469 0
M  V30 5592 H 515.879 -1.55639 -2.55767 0
M  V30 5593 H 513.425 -0.749793 -1.22939 0
M  V30 5594 H 515.378 0.237298 -4.20731 0
M  V30 5595 H 514.102 0.881658 -3.14475 0
M  V30 5596 H 512.761 -1.22829 -3.45411 0
M  V30 5597 H 512.409 0.723519 -4.97769 0
M  V30 5598 H 512.109 -0.817968 -5.81879 0
M  V30 5599 H 513.633 0.0692499 -6.10561 0
M  V30 5600 H 515.047 -2.07132 -5.34574 0
M  V30 5601 H 513.444 -2.85942 -5.27596 0
M  V30 5602 H 514.514 -2.92937 -3.86414 0
M  V30 5603 N 515.857 1.33968 -0.830081 0
M  V30 5604 C 517.268 1.80439 -0.479455 0
M  V30 5605 C 517.619 1.68756 1.00079 0
M  V30 5606 O 516.744 1.23171 1.77927 0
M  V30 5607 C 517.339 3.27611 -0.863505 0
M  V30 5608 C 515.898 3.72133 -0.565145 0
M  V30 5609 C 515.045 2.55549 -1.07657 0
M  V30 5610 H 517.996 1.21614 -1.0196 0
M  V30 5611 H 518.017 3.8012 -0.170083 0
M  V30 5612 H 517.529 3.36082 -1.94089 0
M  V30 5613 H 515.63 3.69196 0.502536 0
M  V30 5614 H 515.743 4.65963 -1.11422 0
M  V30 5615 H 514.107 2.49788 -0.497807 0
M  V30 5616 H 514.89 2.66786 -2.16055 0
M  V30 5617 N 517.335 0.585699 1.46312 0
M  V30 5618 C 518.265 -0.133556 2.33118 0
M  V30 5619 C 519.246 -0.880707 1.45525 0
M  V30 5620 O 520.431 -0.855579 1.74337 0
M  V30 5621 C 517.561 -1.14585 3.27853 0
M  V30 5622 C 516.515 -0.513341 4.2491 0
M  V30 5623 C 515.841 -1.63231 5.09175 0
M  V30 5624 C 517.141 0.551413 5.19381 0
M  V30 5625 H 518.835 0.59121 2.93505 0
M  V30 5626 H 516.381 0.285761 1.41136 0
M  V30 5627 H 518.334 -1.65741 3.87438 0
M  V30 5628 H 517.058 -1.90093 2.65579 0
M  V30 5629 H 515.717 -0.0228349 3.66593 0
M  V30 5630 H 515.365 -2.37713 4.43285 0
M  V30 5631 H 515.065 -1.21473 5.74907 0
M  V30 5632 H 516.589 -2.14658 5.71624 0
M  V30 5633 H 518.003 0.124804 5.73164 0
M  V30 5634 H 516.4 0.889486 5.93471 0
M  V30 5635 H 517.47 1.43655 4.63132 0
M  V30 5636 N 518.813 -1.54241 0.323641 0
M  V30 5637 C 519.743 -2.27289 -0.534993 0
M  V30 5638 C 520.724 -1.28087 -1.11927 0
M  V30 5639 O 521.909 -1.56899 -1.14439 0
M  V30 5640 C 519.039 -3.03075 -1.69596 0
M  V30 5641 C 517.993 -4.09614 -1.24098 0
M  V30 5642 C 517.319 -4.73242 -2.4889 0
M  V30 5643 C 518.619 -5.21087 -0.355789 0
M  V30 5644 H 520.313 -2.99308 0.0743257 0
M  V30 5645 H 517.859 -1.43952 0.0371874 0
M  V30 5646 H 519.812 -3.52907 -2.30293 0
M  V30 5647 H 518.536 -2.28673 -2.33187 0
M  V30 5648 H 517.195 -3.60666 -0.656945 0
M  V30 5649 H 516.843 -3.95455 -3.10845 0
M  V30 5650 H 516.543 -5.45209 -2.19138 0
M  V30 5651 H 518.067 -5.25848 -3.10348 0
M  V30 5652 H 519.481 -5.66675 -0.869042 0
M  V30 5653 H 517.878 -5.9991 -0.151045 0
M  V30 5654 H 518.948 -4.81005 0.613339 0
M  V30 5655 N 520.291 -0.0518155 -1.57515 0
M  V30 5656 C 521.539 0.620595 -1.92336 0
M  V30 5657 C 521.86 1.71345 -0.930907 0
M  V30 5658 O 521.13 1.95885 0.0241341 0
M  V30 5659 H 519.71 0.232226 -0.709986 0
M  V30 5660 H 522.372 -0.104969 -1.94617 0
M  V30 5661 H 521.468 1.05879 -2.93592 0
M  V30 5662 N 521.769 1.56035 0.221574 0
M  V30 5663 C 523.018 1.78245 0.944016 0
M  V30 5664 C 523.331 0.620371 1.85501 0
M  V30 5665 O 524.537 0.726103 2.6161 0
M  V30 5666 C 522.993 3.15659 1.7288 0
M  V30 5667 C 522.601 4.39591 0.863942 0
M  V30 5668 C 524.345 3.47195 2.44246 0
M  V30 5669 C 522.252 5.6803 1.64607 0
M  V30 5670 H 521.182 0.664547 0.356222 0
M  V30 5671 H 523.833 1.8243 0.197904 0
M  V30 5672 H 522.215 3.0565 2.51781 0
M  V30 5673 H 523.389 4.60655 0.115464 0
M  V30 5674 H 521.704 4.15572 0.262407 0
M  V30 5675 H 524.301 4.40381 3.03263 0
M  V30 5676 H 524.644 2.69693 3.1713 0
M  V30 5677 H 525.177 3.58533 1.72334 0
M  V30 5678 H 521.916 6.48425 0.960507 0
M  V30 5679 H 521.436 5.51027 2.36917 0
M  V30 5680 H 523.115 6.08203 2.20675 0
M  V30 5681 N 523.247 -0.488276 1.49845 0
M  V30 5682 C 524.475 -1.26527 1.63702 0
M  V30 5683 C 524.89 -1.8618 0.313447 0
M  V30 5684 O 524.247 -1.68432 -0.702624 0
M  V30 5685 C 524.298 -2.3864 2.71538 0
M  V30 5686 O 524.019 -1.81437 3.98763 0
M  V30 5687 C 525.52 -3.29805 2.96215 0
M  V30 5688 H 522.74 -0.383295 0.55075 0
M  V30 5689 H 525.284 -0.584779 1.95961 0
M  V30 5690 H 523.439 -3.02496 2.42023 0
M  V30 5691 H 523.853 -2.55135 4.58265 0
M  V30 5692 H 525.327 -4.04722 3.75372 0
M  V30 5693 H 525.804 -3.87563 2.06619 0
M  V30 5694 H 526.41 -2.71703 3.27196 0
M  V30 5695 N 524.725 -1.39134 -0.740242 0
M  V30 5696 C 525.955 -1.39132 -1.52728 0
M  V30 5697 C 526.363 0.0173133 -1.89192 0
M  V30 5698 O 525.706 0.997715 -1.54244 0
M  V30 5699 C 525.768 -2.1952 -2.84695 0
M  V30 5700 C 525.432 -3.68203 -2.70695 0
M  V30 5701 C 526.429 -4.61401 -2.39593 0
M  V30 5702 C 524.114 -4.11724 -2.8773 0
M  V30 5703 C 526.108 -5.96102 -2.25701 0
M  V30 5704 C 523.795 -5.46503 -2.73456 0
M  V30 5705 C 524.793 -6.38506 -2.42486 0
M  V30 5706 O 524.481 -7.70803 -2.28295 0
M  V30 5707 H 524.213 -0.477263 -0.478744 0
M  V30 5708 H 526.767 -1.83504 -0.922799 0
M  V30 5709 H 524.997 -1.69888 -3.47383 0
M  V30 5710 H 526.686 -2.1176 -3.46284 0
M  V30 5711 H 527.452 -4.29079 -2.26088 0
M  V30 5712 H 523.331 -3.4045 -3.10829 0
M  V30 5713 H 526.875 -6.6788 -2.0145 0
M  V30 5714 H 522.772 -5.78417 -2.86538 0
M  V30 5715 H 523.54 -7.8147 -2.43405 0
M  V30 5716 N 526.204 0.969867 -1.24223 0
M  V30 5717 C 527.137 2.06279 -0.975926 0
M  V30 5718 C 528.115 1.62353 0.0895385 0
M  V30 5719 O 529.299 1.88442 -0.0469418 0
M  V30 5720 C 526.426 3.35391 -0.472315 0
M  V30 5721 C 525.472 3.98266 -1.526 0
M  V30 5722 S 526.305 4.36172 -3.10667 0
M  V30 5723 C 527.461 5.68423 -2.62003 0
M  V30 5724 H 527.694 2.28551 -1.90137 0
M  V30 5725 H 525.227 1.10748 -1.07584 0
M  V30 5726 H 527.185 4.10068 -0.188376 0
M  V30 5727 H 525.846 3.1111 0.432378 0
M  V30 5728 H 525.039 4.91307 -1.12399 0
M  V30 5729 H 524.641 3.30009 -1.75983 0
M  V30 5730 H 526.933 6.45842 -2.0468 0
M  V30 5731 H 527.876 6.13478 -3.53625 0
M  V30 5732 H 528.284 5.26928 -2.02502 0
M  V30 5733 N 527.682 1.05563 1.17022 0
M  V30 5734 C 528.612 0.681026 2.23348 0
M  V30 5735 C 529.593 -0.322983 1.67005 0
M  V30 5736 O 530.778 -0.199746 1.9317 0
M  V30 5737 C 527.908 0.0589053 3.4725 0
M  V30 5738 C 526.862 0.988082 4.16438 0
M  V30 5739 C 526.188 0.229646 5.34207 0
M  V30 5740 C 527.488 2.31388 4.68249 0
M  V30 5741 H 529.182 1.56993 2.54938 0
M  V30 5742 H 526.728 0.756302 1.2254 0
M  V30 5743 H 528.681 -0.214982 4.20851 0
M  V30 5744 H 527.405 -0.864968 3.14938 0
M  V30 5745 H 526.064 1.24659 3.44754 0
M  V30 5746 H 525.712 -0.697111 4.98146 0
M  V30 5747 H 525.412 0.848815 5.81437 0
M  V30 5748 H 526.936 -0.0368694 6.10589 0
M  V30 5749 H 528.35 2.09964 5.33468 0
M  V30 5750 H 526.747 2.88736 5.26072 0
M  V30 5751 H 527.817 2.94982 3.84855 0
M  V30 5752 N 529.16 -1.33526 0.837174 0
M  V30 5753 C 530.407 -1.97837 0.432064 0
M  V30 5754 C 530.735 -1.66324 -1.00829 0
M  V30 5755 O 529.99 -0.93448 -1.71948 0
M  V30 5756 C 530.289 -3.52367 0.597675 0
M  V30 5757 C 529.955 -4.03826 2.00587 0
M  V30 5758 C 528.617 -4.1759 2.39106 0
M  V30 5759 C 530.969 -4.31333 2.92576 0
M  V30 5760 C 528.297 -4.56195 3.68921 0
M  V30 5761 C 530.649 -4.7139 4.2187 0
M  V30 5762 C 529.313 -4.8336 4.60347 0
M  V30 5763 H 528.583 -0.723937 0.158104 0
M  V30 5764 H 531.23 -1.5923 1.06387 0
M  V30 5765 H 529.535 -3.91624 -0.117452 0
M  V30 5766 H 531.232 -4.00126 0.26454 0
M  V30 5767 H 527.822 -3.93586 1.69671 0
M  V30 5768 H 532.006 -4.20224 2.64056 0
M  V30 5769 H 527.262 -4.63655 3.9854 0
M  V30 5770 H 531.436 -4.91631 4.93226 0
M  V30 5771 H 529.063 -5.1303 5.60985 0
M  V30 5772 N 530.638 -0.59345 -1.46 0
M  V30 5773 C 531.885 -0.0831523 -2.02329 0
M  V30 5774 C 532.213 1.28093 -1.46364 0
M  V30 5775 O 531.468 1.85526 -0.622793 0
M  V30 5776 C 531.767 0.021178 -3.57394 0
M  V30 5777 C 531.433 -1.27671 -4.32448 0
M  V30 5778 C 530.095 -1.63227 -4.5267 0
M  V30 5779 C 532.447 -2.13511 -4.7546 0
M  V30 5780 C 529.775 -2.84401 -5.1316 0
M  V30 5781 C 532.127 -3.33922 -5.37289 0
M  V30 5782 C 530.791 -3.69747 -5.55737 0
M  V30 5783 H 530.061 -0.0304276 -0.740375 0
M  V30 5784 H 532.708 -0.772239 -1.75239 0
M  V30 5785 H 531.013 0.793454 -3.83682 0
M  V30 5786 H 532.71 0.431942 -3.98667 0
M  V30 5787 H 529.3 -0.989937 -4.17011 0
M  V30 5788 H 533.484 -1.87344 -4.59582 0
M  V30 5789 H 528.74 -3.12282 -5.25633 0
M  V30 5790 H 532.914 -4.00698 -5.69574 0
M  V30 5791 H 530.541 -4.6373 -6.02377 0
M  V30 5792 N 532.116 1.54067 -0.331816 0
M  V30 5793 C 533.362 2.01012 0.268667 0
M  V30 5794 C 533.695 1.2195 1.51136 0
M  V30 5795 O 532.97 0.303972 1.9211 0
M  V30 5796 C 533.253 3.55158 0.59456 0
M  V30 5797 C 533.106 4.4494 -0.659409 0
M  V30 5798 C 534.425 4.16939 1.4089 0
M  V30 5799 H 531.544 0.730698 0.0961756 0
M  V30 5800 H 534.186 1.84593 -0.450031 0
M  V30 5801 H 532.336 3.6928 1.20685 0
M  V30 5802 H 534.008 4.42675 -1.29756 0
M  V30 5803 H 532.251 4.1428 -1.28665 0
M  V30 5804 H 532.922 5.50643 -0.386804 0
M  V30 5805 H 535.398 4.06443 0.891272 0
M  V30 5806 H 534.274 5.24889 1.60569 0
M  V30 5807 H 534.535 3.70798 2.40752 0
M  V30 5808 N 533.594 0.0601682 1.57485 0
M  V30 5809 C 534.542 -0.928899 2.13247 0
M  V30 5810 C 535.536 -1.31616 1.06647 0
M  V30 5811 O 536.742 -1.29476 1.25043 0
M  V30 5812 H 533.117 -0.317455 0.681708 0
M  V30 5813 H 535.088 -0.433566 2.95233 0
M  V30 5814 C 533.837 -2.19121 2.69965 0
M  V30 5815 H 533.16 -1.90204 3.51657 0
M  V30 5816 H 534.6 -2.86465 3.12592 0
M  V30 5817 C 533.059 -2.94195 1.64168 0
M  V30 5818 O 533.589 -3.87468 1.05978 0
M  V30 5819 N 531.795 -2.57089 1.35476 0
M  V30 5820 H 531.342 -1.81314 1.82984 0
M  V30 5821 H 531.3 -3.07624 0.649196 0
M  V30 5822 N 535.072 -1.5615 -0.213296 0
M  V30 5823 C 536.483 -1.69645 -0.779582 0
M  V30 5824 C 536.834 -0.663615 -1.84636 0
M  V30 5825 O 535.959 0.183633 -2.15619 0
M  V30 5826 C 536.554 -3.07567 -1.42084 0
M  V30 5827 C 535.113 -3.22889 -1.93442 0
M  V30 5828 C 534.26 -2.65581 -0.797612 0
M  V30 5829 H 537.211 -1.58696 0.0114951 0
M  V30 5830 H 537.232 -3.03884 -2.28986 0
M  V30 5831 H 536.744 -3.82716 -0.644187 0
M  V30 5832 H 534.845 -2.52623 -2.73884 0
M  V30 5833 H 534.958 -4.30197 -2.10872 0
M  V30 5834 H 533.322 -2.24278 -1.20712 0
M  V30 5835 H 534.105 -3.43284 -0.033494 0
M  V30 5836 N 536.55 0.480323 -1.50102 0
M  V30 5837 C 537.798 1.23063 -1.60312 0
M  V30 5838 C 538.119 1.92659 -0.301226 0
M  V30 5839 O 537.389 1.83691 0.680753 0
M  V30 5840 H 535.969 0.457231 -0.590719 0
M  V30 5841 H 538.631 0.554893 -1.86834 0
M  V30 5842 H 537.727 1.9835 -2.40964 0
M  V30 5843 N 538.028 1.39524 0.732853 0
M  V30 5844 C 538.938 1.40695 1.87729 0
M  V30 5845 C 539.954 0.301496 1.71368 0
M  V30 5846 O 541.13 0.543313 1.93933 0
M  V30 5847 C 538.195 1.25098 3.23344 0
M  V30 5848 C 537.256 2.45634 3.52083 0
M  V30 5849 C 536.489 2.30772 4.81228 0
M  V30 5850 O 536.712 1.31233 5.55098 0
M  V30 5851 O 535.646 3.19799 5.09914 0
M  V30 5852 H 539.472 2.37168 1.89697 0
M  V30 5853 H 537.057 1.20663 0.880959 0
M  V30 5854 H 538.939 1.18541 4.04383 0
M  V30 5855 H 537.614 0.317209 3.22142 0
M  V30 5856 H 536.521 2.57767 2.71122 0
M  V30 5857 H 537.854 3.37712 3.58066 0
M  V30 5858 N 539.506 -0.963266 1.24736 0
M  V30 5859 C 540.783 -1.68248 0.9976 0
M  V30 5860 C 541.163 -2.05599 -0.478776 0
M  V30 5861 O 540.511 -1.7626 -1.45412 0
M  V30 5862 C 540.721 -2.91118 1.92487 0
M  V30 5863 C 542.069 -3.63261 2.19833 0
M  V30 5864 O 543.093 -3.01184 1.90176 0
M  V30 5865 O 541.952 -4.75019 2.7022 0
M  V30 5866 H 539.046 -0.735744 0.377637 0
M  V30 5867 H 541.592 -1.01696 1.35853 0
M  V30 5868 H 540.364 -2.60242 2.92215 0
M  V30 5869 H 539.987 -3.65402 1.56738 0
M  V30 5870 N 540.985 -1.06182 -1.16461 0
M  V30 5871 C 541.895 -0.682671 -2.24448 0
M  V30 5872 C 542.911 0.30078 -1.71381 0
M  V30 5873 O 544.087 0.150376 -2.00838 0
M  V30 5874 C 541.152 -0.0737202 -3.46622 0
M  V30 5875 C 540.213 -1.10889 -4.14731 0
M  V30 5876 C 539.446 -0.528908 -5.31073 0
M  V30 5877 O 539.669 0.65868 -5.66584 0
M  V30 5878 O 538.603 -1.26805 -5.88391 0
M  V30 5879 H 542.429 -1.58291 -2.59187 0
M  V30 5880 H 540.014 -0.834013 -1.23954 0
M  V30 5881 H 541.896 0.264192 -4.20571 0
M  V30 5882 H 540.571 0.800015 -3.13658 0
M  V30 5883 H 539.478 -1.49896 -3.42756 0
M  V30 5884 H 540.811 -1.95412 -4.51747 0
M  V30 5885 N 542.463 1.3308 -0.844243 0
M  V30 5886 C 543.709 1.97898 -0.443206 0
M  V30 5887 C 544.042 1.66699 0.99625 0
M  V30 5888 O 543.317 0.949704 1.69738 0
M  V30 5889 C 543.6 3.53801 -0.670606 0
M  V30 5890 C 543.453 3.94667 -2.15772 0
M  V30 5891 C 544.772 4.39936 -0.120226 0
M  V30 5892 H 541.891 0.718861 -0.162504 0
M  V30 5893 H 544.533 1.57633 -1.06075 0
M  V30 5894 H 542.683 3.88229 -0.14496 0
M  V30 5895 H 544.355 3.70469 -2.74865 0
M  V30 5896 H 542.598 3.44203 -2.6402 0
M  V30 5897 H 543.269 5.03275 -2.26757 0
M  V30 5898 H 545.745 4.12183 -0.5696 0
M  V30 5899 H 544.621 5.4803 -0.308984 0
M  V30 5900 H 544.882 4.31184 0.976347 0
M  V30 5901 N 543.941 0.601185 1.45683 0
M  V30 5902 C 545.166 0.0982245 2.07167 0
M  V30 5903 C 545.591 -1.20546 1.44396 0
M  V30 5904 O 544.949 -1.73247 0.534347 0
M  V30 5905 C 544.997 -0.0346976 3.60583 0
M  V30 5906 O 544.101 -1.08657 3.97828 0
M  V30 5907 H 543.442 0.0711618 0.660176 0
M  V30 5908 H 545.972 0.829376 1.87036 0
M  V30 5909 H 545.982 -0.234969 4.07323 0
M  V30 5910 H 544.657 0.917265 4.05659 0
M  V30 5911 H 543.234 -0.863275 3.6277 0
M  V30 5912 N 545.419 -1.53889 0.339982 0
M  V30 5913 C 546.835 -1.59595 -0.0120752 0
M  V30 5914 C 547.035 -1.35605 -1.49042 0
M  V30 5915 O 546.091 -1.14856 -2.24865 0
M  V30 5916 C 547.404 -2.9774 0.420898 0
M  V30 5917 C 548.952 -3.1077 0.37294 0
M  V30 5918 C 549.427 -4.51286 0.781327 0
M  V30 5919 N 550.918 -4.57325 0.735374 0
M  V30 5920 C 551.653 -5.64194 1.02336 0
M  V30 5921 N 551.149 -6.7893 1.37933 0
M  V30 5922 N 552.942 -5.54051 0.947838 0
M  V30 5923 H 545.093 -1.67738 1.30299 0
M  V30 5924 H 547.356 -0.785385 0.530918 0
M  V30 5925 H 547.062 -3.20349 1.45152 0
M  V30 5926 H 546.936 -3.76639 -0.205721 0
M  V30 5927 H 549.323 -2.87886 -0.648505 0
M  V30 5928 H 549.404 -2.33939 1.03472 0
M  V30 5929 H 549.048 -4.74905 1.80077 0
M  V30 5930 H 548.978 -5.26511 0.0970679 0
M  V30 5931 H 551.469 -3.74931 0.472773 0
M  V30 5932 H 551.782 -7.56392 1.58402 0
M  V30 5933 H 550.127 -6.80386 1.41774 0
M  V30 5934 H 553.318 -4.63293 0.669115 0
M  V30 5935 H 553.491 -6.37246 1.17563 0
M  V30 5936 N 546.897 -0.0685191 -1.57451 0
M  V30 5937 C 548.143 0.602239 -1.93652 0
M  V30 5938 C 548.476 1.6946 -0.948526 0
M  V30 5939 O 547.751 1.94487 0.022782 0
M  V30 5940 C 548.034 1.18223 -3.4014 0
M  V30 5941 C 547.887 0.0967431 -4.49696 0
M  V30 5942 C 549.206 2.08872 -3.87377 0
M  V30 5943 H 546.325 0.217453 -0.70419 0
M  V30 5944 H 548.967 -0.133821 -1.89528 0
M  V30 5945 H 547.117 1.80953 -3.43785 0
M  V30 5946 H 548.789 -0.536155 -4.58174 0
M  V30 5947 H 547.032 -0.573063 -4.29998 0
M  V30 5948 H 547.703 0.542894 -5.49324 0
M  V30 5949 H 550.179 1.56081 -3.85717 0
M  V30 5950 H 549.055 2.46389 -4.90493 0
M  V30 5951 H 549.316 2.99572 -3.25129 0
M  V30 5952 N 548.375 1.56261 0.205012 0
M  V30 5953 C 549.621 1.80306 0.9283 0
M  V30 5954 C 549.954 0.640932 1.83319 0
M  V30 5955 O 549.229 -0.359032 1.91158 0
M  V30 5956 C 549.512 3.14547 1.75306 0
M  V30 5957 C 549.365 4.41236 0.873562 0
M  V30 5958 C 550.684 3.45382 2.72762 0
M  V30 5959 H 547.803 0.655929 0.336044 0
M  V30 5960 H 550.445 1.88984 0.196211 0
M  V30 5961 H 548.595 3.0728 2.37721 0
M  V30 5962 H 550.267 4.60539 0.264887 0
M  V30 5963 H 548.51 4.33427 0.179773 0
M  V30 5964 H 549.181 5.31639 1.48541 0
M  V30 5965 H 551.657 3.52884 2.20481 0
M  V30 5966 H 550.533 4.40449 3.2756 0
M  V30 5967 H 550.794 2.68377 3.51321 0
M  V30 5968 N 549.853 -0.472356 1.50355 0
M  V30 5969 C 551.1 -1.22453 1.61281 0
M  V30 5970 C 551.428 -1.91972 0.31256 0
M  V30 5971 O 550.683 -1.82696 -0.701475 0
M  V30 5972 C 550.982 -2.29257 2.74182 0
M  V30 5973 C 550.648 -1.76999 4.14708 0
M  V30 5974 C 549.31 -1.62467 4.52944 0
M  V30 5975 C 551.662 -1.38215 5.0254 0
M  V30 5976 C 548.99 -1.07574 5.76754 0
M  V30 5977 C 551.342 -0.847638 6.26895 0
M  V30 5978 C 550.006 -0.688946 6.63935 0
M  V30 5979 H 549.276 -0.448087 0.590168 0
M  V30 5980 H 551.923 -0.520744 1.84284 0
M  V30 5981 H 550.228 -3.05538 2.45263 0
M  V30 5982 H 551.925 -2.87212 2.7984 0
M  V30 5983 H 548.515 -1.89276 3.84542 0
M  V30 5984 H 552.699 -1.48276 4.73633 0
M  V30 5985 H 547.955 -0.940237 6.04127 0
M  V30 5986 H 552.129 -0.538455 6.94315 0
M  V30 5987 H 549.756 -0.261435 7.5975 0
M  V30 5988 N 551.331 -1.39911 -0.725443 0
M  V30 5989 C 552.58 -1.36963 -1.48068 0
M  V30 5990 C 552.893 0.0284478 -1.95579 0
M  V30 5991 O 554.099 0.180535 -2.70899 0
M  V30 5992 C 552.555 -2.40664 -2.67598 0
M  V30 5993 C 552.163 -3.86234 -2.26997 0
M  V30 5994 C 553.907 -2.46807 -3.45379 0
M  V30 5995 C 551.814 -4.81554 -3.43307 0
M  V30 5996 H 550.744 -0.509223 -0.556065 0
M  V30 5997 H 553.395 -1.65602 -0.790454 0
M  V30 5998 H 551.777 -2.05109 -3.38742 0
M  V30 5999 H 552.951 -4.3088 -1.63337 0
M  V30 6000 H 551.266 -3.83475 -1.62284 0
M  V30 6001 H 553.863 -3.15213 -4.31909 0
M  V30 6002 H 554.206 -1.49552 -3.8851 0
M  V30 6003 H 554.739 -2.81303 -2.81271 0
M  V30 6004 H 551.478 -5.80106 -3.05217 0
M  V30 6005 H 550.998 -4.4158 -4.05915 0
M  V30 6006 H 552.677 -5.0091 -4.0951 0
M  V30 6007 N 552.809 0.956637 -1.25245 0
M  V30 6008 C 554.039 1.7332 -1.12445 0
M  V30 6009 C 554.447 1.86392 0.324732 0
M  V30 6010 O 553.79 1.35967 1.23526 0
M  V30 6011 C 553.852 3.16603 -1.70303 0
M  V30 6012 C 553.516 3.26966 -3.19284 0
M  V30 6013 C 554.513 3.11434 -4.16299 0
M  V30 6014 C 552.198 3.50851 -3.59456 0
M  V30 6015 C 554.192 3.1963 -5.51467 0
M  V30 6016 C 551.879 3.58684 -4.94761 0
M  V30 6017 C 552.877 3.43087 -5.90576 0
M  V30 6018 O 552.565 3.50598 -7.2342 0
M  V30 6019 H 552.297 0.549981 -0.393061 0
M  V30 6020 H 554.851 1.20892 -1.66055 0
M  V30 6021 H 553.081 3.70385 -1.11138 0
M  V30 6022 H 554.77 3.76109 -1.52632 0
M  V30 6023 H 555.536 2.92853 -3.86604 0
M  V30 6024 H 551.415 3.62053 -2.85375 0
M  V30 6025 H 554.959 3.07373 -6.26233 0
M  V30 6026 H 550.856 3.76782 -5.24124 0
M  V30 6027 H 551.624 3.67242 -7.31489 0
M  V30 6028 N 554.287 1.06798 1.15896 0
M  V30 6029 C 555.534 0.787767 1.86549 0
M  V30 6030 C 555.862 -0.685959 1.82002 0
M  V30 6031 O 555.117 -1.5188 1.23414 0
M  V30 6032 C 555.416 1.23414 3.35416 0
M  V30 6033 C 555.082 2.71285 3.6016 0
M  V30 6034 C 553.744 3.11676 3.66622 0
M  V30 6035 C 556.096 3.6676 3.7032 0
M  V30 6036 C 553.424 4.4637 3.8075 0
M  V30 6037 C 555.776 5.01209 3.8597 0
M  V30 6038 C 554.44 5.41229 3.90676 0
M  V30 6039 H 553.71 0.288264 0.682631 0
M  V30 6040 H 556.357 1.338 1.37003 0
M  V30 6041 H 554.662 0.60319 3.87129 0
M  V30 6042 H 556.359 0.994298 3.88477 0
M  V30 6043 H 552.949 2.39015 3.55767 0
M  V30 6044 H 557.133 3.36685 3.64633 0
M  V30 6045 H 552.389 4.76855 3.82648 0
M  V30 6046 H 556.563 5.75067 3.92773 0
M  V30 6047 H 554.19 6.45602 4.01375 0
M  V30 6048 N 555.766 -1.3263 0.851289 0
M  V30 6049 C 556.714 -2.30882 0.282202 0
M  V30 6050 C 557.708 -1.58697 -0.592589 0
M  V30 6051 O 558.914 -1.73461 -0.480768 0
M  V30 6052 H 555.289 -0.748492 0.0725487 0
M  V30 6053 H 557.26 -2.76374 1.12516 0
M  V30 6054 C 556.009 -3.43828 -0.517449 0
M  V30 6055 H 555.332 -3.99532 0.146392 0
M  V30 6056 H 556.772 -4.1474 -0.88128 0
M  V30 6057 C 555.231 -2.90786 -1.70133 0
M  V30 6058 O 555.761 -2.88 -2.80034 0
M  V30 6059 N 553.967 -2.4723 -1.52728 0
M  V30 6060 H 553.514 -2.49695 -0.633257 0
M  V30 6061 H 553.472 -2.12094 -2.32085 0
M  V30 6062 N 557.244 -0.608902 -1.45362 0
M  V30 6063 C 558.469 -0.10921 -2.07112 0
M  V30 6064 C 558.894 1.19779 -1.45033 0
M  V30 6065 O 558.252 1.72961 -0.543527 0
M  V30 6066 C 558.3 0.0155745 -3.60597 0
M  V30 6067 O 557.404 1.06546 -3.98399 0
M  V30 6068 H 556.745 -0.0746619 -0.659789 0
M  V30 6069 H 559.275 -0.839283 -1.86594 0
M  V30 6070 H 559.285 0.213364 -4.07442 0
M  V30 6071 H 557.96 -0.938765 -4.05167 0
M  V30 6072 H 556.537 0.844024 -3.63223 0
M  V30 6073 N 558.722 1.53707 -0.348139 0
M  V30 6074 C 559.969 2.00988 0.246966 0
M  V30 6075 C 560.297 1.23586 1.50189 0
M  V30 6076 O 559.552 0.312817 1.93184 0
M  V30 6077 C 559.851 3.52292 0.602061 0
M  V30 6078 C 559.517 4.47453 -0.556509 0
M  V30 6079 C 558.179 4.73188 -0.874446 0
M  V30 6080 C 560.531 5.03851 -1.33354 0
M  V30 6081 C 557.859 5.52577 -1.9717 0
M  V30 6082 C 560.211 5.84437 -2.42108 0
M  V30 6083 C 558.875 6.08465 -2.74456 0
M  V30 6084 H 558.145 0.735469 0.0903712 0
M  V30 6085 H 560.792 1.85464 -0.477001 0
M  V30 6086 H 559.097 3.65672 1.40681 0
M  V30 6087 H 560.794 3.86337 1.07447 0
M  V30 6088 H 557.384 4.27558 -0.298652 0
M  V30 6089 H 561.568 4.8393 -1.10117 0
M  V30 6090 H 556.824 5.69418 -2.22651 0
M  V30 6091 H 560.998 6.27151 -3.02745 0
M  V30 6092 H 558.625 6.69768 -3.59604 0
M  V30 6093 N 560.2 0.0768682 1.57412 0
M  V30 6094 C 561.13 -0.886026 2.16037 0
M  V30 6095 C 562.111 -1.30691 1.08876 0
M  V30 6096 O 563.296 -1.37705 1.36934 0
M  V30 6097 C 560.426 -2.1518 2.72608 0
M  V30 6098 C 559.38 -1.87015 3.8498 0
M  V30 6099 C 558.706 -3.20266 4.28175 0
M  V30 6100 C 560.006 -1.17143 5.08994 0
M  V30 6101 H 561.7 -0.397642 2.96748 0
M  V30 6102 H 559.246 -0.189823 1.42743 0
M  V30 6103 H 561.199 -2.82962 3.12266 0
M  V30 6104 H 559.923 -2.66269 1.89125 0
M  V30 6105 H 558.582 -1.21636 3.45833 0
M  V30 6106 H 558.23 -3.69207 3.41607 0
M  V30 6107 H 557.93 -3.0221 5.03927 0
M  V30 6108 H 559.454 -3.89237 4.70454 0
M  V30 6109 H 560.868 -1.75003 5.45937 0
M  V30 6110 H 559.265 -1.09328 5.90057 0
M  V30 6111 H 560.335 -0.151295 4.84664 0
M  V30 6112 N 561.678 -1.56367 -0.196722 0
M  V30 6113 C 562.588 -1.97617 -1.2643 0
M  V30 6114 C 563.604 -0.883598 -1.49895 0
M  V30 6115 O 564.78 -1.18921 -1.62541 0
M  V30 6116 C 561.845 -2.30595 -2.58895 0
M  V30 6117 C 560.906 -3.53551 -2.43516 0
M  V30 6118 C 560.139 -3.84946 -3.69665 0
M  V30 6119 O 560.362 -3.17655 -4.73763 0
M  V30 6120 O 559.296 -4.78379 -3.65291 0
M  V30 6121 H 563.122 -2.88648 -0.944233 0
M  V30 6122 H 560.707 -1.43901 -0.401592 0
M  V30 6123 H 562.589 -2.52889 -3.37083 0
M  V30 6124 H 561.264 -1.42732 -2.90533 0
M  V30 6125 H 560.171 -3.36507 -1.63445 0
M  V30 6126 H 561.504 -4.41875 -2.16812 0
M  V30 6127 N 563.156 0.464375 -1.50603 0
M  V30 6128 C 564.381 1.24372 -1.65971 0
M  V30 6129 C 564.806 1.84901 -0.345453 0
M  V30 6130 O 564.164 1.67596 0.691457 0
M  V30 6131 C 564.212 2.32331 -2.7578 0
M  V30 6132 O 563.316 3.37146 -2.375 0
M  V30 6133 H 562.657 0.365604 -0.554283 0
M  V30 6134 H 565.187 0.55183 -1.97018 0
M  V30 6135 H 565.197 2.77539 -2.99059 0
M  V30 6136 H 563.872 1.87648 -3.71162 0
M  V30 6137 H 562.449 2.97602 -2.24694 0
M  V30 6138 N 564.634 1.40294 0.718013 0
M  V30 6139 C 565.881 1.3844 1.47786 0
M  V30 6140 C 566.209 -0.0140838 1.94495 0
M  V30 6141 O 565.464 -0.998165 1.68331 0
M  V30 6142 C 565.763 2.31814 2.72024 0
M  V30 6143 C 565.429 3.79117 2.44093 0
M  V30 6144 C 564.091 4.19249 2.36185 0
M  V30 6145 C 566.443 4.72212 2.20602 0
M  V30 6146 C 563.771 5.50516 2.02851 0
M  V30 6147 C 566.123 6.03775 1.88781 0
M  V30 6148 C 564.787 6.42953 1.79354 0
M  V30 6149 H 564.057 0.506588 0.540786 0
M  V30 6150 H 566.704 1.72929 0.822663 0
M  V30 6151 H 565.009 1.90501 3.42369 0
M  V30 6152 H 566.706 2.27664 3.30106 0
M  V30 6153 H 563.296 3.47318 2.51133 0
M  V30 6154 H 567.48 4.42026 2.25669 0
M  V30 6155 H 562.736 5.79776 1.94088 0
M  V30 6156 H 566.91 6.75428 1.69617 0
M  V30 6157 H 564.537 7.44584 1.53291 0
M  V30 6158 N 566.112 -0.949982 1.2575 0
M  V30 6159 C 567.044 -2.05088 1.02331 0
M  V30 6160 C 568.057 -1.62795 -0.0133247 0
M  V30 6161 O 569.246 -1.77067 0.225759 0
M  V30 6162 C 566.346 -3.34794 0.525924 0
M  V30 6163 C 565.519 -4.05903 1.62978 0
M  V30 6164 C 564.578 -5.1388 1.13196 0
M  V30 6165 O 563.604 -5.39072 1.82729 0
M  V30 6166 N 564.806 -5.80495 -0.0242926 0
M  V30 6167 H 567.571 -2.25747 1.97125 0
M  V30 6168 H 565.132 -1.11886 1.17018 0
M  V30 6169 H 567.124 -4.04312 0.177263 0
M  V30 6170 H 565.694 -3.10872 -0.328202 0
M  V30 6171 H 564.914 -3.3042 2.1498 0
M  V30 6172 H 566.202 -4.50166 2.37124 0
M  V30 6173 H 565.6 -5.62454 -0.605184 0
M  V30 6174 H 564.157 -6.51043 -0.313947 0
M  V30 6175 N 567.59 -1.07411 -1.15328 0
M  V30 6176 C 568.838 -0.796073 -1.85761 0
M  V30 6177 C 569.159 0.679864 -1.82764 0
M  V30 6178 O 568.429 1.49242 -1.269 0
M  V30 6179 H 567.009 -0.291495 -0.687779 0
M  V30 6180 H 569.671 -1.35799 -1.39802 0
M  V30 6181 H 568.767 -1.13114 -2.90881 0
M  V30 6182 N 569.068 1.32177 -0.85831 0
M  V30 6183 C 570.315 1.97125 -0.463484 0
M  V30 6184 C 570.643 1.67907 0.981705 0
M  V30 6185 O 569.898 0.961717 1.70439 0
M  V30 6186 C 570.197 3.51372 -0.653658 0
M  V30 6187 C 569.863 4.00584 -2.06987 0
M  V30 6188 C 568.525 4.13733 -2.4572 0
M  V30 6189 C 570.877 4.26624 -2.99402 0
M  V30 6190 C 568.205 4.50268 -3.76132 0
M  V30 6191 C 570.557 4.64618 -4.29316 0
M  V30 6192 C 569.221 4.75975 -4.67979 0
M  V30 6193 H 568.491 0.72133 -0.169601 0
M  V30 6194 H 571.138 1.57517 -1.08907 0
M  V30 6195 H 569.443 3.91761 0.0551328 0
M  V30 6196 H 571.14 3.99655 -0.328163 0
M  V30 6197 H 567.73 3.90837 -1.75911 0
M  V30 6198 H 571.914 4.1597 -2.70708 0
M  V30 6199 H 567.17 4.57256 -4.05865 0
M  V30 6200 H 571.344 4.83722 -5.00985 0
M  V30 6201 H 568.971 5.04041 -5.69076 0
M  V30 6202 N 570.547 0.616602 1.45037 0
M  V30 6203 C 571.794 0.115331 2.02171 0
M  V30 6204 C 572.122 -1.25748 1.48383 0
M  V30 6205 O 571.377 -1.84511 0.652229 0
M  V30 6206 C 571.676 0.0356829 3.57382 0
M  V30 6207 C 571.342 1.34535 4.30362 0
M  V30 6208 C 570.004 1.70408 4.50016 0
M  V30 6209 C 572.356 2.21049 4.72003 0
M  V30 6210 C 569.684 2.92529 5.0857 0
M  V30 6211 C 572.036 3.42427 5.31908 0
M  V30 6212 C 570.7 3.78541 5.49784 0
M  V30 6213 H 569.97 0.0422024 0.739797 0
M  V30 6214 H 572.617 0.80002 1.73988 0
M  V30 6215 H 570.922 -0.732314 3.84895 0
M  V30 6216 H 572.619 -0.368463 3.99304 0
M  V30 6217 H 569.209 1.05615 4.15383 0
M  V30 6218 H 573.393 1.94632 4.56544 0
M  V30 6219 H 568.649 3.20605 5.20598 0
M  V30 6220 H 572.823 4.09709 5.63127 0
M  V30 6221 H 570.45 4.73255 5.94923 0
M  V30 6222 N 572.025 -1.5352 0.356285 0
M  V30 6223 C 573.271 -2.01414 -0.236653 0
M  V30 6224 C 573.604 -1.24339 -1.49176 0
M  V30 6225 O 572.879 -0.334496 -1.91602 0
M  V30 6226 C 573.162 -3.56059 -0.537982 0
M  V30 6227 C 573.015 -4.43835 0.730112 0
M  V30 6228 C 574.334 -4.19127 -1.34239 0
M  V30 6229 H 571.453 -0.732135 -0.0845386 0
M  V30 6230 H 574.095 -1.83854 0.479341 0
M  V30 6231 H 572.245 -3.71153 -1.14795 0
M  V30 6232 H 573.917 -4.40555 1.36782 0
M  V30 6233 H 572.16 -4.1218 1.3524 0
M  V30 6234 H 572.831 -5.49958 0.474358 0
M  V30 6235 H 575.307 -4.07809 -0.826498 0
M  V30 6236 H 574.183 -5.27378 -1.52198 0
M  V30 6237 H 574.444 -3.74581 -2.34822 0
M  V30 6238 N 573.503 -0.0852151 -1.57369 0
M  V30 6239 C 574.728 0.592872 -1.98746 0
M  V30 6240 C 575.153 1.61538 -0.963689 0
M  V30 6241 O 574.511 1.81168 0.069071 0
M  V30 6242 C 574.559 1.22599 -3.39119 0
M  V30 6243 O 573.663 2.34185 -3.39457 0
M  V30 6244 H 573.004 0.151314 -0.646529 0
M  V30 6245 H 575.534 -0.163703 -2.03944 0
M  V30 6246 H 575.544 1.56965 -3.76598 0
M  V30 6247 H 574.219 0.476831 -4.13158 0
M  V30 6248 H 572.796 2.01512 -3.13763 0
M  V30 6249 N 574.981 1.5647 0.188427 0
M  V30 6250 C 576.227 1.81281 0.909124 0
M  V30 6251 C 576.56 0.66034 1.82628 0
M  V30 6252 O 575.835 -0.338737 1.91528 0
M  V30 6253 C 576.118 3.16388 1.7196 0
M  V30 6254 C 575.971 4.42137 0.826714 0
M  V30 6255 C 577.29 3.48256 2.69083 0
M  V30 6256 H 574.409 0.659457 0.329068 0
M  V30 6257 H 577.051 1.89182 0.176156 0
M  V30 6258 H 575.201 3.09784 2.34448 0
M  V30 6259 H 576.873 4.60794 0.216025 0
M  V30 6260 H 575.116 4.33594 0.133792 0
M  V30 6261 H 575.787 5.33184 1.42893 0
M  V30 6262 H 578.263 3.55203 2.16726 0
M  V30 6263 H 577.139 4.43899 3.2287 0
M  V30 6264 H 577.4 2.72088 3.48455 0
M  V30 6265 N 576.459 -0.456382 1.50847 0
M  V30 6266 C 577.706 -1.20736 1.62571 0
M  V30 6267 C 578.034 -1.9163 0.332904 0
M  V30 6268 O 577.289 -1.8343 -0.682058 0
M  V30 6269 C 577.588 -2.26336 2.76599 0
M  V30 6270 C 577.254 -1.7259 4.16562 0
M  V30 6271 C 575.916 -1.57654 4.54641 0
M  V30 6272 C 578.268 -1.32877 5.03977 0
M  V30 6273 C 575.596 -1.0145 5.77862 0
M  V30 6274 C 577.948 -0.7811 6.27759 0
M  V30 6275 C 576.612 -0.618488 6.64628 0
M  V30 6276 H 575.882 -0.441803 0.594888 0
M  V30 6277 H 578.529 -0.501169 1.84826 0
M  V30 6278 H 576.834 -3.0292 2.48489 0
M  V30 6279 H 578.531 -2.84227 2.82871 0
M  V30 6280 H 575.121 -1.85187 3.86528 0
M  V30 6281 H 579.305 -1.43245 4.75179 0
M  V30 6282 H 574.561 -0.876109 6.0509 0
M  V30 6283 H 578.735 -0.464783 6.94847 0
M  V30 6284 H 576.362 -0.180838 7.59985 0
M  V30 6285 N 577.937 -1.40673 -0.710563 0
M  V30 6286 C 579.167 -1.4234 -1.49742 0
M  V30 6287 C 579.575 -0.022821 -1.89186 0
M  V30 6288 O 578.918 0.964773 -1.56326 0
M  V30 6289 C 578.98 -2.25509 -2.79975 0
M  V30 6290 C 578.644 -3.73862 -2.62824 0
M  V30 6291 C 579.641 -4.66379 -2.29752 0
M  V30 6292 C 577.326 -4.17735 -2.78932 0
M  V30 6293 C 579.32 -6.00756 -2.13006 0
M  V30 6294 C 577.007 -5.5218 -2.61802 0
M  V30 6295 C 578.005 -6.43505 -2.28888 0
M  V30 6296 O 577.693 -7.75472 -2.11894 0
M  V30 6297 H 577.425 -0.487311 -0.468513 0
M  V30 6298 H 579.979 -1.8542 -0.883668 0
M  V30 6299 H 578.209 -1.77218 -3.43701 0
M  V30 6300 H 579.898 -2.19058 -3.41714 0
M  V30 6301 H 580.664 -4.33778 -2.16936 0
M  V30 6302 H 576.543 -3.46967 -3.03537 0
M  V30 6303 H 580.087 -6.72003 -1.87237 0
M  V30 6304 H 575.984 -5.84365 -2.74204 0
M  V30 6305 H 576.752 -7.86458 -2.26775 0
M  V30 6306 N 579.415 0.9433 -1.26252 0
M  V30 6307 C 580.655 1.70397 -1.1289 0
M  V30 6308 C 581.019 1.89268 0.322713 0
M  V30 6309 O 582.22 2.62503 0.578418 0
M  V30 6310 C 580.491 3.04296 -1.87453 0
M  V30 6311 S 582.05 3.95475 -1.90119 0
M  V30 6312 H 578.868 0.585559 -0.403289 0
M  V30 6313 H 581.47 1.12424 -1.59941 0
M  V30 6314 H 580.174 2.8824 -2.9214 0
M  V30 6315 H 579.705 3.67327 -1.40835 0
M  V30 6316 H 581.72 4.86297 -0.986373 0
M  V30 6317 N 580.893 1.08022 1.14757 0
M  V30 6318 C 582.14 0.807509 1.85703 0
M  V30 6319 C 582.468 -0.666617 1.8272 0
M  V30 6320 O 581.723 -1.50562 1.25018 0
M  V30 6321 C 582.022 1.26964 3.34088 0
M  V30 6322 C 581.688 2.7509 3.57262 0
M  V30 6323 C 580.35 3.15547 3.63296 0
M  V30 6324 C 582.702 3.70667 3.66409 0
M  V30 6325 C 580.03 4.50384 3.75994 0
M  V30 6326 C 582.382 5.05274 3.80632 0
M  V30 6327 C 581.046 5.45342 3.84913 0
M  V30 6328 H 580.316 0.295488 0.679535 0
M  V30 6329 H 582.963 1.35245 1.35577 0
M  V30 6330 H 581.268 0.644216 3.86467 0
M  V30 6331 H 582.965 1.03544 3.87401 0
M  V30 6332 H 579.555 2.42775 3.53212 0
M  V30 6333 H 583.739 3.40533 3.61041 0
M  V30 6334 H 578.995 4.80886 3.77569 0
M  V30 6335 H 583.169 5.79201 3.86652 0
M  V30 6336 H 580.796 6.49823 3.94505 0
M  V30 6337 N 582.371 -1.3172 0.865308 0
M  V30 6338 C 583.301 -2.31109 0.333302 0
M  V30 6339 C 584.282 -1.60148 -0.573301 0
M  V30 6340 O 585.467 -1.87882 -0.491305 0
M  V30 6341 C 582.597 -3.44104 -0.470078 0
M  V30 6342 C 581.551 -4.26623 0.343021 0
M  V30 6343 C 580.877 -5.31482 -0.585756 0
M  V30 6344 C 582.177 -4.98001 1.57456 0
M  V30 6345 H 583.871 -2.75855 1.1638 0
M  V30 6346 H 581.417 -1.3262 0.561069 0
M  V30 6347 H 583.37 -4.12682 -0.852752 0
M  V30 6348 H 582.094 -2.98112 -1.33404 0
M  V30 6349 H 580.753 -3.59707 0.707583 0
M  V30 6350 H 580.401 -4.81741 -1.44686 0
M  V30 6351 H 580.101 -5.87582 -0.0456494 0
M  V30 6352 H 581.625 -6.0292 -0.965375 0
M  V30 6353 H 583.039 -5.59201 1.26359 0
M  V30 6354 H 581.436 -5.63876 2.05339 0
M  V30 6355 H 582.506 -4.25253 2.32997 0
M  V30 6356 N 583.85 -0.624285 -1.44708 0
M  V30 6357 C 584.798 0.0969952 -2.32398 0
M  V30 6358 C 585.792 0.842762 -1.46949 0
M  V30 6359 O 586.998 0.756436 -1.63334 0
M  V30 6360 H 583.373 0.0501306 -0.750327 0
M  V30 6361 H 585.344 -0.660767 -2.90992 0
M  V30 6362 C 584.093 1.06967 -3.30837 0
M  V30 6363 H 583.416 0.505242 -3.96595 0
M  V30 6364 H 584.856 1.54397 -3.94889 0
M  V30 6365 C 583.315 2.15153 -2.5925 0
M  V30 6366 O 583.845 3.23139 -2.3863 0
M  V30 6367 N 582.051 1.90898 -2.19103 0
M  V30 6368 H 581.598 1.03086 -2.36074 0
M  V30 6369 H 581.556 2.63485 -1.71531 0
M  V30 6370 N 585.328 1.53329 -0.364422 0
M  V30 6371 C 586.553 2.06132 0.229033 0
M  V30 6372 C 586.978 1.23625 1.41769 0
M  V30 6373 O 586.336 0.255038 1.79497 0
M  V30 6374 C 586.384 3.55544 0.60174 0
M  V30 6375 O 585.488 3.75771 1.69912 0
M  V30 6376 H 584.829 0.663148 0.0336213 0
M  V30 6377 H 587.359 1.97758 -0.524689 0
M  V30 6378 H 587.369 3.98549 0.873073 0
M  V30 6379 H 586.044 4.15039 -0.267421 0
M  V30 6380 H 584.621 3.44663 1.42343 0
M  V30 6381 N 586.806 0.0935595 1.57322 0
M  V30 6382 C 587.716 -0.880192 2.17462 0
M  V30 6383 C 588.732 -1.31135 1.14366 0
M  V30 6384 O 589.908 -1.37958 1.46729 0
M  V30 6385 C 586.973 -2.12184 2.74188 0
M  V30 6386 C 586.034 -1.74503 3.92234 0
M  V30 6387 C 585.267 -2.92748 4.46245 0
M  V30 6388 O 585.49 -4.07427 3.99198 0
M  V30 6389 O 584.424 -2.71303 5.37288 0
M  V30 6390 H 588.25 -0.398516 3.01074 0
M  V30 6391 H 585.835 -0.130707 1.48827 0
M  V30 6392 H 587.717 -2.84953 3.10451 0
M  V30 6393 H 586.392 -2.59407 1.93623 0
M  V30 6394 H 585.299 -0.989186 3.60785 0
M  V30 6395 H 586.632 -1.32044 4.74157 0
M  V30 6396 N 588.284 -1.56567 -0.180126 0
M  V30 6397 C 589.53 -1.81761 -0.899497 0
M  V30 6398 C 589.863 -0.670015 -1.82276 0
M  V30 6399 O 589.138 0.328575 -1.91705 0
M  V30 6400 C 589.421 -3.17296 -1.7028 0
M  V30 6401 C 589.274 -4.4257 -0.803255 0
M  V30 6402 C 590.593 -3.49678 -2.67233 0
M  V30 6403 H 587.712 -0.661192 -0.325567 0
M  V30 6404 H 590.354 -1.89272 -0.16612 0
M  V30 6405 H 588.504 -3.11023 -2.32802 0
M  V30 6406 H 590.176 -4.60902 -0.191585 0
M  V30 6407 H 588.419 -4.33658 -0.110796 0
M  V30 6408 H 589.09 -5.33935 -1.40064 0
M  V30 6409 H 591.566 -3.56347 -2.14839 0
M  V30 6410 H 590.442 -4.45605 -3.20511 0
M  V30 6411 H 590.703 -2.73932 -3.47007 0
M  V30 6412 N 589.762 0.448376 -1.51087 0
M  V30 6413 C 591.178 0.783984 -1.39017 0
M  V30 6414 C 591.378 1.96087 -0.463904 0
M  V30 6415 O 590.434 2.52357 0.0850534 0
M  V30 6416 C 591.747 1.07471 -2.80839 0
M  V30 6417 C 593.295 1.17981 -2.89913 0
M  V30 6418 C 593.77 1.50354 -4.32617 0
M  V30 6419 N 595.261 1.57301 -4.35673 0
M  V30 6420 C 595.996 1.839 -5.4311 0
M  V30 6421 N 595.492 2.08365 -6.60724 0
M  V30 6422 N 597.285 1.8559 -5.30578 0
M  V30 6423 H 589.436 -0.326881 -2.0987 0
M  V30 6424 H 591.699 -0.0838006 -0.944289 0
M  V30 6425 H 591.405 0.282768 -3.50561 0
M  V30 6426 H 591.279 2.00519 -3.19487 0
M  V30 6427 H 593.666 1.9624 -2.20395 0
M  V30 6428 H 593.747 0.228603 -2.54776 0
M  V30 6429 H 593.391 0.726273 -5.0268 0
M  V30 6430 H 593.321 2.46663 -4.65258 0
M  V30 6431 H 595.812 1.40342 -3.50874 0
M  V30 6432 H 596.125 2.27999 -7.38401 0
M  V30 6433 H 594.47 2.0571 -6.63859 0
M  V30 6434 H 597.661 1.65989 -4.37682 0
M  V30 6435 H 597.834 2.05983 -6.1439 0
M  V30 6436 N 591.24 1.41047 0.703093 0
M  V30 6437 C 592.465 1.43537 1.49706 0
M  V30 6438 C 592.89 0.0401853 1.88057 0
M  V30 6439 O 592.248 -0.954785 1.54122 0
M  V30 6440 C 592.296 2.3433 2.74084 0
M  V30 6441 O 591.4 1.79515 3.71279 0
M  V30 6442 H 590.741 0.487454 0.450871 0
M  V30 6443 H 593.271 1.85422 0.86486 0
M  V30 6444 H 593.281 2.49947 3.22476 0
M  V30 6445 H 591.956 3.35708 2.45506 0
M  V30 6446 H 590.533 1.7331 3.30179 0
M  V30 6447 N 592.718 -0.936591 1.26751 0
M  V30 6448 C 593.681 -2.01752 1.08761 0
M  V30 6449 C 594.681 -1.60763 0.0344435 0
M  V30 6450 O 595.871 -1.71963 0.278258 0
M  V30 6451 C 593.003 -3.34543 0.655271 0
M  V30 6452 H 594.196 -2.19143 2.04735 0
M  V30 6453 H 591.749 -1.11618 1.09413 0
M  V30 6454 H 592.484 -3.22851 -0.30626 0
M  V30 6455 H 592.269 -3.65647 1.41578 0
M  V30 6456 H 593.759 -4.13944 0.551378 0
M  V30 6457 N 594.196 -1.08629 -1.14182 0
M  V30 6458 C 595.445 -0.812271 -1.84621 0
M  V30 6459 C 595.758 0.664313 -1.83973 0
M  V30 6460 O 596.964 1.05357 -2.50224 0
M  V30 6461 C 595.42 -1.4031 -3.31423 0
M  V30 6462 C 595.028 -2.91164 -3.40481 0
M  V30 6463 C 596.772 -1.20767 -4.06959 0
M  V30 6464 C 594.679 -3.43373 -4.81507 0
M  V30 6465 H 593.609 -0.30019 -0.691666 0
M  V30 6466 H 596.26 -1.30798 -1.28701 0
M  V30 6467 H 594.642 -0.835096 -3.87094 0
M  V30 6468 H 595.816 -3.5412 -2.94848 0
M  V30 6469 H 594.131 -3.09646 -2.78403 0
M  V30 6470 H 596.728 -1.57237 -5.11058 0
M  V30 6471 H 597.071 -0.147664 -4.16038 0
M  V30 6472 H 597.604 -1.74274 -3.57594 0
M  V30 6473 H 594.343 -4.48958 -4.77616 0
M  V30 6474 H 593.863 -2.85176 -5.27669 0
M  V30 6475 H 595.542 -3.40095 -5.50404 0
M  V30 6476 N 595.674 1.31259 -0.872281 0
M  V30 6477 C 597.09 1.49283 -0.564521 0
M  V30 6478 C 597.29 1.80243 0.900807 0
M  V30 6479 O 596.346 1.88246 1.68284 0
M  V30 6480 C 597.659 2.62503 -1.46673 0
M  V30 6481 C 599.207 2.76386 -1.46901 0
M  V30 6482 C 599.682 3.92705 -2.35684 0
M  V30 6483 N 601.173 3.99995 -2.33577 0
M  V30 6484 C 601.908 4.89276 -2.98992 0
M  V30 6485 N 601.404 5.83443 -3.73585 0
M  V30 6486 N 603.197 4.82541 -2.88289 0
M  V30 6487 H 595.348 1.09432 -1.82039 0
M  V30 6488 H 597.611 0.540949 -0.77851 0
M  V30 6489 H 597.317 2.46407 -2.50951 0
M  V30 6490 H 597.191 3.58695 -1.16696 0
M  V30 6491 H 599.578 2.91894 -0.433796 0
M  V30 6492 H 599.659 1.80853 -1.80903 0
M  V30 6493 H 599.303 3.77954 -3.39283 0
M  V30 6494 H 599.233 4.87549 -1.99006 0
M  V30 6495 H 601.724 3.32624 -1.7936 0
M  V30 6496 H 602.037 6.48303 -4.20622 0
M  V30 6497 H 600.382 5.83415 -3.77694 0
M  V30 6498 H 603.573 4.07951 -2.2955 0
M  V30 6499 H 603.746 5.51916 -3.39549 0
M  V30 6500 N 597.152 0.631951 1.44375 0
M  V30 6501 C 598.099 -0.0724807 2.30686 0
M  V30 6502 C 599.069 -0.835975 1.43529 0
M  V30 6503 O 600.254 -0.816849 1.7243 0
M  V30 6504 C 597.394 -1.04753 3.28817 0
M  V30 6505 C 596.507 -0.282367 4.31076 0
M  V30 6506 C 595.642 -1.2493 5.163 0
M  V30 6507 C 594.681 -0.473349 6.10267 0
M  V30 6508 N 593.818 -1.39079 6.88187 0
M  V30 6509 H 598.658 0.669477 2.90383 0
M  V30 6510 H 596.195 0.341927 1.43071 0
M  V30 6511 H 598.153 -1.62623 3.842 0
M  V30 6512 H 596.783 -1.75661 2.70819 0
M  V30 6513 H 595.835 0.412268 3.78159 0
M  V30 6514 H 597.147 0.321955 4.9776 0
M  V30 6515 H 596.301 -1.89931 5.76204 0
M  V30 6516 H 595.04 -1.88755 4.49692 0
M  V30 6517 H 594.045 0.190142 5.49471 0
M  V30 6518 H 595.27 0.16019 6.78911 0
M  V30 6519 H 593.216 -2.01623 6.24247 0
M  V30 6520 H 593.133 -0.840513 7.51313 0
M  V30 6521 H 594.401 -2.02961 7.52613 0
M  V30 6522 N 598.631 -1.53133 0.372548 0
M  V30 6523 C 600.047 -1.59585 0.02178 0
M  V30 6524 C 600.247 -1.38736 -1.46132 0
M  V30 6525 O 599.303 -1.19599 -2.22379 0
M  V30 6526 C 600.616 -2.9678 0.483959 0
M  V30 6527 C 602.164 -3.09909 0.438775 0
M  V30 6528 C 602.639 -4.49527 0.876876 0
M  V30 6529 N 604.13 -4.55663 0.832214 0
M  V30 6530 C 604.865 -5.61896 1.14281 0
M  V30 6531 N 604.361 -6.75852 1.52303 0
M  V30 6532 N 606.154 -5.51916 1.06515 0
M  V30 6533 H 598.305 -1.64936 1.33827 0
M  V30 6534 H 600.568 -0.773947 0.547458 0
M  V30 6535 H 600.274 -3.17198 1.51915 0
M  V30 6536 H 600.148 -3.7699 -0.125784 0
M  V30 6537 H 602.535 -2.89197 -0.587294 0
M  V30 6538 H 602.616 -2.31691 1.0841 0
M  V30 6539 H 602.26 -4.70979 1.90109 0
M  V30 6540 H 602.19 -5.26186 0.208727 0
M  V30 6541 H 604.681 -3.73844 0.552195 0
M  V30 6542 H 604.994 -7.52862 1.7441 0
M  V30 6543 H 603.339 -6.77226 1.56175 0
M  V30 6544 H 606.53 -4.6177 0.767235 0
M  V30 6545 H 606.703 -6.34609 1.31053 0
M  V30 6546 N 600.109 -0.101901 -1.5727 0
M  V30 6547 C 601.355 0.554864 -1.95686 0
M  V30 6548 C 601.71 1.65368 -0.983415 0
M  V30 6549 O 601.003 1.91597 -0.0105374 0
M  V30 6550 C 601.197 1.14898 -3.38427 0
M  V30 6551 C 601.026 0.109251 -4.49567 0
M  V30 6552 C 599.796 -0.316633 -5.04307 0
M  V30 6553 C 601.994 -0.665196 -5.0998 0
M  V30 6554 N 599.976 -1.34393 -5.99009 0
M  V30 6555 C 601.347 -1.54413 -6.00464 0
M  V30 6556 C 603.402 -0.717966 -4.92696 0
M  V30 6557 C 602.105 -2.47122 -6.75517 0
M  V30 6558 C 604.131 -1.63268 -5.68417 0
M  V30 6559 C 603.493 -2.49923 -6.58572 0
M  V30 6560 H 599.592 0.17317 -0.762585 0
M  V30 6561 H 602.176 -0.18605 -1.93809 0
M  V30 6562 H 600.347 1.85969 -3.40984 0
M  V30 6563 H 602.079 1.76867 -3.64006 0
M  V30 6564 H 598.834 0.0724419 -4.73545 0
M  V30 6565 H 599.258 -1.85598 -6.51062 0
M  V30 6566 H 603.9 -0.0621637 -4.22754 0
M  V30 6567 H 601.618 -3.13724 -7.44717 0
M  V30 6568 H 605.204 -1.67874 -5.57054 0
M  V30 6569 H 604.084 -3.19553 -7.16139 0
M  V30 6570 N 601.587 1.56661 0.17182 0
M  V30 6571 C 602.537 1.92781 1.21736 0
M  V30 6572 C 603.521 0.796065 1.39827 0
M  V30 6573 O 604.713 1.05924 1.41806 0
M  V30 6574 C 601.842 2.29079 2.55691 0
M  V30 6575 C 600.928 3.48765 2.41296 0
M  V30 6576 N 601.319 4.66022 1.96614 0
M  V30 6577 C 599.617 3.53362 2.72124 0
M  V30 6578 C 600.318 5.48159 1.94669 0
M  V30 6579 N 599.294 4.89189 2.37054 0
M  V30 6580 H 603.096 2.80926 0.863592 0
M  V30 6581 H 600.61 1.57889 0.380096 0
M  V30 6582 H 602.607 2.5315 3.31241 0
M  V30 6583 H 601.267 1.42272 2.91871 0
M  V30 6584 H 602.278 4.9025 1.66959 0
M  V30 6585 H 598.955 2.77033 3.12345 0
M  V30 6586 H 600.345 6.52121 1.61826 0
M  V30 6587 N 603.065 -0.440357 1.51323 0
M  V30 6588 C 604.481 -0.7766 1.39431 0
M  V30 6589 C 604.681 -1.95838 0.474296 0
M  V30 6590 O 603.737 -2.52398 -0.0716692 0
M  V30 6591 C 605.05 -1.05981 2.81405 0
M  V30 6592 C 606.598 -1.16442 2.90534 0
M  V30 6593 C 607.073 -1.48058 4.33408 0
M  V30 6594 N 608.564 -1.54988 4.36501 0
M  V30 6595 C 609.299 -1.81017 5.44078 0
M  V30 6596 N 608.795 -2.04858 6.61819 0
M  V30 6597 N 610.588 -1.82774 5.31554 0
M  V30 6598 H 602.739 0.338006 2.09693 0
M  V30 6599 H 605.002 0.0888072 0.943831 0
M  V30 6600 H 604.708 -0.264173 3.50706 0
M  V30 6601 H 604.582 -1.98822 3.20546 0
M  V30 6602 H 606.969 -1.95068 2.21432 0
M  V30 6603 H 607.05 -0.215088 2.54894 0
M  V30 6604 H 606.694 -0.699605 5.03059 0
M  V30 6605 H 606.624 -2.44192 4.66559 0
M  V30 6606 H 609.115 -1.38479 3.51613 0
M  V30 6607 H 609.428 -2.2408 7.396 0
M  V30 6608 H 607.773 -2.02187 6.6494 0
M  V30 6609 H 610.964 -1.63665 4.38556 0
M  V30 6610 H 611.137 -2.02722 6.15474 0
M  V30 6611 N 604.543 -1.41418 -0.695603 0
M  V30 6612 C 605.789 -1.41983 -1.45645 0
M  V30 6613 C 606.144 -0.0282216 -1.92379 0
M  V30 6614 O 605.437 0.945916 -1.66622 0
M  V30 6615 C 605.631 -2.36112 -2.68302 0
M  V30 6616 C 605.46 -3.84288 -2.33566 0
M  V30 6617 C 604.23 -4.52971 -2.23932 0
M  V30 6618 C 606.428 -4.75264 -1.96543 0
M  V30 6619 N 604.41 -5.86276 -1.82081 0
M  V30 6620 C 605.781 -5.97517 -1.6545 0
M  V30 6621 C 607.836 -4.62911 -1.83352 0
M  V30 6622 C 606.539 -7.08793 -1.22492 0
M  V30 6623 C 608.565 -5.74149 -1.41799 0
M  V30 6624 C 607.927 -6.95501 -1.11617 0
M  V30 6625 H 604.026 -0.574771 -0.530247 0
M  V30 6626 H 606.61 -1.77289 -0.804788 0
M  V30 6627 H 604.781 -2.02902 -3.31188 0
M  V30 6628 H 606.513 -2.27397 -3.34773 0
M  V30 6629 H 603.268 -4.06909 -2.42327 0
M  V30 6630 H 603.692 -6.56926 -1.63638 0
M  V30 6631 H 608.334 -3.69588 -2.05341 0
M  V30 6632 H 606.052 -8.01982 -0.992482 0
M  V30 6633 H 609.638 -5.66595 -1.32143 0
M  V30 6634 H 608.518 -7.80114 -0.799493 0
M  V30 6635 N 606.021 0.929856 -1.27246 0
M  V30 6636 C 606.953 2.03434 -1.0558 0
M  V30 6637 C 607.966 1.62795 -0.0125762 0
M  V30 6638 O 609.155 1.76685 -0.2539 0
M  V30 6639 C 606.255 3.33915 -0.57912 0
M  V30 6640 C 605.428 4.03259 -1.69415 0
M  V30 6641 C 604.487 5.12014 -1.21357 0
M  V30 6642 O 603.513 5.36097 -1.91282 0
M  V30 6643 N 604.715 5.8046 -0.0680622 0
M  V30 6644 H 607.48 2.22583 -2.00691 0
M  V30 6645 H 605.041 1.1001 -1.18783 0
M  V30 6646 H 607.033 4.03978 -0.241563 0
M  V30 6647 H 605.603 3.11355 0.278703 0
M  V30 6648 H 604.823 3.26958 -2.20209 0
M  V30 6649 H 606.111 4.46337 -2.44255 0
M  V30 6650 H 605.509 5.63345 0.515626 0
M  V30 6651 H 604.066 6.51461 0.210332 0
M  V30 6652 N 607.499 1.09233 1.13605 0
M  V30 6653 C 608.776 0.739633 1.81077 0
M  V30 6654 C 609.156 -0.775595 1.96336 0
M  V30 6655 O 608.504 -1.69726 1.52988 0
M  V30 6656 C 608.714 1.47636 3.16235 0
M  V30 6657 C 610.062 1.64087 3.91613 0
M  V30 6658 O 611.086 1.43871 3.25852 0
M  V30 6659 O 609.945 1.97511 5.0956 0
M  V30 6660 H 607.039 0.265464 0.783236 0
M  V30 6661 H 609.585 1.19441 1.20549 0
M  V30 6662 H 608.357 2.50818 3.00344 0
M  V30 6663 H 607.98 1.01362 3.84462 0
M  V30 6664 N 608.977 -1.30795 0.87923 0
M  V30 6665 C 609.924 -2.28282 0.339968 0
M  V30 6666 C 610.894 -1.56134 -0.566685 0
M  V30 6667 O 612.079 -1.84231 -0.496338 0
M  V30 6668 C 609.219 -3.42225 -0.444501 0
M  V30 6669 C 608.332 -4.29204 0.490717 0
M  V30 6670 C 607.467 -5.30302 -0.308784 0
M  V30 6671 C 606.506 -6.08929 0.622272 0
M  V30 6672 N 605.643 -7.01957 -0.14155 0
M  V30 6673 H 610.483 -2.73794 1.17647 0
M  V30 6674 H 608.02 -1.34682 0.591527 0
M  V30 6675 H 609.978 -4.07038 -0.915186 0
M  V30 6676 H 608.608 -2.97799 -1.24562 0
M  V30 6677 H 607.66 -3.6475 1.07988 0
M  V30 6678 H 608.972 -4.84045 1.20425 0
M  V30 6679 H 608.126 -6.00835 -0.841575 0
M  V30 6680 H 606.865 -4.7614 -1.05556 0
M  V30 6681 H 605.87 -5.37278 1.16674 0
M  V30 6682 H 607.095 -6.65178 1.36804 0
M  V30 6683 H 605.041 -6.50192 -0.870966 0
M  V30 6684 H 604.958 -7.54261 0.51246 0
M  V30 6685 H 606.226 -7.76741 -0.655271 0
M  V30 6686 N 610.455 -0.639598 -1.44038 0
M  V30 6687 C 611.405 0.0823038 -2.27851 0
M  V30 6688 C 612.389 0.807991 -1.39141 0
M  V30 6689 O 613.581 0.692702 -1.62882 0
M  V30 6690 C 610.71 1.05742 -3.26609 0
M  V30 6691 C 609.796 0.330911 -4.22807 0
M  V30 6692 N 610.187 -0.645126 -5.01669 0
M  V30 6693 C 608.485 0.574214 -4.42288 0
M  V30 6694 C 609.186 -1.07513 -5.71678 0
M  V30 6695 N 608.162 -0.412164 -5.42035 0
M  V30 6696 H 611.964 -0.666861 -2.86234 0
M  V30 6697 H 609.478 -0.465777 -1.55577 0
M  V30 6698 H 611.475 1.58927 -3.85419 0
M  V30 6699 H 610.135 1.80679 -2.69787 0
M  V30 6700 H 611.146 -1.02329 -5.0769 0
M  V30 6701 H 607.823 1.30581 -3.96554 0
M  V30 6702 H 609.213 -1.88196 -6.45005 0
M  V30 6703 N 611.933 1.52934 -0.380664 0
M  V30 6704 C 613.158 2.06363 0.207157 0
M  V30 6705 C 613.583 1.25122 1.4045 0
M  V30 6706 O 612.941 0.274062 1.79217 0
M  V30 6707 C 612.989 3.56162 0.563996 0
M  V30 6708 O 612.093 3.77552 1.65917 0
M  V30 6709 H 611.434 0.663468 0.0265859 0
M  V30 6710 H 613.964 1.9719 -0.545635 0
M  V30 6711 H 613.974 3.99453 0.830752 0
M  V30 6712 H 612.649 4.14732 -0.311427 0
M  V30 6713 H 611.226 3.46154 1.3868 0
M  V30 6714 N 613.412 0.11024 1.57214 0
M  V30 6715 C 614.661 -0.549638 1.94067 0
M  V30 6716 C 614.974 -1.68388 0.995234 0
M  V30 6717 O 616.18 -2.40593 1.25807 0
M  V30 6718 C 614.636 -1.02912 3.44873 0
M  V30 6719 C 614.244 0.0761861 4.47935 0
M  V30 6720 C 615.988 -1.66087 3.9066 0
M  V30 6721 C 613.895 -0.419502 5.8991 0
M  V30 6722 H 612.825 -0.209092 0.724428 0
M  V30 6723 H 615.476 0.188683 1.82527 0
M  V30 6724 H 613.858 -1.82159 3.51616 0
M  V30 6725 H 615.032 0.852185 4.52851 0
M  V30 6726 H 613.347 0.614052 4.11847 0
M  V30 6727 H 615.944 -2.04272 4.94143 0
M  V30 6728 H 616.287 -2.53591 3.30148 0
M  V30 6729 H 616.82 -0.933959 3.86681 0
M  V30 6730 H 613.559 0.419277 6.54158 0
M  V30 6731 H 613.079 -1.16217 5.88433 0
M  V30 6732 H 614.758 -0.883577 6.40938 0
M  V30 6733 N 614.89 -1.56749 -0.16351 0
M  V30 6734 C 616.306 -1.51043 -0.515567 0
M  V30 6735 C 616.506 -0.815855 -1.84245 0
M  V30 6736 O 615.562 -0.379477 -2.49632 0
M  V30 6737 C 616.875 -2.95791 -0.541114 0
M  V30 6738 C 618.423 -3.0664 -0.627776 0
M  V30 6739 C 618.898 -4.52861 -0.684141 0
M  V30 6740 N 620.389 -4.5714 -0.746818 0
M  V30 6741 C 621.124 -5.67634 -0.811137 0
M  V30 6742 N 620.62 -6.8774 -0.835811 0
M  V30 6743 N 622.413 -5.55624 -0.850756 0
M  V30 6744 H 614.564 -2.00307 0.70645 0
M  V30 6745 H 616.827 -0.912876 0.255659 0
M  V30 6746 H 616.533 -3.49797 0.365329 0
M  V30 6747 H 616.407 -3.50858 -1.38487 0
M  V30 6748 H 618.794 -2.52663 -1.52464 0
M  V30 6749 H 618.875 -2.54645 0.242805 0
M  V30 6750 H 618.519 -5.07472 0.2085 0
M  V30 6751 H 618.449 -5.02621 -1.57098 0
M  V30 6752 H 620.94 -3.70669 -0.735717 0
M  V30 6753 H 621.253 -7.67701 -0.886279 0
M  V30 6754 H 619.598 -6.90334 -0.803958 0
M  V30 6755 H 622.789 -4.60709 -0.828535 0
M  V30 6756 H 622.962 -6.41756 -0.897418 0
M  V30 6757 N 616.368 0.432326 -1.51554 0
M  V30 6758 C 617.331 1.50765 -1.72634 0
M  V30 6759 C 618.331 1.49334 -0.596314 0
M  V30 6760 O 619.521 1.51268 -0.863925 0
M  V30 6761 C 616.653 2.90284 -1.7874 0
M  V30 6762 H 617.846 1.33377 -2.68609 0
M  V30 6763 H 615.399 0.661329 -1.4162 0
M  V30 6764 H 616.134 3.13071 -0.845977 0
M  V30 6765 H 615.919 2.92727 -2.6087 0
M  V30 6766 H 617.409 3.68282 -1.96871 0
M  V30 6767 N 617.846 1.41785 0.688094 0
M  V30 6768 C 619.262 1.24419 0.999608 0
M  V30 6769 C 619.462 0.138868 2.01021 0
M  V30 6770 O 618.518 -0.494283 2.47615 0
M  V30 6771 C 619.831 2.59625 1.51709 0
M  V30 6772 C 621.379 2.66869 1.63554 0
M  V30 6773 C 621.854 4.0241 2.18702 0
M  V30 6774 N 623.345 4.04295 2.26053 0
M  V30 6775 C 624.08 5.05977 2.69768 0
M  V30 6776 N 623.576 6.18047 3.13033 0
M  V30 6777 N 625.369 4.93336 2.69398 0
M  V30 6778 H 617.52 2.12392 0.0187427 0
M  V30 6779 H 619.783 0.945347 0.0708673 0
M  V30 6780 H 619.489 3.41297 0.849059 0
M  V30 6781 H 619.363 2.82628 2.49803 0
M  V30 6782 H 621.75 1.8555 2.29467 0
M  V30 6783 H 621.831 2.47668 0.639857 0
M  V30 6784 H 621.475 4.8418 1.53402 0
M  V30 6785 H 621.405 4.18955 3.19037 0
M  V30 6786 H 623.896 3.23383 1.9553 0
M  V30 6787 H 624.209 6.91498 3.45038 0
M  V30 6788 H 622.554 6.21572 3.10923 0
M  V30 6789 H 625.745 4.04865 2.34952 0
M  V30 6790 H 625.918 5.72717 3.03148 0
M  V30 6791 N 619.324 -0.923095 1.27737 0
M  V30 6792 C 620.57 -1.67375 1.14514 0
M  V30 6793 C 620.903 -1.91751 -0.307424 0
M  V30 6794 O 620.178 -1.51119 -1.22447 0
M  V30 6795 C 620.461 -3.03745 1.9342 0
M  V30 6796 C 620.314 -2.86581 3.46686 0
M  V30 6797 C 621.633 -4.04144 1.74228 0
M  V30 6798 H 618.752 -0.607427 0.417374 0
M  V30 6799 H 621.394 -1.07089 1.56946 0
M  V30 6800 H 619.544 -3.55204 1.5736 0
M  V30 6801 H 621.216 -2.42203 3.92601 0
M  V30 6802 H 619.459 -2.21829 3.72793 0
M  V30 6803 H 620.13 -3.83381 3.97143 0
M  V30 6804 H 622.606 -3.61712 2.05678 0
M  V30 6805 H 621.482 -4.97543 2.31824 0
M  V30 6806 H 621.743 -4.36661 0.691373 0
M  V30 6807 N 620.802 -1.09834 -1.13024 0
M  V30 6808 C 621.765 -0.745058 -2.16752 0
M  V30 6809 C 622.765 0.227435 -1.59183 0
M  V30 6810 O 623.955 0.0050786 -1.74199 0
M  V30 6811 C 621.087 -0.102543 -3.40746 0
M  V30 6812 H 622.28 -1.66375 -2.49518 0
M  V30 6813 H 619.833 -0.898061 -1.27924 0
M  V30 6814 H 620.568 0.827177 -3.13573 0
M  V30 6815 H 620.353 -0.80235 -3.83803 0
M  V30 6816 H 621.843 0.129082 -4.174 0
M  V30 6817 N 622.28 1.30327 -0.886154 0
M  V30 6818 C 623.696 1.48676 -0.580323 0
M  V30 6819 C 623.896 1.81189 0.881639 0
M  V30 6820 O 622.952 1.90021 1.66278 0
M  V30 6821 C 624.265 2.60932 -1.49449 0
M  V30 6822 C 625.813 2.74812 -1.49824 0
M  V30 6823 C 626.288 3.90183 -2.39836 0
M  V30 6824 N 627.779 3.97495 -2.37806 0
M  V30 6825 C 628.514 4.86078 -3.04165 0
M  V30 6826 N 628.01 5.79448 -3.79753 0
M  V30 6827 N 629.803 4.79456 -2.93391 0
M  V30 6828 H 621.954 1.07495 -1.8319 0
M  V30 6829 H 624.217 0.532661 -0.784204 0
M  V30 6830 H 623.923 2.43731 -2.5355 0
M  V30 6831 H 623.797 3.57437 -1.20494 0
M  V30 6832 H 626.184 2.91418 -0.464731 0
M  V30 6833 H 626.265 1.78924 -1.82811 0
M  V30 6834 H 625.909 3.74334 -3.43273 0
M  V30 6835 H 625.839 4.85411 -2.04166 0
M  V30 6836 H 628.33 3.30703 -1.82877 0
M  V30 6837 H 628.643 6.43805 -4.27475 0
M  V30 6838 H 626.988 5.79376 -3.8386 0
M  V30 6839 H 630.179 4.05494 -2.33864 0
M  V30 6840 H 630.352 5.48283 -3.45383 0
M  V30 6841 N 623.758 0.647228 1.43697 0
M  V30 6842 C 624.721 -0.0385101 2.29168 0
M  V30 6843 C 625.721 -0.756487 1.41894 0
M  V30 6844 O 626.911 -0.598641 1.63591 0
M  V30 6845 C 624.043 -1.06524 3.23829 0
M  V30 6846 H 625.236 0.713445 2.9129 0
M  V30 6847 H 622.789 0.408153 1.50877 0
M  V30 6848 H 623.524 -1.84664 2.66589 0
M  V30 6849 H 623.309 -0.554147 3.88164 0
M  V30 6850 H 624.799 -1.54432 3.87996 0
M  V30 6851 N 625.236 -1.5273 0.388769 0
M  V30 6852 C 626.169 -2.22861 -0.490752 0
M  V30 6853 C 627.147 -1.22912 -1.06449 0
M  V30 6854 O 628.331 -1.51896 -1.11624 0
M  V30 6855 C 625.458 -2.94141 -1.67925 0
M  V30 6856 C 624.504 -4.08355 -1.23081 0
M  V30 6857 S 625.337 -5.35077 -0.212786 0
M  V30 6858 C 626.493 -6.09879 -1.40708 0
M  V30 6859 H 626.726 -2.97115 0.104787 0
M  V30 6860 H 624.259 -1.53428 0.172956 0
M  V30 6861 H 626.217 -3.35818 -2.36085 0
M  V30 6862 H 624.878 -2.19568 -2.24608 0
M  V30 6863 H 624.071 -4.57328 -2.11818 0
M  V30 6864 H 623.673 -3.68688 -0.628121 0
M  V30 6865 H 625.965 -6.36018 -2.33424 0
M  V30 6866 H 626.908 -7.01586 -0.958271 0
M  V30 6867 H 627.316 -5.40646 -1.62364 0
M  V30 6868 N 626.714 -0.118576 -1.57153 0
M  V30 6869 C 627.939 0.550582 -1.99958 0
M  V30 6870 C 628.364 1.59458 -0.997736 0
M  V30 6871 O 627.722 1.81274 0.0306269 0
M  V30 6872 C 627.77 1.15379 -3.41643 0
M  V30 6873 O 626.874 2.26932 -3.44348 0
M  V30 6874 H 626.215 0.137567 -0.649593 0
M  V30 6875 H 628.745 -0.206926 -2.03551 0
M  V30 6876 H 628.755 1.48942 -3.79843 0
M  V30 6877 H 627.43 0.389087 -4.14076 0
M  V30 6878 H 626.007 1.94812 -3.17967 0
M  V30 6879 N 628.193 1.56834 0.155195 0
M  V30 6880 C 629.442 1.82088 0.867567 0
M  V30 6881 C 629.755 0.69849 1.82703 0
M  V30 6882 O 630.961 0.836407 2.58295 0
M  V30 6883 C 629.417 3.22707 1.59336 0
M  V30 6884 C 629.025 4.42859 0.676719 0
M  V30 6885 C 630.769 3.57242 2.293 0
M  V30 6886 C 628.676 5.74501 1.40367 0
M  V30 6887 H 627.606 0.679057 0.327715 0
M  V30 6888 H 630.257 1.83105 0.120351 0
M  V30 6889 H 628.639 3.16054 2.38591 0
M  V30 6890 H 629.813 4.60731 -0.0800196 0
M  V30 6891 H 628.128 4.16311 0.0859129 0
M  V30 6892 H 630.725 4.52847 2.84312 0
M  V30 6893 H 631.068 2.82901 3.05406 0
M  V30 6894 H 631.601 3.6552 1.56972 0
M  V30 6895 H 628.34 6.51915 0.684623 0
M  V30 6896 H 627.86 5.60579 2.13332 0
M  V30 6897 H 629.539 6.17016 1.94681 0
M  V30 6898 N 629.671 -0.424282 1.51781 0
M  V30 6899 C 631.082 -1.00368 1.57427 0
M  V30 6900 C 631.433 -1.91962 0.40558 0
M  V30 6901 O 630.558 -2.111 -0.47601 0
M  V30 6902 C 631.153 -1.82707 2.85313 0
M  V30 6903 C 629.712 -2.35675 2.93487 0
M  V30 6904 C 628.859 -1.1524 2.5222 0
M  V30 6905 H 631.81 -0.205064 1.5737 0
M  V30 6906 H 631.831 -2.68294 2.69812 0
M  V30 6907 H 631.343 -1.16017 3.70353 0
M  V30 6908 H 629.444 -3.05781 2.12906 0
M  V30 6909 H 629.557 -2.67578 3.97415 0
M  V30 6910 H 627.921 -1.50174 2.05718 0
M  V30 6911 H 628.704 -0.5014 3.39619 0
M  V30 6912 N 631.149 -1.42148 -0.680565 0
M  V30 6913 C 632.377 -1.45696 -1.46902 0
M  V30 6914 C 632.792 -0.0665858 -1.88683 0
M  V30 6915 O 632.149 0.917436 -1.57764 0
M  V30 6916 C 632.2 -2.37898 -2.72188 0
M  V30 6917 O 631.921 -3.71526 -2.32163 0
M  V30 6918 C 633.422 -2.50407 -3.65802 0
M  V30 6919 H 630.642 -0.495729 -0.45221 0
M  V30 6920 H 633.186 -1.866 -0.836709 0
M  V30 6921 H 631.341 -2.00263 -3.31622 0
M  V30 6922 H 631.755 -4.20849 -3.13027 0
M  V30 6923 H 633.229 -3.19056 -4.50452 0
M  V30 6924 H 633.706 -1.5401 -4.11312 0
M  V30 6925 H 634.312 -2.8874 -3.12265 0
M  V30 6926 N 632.627 0.916307 -1.28225 0
M  V30 6927 C 633.852 1.7043 -1.18188 0
M  V30 6928 C 634.277 1.86346 0.256274 0
M  V30 6929 O 633.635 1.37175 1.18544 0
M  V30 6930 C 633.683 3.07546 -1.88275 0
M  V30 6931 O 632.787 3.94904 -1.18848 0
M  V30 6932 H 632.128 0.521967 -0.410423 0
M  V30 6933 H 634.658 1.14589 -1.69501 0
M  V30 6934 H 634.668 3.57793 -1.96082 0
M  V30 6935 H 633.343 2.95279 -2.92887 0
M  V30 6936 H 631.92 3.53339 -1.19187 0
M  V30 6937 N 634.105 1.10431 1.1244 0
M  V30 6938 C 635.516 0.864439 1.65482 0
M  V30 6939 C 635.867 -0.60527 1.8663 0
M  V30 6940 O 634.992 -1.46492 1.59276 0
M  V30 6941 C 635.587 1.56267 3.0061 0
M  V30 6942 C 634.146 1.3695 3.50602 0
M  V30 6943 C 633.293 1.61209 2.25626 0
M  V30 6944 H 636.244 1.26203 0.962209 0
M  V30 6945 H 636.265 1.00166 3.67079 0
M  V30 6946 H 635.777 2.63231 2.85186 0
M  V30 6947 H 633.878 0.321481 3.71211 0
M  V30 6948 H 633.991 2.11143 4.30064 0
M  V30 6949 H 632.355 1.03482 2.32731 0
M  V30 6950 H 633.138 2.69425 2.12756 0
M  V30 6951 N 635.583 -1.29855 0.893053 0
M  V30 6952 C 636.811 -1.99976 0.530788 0
M  V30 6953 C 637.226 -1.66889 -0.882799 0
M  V30 6954 O 636.583 -0.910352 -1.58173 0
M  V30 6955 C 636.634 -3.54547 0.705587 0
M  V30 6956 O 636.355 -3.86458 2.06353 0
M  V30 6957 C 637.856 -4.41937 0.347387 0
M  V30 6958 H 635.076 -0.639129 0.204339 0
M  V30 6959 H 637.62 -1.65549 1.20057 0
M  V30 6960 H 635.775 -3.87311 0.0830685 0
M  V30 6961 H 636.189 -4.81146 2.08803 0
M  V30 6962 H 637.663 -5.4954 0.520557 0
M  V30 6963 H 638.14 -4.33339 -0.715139 0
M  V30 6964 H 638.746 -4.14633 0.946567 0
M  V30 6965 N 637.061 -0.65484 -1.43351 0
M  V30 6966 C 638.477 -0.32255 -1.56307 0
M  V30 6967 C 638.677 1.17324 -1.63821 0
M  V30 6968 O 637.733 1.95813 -1.59417 0
M  V30 6969 C 639.046 -1.03533 -2.82314 0
M  V30 6970 C 640.594 -1.01574 -2.9606 0
M  V30 6971 C 641.069 -1.70945 -4.24902 0
M  V30 6972 N 642.56 -1.67716 -4.3177 0
M  V30 6973 C 643.295 -2.18265 -5.30234 0
M  V30 6974 N 642.791 -2.7711 -6.34966 0
M  V30 6975 N 644.584 -2.08756 -5.21898 0
M  V30 6976 H 636.735 -1.62549 -1.36717 0
M  V30 6977 H 638.998 -0.683676 -0.656727 0
M  V30 6978 H 638.704 -2.09045 -2.8283 0
M  V30 6979 H 638.578 -0.587913 -3.7259 0
M  V30 6980 H 640.965 0.0309834 -2.95084 0
M  V30 6981 H 641.046 -1.50186 -2.07069 0
M  V30 6982 H 640.69 -2.75574 -4.26639 0
M  V30 6983 H 640.62 -1.19797 -5.12793 0
M  V30 6984 H 643.111 -1.24777 -3.56706 0
M  V30 6985 H 643.424 -3.13353 -7.06421 0
M  V30 6986 H 641.769 -2.81171 -6.35585 0
M  V30 6987 H 644.96 -1.62488 -4.38994 0
M  V30 6988 H 645.133 -2.48459 -5.98475 0
M  V30 6989 N 638.539 1.52521 -0.396863 0
M  V30 6990 C 639.785 2.01971 0.183169 0
M  V30 6991 C 640.118 1.2825 1.45827 0
M  V30 6992 O 639.393 0.385179 1.90648 0
M  V30 6993 C 639.676 3.5736 0.443391 0
M  V30 6994 C 639.529 4.41743 -0.84753 0
M  V30 6995 C 640.848 4.22539 1.2308 0
M  V30 6996 H 637.967 0.734119 0.0650976 0
M  V30 6997 H 640.609 1.82519 -0.527918 0
M  V30 6998 H 638.759 3.74066 1.04914 0
M  V30 6999 H 640.431 4.36773 -1.48414 0
M  V30 7000 H 638.674 4.0845 -1.4612 0
M  V30 7001 H 639.345 5.48507 -0.620003 0
M  V30 7002 H 641.821 4.09857 0.718084 0
M  V30 7003 H 640.697 5.31227 1.38162 0
M  V30 7004 H 640.958 3.80675 2.24808 0
M  V30 7005 N 640.017 0.126909 1.57088 0
M  V30 7006 C 641.242 -0.53997 2.00248 0
M  V30 7007 C 641.667 -1.58927 1.00618 0
M  V30 7008 O 641.025 -1.81288 -0.0210131 0
M  V30 7009 C 641.073 -1.13565 3.4225 0
M  V30 7010 O 640.177 -2.25103 3.45547 0
M  V30 7011 H 639.518 -0.13412 0.650314 0
M  V30 7012 H 642.048 0.217718 2.03438 0
M  V30 7013 H 642.058 -1.46925 3.80627 0
M  V30 7014 H 640.733 -0.367122 4.14277 0
M  V30 7015 H 639.31 -1.93123 3.18995 0
M  V30 7016 N 641.495 -1.56914 -0.146875 0
M  V30 7017 C 642.742 -1.83356 -0.859467 0
M  V30 7018 C 643.07 -0.707811 -1.81164 0
M  V30 7019 O 642.325 0.303155 -1.93338 0
M  V30 7020 C 642.624 -3.16128 -1.66727 0
M  V30 7021 C 642.29 -4.42586 -0.861881 0
M  V30 7022 C 640.952 -4.76929 -0.639687 0
M  V30 7023 C 643.304 -5.20344 -0.298643 0
M  V30 7024 C 640.632 -5.86491 0.156451 0
M  V30 7025 C 642.984 -6.30742 0.484536 0
M  V30 7026 C 641.648 -6.63635 0.717306 0
M  V30 7027 H 640.918 -0.670947 -0.314501 0
M  V30 7028 H 643.565 -1.91104 -0.123108 0
M  V30 7029 H 641.87 -3.03831 -2.47374 0
M  V30 7030 H 643.567 -3.33802 -2.2221 0
M  V30 7031 H 640.157 -4.15662 -1.04513 0
M  V30 7032 H 644.341 -4.94186 -0.457585 0
M  V30 7033 H 639.597 -6.10419 0.346292 0
M  V30 7034 H 643.771 -6.90188 0.928105 0
M  V30 7035 H 641.398 -7.48367 1.33607 0
M  V30 7036 N 642.974 0.416227 -1.52004 0
M  V30 7037 C 643.924 1.50558 -1.7122 0
M  V30 7038 C 644.908 1.50613 -0.56609 0
M  V30 7039 O 646.1 1.56709 -0.822874 0
M  V30 7040 C 643.229 2.88556 -1.85984 0
M  V30 7041 C 642.315 2.93177 -3.06445 0
M  V30 7042 N 642.706 2.67505 -4.29272 0
M  V30 7043 C 641.004 3.24343 -3.06133 0
M  V30 7044 C 641.705 2.78511 -5.10692 0
M  V30 7045 N 640.681 3.11087 -4.45787 0
M  V30 7046 H 644.483 1.29494 -2.63834 0
M  V30 7047 H 641.997 0.62384 -1.4994 0
M  V30 7048 H 643.994 3.66954 -1.97865 0
M  V30 7049 H 642.654 3.10624 -0.945654 0
M  V30 7050 H 643.665 2.42033 -4.57865 0
M  V30 7051 H 640.342 3.52051 -2.24425 0
M  V30 7052 H 641.732 2.62438 -6.18527 0
M  V30 7053 N 644.452 1.42507 0.673017 0
M  V30 7054 C 645.677 1.4668 1.46627 0
M  V30 7055 C 646.102 0.080066 1.8793 0
M  V30 7056 O 645.46 -0.921879 1.56112 0
M  V30 7057 C 645.508 2.40091 2.69051 0
M  V30 7058 O 644.612 1.8735 3.67387 0
M  V30 7059 H 643.953 0.496908 0.44043 0
M  V30 7060 H 646.483 1.87215 0.825334 0
M  V30 7061 H 646.493 2.56731 3.17101 0
M  V30 7062 H 645.168 3.4084 2.3833 0
M  V30 7063 H 643.745 1.80274 3.26429 0
M  V30 7064 N 645.93 -0.909495 1.28709 0
M  V30 7065 C 647.179 -1.65365 1.15487 0
M  V30 7066 C 647.492 -1.93364 -0.294941 0
M  V30 7067 O 648.698 -2.65905 -0.548338 0
M  V30 7068 C 647.154 -2.97923 2.01916 0
M  V30 7069 C 646.762 -2.77556 3.51663 0
M  V30 7070 C 648.506 -3.75814 1.97393 0
M  V30 7071 C 646.413 -4.0578 4.30229 0
M  V30 7072 H 645.343 -0.620323 0.42862 0
M  V30 7073 H 647.994 -1.00894 1.53273 0
M  V30 7074 H 646.376 -3.63552 1.5699 0
M  V30 7075 H 647.55 -2.2058 4.04575 0
M  V30 7076 H 645.865 -2.13072 3.57756 0
M  V30 7077 H 648.462 -4.70866 2.53357 0
M  V30 7078 H 648.805 -4.05277 0.951643 0
M  V30 7079 H 649.338 -3.1701 2.40311 0
M  V30 7080 H 646.077 -3.81488 5.33055 0
M  V30 7081 H 645.597 -4.62351 3.82089 0
M  V30 7082 H 647.276 -4.74004 4.40374 0
M  V30 7083 N 647.408 -1.11026 -1.11852 0
M  V30 7084 C 648.355 -0.764662 -2.17765 0
M  V30 7085 C 649.325 0.261854 -1.64023 0
M  V30 7086 O 650.51 0.139748 -1.90288 0
M  V30 7087 C 647.65 -0.209317 -3.44465 0
M  V30 7088 C 646.763 -1.29187 -4.12231 0
M  V30 7089 C 645.898 -0.697523 -5.266 0
M  V30 7090 C 644.937 -1.76023 -5.86244 0
M  V30 7091 N 644.074 -1.18569 -6.92016 0
M  V30 7092 H 648.914 -1.67202 -2.46673 0
M  V30 7093 H 646.451 -0.835065 -1.21099 0
M  V30 7094 H 648.409 0.130599 -4.16996 0
M  V30 7095 H 647.039 0.661251 -3.15955 0
M  V30 7096 H 646.091 -1.74881 -3.37818 0
M  V30 7097 H 647.403 -2.09607 -4.52622 0
M  V30 7098 H 646.557 -0.307412 -6.05921 0
M  V30 7099 H 645.296 0.138044 -4.87505 0
M  V30 7100 H 644.301 -2.1597 -5.05606 0
M  V30 7101 H 645.526 -2.59875 -6.27409 0
M  V30 7102 H 643.472 -0.371695 -6.54946 0
M  V30 7103 H 643.389 -1.92666 -7.31038 0
M  V30 7104 H 644.657 -0.82233 -7.7515 0
M  V30 7105 N 648.886 1.2938 -0.899927 0
M  V30 7106 C 649.818 2.26737 -0.335139 0
M  V30 7107 C 650.831 1.54316 0.518681 0
M  V30 7108 O 652.02 1.75313 0.335803 0
M  V30 7109 C 649.12 3.34558 0.540774 0
M  V30 7110 C 648.293 4.36455 -0.287372 0
M  V30 7111 C 647.352 5.2361 0.52141 0
M  V30 7112 O 646.378 5.69167 -0.0611735 0
M  V30 7113 N 647.58 5.50985 1.82745 0
M  V30 7114 H 650.345 2.75838 -1.17191 0
M  V30 7115 H 647.906 1.42716 -0.764438 0
M  V30 7116 H 649.898 3.89794 1.08825 0
M  V30 7117 H 648.468 2.85272 1.27823 0
M  V30 7118 H 647.688 3.80875 -1.01626 0
M  V30 7119 H 648.976 5.01573 -0.854518 0
M  V30 7120 H 648.374 5.15781 2.32349 0
M  V30 7121 H 646.931 6.09036 2.32204 0
M  V30 7122 N 650.364 0.662433 1.43002 0
M  V30 7123 C 651.589 0.186003 2.06564 0
M  V30 7124 C 652.014 -1.14314 1.49379 0
M  V30 7125 O 651.372 -1.70824 0.607346 0
M  V30 7126 C 651.42 0.118269 3.60406 0
M  V30 7127 O 650.524 -0.916859 4.02079 0
M  V30 7128 H 649.865 0.0990981 0.656563 0
M  V30 7129 H 652.395 0.907958 1.8335 0
M  V30 7130 H 652.405 -0.0619981 4.07953 0
M  V30 7131 H 651.08 1.08849 4.01403 0
M  V30 7132 H 649.657 -0.708635 3.66105 0
M  V30 7133 N 651.842 -1.52309 0.404946 0
M  V30 7134 C 653.07 -2.06185 -0.171818 0
M  V30 7135 C 653.485 -1.27536 -1.39212 0
M  V30 7136 O 652.842 -0.326112 -1.79563 0
M  V30 7137 C 652.893 -3.57647 -0.526417 0
M  V30 7138 O 652.614 -4.3332 0.645417 0
M  V30 7139 C 654.115 -4.27925 -1.15736 0
M  V30 7140 H 651.335 -0.670632 -0.0222328 0
M  V30 7141 H 653.879 -1.96259 0.574692 0
M  V30 7142 H 652.034 -3.67595 -1.22282 0
M  V30 7143 H 652.448 -5.23328 0.35042 0
M  V30 7144 H 653.922 -5.35093 -1.35572 0
M  V30 7145 H 654.399 -3.84134 -2.12926 0
M  V30 7146 H 655.005 -4.22335 -0.501281 0
M  V30 7147 N 653.32 -0.135238 -1.57019 0
M  V30 7148 C 654.283 0.794707 -2.14981 0
M  V30 7149 C 655.283 1.18342 -1.08866 0
M  V30 7150 O 656.473 1.10627 -1.34563 0
M  V30 7151 C 653.605 2.07685 -2.70333 0
M  V30 7152 H 654.798 0.290696 -2.98488 0
M  V30 7153 H 652.351 0.114128 -1.55883 0
M  V30 7154 H 653.086 2.6248 -1.9046 0
M  V30 7155 H 652.871 1.80745 -3.47957 0
M  V30 7156 H 654.361 2.74127 -3.1503 0
M  V30 7157 N 654.798 1.5699 0.138552 0
M  V30 7158 C 656.044 1.84081 0.85099 0
M  V30 7159 C 656.377 0.718107 1.80435 0
M  V30 7160 O 655.652 -0.277633 1.92508 0
M  V30 7161 C 655.935 3.21699 1.61808 0
M  V30 7162 C 655.788 4.44544 0.685633 0
M  V30 7163 C 657.107 3.5664 2.57868 0
M  V30 7164 H 654.226 0.669592 0.307922 0
M  V30 7165 H 656.868 1.89646 0.11588 0
M  V30 7166 H 655.018 3.17086 2.24474 0
M  V30 7167 H 656.69 4.61248 0.0693179 0
M  V30 7168 H 654.933 4.338 -0.00421993 0
M  V30 7169 H 655.604 5.3746 1.25858 0
M  V30 7170 H 658.08 3.61918 2.05316 0
M  V30 7171 H 656.956 4.53946 3.08584 0
M  V30 7172 H 657.217 2.83036 3.39622 0
M  V30 7173 O 656.315 -0.283142 1.58999 0
M  V30 7174 H 657.006 -0.92904 1.69966 0
M  V30 END ATOM
M  V30 BEGIN BOND
M  V30 END BOND
M  V30 END CTAB
M  END
$$$$
