drugbank_target|P35094 Light-harvesting protein B-800/820 beta chain (DB04464)
 OpenBabel12092120433D

673682  0  0  0  0  0  0  0  0999 V2000
   -0.9080    1.9825   -0.1171 H   0  0  0  0  0 15  0  0  0  0  0  0
    0.0000    1.5760    0.0000 N   0  0  0  0  0 15  0  0  0  0  0  0
    0.9630    2.0737    0.9763 C   0  0  0  0  0 15  0  0  0  0  0  0
    1.9630    0.9831    1.2725 C   0  0  0  0  0 15  0  0  0  0  0  0
    3.1530    1.2457    1.2177 O   0  0  0  0  0 15  0  0  0  0  0  0
    0.2850    2.5151    2.3012 C   0  0  0  0  0 15  0  0  0  0  0  0
    1.4780    2.9489    0.5458 H   0  0  0  0  0 15  0  0  0  0  0  0
   -0.9690    1.5433    0.2475 H   0  0  0  0  0 15  0  0  0  0  0  0
   -0.2340    1.6723    2.7785 H   0  0  0  0  0 15  0  0  0  0  0  0
   -0.4490    3.3116    2.0994 H   0  0  0  0  0 15  0  0  0  0  0  0
    1.0410    2.9035    3.0015 H   0  0  0  0  0 15  0  0  0  0  0  0
    1.4781   -0.2728    1.5522 N   0  0  0  0  0 15  0  0  0  0  0  0
    2.3881   -1.3592    1.9122 C   0  0  0  0  0 15  0  0  0  0  0  0
    3.4041   -1.5403    0.8094 C   0  0  0  0  0 15  0  0  0  0  0  0
    4.5801   -1.6815    1.1085 O   0  0  0  0  0 15  0  0  0  0  0  0
    1.6451   -2.6983    2.1769 C   0  0  0  0  0 15  0  0  0  0  0  0
    0.7061   -2.6047    3.4125 C   0  0  0  0  0 15  0  0  0  0  0  0
   -0.0609   -3.8800    3.6646 C   0  0  0  0  0 15  0  0  0  0  0  0
    0.1621   -4.8869    2.9417 O   0  0  0  0  0 15  0  0  0  0  0  0
   -0.9039   -3.8819    4.5999 O   0  0  0  0  0 15  0  0  0  0  0  0
    2.9221   -1.0839    2.8370 H   0  0  0  0  0 15  0  0  0  0  0  0
    0.5071   -0.4713    1.4177 H   0  0  0  0  0 15  0  0  0  0  0  0
    2.3891   -3.4902    2.3615 H   0  0  0  0  0 15  0  0  0  0  0  0
    1.0641   -2.9715    1.2839 H   0  0  0  0  0 15  0  0  0  0  0  0
   -0.0289   -1.7966    3.2813 H   0  0  0  0  0 15  0  0  0  0  0  0
    1.3041   -2.3811    4.3077 H   0  0  0  0  0 15  0  0  0  0  0  0
    2.9562   -1.4816   -0.5373 N   0  0  0  0  0 15  0  0  0  0  0  0
    4.2022   -1.5604   -1.2954 C   0  0  0  0  0 15  0  0  0  0  0  0
    4.5352   -0.2304   -1.9283 C   0  0  0  0  0 15  0  0  0  0  0  0
    3.8102    0.7630   -1.7891 O   0  0  0  0  0 15  0  0  0  0  0  0
    4.0932   -2.6932   -2.3903 C   0  0  0  0  0 15  0  0  0  0  0  0
    3.9462   -4.1200   -1.8048 C   0  0  0  0  0 15  0  0  0  0  0  0
    5.2652   -2.7841   -3.4085 C   0  0  0  0  0 15  0  0  0  0  0  0
    2.3842   -0.5680   -0.4696 H   0  0  0  0  0 15  0  0  0  0  0  0
    5.0262   -1.8030   -0.5993 H   0  0  0  0  0 15  0  0  0  0  0  0
    3.1762   -2.4876   -2.9841 H   0  0  0  0  0 15  0  0  0  0  0  0
    4.8482   -4.4398   -1.2521 H   0  0  0  0  0 15  0  0  0  0  0  0
    3.0912   -4.1934   -1.1106 H   0  0  0  0  0 15  0  0  0  0  0  0
    3.7622   -4.8708   -2.5973 H   0  0  0  0  0 15  0  0  0  0  0  0
    6.2382   -2.9701   -2.9142 H   0  0  0  0  0 15  0  0  0  0  0  0
    5.1142   -3.5942   -4.1486 H   0  0  0  0  0 15  0  0  0  0  0  0
    5.3752   -1.8627   -4.0094 H   0  0  0  0  0 15  0  0  0  0  0  0
    4.4343    0.7856   -1.3662 N   0  0  0  0  0 15  0  0  0  0  0  0
    5.3643    1.9126   -1.3395 C   0  0  0  0  0 15  0  0  0  0  0  0
    6.3453    1.6879   -0.2103 C   0  0  0  0  0 15  0  0  0  0  0  0
    7.5303    1.8985   -0.4086 O   0  0  0  0  0 15  0  0  0  0  0  0
    4.6603    3.2834   -1.1319 C   0  0  0  0  0 15  0  0  0  0  0  0
    3.6143    3.6533   -2.2297 C   0  0  0  0  0 15  0  0  0  0  0  0
    2.9403    5.0081   -1.8734 C   0  0  0  0  0 15  0  0  0  0  0  0
    4.2403    3.7352   -3.6508 C   0  0  0  0  0 15  0  0  0  0  0  0
    5.9343    1.9375   -2.2825 H   0  0  0  0  0 15  0  0  0  0  0  0
    3.4803    0.9308   -1.0987 H   0  0  0  0  0 15  0  0  0  0  0  0
    5.4333    4.0680   -1.0995 H   0  0  0  0  0 15  0  0  0  0  0  0
    4.1573    3.2624   -0.1533 H   0  0  0  0  0 15  0  0  0  0  0  0
    2.8163    2.8917   -2.2534 H   0  0  0  0  0 15  0  0  0  0  0  0
    2.4643    4.9523   -0.8805 H   0  0  0  0  0 15  0  0  0  0  0  0
    2.1643    5.2653   -2.6085 H   0  0  0  0  0 15  0  0  0  0  0  0
    3.6883    5.8169   -1.8567 H   0  0  0  0  0 15  0  0  0  0  0  0
    5.1023    4.4217   -3.6491 H   0  0  0  0  0 15  0  0  0  0  0  0
    3.4993    4.1073   -4.3752 H   0  0  0  0  0 15  0  0  0  0  0  0
    4.5693    2.7453   -3.9970 H   0  0  0  0  0 15  0  0  0  0  0  0
    5.9124    1.2097    1.0102 N   0  0  0  0  0 15  0  0  0  0  0  0
    7.1404    1.0496    1.7830 C   0  0  0  0  0 15  0  0  0  0  0  0
    7.5554   -0.4009    1.8449 C   0  0  0  0  0 15  0  0  0  0  0  0
    6.9124   -1.2783    1.3026 O   0  0  0  0  0 15  0  0  0  0  0  0
    6.9634    1.6340    3.2246 C   0  0  0  0  0 15  0  0  0  0  0  0
    6.6844    3.0277    3.1664 O   0  0  0  0  0 15  0  0  0  0  0  0
    8.1854    1.5243    4.1627 C   0  0  0  0  0 15  0  0  0  0  0  0
    5.4054    0.3689    0.5605 H   0  0  0  0  0 15  0  0  0  0  0  0
    7.9494    1.6019    1.2712 H   0  0  0  0  0 15  0  0  0  0  0  0
    6.1044    1.1227    3.7078 H   0  0  0  0  0 15  0  0  0  0  0  0
    6.5184    3.3063    4.0717 H   0  0  0  0  0 15  0  0  0  0  0  0
    7.9924    1.9808    5.1524 H   0  0  0  0  0 15  0  0  0  0  0  0
    8.4694    0.4779    4.3659 H   0  0  0  0  0 15  0  0  0  0  0  0
    9.0754    2.0279    3.7384 H   0  0  0  0  0 15  0  0  0  0  0  0
    7.3905   -1.2043    1.0166 N   0  0  0  0  0 15  0  0  0  0  0  0
    8.6155   -1.9432    0.7249 C   0  0  0  0  0 15  0  0  0  0  0  0
    9.0405   -1.7427   -0.7080 C   0  0  0  0  0 15  0  0  0  0  0  0
    8.3985   -1.0369   -1.4872 O   0  0  0  0  0 15  0  0  0  0  0  0
    8.4465   -3.4449    1.0659 C   0  0  0  0  0 15  0  0  0  0  0  0
    7.5505   -4.1202    0.1776 O   0  0  0  0  0 15  0  0  0  0  0  0
    6.8915   -0.6071    0.2690 H   0  0  0  0  0 15  0  0  0  0  0  0
    9.4215   -1.5286    1.3600 H   0  0  0  0  0 15  0  0  0  0  0  0
    9.4315   -3.9511    1.0176 H   0  0  0  0  0 15  0  0  0  0  0  0
    8.1065   -3.5840    2.1100 H   0  0  0  0  0 15  0  0  0  0  0  0
    6.6835   -3.7182    0.2834 H   0  0  0  0  0 15  0  0  0  0  0  0
    8.8686   -0.7928   -1.3621 N   0  0  0  0  0 15  0  0  0  0  0  0
    9.7786   -0.1948   -2.3379 C   0  0  0  0  0 15  0  0  0  0  0  0
   10.7946    0.6549   -1.6121 C   0  0  0  0  0 15  0  0  0  0  0  0
   11.9706    0.5699   -1.9317 O   0  0  0  0  0 15  0  0  0  0  0  0
    9.0356    0.6577   -3.4040 C   0  0  0  0  0 15  0  0  0  0  0  0
    8.0966   -0.2108   -4.2878 C   0  0  0  0  0 15  0  0  0  0  0  0
    7.3296    0.6011   -5.3030 C   0  0  0  0  0 15  0  0  0  0  0  0
    7.5526    1.8368   -5.4002 O   0  0  0  0  0 15  0  0  0  0  0  0
    6.4866   -0.0008   -6.0190 O   0  0  0  0  0 15  0  0  0  0  0  0
   10.3126   -1.0017   -2.8670 H   0  0  0  0  0 15  0  0  0  0  0  0
    7.8976   -0.5543   -1.3874 H   0  0  0  0  0 15  0  0  0  0  0  0
    9.7796    1.1438   -4.0558 H   0  0  0  0  0 15  0  0  0  0  0  0
    8.4546    1.4425   -2.8978 H   0  0  0  0  0 15  0  0  0  0  0  0
    7.3616   -0.7437   -3.6663 H   0  0  0  0  0 15  0  0  0  0  0  0
    8.6946   -0.9592   -4.8276 H   0  0  0  0  0 15  0  0  0  0  0  0
   10.3467    1.4787   -0.5451 N   0  0  0  0  0 15  0  0  0  0  0  0
   11.2787    2.2787    0.2466 C   0  0  0  0  0 15  0  0  0  0  0  0
   12.2917    1.3628    0.8906 C   0  0  0  0  0 15  0  0  0  0  0  0
   13.4807    1.6121    0.7664 O   0  0  0  0  0 15  0  0  0  0  0  0
   10.5807    3.1016    1.3658 C   0  0  0  0  0 15  0  0  0  0  0  0
    9.7537    4.2963    0.8210 C   0  0  0  0  0 15  0  0  0  0  0  0
    8.8127    4.9361    1.8231 C   0  0  0  0  0 15  0  0  0  0  0  0
    7.8387    5.5237    1.3741 O   0  0  0  0  0 15  0  0  0  0  0  0
    9.0407    4.8721    3.1560 N   0  0  0  0  0 15  0  0  0  0  0  0
   11.8057    2.9646   -0.4395 H   0  0  0  0  0 15  0  0  0  0  0  0
    9.3667    1.5737   -0.3804 H   0  0  0  0  0 15  0  0  0  0  0  0
   11.3587    3.4983    2.0347 H   0  0  0  0  0 15  0  0  0  0  0  0
    9.9287    2.4389    1.9554 H   0  0  0  0  0 15  0  0  0  0  0  0
    9.1487    3.9419   -0.0244 H   0  0  0  0  0 15  0  0  0  0  0  0
   10.4367    5.0693    0.4361 H   0  0  0  0  0 15  0  0  0  0  0  0
    9.8347    4.4065    3.5474 H   0  0  0  0  0 15  0  0  0  0  0  0
    8.3917    5.3094    3.7809 H   0  0  0  0  0 15  0  0  0  0  0  0
   11.8248    0.2810    1.5507 N   0  0  0  0  0 15  0  0  0  0  0  0
   12.7878   -0.5909    2.2145 C   0  0  0  0  0 15  0  0  0  0  0  0
   13.7878   -1.0768    1.1942 C   0  0  0  0  0 15  0  0  0  0  0  0
   14.9778   -0.9760    1.4429 O   0  0  0  0  0 15  0  0  0  0  0  0
   12.1098   -1.8159    2.8851 C   0  0  0  0  0 15  0  0  0  0  0  0
   13.3028   -0.0113    2.9990 H   0  0  0  0  0 15  0  0  0  0  0  0
   10.8558    0.0316    1.5627 H   0  0  0  0  0 15  0  0  0  0  0  0
   11.5908   -2.4359    2.1409 H   0  0  0  0  0 15  0  0  0  0  0  0
   11.3758   -1.4753    3.6329 H   0  0  0  0  0 15  0  0  0  0  0  0
   12.8658   -2.4358    3.3921 H   0  0  0  0  0 15  0  0  0  0  0  0
   13.3029   -1.5760    0.0084 N   0  0  0  0  0 15  0  0  0  0  0  0
   14.2129   -2.1238   -0.9965 C   0  0  0  0  0 15  0  0  0  0  0  0
   15.2289   -1.0711   -1.3713 C   0  0  0  0  0 15  0  0  0  0  0  0
   16.4049   -1.3905   -1.4569 O   0  0  0  0  0 15  0  0  0  0  0  0
   13.4699   -2.6231   -2.2670 C   0  0  0  0  0 15  0  0  0  0  0  0
   12.5309   -3.8222   -1.9546 C   0  0  0  0  0 15  0  0  0  0  0  0
   11.7639   -4.2976   -3.1645 C   0  0  0  0  0 15  0  0  0  0  0  0
   11.9869   -3.7658   -4.2842 O   0  0  0  0  0 15  0  0  0  0  0  0
   10.9209   -5.2183   -2.9996 O   0  0  0  0  0 15  0  0  0  0  0  0
   14.7469   -2.9848   -0.5607 H   0  0  0  0  0 15  0  0  0  0  0  0
   12.3319   -1.4790   -0.2110 H   0  0  0  0  0 15  0  0  0  0  0  0
   14.2139   -2.9459   -3.0132 H   0  0  0  0  0 15  0  0  0  0  0  0
   12.8889   -1.7931   -2.6950 H   0  0  0  0  0 15  0  0  0  0  0  0
   11.7959   -3.5491   -1.1828 H   0  0  0  0  0 15  0  0  0  0  0  0
   13.1289   -4.6632   -1.5749 H   0  0  0  0  0 15  0  0  0  0  0  0
   14.7810    0.2645   -1.5536 N   0  0  0  0  0 15  0  0  0  0  0  0
   15.6910    1.3490   -1.9193 C   0  0  0  0  0 15  0  0  0  0  0  0
   16.7070    1.5359   -0.8176 C   0  0  0  0  0 15  0  0  0  0  0  0
   17.8830    1.6756   -1.1174 O   0  0  0  0  0 15  0  0  0  0  0  0
   14.9480    2.6868   -2.1912 C   0  0  0  0  0 15  0  0  0  0  0  0
   14.0090    2.5866   -3.4263 C   0  0  0  0  0 15  0  0  0  0  0  0
   13.2420    3.8605   -3.6851 C   0  0  0  0  0 15  0  0  0  0  0  0
   13.4650    4.8713   -2.9676 O   0  0  0  0  0 15  0  0  0  0  0  0
   12.3990    3.8574   -4.6204 O   0  0  0  0  0 15  0  0  0  0  0  0
   16.2250    1.0688   -2.8427 H   0  0  0  0  0 15  0  0  0  0  0  0
   13.8100    0.4638   -1.4202 H   0  0  0  0  0 15  0  0  0  0  0  0
   15.6920    3.4776   -2.3799 H   0  0  0  0  0 15  0  0  0  0  0  0
   14.3670    2.9646   -1.2997 H   0  0  0  0  0 15  0  0  0  0  0  0
   13.2740    1.7792   -3.2908 H   0  0  0  0  0 15  0  0  0  0  0  0
   14.6070    2.3582   -4.3203 H   0  0  0  0  0 15  0  0  0  0  0  0
   16.2591    1.4844    0.5294 N   0  0  0  0  0 15  0  0  0  0  0  0
   17.1891    1.6590    1.6431 C   0  0  0  0  0 15  0  0  0  0  0  0
   18.1701    0.5079    1.6234 C   0  0  0  0  0 15  0  0  0  0  0  0
   19.3551    0.7405    1.7953 O   0  0  0  0  0 15  0  0  0  0  0  0
   16.4851    1.6991    3.0290 C   0  0  0  0  0 15  0  0  0  0  0  0
   15.4391    2.8453    3.1973 C   0  0  0  0  0 15  0  0  0  0  0  0
   14.7651    2.7363    4.5938 C   0  0  0  0  0 15  0  0  0  0  0  0
   16.0651    4.2582    3.0245 C   0  0  0  0  0 15  0  0  0  0  0  0
   17.7591    2.5914    1.4996 H   0  0  0  0  0 15  0  0  0  0  0  0
   15.3051    1.2471    0.7200 H   0  0  0  0  0 15  0  0  0  0  0  0
   17.2581    1.8071    3.8068 H   0  0  0  0  0 15  0  0  0  0  0  0
   15.9821    0.7325    3.1828 H   0  0  0  0  0 15  0  0  0  0  0  0
   14.6411    2.7328    2.4436 H   0  0  0  0  0 15  0  0  0  0  0  0
   14.2891    1.7494    4.7160 H   0  0  0  0  0 15  0  0  0  0  0  0
   13.9891    3.5054    4.7159 H   0  0  0  0  0 15  0  0  0  0  0  0
   15.5131    2.8640    5.3927 H   0  0  0  0  0 15  0  0  0  0  0  0
   16.9271    4.3790    3.7002 H   0  0  0  0  0 15  0  0  0  0  0  0
   15.3241    5.0373    3.2615 H   0  0  0  0  0 15  0  0  0  0  0  0
   16.3941    4.4224    1.9887 H   0  0  0  0  0 15  0  0  0  0  0  0
   17.7372   -0.7783    1.3704 N   0  0  0  0  0 15  0  0  0  0  0  0
   18.6872   -1.8814    1.2879 C   0  0  0  0  0 15  0  0  0  0  0  0
   19.6712   -1.5992    0.1771 C   0  0  0  0  0 15  0  0  0  0  0  0
   20.8632   -1.7217    0.4109 O   0  0  0  0  0 15  0  0  0  0  0  0
   17.9922   -3.2552    1.0906 C   0  0  0  0  0 15  0  0  0  0  0  0
   17.0782   -3.5971    2.2465 C   0  0  0  0  0 15  0  0  0  0  0  0
   17.4692   -3.6513    3.5002 N   0  0  0  0  0 15  0  0  0  0  0  0
   15.7672   -3.8984    2.1666 C   0  0  0  0  0 15  0  0  0  0  0  0
   16.4682   -3.9588    4.2621 C   0  0  0  0  0 15  0  0  0  0  0  0
   15.4442   -4.1144    3.5527 N   0  0  0  0  0 15  0  0  0  0  0  0
   19.2462   -1.9058    2.2374 H   0  0  0  0  0 15  0  0  0  0  0  0
   16.7602   -0.9744    1.2992 H   0  0  0  0  0 15  0  0  0  0  0  0
   18.7572   -4.0442    1.0123 H   0  0  0  0  0 15  0  0  0  0  0  0
   17.4172   -3.2435    0.1502 H   0  0  0  0  0 15  0  0  0  0  0  0
   18.4282   -3.4750    3.8401 H   0  0  0  0  0 15  0  0  0  0  0  0
   15.1052   -3.9653    1.3065 H   0  0  0  0  0 15  0  0  0  0  0  0
   16.4952   -4.0691    5.3467 H   0  0  0  0  0 15  0  0  0  0  0  0
   19.2153   -1.2150   -1.0038 N   0  0  0  0  0 15  0  0  0  0  0  0
   20.1623   -0.9754   -2.0918 C   0  0  0  0  0 15  0  0  0  0  0  0
   21.1323    0.0991   -1.6580 C   0  0  0  0  0 15  0  0  0  0  0  0
   22.3173   -0.0483   -1.9074 O   0  0  0  0  0 15  0  0  0  0  0  0
   19.4573   -0.5475   -3.4073 C   0  0  0  0  0 15  0  0  0  0  0  0
   18.5703   -1.6915   -3.9751 C   0  0  0  0  0 15  0  0  0  0  0  0
   17.7053   -1.2127   -5.1717 C   0  0  0  0  0 15  0  0  0  0  0  0
   16.7443   -2.3290   -5.6606 C   0  0  0  0  0 15  0  0  0  0  0  0
   15.8813   -1.8614   -6.7698 N   0  0  0  0  0 15  0  0  0  0  0  0
   20.7213   -1.9068   -2.2901 H   0  0  0  0  0 15  0  0  0  0  0  0
   18.2583   -0.9503   -1.1229 H   0  0  0  0  0 15  0  0  0  0  0  0
   20.2163   -0.2807   -4.1625 H   0  0  0  0  0 15  0  0  0  0  0  0
   18.8463    0.3469   -3.2093 H   0  0  0  0  0 15  0  0  0  0  0  0
   17.8983   -2.0730   -3.1895 H   0  0  0  0  0 15  0  0  0  0  0  0
   19.2103   -2.5316   -4.2978 H   0  0  0  0  0 15  0  0  0  0  0  0
   18.3643   -0.9026   -5.9995 H   0  0  0  0  0 15  0  0  0  0  0  0
   17.1033   -0.3427   -4.8649 H   0  0  0  0  0 15  0  0  0  0  0  0
   16.1083   -2.6471   -4.8188 H   0  0  0  0  0 15  0  0  0  0  0  0
   17.3333   -3.2040   -5.9877 H   0  0  0  0  0 15  0  0  0  0  0  0
   15.2793   -1.0148   -6.4810 H   0  0  0  0  0 15  0  0  0  0  0  0
   15.1963   -2.6372   -7.0851 H   0  0  0  0  0 15  0  0  0  0  0  0
   16.4643   -1.5817   -7.6328 H   0  0  0  0  0 15  0  0  0  0  0  0
   20.6934    1.1989   -1.0230 N   0  0  0  0  0 15  0  0  0  0  0  0
   21.6434    2.2078   -0.5693 C   0  0  0  0  0 15  0  0  0  0  0  0
   22.6274    1.5638    0.3787 C   0  0  0  0  0 15  0  0  0  0  0  0
   23.8194    1.7586    0.2007 O   0  0  0  0  0 15  0  0  0  0  0  0
   20.9484    3.4320    0.0845 C   0  0  0  0  0 15  0  0  0  0  0  0
   20.0344    4.1475   -0.8857 C   0  0  0  0  0 15  0  0  0  0  0  0
   20.4254    4.6258   -2.0457 N   0  0  0  0  0 15  0  0  0  0  0  0
   18.7234    4.4035   -0.7078 C   0  0  0  0  0 15  0  0  0  0  0  0
   19.4244    5.1747   -2.6571 C   0  0  0  0  0 15  0  0  0  0  0  0
   18.4004    5.0791   -1.9372 N   0  0  0  0  0 15  0  0  0  0  0  0
   22.2024    2.5543   -1.4536 H   0  0  0  0  0 15  0  0  0  0  0  0
   19.7164    1.3590   -0.8892 H   0  0  0  0  0 15  0  0  0  0  0  0
   21.7134    4.1471    0.4271 H   0  0  0  0  0 15  0  0  0  0  0  0
   20.3734    3.1004    0.9646 H   0  0  0  0  0 15  0  0  0  0  0  0
   21.3844    4.5760   -2.4254 H   0  0  0  0  0 15  0  0  0  0  0  0
   18.0614    4.1732    0.1236 H   0  0  0  0  0 15  0  0  0  0  0  0
   19.4514    5.6481   -3.6392 H   0  0  0  0  0 15  0  0  0  0  0  0
   22.1715    0.8000    1.3578 N   0  0  0  0  0 15  0  0  0  0  0  0
   23.4175    0.3779    1.9925 C   0  0  0  0  0 15  0  0  0  0  0  0
   23.7505   -1.0505    1.6333 C   0  0  0  0  0 15  0  0  0  0  0  0
   23.0255   -1.7277    0.8934 O   0  0  0  0  0 15  0  0  0  0  0  0
   23.3085    0.5539    3.5581 C   0  0  0  0  0 15  0  0  0  0  0  0
   23.1615    2.0268    4.0155 C   0  0  0  0  0 15  0  0  0  0  0  0
   24.4805   -0.0245    4.4009 C   0  0  0  0  0 15  0  0  0  0  0  0
   21.5995    0.1388    0.7238 H   0  0  0  0  0 15  0  0  0  0  0  0
   24.2415    1.0083    1.6104 H   0  0  0  0  0 15  0  0  0  0  0  0
   22.3915    0.0172    3.8850 H   0  0  0  0  0 15  0  0  0  0  0  0
   24.0635    2.6254    3.7931 H   0  0  0  0  0 15  0  0  0  0  0  0
   22.3065    2.5256    3.5270 H   0  0  0  0  0 15  0  0  0  0  0  0
   22.9775    2.1009    5.1046 H   0  0  0  0  0 15  0  0  0  0  0  0
   25.4535    0.4338    4.1383 H   0  0  0  0  0 15  0  0  0  0  0  0
   24.3295    0.1286    5.4875 H   0  0  0  0  0 15  0  0  0  0  0  0
   24.5905   -1.1176    4.2774 H   0  0  0  0  0 15  0  0  0  0  0  0
   23.6496   -1.4758    0.5530 N   0  0  0  0  0 15  0  0  0  0  0  0
   24.8986   -2.0168    0.0252 C   0  0  0  0  0 15  0  0  0  0  0  0
   25.2116   -1.4332   -1.3311 C   0  0  0  0  0 15  0  0  0  0  0  0
   26.4176   -1.8906   -1.9486 O   0  0  0  0  0 15  0  0  0  0  0  0
   24.8736   -3.5990   -0.0054 C   0  0  0  0  0 15  0  0  0  0  0  0
   24.4816   -4.2726    1.3474 C   0  0  0  0  0 15  0  0  0  0  0  0
   26.2256   -4.2177   -0.4808 C   0  0  0  0  0 15  0  0  0  0  0  0
   24.1326   -5.7747    1.2761 C   0  0  0  0  0 15  0  0  0  0  0  0
   23.0626   -0.7540    0.0057 H   0  0  0  0  0 15  0  0  0  0  0  0
   25.7136   -1.6962    0.7002 H   0  0  0  0  0 15  0  0  0  0  0  0
   24.0956   -3.8891   -0.7460 H   0  0  0  0  0 15  0  0  0  0  0  0
   25.2696   -4.0989    2.1053 H   0  0  0  0  0 15  0  0  0  0  0  0
   23.5846   -3.7736    1.7604 H   0  0  0  0  0 15  0  0  0  0  0  0
   26.1816   -5.3184   -0.5525 H   0  0  0  0  0 15  0  0  0  0  0  0
   26.5246   -3.8865   -1.4918 H   0  0  0  0  0 15  0  0  0  0  0  0
   27.0576   -3.9727    0.2048 H   0  0  0  0  0 15  0  0  0  0  0  0
   23.7966   -6.1520    2.2630 H   0  0  0  0  0 15  0  0  0  0  0  0
   23.3166   -5.9718    0.5600 H   0  0  0  0  0 15  0  0  0  0  0  0
   24.9956   -6.3959    0.9764 H   0  0  0  0  0 15  0  0  0  0  0  0
   25.1277   -0.2892   -1.5492 N   0  0  0  0  0 15  0  0  0  0  0  0
   26.4047    0.3760   -1.9195 C   0  0  0  0  0 15  0  0  0  0  0  0
   26.7847    1.7262   -1.2151 C   0  0  0  0  0 15  0  0  0  0  0  0
   26.1327    2.2585   -0.3468 O   0  0  0  0  0 15  0  0  0  0  0  0
   26.3427    0.5024   -3.4537 C   0  0  0  0  0 15  0  0  0  0  0  0
   27.6907    0.7787   -4.1740 C   0  0  0  0  0 15  0  0  0  0  0  0
   28.7147    0.5866   -3.5134 O   0  0  0  0  0 15  0  0  0  0  0  0
   27.5737    1.1470   -5.3433 O   0  0  0  0  0 15  0  0  0  0  0  0
   24.6677    0.2082   -0.8004 H   0  0  0  0  0 15  0  0  0  0  0  0
   27.2137   -0.3364   -1.6633 H   0  0  0  0  0 15  0  0  0  0  0  0
   25.9857   -0.4473   -3.8874 H   0  0  0  0  0 15  0  0  0  0  0  0
   25.6087    1.2637   -3.7698 H   0  0  0  0  0 15  0  0  0  0  0  0
   26.6058    1.5759   -0.0167 N   0  0  0  0  0 15  0  0  0  0  0  0
   27.8538    1.9091    0.6633 C   0  0  0  0  0 15  0  0  0  0  0  0
   28.1748    0.8925    1.7338 C   0  0  0  0  0 15  0  0  0  0  0  0
   27.4448   -0.0678    1.9578 O   0  0  0  0  0 15  0  0  0  0  0  0
   26.0248    0.7046    0.2480 H   0  0  0  0  0 15  0  0  0  0  0  0
   28.6868    1.9480   -0.0616 H   0  0  0  0  0 15  0  0  0  0  0  0
   27.7828    2.9116    1.1239 H   0  0  0  0  0 15  0  0  0  0  0  0
   28.0839   -0.2563    1.5550 N   0  0  0  0  0 15  0  0  0  0  0  0
   29.3119   -1.0034    1.8094 C   0  0  0  0  0 15  0  0  0  0  0  0
   29.7269   -1.7931    0.5911 C   0  0  0  0  0 15  0  0  0  0  0  0
   29.0839   -1.7711   -0.4401 O   0  0  0  0  0 15  0  0  0  0  0  0
   29.1349   -1.9488    3.0448 C   0  0  0  0  0 15  0  0  0  0  0  0
   28.8559   -1.1911    4.2160 O   0  0  0  0  0 15  0  0  0  0  0  0
   30.3569   -2.8127    3.4264 C   0  0  0  0  0 15  0  0  0  0  0  0
   27.5769   -0.2957    0.6023 H   0  0  0  0  0 15  0  0  0  0  0  0
   30.1209   -0.2820    2.0255 H   0  0  0  0  0 15  0  0  0  0  0  0
   28.2759   -2.6246    2.8495 H   0  0  0  0  0 15  0  0  0  0  0  0
   28.6899   -1.8297    4.9155 H   0  0  0  0  0 15  0  0  0  0  0  0
   30.1639   -3.4336    4.3221 H   0  0  0  0  0 15  0  0  0  0  0  0
   30.6409   -3.5190    2.6280 H   0  0  0  0  0 15  0  0  0  0  0  0
   31.2469   -2.1915    3.6449 H   0  0  0  0  0 15  0  0  0  0  0  0
   29.5620   -1.4872   -0.5215 N   0  0  0  0  0 15  0  0  0  0  0  0
   30.9780   -1.3503   -0.8509 C   0  0  0  0  0 15  0  0  0  0  0  0
   31.1780   -0.3677   -1.9812 C   0  0  0  0  0 15  0  0  0  0  0  0
   30.2340    0.2080   -2.5164 O   0  0  0  0  0 15  0  0  0  0  0  0
   31.5470   -2.7526   -1.2104 C   0  0  0  0  0 15  0  0  0  0  0  0
   33.0950   -2.8381   -1.3198 C   0  0  0  0  0 15  0  0  0  0  0  0
   33.5700   -4.2477   -1.7128 C   0  0  0  0  0 15  0  0  0  0  0  0
   35.0610   -4.2748   -1.7836 N   0  0  0  0  0 15  0  0  0  0  0  0
   35.7960   -5.3349   -2.1017 C   0  0  0  0  0 15  0  0  0  0  0  0
   35.2920   -6.4977   -2.4034 N   0  0  0  0  0 15  0  0  0  0  0  0
   37.0850   -5.2089   -2.1125 N   0  0  0  0  0 15  0  0  0  0  0  0
   29.2360   -2.1121    0.2241 H   0  0  0  0  0 15  0  0  0  0  0  0
   31.4990   -0.9473    0.0376 H   0  0  0  0  0 15  0  0  0  0  0  0
   31.2050   -3.4877   -0.4534 H   0  0  0  0  0 15  0  0  0  0  0  0
   31.0790   -3.0933   -2.1586 H   0  0  0  0  0 15  0  0  0  0  0  0
   33.4660   -2.1056   -2.0676 H   0  0  0  0  0 15  0  0  0  0  0  0
   33.5470   -2.5336   -0.3526 H   0  0  0  0  0 15  0  0  0  0  0  0
   33.1910   -4.9854   -0.9706 H   0  0  0  0  0 15  0  0  0  0  0  0
   33.1210   -4.5267   -2.6906 H   0  0  0  0  0 15  0  0  0  0  0  0
   35.6120   -3.4361   -1.5729 H   0  0  0  0  0 15  0  0  0  0  0  0
   35.9250   -7.2640   -2.6374 H   0  0  0  0  0 15  0  0  0  0  0  0
   34.2700   -6.5304   -2.3784 H   0  0  0  0  0 15  0  0  0  0  0  0
   37.4610   -4.2906   -1.8714 H   0  0  0  0  0 15  0  0  0  0  0  0
   37.6340   -6.0361   -2.3570 H   0  0  0  0  0 15  0  0  0  0  0  0
   31.0401    0.7711   -1.3745 N   0  0  0  0  0 15  0  0  0  0  0  0
   32.2861    1.5319   -1.3289 C   0  0  0  0  0 15  0  0  0  0  0  0
   32.6191    1.9401    0.0863 C   0  0  0  0  0 15  0  0  0  0  0  0
   31.8941    1.6412    1.0437 O   0  0  0  0  0 15  0  0  0  0  0  0
   32.1771    2.7965   -2.2687 C   0  0  0  0  0 15  0  0  0  0  0  0
   32.0301    2.4508   -3.7717 C   0  0  0  0  0 15  0  0  0  0  0  0
   33.3491    3.8158   -2.1928 C   0  0  0  0  0 15  0  0  0  0  0  0
   30.4681    0.5557   -0.4841 H   0  0  0  0  0 15  0  0  0  0  0  0
   33.1101    0.8845   -1.6816 H   0  0  0  0  0 15  0  0  0  0  0  0
   31.2601    3.3489   -1.9693 H   0  0  0  0  0 15  0  0  0  0  0  0
   32.9321    1.9574   -4.1771 H   0  0  0  0  0 15  0  0  0  0  0  0
   31.1751    1.7777   -3.9570 H   0  0  0  0  0 15  0  0  0  0  0  0
   31.8461    3.3548   -4.3836 H   0  0  0  0  0 15  0  0  0  0  0  0
   34.3221    3.3583   -2.4567 H   0  0  0  0  0 15  0  0  0  0  0  0
   33.1981    4.6779   -2.8717 H   0  0  0  0  0 15  0  0  0  0  0  0
   33.4591    4.2590   -1.1859 H   0  0  0  0  0 15  0  0  0  0  0  0
   32.5182    1.2203    0.9973 N   0  0  0  0  0 15  0  0  0  0  0  0
   33.7652    1.0422    1.7362 C   0  0  0  0  0 15  0  0  0  0  0  0
   34.0932   -0.4233    1.8984 C   0  0  0  0  0 15  0  0  0  0  0  0
   33.3482   -1.3302    1.4354 O   0  0  0  0  0 15  0  0  0  0  0  0
   33.6472    1.6934    3.1473 C   0  0  0  0  0 15  0  0  0  0  0  0
   33.3132    3.1923    3.1844 C   0  0  0  0  0 15  0  0  0  0  0  0
   31.9752    3.6012    3.1916 C   0  0  0  0  0 15  0  0  0  0  0  0
   34.3272    4.1518    3.1508 C   0  0  0  0  0 15  0  0  0  0  0  0
   31.6552    4.9547    3.1421 C   0  0  0  0  0 15  0  0  0  0  0  0
   34.0072    5.5049    3.1167 C   0  0  0  0  0 15  0  0  0  0  0  0
   32.6712    5.9078    3.1070 C   0  0  0  0  0 15  0  0  0  0  0  0
   31.9412    0.3814    0.6353 H   0  0  0  0  0 15  0  0  0  0  0  0
   34.5882    1.5173    1.1683 H   0  0  0  0  0 15  0  0  0  0  0  0
   32.8932    1.1415    3.7480 H   0  0  0  0  0 15  0  0  0  0  0  0
   34.5902    1.5306    3.7064 H   0  0  0  0  0 15  0  0  0  0  0  0
   31.1802    2.8666    3.1863 H   0  0  0  0  0 15  0  0  0  0  0  0
   35.3642    3.8461    3.1368 H   0  0  0  0  0 15  0  0  0  0  0  0
   30.6202    5.2592    3.1181 H   0  0  0  0  0 15  0  0  0  0  0  0
   34.7942    6.2458    3.0802 H   0  0  0  0  0 15  0  0  0  0  0  0
   32.4212    6.9562    3.0662 H   0  0  0  0  0 15  0  0  0  0  0  0
   33.9963   -1.1934    1.0293 N   0  0  0  0  0 15  0  0  0  0  0  0
   34.9263   -2.2481    0.6311 C   0  0  0  0  0 15  0  0  0  0  0  0
   35.9073   -1.6624   -0.3601 C   0  0  0  0  0 15  0  0  0  0  0  0
   37.0923   -1.9268   -0.2427 O   0  0  0  0  0 15  0  0  0  0  0  0
   34.2223   -3.4730   -0.0185 C   0  0  0  0  0 15  0  0  0  0  0  0
   33.1763   -4.1854    0.8951 C   0  0  0  0  0 15  0  0  0  0  0  0
   32.5023   -5.3459    0.1106 C   0  0  0  0  0 15  0  0  0  0  0  0
   33.8023   -4.7329    2.2090 C   0  0  0  0  0 15  0  0  0  0  0  0
   35.4963   -2.5837    1.5128 H   0  0  0  0  0 15  0  0  0  0  0  0
   33.0423   -1.2419    0.7288 H   0  0  0  0  0 15  0  0  0  0  0  0
   34.9953   -4.2027   -0.3087 H   0  0  0  0  0 15  0  0  0  0  0  0
   33.7193   -3.1293   -0.9349 H   0  0  0  0  0 15  0  0  0  0  0  0
   32.3783   -3.4745    1.1695 H   0  0  0  0  0 15  0  0  0  0  0  0
   32.0263   -4.9647   -0.8079 H   0  0  0  0  0 15  0  0  0  0  0  0
   31.7263   -5.8318    0.7191 H   0  0  0  0  0 15  0  0  0  0  0  0
   33.2503   -6.1036   -0.1729 H   0  0  0  0  0 15  0  0  0  0  0  0
   34.6643   -5.3801    1.9803 H   0  0  0  0  0 15  0  0  0  0  0  0
   33.0613   -5.3237    2.7695 H   0  0  0  0  0 15  0  0  0  0  0  0
   34.1313   -3.9133    2.8634 H   0  0  0  0  0 15  0  0  0  0  0  0
   35.4744   -0.8072   -1.3536 N   0  0  0  0  0 15  0  0  0  0  0  0
   36.7204   -0.3885   -1.9904 C   0  0  0  0  0 15  0  0  0  0  0  0
   37.0534    1.0418   -1.6389 C   0  0  0  0  0 15  0  0  0  0  0  0
   36.3284    1.7229   -0.9025 O   0  0  0  0  0 15  0  0  0  0  0  0
   36.6114   -0.5728   -3.5552 C   0  0  0  0  0 15  0  0  0  0  0  0
   36.4644   -2.0481   -4.0047 C   0  0  0  0  0 15  0  0  0  0  0  0
   37.7834    0.0011   -4.4010 C   0  0  0  0  0 15  0  0  0  0  0  0
   34.9024   -0.1426   -0.7231 H   0  0  0  0  0 15  0  0  0  0  0  0
   37.5444   -1.0169   -1.6050 H   0  0  0  0  0 15  0  0  0  0  0  0
   35.6944   -0.0378   -3.8848 H   0  0  0  0  0 15  0  0  0  0  0  0
   37.3664   -2.6454   -3.7791 H   0  0  0  0  0 15  0  0  0  0  0  0
   35.6094   -2.5443   -3.5135 H   0  0  0  0  0 15  0  0  0  0  0  0
   36.2804   -2.1279   -5.0934 H   0  0  0  0  0 15  0  0  0  0  0  0
   38.7564   -0.4557   -4.1360 H   0  0  0  0  0 15  0  0  0  0  0  0
   37.6324   -0.1577   -5.4867 H   0  0  0  0  0 15  0  0  0  0  0  0
   37.8934    1.0949   -4.2833 H   0  0  0  0  0 15  0  0  0  0  0  0
   36.9525    1.4729   -0.5608 N   0  0  0  0  0 15  0  0  0  0  0  0
   38.2015    2.0167   -0.0359 C   0  0  0  0  0 15  0  0  0  0  0  0
   38.5145    1.4402    1.3235 C   0  0  0  0  0 15  0  0  0  0  0  0
   39.7205    1.9009    1.9385 O   0  0  0  0  0 15  0  0  0  0  0  0
   38.1765    3.5990   -0.0137 C   0  0  0  0  0 15  0  0  0  0  0  0
   37.7845    4.2654   -1.3701 C   0  0  0  0  0 15  0  0  0  0  0  0
   39.5285    4.2202    0.4584 C   0  0  0  0  0 15  0  0  0  0  0  0
   37.4355    5.7678   -1.3067 C   0  0  0  0  0 15  0  0  0  0  0  0
   36.3655    0.7539   -0.0096 H   0  0  0  0  0 15  0  0  0  0  0  0
   39.0165    1.6924   -0.7092 H   0  0  0  0  0 15  0  0  0  0  0  0
   37.3985    3.8930    0.7253 H   0  0  0  0  0 15  0  0  0  0  0  0
   38.5725    4.0877   -2.1270 H   0  0  0  0  0 15  0  0  0  0  0  0
   36.8875    3.7642   -1.7804 H   0  0  0  0  0 15  0  0  0  0  0  0
   39.4845    5.3212    0.5242 H   0  0  0  0  0 15  0  0  0  0  0  0
   39.8275    3.8944    1.4712 H   0  0  0  0  0 15  0  0  0  0  0  0
   40.3605    3.9716   -0.2258 H   0  0  0  0  0 15  0  0  0  0  0  0
   37.0995    6.1399   -2.2956 H   0  0  0  0  0 15  0  0  0  0  0  0
   36.6195    5.9688   -0.5916 H   0  0  0  0  0 15  0  0  0  0  0  0
   38.2985    6.3906   -1.0103 H   0  0  0  0  0 15  0  0  0  0  0  0
   38.4306    0.2974    1.5477 N   0  0  0  0  0 15  0  0  0  0  0  0
   39.3936   -0.5674    2.2207 C   0  0  0  0  0 15  0  0  0  0  0  0
   40.3936   -1.0641    1.2056 C   0  0  0  0  0 15  0  0  0  0  0  0
   41.5836   -0.9607    1.4531 O   0  0  0  0  0 15  0  0  0  0  0  0
   38.7156   -1.7852    2.9042 C   0  0  0  0  0 15  0  0  0  0  0  0
   39.9086    0.0206    2.9989 H   0  0  0  0  0 15  0  0  0  0  0  0
   37.4616    0.0482    1.5623 H   0  0  0  0  0 15  0  0  0  0  0  0
   38.1966   -2.4130    2.1666 H   0  0  0  0  0 15  0  0  0  0  0  0
   37.9816   -1.4367    3.6483 H   0  0  0  0  0 15  0  0  0  0  0  0
   39.4716   -2.3996    3.4177 H   0  0  0  0  0 15  0  0  0  0  0  0
   39.9087   -1.5758    0.0251 N   0  0  0  0  0 15  0  0  0  0  0  0
   40.8717   -2.0890   -0.9431 C   0  0  0  0  0 15  0  0  0  0  0  0
   41.8717   -1.0032   -1.2567 C   0  0  0  0  0 15  0  0  0  0  0  0
   43.0617   -1.2650   -1.1977 O   0  0  0  0  0 15  0  0  0  0  0  0
   40.1937   -2.5514   -2.2609 C   0  0  0  0  0 15  0  0  0  0  0  0
   41.3867   -2.9572   -0.4988 H   0  0  0  0  0 15  0  0  0  0  0  0
   38.9397   -1.5470   -0.2229 H   0  0  0  0  0 15  0  0  0  0  0  0
   39.6747   -1.7163   -2.7516 H   0  0  0  0  0 15  0  0  0  0  0  0
   39.4597   -3.3446   -2.0464 H   0  0  0  0  0 15  0  0  0  0  0  0
   40.9497   -2.9508   -2.9549 H   0  0  0  0  0 15  0  0  0  0  0  0
   41.3868    0.2480   -1.5564 N   0  0  0  0  0 15  0  0  0  0  0  0
   42.6358    0.9741   -1.7662 C   0  0  0  0  0 15  0  0  0  0  0  0
   42.9488    1.8653   -0.5888 C   0  0  0  0  0 15  0  0  0  0  0  0
   44.1548    2.6281   -0.6816 O   0  0  0  0  0 15  0  0  0  0  0  0
   42.6108    1.7821   -3.1268 C   0  0  0  0  0 15  0  0  0  0  0  0
   42.2188    0.9384   -4.3806 C   0  0  0  0  0 15  0  0  0  0  0  0
   43.9628    2.5010   -3.4300 C   0  0  0  0  0 15  0  0  0  0  0  0
   41.8698    1.7422   -5.6515 C   0  0  0  0  0 15  0  0  0  0  0  0
   40.7998    0.3674   -0.6584 H   0  0  0  0  0 15  0  0  0  0  0  0
   43.4508    0.2288   -1.8207 H   0  0  0  0  0 15  0  0  0  0  0  0
   41.8328    2.5693   -3.0133 H   0  0  0  0  0 15  0  0  0  0  0  0
   43.0068    0.1936   -4.6039 H   0  0  0  0  0 15  0  0  0  0  0  0
   41.3218    0.3329   -4.1507 H   0  0  0  0  0 15  0  0  0  0  0  0
   43.9188    3.1069   -4.3517 H   0  0  0  0  0 15  0  0  0  0  0  0
   44.2618    3.2166   -2.6427 H   0  0  0  0  0 15  0  0  0  0  0  0
   44.7948    1.7839   -3.5556 H   0  0  0  0  0 15  0  0  0  0  0  0
   41.5338    1.0704   -6.4670 H   0  0  0  0  0 15  0  0  0  0  0  0
   41.0538    2.4624   -5.4693 H   0  0  0  0  0 15  0  0  0  0  0  0
   42.7328    2.3097   -6.0437 H   0  0  0  0  0 15  0  0  0  0  0  0
   42.8649    1.4899    0.5136 N   0  0  0  0  0 15  0  0  0  0  0  0
   43.8279    1.6423    1.5988 C   0  0  0  0  0 15  0  0  0  0  0  0
   44.8279    0.5147    1.5234 C   0  0  0  0  0 15  0  0  0  0  0  0
   46.0179    0.7809    1.5572 O   0  0  0  0  0 15  0  0  0  0  0  0
   43.1499    1.6278    2.9952 C   0  0  0  0  0 15  0  0  0  0  0  0
   44.3429    2.6100    1.4771 H   0  0  0  0  0 15  0  0  0  0  0  0
   41.8959    1.3784    0.7369 H   0  0  0  0  0 15  0  0  0  0  0  0
   42.6309    0.6755    3.1719 H   0  0  0  0  0 15  0  0  0  0  0  0
   42.4159    2.4466    3.0640 H   0  0  0  0  0 15  0  0  0  0  0  0
   43.9059    1.7667    3.7839 H   0  0  0  0  0 15  0  0  0  0  0  0
   44.3430   -0.7638    1.3786 N   0  0  0  0  0 15  0  0  0  0  0  0
   45.2930   -1.8677    1.3078 C   0  0  0  0  0 15  0  0  0  0  0  0
   46.2770   -1.5973    0.1940 C   0  0  0  0  0 15  0  0  0  0  0  0
   47.4690   -1.7172    0.4291 O   0  0  0  0  0 15  0  0  0  0  0  0
   44.5980   -3.2434    1.1250 C   0  0  0  0  0 15  0  0  0  0  0  0
   43.6840   -3.5731    2.2846 C   0  0  0  0  0 15  0  0  0  0  0  0
   44.0750   -3.6140    3.5387 N   0  0  0  0  0 15  0  0  0  0  0  0
   42.3730   -3.8752    2.2079 C   0  0  0  0  0 15  0  0  0  0  0  0
   43.0740   -3.9134    4.3038 C   0  0  0  0  0 15  0  0  0  0  0  0
   42.0500   -4.0765    3.5962 N   0  0  0  0  0 15  0  0  0  0  0  0
   45.8520   -1.8819    2.2575 H   0  0  0  0  0 15  0  0  0  0  0  0
   43.3660   -0.9606    1.3094 H   0  0  0  0  0 15  0  0  0  0  0  0
   45.3630   -4.0333    1.0551 H   0  0  0  0  0 15  0  0  0  0  0  0
   44.0230   -3.2417    0.1846 H   0  0  0  0  0 15  0  0  0  0  0  0
   45.0340   -3.4341    3.8767 H   0  0  0  0  0 15  0  0  0  0  0  0
   41.7110   -3.9512    1.3484 H   0  0  0  0  0 15  0  0  0  0  0  0
   43.1010   -4.0121    5.3896 H   0  0  0  0  0 15  0  0  0  0  0  0
   45.8211   -1.2256   -0.9908 N   0  0  0  0  0 15  0  0  0  0  0  0
   47.0681   -1.0514   -1.7307 C   0  0  0  0  0 15  0  0  0  0  0  0
   47.3961    0.4132   -1.9006 C   0  0  0  0  0 15  0  0  0  0  0  0
   46.6511    1.3226   -1.4425 O   0  0  0  0  0 15  0  0  0  0  0  0
   46.9501   -1.7101   -3.1383 C   0  0  0  0  0 15  0  0  0  0  0  0
   46.6161   -3.2091   -3.1674 C   0  0  0  0  0 15  0  0  0  0  0  0
   45.2781   -3.6181   -3.1725 C   0  0  0  0  0 15  0  0  0  0  0  0
   47.6301   -4.1685   -3.1287 C   0  0  0  0  0 15  0  0  0  0  0  0
   44.9581   -4.9713   -3.1158 C   0  0  0  0  0 15  0  0  0  0  0  0
   47.3101   -5.5214   -3.0875 C   0  0  0  0  0 15  0  0  0  0  0  0
   45.9741   -5.9242   -3.0757 C   0  0  0  0  0 15  0  0  0  0  0  0
   45.2441   -0.3847   -0.6333 H   0  0  0  0  0 15  0  0  0  0  0  0
   47.8911   -1.5235   -1.1603 H   0  0  0  0  0 15  0  0  0  0  0  0
   46.1961   -1.1613   -3.7419 H   0  0  0  0  0 15  0  0  0  0  0  0
   47.8931   -1.5502   -3.6982 H   0  0  0  0  0 15  0  0  0  0  0  0
   44.4831   -2.8834   -3.1710 H   0  0  0  0  0 15  0  0  0  0  0  0
   48.6671   -3.8626   -3.1163 H   0  0  0  0  0 15  0  0  0  0  0  0
   43.9231   -5.2756   -3.0901 H   0  0  0  0  0 15  0  0  0  0  0  0
   48.0971   -6.2620   -3.0471 H   0  0  0  0  0 15  0  0  0  0  0  0
   45.7241   -6.9724   -3.0293 H   0  0  0  0  0 15  0  0  0  0  0  0
   47.2992    1.1880   -1.0356 N   0  0  0  0  0 15  0  0  0  0  0  0
   48.2292    2.2447   -0.6430 C   0  0  0  0  0 15  0  0  0  0  0  0
   49.2102    1.6643    0.3513 C   0  0  0  0  0 15  0  0  0  0  0  0
   50.3952    1.9280    0.2325 O   0  0  0  0  0 15  0  0  0  0  0  0
   47.5252    3.4730    0.0000 C   0  0  0  0  0 15  0  0  0  0  0  0
   46.4792    4.1806   -0.9173 C   0  0  0  0  0 15  0  0  0  0  0  0
   45.8052    5.3452   -0.1389 C   0  0  0  0  0 15  0  0  0  0  0  0
   47.1052    4.7211   -2.2341 C   0  0  0  0  0 15  0  0  0  0  0  0
   48.7992    2.5757   -1.5264 H   0  0  0  0  0 15  0  0  0  0  0  0
   46.3452    1.2381   -0.7354 H   0  0  0  0  0 15  0  0  0  0  0  0
   48.2982    4.2043    0.2864 H   0  0  0  0  0 15  0  0  0  0  0  0
   47.0222    3.1342    0.9183 H   0  0  0  0  0 15  0  0  0  0  0  0
   45.6812    3.4682   -1.1879 H   0  0  0  0  0 15  0  0  0  0  0  0
   45.3292    4.9689    0.7816 H   0  0  0  0  0 15  0  0  0  0  0  0
   45.0292    5.8279   -0.7500 H   0  0  0  0  0 15  0  0  0  0  0  0
   46.5532    6.1044    0.1405 H   0  0  0  0  0 15  0  0  0  0  0  0
   47.9672    5.3695   -2.0088 H   0  0  0  0  0 15  0  0  0  0  0  0
   46.3642    5.3090   -2.7977 H   0  0  0  0  0 15  0  0  0  0  0  0
   47.4342    3.8981   -2.8841 H   0  0  0  0  0 15  0  0  0  0  0  0
   48.7773    0.8144    1.3493 N   0  0  0  0  0 15  0  0  0  0  0  0
   49.7403    0.2358    2.2798 C   0  0  0  0  0 15  0  0  0  0  0  0
   50.7403   -0.5814    1.4992 C   0  0  0  0  0 15  0  0  0  0  0  0
   51.9303   -0.3988    1.6957 O   0  0  0  0  0 15  0  0  0  0  0  0
   49.0623   -0.6704    3.3424 C   0  0  0  0  0 15  0  0  0  0  0  0
   50.2553    1.0566    2.8067 H   0  0  0  0  0 15  0  0  0  0  0  0
   47.8083    0.5856    1.4491 H   0  0  0  0  0 15  0  0  0  0  0  0
   48.5433   -1.5147    2.8676 H   0  0  0  0  0 15  0  0  0  0  0  0
   48.3283   -0.0861    3.9201 H   0  0  0  0  0 15  0  0  0  0  0  0
   49.8183   -1.0694    4.0368 H   0  0  0  0  0 15  0  0  0  0  0  0
   50.2554   -1.4699    0.5686 N   0  0  0  0  0 15  0  0  0  0  0  0
   51.5024   -2.0244    0.0488 C   0  0  0  0  0 15  0  0  0  0  0  0
   51.8304   -1.4417   -1.3056 C   0  0  0  0  0 15  0  0  0  0  0  0
   51.0854   -0.5912   -1.8656 O   0  0  0  0  0 15  0  0  0  0  0  0
   51.3844   -3.5731   -0.0818 C   0  0  0  0  0 15  0  0  0  0  0  0
   51.0504   -4.3455    1.2031 C   0  0  0  0  0 15  0  0  0  0  0  0
   49.7124   -4.5538    1.5552 C   0  0  0  0  0 15  0  0  0  0  0  0
   52.0644   -4.7902    2.0541 C   0  0  0  0  0 15  0  0  0  0  0  0
   49.3924   -5.1791    2.7565 C   0  0  0  0  0 15  0  0  0  0  0  0
   51.7444   -5.4288    3.2475 C   0  0  0  0  0 15  0  0  0  0  0  0
   50.4084   -5.6193    3.6026 C   0  0  0  0  0 15  0  0  0  0  0  0
   49.6784   -0.7408    0.0179 H   0  0  0  0  0 15  0  0  0  0  0  0
   52.3254   -1.7652    0.7424 H   0  0  0  0  0 15  0  0  0  0  0  0
   50.6304   -3.8228   -0.8585 H   0  0  0  0  0 15  0  0  0  0  0  0
   52.3274   -3.9788   -0.4995 H   0  0  0  0  0 15  0  0  0  0  0  0
   48.9174   -4.1863    0.9190 H   0  0  0  0  0 15  0  0  0  0  0  0
   53.1014   -4.6270    1.7952 H   0  0  0  0  0 15  0  0  0  0  0  0
   48.3574   -5.3086    3.0332 H   0  0  0  0  0 15  0  0  0  0  0  0
   52.5314   -5.7629    3.9097 H   0  0  0  0  0 15  0  0  0  0  0  0
   50.1584   -6.1016    4.5344 H   0  0  0  0  0 15  0  0  0  0  0  0
   51.7335   -0.3056   -1.5461 N   0  0  0  0  0 15  0  0  0  0  0  0
   52.9615    0.3048   -2.0464 C   0  0  0  0  0 15  0  0  0  0  0  0
   53.3765    1.4717   -1.1827 C   0  0  0  0  0 15  0  0  0  0  0  0
   52.7335    1.8130   -0.2093 O   0  0  0  0  0 15  0  0  0  0  0  0
   52.7845    0.7566   -3.5349 C   0  0  0  0  0 15  0  0  0  0  0  0
   52.5055   -0.3639   -4.3659 O   0  0  0  0  0 15  0  0  0  0  0  0
   54.0065    1.4316   -4.1955 C   0  0  0  0  0 15  0  0  0  0  0  0
   51.2265    0.0655   -0.6678 H   0  0  0  0  0 15  0  0  0  0  0  0
   53.7705   -0.4466   -1.9956 H   0  0  0  0  0 15  0  0  0  0  0  0
   51.9255    1.4579   -3.5892 H   0  0  0  0  0 15  0  0  0  0  0  0
   52.3395   -0.0113   -5.2450 H   0  0  0  0  0 15  0  0  0  0  0  0
   53.8135    1.6989   -5.2521 H   0  0  0  0  0 15  0  0  0  0  0  0
   54.2905    2.3732   -3.6956 H   0  0  0  0  0 15  0  0  0  0  0  0
   54.8965    0.7733   -4.1821 H   0  0  0  0  0 15  0  0  0  0  0  0
   53.2116    1.5756   -0.0334 N   0  0  0  0  0 15  0  0  0  0  0  0
   54.1416    2.1351    0.9453 C   0  0  0  0  0 15  0  0  0  0  0  0
   55.1226    1.0523    1.3364 C   0  0  0  0  0 15  0  0  0  0  0  0
   56.3076    1.3308    1.4143 O   0  0  0  0  0 15  0  0  0  0  0  0
   53.4376    2.6657    2.2262 C   0  0  0  0  0 15  0  0  0  0  0  0
   52.3916    3.7968    1.9756 C   0  0  0  0  0 15  0  0  0  0  0  0
   51.7176    4.1918    3.3195 C   0  0  0  0  0 15  0  0  0  0  0  0
   53.0176    5.0557    1.3113 C   0  0  0  0  0 15  0  0  0  0  0  0
   54.7116    2.9554    0.4793 H   0  0  0  0  0 15  0  0  0  0  0  0
   52.2576    1.4217    0.2291 H   0  0  0  0  0 15  0  0  0  0  0  0
   54.2106    3.0434    2.9147 H   0  0  0  0  0 15  0  0  0  0  0  0
   52.9346    1.8171    2.7138 H   0  0  0  0  0 15  0  0  0  0  0  0
   51.5936    3.4235    1.3113 H   0  0  0  0  0 15  0  0  0  0  0  0
   51.2416    3.3130    3.7849 H   0  0  0  0  0 15  0  0  0  0  0  0
   50.9416    4.9540    3.1599 H   0  0  0  0  0 15  0  0  0  0  0  0
   52.4656    4.5954    4.0206 H   0  0  0  0  0 15  0  0  0  0  0  0
   53.8796    5.4090    1.8999 H   0  0  0  0  0 15  0  0  0  0  0  0
   52.2766    5.8682    1.2556 H   0  0  0  0  0 15  0  0  0  0  0  0
   53.3466    4.8406    0.2849 H   0  0  0  0  0 15  0  0  0  0  0  0
   54.6897   -0.2398    1.5577 N   0  0  0  0  0 15  0  0  0  0  0  0
   55.9177   -0.9842    1.8199 C   0  0  0  0  0 15  0  0  0  0  0  0
   56.3327   -1.7867    0.6101 C   0  0  0  0  0 15  0  0  0  0  0  0
   55.6897   -1.7757   -0.4213 O   0  0  0  0  0 15  0  0  0  0  0  0
   55.7407   -1.9163    3.0653 C   0  0  0  0  0 15  0  0  0  0  0  0
   55.4617   -1.1463    4.2284 O   0  0  0  0  0 15  0  0  0  0  0  0
   56.9627   -2.7762    3.4561 C   0  0  0  0  0 15  0  0  0  0  0  0
   54.1827   -0.2893    0.6054 H   0  0  0  0  0 15  0  0  0  0  0  0
   56.7267   -0.2605    2.0283 H   0  0  0  0  0 15  0  0  0  0  0  0
   54.8817   -2.5942    2.8771 H   0  0  0  0  0 15  0  0  0  0  0  0
   55.2957   -1.7774    4.9346 H   0  0  0  0  0 15  0  0  0  0  0  0
   56.7697   -3.3876    4.3583 H   0  0  0  0  0 15  0  0  0  0  0  0
   57.2467   -3.4909    2.6652 H   0  0  0  0  0 15  0  0  0  0  0  0
   57.8527   -2.1527    3.6679 H   0  0  0  0  0 15  0  0  0  0  0  0
   56.1678   -1.4927   -0.5057 N   0  0  0  0  0 15  0  0  0  0  0  0
   57.5788   -1.5177   -1.0873 C   0  0  0  0  0 15  0  0  0  0  0  0
   57.9298   -0.3012   -1.9387 C   0  0  0  0  0 15  0  0  0  0  0  0
   57.0548    0.5895   -2.0822 O   0  0  0  0  0 15  0  0  0  0  0  0
   57.6498   -2.7502   -1.9787 C   0  0  0  0  0 15  0  0  0  0  0  0
   56.2088   -2.8031   -2.5120 C   0  0  0  0  0 15  0  0  0  0  0  0
   55.3558   -2.4562   -1.2871 C   0  0  0  0  0 15  0  0  0  0  0  0
   58.3068   -1.5603   -0.2899 H   0  0  0  0  0 15  0  0  0  0  0  0
   58.3278   -2.5491   -2.8249 H   0  0  0  0  0 15  0  0  0  0  0  0
   57.8398   -3.6354   -1.3587 H   0  0  0  0  0 15  0  0  0  0  0  0
   55.9408   -1.9606   -3.1685 H   0  0  0  0  0 15  0  0  0  0  0  0
   56.0538   -3.8237   -2.8867 H   0  0  0  0  0 15  0  0  0  0  0  0
   54.4178   -1.9730   -1.6108 H   0  0  0  0  0 15  0  0  0  0  0  0
   55.2008   -3.3641   -0.6843 H   0  0  0  0  0 15  0  0  0  0  0  0
   57.6459    0.7564   -1.3826 N   0  0  0  0  0 15  0  0  0  0  0  0
   58.8919    1.5168   -1.3552 C   0  0  0  0  0 15  0  0  0  0  0  0
   59.2469    1.9232    0.0554 C   0  0  0  0  0 15  0  0  0  0  0  0
   58.5399    1.6235    1.0175 O   0  0  0  0  0 15  0  0  0  0  0  0
   58.7339    2.7831   -2.2422 C   0  0  0  0  0 15  0  0  0  0  0  0
   58.5629    2.5005   -3.7377 C   0  0  0  0  0 15  0  0  0  0  0  0
   57.3329    2.4341   -4.4281 C   0  0  0  0  0 15  0  0  0  0  0  0
   59.5309    2.1702   -4.6627 C   0  0  0  0  0 15  0  0  0  0  0  0
   57.5129    2.0740   -5.7781 N   0  0  0  0  0 15  0  0  0  0  0  0
   58.8839    1.9127   -5.8976 C   0  0  0  0  0 15  0  0  0  0  0  0
   60.9389    2.0330   -4.5450 C   0  0  0  0  0 15  0  0  0  0  0  0
   59.6419    1.5319   -7.0280 C   0  0  0  0  0 15  0  0  0  0  0  0
   61.6679    1.6663   -5.6744 C   0  0  0  0  0 15  0  0  0  0  0  0
   61.0299    1.4175   -6.8999 C   0  0  0  0  0 15  0  0  0  0  0  0
   57.1289    0.5547   -0.5512 H   0  0  0  0  0 15  0  0  0  0  0  0
   59.7129    0.8811   -1.7362 H   0  0  0  0  0 15  0  0  0  0  0  0
   57.8839    3.3970   -1.8831 H   0  0  0  0  0 15  0  0  0  0  0  0
   59.6159    3.4434   -2.1263 H   0  0  0  0  0 15  0  0  0  0  0  0
   56.3709    2.5979   -3.9599 H   0  0  0  0  0 15  0  0  0  0  0  0
   56.7949    1.9204   -6.4919 H   0  0  0  0  0 15  0  0  0  0  0  0
   61.4369    2.2121   -3.6031 H   0  0  0  0  0 15  0  0  0  0  0  0
   59.1549    1.3402   -7.9691 H   0  0  0  0  0 15  0  0  0  0  0  0
   62.7409    1.5665   -5.6031 H   0  0  0  0  0 15  0  0  0  0  0  0
   61.6209    1.1379   -7.7590 H   0  0  0  0  0 15  0  0  0  0  0  0
   59.1240    1.2308    0.9843 N   0  0  0  0  0 15  0  0  0  0  0  0
   60.0540    1.0329    2.0941 C   0  0  0  0  0 15  0  0  0  0  0  0
   61.0350   -0.0489    1.7003 C   0  0  0  0  0 15  0  0  0  0  0  0
   62.2200    0.1150    1.9386 O   0  0  0  0  0 15  0  0  0  0  0  0
   59.3500    0.6192    3.4174 C   0  0  0  0  0 15  0  0  0  0  0  0
   58.3040    1.6479    3.9500 C   0  0  0  0  0 15  0  0  0  0  0  0
   57.6300    1.0897    5.2348 C   0  0  0  0  0 15  0  0  0  0  0  0
   58.9300    3.0400    4.2471 C   0  0  0  0  0 15  0  0  0  0  0  0
   60.6240    1.9612    2.2623 H   0  0  0  0  0 15  0  0  0  0  0  0
   58.1700    0.9443    1.0871 H   0  0  0  0  0 15  0  0  0  0  0  0
   60.1230    0.4678    4.1880 H   0  0  0  0  0 15  0  0  0  0  0  0
   58.8470   -0.3448    3.2477 H   0  0  0  0  0 15  0  0  0  0  0  0
   57.5060    1.7872    3.2009 H   0  0  0  0  0 15  0  0  0  0  0  0
   57.1540    0.1169    5.0286 H   0  0  0  0  0 15  0  0  0  0  0  0
   56.8540    1.7770    5.6008 H   0  0  0  0  0 15  0  0  0  0  0  0
   58.3780    0.9501    6.0316 H   0  0  0  0  0 15  0  0  0  0  0  0
   59.7920    2.9339    4.9254 H   0  0  0  0  0 15  0  0  0  0  0  0
   58.1890    3.6994    4.7251 H   0  0  0  0  0 15  0  0  0  0  0  0
   59.2590    3.5328    3.3214 H   0  0  0  0  0 15  0  0  0  0  0  0
   60.6021   -1.1825    1.0419 N   0  0  0  0  0 15  0  0  0  0  0  0
   61.5521   -2.1984    0.6044 C   0  0  0  0  0 15  0  0  0  0  0  0
   62.5361   -1.5696   -0.3538 C   0  0  0  0  0 15  0  0  0  0  0  0
   63.7281   -1.7616   -0.1727 O   0  0  0  0  0 15  0  0  0  0  0  0
   60.8571   -3.4329   -0.0299 C   0  0  0  0  0 15  0  0  0  0  0  0
   59.9431   -4.1329    0.9515 C   0  0  0  0  0 15  0  0  0  0  0  0
   60.3341   -4.5927    2.1191 N   0  0  0  0  0 15  0  0  0  0  0  0
   58.6321   -4.3917    0.7778 C   0  0  0  0  0 15  0  0  0  0  0  0
   59.3331   -5.1317    2.7391 C   0  0  0  0  0 15  0  0  0  0  0  0
   58.3091   -5.0476    2.0178 N   0  0  0  0  0 15  0  0  0  0  0  0
   62.1111   -2.5309    1.4941 H   0  0  0  0  0 15  0  0  0  0  0  0
   59.6251   -1.3446    0.9107 H   0  0  0  0  0 15  0  0  0  0  0  0
   61.6221   -4.1533   -0.3610 H   0  0  0  0  0 15  0  0  0  0  0  0
   60.2821   -3.1154   -0.9151 H   0  0  0  0  0 15  0  0  0  0  0  0
   61.2931   -4.5368    2.4979 H   0  0  0  0  0 15  0  0  0  0  0  0
   57.9701   -4.1746   -0.0572 H   0  0  0  0  0 15  0  0  0  0  0  0
   59.3601   -5.5895    3.7286 H   0  0  0  0  0 15  0  0  0  0  0  0
   62.1191   -0.9568   -1.3011 O   0  0  0  0  0 15  0  0  0  0  0  0
   62.8101   -0.5911   -1.8446 H   0  0  0  0  0 15  0  0  0  0  0  0
M  END
$$$$
