drugbank_target|P35225 Interleukin-13 (DB05305; DB11914)
 OpenBabel12092120153D

  0  0  0     0  0            999 V3000
M  V30 BEGIN CTAB
M  V30 COUNTS 2268 2288 0 0 0
M  V30 BEGIN ATOM
M  V30 1 H -0.908 1.98254 -0.117106 0
M  V30 2 N 0 1.576 0 0
M  V30 3 C 0.933 2.03868 1.02534 0
M  V30 4 C 1.911 0.928543 1.3348 0
M  V30 5 O 3.095 1.19667 1.45644 0
M  V30 6 C 0.222 2.43627 2.35294 0
M  V30 7 C -0.732 3.65373 2.2001 0
M  V30 8 S 0.101 5.13292 1.52614 0
M  V30 9 C 1.257 5.56322 2.86805 0
M  V30 10 H 1.49 2.90518 0.631377 0
M  V30 11 H -0.977 1.52953 0.210867 0
M  V30 12 H 0.981 2.67203 3.11629 0
M  V30 13 H -0.358 1.57376 2.7183 0
M  V30 14 H -1.165 3.90944 3.18086 0
M  V30 15 H -1.563 3.418 1.51819 0
M  V30 16 H 0.729 5.58782 3.83104 0
M  V30 17 H 1.672 6.56266 2.65933 0
M  V30 18 H 2.08 4.83886 2.90714 0
M  V30 19 N 1.4781 -0.272755 1.55222 0
M  V30 20 C 2.4281 -1.33946 1.84506 0
M  V30 21 C 3.4121 -1.44682 0.70399 0
M  V30 22 O 4.6041 -1.48358 0.965338 0
M  V30 23 C 1.7331 -2.69968 2.12067 0
M  V30 24 C 0.8191 -2.63341 3.32434 0
M  V30 25 N 1.2101 -2.26335 4.52334 0
M  V30 26 C -0.4919 -2.94402 3.35028 0
M  V30 27 C 0.2091 -2.29705 5.34425 0
M  V30 28 N -0.8149 -2.68188 4.72838 0
M  V30 29 H 2.9871 -1.04343 2.74754 0
M  V30 30 H 0.5011 -0.481389 1.55101 0
M  V30 31 H 2.4981 -3.46916 2.31202 0
M  V30 32 H 1.1581 -3.00459 1.23103 0
M  V30 33 H 2.1691 -1.98309 4.78429 0
M  V30 34 H -1.1539 -3.29603 2.56257 0
M  V30 35 H 0.2361 -2.03653 6.40293 0
M  V30 36 N 2.9562 -1.48159 -0.537278 0
M  V30 37 C 4.3672 -1.49429 -1.11928 0
M  V30 38 C 4.7182 -0.26 -1.9447 0
M  V30 39 O 3.8432 0.633489 -2.0692 0
M  V30 40 C 4.4382 -2.70758 -2.03656 0
M  V30 41 C 2.9972 -2.74923 -2.57088 0
M  V30 42 C 2.1442 -2.42835 -1.3389 0
M  V30 43 H 5.0952 -1.55381 -0.322886 0
M  V30 44 H 5.1162 -2.48861 -2.87834 0
M  V30 45 H 4.6282 -3.60575 -1.43553 0
M  V30 46 H 2.7292 -1.89296 -3.20933 0
M  V30 47 H 2.8422 -3.76157 -2.9672 0
M  V30 48 H 1.2062 -1.93836 -1.65226 0
M  V30 49 H 1.9892 -3.34884 -0.755504 0
M  V30 50 N 4.4343 0.785586 -1.36625 0
M  V30 51 C 5.3643 1.91259 -1.33949 0
M  V30 52 C 6.3453 1.68795 -0.210325 0
M  V30 53 O 7.5303 1.89854 -0.408561 0
M  V30 54 C 4.6603 3.28339 -1.13186 0
M  V30 55 C 3.6143 3.65335 -2.22967 0
M  V30 56 C 2.9403 5.00806 -1.87342 0
M  V30 57 C 4.2403 3.7352 -3.65075 0
M  V30 58 H 5.9343 1.93755 -2.28253 0
M  V30 59 H 3.4803 0.930788 -1.09874 0
M  V30 60 H 5.4333 4.06804 -1.09948 0
M  V30 61 H 4.1573 3.2624 -0.153332 0
M  V30 62 H 2.8163 2.89169 -2.25337 0
M  V30 63 H 2.4643 4.95233 -0.880545 0
M  V30 64 H 2.1643 5.26529 -2.60846 0
M  V30 65 H 3.6883 5.81687 -1.85667 0
M  V30 66 H 5.1023 4.42168 -3.64911 0
M  V30 67 H 3.4993 4.10731 -4.37516 0
M  V30 68 H 4.5693 2.74527 -3.99703 0
M  V30 69 N 5.9124 1.20967 1.01018 0
M  V30 70 C 6.8424 0.988272 2.11555 0
M  V30 71 C 7.8234 -0.0849778 1.69888 0
M  V30 72 O 9.0084 0.0738202 1.9406 0
M  V30 73 C 6.1384 0.546528 3.42973 0
M  V30 74 C 5.0924 1.56375 3.9841 0
M  V30 75 C 4.4184 0.97842 5.25672 0
M  V30 76 C 5.7184 2.94922 4.31066 0
M  V30 77 H 7.4124 1.91276 2.30334 0
M  V30 78 H 4.9584 0.921073 1.1069 0
M  V30 79 H 6.9114 0.378839 4.19694 0
M  V30 80 H 5.6354 -0.413598 3.23971 0
M  V30 81 H 4.2944 1.71891 3.23804 0
M  V30 82 H 3.9424 0.0101688 5.02999 0
M  V30 83 H 3.6424 1.65784 5.63728 0
M  V30 84 H 5.1664 0.821939 6.05043 0
M  V30 85 H 6.5804 2.8288 4.9865 0
M  V30 86 H 4.9774 3.5983 4.80253 0
M  V30 87 H 6.0474 3.4616 3.39561 0
M  V30 88 N 7.3905 -1.2043 1.01659 0
M  V30 89 C 8.3385 -2.25249 0.580143 0
M  V30 90 C 9.3325 -1.65057 -0.381115 0
M  V30 91 O 10.5385 -1.78241 -0.251039 0
M  V30 92 H 6.9135 -0.732695 0.169299 0
M  V30 93 H 8.8845 -2.59389 1.47512 0
M  V30 94 C 7.6335 -3.47638 -0.065788 0
M  V30 95 H 6.9565 -3.94233 0.664874 0
M  V30 96 H 8.3965 -4.2268 -0.334282 0
M  V30 97 C 6.8555 -3.10447 -1.3086 0
M  V30 98 O 7.3855 -3.21981 -2.4019 0
M  V30 99 N 5.5915 -2.64996 -1.1927 0
M  V30 100 H 5.1385 -2.55811 -0.303064 0
M  V30 101 H 5.0965 -2.40482 -2.02523 0
M  V30 102 N 8.8686 -0.792821 -1.36206 0
M  V30 103 C 10.2796 -0.429513 -1.81692 0
M  V30 104 C 10.6306 1.04695 -1.65932 0
M  V30 105 O 9.7556 1.81256 -1.18218 0
M  V30 106 C 10.3506 -0.772831 -3.29868 0
M  V30 107 C 8.9096 -0.462307 -3.7355 0
M  V30 108 C 8.0566 -1.00569 -2.5842 0
M  V30 109 H 11.0076 -0.985672 -1.24379 0
M  V30 110 H 11.0286 -0.0651928 -3.80444 0
M  V30 111 H 10.5406 -1.84747 -3.41307 0
M  V30 112 H 8.6416 0.604158 -3.67669 0
M  V30 113 H 8.7546 -0.985299 -4.68859 0
M  V30 114 H 7.1186 -0.428734 -2.51066 0
M  V30 115 H 7.9016 -2.08616 -2.72643 0
M  V30 116 N 10.3467 1.47872 -0.545128 0
M  V30 117 C 11.2767 2.32661 0.197793 0
M  V30 118 C 12.2577 1.43041 0.920504 0
M  V30 119 O 13.4427 1.71912 0.90333 0
M  V30 120 C 10.5727 3.24569 1.23582 0
M  V30 121 C 9.5267 4.23333 0.630323 0
M  V30 122 C 8.8527 5.0448 1.77211 0
M  V30 123 C 10.1527 5.20704 -0.407974 0
M  V30 124 H 11.8467 2.95024 -0.510045 0
M  V30 125 H 9.3927 1.4187 -0.246731 0
M  V30 126 H 11.3457 3.8272 1.76362 0
M  V30 127 H 10.0697 2.60236 1.97344 0
M  V30 128 H 8.7287 3.6639 0.123922 0
M  V30 129 H 8.3767 4.36561 2.49847 0
M  V30 130 H 8.0767 5.71339 1.37281 0
M  V30 131 H 9.6007 5.65487 2.3034 0
M  V30 132 H 11.0147 5.7329 0.033305 0
M  V30 133 H 9.4117 5.95699 -0.725486 0
M  V30 134 H 10.4817 4.66917 -1.30828 0
M  V30 135 N 11.8248 0.280983 1.55075 0
M  V30 136 C 12.7548 -0.597469 2.25727 0
M  V30 137 C 13.7358 -1.15417 1.24952 0
M  V30 138 O 14.9208 -1.18722 1.53684 0
M  V30 139 C 12.0508 -1.7789 2.98283 0
M  V30 140 C 11.0048 -1.35347 4.06036 0
M  V30 141 C 10.3308 -2.61846 4.66198 0
M  V30 142 C 11.6308 -0.499354 5.19907 0
M  V30 143 H 13.3248 -0.00824265 2.99399 0
M  V30 144 H 10.8708 -0.0025244 1.44 0
M  V30 145 H 12.8238 -2.39937 3.46422 0
M  V30 146 H 11.5478 -2.39405 2.22155 0
M  V30 147 H 10.2068 -0.756156 3.58717 0
M  V30 148 H 9.8548 -3.21632 3.86732 0
M  V30 149 H 9.5548 -2.3409 5.38958 0
M  V30 150 H 11.0788 -3.24732 5.1709 0
M  V30 151 H 12.4928 -1.02498 5.64063 0
M  V30 152 H 10.8898 -0.316424 5.99265 0
M  V30 153 H 11.9598 0.480459 4.82514 0
M  V30 154 N 13.3029 -1.57598 0.00835791 0
M  V30 155 C 14.2329 -2.1198 -0.979113 0
M  V30 156 C 15.2139 -1.03091 -1.35301 0
M  V30 157 O 16.3989 -1.30818 -1.43528 0
M  V30 158 C 13.5289 -2.62995 -2.26828 0
M  V30 159 C 12.4829 -3.76485 -2.03576 0
M  V30 160 C 11.8089 -4.13846 -3.38579 0
M  V30 161 C 13.1089 -5.0342 -1.39161 0
M  V30 162 H 14.8029 -2.94738 -0.526281 0
M  V30 163 H 12.3489 -1.41783 -0.251704 0
M  V30 164 H 14.3019 -2.99669 -2.96271 0
M  V30 165 H 13.0259 -1.7737 -2.7424 0
M  V30 166 H 11.6849 -3.40217 -1.36557 0
M  V30 167 H 11.3329 -3.25232 -3.83709 0
M  V30 168 H 11.0329 -4.90312 -3.23834 0
M  V30 169 H 12.5569 -4.53086 -4.09323 0
M  V30 170 H 13.9709 -5.37812 -1.98573 0
M  V30 171 H 12.3679 -5.84746 -1.34878 0
M  V30 172 H 13.4379 -4.83548 -0.361868 0
M  V30 173 N 14.781 0.264519 -1.55364 0
M  V30 174 C 15.744 1.31046 -1.88042 0
M  V30 175 C 16.744 1.41943 -0.755569 0
M  V30 176 O 17.934 1.40947 -1.02369 0
M  V30 177 C 15.066 2.69067 -2.09323 0
M  V30 178 H 16.259 1.03297 -2.81549 0
M  V30 179 H 13.812 0.502989 -1.47986 0
M  V30 180 H 14.547 3.01982 -1.18226 0
M  V30 181 H 14.332 2.62542 -2.91229 0
M  V30 182 H 15.822 3.44623 -2.35848 0
M  V30 183 N 16.2591 1.48442 0.529413 0
M  V30 184 C 17.1891 1.65902 1.64313 0
M  V30 185 C 18.1701 0.507897 1.6234 0
M  V30 186 O 19.3551 0.740503 1.79528 0
M  V30 187 C 16.4851 1.69911 3.02898 0
M  V30 188 C 15.4391 2.8453 3.19729 0
M  V30 189 C 14.7651 2.73629 4.59381 0
M  V30 190 C 16.0651 4.25821 3.02447 0
M  V30 191 H 17.7591 2.5914 1.49955 0
M  V30 192 H 15.3051 1.24709 0.719982 0
M  V30 193 H 17.2581 1.80715 3.80684 0
M  V30 194 H 15.9821 0.732524 3.18279 0
M  V30 195 H 14.6411 2.73283 2.44361 0
M  V30 196 H 14.2891 1.74938 4.71599 0
M  V30 197 H 13.9891 3.50541 4.71588 0
M  V30 198 H 15.5131 2.86401 5.39265 0
M  V30 199 H 16.9271 4.37898 3.70024 0
M  V30 200 H 15.3241 5.03735 3.26146 0
M  V30 201 H 16.3941 4.42244 1.98867 0
M  V30 202 N 17.7372 -0.778329 1.37039 0
M  V30 203 C 18.9852 -1.53361 1.31623 0
M  V30 204 C 19.3062 -1.94739 -0.100831 0
M  V30 205 O 18.5762 -1.65797 -1.04347 0
M  V30 206 H 17.1562 -0.568794 0.484234 0
M  V30 207 H 19.8182 -0.926742 1.71457 0
M  V30 208 H 18.9142 -2.43606 1.95096 0
M  V30 209 N 19.2153 -1.21501 -1.00376 0
M  V30 210 C 20.1453 -0.999478 -2.11028 0
M  V30 211 C 21.1263 0.0759671 -1.6993 0
M  V30 212 O 22.3113 -0.0841106 -1.94018 0
M  V30 213 C 19.4413 -0.564709 -3.42678 0
M  V30 214 C 18.3953 -1.58486 -3.97576 0
M  V30 215 C 17.7213 -1.00628 -5.25146 0
M  V30 216 C 19.0213 -2.97204 -4.29496 0
M  V30 217 H 20.7153 -1.92495 -2.29317 0
M  V30 218 H 18.2613 -0.92693 -1.102 0
M  V30 219 H 20.2143 -0.401091 -4.19487 0
M  V30 220 H 18.9383 0.396411 -3.24185 0
M  V30 221 H 17.5973 -1.73606 -3.22888 0
M  V30 222 H 17.2453 -0.0368439 -5.02987 0
M  V30 223 H 16.9453 -1.68771 -5.62841 0
M  V30 224 H 18.4693 -0.854015 -6.04598 0
M  V30 225 H 19.8833 -2.8552 -4.97143 0
M  V30 226 H 18.2803 -3.62372 -4.78338 0
M  V30 227 H 19.3503 -3.47956 -3.3772 0
M  V30 228 N 20.6934 1.19889 -1.02296 0
M  V30 229 C 21.6264 2.21639 -0.543282 0
M  V30 230 C 22.6044 1.57275 0.412698 0
M  V30 231 O 23.7884 1.85568 0.331198 0
M  V30 232 C 20.9154 3.38057 0.208571 0
M  V30 233 C 19.9614 4.20751 -0.697933 0
M  V30 234 S 20.7944 4.89529 -2.17075 0
M  V30 235 C 21.9504 6.09363 -1.42923 0
M  V30 236 H 22.1834 2.61984 -1.40541 0
M  V30 237 H 19.7164 1.30041 -0.832387 0
M  V30 238 H 21.6744 4.05539 0.63624 0
M  V30 239 H 20.3354 2.96159 1.04635 0
M  V30 240 H 19.5284 5.03862 -0.117831 0
M  V30 241 H 19.1304 3.58556 -1.06366 0
M  V30 242 H 21.4224 6.73742 -0.712637 0
M  V30 243 H 22.3654 6.71845 -2.23673 0
M  V30 244 H 22.7734 5.56798 -0.929327 0
M  V30 245 N 22.1715 0.800033 1.35784 0
M  V30 246 C 23.1345 0.211565 2.28221 0
M  V30 247 C 24.1345 -0.59728 1.49296 0
M  V30 248 O 25.3245 -0.416721 1.69142 0
M  V30 249 C 22.4565 -0.705846 3.33513 0
M  V30 250 H 23.6495 1.02677 2.81776 0
M  V30 251 H 21.2025 0.570211 1.45528 0
M  V30 252 H 21.9375 -1.54498 2.85133 0
M  V30 253 H 21.7225 -0.127655 3.91892 0
M  V30 254 H 23.2125 -1.11211 4.02519 0
M  V30 255 N 23.6496 -1.47581 0.552962 0
M  V30 256 C 24.5796 -2.32762 -0.185451 0
M  V30 257 C 25.5606 -1.43527 -0.912905 0
M  V30 258 O 26.7456 -1.72388 -0.894201 0
M  V30 259 C 23.8756 -3.25219 -1.21859 0
M  V30 260 C 22.8296 -4.23661 -0.607864 0
M  V30 261 C 22.1556 -5.05413 -1.74533 0
M  V30 262 C 23.4556 -5.20481 0.435582 0
M  V30 263 H 25.1496 -2.94749 0.525684 0
M  V30 264 H 22.6956 -1.41738 0.254251 0
M  V30 265 H 24.6486 -3.8365 -1.7433 0
M  V30 266 H 23.3726 -2.61279 -1.95961 0
M  V30 267 H 22.0316 -3.66451 -0.104489 0
M  V30 268 H 21.6796 -4.3788 -2.47529 0
M  V30 269 H 21.3796 -5.72059 -1.34249 0
M  V30 270 H 22.9036 -5.66701 -2.27338 0
M  V30 271 H 24.3176 -5.733 -0.00290157 0
M  V30 272 H 22.7146 -5.95305 0.757067 0
M  V30 273 H 23.7846 -4.66217 1.33303 0
M  V30 274 N 25.1277 -0.289203 -1.54924 0
M  V30 275 C 26.0577 0.58549 -2.2604 0
M  V30 276 C 27.0387 1.14753 -1.25562 0
M  V30 277 O 28.2237 1.17906 -1.54311 0
M  V30 278 C 25.3537 1.76305 -2.99222 0
M  V30 279 C 24.3077 1.33191 -4.06748 0
M  V30 280 C 23.6337 2.5937 -4.6758 0
M  V30 281 C 24.9337 0.471775 -5.20165 0
M  V30 282 H 26.6277 -0.00763532 -2.99399 0
M  V30 283 H 24.1737 -0.00511229 -1.43999 0
M  V30 284 H 26.1267 2.38097 -3.47689 0
M  V30 285 H 24.8507 2.38223 -2.23422 0
M  V30 286 H 23.5097 0.737121 -3.59113 0
M  V30 287 H 23.1577 3.19576 -3.88433 0
M  V30 288 H 22.8577 2.31228 -5.40192 0
M  V30 289 H 24.3817 3.21985 -5.18804 0
M  V30 290 H 25.7957 0.995056 -5.64599 0
M  V30 291 H 24.1927 0.284639 -5.99425 0
M  V30 292 H 25.2627 -0.506041 -4.82252 0
M  V30 293 N 26.6058 1.57591 -0.0167156 0
M  V30 294 C 27.5358 2.12496 0.967858 0
M  V30 295 C 28.5168 1.03807 1.34752 0
M  V30 296 O 29.7018 1.31577 1.42833 0
M  V30 297 C 26.8318 2.64194 2.25431 0
M  V30 298 C 25.7858 3.77559 2.01576 0
M  V30 299 C 25.1118 4.15636 3.36379 0
M  V30 300 C 26.4118 5.04151 1.36489 0
M  V30 301 H 28.1058 2.95013 0.510643 0
M  V30 302 H 25.6518 1.41915 0.244181 0
M  V30 303 H 27.6048 3.01236 2.94678 0
M  V30 304 H 26.3288 1.78821 2.73296 0
M  V30 305 H 24.9878 3.40937 1.34751 0
M  V30 306 H 24.6358 3.27263 3.81979 0
M  V30 307 H 24.3358 4.92022 3.21229 0
M  V30 308 H 25.8598 4.5525 4.06915 0
M  V30 309 H 27.2738 5.38857 1.95718 0
M  V30 310 H 25.6708 5.85453 1.31776 0
M  V30 311 H 26.7408 4.83733 0.336219 0
M  V30 312 N 28.0839 -0.256276 1.55502 0
M  V30 313 C 29.3119 -1.00342 1.8094 0
M  V30 314 C 29.7269 -1.79307 0.59114 0
M  V30 315 O 29.0839 -1.77114 -0.440081 0
M  V30 316 C 29.1349 -1.94875 3.04476 0
M  V30 317 O 28.8559 -1.19107 4.21598 0
M  V30 318 C 30.3569 -2.81266 3.42644 0
M  V30 319 H 27.5769 -0.295685 0.602338 0
M  V30 320 H 30.1209 -0.281998 2.02546 0
M  V30 321 H 28.2759 -2.62457 2.84947 0
M  V30 322 H 28.6899 -1.82969 4.91551 0
M  V30 323 H 30.1639 -3.43362 4.32211 0
M  V30 324 H 30.6409 -3.51897 2.62802 0
M  V30 325 H 31.2469 -2.1915 3.64491 0
M  V30 326 N 29.562 -1.4872 -0.521534 0
M  V30 327 C 30.79 -1.60843 -1.30142 0
M  V30 328 C 31.205 -0.271897 -1.86832 0
M  V30 329 O 30.562 0.739969 -1.66825 0
M  V30 330 C 30.613 -2.66155 -2.4463 0
M  V30 331 O 30.334 -3.94623 -1.90275 0
M  V30 332 C 31.835 -2.88795 -3.36322 0
M  V30 333 H 29.055 -0.542075 -0.395468 0
M  V30 334 H 31.599 -1.94609 -0.628285 0
M  V30 335 H 29.754 -2.35224 -3.07812 0
M  V30 336 H 30.168 -4.52468 -2.65279 0
M  V30 337 H 31.642 -3.66264 -4.12983 0
M  V30 338 H 32.119 -1.97934 -3.9207 0
M  V30 339 H 32.725 -3.21063 -2.78924 0
M  V30 340 N 31.0401 0.771051 -1.3745 0
M  V30 341 C 32.2861 1.5319 -1.32894 0
M  V30 342 C 32.6191 1.94008 0.0862511 0
M  V30 343 O 31.8941 1.64124 1.04373 0
M  V30 344 C 32.1771 2.79648 -2.26868 0
M  V30 345 C 32.0301 2.45079 -3.77169 0
M  V30 346 C 33.3491 3.81583 -2.19277 0
M  V30 347 H 30.4681 0.555744 -0.484064 0
M  V30 348 H 33.1101 0.884492 -1.68157 0
M  V30 349 H 31.2601 3.34891 -1.96926 0
M  V30 350 H 32.9321 1.95745 -4.1771 0
M  V30 351 H 31.1751 1.77767 -3.95704 0
M  V30 352 H 31.8461 3.35478 -4.38359 0
M  V30 353 H 34.3221 3.35835 -2.45671 0
M  V30 354 H 33.1981 4.67787 -2.87171 0
M  V30 355 H 33.4591 4.25897 -1.18592 0
M  V30 356 N 32.5182 1.22032 0.997298 0
M  V30 357 C 33.7672 1.03637 1.73038 0
M  V30 358 C 34.0802 -0.429475 1.90827 0
M  V30 359 O 35.2862 -0.732995 2.61418 0
M  V30 360 C 33.7422 1.80582 3.11317 0
M  V30 361 C 33.3502 3.31387 3.01474 0
M  V30 362 C 35.0942 1.70621 3.88701 0
M  V30 363 C 33.0012 4.00791 4.3488 0
M  V30 364 H 31.9312 0.384179 0.648785 0
M  V30 365 H 34.5822 1.4584 1.11368 0
M  V30 366 H 32.9642 1.31175 3.73643 0
M  V30 367 H 34.1382 3.88155 2.4834 0
M  V30 368 H 32.4532 3.41976 2.37575 0
M  V30 369 H 35.0502 2.19799 4.87434 0
M  V30 370 H 35.3932 0.665823 4.10941 0
M  V30 371 H 35.9262 2.17547 3.33044 0
M  V30 372 H 32.6652 5.05064 4.1784 0
M  V30 373 H 32.1852 3.48811 4.87945 0
M  V30 374 H 33.8642 4.06139 5.03647 0
M  V30 375 N 33.9963 -1.19345 1.0293 0
M  V30 376 C 34.9593 -2.20793 0.615069 0
M  V30 377 C 35.9593 -1.57553 -0.321533 0
M  V30 378 O 37.1493 -1.73862 -0.108483 0
M  V30 379 C 34.2813 -3.40754 -0.0999222 0
M  V30 380 H 35.4743 -2.58955 1.51269 0
M  V30 381 H 33.0273 -1.3303 0.820534 0
M  V30 382 H 33.7623 -3.0811 -1.01187 0
M  V30 383 H 33.5473 -3.87889 0.57309 0
M  V30 384 H 35.0373 -4.15898 -0.376645 0
M  V30 385 N 35.4744 -0.807222 -1.35358 0
M  V30 386 C 36.4044 -0.232509 -2.3234 0
M  V30 387 C 37.3854 0.642386 -1.57504 0
M  V30 388 O 38.5704 0.572526 -1.85569 0
M  V30 389 C 35.7004 0.619238 -3.41735 0
M  V30 390 C 34.6544 -0.157215 -4.27711 0
M  V30 391 C 33.9804 0.816273 -5.28433 0
M  V30 392 C 35.2804 -1.35656 -5.04376 0
M  V30 393 H 36.9744 -1.04276 -2.80654 0
M  V30 394 H 34.5204 -0.50288 -1.34934 0
M  V30 395 H 36.4734 1.03137 -4.08584 0
M  V30 396 H 35.1974 1.46239 -2.92031 0
M  V30 397 H 33.8564 -0.550525 -3.62443 0
M  V30 398 H 33.5044 1.65494 -4.74996 0
M  V30 399 H 33.2044 0.301067 -5.86828 0
M  V30 400 H 34.7284 1.22659 -5.98153 0
M  V30 401 H 36.1424 -1.01927 -5.64166 0
M  V30 402 H 34.5394 -1.8063 -5.7227 0
M  V30 403 H 35.6094 -2.14288 -4.34981 0
M  V30 404 N 36.9525 1.47285 -0.560781 0
M  V30 405 C 38.1805 2.06855 -0.0430262 0
M  V30 406 C 38.5955 1.41291 1.25229 0
M  V30 407 O 37.9525 0.510648 1.7521 0
M  V30 408 C 38.0035 3.61178 0.152518 0
M  V30 409 O 37.7245 4.24285 -1.0915 0
M  V30 410 C 39.2255 4.37624 0.707145 0
M  V30 411 H 36.4455 0.669319 -0.0474652 0
M  V30 412 H 38.9895 1.89237 -0.77521 0
M  V30 413 H 37.1445 3.78298 0.834843 0
M  V30 414 H 37.5585 5.16868 -0.891482 0
M  V30 415 H 39.0325 5.46271 0.793244 0
M  V30 416 H 39.5095 4.04152 1.71923 0
M  V30 417 H 40.1155 4.25257 0.0604027 0
M  V30 418 N 38.4306 0.297415 1.54768 0
M  V30 419 C 39.6706 -0.313829 2.01976 0
M  V30 420 C 40.0346 -1.51366 1.1812 0
M  V30 421 O 41.2356 -2.19603 1.5501 0
M  V30 422 C 39.5066 -0.664964 3.51159 0
M  V30 423 S 41.0656 -1.25958 4.20333 0
M  V30 424 H 37.8836 -0.0965014 0.704421 0
M  V30 425 H 40.4856 0.424451 1.90837 0
M  V30 426 H 39.1896 0.21681 4.09827 0
M  V30 427 H 38.7206 -1.43413 3.66328 0
M  V30 428 H 40.7356 -2.54751 4.25813 0
M  V30 429 N 39.9087 -1.5758 0.0250728 0
M  V30 430 C 40.8387 -2.13007 -0.956575 0
M  V30 431 C 41.8197 -1.0452 -1.342 0
M  V30 432 O 43.0047 -1.32332 -1.42133 0
M  V30 433 C 40.1347 -2.65386 -2.24026 0
M  V30 434 C 39.0887 -3.78623 -1.99571 0
M  V30 435 C 38.4147 -4.17414 -3.3417 0
M  V30 436 C 39.7147 -5.04867 -1.33814 0
M  V30 437 H 41.4087 -2.9528 -0.494991 0
M  V30 438 H 38.9547 -1.42042 -0.236651 0
M  V30 439 H 40.9077 -3.02794 -2.93076 0
M  V30 440 H 39.6317 -1.80268 -2.72343 0
M  V30 441 H 38.2907 -3.41646 -1.32941 0
M  V30 442 H 37.9387 -3.29284 -3.80238 0
M  V30 443 H 37.6387 -4.93719 -3.18615 0
M  V30 444 H 39.1627 -4.57402 -4.04495 0
M  V30 445 H 40.5767 -5.39888 -1.92857 0
M  V30 446 H 38.9737 -5.86144 -1.28669 0
M  V30 447 H 40.0437 -4.83904 -0.310561 0
M  V30 448 N 41.3868 0.248026 -1.55636 0
M  V30 449 C 42.6348 0.974295 -1.77065 0
M  V30 450 C 42.9558 1.85897 -0.588849 0
M  V30 451 O 42.2258 1.91868 0.395407 0
M  V30 452 H 40.8058 0.362733 -0.653019 0
M  V30 453 H 43.4678 0.266244 -1.93073 0
M  V30 454 H 42.5638 1.59667 -2.68166 0
M  V30 455 N 42.8649 1.48995 0.513639 0
M  V30 456 C 44.1129 1.57531 1.26604 0
M  V30 457 C 44.4339 0.258236 1.93283 0
M  V30 458 O 43.7039 -0.721502 1.8213 0
M  V30 459 H 42.2839 0.580387 0.470276 0
M  V30 460 H 44.9459 1.85552 0.596373 0
M  V30 461 H 44.0419 2.36486 2.03669 0
M  V30 462 N 44.343 -0.763751 1.37857 0
M  V30 463 C 45.59 -1.52257 1.33506 0
M  V30 464 C 45.918 -1.94343 -0.078022 0
M  V30 465 O 45.173 -1.64958 -1.05297 0
M  V30 466 C 45.472 -2.79499 2.22745 0
M  V30 467 C 45.138 -2.56426 3.70886 0
M  V30 468 C 43.8 -2.49842 4.11257 0
M  V30 469 C 46.152 -2.36008 4.64704 0
M  V30 470 C 43.48 -2.20841 5.43549 0
M  V30 471 C 45.832 -2.0853 5.97242 0
M  V30 472 C 44.496 -2.00396 6.36709 0
M  V30 473 H 43.766 -0.557149 0.488534 0
M  V30 474 H 46.413 -0.879073 1.70131 0
M  V30 475 H 44.718 -3.48447 1.79142 0
M  V30 476 H 46.415 -3.37413 2.16688 0
M  V30 477 H 43.005 -2.62416 3.38874 0
M  V30 478 H 47.189 -2.40079 4.34368 0
M  V30 479 H 42.445 -2.13045 5.73081 0
M  V30 480 H 46.619 -1.91732 6.69486 0
M  V30 481 H 44.246 -1.77688 7.39142 0
M  V30 482 N 45.8211 -1.22559 -0.990812 0
M  V30 483 C 46.7841 -0.998863 -2.0629 0
M  V30 484 C 47.7841 0.0354834 -1.60761 0
M  V30 485 O 48.9741 -0.203231 -1.7301 0
M  V30 486 C 46.1061 -0.509203 -3.37076 0
M  V30 487 H 47.2991 -1.95014 -2.27837 0
M  V30 488 H 44.8521 -1.04456 -1.16269 0
M  V30 489 H 45.5871 0.446335 -3.21214 0
M  V30 490 H 45.3721 -1.25547 -3.71457 0
M  V30 491 H 46.8621 -0.370888 -4.1595 0
M  V30 492 N 47.2992 1.18797 -1.03562 0
M  V30 493 C 48.5242 1.9314 -0.755764 0
M  V30 494 C 48.9492 1.7537 0.68022 0
M  V30 495 O 48.3072 1.06046 1.47051 0
M  V30 496 C 48.3552 3.42747 -1.12058 0
M  V30 497 O 47.4592 4.11683 -0.243124 0
M  V30 498 H 46.8002 0.602724 -0.278604 0
M  V30 499 H 49.3302 1.50678 -1.3841 0
M  V30 500 H 49.3402 3.93437 -1.08035 0
M  V30 501 H 48.0152 3.55002 -2.16672 0
M  V30 502 H 46.5922 3.71323 -0.342539 0
M  V30 503 N 48.7773 0.814389 1.34928 0
M  V30 504 C 50.1883 0.458364 1.80986 0
M  V30 505 C 50.5393 -1.02042 1.67577 0
M  V30 506 O 49.6643 -1.79352 1.21086 0
M  V30 507 C 50.2593 0.825212 3.28597 0
M  V30 508 C 48.8183 0.521677 3.72767 0
M  V30 509 C 47.9653 1.04668 2.56788 0
M  V30 510 H 50.9163 1.00533 1.22795 0
M  V30 511 H 50.9373 0.12571 3.80292 0
M  V30 512 H 50.4493 1.90154 3.38324 0
M  V30 513 H 48.5503 -0.545589 3.68584 0
M  V30 514 H 48.6633 1.05977 4.67232 0
M  V30 515 H 47.0273 0.468622 2.50352 0
M  V30 516 H 47.8103 2.12927 2.6929 0
M  V30 517 N 50.2554 -1.46986 0.568584 0
M  V30 518 C 51.5034 -2.02041 0.0487022 0
M  V30 519 C 51.8244 -1.44408 -1.31039 0
M  V30 520 O 51.0944 -0.623477 -1.85714 0
M  V30 521 H 49.6744 -0.746849 0.015014 0
M  V30 522 H 52.3364 -1.80257 0.741168 0
M  V30 523 H 51.4324 -3.12085 -0.0308961 0
M  V30 524 N 51.7335 -0.305618 -1.54608 0
M  V30 525 C 53.1445 0.186098 -1.8577 0
M  V30 526 C 53.4955 1.53058 -1.22751 0
M  V30 527 O 52.6205 2.09888 -0.526893 0
M  V30 528 C 53.2155 0.344449 -3.37044 0
M  V30 529 C 51.7745 0.780384 -3.68221 0
M  V30 530 C 50.9215 -0.108554 -2.77087 0
M  V30 531 H 53.8725 -0.526485 -1.49712 0
M  V30 532 H 53.8935 1.17828 -3.61796 0
M  V30 533 H 53.4055 -0.634235 -3.82883 0
M  V30 534 H 51.5065 1.76945 -3.27904 0
M  V30 535 H 51.6195 0.596572 -4.75371 0
M  V30 536 H 49.9835 0.412931 -2.5133 0
M  V30 537 H 50.7665 -1.08368 -3.25747 0
M  V30 538 N 53.2116 1.57565 -0.0334293 0
M  V30 539 C 54.4576 1.92262 0.645226 0
M  V30 540 C 54.7906 0.910543 1.71531 0
M  V30 541 O 54.0656 -0.066099 1.94388 0
M  V30 542 C 54.3486 3.37422 1.2577 0
M  V30 543 C 54.2016 4.49369 0.196891 0
M  V30 544 C 55.5206 3.82628 2.17449 0
M  V30 545 H 52.6396 0.699171 0.233085 0
M  V30 546 H 55.2816 1.89779 -0.0915694 0
M  V30 547 H 53.4316 3.39669 1.88566 0
M  V30 548 H 55.1036 4.59254 -0.433962 0
M  V30 549 H 53.3466 4.31168 -0.477137 0
M  V30 550 H 54.0176 5.47978 0.665124 0
M  V30 551 H 56.4936 3.82145 1.64634 0
M  V30 552 H 55.3696 4.84883 2.57254 0
M  V30 553 H 55.6306 3.18376 3.0674 0
M  V30 554 N 54.6897 -0.239769 1.55765 0
M  V30 555 C 56.1007 -0.808263 1.68297 0
M  V30 556 C 56.4517 -1.85736 0.632181 0
M  V30 557 O 55.5767 -2.15277 -0.220204 0
M  V30 558 C 56.1717 -1.47284 3.05111 0
M  V30 559 C 54.7307 -1.98895 3.19559 0
M  V30 560 C 53.8777 -0.842575 2.64189 0
M  V30 561 H 56.8287 -0.0154422 1.58692 0
M  V30 562 H 56.8497 -2.34111 2.99954 0
M  V30 563 H 56.3617 -0.709053 3.81568 0
M  V30 564 H 54.4627 -2.78132 2.47938 0
M  V30 565 H 54.5757 -2.18143 4.26556 0
M  V30 566 H 52.9397 -1.24501 2.22197 0
M  V30 567 H 53.7227 -0.0917552 3.43177 0
M  V30 568 N 56.1678 -1.49265 -0.50573 0
M  V30 569 C 57.5788 -1.51769 -1.08734 0
M  V30 570 C 57.9298 -0.301192 -1.93874 0
M  V30 571 O 57.0548 0.589456 -2.08217 0
M  V30 572 C 57.6498 -2.75017 -1.97867 0
M  V30 573 C 56.2088 -2.80314 -2.51199 0
M  V30 574 C 55.3558 -2.4562 -1.28709 0
M  V30 575 H 58.3068 -1.56031 -0.289855 0
M  V30 576 H 58.3278 -2.5491 -2.82491 0
M  V30 577 H 57.8398 -3.63539 -1.35873 0
M  V30 578 H 55.9408 -1.96061 -3.16845 0
M  V30 579 H 56.0538 -3.82366 -2.88675 0
M  V30 580 H 54.4178 -1.97297 -1.61078 0
M  V30 581 H 55.2008 -3.36411 -0.6843 0
M  V30 582 N 57.6459 0.756429 -1.3826 0
M  V30 583 C 58.8709 1.55077 -1.37717 0
M  V30 584 C 59.2959 1.88073 0.03164 0
M  V30 585 O 58.6539 1.50364 1.01293 0
M  V30 586 C 58.7019 2.8283 -2.23695 0
M  V30 587 O 57.8059 3.77862 -1.6521 0
M  V30 588 H 57.1469 0.469152 -0.469885 0
M  V30 589 H 59.6769 0.935019 -1.81985 0
M  V30 590 H 59.6869 3.31783 -2.37453 0
M  V30 591 H 58.3619 2.58144 -3.2609 0
M  V30 592 H 56.9389 3.36555 -1.60578 0
M  V30 593 N 59.124 1.23083 0.984299 0
M  V30 594 C 60.352 1.08714 1.76037 0
M  V30 595 C 60.767 -0.361691 1.85303 0
M  V30 596 O 60.124 -1.25034 1.32939 0
M  V30 597 C 60.175 1.70206 3.18923 0
M  V30 598 O 59.896 3.09423 3.10144 0
M  V30 599 C 61.397 1.61227 4.12941 0
M  V30 600 H 58.617 0.380664 0.552572 0
M  V30 601 H 61.161 1.62853 1.23689 0
M  V30 602 H 59.316 1.20109 3.6831 0
M  V30 603 H 59.73 3.39188 4.00065 0
M  V30 604 H 61.204 2.08962 5.10919 0
M  V30 605 H 61.681 0.570375 4.35481 0
M  V30 606 H 62.287 2.10671 3.69456 0
M  V30 607 N 60.6021 -1.18246 1.0419 0
M  V30 608 C 61.5651 -2.20128 0.638452 0
M  V30 609 C 62.5651 -1.57885 -0.304805 0
M  V30 610 O 63.7551 -1.73967 -0.0900369 0
M  V30 611 C 60.8871 -3.4084 -0.0637751 0
M  V30 612 H 62.0801 -2.57336 1.54007 0
M  V30 613 H 59.6331 -1.32152 0.834598 0
M  V30 614 H 60.3681 -3.09166 -0.979136 0
M  V30 615 H 60.1531 -3.8726 0.614198 0
M  V30 616 H 61.6431 -4.16274 -0.332512 0
M  V30 617 N 62.0802 -0.821533 -1.34494 0
M  V30 618 C 63.0102 -0.257138 -2.3208 0
M  V30 619 C 63.9912 0.625645 -1.58176 0
M  V30 620 O 65.1762 0.552811 -1.86166 0
M  V30 621 C 62.3062 0.582958 -3.42372 0
M  V30 622 C 61.2602 -0.202571 -4.2752 0
M  V30 623 C 60.5862 0.760179 -5.29269 0
M  V30 624 C 61.8862 -1.40998 -5.02908 0
M  V30 625 H 63.5802 -1.07247 -2.79532 0
M  V30 626 H 61.1262 -0.517163 -1.34393 0
M  V30 627 H 63.0792 0.987972 -4.09655 0
M  V30 628 H 61.8032 1.43133 -2.93565 0
M  V30 629 H 60.4622 -0.588936 -3.61838 0
M  V30 630 H 60.1102 1.60447 -4.76724 0
M  V30 631 H 59.8102 0.238809 -5.87115 0
M  V30 632 H 61.3342 1.16308 -5.9942 0
M  V30 633 H 62.7482 -1.07905 -5.63054 0
M  V30 634 H 61.1452 -1.86689 -5.70322 0
M  V30 635 H 62.2152 -2.1889 -4.32684 0
M  V30 636 N 63.5583 1.46682 -0.576371 0
M  V30 637 C 64.9743 1.57822 -0.237562 0
M  V30 638 C 65.1743 1.57237 1.26011 0
M  V30 639 O 64.2303 1.48596 2.04146 0
M  V30 640 C 65.5433 2.87499 -0.881168 0
M  V30 641 C 67.0913 3.01119 -0.85417 0
M  V30 642 C 67.5663 4.33524 -1.4772 0
M  V30 643 N 69.0573 4.40207 -1.44125 0
M  V30 644 C 69.7923 5.4126 -1.89276 0
M  V30 645 N 69.2883 6.49021 -2.42371 0
M  V30 646 N 71.0813 5.32422 -1.80231 0
M  V30 647 H 63.2323 1.45306 -1.54919 0
M  V30 648 H 65.4953 0.692733 -0.647167 0
M  V30 649 H 65.2013 2.9372 -1.93447 0
M  V30 650 H 65.0753 3.75224 -0.385592 0
M  V30 651 H 67.4623 2.94485 0.190491 0
M  V30 652 H 67.5433 2.14887 -1.3877 0
M  V30 653 H 67.1873 4.40916 -2.52103 0
M  V30 654 H 67.1173 5.1852 -0.918947 0
M  V30 655 H 69.6083 3.62931 -1.05307 0
M  V30 656 H 69.9213 7.2233 -2.74698 0
M  V30 657 H 68.2663 6.49858 -2.46393 0
M  V30 658 H 71.4573 4.47137 -1.38514 0
M  V30 659 H 71.6303 6.11034 -2.15735 0
M  V30 660 N 65.0364 0.313813 1.54444 0
M  V30 661 C 65.9464 -0.565714 2.27677 0
M  V30 662 C 66.9624 -1.13754 1.31666 0
M  V30 663 O 68.1384 -1.15959 1.64668 0
M  V30 664 C 65.2034 -1.71528 3.01296 0
M  V30 665 C 64.2644 -1.17624 4.12872 0
M  V30 666 C 63.4974 -2.27102 4.8297 0
M  V30 667 O 63.7204 -3.47256 4.52514 0
M  V30 668 O 62.6544 -1.9307 5.70094 0
M  V30 669 H 66.4804 0.0287296 3.03686 0
M  V30 670 H 64.0654 0.0798312 1.49187 0
M  V30 671 H 65.9474 -2.38476 3.4743 0
M  V30 672 H 64.6224 -2.29608 2.2817 0
M  V30 673 H 63.5294 -0.472124 3.71109 0
M  V30 674 H 64.8624 -0.640695 4.88012 0
M  V30 675 N 66.5145 -1.57545 0.0417849 0
M  V30 676 C 67.4445 -2.14009 -0.933929 0
M  V30 677 C 68.4255 -1.05938 -1.33083 0
M  V30 678 O 69.6105 -1.33833 -1.40721 0
M  V30 679 C 66.7405 -2.67747 -2.21199 0
M  V30 680 C 65.6945 -3.80718 -1.95544 0
M  V30 681 C 65.0205 -4.20935 -3.29724 0
M  V30 682 C 66.3205 -5.06258 -1.28452 0
M  V30 683 H 68.0145 -2.95788 -0.463645 0
M  V30 684 H 65.5605 -1.42285 -0.221573 0
M  V30 685 H 67.5135 -3.05886 -2.89848 0
M  V30 686 H 66.2375 -1.83147 -2.70416 0
M  V30 687 H 64.8965 -3.43037 -1.2931 0
M  V30 688 H 64.5445 -3.33298 -3.76724 0
M  V30 689 H 64.2445 -4.9707 -3.13361 0
M  V30 690 H 65.7685 -4.61666 -3.9962 0
M  V30 691 H 67.1825 -5.41903 -1.8712 0
M  V30 692 H 65.5795 -5.87475 -1.22445 0
M  V30 693 H 66.6495 -4.84207 -0.259219 0
M  V30 694 N 67.9926 0.231505 -1.5589 0
M  V30 695 C 69.2416 0.955346 -1.7764 0
M  V30 696 C 69.5546 1.85893 -0.608546 0
M  V30 697 O 70.7606 2.62067 -0.70943 0
M  V30 698 C 69.2166 1.74886 -3.14552 0
M  V30 699 C 68.8246 0.891915 -4.39032 0
M  V30 700 C 70.5686 2.46452 -3.45633 0
M  V30 701 C 68.4756 1.68221 -5.66971 0
M  V30 702 H 67.4056 0.360446 -0.662265 0
M  V30 703 H 70.0566 0.209516 -1.823 0
M  V30 704 H 68.4386 2.53723 -3.04041 0
M  V30 705 H 69.6126 0.144793 -4.60572 0
M  V30 706 H 67.9276 0.288863 -4.15397 0
M  V30 707 H 70.5246 3.06061 -4.38441 0
M  V30 708 H 70.8676 3.18841 -2.67668 0
M  V30 709 H 71.4006 1.74613 -3.57428 0
M  V30 710 H 68.1396 1.00178 -6.478 0
M  V30 711 H 67.6596 2.4042 -5.49507 0
M  V30 712 H 69.3386 2.24544 -6.06786 0
M  V30 713 N 69.4707 1.49531 0.497807 0
M  V30 714 C 70.3807 1.69176 1.62532 0
M  V30 715 C 71.3967 0.5744 1.64246 0
M  V30 716 O 72.5727 0.849497 1.82608 0
M  V30 717 C 69.6377 1.75695 2.98885 0
M  V30 718 C 68.6987 2.9929 3.07773 0
M  V30 719 C 67.9317 3.05488 4.37622 0
M  V30 720 O 68.1547 2.19192 5.26603 0
M  V30 721 O 67.0887 3.9798 4.51548 0
M  V30 722 H 70.9147 2.647 1.48887 0
M  V30 723 H 68.4997 1.3331 0.674441 0
M  V30 724 H 70.3817 1.82317 3.79919 0
M  V30 725 H 69.0567 0.8335 3.12785 0
M  V30 726 H 67.9637 2.98183 2.25915 0
M  V30 727 H 69.2967 3.91125 2.98801 0
M  V30 728 N 70.9488 -0.749086 1.3866 0
M  V30 729 C 71.8588 -1.89358 1.38494 0
M  V30 730 C 72.8748 -1.71708 0.281476 0
M  V30 731 O 74.0508 -1.94554 0.520643 0
M  V30 732 C 71.1158 -3.24782 1.21316 0
M  V30 733 C 70.1768 -3.54926 2.41508 0
M  V30 734 C 69.4098 -4.83888 2.2514 0
M  V30 735 O 69.6328 -5.56592 1.24746 0
M  V30 736 O 68.5668 -5.13612 3.13826 0
M  V30 737 H 72.3928 -1.92452 2.34938 0
M  V30 738 H 69.9778 -0.894981 1.19626 0
M  V30 739 H 71.8598 -4.05739 1.13814 0
M  V30 740 H 70.5348 -3.2249 0.279592 0
M  V30 741 H 69.4418 -2.74112 2.54585 0
M  V30 742 H 70.7748 -3.61983 3.3351 0
M  V30 743 N 72.4269 -1.23603 -0.977757 0
M  V30 744 C 73.3569 -1.04401 -2.0886 0
M  V30 745 C 74.3379 0.0399052 -1.70053 0
M  V30 746 O 75.5229 -0.125246 -1.93796 0
M  V30 747 C 72.6529 -0.637269 -3.41403 0
M  V30 748 C 71.6069 -1.66883 -3.94124 0
M  V30 749 C 70.9329 -1.11745 -5.22893 0
M  V30 750 C 72.2329 -3.06247 -4.23096 0
M  V30 751 H 73.9269 -1.97316 -2.25182 0
M  V30 752 H 71.4729 -0.950096 -1.08209 0
M  V30 753 H 73.4259 -0.48998 -4.18542 0
M  V30 754 H 72.1499 0.327557 -3.24953 0
M  V30 755 H 70.8089 -1.80416 -3.19133 0
M  V30 756 H 70.4569 -0.143527 -5.02795 0
M  V30 757 H 70.1569 -1.80672 -5.59134 0
M  V30 758 H 71.6809 -0.982067 -6.02651 0
M  V30 759 H 73.0949 -2.96001 -4.90975 0
M  V30 760 H 71.4919 -3.72436 -4.70544 0
M  V30 761 H 72.5619 -3.55041 -3.30263 0
M  V30 762 N 73.905 1.17692 -1.04816 0
M  V30 763 C 75.151 1.88137 -0.75711 0
M  V30 764 C 75.484 1.80604 0.713841 0
M  V30 765 O 74.759 1.21146 1.52164 0
M  V30 766 C 75.042 3.38318 -1.2334 0
M  V30 767 C 74.895 3.54622 -2.76701 0
M  V30 768 C 76.214 4.32214 -0.829415 0
M  V30 769 H 73.333 0.683163 -0.27651 0
M  V30 770 H 75.975 1.38424 -1.30149 0
M  V30 771 H 74.125 3.80787 -0.770286 0
M  V30 772 H 75.797 3.21194 -3.31107 0
M  V30 773 H 74.04 2.97026 -3.16161 0
M  V30 774 H 74.711 4.60028 -3.05088 0
M  V30 775 H 77.187 3.97565 -1.22805 0
M  V30 776 H 76.063 5.35838 -1.19033 0
M  V30 777 H 76.324 4.41294 0.266891 0
M  V30 778 N 75.3831 0.828654 1.34056 0
M  V30 779 C 76.3311 0.242973 2.31327 0
M  V30 780 C 77.3251 -0.61944 1.57668 0
M  V30 781 O 78.5311 -0.51014 1.7262 0
M  V30 782 H 74.9061 0.059834 0.749616 0
M  V30 783 H 76.8771 1.07809 2.78244 0
M  V30 784 C 75.6261 -0.575733 3.429 0
M  V30 785 H 74.9491 0.0785582 3.99723 0
M  V30 786 H 76.3891 -0.951547 4.13185 0
M  V30 787 C 74.8481 -1.75044 2.87856 0
M  V30 788 O 75.3781 -2.84882 2.83205 0
M  V30 789 N 73.5841 -1.56903 2.44602 0
M  V30 790 H 73.1311 -0.675547 2.48584 0
M  V30 791 H 73.0891 -2.35652 2.08124 0
M  V30 792 N 76.8612 -1.46375 0.584142 0
M  V30 793 C 78.1102 -2.01585 0.0679741 0
M  V30 794 C 78.4232 -1.46109 -1.30045 0
M  V30 795 O 79.6292 -1.93148 -1.90804 0
M  V30 796 C 78.0852 -3.5983 0.0709207 0
M  V30 797 C 77.6932 -4.24303 1.43775 0
M  V30 798 C 79.4372 -4.22693 -0.391228 0
M  V30 799 C 77.3442 -5.74631 1.39834 0
M  V30 800 H 76.2742 -0.753689 0.0216421 0
M  V30 801 H 78.9252 -1.68093 0.736001 0
M  V30 802 H 77.3072 -3.90405 -0.663299 0
M  V30 803 H 78.4812 -4.05335 2.19181 0
M  V30 804 H 76.7962 -3.73539 1.84004 0
M  V30 805 H 79.3932 -5.3289 -0.439524 0
M  V30 806 H 79.7362 -3.91728 -1.40906 0
M  V30 807 H 80.2692 -3.96749 0.288974 0
M  V30 808 H 77.0082 -6.10258 2.39303 0
M  V30 809 H 76.5282 -5.95858 0.686505 0
M  V30 810 H 78.2072 -6.37375 1.11187 0
M  V30 811 N 78.3393 -0.321999 -1.54275 0
M  V30 812 C 79.5673 0.283052 -2.04955 0
M  V30 813 C 79.9823 1.45904 -1.19823 0
M  V30 814 O 79.3393 1.81063 -0.228545 0
M  V30 815 C 79.3903 0.719028 -3.54277 0
M  V30 816 O 79.1113 -0.410175 -4.36176 0
M  V30 817 C 80.6123 1.38705 -4.21041 0
M  V30 818 H 77.8323 0.0584616 -0.668448 0
M  V30 819 H 80.3763 -0.467734 -1.99079 0
M  V30 820 H 78.5313 1.41979 -3.60445 0
M  V30 821 H 78.9453 -0.0669416 -5.24457 0
M  V30 822 H 80.4193 1.64306 -5.2698 0
M  V30 823 H 80.8963 2.33385 -3.72059 0
M  V30 824 H 81.5023 0.728906 -4.19007 0
M  V30 825 N 79.8174 1.5752 -0.0501392 0
M  V30 826 C 80.7494 2.08413 0.95376 0
M  V30 827 C 81.7624 1.01175 1.27544 0
M  V30 828 O 82.9514 1.28744 1.23641 0
M  V30 829 C 80.0514 2.51138 2.27559 0
M  V30 830 C 79.2244 3.817 2.13598 0
M  V30 831 C 78.2834 4.10749 3.28895 0
M  V30 832 O 77.3094 4.80685 3.04845 0
M  V30 833 N 78.5114 3.62579 4.5334 0
M  V30 834 H 81.2764 2.95165 0.519383 0
M  V30 835 H 78.8374 1.61327 0.136127 0
M  V30 836 H 80.8294 2.67648 3.03557 0
M  V30 837 H 79.3994 1.6964 2.62567 0
M  V30 838 H 78.6194 3.74782 1.22197 0
M  V30 839 H 79.9074 4.67201 2.01496 0
M  V30 840 H 79.3054 3.06039 4.75769 0
M  V30 841 H 77.8624 3.84329 5.26436 0
M  V30 842 N 81.2955 -0.223234 1.56011 0
M  V30 843 C 82.2435 -1.29627 1.93131 0
M  V30 844 C 83.2375 -1.48608 0.813146 0
M  V30 845 O 84.4435 -1.49802 0.997966 0
M  V30 846 H 80.8185 -0.434563 0.613726 0
M  V30 847 H 82.7895 -0.955995 2.82672 0
M  V30 848 C 81.5385 -2.63983 2.26292 0
M  V30 849 H 80.8615 -2.50185 3.11846 0
M  V30 850 H 82.3015 -3.3788 2.56151 0
M  V30 851 C 80.7605 -3.18866 1.08747 0
M  V30 852 O 81.2905 -4.00192 0.347727 0
M  V30 853 N 79.4965 -2.77217 0.871743 0
M  V30 854 H 79.0435 -2.1119 1.47501 0
M  V30 855 H 79.0015 -3.1428 0.0869905 0
M  V30 856 N 82.7736 -1.49793 -0.48987 0
M  V30 857 C 83.7056 -1.63413 -1.60713 0
M  V30 858 C 84.7186 -0.516329 -1.54395 0
M  V30 859 O 85.9076 -0.788812 -1.60125 0
M  V30 860 C 83.0076 -1.58516 -2.99543 0
M  V30 861 C 82.1806 -2.86016 -3.30928 0
M  V30 862 C 81.2396 -2.74018 -4.49222 0
M  V30 863 O 80.2656 -3.47964 -4.50455 0
M  V30 864 N 81.4676 -1.86309 -5.4979 0
M  V30 865 H 84.2326 -2.59777 -1.49452 0
M  V30 866 H 81.7936 -1.47022 -0.677955 0
M  V30 867 H 83.7856 -1.48128 -3.76617 0
M  V30 868 H 82.3556 -0.69965 -3.0467 0
M  V30 869 H 81.5756 -3.10672 -2.42645 0
M  V30 870 H 82.8636 -3.70521 -3.487 0
M  V30 871 H 82.2616 -1.2551 -5.51601 0
M  V30 872 H 80.8186 -1.81837 -6.25922 0
M  V30 873 N 84.2517 0.741722 -1.39055 0
M  V30 874 C 85.1987 1.85566 -1.37237 0
M  V30 875 C 86.1687 1.64457 -0.233072 0
M  V30 876 O 87.3537 1.85957 -0.427147 0
M  V30 877 C 84.4937 3.23004 -1.215 0
M  V30 878 C 83.6067 3.55864 -2.44918 0
M  V30 879 C 82.7417 4.82669 -2.21821 0
M  V30 880 C 81.7807 5.08351 -3.40948 0
M  V30 881 N 80.9177 6.26356 -3.17211 0
M  V30 882 H 85.7577 1.86455 -2.32462 0
M  V30 883 H 83.2947 0.911176 -1.15482 0
M  V30 884 H 85.2527 4.02331 -1.10389 0
M  V30 885 H 83.8827 3.21411 -0.29908 0
M  V30 886 H 82.9347 2.7129 -2.66657 0
M  V30 887 H 84.2467 3.70765 -3.33668 0
M  V30 888 H 83.4007 5.69962 -2.07914 0
M  V30 889 H 82.1397 4.69929 -1.30454 0
M  V30 890 H 81.1447 4.19522 -3.55361 0
M  V30 891 H 82.3697 5.22981 -4.33207 0
M  V30 892 H 80.3157 6.14917 -2.28502 0
M  V30 893 H 80.2327 6.41813 -3.99515 0
M  V30 894 H 81.5007 7.16506 -3.06984 0
M  V30 895 N 85.7298 1.2412 0.971189 0
M  V30 896 C 86.6928 1.03156 2.04674 0
M  V30 897 C 87.6928 -0.00990322 1.60797 0
M  V30 898 O 88.8828 0.230729 1.72665 0
M  V30 899 C 86.0148 0.562765 3.36223 0
M  V30 900 H 87.2078 1.98614 2.24705 0
M  V30 901 H 84.7608 1.06293 1.14593 0
M  V30 902 H 85.4958 -0.395176 3.21883 0
M  V30 903 H 85.2808 1.31441 3.69413 0
M  V30 904 H 86.7708 0.437015 4.15307 0
M  V30 905 N 87.2079 -1.17134 1.05439 0
M  V30 906 C 88.6189 -1.69084 0.791676 0
M  V30 907 C 88.9699 -1.83822 -0.685839 0
M  V30 908 O 88.0949 -1.52757 -1.53278 0
M  V30 909 C 88.6899 -3.07119 1.4305 0
M  V30 910 C 87.2489 -3.56225 1.21577 0
M  V30 911 C 86.3959 -2.32421 1.51247 0
M  V30 912 H 89.3469 -1.01617 1.219 0
M  V30 913 H 89.3679 -3.71087 0.84112 0
M  V30 914 H 88.8799 -2.9636 2.50584 0
M  V30 915 H 86.9809 -3.72257 0.159787 0
M  V30 916 H 87.0939 -4.38837 1.92246 0
M  V30 917 H 85.4579 -2.3701 0.932653 0
M  V30 918 H 86.2409 -2.24268 2.5992 0
M  V30 919 N 88.686 -0.835752 -1.33615 0
M  V30 920 C 89.616 -0.281739 -2.31794 0
M  V30 921 C 90.597 0.608833 -1.58831 0
M  V30 922 O 91.782 0.533035 -1.86741 0
M  V30 923 C 88.912 0.546612 -3.42971 0
M  V30 924 C 87.866 -0.247904 -4.27281 0
M  V30 925 C 87.192 0.704001 -5.30045 0
M  V30 926 C 88.492 -1.46324 -5.01385 0
M  V30 927 H 90.186 -1.10206 -2.78379 0
M  V30 928 H 87.732 -0.531388 -1.33837 0
M  V30 929 H 89.685 0.944467 -4.1068 0
M  V30 930 H 88.409 1.40011 -2.95067 0
M  V30 931 H 87.068 -0.627281 -3.61194 0
M  V30 932 H 86.716 1.55381 -4.78399 0
M  V30 933 H 86.416 0.176524 -5.87335 0
M  V30 934 H 87.94 1.09944 -6.0062 0
M  V30 935 H 89.354 -1.13871 -5.61877 0
M  V30 936 H 87.751 -1.92728 -5.6831 0
M  V30 937 H 88.821 -2.23467 -4.30338 0
M  V30 938 N 90.1641 1.46063 -0.591896 0
M  V30 939 C 91.4041 2.04228 -0.0838014 0
M  V30 940 C 91.7681 1.45231 1.25587 0
M  V30 941 O 92.9691 1.94653 1.85375 0
M  V30 942 C 91.2401 3.57389 -0.0286282 0
M  V30 943 S 92.7991 4.3678 0.420557 0
M  V30 944 H 89.6171 0.709762 -0.0419319 0
M  V30 945 H 92.2191 1.78983 -0.786465 0
M  V30 946 H 90.9231 3.97843 -1.00743 0
M  V30 947 H 90.4541 3.87185 0.69652 0
M  V30 948 H 92.4691 4.67131 1.67341 0
M  V30 949 N 91.6422 0.330177 1.54103 0
M  V30 950 C 92.5902 -0.548226 2.26047 0
M  V30 951 C 93.5842 -1.11309 1.27698 0
M  V30 952 O 94.7902 -1.06036 1.45452 0
M  V30 953 H 91.1652 -0.195456 0.726155 0
M  V30 954 H 93.1362 0.0807567 2.98291 0
M  V30 955 C 91.8852 -1.69415 3.03634 0
M  V30 956 H 91.2082 -1.26876 3.79134 0
M  V30 957 H 92.6482 -2.28423 3.5721 0
M  V30 958 C 91.1072 -2.61569 2.12328 0
M  V30 959 O 91.6372 -3.63462 1.7105 0
M  V30 960 N 89.8432 -2.29952 1.77681 0
M  V30 961 H 89.3902 -1.47134 2.11446 0
M  V30 962 H 89.3482 -2.91871 1.16869 0
M  V30 963 N 93.1203 -1.57491 0.0584922 0
M  V30 964 C 94.3683 -1.92597 -0.612436 0
M  V30 965 C 94.6893 -0.938162 -1.70949 0
M  V30 966 O 93.9593 0.0158301 -1.95894 0
M  V30 967 H 92.5393 -0.710964 -0.229214 0
M  V30 968 H 95.2013 -1.94571 0.113218 0
M  V30 969 H 94.2973 -2.94038 -1.04633 0
M  V30 970 N 94.5984 0.214957 -1.56127 0
M  V30 971 C 95.8234 0.95924 -1.83884 0
M  V30 972 C 96.2484 1.7689 -0.639644 0
M  V30 973 O 95.6064 1.76566 0.411601 0
M  V30 974 C 95.6544 1.84723 -3.09693 0
M  V30 975 O 94.7584 2.94346 -2.8885 0
M  V30 976 H 94.0994 0.27125 -0.606069 0
M  V30 977 H 96.6294 0.226276 -2.03345 0
M  V30 978 H 96.6394 2.25576 -3.39969 0
M  V30 979 H 95.3144 1.25218 -3.96602 0
M  V30 980 H 93.8914 2.57391 -2.69823 0
M  V30 981 N 96.0765 1.50051 0.48192 0
M  V30 982 C 97.0095 1.62749 1.59963 0
M  V30 983 C 97.9875 0.475903 1.5548 0
M  V30 984 O 99.1715 0.693986 1.7526 0
M  V30 985 C 96.2985 1.60008 2.98522 0
M  V30 986 C 95.3445 2.80596 3.21198 0
M  V30 987 S 96.1775 4.42038 3.02262 0
M  V30 988 C 97.3335 4.41973 4.43182 0
M  V30 989 H 97.5665 2.57296 1.4895 0
M  V30 990 H 95.0995 1.39179 0.668477 0
M  V30 991 H 97.0575 1.59112 3.78409 0
M  V30 992 H 95.7185 0.667153 3.06933 0
M  V30 993 H 94.9115 2.74952 4.22395 0
M  V30 994 H 94.5135 2.79003 2.49065 0
M  V30 995 H 96.8055 4.14868 5.35622 0
M  V30 996 H 97.7485 5.43512 4.53873 0
M  V30 997 H 98.1565 3.71812 4.24755 0
M  V30 998 N 97.5546 -0.734337 1.39446 0
M  V30 999 C 98.8006 -1.49613 1.36908 0
M  V30 1000 C 99.1336 -1.94169 -0.0347829 0
M  V30 1001 O 98.4086 -1.66833 -0.999847 0
M  V30 1002 C 98.6916 -2.73534 2.34203 0
M  V30 1003 C 98.5446 -2.34993 3.83534 0
M  V30 1004 C 99.8636 -3.75635 2.29317 0
M  V30 1005 H 96.9826 -0.542714 0.498629 0
M  V30 1006 H 99.6246 -0.839597 1.70443 0
M  V30 1007 H 97.7746 -3.29553 2.05736 0
M  V30 1008 H 99.4466 -1.84601 4.22753 0
M  V30 1009 H 97.6896 -1.67213 4.00278 0
M  V30 1010 H 98.3606 -3.23738 4.47099 0
M  V30 1011 H 100.837 -3.29203 2.54489 0
M  V30 1012 H 99.7126 -4.60008 2.99472 0
M  V30 1013 H 99.9736 -4.22603 1.29842 0
M  V30 1014 N 99.0327 -1.24633 -0.964593 0
M  V30 1015 C 100.279 -1.09957 -1.71117 0
M  V30 1016 C 100.634 0.357422 -1.89051 0
M  V30 1017 O 99.9267 1.26029 -1.44317 0
M  V30 1018 C 100.121 -1.7763 -3.10133 0
M  V30 1019 C 99.9497 -3.29759 -3.05759 0
M  V30 1020 C 98.7197 -3.98981 -3.10068 0
M  V30 1021 C 100.918 -4.26305 -2.87695 0
M  V30 1022 N 98.8997 -5.37966 -2.95747 0
M  V30 1023 C 100.271 -5.52308 -2.81702 0
M  V30 1024 C 102.326 -4.16842 -2.72299 0
M  V30 1025 C 101.029 -6.69931 -2.61887 0
M  V30 1026 C 103.055 -5.34147 -2.53853 0
M  V30 1027 C 102.417 -6.59084 -2.48572 0
M  V30 1028 H 98.5157 -0.457003 -0.634564 0
M  V30 1029 H 101.1 -1.57592 -1.14337 0
M  V30 1030 H 99.2707 -1.32504 -3.65099 0
M  V30 1031 H 101.003 -1.55786 -3.73514 0
M  V30 1032 H 97.7577 -3.50169 -3.18871 0
M  V30 1033 H 98.1817 -6.10877 -2.91818 0
M  V30 1034 H 102.824 -3.21007 -2.75163 0
M  V30 1035 H 100.542 -7.65886 -2.57767 0
M  V30 1036 H 104.128 -5.28678 -2.4288 0
M  V30 1037 H 103.008 -7.48324 -2.34481 0
M  V30 1038 N 100.511 1.16574 -1.06058 0
M  V30 1039 C 101.736 1.91493 -0.796562 0
M  V30 1040 C 102.161 1.76773 0.642868 0
M  V30 1041 O 101.519 1.09142 1.44768 0
M  V30 1042 C 101.567 3.40293 -1.19303 0
M  V30 1043 O 100.671 4.11074 -0.330394 0
M  V30 1044 H 100.012 0.596678 -0.291326 0
M  V30 1045 H 102.542 1.47708 -1.41575 0
M  V30 1046 H 102.552 3.91057 -1.16356 0
M  V30 1047 H 101.227 3.50326 -2.24153 0
M  V30 1048 H 99.8038 3.70513 -0.421225 0
M  V30 1049 N 101.989 0.842826 1.3317 0
M  V30 1050 C 103.238 0.436738 1.96915 0
M  V30 1051 C 103.551 -1.01025 1.67491 0
M  V30 1052 O 104.757 -1.5212 2.24881 0
M  V30 1053 C 103.213 0.730021 3.52418 0
M  V30 1054 C 102.821 2.19195 3.90714 0
M  V30 1055 C 104.565 0.391076 4.22695 0
M  V30 1056 C 102.472 2.42907 5.39212 0
M  V30 1057 H 101.402 0.15958 0.736919 0
M  V30 1058 H 104.053 1.03196 1.51733 0
M  V30 1059 H 102.435 0.0643755 3.95948 0
M  V30 1060 H 103.609 2.8984 3.58231 0
M  V30 1061 H 101.924 2.49425 3.33431 0
M  V30 1062 H 104.521 0.545817 5.31907 0
M  V30 1063 H 104.864 -0.666294 4.10933 0
M  V30 1064 H 105.397 1.01212 3.84709 0
M  V30 1065 H 102.136 3.47224 5.55982 0
M  V30 1066 H 101.656 1.76827 5.73142 0
M  V30 1067 H 103.335 2.2626 6.06148 0
M  V30 1068 N 103.467 -1.45747 0.599634 0
M  V30 1069 C 104.415 -2.322 -0.136426 0
M  V30 1070 C 105.409 -1.45497 -0.867583 0
M  V30 1071 O 106.615 -1.62027 -0.78405 0
M  V30 1072 H 102.99 -0.749368 -0.0628588 0
M  V30 1073 H 104.961 -2.92072 0.611281 0
M  V30 1074 C 103.71 -3.28974 -1.12567 0
M  V30 1075 H 103.033 -3.9568 -0.572484 0
M  V30 1076 H 104.473 -3.92212 -1.61077 0
M  V30 1077 C 102.932 -2.55561 -2.19523 0
M  V30 1078 O 103.462 -2.33111 -3.27143 0
M  V30 1079 N 101.668 -2.15832 -1.94589 0
M  V30 1080 H 101.215 -2.3429 -1.07078 0
M  V30 1081 H 101.173 -1.67034 -2.66359 0
M  V30 1082 N 104.945 -0.338344 -1.53925 0
M  V30 1083 C 105.875 0.51328 -2.27789 0
M  V30 1084 C 106.856 1.107 -1.29149 0
M  V30 1085 O 108.041 1.12937 -1.57984 0
M  V30 1086 C 105.171 1.66697 -3.04679 0
M  V30 1087 C 104.125 1.20183 -4.1078 0
M  V30 1088 C 103.451 2.44363 -4.75595 0
M  V30 1089 C 104.751 0.30605 -5.21403 0
M  V30 1090 H 106.445 -0.102883 -2.99223 0
M  V30 1091 H 103.991 -0.0509219 -1.4391 0
M  V30 1092 H 105.944 2.26915 -3.55088 0
M  V30 1093 H 104.668 2.30995 -2.30887 0
M  V30 1094 H 103.327 0.622499 -3.61276 0
M  V30 1095 H 102.975 3.07057 -3.98403 0
M  V30 1096 H 102.675 2.13925 -5.47275 0
M  V30 1097 H 104.199 3.05317 -5.28786 0
M  V30 1098 H 105.613 0.814929 -5.67478 0
M  V30 1099 H 104.01 0.0937929 -6.00027 0
M  V30 1100 H 105.08 -0.65921 -4.80398 0
M  V30 1101 N 106.423 1.57458 -0.0668435 0
M  V30 1102 C 107.651 1.97624 0.612565 0
M  V30 1103 C 108.066 0.94502 1.63447 0
M  V30 1104 O 107.423 -0.0689276 1.8237 0
M  V30 1105 C 107.474 3.37869 1.28555 0
M  V30 1106 O 107.195 4.3704 0.304557 0
M  V30 1107 C 108.696 3.92882 2.05325 0
M  V30 1108 H 105.916 0.650045 0.166381 0
M  V30 1109 H 108.46 2.04035 -0.137782 0
M  V30 1110 H 106.615 3.3256 1.98702 0
M  V30 1111 H 107.029 5.18565 0.786779 0
M  V30 1112 H 108.503 4.93247 2.47812 0
M  V30 1113 H 108.98 3.29156 2.9078 0
M  V30 1114 H 109.586 4.01577 1.40056 0
M  V30 1115 N 107.901 -0.206675 1.56239 0
M  V30 1116 C 108.864 -1.23976 1.92776 0
M  V30 1117 C 109.864 -1.39041 0.807729 0
M  V30 1118 O 111.054 -1.37051 1.0753 0
M  V30 1119 C 108.186 -2.61112 2.19165 0
M  V30 1120 H 109.379 -0.927764 2.85189 0
M  V30 1121 H 106.932 -0.447718 1.4975 0
M  V30 1122 H 107.667 -2.97386 1.29352 0
M  V30 1123 H 107.452 -2.51552 3.00772 0
M  V30 1124 H 108.942 -3.35633 2.48476 0
M  V30 1125 N 109.379 -1.50304 -0.473955 0
M  V30 1126 C 110.627 -1.60832 -1.22382 0
M  V30 1127 C 110.948 -0.30939 -1.9253 0
M  V30 1128 O 110.218 0.67296 -1.83978 0
M  V30 1129 H 108.798 -0.592652 -0.454723 0
M  V30 1130 H 111.46 -1.87068 -0.546968 0
M  V30 1131 H 110.556 -2.41803 -1.97327 0
M  V30 1132 N 110.857 0.726932 -1.39834 0
M  V30 1133 C 111.79 1.8501 -1.33592 0
M  V30 1134 C 112.768 1.61262 -0.208191 0
M  V30 1135 O 113.952 1.84422 -0.389981 0
M  V30 1136 C 111.079 3.21143 -1.07633 0
M  V30 1137 C 110.125 3.63737 -2.22705 0
M  V30 1138 S 110.958 3.72167 -3.85035 0
M  V30 1139 C 112.114 5.11077 -3.61318 0
M  V30 1140 H 112.347 1.90022 -2.28646 0
M  V30 1141 H 109.88 0.892595 -1.25985 0
M  V30 1142 H 111.838 3.99747 -0.933415 0
M  V30 1143 H 110.499 3.13776 -0.142526 0
M  V30 1144 H 109.692 4.62551 -2.00155 0
M  V30 1145 H 109.294 2.9236 -2.33242 0
M  V30 1146 H 111.586 5.97656 -3.19083 0
M  V30 1147 H 112.529 5.38658 -4.59623 0
M  V30 1148 H 112.937 4.81135 -2.95245 0
M  V30 1149 N 112.336 1.25143 0.95797 0
M  V30 1150 C 113.566 1.12261 1.73439 0
M  V30 1151 C 113.974 -0.326715 1.86358 0
M  V30 1152 O 113.317 -1.2367 1.35836 0
M  V30 1153 C 113.379 1.69966 3.16784 0
M  V30 1154 C 113.043 3.18936 3.27305 0
M  V30 1155 C 114.04 4.15968 3.11877 0
M  V30 1156 C 111.725 3.59083 3.51234 0
M  V30 1157 C 113.719 5.51126 3.20217 0
M  V30 1158 C 111.406 4.9438 3.5921 0
M  V30 1159 C 112.404 5.90211 3.43716 0
M  V30 1160 O 112.092 7.23046 3.51368 0
M  V30 1161 H 111.824 0.392476 0.550399 0
M  V30 1162 H 114.378 1.65927 1.21068 0
M  V30 1163 H 112.608 1.10744 3.70503 0
M  V30 1164 H 114.297 1.52232 3.76272 0
M  V30 1165 H 115.063 3.86292 2.93264 0
M  V30 1166 H 110.942 2.84989 3.62356 0
M  V30 1167 H 114.486 6.25905 3.0804 0
M  V30 1168 H 110.383 5.23723 3.77339 0
M  V30 1169 H 111.151 7.31097 3.6802 0
M  V30 1170 N 113.814 -1.1601 1.06675 0
M  V30 1171 C 115.054 -1.88304 0.795037 0
M  V30 1172 C 115.418 -1.80062 -0.666466 0
M  V30 1173 O 116.619 -2.47319 -1.05293 0
M  V30 1174 C 114.89 -3.33664 1.28076 0
M  V30 1175 S 116.449 -4.23768 1.13868 0
M  V30 1176 H 113.267 -0.649928 0.288296 0
M  V30 1177 H 115.869 -1.4001 1.36445 0
M  V30 1178 H 114.573 -3.37203 2.33927 0
M  V30 1179 H 114.104 -3.87009 0.706253 0
M  V30 1180 H 116.119 -4.96148 0.0719668 0
M  V30 1181 N 115.292 -0.849877 -1.32721 0
M  V30 1182 C 116.255 -0.296122 -2.27279 0
M  V30 1183 C 117.255 0.541458 -1.5141 0
M  V30 1184 O 118.445 0.353658 -1.70572 0
M  V30 1185 C 115.577 0.581579 -3.35902 0
M  V30 1186 H 116.77 -1.13064 -2.77771 0
M  V30 1187 H 114.323 -0.62383 -1.43311 0
M  V30 1188 H 115.058 1.43809 -2.9067 0
M  V30 1189 H 114.843 -0.0178814 -3.92096 0
M  V30 1190 H 116.333 0.961951 -4.0637 0
M  V30 1191 N 116.77 1.45427 -0.607355 0
M  V30 1192 C 117.733 2.28974 0.101693 0
M  V30 1193 C 118.733 1.39754 0.795329 0
M  V30 1194 O 119.923 1.61878 0.643527 0
M  V30 1195 C 117.055 3.20768 1.15414 0
M  V30 1196 H 118.248 2.93147 -0.632844 0
M  V30 1197 H 115.801 1.51945 -0.366391 0
M  V30 1198 H 116.536 2.61395 1.91945 0
M  V30 1199 H 116.321 3.86489 0.66098 0
M  V30 1200 H 117.811 3.83589 1.65073 0
M  V30 1201 N 118.248 0.346503 1.53744 0
M  V30 1202 C 119.178 -0.501193 2.28058 0
M  V30 1203 C 120.159 -1.10014 1.29734 0
M  V30 1204 O 121.344 -1.12097 1.58581 0
M  V30 1205 C 118.474 -1.65078 3.05559 0
M  V30 1206 C 117.428 -1.18003 4.11411 0
M  V30 1207 C 116.754 -2.41837 4.76884 0
M  V30 1208 C 118.054 -0.278394 5.21558 0
M  V30 1209 H 119.748 0.11875 2.99164 0
M  V30 1210 H 117.294 0.0585531 1.43881 0
M  V30 1211 H 119.247 -2.25028 3.56287 0
M  V30 1212 H 117.971 -2.29767 2.32109 0
M  V30 1213 H 116.63 -0.603331 3.61601 0
M  V30 1214 H 116.278 -3.0494 4.00026 0
M  V30 1215 H 115.978 -2.1102 5.48402 0
M  V30 1216 H 117.502 -3.02508 5.30397 0
M  V30 1217 H 118.916 -0.784823 5.67903 0
M  V30 1218 H 117.313 -0.0619707 6.00068 0
M  V30 1219 H 118.383 0.684677 4.80042 0
M  V30 1220 N 119.726 -1.57421 0.075193 0
M  V30 1221 C 120.636 -2.1642 -0.905511 0
M  V30 1222 C 121.652 -1.12828 -1.32461 0
M  V30 1223 O 122.828 -1.45109 -1.39661 0
M  V30 1224 C 119.893 -2.71693 -2.15369 0
M  V30 1225 C 118.954 -3.90171 -1.79068 0
M  V30 1226 C 118.187 -4.42798 -2.97936 0
M  V30 1227 O 118.41 -3.94416 -4.12058 0
M  V30 1228 O 117.344 -5.34085 -2.77555 0
M  V30 1229 H 121.17 -3.00588 -0.433626 0
M  V30 1230 H 118.755 -1.48664 -0.148067 0
M  V30 1231 H 120.637 -3.07104 -2.88557 0
M  V30 1232 H 119.312 -1.90582 -2.61649 0
M  V30 1233 H 118.219 -3.59606 -1.03122 0
M  V30 1234 H 119.552 -4.72584 -1.37569 0
M  V30 1235 N 121.204 0.198386 -1.56346 0
M  V30 1236 C 122.429 0.939682 -1.84891 0
M  V30 1237 C 122.854 1.76202 -0.658369 0
M  V30 1238 O 122.212 1.76993 0.392851 0
M  V30 1239 C 122.26 1.81428 -3.11635 0
M  V30 1240 O 121.364 2.91265 -2.91956 0
M  V30 1241 H 120.705 0.264807 -0.608912 0
M  V30 1242 H 123.235 0.204695 -2.03573 0
M  V30 1243 H 123.245 2.21958 -3.42343 0
M  V30 1244 H 121.92 1.21004 -3.97908 0
M  V30 1245 H 120.497 2.54514 -2.72538 0
M  V30 1246 N 122.682 1.50554 0.465978 0
M  V30 1247 C 123.612 1.72722 1.57128 0
M  V30 1248 C 124.593 0.576294 1.6004 0
M  V30 1249 O 125.778 0.81598 1.76225 0
M  V30 1250 C 122.908 1.82605 2.95419 0
M  V30 1251 C 121.862 2.97835 3.07373 0
M  V30 1252 C 121.188 2.92867 4.47363 0
M  V30 1253 C 122.488 4.38265 2.84114 0
M  V30 1254 H 124.182 2.65267 1.38829 0
M  V30 1255 H 121.728 1.2765 0.666441 0
M  V30 1256 H 123.681 1.96698 3.72677 0
M  V30 1257 H 122.405 0.866858 3.14886 0
M  V30 1258 H 121.064 2.83401 2.3255 0
M  V30 1259 H 120.712 1.94783 4.63755 0
M  V30 1260 H 120.412 3.70227 4.56296 0
M  V30 1261 H 121.936 3.09015 5.26633 0
M  V30 1262 H 123.35 4.53198 3.51118 0
M  V30 1263 H 121.747 5.17115 3.04487 0
M  V30 1264 H 122.817 4.50281 1.7993 0
M  V30 1265 N 124.16 -0.719506 1.40217 0
M  V30 1266 C 125.409 -1.47486 1.37589 0
M  V30 1267 C 125.722 -1.9559 -0.0201568 0
M  V30 1268 O 126.928 -2.70973 -0.169049 0
M  V30 1269 C 125.384 -2.66575 2.41796 0
M  V30 1270 C 124.992 -2.25358 3.87192 0
M  V30 1271 C 126.736 -3.4433 2.48269 0
M  V30 1272 C 124.643 -3.41262 4.83005 0
M  V30 1273 H 123.573 -0.553901 0.511576 0
M  V30 1274 H 126.224 -0.783427 1.65936 0
M  V30 1275 H 124.606 -3.3787 2.06543 0
M  V30 1276 H 125.78 -1.61509 4.31569 0
M  V30 1277 H 124.095 -1.60657 3.84159 0
M  V30 1278 H 126.692 -4.30569 3.17041 0
M  V30 1279 H 127.035 -3.87872 1.51198 0
M  V30 1280 H 127.568 -2.80076 2.82493 0
M  V30 1281 H 124.307 -3.02755 5.81394 0
M  V30 1282 H 123.827 -4.0404 4.43297 0
M  V30 1283 H 125.506 -4.07383 5.02641 0
M  V30 1284 N 125.638 -1.25649 -0.95132 0
M  V30 1285 C 126.586 -1.06118 -2.06982 0
M  V30 1286 C 127.58 0.00889169 -1.69398 0
M  V30 1287 O 128.786 -0.146988 -1.79399 0
M  V30 1288 H 125.161 -0.326248 -0.677544 0
M  V30 1289 H 127.132 -2.00932 -2.2061 0
M  V30 1290 C 125.881 -0.700145 -3.40578 0
M  V30 1291 H 125.204 -1.51537 -3.69968 0
M  V30 1292 H 126.644 -0.603211 -4.19687 0
M  V30 1293 C 125.103 0.59403 -3.31622 0
M  V30 1294 O 125.633 1.63522 -3.66911 0
M  V30 1295 N 123.839 0.58089 -2.84735 0
M  V30 1296 H 123.386 -0.266783 -2.56215 0
M  V30 1297 H 123.344 1.44695 -2.79125 0
M  V30 1298 N 127.117 1.15442 -1.07289 0
M  V30 1299 C 128.363 1.86489 -0.796846 0
M  V30 1300 C 128.696 1.82078 0.675371 0
M  V30 1301 O 127.971 1.24346 1.4956 0
M  V30 1302 C 128.254 3.35626 -1.30489 0
M  V30 1303 C 128.107 3.48673 -2.84161 0
M  V30 1304 C 129.426 4.30357 -0.920907 0
M  V30 1305 H 126.545 0.677144 -0.290939 0
M  V30 1306 H 129.187 1.35633 -1.33056 0
M  V30 1307 H 127.337 3.79068 -0.850883 0
M  V30 1308 H 129.009 3.14099 -3.37846 0
M  V30 1309 H 127.252 2.90253 -3.22391 0
M  V30 1310 H 127.923 4.53453 -3.14777 0
M  V30 1311 H 130.399 3.94871 -1.3121 0
M  V30 1312 H 129.275 5.33193 -1.30372 0
M  V30 1313 H 129.536 4.4176 0.173226 0
M  V30 1314 N 128.595 0.856903 1.32268 0
M  V30 1315 C 129.82 0.474569 2.01897 0
M  V30 1316 C 130.245 -0.921766 1.63967 0
M  V30 1317 O 129.603 -1.60589 0.84148 0
M  V30 1318 C 129.651 0.623799 3.55164 0
M  V30 1319 O 128.755 -0.342459 4.10976 0
M  V30 1320 H 128.096 0.190422 0.63611 0
M  V30 1321 H 130.626 1.15672 1.68764 0
M  V30 1322 H 130.636 0.512169 4.04773 0
M  V30 1323 H 129.311 1.64202 3.82113 0
M  V30 1324 H 127.888 -0.18688 3.72431 0
M  V30 1325 N 130.073 -1.45103 0.615059 0
M  V30 1326 C 131.321 -2.01784 0.112955 0
M  V30 1327 C 131.642 -1.48504 -1.26378 0
M  V30 1328 O 130.912 -0.682245 -1.83636 0
M  V30 1329 H 129.492 -0.745993 0.0387668 0
M  V30 1330 H 132.154 -1.77808 0.798141 0
M  V30 1331 H 131.25 -3.12025 0.0684069 0
M  V30 1332 N 131.551 -0.354651 -1.53558 0
M  V30 1333 C 132.791 0.238651 -2.03002 0
M  V30 1334 C 133.155 1.46878 -1.23656 0
M  V30 1335 O 134.356 2.13699 -1.63053 0
M  V30 1336 C 132.627 0.534175 -3.53386 0
M  V30 1337 S 134.186 1.10271 -4.24719 0
M  V30 1338 H 131.004 0.0702908 -0.707517 0
M  V30 1339 H 133.606 -0.494987 -1.8913 0
M  V30 1340 H 132.31 -0.368765 -4.0874 0
M  V30 1341 H 131.841 1.29718 -3.71398 0
M  V30 1342 H 133.856 2.38772 -4.34974 0
M  V30 1343 N 133.029 1.57378 -0.0835403 0
M  V30 1344 C 134.254 1.98682 0.594987 0
M  V30 1345 C 134.679 0.961969 1.61641 0
M  V30 1346 O 134.037 -0.0709989 1.81161 0
M  V30 1347 C 134.085 3.38988 1.2296 0
M  V30 1348 O 133.189 3.39208 2.34546 0
M  V30 1349 H 132.53 0.646368 0.152002 0
M  V30 1350 H 135.06 2.03961 -0.161533 0
M  V30 1351 H 135.07 3.76431 1.57366 0
M  V30 1352 H 133.745 4.13107 0.481228 0
M  V30 1353 H 132.322 3.13548 2.01846 0
M  V30 1354 N 134.507 -0.190092 1.56449 0
M  V30 1355 C 135.47 -1.21925 1.9408 0
M  V30 1356 C 136.47 -1.38176 0.822431 0
M  V30 1357 O 137.66 -1.35903 1.08977 0
M  V30 1358 C 134.792 -2.58773 2.21922 0
M  V30 1359 H 135.985 -0.897464 2.86157 0
M  V30 1360 H 133.538 -0.43181 1.50217 0
M  V30 1361 H 134.273 -2.95998 1.32499 0
M  V30 1362 H 134.058 -2.48348 3.03424 0
M  V30 1363 H 135.548 -3.32978 2.52022 0
M  V30 1364 N 135.985 -1.50799 -0.457987 0
M  V30 1365 C 137.234 -1.6168 -1.20593 0
M  V30 1366 C 137.547 -0.32888 -1.92815 0
M  V30 1367 O 138.753 -0.316773 -2.69646 0
M  V30 1368 C 137.209 -2.8545 -2.19195 0
M  V30 1369 C 136.817 -4.21168 -1.52715 0
M  V30 1370 C 138.561 -3.05681 -2.94549 0
M  V30 1371 C 136.468 -5.3611 -2.4968 0
M  V30 1372 H 135.398 -0.602134 -0.453818 0
M  V30 1373 H 138.049 -1.77245 -0.475031 0
M  V30 1374 H 136.431 -2.63472 -2.95632 0
M  V30 1375 H 137.605 -4.53449 -0.819775 0
M  V30 1376 H 135.92 -4.06648 -0.895922 0
M  V30 1377 H 138.517 -3.88727 -3.67145 0
M  V30 1378 H 138.86 -2.17929 -3.54701 0
M  V30 1379 H 139.393 -3.27901 -2.25223 0
M  V30 1380 H 136.132 -6.26057 -1.94249 0
M  V30 1381 H 135.652 -5.0823 -3.18532 0
M  V30 1382 H 137.331 -5.6722 -3.11241 0
M  V30 1383 N 137.463 0.71206 -1.40597 0
M  V30 1384 C 138.373 1.8562 -1.43466 0
M  V30 1385 C 139.389 1.70902 -0.326902 0
M  V30 1386 O 140.565 1.93105 -0.572043 0
M  V30 1387 C 137.63 3.21451 -1.29884 0
M  V30 1388 C 136.691 3.48398 -2.50833 0
M  V30 1389 C 135.924 4.77749 -2.3789 0
M  V30 1390 O 136.147 5.53089 -1.39459 0
M  V30 1391 O 135.081 5.05111 -3.27333 0
M  V30 1392 H 138.907 1.86155 -2.39958 0
M  V30 1393 H 136.492 0.86295 -1.21957 0
M  V30 1394 H 138.374 4.02579 -1.24531 0
M  V30 1395 H 137.049 3.21636 -0.364997 0
M  V30 1396 H 135.956 2.67265 -2.61763 0
M  V30 1397 H 137.289 3.53014 -3.4299 0
M  V30 1398 N 138.941 1.26152 0.944643 0
M  V30 1399 C 139.888 1.07408 2.04285 0
M  V30 1400 C 140.858 -0.0198413 1.66088 0
M  V30 1401 O 142.043 0.139264 1.90291 0
M  V30 1402 C 139.183 0.70945 3.37729 0
M  V30 1403 C 138.296 1.87926 3.88983 0
M  V30 1404 C 137.431 1.45807 5.10797 0
M  V30 1405 C 136.47 2.5964 5.54305 0
M  V30 1406 N 135.607 2.18226 6.67324 0
M  V30 1407 H 140.447 2.01389 2.1965 0
M  V30 1408 H 137.984 1.00275 1.07626 0
M  V30 1409 H 139.942 0.478948 4.14442 0
M  V30 1410 H 138.572 -0.193389 3.2222 0
M  V30 1411 H 137.624 2.22279 3.08701 0
M  V30 1412 H 138.936 2.73377 4.17213 0
M  V30 1413 H 138.09 1.18781 5.94959 0
M  V30 1414 H 136.829 0.574414 4.84305 0
M  V30 1415 H 135.834 2.87399 4.68702 0
M  V30 1416 H 137.059 3.48599 5.828 0
M  V30 1417 H 135.005 1.3229 6.42523 0
M  V30 1418 H 134.922 2.97221 6.95123 0
M  V30 1419 H 136.19 1.94403 7.54869 0
M  V30 1420 N 140.419 -1.14872 1.07899 0
M  V30 1421 C 141.647 -1.89661 0.82683 0
M  V30 1422 C 142.062 -1.78312 -0.620519 0
M  V30 1423 O 141.419 -1.13888 -1.42604 0
M  V30 1424 C 141.47 -3.39817 1.23316 0
M  V30 1425 O 141.191 -3.50845 2.62372 0
M  V30 1426 C 142.692 -4.31615 1.0111 0
M  V30 1427 H 139.912 -0.60092 0.298557 0
M  V30 1428 H 142.456 -1.4551 1.43691 0
M  V30 1429 H 140.611 -3.8161 0.667286 0
M  V30 1430 H 141.025 -4.44076 2.79101 0
M  V30 1431 H 142.499 -5.35367 1.34486 0
M  V30 1432 H 142.976 -4.39169 -0.0522168 0
M  V30 1433 H 143.582 -3.95572 1.56215 0
M  V30 1434 N 141.898 -0.863906 -1.31812 0
M  V30 1435 C 142.83 -0.272485 -2.27575 0
M  V30 1436 C 143.843 0.56104 -1.52827 0
M  V30 1437 O 145.032 0.384021 -1.7432 0
M  V30 1438 C 142.132 0.63283 -3.32939 0
M  V30 1439 C 141.305 -0.166902 -4.37081 0
M  V30 1440 C 140.364 0.665608 -5.21973 0
M  V30 1441 O 139.39 0.0958091 -5.69119 0
M  V30 1442 N 140.592 1.9787 -5.45736 0
M  V30 1443 H 143.357 -1.0954 -2.78964 0
M  V30 1444 H 140.918 -0.724791 -1.4477 0
M  V30 1445 H 142.91 1.19532 -3.86645 0
M  V30 1446 H 141.48 1.35642 -2.81638 0
M  V30 1447 H 140.7 -0.910838 -3.83533 0
M  V30 1448 H 141.988 -0.715874 -5.03739 0
M  V30 1449 H 141.386 2.46484 -5.09178 0
M  V30 1450 H 139.943 2.48911 -6.024 0
M  V30 1451 N 143.376 1.44774 -0.622745 0
M  V30 1452 C 144.792 1.56986 -0.287652 0
M  V30 1453 C 144.992 1.61167 1.20944 0
M  V30 1454 O 144.048 1.55015 1.99315 0
M  V30 1455 C 145.361 2.84551 -0.972188 0
M  V30 1456 C 146.909 2.9825 -0.949536 0
M  V30 1457 C 147.384 4.28605 -1.61437 0
M  V30 1458 N 148.875 4.35399 -1.58057 0
M  V30 1459 C 149.61 5.34964 -2.064 0
M  V30 1460 N 149.106 6.40981 -2.62897 0
M  V30 1461 N 150.899 5.26419 -1.97078 0
M  V30 1462 H 143.05 1.40304 -1.59463 0
M  V30 1463 H 145.313 0.671794 -0.668878 0
M  V30 1464 H 145.019 2.87417 -2.02693 0
M  V30 1465 H 144.893 3.73807 -0.504771 0
M  V30 1466 H 147.28 2.94941 0.0967067 0
M  V30 1467 H 147.361 2.10364 -1.45536 0
M  V30 1468 H 147.005 4.32672 -2.66002 0
M  V30 1469 H 146.935 5.15334 -1.08344 0
M  V30 1470 H 149.426 3.59397 -1.16801 0
M  V30 1471 H 149.739 7.13225 -2.97539 0
M  V30 1472 H 148.084 6.4169 -2.66943 0
M  V30 1473 H 151.275 4.42504 -1.52669 0
M  V30 1474 H 151.448 6.03861 -2.35066 0
M  V30 1475 N 144.854 0.36279 1.53368 0
M  V30 1476 C 145.787 -0.528507 2.21996 0
M  V30 1477 C 146.765 -1.0852 1.21087 0
M  V30 1478 O 147.949 -1.14186 1.4998 0
M  V30 1479 C 145.076 -1.72893 2.91249 0
M  V30 1480 C 144.122 -1.29994 4.06207 0
M  V30 1481 S 144.955 -0.303575 5.34639 0
M  V30 1482 C 146.111 -1.51039 6.07403 0
M  V30 1483 H 146.344 0.0543423 2.9725 0
M  V30 1484 H 143.877 0.146889 1.537 0
M  V30 1485 H 145.835 -2.41751 3.31763 0
M  V30 1486 H 144.496 -2.28303 2.15724 0
M  V30 1487 H 143.689 -2.19549 4.53667 0
M  V30 1488 H 143.291 -0.690608 3.67569 0
M  V30 1489 H 145.583 -2.44186 6.31965 0
M  V30 1490 H 146.526 -1.07721 6.99858 0
M  V30 1491 H 146.934 -1.71518 5.37812 0
M  V30 1492 N 146.332 -1.57332 0.0918853 0
M  V30 1493 C 147.262 -2.16872 -0.865371 0
M  V30 1494 C 148.243 -1.10118 -1.29646 0
M  V30 1495 O 149.428 -1.38242 -1.36392 0
M  V30 1496 C 146.558 -2.74649 -2.12569 0
M  V30 1497 C 145.512 -3.86747 -1.83333 0
M  V30 1498 C 144.838 -4.31212 -3.16166 0
M  V30 1499 C 146.138 -5.10089 -1.1228 0
M  V30 1500 H 147.832 -2.97114 -0.369307 0
M  V30 1501 H 145.378 -1.42918 -0.176194 0
M  V30 1502 H 147.331 -3.14952 -2.7997 0
M  V30 1503 H 146.055 -1.91657 -2.64452 0
M  V30 1504 H 144.714 -3.46978 -1.18331 0
M  V30 1505 H 144.362 -3.45115 -3.6593 0
M  V30 1506 H 144.062 -5.06788 -2.97388 0
M  V30 1507 H 145.586 -4.74146 -3.84731 0
M  V30 1508 H 147 -5.47582 -1.69785 0
M  V30 1509 H 145.397 -5.91073 -1.03693 0
M  V30 1510 H 146.467 -4.84786 -0.105041 0
M  V30 1511 N 147.81 0.181792 -1.56548 0
M  V30 1512 C 149.035 0.920019 -1.85877 0
M  V30 1513 C 149.46 1.75494 -0.677021 0
M  V30 1514 O 148.818 1.77399 0.374056 0
M  V30 1515 C 148.866 1.78112 -3.13542 0
M  V30 1516 O 147.97 2.88152 -2.95029 0
M  V30 1517 H 147.311 0.258334 -0.611686 0
M  V30 1518 H 149.841 0.183092 -2.03779 0
M  V30 1519 H 149.851 2.18314 -3.44678 0
M  V30 1520 H 148.526 1.16777 -3.99169 0
M  V30 1521 H 147.103 2.51609 -2.75222 0
M  V30 1522 N 149.288 1.51039 0.449983 0
M  V30 1523 C 150.536 1.62759 1.19808 0
M  V30 1524 C 150.857 0.339981 1.92013 0
M  V30 1525 O 150.127 -0.643606 1.85026 0
M  V30 1526 H 148.707 0.599811 0.445237 0
M  V30 1527 H 151.369 1.87914 0.517138 0
M  V30 1528 H 150.465 2.44911 1.93455 0
M  V30 1529 N 150.766 -0.704594 1.40972 0
M  V30 1530 C 152.013 -1.46458 1.39844 0
M  V30 1531 C 152.341 -1.94499 0.00447594 0
M  V30 1532 O 151.596 -1.69275 -0.982057 0
M  V30 1533 C 151.895 -2.698 2.34399 0
M  V30 1534 C 151.561 -2.40464 3.81429 0
M  V30 1535 C 150.223 -2.32174 4.21484 0
M  V30 1536 C 152.575 -2.16086 4.74296 0
M  V30 1537 C 149.903 -1.97589 5.52427 0
M  V30 1538 C 152.255 -1.83011 6.05549 0
M  V30 1539 C 150.919 -1.7321 6.44635 0
M  V30 1540 H 150.189 -0.535927 0.511725 0
M  V30 1541 H 152.836 -0.806124 1.73706 0
M  V30 1542 H 151.141 -3.40536 1.93759 0
M  V30 1543 H 152.838 -3.27919 2.30804 0
M  V30 1544 H 149.428 -2.47808 3.49699 0
M  V30 1545 H 153.612 -2.2144 4.4416 0
M  V30 1546 H 148.868 -1.88547 5.81601 0
M  V30 1547 H 153.042 -1.63164 6.77016 0
M  V30 1548 H 150.669 -1.46179 7.46013 0
M  V30 1549 N 152.244 -1.26651 -0.937939 0
M  V30 1550 C 153.484 -1.13611 -1.69917 0
M  V30 1551 C 153.848 0.314687 -1.89404 0
M  V30 1552 O 155.049 0.567285 -2.62746 0
M  V30 1553 C 153.32 -1.88742 -3.03498 0
M  V30 1554 S 154.879 -1.91794 -3.94665 0
M  V30 1555 H 151.697 -0.405767 -0.583844 0
M  V30 1556 H 154.299 -1.60416 -1.11745 0
M  V30 1557 H 153.003 -2.9336 -2.86999 0
M  V30 1558 H 152.534 -1.42391 -3.66727 0
M  V30 1559 H 154.549 -1.00698 -4.85875 0
M  V30 1560 N 153.722 1.14298 -1.08507 0
M  V30 1561 C 155.133 1.66926 -0.836227 0
M  V30 1562 C 155.484 1.85576 0.63686 0
M  V30 1563 O 154.609 1.56767 1.49175 0
M  V30 1564 C 155.204 3.03219 -1.51142 0
M  V30 1565 C 153.763 3.52876 -1.30979 0
M  V30 1566 C 152.91 2.2833 -1.57356 0
M  V30 1567 H 155.861 0.983491 -1.24552 0
M  V30 1568 H 155.882 3.68726 -0.939211 0
M  V30 1569 H 155.394 2.89612 -2.58353 0
M  V30 1570 H 153.495 3.71703 -0.258429 0
M  V30 1571 H 153.608 4.33586 -2.03814 0
M  V30 1572 H 151.972 2.34454 -0.995164 0
M  V30 1573 H 152.755 2.17298 -2.65775 0
M  V30 1574 N 155.201 0.870884 1.31352 0
M  V30 1575 C 156.151 0.298889 2.26032 0
M  V30 1576 C 157.135 -0.564595 1.50669 0
M  V30 1577 O 158.327 -0.411323 1.72154 0
M  V30 1578 C 155.456 -0.497842 3.39671 0
M  V30 1579 C 154.542 0.378937 4.22404 0
M  V30 1580 N 154.933 1.47284 4.83881 0
M  V30 1581 C 153.231 0.171535 4.4567 0
M  V30 1582 C 153.932 2.01359 5.45738 0
M  V30 1583 N 152.908 1.31047 5.27568 0
M  V30 1584 H 156.71 1.13494 2.71102 0
M  V30 1585 H 154.224 0.718745 1.45629 0
M  V30 1586 H 156.221 -0.924155 4.06528 0
M  V30 1587 H 154.881 -1.33149 2.96144 0
M  V30 1588 H 155.892 1.85575 4.8351 0
M  V30 1589 H 152.569 -0.626091 4.12779 0
M  V30 1590 H 153.959 2.93143 6.0458 0
M  V30 1591 N 156.679 -1.44442 0.630414 0
M  V30 1592 C 157.626 -2.30678 -0.0749355 0
M  V30 1593 C 158.596 -1.4344 -0.837502 0
M  V30 1594 O 159.781 -1.72343 -0.818684 0
M  V30 1595 C 156.921 -3.28706 -1.05103 0
M  V30 1596 C 156.034 -4.31046 -0.286954 0
M  V30 1597 C 155.169 -5.16167 -1.2548 0
M  V30 1598 C 154.208 -6.10216 -0.479843 0
M  V30 1599 N 153.345 -6.88039 -1.39811 0
M  V30 1600 H 158.185 -2.90454 0.666386 0
M  V30 1601 H 155.722 -1.43107 0.340404 0
M  V30 1602 H 157.68 -3.84027 -1.63031 0
M  V30 1603 H 156.31 -2.70632 -1.75949 0
M  V30 1604 H 155.362 -3.78203 0.408243 0
M  V30 1605 H 156.674 -4.97794 0.316657 0
M  V30 1606 H 155.828 -5.76002 -1.90544 0
M  V30 1607 H 154.567 -4.49491 -1.89233 0
M  V30 1608 H 153.572 -5.49491 0.184295 0
M  V30 1609 H 154.797 -6.78928 0.152965 0
M  V30 1610 H 152.743 -6.24032 -2.02287 0
M  V30 1611 H 152.66 -7.51223 -0.848508 0
M  V30 1612 H 153.928 -7.52397 -2.03762 0
M  V30 1613 N 158.157 -0.370918 -1.53173 0
M  V30 1614 C 159.403 0.217423 -2.01631 0
M  V30 1615 C 159.736 1.47983 -1.25756 0
M  V30 1616 O 159.011 1.91274 -0.352764 0
M  V30 1617 C 159.294 0.503982 -3.56556 0
M  V30 1618 C 159.147 -0.77243 -4.43118 0
M  V30 1619 C 160.466 1.30234 -4.20389 0
M  V30 1620 H 157.585 0.0775486 -0.732909 0
M  V30 1621 H 160.227 -0.496863 -1.83388 0
M  V30 1622 H 158.377 1.11248 -3.72231 0
M  V30 1623 H 160.049 -1.4098 -4.39229 0
M  V30 1624 H 158.292 -1.39167 -4.10871 0
M  V30 1625 H 158.963 -0.526815 -5.4948 0
M  V30 1626 H 161.439 0.787546 -4.08579 0
M  V30 1627 H 160.315 1.47158 -5.28806 0
M  V30 1628 H 160.576 2.31237 -3.76805 0
M  V30 1629 N 159.635 1.57281 -0.100228 0
M  V30 1630 C 160.86 1.99302 0.573881 0
M  V30 1631 C 161.285 0.979059 1.60611 0
M  V30 1632 O 160.643 -0.0517803 1.81226 0
M  V30 1633 C 160.691 3.40274 1.19358 0
M  V30 1634 O 159.795 3.41676 2.30935 0
M  V30 1635 H 159.136 0.647944 0.145138 0
M  V30 1636 H 161.666 2.03779 -0.183156 0
M  V30 1637 H 161.676 3.78078 1.53365 0
M  V30 1638 H 160.351 4.13594 0.437385 0
M  V30 1639 H 158.928 3.15672 1.98509 0
M  V30 1640 N 161.113 -0.173488 1.56642 0
M  V30 1641 C 162.076 -1.19859 1.95362 0
M  V30 1642 C 163.076 -1.37296 0.83704 0
M  V30 1643 O 164.266 -1.34739 1.10413 0
M  V30 1644 C 161.398 -2.56405 2.24654 0
M  V30 1645 H 162.591 -0.867062 2.87092 0
M  V30 1646 H 160.144 -0.415853 1.50666 0
M  V30 1647 H 160.879 -2.94576 1.35631 0
M  V30 1648 H 160.664 -2.45115 3.06041 0
M  V30 1649 H 162.154 -3.30287 2.5554 0
M  V30 1650 N 162.591 -1.51276 -0.441967 0
M  V30 1651 C 163.839 -1.63392 -1.18943 0
M  V30 1652 C 164.16 -0.350159 -1.9183 0
M  V30 1653 O 163.43 0.633784 -1.85364 0
M  V30 1654 H 162.01 -0.602164 -0.442049 0
M  V30 1655 H 164.672 -1.88186 -0.507165 0
M  V30 1656 H 163.768 -2.45934 -1.92154 0
M  V30 1657 N 164.069 0.697108 -1.41344 0
M  V30 1658 C 165.001 1.8224 -1.39001 0
M  V30 1659 C 166.014 1.60152 -0.292428 0
M  V30 1660 O 167.203 1.69684 -0.554048 0
M  V30 1661 C 164.303 3.18976 -1.14489 0
M  V30 1662 C 163.476 3.68105 -2.36258 0
M  V30 1663 C 162.535 4.83506 -2.07625 0
M  V30 1664 O 161.561 4.95201 -2.8065 0
M  V30 1665 N 162.763 5.70637 -1.06555 0
M  V30 1666 H 165.528 1.84742 -2.35988 0
M  V30 1667 H 163.089 0.87937 -1.35936 0
M  V30 1668 H 165.081 3.93801 -0.932885 0
M  V30 1669 H 163.651 3.11508 -0.261043 0
M  V30 1670 H 162.871 2.84204 -2.7317 0
M  V30 1671 H 164.159 3.97667 -3.17393 0
M  V30 1672 H 163.557 5.63817 -0.461125 0
M  V30 1673 H 162.114 6.45368 -0.913444 0
M  V30 1674 N 165.547 1.27147 0.931209 0
M  V30 1675 C 166.794 1.13278 1.67852 0
M  V30 1676 C 167.122 -0.32204 1.91815 0
M  V30 1677 O 166.377 -1.25224 1.50391 0
M  V30 1678 C 166.676 1.8579 3.05314 0
M  V30 1679 C 166.342 3.35657 3.01073 0
M  V30 1680 C 165.004 3.76536 2.99623 0
M  V30 1681 C 167.356 4.31299 2.92627 0
M  V30 1682 C 164.684 5.11426 2.87506 0
M  V30 1683 C 167.036 5.66242 2.82051 0
M  V30 1684 C 165.7 6.06418 2.7895 0
M  V30 1685 H 164.97 0.414515 0.614214 0
M  V30 1686 H 167.617 1.57712 1.08624 0
M  V30 1687 H 165.922 1.33854 3.68226 0
M  V30 1688 H 167.619 1.72491 3.62005 0
M  V30 1689 H 164.209 3.03146 3.02986 0
M  V30 1690 H 168.393 4.00692 2.92848 0
M  V30 1691 H 163.649 5.41705 2.83489 0
M  V30 1692 H 167.823 6.40026 2.74481 0
M  V30 1693 H 165.45 7.10895 2.69318 0
M  V30 1694 N 167.025 -1.13721 1.09112 0
M  V30 1695 C 168.25 -1.89314 0.847053 0
M  V30 1696 C 168.675 -1.78416 -0.595774 0
M  V30 1697 O 168.033 -1.12942 -1.41823 0
M  V30 1698 C 168.081 -3.3701 1.28284 0
M  V30 1699 O 167.185 -4.10054 0.439267 0
M  V30 1700 H 166.526 -0.588745 0.307044 0
M  V30 1701 H 169.056 -1.43902 1.45442 0
M  V30 1702 H 169.066 -3.87834 1.26683 0
M  V30 1703 H 167.741 -3.4426 2.33363 0
M  V30 1704 H 166.318 -3.69266 0.519312 0
M  V30 1705 N 168.503 -0.877838 -1.30888 0
M  V30 1706 C 169.728 -0.506629 -2.01117 0
M  V30 1707 C 170.153 0.895564 -1.65412 0
M  V30 1708 O 169.511 1.5923 -0.866922 0
M  V30 1709 C 169.559 -0.680223 -3.54126 0
M  V30 1710 O 168.663 0.277033 -4.11468 0
M  V30 1711 H 168.004 -0.200518 -0.633 0
M  V30 1712 H 170.534 -1.18342 -1.66902 0
M  V30 1713 H 170.544 -0.5765 -4.03907 0
M  V30 1714 H 169.219 -1.70261 -3.79452 0
M  V30 1715 H 167.796 0.127606 -3.72682 0
M  V30 1716 N 169.982 1.44106 -0.638065 0
M  V30 1717 C 170.912 2.33448 0.0494287 0
M  V30 1718 C 171.893 1.48606 0.827672 0
M  V30 1719 O 173.078 1.77308 0.792173 0
M  V30 1720 C 170.208 3.31771 1.02691 0
M  V30 1721 C 169.162 4.26485 0.359823 0
M  V30 1722 C 168.488 5.14729 1.44769 0
M  V30 1723 C 169.788 5.17056 -0.738296 0
M  V30 1724 H 171.482 2.91183 -0.696636 0
M  V30 1725 H 169.028 1.40014 -0.336456 0
M  V30 1726 H 170.981 3.93161 1.51666 0
M  V30 1727 H 169.705 2.7226 1.80395 0
M  V30 1728 H 168.364 3.66437 -0.10934 0
M  V30 1729 H 168.012 4.51566 2.21578 0
M  V30 1730 H 167.712 5.78913 1.00668 0
M  V30 1731 H 169.236 5.78991 1.93911 0
M  V30 1732 H 170.65 5.72342 -0.331354 0
M  V30 1733 H 169.047 5.89879 -1.10286 0
M  V30 1734 H 170.117 4.57652 -1.60258 0
M  V30 1735 N 171.46 0.379036 1.52974 0
M  V30 1736 C 172.41 -0.477772 2.22938 0
M  V30 1737 C 173.394 -1.03792 1.22948 0
M  V30 1738 O 174.586 -0.965725 1.48333 0
M  V30 1739 C 171.715 -1.60994 3.03209 0
M  V30 1740 C 170.801 -1.06203 4.10587 0
M  V30 1741 N 171.192 -0.238214 5.05239 0
M  V30 1742 C 169.49 -1.33554 4.25534 0
M  V30 1743 C 170.191 0.0633235 5.81666 0
M  V30 1744 N 169.167 -0.537901 5.40932 0
M  V30 1745 H 172.969 0.158295 2.93473 0
M  V30 1746 H 170.483 0.187778 1.61311 0
M  V30 1747 H 172.48 -2.23607 3.5186 0
M  V30 1748 H 171.14 -2.24893 2.34207 0
M  V30 1749 H 172.151 0.123695 5.17752 0
M  V30 1750 H 168.828 -1.97632 3.6776 0
M  V30 1751 H 170.218 0.730161 6.67921 0
M  V30 1752 N 172.938 -1.57226 0.108567 0
M  V30 1753 C 174.184 -1.95121 -0.552761 0
M  V30 1754 C 174.517 -0.991345 -1.66991 0
M  V30 1755 O 173.792 -0.0267211 -1.94482 0
M  V30 1756 C 174.075 -3.43039 -1.09528 0
M  V30 1757 C 173.928 -4.49797 0.0177332 0
M  V30 1758 C 175.247 -3.92567 -1.98945 0
M  V30 1759 H 172.366 -0.709496 -0.199461 0
M  V30 1760 H 175.008 -1.89126 0.182011 0
M  V30 1761 H 173.158 -3.48279 -1.72146 0
M  V30 1762 H 174.83 -4.56661 0.652584 0
M  V30 1763 H 173.073 -4.284 0.682309 0
M  V30 1764 H 173.744 -5.50528 -0.402919 0
M  V30 1765 H 176.22 -3.89565 -1.46214 0
M  V30 1766 H 175.096 -4.96605 -2.33827 0
M  V30 1767 H 175.357 -3.32648 -2.91201 0
M  V30 1768 N 174.416 0.165178 -1.56732 0
M  V30 1769 C 175.832 0.517174 -1.50988 0
M  V30 1770 C 176.032 1.84331 -0.813894 0
M  V30 1771 O 175.088 2.49672 -0.37682 0
M  V30 1772 C 176.401 0.544261 -2.95733 0
M  V30 1773 C 177.949 0.631039 -3.06573 0
M  V30 1774 C 178.424 0.68896 -4.52788 0
M  V30 1775 N 179.915 0.751683 -4.5706 0
M  V30 1776 C 180.65 0.817177 -5.67547 0
M  V30 1777 N 180.146 0.843129 -6.8765 0
M  V30 1778 N 181.939 0.856668 -5.55534 0
M  V30 1779 H 174.09 -0.704318 -2.00382 0
M  V30 1780 H 176.353 -0.254687 -0.913148 0
M  V30 1781 H 176.059 -0.361607 -3.49836 0
M  V30 1782 H 175.933 1.3886 -3.5071 0
M  V30 1783 H 178.32 1.52733 -2.52501 0
M  V30 1784 H 178.401 -0.240095 -2.54671 0
M  V30 1785 H 178.045 -0.2031 -5.07494 0
M  V30 1786 H 177.975 1.57633 -5.02454 0
M  V30 1787 H 180.466 0.739661 -3.70591 0
M  V30 1788 H 180.779 0.894448 -7.67606 0
M  V30 1789 H 179.124 0.811304 -6.90248 0
M  V30 1790 H 182.315 0.833437 -4.60621 0
M  V30 1791 H 182.488 0.904247 -6.4166 0
M  V30 1792 N 175.894 1.51508 0.433938 0
M  V30 1793 C 177.171 1.54888 1.19453 0
M  V30 1794 C 177.551 0.315154 2.08734 0
M  V30 1795 O 176.899 -0.699558 2.17528 0
M  V30 1796 C 177.109 2.86467 1.99342 0
M  V30 1797 C 178.457 3.38545 2.56267 0
M  V30 1798 O 179.481 2.88041 2.0955 0
M  V30 1799 O 178.34 4.26675 3.41483 0
M  V30 1800 H 175.434 0.622863 0.544032 0
M  V30 1801 H 177.98 1.63823 0.442732 0
M  V30 1802 H 176.752 3.67718 1.33788 0
M  V30 1803 H 176.375 2.8071 2.8158 0
M  V30 1804 N 177.372 -0.689602 1.41712 0
M  V30 1805 C 178.6 -1.47827 1.44758 0
M  V30 1806 C 179.015 -1.88721 0.0545703 0
M  V30 1807 O 178.372 -1.57176 -0.927463 0
M  V30 1808 C 178.423 -2.73698 2.3616 0
M  V30 1809 O 178.144 -2.34524 3.7004 0
M  V30 1810 C 179.645 -3.67389 2.48072 0
M  V30 1811 H 176.865 -0.455357 0.49284 0
M  V30 1812 H 179.409 -0.848574 1.86063 0
M  V30 1813 H 177.564 -3.32891 1.98148 0
M  V30 1814 H 177.978 -3.15701 4.18847 0
M  V30 1815 H 179.452 -4.52475 3.16181 0
M  V30 1816 H 179.929 -4.12284 1.51388 0
M  V30 1817 H 180.535 -3.14097 2.86746 0
M  V30 1818 N 178.85 -1.27639 -0.924453 0
M  V30 1819 C 179.797 -1.10644 -2.0255 0
M  V30 1820 C 180.767 -0.00658438 -1.66099 0
M  V30 1821 O 181.952 -0.16952 -1.90045 0
M  V30 1822 C 179.092 -0.76309 -3.36557 0
M  V30 1823 C 178.205 -1.94091 -3.85944 0
M  V30 1824 C 177.34 -1.53914 -5.08413 0
M  V30 1825 C 176.379 -2.68425 -5.50104 0
M  V30 1826 N 175.516 -2.28815 -6.63768 0
M  V30 1827 H 180.356 -2.04858 -2.16419 0
M  V30 1828 H 177.893 -1.01974 -1.06017 0
M  V30 1829 H 179.851 -0.544822 -4.13627 0
M  V30 1830 H 178.481 0.142102 -3.22487 0
M  V30 1831 H 177.533 -2.27162 -3.05125 0
M  V30 1832 H 178.845 -2.7998 -4.12811 0
M  V30 1833 H 177.999 -1.28231 -5.92994 0
M  V30 1834 H 176.738 -0.651391 -4.8333 0
M  V30 1835 H 175.743 -2.94819 -4.64071 0
M  V30 1836 H 176.968 -3.57826 -5.7718 0
M  V30 1837 H 174.914 -1.42495 -6.40337 0
M  V30 1838 H 174.831 -3.08242 -6.90306 0
M  V30 1839 H 176.099 -2.06387 -7.51681 0
M  V30 1840 N 180.328 1.1314 -1.09713 0
M  V30 1841 C 181.577 1.83838 -0.829851 0
M  V30 1842 C 181.89 1.84599 0.646728 0
M  V30 1843 O 183.096 2.51218 1.02965 0
M  V30 1844 C 181.552 3.30069 -1.43466 0
M  V30 1845 C 181.16 3.37688 -2.94399 0
M  V30 1846 C 182.904 4.05788 -1.24645 0
M  V30 1847 C 180.811 4.78209 -3.47952 0
M  V30 1848 H 179.741 0.68877 -0.306777 0
M  V30 1849 H 182.392 1.27448 -1.3202 0
M  V30 1850 H 180.774 3.8628 -0.871996 0
M  V30 1851 H 181.948 2.91456 -3.56918 0
M  V30 1852 H 180.263 2.75436 -3.12289 0
M  V30 1853 H 182.86 5.09535 -1.62107 0
M  V30 1854 H 183.203 4.15878 -0.187357 0
M  V30 1855 H 183.736 3.55915 -1.77678 0
M  V30 1856 H 180.475 4.73311 -4.53495 0
M  V30 1857 H 179.995 5.24924 -2.90198 0
M  V30 1858 H 181.674 5.47133 -3.45332 0
M  V30 1859 N 181.806 0.884767 1.30421 0
M  V30 1860 C 182.716 0.355398 2.31892 0
M  V30 1861 C 183.732 -0.542261 1.65335 0
M  V30 1862 O 184.908 -0.435432 1.96637 0
M  V30 1863 C 181.973 -0.421661 3.44126 0
M  V30 1864 C 181.034 0.505727 4.26311 0
M  V30 1865 C 180.267 -0.234343 5.33185 0
M  V30 1866 O 180.49 -1.46045 5.51386 0
M  V30 1867 O 179.424 0.415443 6.00465 0
M  V30 1868 H 183.25 1.19685 2.79122 0
M  V30 1869 H 180.835 0.648596 1.34587 0
M  V30 1870 H 182.717 -0.861641 4.12497 0
M  V30 1871 H 181.392 -1.23942 2.99032 0
M  V30 1872 H 180.299 0.994513 3.60639 0
M  V30 1873 H 181.632 1.28948 4.75009 0
M  V30 1874 N 183.284 -1.43765 0.645699 0
M  V30 1875 C 184.53 -2.02197 0.156271 0
M  V30 1876 C 184.863 -1.50776 -1.22393 0
M  V30 1877 O 184.138 -0.697771 -1.81553 0
M  V30 1878 C 184.421 -3.59749 0.158872 0
M  V30 1879 C 184.274 -4.21419 1.57245 0
M  V30 1880 C 185.593 -4.37149 -0.50879 0
M  V30 1881 H 182.712 -0.734694 0.0582602 0
M  V30 1882 H 185.354 -1.71157 0.824951 0
M  V30 1883 H 183.504 -3.86325 -0.410525 0
M  V30 1884 H 185.176 -4.059 2.19186 0
M  V30 1885 H 183.419 -3.78356 2.122 0
M  V30 1886 H 184.09 -5.30482 1.52619 0
M  V30 1887 H 186.566 -4.16093 -0.024412 0
M  V30 1888 H 185.442 -5.4683 -0.476213 0
M  V30 1889 H 185.703 -4.12839 -1.58165 0
M  V30 1890 N 184.763 -0.387143 -1.52771 0
M  V30 1891 C 185.726 0.436939 -2.24997 0
M  V30 1892 C 186.726 0.991991 -1.26555 0
M  V30 1893 O 187.916 0.874335 -1.50669 0
M  V30 1894 C 185.048 1.61281 -3.00335 0
M  V30 1895 H 186.241 -0.195365 -2.99263 0
M  V30 1896 H 183.794 -0.139218 -1.55679 0
M  V30 1897 H 184.529 2.2826 -2.30364 0
M  V30 1898 H 184.314 1.22154 -3.72587 0
M  V30 1899 H 185.804 2.19629 -3.5518 0
M  V30 1900 N 186.241 1.57166 -0.116904 0
M  V30 1901 C 187.173 2.12271 0.864507 0
M  V30 1902 C 188.186 1.06494 1.23138 0
M  V30 1903 O 189.375 1.33873 1.18069 0
M  V30 1904 C 186.475 2.60564 2.16702 0
M  V30 1905 C 185.648 3.90416 1.97216 0
M  V30 1906 C 184.707 4.24329 3.11178 0
M  V30 1907 O 183.733 4.93182 2.84184 0
M  V30 1908 N 184.935 3.8148 4.37554 0
M  V30 1909 H 187.7 2.97102 0.393726 0
M  V30 1910 H 185.261 1.61759 0.0675805 0
M  V30 1911 H 187.253 2.80282 2.91932 0
M  V30 1912 H 185.823 1.80623 2.55135 0
M  V30 1913 H 185.043 3.79627 1.06192 0
M  V30 1914 H 186.331 4.75327 1.81499 0
M  V30 1915 H 185.729 3.25943 4.62361 0
M  V30 1916 H 184.286 4.06311 5.09661 0
M  V30 1917 N 187.719 -0.156864 1.56817 0
M  V30 1918 C 188.966 -0.871125 1.82805 0
M  V30 1919 C 189.294 -1.81611 0.696262 0
M  V30 1920 O 188.549 -1.93141 -0.315459 0
M  V30 1921 C 188.848 -1.68737 3.1506 0
M  V30 1922 C 188.514 -0.890045 4.42028 0
M  V30 1923 C 187.176 -0.670042 4.76512 0
M  V30 1924 C 189.528 -0.331769 5.20143 0
M  V30 1925 C 186.856 0.119104 5.86579 0
M  V30 1926 C 189.208 0.444365 6.31037 0
M  V30 1927 C 187.872 0.675035 6.64078 0
M  V30 1928 H 187.142 -0.318767 0.668931 0
M  V30 1929 H 189.789 -0.135274 1.91022 0
M  V30 1930 H 188.094 -2.49304 3.0225 0
M  V30 1931 H 189.791 -2.24331 3.3238 0
M  V30 1932 H 186.381 -1.07157 4.14988 0
M  V30 1933 H 190.565 -0.489043 4.93885 0
M  V30 1934 H 185.821 0.307417 6.10627 0
M  V30 1935 H 189.995 0.884139 6.90765 0
M  V30 1936 H 187.622 1.28839 7.49203 0
M  V30 1937 N 189.197 -1.51736 -0.425897 0
M  V30 1938 C 190.443 -1.65214 -1.1761 0
M  V30 1939 C 190.776 -0.372778 -1.90589 0
M  V30 1940 O 190.051 0.628139 -1.84078 0
M  V30 1941 C 190.334 -2.86312 -2.18398 0
M  V30 1942 C 190.187 -4.24254 -1.49426 0
M  V30 1943 C 191.506 -3.02925 -3.19256 0
M  V30 1944 H 188.625 -0.601263 -0.426206 0
M  V30 1945 H 191.267 -1.8425 -0.463882 0
M  V30 1946 H 189.417 -2.70213 -2.79137 0
M  V30 1947 H 191.089 -4.52046 -0.919362 0
M  V30 1948 H 189.332 -4.26426 -0.796432 0
M  V30 1949 H 190.003 -5.05001 -2.22885 0
M  V30 1950 H 192.479 -3.1781 -2.68581 0
M  V30 1951 H 191.355 -3.89199 -3.8706 0
M  V30 1952 H 191.616 -2.15497 -3.86023 0
M  V30 1953 N 190.675 0.682077 -1.42076 0
M  V30 1954 C 191.622 1.79578 -1.44984 0
M  V30 1955 C 192.592 1.6332 -0.302614 0
M  V30 1956 O 193.777 1.83978 -0.505633 0
M  V30 1957 C 190.917 3.1756 -1.35091 0
M  V30 1958 C 190.03 3.45156 -2.59791 0
M  V30 1959 C 189.165 4.72826 -2.42093 0
M  V30 1960 C 188.204 4.93433 -3.62202 0
M  V30 1961 N 187.341 6.12338 -3.43491 0
M  V30 1962 H 192.181 1.76427 -2.40161 0
M  V30 1963 H 189.718 0.861376 -1.19242 0
M  V30 1964 H 191.676 3.97287 -1.27354 0
M  V30 1965 H 190.306 3.19854 -0.435133 0
M  V30 1966 H 189.358 2.59736 -2.77923 0
M  V30 1967 H 190.67 3.5628 -3.49094 0
M  V30 1968 H 189.824 5.60631 -2.319 0
M  V30 1969 H 188.563 4.63973 -1.50268 0
M  V30 1970 H 187.568 4.04073 -3.72834 0
M  V30 1971 H 188.793 5.04136 -4.54998 0
M  V30 1972 H 186.739 6.04672 -2.54377 0
M  V30 1973 H 186.656 6.2429 -4.26377 0
M  V30 1974 H 187.924 7.02841 -3.37097 0
M  V30 1975 N 192.153 1.28127 0.917671 0
M  V30 1976 C 193.43 1.05761 1.64542 0
M  V30 1977 C 193.81 -0.404344 2.07191 0
M  V30 1978 O 193.158 -1.38963 1.81388 0
M  V30 1979 C 193.368 2.02857 2.83989 0
M  V30 1980 C 194.716 2.32786 3.551 0
M  V30 1981 O 195.74 2.0091 2.94132 0
M  V30 1982 O 194.599 2.87169 4.64969 0
M  V30 1983 H 191.693 0.403916 0.721652 0
M  V30 1984 H 194.239 1.39431 0.967322 0
M  V30 1985 H 193.011 3.01407 2.49538 0
M  V30 1986 H 192.634 1.69809 3.59514 0
M  V30 1987 N 193.631 -1.12557 1.10312 0
M  V30 1988 C 194.561 -2.20341 0.772798 0
M  V30 1989 C 195.542 -1.68198 -0.25365 0
M  V30 1990 O 196.727 -1.93831 -0.119699 0
M  V30 1991 C 193.857 -3.46709 0.202443 0
M  V30 1992 C 192.811 -4.11996 1.15943 0
M  V30 1993 C 192.137 -5.328 0.450345 0
M  V30 1994 C 193.437 -4.5828 2.50552 0
M  V30 1995 H 195.131 -2.48229 1.674 0
M  V30 1996 H 192.677 -1.19308 0.806326 0
M  V30 1997 H 194.63 -4.2138 -0.0407752 0
M  V30 1998 H 193.354 -3.18245 -0.734001 0
M  V30 1999 H 192.013 -3.39305 1.38808 0
M  V30 2000 H 191.661 -5.00602 -0.490531 0
M  V30 2001 H 191.361 -5.7743 1.08851 0
M  V30 2002 H 192.885 -6.10219 0.215642 0
M  V30 2003 H 194.299 -5.2433 2.31843 0
M  V30 2004 H 192.696 -5.13683 3.10242 0
M  V30 2005 H 193.766 -3.72329 3.10643 0
M  V30 2006 N 195.109 -0.891671 -1.2995 0
M  V30 2007 C 196.039 -0.379797 -2.30391 0
M  V30 2008 C 197.02 0.540919 -1.6127 0
M  V30 2009 O 198.205 0.453352 -1.88834 0
M  V30 2010 C 195.335 0.400654 -3.44981 0
M  V30 2011 C 194.289 -0.428905 -4.25846 0
M  V30 2012 C 193.615 0.478557 -5.32554 0
M  V30 2013 C 194.915 -1.67458 -4.94727 0
M  V30 2014 H 196.609 -1.21914 -2.73454 0
M  V30 2015 H 194.155 -0.587675 -1.31462 0
M  V30 2016 H 196.108 0.769434 -4.14316 0
M  V30 2017 H 194.832 1.27371 -3.0074 0
M  V30 2018 H 193.491 -0.779911 -3.58208 0
M  V30 2019 H 193.139 1.34951 -4.84559 0
M  V30 2020 H 192.839 -0.0727433 -5.87555 0
M  V30 2021 H 194.363 0.843705 -6.04743 0
M  V30 2022 H 195.777 -1.376 -5.56542 0
M  V30 2023 H 194.174 -2.16659 -5.59624 0
M  V30 2024 H 195.244 -2.41518 -4.20473 0
M  V30 2025 N 196.587 1.43421 -0.653314 0
M  V30 2026 C 197.517 2.33487 0.0246656 0
M  V30 2027 C 198.498 1.49475 0.811863 0
M  V30 2028 O 199.683 1.78139 0.773322 0
M  V30 2029 C 196.813 3.32841 0.99166 0
M  V30 2030 C 195.767 4.26842 0.314568 0
M  V30 2031 C 195.093 5.16236 1.39302 0
M  V30 2032 C 196.393 5.16243 -0.793095 0
M  V30 2033 H 198.087 2.90427 -0.727481 0
M  V30 2034 H 195.633 1.39649 -0.351287 0
M  V30 2035 H 197.586 3.94747 1.47487 0
M  V30 2036 H 196.31 2.74158 1.77497 0
M  V30 2037 H 194.969 3.663 -0.148199 0
M  V30 2038 H 194.617 4.53891 2.16776 0
M  V30 2039 H 194.317 5.79948 0.945223 0
M  V30 2040 H 195.841 5.81015 1.87759 0
M  V30 2041 H 197.255 5.71958 -0.392039 0
M  V30 2042 H 195.652 5.88676 -1.16536 0
M  V30 2043 H 196.722 4.55927 -1.65103 0
M  V30 2044 N 198.065 0.39524 1.52563 0
M  V30 2045 C 199.015 -0.4541 2.23432 0
M  V30 2046 C 199.999 -1.02482 1.24042 0
M  V30 2047 O 201.191 -0.949938 1.49349 0
M  V30 2048 C 198.32 -1.57769 3.049 0
M  V30 2049 C 197.406 -1.01842 4.1169 0
M  V30 2050 N 197.797 -0.184613 5.05463 0
M  V30 2051 C 196.095 -1.29033 4.26927 0
M  V30 2052 C 196.796 0.125013 5.81566 0
M  V30 2053 N 195.772 -0.480498 5.41472 0
M  V30 2054 H 199.574 0.189413 2.93289 0
M  V30 2055 H 197.088 0.204877 1.61102 0
M  V30 2056 H 199.085 -2.19862 3.54212 0
M  V30 2057 H 197.745 -2.22397 2.36579 0
M  V30 2058 H 198.756 0.178602 5.17592 0
M  V30 2059 H 195.433 -1.93721 3.69836 0
M  V30 2060 H 196.823 0.800962 6.67109 0
M  V30 2061 N 199.544 -1.57102 0.125237 0
M  V30 2062 C 200.474 -2.18659 -0.819174 0
M  V30 2063 C 201.455 -1.12843 -1.27281 0
M  V30 2064 O 202.64 -1.41104 -1.33429 0
M  V30 2065 C 199.77 -2.79096 -2.06695 0
M  V30 2066 C 198.724 -3.90548 -1.75088 0
M  V30 2067 C 198.05 -4.37821 -3.06948 0
M  V30 2068 C 199.35 -5.12356 -1.01435 0
M  V30 2069 H 201.044 -2.9783 -0.306202 0
M  V30 2070 H 198.59 -1.4326 -0.145839 0
M  V30 2071 H 200.543 -3.2082 -2.73226 0
M  V30 2072 H 199.267 -1.97223 -2.60328 0
M  V30 2073 H 197.926 -3.49409 -1.10944 0
M  V30 2074 H 197.574 -3.52799 -3.58527 0
M  V30 2075 H 197.274 -5.12982 -2.86571 0
M  V30 2076 H 198.798 -4.822 -3.74587 0
M  V30 2077 H 200.212 -5.5106 -1.58132 0
M  V30 2078 H 198.609 -5.9314 -0.911319 0
M  V30 2079 H 199.679 -4.849 -0.00218681 0
M  V30 2080 N 201.022 0.148545 -1.56898 0
M  V30 2081 C 201.969 1.18345 -1.98149 0
M  V30 2082 C 202.939 1.42772 -0.848848 0
M  V30 2083 O 204.124 1.55132 -1.11079 0
M  V30 2084 C 201.264 2.51231 -2.36594 0
M  V30 2085 C 200.377 2.33991 -3.63142 0
M  V30 2086 C 199.512 3.59902 -3.90697 0
M  V30 2087 C 198.551 3.37692 -5.1052 0
M  V30 2088 N 197.688 4.5573 -5.34092 0
M  V30 2089 H 202.528 0.82467 -2.86362 0
M  V30 2090 H 200.065 0.395756 -1.41676 0
M  V30 2091 H 202.023 3.28713 -2.56912 0
M  V30 2092 H 200.653 2.85059 -1.51463 0
M  V30 2093 H 199.705 1.47572 -3.50609 0
M  V30 2094 H 201.017 2.13539 -4.5078 0
M  V30 2095 H 200.171 4.45813 -4.11505 0
M  V30 2096 H 198.91 3.83357 -3.01477 0
M  V30 2097 H 197.915 2.5017 -4.89587 0
M  V30 2098 H 199.14 3.15637 -6.0129 0
M  V30 2099 H 197.086 4.79361 -4.47827 0
M  V30 2100 H 197.003 4.38274 -6.15996 0
M  V30 2101 H 198.271 5.42858 -5.59397 0
M  V30 2102 N 202.5 1.5196 0.417844 0
M  V30 2103 C 203.447 1.74678 1.50852 0
M  V30 2104 C 204.417 0.588947 1.55308 0
M  V30 2105 O 205.602 0.825544 1.72016 0
M  V30 2106 C 202.742 1.89544 2.88387 0
M  V30 2107 C 201.855 3.17166 2.93309 0
M  V30 2108 C 200.99 3.22513 4.22088 0
M  V30 2109 C 200.029 4.44372 4.20951 0
M  V30 2110 N 199.166 4.47161 5.41287 0
M  V30 2111 H 204.006 2.67768 1.30783 0
M  V30 2112 H 201.543 1.32689 0.63498 0
M  V30 2113 H 203.501 1.96146 3.68216 0
M  V30 2114 H 202.131 0.998424 3.06971 0
M  V30 2115 H 201.183 3.19778 2.06024 0
M  V30 2116 H 202.495 4.07021 2.88332 0
M  V30 2117 H 201.649 3.28139 5.10303 0
M  V30 2118 H 200.388 2.30581 4.29748 0
M  V30 2119 H 199.393 4.38902 3.31127 0
M  V30 2120 H 200.618 5.3759 4.14938 0
M  V30 2121 H 198.564 3.58108 5.49632 0
M  V30 2122 H 198.481 5.3085 5.3827 0
M  V30 2123 H 199.749 4.57005 6.3148 0
M  V30 2124 N 203.978 -0.674533 1.42435 0
M  V30 2125 C 204.908 -1.80009 1.48724 0
M  V30 2126 C 205.889 -1.6659 0.343793 0
M  V30 2127 O 207.074 -1.86007 0.558137 0
M  V30 2128 C 204.204 -3.18306 1.38919 0
M  V30 2129 C 203.158 -3.46461 2.51294 0
M  V30 2130 C 202.484 -4.84335 2.26547 0
M  V30 2131 C 203.784 -3.43328 3.93603 0
M  V30 2132 H 205.478 -1.75004 2.42928 0
M  V30 2133 H 203.024 -0.840533 1.16923 0
M  V30 2134 H 204.977 -3.9678 1.41927 0
M  V30 2135 H 203.701 -3.2399 0.412094 0
M  V30 2136 H 202.36 -2.70348 2.47604 0
M  V30 2137 H 202.008 -4.86669 1.2713 0
M  V30 2138 H 201.708 -5.04136 3.01861 0
M  V30 2139 H 203.232 -5.65094 2.31304 0
M  V30 2140 H 204.646 -4.11772 3.98894 0
M  V30 2141 H 203.043 -3.74664 4.68771 0
M  V30 2142 H 204.113 -2.41897 4.20255 0
M  V30 2143 N 205.456 -1.28612 -0.910864 0
M  V30 2144 C 206.703 -1.15934 -1.66029 0
M  V30 2145 C 207.031 0.291483 -1.92303 0
M  V30 2146 O 206.286 1.22816 -1.52364 0
M  V30 2147 C 206.585 -1.90624 -3.0232 0
M  V30 2148 C 206.251 -3.40405 -2.95695 0
M  V30 2149 C 204.913 -3.81255 -2.93595 0
M  V30 2150 C 207.265 -4.359 -2.85728 0
M  V30 2151 C 204.593 -5.15936 -2.79334 0
M  V30 2152 C 206.945 -5.70657 -2.73007 0
M  V30 2153 C 205.609 -6.10779 -2.69267 0
M  V30 2154 H 204.879 -0.424234 -0.607541 0
M  V30 2155 H 207.526 -1.5942 -1.06101 0
M  V30 2156 H 205.831 -1.39696 -3.6605 0
M  V30 2157 H 207.528 -1.78228 -3.59215 0
M  V30 2158 H 204.118 -3.07927 -2.98125 0
M  V30 2159 H 208.302 -4.053 -2.86436 0
M  V30 2160 H 203.558 -5.46146 -2.74835 0
M  V30 2161 H 207.732 -6.44311 -2.64264 0
M  V30 2162 H 205.359 -7.1509 -2.57974 0
M  V30 2163 N 206.934 1.1197 -1.10907 0
M  V30 2164 C 208.35 1.35591 -0.841852 0
M  V30 2165 C 208.55 1.94233 0.536246 0
M  V30 2166 O 207.606 2.1717 1.28816 0
M  V30 2167 C 208.919 2.29284 -1.94549 0
M  V30 2168 C 210.467 2.42862 -1.97451 0
M  V30 2169 C 210.942 3.39873 -3.07002 0
M  V30 2170 N 212.433 3.47433 -3.06341 0
M  V30 2171 C 213.168 4.22421 -3.87748 0
M  V30 2172 N 212.664 5.00432 -4.79103 0
M  V30 2173 N 214.457 4.17876 -3.75946 0
M  V30 2174 H 206.608 0.722664 -1.99728 0
M  V30 2175 H 208.871 0.380635 -0.868229 0
M  V30 2176 H 208.577 1.93378 -2.93765 0
M  V30 2177 H 208.451 3.29452 -1.83688 0
M  V30 2178 H 210.838 2.78046 -0.988645 0
M  V30 2179 H 210.919 1.42566 -2.12388 0
M  V30 2180 H 210.563 3.05417 -4.05811 0
M  V30 2181 H 210.493 4.40011 -2.89306 0
M  V30 2182 H 212.984 2.91784 -2.40147 0
M  V30 2183 H 213.297 5.55002 -5.37766 0
M  V30 2184 H 211.642 4.99612 -4.83128 0
M  V30 2185 H 214.833 3.56016 -3.03924 0
M  V30 2186 H 215.006 4.76061 -4.39624 0
M  V30 2187 N 208.412 0.89855 1.29475 0
M  V30 2188 C 209.322 0.379974 2.31502 0
M  V30 2189 C 210.338 -0.524695 1.659 0
M  V30 2190 O 211.514 -0.414551 1.97087 0
M  V30 2191 C 208.579 -0.385138 3.44554 0
M  V30 2192 C 207.64 0.550914 4.2575 0
M  V30 2193 C 206.873 -0.177778 5.33404 0
M  V30 2194 O 207.096 -1.40189 5.52904 0
M  V30 2195 O 206.03 0.479106 5.9999 0
M  V30 2196 H 209.856 1.22639 2.77837 0
M  V30 2197 H 207.441 0.662834 1.33891 0
M  V30 2198 H 209.323 -0.817841 4.13388 0
M  V30 2199 H 207.998 -1.20763 3.0033 0
M  V30 2200 H 206.905 1.03271 3.59564 0
M  V30 2201 H 208.238 1.33979 4.73614 0
M  V30 2202 N 209.89 -1.43072 0.660911 0
M  V30 2203 C 211.138 -2.01323 0.177094 0
M  V30 2204 C 211.459 -1.5245 -1.2159 0
M  V30 2205 O 210.729 -0.740322 -1.81373 0
M  V30 2206 H 209.309 -0.744382 0.0624804 0
M  V30 2207 H 211.971 -1.75179 0.854305 0
M  V30 2208 H 211.067 -3.11649 0.167641 0
M  V30 2209 N 211.368 -0.403325 -1.52352 0
M  V30 2210 C 212.784 -0.0539281 -1.59509 0
M  V30 2211 C 212.984 1.43307 -1.41652 0
M  V30 2212 O 212.04 2.19924 -1.24056 0
M  V30 2213 C 213.353 -0.543654 -2.95745 0
M  V30 2214 C 214.901 -0.501125 -3.08962 0
M  V30 2215 C 215.376 -0.967267 -4.47669 0
M  V30 2216 N 216.867 -0.923849 -4.53893 0
M  V30 2217 C 217.602 -1.25578 -5.5948 0
M  V30 2218 N 217.098 -1.65889 -6.72646 0
M  V30 2219 N 218.891 -1.17613 -5.49658 0
M  V30 2220 H 211.042 -1.37123 -1.62206 0
M  V30 2221 H 213.305 -0.56294 -0.76276 0
M  V30 2222 H 213.011 -1.58275 -3.14073 0
M  V30 2223 H 212.885 0.0498042 -3.77167 0
M  V30 2224 H 215.272 0.528909 -2.90321 0
M  V30 2225 H 215.353 -1.13056 -2.2946 0
M  V30 2226 H 214.997 -1.9956 -4.67053 0
M  V30 2227 H 214.927 -0.314698 -5.25659 0
M  V30 2228 H 217.418 -0.627403 -3.72655 0
M  V30 2229 H 217.731 -1.89543 -7.49195 0
M  V30 2230 H 216.076 -1.69787 -6.73942 0
M  V30 2231 H 219.267 -0.860115 -4.6013 0
M  V30 2232 H 219.44 -1.43812 -6.3184 0
M  V30 2233 N 212.846 1.57033 -0.133567 0
M  V30 2234 C 214.093 1.95686 0.520877 0
M  V30 2235 C 214.421 1.0177 1.6575 0
M  V30 2236 O 213.676 0.0443195 1.9565 0
M  V30 2237 C 213.975 3.40674 1.08057 0
M  V30 2238 C 213.641 4.50855 0.0637899 0
M  V30 2239 C 212.303 4.80716 -0.215757 0
M  V30 2240 C 214.655 5.17398 -0.62835 0
M  V30 2241 C 211.983 5.74433 -1.19348 0
M  V30 2242 C 214.335 6.12167 -1.5948 0
M  V30 2243 C 212.999 6.40414 -1.88218 0
M  V30 2244 H 212.269 0.716067 0.190602 0
M  V30 2245 H 214.916 1.9026 -0.217556 0
M  V30 2246 H 213.221 3.42865 1.89606 0
M  V30 2247 H 214.918 3.67902 1.59529 0
M  V30 2248 H 211.508 4.27605 0.291855 0
M  V30 2249 H 215.692 4.94472 -0.425562 0
M  V30 2250 H 210.948 5.94616 -1.42272 0
M  V30 2251 H 215.122 6.6281 -2.13671 0
M  V30 2252 H 212.749 7.12838 -2.64133 0
M  V30 2253 N 214.325 -0.140222 1.56975 0
M  V30 2254 C 215.273 -1.19207 1.99731 0
M  V30 2255 C 216.267 -1.44089 0.890777 0
M  V30 2256 O 217.473 -1.44301 1.07597 0
M  V30 2257 H 213.848 -0.40142 0.635898 0
M  V30 2258 H 215.819 -0.804813 2.87342 0
M  V30 2259 C 214.568 -2.51617 2.39967 0
M  V30 2260 H 213.891 -2.33303 3.24669 0
M  V30 2261 H 215.331 -3.23827 2.73701 0
M  V30 2262 C 213.79 -3.12654 1.25496 0
M  V30 2263 O 214.32 -3.97786 0.559371 0
M  V30 2264 N 212.526 -2.72206 1.01746 0
M  V30 2265 H 212.073 -2.03074 1.58489 0
M  V30 2266 H 212.031 -3.13377 0.253461 0
M  V30 2267 O 215.842 -1.58968 -0.284834 0
M  V30 2268 H 216.533 -1.69867 -0.930848 0
M  V30 END ATOM
M  V30 BEGIN BOND
M  V30 END BOND
M  V30 END CTAB
M  END
$$$$
