drugbank_target|P35237 Serpin B6 (DB00055)
 OpenBabel12092120063D

  0  0  0     0  0            999 V3000
M  V30 BEGIN CTAB
M  V30 COUNTS 5937 5993 0 0 0
M  V30 BEGIN ATOM
M  V30 1 H -0.908 1.98254 -0.117106 0
M  V30 2 N 0 1.576 0 0
M  V30 3 C 0.933 2.03868 1.02534 0
M  V30 4 C 1.911 0.928543 1.3348 0
M  V30 5 O 3.095 1.19667 1.45644 0
M  V30 6 C 0.222 2.43627 2.35294 0
M  V30 7 C -0.732 3.65373 2.2001 0
M  V30 8 S 0.101 5.13292 1.52614 0
M  V30 9 C 1.257 5.56322 2.86805 0
M  V30 10 H 1.49 2.90518 0.631377 0
M  V30 11 H -0.977 1.52953 0.210867 0
M  V30 12 H 0.981 2.67203 3.11629 0
M  V30 13 H -0.358 1.57376 2.7183 0
M  V30 14 H -1.165 3.90944 3.18086 0
M  V30 15 H -1.563 3.418 1.51819 0
M  V30 16 H 0.729 5.58782 3.83104 0
M  V30 17 H 1.672 6.56266 2.65933 0
M  V30 18 H 2.08 4.83886 2.90714 0
M  V30 19 N 1.4781 -0.272755 1.55222 0
M  V30 20 C 2.7551 -1.02562 1.66555 0
M  V30 21 C 3.1351 -2.04282 0.532189 0
M  V30 22 O 2.4831 -2.23662 -0.467717 0
M  V30 23 C 2.6931 -1.6822 3.05782 0
M  V30 24 C 4.0411 -2.19373 3.63539 0
M  V30 25 O 5.0651 -1.78206 3.08417 0
M  V30 26 O 3.9241 -2.94883 4.60115 0
M  V30 27 H 1.0181 -0.475755 0.676451 0
M  V30 28 H 3.5641 -0.268593 1.67561 0
M  V30 29 H 2.3361 -0.945112 3.79715 0
M  V30 30 H 1.9591 -2.50609 3.08676 0
M  V30 31 N 2.9562 -1.48159 -0.537278 0
M  V30 32 C 4.2022 -1.56035 -1.29541 0
M  V30 33 C 4.5352 -0.230377 -1.92829 0
M  V30 34 O 3.8102 0.762952 -1.78911 0
M  V30 35 C 4.0932 -2.69323 -2.39034 0
M  V30 36 C 3.9462 -4.12002 -1.80485 0
M  V30 37 C 5.2652 -2.78408 -3.40847 0
M  V30 38 H 2.3842 -0.567992 -0.469632 0
M  V30 39 H 5.0262 -1.80302 -0.599277 0
M  V30 40 H 3.1762 -2.48763 -2.98412 0
M  V30 41 H 4.8482 -4.43981 -1.25215 0
M  V30 42 H 3.0912 -4.19344 -1.11055 0
M  V30 43 H 3.7622 -4.87077 -2.59731 0
M  V30 44 H 6.2382 -2.97012 -2.91416 0
M  V30 45 H 5.1142 -3.59416 -4.14863 0
M  V30 46 H 5.3752 -1.86269 -4.00944 0
M  V30 47 N 4.4343 0.785586 -1.36625 0
M  V30 48 C 5.3643 1.91259 -1.33949 0
M  V30 49 C 6.3453 1.68795 -0.210325 0
M  V30 50 O 7.5303 1.89854 -0.408561 0
M  V30 51 C 4.6603 3.28339 -1.13186 0
M  V30 52 C 3.6143 3.65335 -2.22967 0
M  V30 53 C 2.9403 5.00806 -1.87342 0
M  V30 54 C 4.2403 3.7352 -3.65075 0
M  V30 55 H 5.9343 1.93755 -2.28253 0
M  V30 56 H 3.4803 0.930788 -1.09874 0
M  V30 57 H 5.4333 4.06804 -1.09948 0
M  V30 58 H 4.1573 3.2624 -0.153332 0
M  V30 59 H 2.8163 2.89169 -2.25337 0
M  V30 60 H 2.4643 4.95233 -0.880545 0
M  V30 61 H 2.1643 5.26529 -2.60846 0
M  V30 62 H 3.6883 5.81687 -1.85667 0
M  V30 63 H 5.1023 4.42168 -3.64911 0
M  V30 64 H 3.4993 4.10731 -4.37516 0
M  V30 65 H 4.5693 2.74527 -3.99703 0
M  V30 66 N 5.9124 1.20967 1.01018 0
M  V30 67 C 6.8754 0.965918 2.07853 0
M  V30 68 C 7.8754 -0.0610545 1.60684 0
M  V30 69 O 9.0654 0.175681 1.73312 0
M  V30 70 C 6.1974 0.455513 3.37843 0
M  V30 71 H 7.3904 1.91365 2.3091 0
M  V30 72 H 4.9434 1.02594 1.17916 0
M  V30 73 H 5.6784 -0.497381 3.20463 0
M  V30 74 H 5.4634 1.19622 3.73407 0
M  V30 75 H 6.9534 0.304667 4.16487 0
M  V30 76 N 7.3905 -1.2043 1.01659 0
M  V30 77 C 8.3005 -2.2689 0.596484 0
M  V30 78 C 9.3165 -1.70107 -0.36599 0
M  V30 79 O 10.4925 -2.00117 -0.226942 0
M  V30 80 C 7.5575 -3.4665 -0.0586659 0
M  V30 81 C 6.6185 -4.18662 0.949751 0
M  V30 82 C 5.8515 -5.32705 0.32577 0
M  V30 83 O 6.0745 -5.63656 -0.874509 0
M  V30 84 O 5.0085 -5.92803 1.04249 0
M  V30 85 H 8.8345 -2.65041 1.4828 0
M  V30 86 H 6.4195 -1.27048 0.786082 0
M  V30 87 H 8.3015 -4.19256 -0.424564 0
M  V30 88 H 6.9765 -3.10375 -0.91918 0
M  V30 89 H 5.8835 -3.48229 1.36702 0
M  V30 90 H 7.2165 -4.58878 1.78023 0
M  V30 91 N 8.8686 -0.792821 -1.36206 0
M  V30 92 C 9.8316 -0.199459 -2.2833 0
M  V30 93 C 10.8316 0.605189 -1.48977 0
M  V30 94 O 12.0216 0.425685 -1.68919 0
M  V30 95 C 9.1536 0.723523 -3.33134 0
M  V30 96 H 10.3466 -1.01181 -2.82316 0
M  V30 97 H 7.8996 -0.562485 -1.45828 0
M  V30 98 H 8.6346 1.56008 -2.84309 0
M  V30 99 H 8.4196 0.148436 -3.91819 0
M  V30 100 H 9.9096 1.13344 -4.01924 0
M  V30 101 N 10.3467 1.47872 -0.545128 0
M  V30 102 C 11.2947 2.31533 0.222512 0
M  V30 103 C 12.2887 1.42177 0.920985 0
M  V30 104 O 13.4947 1.59005 0.843645 0
M  V30 105 H 9.8697 0.746519 0.0906278 0
M  V30 106 H 11.8407 2.94139 -0.50246 0
M  V30 107 C 10.5897 3.2457 1.24699 0
M  V30 108 H 9.9127 3.93283 0.718944 0
M  V30 109 H 11.3527 3.85963 1.75523 0
M  V30 110 C 9.8117 2.47237 2.28856 0
M  V30 111 O 10.3417 2.20808 3.35569 0
M  V30 112 N 8.5477 2.08461 2.02466 0
M  V30 113 H 8.0947 2.30155 1.157 0
M  V30 114 H 8.0527 1.57033 2.72375 0
M  V30 115 N 11.8248 0.280983 1.55075 0
M  V30 116 C 13.0728 -0.333455 1.9933 0
M  V30 117 C 13.3938 -1.55937 1.17085 0
M  V30 118 O 12.6638 -1.94143 0.261805 0
M  V30 119 H 11.2438 -0.126197 0.736263 0
M  V30 120 H 13.9058 0.387678 1.91005 0
M  V30 121 H 13.0018 -0.619292 3.05894 0
M  V30 122 N 13.3029 -1.57598 0.00835791 0
M  V30 123 C 14.5309 -1.95214 -0.68549 0
M  V30 124 C 14.9459 -0.883706 -1.66841 0
M  V30 125 O 14.3029 0.136565 -1.81988 0
M  V30 126 C 14.3539 -3.32865 -1.41007 0
M  V30 127 O 14.0749 -4.35609 -0.466552 0
M  V30 128 C 15.5759 -3.84991 -2.19765 0
M  V30 129 H 12.7959 -0.643422 -0.190392 0
M  V30 130 H 15.3399 -2.04406 0.0619607 0
M  V30 131 H 13.4949 -3.24956 -2.10908 0
M  V30 132 H 13.9089 -5.15288 -0.978699 0
M  V30 133 H 15.3829 -4.8371 -2.65948 0
M  V30 134 H 15.8599 -3.18137 -3.02796 0
M  V30 135 H 16.4659 -3.96103 -1.54864 0
M  V30 136 N 14.781 0.264519 -1.55364 0
M  V30 137 C 16.028 0.994986 -1.7637 0
M  V30 138 C 16.356 1.85976 -0.5695 0
M  V30 139 O 15.611 1.90509 0.44776 0
M  V30 140 C 15.91 1.9004 -3.02687 0
M  V30 141 C 15.576 1.19243 -4.34847 0
M  V30 142 C 14.238 0.996709 -4.70764 0
M  V30 143 C 16.59 0.689296 -5.16622 0
M  V30 144 C 13.918 0.285261 -5.86006 0
M  V30 145 C 16.27 -0.00860079 -6.32599 0
M  V30 146 C 14.934 -0.215963 -6.67151 0
M  V30 147 H 14.204 0.364091 -0.645383 0
M  V30 148 H 16.851 0.266543 -1.89636 0
M  V30 149 H 15.156 2.69533 -2.84357 0
M  V30 150 H 16.853 2.46695 -3.16137 0
M  V30 151 H 13.443 1.3549 -4.06621 0
M  V30 152 H 17.627 0.828108 -4.89342 0
M  V30 153 H 12.883 0.113961 -6.11294 0
M  V30 154 H 17.057 -0.406186 -6.95214 0
M  V30 155 H 14.684 -0.769217 -7.56298 0
M  V30 156 N 16.2591 1.48442 0.529413 0
M  V30 157 C 17.2221 1.62524 1.61612 0
M  V30 158 C 18.2221 0.498509 1.52877 0
M  V30 159 O 19.4121 0.76431 1.56537 0
M  V30 160 C 16.5441 1.59597 3.01233 0
M  V30 161 H 17.7371 2.59423 1.50465 0
M  V30 162 H 15.2901 1.37047 0.751514 0
M  V30 163 H 16.0251 0.641781 3.17886 0
M  V30 164 H 15.8101 2.41397 3.08982 0
M  V30 165 H 17.3001 1.72646 3.80241 0
M  V30 166 N 17.7372 -0.778329 1.37039 0
M  V30 167 C 18.6672 -1.90546 1.34962 0
M  V30 168 C 19.6482 -1.68681 0.219274 0
M  V30 169 O 20.8332 -1.89634 0.418624 0
M  V30 170 C 17.9632 -3.27734 1.14925 0
M  V30 171 C 16.9172 -3.64147 2.24902 0
M  V30 172 C 16.2432 -4.99806 1.89996 0
M  V30 173 C 17.5432 -3.71579 3.67051 0
M  V30 174 H 19.2372 -1.92541 2.29277 0
M  V30 175 H 16.7832 -0.924948 1.10366 0
M  V30 176 H 18.7362 -4.06215 1.12104 0
M  V30 177 H 17.4602 -3.26154 0.170631 0
M  V30 178 H 16.1192 -2.8797 2.26868 0
M  V30 179 H 15.7672 -4.94759 0.906796 0
M  V30 180 H 15.4672 -5.25139 2.63634 0
M  V30 181 H 16.9912 -5.80694 1.88749 0
M  V30 182 H 18.4052 -4.40227 3.67251 0
M  V30 183 H 16.8022 -4.08405 4.39688 0
M  V30 184 H 17.8722 -2.72404 4.01154 0
M  V30 185 N 19.2153 -1.21501 -1.00376 0
M  V30 186 C 20.1633 -0.972442 -2.11297 0
M  V30 187 C 21.1573 0.080731 -1.69208 0
M  V30 188 O 22.3633 -0.0707666 -1.79861 0
M  V30 189 H 18.7383 -0.297218 -0.690772 0
M  V30 190 H 20.7093 -1.91394 -2.28934 0
M  V30 191 C 19.4583 -0.555065 -3.43241 0
M  V30 192 H 18.7813 -1.35709 -3.76062 0
M  V30 193 H 20.2213 -0.424664 -4.21868 0
M  V30 194 C 18.6803 0.734147 -3.28804 0
M  V30 195 O 19.2103 1.78937 -3.59645 0
M  V30 196 N 17.4163 0.701133 -2.82015 0
M  V30 197 H 16.9633 -0.157874 -2.57116 0
M  V30 198 H 16.9213 1.56403 -2.72737 0
M  V30 199 N 20.6934 1.19889 -1.02296 0
M  V30 200 C 21.6234 2.25141 -0.619174 0
M  V30 201 C 22.6044 1.66051 0.368915 0
M  V30 202 O 23.7894 1.92546 0.252941 0
M  V30 203 C 20.9194 3.4728 0.0368783 0
M  V30 204 C 19.8734 4.19005 -0.872865 0
M  V30 205 C 19.1994 5.34637 -0.0822402 0
M  V30 206 C 20.4994 4.74452 -2.18387 0
M  V30 207 H 22.1934 2.59171 -1.49903 0
M  V30 208 H 19.7394 1.24579 -0.722222 0
M  V30 209 H 21.6924 4.20098 0.330958 0
M  V30 210 H 20.4164 3.12433 0.95149 0
M  V30 211 H 19.0754 3.48061 -1.15105 0
M  V30 212 H 18.7234 4.96034 0.83422 0
M  V30 213 H 18.4234 5.83557 -0.688149 0
M  V30 214 H 19.9474 6.10255 0.205238 0
M  V30 215 H 21.3614 5.39055 -1.95172 0
M  V30 216 H 19.7584 5.33834 -2.74119 0
M  V30 217 H 20.8284 3.92844 -2.84257 0
M  V30 218 N 22.1715 0.800033 1.35784 0
M  V30 219 C 23.1015 0.220184 2.3246 0
M  V30 220 C 24.0825 -0.65073 1.57161 0
M  V30 221 O 25.2675 -0.582359 1.85263 0
M  V30 222 C 22.3975 -0.637353 3.41402 0
M  V30 223 C 21.3515 0.134531 4.27789 0
M  V30 224 C 20.6775 -0.844285 5.27992 0
M  V30 225 C 21.9775 1.32979 5.05088 0
M  V30 226 H 23.6715 1.02787 2.81203 0
M  V30 227 H 21.2175 0.495717 1.35199 0
M  V30 228 H 23.1705 -1.05302 4.08031 0
M  V30 229 H 21.8945 -1.47785 2.91251 0
M  V30 230 H 20.5535 0.531296 3.6273 0
M  V30 231 H 20.2015 -1.68011 4.74111 0
M  V30 232 H 19.9015 -0.332184 5.8666 0
M  V30 233 H 21.4255 -1.2583 5.97494 0
M  V30 234 H 22.8395 0.98934 5.64699 0
M  V30 235 H 21.2365 1.77593 5.7322 0
M  V30 236 H 22.3065 2.11978 4.36111 0
M  V30 237 N 23.6496 -1.47581 0.552962 0
M  V30 238 C 24.5966 -2.29957 -0.197108 0
M  V30 239 C 25.5666 -1.38799 -0.912359 0
M  V30 240 O 26.7516 -1.67761 -0.908888 0
M  V30 241 C 23.8916 -3.22672 -1.22379 0
M  V30 242 C 23.0046 -4.28919 -0.515038 0
M  V30 243 C 22.1396 -5.0879 -1.52664 0
M  V30 244 C 21.1786 -6.06815 -0.802631 0
M  V30 245 N 20.3156 -6.7966 -1.76086 0
M  V30 246 H 25.1556 -2.93578 0.511486 0
M  V30 247 H 22.6926 -1.4471 0.264067 0
M  V30 248 H 24.6506 -3.74845 -1.83159 0
M  V30 249 H 23.2806 -2.60925 -1.90047 0
M  V30 250 H 22.3326 -3.79835 0.207192 0
M  V30 251 H 23.6446 -4.98773 0.0523425 0
M  V30 252 H 22.7986 -5.65091 -2.20809 0
M  V30 253 H 21.5376 -4.38828 -2.12794 0
M  V30 254 H 20.5426 -5.49695 -0.107238 0
M  V30 255 H 21.7676 -6.78784 -0.207135 0
M  V30 256 H 19.7136 -6.12432 -2.35081 0
M  V30 257 H 19.6306 -7.45669 -1.24552 0
M  V30 258 H 20.8986 -7.40538 -2.43359 0
M  V30 259 N 25.1277 -0.289203 -1.54924 0
M  V30 260 C 26.3557 0.326463 -2.04308 0
M  V30 261 C 26.7707 1.48413 -1.16701 0
M  V30 262 O 26.1277 1.81507 -0.190087 0
M  V30 263 C 26.1787 0.794014 -3.52672 0
M  V30 264 O 25.8997 -0.317564 -4.36948 0
M  V30 265 C 27.4007 1.47605 -4.18004 0
M  V30 266 H 24.6207 0.0726272 -0.667058 0
M  V30 267 H 27.1647 -0.425401 -2.00026 0
M  V30 268 H 25.3197 1.49593 -3.57352 0
M  V30 269 H 25.7337 0.0443186 -5.24481 0
M  V30 270 H 27.2077 1.75447 -5.23376 0
M  V30 271 H 27.6847 2.41224 -3.67025 0
M  V30 272 H 28.2907 0.81762 -4.17367 0
M  V30 273 N 26.6058 1.57591 -0.0167156 0
M  V30 274 C 27.5358 2.12496 0.967858 0
M  V30 275 C 28.5168 1.03807 1.34752 0
M  V30 276 O 29.7018 1.31577 1.42833 0
M  V30 277 C 26.8318 2.64194 2.25431 0
M  V30 278 C 25.7858 3.77559 2.01576 0
M  V30 279 C 25.1118 4.15636 3.36379 0
M  V30 280 C 26.4118 5.04151 1.36489 0
M  V30 281 H 28.1058 2.95013 0.510643 0
M  V30 282 H 25.6518 1.41915 0.244181 0
M  V30 283 H 27.6048 3.01236 2.94678 0
M  V30 284 H 26.3288 1.78821 2.73296 0
M  V30 285 H 24.9878 3.40937 1.34751 0
M  V30 286 H 24.6358 3.27263 3.81979 0
M  V30 287 H 24.3358 4.92022 3.21229 0
M  V30 288 H 25.8598 4.5525 4.06915 0
M  V30 289 H 27.2738 5.38857 1.95718 0
M  V30 290 H 25.6708 5.85453 1.31776 0
M  V30 291 H 26.7408 4.83733 0.336219 0
M  V30 292 N 28.0839 -0.256276 1.55502 0
M  V30 293 C 29.3319 -0.983672 1.76545 0
M  V30 294 C 29.6529 -1.86206 0.578982 0
M  V30 295 O 28.9229 -1.91656 -0.405577 0
M  V30 296 H 27.5029 -0.366191 0.651086 0
M  V30 297 H 30.1649 -0.276479 1.92929 0
M  V30 298 H 29.2609 -1.61087 2.67315 0
M  V30 299 N 29.562 -1.4872 -0.521534 0
M  V30 300 C 30.509 -1.63871 -1.62527 0
M  V30 301 C 31.479 -0.480559 -1.58996 0
M  V30 302 O 32.664 -0.705085 -1.77294 0
M  V30 303 C 29.804 -1.69227 -3.00759 0
M  V30 304 C 28.917 -2.96207 -3.14461 0
M  V30 305 C 28.052 -2.92671 -4.43303 0
M  V30 306 C 27.091 -4.14318 -4.50563 0
M  V30 307 N 26.228 -4.0881 -5.70805 0
M  V30 308 H 31.068 -2.58123 -1.48918 0
M  V30 309 H 28.605 -1.28 -0.724878 0
M  V30 310 H 30.563 -1.70314 -3.80853 0
M  V30 311 H 29.193 -0.784586 -3.1312 0
M  V30 312 H 28.245 -3.04826 -2.27564 0
M  V30 313 H 29.557 -3.86192 -3.15686 0
M  V30 314 H 28.711 -2.92206 -5.31696 0
M  V30 315 H 27.45 -2.00429 -4.44612 0
M  V30 316 H 26.455 -4.15049 -3.60575 0
M  V30 317 H 27.68 -5.07729 -4.50986 0
M  V30 318 H 25.626 -3.19394 -5.72995 0
M  V30 319 H 25.543 -4.92509 -5.7356 0
M  V30 320 H 26.811 -4.12418 -6.61462 0
M  V30 321 N 31.0401 0.771051 -1.3745 0
M  V30 322 C 32.3171 1.519 -1.23231 0
M  V30 323 C 32.6971 2.10383 0.173809 0
M  V30 324 O 32.0451 1.95583 1.18151 0
M  V30 325 C 32.2551 2.59933 -2.32886 0
M  V30 326 C 33.6031 3.27316 -2.70461 0
M  V30 327 O 34.6271 2.70228 -2.32068 0
M  V30 328 O 33.4861 4.30531 -3.36608 0
M  V30 329 H 30.5801 0.672803 -0.480901 0
M  V30 330 H 33.1261 0.807957 -1.49232 0
M  V30 331 H 31.8981 2.14842 -3.27045 0
M  V30 332 H 31.5211 3.38637 -2.08353 0
M  V30 333 N 32.5182 1.22032 0.997298 0
M  V30 334 C 33.4662 0.983634 2.10778 0
M  V30 335 C 34.4602 -0.0717564 1.69248 0
M  V30 336 O 35.6662 0.080304 1.79821 0
M  V30 337 H 32.0412 0.300877 0.689186 0
M  V30 338 H 34.0122 1.92606 2.27916 0
M  V30 339 C 32.7612 0.57326 3.42942 0
M  V30 340 H 32.0842 1.37702 3.75338 0
M  V30 341 H 33.5242 0.447031 4.21637 0
M  V30 342 C 31.9832 -0.7167 3.29188 0
M  V30 343 O 32.5132 -1.77027 3.60589 0
M  V30 344 N 30.7192 -0.686167 2.82383 0
M  V30 345 H 30.2662 0.171507 2.57028 0
M  V30 346 H 30.2242 -1.54955 2.73562 0
M  V30 347 N 33.9963 -1.19345 1.0293 0
M  V30 348 C 35.2213 -1.93538 0.745511 0
M  V30 349 C 35.6463 -1.75007 -0.689511 0
M  V30 350 O 35.0043 -1.05265 -1.47611 0
M  V30 351 C 35.0523 -3.43336 1.10239 0
M  V30 352 O 34.1563 -4.11806 0.221289 0
M  V30 353 H 33.4973 -0.604193 0.275404 0
M  V30 354 H 36.0273 -1.5141 1.37609 0
M  V30 355 H 36.0373 -3.94004 1.05947 0
M  V30 356 H 34.7123 -3.56146 2.14786 0
M  V30 357 H 33.2893 -3.715 0.322842 0
M  V30 358 N 35.4744 -0.807222 -1.35358 0
M  V30 359 C 36.4214 -0.216037 -2.29787 0
M  V30 360 C 37.3914 0.650278 -1.52842 0
M  V30 361 O 38.5764 0.595227 -1.81278 0
M  V30 362 C 35.7164 0.628893 -3.39321 0
M  V30 363 C 34.8294 -0.257927 -4.31229 0
M  V30 364 C 33.9644 0.595069 -5.27856 0
M  V30 365 C 33.0034 -0.292111 -6.11403 0
M  V30 366 N 32.1404 0.520895 -7.00165 0
M  V30 367 H 36.9804 -1.02671 -2.79755 0
M  V30 368 H 34.5174 -0.517839 -1.37684 0
M  V30 369 H 36.4754 1.13393 -4.01494 0
M  V30 370 H 35.1054 1.40482 -2.90628 0
M  V30 371 H 34.1574 -0.881076 -3.70056 0
M  V30 372 H 35.4694 -0.940759 -4.89848 0
M  V30 373 H 34.6234 1.16522 -5.95405 0
M  V30 374 H 33.3624 1.31146 -4.69736 0
M  V30 375 H 32.3674 -0.874525 -5.428 0
M  V30 376 H 33.5924 -1.00638 -6.71602 0
M  V30 377 H 31.5384 1.22125 -6.44532 0
M  V30 378 H 31.4554 -0.103877 -7.55929 0
M  V30 379 H 32.7234 1.0743 -7.72062 0
M  V30 380 N 36.9525 1.47285 -0.560781 0
M  V30 381 C 37.9005 2.31756 0.197942 0
M  V30 382 C 38.8945 1.43146 0.905854 0
M  V30 383 O 40.1005 1.59891 0.826733 0
M  V30 384 H 36.4755 0.747438 0.0827049 0
M  V30 385 H 38.4465 2.9359 -0.533629 0
M  V30 386 C 37.1955 3.25874 1.21249 0
M  V30 387 H 36.5185 3.94023 0.67719 0
M  V30 388 H 37.9585 3.87803 1.71419 0
M  V30 389 C 36.4175 2.49651 2.26221 0
M  V30 390 O 36.9475 2.24355 3.33208 0
M  V30 391 N 35.1535 2.10597 2.00243 0
M  V30 392 H 34.7005 2.31369 1.13252 0
M  V30 393 H 34.6585 1.59913 2.70694 0
M  V30 394 N 38.4306 0.297415 1.54768 0
M  V30 395 C 39.6766 -0.313376 2.00364 0
M  V30 396 C 40.0096 -1.53815 1.18553 0
M  V30 397 O 39.2846 -1.92739 0.261103 0
M  V30 398 C 39.5676 -0.673525 3.53745 0
M  V30 399 C 39.4206 0.560133 4.46299 0
M  V30 400 C 40.7396 -1.50143 4.13697 0
M  V30 401 H 37.8586 -0.112428 0.728374 0
M  V30 402 H 40.5006 0.4088 1.8555 0
M  V30 403 H 38.6506 -1.28881 3.665 0
M  V30 404 H 40.3226 1.19863 4.45455 0
M  V30 405 H 38.5656 1.19405 4.17043 0
M  V30 406 H 39.2366 0.26405 5.51368 0
M  V30 407 H 41.7126 -0.981588 4.04356 0
M  V30 408 H 40.5886 -1.72221 5.21182 0
M  V30 409 H 40.8496 -2.48952 3.65343 0
M  V30 410 N 39.9087 -1.5758 0.0250728 0
M  V30 411 C 41.1557 -1.91633 -0.654444 0
M  V30 412 C 41.4837 -0.901103 -1.72367 0
M  V30 413 O 40.7387 0.0905647 -1.9549 0
M  V30 414 C 41.0377 -3.32421 -1.31268 0
M  V30 415 C 40.7037 -4.49344 -0.374223 0
M  V30 416 C 39.3657 -4.8106 -0.115911 0
M  V30 417 C 41.7177 -5.20498 0.270432 0
M  V30 418 C 39.0457 -5.8129 0.79493 0
M  V30 419 C 41.3977 -6.21699 1.1693 0
M  V30 420 C 40.0617 -6.51859 1.43655 0
M  V30 421 H 39.3317 -0.701236 -0.239478 0
M  V30 422 H 41.9787 -1.91307 0.0859734 0
M  V30 423 H 40.2837 -3.28989 -2.12775 0
M  V30 424 H 41.9807 -3.56038 -1.84494 0
M  V30 425 H 38.5707 -4.24579 -0.58573 0
M  V30 426 H 42.7547 -4.96229 0.0839194 0
M  V30 427 H 38.0107 -6.03005 1.00973 0
M  V30 428 H 42.1847 -6.75955 1.67504 0
M  V30 429 H 39.8117 -7.2934 2.144 0
M  V30 430 N 41.3868 0.248026 -1.55636 0
M  V30 431 C 42.6338 0.976224 -1.77415 0
M  V30 432 C 42.9618 1.85361 -0.589193 0
M  V30 433 O 42.2168 1.90973 0.427529 0
M  V30 434 C 42.5158 1.86819 -3.04686 0
M  V30 435 C 42.1818 1.14625 -4.36087 0
M  V30 436 C 40.8438 0.946723 -4.71795 0
M  V30 437 C 43.1958 0.634463 -5.17324 0
M  V30 438 C 40.5238 0.223091 -5.86276 0
M  V30 439 C 42.8758 -0.0756959 -6.32555 0
M  V30 440 C 41.5398 -0.286711 -6.66884 0
M  V30 441 H 40.8098 0.357226 -0.649208 0
M  V30 442 H 43.4568 0.246415 -1.89908 0
M  V30 443 H 41.7618 2.66502 -2.872 0
M  V30 444 H 43.4588 2.43329 -3.18735 0
M  V30 445 H 40.0488 1.3117 -4.08035 0
M  V30 446 H 44.2328 0.77616 -4.90193 0
M  V30 447 H 39.4888 0.0491185 -6.1138 0
M  V30 448 H 43.6628 -0.479899 -6.94745 0
M  V30 449 H 41.2898 -0.849389 -7.5544 0
M  V30 450 N 42.8649 1.48995 0.513639 0
M  V30 451 C 44.0899 1.61792 1.29762 0
M  V30 452 C 44.5149 0.284475 1.85936 0
M  V30 453 O 43.8729 -0.746185 1.65232 0
M  V30 454 C 43.9209 2.67993 2.41272 0
M  V30 455 O 43.0249 2.26287 3.44772 0
M  V30 456 H 42.3659 0.541963 0.38363 0
M  V30 457 H 44.8959 1.95097 0.616307 0
M  V30 458 H 44.9059 2.89772 2.87221 0
M  V30 459 H 43.5809 3.64791 1.9975 0
M  V30 460 H 42.1579 2.14788 3.04829 0
M  V30 461 N 44.343 -0.763751 1.37857 0
M  V30 462 C 45.754 -1.3405 1.29952 0
M  V30 463 C 46.105 -1.96138 -0.0492898 0
M  V30 464 O 45.23 -1.94372 -0.951239 0
M  V30 465 C 45.825 -2.43729 2.35333 0
M  V30 466 C 44.384 -2.97151 2.31037 0
M  V30 467 C 43.531 -1.70438 2.18738 0
M  V30 468 H 46.482 -0.563396 1.48363 0
M  V30 469 H 46.503 -3.23412 2.00462 0
M  V30 470 H 46.015 -1.9851 3.33489 0
M  V30 471 H 44.116 -3.46724 1.3643 0
M  V30 472 H 44.229 -3.52221 3.24772 0
M  V30 473 H 42.593 -1.93673 1.65418 0
M  V30 474 H 43.376 -1.27312 3.18821 0
M  V30 475 N 45.8211 -1.22559 -0.990812 0
M  V30 476 C 46.7541 -0.940773 -2.07905 0
M  V30 477 C 47.7321 0.117082 -1.62178 0
M  V30 478 O 48.9161 -0.0149506 -1.88494 0
M  V30 479 C 46.0431 -0.415321 -3.36144 0
M  V30 480 C 45.0891 -1.45818 -4.00799 0
M  V30 481 S 45.9221 -3.03219 -4.41382 0
M  V30 482 C 47.0781 -2.52317 -5.72789 0
M  V30 483 H 47.3111 -1.8623 -2.31745 0
M  V30 484 H 44.8441 -1.05688 -1.12558 0
M  V30 485 H 46.8021 -0.118747 -4.10328 0
M  V30 486 H 45.4631 0.485121 -3.10331 0
M  V30 487 H 44.6561 -1.04044 -4.93144 0
M  V30 488 H 44.2581 -1.70356 -3.32949 0
M  V30 489 H 46.5501 -1.93688 -6.49224 0
M  V30 490 H 47.4931 -3.43161 -6.19392 0
M  V30 491 H 47.9011 -1.93529 -5.30289 0
M  V30 492 N 47.2992 1.18797 -1.03562 0
M  V30 493 C 48.5242 1.9314 -0.755764 0
M  V30 494 C 48.9492 1.7537 0.68022 0
M  V30 495 O 48.3072 1.06046 1.47051 0
M  V30 496 C 48.3552 3.42747 -1.12058 0
M  V30 497 O 47.4592 4.11683 -0.243124 0
M  V30 498 H 46.8002 0.602724 -0.278604 0
M  V30 499 H 49.3302 1.50678 -1.3841 0
M  V30 500 H 49.3402 3.93437 -1.08035 0
M  V30 501 H 48.0152 3.55002 -2.16672 0
M  V30 502 H 46.5922 3.71323 -0.342539 0
M  V30 503 N 48.7773 0.814389 1.34928 0
M  V30 504 C 49.7103 0.175641 2.27523 0
M  V30 505 C 50.6883 -0.662953 1.48471 0
M  V30 506 O 51.8723 -0.628545 1.77712 0
M  V30 507 C 48.9993 -0.755516 3.30166 0
M  V30 508 C 48.0453 0.00445305 4.265 0
M  V30 509 S 48.8783 1.34582 5.18313 0
M  V30 510 C 50.0343 0.419315 6.24494 0
M  V30 511 H 50.2673 0.960691 2.8135 0
M  V30 512 H 47.8003 0.609846 1.41846 0
M  V30 513 H 49.7583 -1.28723 3.89796 0
M  V30 514 H 48.4193 -1.51402 2.75202 0
M  V30 515 H 47.6123 -0.703077 4.99072 0
M  V30 516 H 47.2143 0.466447 3.7108 0
M  V30 517 H 49.5063 -0.392432 6.76362 0
M  V30 518 H 50.4493 1.11446 6.99275 0
M  V30 519 H 50.8573 0.0115389 5.64499 0
M  V30 520 N 50.2554 -1.46986 0.568584 0
M  V30 521 C 51.4804 -2.07335 0.0520528 0
M  V30 522 C 51.9054 -1.41675 -1.23733 0
M  V30 523 O 51.2634 -0.495623 -1.74394 0
M  V30 524 C 51.3114 -3.60417 -0.11501 0
M  V30 525 O 50.4154 -3.95309 -1.17492 0
M  V30 526 H 49.7564 -0.661597 0.0564385 0
M  V30 527 H 52.2864 -1.88837 0.787507 0
M  V30 528 H 52.2964 -4.06698 -0.325644 0
M  V30 529 H 50.9714 -4.07601 0.826675 0
M  V30 530 H 49.5484 -3.60757 -0.943869 0
M  V30 531 N 51.7335 -0.305618 -1.54608 0
M  V30 532 C 52.9735 0.303114 -2.0214 0
M  V30 533 C 53.3375 1.50737 -1.18921 0
M  V30 534 O 54.5385 2.18778 -1.56172 0
M  V30 535 C 52.8095 0.646332 -3.51507 0
M  V30 536 S 54.3685 1.23727 -4.20995 0
M  V30 537 H 51.1865 0.0927643 -0.704923 0
M  V30 538 H 53.7885 -0.434566 -1.90609 0
M  V30 539 H 52.4925 -0.238541 -4.09706 0
M  V30 540 H 52.0235 1.41468 -3.67084 0
M  V30 541 H 54.0385 2.52489 -4.27158 0
M  V30 542 N 53.2116 1.57565 -0.0334293 0
M  V30 543 C 54.1746 2.09393 0.932048 0
M  V30 544 C 55.1746 1.00986 1.25134 0
M  V30 545 O 56.3646 1.27129 1.19096 0
M  V30 546 C 53.4966 2.56338 2.2473 0
M  V30 547 H 54.6896 2.95984 0.483085 0
M  V30 548 H 52.2426 1.54819 0.21468 0
M  V30 549 H 52.9776 1.7309 2.74245 0
M  V30 550 H 52.7626 3.35542 2.02865 0
M  V30 551 H 54.2526 2.96646 2.93923 0
M  V30 552 N 54.6897 -0.239769 1.55765 0
M  V30 553 C 55.6197 -1.30052 1.9393 0
M  V30 554 C 56.6007 -1.49839 0.805132 0
M  V30 555 O 57.7857 -1.62328 1.06599 0
M  V30 556 C 54.9157 -2.65391 2.2402 0
M  V30 557 C 53.8697 -2.60289 3.39755 0
M  V30 558 C 53.1957 -3.99489 3.55405 0
M  V30 559 C 54.4957 -2.16654 4.75246 0
M  V30 560 H 56.1897 -0.983573 2.82783 0
M  V30 561 H 53.7357 -0.471701 1.36055 0
M  V30 562 H 55.6887 -3.3974 2.49308 0
M  V30 563 H 54.4127 -2.98736 1.32 0
M  V30 564 H 53.0717 -1.88398 3.14487 0
M  V30 565 H 52.7197 -4.30112 2.60793 0
M  V30 566 H 52.4197 -3.96962 4.33238 0
M  V30 567 H 53.9437 -4.75528 3.83022 0
M  V30 568 H 55.3577 -2.80737 4.99859 0
M  V30 569 H 53.7547 -2.25223 5.56232 0
M  V30 570 H 54.8247 -1.11835 4.71827 0
M  V30 571 N 56.1678 -1.49265 -0.50573 0
M  V30 572 C 57.1308 -1.65075 -1.59006 0
M  V30 573 C 58.1308 -0.522768 -1.52065 0
M  V30 574 O 59.3208 -0.789117 -1.55302 0
M  V30 575 C 56.4528 -1.64369 -2.98656 0
M  V30 576 H 57.6458 -2.61784 -1.46319 0
M  V30 577 H 55.1988 -1.38226 -0.729616 0
M  V30 578 H 55.9338 -0.692272 -3.16825 0
M  V30 579 H 55.7188 -2.46282 -3.05103 0
M  V30 580 H 57.2088 -1.78674 -3.77446 0
M  V30 581 N 57.6459 0.756429 -1.3826 0
M  V30 582 C 58.5789 1.87802 -1.29637 0
M  V30 583 C 59.5569 1.61667 -0.173939 0
M  V30 584 O 60.7409 1.85208 -0.350775 0
M  V30 585 C 57.8679 3.23354 -1.00797 0
M  V30 586 C 56.9139 3.68379 -2.14939 0
M  V30 587 S 57.7469 3.8025 -3.77054 0
M  V30 588 C 58.9029 5.18626 -3.50396 0
M  V30 589 H 59.1359 1.94829 -2.24564 0
M  V30 590 H 56.6689 0.919117 -1.24063 0
M  V30 591 H 58.6269 4.01637 -0.848413 0
M  V30 592 H 57.2879 3.14008 -0.0759369 0
M  V30 593 H 56.4809 4.66693 -1.90299 0
M  V30 594 H 56.0829 2.97242 -2.26988 0
M  V30 595 H 58.3749 6.04289 -3.06334 0
M  V30 596 H 59.3179 5.48286 -4.48094 0
M  V30 597 H 59.7259 4.87289 -2.84973 0
M  V30 598 N 59.124 1.23083 0.984299 0
M  V30 599 C 60.37 1.06214 1.72761 0
M  V30 600 C 60.703 -0.400584 1.90024 0
M  V30 601 O 59.978 -1.29672 1.44967 0
M  V30 602 C 60.261 1.78375 3.12817 0
M  V30 603 C 60.114 3.32296 3.03149 0
M  V30 604 C 61.433 1.54309 4.12161 0
M  V30 605 H 58.552 0.387251 0.627061 0
M  V30 606 H 61.194 1.51536 1.14616 0
M  V30 607 H 59.344 1.39848 3.62457 0
M  V30 608 H 61.016 3.8032 2.61064 0
M  V30 609 H 59.259 3.6153 2.39747 0
M  V30 610 H 59.93 3.77972 4.02295 0
M  V30 611 H 62.406 1.87791 3.71314 0
M  V30 612 H 61.282 2.07281 5.08258 0
M  V30 613 H 61.543 0.477572 4.39513 0
M  V30 614 N 60.6021 -1.18246 1.0419 0
M  V30 615 C 61.8321 -1.91916 0.764961 0
M  V30 616 C 62.2401 -1.76485 -0.681898 0
M  V30 617 O 61.5831 -1.09275 -1.47664 0
M  V30 618 C 61.6451 -3.4373 1.05309 0
M  V30 619 C 61.3091 -3.8294 2.4941 0
M  V30 620 C 62.3061 -3.86621 3.47592 0
M  V30 621 C 59.9911 -4.142 2.84155 0
M  V30 622 C 61.9851 -4.21013 4.78568 0
M  V30 623 C 59.6721 -4.48262 4.15337 0
M  V30 624 C 60.6701 -4.51645 5.12353 0
M  V30 625 O 60.3581 -4.84911 6.41183 0
M  V30 626 H 60.0901 -0.61606 0.278292 0
M  V30 627 H 62.6441 -1.50947 1.39299 0
M  V30 628 H 60.8741 -3.84946 0.367933 0
M  V30 629 H 62.5631 -3.9865 0.763752 0
M  V30 630 H 63.3291 -3.62607 3.22089 0
M  V30 631 H 59.2081 -4.10743 2.09311 0
M  V30 632 H 62.7521 -4.23568 5.54289 0
M  V30 633 H 58.6491 -4.71737 4.40607 0
M  V30 634 H 59.4171 -5.02809 6.45852 0
M  V30 635 N 62.0802 -0.821533 -1.34494 0
M  V30 636 C 63.0132 -0.187704 -2.27427 0
M  V30 637 C 63.9912 0.65507 -1.48821 0
M  V30 638 O 65.1752 0.619111 -1.78043 0
M  V30 639 C 62.3022 0.737996 -3.30562 0
M  V30 640 C 61.3482 -0.0270713 -4.26491 0
M  V30 641 S 62.1812 -1.37329 -5.17592 0
M  V30 642 C 63.3372 -0.452427 -6.24263 0
M  V30 643 H 63.5702 -0.975598 -2.80837 0
M  V30 644 H 61.1032 -0.61736 -1.4152 0
M  V30 645 H 63.0612 1.26654 -3.90473 0
M  V30 646 H 61.7222 1.4994 -2.76001 0
M  V30 647 H 60.9152 0.6766 -4.99438 0
M  V30 648 H 60.5172 -0.48612 -3.70827 0
M  V30 649 H 62.8092 0.356557 -6.76561 0
M  V30 650 H 63.7522 -1.15153 -6.98674 0
M  V30 651 H 64.1602 -0.0414755 -5.64485 0
M  V30 652 N 63.5583 1.46682 -0.576371 0
M  V30 653 C 64.8063 2.02013 -0.0594163 0
M  V30 654 C 65.1273 1.45101 1.30271 0
M  V30 655 O 64.3973 0.633317 1.8538 0
M  V30 656 H 62.9773 0.746759 -0.0189745 0
M  V30 657 H 65.6393 1.79862 -0.750717 0
M  V30 658 H 64.7353 3.12097 0.014345 0
M  V30 659 N 65.0364 0.313813 1.54444 0
M  V30 660 C 65.9994 -0.54379 2.22656 0
M  V30 661 C 66.9994 -1.05124 1.21678 0
M  V30 662 O 68.1894 -0.945225 1.46325 0
M  V30 663 C 65.3214 -1.75427 2.92298 0
M  V30 664 H 66.5144 0.0523599 2.99854 0
M  V30 665 H 64.0674 0.0647834 1.56166 0
M  V30 666 H 64.8024 -2.38991 2.19211 0
M  V30 667 H 64.5874 -1.39791 3.66334 0
M  V30 668 H 66.0774 -2.36325 3.44297 0
M  V30 669 N 66.5145 -1.57545 0.0417849 0
M  V30 670 C 67.4615 -2.10977 -0.935805 0
M  V30 671 C 68.4315 -1.01486 -1.31491 0
M  V30 672 O 69.6165 -1.2898 -1.40602 0
M  V30 673 C 66.7565 -2.65169 -2.2086 0
M  V30 674 C 65.8695 -3.88714 -1.88482 0
M  V30 675 C 65.0045 -4.31254 -3.1015 0
M  V30 676 C 64.0435 -5.47524 -2.7365 0
M  V30 677 N 63.1805 -5.85162 -3.87982 0
M  V30 678 H 68.0205 -2.94218 -0.473249 0
M  V30 679 H 65.5575 -1.45415 -0.221981 0
M  V30 680 H 67.5155 -2.94685 -2.95325 0
M  V30 681 H 66.1455 -1.8474 -2.64709 0
M  V30 682 H 65.1975 -3.65849 -1.04205 0
M  V30 683 H 66.5095 -4.73245 -1.57608 0
M  V30 684 H 65.6635 -4.62273 -3.92923 0
M  V30 685 H 64.4025 -3.45516 -3.44195 0
M  V30 686 H 63.4075 -5.16187 -1.89291 0
M  V30 687 H 64.6325 -6.34971 -2.40807 0
M  V30 688 H 62.5785 -5.02377 -4.21846 0
M  V30 689 H 62.4955 -6.64362 -3.60775 0
M  V30 690 H 63.7635 -6.20791 -4.71422 0
M  V30 691 N 67.9926 0.231505 -1.5589 0
M  V30 692 C 69.2406 0.955461 -1.78088 0
M  V30 693 C 69.5616 1.85262 -0.608533 0
M  V30 694 O 68.8316 1.92277 0.375035 0
M  V30 695 H 67.4116 0.355787 -0.656829 0
M  V30 696 H 70.0736 0.245751 -1.93344 0
M  V30 697 H 69.1696 1.56814 -2.69844 0
M  V30 698 N 69.4707 1.49531 0.497807 0
M  V30 699 C 70.4187 1.66926 1.61983 0
M  V30 700 C 71.4127 0.535167 1.60724 0
M  V30 701 O 72.6187 0.714896 1.65195 0
M  V30 702 H 68.9937 0.526415 0.537021 0
M  V30 703 H 70.9647 2.61098 1.44465 0
M  V30 704 C 69.7137 1.75602 3.00099 0
M  V30 705 H 69.0367 2.62244 3.01775 0
M  V30 706 H 70.4767 1.91807 3.78135 0
M  V30 707 C 68.9357 0.501543 3.33146 0
M  V30 708 O 69.4657 -0.371342 3.9998 0
M  V30 709 N 67.6717 0.363531 2.88317 0
M  V30 710 H 67.2187 1.07485 2.34104 0
M  V30 711 H 67.1767 -0.474728 3.10795 0
M  V30 712 N 70.9488 -0.749086 1.3866 0
M  V30 713 C 72.1768 -1.53834 1.38358 0
M  V30 714 C 72.5918 -1.88783 -0.0255219 0
M  V30 715 O 71.9488 -1.53101 -0.993292 0
M  V30 716 C 71.9998 -2.83468 2.2434 0
M  V30 717 O 71.7208 -2.50008 3.5976 0
M  V30 718 C 73.2218 -3.7758 2.32267 0
M  V30 719 H 70.4418 -0.47585 0.473083 0
M  V30 720 H 72.9858 -0.926726 1.82297 0
M  V30 721 H 71.1408 -3.40995 1.83851 0
M  V30 722 H 71.5548 -3.33182 4.05081 0
M  V30 723 H 73.0288 -4.65478 2.96706 0
M  V30 724 H 73.5058 -4.18334 1.33765 0
M  V30 725 H 74.1118 -3.25976 2.73166 0
M  V30 726 N 72.4269 -1.23603 -0.977757 0
M  V30 727 C 73.3899 -1.02069 -2.05218 0
M  V30 728 C 74.3899 0.0184305 -1.60789 0
M  V30 729 O 75.5799 -0.221569 -1.72785 0
M  V30 730 C 72.7119 -0.544926 -3.36517 0
M  V30 731 H 73.9049 -1.9742 -2.25755 0
M  V30 732 H 71.4579 -1.05684 -1.15155 0
M  V30 733 H 72.1929 0.412241 -3.21669 0
M  V30 734 H 71.9779 -1.2948 -3.70105 0
M  V30 735 H 73.4679 -0.414985 -4.15533 0
M  V30 736 N 73.905 1.17692 -1.04816 0
M  V30 737 C 74.868 2.19787 -0.650117 0
M  V30 738 C 75.868 1.58044 0.296427 0
M  V30 739 O 77.058 1.74012 0.0808097 0
M  V30 740 C 74.19 3.40869 0.0456987 0
M  V30 741 H 75.383 2.56516 -1.5537 0
M  V30 742 H 72.936 1.31708 -0.841594 0
M  V30 743 H 73.671 3.09681 0.962726 0
M  V30 744 H 73.456 3.86928 -0.634727 0
M  V30 745 H 74.946 4.16445 0.310432 0
M  V30 746 N 75.3831 0.828654 1.34056 0
M  V30 747 C 76.3151 0.212052 2.28217 0
M  V30 748 C 77.3281 -0.601362 1.51286 0
M  V30 749 O 78.5171 -0.430104 1.73241 0
M  V30 750 C 75.6171 -0.72088 3.31144 0
M  V30 751 C 74.7901 0.0509587 4.3737 0
M  V30 752 C 73.8491 -0.803766 5.20025 0
M  V30 753 O 72.8751 -0.246667 5.68665 0
M  V30 754 N 74.0771 -2.1227 5.40298 0
M  V30 755 H 76.8421 1.02105 2.81771 0
M  V30 756 H 74.4031 0.686153 1.46641 0
M  V30 757 H 76.3951 -1.29742 3.8334 0
M  V30 758 H 74.9651 -1.43061 2.77943 0
M  V30 759 H 74.1851 0.808831 3.85813 0
M  V30 760 H 75.4731 0.582065 5.0546 0
M  V30 761 H 74.8711 -2.59898 5.02464 0
M  V30 762 H 73.4281 -2.64796 5.95589 0
M  V30 763 N 76.8612 -1.46375 0.584142 0
M  V30 764 C 77.7942 -2.27351 -0.196676 0
M  V30 765 C 78.7722 -1.35715 -0.895561 0
M  V30 766 O 79.9562 -1.65126 -0.90916 0
M  V30 767 C 77.0832 -3.13486 -1.28235 0
M  V30 768 C 76.1292 -4.20896 -0.689145 0
M  V30 769 S 76.9622 -5.33299 0.48507 0
M  V30 770 C 78.1182 -6.23 -0.601767 0
M  V30 771 H 78.3512 -2.93228 0.490395 0
M  V30 772 H 75.8842 -1.49875 0.371071 0
M  V30 773 H 77.8422 -3.63676 -1.90395 0
M  V30 774 H 76.5032 -2.4692 -1.94138 0
M  V30 775 H 75.6962 -4.80997 -1.50527 0
M  V30 776 H 75.2982 -3.73726 -0.143181 0
M  V30 777 H 77.5902 -6.60979 -1.48705 0
M  V30 778 H 78.5332 -7.0809 -0.0374799 0
M  V30 779 H 78.9412 -5.57173 -0.906557 0
M  V30 780 N 78.3393 -0.321999 -1.54275 0
M  V30 781 C 79.3023 0.531975 -2.22941 0
M  V30 782 C 80.3023 1.04478 -1.22234 0
M  V30 783 O 81.4923 0.937452 -1.46825 0
M  V30 784 C 78.6243 1.73874 -2.93224 0
M  V30 785 H 79.8173 -0.0682612 -2.99822 0
M  V30 786 H 77.3703 -0.0730644 -1.56129 0
M  V30 787 H 78.1053 2.37825 -2.20476 0
M  V30 788 H 77.8903 1.37847 -3.6707 0
M  V30 789 H 79.3803 2.34496 -3.45545 0
M  V30 790 N 79.8174 1.5752 -0.0501392 0
M  V30 791 C 80.7494 2.08413 0.95376 0
M  V30 792 C 81.7624 1.01175 1.27544 0
M  V30 793 O 82.9514 1.28744 1.23641 0
M  V30 794 C 80.0514 2.51138 2.27559 0
M  V30 795 C 79.2244 3.817 2.13598 0
M  V30 796 C 78.2834 4.10749 3.28895 0
M  V30 797 O 77.3094 4.80685 3.04845 0
M  V30 798 N 78.5114 3.62579 4.5334 0
M  V30 799 H 81.2764 2.95165 0.519383 0
M  V30 800 H 78.8374 1.61327 0.136127 0
M  V30 801 H 80.8294 2.67648 3.03557 0
M  V30 802 H 79.3994 1.6964 2.62567 0
M  V30 803 H 78.6194 3.74782 1.22197 0
M  V30 804 H 79.9074 4.67201 2.01496 0
M  V30 805 H 79.3054 3.06039 4.75769 0
M  V30 806 H 77.8624 3.84329 5.26436 0
M  V30 807 N 81.2955 -0.223234 1.56011 0
M  V30 808 C 82.5445 -0.945912 1.78144 0
M  V30 809 C 82.8575 -1.85567 0.618396 0
M  V30 810 O 84.0635 -2.61688 0.723318 0
M  V30 811 C 82.5195 -1.73216 3.15475 0
M  V30 812 C 82.1275 -0.868619 4.39499 0
M  V30 813 C 83.8715 -2.44615 3.46935 0
M  V30 814 C 81.7785 -1.65212 5.67855 0
M  V30 815 H 80.7085 -0.356929 0.664167 0
M  V30 816 H 83.3595 -0.199845 1.82409 0
M  V30 817 H 81.7415 -2.52107 3.05382 0
M  V30 818 H 82.9155 -0.120366 4.60643 0
M  V30 819 H 81.2305 -0.26683 4.15544 0
M  V30 820 H 83.8275 -3.03732 4.40058 0
M  V30 821 H 84.1705 -3.17417 2.69355 0
M  V30 822 H 84.7035 -1.72715 3.58349 0
M  V30 823 H 81.4425 -0.967407 6.48322 0
M  V30 824 H 80.9625 -2.37503 5.50774 0
M  V30 825 H 82.6415 -2.21322 6.07968 0
M  V30 826 N 82.7736 -1.49793 -0.48987 0
M  V30 827 C 83.7036 -1.70201 -1.59856 0
M  V30 828 C 84.6846 -0.55076 -1.60937 0
M  V30 829 O 85.8696 -0.787841 -1.77501 0
M  V30 830 C 82.9996 -1.77882 -2.98287 0
M  V30 831 C 81.9536 -2.92907 -3.12073 0
M  V30 832 C 81.2796 -2.85712 -4.51965 0
M  V30 833 C 82.5796 -4.3369 -2.91051 0
M  V30 834 H 84.2736 -2.63025 -1.43032 0
M  V30 835 H 81.8196 -1.26574 -0.686664 0
M  V30 836 H 83.7726 -1.90744 -3.75759 0
M  V30 837 H 82.4966 -0.816653 -3.16225 0
M  V30 838 H 81.1556 -2.79665 -2.37029 0
M  V30 839 H 80.8036 -1.8738 -4.66795 0
M  V30 840 H 80.5036 -3.62921 -4.62128 0
M  V30 841 H 82.0276 -3.00598 -5.31482 0
M  V30 842 H 83.4416 -4.47555 -3.58284 0
M  V30 843 H 81.8386 -5.12205 -3.12675 0
M  V30 844 H 82.9086 -4.47362 -1.87071 0
M  V30 845 N 84.2517 0.741722 -1.39055 0
M  V30 846 C 85.4767 1.53607 -1.39354 0
M  V30 847 C 85.9017 1.88096 0.0116905 0
M  V30 848 O 85.2597 1.5143 0.996924 0
M  V30 849 C 85.3077 2.80441 -2.26682 0
M  V30 850 O 84.4117 3.76088 -1.69208 0
M  V30 851 H 83.7527 0.464142 -0.474835 0
M  V30 852 H 86.2827 0.915665 -1.82967 0
M  V30 853 H 86.2927 3.29246 -2.40959 0
M  V30 854 H 84.9677 2.5467 -3.2881 0
M  V30 855 H 83.5447 3.34833 -1.64138 0
M  V30 856 N 85.7298 1.2412 0.971189 0
M  V30 857 C 86.9768 1.07881 1.71371 0
M  V30 858 C 87.3048 -0.382901 1.90694 0
M  V30 859 O 86.5598 -1.29945 1.46331 0
M  V30 860 C 86.8588 1.75983 3.11071 0
M  V30 861 C 86.5248 3.25909 3.11599 0
M  V30 862 C 85.1868 3.66813 3.11451 0
M  V30 863 C 87.5388 4.21771 3.062 0
M  V30 864 C 84.8668 5.02021 3.03631 0
M  V30 865 C 87.2188 5.56982 2.99923 0
M  V30 866 C 85.8828 5.97237 2.98102 0
M  V30 867 H 85.1528 0.394764 0.62709 0
M  V30 868 H 87.7998 1.54176 1.13587 0
M  V30 869 H 86.1048 1.22072 3.72298 0
M  V30 870 H 87.8018 1.60887 3.6731 0
M  V30 871 H 84.3918 2.93353 3.12477 0
M  V30 872 H 88.5758 3.91172 3.05447 0
M  V30 873 H 83.8318 5.32411 3.0058 0
M  V30 874 H 88.0058 6.30969 2.94704 0
M  V30 875 H 85.6328 7.01967 2.91798 0
M  V30 876 N 87.2079 -1.17134 1.05439 0
M  V30 877 C 88.1559 -2.23289 0.651511 0
M  V30 878 C 89.1499 -1.66186 -0.328411 0
M  V30 879 O 90.3559 -1.78949 -0.194206 0
M  V30 880 H 86.7309 -0.726938 0.192523 0
M  V30 881 H 88.7019 -2.54565 1.55689 0
M  V30 882 C 87.4509 -3.47671 0.0448436 0
M  V30 883 H 86.7739 -3.91918 0.78996 0
M  V30 884 H 88.2139 -4.2353 -0.19964 0
M  V30 885 C 86.6729 -3.14453 -1.20918 0
M  V30 886 O 87.2029 -3.29459 -2.29825 0
M  V30 887 N 85.4089 -2.68657 -1.10779 0
M  V30 888 H 84.9559 -2.56646 -0.221526 0
M  V30 889 H 84.9139 -2.46804 -1.9477 0
M  V30 890 N 88.686 -0.835752 -1.33615 0
M  V30 891 C 89.633 -0.26473 -2.29277 0
M  V30 892 C 90.603 0.617712 -1.54187 0
M  V30 893 O 91.788 0.556641 -1.825 0
M  V30 894 C 88.928 0.556777 -3.40579 0
M  V30 895 C 88.041 -0.349339 -4.30585 0
M  V30 896 C 87.176 0.482969 -5.29 0
M  V30 897 C 86.215 -0.421732 -6.10645 0
M  V30 898 N 85.352 0.372262 -7.01112 0
M  V30 899 H 90.192 -1.08582 -2.77514 0
M  V30 900 H 87.729 -0.546927 -1.36554 0
M  V30 901 H 89.687 1.04852 -4.03809 0
M  V30 902 H 88.317 1.34286 -2.93542 0
M  V30 903 H 87.369 -0.959372 -3.68104 0
M  V30 904 H 88.681 -1.04445 -4.87742 0
M  V30 905 H 87.835 1.03866 -5.97743 0
M  V30 906 H 86.574 1.21153 -4.72412 0
M  V30 907 H 85.579 -0.989464 -5.40823 0
M  V30 908 H 86.804 -1.14861 -6.69316 0
M  V30 909 H 84.75 1.08426 -6.46977 0
M  V30 910 H 84.667 -0.264198 -7.55538 0
M  V30 911 H 85.935 0.910293 -7.74167 0
M  V30 912 N 90.1641 1.46063 -0.591896 0
M  V30 913 C 91.3891 2.07226 -0.0850314 0
M  V30 914 C 91.8141 1.43625 1.21463 0
M  V30 915 O 91.1721 0.523305 1.73583 0
M  V30 916 C 91.2201 3.60554 0.0576567 0
M  V30 917 O 90.3241 3.97128 1.11188 0
M  V30 918 H 89.6651 0.660615 -0.0669568 0
M  V30 919 H 92.1951 1.8756 -0.81745 0
M  V30 920 H 92.2051 4.07165 0.2609 0
M  V30 921 H 90.8801 4.06235 -0.891416 0
M  V30 922 H 89.4571 3.62213 0.886356 0
M  V30 923 N 91.6422 0.330177 1.54103 0
M  V30 924 C 92.8902 -0.269871 2.0029 0
M  V30 925 C 93.2112 -1.52133 1.21986 0
M  V30 926 O 92.4812 -1.93212 0.323438 0
M  V30 927 H 91.0612 -0.10271 0.739905 0
M  V30 928 H 93.7232 0.448249 1.89675 0
M  V30 929 H 92.8192 -0.52166 3.07709 0
M  V30 930 N 93.1203 -1.57491 0.0584922 0
M  V30 931 C 94.3683 -1.92597 -0.612436 0
M  V30 932 C 94.6893 -0.938162 -1.70949 0
M  V30 933 O 93.9593 0.0158301 -1.95894 0
M  V30 934 H 92.5393 -0.710964 -0.229214 0
M  V30 935 H 95.2013 -1.94571 0.113218 0
M  V30 936 H 94.2973 -2.94038 -1.04633 0
M  V30 937 N 94.5984 0.214957 -1.56127 0
M  V30 938 C 95.8464 0.936518 -1.79091 0
M  V30 939 C 96.1674 1.84606 -0.628148 0
M  V30 940 O 95.4374 1.92664 0.35462 0
M  V30 941 H 94.0174 0.3488 -0.660566 0
M  V30 942 H 96.6794 0.22523 -1.93594 0
M  V30 943 H 95.7754 1.53943 -2.71492 0
M  V30 944 N 96.0765 1.50051 0.48192 0
M  V30 945 C 97.3245 1.60181 1.23234 0
M  V30 946 C 97.6455 0.299176 1.92691 0
M  V30 947 O 96.9155 -0.682708 1.83619 0
M  V30 948 H 95.4955 0.590232 0.457859 0
M  V30 949 H 98.1575 1.86775 0.556881 0
M  V30 950 H 97.2535 2.40753 1.98607 0
M  V30 951 N 97.5546 -0.734337 1.39446 0
M  V30 952 C 98.8316 -1.48579 1.27215 0
M  V30 953 C 99.2116 -2.1077 -0.117968 0
M  V30 954 O 98.5596 -1.98646 -1.12924 0
M  V30 955 C 98.7696 -2.53667 2.39696 0
M  V30 956 C 100.118 -3.20031 2.79044 0
M  V30 957 O 101.142 -2.6398 2.39151 0
M  V30 958 O 100.001 -4.21455 3.47905 0
M  V30 959 H 97.0946 -0.659816 0.49857 0
M  V30 960 H 99.6406 -0.768106 1.51322 0
M  V30 961 H 98.4126 -2.06096 3.32626 0
M  V30 962 H 98.0356 -3.32994 2.17258 0
M  V30 963 N 99.0327 -1.24633 -0.964593 0
M  V30 964 C 100.282 -1.08188 -1.7023 0
M  V30 965 C 100.595 0.37873 -1.91898 0
M  V30 966 O 101.801 0.663427 -2.6327 0
M  V30 967 C 100.257 -1.88773 -3.06419 0
M  V30 968 C 99.8647 -3.39263 -2.92582 0
M  V30 969 C 101.609 -1.80867 -3.84041 0
M  V30 970 C 99.5157 -4.1218 -4.24101 0
M  V30 971 H 98.4457 -0.401245 -0.638372 0
M  V30 972 H 101.097 -1.48742 -1.07462 0
M  V30 973 H 99.4787 -1.41035 -3.70034 0
M  V30 974 H 100.653 -3.94603 -2.37961 0
M  V30 975 H 98.9677 -3.48154 -2.28424 0
M  V30 976 H 101.565 -2.32646 -4.81435 0
M  V30 977 H 101.908 -0.774543 -4.09031 0
M  V30 978 H 102.441 -2.26301 -3.27159 0
M  V30 979 H 99.1797 -5.15965 -4.04303 0
M  V30 980 H 98.6997 -3.61626 -4.78526 0
M  V30 981 H 100.379 -4.19349 -4.92702 0
M  V30 982 N 100.511 1.16574 -1.06058 0
M  V30 983 C 101.461 2.18854 -0.63929 0
M  V30 984 C 102.445 1.57505 0.328798 0
M  V30 985 O 103.637 1.76408 0.144623 0
M  V30 986 C 100.766 3.43291 -0.0247203 0
M  V30 987 C 99.8518 4.11722 -1.01716 0
M  V30 988 N 100.243 4.55841 -2.19186 0
M  V30 989 C 98.5408 4.37872 -0.847569 0
M  V30 990 C 99.2418 5.08751 -2.82042 0
M  V30 991 N 98.2178 5.01489 -2.09784 0
M  V30 992 H 102.02 2.5068 -1.53417 0
M  V30 993 H 99.5338 1.32999 -0.931935 0
M  V30 994 H 101.531 4.15856 0.294915 0
M  V30 995 H 100.191 3.12954 0.865448 0
M  V30 996 H 101.202 4.49649 -2.56975 0
M  V30 997 H 97.8788 4.17499 -0.00918848 0
M  V30 998 H 99.2688 5.52944 -3.81709 0
M  V30 999 N 101.989 0.842826 1.3317 0
M  V30 1000 C 102.921 0.236245 2.27979 0
M  V30 1001 C 103.934 -0.585282 1.51915 0
M  V30 1002 O 105.123 -0.411705 1.73687 0
M  V30 1003 C 102.223 -0.685717 3.3189 0
M  V30 1004 C 101.396 0.0973448 4.37292 0
M  V30 1005 C 100.455 -0.748565 5.20848 0
M  V30 1006 O 99.4809 -0.186339 5.68895 0
M  V30 1007 N 100.683 -2.06527 5.42519 0
M  V30 1008 H 103.448 1.05088 2.80672 0
M  V30 1009 H 101.009 0.701667 1.45905 0
M  V30 1010 H 103.001 -1.25669 3.84694 0
M  V30 1011 H 101.571 -1.40105 2.79445 0
M  V30 1012 H 100.791 0.849706 3.84933 0
M  V30 1013 H 102.079 0.635643 5.04814 0
M  V30 1014 H 101.477 -2.54554 5.05192 0
M  V30 1015 H 100.034 -2.58464 5.98364 0
M  V30 1016 N 103.467 -1.45747 0.599634 0
M  V30 1017 C 104.715 -2.01893 0.0915472 0
M  V30 1018 C 105.036 -1.47155 -1.27946 0
M  V30 1019 O 104.306 -0.66273 -1.84349 0
M  V30 1020 H 102.886 -0.746363 0.0308524 0
M  V30 1021 H 105.548 -1.78645 0.779237 0
M  V30 1022 H 104.644 -3.1208 0.0353086 0
M  V30 1023 N 104.945 -0.338344 -1.53925 0
M  V30 1024 C 106.192 0.259758 -2.00827 0
M  V30 1025 C 106.52 1.50973 -1.22628 0
M  V30 1026 O 105.775 1.93379 -0.300509 0
M  V30 1027 C 106.074 0.62448 -3.51902 0
M  V30 1028 C 105.74 -0.528006 -4.47798 0
M  V30 1029 C 104.402 -0.844298 -4.73735 0
M  V30 1030 C 106.754 -1.30143 -5.0469 0
M  V30 1031 C 104.082 -1.93648 -5.53821 0
M  V30 1032 C 106.434 -2.38382 -5.85967 0
M  V30 1033 C 105.098 -2.70576 -6.10201 0
M  V30 1034 H 104.368 0.0950523 -0.734878 0
M  V30 1035 H 107.015 -0.465182 -1.85764 0
M  V30 1036 H 105.32 1.43006 -3.64769 0
M  V30 1037 H 107.017 1.09905 -3.85645 0
M  V30 1038 H 103.607 -0.271421 -4.2774 0
M  V30 1039 H 107.791 -1.07033 -4.84621 0
M  V30 1040 H 103.047 -2.19021 -5.70824 0
M  V30 1041 H 107.221 -2.98746 -6.29066 0
M  V30 1042 H 104.848 -3.55333 -6.72044 0
M  V30 1043 N 106.423 1.57458 -0.0668435 0
M  V30 1044 C 107.355 2.09413 0.931601 0
M  V30 1045 C 108.368 1.02522 1.26464 0
M  V30 1046 O 109.557 1.30049 1.22269 0
M  V30 1047 C 106.657 2.53537 2.24882 0
M  V30 1048 C 105.83 3.83944 2.09537 0
M  V30 1049 C 104.889 4.14214 3.2452 0
M  V30 1050 O 103.915 4.83891 2.9973 0
M  V30 1051 N 105.117 3.67367 4.49469 0
M  V30 1052 H 107.882 2.95699 0.488048 0
M  V30 1053 H 105.443 1.61462 0.119009 0
M  V30 1054 H 107.435 2.70853 3.00701 0
M  V30 1055 H 106.005 1.72415 2.60753 0
M  V30 1056 H 105.225 3.76057 1.18215 0
M  V30 1057 H 106.513 4.69312 1.96529 0
M  V30 1058 H 105.911 3.11068 4.72497 0
M  V30 1059 H 104.468 3.89891 5.2233 0
M  V30 1060 N 107.901 -0.206675 1.56239 0
M  V30 1061 C 109.126 -0.949474 1.8439 0
M  V30 1062 C 109.551 -1.76549 0.649016 0
M  V30 1063 O 108.909 -1.76782 -0.402231 0
M  V30 1064 C 108.957 -1.83078 3.10668 0
M  V30 1065 O 108.061 -2.9281 2.90407 0
M  V30 1066 H 107.402 -0.268033 0.607499 0
M  V30 1067 H 109.932 -0.215488 2.03462 0
M  V30 1068 H 109.942 -2.2377 3.41161 0
M  V30 1069 H 108.617 -1.23112 3.97261 0
M  V30 1070 H 107.194 -2.55956 2.71184 0
M  V30 1071 N 109.379 -1.50304 -0.473955 0
M  V30 1072 C 110.309 -1.71886 -1.58042 0
M  V30 1073 C 111.29 -0.567799 -1.60344 0
M  V30 1074 O 112.475 -0.806623 -1.76656 0
M  V30 1075 C 109.605 -1.81036 -2.96384 0
M  V30 1076 C 108.559 -2.962 -3.08949 0
M  V30 1077 C 107.885 -2.9049 -4.48909 0
M  V30 1078 C 109.185 -4.36752 -2.86434 0
M  V30 1079 H 110.879 -2.64527 -1.40234 0
M  V30 1080 H 108.425 -1.27295 -0.673201 0
M  V30 1081 H 110.378 -1.94719 -3.73714 0
M  V30 1082 H 109.102 -0.850147 -3.15341 0
M  V30 1083 H 107.761 -2.82164 -2.3405 0
M  V30 1084 H 107.409 -1.92321 -4.64781 0
M  V30 1085 H 107.109 -3.67802 -4.58253 0
M  V30 1086 H 108.633 -3.06218 -5.28264 0
M  V30 1087 H 110.047 -4.5133 -3.53517 0
M  V30 1088 H 108.444 -5.15493 -3.07225 0
M  V30 1089 H 109.514 -4.49321 -1.82316 0
M  V30 1090 N 110.857 0.726932 -1.39834 0
M  V30 1091 C 111.787 1.85405 -1.41941 0
M  V30 1092 C 112.768 1.67751 -0.281728 0
M  V30 1093 O 113.953 1.8795 -0.488717 0
M  V30 1094 C 111.083 3.23243 -1.2701 0
M  V30 1095 C 110.037 3.55549 -2.38262 0
M  V30 1096 C 109.363 4.9241 -2.08415 0
M  V30 1097 C 110.663 3.577 -3.80589 0
M  V30 1098 H 112.357 1.83899 -2.36266 0
M  V30 1099 H 109.903 0.883349 -1.13723 0
M  V30 1100 H 111.856 4.01775 -1.27103 0
M  V30 1101 H 110.58 3.25296 -0.291564 0
M  V30 1102 H 109.239 2.79351 -2.37399 0
M  V30 1103 H 108.887 4.91052 -1.0898 0
M  V30 1104 H 108.587 5.14992 -2.82943 0
M  V30 1105 H 110.111 5.73289 -2.10171 0
M  V30 1106 H 111.525 4.26293 -3.83337 0
M  V30 1107 H 109.922 3.91804 -4.54543 0
M  V30 1108 H 110.992 2.57328 -4.10987 0
M  V30 1109 N 112.336 1.25143 0.95797 0
M  V30 1110 C 113.564 1.12424 1.73691 0
M  V30 1111 C 113.979 -0.322304 1.86029 0
M  V30 1112 O 113.336 -1.22186 1.35561 0
M  V30 1113 C 113.387 1.76933 3.15241 0
M  V30 1114 O 113.108 3.15932 3.03511 0
M  V30 1115 C 114.609 1.6995 4.09429 0
M  V30 1116 H 111.829 0.3923 0.544373 0
M  V30 1117 H 114.373 1.6544 1.20207 0
M  V30 1118 H 112.528 1.27895 3.6568 0
M  V30 1119 H 112.942 3.47598 3.9278 0
M  V30 1120 H 114.416 2.19753 5.06372 0
M  V30 1121 H 114.893 0.662619 4.34173 0
M  V30 1122 H 115.499 2.18461 3.64904 0
M  V30 1123 N 113.814 -1.1601 1.06675 0
M  V30 1124 C 114.724 -2.24156 0.692179 0
M  V30 1125 C 115.74 -1.71507 -0.293513 0
M  V30 1126 O 116.916 -2.009 -0.141861 0
M  V30 1127 C 113.981 -3.46587 0.0884131 0
M  V30 1128 C 113.042 -4.14257 1.12646 0
M  V30 1129 C 112.275 -5.30844 0.551416 0
M  V30 1130 O 112.498 -5.66858 -0.634656 0
M  V30 1131 O 111.432 -5.87848 1.29298 0
M  V30 1132 H 115.258 -2.58513 1.59388 0
M  V30 1133 H 112.843 -1.23599 0.83926 0
M  V30 1134 H 114.725 -4.20679 -0.246361 0
M  V30 1135 H 113.4 -3.13994 -0.786712 0
M  V30 1136 H 112.307 -3.42118 1.51348 0
M  V30 1137 H 113.64 -4.50914 1.97325 0
M  V30 1138 N 115.292 -0.849877 -1.32721 0
M  V30 1139 C 116.538 -0.451591 -1.97708 0
M  V30 1140 C 116.871 0.989175 -1.6712 0
M  V30 1141 O 116.146 1.69334 -0.956891 0
M  V30 1142 C 116.429 -0.685598 -3.53513 0
M  V30 1143 C 116.282 -2.17444 -3.93749 0
M  V30 1144 C 117.601 -0.138874 -4.39881 0
M  V30 1145 H 114.72 -0.16555 -0.718166 0
M  V30 1146 H 117.362 -1.06742 -1.57182 0
M  V30 1147 H 115.512 -0.161416 -3.88165 0
M  V30 1148 H 117.184 -2.76433 -3.693 0
M  V30 1149 H 115.427 -2.65476 -3.43081 0
M  V30 1150 H 116.098 -2.28888 -5.02309 0
M  V30 1151 H 118.574 -0.587068 -4.11938 0
M  V30 1152 H 117.45 -0.332213 -5.47894 0
M  V30 1153 H 117.711 0.95806 -4.31594 0
M  V30 1154 N 116.77 1.45427 -0.607355 0
M  V30 1155 C 117.718 2.32269 0.12411 0
M  V30 1156 C 118.712 1.45955 0.859854 0
M  V30 1157 O 119.918 1.6244 0.775447 0
M  V30 1158 H 116.293 0.749691 0.0588839 0
M  V30 1159 H 118.264 2.91743 -0.626762 0
M  V30 1160 C 117.013 3.29567 1.1082 0
M  V30 1161 H 116.336 3.95978 0.551492 0
M  V30 1162 H 117.776 3.93061 1.58995 0
M  V30 1163 C 116.235 2.56722 2.18164 0
M  V30 1164 O 116.765 2.34842 3.25902 0
M  V30 1165 N 114.971 2.16861 1.93442 0
M  V30 1166 H 114.518 2.34855 1.05834 0
M  V30 1167 H 114.476 1.68444 2.65469 0
M  V30 1168 N 118.248 0.346503 1.53744 0
M  V30 1169 C 119.195 -0.508914 2.25119 0
M  V30 1170 C 120.165 -1.09315 1.25058 0
M  V30 1171 O 121.35 -1.12921 1.53797 0
M  V30 1172 C 118.49 -1.65246 3.02965 0
M  V30 1173 C 117.603 -1.09525 4.17886 0
M  V30 1174 C 116.738 -2.20634 4.83212 0
M  V30 1175 C 115.777 -1.62279 5.90196 0
M  V30 1176 N 114.914 -2.67143 6.49291 0
M  V30 1177 H 119.754 0.106283 2.9781 0
M  V30 1178 H 117.291 0.0642227 1.4696 0
M  V30 1179 H 119.249 -2.32574 3.4636 0
M  V30 1180 H 117.879 -2.2386 2.32565 0
M  V30 1181 H 116.931 -0.312818 3.79112 0
M  V30 1182 H 118.243 -0.628444 4.94825 0
M  V30 1183 H 117.397 -2.95821 5.29693 0
M  V30 1184 H 116.136 -2.70659 4.05703 0
M  V30 1185 H 115.141 -0.855989 5.43096 0
M  V30 1186 H 116.366 -1.13102 6.69615 0
M  V30 1187 H 114.312 -3.16417 5.74645 0
M  V30 1188 H 114.229 -2.25093 7.21713 0
M  V30 1189 H 115.497 -3.4209 7.00425 0
M  V30 1190 N 119.726 -1.57421 0.075193 0
M  V30 1191 C 120.954 -1.97946 -0.602076 0
M  V30 1192 C 121.369 -0.953674 -1.62943 0
M  V30 1193 O 120.726 0.0592551 -1.82404 0
M  V30 1194 C 120.777 -3.38546 -1.26762 0
M  V30 1195 O 120.498 -4.37195 -0.281376 0
M  V30 1196 C 121.999 -3.93966 -2.03239 0
M  V30 1197 H 119.219 -0.650918 -0.162931 0
M  V30 1198 H 121.763 -2.03959 0.148601 0
M  V30 1199 H 119.918 -3.33609 -1.96936 0
M  V30 1200 H 120.332 -5.18975 -0.759267 0
M  V30 1201 H 121.806 -4.94555 -2.45193 0
M  V30 1202 H 122.283 -3.30693 -2.8903 0
M  V30 1203 H 122.889 -4.02315 -1.37924 0
M  V30 1204 N 121.204 0.198386 -1.56346 0
M  V30 1205 C 122.452 0.91747 -1.80075 0
M  V30 1206 C 122.773 1.83929 -0.647692 0
M  V30 1207 O 122.043 1.93029 0.334166 0
M  V30 1208 H 120.623 0.341774 -0.664228 0
M  V30 1209 H 123.285 0.204684 -1.93822 0
M  V30 1210 H 122.381 1.51055 -2.7311 0
M  V30 1211 N 122.682 1.50554 0.465978 0
M  V30 1212 C 123.91 1.65563 1.24083 0
M  V30 1213 C 124.325 0.341051 1.85694 0
M  V30 1214 O 123.682 -0.677543 1.69457 0
M  V30 1215 C 123.733 2.75051 2.34583 0
M  V30 1216 O 123.454 4.01413 1.75497 0
M  V30 1217 C 124.955 3.01078 3.25372 0
M  V30 1218 H 122.175 0.55638 0.375077 0
M  V30 1219 H 124.719 1.96807 0.555624 0
M  V30 1220 H 122.874 2.46486 2.9887 0
M  V30 1221 H 123.288 4.62002 2.48303 0
M  V30 1222 H 124.762 3.81339 3.99105 0
M  V30 1223 H 125.239 2.12349 3.84453 0
M  V30 1224 H 125.845 3.31194 2.66816 0
M  V30 1225 N 124.16 -0.719506 1.40217 0
M  V30 1226 C 125.092 -1.84428 1.36084 0
M  V30 1227 C 126.105 -1.60597 0.266913 0
M  V30 1228 O 127.294 -1.70544 0.526983 0
M  V30 1229 C 124.394 -3.20757 1.094 0
M  V30 1230 C 123.567 -3.71817 2.30372 0
M  V30 1231 C 122.626 -4.86748 1.99907 0
M  V30 1232 O 121.652 -4.99603 2.72737 0
M  V30 1233 N 122.854 -5.7226 0.974635 0
M  V30 1234 H 125.619 -1.88473 2.33019 0
M  V30 1235 H 123.18 -0.900885 1.3452 0
M  V30 1236 H 125.172 -3.95235 0.870116 0
M  V30 1237 H 123.742 -3.11884 0.211452 0
M  V30 1238 H 122.962 -2.88514 2.68614 0
M  V30 1239 H 124.25 -4.02666 3.11026 0
M  V30 1240 H 123.648 -5.6448 0.371368 0
M  V30 1241 H 122.205 -6.46739 0.810656 0
M  V30 1242 N 125.638 -1.25649 -0.95132 0
M  V30 1243 C 126.868 -1.13179 -1.72841 0
M  V30 1244 C 127.276 0.316827 -1.86528 0
M  V30 1245 O 126.619 1.22948 -1.3649 0
M  V30 1246 C 126.681 -1.71644 -3.15878 0
M  V30 1247 C 126.345 -3.20667 -3.25609 0
M  V30 1248 C 127.342 -4.17616 -3.09666 0
M  V30 1249 C 125.027 -3.6094 -3.49324 0
M  V30 1250 C 127.021 -5.52817 -3.17289 0
M  V30 1251 C 124.708 -4.96278 -3.56584 0
M  V30 1252 C 125.706 -5.92025 -3.40581 0
M  V30 1253 O 125.394 -7.24899 -3.47528 0
M  V30 1254 H 125.126 -0.395389 -0.54831 0
M  V30 1255 H 127.68 -1.66566 -1.20187 0
M  V30 1256 H 125.91 -1.12707 -3.69911 0
M  V30 1257 H 127.599 -1.54225 -3.75459 0
M  V30 1258 H 128.365 -3.87842 -2.91211 0
M  V30 1259 H 124.244 -2.86907 -3.6084 0
M  V30 1260 H 127.788 -6.2753 -3.04716 0
M  V30 1261 H 123.685 -5.25716 -3.74556 0
M  V30 1262 H 124.453 -7.33039 -3.64138 0
M  V30 1263 N 127.117 1.15442 -1.07289 0
M  V30 1264 C 128.047 2.22312 -0.714107 0
M  V30 1265 C 129.028 1.67467 0.298155 0
M  V30 1266 O 130.213 1.93445 0.171048 0
M  V30 1267 C 127.343 3.47124 -0.110448 0
M  V30 1268 C 126.297 4.14926 -1.04979 0
M  V30 1269 C 125.623 5.33807 -0.308924 0
M  V30 1270 C 126.923 4.64762 -2.38314 0
M  V30 1271 H 128.617 2.5258 -1.6076 0
M  V30 1272 H 126.163 1.21404 -0.77441 0
M  V30 1273 H 128.116 4.21124 0.152482 0
M  V30 1274 H 126.84 3.16187 0.81812 0
M  V30 1275 H 125.499 3.42866 -1.29764 0
M  V30 1276 H 125.147 4.99126 0.623084 0
M  V30 1277 H 124.847 5.80113 -0.935036 0
M  V30 1278 H 126.371 6.10576 -0.0537771 0
M  V30 1279 H 127.785 5.30292 -2.1786 0
M  V30 1280 H 126.182 5.21728 -2.96514 0
M  V30 1281 H 127.252 3.80434 -3.00663 0
M  V30 1282 N 128.595 0.856903 1.32268 0
M  V30 1283 C 129.525 0.31858 2.31316 0
M  V30 1284 C 130.506 -0.583487 1.59779 0
M  V30 1285 O 131.691 -0.503259 1.87566 0
M  V30 1286 C 128.821 -0.491979 3.43798 0
M  V30 1287 C 127.775 0.315849 4.26833 0
M  V30 1288 C 127.101 -0.619586 5.31098 0
M  V30 1289 C 128.401 1.54282 4.98993 0
M  V30 1290 H 130.095 1.14621 2.76591 0
M  V30 1291 H 127.641 0.552613 1.32974 0
M  V30 1292 H 129.594 -0.879012 4.1213 0
M  V30 1293 H 128.318 -1.35299 2.97257 0
M  V30 1294 H 126.977 0.684664 3.6015 0
M  V30 1295 H 126.625 -1.47751 4.8081 0
M  V30 1296 H 126.325 -0.0830621 5.87541 0
M  V30 1297 H 127.849 -1.00375 6.02293 0
M  V30 1298 H 129.263 1.22796 5.59995 0
M  V30 1299 H 127.66 2.01745 5.65172 0
M  V30 1300 H 128.73 2.30285 4.26728 0
M  V30 1301 N 130.073 -1.45103 0.615059 0
M  V30 1302 C 131.489 -1.57137 0.279322 0
M  V30 1303 C 131.689 -1.60523 -1.21797 0
M  V30 1304 O 130.745 -1.53956 -2.00134 0
M  V30 1305 C 132.058 -2.85062 0.957083 0
M  V30 1306 C 133.606 -2.98749 0.933706 0
M  V30 1307 C 134.081 -4.29455 1.59162 0
M  V30 1308 N 135.572 -4.36231 1.55746 0
M  V30 1309 C 136.307 -5.36051 2.0356 0
M  V30 1310 N 135.803 -6.42367 2.59494 0
M  V30 1311 N 137.596 -5.27456 1.94284 0
M  V30 1312 H 129.747 -1.41148 1.58717 0
M  V30 1313 H 132.01 -0.675331 0.665306 0
M  V30 1314 H 131.716 -2.88488 2.01166 0
M  V30 1315 H 131.59 -3.7407 0.48494 0
M  V30 1316 H 133.977 -2.94886 -0.112347 0
M  V30 1317 H 134.058 -2.11132 1.44419 0
M  V30 1318 H 133.702 -4.34077 2.63704 0
M  V30 1319 H 133.632 -5.15901 1.0561 0
M  V30 1320 H 136.123 -3.60011 1.14893 0
M  V30 1321 H 136.436 -7.14793 2.93752 0
M  V30 1322 H 134.781 -6.43097 2.63537 0
M  V30 1323 H 137.972 -4.43308 1.5032 0
M  V30 1324 H 138.145 -6.05099 2.3186 0
M  V30 1325 N 131.551 -0.354651 -1.53558 0
M  V30 1326 C 132.484 0.540273 -2.21712 0
M  V30 1327 C 133.462 1.09161 -1.2051 0
M  V30 1328 O 134.646 1.14979 -1.49372 0
M  V30 1329 C 131.773 1.74435 -2.90328 0
M  V30 1330 C 130.819 1.32146 -4.05512 0
M  V30 1331 S 131.652 0.331924 -5.3447 0
M  V30 1332 C 132.808 1.54258 -6.06593 0
M  V30 1333 H 133.041 -0.0385776 -2.97275 0
M  V30 1334 H 130.574 -0.138736 -1.53775 0
M  V30 1335 H 132.532 2.43507 -3.30476 0
M  V30 1336 H 131.193 2.29444 -2.1451 0
M  V30 1337 H 130.386 2.21952 -4.52497 0
M  V30 1338 H 129.988 0.710091 -3.67197 0
M  V30 1339 H 132.28 2.47534 -6.30661 0
M  V30 1340 H 133.223 1.11431 -6.99277 0
M  V30 1341 H 133.631 1.74367 -5.36895 0
M  V30 1342 N 133.029 1.57378 -0.0835403 0
M  V30 1343 C 133.992 2.12252 0.864959 0
M  V30 1344 C 134.992 1.04916 1.21858 0
M  V30 1345 O 136.182 1.30853 1.14991 0
M  V30 1346 C 133.314 2.63358 2.16461 0
M  V30 1347 H 134.507 2.97371 0.388676 0
M  V30 1348 H 132.06 1.55423 0.165317 0
M  V30 1349 H 132.795 1.81727 2.686 0
M  V30 1350 H 132.58 3.41826 1.92087 0
M  V30 1351 H 134.07 3.05847 2.84337 0
M  V30 1352 N 134.507 -0.190092 1.56449 0
M  V30 1353 C 135.455 -1.25501 1.95837 0
M  V30 1354 C 136.449 -1.4685 0.844485 0
M  V30 1355 O 137.655 -1.47651 1.02952 0
M  V30 1356 H 134.03 -0.421447 0.622805 0
M  V30 1357 H 136.001 -0.895821 2.84636 0
M  V30 1358 C 134.75 -2.59124 2.31841 0
M  V30 1359 H 134.073 -2.43514 3.17082 0
M  V30 1360 H 135.513 -3.32371 2.6326 0
M  V30 1361 C 133.972 -3.16488 1.15486 0
M  V30 1362 O 134.502 -3.99365 0.432535 0
M  V30 1363 N 132.708 -2.75305 0.930349 0
M  V30 1364 H 132.255 -2.08013 1.51948 0
M  V30 1365 H 132.213 -3.14024 0.153634 0
M  V30 1366 N 135.985 -1.50799 -0.457987 0
M  V30 1367 C 137.401 -1.38515 -0.792819 0
M  V30 1368 C 137.601 -0.451409 -1.96379 0
M  V30 1369 O 136.657 0.10112 -2.52297 0
M  V30 1370 C 137.97 -2.80149 -1.09258 0
M  V30 1371 C 139.518 -2.89156 -1.19825 0
M  V30 1372 C 139.993 -4.31651 -1.53106 0
M  V30 1373 N 141.484 -4.34662 -1.60072 0
M  V30 1374 C 142.219 -5.41928 -1.87354 0
M  V30 1375 N 141.715 -6.59384 -2.12568 0
M  V30 1376 N 143.508 -5.29385 -1.88965 0
M  V30 1377 H 135.659 -2.10073 0.313511 0
M  V30 1378 H 137.922 -0.944803 0.0777862 0
M  V30 1379 H 137.628 -3.50374 -0.305084 0
M  V30 1380 H 137.502 -3.18204 -2.02549 0
M  V30 1381 H 139.889 -2.19141 -1.97639 0
M  V30 1382 H 139.97 -2.54626 -0.244821 0
M  V30 1383 H 139.614 -5.02208 -0.758266 0
M  V30 1384 H 139.544 -4.63678 -2.49621 0
M  V30 1385 H 142.035 -3.49973 -1.42573 0
M  V30 1386 H 142.348 -7.36934 -2.32696 0
M  V30 1387 H 140.693 -6.62535 -2.09933 0
M  V30 1388 H 143.884 -4.36616 -1.68772 0
M  V30 1389 H 144.057 -6.13066 -2.09891 0
M  V30 1390 N 137.463 0.71206 -1.40597 0
M  V30 1391 C 138.393 1.83889 -1.43899 0
M  V30 1392 C 139.374 1.67442 -0.299504 0
M  V30 1393 O 140.559 1.87421 -0.508624 0
M  V30 1394 C 137.689 3.21877 -1.30431 0
M  V30 1395 C 136.643 3.53002 -2.42019 0
M  V30 1396 C 135.969 4.90172 -2.13626 0
M  V30 1397 C 137.269 3.53643 -3.84362 0
M  V30 1398 H 138.963 1.81383 -2.38203 0
M  V30 1399 H 136.509 0.871237 -1.14654 0
M  V30 1400 H 138.462 4.00404 -1.31357 0
M  V30 1401 H 137.186 3.24968 -0.326049 0
M  V30 1402 H 135.845 2.76818 -2.40349 0
M  V30 1403 H 135.493 4.89869 -1.14182 0
M  V30 1404 H 135.193 5.11962 -2.88389 0
M  V30 1405 H 136.717 5.71028 -2.1624 0
M  V30 1406 H 138.131 4.22203 -3.87837 0
M  V30 1407 H 136.528 3.86961 -4.58673 0
M  V30 1408 H 137.598 2.52954 -4.13693 0
M  V30 1409 N 138.941 1.26152 0.944643 0
M  V30 1410 C 140.188 1.11492 1.69044 0
M  V30 1411 C 140.516 -0.342366 1.91463 0
M  V30 1412 O 139.771 -1.26812 1.49054 0
M  V30 1413 C 140.07 1.82541 3.07268 0
M  V30 1414 C 139.736 3.32445 3.04616 0
M  V30 1415 C 138.398 3.73337 3.036 0
M  V30 1416 C 140.75 4.28171 2.97185 0
M  V30 1417 C 138.078 5.08348 2.92915 0
M  V30 1418 C 140.43 5.63218 2.88041 0
M  V30 1419 C 139.094 6.03426 2.85366 0
M  V30 1420 H 138.364 0.407977 0.618576 0
M  V30 1421 H 141.011 1.56551 1.10291 0
M  V30 1422 H 139.316 1.29941 3.69625 0
M  V30 1423 H 141.013 1.68642 3.63815 0
M  V30 1424 H 137.603 2.99915 3.06185 0
M  V30 1425 H 141.787 3.97563 2.97081 0
M  V30 1426 H 137.043 5.38667 2.89219 0
M  V30 1427 H 141.217 6.37078 2.81254 0
M  V30 1428 H 138.844 7.07999 2.76842 0
M  V30 1429 N 140.419 -1.14872 1.07899 0
M  V30 1430 C 141.667 -1.85422 0.803941 0
M  V30 1431 C 141.988 -1.83051 -0.67211 0
M  V30 1432 O 141.258 -1.27532 -1.48703 0
M  V30 1433 H 139.838 -0.686537 0.294408 0
M  V30 1434 H 142.5 -1.39226 1.3639 0
M  V30 1435 H 141.596 -2.90399 1.14346 0
M  V30 1436 N 141.898 -0.863906 -1.31812 0
M  V30 1437 C 142.808 -0.318461 -2.32428 0
M  V30 1438 C 143.824 0.568496 -1.64451 0
M  V30 1439 O 145 0.46666 -1.95919 0
M  V30 1440 C 142.065 0.476355 -3.43412 0
M  V30 1441 C 141.126 -0.43784 -4.27061 0
M  V30 1442 C 140.359 0.319138 -5.32745 0
M  V30 1443 O 140.582 1.54799 -5.48993 0
M  V30 1444 O 139.516 -0.319861 -6.01049 0
M  V30 1445 H 143.342 -1.15229 -2.80991 0
M  V30 1446 H 140.927 -0.627103 -1.35602 0
M  V30 1447 H 142.809 0.927156 -4.11074 0
M  V30 1448 H 141.484 1.28683 -2.97022 0
M  V30 1449 H 140.391 -0.937013 -3.62175 0
M  V30 1450 H 141.724 -1.21375 -4.77 0
M  V30 1451 N 143.376 1.44774 -0.622745 0
M  V30 1452 C 144.323 2.30635 0.0871679 0
M  V30 1453 C 145.293 1.42994 0.845097 0
M  V30 1454 O 146.478 1.71907 0.827812 0
M  V30 1455 C 143.618 3.28144 1.06844 0
M  V30 1456 C 142.731 4.30888 0.309809 0
M  V30 1457 C 141.866 5.15494 1.28215 0
M  V30 1458 C 140.905 6.09953 0.512198 0
M  V30 1459 N 140.042 6.87287 1.43458 0
M  V30 1460 H 144.882 2.90803 -0.650974 0
M  V30 1461 H 142.419 1.43286 -0.33281 0
M  V30 1462 H 144.377 3.83157 1.65066 0
M  V30 1463 H 143.007 2.69695 1.77382 0
M  V30 1464 H 142.059 3.78414 -0.388181 0
M  V30 1465 H 143.371 4.97955 -0.290254 0
M  V30 1466 H 142.525 5.74983 1.93596 0
M  V30 1467 H 141.264 4.48481 1.91614 0
M  V30 1468 H 140.269 5.49581 -0.155151 0
M  V30 1469 H 141.494 6.78999 -0.116958 0
M  V30 1470 H 139.44 6.2295 2.05594 0
M  V30 1471 H 139.357 7.50763 0.888335 0
M  V30 1472 H 140.625 7.51306 2.07749 0
M  V30 1473 N 144.854 0.36279 1.53368 0
M  V30 1474 C 146.079 -0.231226 2.06107 0
M  V30 1475 C 146.504 -1.419 1.23474 0
M  V30 1476 O 145.862 -1.79524 0.253128 0
M  V30 1477 C 145.91 -0.605523 3.5548 0
M  V30 1478 O 145.014 -1.70312 3.7559 0
M  V30 1479 H 144.355 -0.034327 0.663112 0
M  V30 1480 H 146.885 0.522584 1.97814 0
M  V30 1481 H 146.895 -0.877314 3.98456 0
M  V30 1482 H 145.57 0.263004 4.15068 0
M  V30 1483 H 144.147 -1.4271 3.44512 0
M  V30 1484 N 146.332 -1.57332 0.0918853 0
M  V30 1485 C 147.572 -1.96117 -0.575988 0
M  V30 1486 C 147.936 -0.972499 -1.65549 0
M  V30 1487 O 149.137 -1.24872 -2.38034 0
M  V30 1488 C 147.408 -3.39407 -1.11973 0
M  V30 1489 S 148.967 -4.00185 -1.79992 0
M  V30 1490 H 145.785 -0.685682 -0.188045 0
M  V30 1491 H 148.387 -1.94755 0.170525 0
M  V30 1492 H 147.091 -4.09131 -0.322504 0
M  V30 1493 H 146.622 -3.44358 -1.90214 0
M  V30 1494 H 148.637 -3.88728 -3.08391 0
M  V30 1495 N 147.81 0.181792 -1.56548 0
M  V30 1496 C 149.087 0.926765 -1.72251 0
M  V30 1497 C 149.467 2.00831 -0.650386 0
M  V30 1498 O 148.815 2.26008 0.336521 0
M  V30 1499 C 149.025 1.50106 -3.1507 0
M  V30 1500 C 150.373 1.97805 -3.75711 0
M  V30 1501 O 151.397 1.59922 -3.18282 0
M  V30 1502 O 150.256 2.67555 -4.76525 0
M  V30 1503 H 147.35 0.435506 -0.703039 0
M  V30 1504 H 149.896 0.170443 -1.68842 0
M  V30 1505 H 148.668 0.72212 -3.84579 0
M  V30 1506 H 148.291 2.32186 -3.22763 0
M  V30 1507 N 149.288 1.51039 0.449983 0
M  V30 1508 C 150.535 1.63081 1.20045 0
M  V30 1509 C 150.863 0.341024 1.91487 0
M  V30 1510 O 150.118 -0.674276 1.83717 0
M  V30 1511 C 150.417 2.77556 2.25161 0
M  V30 1512 C 150.083 4.17289 1.70823 0
M  V30 1513 C 148.745 4.55305 1.55725 0
M  V30 1514 C 151.097 5.04536 1.3074 0
M  V30 1515 C 148.425 5.78287 0.989999 0
M  V30 1516 C 150.777 6.28085 0.754482 0
M  V30 1517 C 149.441 6.64885 0.590308 0
M  V30 1518 H 148.711 0.596755 0.439277 0
M  V30 1519 H 151.358 1.85037 0.49333 0
M  V30 1520 H 149.663 2.49771 3.01863 0
M  V30 1521 H 151.36 2.84073 2.83026 0
M  V30 1522 H 147.95 3.8731 1.83546 0
M  V30 1523 H 152.134 4.75782 1.41229 0
M  V30 1524 H 147.39 6.05456 0.850451 0
M  V30 1525 H 151.564 6.95038 0.435324 0
M  V30 1526 H 149.191 7.60055 0.14862 0
M  V30 1527 N 150.766 -0.704594 1.40972 0
M  V30 1528 C 151.696 -1.83124 1.44872 0
M  V30 1529 C 152.677 -1.67281 0.30838 0
M  V30 1530 O 153.862 -1.87149 0.518556 0
M  V30 1531 C 150.992 -3.21181 1.32136 0
M  V30 1532 C 149.946 -3.51714 2.43888 0
M  V30 1533 C 149.272 -4.89032 2.16222 0
M  V30 1534 C 150.572 -3.516 3.86232 0
M  V30 1535 H 152.266 -1.80117 2.39161 0
M  V30 1536 H 149.812 -0.865145 1.15114 0
M  V30 1537 H 151.765 -3.99702 1.33479 0
M  V30 1538 H 150.489 -3.24791 0.343279 0
M  V30 1539 H 149.148 -2.75539 2.41813 0
M  V30 1540 H 148.796 -4.89256 1.16778 0
M  V30 1541 H 148.496 -5.10426 2.911 0
M  V30 1542 H 150.02 -5.69873 2.19265 0
M  V30 1543 H 151.434 -4.2014 3.9007 0
M  V30 1544 H 149.831 -3.84523 4.60719 0
M  V30 1545 H 150.901 -2.50757 4.15029 0
M  V30 1546 N 152.244 -1.26651 -0.937939 0
M  V30 1547 C 153.469 -1.15279 -1.72411 0
M  V30 1548 C 153.894 0.287866 -1.85884 0
M  V30 1549 O 153.252 1.20855 -1.35143 0
M  V30 1550 C 153.3 -1.83028 -3.10698 0
M  V30 1551 O 152.404 -1.12128 -3.96864 0
M  V30 1552 H 151.745 -0.401504 -0.528858 0
M  V30 1553 H 154.275 -1.67531 -1.1745 0
M  V30 1554 H 154.285 -1.89981 -3.6107 0
M  V30 1555 H 152.96 -2.87833 -3.00208 0
M  V30 1556 H 151.537 -1.13173 -3.55312 0
M  V30 1557 N 153.722 1.14298 -1.08507 0
M  V30 1558 C 154.947 1.8976 -0.837001 0
M  V30 1559 C 155.372 1.78097 0.605228 0
M  V30 1560 O 154.73 1.12188 1.4242 0
M  V30 1561 C 154.778 3.37685 -1.26495 0
M  V30 1562 O 153.882 4.10281 -0.417514 0
M  V30 1563 H 153.223 0.590365 -0.303917 0
M  V30 1564 H 155.753 1.44672 -1.44676 0
M  V30 1565 H 155.763 3.88501 -1.24625 0
M  V30 1566 H 154.438 3.45492 -2.31534 0
M  V30 1567 H 153.015 3.69536 -0.499722 0
M  V30 1568 N 155.201 0.870884 1.31352 0
M  V30 1569 C 156.448 0.482273 1.96673 0
M  V30 1570 C 156.776 -0.965638 1.68836 0
M  V30 1571 O 156.031 -1.69514 0.977937 0
M  V30 1572 C 156.33 0.687157 3.50732 0
M  V30 1573 C 155.996 2.108 3.9859 0
M  V30 1574 C 154.658 2.49656 4.1137 0
M  V30 1575 C 157.01 3.03459 4.23748 0
M  V30 1576 C 154.338 3.80412 4.46659 0
M  V30 1577 C 156.69 4.3373 4.60501 0
M  V30 1578 C 155.354 4.725 4.71487 0
M  V30 1579 H 154.624 0.176476 0.719679 0
M  V30 1580 H 157.271 1.10405 1.56471 0
M  V30 1581 H 155.576 -0.0177476 3.91796 0
M  V30 1582 H 157.273 0.366284 3.99324 0
M  V30 1583 H 153.863 1.79633 3.8914 0
M  V30 1584 H 158.047 2.74665 4.13368 0
M  V30 1585 H 153.303 4.1021 4.53362 0
M  V30 1586 H 157.477 5.05578 4.78919 0
M  V30 1587 H 155.104 5.73859 4.98588 0
M  V30 1588 N 156.679 -1.44442 0.630414 0
M  V30 1589 C 158.095 -1.56832 0.295973 0
M  V30 1590 C 158.295 -1.61806 -1.20088 0
M  V30 1591 O 157.351 -1.5607 -1.9849 0
M  V30 1592 C 158.664 -2.84031 0.987264 0
M  V30 1593 C 160.212 -2.97742 0.96534 0
M  V30 1594 C 160.687 -4.27743 1.63708 0
M  V30 1595 N 162.178 -4.34555 1.60364 0
M  V30 1596 C 162.913 -5.33862 2.09234 0
M  V30 1597 N 162.409 -6.39578 2.66292 0
M  V30 1598 N 164.202 -5.25366 1.99867 0
M  V30 1599 H 156.353 -1.39457 1.60205 0
M  V30 1600 H 158.616 -0.668237 0.672431 0
M  V30 1601 H 158.322 -2.86338 2.04215 0
M  V30 1602 H 158.196 -3.73534 0.524588 0
M  V30 1603 H 160.583 -2.94989 -0.0810639 0
M  V30 1604 H 160.664 -2.09589 1.4665 0
M  V30 1605 H 160.308 -4.31255 2.68293 0
M  V30 1606 H 160.238 -5.14752 1.11076 0
M  V30 1607 H 162.729 -3.58772 1.18705 0
M  V30 1608 H 163.042 -7.11637 3.01317 0
M  V30 1609 H 161.387 -6.40265 2.70343 0
M  V30 1610 H 164.578 -4.41688 1.55013 0
M  V30 1611 H 164.751 -6.02606 2.38265 0
M  V30 1612 N 158.157 -0.370918 -1.53173 0
M  V30 1613 C 159.434 0.273754 -1.93675 0
M  V30 1614 C 159.814 1.65938 -1.3049 0
M  V30 1615 O 159.162 2.23698 -0.465999 0
M  V30 1616 C 159.372 0.318602 -3.47543 0
M  V30 1617 C 160.72 0.556392 -4.20939 0
M  V30 1618 O 161.744 0.399587 -3.53952 0
M  V30 1619 O 160.603 0.862133 -5.39657 0
M  V30 1620 H 157.697 0.165448 -0.810281 0
M  V30 1621 H 160.243 -0.42409 -1.64315 0
M  V30 1622 H 159.015 -0.652687 -3.85818 0
M  V30 1623 H 158.638 1.06212 -3.83151 0
M  V30 1624 N 159.635 1.57281 -0.100228 0
M  V30 1625 C 160.86 1.99302 0.573881 0
M  V30 1626 C 161.285 0.979059 1.60611 0
M  V30 1627 O 160.643 -0.0517803 1.81226 0
M  V30 1628 C 160.691 3.40274 1.19358 0
M  V30 1629 O 159.795 3.41676 2.30935 0
M  V30 1630 H 159.136 0.647944 0.145138 0
M  V30 1631 H 161.666 2.03779 -0.183156 0
M  V30 1632 H 161.676 3.78078 1.53365 0
M  V30 1633 H 160.351 4.13594 0.437385 0
M  V30 1634 H 158.928 3.15672 1.98509 0
M  V30 1635 N 161.113 -0.173488 1.56642 0
M  V30 1636 C 162.353 -0.896984 1.83667 0
M  V30 1637 C 162.717 -1.79523 0.680842 0
M  V30 1638 O 163.918 -2.55616 0.831488 0
M  V30 1639 C 162.189 -1.67351 3.15798 0
M  V30 1640 S 163.748 -2.44607 3.64298 0
M  V30 1641 H 160.566 -0.300464 0.644393 0
M  V30 1642 H 163.168 -0.158775 1.94854 0
M  V30 1643 H 161.872 -1.00462 3.97914 0
M  V30 1644 H 161.403 -2.45313 3.07546 0
M  V30 1645 H 163.418 -3.69261 3.31452 0
M  V30 1646 N 162.591 -1.51276 -0.441967 0
M  V30 1647 C 163.523 -1.68444 -1.55433 0
M  V30 1648 C 164.536 -0.565187 -1.52674 0
M  V30 1649 O 165.725 -0.839356 -1.57534 0
M  V30 1650 C 162.825 -1.67966 -2.94348 0
M  V30 1651 C 161.998 -2.964 -3.21661 0
M  V30 1652 C 161.057 -2.88171 -4.40277 0
M  V30 1653 O 160.083 -3.62119 -4.39157 0
M  V30 1654 N 161.285 -2.03706 -5.43584 0
M  V30 1655 H 164.05 -2.644 -1.41112 0
M  V30 1656 H 161.611 -1.49104 -0.630838 0
M  V30 1657 H 163.603 -1.60035 -3.71713 0
M  V30 1658 H 162.173 -0.796225 -3.0229 0
M  V30 1659 H 161.393 -3.18234 -2.32638 0
M  V30 1660 H 162.681 -3.81427 -3.36736 0
M  V30 1661 H 162.079 -1.42995 -5.47329 0
M  V30 1662 H 160.636 -2.01658 -6.1982 0
M  V30 1663 N 164.069 0.697108 -1.41344 0
M  V30 1664 C 165.016 1.81106 -1.43071 0
M  V30 1665 C 165.986 1.63632 -0.285275 0
M  V30 1666 O 167.171 1.84504 -0.486091 0
M  V30 1667 C 164.311 3.18975 -1.31715 0
M  V30 1668 C 163.424 3.47892 -2.56115 0
M  V30 1669 C 162.559 4.75367 -2.37064 0
M  V30 1670 C 161.598 4.97247 -3.56948 0
M  V30 1671 N 160.735 6.15947 -3.36977 0
M  V30 1672 H 165.575 1.78965 -2.38276 0
M  V30 1673 H 163.112 0.873975 -1.18322 0
M  V30 1674 H 165.07 3.98615 -1.23133 0
M  V30 1675 H 163.7 3.20297 -0.401183 0
M  V30 1676 H 162.752 2.62669 -2.75153 0
M  V30 1677 H 164.064 3.59962 -3.45295 0
M  V30 1678 H 163.218 5.63059 -2.25941 0
M  V30 1679 H 161.957 4.65541 -1.45338 0
M  V30 1680 H 160.962 4.08004 -3.68527 0
M  V30 1681 H 162.187 5.08934 -4.49626 0
M  V30 1682 H 160.133 6.07336 -2.47949 0
M  V30 1683 H 160.05 6.28777 -4.19732 0
M  V30 1684 H 161.318 7.06377 -3.29623 0
M  V30 1685 N 165.547 1.27147 0.931209 0
M  V30 1686 C 166.794 1.13278 1.67852 0
M  V30 1687 C 167.122 -0.32204 1.91815 0
M  V30 1688 O 166.377 -1.25224 1.50391 0
M  V30 1689 C 166.676 1.8579 3.05314 0
M  V30 1690 C 166.342 3.35657 3.01073 0
M  V30 1691 C 165.004 3.76536 2.99623 0
M  V30 1692 C 167.356 4.31299 2.92627 0
M  V30 1693 C 164.684 5.11426 2.87506 0
M  V30 1694 C 167.036 5.66242 2.82051 0
M  V30 1695 C 165.7 6.06418 2.7895 0
M  V30 1696 H 164.97 0.414515 0.614214 0
M  V30 1697 H 167.617 1.57712 1.08624 0
M  V30 1698 H 165.922 1.33854 3.68226 0
M  V30 1699 H 167.619 1.72491 3.62005 0
M  V30 1700 H 164.209 3.03146 3.02986 0
M  V30 1701 H 168.393 4.00692 2.92848 0
M  V30 1702 H 163.649 5.41705 2.83489 0
M  V30 1703 H 167.823 6.40026 2.74481 0
M  V30 1704 H 165.45 7.10895 2.69318 0
M  V30 1705 N 167.025 -1.13721 1.09112 0
M  V30 1706 C 168.255 -1.88499 0.845671 0
M  V30 1707 C 168.663 -1.79218 -0.606432 0
M  V30 1708 O 168.006 -1.1544 -1.42896 0
M  V30 1709 C 168.068 -3.38954 1.19793 0
M  V30 1710 C 167.732 -3.72018 2.65428 0
M  V30 1711 C 168.729 -3.7153 3.63677 0
M  V30 1712 C 166.414 -4.01775 3.01467 0
M  V30 1713 C 168.408 -4.00336 4.95994 0
M  V30 1714 C 166.095 -4.30243 4.33975 0
M  V30 1715 C 167.093 -4.29508 5.31048 0
M  V30 1716 O 166.781 -4.5728 6.61173 0
M  V30 1717 H 166.513 -0.603702 0.304171 0
M  V30 1718 H 169.067 -1.44903 1.45576 0
M  V30 1719 H 167.297 -3.83039 0.530871 0
M  V30 1720 H 168.986 -3.95052 0.932146 0
M  V30 1721 H 169.752 -3.4862 3.37179 0
M  V30 1722 H 165.631 -4.01496 2.26544 0
M  V30 1723 H 169.175 -3.99678 5.71755 0
M  V30 1724 H 165.072 -4.52625 4.60219 0
M  V30 1725 H 165.84 -4.74964 6.66597 0
M  V30 1726 N 168.503 -0.877838 -1.30888 0
M  V30 1727 C 169.435 -0.296607 -2.27273 0
M  V30 1728 C 170.448 0.544799 -1.53414 0
M  V30 1729 O 171.637 0.365511 -1.74718 0
M  V30 1730 C 168.737 0.597481 -3.33592 0
M  V30 1731 C 167.91 -0.213251 -4.3688 0
M  V30 1732 C 166.969 0.610208 -5.2265 0
M  V30 1733 O 165.995 0.035441 -5.69189 0
M  V30 1734 N 167.197 1.92071 -5.47804 0
M  V30 1735 H 169.962 -1.12492 -2.77787 0
M  V30 1736 H 167.523 -0.740105 -1.43993 0
M  V30 1737 H 169.515 1.15425 -3.87891 0
M  V30 1738 H 168.085 1.32647 -2.83061 0
M  V30 1739 H 167.305 -0.951466 -3.82545 0
M  V30 1740 H 168.593 -0.769262 -5.02951 0
M  V30 1741 H 167.991 2.4107 -5.11763 0
M  V30 1742 H 166.548 2.42508 -6.05007 0
M  V30 1743 N 169.982 1.44106 -0.638065 0
M  V30 1744 C 170.945 2.29138 0.0531013 0
M  V30 1745 C 171.945 1.41409 0.765506 0
M  V30 1746 O 173.135 1.63206 0.609046 0
M  V30 1747 C 170.267 3.23144 1.08584 0
M  V30 1748 H 171.46 2.91739 -0.694883 0
M  V30 1749 H 169.013 1.51134 -0.398538 0
M  V30 1750 H 169.748 2.65408 1.86357 0
M  V30 1751 H 169.533 3.87804 0.578852 0
M  V30 1752 H 171.023 3.87004 1.56899 0
M  V30 1753 N 171.46 0.379036 1.52974 0
M  V30 1754 C 172.37 -0.468639 2.29872 0
M  V30 1755 C 173.386 -1.08067 1.36373 0
M  V30 1756 O 174.562 -1.08871 1.69438 0
M  V30 1757 C 171.627 -1.58594 3.083 0
M  V30 1758 C 170.688 -1.00007 4.17489 0
M  V30 1759 C 169.921 -2.06413 4.92168 0
M  V30 1760 O 170.144 -3.27751 4.66835 0
M  V30 1761 O 169.078 -1.68717 5.7777 0
M  V30 1762 H 172.904 0.157508 3.03291 0
M  V30 1763 H 170.489 0.143035 1.48714 0
M  V30 1764 H 172.371 -2.23525 3.57232 0
M  V30 1765 H 171.046 -2.19724 2.37703 0
M  V30 1766 H 169.953 -0.314299 3.72777 0
M  V30 1767 H 171.286 -0.433135 4.90291 0
M  V30 1768 N 172.938 -1.57226 0.108567 0
M  V30 1769 C 173.871 -2.10447 -0.882464 0
M  V30 1770 C 174.849 -1.01829 -1.26766 0
M  V30 1771 O 176.033 -1.29415 -1.37054 0
M  V30 1772 C 173.16 -2.59258 -2.17952 0
M  V30 1773 C 172.206 -3.79662 -1.94318 0
M  V30 1774 S 173.039 -5.22586 -1.16892 0
M  V30 1775 C 174.195 -5.74758 -2.47799 0
M  V30 1776 H 174.428 -2.94178 -0.429745 0
M  V30 1777 H 171.961 -1.54043 -0.105 0
M  V30 1778 H 173.919 -2.88036 -2.92482 0
M  V30 1779 H 172.58 -1.75728 -2.60343 0
M  V30 1780 H 171.773 -4.11928 -2.90399 0
M  V30 1781 H 171.375 -3.51446 -1.27913 0
M  V30 1782 H 173.667 -5.83846 -3.43701 0
M  V30 1783 H 174.61 -6.73027 -2.20093 0
M  V30 1784 H 175.018 -5.02763 -2.56689 0
M  V30 1785 N 174.416 0.165178 -1.56732 0
M  V30 1786 C 175.326 1.22423 -2.00125 0
M  V30 1787 C 176.342 1.48084 -0.913619 0
M  V30 1788 O 177.518 1.60112 -1.22172 0
M  V30 1789 C 174.583 2.54197 -2.35764 0
M  V30 1790 C 173.644 2.36343 -3.58386 0
M  V30 1791 C 172.877 3.61834 -3.92316 0
M  V30 1792 O 173.1 4.67267 -3.27135 0
M  V30 1793 O 172.034 3.55579 -4.85641 0
M  V30 1794 H 175.86 0.885886 -2.90492 0
M  V30 1795 H 173.445 0.372518 -1.44681 0
M  V30 1796 H 175.327 3.3192 -2.59629 0
M  V30 1797 H 174.002 2.87598 -1.48557 0
M  V30 1798 H 172.909 1.56632 -3.39731 0
M  V30 1799 H 174.242 2.07865 -4.46154 0
M  V30 1800 N 175.894 1.51508 0.433938 0
M  V30 1801 C 176.804 1.75917 1.5521 0
M  V30 1802 C 177.82 0.643545 1.61662 0
M  V30 1803 O 178.996 0.926183 1.7884 0
M  V30 1804 C 176.061 1.88213 2.91164 0
M  V30 1805 C 175.122 3.12074 2.94802 0
M  V30 1806 C 174.355 3.23774 4.24271 0
M  V30 1807 O 174.578 2.4133 5.16833 0
M  V30 1808 O 173.512 4.16774 4.34262 0
M  V30 1809 H 177.338 2.70777 1.37527 0
M  V30 1810 H 174.923 1.36051 0.617293 0
M  V30 1811 H 176.805 1.98267 3.71845 0
M  V30 1812 H 175.48 0.965413 3.08968 0
M  V30 1813 H 174.387 3.07497 2.13065 0
M  V30 1814 H 175.72 4.03446 2.81943 0
M  V30 1815 N 177.372 -0.689602 1.41712 0
M  V30 1816 C 178.302 -1.81577 1.46806 0
M  V30 1817 C 179.283 -1.66945 0.326105 0
M  V30 1818 O 180.468 -1.86588 0.538377 0
M  V30 1819 C 177.598 -3.19762 1.35535 0
M  V30 1820 C 176.552 -3.49107 2.47605 0
M  V30 1821 C 175.878 -4.86711 2.21397 0
M  V30 1822 C 177.178 -3.47483 3.89939 0
M  V30 1823 H 178.872 -1.7757 2.41058 0
M  V30 1824 H 176.418 -0.852887 1.16025 0
M  V30 1825 H 178.371 -3.98263 1.3771 0
M  V30 1826 H 177.095 -3.24409 0.377708 0
M  V30 1827 H 175.754 -2.72959 2.44722 0
M  V30 1828 H 175.402 -4.8799 1.21961 0
M  V30 1829 H 175.102 -5.0731 2.96497 0
M  V30 1830 H 176.626 -5.67515 2.25297 0
M  V30 1831 H 178.04 -4.1598 3.94505 0
M  V30 1832 H 176.437 -3.79615 4.64771 0
M  V30 1833 H 177.507 -2.46341 4.17665 0
M  V30 1834 N 178.85 -1.27639 -0.924453 0
M  V30 1835 C 180.127 -1.04887 -1.651 0
M  V30 1836 C 180.507 0.415327 -2.06974 0
M  V30 1837 O 179.855 1.39923 -1.80648 0
M  V30 1838 C 180.065 -2.01348 -2.85061 0
M  V30 1839 C 181.413 -2.30899 -3.56329 0
M  V30 1840 O 182.437 -1.99348 -2.95193 0
M  V30 1841 O 181.296 -2.84699 -4.66485 0
M  V30 1842 H 178.39 -0.400083 -0.723784 0
M  V30 1843 H 180.936 -1.38916 -0.974703 0
M  V30 1844 H 179.708 -3.0008 -2.51133 0
M  V30 1845 H 179.331 -1.679 -3.6041 0
M  V30 1846 N 180.328 1.1314 -1.09713 0
M  V30 1847 C 181.575 1.84484 -0.834987 0
M  V30 1848 C 181.903 1.83689 0.639418 0
M  V30 1849 O 181.158 1.2724 1.4869 0
M  V30 1850 C 181.457 3.32167 -1.3191 0
M  V30 1851 C 181.123 3.53139 -2.80363 0
M  V30 1852 C 179.785 3.58571 -3.20905 0
M  V30 1853 C 182.137 3.60866 -3.76065 0
M  V30 1854 C 179.465 3.69267 -4.55916 0
M  V30 1855 C 181.817 3.73089 -5.10869 0
M  V30 1856 C 180.481 3.76775 -5.50996 0
M  V30 1857 H 179.751 0.675073 -0.305544 0
M  V30 1858 H 182.398 1.33554 -1.37243 0
M  V30 1859 H 180.703 3.85469 -0.701517 0
M  V30 1860 H 182.4 3.85821 -1.09284 0
M  V30 1861 H 178.99 3.49569 -2.47991 0
M  V30 1862 H 183.174 3.55946 -3.45855 0
M  V30 1863 H 178.43 3.70388 -4.86438 0
M  V30 1864 H 182.604 3.78011 -5.84877 0
M  V30 1865 H 180.231 3.84815 -6.55608 0
M  V30 1866 N 181.806 0.884767 1.30421 0
M  V30 1867 C 183.055 0.499164 1.95426 0
M  V30 1868 C 183.368 -0.95645 1.70621 0
M  V30 1869 O 184.574 -1.44889 2.29607 0
M  V30 1870 C 183.03 0.84177 3.49917 0
M  V30 1871 C 182.638 2.31514 3.83543 0
M  V30 1872 C 184.382 0.525355 4.21237 0
M  V30 1873 C 182.289 2.59939 5.31212 0
M  V30 1874 H 181.219 0.182944 0.73147 0
M  V30 1875 H 183.87 1.07971 1.48373 0
M  V30 1876 H 182.252 0.190311 3.95542 0
M  V30 1877 H 183.426 3.0109 3.48829 0
M  V30 1878 H 181.741 2.59907 3.25326 0
M  V30 1879 H 184.338 0.714762 5.29901 0
M  V30 1880 H 184.681 -0.535222 4.12845 0
M  V30 1881 H 185.214 1.134 3.81294 0
M  V30 1882 H 181.953 3.64736 5.44654 0
M  V30 1883 H 181.473 1.94972 5.67227 0
M  V30 1884 H 183.152 2.45429 5.98643 0
M  V30 1885 N 183.284 -1.43765 0.645699 0
M  V30 1886 C 184.509 -2.06767 0.161883 0
M  V30 1887 C 184.934 -1.48034 -1.16049 0
M  V30 1888 O 184.292 -0.587369 -1.71522 0
M  V30 1889 C 184.34 -3.60519 0.0762003 0
M  V30 1890 O 183.444 -4.00982 -0.963721 0
M  V30 1891 H 182.785 -0.657675 0.091429 0
M  V30 1892 H 185.315 -1.84397 0.886499 0
M  V30 1893 H 185.325 -4.07853 -0.109604 0
M  V30 1894 H 184 -4.02646 1.04157 0
M  V30 1895 H 182.577 -3.65253 -0.751312 0
M  V30 1896 N 184.763 -0.387143 -1.52771 0
M  V30 1897 C 185.726 0.436939 -2.24997 0
M  V30 1898 C 186.726 0.991991 -1.26555 0
M  V30 1899 O 187.916 0.874335 -1.50669 0
M  V30 1900 C 185.048 1.61281 -3.00335 0
M  V30 1901 H 186.241 -0.195365 -2.99263 0
M  V30 1902 H 183.794 -0.139218 -1.55679 0
M  V30 1903 H 184.529 2.2826 -2.30364 0
M  V30 1904 H 184.314 1.22154 -3.72587 0
M  V30 1905 H 185.804 2.19629 -3.5518 0
M  V30 1906 N 186.241 1.57166 -0.116904 0
M  V30 1907 C 187.487 1.95412 0.542405 0
M  V30 1908 C 187.82 1.00019 1.66463 0
M  V30 1909 O 187.095 0.0370346 1.94465 0
M  V30 1910 C 187.378 3.43615 1.07708 0
M  V30 1911 C 187.231 4.49781 -0.0415868 0
M  V30 1912 C 188.55 3.93616 1.96861 0
M  V30 1913 H 185.669 0.710543 0.195696 0
M  V30 1914 H 188.311 1.89027 -0.192038 0
M  V30 1915 H 186.461 3.49187 1.70296 0
M  V30 1916 H 188.133 4.56308 -0.676793 0
M  V30 1917 H 186.376 4.28033 -0.705019 0
M  V30 1918 H 187.047 5.50733 0.373717 0
M  V30 1919 H 189.523 3.90335 1.44146 0
M  V30 1920 H 188.399 4.97838 2.3119 0
M  V30 1921 H 188.66 3.34188 2.89432 0
M  V30 1922 N 187.719 -0.156864 1.56817 0
M  V30 1923 C 188.629 -1.2136 2.00771 0
M  V30 1924 C 189.645 -1.47598 0.921459 0
M  V30 1925 O 190.821 -1.59462 1.2302 0
M  V30 1926 C 187.886 -2.52943 2.37109 0
M  V30 1927 C 186.947 -2.34439 3.59634 0
M  V30 1928 C 186.18 -3.59748 3.94229 0
M  V30 1929 O 186.403 -4.65526 3.29609 0
M  V30 1930 O 185.337 -3.52998 4.8752 0
M  V30 1931 H 189.163 -0.870468 2.90958 0
M  V30 1932 H 186.748 -0.36484 1.44877 0
M  V30 1933 H 188.63 -3.30538 2.61386 0
M  V30 1934 H 187.305 -2.86806 1.5008 0
M  V30 1935 H 186.212 -1.54828 3.40557 0
M  V30 1936 H 187.545 -2.05496 4.4725 0
M  V30 1937 N 189.197 -1.51736 -0.425897 0
M  V30 1938 C 190.144 -1.73875 -1.51776 0
M  V30 1939 C 191.114 -0.580702 -1.55618 0
M  V30 1940 O 192.299 -0.81641 -1.72451 0
M  V30 1941 C 189.439 -1.88012 -2.89388 0
M  V30 1942 C 188.552 -3.15606 -2.94986 0
M  V30 1943 C 187.687 -3.20271 -4.23793 0
M  V30 1944 C 186.726 -4.42134 -4.23302 0
M  V30 1945 N 185.863 -4.44284 -5.43651 0
M  V30 1946 H 190.703 -2.67071 -1.32201 0
M  V30 1947 H 188.24 -1.32351 -0.642008 0
M  V30 1948 H 190.198 -1.9419 -3.69251 0
M  V30 1949 H 188.828 -0.98213 -3.07496 0
M  V30 1950 H 187.88 -3.18681 -2.07717 0
M  V30 1951 H 189.192 -4.05486 -2.90486 0
M  V30 1952 H 188.346 -3.25428 -5.12036 0
M  V30 1953 H 187.085 -2.28299 -4.30965 0
M  V30 1954 H 186.09 -4.3714 -3.3345 0
M  V30 1955 H 187.315 -5.35382 -4.17783 0
M  V30 1956 H 185.261 -3.55188 -5.51523 0
M  V30 1957 H 185.178 -5.27988 -5.41078 0
M  V30 1958 H 186.446 -4.53649 -6.33895 0
M  V30 1959 N 190.675 0.682077 -1.42076 0
M  V30 1960 C 191.9 1.47558 -1.45744 0
M  V30 1961 C 192.325 1.87977 -0.0680981 0
M  V30 1962 O 191.683 1.55522 0.9318 0
M  V30 1963 C 191.731 2.70575 -2.38373 0
M  V30 1964 O 190.835 3.68573 -1.85007 0
M  V30 1965 H 190.176 0.443585 -0.494093 0
M  V30 1966 H 192.706 0.837238 -1.86686 0
M  V30 1967 H 192.716 3.18729 -2.54707 0
M  V30 1968 H 191.391 2.40495 -3.39315 0
M  V30 1969 H 189.968 3.2757 -1.78192 0
M  V30 1970 N 192.153 1.28127 0.917671 0
M  V30 1971 C 193.569 1.05749 1.19538 0
M  V30 1972 C 193.769 -0.202633 2.00479 0
M  V30 1973 O 192.825 -0.905382 2.3571 0
M  V30 1974 C 194.138 2.30273 1.93378 0
M  V30 1975 C 195.686 2.35412 2.06277 0
M  V30 1976 C 196.161 3.59692 2.83524 0
M  V30 1977 N 197.652 3.60309 2.91087 0
M  V30 1978 C 198.387 4.53147 3.51348 0
M  V30 1979 N 197.883 5.563 4.12919 0
M  V30 1980 N 199.676 4.40751 3.48849 0
M  V30 1981 H 191.827 2.09024 0.377184 0
M  V30 1982 H 194.09 0.919798 0.22951 0
M  V30 1983 H 193.796 3.22055 1.41328 0
M  V30 1984 H 193.67 2.36378 2.93947 0
M  V30 1985 H 196.057 1.4413 2.57508 0
M  V30 1986 H 196.138 2.33304 1.04895 0
M  V30 1987 H 195.782 4.51316 2.32973 0
M  V30 1988 H 195.712 3.59054 3.85211 0
M  V30 1989 H 198.203 2.85714 2.47338 0
M  V30 1990 H 198.516 6.2329 4.56869 0
M  V30 1991 H 196.861 5.60131 4.11435 0
M  V30 1992 H 200.052 3.59367 2.99955 0
M  V30 1993 H 200.225 5.13291 3.9552 0
M  V30 1994 N 193.631 -1.12557 1.10312 0
M  V30 1995 C 194.578 -2.18247 0.750781 0
M  V30 1996 C 195.548 -1.63853 -0.272293 0
M  V30 1997 O 196.733 -1.90195 -0.151862 0
M  V30 1998 C 193.873 -3.44591 0.187379 0
M  V30 1999 C 192.986 -4.13046 1.2656 0
M  V30 2000 C 192.121 -5.27034 0.663978 0
M  V30 2001 C 191.16 -5.87353 1.72287 0
M  V30 2002 N 190.297 -6.92757 1.1416 0
M  V30 2003 H 195.137 -2.47732 1.65628 0
M  V30 2004 H 192.674 -1.21629 0.827337 0
M  V30 2005 H 194.632 -4.16904 -0.157148 0
M  V30 2006 H 193.262 -3.15527 -0.681355 0
M  V30 2007 H 192.314 -3.38924 1.72727 0
M  V30 2008 H 193.626 -4.53947 2.06721 0
M  V30 2009 H 192.78 -6.06104 0.268824 0
M  V30 2010 H 191.519 -4.87407 -0.169082 0
M  V30 2011 H 190.524 -5.06971 2.12746 0
M  V30 2012 H 191.749 -6.29051 2.55875 0
M  V30 2013 H 189.695 -6.5517 0.329984 0
M  V30 2014 H 189.612 -7.3225 1.88007 0
M  V30 2015 H 190.88 -7.75658 0.772956 0
M  V30 2016 N 195.109 -0.891671 -1.2995 0
M  V30 2017 C 196.059 -0.334811 -2.25528 0
M  V30 2018 C 197.043 0.540553 -1.51548 0
M  V30 2019 O 198.235 0.383882 -1.72787 0
M  V30 2020 C 195.364 0.44374 -3.4042 0
M  V30 2021 C 194.45 -0.44609 -4.21747 0
M  V30 2022 N 194.841 -1.54963 -4.81477 0
M  V30 2023 C 193.139 -0.242415 -4.45341 0
M  V30 2024 C 193.84 -2.10015 -5.42465 0
M  V30 2025 N 192.816 -1.39423 -5.25416 0
M  V30 2026 H 196.618 -1.17792 -2.69262 0
M  V30 2027 H 194.132 -0.741822 -1.44467 0
M  V30 2028 H 196.129 0.859362 -4.07947 0
M  V30 2029 H 194.789 1.28421 -2.98225 0
M  V30 2030 H 195.8 -1.93244 -4.80497 0
M  V30 2031 H 192.477 0.560342 -4.13723 0
M  V30 2032 H 193.867 -3.02724 -5.9984 0
M  V30 2033 N 196.587 1.43421 -0.653314 0
M  V30 2034 C 197.836 2.01032 -0.164076 0
M  V30 2035 C 198.149 1.52147 1.22926 0
M  V30 2036 O 199.355 2.02031 1.81371 0
M  V30 2037 C 197.811 3.59082 -0.24252 0
M  V30 2038 C 197.419 4.1696 -1.63855 0
M  V30 2039 C 199.163 4.24079 0.18911 0
M  V30 2040 C 197.07 5.67304 -1.67092 0
M  V30 2041 H 196 0.751798 -0.0575769 0
M  V30 2042 H 198.651 1.6439 -0.815362 0
M  V30 2043 H 197.033 3.93125 0.476276 0
M  V30 2044 H 198.207 3.94416 -2.38271 0
M  V30 2045 H 196.522 3.64335 -2.01616 0
M  V30 2046 H 199.119 5.34381 0.184775 0
M  V30 2047 H 199.462 3.98005 1.22056 0
M  V30 2048 H 199.995 3.94918 -0.477938 0
M  V30 2049 H 196.734 5.98145 -2.68146 0
M  V30 2050 H 196.254 5.91904 -0.970014 0
M  V30 2051 H 197.933 6.31344 -1.4147 0
M  V30 2052 N 198.065 0.39524 1.52563 0
M  V30 2053 C 199.013 -0.451859 2.28169 0
M  V30 2054 C 200.007 -1.05792 1.32304 0
M  V30 2055 O 201.213 -0.997718 1.49818 0
M  V30 2056 H 197.588 -0.164481 0.733792 0
M  V30 2057 H 199.559 0.207199 2.9768 0
M  V30 2058 C 198.308 -1.56385 3.10546 0
M  V30 2059 H 197.631 -1.10682 3.84174 0
M  V30 2060 H 199.071 -2.13067 3.66577 0
M  V30 2061 C 197.53 -2.52328 2.23231 0
M  V30 2062 O 198.06 -3.5588 1.86312 0
M  V30 2063 N 196.266 -2.22209 1.87274 0
M  V30 2064 H 195.813 -1.38033 2.17496 0
M  V30 2065 H 195.771 -2.86652 1.29143 0
M  V30 2066 N 199.544 -1.57102 0.125237 0
M  V30 2067 C 200.772 -1.99761 -0.538797 0
M  V30 2068 C 201.187 -1.00503 -1.59827 0
M  V30 2069 O 200.544 0.00119474 -1.825 0
M  V30 2070 C 200.595 -3.42408 -1.15927 0
M  V30 2071 O 200.316 -4.37869 -0.142143 0
M  V30 2072 C 201.817 -4.00232 -1.90602 0
M  V30 2073 H 199.037 -0.655772 -0.14214 0
M  V30 2074 H 201.581 -2.03383 0.213413 0
M  V30 2075 H 199.736 -3.39706 -1.86223 0
M  V30 2076 H 200.15 -5.21128 -0.593775 0
M  V30 2077 H 201.624 -5.02105 -2.29335 0
M  V30 2078 H 202.101 -3.39721 -2.78363 0
M  V30 2079 H 202.707 -4.06499 -1.25055 0
M  V30 2080 N 201.022 0.148545 -1.56898 0
M  V30 2081 C 202.268 0.857877 -1.84424 0
M  V30 2082 C 202.623 1.7886 -0.709006 0
M  V30 2083 O 201.916 1.89344 0.293139 0
M  V30 2084 C 202.11 1.67064 -3.1595 0
M  V30 2085 C 201.939 0.82011 -4.42159 0
M  V30 2086 C 200.709 0.486328 -5.02954 0
M  V30 2087 C 202.907 0.151155 -5.14078 0
M  V30 2088 N 200.889 -0.377956 -6.12735 0
M  V30 2089 C 202.26 -0.573333 -6.17343 0
M  V30 2090 C 204.315 0.0716685 -4.97848 0
M  V30 2091 C 203.018 -1.3698 -7.06137 0
M  V30 2092 C 205.044 -0.711532 -5.87104 0
M  V30 2093 C 204.406 -1.42431 -6.8985 0
M  V30 2094 H 200.505 0.291798 -0.725519 0
M  V30 2095 H 203.089 0.123347 -1.94309 0
M  V30 2096 H 201.26 2.37642 -3.07215 0
M  V30 2097 H 202.992 2.32302 -3.31388 0
M  V30 2098 H 199.747 0.821753 -4.66416 0
M  V30 2099 H 200.171 -0.801077 -6.72244 0
M  V30 2100 H 204.813 0.608381 -4.184 0
M  V30 2101 H 202.531 -1.91778 -7.85014 0
M  V30 2102 H 206.117 -0.775005 -5.76615 0
M  V30 2103 H 204.997 -2.02061 -7.57721 0
M  V30 2104 N 202.5 1.5196 0.417844 0
M  V30 2105 C 203.746 1.65836 1.16732 0
M  V30 2106 C 204.079 0.382881 1.90388 0
M  V30 2107 O 203.354 -0.618368 1.84408 0
M  V30 2108 C 203.637 2.87466 2.16876 0
M  V30 2109 C 203.49 4.25041 1.47174 0
M  V30 2110 C 204.809 3.04613 3.17646 0
M  V30 2111 H 201.928 0.603515 0.423011 0
M  V30 2112 H 204.57 1.84494 0.454105 0
M  V30 2113 H 202.72 2.71689 2.777 0
M  V30 2114 H 204.392 4.52527 0.895376 0
M  V30 2115 H 202.635 4.26843 0.773806 0
M  V30 2116 H 203.306 5.06176 2.20204 0
M  V30 2117 H 205.782 3.1923 2.66892 0
M  V30 2118 H 204.658 3.91247 3.8499 0
M  V30 2119 H 204.919 2.17541 3.84874 0
M  V30 2120 N 203.978 -0.674533 1.42435 0
M  V30 2121 C 204.941 -1.76986 1.45632 0
M  V30 2122 C 205.941 -1.5708 0.343871 0
M  V30 2123 O 207.131 -1.63367 0.604709 0
M  V30 2124 C 204.263 -3.15623 1.28822 0
M  V30 2125 H 205.456 -1.75539 2.43158 0
M  V30 2126 H 203.009 -0.884189 1.28887 0
M  V30 2127 H 203.744 -3.22696 0.322193 0
M  V30 2128 H 203.529 -3.31475 2.09444 0
M  V30 2129 H 205.019 -3.95537 1.33942 0
M  V30 2130 N 205.456 -1.28612 -0.910864 0
M  V30 2131 C 206.366 -1.14643 -2.0468 0
M  V30 2132 C 207.382 -0.0723121 -1.7385 0
M  V30 2133 O 208.558 -0.282178 -1.99413 0
M  V30 2134 C 205.623 -0.812561 -3.37044 0
M  V30 2135 C 204.684 -1.96935 -3.81465 0
M  V30 2136 C 203.917 -1.65131 -5.07511 0
M  V30 2137 O 204.14 -0.567013 -5.67575 0
M  V30 2138 O 203.074 -2.49585 -5.47714 0
M  V30 2139 H 206.9 -2.1001 -2.19384 0
M  V30 2140 H 204.485 -1.07958 -1.03274 0
M  V30 2141 H 206.367 -0.640441 -4.16505 0
M  V30 2142 H 205.042 0.111426 -3.23508 0
M  V30 2143 H 203.949 -2.19664 -3.02818 0
M  V30 2144 H 205.282 -2.87414 -3.99567 0
M  V30 2145 N 206.934 1.1197 -1.10907 0
M  V30 2146 C 207.881 2.17846 -0.762345 0
M  V30 2147 C 208.851 1.63995 0.263599 0
M  V30 2148 O 210.036 1.90273 0.141773 0
M  V30 2149 C 207.176 3.44487 -0.205651 0
M  V30 2150 C 206.289 4.12369 -1.28748 0
M  V30 2151 C 205.424 5.26674 -0.691919 0
M  V30 2152 C 204.463 5.86431 -1.75399 0
M  V30 2153 N 203.6 6.92142 -1.17833 0
M  V30 2154 H 208.44 2.46851 -1.6694 0
M  V30 2155 H 205.977 1.21188 -0.833776 0
M  V30 2156 H 207.935 4.16981 0.135037 0
M  V30 2157 H 206.565 3.15884 0.664613 0
M  V30 2158 H 205.617 3.38003 -1.74522 0
M  V30 2159 H 206.929 4.52844 -2.09125 0
M  V30 2160 H 206.083 6.05953 -0.300963 0
M  V30 2161 H 204.822 4.8749 0.143232 0
M  V30 2162 H 203.827 5.05835 -2.15432 0
M  V30 2163 H 205.052 6.27685 -2.59208 0
M  V30 2164 H 202.998 6.54985 -0.364725 0
M  V30 2165 H 202.915 7.31242 -1.91887 0
M  V30 2166 H 204.183 7.75237 -0.81408 0
M  V30 2167 N 208.412 0.89855 1.29475 0
M  V30 2168 C 209.64 0.539261 1.99749 0
M  V30 2169 C 210.055 -0.875716 1.67262 0
M  V30 2170 O 209.412 -1.57786 0.917049 0
M  V30 2171 C 209.463 0.72061 3.54245 0
M  V30 2172 O 209.184 2.07989 3.8558 0
M  V30 2173 C 210.685 0.366118 4.41786 0
M  V30 2174 H 207.905 0.207047 0.638258 0
M  V30 2175 H 210.449 1.20758 1.65039 0
M  V30 2176 H 208.604 0.0994862 3.87272 0
M  V30 2177 H 209.018 2.10841 4.80257 0
M  V30 2178 H 210.492 0.543848 5.49314 0
M  V30 2179 H 210.969 -0.696763 4.33638 0
M  V30 2180 H 211.575 0.964135 4.14228 0
M  V30 2181 N 209.89 -1.43072 0.660911 0
M  V30 2182 C 210.8 -2.34585 -0.0264163 0
M  V30 2183 C 211.816 -1.54316 -0.803898 0
M  V30 2184 O 212.992 -1.86939 -0.749391 0
M  V30 2185 C 210.057 -3.32689 -0.975639 0
M  V30 2186 C 209.118 -4.2886 -0.194236 0
M  V30 2187 C 208.351 -5.22278 -1.09825 0
M  V30 2188 O 208.574 -5.20299 -2.33763 0
M  V30 2189 O 207.508 -5.99228 -0.566513 0
M  V30 2190 H 211.334 -2.94869 0.727034 0
M  V30 2191 H 208.919 -1.43342 0.42111 0
M  V30 2192 H 210.801 -3.92995 -1.52094 0
M  V30 2193 H 209.476 -2.74898 -1.70918 0
M  V30 2194 H 208.383 -3.72011 0.394835 0
M  V30 2195 H 209.716 -4.89655 0.499899 0
M  V30 2196 N 211.368 -0.403325 -1.52352 0
M  V30 2197 C 212.616 0.174003 -2.0135 0
M  V30 2198 C 212.937 1.46139 -1.29106 0
M  V30 2199 O 212.207 1.91448 -0.415253 0
M  V30 2200 H 210.787 0.0672911 -0.743963 0
M  V30 2201 H 213.449 -0.538235 -1.87321 0
M  V30 2202 H 212.545 0.374254 -3.09848 0
M  V30 2203 N 212.846 1.57033 -0.133567 0
M  V30 2204 C 213.793 2.16074 0.811208 0
M  V30 2205 C 214.763 1.08979 1.2535 0
M  V30 2206 O 215.948 1.36958 1.32843 0
M  V30 2207 C 213.088 2.77595 2.05024 0
M  V30 2208 C 212.201 3.99042 1.65498 0
M  V30 2209 C 211.336 4.48603 2.84479 0
M  V30 2210 C 210.375 5.62547 2.41262 0
M  V30 2211 N 209.512 6.06787 3.53206 0
M  V30 2212 H 214.352 2.96477 0.300906 0
M  V30 2213 H 211.889 1.46462 0.136822 0
M  V30 2214 H 213.847 3.11402 2.77642 0
M  V30 2215 H 212.477 1.99859 2.53488 0
M  V30 2216 H 211.529 3.71302 0.826981 0
M  V30 2217 H 212.841 4.81629 1.29748 0
M  V30 2218 H 211.995 4.84395 3.65303 0
M  V30 2219 H 210.734 3.64995 3.23465 0
M  V30 2220 H 209.739 5.26345 1.58874 0
M  V30 2221 H 210.964 6.47931 2.03377 0
M  V30 2222 H 208.91 5.26117 3.91838 0
M  V30 2223 H 208.827 6.84266 3.21427 0
M  V30 2224 H 210.095 6.4722 4.34427 0
M  V30 2225 N 214.325 -0.140222 1.56975 0
M  V30 2226 C 215.574 -0.850152 1.82908 0
M  V30 2227 C 215.887 -1.82028 0.715892 0
M  V30 2228 O 217.093 -2.57485 0.861016 0
M  V30 2229 C 215.549 -1.5625 3.24213 0
M  V30 2230 C 215.157 -0.63443 4.43485 0
M  V30 2231 C 216.901 -2.25881 3.59413 0
M  V30 2232 C 214.808 -1.34879 5.75814 0
M  V30 2233 H 213.738 -0.321221 0.682153 0
M  V30 2234 H 216.389 -0.102874 1.83211 0
M  V30 2235 H 214.771 -2.35565 3.18316 0
M  V30 2236 H 215.945 0.12398 4.60633 0
M  V30 2237 H 214.26 -0.0461836 4.16374 0
M  V30 2238 H 216.857 -2.79978 4.5554 0
M  V30 2239 H 217.2 -3.02693 2.85802 0
M  V30 2240 H 217.733 -1.53477 3.67001 0
M  V30 2241 H 214.472 -0.622385 6.52539 0
M  V30 2242 H 213.992 -2.07974 5.6259 0
M  V30 2243 H 215.671 -1.88784 6.18845 0
M  V30 2244 N 215.803 -1.52179 -0.40978 0
M  V30 2245 C 216.766 -1.74853 -1.48186 0
M  V30 2246 C 217.766 -0.618417 -1.48433 0
M  V30 2247 O 218.956 -0.886286 -1.49969 0
M  V30 2248 C 216.088 -1.8303 -2.87598 0
M  V30 2249 H 217.281 -2.70559 -1.29374 0
M  V30 2250 H 214.834 -1.42586 -0.640233 0
M  V30 2251 H 215.569 -0.89236 -3.11781 0
M  V30 2252 H 215.354 -2.65187 -2.88822 0
M  V30 2253 H 216.844 -2.02316 -3.65319 0
M  V30 2254 N 217.281 0.66697 -1.42791 0
M  V30 2255 C 218.191 1.80962 -1.49299 0
M  V30 2256 C 219.207 1.69775 -0.381108 0
M  V30 2257 O 220.383 1.91188 -0.633188 0
M  V30 2258 C 217.448 3.17156 -1.40045 0
M  V30 2259 C 216.509 3.40242 -2.6179 0
M  V30 2260 C 215.742 4.69939 -2.52969 0
M  V30 2261 O 215.965 5.48372 -1.56985 0
M  V30 2262 O 214.899 4.94441 -3.43237 0
M  V30 2263 H 218.725 1.78427 -2.45759 0
M  V30 2264 H 216.31 0.823713 -1.24641 0
M  V30 2265 H 218.192 3.98413 -1.37276 0
M  V30 2266 H 216.867 3.20312 -0.467138 0
M  V30 2267 H 215.774 2.58802 -2.70134 0
M  V30 2268 H 217.107 3.41923 -3.54047 0
M  V30 2269 N 218.759 1.29093 0.90403 0
M  V30 2270 C 219.689 1.16401 2.02418 0
M  V30 2271 C 220.67 0.0593085 1.69997 0
M  V30 2272 O 221.855 0.238021 1.92736 0
M  V30 2273 C 218.985 0.835233 3.37107 0
M  V30 2274 C 217.939 1.89578 3.83724 0
M  V30 2275 C 217.265 1.42041 5.15489 0
M  V30 2276 C 218.565 3.30394 4.04521 0
M  V30 2277 H 220.259 2.10109 2.13295 0
M  V30 2278 H 217.805 1.01157 1.02486 0
M  V30 2279 H 219.758 0.733169 4.14973 0
M  V30 2280 H 218.482 -0.137543 3.2631 0
M  V30 2281 H 217.141 1.98715 3.08071 0
M  V30 2282 H 216.789 0.436426 5.01103 0
M  V30 2283 H 216.489 2.12964 5.4765 0
M  V30 2284 H 218.013 1.33176 5.959 0
M  V30 2285 H 219.427 3.24123 4.72882 0
M  V30 2286 H 217.824 3.99237 4.48029 0
M  V30 2287 H 218.894 3.73692 3.09002 0
M  V30 2288 N 220.237 -1.11381 1.11499 0
M  V30 2289 C 221.167 -2.19509 0.796125 0
M  V30 2290 C 222.148 -1.68458 -0.235796 0
M  V30 2291 O 223.333 -1.93947 -0.0991344 0
M  V30 2292 C 220.463 -3.46475 0.239205 0
M  V30 2293 C 219.417 -4.10744 1.20307 0
M  V30 2294 C 218.743 -5.32293 0.50683 0
M  V30 2295 C 220.043 -4.55597 2.55399 0
M  V30 2296 H 221.737 -2.46439 1.70024 0
M  V30 2297 H 219.283 -1.18446 0.818935 0
M  V30 2298 H 221.236 -4.214 0.00392006 0
M  V30 2299 H 219.96 -3.19006 -0.700206 0
M  V30 2300 H 218.619 -3.37813 1.42399 0
M  V30 2301 H 218.267 -5.01095 -0.437408 0
M  V30 2302 H 217.967 -5.76243 1.1497 0
M  V30 2303 H 219.491 -6.09956 0.280351 0
M  V30 2304 H 220.905 -5.21841 2.37391 0
M  V30 2305 H 219.302 -5.10363 3.15673 0
M  V30 2306 H 220.372 -3.69013 3.14575 0
M  V30 2307 N 221.715 -0.905404 -1.28997 0
M  V30 2308 C 222.94 -0.549175 -1.99997 0
M  V30 2309 C 223.365 0.860276 -1.67275 0
M  V30 2310 O 222.723 1.57355 -0.900502 0
M  V30 2311 C 222.771 -0.755185 -3.52604 0
M  V30 2312 O 221.875 0.189692 -4.11964 0
M  V30 2313 H 221.216 -0.213899 -0.628604 0
M  V30 2314 H 223.746 -1.21856 -1.64354 0
M  V30 2315 H 223.756 -0.662045 -4.02593 0
M  V30 2316 H 222.431 -1.78271 -3.75755 0
M  V30 2317 H 221.008 0.0485257 -3.72868 0
M  V30 2318 N 223.193 1.4272 -0.668489 0
M  V30 2319 C 224.604 1.84793 -0.266151 0
M  V30 2320 C 224.955 1.55959 1.19043 0
M  V30 2321 O 224.08 1.01622 1.91055 0
M  V30 2322 C 224.675 3.35436 -0.476271 0
M  V30 2323 C 223.234 3.76182 -0.128113 0
M  V30 2324 C 222.381 2.66344 -0.771777 0
M  V30 2325 H 225.332 1.32656 -0.871098 0
M  V30 2326 H 225.353 3.79515 0.273561 0
M  V30 2327 H 224.865 3.5639 -1.53647 0
M  V30 2328 H 222.966 3.60836 0.928891 0
M  V30 2329 H 223.079 4.75766 -0.564231 0
M  V30 2330 H 221.443 2.53885 -0.203652 0
M  V30 2331 H 222.226 2.90123 -1.83531 0
M  V30 2332 N 224.671 0.411399 1.52136 0
M  V30 2333 C 225.919 -0.163322 2.01439 0
M  V30 2334 C 226.24 -1.45453 1.29879 0
M  V30 2335 O 225.51 -1.91225 0.4254 0
M  V30 2336 H 224.09 -0.0633447 0.744309 0
M  V30 2337 H 226.752 0.548161 1.87033 0
M  V30 2338 H 225.848 -0.357817 3.10042 0
M  V30 2339 N 226.149 -1.5696 0.141893 0
M  V30 2340 C 227.374 -2.00754 -0.520838 0
M  V30 2341 C 227.799 -1.0213 -1.57959 0
M  V30 2342 O 227.157 0.00371324 -1.813 0
M  V30 2343 C 227.205 -3.43318 -1.10294 0
M  V30 2344 O 226.309 -3.47679 -2.21795 0
M  V30 2345 H 225.65 -0.651564 -0.127908 0
M  V30 2346 H 228.18 -2.03221 0.23712 0
M  V30 2347 H 228.19 -3.82012 -1.43287 0
M  V30 2348 H 226.865 -4.14608 -0.327574 0
M  V30 2349 H 225.442 -3.20824 -1.9007 0
M  V30 2350 N 227.627 0.131896 -1.57047 0
M  V30 2351 C 228.873 0.843179 -1.84441 0
M  V30 2352 C 229.206 1.80129 -0.725749 0
M  V30 2353 O 228.481 1.92624 0.269469 0
M  V30 2354 C 228.764 1.60442 -3.22382 0
M  V30 2355 C 228.617 0.666782 -4.4483 0
M  V30 2356 C 229.936 2.56354 -3.5773 0
M  V30 2357 H 227.055 0.305081 -0.670891 0
M  V30 2358 H 229.697 0.107839 -1.89694 0
M  V30 2359 H 227.847 2.23128 -3.18035 0
M  V30 2360 H 229.519 0.0497646 -4.61273 0
M  V30 2361 H 227.762 -0.022609 -4.33794 0
M  V30 2362 H 228.433 1.23579 -5.37989 0
M  V30 2363 H 230.909 2.0378 -3.62785 0
M  V30 2364 H 229.785 3.06657 -4.5525 0
M  V30 2365 H 230.046 3.38419 -2.84473 0
M  V30 2366 N 229.106 1.52395 0.401703 0
M  V30 2367 C 230.383 1.57387 1.16141 0
M  V30 2368 C 230.763 0.359359 2.08019 0
M  V30 2369 O 230.111 -0.65326 2.18963 0
M  V30 2370 C 230.321 2.90631 1.93221 0
M  V30 2371 C 231.669 3.43904 2.49028 0
M  V30 2372 O 232.693 2.92421 2.03393 0
M  V30 2373 O 231.552 4.33823 3.32356 0
M  V30 2374 H 228.646 0.634262 0.530698 0
M  V30 2375 H 231.192 1.64725 0.407883 0
M  V30 2376 H 229.964 3.70473 1.25958 0
M  V30 2377 H 229.587 2.8662 2.75563 0
M  V30 2378 N 230.584 -0.659388 1.43143 0
M  V30 2379 C 231.995 -1.24041 1.39537 0
M  V30 2380 C 232.346 -1.95963 0.0963364 0
M  V30 2381 O 231.471 -2.00892 -0.804438 0
M  V30 2382 C 232.066 -2.25601 2.52764 0
M  V30 2383 C 230.625 -2.79195 2.52443 0
M  V30 2384 C 229.772 -1.53743 2.30778 0
M  V30 2385 H 232.723 -0.451792 1.52133 0
M  V30 2386 H 232.744 -3.07651 2.23899 0
M  V30 2387 H 232.256 -1.73226 3.47296 0
M  V30 2388 H 230.357 -3.35649 1.61773 0
M  V30 2389 H 230.47 -3.2716 3.50004 0
M  V30 2390 H 228.834 -1.80869 1.79328 0
M  V30 2391 H 229.617 -1.03312 3.27386 0
M  V30 2392 N 232.062 -1.29571 -0.897171 0
M  V30 2393 C 232.992 -1.17473 -2.01798 0
M  V30 2394 C 233.973 -0.068323 -1.69963 0
M  V30 2395 O 235.158 -0.248239 -1.92607 0
M  V30 2396 C 232.288 -0.853099 -3.36659 0
M  V30 2397 C 231.242 -1.9161 -3.82713 0
M  V30 2398 C 230.568 -1.44773 -5.14728 0
M  V30 2399 C 231.868 -3.32535 -4.02763 0
M  V30 2400 H 233.562 -2.11237 -2.12177 0
M  V30 2401 H 231.108 -1.01699 -1.01948 0
M  V30 2402 H 233.061 -0.755165 -4.14578 0
M  V30 2403 H 231.785 0.120236 -3.26379 0
M  V30 2404 H 230.444 -2.00346 -3.07013 0
M  V30 2405 H 230.092 -0.462995 -5.00865 0
M  V30 2406 H 229.792 -2.15865 -5.46513 0
M  V30 2407 H 231.316 -1.36334 -5.95185 0
M  V30 2408 H 232.73 -3.26626 -4.71156 0
M  V30 2409 H 231.127 -4.01607 -4.45905 0
M  V30 2410 H 232.197 -3.75326 -3.07016 0
M  V30 2411 N 233.54 1.10788 -1.12088 0
M  V30 2412 C 234.768 1.86461 -0.896651 0
M  V30 2413 C 235.183 1.80492 0.553912 0
M  V30 2414 O 234.54 1.19102 1.38278 0
M  V30 2415 C 234.591 3.35006 -1.35843 0
M  V30 2416 O 234.312 3.40866 -2.75213 0
M  V30 2417 C 235.813 4.27565 -1.1706 0
M  V30 2418 H 233.033 0.589425 -0.320654 0
M  V30 2419 H 235.577 1.40076 -1.48993 0
M  V30 2420 H 233.732 3.7887 -0.808458 0
M  V30 2421 H 234.146 4.33411 -2.9539 0
M  V30 2422 H 235.62 5.30007 -1.54263 0
M  V30 2423 H 236.097 4.3906 -0.110814 0
M  V30 2424 H 236.703 3.89501 -1.70789 0
M  V30 2425 N 235.018 0.912232 1.28515 0
M  V30 2426 C 236.434 0.610159 1.47476 0
M  V30 2427 C 236.634 -0.844955 1.82928 0
M  V30 2428 O 235.69 -1.62416 1.93332 0
M  V30 2429 C 237.003 1.54675 2.57868 0
M  V30 2430 C 238.551 1.55331 2.71738 0
M  V30 2431 C 239.026 2.47649 3.85272 0
M  V30 2432 N 240.517 2.45767 3.92623 0
M  V30 2433 C 241.252 3.13896 4.79851 0
M  V30 2434 N 240.748 3.9135 5.71679 0
M  V30 2435 N 242.541 3.02991 4.73448 0
M  V30 2436 H 234.692 1.85318 1.03783 0
M  V30 2437 H 236.955 0.794777 0.516753 0
M  V30 2438 H 236.661 2.5841 2.38574 0
M  V30 2439 H 236.535 1.27671 3.54937 0
M  V30 2440 H 238.922 0.52335 2.90422 0
M  V30 2441 H 239.003 1.86378 1.75205 0
M  V30 2442 H 238.647 3.50745 3.67342 0
M  V30 2443 H 238.577 2.13904 4.81199 0
M  V30 2444 H 241.068 1.89503 3.26951 0
M  V30 2445 H 241.381 4.40359 6.35062 0
M  V30 2446 H 239.726 3.95455 5.71524 0
M  V30 2447 H 242.917 2.41987 4.007 0
M  V30 2448 H 243.09 3.5636 5.41213 0
M  V30 2449 N 236.496 -1.42363 0.676048 0
M  V30 2450 C 237.426 -2.33497 0.0124832 0
M  V30 2451 C 238.407 -1.50748 -0.787981 0
M  V30 2452 O 239.592 -1.79346 -0.744884 0
M  V30 2453 C 236.722 -3.34377 -0.938582 0
M  V30 2454 C 235.676 -4.27289 -0.246622 0
M  V30 2455 C 235.002 -5.18386 -1.31071 0
M  V30 2456 C 236.302 -5.14916 0.875125 0
M  V30 2457 H 237.996 -2.89233 0.773593 0
M  V30 2458 H 235.542 -1.39073 0.37346 0
M  V30 2459 H 237.495 -3.97044 -1.41188 0
M  V30 2460 H 236.219 -2.76947 -1.73113 0
M  V30 2461 H 234.878 -3.66018 0.206456 0
M  V30 2462 H 234.526 -4.57282 -2.09528 0
M  V30 2463 H 234.226 -5.81378 -0.852839 0
M  V30 2464 H 235.75 -5.83929 -1.78492 0
M  V30 2465 H 237.164 -5.71262 0.482983 0
M  V30 2466 H 235.561 -5.86747 1.25887 0
M  V30 2467 H 236.631 -4.53242 1.72335 0
M  V30 2468 N 237.974 -0.419461 -1.51915 0
M  V30 2469 C 239.22 0.153166 -2.02221 0
M  V30 2470 C 239.553 1.43907 -1.30401 0
M  V30 2471 O 238.828 1.90055 -0.413438 0
M  V30 2472 C 239.111 0.390291 -3.57979 0
M  V30 2473 C 238.964 -0.913014 -4.40436 0
M  V30 2474 C 240.283 1.16794 -4.2432 0
M  V30 2475 H 237.402 0.0541924 -0.735005 0
M  V30 2476 H 240.044 -0.554955 -1.81715 0
M  V30 2477 H 238.194 0.993491 -3.75582 0
M  V30 2478 H 239.866 -1.54882 -4.34522 0
M  V30 2479 H 238.109 -1.52168 -4.06236 0
M  V30 2480 H 238.78 -0.701361 -5.47526 0
M  V30 2481 H 241.256 0.657161 -4.10878 0
M  V30 2482 H 240.132 1.3026 -5.3322 0
M  V30 2483 H 240.393 2.19132 -3.83971 0
M  V30 2484 N 239.452 1.56882 -0.150215 0
M  V30 2485 C 240.382 2.19935 0.784284 0
M  V30 2486 C 241.363 1.14854 1.25469 0
M  V30 2487 O 242.548 1.43209 1.31168 0
M  V30 2488 C 239.678 2.82349 2.02229 0
M  V30 2489 C 238.632 3.93285 1.68853 0
M  V30 2490 C 237.958 4.42649 2.99944 0
M  V30 2491 C 239.258 5.13904 0.932714 0
M  V30 2492 H 240.952 2.9828 0.258781 0
M  V30 2493 H 238.498 1.43473 0.123029 0
M  V30 2494 H 240.451 3.25126 2.68088 0
M  V30 2495 H 239.175 2.0134 2.57157 0
M  V30 2496 H 237.834 3.5113 1.05371 0
M  V30 2497 H 237.482 3.58458 3.52869 0
M  V30 2498 H 237.182 5.17476 2.78374 0
M  V30 2499 H 238.706 4.88099 3.66868 0
M  V30 2500 H 240.12 5.53506 1.49345 0
M  V30 2501 H 238.517 5.94515 0.81684 0
M  V30 2502 H 239.587 4.84842 -0.0749568 0
M  V30 2503 N 240.93 -0.123565 1.57115 0
M  V30 2504 C 242.176 -0.833386 1.84885 0
M  V30 2505 C 242.509 -1.79742 0.735292 0
M  V30 2506 O 241.784 -1.92764 -0.25925 0
M  V30 2507 C 242.067 -1.5873 3.23228 0
M  V30 2508 C 241.92 -0.643183 4.45178 0
M  V30 2509 C 243.239 -2.54453 3.59085 0
M  V30 2510 H 240.358 -0.301518 0.6725 0
M  V30 2511 H 243 -0.097778 1.89748 0
M  V30 2512 H 241.15 -2.21438 3.19214 0
M  V30 2513 H 242.822 -0.0253015 4.61293 0
M  V30 2514 H 241.065 0.0456139 4.33776 0
M  V30 2515 H 241.736 -1.20724 5.38637 0
M  V30 2516 H 244.212 -2.01853 3.63861 0
M  V30 2517 H 243.088 -3.04238 4.5687 0
M  V30 2518 H 243.349 -3.36906 2.86264 0
M  V30 2519 N 242.408 -1.52605 -0.393616 0
M  V30 2520 C 243.356 -1.77688 -1.50099 0
M  V30 2521 C 244.35 -0.644615 -1.56656 0
M  V30 2522 O 245.556 -0.826997 -1.59877 0
M  V30 2523 H 241.931 -0.562159 -0.499481 0
M  V30 2524 H 243.902 -2.7043 -1.26135 0
M  V30 2525 C 242.651 -1.95858 -2.87289 0
M  V30 2526 H 241.974 -2.8241 -2.82992 0
M  V30 2527 H 243.414 -2.174 -3.64024 0
M  V30 2528 C 241.873 -0.729848 -3.28899 0
M  V30 2529 O 242.403 0.0949217 -4.01588 0
M  V30 2530 N 240.609 -0.561283 -2.85128 0
M  V30 2531 H 240.156 -1.23357 -2.26143 0
M  V30 2532 H 240.114 0.2595 -3.13327 0
M  V30 2533 N 243.887 0.651787 -1.4349 0
M  V30 2534 C 244.85 1.74647 -1.48429 0
M  V30 2535 C 245.85 1.56513 -0.368817 0
M  V30 2536 O 247.04 1.62385 -0.630623 0
M  V30 2537 C 244.172 3.13533 -1.33827 0
M  V30 2538 H 245.365 1.71649 -2.4592 0
M  V30 2539 H 242.918 0.863573 -1.30277 0
M  V30 2540 H 243.653 3.22142 -0.37349 0
M  V30 2541 H 243.438 3.28101 -2.14691 0
M  V30 2542 H 244.928 3.93356 -1.40218 0
M  V30 2543 N 245.365 1.30045 0.890287 0
M  V30 2544 C 246.611 1.18737 1.64406 0
M  V30 2545 C 246.944 -0.258525 1.92472 0
M  V30 2546 O 246.219 -1.18562 1.54186 0
M  V30 2547 C 246.502 2.01087 2.98724 0
M  V30 2548 C 246.355 3.53867 2.77665 0
M  V30 2549 C 247.674 1.84457 3.9958 0
M  V30 2550 H 244.793 0.432698 0.596608 0
M  V30 2551 H 247.435 1.5962 1.0306 0
M  V30 2552 H 245.585 1.66349 3.51084 0
M  V30 2553 H 247.257 3.98637 2.32133 0
M  V30 2554 H 245.5 3.78318 2.12269 0
M  V30 2555 H 246.171 4.06772 3.7315 0
M  V30 2556 H 248.647 2.14817 3.56361 0
M  V30 2557 H 247.523 2.44411 4.91482 0
M  V30 2558 H 247.784 0.802276 4.3476 0
M  V30 2559 N 246.843 -1.10192 1.12674 0
M  V30 2560 C 248.073 -1.85713 0.905213 0
M  V30 2561 C 248.481 -1.81056 -0.549108 0
M  V30 2562 O 247.824 -1.19927 -1.39151 0
M  V30 2563 C 247.886 -3.34972 1.30516 0
M  V30 2564 C 247.55 -3.63385 2.77129 0
M  V30 2565 C 248.547 -3.59772 3.75313 0
M  V30 2566 C 246.232 -3.91981 3.14096 0
M  V30 2567 C 248.226 -3.84354 5.08479 0
M  V30 2568 C 245.913 -4.16218 4.47443 0
M  V30 2569 C 246.911 -4.12395 5.44444 0
M  V30 2570 O 246.599 -4.36014 6.75387 0
M  V30 2571 H 246.331 -0.593719 0.323223 0
M  V30 2572 H 248.885 -1.40198 1.50112 0
M  V30 2573 H 247.115 -3.81156 0.652463 0
M  V30 2574 H 248.804 -3.91886 1.05736 0
M  V30 2575 H 249.57 -3.37716 3.48099 0
M  V30 2576 H 245.449 -3.94085 2.39202 0
M  V30 2577 H 248.993 -3.81285 5.84181 0
M  V30 2578 H 244.89 -4.37754 4.74386 0
M  V30 2579 H 245.658 -4.53516 6.8137 0
M  V30 2580 N 248.321 -0.919034 -1.28029 0
M  V30 2581 C 249.568 -0.554934 -1.94748 0
M  V30 2582 C 249.896 0.90231 -1.72304 0
M  V30 2583 O 249.151 1.65767 -1.04018 0
M  V30 2584 C 249.45 -0.816855 -3.4794 0
M  V30 2585 C 249.116 -2.25448 -3.90492 0
M  V30 2586 C 247.778 -2.64752 -4.01821 0
M  V30 2587 C 250.13 -3.18977 -4.12193 0
M  V30 2588 C 247.458 -3.96727 -4.32232 0
M  V30 2589 C 249.81 -4.50523 -4.44086 0
M  V30 2590 C 248.474 -4.89673 -4.53626 0
M  V30 2591 H 247.744 -0.203065 -0.712633 0
M  V30 2592 H 250.391 -1.16136 -1.52265 0
M  V30 2593 H 248.696 -0.127677 -3.91592 0
M  V30 2594 H 250.393 -0.514238 -3.97689 0
M  V30 2595 H 246.983 -1.93952 -3.82205 0
M  V30 2596 H 251.167 -2.89817 -4.02889 0
M  V30 2597 H 246.423 -4.26754 -4.37825 0
M  V30 2598 H 250.597 -5.23005 -4.59825 0
M  V30 2599 H 248.224 -5.91969 -4.76946 0
M  V30 2600 N 249.799 1.42003 -0.683588 0
M  V30 2601 C 251.215 1.55625 -0.353976 0
M  V30 2602 C 251.415 1.66151 1.14 0
M  V30 2603 O 250.471 1.63329 1.92561 0
M  V30 2604 C 251.784 2.80171 -1.092 0
M  V30 2605 C 253.332 2.93954 -1.07518 0
M  V30 2606 C 253.807 4.21372 -1.79471 0
M  V30 2607 N 255.298 4.28303 -1.76381 0
M  V30 2608 C 256.033 5.25729 -2.28904 0
M  V30 2609 N 255.529 6.29254 -2.89846 0
M  V30 2610 N 257.322 5.17586 -2.19228 0
M  V30 2611 H 249.473 1.33415 -1.6527 0
M  V30 2612 H 251.736 0.64282 -0.696769 0
M  V30 2613 H 251.442 2.78561 -2.14701 0
M  V30 2614 H 251.316 3.7133 -0.662862 0
M  V30 2615 H 253.703 2.95086 -0.028475 0
M  V30 2616 H 253.784 2.04002 -1.54328 0
M  V30 2617 H 253.428 4.21001 -2.84114 0
M  V30 2618 H 253.358 5.10275 -1.30104 0
M  V30 2619 H 255.849 3.54119 -1.31939 0
M  V30 2620 H 256.162 6.99964 -3.27522 0
M  V30 2621 H 254.507 6.29791 -2.93919 0
M  V30 2622 H 257.698 4.35631 -1.71299 0
M  V30 2623 H 257.871 5.93348 -2.60466 0
M  V30 2624 N 251.277 0.427512 1.51691 0
M  V30 2625 C 252.525 -0.141948 2.01601 0
M  V30 2626 C 252.846 -1.44067 1.31414 0
M  V30 2627 O 252.116 -1.90763 0.445658 0
M  V30 2628 H 250.696 -0.0554468 0.744939 0
M  V30 2629 H 253.358 0.567968 1.86441 0
M  V30 2630 H 252.454 -0.324913 3.10404 0
M  V30 2631 N 252.755 -1.56801 0.158532 0
M  V30 2632 C 253.703 -2.18638 -0.793729 0
M  V30 2633 C 254.697 -1.14669 -1.24689 0
M  V30 2634 O 255.903 -1.32895 -1.21403 0
M  V30 2635 H 252.278 -0.700226 -0.274204 0
M  V30 2636 H 254.249 -2.97367 -0.248095 0
M  V30 2637 C 252.998 -2.83139 -2.0181 0
M  V30 2638 H 252.321 -3.62863 -1.67841 0
M  V30 2639 H 253.761 -3.29894 -2.66357 0
M  V30 2640 C 252.22 -1.82244 -2.83353 0
M  V30 2641 O 252.75 -1.3 -3.80083 0
M  V30 2642 N 250.956 -1.51288 -2.48114 0
M  V30 2643 H 250.503 -1.93964 -1.69516 0
M  V30 2644 H 250.461 -0.840296 -3.02963 0
M  V30 2645 N 254.233 0.115231 -1.57178 0
M  V30 2646 C 255.479 0.818565 -1.86202 0
M  V30 2647 C 255.834 1.77316 -0.746785 0
M  V30 2648 O 255.127 1.89923 0.25291 0
M  V30 2649 C 255.321 1.60324 -3.19423 0
M  V30 2650 C 255.15 0.726138 -4.43799 0
M  V30 2651 C 253.92 0.379535 -5.03873 0
M  V30 2652 C 256.118 0.0420774 -5.14283 0
M  V30 2653 N 254.1 -0.507841 -6.11796 0
M  V30 2654 C 255.471 -0.704152 -6.15988 0
M  V30 2655 C 257.526 -0.0339486 -4.97888 0
M  V30 2656 C 256.229 -1.51927 -7.03072 0
M  V30 2657 C 258.255 -0.835906 -5.85463 0
M  V30 2658 C 257.617 -1.57031 -6.86673 0
M  V30 2659 H 253.716 0.276343 -0.731545 0
M  V30 2660 H 256.3 0.0821032 -1.94527 0
M  V30 2661 H 254.471 2.31072 -3.12186 0
M  V30 2662 H 256.203 2.2522 -3.36241 0
M  V30 2663 H 252.958 0.722634 -4.68054 0
M  V30 2664 H 253.382 -0.94349 -6.70393 0
M  V30 2665 H 258.024 0.519496 -4.19596 0
M  V30 2666 H 255.742 -2.08386 -7.80769 0
M  V30 2667 H 259.328 -0.89714 -5.74841 0
M  V30 2668 H 258.208 -2.18088 -7.53264 0
M  V30 2669 N 255.711 1.52812 0.385517 0
M  V30 2670 C 256.988 1.5861 1.14465 0
M  V30 2671 C 257.368 0.381402 2.07626 0
M  V30 2672 O 256.716 -0.629999 2.19643 0
M  V30 2673 C 256.926 2.92664 1.90128 0
M  V30 2674 C 258.274 3.46526 2.45367 0
M  V30 2675 O 259.298 2.94562 2.0028 0
M  V30 2676 O 258.157 4.37323 3.27736 0
M  V30 2677 H 255.251 0.639855 0.523941 0
M  V30 2678 H 257.797 1.65149 0.390389 0
M  V30 2679 H 256.569 3.71788 1.22022 0
M  V30 2680 H 256.192 2.89527 2.72507 0
M  V30 2681 N 257.189 -0.644168 1.43834 0
M  V30 2682 C 258.099 -1.78563 1.52159 0
M  V30 2683 C 259.115 -1.69147 0.408069 0
M  V30 2684 O 260.291 -1.90156 0.663524 0
M  V30 2685 C 257.356 -3.14888 1.45073 0
M  V30 2686 C 256.417 -3.36034 2.6717 0
M  V30 2687 C 255.65 -4.65855 2.60413 0
M  V30 2688 O 255.873 -5.45805 1.65689 0
M  V30 2689 O 254.807 -4.88918 3.5106 0
M  V30 2690 H 258.633 -1.74494 2.48567 0
M  V30 2691 H 256.218 -0.80378 1.25935 0
M  V30 2692 H 258.1 -3.96179 1.43597 0
M  V30 2693 H 256.775 -3.19528 0.518037 0
M  V30 2694 H 255.682 -2.54472 2.74217 0
M  V30 2695 H 257.015 -3.36247 3.59442 0
M  V30 2696 N 258.668 -1.30515 -0.883378 0
M  V30 2697 C 259.6 -1.12846 -1.99496 0
M  V30 2698 C 260.613 -0.0712571 -1.62644 0
M  V30 2699 O 261.802 -0.317432 -1.75655 0
M  V30 2700 C 258.902 -0.699123 -3.3161 0
M  V30 2701 C 258.075 -1.83842 -3.96889 0
M  V30 2702 C 257.134 -1.39737 -5.07307 0
M  V30 2703 O 256.16 -2.10485 -5.28852 0
M  V30 2704 N 257.362 -0.277279 -5.79837 0
M  V30 2705 H 260.127 -2.08585 -2.15203 0
M  V30 2706 H 257.688 -1.22672 -1.05656 0
M  V30 2707 H 259.68 -0.387044 -4.02845 0
M  V30 2708 H 258.25 0.166276 -3.12157 0
M  V30 2709 H 257.47 -2.31853 -3.18807 0
M  V30 2710 H 258.758 -2.60187 -4.37241 0
M  V30 2711 H 258.156 0.3122 -5.64838 0
M  V30 2712 H 256.713 -0.0246623 -6.51795 0
M  V30 2713 N 260.146 1.09593 -1.13257 0
M  V30 2714 C 261.393 1.81734 -0.893257 0
M  V30 2715 C 261.721 1.8563 0.580656 0
M  V30 2716 O 260.976 1.31906 1.44566 0
M  V30 2717 C 261.275 3.27802 -1.42411 0
M  V30 2718 C 260.941 3.44041 -2.91456 0
M  V30 2719 C 259.603 3.48181 -3.3215 0
M  V30 2720 C 261.955 3.48719 -3.87356 0
M  V30 2721 C 259.283 3.54575 -4.67433 0
M  V30 2722 C 261.635 3.56648 -5.2248 0
M  V30 2723 C 260.299 3.59055 -5.62704 0
M  V30 2724 H 259.569 0.665011 -0.326866 0
M  V30 2725 H 262.216 1.2912 -1.41422 0
M  V30 2726 H 260.521 3.83042 -0.823795 0
M  V30 2727 H 262.218 3.82149 -1.21503 0
M  V30 2728 H 258.808 3.41502 -2.58987 0
M  V30 2729 H 262.992 3.44763 -3.57004 0
M  V30 2730 H 258.248 3.54725 -4.97976 0
M  V30 2731 H 262.422 3.59212 -5.96607 0
M  V30 2732 H 260.049 3.63763 -6.67518 0
M  V30 2733 N 261.624 0.925811 1.2754 0
M  V30 2734 C 262.901 0.483726 1.89524 0
M  V30 2735 C 263.281 -1.03809 1.83812 0
M  V30 2736 O 262.629 -1.89143 1.28207 0
M  V30 2737 C 262.839 1.02769 3.33526 0
M  V30 2738 C 264.187 1.08703 4.10449 0
M  V30 2739 O 265.211 0.977175 3.42534 0
M  V30 2740 O 264.07 1.25599 5.31871 0
M  V30 2741 H 261.164 0.15529 0.812289 0
M  V30 2742 H 263.71 1.01738 1.35822 0
M  V30 2743 H 262.482 2.07155 3.31967 0
M  V30 2744 H 262.105 0.475567 3.94746 0
M  V30 2745 N 263.102 -1.41638 0.69111 0
M  V30 2746 C 264.049 -2.30789 0.0229705 0
M  V30 2747 C 265.019 -1.46863 -0.775911 0
M  V30 2748 O 266.204 -1.75661 -0.74485 0
M  V30 2749 C 263.344 -3.32868 -0.910666 0
M  V30 2750 C 262.457 -4.31875 -0.103874 0
M  V30 2751 C 261.592 -5.21024 -1.03475 0
M  V30 2752 C 260.631 -6.11702 -0.220598 0
M  V30 2753 N 259.768 -6.93349 -1.10504 0
M  V30 2754 H 264.608 -2.87366 0.788978 0
M  V30 2755 H 262.145 -1.41535 0.400794 0
M  V30 2756 H 264.103 -3.90596 -1.46597 0
M  V30 2757 H 262.733 -2.77851 -1.64312 0
M  V30 2758 H 261.785 -3.76131 0.568285 0
M  V30 2759 H 263.097 -4.96003 0.527504 0
M  V30 2760 H 262.251 -5.83565 -1.65943 0
M  V30 2761 H 260.99 -4.57112 -1.69999 0
M  V30 2762 H 259.995 -5.48215 0.417187 0
M  V30 2763 H 261.22 -6.77668 0.440784 0
M  V30 2764 H 259.166 -6.3205 -1.75638 0
M  V30 2765 H 259.083 -7.54146 -0.529125 0
M  V30 2766 H 260.351 -7.60362 -1.71667 0
M  V30 2767 N 264.58 -0.43555 -1.51462 0
M  V30 2768 C 265.49 0.383001 -2.31453 0
M  V30 2769 C 266.506 1.02931 -1.4029 0
M  V30 2770 O 267.682 1.02507 -1.73362 0
M  V30 2771 C 264.747 1.47043 -3.13973 0
M  V30 2772 C 263.808 0.844433 -4.20913 0
M  V30 2773 C 263.041 1.88004 -4.9949 0
M  V30 2774 O 263.264 3.10199 -4.78678 0
M  V30 2775 O 262.198 1.47157 -5.83634 0
M  V30 2776 H 266.024 -0.269964 -3.02498 0
M  V30 2777 H 263.609 -0.19813 -1.4808 0
M  V30 2778 H 265.491 2.10113 -3.65281 0
M  V30 2779 H 264.166 2.10751 -2.45695 0
M  V30 2780 H 263.073 0.175729 -3.73687 0
M  V30 2781 H 264.406 0.250869 -4.9156 0
M  V30 2782 N 266.058 1.56714 -0.166846 0
M  V30 2783 C 267.006 2.19056 0.782123 0
M  V30 2784 C 268 1.15328 1.24079 0
M  V30 2785 O 269.206 1.33537 1.20697 0
M  V30 2786 H 265.581 0.70167 0.270486 0
M  V30 2787 H 267.552 2.97494 0.232322 0
M  V30 2788 C 266.301 2.84206 2.00306 0
M  V30 2789 H 265.624 3.63748 1.65914 0
M  V30 2790 H 267.064 3.31302 2.64604 0
M  V30 2791 C 265.523 1.83744 2.82382 0
M  V30 2792 O 266.053 1.32014 3.79388 0
M  V30 2793 N 264.259 1.52601 2.47308 0
M  V30 2794 H 263.806 1.9486 1.68485 0
M  V30 2795 H 263.764 0.856351 3.02513 0
M  V30 2796 N 267.536 -0.106894 1.57237 0
M  V30 2797 C 268.764 -0.826389 1.8968 0
M  V30 2798 C 269.179 -1.72856 0.759353 0
M  V30 2799 O 268.536 -1.80503 -0.269263 0
M  V30 2800 C 268.587 -1.64967 3.21665 0
M  V30 2801 O 268.308 -0.783804 4.31031 0
M  V30 2802 C 269.809 -2.47326 3.67892 0
M  V30 2803 H 267.029 -0.236927 0.627779 0
M  V30 2804 H 269.573 -0.0876593 2.04312 0
M  V30 2805 H 267.728 -2.34103 3.08666 0
M  V30 2806 H 268.142 -1.35284 5.06753 0
M  V30 2807 H 269.616 -3.00604 4.6297 0
M  V30 2808 H 270.093 -3.25247 2.95146 0
M  V30 2809 H 270.699 -1.83411 3.83719 0
M  V30 2810 N 269.014 -1.53014 -0.377408 0
M  V30 2811 C 269.924 -1.81557 -1.48574 0
M  V30 2812 C 270.94 -0.703102 -1.59162 0
M  V30 2813 O 272.116 -0.99192 -1.75279 0
M  V30 2814 C 269.181 -1.9889 -2.83978 0
M  V30 2815 C 268.242 -3.22801 -2.83016 0
M  V30 2816 C 267.475 -3.39298 -4.11962 0
M  V30 2817 O 267.698 -2.60345 -5.0752 0
M  V30 2818 O 266.632 -4.32604 -4.18494 0
M  V30 2819 H 270.458 -2.75695 -1.27382 0
M  V30 2820 H 268.043 -1.38248 -0.566373 0
M  V30 2821 H 269.925 -2.11931 -3.6423 0
M  V30 2822 H 268.6 -1.07942 -3.05172 0
M  V30 2823 H 267.507 -3.15193 -2.01505 0
M  V30 2824 H 268.84 -4.13632 -2.66775 0
M  V30 2825 N 270.492 0.636531 -1.44174 0
M  V30 2826 C 271.402 1.77754 -1.53103 0
M  V30 2827 C 272.418 1.68928 -0.417034 0
M  V30 2828 O 273.594 1.89801 -0.6736 0
M  V30 2829 C 270.659 3.14115 -1.46741 0
M  V30 2830 C 269.72 3.34612 -2.68948 0
M  V30 2831 C 268.953 4.64467 -2.6288 0
M  V30 2832 O 269.176 5.44919 -1.68581 0
M  V30 2833 O 268.11 4.87049 -3.53648 0
M  V30 2834 H 271.936 1.73174 -2.49489 0
M  V30 2835 H 269.521 0.79709 -1.2636 0
M  V30 2836 H 271.403 3.95412 -1.45696 0
M  V30 2837 H 270.078 3.19249 -0.534975 0
M  V30 2838 H 268.985 2.53014 -2.75562 0
M  V30 2839 H 270.318 3.34336 -3.61221 0
M  V30 2840 N 271.97 1.30982 0.876444 0
M  V30 2841 C 273.386 1.09498 1.16113 0
M  V30 2842 C 273.586 -0.13875 2.01022 0
M  V30 2843 O 272.642 -0.829935 2.38471 0
M  V30 2844 C 273.955 2.36308 1.85954 0
M  V30 2845 C 275.503 2.41856 1.98683 0
M  V30 2846 C 275.978 3.6853 2.71937 0
M  V30 2847 N 277.469 3.69387 2.79477 0
M  V30 2848 C 278.204 4.64096 3.36753 0
M  V30 2849 N 277.7 5.69155 3.95012 0
M  V30 2850 N 279.493 4.51626 3.3465 0
M  V30 2851 H 271.644 2.10118 0.310494 0
M  V30 2852 H 273.907 0.926634 0.200131 0
M  V30 2853 H 273.613 3.26388 1.31011 0
M  V30 2854 H 273.487 2.4561 2.86278 0
M  V30 2855 H 275.874 1.52249 2.52793 0
M  V30 2856 H 275.955 2.36523 0.9742 0
M  V30 2857 H 275.599 4.58499 2.18496 0
M  V30 2858 H 275.529 3.71127 3.73593 0
M  V30 2859 H 278.02 2.93438 2.38123 0
M  V30 2860 H 278.333 6.3751 4.36808 0
M  V30 2861 H 276.678 5.72937 3.93406 0
M  V30 2862 H 279.869 3.68728 2.8837 0
M  V30 2863 H 280.042 5.25614 3.7899 0
M  V30 2864 N 273.449 -1.08991 1.13837 0
M  V30 2865 C 274.379 -2.17771 0.842507 0
M  V30 2866 C 275.36 -1.6892 -0.20001 0
M  V30 2867 O 276.545 -1.94113 -0.0579731 0
M  V30 2868 C 273.675 -3.4589 0.312644 0
M  V30 2869 C 272.629 -4.08099 1.28992 0
M  V30 2870 C 271.955 -5.31098 0.619623 0
M  V30 2871 C 273.255 -4.50077 2.65005 0
M  V30 2872 H 274.949 -2.42777 1.75213 0
M  V30 2873 H 272.495 -1.16682 0.843875 0
M  V30 2874 H 274.448 -4.21297 0.0933043 0
M  V30 2875 H 273.172 -3.20419 -0.632382 0
M  V30 2876 H 271.831 -3.34717 1.49533 0
M  V30 2877 H 271.479 -5.0191 -0.33102 0
M  V30 2878 H 271.179 -5.73674 1.27167 0
M  V30 2879 H 272.703 -6.09224 0.409669 0
M  V30 2880 H 274.117 -5.16688 2.48407 0
M  V30 2881 H 272.514 -5.03553 3.26427 0
M  V30 2882 H 273.584 -3.62257 3.22332 0
M  V30 2883 N 274.927 -0.932562 -1.27047 0
M  V30 2884 C 276.174 -0.575559 -1.94148 0
M  V30 2885 C 276.502 0.883984 -1.73251 0
M  V30 2886 O 275.757 1.64655 -1.0577 0
M  V30 2887 C 276.056 -0.853713 -3.47054 0
M  V30 2888 C 275.722 -2.29577 -3.88079 0
M  V30 2889 C 274.384 -2.68999 -3.9899 0
M  V30 2890 C 276.736 -3.23331 -4.08787 0
M  V30 2891 C 274.064 -4.01289 -4.28 0
M  V30 2892 C 276.416 -4.55207 -4.39282 0
M  V30 2893 C 275.08 -4.94457 -4.48407 0
M  V30 2894 H 274.35 -0.210612 -0.710439 0
M  V30 2895 H 276.997 -1.17744 -1.51025 0
M  V30 2896 H 275.302 -0.169204 -3.91434 0
M  V30 2897 H 276.999 -0.55639 -3.97121 0
M  V30 2898 H 273.589 -1.97994 -3.80127 0
M  V30 2899 H 277.773 -2.94074 -3.99793 0
M  V30 2900 H 273.029 -4.31374 -4.33275 0
M  V30 2901 H 277.203 -5.27852 -4.54252 0
M  V30 2902 H 274.83 -5.96994 -4.7064 0
M  V30 2903 N 276.405 1.4127 -0.698611 0
M  V30 2904 C 277.352 2.30773 -0.0352094 0
M  V30 2905 C 278.322 1.47273 0.768111 0
M  V30 2906 O 279.507 1.76053 0.735524 0
M  V30 2907 C 276.647 3.33346 0.893 0
M  V30 2908 C 275.76 4.31924 0.0809695 0
M  V30 2909 C 274.895 5.21566 1.0071 0
M  V30 2910 C 273.934 6.11811 0.188155 0
M  V30 2911 N 273.071 6.93926 1.06825 0
M  V30 2912 H 277.911 2.86943 -0.804207 0
M  V30 2913 H 275.448 1.4132 -0.408294 0
M  V30 2914 H 277.406 3.91368 1.44523 0
M  V30 2915 H 276.036 2.78719 1.62836 0
M  V30 2916 H 275.088 3.75825 -0.588224 0
M  V30 2917 H 276.4 4.95716 -0.553801 0
M  V30 2918 H 275.554 5.84437 1.62845 0
M  V30 2919 H 274.293 4.58008 1.67572 0
M  V30 2920 H 273.298 5.47986 -0.446254 0
M  V30 2921 H 274.523 6.77425 -0.476716 0
M  V30 2922 H 272.469 6.32973 1.72283 0
M  V30 2923 H 272.386 7.54416 0.489123 0
M  V30 2924 H 273.654 7.61262 1.67632 0
M  V30 2925 N 277.883 0.443576 1.51229 0
M  V30 2926 C 279.129 -0.120975 2.02439 0
M  V30 2927 C 279.462 -1.41815 1.32674 0
M  V30 2928 O 278.737 -1.89373 0.443622 0
M  V30 2929 C 279.02 -0.333291 3.58554 0
M  V30 2930 C 278.873 0.982968 4.38928 0
M  V30 2931 C 280.192 -1.10028 4.26124 0
M  V30 2932 H 277.311 -0.0424923 0.735774 0
M  V30 2933 H 279.953 0.583794 1.80809 0
M  V30 2934 H 278.103 -0.933614 3.77115 0
M  V30 2935 H 279.775 1.61775 4.32003 0
M  V30 2936 H 278.018 1.58611 4.03763 0
M  V30 2937 H 278.689 0.788379 5.46341 0
M  V30 2938 H 281.165 -0.591711 4.11871 0
M  V30 2939 H 280.041 -1.21761 5.35225 0
M  V30 2940 H 280.302 -2.12996 3.87408 0
M  V30 2941 N 279.361 -1.56624 0.175154 0
M  V30 2942 C 280.586 -2.01813 -0.478137 0
M  V30 2943 C 281.011 -1.05457 -1.55757 0
M  V30 2944 O 280.369 -0.0347439 -1.81267 0
M  V30 2945 C 280.417 -3.45581 -1.02987 0
M  V30 2946 O 279.521 -3.52305 -2.14371 0
M  V30 2947 H 278.862 -0.65413 -0.114059 0
M  V30 2948 H 281.392 -2.02673 0.280173 0
M  V30 2949 H 281.402 -3.84965 -1.35151 0
M  V30 2950 H 280.077 -4.1521 -0.239556 0
M  V30 2951 H 278.654 -3.24783 -1.83222 0
M  V30 2952 N 280.839 0.0985539 -1.57292 0
M  V30 2953 C 281.786 1.11981 -2.01814 0
M  V30 2954 C 282.756 1.39999 -0.89384 0
M  V30 2955 O 283.941 1.5152 -1.15958 0
M  V30 2956 C 281.081 2.43577 -2.44467 0
M  V30 2957 C 280.194 2.2232 -3.70402 0
M  V30 2958 C 279.329 3.4729 -4.01949 0
M  V30 2959 C 278.368 3.2128 -5.21005 0
M  V30 2960 N 277.505 4.38507 -5.48321 0
M  V30 2961 H 282.345 0.733149 -2.88841 0
M  V30 2962 H 279.882 0.350482 -1.42864 0
M  V30 2963 H 281.84 3.20373 -2.6724 0
M  V30 2964 H 280.47 2.80097 -1.60455 0
M  V30 2965 H 279.522 1.36343 -3.55126 0
M  V30 2966 H 280.834 1.99089 -4.57345 0
M  V30 2967 H 279.988 4.32495 -4.25479 0
M  V30 2968 H 278.727 3.73572 -3.13521 0
M  V30 2969 H 277.732 2.34468 -4.97298 0
M  V30 2970 H 278.957 2.96348 -6.11028 0
M  V30 2971 H 276.903 4.64871 -4.62851 0
M  V30 2972 H 276.82 4.18455 -6.29628 0
M  V30 2973 H 278.088 5.24787 -5.76385 0
M  V30 2974 N 282.317 1.53212 0.369288 0
M  V30 2975 C 283.265 1.80054 1.47253 0
M  V30 2976 C 284.259 0.669456 1.55611 0
M  V30 2977 O 285.465 0.852328 1.58541 0
M  V30 2978 H 281.84 0.570034 0.490475 0
M  V30 2979 H 283.811 2.72403 1.21817 0
M  V30 2980 C 282.56 2.00403 2.84137 0
M  V30 2981 H 281.883 2.86876 2.78464 0
M  V30 2982 H 283.323 2.23164 3.60519 0
M  V30 2983 C 281.782 0.782081 3.27697 0
M  V30 2984 O 282.312 -0.0310205 4.01688 0
M  V30 2985 N 280.518 0.606573 2.84199 0
M  V30 2986 H 280.065 1.26939 2.24152 0
M  V30 2987 H 280.023 -0.20962 3.137 0
M  V30 2988 N 283.795 -0.628877 1.44509 0
M  V30 2989 C 284.705 -1.7694 1.54044 0
M  V30 2990 C 285.721 -1.68705 0.425987 0
M  V30 2991 O 286.897 -1.89442 0.683656 0
M  V30 2992 C 283.962 -3.13332 1.48405 0
M  V30 2993 C 283.023 -3.33181 2.70719 0
M  V30 2994 C 282.256 -4.63067 2.6534 0
M  V30 2995 O 282.479 -5.44017 1.71469 0
M  V30 2996 O 281.413 -4.85167 3.56226 0
M  V30 2997 H 285.239 -1.71848 2.50403 0
M  V30 2998 H 282.824 -0.790378 1.26781 0
M  V30 2999 H 284.706 -3.94634 1.47791 0
M  V30 3000 H 283.381 -3.1896 0.551898 0
M  V30 3001 H 282.288 -2.51549 2.769 0
M  V30 3002 H 283.621 -3.32416 3.62988 0
M  V30 3003 N 285.273 -1.31445 -0.869486 0
M  V30 3004 C 286.183 -1.21097 -2.0093 0
M  V30 3005 C 287.199 -0.127584 -1.73532 0
M  V30 3006 O 288.375 -0.345477 -1.98415 0
M  V30 3007 C 285.44 -0.919378 -3.34288 0
M  V30 3008 C 284.501 -2.08971 -3.75006 0
M  V30 3009 C 283.734 -1.81194 -5.02001 0
M  V30 3010 O 283.957 -0.747296 -5.65484 0
M  V30 3011 O 282.891 -2.66883 -5.39497 0
M  V30 3012 H 286.717 -2.16883 -2.12592 0
M  V30 3013 H 284.302 -1.11189 -0.997868 0
M  V30 3014 H 286.184 -0.772625 -4.14257 0
M  V30 3015 H 284.859 0.00844772 -3.23699 0
M  V30 3016 H 283.766 -2.29187 -2.95676 0
M  V30 3017 H 285.099 -2.9998 -3.90221 0
M  V30 3018 N 286.751 1.08385 -1.14413 0
M  V30 3019 C 287.698 2.15311 -0.831265 0
M  V30 3020 C 288.668 1.64751 0.211292 0
M  V30 3021 O 289.853 1.90627 0.0811674 0
M  V30 3022 C 286.993 3.43658 -0.315143 0
M  V30 3023 C 286.106 4.08064 -1.41802 0
M  V30 3024 C 285.241 5.24207 -0.859126 0
M  V30 3025 C 284.28 5.80554 -1.93967 0
M  V30 3026 N 283.417 6.88042 -1.39793 0
M  V30 3027 H 288.257 2.41415 -1.74708 0
M  V30 3028 H 285.794 1.18474 -0.871909 0
M  V30 3029 H 287.752 4.172 0.00230884 0
M  V30 3030 H 286.382 3.17839 0.56378 0
M  V30 3031 H 285.434 3.3228 -1.85187 0
M  V30 3032 H 286.746 4.45962 -2.23427 0
M  V30 3033 H 285.9 6.04689 -0.49359 0
M  V30 3034 H 284.639 4.87699 -0.011932 0
M  V30 3035 H 283.644 4.98725 -2.31415 0
M  V30 3036 H 284.869 6.19121 -2.79046 0
M  V30 3037 H 282.815 6.53493 -0.572919 0
M  V30 3038 H 282.732 7.24767 -2.15054 0
M  V30 3039 H 284 7.72255 -1.0603 0
M  V30 3040 N 288.23 0.939286 1.26551 0
M  V30 3041 C 289.641 0.628782 1.75793 0
M  V30 3042 C 289.992 -0.856046 1.7654 0
M  V30 3043 O 289.117 -1.66994 1.3763 0
M  V30 3044 C 289.712 1.13465 3.19235 0
M  V30 3045 C 288.271 0.874601 3.66098 0
M  V30 3046 C 287.418 1.28667 2.45642 0
M  V30 3047 H 290.369 1.1178 1.12654 0
M  V30 3048 H 290.39 0.487609 3.77363 0
M  V30 3049 H 289.902 2.21535 3.1866 0
M  V30 3050 H 288.003 -0.191793 3.72106 0
M  V30 3051 H 288.116 1.50028 4.55004 0
M  V30 3052 H 286.48 0.705109 2.44745 0
M  V30 3053 H 287.263 2.37625 2.47769 0
M  V30 3054 N 289.708 -1.40897 0.706093 0
M  V30 3055 C 290.954 -2.01352 0.241889 0
M  V30 3056 C 291.287 -1.55832 -1.15888 0
M  V30 3057 O 290.562 -0.774145 -1.7843 0
M  V30 3058 C 290.845 -3.58752 0.311311 0
M  V30 3059 C 290.698 -4.1437 1.74978 0
M  V30 3060 C 292.017 -4.38914 -0.322922 0
M  V30 3061 H 289.136 -0.731562 0.0893687 0
M  V30 3062 H 291.778 -1.67504 0.896802 0
M  V30 3063 H 289.928 -3.87718 -0.246302 0
M  V30 3064 H 291.6 -3.96239 2.36205 0
M  V30 3065 H 289.843 -3.69016 2.28057 0
M  V30 3066 H 290.514 -5.23532 1.74981 0
M  V30 3067 H 292.99 -4.15822 0.152089 0
M  V30 3068 H 291.866 -5.48358 -0.243855 0
M  V30 3069 H 292.127 -4.19176 -1.40513 0
M  V30 3070 N 291.186 -0.45159 -1.50991 0
M  V30 3071 C 292.118 0.388634 -2.25881 0
M  V30 3072 C 293.131 0.974041 -1.30446 0
M  V30 3073 O 294.32 0.865758 -1.56099 0
M  V30 3074 C 291.42 1.5571 -3.01011 0
M  V30 3075 C 290.593 1.08801 -4.23652 0
M  V30 3076 C 289.652 2.12825 -4.8124 0
M  V30 3077 O 288.678 1.71678 -5.42693 0
M  V30 3078 N 289.88 3.45453 -4.66522 0
M  V30 3079 H 292.645 -0.25329 -2.98628 0
M  V30 3080 H 290.206 -0.281268 -1.59438 0
M  V30 3081 H 292.198 2.24952 -3.3642 0
M  V30 3082 H 290.768 2.10409 -2.31186 0
M  V30 3083 H 289.988 0.22215 -3.93574 0
M  V30 3084 H 291.276 0.752213 -5.03209 0
M  V30 3085 H 290.674 3.81605 -4.17605 0
M  V30 3086 H 289.231 4.10549 -5.06254 0
M  V30 3087 N 292.664 1.56529 -0.183458 0
M  V30 3088 C 293.597 2.14417 0.781052 0
M  V30 3089 C 294.575 1.07761 1.21763 0
M  V30 3090 O 295.759 1.35807 1.30724 0
M  V30 3091 C 292.886 2.69361 2.05335 0
M  V30 3092 C 291.932 3.885 1.75982 0
M  V30 3093 S 292.765 5.27568 0.918256 0
M  V30 3094 C 293.921 5.85926 2.20095 0
M  V30 3095 H 294.154 2.95893 0.2889 0
M  V30 3096 H 291.687 1.54368 0.0313844 0
M  V30 3097 H 293.645 3.01662 2.78406 0
M  V30 3098 H 292.306 1.87949 2.51663 0
M  V30 3099 H 291.499 4.25314 2.70415 0
M  V30 3100 H 291.101 3.57149 1.10999 0
M  V30 3101 H 293.393 5.99579 3.15453 0
M  V30 3102 H 294.336 6.82761 1.87731 0
M  V30 3103 H 294.744 5.14438 2.32409 0
M  V30 3104 N 294.142 -0.090211 1.57342 0
M  V30 3105 C 295.075 -1.14035 1.97664 0
M  V30 3106 C 296.053 -1.38576 0.850616 0
M  V30 3107 O 297.237 -1.52255 1.11134 0
M  V30 3108 C 294.364 -2.48854 2.2976 0
M  V30 3109 C 293.41 -2.40564 3.52181 0
M  V30 3110 S 294.243 -1.81745 5.03715 0
M  V30 3111 C 295.399 -3.18178 5.38993 0
M  V30 3112 H 295.632 -0.796636 2.86428 0
M  V30 3113 H 293.165 -0.298072 1.51496 0
M  V30 3114 H 295.123 -3.26413 2.48927 0
M  V30 3115 H 293.784 -2.80393 1.41558 0
M  V30 3116 H 292.977 -3.39942 3.72096 0
M  V30 3117 H 292.579 -1.71135 3.32549 0
M  V30 3118 H 294.871 -4.14461 5.35937 0
M  V30 3119 H 295.814 -3.03062 6.39968 0
M  V30 3120 H 296.222 -3.17935 4.66452 0
M  V30 3121 N 295.62 -1.53406 -0.361157 0
M  V30 3122 C 296.867 -1.69802 -1.10333 0
M  V30 3123 C 297.195 -0.452087 -1.89173 0
M  V30 3124 O 296.45 0.566017 -1.87336 0
M  V30 3125 C 296.749 -2.90211 -2.08596 0
M  V30 3126 C 296.415 -4.26539 -1.46203 0
M  V30 3127 C 295.077 -4.6361 -1.28915 0
M  V30 3128 C 297.429 -5.113 -1.01101 0
M  V30 3129 C 294.757 -5.83075 -0.651157 0
M  V30 3130 C 297.109 -6.31415 -0.387007 0
M  V30 3131 C 295.773 -6.67195 -0.201657 0
M  V30 3132 H 295.043 -0.621351 -0.403737 0
M  V30 3133 H 297.69 -1.87598 -0.384609 0
M  V30 3134 H 295.995 -2.66946 -2.86788 0
M  V30 3135 H 297.692 -3.00091 -2.65982 0
M  V30 3136 H 294.282 -3.97352 -1.60653 0
M  V30 3137 H 298.466 -4.83206 -1.13249 0
M  V30 3138 H 293.722 -6.09385 -0.496006 0
M  V30 3139 H 297.896 -6.96394 -0.0293563 0
M  V30 3140 H 295.523 -7.59628 0.294766 0
M  V30 3141 N 297.098 0.621204 -1.44841 0
M  V30 3142 C 298.045 1.73267 -1.5247 0
M  V30 3143 C 299.015 1.6189 -0.371611 0
M  V30 3144 O 300.2 1.81668 -0.58321 0
M  V30 3145 C 297.34 3.11545 -1.48438 0
M  V30 3146 C 296.453 3.33827 -2.74196 0
M  V30 3147 C 295.588 4.62133 -2.61929 0
M  V30 3148 C 294.627 4.77627 -3.82804 0
M  V30 3149 N 293.764 5.97219 -3.69153 0
M  V30 3150 H 298.604 1.66082 -2.47428 0
M  V30 3151 H 296.141 0.810026 -1.22788 0
M  V30 3152 H 298.099 3.91528 -1.4409 0
M  V30 3153 H 296.729 3.1772 -0.570402 0
M  V30 3154 H 295.781 2.47715 -2.88689 0
M  V30 3155 H 297.093 3.41153 -3.6389 0
M  V30 3156 H 296.247 5.50291 -2.5547 0
M  V30 3157 H 294.986 4.57182 -1.69811 0
M  V30 3158 H 293.991 3.87896 -3.89637 0
M  V30 3159 H 295.216 4.84385 -4.75971 0
M  V30 3160 H 293.162 5.93339 -2.79794 0
M  V30 3161 H 293.079 6.05644 -4.52472 0
M  V30 3162 H 294.347 6.87912 -3.66603 0
M  V30 3163 N 298.576 1.31904 0.862503 0
M  V30 3164 C 299.508 1.16005 1.97675 0
M  V30 3165 C 300.521 0.0971234 1.6251 0
M  V30 3166 O 301.71 0.345337 1.75128 0
M  V30 3167 C 298.81 0.751791 3.30456 0
M  V30 3168 C 297.983 1.90133 3.93914 0
M  V30 3169 C 297.042 1.4779 5.05019 0
M  V30 3170 O 296.068 2.18872 5.25437 0
M  V30 3171 N 297.27 0.369491 5.79323 0
M  V30 3172 H 300.035 2.11982 2.11857 0
M  V30 3173 H 297.596 1.24337 1.03691 0
M  V30 3174 H 299.588 0.451084 4.02178 0
M  V30 3175 H 298.158 -0.116593 3.12382 0
M  V30 3176 H 297.378 2.36896 3.15078 0
M  V30 3177 H 298.666 2.67111 4.33047 0
M  V30 3178 H 298.064 -0.222299 5.65263 0
M  V30 3179 H 296.621 0.128354 6.51674 0
M  V30 3180 N 300.054 -1.07777 1.14986 0
M  V30 3181 C 301.279 -1.84558 0.946213 0
M  V30 3182 C 301.704 -1.81323 -0.500362 0
M  V30 3183 O 301.062 -1.20301 -1.35637 0
M  V30 3184 C 301.11 -3.29736 1.45968 0
M  V30 3185 O 300.214 -4.07149 0.65601 0
M  V30 3186 H 299.555 -0.571641 0.33782 0
M  V30 3187 H 302.085 -1.35991 1.52865 0
M  V30 3188 H 302.095 -3.80574 1.47063 0
M  V30 3189 H 300.77 -3.31406 2.51283 0
M  V30 3190 H 299.347 -3.65994 0.714322 0
M  V30 3191 N 301.532 -0.945985 -1.26051 0
M  V30 3192 C 302.76 -0.613025 -1.9761 0
M  V30 3193 C 303.175 0.813035 -1.70397 0
M  V30 3194 O 302.532 1.54274 -0.974979 0
M  V30 3195 C 302.583 -0.85159 -3.51326 0
M  V30 3196 O 302.304 -2.22157 -3.77595 0
M  V30 3197 C 303.805 -0.529831 -4.40122 0
M  V30 3198 H 301.025 -0.230593 -0.630133 0
M  V30 3199 H 303.569 -1.268 -1.60443 0
M  V30 3200 H 301.724 -0.243151 -3.86636 0
M  V30 3201 H 302.138 -2.2852 -4.721 0
M  V30 3202 H 303.612 -0.747348 -5.46917 0
M  V30 3203 H 304.089 0.535341 -4.35925 0
M  V30 3204 H 304.695 -1.11721 -4.10364 0
M  V30 3205 N 303.011 1.40521 -0.713556 0
M  V30 3206 C 304.258 2.00923 -0.25219 0
M  V30 3207 C 304.586 1.56571 1.15395 0
M  V30 3208 O 303.841 0.775874 1.79663 0
M  V30 3209 C 304.14 3.56317 -0.278 0
M  V30 3210 C 303.806 4.20246 -1.63415 0
M  V30 3211 C 302.468 4.37422 -2.00538 0
M  V30 3212 C 304.82 4.55923 -2.52554 0
M  V30 3213 C 302.148 4.87558 -3.2635 0
M  V30 3214 C 304.5 5.07458 -3.77716 0
M  V30 3215 C 303.164 5.22843 -4.14959 0
M  V30 3216 H 302.434 0.735231 -0.0922829 0
M  V30 3217 H 305.081 1.68161 -0.916188 0
M  V30 3218 H 303.386 3.88976 0.469567 0
M  V30 3219 H 305.083 4.00883 0.0967819 0
M  V30 3220 H 301.673 4.07263 -1.33546 0
M  V30 3221 H 305.857 4.42291 -2.25149 0
M  V30 3222 H 301.113 4.97654 -3.55176 0
M  V30 3223 H 305.287 5.34041 -4.4696 0
M  V30 3224 H 302.914 5.61454 -5.12516 0
M  V30 3225 N 304.489 0.459591 1.5075 0
M  V30 3226 C 305.436 -0.340524 2.28274 0
M  V30 3227 C 306.406 -0.997371 1.32822 0
M  V30 3228 O 307.591 -1.01202 1.61749 0
M  V30 3229 C 304.731 -1.42317 3.14388 0
M  V30 3230 C 303.844 -0.782251 4.24859 0
M  V30 3231 C 302.979 -1.84182 4.98247 0
M  V30 3232 C 302.018 -1.18053 6.00608 0
M  V30 3233 N 301.155 -2.18244 6.67319 0
M  V30 3234 H 305.995 0.326899 2.96202 0
M  V30 3235 H 303.532 0.173057 1.46078 0
M  V30 3236 H 305.49 -2.06241 3.62658 0
M  V30 3237 H 304.12 -2.05992 2.4853 0
M  V30 3238 H 303.172 -0.0307404 3.80388 0
M  V30 3239 H 304.484 -0.259663 4.98124 0
M  V30 3240 H 303.638 -2.55714 5.50177 0
M  V30 3241 H 302.377 -2.39819 4.24662 0
M  V30 3242 H 301.382 -0.450776 5.47949 0
M  V30 3243 H 302.607 -0.631202 6.7616 0
M  V30 3244 H 300.553 -2.72919 5.96533 0
M  V30 3245 H 300.47 -1.70938 7.36421 0
M  V30 3246 H 301.738 -2.89191 7.23871 0
M  V30 3247 N 305.967 -1.56429 0.191757 0
M  V30 3248 C 306.914 -2.18936 -0.730454 0
M  V30 3249 C 307.884 -1.13557 -1.21219 0
M  V30 3250 O 309.069 -1.41794 -1.27668 0
M  V30 3251 C 306.209 -2.85013 -1.9458 0
M  V30 3252 C 305.322 -4.04909 -1.50574 0
M  V30 3253 C 304.457 -4.58853 -2.67634 0
M  V30 3254 C 303.496 -5.71114 -2.20217 0
M  V30 3255 N 302.633 -6.19478 -3.30442 0
M  V30 3256 H 307.473 -2.97389 -0.190664 0
M  V30 3257 H 305.01 -1.46869 -0.0823694 0
M  V30 3258 H 306.968 -3.21492 -2.65893 0
M  V30 3259 H 305.598 -2.09129 -2.45896 0
M  V30 3260 H 304.65 -3.74115 -0.688605 0
M  V30 3261 H 305.962 -4.86113 -1.11784 0
M  V30 3262 H 305.116 -4.97619 -3.47074 0
M  V30 3263 H 303.855 -3.76749 -3.09696 0
M  V30 3264 H 302.86 -5.31879 -1.3923 0
M  V30 3265 H 304.085 -6.55033 -1.79189 0
M  V30 3266 H 302.031 -5.40297 -3.72041 0
M  V30 3267 H 301.948 -6.95725 -2.9581 0
M  V30 3268 H 303.216 -6.62898 -4.10106 0
M  V30 3269 N 307.445 0.0818655 -1.57387 0
M  V30 3270 C 308.673 0.796108 -1.9097 0
M  V30 3271 C 309.088 1.71626 -0.786757 0
M  V30 3272 O 308.445 1.80908 0.240513 0
M  V30 3273 C 308.496 1.59829 -3.24248 0
M  V30 3274 O 308.217 0.715131 -4.32224 0
M  V30 3275 C 309.718 2.41442 -3.7178 0
M  V30 3276 H 306.938 0.22691 -0.631469 0
M  V30 3277 H 309.482 0.0551439 -2.04426 0
M  V30 3278 H 307.637 2.29163 -3.12351 0
M  V30 3279 H 308.051 1.27205 -5.08841 0
M  V30 3280 H 309.525 2.932 -4.67694 0
M  V30 3281 H 310.002 3.2051 -3.00283 0
M  V30 3282 H 310.608 1.77283 -3.86589 0
M  V30 3283 N 308.923 1.53595 0.353017 0
M  V30 3284 C 310.153 1.74058 1.11299 0
M  V30 3285 C 310.561 0.475205 1.83135 0
M  V30 3286 O 309.904 -0.562344 1.74881 0
M  V30 3287 C 309.966 2.85994 2.17825 0
M  V30 3288 C 309.63 4.25923 1.65647 0
M  V30 3289 C 310.627 5.07829 1.11383 0
M  V30 3290 C 308.312 4.72377 1.7078 0
M  V30 3291 C 310.306 6.34285 0.629439 0
M  V30 3292 C 307.993 5.98808 1.21953 0
M  V30 3293 C 308.991 6.79594 0.681265 0
M  V30 3294 O 308.679 8.03651 0.200248 0
M  V30 3295 H 308.411 0.585327 0.338183 0
M  V30 3296 H 310.965 2.01186 0.413927 0
M  V30 3297 H 309.195 2.54368 2.91262 0
M  V30 3298 H 310.884 2.94515 2.79313 0
M  V30 3299 H 311.65 4.73107 1.06746 0
M  V30 3300 H 307.529 4.0956 2.11617 0
M  V30 3301 H 311.073 6.97288 0.208636 0
M  V30 3302 H 306.97 6.33026 1.26287 0
M  V30 3303 H 307.738 8.1788 0.318416 0
M  V30 3304 N 310.401 -0.613514 1.45168 0
M  V30 3305 C 311.65 -1.36874 1.4815 0
M  V30 3306 C 311.963 -1.952 0.124982 0
M  V30 3307 O 313.169 -2.71481 0.0324176 0
M  V30 3308 C 311.625 -2.47905 2.60904 0
M  V30 3309 C 311.233 -1.96016 4.02842 0
M  V30 3310 C 312.977 -3.24965 2.73126 0
M  V30 3311 C 310.884 -3.04494 5.06988 0
M  V30 3312 H 309.814 -0.514428 0.551253 0
M  V30 3313 H 312.465 -0.658182 1.7129 0
M  V30 3314 H 310.847 -3.21618 2.31037 0
M  V30 3315 H 312.021 -1.29051 4.4236 0
M  V30 3316 H 310.336 -1.31719 3.95018 0
M  V30 3317 H 312.933 -4.05865 3.48106 0
M  V30 3318 H 313.276 -3.75588 1.79553 0
M  V30 3319 H 313.809 -2.5835 3.0249 0
M  V30 3320 H 310.548 -2.58795 6.0225 0
M  V30 3321 H 310.068 -3.70044 4.72046 0
M  V30 3322 H 311.747 -3.68976 5.31475 0
M  V30 3323 N 311.879 -1.3236 -0.855495 0
M  V30 3324 C 313.127 -1.22629 -1.60644 0
M  V30 3325 C 313.448 0.212136 -1.93843 0
M  V30 3326 O 312.718 1.13666 -1.59552 0
M  V30 3327 H 311.298 -0.450882 -0.595579 0
M  V30 3328 H 313.96 -1.65871 -1.02337 0
M  V30 3329 H 313.056 -1.80832 -2.54374 0
M  V30 3330 N 313.357 1.07166 -1.15556 0
M  V30 3331 C 314.267 2.17947 -0.868116 0
M  V30 3332 C 315.283 1.73297 0.156297 0
M  V30 3333 O 316.459 2.01392 -0.0182327 0
M  V30 3334 C 313.524 3.44789 -0.36355 0
M  V30 3335 C 312.585 4.03996 -1.45209 0
M  V30 3336 C 311.818 5.24783 -0.971508 0
M  V30 3337 O 312.041 5.70109 0.182194 0
M  V30 3338 O 310.975 5.75715 -1.75603 0
M  V30 3339 H 314.801 2.4503 -1.79427 0
M  V30 3340 H 312.386 1.16539 -0.934824 0
M  V30 3341 H 314.268 4.21307 -0.0887113 0
M  V30 3342 H 312.943 3.19253 0.534708 0
M  V30 3343 H 311.85 3.29009 -1.78056 0
M  V30 3344 H 313.183 4.33808 -2.32533 0
M  V30 3345 N 314.835 0.952656 1.25548 0
M  V30 3346 C 316.084 0.602053 1.92505 0
M  V30 3347 C 316.397 -0.864663 1.75451 0
M  V30 3348 O 317.603 -1.32514 2.36965 0
M  V30 3349 C 316.059 1.02607 3.44963 0
M  V30 3350 C 315.667 2.51519 3.70732 0
M  V30 3351 C 317.411 0.747905 4.1786 0
M  V30 3352 C 315.318 2.87732 5.16686 0
M  V30 3353 H 314.248 0.22146 0.720744 0
M  V30 3354 H 316.899 1.15684 1.42441 0
M  V30 3355 H 315.281 0.399712 3.93978 0
M  V30 3356 H 316.455 3.19157 3.32378 0
M  V30 3357 H 314.77 2.76786 3.11092 0
M  V30 3358 H 317.367 0.994647 5.25367 0
M  V30 3359 H 317.71 -0.315629 4.15102 0
M  V30 3360 H 318.243 1.33452 3.74747 0
M  V30 3361 H 314.982 3.93095 5.24554 0
M  V30 3362 H 314.502 2.24765 5.56094 0
M  V30 3363 H 316.181 2.76817 5.84792 0
M  V30 3364 N 316.313 -1.40141 0.720998 0
M  V30 3365 C 317.56 -2.00787 0.262842 0
M  V30 3366 C 317.888 -1.5718 -1.14563 0
M  V30 3367 O 317.143 -0.785391 -1.79249 0
M  V30 3368 C 317.442 -3.56165 0.296892 0
M  V30 3369 C 317.108 -4.19373 1.65641 0
M  V30 3370 C 315.77 -4.36352 2.02855 0
M  V30 3371 C 318.122 -4.54578 2.54968 0
M  V30 3372 C 315.45 -4.8582 3.28931 0
M  V30 3373 C 317.802 -5.05447 3.80402 0
M  V30 3374 C 316.466 -5.20635 4.17726 0
M  V30 3375 H 315.736 -0.734731 0.0961807 0
M  V30 3376 H 318.383 -1.67673 0.925093 0
M  V30 3377 H 316.688 -3.8922 -0.448932 0
M  V30 3378 H 318.385 -4.00929 -0.0755208 0
M  V30 3379 H 314.975 -4.06549 1.35704 0
M  V30 3380 H 319.159 -4.41091 2.27491 0
M  V30 3381 H 314.415 -4.95764 3.57811 0
M  V30 3382 H 318.589 -5.31663 4.49786 0
M  V30 3383 H 316.216 -5.58728 5.15487 0
M  V30 3384 N 317.792 -0.46758 -1.50504 0
M  V30 3385 C 319.02 0.0864133 -2.06719 0
M  V30 3386 C 319.435 1.33819 -1.33184 0
M  V30 3387 O 318.792 1.78061 -0.400083 0
M  V30 3388 C 318.843 0.378079 -3.59517 0
M  V30 3389 O 318.564 -0.824044 -4.3028 0
M  V30 3390 C 320.065 0.979426 -4.32345 0
M  V30 3391 H 317.285 -0.00551697 -0.670977 0
M  V30 3392 H 319.829 -0.655354 -1.93715 0
M  V30 3393 H 317.984 1.06977 -3.72337 0
M  V30 3394 H 318.398 -0.566518 -5.21432 0
M  V30 3395 H 319.872 1.1333 -5.40241 0
M  V30 3396 H 320.349 1.9686 -3.9261 0
M  V30 3397 H 320.955 0.326216 -4.24047 0
M  V30 3398 N 319.27 1.56325 -0.20005 0
M  V30 3399 C 320.202 2.16555 0.750771 0
M  V30 3400 C 321.215 1.12871 1.1732 0
M  V30 3401 O 322.404 1.39943 1.10807 0
M  V30 3402 C 319.504 2.71684 2.02586 0
M  V30 3403 C 318.677 4.00321 1.76244 0
M  V30 3404 C 317.736 4.40227 2.88248 0
M  V30 3405 O 316.762 5.07552 2.57642 0
M  V30 3406 N 317.964 4.04138 4.16717 0
M  V30 3407 H 320.729 2.98772 0.235685 0
M  V30 3408 H 318.29 1.6189 -0.0182594 0
M  V30 3409 H 320.282 2.95363 2.76664 0
M  V30 3410 H 318.852 1.93893 2.45202 0
M  V30 3411 H 318.072 3.84723 0.85919 0
M  V30 3412 H 319.36 4.84279 1.56048 0
M  V30 3413 H 318.758 3.49993 4.44434 0
M  V30 3414 H 317.315 4.32756 4.87407 0
M  V30 3415 N 320.748 -0.0735177 1.57428 0
M  V30 3416 C 321.997 -0.771809 1.86349 0
M  V30 3417 C 322.31 -1.78828 0.792452 0
M  V30 3418 O 323.516 -2.53602 0.96945 0
M  V30 3419 C 321.972 -1.42358 3.30548 0
M  V30 3420 C 321.58 -0.445761 4.45777 0
M  V30 3421 C 323.324 -2.10434 3.6867 0
M  V30 3422 C 321.231 -1.10335 5.81016 0
M  V30 3423 H 320.161 -0.291999 0.695164 0
M  V30 3424 H 322.812 -0.0250749 1.83483 0
M  V30 3425 H 321.194 -2.21852 3.28021 0
M  V30 3426 H 322.368 0.319239 4.59693 0
M  V30 3427 H 320.683 0.130457 4.16196 0
M  V30 3428 H 323.28 -2.60405 4.67004 0
M  V30 3429 H 323.623 -2.90298 2.98383 0
M  V30 3430 H 324.156 -1.37773 3.7318 0
M  V30 3431 H 320.895 -0.345061 6.54591 0
M  V30 3432 H 320.415 -1.83925 5.70904 0
M  V30 3433 H 322.094 -1.62367 6.26295 0
M  V30 3434 N 322.226 -1.5378 -0.344866 0
M  V30 3435 C 323.156 -1.84662 -1.42906 0
M  V30 3436 C 324.137 -0.701648 -1.54955 0
M  V30 3437 O 325.322 -0.953438 -1.69184 0
M  V30 3438 C 322.452 -2.05503 -2.79974 0
M  V30 3439 C 321.406 -3.21318 -2.82734 0
M  V30 3440 C 320.732 -3.2749 -4.22675 0
M  V30 3441 C 322.032 -4.59456 -2.48389 0
M  V30 3442 H 323.726 -2.75461 -1.17311 0
M  V30 3443 H 321.272 -1.32542 -0.562896 0
M  V30 3444 H 323.225 -2.25691 -3.55867 0
M  V30 3445 H 321.949 -1.11434 -3.07002 0
M  V30 3446 H 320.608 -3.00984 -2.09294 0
M  V30 3447 H 320.256 -2.31019 -4.4681 0
M  V30 3448 H 319.956 -4.05316 -4.25433 0
M  V30 3449 H 321.48 -3.49887 -5.00412 0
M  V30 3450 H 322.894 -4.79667 -3.13995 0
M  V30 3451 H 321.291 -5.39675 -2.62432 0
M  V30 3452 H 322.361 -4.63155 -1.4358 0
M  V30 3453 N 323.704 0.605807 -1.45491 0
M  V30 3454 C 324.95 1.36679 -1.49823 0
M  V30 3455 C 325.283 1.93693 -0.140175 0
M  V30 3456 O 324.558 1.75158 0.845581 0
M  V30 3457 C 324.841 2.51337 -2.57879 0
M  V30 3458 C 324.694 1.99508 -4.03134 0
M  V30 3459 C 326.013 3.53463 -2.62205 0
M  V30 3460 H 323.132 0.495617 -0.545466 0
M  V30 3461 H 325.774 0.682732 -1.7731 0
M  V30 3462 H 323.924 3.09691 -2.34571 0
M  V30 3463 H 325.596 1.45789 -4.37656 0
M  V30 3464 H 323.839 1.30496 -4.13707 0
M  V30 3465 H 324.51 2.82169 -4.74431 0
M  V30 3466 H 326.986 3.04953 -2.83095 0
M  V30 3467 H 325.862 4.31178 -3.39672 0
M  V30 3468 H 326.123 4.09197 -1.67363 0
M  V30 3469 N 325.182 1.32811 0.848464 0
M  V30 3470 C 326.112 1.24882 1.97299 0
M  V30 3471 C 327.093 0.131357 1.69592 0
M  V30 3472 O 328.278 0.319553 1.91553 0
M  V30 3473 C 325.408 0.97746 3.33261 0
M  V30 3474 C 324.362 2.05682 3.75338 0
M  V30 3475 C 323.688 1.63777 5.09 0
M  V30 3476 C 324.988 3.47254 3.90144 0
M  V30 3477 H 326.682 2.18966 2.04191 0
M  V30 3478 H 324.228 1.05413 0.981029 0
M  V30 3479 H 326.181 0.908513 4.1149 0
M  V30 3480 H 324.905 0.000980011 3.266 0
M  V30 3481 H 323.564 2.11603 2.99366 0
M  V30 3482 H 323.212 0.648569 4.98801 0
M  V30 3483 H 322.912 2.36 5.38124 0
M  V30 3484 H 324.436 1.5833 5.89715 0
M  V30 3485 H 325.85 3.43888 4.58709 0
M  V30 3486 H 324.247 4.1788 4.30693 0
M  V30 3487 H 325.317 3.86462 2.92874 0
M  V30 3488 N 326.66 -1.06551 1.16123 0
M  V30 3489 C 328.071 -1.60768 0.949232 0
M  V30 3490 C 328.422 -1.89523 -0.507508 0
M  V30 3491 O 327.547 -1.66671 -1.38021 0
M  V30 3492 C 328.142 -2.92086 1.71671 0
M  V30 3493 C 326.701 -3.43015 1.54977 0
M  V30 3494 C 325.848 -2.16947 1.72711 0
M  V30 3495 H 328.799 -0.895354 1.31031 0
M  V30 3496 H 328.82 -3.6138 1.19099 0
M  V30 3497 H 328.332 -2.71127 2.7769 0
M  V30 3498 H 326.433 -3.69039 0.513873 0
M  V30 3499 H 326.546 -4.18516 2.33198 0
M  V30 3500 H 324.91 -2.27041 1.15431 0
M  V30 3501 H 325.693 -1.98473 2.80113 0
M  V30 3502 N 328.138 -0.959301 -1.25041 0
M  V30 3503 C 329.368 -0.63303 -1.96663 0
M  V30 3504 C 329.776 0.800031 -1.71453 0
M  V30 3505 O 329.119 1.54736 -0.99008 0
M  V30 3506 C 329.181 -0.817523 -3.50081 0
M  V30 3507 C 328.845 -2.22863 -3.98975 0
M  V30 3508 C 329.842 -3.20569 -4.09306 0
M  V30 3509 C 327.527 -2.55407 -4.32519 0
M  V30 3510 C 329.521 -4.4891 -4.52503 0
M  V30 3511 C 327.208 -3.83976 -4.754 0
M  V30 3512 C 328.206 -4.8054 -4.85356 0
M  V30 3513 O 327.894 -6.06817 -5.27284 0
M  V30 3514 H 327.626 -0.235866 -0.633516 0
M  V30 3515 H 330.18 -1.2874 -1.60047 0
M  V30 3516 H 328.41 -0.105992 -3.86555 0
M  V30 3517 H 330.099 -0.491604 -4.02912 0
M  V30 3518 H 330.865 -2.96753 -3.83618 0
M  V30 3519 H 326.744 -1.8097 -4.23994 0
M  V30 3520 H 330.288 -5.24283 -4.60188 0
M  V30 3521 H 326.185 -4.07596 -5.00535 0
M  V30 3522 H 326.953 -6.10262 -5.45457 0
M  V30 3523 N 329.616 1.39756 -0.72842 0
M  V30 3524 C 330.862 2.00942 -0.273892 0
M  V30 3525 C 331.195 1.57656 1.13394 0
M  V30 3526 O 330.47 0.802434 1.77176 0
M  V30 3527 C 330.753 3.58211 -0.368346 0
M  V30 3528 C 330.606 4.11534 -1.81548 0
M  V30 3529 C 331.925 4.39372 0.253054 0
M  V30 3530 H 329.044 0.730047 -0.100996 0
M  V30 3531 H 331.686 1.66056 -0.923337 0
M  V30 3532 H 329.836 3.88061 0.184588 0
M  V30 3533 H 331.508 3.92431 -2.42478 0
M  V30 3534 H 329.751 3.65341 -2.33898 0
M  V30 3535 H 330.422 5.20682 -1.83288 0
M  V30 3536 H 332.898 4.15527 -0.218224 0
M  V30 3537 H 331.774 5.48677 0.156585 0
M  V30 3538 H 332.035 4.21358 1.33826 0
M  V30 3539 N 331.094 0.475555 1.50254 0
M  V30 3540 C 332.342 -0.077738 2.0195 0
M  V30 3541 C 332.663 -1.39813 1.35931 0
M  V30 3542 O 331.933 -1.89249 0.506123 0
M  V30 3543 H 330.513 -0.031719 0.746326 0
M  V30 3544 H 333.175 0.626995 1.84539 0
M  V30 3545 H 332.271 -0.225995 3.11281 0
M  V30 3546 N 332.573 -1.56217 0.208337 0
M  V30 3547 C 333.52 -2.19699 -0.707192 0
M  V30 3548 C 334.49 -1.14836 -1.20008 0
M  V30 3549 O 335.675 -1.4314 -1.26157 0
M  V30 3550 C 332.815 -2.87061 -1.91546 0
M  V30 3551 C 331.928 -4.06483 -1.46271 0
M  V30 3552 C 331.063 -4.61665 -2.62752 0
M  V30 3553 C 330.102 -5.73417 -2.14147 0
M  V30 3554 N 329.239 -6.22948 -3.23853 0
M  V30 3555 H 334.079 -2.97575 -0.159111 0
M  V30 3556 H 331.616 -1.46948 -0.0667874 0
M  V30 3557 H 333.574 -3.24294 -2.62468 0
M  V30 3558 H 332.204 -2.11725 -2.43664 0
M  V30 3559 H 331.256 -3.74825 -0.648886 0
M  V30 3560 H 332.568 -4.87271 -1.06622 0
M  V30 3561 H 331.722 -5.01272 -3.41776 0
M  V30 3562 H 330.461 -3.80013 -3.05682 0
M  V30 3563 H 329.466 -5.33326 -1.33581 0
M  V30 3564 H 330.691 -6.56897 -1.72232 0
M  V30 3565 H 328.637 -5.44213 -3.6629 0
M  V30 3566 H 328.554 -6.98823 -2.88414 0
M  V30 3567 H 329.822 -6.6721 -4.03052 0
M  V30 3568 N 334.051 0.0651679 -1.57465 0
M  V30 3569 C 334.961 1.09448 -2.07505 0
M  V30 3570 C 335.977 1.41974 -1.00595 0
M  V30 3571 O 337.153 1.52018 -1.32107 0
M  V30 3572 C 334.218 2.38689 -2.51453 0
M  V30 3573 C 333.279 2.13073 -3.72691 0
M  V30 3574 C 332.512 3.36152 -4.14533 0
M  V30 3575 O 332.735 4.45517 -3.56189 0
M  V30 3576 O 331.669 3.23974 -5.07272 0
M  V30 3577 H 335.495 0.69935 -2.95538 0
M  V30 3578 H 333.08 0.279752 -1.46757 0
M  V30 3579 H 334.962 3.14736 -2.80212 0
M  V30 3580 H 333.637 2.77568 -1.66546 0
M  V30 3581 H 332.544 1.34709 -3.49005 0
M  V30 3582 H 333.877 1.79071 -4.5847 0
M  V30 3583 N 335.529 1.53961 0.336706 0
M  V30 3584 C 336.459 1.85417 1.41925 0
M  V30 3585 C 337.44 0.709856 1.5458 0
M  V30 3586 O 338.625 0.962396 1.68676 0
M  V30 3587 C 335.755 2.06985 2.78881 0
M  V30 3588 C 334.709 3.22813 2.81026 0
M  V30 3589 C 334.035 3.29727 4.20932 0
M  V30 3590 C 335.335 4.60767 2.45949 0
M  V30 3591 H 337.029 2.76079 1.15848 0
M  V30 3592 H 334.575 1.32839 0.555859 0
M  V30 3593 H 336.528 2.27575 3.54665 0
M  V30 3594 H 335.252 1.13061 3.06406 0
M  V30 3595 H 333.911 3.0209 2.07695 0
M  V30 3596 H 333.559 2.33385 4.45579 0
M  V30 3597 H 333.259 4.07566 4.23277 0
M  V30 3598 H 334.783 3.52536 4.98549 0
M  V30 3599 H 336.197 4.81325 3.11446 0
M  V30 3600 H 334.594 5.4106 2.59566 0
M  V30 3601 H 335.664 4.6391 1.41122 0
M  V30 3602 N 337.007 -0.598083 1.45811 0
M  V30 3603 C 337.955 -1.72932 1.55555 0
M  V30 3604 C 338.949 -1.63984 0.424921 0
M  V30 3605 O 340.155 -1.69663 0.601205 0
M  V30 3606 H 336.53 -0.571489 0.488779 0
M  V30 3607 H 338.501 -1.61842 2.50699 0
M  V30 3608 C 337.25 -3.11318 1.54843 0
M  V30 3609 H 336.573 -3.18867 2.41172 0
M  V30 3610 H 338.013 -3.90274 1.65717 0
M  V30 3611 C 336.472 -3.3578 0.274427 0
M  V30 3612 O 337.002 -3.9654 -0.641778 0
M  V30 3613 N 335.208 -2.90119 0.167139 0
M  V30 3614 H 334.755 -2.40855 0.913596 0
M  V30 3615 H 334.713 -3.0686 -0.684435 0
M  V30 3616 N 338.485 -1.33259 -0.841409 0
M  V30 3617 C 339.418 -1.1764 -1.95541 0
M  V30 3618 C 340.396 -0.072501 -1.62438 0
M  V30 3619 O 341.58 -0.23427 -1.87039 0
M  V30 3620 C 338.707 -0.803794 -3.29024 0
M  V30 3621 C 337.753 -1.91482 -3.81099 0
M  V30 3622 S 338.586 -3.52538 -4.03085 0
M  V30 3623 C 339.742 -3.17279 -5.39523 0
M  V30 3624 H 339.975 -2.11941 -2.08491 0
M  V30 3625 H 337.508 -1.18072 -0.9949 0
M  V30 3626 H 339.466 -0.595592 -4.06156 0
M  V30 3627 H 338.127 0.120574 -3.13868 0
M  V30 3628 H 337.32 -1.60742 -4.7768 0
M  V30 3629 H 336.922 -2.07956 -3.10854 0
M  V30 3630 H 339.214 -2.67946 -6.22263 0
M  V30 3631 H 340.157 -4.1293 -5.75234 0
M  V30 3632 H 340.565 -2.53943 -5.04156 0
M  V30 3633 N 339.963 1.05934 -1.16686 0
M  V30 3634 C 341.212 1.78188 -0.945085 0
M  V30 3635 C 341.525 1.88338 0.528021 0
M  V30 3636 O 342.731 2.57258 0.867799 0
M  V30 3637 C 341.187 3.20277 -1.64167 0
M  V30 3638 C 340.795 3.18281 -3.15279 0
M  V30 3639 C 342.539 3.97039 -1.502 0
M  V30 3640 C 340.446 4.55112 -3.7766 0
M  V30 3641 H 339.376 0.667866 -0.349959 0
M  V30 3642 H 342.027 1.18794 -1.39858 0
M  V30 3643 H 340.409 3.79952 -1.11589 0
M  V30 3644 H 341.583 2.68167 -3.74731 0
M  V30 3645 H 339.898 2.55018 -3.29173 0
M  V30 3646 H 342.495 4.98194 -1.94183 0
M  V30 3647 H 342.838 4.13845 -0.451461 0
M  V30 3648 H 343.371 3.43894 -1.99954 0
M  V30 3649 H 340.11 4.43512 -4.82677 0
M  V30 3650 H 339.63 5.05406 -3.22994 0
M  V30 3651 H 341.309 5.24064 -3.79428 0
M  V30 3652 N 341.441 0.965919 1.2453 0
M  V30 3653 C 342.69 0.622437 1.91856 0
M  V30 3654 C 343.003 -0.846006 1.76358 0
M  V30 3655 O 344.209 -1.29993 2.38357 0
M  V30 3656 C 342.665 1.0626 3.43856 0
M  V30 3657 C 342.273 2.55437 3.68043 0
M  V30 3658 C 344.017 0.792183 4.17043 0
M  V30 3659 C 341.924 2.93196 5.13605 0
M  V30 3660 H 340.854 0.229092 0.718354 0
M  V30 3661 H 343.505 1.17189 1.41206 0
M  V30 3662 H 341.887 0.441476 3.93531 0
M  V30 3663 H 343.061 3.22665 3.28974 0
M  V30 3664 H 341.376 2.8007 3.08139 0
M  V30 3665 H 343.973 1.05031 5.24283 0
M  V30 3666 H 344.316 -0.271584 4.15413 0
M  V30 3667 H 344.849 1.37419 3.73311 0
M  V30 3668 H 341.588 3.98636 5.20355 0
M  V30 3669 H 341.108 2.30651 5.53679 0
M  V30 3670 H 342.787 2.83004 5.81823 0
M  V30 3671 N 342.919 -1.39368 0.735821 0
M  V30 3672 C 343.852 -2.28155 0.0451175 0
M  V30 3673 C 344.83 -1.44433 -0.746852 0
M  V30 3674 O 346.014 -1.73823 -0.729237 0
M  V30 3675 C 343.141 -3.253 -0.943266 0
M  V30 3676 C 342.187 -4.25826 -0.239685 0
M  V30 3677 S 343.02 -5.25166 1.04693 0
M  V30 3678 C 344.176 -6.2587 0.0611639 0
M  V30 3679 H 344.409 -2.86388 0.79807 0
M  V30 3680 H 341.942 -1.45104 0.527653 0
M  V30 3681 H 343.9 -3.81789 -1.50824 0
M  V30 3682 H 342.561 -2.66085 -1.66906 0
M  V30 3683 H 341.754 -4.94229 -0.987596 0
M  V30 3684 H 341.356 -3.73141 0.253274 0
M  V30 3685 H 343.648 -6.73007 -0.778941 0
M  V30 3686 H 344.591 -7.04508 0.712362 0
M  V30 3687 H 344.999 -5.63639 -0.311602 0
M  V30 3688 N 344.397 -0.483516 -1.5 0
M  V30 3689 C 345.327 0.293829 -2.31644 0
M  V30 3690 C 346.308 0.978864 -1.39112 0
M  V30 3691 O 347.493 0.973644 -1.68029 0
M  V30 3692 C 344.623 1.36897 -3.19181 0
M  V30 3693 C 343.577 0.804833 -4.20365 0
M  V30 3694 C 342.903 1.9792 -4.96721 0
M  V30 3695 C 344.203 -0.192313 -5.21946 0
M  V30 3696 H 345.897 -0.387616 -2.9688 0
M  V30 3697 H 343.443 -0.187856 -1.42769 0
M  V30 3698 H 345.396 1.92037 -3.751 0
M  V30 3699 H 344.12 2.07936 -2.51853 0
M  V30 3700 H 342.779 0.275319 -3.65565 0
M  V30 3701 H 342.427 2.67686 -4.25856 0
M  V30 3702 H 342.127 1.60789 -5.65173 0
M  V30 3703 H 343.651 2.53526 -5.55479 0
M  V30 3704 H 345.065 0.270333 -5.72662 0
M  V30 3705 H 343.462 -0.478543 -5.98189 0
M  V30 3706 H 344.532 -1.11409 -4.71928 0
M  V30 3707 N 345.875 1.56104 -0.216619 0
M  V30 3708 C 347.286 1.844 0.292128 0
M  V30 3709 C 347.637 1.13788 1.59833 0
M  V30 3710 O 346.762 0.405888 2.12559 0
M  V30 3711 C 347.357 3.3452 0.53681 0
M  V30 3712 C 345.916 3.63151 0.989876 0
M  V30 3713 C 345.063 2.77255 0.0502302 0
M  V30 3714 H 348.014 1.52481 -0.439926 0
M  V30 3715 H 348.035 3.54459 1.38345 0
M  V30 3716 H 347.547 3.85885 -0.414031 0
M  V30 3717 H 345.648 3.17238 1.95425 0
M  V30 3718 H 345.761 4.71177 0.867698 0
M  V30 3719 H 344.125 2.48555 0.556117 0
M  V30 3720 H 344.908 3.31416 -0.89544 0
M  V30 3721 N 347.353 -0.0568162 1.57498 0
M  V30 3722 C 348.63 -0.786954 1.79071 0
M  V30 3723 C 349.01 -1.95028 0.80792 0
M  V30 3724 O 348.358 -2.27968 -0.155858 0
M  V30 3725 C 348.568 -1.24594 3.26002 0
M  V30 3726 C 349.916 -1.67323 3.90241 0
M  V30 3727 O 350.94 -1.34124 3.29984 0
M  V30 3728 O 349.799 -2.28842 4.9628 0
M  V30 3729 H 346.893 -0.378262 0.735423 0
M  V30 3730 H 349.439 -0.035734 1.69662 0
M  V30 3731 H 348.211 -0.41423 3.89101 0
M  V30 3732 H 347.834 -2.05803 3.40192 0
M  V30 3733 N 348.832 -1.54138 -0.328536 0
M  V30 3734 C 349.742 -1.86192 -1.42723 0
M  V30 3735 C 350.758 -0.753382 -1.56844 0
M  V30 3736 O 351.934 -1.04718 -1.72035 0
M  V30 3737 C 348.999 -2.07824 -2.77507 0
M  V30 3738 C 348.06 -3.31641 -2.72603 0
M  V30 3739 C 347.293 -3.52232 -4.00959 0
M  V30 3740 O 347.516 -2.7636 -4.9898 0
M  V30 3741 O 346.45 -4.45699 -4.0452 0
M  V30 3742 H 350.276 -2.79608 -1.18547 0
M  V30 3743 H 347.861 -1.3998 -0.522104 0
M  V30 3744 H 349.743 -2.23411 -3.57303 0
M  V30 3745 H 348.418 -1.17596 -3.01584 0
M  V30 3746 H 347.325 -3.21444 -1.91376 0
M  V30 3747 H 348.658 -4.2191 -2.53481 0
M  V30 3748 N 350.31 0.590341 -1.46126 0
M  V30 3749 C 351.538 1.37504 -1.54597 0
M  V30 3750 C 351.953 1.87897 -0.184447 0
M  V30 3751 O 351.31 1.63192 0.816984 0
M  V30 3752 C 351.361 2.56779 -2.54454 0
M  V30 3753 O 351.082 2.08476 -3.85317 0
M  V30 3754 C 352.583 3.49427 -2.72792 0
M  V30 3755 H 349.803 0.420325 -0.523037 0
M  V30 3756 H 352.347 0.718383 -1.91467 0
M  V30 3757 H 350.502 3.1845 -2.20609 0
M  V30 3758 H 350.916 2.86097 -4.396 0
M  V30 3759 H 352.39 4.29619 -3.466 0
M  V30 3760 H 352.867 4.00876 -1.79429 0
M  V30 3761 H 353.473 2.93598 -3.07702 0
M  V30 3762 N 351.788 1.33704 0.83433 0
M  V30 3763 C 353.016 1.28467 1.62185 0
M  V30 3764 C 353.431 -0.143526 1.88254 0
M  V30 3765 O 352.788 -1.08709 1.4659 0
M  V30 3766 C 352.839 2.06174 2.96942 0
M  V30 3767 O 352.56 3.43422 2.72016 0
M  V30 3768 C 354.061 2.08201 3.91366 0
M  V30 3769 H 351.281 0.4424 0.504503 0
M  V30 3770 H 353.825 1.76145 1.03891 0
M  V30 3771 H 351.98 1.62167 3.51825 0
M  V30 3772 H 352.394 3.83453 3.57861 0
M  V30 3773 H 353.868 2.67017 4.83121 0
M  V30 3774 H 354.345 1.07343 4.2588 0
M  V30 3775 H 354.951 2.52246 3.42421 0
M  V30 3776 N 353.266 -1.05314 1.17247 0
M  V30 3777 C 354.543 -1.75184 0.87005 0
M  V30 3778 C 354.923 -2.01481 -0.629965 0
M  V30 3779 O 354.271 -1.64988 -1.58086 0
M  V30 3780 C 354.481 -3.04594 1.70363 0
M  V30 3781 C 355.829 -3.78567 1.92281 0
M  V30 3782 O 356.853 -3.14461 1.67311 0
M  V30 3783 O 355.712 -4.93755 2.3424 0
M  V30 3784 H 352.806 -0.761729 0.322021 0
M  V30 3785 H 355.352 -1.11493 1.27935 0
M  V30 3786 H 354.124 -2.81201 2.72106 0
M  V30 3787 H 353.747 -3.76022 1.29202 0
M  V30 3788 N 354.744 -0.972509 -1.24016 0
M  V30 3789 C 355.674 -0.525548 -2.27509 0
M  V30 3790 C 356.655 0.437262 -1.64384 0
M  V30 3791 O 357.84 0.332343 -1.91335 0
M  V30 3792 C 354.97 0.180448 -3.46831 0
M  V30 3793 C 353.924 -0.698859 -4.22256 0
M  V30 3794 C 353.25 0.138903 -5.3452 0
M  V30 3795 C 354.55 -1.98582 -4.83076 0
M  V30 3796 H 356.244 -1.39058 -2.65148 0
M  V30 3797 H 353.79 -0.67009 -1.27459 0
M  V30 3798 H 355.743 0.504387 -4.18371 0
M  V30 3799 H 354.467 1.07987 -3.08231 0
M  V30 3800 H 353.126 -1.00614 -3.52523 0
M  V30 3801 H 352.774 1.03862 -4.9216 0
M  V30 3802 H 352.474 -0.446259 -5.85903 0
M  V30 3803 H 353.998 0.457404 -6.08884 0
M  V30 3804 H 355.412 -1.72715 -5.46665 0
M  V30 3805 H 353.809 -2.5181 -5.44713 0
M  V30 3806 H 354.879 -2.67769 -4.04262 0
M  V30 3807 N 356.222 1.38976 -0.743202 0
M  V30 3808 C 357.638 1.53984 -0.419664 0
M  V30 3809 C 357.838 1.70837 1.0685 0
M  V30 3810 O 356.894 1.7135 1.8546 0
M  V30 3811 C 358.207 2.75287 -1.20985 0
M  V30 3812 C 359.755 2.89129 -1.19889 0
M  V30 3813 C 360.23 4.13381 -1.97181 0
M  V30 3814 N 361.721 4.20437 -1.94389 0
M  V30 3815 C 362.456 5.15547 -2.50996 0
M  V30 3816 N 361.952 6.16395 -3.16274 0
M  V30 3817 N 363.745 5.07822 -2.40984 0
M  V30 3818 H 355.896 1.26285 -1.7078 0
M  V30 3819 H 358.159 0.612689 -0.723406 0
M  V30 3820 H 357.865 2.69204 -2.26323 0
M  V30 3821 H 357.739 3.68184 -0.819759 0
M  V30 3822 H 360.126 2.947 -0.153606 0
M  V30 3823 H 360.207 1.97272 -1.62841 0
M  V30 3824 H 359.851 4.08572 -3.01714 0
M  V30 3825 H 359.781 5.04298 -1.51629 0
M  V30 3826 H 362.272 3.48205 -1.46839 0
M  V30 3827 H 362.585 6.85443 -3.56915 0
M  V30 3828 H 360.93 6.16758 -3.20367 0
M  V30 3829 H 364.121 4.27973 -1.89622 0
M  V30 3830 H 364.294 5.81767 -2.85397 0
M  V30 3831 N 357.7 0.491464 1.49741 0
M  V30 3832 C 358.928 -0.0535151 2.06831 0
M  V30 3833 C 359.343 -1.31683 1.35296 0
M  V30 3834 O 358.7 -1.77402 0.42836 0
M  V30 3835 C 358.751 -0.320835 3.60073 0
M  V30 3836 O 358.472 0.892394 4.28915 0
M  V30 3837 C 359.973 -0.910519 4.33848 0
M  V30 3838 H 357.193 0.0161909 0.670805 0
M  V30 3839 H 359.737 0.68609 1.92647 0
M  V30 3840 H 357.892 -1.0104 3.73991 0
M  V30 3841 H 358.306 0.649401 5.20464 0
M  V30 3842 H 359.78 -1.04721 5.41976 0
M  V30 3843 H 360.257 -1.90589 3.95692 0
M  V30 3844 H 360.863 -0.258712 4.24512 0
M  V30 3845 N 359.178 -1.55987 0.224894 0
M  V30 3846 C 360.424 -1.98684 -0.406502 0
M  V30 3847 C 360.757 -1.11248 -1.59177 0
M  V30 3848 O 360.032 -0.170909 -1.93748 0
M  V30 3849 C 360.315 -3.50218 -0.837808 0
M  V30 3850 C 360.168 -4.48426 0.351332 0
M  V30 3851 C 361.487 -4.06243 -1.69278 0
M  V30 3852 H 358.606 -0.722337 -0.146283 0
M  V30 3853 H 361.248 -1.87255 0.321799 0
M  V30 3854 H 359.398 -3.60089 -1.45837 0
M  V30 3855 H 361.07 -4.50562 0.989526 0
M  V30 3856 H 359.313 -4.22159 0.998207 0
M  V30 3857 H 359.984 -5.52 0.00655905 0
M  V30 3858 H 362.46 -3.99337 -1.16914 0
M  V30 3859 H 361.336 -5.12581 -1.96346 0
M  V30 3860 H 361.597 -3.53332 -2.65723 0
M  V30 3861 N 360.656 0.0484629 -1.57525 0
M  V30 3862 C 361.566 1.07241 -2.08654 0
M  V30 3863 C 362.582 1.409 -1.02095 0
M  V30 3864 O 363.758 1.50609 -1.33712 0
M  V30 3865 C 360.823 2.36008 -2.5397 0
M  V30 3866 C 359.884 2.09108 -3.7493 0
M  V30 3867 C 359.117 3.31736 -4.18075 0
M  V30 3868 O 359.34 4.41714 -3.60895 0
M  V30 3869 O 358.274 3.18576 -5.10679 0
M  V30 3870 H 362.1 0.667965 -2.96263 0
M  V30 3871 H 359.685 0.26417 -1.47046 0
M  V30 3872 H 361.567 3.11747 -2.83535 0
M  V30 3873 H 360.242 2.75786 -1.69481 0
M  V30 3874 H 359.149 1.31 -3.50414 0
M  V30 3875 H 360.482 1.74198 -4.60343 0
M  V30 3876 N 362.134 1.5431 0.320358 0
M  V30 3877 C 363.081 1.83918 1.39438 0
M  V30 3878 C 364.051 0.686525 1.51248 0
M  V30 3879 O 365.236 0.933269 1.66417 0
M  V30 3880 C 362.376 2.075 2.75749 0
M  V30 3881 C 361.489 3.35177 2.72544 0
M  V30 3882 C 360.624 3.48704 4.00723 0
M  V30 3883 C 359.663 4.70244 3.91838 0
M  V30 3884 N 358.8 4.80679 5.11754 0
M  V30 3885 H 363.64 2.75544 1.13489 0
M  V30 3886 H 361.177 1.36459 0.549309 0
M  V30 3887 H 363.135 2.19166 3.54996 0
M  V30 3888 H 361.765 1.19163 3 0
M  V30 3889 H 360.817 3.32233 1.85271 0
M  V30 3890 H 362.129 4.24534 2.61863 0
M  V30 3891 H 361.283 3.59928 4.88402 0
M  V30 3892 H 360.022 2.57445 4.14214 0
M  V30 3893 H 359.027 4.59072 3.02544 0
M  V30 3894 H 360.252 5.6289 3.7991 0
M  V30 3895 H 358.198 3.92337 5.25745 0
M  V30 3896 H 358.115 5.64007 5.0342 0
M  V30 3897 H 359.383 4.96239 6.01138 0
M  V30 3898 N 363.613 -0.582584 1.46437 0
M  V30 3899 C 364.523 -1.71949 1.59595 0
M  V30 3900 C 365.539 -1.67264 0.479443 0
M  V30 3901 O 366.715 -1.87171 0.743579 0
M  V30 3902 C 363.78 -3.08452 1.58298 0
M  V30 3903 C 362.841 -3.244 2.81182 0
M  V30 3904 C 362.074 -4.54391 2.79937 0
M  V30 3905 O 362.297 -5.38287 1.8869 0
M  V30 3906 O 361.231 -4.73588 3.71481 0
M  V30 3907 H 365.057 -1.63795 2.55744 0
M  V30 3908 H 362.642 -0.749643 1.29231 0
M  V30 3909 H 364.524 -3.89732 1.60271 0
M  V30 3910 H 363.199 -3.17043 0.653094 0
M  V30 3911 H 362.106 -2.42613 2.84763 0
M  V30 3912 H 363.439 -3.20699 3.7338 0
M  V30 3913 N 365.091 -1.34144 -0.827227 0
M  V30 3914 C 366.021 -1.28005 -1.95287 0
M  V30 3915 C 367.002 -0.158321 -1.69362 0
M  V30 3916 O 368.187 -0.349987 -1.9102 0
M  V30 3917 C 365.317 -1.03036 -3.31664 0
M  V30 3918 C 364.271 -2.11628 -3.72019 0
M  V30 3919 C 363.597 -1.71854 -5.0633 0
M  V30 3920 C 364.897 -3.53417 -3.8457 0
M  V30 3921 H 366.591 -2.22187 -2.00682 0
M  V30 3922 H 364.137 -1.0696 -0.964135 0
M  V30 3923 H 366.09 -0.973863 -4.09993 0
M  V30 3924 H 364.814 -0.0529391 -3.26557 0
M  V30 3925 H 363.473 -2.16339 -2.95961 0
M  V30 3926 H 363.121 -0.727841 -4.97706 0
M  V30 3927 H 362.821 -2.44531 -5.34302 0
M  V30 3928 H 364.345 -1.67692 -5.87122 0
M  V30 3929 H 365.759 -3.51142 -4.5318 0
M  V30 3930 H 364.156 -4.24679 -4.2399 0
M  V30 3931 H 365.226 -3.91072 -2.86689 0
M  V30 3932 N 366.569 1.04691 -1.17803 0
M  V30 3933 C 367.797 1.81446 -0.99423 0
M  V30 3934 C 368.212 1.83174 0.457459 0
M  V30 3935 O 367.569 1.26265 1.31771 0
M  V30 3936 C 367.62 3.27334 -1.5341 0
M  V30 3937 O 367.341 3.25798 -2.92895 0
M  V30 3938 C 368.842 4.20759 -1.39559 0
M  V30 3939 H 366.062 0.571599 -0.351447 0
M  V30 3940 H 368.606 1.31982 -1.56208 0
M  V30 3941 H 366.761 3.74052 -1.00815 0
M  V30 3942 H 367.175 4.17144 -3.17949 0
M  V30 3943 H 368.649 5.21084 -1.82141 0
M  V30 3944 H 369.126 4.37856 -0.343394 0
M  V30 3945 H 369.732 3.79901 -1.91195 0
M  V30 3946 N 368.047 0.979072 1.23499 0
M  V30 3947 C 369.277 0.664237 1.95631 0
M  V30 3948 C 369.685 -0.772653 1.72704 0
M  V30 3949 O 369.028 -1.53141 1.01457 0
M  V30 3950 C 369.09 0.873115 3.48736 0
M  V30 3951 C 368.754 2.29182 3.95379 0
M  V30 3952 C 369.751 3.2704 4.04155 0
M  V30 3953 C 367.436 2.62256 4.28401 0
M  V30 3954 C 369.43 4.56052 4.45304 0
M  V30 3955 C 367.117 3.91491 4.69231 0
M  V30 3956 C 368.115 4.88201 4.77649 0
M  V30 3957 O 367.803 6.15129 5.17563 0
M  V30 3958 H 367.535 0.245915 0.629684 0
M  V30 3959 H 370.089 1.3127 1.57979 0
M  V30 3960 H 368.319 0.167476 3.86337 0
M  V30 3961 H 370.008 0.555642 4.02079 0
M  V30 3962 H 370.774 3.02819 3.78848 0
M  V30 3963 H 366.653 1.87692 4.21061 0
M  V30 3964 H 370.197 5.31538 4.51789 0
M  V30 3965 H 366.094 4.15508 4.93987 0
M  V30 3966 H 366.862 6.18862 5.35679 0
M  V30 3967 N 369.525 -1.3858 0.750561 0
M  V30 3968 C 370.435 -2.34278 0.122825 0
M  V30 3969 C 371.451 -1.59116 -0.704131 0
M  V30 3970 O 372.627 -1.91326 -0.628987 0
M  V30 3971 C 369.692 -3.38221 -0.762086 0
M  V30 3972 C 368.753 -4.29227 0.078896 0
M  V30 3973 C 367.986 -5.28205 -0.763874 0
M  V30 3974 O 368.209 -5.34112 -2.00201 0
M  V30 3975 O 367.143 -6.01618 -0.18428 0
M  V30 3976 H 370.969 -2.89649 0.913088 0
M  V30 3977 H 368.554 -1.40374 0.511417 0
M  V30 3978 H 370.436 -4.01872 -1.26793 0
M  V30 3979 H 369.111 -2.85211 -1.5309 0
M  V30 3980 H 368.018 -3.68747 0.630621 0
M  V30 3981 H 369.351 -4.85484 0.810289 0
M  V30 3982 N 371.003 -0.499398 -1.49478 0
M  V30 3983 C 371.95 0.279881 -2.29097 0
M  V30 3984 C 372.92 0.961805 -1.3542 0
M  V30 3985 O 374.105 0.968777 -1.64376 0
M  V30 3986 C 371.245 1.33932 -3.18051 0
M  V30 3987 C 370.358 0.669333 -4.26783 0
M  V30 3988 C 369.493 1.70907 -5.02955 0
M  V30 3989 C 368.532 1.02087 -6.03527 0
M  V30 3990 N 367.669 2.00474 -6.7287 0
M  V30 3991 H 372.509 -0.405317 -2.95231 0
M  V30 3992 H 370.046 -0.211726 -1.45568 0
M  V30 3993 H 372.004 1.96553 -3.67998 0
M  V30 3994 H 370.634 1.9933 -2.53904 0
M  V30 3995 H 369.686 -0.0701234 -3.80335 0
M  V30 3996 H 370.998 0.127503 -4.98637 0
M  V30 3997 H 370.152 2.41037 -5.56764 0
M  V30 3998 H 368.891 2.28476 -4.30871 0
M  V30 3999 H 367.896 0.305338 -5.48951 0
M  V30 4000 H 369.121 0.451708 -6.77596 0
M  V30 4001 H 367.067 2.57007 -6.03559 0
M  V30 4002 H 366.984 1.51353 -7.40694 0
M  V30 4003 H 368.252 2.69897 -7.31284 0
M  V30 4004 N 372.481 1.55866 -0.233164 0
M  V30 4005 C 373.728 1.98603 0.395374 0
M  V30 4006 C 374.056 1.12105 1.58942 0
M  V30 4007 O 373.311 0.168656 1.94972 0
M  V30 4008 C 373.61 3.46856 0.861724 0
M  V30 4009 C 373.276 4.50348 -0.223066 0
M  V30 4010 C 371.938 4.78371 -0.521038 0
M  V30 4011 C 374.29 5.12355 -0.956124 0
M  V30 4012 C 371.618 5.6568 -1.55638 0
M  V30 4013 C 373.97 6.00786 -1.98089 0
M  V30 4014 C 372.634 6.27148 -2.28565 0
M  V30 4015 H 371.904 0.726739 0.144677 0
M  V30 4016 H 374.551 1.88491 -0.338114 0
M  V30 4017 H 372.856 3.5423 1.67418 0
M  V30 4018 H 374.553 3.77302 1.35809 0
M  V30 4019 H 371.143 4.28596 0.0193234 0
M  V30 4020 H 375.327 4.90765 -0.739166 0
M  V30 4021 H 370.583 5.84365 -1.798 0
M  V30 4022 H 374.757 6.4788 -2.55391 0
M  V30 4023 H 372.384 6.94597 -3.08932 0
M  V30 4024 N 373.959 -0.0401083 1.57549 0
M  V30 4025 C 375.205 -0.734211 1.89043 0
M  V30 4026 C 375.538 -1.75591 0.829535 0
M  V30 4027 O 374.813 -1.93868 -0.156706 0
M  V30 4028 C 375.096 -1.41374 3.31188 0
M  V30 4029 C 374.949 -0.406299 4.47961 0
M  V30 4030 C 376.268 -2.35061 3.72068 0
M  V30 4031 H 373.387 -0.265447 0.687537 0
M  V30 4032 H 376.029 0.00294087 1.9 0
M  V30 4033 H 374.179 -2.04206 3.30503 0
M  V30 4034 H 375.851 0.219255 4.60779 0
M  V30 4035 H 374.094 0.275485 4.32924 0
M  V30 4036 H 374.765 -0.920022 5.44279 0
M  V30 4037 H 377.241 -1.82282 3.74049 0
M  V30 4038 H 376.117 -2.79593 4.72355 0
M  V30 4039 H 376.378 -3.21258 3.0372 0
M  V30 4040 N 375.437 -1.54477 -0.31217 0
M  V30 4041 C 376.347 -1.87695 -1.4074 0
M  V30 4042 C 377.363 -0.769975 -1.56036 0
M  V30 4043 O 378.539 -1.06537 -1.70915 0
M  V30 4044 C 375.604 -2.10755 -2.75287 0
M  V30 4045 C 374.665 -3.34514 -2.69071 0
M  V30 4046 C 373.898 -3.56465 -3.97201 0
M  V30 4047 O 374.121 -2.81637 -4.96021 0
M  V30 4048 O 373.055 -4.49964 -3.9977 0
M  V30 4049 H 376.881 -2.80849 -1.15574 0
M  V30 4050 H 374.466 -1.40526 -0.507228 0
M  V30 4051 H 376.348 -2.27188 -3.54913 0
M  V30 4052 H 375.023 -1.20788 -3.0032 0
M  V30 4053 H 373.93 -3.23456 -1.87955 0
M  V30 4054 H 375.263 -4.24575 -2.48992 0
M  V30 4055 N 376.915 0.57481 -1.46744 0
M  V30 4056 C 378.161 1.33251 -1.53674 0
M  V30 4057 C 378.516 1.91468 -0.189125 0
M  V30 4058 O 377.809 1.73954 0.803151 0
M  V30 4059 C 378.003 2.476 -2.57738 0
M  V30 4060 C 377.832 2.00586 -4.02487 0
M  V30 4061 C 376.602 1.85237 -4.70123 0
M  V30 4062 C 378.8 1.56078 -4.90045 0
M  V30 4063 N 376.782 1.32377 -5.99458 0
M  V30 4064 C 378.153 1.14863 -6.09267 0
M  V30 4065 C 380.208 1.43968 -4.76632 0
M  V30 4066 C 378.911 0.627435 -7.16558 0
M  V30 4067 C 380.937 0.932512 -5.84002 0
M  V30 4068 C 380.299 0.53019 -7.02402 0
M  V30 4069 H 376.398 0.480284 -0.617131 0
M  V30 4070 H 378.982 0.653592 -1.83402 0
M  V30 4071 H 377.153 3.13045 -2.29907 0
M  V30 4072 H 378.885 3.14567 -2.54616 0
M  V30 4073 H 375.64 2.07423 -4.25761 0
M  V30 4074 H 376.064 1.08085 -6.68316 0
M  V30 4075 H 380.706 1.73689 -3.85476 0
M  V30 4076 H 378.424 0.317821 -8.07475 0
M  V30 4077 H 382.01 0.842611 -5.75666 0
M  V30 4078 H 380.89 0.14381 -7.84068 0
M  V30 4079 N 378.394 1.34581 0.820102 0
M  V30 4080 C 379.622 1.3018 1.60813 0
M  V30 4081 C 380.037 -0.123551 1.88395 0
M  V30 4082 O 379.394 -1.07148 1.47735 0
M  V30 4083 C 379.445 2.09312 2.94739 0
M  V30 4084 O 379.166 3.46288 2.68358 0
M  V30 4085 C 380.667 2.1234 3.89136 0
M  V30 4086 H 377.887 0.447726 0.499782 0
M  V30 4087 H 380.431 1.77237 1.02017 0
M  V30 4088 H 378.586 1.65889 3.50085 0
M  V30 4089 H 379 3.87227 3.53774 0
M  V30 4090 H 380.474 2.72126 4.80262 0
M  V30 4091 H 380.951 1.11854 4.24718 0
M  V30 4092 H 381.557 2.55864 3.39726 0
M  V30 4093 N 379.872 -1.04064 1.18357 0
M  V30 4094 C 381.288 -1.2947 0.933258 0
M  V30 4095 C 381.488 -1.97466 -0.401169 0
M  V30 4096 O 380.544 -2.25528 -1.13549 0
M  V30 4097 C 381.857 -2.15337 2.09882 0
M  V30 4098 C 383.405 -2.28683 2.13712 0
M  V30 4099 C 383.88 -3.17917 3.29686 0
M  V30 4100 N 385.371 -3.25504 3.29547 0
M  V30 4101 C 386.106 -3.94706 4.15926 0
M  V30 4102 N 385.602 -4.66239 5.12439 0
M  V30 4103 N 387.395 -3.90986 4.0384 0
M  V30 4104 H 379.546 -0.583359 2.04232 0
M  V30 4105 H 381.809 -0.319921 0.892387 0
M  V30 4106 H 381.515 -1.72682 3.06389 0
M  V30 4107 H 381.389 -3.16015 2.05947 0
M  V30 4108 H 383.776 -2.70575 1.17784 0
M  V30 4109 H 383.857 -1.27596 2.21705 0
M  V30 4110 H 383.501 -2.76736 4.25887 0
M  V30 4111 H 383.431 -4.19036 3.1893 0
M  V30 4112 H 385.922 -2.74547 2.59677 0
M  V30 4113 H 386.235 -5.16638 5.74722 0
M  V30 4114 H 384.58 -4.65143 5.16398 0
M  V30 4115 H 387.771 -3.34234 3.27727 0
M  V30 4116 H 387.944 -4.44646 4.71375 0
M  V30 4117 N 381.35 -0.985608 -1.22978 0
M  V30 4118 C 382.28 -0.549649 -2.26939 0
M  V30 4119 C 383.261 0.419803 -1.64838 0
M  V30 4120 O 384.446 0.31203 -1.91677 0
M  V30 4121 C 381.576 0.143652 -3.47003 0
M  V30 4122 C 380.53 -0.743606 -4.21491 0
M  V30 4123 C 379.856 0.0822027 -5.34637 0
M  V30 4124 C 381.156 -2.03694 -4.80943 0
M  V30 4125 H 382.85 -1.41862 -2.63658 0
M  V30 4126 H 380.396 -0.683571 -1.26741 0
M  V30 4127 H 382.349 0.459985 -4.18882 0
M  V30 4128 H 381.073 1.04711 -3.09359 0
M  V30 4129 H 379.732 -1.04347 -3.51436 0
M  V30 4130 H 379.38 0.986359 -4.93234 0
M  V30 4131 H 379.08 -0.508377 -5.85397 0
M  V30 4132 H 380.604 0.392797 -6.09335 0
M  V30 4133 H 382.018 -1.78504 -5.44802 0
M  V30 4134 H 380.415 -2.57573 -5.42011 0
M  V30 4135 H 381.485 -2.72042 -4.01399 0
M  V30 4136 N 382.828 1.3818 -0.7579 0
M  V30 4137 C 384.105 1.94106 -0.241306 0
M  V30 4138 C 384.485 1.69282 1.26122 0
M  V30 4139 O 383.833 1.03378 2.03777 0
M  V30 4140 C 384.043 3.43809 -0.59967 0
M  V30 4141 C 385.391 4.20868 -0.561717 0
M  V30 4142 O 386.415 3.5211 -0.538222 0
M  V30 4143 O 385.274 5.43451 -0.576478 0
M  V30 4144 H 382.368 0.825376 -0.0518042 0
M  V30 4145 H 384.914 1.47548 -0.838315 0
M  V30 4146 H 383.686 3.55403 -1.6372 0
M  V30 4147 H 383.309 3.97592 0.0251197 0
M  V30 4148 N 384.306 0.507319 1.49211 0
M  V30 4149 C 385.239 -0.314509 2.26022 0
M  V30 4150 C 386.217 -0.964849 1.30879 0
M  V30 4151 O 387.401 -0.993707 1.6018 0
M  V30 4152 C 384.528 -1.44346 3.06402 0
M  V30 4153 C 383.574 -0.90685 4.16748 0
M  V30 4154 S 384.407 0.207392 5.35098 0
M  V30 4155 C 385.563 -0.924573 6.19033 0
M  V30 4156 H 385.796 0.337416 2.95379 0
M  V30 4157 H 383.329 0.292718 1.516 0
M  V30 4158 H 385.287 -2.09029 3.53295 0
M  V30 4159 H 383.948 -2.06702 2.36502 0
M  V30 4160 H 383.141 -1.75309 4.72528 0
M  V30 4161 H 382.743 -0.33712 3.72478 0
M  V30 4162 H 385.035 -1.82839 6.52362 0
M  V30 4163 H 385.978 -0.405248 7.06939 0
M  V30 4164 H 386.386 -1.19476 5.51712 0
M  V30 4165 N 385.784 -1.5574 0.241426 0
M  V30 4166 C 386.717 -2.17168 -0.700935 0
M  V30 4167 C 387.695 -1.12206 -1.1768 0
M  V30 4168 O 388.879 -1.40565 -1.25593 0
M  V30 4169 C 386.006 -2.76796 -1.95196 0
M  V30 4170 C 385.052 -3.94764 -1.61442 0
M  V30 4171 S 385.885 -5.30613 -0.72182 0
M  V30 4172 C 387.041 -5.93691 -1.98197 0
M  V30 4173 H 387.274 -2.96761 -0.178882 0
M  V30 4174 H 384.807 -1.54378 0.0259299 0
M  V30 4175 H 386.765 -3.11787 -2.67019 0
M  V30 4176 H 385.426 -1.9716 -2.44514 0
M  V30 4177 H 384.619 -4.35057 -2.54443 0
M  V30 4178 H 384.221 -3.61022 -0.976672 0
M  V30 4179 H 386.513 -6.10874 -2.92983 0
M  V30 4180 H 387.456 -6.89258 -1.62262 0
M  V30 4181 H 387.864 -5.22709 -2.13156 0
M  V30 4182 N 387.262 0.0317525 -1.57568 0
M  V30 4183 C 388.539 0.758366 -1.803 0
M  V30 4184 C 388.919 1.93718 -0.838845 0
M  V30 4185 O 388.267 2.28187 0.119571 0
M  V30 4186 C 388.477 1.19392 -3.27943 0
M  V30 4187 C 389.825 1.61094 -3.92854 0
M  V30 4188 O 390.849 1.28857 -3.32076 0
M  V30 4189 O 389.708 2.20918 -4.99858 0
M  V30 4190 H 386.802 0.366514 -0.741348 0
M  V30 4191 H 389.348 0.00873765 -1.69698 0
M  V30 4192 H 388.12 0.352275 -3.89711 0
M  V30 4193 H 387.743 2.00365 -3.43424 0
M  V30 4194 N 388.74 1.54641 0.303973 0
M  V30 4195 C 389.65 1.88439 1.39743 0
M  V30 4196 C 390.666 0.778239 1.55626 0
M  V30 4197 O 391.842 1.07442 1.70347 0
M  V30 4198 C 388.907 2.12212 2.74166 0
M  V30 4199 C 387.968 3.35936 2.67293 0
M  V30 4200 C 387.201 3.58566 3.95305 0
M  V30 4201 O 387.424 2.84263 4.9452 0
M  V30 4202 O 386.358 4.52078 3.97378 0
M  V30 4203 H 390.184 2.81458 1.14083 0
M  V30 4204 H 387.769 1.40793 0.499768 0
M  V30 4205 H 389.651 2.29067 3.53704 0
M  V30 4206 H 388.326 1.22379 2.99675 0
M  V30 4207 H 387.233 3.24448 1.86237 0
M  V30 4208 H 388.566 4.2589 2.46736 0
M  V30 4209 N 390.218 -0.567019 1.47046 0
M  V30 4210 C 391.128 -1.70247 1.6141 0
M  V30 4211 C 392.144 -1.66746 0.497157 0
M  V30 4212 O 393.32 -1.86371 0.763389 0
M  V30 4213 C 390.385 -3.06756 1.61561 0
M  V30 4214 C 389.446 -3.21399 2.84607 0
M  V30 4215 C 388.679 -4.51396 2.84741 0
M  V30 4216 O 388.902 -5.36255 1.94388 0
M  V30 4217 O 387.836 -4.69621 3.76483 0
M  V30 4218 H 391.662 -1.61073 2.57467 0
M  V30 4219 H 389.247 -0.735894 1.30019 0
M  V30 4220 H 391.129 -3.8801 1.64396 0
M  V30 4221 H 389.804 -3.16333 0.686684 0
M  V30 4222 H 388.711 -2.39579 2.8732 0
M  V30 4223 H 390.044 -3.16721 3.76761 0
M  V30 4224 N 391.696 -1.35014 -0.812953 0
M  V30 4225 C 392.606 -1.2951 -1.95613 0
M  V30 4226 C 393.622 -0.20107 -1.72834 0
M  V30 4227 O 394.798 -0.42932 -1.96771 0
M  V30 4228 C 391.863 -1.06033 -3.30088 0
M  V30 4229 C 390.924 -2.24688 -3.65805 0
M  V30 4230 C 390.157 -2.02322 -4.93864 0
M  V30 4231 O 390.38 -0.986464 -5.61805 0
M  V30 4232 O 389.314 -2.89525 -5.27692 0
M  V30 4233 H 393.14 -2.25705 -2.03202 0
M  V30 4234 H 390.725 -1.15321 -0.949811 0
M  V30 4235 H 392.607 -0.94763 -4.10607 0
M  V30 4236 H 391.282 -0.128852 -3.23443 0
M  V30 4237 H 390.189 -2.41521 -2.85689 0
M  V30 4238 H 391.522 -3.16261 -3.77147 0
M  V30 4239 N 393.175 1.03435 -1.18907 0
M  V30 4240 C 394.421 1.77005 -0.989798 0
M  V30 4241 C 394.754 1.88205 0.478816 0
M  V30 4242 O 394.029 1.39481 1.35556 0
M  V30 4243 C 394.312 3.19925 -1.65287 0
M  V30 4244 C 394.165 3.1663 -3.19477 0
M  V30 4245 C 395.484 4.18189 -1.37134 0
M  V30 4246 H 392.603 0.642538 -0.360991 0
M  V30 4247 H 395.245 1.20784 -1.46667 0
M  V30 4248 H 393.395 3.67929 -1.24741 0
M  V30 4249 H 395.067 2.76567 -3.692 0
M  V30 4250 H 393.31 2.54491 -3.51307 0
M  V30 4251 H 393.981 4.1758 -3.61013 0
M  V30 4252 H 396.457 3.78761 -1.72276 0
M  V30 4253 H 395.333 5.16394 -1.86087 0
M  V30 4254 H 395.594 4.41112 -0.295424 0
M  V30 4255 N 394.653 0.992116 1.22453 0
M  V30 4256 C 395.563 0.55065 2.28046 0
M  V30 4257 C 396.579 -0.400189 1.69335 0
M  V30 4258 O 397.755 -0.267215 1.99619 0
M  V30 4259 C 394.82 -0.128496 3.46462 0
M  V30 4260 C 393.881 0.865208 4.20491 0
M  V30 4261 C 393.114 0.218377 5.33253 0
M  V30 4262 O 393.337 -0.987894 5.6178 0
M  V30 4263 O 392.271 0.922845 5.94783 0
M  V30 4264 H 396.097 1.4291 2.67975 0
M  V30 4265 H 393.682 0.760326 1.28606 0
M  V30 4266 H 395.564 -0.508947 4.18315 0
M  V30 4267 H 394.239 -0.981526 3.0846 0
M  V30 4268 H 393.146 1.29658 3.50913 0
M  V30 4269 H 394.479 1.68741 4.62371 0
M  V30 4270 N 396.131 -1.37776 0.765217 0
M  V30 4271 C 397.377 -2.00145 0.327072 0
M  V30 4272 C 397.71 -1.60607 -1.09175 0
M  V30 4273 O 396.985 -0.849127 -1.74986 0
M  V30 4274 C 397.268 -3.57109 0.46319 0
M  V30 4275 C 397.121 -4.06576 1.92395 0
M  V30 4276 C 398.44 -4.39888 -0.136473 0
M  V30 4277 H 395.559 -0.727113 0.120316 0
M  V30 4278 H 398.201 -1.63549 0.967039 0
M  V30 4279 H 396.351 -3.88414 -0.0816358 0
M  V30 4280 H 398.023 -3.85864 2.52798 0
M  V30 4281 H 396.266 -3.59011 2.43503 0
M  V30 4282 H 396.937 -5.15639 1.97028 0
M  V30 4283 H 399.413 -4.14803 0.328317 0
M  V30 4284 H 398.289 -5.48899 -0.0110582 0
M  V30 4285 H 398.55 -4.24758 -1.22608 0
M  V30 4286 N 397.609 -0.515225 -1.4894 0
M  V30 4287 C 398.834 0.022727 -2.07388 0
M  V30 4288 C 399.259 1.2876 -1.37122 0
M  V30 4289 O 398.617 1.76067 -0.432431 0
M  V30 4290 C 398.665 0.244869 -3.59768 0
M  V30 4291 O 397.769 1.31667 -3.90817 0
M  V30 4292 H 397.11 -0.0325506 -0.663202 0
M  V30 4293 H 399.64 -0.718918 -1.91553 0
M  V30 4294 H 399.65 0.47205 -4.0526 0
M  V30 4295 H 398.325 -0.679194 -4.10317 0
M  V30 4296 H 396.902 1.07331 -3.5712 0
M  V30 4297 N 399.087 1.5561 -0.249682 0
M  V30 4298 C 400.017 2.24477 0.642826 0
M  V30 4299 C 400.998 1.22601 1.17911 0
M  V30 4300 O 402.183 1.5126 1.21795 0
M  V30 4301 C 399.313 2.94638 1.83863 0
M  V30 4302 C 398.267 4.03227 1.435 0
M  V30 4303 C 397.593 4.60828 2.71186 0
M  V30 4304 C 398.893 5.18796 0.604002 0
M  V30 4305 H 400.587 2.99321 0.0685625 0
M  V30 4306 H 398.133 1.43965 0.0315363 0
M  V30 4307 H 400.086 3.41517 2.46868 0
M  V30 4308 H 398.81 2.17287 2.43832 0
M  V30 4309 H 397.469 3.57121 0.828275 0
M  V30 4310 H 397.117 3.80174 3.29358 0
M  V30 4311 H 396.817 5.34132 2.44901 0
M  V30 4312 H 398.341 5.10442 3.35084 0
M  V30 4313 H 399.755 5.61883 1.13842 0
M  V30 4314 H 398.152 5.98506 0.437097 0
M  V30 4315 H 399.222 4.83384 -0.383147 0
M  V30 4316 N 400.565 -0.0233959 1.57583 0
M  V30 4317 C 401.976 -0.56927 1.77809 0
M  V30 4318 C 402.327 -1.75284 0.881472 0
M  V30 4319 O 401.452 -2.1626 0.0777805 0
M  V30 4320 C 402.047 -1.03949 3.22459 0
M  V30 4321 C 400.606 -1.53084 3.43864 0
M  V30 4322 C 399.753 -0.471454 2.73263 0
M  V30 4323 H 402.704 0.202825 1.57399 0
M  V30 4324 H 402.725 -1.90661 3.29285 0
M  V30 4325 H 402.237 -0.177865 3.87692 0
M  V30 4326 H 400.338 -2.41414 2.83814 0
M  V30 4327 H 400.451 -1.57443 4.52491 0
M  V30 4328 H 398.815 -0.927788 2.37201 0
M  V30 4329 H 399.598 0.380808 3.41181 0
M  V30 4330 N 402.043 -1.548 -0.295768 0
M  V30 4331 C 403.459 -1.4613 -0.641722 0
M  V30 4332 C 403.659 -0.656771 -1.90496 0
M  V30 4333 O 402.715 -0.166547 -2.5195 0
M  V30 4334 C 404.028 -2.90141 -0.789852 0
M  V30 4335 C 405.576 -3.00216 -0.885396 0
M  V30 4336 C 406.051 -4.45434 -1.06548 0
M  V30 4337 N 407.542 -4.49166 -1.13156 0
M  V30 4338 C 408.277 -5.58717 -1.28929 0
M  V30 4339 N 407.773 -6.78182 -1.41567 0
M  V30 4340 N 409.566 -5.46415 -1.31859 0
M  V30 4341 H 401.717 -2.05574 0.534147 0
M  V30 4342 H 403.98 -0.931259 0.177372 0
M  V30 4343 H 403.686 -3.51635 0.0675598 0
M  V30 4344 H 403.56 -3.37859 -1.67724 0
M  V30 4345 H 405.947 -2.38833 -1.73329 0
M  V30 4346 H 406.028 -2.55787 0.0261185 0
M  V30 4347 H 405.672 -5.07413 -0.222335 0
M  V30 4348 H 405.602 -4.87499 -1.9913 0
M  V30 4349 H 408.093 -3.631 -1.04721 0
M  V30 4350 H 408.406 -7.57428 -1.53372 0
M  V30 4351 H 406.751 -6.81037 -1.38613 0
M  V30 4352 H 409.942 -4.5203 -1.21601 0
M  V30 4353 H 410.115 -6.31841 -1.43808 0
M  V30 4354 N 403.521 0.559213 -1.47345 0
M  V30 4355 C 404.768 1.31648 -1.53867 0
M  V30 4356 C 405.096 1.93468 -0.200104 0
M  V30 4357 O 404.351 1.78295 0.806799 0
M  V30 4358 C 404.65 2.44853 -2.6035 0
M  V30 4359 C 404.316 2.00876 -4.03683 0
M  V30 4360 C 402.978 1.88599 -4.42701 0
M  V30 4361 C 405.33 1.67279 -4.93626 0
M  V30 4362 C 402.658 1.41017 -5.69501 0
M  V30 4363 C 405.01 1.21169 -6.20887 0
M  V30 4364 C 403.674 1.07487 -6.58789 0
M  V30 4365 H 402.944 0.481734 -0.56304 0
M  V30 4366 H 405.591 0.627301 -1.80934 0
M  V30 4367 H 403.896 3.19318 -2.27032 0
M  V30 4368 H 405.593 3.03039 -2.62619 0
M  V30 4369 H 402.183 2.11374 -3.72853 0
M  V30 4370 H 406.367 1.75638 -4.64182 0
M  V30 4371 H 401.623 1.29086 -5.97618 0
M  V30 4372 H 405.797 0.942345 -6.89995 0
M  V30 4373 H 403.424 0.703946 -7.56934 0
M  V30 4374 N 404.999 1.35443 0.805782 0
M  V30 4375 C 405.946 1.28431 1.91766 0
M  V30 4376 C 406.916 0.156102 1.65365 0
M  V30 4377 O 408.101 0.339936 1.87747 0
M  V30 4378 C 405.241 1.06301 3.2832 0
M  V30 4379 C 404.354 2.2805 3.66902 0
M  V30 4380 C 403.489 1.99064 4.92491 0
M  V30 4381 C 402.528 3.16863 5.23703 0
M  V30 4382 N 401.665 2.87647 6.40471 0
M  V30 4383 H 406.505 2.23511 1.97096 0
M  V30 4384 H 404.042 1.11105 0.964054 0
M  V30 4385 H 406 0.915012 4.07042 0
M  V30 4386 H 404.63 0.148822 3.22457 0
M  V30 4387 H 403.682 2.53711 2.83434 0
M  V30 4388 H 404.994 3.1601 3.85927 0
M  V30 4389 H 404.148 1.81099 5.7904 0
M  V30 4390 H 402.887 1.0839 4.75503 0
M  V30 4391 H 401.892 3.35404 4.35642 0
M  V30 4392 H 403.117 4.08339 5.4262 0
M  V30 4393 H 401.063 1.99568 6.24907 0
M  V30 4394 H 400.98 3.69141 6.59751 0
M  V30 4395 H 402.248 2.73226 7.30047 0
M  V30 4396 N 406.477 -1.02803 1.19454 0
M  V30 4397 C 407.407 -2.12999 0.956758 0
M  V30 4398 C 408.388 -1.69743 -0.110188 0
M  V30 4399 O 409.573 -1.94148 0.0450038 0
M  V30 4400 C 406.703 -3.43746 0.495553 0
M  V30 4401 C 405.657 -4.00688 1.50443 0
M  V30 4402 C 404.983 -5.27067 0.900275 0
M  V30 4403 C 406.283 -4.35397 2.8849 0
M  V30 4404 H 407.977 -2.33148 1.87836 0
M  V30 4405 H 405.523 -1.12045 0.904539 0
M  V30 4406 H 407.476 -4.2021 0.316493 0
M  V30 4407 H 406.2 -3.23321 -0.461646 0
M  V30 4408 H 404.859 -3.2632 1.67065 0
M  V30 4409 H 404.507 -5.02959 -0.064503 0
M  V30 4410 H 404.207 -5.66127 1.57397 0
M  V30 4411 H 405.731 -6.06196 0.73203 0
M  V30 4412 H 407.145 -5.02795 2.75446 0
M  V30 4413 H 405.542 -4.85541 3.52661 0
M  V30 4414 H 406.612 -3.44662 3.41081 0
M  V30 4415 N 407.956 -0.998596 -1.21925 0
M  V30 4416 C 408.866 -0.562736 -2.27751 0
M  V30 4417 C 409.882 0.391203 -1.69545 0
M  V30 4418 O 411.058 0.256625 -1.99758 0
M  V30 4419 C 408.123 0.11012 -3.46525 0
M  V30 4420 C 407.184 -0.887495 -4.20026 0
M  V30 4421 C 406.417 -0.246654 -5.3313 0
M  V30 4422 O 406.64 0.958088 -5.62296 0
M  V30 4423 O 405.574 -0.954374 -5.94286 0
M  V30 4424 H 409.4 -1.44329 -2.67213 0
M  V30 4425 H 406.985 -0.767135 -1.28201 0
M  V30 4426 H 408.867 0.486756 -4.18579 0
M  V30 4427 H 407.542 0.965154 -3.08976 0
M  V30 4428 H 406.449 -1.31517 -3.5022 0
M  V30 4429 H 407.782 -1.71191 -4.6147 0
M  V30 4430 N 409.434 1.37368 -0.772513 0
M  V30 4431 C 410.344 2.34053 -0.160081 0
M  V30 4432 C 411.36 1.60216 0.678728 0
M  V30 4433 O 412.536 1.92303 0.59847 0
M  V30 4434 C 409.601 3.3939 0.708182 0
M  V30 4435 C 408.662 4.29048 -0.147172 0
M  V30 4436 C 407.895 5.29354 0.679744 0
M  V30 4437 O 408.118 5.3723 1.91678 0
M  V30 4438 O 407.052 6.01835 0.0885444 0
M  V30 4439 H 410.878 2.88159 -0.959053 0
M  V30 4440 H 408.463 1.39543 -0.533685 0
M  V30 4441 H 410.345 4.03839 1.20384 0
M  V30 4442 H 409.02 2.8761 1.48533 0
M  V30 4443 H 407.927 3.67697 -0.689205 0
M  V30 4444 H 409.26 4.84134 -0.887423 0
M  V30 4445 N 410.912 0.523116 1.48665 0
M  V30 4446 C 412.137 -0.0117284 2.07397 0
M  V30 4447 C 412.562 -1.28031 1.37803 0
M  V30 4448 O 411.92 -1.75836 0.441762 0
M  V30 4449 C 411.968 -0.225786 3.59892 0
M  V30 4450 O 411.072 -1.29592 3.91509 0
M  V30 4451 H 410.413 0.0360673 0.66302 0
M  V30 4452 H 412.943 0.729066 1.9117 0
M  V30 4453 H 412.953 -0.450552 4.05505 0
M  V30 4454 H 411.628 0.700944 4.09951 0
M  V30 4455 H 410.205 -1.05436 3.57684 0
M  V30 4456 N 412.39 -1.55475 0.257931 0
M  V30 4457 C 413.62 -2.03314 -0.367026 0
M  V30 4458 C 414.028 -1.13625 -1.51281 0
M  V30 4459 O 413.371 -0.145334 -1.83124 0
M  V30 4460 C 413.433 -3.47362 -0.926284 0
M  V30 4461 C 413.097 -4.56914 0.0886584 0
M  V30 4462 C 414.094 -5.12013 0.902123 0
M  V30 4463 C 411.779 -5.01827 0.217936 0
M  V30 4464 C 413.773 -6.10529 1.83122 0
M  V30 4465 C 411.46 -6.00172 1.15052 0
M  V30 4466 C 412.458 -6.54402 1.95568 0
M  V30 4467 O 412.146 -7.50827 2.87253 0
M  V30 4468 H 411.878 -0.669976 -0.0900443 0
M  V30 4469 H 414.432 -2.01804 0.382673 0
M  V30 4470 H 412.662 -3.46056 -1.72575 0
M  V30 4471 H 414.351 -3.78637 -1.46249 0
M  V30 4472 H 415.117 -4.78139 0.812891 0
M  V30 4473 H 410.996 -4.59272 -0.398721 0
M  V30 4474 H 414.54 -6.52783 2.46008 0
M  V30 4475 H 410.437 -6.33465 1.24064 0
M  V30 4476 H 411.205 -7.68483 2.81739 0
M  V30 4477 N 413.868 0.0150385 -1.57593 0
M  V30 4478 C 415.145 0.7392 -1.81094 0
M  V30 4479 C 415.525 1.92817 -0.859344 0
M  V30 4480 O 414.873 2.28301 0.095362 0
M  V30 4481 C 415.083 1.15907 -3.29191 0
M  V30 4482 C 416.431 1.56918 -3.9454 0
M  V30 4483 O 417.455 1.25328 -3.33424 0
M  V30 4484 O 416.314 2.15604 -5.02173 0
M  V30 4485 H 413.408 0.358631 -0.745193 0
M  V30 4486 H 415.954 -0.00926156 -1.69697 0
M  V30 4487 H 414.726 0.310921 -3.90063 0
M  V30 4488 H 414.349 1.96711 -3.45529 0
M  V30 4489 N 415.346 1.54954 0.287554 0
M  V30 4490 C 416.279 1.81737 1.3801 0
M  V30 4491 C 417.257 0.669412 1.48181 0
M  V30 4492 O 418.441 0.910839 1.65033 0
M  V30 4493 C 415.568 1.96606 2.75796 0
M  V30 4494 C 414.614 3.19098 2.82982 0
M  V30 4495 S 415.447 4.7683 2.43707 0
M  V30 4496 C 416.603 4.94653 3.83496 0
M  V30 4497 H 416.836 2.74122 1.15085 0
M  V30 4498 H 414.369 1.46538 0.486403 0
M  V30 4499 H 416.327 2.05858 3.55152 0
M  V30 4500 H 414.988 1.05136 2.95982 0
M  V30 4501 H 414.181 3.26344 3.84077 0
M  V30 4502 H 413.783 3.08361 2.11635 0
M  V30 4503 H 416.075 4.79502 4.78628 0
M  V30 4504 H 417.018 5.96728 3.8121 0
M  V30 4505 H 417.426 4.2272 3.74123 0
M  V30 4506 N 416.824 -0.551391 1.4764 0
M  V30 4507 C 417.734 -1.68525 1.63207 0
M  V30 4508 C 418.75 -1.6621 0.514815 0
M  V30 4509 O 419.926 -1.85551 0.783113 0
M  V30 4510 C 416.991 -3.05025 1.64805 0
M  V30 4511 C 416.052 -3.18362 2.88 0
M  V30 4512 C 415.285 -4.4835 2.89513 0
M  V30 4513 O 415.508 -5.34163 2.00065 0
M  V30 4514 O 414.442 -4.65602 3.81443 0
M  V30 4515 H 418.268 -1.58333 2.59161 0
M  V30 4516 H 415.853 -0.722063 1.30792 0
M  V30 4517 H 417.735 -3.86245 1.68502 0
M  V30 4518 H 416.41 -3.15587 0.720197 0
M  V30 4519 H 415.317 -2.36518 2.89845 0
M  V30 4520 H 416.65 -3.12707 3.80099 0
M  V30 4521 N 418.302 -1.35869 -0.798587 0
M  V30 4522 C 419.527 -1.32883 -1.59238 0
M  V30 4523 C 419.952 0.0894587 -1.87887 0
M  V30 4524 O 419.31 1.05869 -1.47178 0
M  V30 4525 C 419.358 -2.14892 -2.89575 0
M  V30 4526 O 418.462 -1.53512 -3.82763 0
M  V30 4527 H 417.803 -0.455236 -0.48338 0
M  V30 4528 H 420.333 -1.79024 -0.990539 0
M  V30 4529 H 420.343 -2.27139 -3.38928 0
M  V30 4530 H 419.018 -3.17998 -2.68049 0
M  V30 4531 H 417.595 -1.50153 -3.41334 0
M  V30 4532 N 419.78 1.02168 -1.19998 0
M  V30 4533 C 421.026 1.75945 -1.00852 0
M  V30 4534 C 421.359 1.88702 0.458828 0
M  V30 4535 O 420.634 1.40911 1.34069 0
M  V30 4536 C 420.917 3.18154 -1.68671 0
M  V30 4537 C 420.77 3.13224 -3.22817 0
M  V30 4538 C 422.089 4.16711 -1.41561 0
M  V30 4539 H 419.208 0.638673 -0.367785 0
M  V30 4540 H 421.85 1.19222 -1.4794 0
M  V30 4541 H 420 3.66586 -1.28636 0
M  V30 4542 H 421.672 2.72635 -3.72112 0
M  V30 4543 H 419.915 2.50751 -3.53986 0
M  V30 4544 H 420.586 4.13728 -3.65422 0
M  V30 4545 H 423.062 3.76913 -1.76284 0
M  V30 4546 H 421.938 5.14391 -1.91553 0
M  V30 4547 H 422.199 4.40774 -0.342193 0
M  V30 4548 N 421.258 1.00505 1.21394 0
M  V30 4549 C 422.188 0.585684 2.26035 0
M  V30 4550 C 423.169 -0.393525 1.65485 0
M  V30 4551 O 424.354 -0.281497 1.92149 0
M  V30 4552 C 421.484 -0.0884283 3.47187 0
M  V30 4553 C 420.438 0.810567 4.20254 0
M  V30 4554 C 419.764 0.00286382 5.347 0
M  V30 4555 C 421.064 2.1132 4.77641 0
M  V30 4556 H 422.758 1.46039 2.61368 0
M  V30 4557 H 420.304 0.703648 1.25638 0
M  V30 4558 H 422.257 -0.393286 4.19561 0
M  V30 4559 H 420.981 -0.997766 3.10986 0
M  V30 4560 H 419.64 1.09925 3.49731 0
M  V30 4561 H 419.288 -0.907765 4.94741 0
M  V30 4562 H 418.988 0.601444 5.84514 0
M  V30 4563 H 420.512 -0.295808 6.09883 0
M  V30 4564 H 421.926 1.87148 5.41893 0
M  V30 4565 H 420.323 2.66164 5.37845 0
M  V30 4566 H 421.393 2.78393 3.9702 0
M  V30 4567 N 422.737 -1.36956 0.779787 0
M  V30 4568 C 424.153 -1.52817 0.460342 0
M  V30 4569 C 424.353 -1.7361 -1.02283 0
M  V30 4570 O 423.409 -1.76207 -1.80852 0
M  V30 4571 C 424.722 -2.71983 1.28241 0
M  V30 4572 C 426.27 -2.85849 1.27512 0
M  V30 4573 C 426.745 -4.08008 2.08072 0
M  V30 4574 N 428.236 -4.15135 2.05467 0
M  V30 4575 C 428.971 -5.08711 2.64577 0
M  V30 4576 N 428.467 -6.07792 3.32506 0
M  V30 4577 N 430.26 -5.01254 2.54363 0
M  V30 4578 H 422.411 -1.21713 1.74068 0
M  V30 4579 H 424.674 -0.593294 0.739396 0
M  V30 4580 H 424.38 -2.63109 2.33381 0
M  V30 4581 H 424.254 -3.65882 0.917088 0
M  V30 4582 H 426.641 -2.94189 0.231686 0
M  V30 4583 H 426.722 -1.92886 1.68014 0
M  V30 4584 H 426.366 -4.00429 3.12441 0
M  V30 4585 H 426.296 -5.001 1.64947 0
M  V30 4586 H 428.787 -3.44189 1.5602 0
M  V30 4587 H 429.1 -6.75739 3.74963 0
M  V30 4588 H 427.445 -6.08047 3.36606 0
M  V30 4589 H 430.636 -4.22795 2.00902 0
M  V30 4590 H 430.809 -5.73995 3.00722 0
M  V30 4591 N 424.215 -0.530993 -1.48385 0
M  V30 4592 C 425.163 0.244595 -2.3131 0
M  V30 4593 C 426.157 0.93451 -1.41291 0
M  V30 4594 O 427.363 0.85878 -1.58193 0
M  V30 4595 H 423.738 0.0977472 -0.74562 0
M  V30 4596 H 425.709 -0.474369 -2.94605 0
M  V30 4597 C 424.458 1.2779 -3.23365 0
M  V30 4598 H 423.781 0.756439 -3.92579 0
M  V30 4599 H 425.221 1.79198 -3.84271 0
M  V30 4600 C 423.68 2.31205 -2.45042 0
M  V30 4601 O 424.21 3.37661 -2.17596 0
M  V30 4602 N 422.416 2.04446 -2.0652 0
M  V30 4603 H 421.963 1.17891 -2.2904 0
M  V30 4604 H 421.921 2.73861 -1.54427 0
M  V30 4605 N 425.693 1.55336 -0.266172 0
M  V30 4606 C 426.623 2.25146 0.618981 0
M  V30 4607 C 427.604 1.23845 1.16604 0
M  V30 4608 O 428.789 1.52544 1.20183 0
M  V30 4609 C 425.919 2.96572 1.80728 0
M  V30 4610 C 424.873 4.04726 1.39215 0
M  V30 4611 C 424.199 4.63678 2.66283 0
M  V30 4612 C 425.499 5.19407 0.548942 0
M  V30 4613 H 427.193 2.99377 0.0368116 0
M  V30 4614 H 424.739 1.43991 0.0162651 0
M  V30 4615 H 426.692 3.44116 2.43232 0
M  V30 4616 H 425.416 2.19861 2.41514 0
M  V30 4617 H 424.075 3.57979 0.790351 0
M  V30 4618 H 423.723 3.83646 3.25308 0
M  V30 4619 H 423.423 5.367 2.39222 0
M  V30 4620 H 424.947 5.13967 3.29651 0
M  V30 4621 H 426.361 5.63059 1.07876 0
M  V30 4622 H 424.758 5.98936 0.373593 0
M  V30 4623 H 425.828 4.8295 -0.434394 0
M  V30 4624 N 427.171 -0.0066808 1.57599 0
M  V30 4625 C 428.419 -0.691552 1.899 0
M  V30 4626 C 428.74 -1.74682 0.866672 0
M  V30 4627 O 428.01 -1.95661 -0.0968189 0
M  V30 4628 H 426.59 -0.258416 0.700878 0
M  V30 4629 H 429.252 0.0326655 1.94873 0
M  V30 4630 H 428.348 -1.16702 2.8946 0
M  V30 4631 N 428.649 -1.55105 -0.279332 0
M  V30 4632 C 429.582 -1.82467 -1.37044 0
M  V30 4633 C 430.56 -0.677261 -1.47824 0
M  V30 4634 O 431.744 -0.919578 -1.64548 0
M  V30 4635 C 428.871 -1.98066 -2.7475 0
M  V30 4636 C 427.917 -3.20594 -2.81286 0
M  V30 4637 S 428.75 -4.78116 -2.41175 0
M  V30 4638 C 429.906 -4.9668 -3.80867 0
M  V30 4639 H 430.139 -2.74728 -1.1363 0
M  V30 4640 H 427.672 -1.46794 -0.478625 0
M  V30 4641 H 429.63 -2.07739 -3.54055 0
M  V30 4642 H 428.291 -1.06704 -2.9542 0
M  V30 4643 H 427.484 -3.28376 -3.82341 0
M  V30 4644 H 427.086 -3.09479 -2.09996 0
M  V30 4645 H 429.378 -4.82033 -4.76078 0
M  V30 4646 H 430.321 -5.98741 -3.78041 0
M  V30 4647 H 430.729 -4.24698 -3.71876 0
M  V30 4648 N 430.127 0.543554 -1.4793 0
M  V30 4649 C 431.355 1.32516 -1.58894 0
M  V30 4650 C 431.77 1.87215 -0.244131 0
M  V30 4651 O 431.127 1.65709 0.764652 0
M  V30 4652 C 431.178 2.48554 -2.62494 0
M  V30 4653 O 430.899 1.96112 -3.91755 0
M  V30 4654 C 432.4 3.40572 -2.8377 0
M  V30 4655 H 429.62 0.403472 -0.536145 0
M  V30 4656 H 432.164 0.657106 -1.93655 0
M  V30 4657 H 430.319 3.1127 -2.30629 0
M  V30 4658 H 430.733 2.71967 -4.4848 0
M  V30 4659 H 432.207 4.18375 -3.60093 0
M  V30 4660 H 432.684 3.94965 -1.92092 0
M  V30 4661 H 433.29 2.8366 -3.16887 0
M  V30 4662 N 431.605 1.3629 0.791371 0
M  V30 4663 C 432.882 1.20962 1.53712 0
M  V30 4664 C 433.262 -0.205021 2.10102 0
M  V30 4665 O 432.61 -1.21042 1.93807 0
M  V30 4666 C 432.82 2.29002 2.63361 0
M  V30 4667 C 434.168 2.65572 3.31295 0
M  V30 4668 O 435.192 2.2803 2.73643 0
M  V30 4669 O 434.051 3.3018 4.35481 0
M  V30 4670 H 431.145 0.47086 0.679867 0
M  V30 4671 H 433.691 1.48016 0.830021 0
M  V30 4672 H 432.463 3.2382 2.19674 0
M  V30 4673 H 432.086 2.03303 3.41692 0
M  V30 4674 N 433.083 -1.0153 1.20538 0
M  V30 4675 C 434.046 -2.0826 0.957098 0
M  V30 4676 C 435.046 -1.60657 -0.0678655 0
M  V30 4677 O 436.236 -1.73385 0.168332 0
M  V30 4678 C 433.368 -3.38033 0.441188 0
M  V30 4679 H 434.561 -2.31719 1.90384 0
M  V30 4680 H 432.114 -1.1835 1.02093 0
M  V30 4681 H 432.849 -3.20249 -0.510961 0
M  V30 4682 H 432.634 -3.73911 1.18038 0
M  V30 4683 H 434.124 -4.16613 0.287009 0
M  V30 4684 N 434.561 -1.01147 -1.20859 0
M  V30 4685 C 435.808 -0.697865 -1.90095 0
M  V30 4686 C 436.136 0.772014 -1.78522 0
M  V30 4687 O 435.391 1.57595 -1.16027 0
M  V30 4688 C 435.69 -1.0727 -3.40922 0
M  V30 4689 C 435.356 -2.53792 -3.72693 0
M  V30 4690 C 434.018 -2.93829 -3.81075 0
M  V30 4691 C 436.37 -3.48674 -3.87397 0
M  V30 4692 C 433.698 -4.27696 -4.01613 0
M  V30 4693 C 436.05 -4.82223 -4.09444 0
M  V30 4694 C 434.714 -5.21973 -4.16054 0
M  V30 4695 H 433.984 -0.255367 -0.695607 0
M  V30 4696 H 436.631 -1.27111 -1.43231 0
M  V30 4697 H 434.936 -0.417799 -3.89566 0
M  V30 4698 H 436.633 -0.807818 -3.92779 0
M  V30 4699 H 433.223 -2.21768 -3.66765 0
M  V30 4700 H 437.407 -3.18904 -3.80281 0
M  V30 4701 H 432.663 -4.58055 -4.04964 0
M  V30 4702 H 436.837 -5.55672 -4.19763 0
M  V30 4703 H 434.464 -6.25717 -4.31721 0
M  V30 4704 N 436.039 1.36541 -0.78704 0
M  V30 4705 C 436.949 2.3387 -0.184896 0
M  V30 4706 C 437.965 1.60927 0.661697 0
M  V30 4707 O 439.141 1.92927 0.57804 0
M  V30 4708 C 436.206 3.40122 0.672145 0
M  V30 4709 C 435.267 4.28867 -0.19267 0
M  V30 4710 C 434.5 5.30045 0.623561 0
M  V30 4711 O 434.723 5.39232 1.8597 0
M  V30 4712 O 433.657 6.01895 0.0247068 0
M  V30 4713 H 437.483 2.87126 -0.989562 0
M  V30 4714 H 435.068 1.38969 -0.548455 0
M  V30 4715 H 436.95 4.05093 1.16094 0
M  V30 4716 H 435.625 2.89169 1.45474 0
M  V30 4717 H 434.532 3.66945 -0.728166 0
M  V30 4718 H 435.865 4.83165 -0.938722 0
M  V30 4719 N 437.518 0.538854 1.48102 0
M  V30 4720 C 438.448 -0.207654 2.32575 0
M  V30 4721 C 439.429 -0.926559 1.4265 0
M  V30 4722 O 440.614 -0.91061 1.71527 0
M  V30 4723 C 437.744 -1.24957 3.24042 0
M  V30 4724 C 436.698 -0.648263 4.23062 0
M  V30 4725 C 436.024 -1.79348 5.03725 0
M  V30 4726 C 437.324 0.385897 5.20872 0
M  V30 4727 H 439.018 0.497534 2.95237 0
M  V30 4728 H 436.564 0.240715 1.41974 0
M  V30 4729 H 438.517 -1.77983 3.81969 0
M  V30 4730 H 437.241 -1.98446 2.59397 0
M  V30 4731 H 435.9 -0.139452 3.66335 0
M  V30 4732 H 435.548 -2.51696 4.35498 0
M  V30 4733 H 435.248 -1.39702 5.70751 0
M  V30 4734 H 436.772 -2.32735 5.64506 0
M  V30 4735 H 438.186 -0.057607 5.73271 0
M  V30 4736 H 436.583 0.700227 5.96001 0
M  V30 4737 H 437.653 1.28848 4.67468 0
M  V30 4738 N 438.996 -1.55193 0.274407 0
M  V30 4739 C 440.244 -1.99187 -0.341902 0
M  V30 4740 C 440.565 -1.16422 -1.56431 0
M  V30 4741 O 439.835 -0.253573 -1.94252 0
M  V30 4742 H 438.415 -0.735721 -0.129317 0
M  V30 4743 H 441.077 -1.91168 0.379578 0
M  V30 4744 H 440.173 -3.05629 -0.632253 0
M  V30 4745 N 440.474 -0.00167713 -1.576 0
M  V30 4746 C 441.421 0.989195 -2.08527 0
M  V30 4747 C 442.391 1.34031 -0.981065 0
M  V30 4748 O 443.576 1.43839 -1.2536 0
M  V30 4749 C 440.716 2.27537 -2.59463 0
M  V30 4750 C 439.829 1.98314 -3.83791 0
M  V30 4751 C 438.964 3.21025 -4.23222 0
M  V30 4752 C 438.003 2.87495 -5.40382 0
M  V30 4753 N 437.14 4.02749 -5.75098 0
M  V30 4754 H 441.98 0.547973 -2.92919 0
M  V30 4755 H 439.517 0.258917 -1.44803 0
M  V30 4756 H 441.475 3.02729 -2.87073 0
M  V30 4757 H 440.105 2.69325 -1.77943 0
M  V30 4758 H 439.157 1.13482 -3.63078 0
M  V30 4759 H 440.469 1.69601 -4.69081 0
M  V30 4760 H 439.623 4.04561 -4.52123 0
M  V30 4761 H 438.362 3.52877 -3.36644 0
M  V30 4762 H 437.367 2.02367 -5.11202 0
M  V30 4763 H 438.592 2.56889 -6.28637 0
M  V30 4764 H 436.538 4.34494 -4.91478 0
M  V30 4765 H 436.455 3.77566 -6.54966 0
M  V30 4766 H 437.723 4.87068 -6.08592 0
M  V30 4767 N 441.952 1.55251 0.271103 0
M  V30 4768 C 442.915 1.87484 1.31842 0
M  V30 4769 C 443.915 0.749545 1.42262 0
M  V30 4770 O 445.105 1.01771 1.4138 0
M  V30 4771 C 442.237 2.0818 2.69951 0
M  V30 4772 H 443.43 2.81108 1.0449 0
M  V30 4773 H 440.983 1.47771 0.509258 0
M  V30 4774 H 441.718 1.16944 3.02481 0
M  V30 4775 H 441.503 2.90114 2.63774 0
M  V30 4776 H 442.993 2.34385 3.4562 0
M  V30 4777 N 443.43 -0.535701 1.48216 0
M  V30 4778 C 444.707 -1.29683 1.46429 0
M  V30 4779 C 445.087 -2.10391 0.172852 0
M  V30 4780 O 444.435 -2.12282 -0.845488 0
M  V30 4781 C 444.645 -2.18313 2.72287 0
M  V30 4782 C 445.993 -2.78639 3.20383 0
M  V30 4783 O 447.017 -2.28604 2.73164 0
M  V30 4784 O 445.876 -3.69636 4.02531 0
M  V30 4785 H 442.97 -0.585026 0.584529 0
M  V30 4786 H 445.516 -0.552827 1.60443 0
M  V30 4787 H 444.288 -1.58421 3.57797 0
M  V30 4788 H 443.911 -2.99971 2.60966 0
M  V30 4789 N 444.908 -1.36708 -0.784132 0
M  V30 4790 C 446.155 -1.31231 -1.54222 0
M  V30 4791 C 446.483 0.106864 -1.94206 0
M  V30 4792 O 445.738 1.07734 -1.63376 0
M  V30 4793 C 446.037 -2.18571 -2.82774 0
M  V30 4794 C 445.703 -3.67039 -2.61903 0
M  V30 4795 C 444.365 -4.07503 -2.55919 0
M  V30 4796 C 446.717 -4.61149 -2.4288 0
M  V30 4797 C 444.045 -5.40211 -2.28886 0
M  V30 4798 C 446.397 -5.94081 -2.17373 0
M  V30 4799 C 445.061 -6.33664 -2.09825 0
M  V30 4800 H 444.331 -0.48021 -0.56434 0
M  V30 4801 H 446.978 -1.68807 -0.904233 0
M  V30 4802 H 445.283 -1.73949 -3.51068 0
M  V30 4803 H 446.98 -2.11655 -3.40592 0
M  V30 4804 H 443.57 -3.34941 -2.67418 0
M  V30 4805 H 447.754 -4.30756 -2.46501 0
M  V30 4806 H 443.01 -5.69855 -2.21529 0
M  V30 4807 H 447.184 -6.66566 -2.01649 0
M  V30 4808 H 444.811 -7.36423 -1.88641 0
M  V30 4809 N 446.386 1.0089 -1.21074 0
M  V30 4810 C 447.611 1.78727 -1.05221 0
M  V30 4811 C 448.036 1.83932 0.393795 0
M  V30 4812 O 447.394 1.28004 1.28393 0
M  V30 4813 C 447.442 3.20665 -1.64944 0
M  V30 4814 O 446.546 4.02632 -0.892273 0
M  V30 4815 H 445.887 0.550973 -0.370574 0
M  V30 4816 H 448.417 1.26847 -1.60534 0
M  V30 4817 H 448.427 3.71352 -1.69002 0
M  V30 4818 H 447.102 3.16191 -2.70177 0
M  V30 4819 H 445.679 3.61207 -0.926492 0
M  V30 4820 N 447.864 1.01787 1.20321 0
M  V30 4821 C 449.112 0.706538 1.89347 0
M  V30 4822 C 449.433 -0.766289 1.79313 0
M  V30 4823 O 448.703 -1.55126 1.19635 0
M  V30 4824 H 447.283 0.258348 0.700903 0
M  V30 4825 H 449.945 1.28974 1.46122 0
M  V30 4826 H 449.041 0.991066 2.95946 0
M  V30 4827 N 449.342 -1.36122 0.79427 0
M  V30 4828 C 450.275 -2.27759 0.141845 0
M  V30 4829 C 451.253 -1.47471 -0.684921 0
M  V30 4830 O 452.437 -1.76759 -0.654857 0
M  V30 4831 C 449.564 -3.29008 -0.804446 0
M  V30 4832 C 448.61 -4.26459 -0.0588617 0
M  V30 4833 S 449.443 -5.20253 1.26873 0
M  V30 4834 C 450.599 -6.25048 0.326562 0
M  V30 4835 H 450.832 -2.82746 0.918818 0
M  V30 4836 H 448.365 -1.42736 0.588722 0
M  V30 4837 H 450.323 -3.87842 -1.34495 0
M  V30 4838 H 448.984 -2.72924 -1.5547 0
M  V30 4839 H 448.177 -4.97973 -0.777087 0
M  V30 4840 H 447.779 -3.71731 0.411309 0
M  V30 4841 H 450.071 -6.75705 -0.492795 0
M  V30 4842 H 451.014 -7.00852 1.01053 0
M  V30 4843 H 451.422 -5.64454 -0.0722627 0
M  V30 4844 N 450.82 -0.546701 -1.47814 0
M  V30 4845 C 452.045 -0.021268 -2.07389 0
M  V30 4846 C 452.47 1.25822 -1.39822 0
M  V30 4847 O 451.828 1.75111 -0.46968 0
M  V30 4848 C 451.876 0.168502 -3.60206 0
M  V30 4849 O 450.98 1.23347 -3.93522 0
M  V30 4850 H 450.321 -0.0466108 -0.662362 0
M  V30 4851 H 452.851 -0.759387 -1.89985 0
M  V30 4852 H 452.861 0.385982 -4.0617 0
M  V30 4853 H 451.536 -0.766075 -4.08784 0
M  V30 4854 H 450.113 0.997319 -3.59316 0
M  V30 4855 N 452.299 1.55045 -0.282633 0
M  V30 4856 C 453.231 2.2023 0.634924 0
M  V30 4857 C 454.244 1.18931 1.11172 0
M  V30 4858 O 455.433 1.4562 1.03233 0
M  V30 4859 C 452.533 2.82041 1.87899 0
M  V30 4860 C 451.706 4.091 1.54776 0
M  V30 4861 C 450.765 4.54887 2.64507 0
M  V30 4862 O 449.791 5.20496 2.30375 0
M  V30 4863 N 450.993 4.25659 3.94709 0
M  V30 4864 H 453.758 2.99601 0.0769811 0
M  V30 4865 H 451.319 1.61565 -0.104048 0
M  V30 4866 H 453.311 3.09613 2.60619 0
M  V30 4867 H 451.881 2.06618 2.3458 0
M  V30 4868 H 451.101 3.88736 0.654049 0
M  V30 4869 H 452.389 4.9187 1.30158 0
M  V30 4870 H 451.787 3.7306 4.25256 0
M  V30 4871 H 450.344 4.57984 4.63782 0
M  V30 4872 N 453.777 0.010035 1.57597 0
M  V30 4873 C 455.005 -0.683413 1.95287 0
M  V30 4874 C 455.42 -1.66747 0.885481 0
M  V30 4875 O 454.777 -1.82003 -0.134629 0
M  V30 4876 C 454.828 -1.40652 3.33015 0
M  V30 4877 O 454.549 -0.461916 4.35658 0
M  V30 4878 C 456.05 -2.19356 3.85225 0
M  V30 4879 H 453.27 -0.189708 0.643624 0
M  V30 4880 H 455.814 0.0641359 2.04399 0
M  V30 4881 H 453.969 -2.10562 3.2518 0
M  V30 4882 H 454.383 -0.973215 5.15392 0
M  V30 4883 H 455.857 -2.65433 4.83993 0
M  V30 4884 H 456.334 -3.02457 3.18459 0
M  V30 4885 H 456.94 -1.54442 3.96267 0
M  V30 4886 N 455.255 -1.55392 -0.262866 0
M  V30 4887 C 456.532 -1.67204 -1.01499 0
M  V30 4888 C 456.912 -0.545186 -2.03939 0
M  V30 4889 O 456.26 0.453467 -2.23955 0
M  V30 4890 C 456.47 -3.06847 -1.6627 0
M  V30 4891 C 457.818 -3.64928 -2.17054 0
M  V30 4892 O 458.842 -3.09545 -1.76239 0
M  V30 4893 O 457.701 -4.61984 -2.91947 0
M  V30 4894 H 454.795 -0.679467 -0.471438 0
M  V30 4895 H 457.341 -1.67729 -0.257918 0
M  V30 4896 H 456.113 -3.80309 -0.920915 0
M  V30 4897 H 455.736 -3.10266 -2.48638 0
M  V30 4898 N 456.733 0.527833 -1.48498 0
M  V30 4899 C 457.663 1.64136 -1.66077 0
M  V30 4900 C 458.644 1.62286 -0.509625 0
M  V30 4901 O 459.829 1.79449 -0.742413 0
M  V30 4902 C 456.959 3.02717 -1.70234 0
M  V30 4903 C 455.913 3.19426 -2.8487 0
M  V30 4904 C 455.239 4.5909 -2.74118 0
M  V30 4905 C 456.539 3.01993 -4.26142 0
M  V30 4906 H 458.233 1.4968 -2.593 0
M  V30 4907 H 455.779 0.718654 -1.24785 0
M  V30 4908 H 457.732 3.80491 -1.8112 0
M  V30 4909 H 456.456 3.18201 -0.735911 0
M  V30 4910 H 455.115 2.4407 -2.73542 0
M  V30 4911 H 454.763 4.71413 -1.7544 0
M  V30 4912 H 454.463 4.71214 -3.51042 0
M  V30 4913 H 455.987 5.3896 -2.86974 0
M  V30 4914 H 457.401 3.69558 -4.38292 0
M  V30 4915 H 455.798 3.2561 -5.04082 0
M  V30 4916 H 456.868 1.98396 -4.42456 0
M  V30 4917 N 458.211 1.37122 0.776871 0
M  V30 4918 C 459.436 1.354 1.57104 0
M  V30 4919 C 459.861 -0.0595562 1.88006 0
M  V30 4920 O 459.219 -1.03514 1.48844 0
M  V30 4921 C 459.267 2.19472 2.8612 0
M  V30 4922 O 458.371 1.59582 3.80273 0
M  V30 4923 H 457.712 0.462869 0.476076 0
M  V30 4924 H 460.242 1.80577 0.961932 0
M  V30 4925 H 460.252 2.32502 3.35271 0
M  V30 4926 H 458.927 3.22222 2.62956 0
M  V30 4927 H 457.504 1.55564 3.38902 0
M  V30 4928 N 459.689 -1.00246 1.21608 0
M  V30 4929 C 460.619 -2.10921 1.00172 0
M  V30 4930 C 461.6 -1.69938 -0.0741587 0
M  V30 4931 O 462.785 -1.94009 0.0861753 0
M  V30 4932 C 459.915 -3.42618 0.568355 0
M  V30 4933 C 458.869 -3.97407 1.58909 0
M  V30 4934 C 458.195 -5.25038 1.01187 0
M  V30 4935 C 459.495 -4.2918 2.97661 0
M  V30 4936 H 461.189 -2.29112 1.92739 0
M  V30 4937 H 458.735 -1.10101 0.928102 0
M  V30 4938 H 460.688 -4.19444 0.405555 0
M  V30 4939 H 459.412 -3.24227 -0.392961 0
M  V30 4940 H 458.071 -3.22703 1.73949 0
M  V30 4941 H 457.719 -5.02982 0.0421965 0
M  V30 4942 H 457.419 -5.62661 1.6937 0
M  V30 4943 H 458.943 -6.04507 0.860448 0
M  V30 4944 H 460.357 -4.96839 2.86049 0
M  V30 4945 H 458.754 -4.77952 3.6288 0
M  V30 4946 H 459.824 -3.3735 3.48315 0
M  V30 4947 N 461.167 -1.02423 -1.1978 0
M  V30 4948 C 462.392 -0.7373 -1.93852 0
M  V30 4949 C 462.817 0.696923 -1.74713 0
M  V30 4950 O 462.175 1.48056 -1.04638 0
M  V30 4951 C 462.223 -1.08783 -3.438 0
M  V30 4952 O 461.327 -0.20383 -4.11896 0
M  V30 4953 H 460.668 -0.27284 -0.605355 0
M  V30 4954 H 463.198 -1.36966 -1.51992 0
M  V30 4955 H 463.208 -1.04276 -3.9445 0
M  V30 4956 H 461.883 -2.13274 -3.57053 0
M  V30 4957 H 460.46 -0.307091 -3.71633 0
M  V30 4958 N 462.645 1.35699 -0.801477 0
M  V30 4959 C 463.592 2.29876 -0.206294 0
M  V30 4960 C 464.562 1.52565 0.656752 0
M  V30 4961 O 465.747 1.81024 0.602906 0
M  V30 4962 C 462.887 3.39052 0.643272 0
M  V30 4963 C 462 4.31335 -0.239644 0
M  V30 4964 C 461.135 5.27599 0.61744 0
M  V30 4965 C 460.174 6.11521 -0.26619 0
M  V30 4966 N 459.311 6.99938 0.550571 0
M  V30 4967 H 464.151 2.80187 -1.01484 0
M  V30 4968 H 461.688 1.37902 -0.511997 0
M  V30 4969 H 463.646 4.0101 1.15094 0
M  V30 4970 H 462.276 2.9003 1.41713 0
M  V30 4971 H 461.328 3.70426 -0.865381 0
M  V30 4972 H 462.64 4.90243 -0.919985 0
M  V30 4973 H 461.794 5.94906 1.19045 0
M  V30 4974 H 460.533 4.69176 1.33137 0
M  V30 4975 H 459.538 5.43166 -0.851507 0
M  V30 4976 H 460.763 6.72022 -0.9779 0
M  V30 4977 H 458.709 6.44008 1.24856 0
M  V30 4978 H 458.626 7.55966 -0.071832 0
M  V30 4979 H 459.894 7.71599 1.10702 0
M  V30 4980 N 464.123 0.554532 1.47522 0
M  V30 4981 C 465.369 0.0295227 2.02779 0
M  V30 4982 C 465.702 -1.31582 1.42828 0
M  V30 4983 O 464.977 -1.85561 0.582872 0
M  V30 4984 C 465.26 -0.0664057 3.60039 0
M  V30 4985 C 465.113 1.30585 4.30427 0
M  V30 4986 C 466.432 -0.781162 4.33112 0
M  V30 4987 H 463.551 0.0122027 0.736899 0
M  V30 4988 H 466.193 0.716305 1.7598 0
M  V30 4989 H 464.343 -0.651307 3.83002 0
M  V30 4990 H 466.015 1.93374 4.18813 0
M  V30 4991 H 464.258 1.88125 3.90886 0
M  V30 4992 H 464.929 1.19147 5.38988 0
M  V30 4993 H 467.405 -0.284565 4.15126 0
M  V30 4994 H 466.281 -0.817237 5.42782 0
M  V30 4995 H 466.542 -1.83672 4.0214 0
M  V30 4996 N 465.601 -1.54893 0.290851 0
M  V30 4997 C 466.847 -2.0023 -0.321867 0
M  V30 4998 C 467.18 -1.179 -1.54316 0
M  V30 4999 O 466.455 -0.25293 -1.92848 0
M  V30 5000 C 466.738 -3.53456 -0.688515 0
M  V30 5001 C 466.591 -4.46532 0.541209 0
M  V30 5002 C 467.91 -4.13057 -1.51895 0
M  V30 5003 H 465.029 -0.727891 -0.115515 0
M  V30 5004 H 467.671 -1.85722 0.400931 0
M  V30 5005 H 465.821 -3.6595 -1.30433 0
M  V30 5006 H 467.493 -4.4596 1.17973 0
M  V30 5007 H 465.736 -4.17545 1.17636 0
M  V30 5008 H 466.407 -5.51475 0.240675 0
M  V30 5009 H 468.883 -4.03937 -0.99872 0
M  V30 5010 H 467.759 -5.20448 -1.74429 0
M  V30 5011 H 468.02 -3.64284 -2.50498 0
M  V30 5012 N 467.08 -0.0183926 -1.57589 0
M  V30 5013 C 468.03 0.975944 -2.06057 0
M  V30 5014 C 469.014 1.29204 -0.958908 0
M  V30 5015 O 470.206 1.27995 -1.22255 0
M  V30 5016 C 467.335 2.26194 -2.58247 0
M  V30 5017 C 466.421 1.97467 -3.75323 0
M  V30 5018 N 466.812 1.38968 -4.86335 0
M  V30 5019 C 465.11 2.27515 -3.83605 0
M  V30 5020 C 465.811 1.27131 -5.67638 0
M  V30 5021 N 464.787 1.76319 -5.14211 0
M  V30 5022 H 468.589 0.518444 -2.89291 0
M  V30 5023 H 466.103 0.18688 -1.61321 0
M  V30 5024 H 468.1 2.98289 -2.91255 0
M  V30 5025 H 466.76 2.7258 -1.76438 0
M  V30 5026 H 467.771 1.06608 -5.06809 0
M  V30 5027 H 464.448 2.76649 -3.12684 0
M  V30 5028 H 465.838 0.819882 -6.66879 0
M  V30 5029 N 468.558 1.5553 0.254621 0
M  V30 5030 C 469.505 1.89666 1.31512 0
M  V30 5031 C 470.475 0.750057 1.482 0
M  V30 5032 O 471.66 1.00301 1.62309 0
M  V30 5033 C 468.8 2.19009 2.667 0
M  V30 5034 C 467.913 3.46435 2.58083 0
M  V30 5035 C 467.048 3.65386 3.85573 0
M  V30 5036 C 466.087 4.8644 3.71541 0
M  V30 5037 N 465.224 5.01952 4.90906 0
M  V30 5038 H 470.064 2.80109 1.017 0
M  V30 5039 H 467.601 1.38666 0.490938 0
M  V30 5040 H 469.559 2.34025 3.45381 0
M  V30 5041 H 468.189 1.31779 2.94676 0
M  V30 5042 H 467.241 3.39792 1.71013 0
M  V30 5043 H 468.553 4.35258 2.43622 0
M  V30 5044 H 467.707 3.80319 4.72697 0
M  V30 5045 H 466.446 2.74781 4.02922 0
M  V30 5046 H 465.451 4.71491 2.82801 0
M  V30 5047 H 466.676 5.78497 3.55694 0
M  V30 5048 H 464.622 4.14283 5.08631 0
M  V30 5049 H 464.539 5.84851 4.79046 0
M  V30 5050 H 465.807 5.21289 5.7955 0
M  V30 5051 N 470.036 -0.519951 1.48776 0
M  V30 5052 C 471.261 -1.30447 1.6124 0
M  V30 5053 C 471.686 -1.86055 0.276591 0
M  V30 5054 O 471.044 -1.64915 -0.753183 0
M  V30 5055 C 471.092 -2.42406 2.66967 0
M  V30 5056 O 470.196 -3.45728 2.24824 0
M  V30 5057 H 469.537 -0.385924 0.540332 0
M  V30 5058 H 472.067 -0.624572 1.94834 0
M  V30 5059 H 472.077 -2.88447 2.88552 0
M  V30 5060 H 470.752 -2.01294 3.63941 0
M  V30 5061 H 469.329 -3.05737 2.13494 0
M  V30 5062 N 471.514 -1.37532 -0.769588 0
M  V30 5063 C 472.761 -1.3286 -1.52822 0
M  V30 5064 C 473.089 0.0862597 -1.94309 0
M  V30 5065 O 472.344 1.05995 -1.6451 0
M  V30 5066 C 472.643 -2.21558 -2.8044 0
M  V30 5067 C 472.309 -3.69796 -2.57996 0
M  V30 5068 C 470.971 -4.10194 -2.51583 0
M  V30 5069 C 473.323 -4.63699 -2.37976 0
M  V30 5070 C 470.651 -5.42608 -2.23144 0
M  V30 5071 C 473.003 -5.96353 -2.1106 0
M  V30 5072 C 471.667 -6.35853 -2.03093 0
M  V30 5073 H 470.937 -0.486168 -0.559215 0
M  V30 5074 H 473.584 -1.69757 -0.886277 0
M  V30 5075 H 471.889 -1.77663 -3.49204 0
M  V30 5076 H 473.586 -2.15256 -3.38328 0
M  V30 5077 H 470.176 -3.37759 -2.63851 0
M  V30 5078 H 474.36 -4.33346 -2.41919 0
M  V30 5079 H 469.616 -5.72173 -2.15472 0
M  V30 5080 H 473.79 -6.68667 -1.94568 0
M  V30 5081 H 471.417 -7.38382 -1.8082 0
M  V30 5082 N 472.992 0.995999 -1.22138 0
M  V30 5083 C 474.238 1.73767 -1.04561 0
M  V30 5084 C 474.571 1.89633 0.418698 0
M  V30 5085 O 473.846 1.43723 1.3105 0
M  V30 5086 C 474.129 3.14505 -1.75382 0
M  V30 5087 C 473.982 3.06306 -3.29388 0
M  V30 5088 C 475.301 4.13615 -1.50369 0
M  V30 5089 H 472.42 0.630728 -0.38125 0
M  V30 5090 H 475.062 1.16057 -1.50435 0
M  V30 5091 H 473.212 3.63775 -1.36383 0
M  V30 5092 H 474.884 2.64681 -3.77812 0
M  V30 5093 H 473.127 2.43186 -3.59226 0
M  V30 5094 H 473.798 4.05884 -3.74116 0
M  V30 5095 H 476.274 3.73089 -1.84239 0
M  V30 5096 H 475.15 5.10212 -2.02421 0
M  V30 5097 H 475.411 4.39949 -0.435611 0
M  V30 5098 N 474.47 1.03057 1.19235 0
M  V30 5099 C 475.38 0.622922 2.26179 0
M  V30 5100 C 476.396 -0.346113 1.70523 0
M  V30 5101 O 477.572 -0.203572 2.00369 0
M  V30 5102 C 474.637 -0.0182063 3.46695 0
M  V30 5103 C 473.698 0.998546 4.17526 0
M  V30 5104 C 472.931 0.387917 5.32288 0
M  V30 5105 O 473.154 -0.808668 5.64639 0
M  V30 5106 O 472.088 1.1116 5.91546 0
M  V30 5107 H 475.914 1.51363 2.63292 0
M  V30 5108 H 473.499 0.800856 1.26122 0
M  V30 5109 H 475.381 -0.375606 4.19723 0
M  V30 5110 H 474.056 -0.882895 3.11427 0
M  V30 5111 H 472.963 1.40756 3.4661 0
M  V30 5112 H 474.296 1.83366 4.56769 0
M  V30 5113 N 475.948 -1.35272 0.808662 0
M  V30 5114 C 477.194 -1.99003 0.390581 0
M  V30 5115 C 477.527 -1.63999 -1.0401 0
M  V30 5116 O 476.802 -0.904368 -1.72196 0
M  V30 5117 C 477.085 -3.55454 0.576566 0
M  V30 5118 C 476.938 -4.00249 2.05233 0
M  V30 5119 C 478.257 -4.401 0.00354277 0
M  V30 5120 H 475.376 -0.722917 0.143388 0
M  V30 5121 H 478.018 -1.6039 1.01858 0
M  V30 5122 H 476.168 -3.88477 0.0419766 0
M  V30 5123 H 477.84 -3.77626 2.64946 0
M  V30 5124 H 476.083 -3.51082 2.54801 0
M  V30 5125 H 476.754 -5.0911 2.13333 0
M  V30 5126 H 479.23 -4.13548 0.460117 0
M  V30 5127 H 478.106 -5.48656 0.163575 0
M  V30 5128 H 478.367 -4.28444 -1.09032 0
M  V30 5129 N 477.426 -0.562348 -1.47226 0
M  V30 5130 C 478.374 0.195476 -2.31777 0
M  V30 5131 C 479.368 0.90433 -1.43242 0
M  V30 5132 O 480.574 0.825031 -1.59979 0
M  V30 5133 H 476.949 0.0819095 -0.747526 0
M  V30 5134 H 478.92 -0.536753 -2.93533 0
M  V30 5135 C 477.669 1.20902 -3.26003 0
M  V30 5136 H 476.992 0.672997 -3.94095 0
M  V30 5137 H 478.432 1.71006 -3.87986 0
M  V30 5138 C 476.891 2.25955 -2.49891 0
M  V30 5139 O 477.421 3.32969 -2.2471 0
M  V30 5140 N 475.627 2.00019 -2.1081 0
M  V30 5141 H 475.174 1.13006 -2.31489 0
M  V30 5142 H 475.132 2.70523 -1.60201 0
M  V30 5143 N 478.904 1.54736 -0.299062 0
M  V30 5144 C 479.814 2.27127 0.587413 0
M  V30 5145 C 480.83 1.30575 1.15005 0
M  V30 5146 O 482.006 1.63554 1.17525 0
M  V30 5147 C 479.071 2.99645 1.74395 0
M  V30 5148 C 478.132 4.11731 1.21559 0
M  V30 5149 C 477.365 4.80781 2.317 0
M  V30 5150 O 477.588 4.4918 3.51558 0
M  V30 5151 O 476.522 5.68226 1.98501 0
M  V30 5152 H 480.348 3.037 0.000250109 0
M  V30 5153 H 477.933 1.49256 -0.0655919 0
M  V30 5154 H 479.815 3.45138 2.4178 0
M  V30 5155 H 478.49 2.25969 2.31775 0
M  V30 5156 H 477.397 3.70641 0.507514 0
M  V30 5157 H 478.73 4.87379 0.687233 0
M  V30 5158 N 480.382 0.0267497 1.57577 0
M  V30 5159 C 481.292 -0.971633 2.13533 0
M  V30 5160 C 482.308 -1.35868 1.08701 0
M  V30 5161 O 483.484 -1.44058 1.40746 0
M  V30 5162 C 480.549 -2.23622 2.64941 0
M  V30 5163 C 479.61 -1.90982 3.8448 0
M  V30 5164 C 478.843 -3.11411 4.33427 0
M  V30 5165 O 479.066 -4.23992 3.81558 0
M  V30 5166 O 478 -2.93848 5.25297 0
M  V30 5167 H 481.826 -0.525853 2.99113 0
M  V30 5168 H 479.411 -0.193712 1.48139 0
M  V30 5169 H 481.293 -2.97864 2.98086 0
M  V30 5170 H 479.968 -2.67386 1.82446 0
M  V30 5171 H 478.875 -1.14132 3.56265 0
M  V30 5172 H 480.208 -1.52036 4.6813 0
M  V30 5173 N 481.861 -1.55662 -0.24637 0
M  V30 5174 C 483.109 -1.77168 -0.972411 0
M  V30 5175 C 483.43 -0.590827 -1.85834 0
M  V30 5176 O 482.7 0.393365 -1.9191 0
M  V30 5177 H 481.28 -0.653405 -0.362038 0
M  V30 5178 H 483.942 -1.93101 -0.264189 0
M  V30 5179 H 483.038 -2.68335 -1.59382 0
M  V30 5180 N 483.339 0.512053 -1.4905 0
M  V30 5181 C 484.567 1.29116 -1.61669 0
M  V30 5182 C 484.982 1.86655 -0.283787 0
M  V30 5183 O 484.339 1.67293 0.729331 0
M  V30 5184 C 484.39 2.4293 -2.67707 0
M  V30 5185 O 484.111 1.87758 -3.95826 0
M  V30 5186 C 485.612 3.34476 -2.90931 0
M  V30 5187 H 482.832 0.392009 -0.544583 0
M  V30 5188 H 485.376 0.615881 -1.95006 0
M  V30 5189 H 483.531 3.06308 -2.37179 0
M  V30 5190 H 483.945 2.62393 -4.54148 0
M  V30 5191 H 485.419 4.10642 -3.68886 0
M  V30 5192 H 485.896 3.90801 -2.00427 0
M  V30 5193 H 486.502 2.76874 -3.22832 0
M  V30 5194 N 484.817 1.37938 0.762283 0
M  V30 5195 C 485.727 1.36681 1.90671 0
M  V30 5196 C 486.743 0.265078 1.71969 0
M  V30 5197 O 487.919 0.502055 1.95042 0
M  V30 5198 C 484.984 1.18211 3.25925 0
M  V30 5199 C 484.045 2.3811 3.57214 0
M  V30 5200 C 483.278 2.20512 4.86014 0
M  V30 5201 O 483.501 1.19429 5.57757 0
M  V30 5202 O 482.435 3.08911 5.16583 0
M  V30 5203 H 486.261 2.33091 1.94685 0
M  V30 5204 H 483.846 1.18767 0.906356 0
M  V30 5205 H 485.728 1.09937 4.06807 0
M  V30 5206 H 484.403 0.248807 3.22742 0
M  V30 5207 H 483.31 2.51958 2.76529 0
M  V30 5208 H 484.643 3.30041 3.65149 0
M  V30 5209 N 486.295 -0.989507 1.22664 0
M  V30 5210 C 487.258 -2.06183 1.00106 0
M  V30 5211 C 488.258 -1.60765 -0.0337726 0
M  V30 5212 O 489.448 -1.72989 0.205072 0
M  V30 5213 C 486.58 -3.37021 0.51279 0
M  V30 5214 H 487.773 -2.27629 1.95256 0
M  V30 5215 H 485.326 -1.16158 1.0458 0
M  V30 5216 H 486.061 -3.21261 -0.442917 0
M  V30 5217 H 485.846 -3.71323 1.25942 0
M  V30 5218 H 487.336 -4.1591 0.375315 0
M  V30 5219 N 487.773 -1.03688 -1.18687 0
M  V30 5220 C 488.736 -0.629115 -2.20397 0
M  V30 5221 C 489.736 0.311495 -1.57754 0
M  V30 5222 O 490.926 0.0974107 -1.73927 0
M  V30 5223 C 488.058 0.0782231 -3.4081 0
M  V30 5224 H 489.251 -1.52915 -2.57987 0
M  V30 5225 H 486.804 -0.828988 -1.32505 0
M  V30 5226 H 487.539 0.992233 -3.08748 0
M  V30 5227 H 487.324 -0.597776 -3.87517 0
M  V30 5228 H 488.814 0.350156 -4.16129 0
M  V30 5229 N 489.251 1.34841 -0.815825 0
M  V30 5230 C 490.214 2.27959 -0.238185 0
M  V30 5231 C 491.214 1.49983 0.579816 0
M  V30 5232 O 492.404 1.69617 0.396953 0
M  V30 5233 C 489.536 3.34314 0.666876 0
M  V30 5234 H 490.729 2.80558 -1.05958 0
M  V30 5235 H 488.282 1.44852 -0.587156 0
M  V30 5236 H 489.017 2.86916 1.5116 0
M  V30 5237 H 488.802 3.92014 0.0819106 0
M  V30 5238 H 490.292 4.0379 1.06506 0
M  V30 5239 N 490.729 0.570148 1.46925 0
M  V30 5240 C 491.692 -0.159933 2.28641 0
M  V30 5241 C 492.692 -0.830638 1.37685 0
M  V30 5242 O 493.882 -0.684516 1.60187 0
M  V30 5243 C 491.014 -1.2354 3.17727 0
M  V30 5244 H 492.207 0.558035 2.94662 0
M  V30 5245 H 489.76 0.327603 1.52828 0
M  V30 5246 H 490.495 -1.98535 2.56426 0
M  V30 5247 H 490.28 -0.759125 3.84681 0
M  V30 5248 H 491.77 -1.74782 3.79264 0
M  V30 5249 N 492.207 -1.54576 0.307264 0
M  V30 5250 C 493.435 -2.04675 -0.302597 0
M  V30 5251 C 493.85 -1.18425 -1.47041 0
M  V30 5252 O 493.207 -0.211257 -1.81273 0
M  V30 5253 C 493.258 -3.53575 -0.752801 0
M  V30 5254 O 492.979 -4.36547 0.368536 0
M  V30 5255 C 494.48 -4.19699 -1.42717 0
M  V30 5256 H 491.7 -0.66786 -0.0648374 0
M  V30 5257 H 494.244 -1.99516 0.448716 0
M  V30 5258 H 492.399 -3.59074 -1.45412 0
M  V30 5259 H 492.813 -5.24497 0.0168937 0
M  V30 5260 H 494.287 -5.25388 -1.69327 0
M  V30 5261 H 494.764 -3.69815 -2.36925 0
M  V30 5262 H 495.37 -4.18293 -0.768856 0
M  V30 5263 N 493.685 -0.035106 -1.57561 0
M  V30 5264 C 494.648 0.929819 -2.09492 0
M  V30 5265 C 495.648 1.25026 -1.01119 0
M  V30 5266 O 496.838 1.18961 -1.27255 0
M  V30 5267 C 493.97 2.24457 -2.56577 0
M  V30 5268 H 495.163 0.479935 -2.96035 0
M  V30 5269 H 492.716 0.213033 -1.54841 0
M  V30 5270 H 493.451 2.74061 -1.73382 0
M  V30 5271 H 493.236 2.02508 -3.35757 0
M  V30 5272 H 494.726 2.93607 -2.96959 0
M  V30 5273 N 495.163 1.55791 0.238111 0
M  V30 5274 C 496.126 1.90239 1.27835 0
M  V30 5275 C 497.126 0.779552 1.4064 0
M  V30 5276 O 498.316 1.04747 1.3919 0
M  V30 5277 C 495.448 2.13859 2.65475 0
M  V30 5278 H 496.641 2.83262 0.985034 0
M  V30 5279 H 494.194 1.48818 0.477799 0
M  V30 5280 H 494.929 1.23334 2.99932 0
M  V30 5281 H 494.714 2.95643 2.57561 0
M  V30 5282 H 496.204 2.41664 3.40571 0
M  V30 5283 N 496.642 -0.504142 1.49319 0
M  V30 5284 C 497.891 -1.25507 1.57895 0
M  V30 5285 C 498.204 -1.93735 0.269433 0
M  V30 5286 O 499.41 -2.70492 0.233706 0
M  V30 5287 C 497.866 -2.27869 2.78574 0
M  V30 5288 C 497.474 -1.65594 4.16272 0
M  V30 5289 C 499.218 -3.0381 2.96479 0
M  V30 5290 C 497.125 -2.66048 5.28178 0
M  V30 5291 H 496.055 -0.47212 0.587894 0
M  V30 5292 H 498.706 -0.52931 1.757 0
M  V30 5293 H 497.088 -3.03594 2.54257 0
M  V30 5294 H 498.262 -0.958826 4.50714 0
M  V30 5295 H 496.577 -1.02055 4.037 0
M  V30 5296 H 499.174 -3.78925 3.77253 0
M  V30 5297 H 499.517 -3.61235 2.06918 0
M  V30 5298 H 500.05 -2.352 3.20821 0
M  V30 5299 H 496.789 -2.13408 6.19788 0
M  V30 5300 H 496.309 -3.34009 4.98195 0
M  V30 5301 H 497.988 -3.28536 5.57381 0
M  V30 5302 N 498.12 -1.38341 -0.754957 0
M  V30 5303 C 499.053 -1.29837 -1.87663 0
M  V30 5304 C 500.031 -0.175659 -1.61648 0
M  V30 5305 O 501.215 -0.352745 -1.8517 0
M  V30 5306 C 498.342 -1.01141 -3.23246 0
M  V30 5307 C 497.388 -2.15331 -3.6815 0
M  V30 5308 S 498.221 -3.77459 -3.79849 0
M  V30 5309 C 499.377 -3.50948 -5.18253 0
M  V30 5310 H 499.61 -2.24771 -1.9459 0
M  V30 5311 H 497.143 -1.24161 -0.917796 0
M  V30 5312 H 499.101 -0.852687 -4.01546 0
M  V30 5313 H 497.762 -0.0792784 -3.14 0
M  V30 5314 H 496.955 -1.90795 -4.6649 0
M  V30 5315 H 496.557 -2.27304 -2.97 0
M  V30 5316 H 498.849 -3.06977 -6.03963 0
M  V30 5317 H 499.792 -4.48677 -5.47809 0
M  V30 5318 H 500.2 -2.85492 -4.86985 0
M  V30 5319 N 499.598 0.982988 -1.23187 0
M  V30 5320 C 500.531 2.07302 -0.953993 0
M  V30 5321 C 501.509 1.62249 0.106753 0
M  V30 5322 O 502.693 1.88481 -0.0269525 0
M  V30 5323 C 499.82 3.35873 -0.436716 0
M  V30 5324 C 498.866 3.99862 -1.48367 0
M  V30 5325 S 499.699 4.39443 -3.06023 0
M  V30 5326 C 500.855 5.7117 -2.55959 0
M  V30 5327 H 501.088 2.30554 -1.87702 0
M  V30 5328 H 498.621 1.11883 -1.06403 0
M  V30 5329 H 500.579 4.10244 -0.144872 0
M  V30 5330 H 499.24 3.10634 0.465351 0
M  V30 5331 H 498.433 4.92471 -1.07182 0
M  V30 5332 H 498.035 3.31857 -1.72473 0
M  V30 5333 H 500.327 6.47977 -1.97818 0
M  V30 5334 H 501.27 6.17194 -3.47098 0
M  V30 5335 H 501.678 5.29046 -1.96902 0
M  V30 5336 N 501.076 1.04316 1.18135 0
M  V30 5337 C 502.009 0.580823 2.20685 0
M  V30 5338 C 502.987 -0.385943 1.57953 0
M  V30 5339 O 504.171 -0.299654 1.86103 0
M  V30 5340 C 501.298 -0.151162 3.38363 0
M  V30 5341 C 500.344 0.769247 4.19505 0
M  V30 5342 S 501.177 2.25352 4.85774 0
M  V30 5343 C 502.333 1.53246 6.0685 0
M  V30 5344 H 502.566 1.44968 2.5956 0
M  V30 5345 H 500.099 0.85434 1.28609 0
M  V30 5346 H 502.057 -0.567315 4.06561 0
M  V30 5347 H 500.718 -0.995936 2.97892 0
M  V30 5348 H 499.911 0.203335 5.0359 0
M  V30 5349 H 499.513 1.12436 3.56699 0
M  V30 5350 H 501.805 0.82689 6.72435 0
M  V30 5351 H 502.748 2.35044 6.67952 0
M  V30 5352 H 503.156 1.0237 5.5514 0
M  V30 5353 N 502.554 -1.34406 0.822964 0
M  V30 5354 C 503.97 -1.51275 0.508727 0
M  V30 5355 C 504.17 -1.76776 -0.967083 0
M  V30 5356 O 503.226 -1.81871 -1.75155 0
M  V30 5357 C 504.539 -2.67765 1.36829 0
M  V30 5358 C 506.087 -2.81647 1.36542 0
M  V30 5359 C 506.562 -4.01181 2.20947 0
M  V30 5360 N 508.053 -4.08388 2.18571 0
M  V30 5361 C 508.788 -5.00036 2.80627 0
M  V30 5362 N 508.284 -5.96906 3.51674 0
M  V30 5363 N 510.077 -4.92908 2.70181 0
M  V30 5364 H 502.228 -1.16113 1.77852 0
M  V30 5365 H 504.491 -0.56947 0.757897 0
M  V30 5366 H 504.197 -2.55551 2.41633 0
M  V30 5367 H 504.071 -3.62779 1.03303 0
M  V30 5368 H 506.458 -2.93303 0.325163 0
M  V30 5369 H 506.539 -1.87443 1.74066 0
M  V30 5370 H 506.183 -3.90286 3.25022 0
M  V30 5371 H 506.113 -4.94599 1.80774 0
M  V30 5372 H 508.604 -3.39051 1.66891 0
M  V30 5373 H 508.917 -6.63468 3.96271 0
M  V30 5374 H 507.262 -5.9703 3.5578 0
M  V30 5375 H 510.453 -4.1619 2.14251 0
M  V30 5376 H 510.626 -5.64137 3.18831 0
M  V30 5377 N 504.032 -0.577932 -1.46621 0
M  V30 5378 C 505.272 -0.0643097 -2.04299 0
M  V30 5379 C 505.636 1.26967 -1.44026 0
M  V30 5380 O 506.837 1.87224 -1.92875 0
M  V30 5381 C 505.108 0.00547588 -3.574 0
M  V30 5382 S 506.667 0.462216 -4.36359 0
M  V30 5383 H 503.485 -0.0351573 -0.71013 0
M  V30 5384 H 506.087 -0.76935 -1.79725 0
M  V30 5385 H 504.791 -0.969423 -3.98786 0
M  V30 5386 H 504.322 0.733435 -3.86503 0
M  V30 5387 H 506.337 1.71791 -4.65513 0
M  V30 5388 N 505.51 1.54411 -0.315457 0
M  V30 5389 C 506.473 2.22713 0.54142 0
M  V30 5390 C 507.473 1.2179 1.04995 0
M  V30 5391 O 508.663 1.46426 0.943667 0
M  V30 5392 C 505.795 2.92485 1.75116 0
M  V30 5393 H 506.988 2.99849 -0.0555508 0
M  V30 5394 H 504.541 1.56159 -0.0664453 0
M  V30 5395 H 505.276 2.19466 2.38758 0
M  V30 5396 H 505.061 3.66483 1.39401 0
M  V30 5397 H 506.551 3.44548 2.35959 0
M  V30 5398 N 506.988 0.0434614 1.5754 0
M  V30 5399 C 508.404 -0.313039 1.565 0
M  V30 5400 C 508.604 -1.71954 1.05043 0
M  V30 5401 O 507.66 -2.425 0.703564 0
M  V30 5402 C 508.973 -0.148544 3.00333 0
M  V30 5403 C 510.521 -0.220231 3.12224 0
M  V30 5404 C 510.996 -0.0843565 4.57922 0
M  V30 5405 N 512.487 -0.140881 4.62986 0
M  V30 5406 C 513.222 -0.0597443 5.73369 0
M  V30 5407 N 512.718 0.0733004 6.92761 0
M  V30 5408 N 514.511 -0.11477 5.61983 0
M  V30 5409 H 506.662 0.96303 1.89313 0
M  V30 5410 H 508.925 0.373164 0.871466 0
M  V30 5411 H 508.631 0.820894 3.41986 0
M  V30 5412 H 508.505 -0.912798 3.65989 0
M  V30 5413 H 510.892 -1.18014 2.70475 0
M  V30 5414 H 510.973 0.574646 2.49262 0
M  V30 5415 H 510.617 0.872192 5.00355 0
M  V30 5416 H 510.547 -0.898281 5.18882 0
M  V30 5417 H 513.038 -0.243273 3.77116 0
M  V30 5418 H 513.351 0.128128 7.72694 0
M  V30 5419 H 511.696 0.10828 6.94916 0
M  V30 5420 H 514.887 -0.217212 4.67596 0
M  V30 5421 H 515.06 -0.0480779 6.47982 0
M  V30 5422 N 508.466 -1.55915 -0.229846 0
M  V30 5423 C 509.713 -1.78542 -0.955452 0
M  V30 5424 C 510.041 -0.610785 -1.84661 0
M  V30 5425 O 509.296 0.405213 -1.91459 0
M  V30 5426 C 509.595 -3.06845 -1.8325 0
M  V30 5427 C 509.261 -4.37395 -1.09528 0
M  V30 5428 C 507.923 -4.72868 -0.891598 0
M  V30 5429 C 510.275 -5.18029 -0.574046 0
M  V30 5430 C 507.603 -5.86496 -0.154655 0
M  V30 5431 C 509.955 -6.32423 0.149513 0
M  V30 5432 C 508.619 -6.66504 0.364519 0
M  V30 5433 H 507.889 -0.653333 -0.349625 0
M  V30 5434 H 510.536 -1.90183 -0.224235 0
M  V30 5435 H 508.841 -2.90291 -2.63132 0
M  V30 5436 H 510.538 -3.21553 -2.39592 0
M  V30 5437 H 507.128 -4.09538 -1.26399 0
M  V30 5438 H 511.312 -4.91066 -0.718899 0
M  V30 5439 H 506.568 -6.11396 0.0222356 0
M  V30 5440 H 510.742 -6.94137 0.560947 0
M  V30 5441 H 508.369 -7.54397 0.937495 0
M  V30 5442 N 509.944 0.496216 -1.49584 0
M  V30 5443 C 511.19 1.25189 -1.59548 0
M  V30 5444 C 511.523 1.9212 -0.283466 0
M  V30 5445 O 510.798 1.80947 0.713324 0
M  V30 5446 C 511.081 2.31516 -2.75812 0
M  V30 5447 C 510.934 1.69054 -4.16822 0
M  V30 5448 C 512.253 3.3304 -2.87702 0
M  V30 5449 H 509.372 0.45379 -0.580727 0
M  V30 5450 H 512.014 0.549327 -1.81886 0
M  V30 5451 H 510.164 2.91438 -2.56897 0
M  V30 5452 H 511.836 1.12923 -4.47265 0
M  V30 5453 H 510.079 0.994485 -4.22247 0
M  V30 5454 H 510.75 2.462 -4.94054 0
M  V30 5455 H 513.226 2.83114 -3.04936 0
M  V30 5456 H 512.102 4.04794 -3.7072 0
M  V30 5457 H 512.363 3.95655 -1.97255 0
M  V30 5458 N 511.423 1.38739 0.74761 0
M  V30 5459 C 512.834 1.31507 1.32524 0
M  V30 5460 C 513.185 -0.0263963 1.96182 0
M  V30 5461 O 512.31 -0.92849 1.95469 0
M  V30 5462 C 512.905 2.38162 2.40966 0
M  V30 5463 C 511.464 2.34489 2.94434 0
M  V30 5464 C 510.611 2.20712 1.67873 0
M  V30 5465 H 513.562 1.4901 0.546043 0
M  V30 5466 H 513.583 2.04222 3.21051 0
M  V30 5467 H 513.095 3.35783 1.94605 0
M  V30 5468 H 511.196 1.40467 3.45108 0
M  V30 5469 H 511.309 3.28861 3.48407 0
M  V30 5470 H 509.673 1.67667 1.91729 0
M  V30 5471 H 510.456 3.20285 1.23582 0
M  V30 5472 N 512.901 -0.976442 1.23707 0
M  V30 5473 C 514.317 -1.24341 1.00058 0
M  V30 5474 C 514.517 -1.99315 -0.295932 0
M  V30 5475 O 513.573 -2.3123 -1.01435 0
M  V30 5476 C 514.886 -2.03909 2.21001 0
M  V30 5477 C 516.434 -2.17034 2.25534 0
M  V30 5478 C 516.909 -2.99994 3.46075 0
M  V30 5479 N 518.4 -3.07578 3.46338 0
M  V30 5480 C 519.135 -3.72104 4.36264 0
M  V30 5481 N 518.631 -4.3842 5.36432 0
M  V30 5482 N 520.424 -3.69029 4.23998 0
M  V30 5483 H 512.575 -0.47428 2.07037 0
M  V30 5484 H 514.838 -0.272167 0.908091 0
M  V30 5485 H 514.544 -1.56198 3.15111 0
M  V30 5486 H 514.418 -3.04654 2.22409 0
M  V30 5487 H 516.805 -2.63951 1.31961 0
M  V30 5488 H 516.886 -1.15664 2.28156 0
M  V30 5489 H 516.53 -2.53772 4.39957 0
M  V30 5490 H 516.46 -4.01541 3.40694 0
M  V30 5491 H 518.951 -2.60397 2.73865 0
M  V30 5492 H 519.264 -4.85447 6.013 0
M  V30 5493 H 517.609 -4.37116 5.40328 0
M  V30 5494 H 520.8 -3.16392 3.44984 0
M  V30 5495 H 520.973 -4.19034 4.94282 0
M  V30 5496 N 514.379 -1.04941 -1.1758 0
M  V30 5497 C 515.626 -0.757989 -1.87779 0
M  V30 5498 C 515.954 0.714827 -1.80888 0
M  V30 5499 O 515.209 1.53824 -1.20982 0
M  V30 5500 C 515.508 -1.18062 -3.37337 0
M  V30 5501 C 515.174 -2.65521 -3.6443 0
M  V30 5502 C 513.836 -3.05804 -3.71534 0
M  V30 5503 C 516.188 -3.60822 -3.76108 0
M  V30 5504 C 513.516 -4.40256 -3.87803 0
M  V30 5505 C 515.868 -4.95005 -3.93895 0
M  V30 5506 C 514.532 -5.34945 -3.99237 0
M  V30 5507 H 513.802 -0.277368 -0.68713 0
M  V30 5508 H 516.449 -1.31603 -1.39115 0
M  V30 5509 H 514.754 -0.541525 -3.8804 0
M  V30 5510 H 516.451 -0.932368 -3.9001 0
M  V30 5511 H 513.041 -2.33324 -3.59524 0
M  V30 5512 H 517.225 -3.30841 -3.69943 0
M  V30 5513 H 512.481 -4.70707 -3.90186 0
M  V30 5514 H 516.655 -5.68746 -4.01872 0
M  V30 5515 H 514.282 -6.39135 -4.11596 0
M  V30 5516 N 515.857 1.33968 -0.830081 0
M  V30 5517 C 517.097 1.99879 -0.427521 0
M  V30 5518 C 517.461 1.64355 0.992546 0
M  V30 5519 O 518.662 2.23164 1.49837 0
M  V30 5520 C 516.933 3.51771 -0.631815 0
M  V30 5521 S 518.492 4.37608 -0.323168 0
M  V30 5522 H 515.31 0.692485 -0.161202 0
M  V30 5523 H 517.912 1.63129 -1.07745 0
M  V30 5524 H 516.616 3.75113 -1.66488 0
M  V30 5525 H 516.147 3.93386 0.0325936 0
M  V30 5526 H 518.162 4.88683 0.860432 0
M  V30 5527 N 517.335 0.585699 1.46312 0
M  V30 5528 C 518.298 -0.135673 2.28798 0
M  V30 5529 C 519.298 -0.815988 1.38558 0
M  V30 5530 O 520.488 -0.667487 1.60904 0
M  V30 5531 C 517.62 -1.20163 3.1902 0
M  V30 5532 H 518.813 0.589257 2.94054 0
M  V30 5533 H 516.366 0.343794 1.52472 0
M  V30 5534 H 517.101 -1.95804 2.58517 0
M  V30 5535 H 516.886 -0.718282 3.85465 0
M  V30 5536 H 518.376 -1.70749 3.81096 0
M  V30 5537 N 518.813 -1.54241 0.323641 0
M  V30 5538 C 520.09 -1.92741 -0.333181 0
M  V30 5539 C 520.47 -1.25326 -1.69872 0
M  V30 5540 O 519.818 -0.396991 -2.25025 0
M  V30 5541 C 520.028 -3.46399 -0.425322 0
M  V30 5542 C 521.376 -4.19029 -0.68557 0
M  V30 5543 O 522.4 -3.52555 -0.50824 0
M  V30 5544 O 521.259 -5.36751 -1.02767 0
M  V30 5545 H 518.353 -0.804811 -0.190286 0
M  V30 5546 H 520.899 -1.65542 0.373361 0
M  V30 5547 H 519.671 -3.87643 0.533737 0
M  V30 5548 H 519.294 -3.79704 -1.17944 0
M  V30 5549 N 520.291 -0.0518155 -1.57515 0
M  V30 5550 C 521.241 0.932017 -2.0808 0
M  V30 5551 C 522.225 1.27141 -0.986098 0
M  V30 5552 O 523.417 1.25373 -1.24943 0
M  V30 5553 C 520.546 2.20665 -2.62986 0
M  V30 5554 C 519.632 1.89462 -3.79427 0
M  V30 5555 N 520.023 1.28621 -4.89173 0
M  V30 5556 C 518.321 2.19327 -3.88345 0
M  V30 5557 C 519.022 1.15062 -5.70207 0
M  V30 5558 N 517.998 1.65372 -5.17835 0
M  V30 5559 H 521.8 0.456964 -2.90326 0
M  V30 5560 H 519.314 0.152619 -1.61681 0
M  V30 5561 H 521.311 2.92044 -2.97516 0
M  V30 5562 H 519.971 2.68776 -1.8218 0
M  V30 5563 H 520.982 0.958341 -5.08956 0
M  V30 5564 H 517.659 2.69955 -3.18482 0
M  V30 5565 H 519.049 0.678243 -6.68468 0
M  V30 5566 N 521.769 1.56035 0.221574 0
M  V30 5567 C 523.18 1.69229 0.788567 0
M  V30 5568 C 523.531 0.653814 1.84986 0
M  V30 5569 O 522.656 -0.195065 2.15519 0
M  V30 5570 C 523.251 3.06809 1.43713 0
M  V30 5571 C 521.81 3.21858 1.95152 0
M  V30 5572 C 520.957 2.65155 0.811685 0
M  V30 5573 H 523.908 1.587 -0.00307894 0
M  V30 5574 H 523.929 3.02666 2.30594 0
M  V30 5575 H 523.441 3.82369 0.664475 0
M  V30 5576 H 521.542 2.51167 2.7522 0
M  V30 5577 H 521.655 4.29073 2.1315 0
M  V30 5578 H 520.019 2.23635 1.21899 0
M  V30 5579 H 520.802 3.43261 0.0516987 0
M  V30 5580 N 523.247 -0.488276 1.49845 0
M  V30 5581 C 524.494 -1.24157 1.59973 0
M  V30 5582 C 524.822 -1.92293 0.292182 0
M  V30 5583 O 524.077 -1.81942 -0.720813 0
M  V30 5584 C 524.376 -2.32152 2.71735 0
M  V30 5585 C 524.042 -1.81387 4.12807 0
M  V30 5586 C 522.704 -1.67262 4.51195 0
M  V30 5587 C 525.056 -1.43537 5.01045 0
M  V30 5588 C 522.384 -1.13685 5.7558 0
M  V30 5589 C 524.736 -0.914081 6.25961 0
M  V30 5590 C 523.4 -0.759327 6.63167 0
M  V30 5591 H 522.67 -0.454322 0.585383 0
M  V30 5592 H 525.317 -0.540261 1.83721 0
M  V30 5593 H 523.622 -3.08122 2.42008 0
M  V30 5594 H 525.319 -2.90164 2.76778 0
M  V30 5595 H 521.909 -1.93344 3.82513 0
M  V30 5596 H 526.093 -1.53292 4.72033 0
M  V30 5597 H 521.349 -1.00426 6.03096 0
M  V30 5598 H 525.523 -0.612066 6.93705 0
M  V30 5599 H 523.15 -0.342002 7.5943 0
M  V30 5600 N 524.725 -1.39134 -0.740242 0
M  V30 5601 C 525.655 -1.40165 -1.86751 0
M  V30 5602 C 526.636 -0.265708 -1.68012 0
M  V30 5603 O 527.821 -0.47076 -1.88408 0
M  V30 5604 C 524.951 -1.2392 -3.2444 0
M  V30 5605 C 523.905 -2.34858 -3.57807 0
M  V30 5606 C 523.231 -2.03707 -4.94376 0
M  V30 5607 C 524.531 -3.77159 -3.61315 0
M  V30 5608 H 526.225 -2.345 -1.86145 0
M  V30 5609 H 523.771 -1.12875 -0.89416 0
M  V30 5610 H 525.724 -1.23263 -4.02969 0
M  V30 5611 H 524.448 -0.26051 -3.25559 0
M  V30 5612 H 523.107 -2.34723 -2.81604 0
M  V30 5613 H 522.755 -1.04289 -4.9207 0
M  V30 5614 H 522.455 -2.78016 -5.17669 0
M  V30 5615 H 523.979 -2.04691 -5.75268 0
M  V30 5616 H 525.393 -3.79252 -4.29931 0
M  V30 5617 H 523.79 -4.50784 -3.96124 0
M  V30 5618 H 524.86 -4.08513 -2.61238 0
M  V30 5619 N 526.204 0.969867 -1.24223 0
M  V30 5620 C 527.451 1.71256 -1.08063 0
M  V30 5621 C 527.779 1.90734 0.380872 0
M  V30 5622 O 527.034 1.46469 1.29789 0
M  V30 5623 C 527.333 3.10883 -1.76314 0
M  V30 5624 C 526.999 3.11252 -3.26241 0
M  V30 5625 C 525.661 3.1106 -3.67144 0
M  V30 5626 C 528.013 3.05751 -4.22097 0
M  V30 5627 C 525.341 3.03097 -5.02344 0
M  V30 5628 C 527.693 2.9933 -5.57301 0
M  V30 5629 C 526.357 2.97466 -5.97554 0
M  V30 5630 H 525.627 0.62667 -0.395431 0
M  V30 5631 H 528.274 1.13422 -1.54297 0
M  V30 5632 H 526.579 3.72168 -1.22468 0
M  V30 5633 H 528.276 3.67138 -1.61277 0
M  V30 5634 H 524.866 3.12165 -2.93685 0
M  V30 5635 H 529.05 3.05031 -3.91497 0
M  V30 5636 H 524.306 3.00013 -5.32731 0
M  V30 5637 H 528.48 2.94033 -6.31283 0
M  V30 5638 H 526.107 2.91051 -7.02277 0
M  V30 5639 N 527.682 1.05563 1.17022 0
M  V30 5640 C 528.929 0.767937 1.87374 0
M  V30 5641 C 529.257 -0.705224 1.81265 0
M  V30 5642 O 528.512 -1.5318 1.21796 0
M  V30 5643 C 528.811 1.19849 3.36706 0
M  V30 5644 C 528.477 2.6745 3.63017 0
M  V30 5645 C 527.139 3.0777 3.69907 0
M  V30 5646 C 529.491 3.62811 3.74189 0
M  V30 5647 C 526.819 4.42307 3.85463 0
M  V30 5648 C 529.171 4.97087 3.91264 0
M  V30 5649 C 527.835 5.37055 3.96394 0
M  V30 5650 H 527.105 0.281008 0.68565 0
M  V30 5651 H 529.752 1.32339 1.38415 0
M  V30 5652 H 528.057 0.562096 3.87747 0
M  V30 5653 H 529.754 0.953038 3.8951 0
M  V30 5654 H 526.344 2.35228 3.58282 0
M  V30 5655 H 530.528 3.32798 3.68183 0
M  V30 5656 H 525.784 4.72769 3.87684 0
M  V30 5657 H 529.958 5.70869 3.9885 0
M  V30 5658 H 527.585 6.41308 4.082 0
M  V30 5659 N 529.16 -1.33526 0.837174 0
M  V30 5660 C 530.409 -1.97098 0.428387 0
M  V30 5661 C 530.722 -1.67062 -1.01734 0
M  V30 5662 O 531.928 -2.24235 -1.53072 0
M  V30 5663 C 530.384 -3.52725 0.715075 0
M  V30 5664 C 529.992 -3.9164 2.17537 0
M  V30 5665 C 531.736 -4.22857 0.373154 0
M  V30 5666 C 529.643 -5.40237 2.40619 0
M  V30 5667 H 528.573 -0.737589 0.156455 0
M  V30 5668 H 531.224 -1.52169 1.02552 0
M  V30 5669 H 529.606 -3.95971 0.0475904 0
M  V30 5670 H 530.78 -3.59456 2.88319 0
M  V30 5671 H 529.095 -3.34485 2.4801 0
M  V30 5672 H 531.692 -5.32133 0.523264 0
M  V30 5673 H 532.035 -4.10647 -0.683708 0
M  V30 5674 H 532.568 -3.85135 0.995801 0
M  V30 5675 H 529.307 -5.57449 3.44864 0
M  V30 5676 H 528.827 -5.73887 1.74396 0
M  V30 5677 H 530.506 -6.07102 2.23688 0
M  V30 5678 N 530.638 -0.59345 -1.46 0
M  V30 5679 C 531.57 0.171569 -2.28557 0
M  V30 5680 C 532.583 0.845273 -1.39137 0
M  V30 5681 O 533.772 0.713033 -1.6364 0
M  V30 5682 C 530.872 1.26311 -3.14482 0
M  V30 5683 C 530.045 0.679258 -4.32094 0
M  V30 5684 C 529.104 1.65987 -4.99334 0
M  V30 5685 O 528.13 1.19171 -5.56585 0
M  V30 5686 N 529.332 2.99414 -4.97324 0
M  V30 5687 H 532.097 -0.536771 -2.94854 0
M  V30 5688 H 529.658 -0.431954 -1.56031 0
M  V30 5689 H 531.65 1.91863 -3.5633 0
M  V30 5690 H 530.22 1.87416 -2.50188 0
M  V30 5691 H 529.44 -0.153992 -3.93899 0
M  V30 5692 H 530.728 0.26916 -5.08088 0
M  V30 5693 H 530.126 3.40064 -4.52076 0
M  V30 5694 H 528.683 3.60426 -5.4308 0
M  V30 5695 N 532.116 1.54067 -0.331816 0
M  V30 5696 C 533.066 2.21363 0.546101 0
M  V30 5697 C 534.05 1.19698 1.07523 0
M  V30 5698 O 535.242 1.45293 1.01088 0
M  V30 5699 C 532.371 2.98115 1.70242 0
M  V30 5700 C 531.457 4.07127 1.18779 0
M  V30 5701 N 531.848 5.04267 0.393465 0
M  V30 5702 C 530.146 4.21226 1.46576 0
M  V30 5703 C 530.847 5.81585 0.115572 0
M  V30 5704 N 529.823 5.39022 0.703987 0
M  V30 5705 H 533.625 2.93821 -0.0679751 0
M  V30 5706 H 531.139 1.61812 -0.138085 0
M  V30 5707 H 533.136 3.44818 2.34321 0
M  V30 5708 H 531.796 2.27181 2.31989 0
M  V30 5709 H 532.807 5.17888 0.0355757 0
M  V30 5710 H 529.484 3.61509 2.08848 0
M  V30 5711 H 530.874 6.6985 -0.524426 0
M  V30 5712 N 533.594 0.0601682 1.57485 0
M  V30 5713 C 534.819 -0.624416 1.97777 0
M  V30 5714 C 535.244 -1.63051 0.937867 0
M  V30 5715 O 534.602 -1.81036 -0.0978845 0
M  V30 5716 C 534.65 -1.27979 3.37126 0
M  V30 5717 O 533.754 -2.39556 3.35688 0
M  V30 5718 H 533.095 -0.161581 0.64404 0
M  V30 5719 H 535.625 0.131237 2.04179 0
M  V30 5720 H 535.635 -1.62937 3.74053 0
M  V30 5721 H 534.31 -0.542501 4.12347 0
M  V30 5722 H 532.887 -2.06478 3.10517 0
M  V30 5723 N 535.072 -1.5615 -0.213296 0
M  V30 5724 C 536.019 -1.93086 -1.26437 0
M  V30 5725 C 536.989 -0.789086 -1.4616 0
M  V30 5726 O 538.174 -1.04569 -1.59593 0
M  V30 5727 C 535.314 -2.26003 -2.608 0
M  V30 5728 C 534.427 -3.53156 -2.48807 0
M  V30 5729 C 533.562 -3.7548 -3.7575 0
M  V30 5730 C 532.601 -4.96119 -3.58514 0
M  V30 5731 N 531.738 -5.14791 -4.77425 0
M  V30 5732 H 536.578 -2.82707 -0.942376 0
M  V30 5733 H 534.115 -1.39919 -0.454001 0
M  V30 5734 H 536.073 -2.431 -3.39055 0
M  V30 5735 H 534.703 -1.39546 -2.91079 0
M  V30 5736 H 533.755 -3.44207 -1.61944 0
M  V30 5737 H 535.067 -4.41565 -2.31996 0
M  V30 5738 H 534.221 -3.92718 -4.62447 0
M  V30 5739 H 532.96 -2.85368 -3.95495 0
M  V30 5740 H 531.965 -4.78823 -2.70201 0
M  V30 5741 H 533.19 -5.87724 -3.40231 0
M  V30 5742 H 531.136 -4.27623 -4.97468 0
M  V30 5743 H 531.053 -5.97347 -4.63371 0
M  V30 5744 H 532.321 -5.36471 -5.65525 0
M  V30 5745 N 536.55 0.480323 -1.50102 0
M  V30 5746 C 537.778 1.25657 -1.64371 0
M  V30 5747 C 538.193 1.86011 -0.323316 0
M  V30 5748 O 537.55 1.68803 0.693682 0
M  V30 5749 C 537.601 2.37197 -2.728 0
M  V30 5750 O 537.322 1.7932 -3.9972 0
M  V30 5751 C 538.823 3.2823 -2.9796 0
M  V30 5752 H 536.043 0.380369 -0.552775 0
M  V30 5753 H 538.587 0.574379 -1.96268 0
M  V30 5754 H 536.742 3.01208 -2.43623 0
M  V30 5755 H 537.156 2.52701 -4.59611 0
M  V30 5756 H 538.63 4.02725 -3.77513 0
M  V30 5757 H 539.107 3.86462 -2.08671 0
M  V30 5758 H 539.713 2.69964 -3.28633 0
M  V30 5759 N 538.028 1.39524 0.732853 0
M  V30 5760 C 538.976 1.38563 1.86824 0
M  V30 5761 C 539.97 0.268467 1.67259 0
M  V30 5762 O 541.176 0.438613 1.74574 0
M  V30 5763 H 537.551 0.432737 0.615014 0
M  V30 5764 H 539.522 2.34328 1.84751 0
M  V30 5765 C 538.271 1.2481 3.24527 0
M  V30 5766 H 537.594 2.10044 3.40179 0
M  V30 5767 H 539.034 1.28194 4.04156 0
M  V30 5768 C 537.493 -0.0432825 3.36872 0
M  V30 5769 O 538.023 -1.01268 3.88726 0
M  V30 5770 N 536.229 -0.107055 2.90403 0
M  V30 5771 H 535.776 0.682512 2.48394 0
M  V30 5772 H 535.734 -0.970618 2.99042 0
M  V30 5773 N 539.506 -0.963266 1.24736 0
M  V30 5774 C 540.754 -1.70343 1.08755 0
M  V30 5775 C 541.075 -1.91387 -0.373619 0
M  V30 5776 O 540.345 -1.4948 -1.2662 0
M  V30 5777 H 538.925 -0.631224 0.399456 0
M  V30 5778 H 541.587 -1.15859 1.56725 0
M  V30 5779 H 540.683 -2.68616 1.58909 0
M  V30 5780 N 540.985 -1.06182 -1.16461 0
M  V30 5781 C 542.234 -0.772927 -1.86303 0
M  V30 5782 C 542.547 0.703187 -1.82523 0
M  V30 5783 O 543.753 1.10641 -2.47933 0
M  V30 5784 C 542.209 -1.33249 -3.34324 0
M  V30 5785 C 541.817 -2.83876 -3.46581 0
M  V30 5786 C 543.561 -1.12108 -4.09429 0
M  V30 5787 C 541.468 -3.33082 -4.88682 0
M  V30 5788 H 540.398 -0.285452 -0.697878 0
M  V30 5789 H 543.049 -1.28039 -1.31447 0
M  V30 5790 H 541.431 -0.7528 -3.88779 0
M  V30 5791 H 542.605 -3.47786 -3.02293 0
M  V30 5792 H 540.92 -3.03671 -2.84909 0
M  V30 5793 H 543.517 -1.46361 -5.14279 0
M  V30 5794 H 543.86 -0.0593832 -4.16258 0
M  V30 5795 H 544.393 -1.6665 -3.6121 0
M  V30 5796 H 541.132 -4.38726 -4.87032 0
M  V30 5797 H 540.652 -2.73919 -5.33599 0
M  V30 5798 H 542.331 -3.28344 -5.57494 0
M  V30 5799 N 542.463 1.3308 -0.844243 0
M  V30 5800 C 543.393 2.3161 -0.296493 0
M  V30 5801 C 544.374 1.59215 0.598707 0
M  V30 5802 O 545.559 1.87077 0.521134 0
M  V30 5803 C 542.689 3.43313 0.524762 0
M  V30 5804 C 541.643 4.27115 -0.275106 0
M  V30 5805 C 540.969 5.30483 0.670236 0
M  V30 5806 C 542.269 5.00443 -1.49514 0
M  V30 5807 H 543.963 2.77672 -1.11976 0
M  V30 5808 H 541.509 1.33496 -0.539899 0
M  V30 5809 H 543.462 4.11273 0.918298 0
M  V30 5810 H 542.186 2.95952 1.3813 0
M  V30 5811 H 540.845 3.60787 -0.650267 0
M  V30 5812 H 540.493 4.79379 1.52332 0
M  V30 5813 H 540.193 5.87435 0.139123 0
M  V30 5814 H 541.717 6.01308 1.06117 0
M  V30 5815 H 543.131 5.61141 -1.17447 0
M  V30 5816 H 541.528 5.67071 -1.96343 0
M  V30 5817 H 542.598 4.28906 -2.26202 0
M  V30 5818 N 543.941 0.601185 1.45683 0
M  V30 5819 C 545.188 0.0938811 2.02282 0
M  V30 5820 C 545.516 -1.27315 1.47041 0
M  V30 5821 O 544.771 -1.85193 0.632623 0
M  V30 5822 C 545.07 -0.00222425 3.574 0
M  V30 5823 C 544.736 1.29963 4.31764 0
M  V30 5824 C 543.398 1.65625 4.51798 0
M  V30 5825 C 545.75 2.1603 4.74321 0
M  V30 5826 C 543.078 2.87119 5.11644 0
M  V30 5827 C 545.43 3.36766 5.3551 0
M  V30 5828 C 544.094 3.72689 5.53768 0
M  V30 5829 H 543.364 0.0343535 0.740203 0
M  V30 5830 H 546.011 0.781522 1.74827 0
M  V30 5831 H 544.316 -0.773096 3.84097 0
M  V30 5832 H 546.013 -0.410794 3.9889 0
M  V30 5833 H 542.603 1.01204 4.1648 0
M  V30 5834 H 546.787 1.89778 4.58582 0
M  V30 5835 H 542.043 3.15065 5.2397 0
M  V30 5836 H 546.217 4.03713 5.67441 0
M  V30 5837 H 543.844 4.66918 5.99909 0
M  V30 5838 N 545.419 -1.53889 0.339982 0
M  V30 5839 C 546.659 -2.02765 -0.258011 0
M  V30 5840 C 547.023 -1.22249 -1.48051 0
M  V30 5841 O 548.224 -1.61007 -2.15245 0
M  V30 5842 C 546.495 -3.5286 -0.567872 0
M  V30 5843 S 548.054 -4.23647 -1.14318 0
M  V30 5844 H 544.872 -0.706814 -0.0770389 0
M  V30 5845 H 547.474 -1.89594 0.476917 0
M  V30 5846 H 546.178 -4.09073 0.329745 0
M  V30 5847 H 545.709 -3.70144 -1.33256 0
M  V30 5848 H 547.724 -4.32676 -2.42911 0
M  V30 5849 N 546.897 -0.0685191 -1.57451 0
M  V30 5850 C 548.145 0.60016 -1.92983 0
M  V30 5851 C 548.466 1.70348 -0.949028 0
M  V30 5852 O 547.736 1.959 0.00335647 0
M  V30 5853 H 546.316 0.224682 -0.712409 0
M  V30 5854 H 548.978 -0.125605 -1.94495 0
M  V30 5855 H 548.074 1.02759 -2.94698 0
M  V30 5856 N 548.375 1.56261 0.205012 0
M  V30 5857 C 549.791 1.49623 0.555433 0
M  V30 5858 C 549.991 0.766719 1.86343 0
M  V30 5859 O 549.047 0.313158 2.50551 0
M  V30 5860 C 550.36 2.94253 0.619347 0
M  V30 5861 C 551.908 3.04868 0.708855 0
M  V30 5862 C 552.383 4.50888 0.803969 0
M  V30 5863 N 553.874 4.54999 0.867758 0
M  V30 5864 C 554.609 5.65284 0.96135 0
M  V30 5865 N 554.105 6.85282 1.01786 0
M  V30 5866 N 555.898 5.53174 0.997771 0
M  V30 5867 H 548.049 2.0211 -0.653094 0
M  V30 5868 H 550.312 0.919333 -0.231366 0
M  V30 5869 H 550.018 3.50643 -0.272458 0
M  V30 5870 H 549.892 3.47063 1.47741 0
M  V30 5871 H 552.279 2.48532 1.5911 0
M  V30 5872 H 552.36 2.55199 -0.175205 0
M  V30 5873 H 552.004 5.07846 -0.0738798 0
M  V30 5874 H 551.934 4.98279 1.70369 0
M  V30 5875 H 554.425 3.68588 0.833735 0
M  V30 5876 H 554.738 7.65081 1.08951 0
M  V30 5877 H 553.083 6.8796 0.986706 0
M  V30 5878 H 556.274 4.5835 0.950392 0
M  V30 5879 H 556.447 6.39151 1.06725 0
M  V30 5880 N 549.853 -0.472356 1.50355 0
M  V30 5881 C 551.1 -1.22453 1.61281 0
M  V30 5882 C 551.428 -1.91972 0.31256 0
M  V30 5883 O 550.683 -1.82696 -0.701475 0
M  V30 5884 C 550.982 -2.29257 2.74182 0
M  V30 5885 C 550.648 -1.76999 4.14708 0
M  V30 5886 C 549.31 -1.62467 4.52944 0
M  V30 5887 C 551.662 -1.38215 5.0254 0
M  V30 5888 C 548.99 -1.07574 5.76754 0
M  V30 5889 C 551.342 -0.847638 6.26895 0
M  V30 5890 C 550.006 -0.688946 6.63935 0
M  V30 5891 H 549.276 -0.448087 0.590168 0
M  V30 5892 H 551.923 -0.520744 1.84284 0
M  V30 5893 H 550.228 -3.05538 2.45263 0
M  V30 5894 H 551.925 -2.87212 2.7984 0
M  V30 5895 H 548.515 -1.89276 3.84542 0
M  V30 5896 H 552.699 -1.48276 4.73633 0
M  V30 5897 H 547.955 -0.940237 6.04127 0
M  V30 5898 H 552.129 -0.538455 6.94315 0
M  V30 5899 H 549.756 -0.261435 7.5975 0
M  V30 5900 N 551.331 -1.39911 -0.725443 0
M  V30 5901 C 552.556 -1.41137 -1.5197 0
M  V30 5902 C 552.981 -0.010262 -1.88097 0
M  V30 5903 O 552.339 0.979184 -1.52583 0
M  V30 5904 C 552.387 -2.2994 -2.77777 0
M  V30 5905 O 551.491 -1.73586 -3.74088 0
M  V30 5906 H 550.832 -0.480219 -0.458569 0
M  V30 5907 H 553.362 -1.84023 -0.894249 0
M  V30 5908 H 553.372 -2.44785 -3.26411 0
M  V30 5909 H 552.047 -3.31759 -2.50816 0
M  V30 5910 H 550.624 -1.68035 -3.32894 0
M  V30 5911 N 552.809 0.956637 -1.25245 0
M  V30 5912 C 554.034 1.74104 -1.12706 0
M  V30 5913 C 554.459 1.85436 0.315429 0
M  V30 5914 O 553.817 1.33334 1.22848 0
M  V30 5915 C 553.865 3.1338 -1.78396 0
M  V30 5916 O 552.969 3.98485 -1.06224 0
M  V30 5917 H 552.31 0.53476 -0.393609 0
M  V30 5918 H 554.84 1.19924 -1.65769 0
M  V30 5919 H 554.85 3.6385 -1.846 0
M  V30 5920 H 553.525 3.04448 -2.83345 0
M  V30 5921 H 552.102 3.56952 -1.07886 0
M  V30 5922 N 554.287 1.06798 1.15896 0
M  V30 5923 C 555.698 0.811355 1.68149 0
M  V30 5924 C 556.049 -0.664339 1.8461 0
M  V30 5925 O 555.174 -1.51485 1.54535 0
M  V30 5926 C 555.769 1.46624 3.05429 0
M  V30 5927 C 554.328 1.25726 3.54781 0
M  V30 5928 C 553.475 1.53949 2.3064 0
M  V30 5929 H 556.426 1.23078 1.00187 0
M  V30 5930 H 556.447 0.88437 3.7008 0
M  V30 5931 H 555.959 2.54025 2.93416 0
M  V30 5932 H 554.06 0.20322 3.72045 0
M  V30 5933 H 554.173 1.97354 4.36564 0
M  V30 5934 H 552.537 0.96025 2.35905 0
M  V30 5935 H 553.32 2.6252 2.2122 0
M  V30 5936 O 555.804 -1.27943 0.985539 0
M  V30 5937 H 556.495 -1.83099 0.632003 0
M  V30 END ATOM
M  V30 BEGIN BOND
M  V30 END BOND
M  V30 END CTAB
M  END
$$$$
