drugbank_target|P35241 Radixin (DB03401)
 OpenBabel12092120543D

  0  0  0     0  0            999 V3000
M  V30 BEGIN CTAB
M  V30 COUNTS 9663 9746 0 0 0
M  V30 BEGIN ATOM
M  V30 1 H -0.908 1.98254 -0.117106 0
M  V30 2 N 0 1.576 0 0
M  V30 3 C 0.933 2.03868 1.02534 0
M  V30 4 C 1.911 0.928543 1.3348 0
M  V30 5 O 3.095 1.19667 1.45644 0
M  V30 6 C 0.222 2.43627 2.35294 0
M  V30 7 C -0.732 3.65373 2.2001 0
M  V30 8 S 0.101 5.13292 1.52614 0
M  V30 9 C 1.257 5.56322 2.86805 0
M  V30 10 H 1.49 2.90518 0.631377 0
M  V30 11 H -0.977 1.52953 0.210867 0
M  V30 12 H 0.981 2.67203 3.11629 0
M  V30 13 H -0.358 1.57376 2.7183 0
M  V30 14 H -1.165 3.90944 3.18086 0
M  V30 15 H -1.563 3.418 1.51819 0
M  V30 16 H 0.729 5.58782 3.83104 0
M  V30 17 H 1.672 6.56266 2.65933 0
M  V30 18 H 2.08 4.83886 2.90714 0
M  V30 19 N 1.4781 -0.272755 1.55222 0
M  V30 20 C 2.8891 -0.84378 1.66545 0
M  V30 21 C 3.2401 -1.87035 0.592641 0
M  V30 22 O 2.3651 -2.14761 -0.265818 0
M  V30 23 C 2.9601 -1.53723 3.01918 0
M  V30 24 C 1.5191 -2.05628 3.15268 0
M  V30 25 C 0.6661 -0.898424 2.62343 0
M  V30 26 H 3.6171 -0.0490998 1.58624 0
M  V30 27 H 3.6381 -2.40421 2.94921 0
M  V30 28 H 3.1501 -0.78983 3.79978 0
M  V30 29 H 1.2511 -2.83329 2.41983 0
M  V30 30 H 1.3641 -2.27142 4.21833 0
M  V30 31 H -0.2719 -1.29186 2.19506 0
M  V30 32 H 0.5111 -0.164528 3.42906 0
M  V30 33 N 2.9562 -1.48159 -0.537278 0
M  V30 34 C 3.9032 -1.62138 -1.64256 0
M  V30 35 C 4.8732 -0.463668 -1.59497 0
M  V30 36 O 6.0582 -0.686241 -1.78032 0
M  V30 37 C 3.1982 -1.66028 -3.02537 0
M  V30 38 C 2.3112 -2.92855 -3.17585 0
M  V30 39 C 1.4462 -2.87952 -4.46382 0
M  V30 40 C 0.4852 -4.09516 -4.54932 0
M  V30 41 N -0.3778 -4.02733 -5.75109 0
M  V30 42 H 4.4622 -2.56529 -1.51647 0
M  V30 43 H 1.9992 -1.27224 -0.738414 0
M  V30 44 H 3.9572 -1.66265 -3.82638 0
M  V30 45 H 2.5872 -0.751331 -3.13934 0
M  V30 46 H 1.6392 -3.02395 -2.30784 0
M  V30 47 H 2.9512 -3.82822 -3.19764 0
M  V30 48 H 2.1052 -2.8655 -5.34765 0
M  V30 49 H 0.8442 -1.95702 -4.46712 0
M  V30 50 H -0.1508 -4.11201 -3.64957 0
M  V30 51 H 1.0742 -5.02917 -4.56346 0
M  V30 52 H -0.9798 -3.13299 -5.76351 0
M  V30 53 H -1.0628 -4.86397 -5.78752 0
M  V30 54 H 0.2052 -4.05379 -6.65799 0
M  V30 55 N 4.4343 0.785586 -1.36625 0
M  V30 56 C 5.8453 1.36101 -1.27803 0
M  V30 57 C 6.1963 1.96035 0.0804875 0
M  V30 58 O 5.3213 1.92834 0.982042 0
M  V30 59 C 5.9163 2.47442 -2.31426 0
M  V30 60 C 4.4753 3.00789 -2.26281 0
M  V30 61 C 3.6223 1.73896 -2.15999 0
M  V30 62 H 6.5733 0.586928 -1.47448 0
M  V30 63 H 6.5943 3.2656 -1.95291 0
M  V30 64 H 6.1063 2.03791 -3.30289 0
M  V30 65 H 4.2073 3.48851 -1.30896 0
M  V30 66 H 4.3203 3.57343 -3.19128 0
M  V30 67 H 2.6843 1.9628 -1.62316 0
M  V30 68 H 3.4673 1.32368 -3.16755 0
M  V30 69 N 5.9124 1.20967 1.01018 0
M  V30 70 C 7.1614 1.01796 1.74128 0
M  V30 71 C 7.4744 -0.449691 1.90361 0
M  V30 72 O 8.6804 -0.76068 2.60626 0
M  V30 73 C 7.1364 1.7727 3.13215 0
M  V30 74 C 6.7444 3.28171 3.04972 0
M  V30 75 C 8.4884 1.66489 3.90489 0
M  V30 76 C 6.3954 3.96156 4.39107 0
M  V30 77 H 5.3254 0.377276 0.652824 0
M  V30 78 H 7.9764 1.44651 1.12909 0
M  V30 79 H 6.3584 1.27205 3.75013 0
M  V30 80 H 7.5324 3.85499 2.52443 0
M  V30 81 H 5.8474 3.39437 2.41188 0
M  V30 82 H 8.4444 2.14617 4.89738 0
M  V30 83 H 8.7874 0.6222 4.11624 0
M  V30 84 H 9.3204 2.14003 3.35332 0
M  V30 85 H 6.0594 5.00604 4.23174 0
M  V30 86 H 5.5794 3.43617 4.91617 0
M  V30 87 H 7.2584 4.00774 5.07926 0
M  V30 88 N 7.3905 -1.2043 1.01659 0
M  V30 89 C 8.3385 -2.25249 0.580143 0
M  V30 90 C 9.3325 -1.65057 -0.381115 0
M  V30 91 O 10.5385 -1.78241 -0.251039 0
M  V30 92 H 6.9135 -0.732695 0.169299 0
M  V30 93 H 8.8845 -2.59389 1.47512 0
M  V30 94 C 7.6335 -3.47638 -0.065788 0
M  V30 95 H 6.9565 -3.94233 0.664874 0
M  V30 96 H 8.3965 -4.2268 -0.334282 0
M  V30 97 C 6.8555 -3.10447 -1.3086 0
M  V30 98 O 7.3855 -3.21981 -2.4019 0
M  V30 99 N 5.5915 -2.64996 -1.1927 0
M  V30 100 H 5.1385 -2.55811 -0.303064 0
M  V30 101 H 5.0965 -2.40482 -2.02523 0
M  V30 102 N 8.8686 -0.792821 -1.36206 0
M  V30 103 C 10.1146 -0.36733 -1.99446 0
M  V30 104 C 10.4476 1.05917 -1.62774 0
M  V30 105 O 9.7226 1.7324 -0.88421 0
M  V30 106 C 10.0056 -0.535044 -3.56103 0
M  V30 107 C 9.8586 -2.00548 -4.02617 0
M  V30 108 C 11.1776 0.0478191 -4.40074 0
M  V30 109 H 8.2966 -0.134941 -0.724541 0
M  V30 110 H 10.9386 -0.999794 -1.61568 0
M  V30 111 H 9.0886 0.00336329 -3.885 0
M  V30 112 H 10.7606 -2.60521 -3.80692 0
M  V30 113 H 9.0036 -2.50686 -3.54032 0
M  V30 114 H 9.6746 -2.07377 -5.11565 0
M  V30 115 H 12.1506 -0.411822 -4.14057 0
M  V30 116 H 11.0266 -0.0995336 -5.4881 0
M  V30 117 H 11.2876 1.14025 -4.27142 0
M  V30 118 N 10.3467 1.47872 -0.545128 0
M  V30 119 C 11.7627 1.5829 -0.204032 0
M  V30 120 C 11.9627 1.54529 1.29317 0
M  V30 121 O 11.0187 1.44232 2.07252 0
M  V30 122 C 12.3317 2.89304 -0.819987 0
M  V30 123 C 13.8797 3.02864 -0.790105 0
M  V30 124 C 14.3547 4.3656 -1.38491 0
M  V30 125 N 15.8457 4.43165 -1.34755 0
M  V30 126 C 16.5807 5.45153 -1.77753 0
M  V30 127 N 16.0767 6.54016 -2.2855 0
M  V30 128 N 17.8697 5.36125 -1.68897 0
M  V30 129 H 10.0207 1.4856 -1.51802 0
M  V30 130 H 12.2837 0.706305 -0.632327 0
M  V30 131 H 11.9897 2.97757 -1.87173 0
M  V30 132 H 11.8637 3.75957 -0.305915 0
M  V30 133 H 14.2507 2.94014 0.252913 0
M  V30 134 H 14.3317 2.17782 -1.34181 0
M  V30 135 H 13.9757 4.46164 -2.42693 0
M  V30 136 H 13.9057 5.20353 -0.808754 0
M  V30 137 H 16.3967 3.65083 -0.975855 0
M  V30 138 H 16.7097 7.27994 -2.59314 0
M  V30 139 H 15.0547 6.54938 -2.32553 0
M  V30 140 H 18.2457 4.49975 -1.28998 0
M  V30 141 H 18.4187 6.15472 -2.02726 0
M  V30 142 N 11.8248 0.280983 1.55075 0
M  V30 143 C 13.0708 -0.33461 2.00021 0
M  V30 144 C 13.4038 -1.55063 1.16915 0
M  V30 145 O 12.6788 -1.93006 0.240646 0
M  V30 146 C 12.9618 -0.711007 3.53011 0
M  V30 147 C 12.8148 0.512766 4.46868 0
M  V30 148 C 14.1338 -1.54522 4.12081 0
M  V30 149 H 11.2528 -0.120147 0.727141 0
M  V30 150 H 13.8948 0.389097 1.85973 0
M  V30 151 H 12.0448 -1.32761 3.65112 0
M  V30 152 H 13.7168 1.15131 4.46702 0
M  V30 153 H 11.9598 1.14975 4.18286 0
M  V30 154 H 12.6308 0.205556 5.51617 0
M  V30 155 H 15.1068 -1.02442 4.03293 0
M  V30 156 H 13.9828 -1.77739 5.19327 0
M  V30 157 H 14.2438 -2.52813 3.62682 0
M  V30 158 N 13.3029 -1.57598 0.00835791 0
M  V30 159 C 14.5309 -1.95214 -0.68549 0
M  V30 160 C 14.9459 -0.883706 -1.66841 0
M  V30 161 O 14.3029 0.136565 -1.81988 0
M  V30 162 C 14.3539 -3.32865 -1.41007 0
M  V30 163 O 14.0749 -4.35609 -0.466552 0
M  V30 164 C 15.5759 -3.84991 -2.19765 0
M  V30 165 H 12.7959 -0.643422 -0.190392 0
M  V30 166 H 15.3399 -2.04406 0.0619607 0
M  V30 167 H 13.4949 -3.24956 -2.10908 0
M  V30 168 H 13.9089 -5.15288 -0.978699 0
M  V30 169 H 15.3829 -4.8371 -2.65948 0
M  V30 170 H 15.8599 -3.18137 -3.02796 0
M  V30 171 H 16.4659 -3.96103 -1.54864 0
M  V30 172 N 14.781 0.264519 -1.55364 0
M  V30 173 C 16.009 1.013 -1.80405 0
M  V30 174 C 16.424 1.79618 -0.581622 0
M  V30 175 O 15.781 1.76879 0.449468 0
M  V30 176 C 15.832 1.96487 -3.03439 0
M  V30 177 O 15.553 1.21341 -4.20961 0
M  V30 178 C 17.054 2.83079 -3.41147 0
M  V30 179 H 14.274 0.298875 -0.600762 0
M  V30 180 H 16.818 0.292736 -2.02394 0
M  V30 181 H 14.973 2.63965 -2.83551 0
M  V30 182 H 15.387 1.85573 -4.90574 0
M  V30 183 H 16.861 3.4565 -4.30384 0
M  V30 184 H 17.338 3.53286 -2.60932 0
M  V30 185 H 17.944 2.2108 -3.63323 0
M  V30 186 N 16.2591 1.48442 0.529413 0
M  V30 187 C 17.1921 1.57577 1.65059 0
M  V30 188 C 18.1701 0.426198 1.56915 0
M  V30 189 O 19.3541 0.637877 1.77379 0
M  V30 190 C 16.4811 1.5043 3.03461 0
M  V30 191 C 15.5271 2.70235 3.29962 0
M  V30 192 S 16.3601 4.32198 3.16172 0
M  V30 193 C 17.5161 4.2765 4.57019 0
M  V30 194 H 17.7491 2.52427 1.5706 0
M  V30 195 H 15.2821 1.36982 0.712417 0
M  V30 196 H 17.2401 1.46992 3.8328 0
M  V30 197 H 15.9011 0.569167 3.089 0
M  V30 198 H 15.0941 2.61374 4.30929 0
M  V30 199 H 14.6961 2.70938 2.57815 0
M  V30 200 H 16.9881 3.97618 5.48549 0
M  V30 201 H 17.9311 5.28797 4.70934 0
M  V30 202 H 18.3391 3.5811 4.36368 0
M  V30 203 N 17.7372 -0.778329 1.37039 0
M  V30 204 C 19.0142 -1.52551 1.22424 0
M  V30 205 C 19.3942 -2.10288 -0.184964 0
M  V30 206 O 18.7422 -1.94953 -1.19187 0
M  V30 207 C 18.9522 -2.61164 2.31504 0
M  V30 208 C 20.3002 -3.28746 2.68721 0
M  V30 209 O 21.3242 -2.71455 2.30631 0
M  V30 210 O 20.1832 -4.3231 3.3432 0
M  V30 211 H 17.2772 -0.675343 0.477326 0
M  V30 212 H 19.8232 -0.815859 1.48801 0
M  V30 213 H 18.5952 -2.16574 3.25901 0
M  V30 214 H 18.2182 -3.39737 2.06554 0
M  V30 215 N 19.2153 -1.21501 -1.00376 0
M  V30 216 C 20.1783 -0.976927 -2.07337 0
M  V30 217 C 21.1783 0.0525322 -1.60714 0
M  V30 218 O 22.3683 -0.184869 -1.73216 0
M  V30 219 C 19.5003 -0.473423 -3.37597 0
M  V30 220 H 20.6933 -1.92587 -2.29892 0
M  V30 221 H 18.2463 -1.03217 -1.17371 0
M  V30 222 H 18.9813 0.480379 -3.20722 0
M  V30 223 H 18.7663 -1.216 -3.72768 0
M  V30 224 H 20.2563 -0.32675 -4.1632 0
M  V30 225 N 20.6934 1.19889 -1.02296 0
M  V30 226 C 21.6034 2.26571 -0.608508 0
M  V30 227 C 22.6194 1.70299 0.356964 0
M  V30 228 O 23.7954 2.00235 0.216326 0
M  V30 229 C 20.8604 3.46677 0.0402814 0
M  V30 230 C 19.9214 4.18153 -0.97194 0
M  V30 231 C 19.1544 5.32525 -0.354016 0
M  V30 232 O 19.3774 5.64112 0.844604 0
M  V30 233 O 18.3114 5.92242 -1.07391 0
M  V30 234 H 22.1374 2.64251 -1.49684 0
M  V30 235 H 19.7224 1.26629 -0.792809 0
M  V30 236 H 21.6044 4.19475 0.402324 0
M  V30 237 H 20.2794 3.10858 0.902707 0
M  V30 238 H 19.1864 3.47499 -1.38546 0
M  V30 239 H 20.5194 4.57927 -1.80454 0
M  V30 240 N 22.1715 0.800033 1.35784 0
M  V30 241 C 23.1015 0.220184 2.3246 0
M  V30 242 C 24.0825 -0.65073 1.57161 0
M  V30 243 O 25.2675 -0.582359 1.85263 0
M  V30 244 C 22.3975 -0.637353 3.41402 0
M  V30 245 C 21.3515 0.134531 4.27789 0
M  V30 246 C 20.6775 -0.844285 5.27992 0
M  V30 247 C 21.9775 1.32979 5.05088 0
M  V30 248 H 23.6715 1.02787 2.81203 0
M  V30 249 H 21.2175 0.495717 1.35199 0
M  V30 250 H 23.1705 -1.05302 4.08031 0
M  V30 251 H 21.8945 -1.47785 2.91251 0
M  V30 252 H 20.5535 0.531296 3.6273 0
M  V30 253 H 20.2015 -1.68011 4.74111 0
M  V30 254 H 19.9015 -0.332184 5.8666 0
M  V30 255 H 21.4255 -1.2583 5.97494 0
M  V30 256 H 22.8395 0.98934 5.64699 0
M  V30 257 H 21.2365 1.77593 5.7322 0
M  V30 258 H 22.3065 2.11978 4.36111 0
M  V30 259 N 23.6496 -1.47581 0.552962 0
M  V30 260 C 24.5596 -2.33743 -0.200353 0
M  V30 261 C 25.5756 -1.47928 -0.916151 0
M  V30 262 O 26.7516 -1.80865 -0.885993 0
M  V30 263 C 23.8166 -3.24536 -1.21973 0
M  V30 264 C 22.8776 -4.26238 -0.511819 0
M  V30 265 C 22.1106 -5.12693 -1.48263 0
M  V30 266 O 22.3336 -5.01525 -2.71714 0
M  V30 267 O 21.2676 -5.93375 -1.00945 0
M  V30 268 H 25.0936 -2.9945 0.506304 0
M  V30 269 H 22.6786 -1.46071 0.313622 0
M  V30 270 H 24.5606 -3.80631 -1.80827 0
M  V30 271 H 23.2356 -2.61462 -1.90839 0
M  V30 272 H 22.1426 -3.73914 0.117799 0
M  V30 273 H 23.4756 -4.92014 0.135308 0
M  V30 274 N 25.1277 -0.289203 -1.54924 0
M  V30 275 C 26.3747 0.323519 -1.99899 0
M  V30 276 C 26.7027 1.54797 -1.17762 0
M  V30 277 O 25.9577 1.94237 -0.238835 0
M  V30 278 C 26.2567 0.736119 -3.49737 0
M  V30 279 C 25.9227 -0.385276 -4.49251 0
M  V30 280 C 24.5847 -0.693156 -4.76181 0
M  V30 281 C 26.9367 -1.14021 -5.08575 0
M  V30 282 C 24.2647 -1.7593 -5.59701 0
M  V30 283 C 26.6167 -2.19619 -5.93254 0
M  V30 284 C 25.2807 -2.51026 -6.185 0
M  V30 285 H 24.5507 0.118384 -0.731482 0
M  V30 286 H 27.1977 -0.405847 -1.8715 0
M  V30 287 H 25.5027 1.54539 -3.60035 0
M  V30 288 H 27.1997 1.22118 -3.81953 0
M  V30 289 H 23.7897 -0.135202 -4.28387 0
M  V30 290 H 27.9737 -0.915611 -4.87781 0
M  V30 291 H 23.2297 -2.0075 -5.77503 0
M  V30 292 H 27.4037 -2.78581 -6.38252 0
M  V30 293 H 25.0307 -3.33772 -6.83008 0
M  V30 294 N 26.6058 1.57591 -0.0167156 0
M  V30 295 C 27.5688 2.08393 0.954204 0
M  V30 296 C 28.5688 0.996531 1.26198 0
M  V30 297 O 29.7588 1.25858 1.20438 0
M  V30 298 C 26.8908 2.5394 2.27436 0
M  V30 299 H 28.0838 2.95455 0.514451 0
M  V30 300 H 25.6368 1.54582 0.231089 0
M  V30 301 H 26.3718 1.70171 2.76066 0
M  V30 302 H 26.1568 3.33371 2.06412 0
M  V30 303 H 27.6468 2.93512 2.97053 0
M  V30 304 N 28.0839 -0.256276 1.55502 0
M  V30 305 C 29.3329 -0.983486 1.76098 0
M  V30 306 C 29.6459 -1.86837 0.578896 0
M  V30 307 O 30.8519 -2.63163 0.667648 0
M  V30 308 C 29.3079 -1.79868 3.1173 0
M  V30 309 C 28.9159 -0.961648 4.37557 0
M  V30 310 C 30.6599 -2.51919 3.41668 0
M  V30 311 C 28.5669 -1.77219 5.64223 0
M  V30 312 H 27.4969 -0.370936 0.656447 0
M  V30 313 H 30.1479 -0.238492 1.81944 0
M  V30 314 H 28.5299 -2.58527 2.99966 0
M  V30 315 H 29.7039 -0.218048 4.60284 0
M  V30 316 H 28.0189 -0.354913 4.14885 0
M  V30 317 H 30.6159 -3.12998 4.33516 0
M  V30 318 H 30.9589 -3.23059 2.62562 0
M  V30 319 H 31.4919 -1.80278 3.54605 0
M  V30 320 H 28.2309 -1.10471 6.46124 0
M  V30 321 H 27.7509 -2.49132 5.45613 0
M  V30 322 H 29.4299 -2.34169 6.03137 0
M  V30 323 N 29.562 -1.4872 -0.521534 0
M  V30 324 C 30.494 -1.59968 -1.64143 0
M  V30 325 C 31.507 -0.483463 -1.55456 0
M  V30 326 O 32.696 -0.75467 -1.61762 0
M  V30 327 C 29.796 -1.52127 -3.02838 0
M  V30 328 C 28.969 -2.78932 -3.36921 0
M  V30 329 C 28.028 -2.64428 -4.54933 0
M  V30 330 O 27.054 -3.38331 -4.57735 0
M  V30 331 N 28.256 -1.74606 -5.53618 0
M  V30 332 H 31.021 -2.56548 -1.54929 0
M  V30 333 H 28.582 -1.45551 -0.708988 0
M  V30 334 H 30.574 -1.40106 -3.79674 0
M  V30 335 H 29.144 -0.634868 -3.06085 0
M  V30 336 H 28.364 -3.05455 -2.4918 0
M  V30 337 H 29.652 -3.63041 -3.56481 0
M  V30 338 H 29.05 -1.13782 -5.54139 0
M  V30 339 H 27.607 -1.6852 -6.29638 0
M  V30 340 N 31.0401 0.771051 -1.3745 0
M  V30 341 C 32.4511 1.34737 -1.29239 0
M  V30 342 C 32.8021 1.96109 0.0596908 0
M  V30 343 O 31.9271 1.93865 0.961534 0
M  V30 344 C 32.5221 2.44973 -2.34037 0
M  V30 345 C 31.0811 2.98372 -2.29458 0
M  V30 346 C 30.2281 1.71595 -2.17831 0
M  V30 347 H 33.1791 0.571256 -1.48062 0
M  V30 348 H 33.2001 3.24471 -1.98744 0
M  V30 349 H 32.7121 2.00276 -3.32432 0
M  V30 350 H 30.8131 3.47443 -1.34589 0
M  V30 351 H 30.9261 3.53939 -3.229 0
M  V30 352 H 29.2901 1.94547 -1.64388 0
M  V30 353 H 30.0731 1.29001 -3.18141 0
M  V30 354 N 32.5182 1.22032 0.997298 0
M  V30 355 C 33.4662 0.983634 2.10778 0
M  V30 356 C 34.4602 -0.0717564 1.69248 0
M  V30 357 O 35.6662 0.080304 1.79821 0
M  V30 358 H 32.0412 0.300877 0.689186 0
M  V30 359 H 34.0122 1.92606 2.27916 0
M  V30 360 C 32.7612 0.57326 3.42942 0
M  V30 361 H 32.0842 1.37702 3.75338 0
M  V30 362 H 33.5242 0.447031 4.21637 0
M  V30 363 C 31.9832 -0.7167 3.29188 0
M  V30 364 O 32.5132 -1.77027 3.60589 0
M  V30 365 N 30.7192 -0.686167 2.82383 0
M  V30 366 H 30.2662 0.171507 2.57028 0
M  V30 367 H 30.2242 -1.54955 2.73562 0
M  V30 368 N 33.9963 -1.19345 1.0293 0
M  V30 369 C 35.2243 -1.92997 0.745644 0
M  V30 370 C 35.6393 -1.75519 -0.695589 0
M  V30 371 O 34.9963 -1.07737 -1.47306 0
M  V30 372 C 35.0473 -3.44741 1.08792 0
M  V30 373 O 34.7683 -3.61658 2.47256 0
M  V30 374 C 36.2693 -4.35515 0.827129 0
M  V30 375 H 33.4893 -0.613042 0.272801 0
M  V30 376 H 36.0333 -1.51473 1.3739 0
M  V30 377 H 34.1883 -3.84097 0.504832 0
M  V30 378 H 34.6023 -4.55514 2.60015 0
M  V30 379 H 36.0763 -5.40589 1.11658 0
M  V30 380 H 36.5533 -4.38552 -0.238436 0
M  V30 381 H 37.1593 -4.01841 1.39297 0
M  V30 382 N 35.4744 -0.807222 -1.35358 0
M  V30 383 C 36.7024 -0.400377 -2.02989 0
M  V30 384 C 37.1174 0.988859 -1.60832 0
M  V30 385 O 36.4744 1.63729 -0.806175 0
M  V30 386 C 36.5254 -0.474867 -3.58368 0
M  V30 387 O 36.2464 -1.80933 -3.98992 0
M  V30 388 C 37.7474 -0.0609112 -4.43258 0
M  V30 389 H 34.9674 -0.162587 -0.651004 0
M  V30 390 H 37.5114 -1.09102 -1.72965 0
M  V30 391 H 35.6664 0.167534 -3.87038 0
M  V30 392 H 36.0804 -1.77256 -4.9364 0
M  V30 393 H 37.5544 -0.164145 -5.51756 0
M  V30 394 H 38.0314 0.993831 -4.27808 0
M  V30 395 H 38.6374 -0.676492 -4.19885 0
M  V30 396 N 36.9525 1.47285 -0.560781 0
M  V30 397 C 38.2005 2.02064 -0.0379868 0
M  V30 398 C 38.5215 1.43711 1.31803 0
M  V30 399 O 37.7915 0.61362 1.86042 0
M  V30 400 H 36.3715 0.746918 -0.0110531 0
M  V30 401 H 39.0335 1.80648 -0.731598 0
M  V30 402 H 38.1295 3.12064 0.0474463 0
M  V30 403 N 38.4306 0.297415 1.54768 0
M  V30 404 C 39.3776 -0.580276 2.23386 0
M  V30 405 C 40.3476 -1.13238 1.21517 0
M  V30 406 O 41.5326 -1.17757 1.50126 0
M  V30 407 C 38.6726 -1.74801 2.97555 0
M  V30 408 C 37.7856 -1.22764 4.1419 0
M  V30 409 C 36.9206 -2.35895 4.75949 0
M  V30 410 C 35.9596 -1.80974 5.84735 0
M  V30 411 N 35.0966 -2.87664 6.40464 0
M  V30 412 H 39.9366 0.0114833 2.97998 0
M  V30 413 H 37.4736 0.0174361 1.4709 0
M  V30 414 H 39.4316 -2.43475 3.38786 0
M  V30 415 H 38.0616 -2.31145 2.25326 0
M  V30 416 H 37.1136 -0.433271 3.77924 0
M  V30 417 H 38.4256 -0.785551 4.92575 0
M  V30 418 H 37.5796 -3.12523 5.20014 0
M  V30 419 H 36.3186 -2.83429 3.96887 0
M  V30 420 H 35.3236 -1.02834 5.40097 0
M  V30 421 H 36.5486 -1.34348 6.65678 0
M  V30 422 H 34.4946 -3.34538 5.64287 0
M  V30 423 H 34.4116 -2.4794 7.14186 0
M  V30 424 H 35.6796 -3.642 6.89187 0
M  V30 425 N 39.9087 -1.5758 0.0250728 0
M  V30 426 C 40.8407 -2.06869 -0.986796 0
M  V30 427 C 41.8537 -0.991332 -1.29137 0
M  V30 428 O 43.0427 -1.26761 -1.25674 0
M  V30 429 C 40.1427 -2.47486 -2.31525 0
M  V30 430 C 39.3157 -3.78253 -2.19643 0
M  V30 431 C 38.3747 -4.05464 -3.35388 0
M  V30 432 O 37.4007 -4.75774 -3.12454 0
M  V30 433 N 38.6027 -3.55321 -4.59051 0
M  V30 434 H 41.3677 -2.94302 -0.566276 0
M  V30 435 H 38.9287 -1.6109 -0.161776 0
M  V30 436 H 40.9207 -2.62785 -3.07776 0
M  V30 437 H 39.4907 -1.65441 -2.65232 0
M  V30 438 H 38.7107 -3.7279 -1.28144 0
M  V30 439 H 39.9987 -4.63936 -2.08903 0
M  V30 440 H 39.3967 -2.98431 -4.80578 0
M  V30 441 H 37.9537 -3.75905 -5.32483 0
M  V30 442 N 41.3868 0.248026 -1.55636 0
M  V30 443 C 42.3168 1.31079 -1.93237 0
M  V30 444 C 43.2978 1.50264 -0.797174 0
M  V30 445 O 44.4828 1.62891 -1.05737 0
M  V30 446 C 41.6128 2.66575 -2.22609 0
M  V30 447 C 40.5668 2.62087 -3.3837 0
M  V30 448 C 39.8928 4.01369 -3.53281 0
M  V30 449 C 41.1928 2.19171 -4.7409 0
M  V30 450 H 42.8868 0.998556 -2.82257 0
M  V30 451 H 40.4328 0.47891 -1.35803 0
M  V30 452 H 42.3858 3.41057 -2.47503 0
M  V30 453 H 41.1098 2.99432 -1.30414 0
M  V30 454 H 39.7688 1.90063 -3.13483 0
M  V30 455 H 39.4168 4.31489 -2.58508 0
M  V30 456 H 39.1168 3.99254 -4.31127 0
M  V30 457 H 40.6408 4.77552 -3.80495 0
M  V30 458 H 42.0548 2.83384 -4.98363 0
M  V30 459 H 40.4518 2.2817 -5.5503 0
M  V30 460 H 41.5218 1.14336 -4.71227 0
M  V30 461 N 42.8649 1.48995 0.513639 0
M  V30 462 C 44.1119 1.57843 1.26854 0
M  V30 463 C 44.4399 0.259501 1.92761 0
M  V30 464 O 43.6949 -0.75159 1.80692 0
M  V30 465 C 43.9939 2.67756 2.36731 0
M  V30 466 C 43.6599 4.09669 1.88368 0
M  V30 467 C 42.3219 4.48291 1.74896 0
M  V30 468 C 44.6739 4.98537 1.52021 0
M  V30 469 C 42.0019 5.73568 1.23438 0
M  V30 470 C 44.3539 6.24319 1.0202 0
M  V30 471 C 43.0179 6.61783 0.871778 0
M  V30 472 H 42.2879 0.577587 0.464192 0
M  V30 473 H 44.9349 1.82778 0.571366 0
M  V30 474 H 43.2399 2.36743 3.12185 0
M  V30 475 H 44.9369 2.71813 2.9482 0
M  V30 476 H 41.5269 3.79176 1.99808 0
M  V30 477 H 45.7109 4.69363 1.61281 0
M  V30 478 H 40.9669 6.01304 1.10648 0
M  V30 479 H 45.1409 6.92566 0.729722 0
M  V30 480 H 42.7679 7.5874 0.470852 0
M  V30 481 N 44.343 -0.763751 1.37857 0
M  V30 482 C 45.62 -1.51244 1.24035 0
M  V30 483 C 46 -2.10472 -0.162649 0
M  V30 484 O 45.348 -1.96206 -1.17112 0
M  V30 485 C 45.558 -2.58694 2.34261 0
M  V30 486 C 46.906 -3.25878 2.72193 0
M  V30 487 O 47.93 -2.68993 2.33497 0
M  V30 488 O 46.789 -4.2874 3.38887 0
M  V30 489 H 43.883 -0.670243 0.484462 0
M  V30 490 H 46.429 -0.800031 1.49658 0
M  V30 491 H 45.201 -2.13105 3.2818 0
M  V30 492 H 44.824 -3.37527 2.10146 0
M  V30 493 N 45.8211 -1.22559 -0.990812 0
M  V30 494 C 46.7531 -0.955325 -2.08342 0
M  V30 495 C 47.7661 0.0668408 -1.62663 0
M  V30 496 O 48.9551 -0.167421 -1.77713 0
M  V30 497 C 46.0551 -0.415566 -3.36342 0
M  V30 498 C 45.2281 -1.49544 -4.11042 0
M  V30 499 C 44.2871 -0.962399 -5.17324 0
M  V30 500 O 43.3131 -1.64907 -5.44788 0
M  V30 501 N 44.5151 0.215134 -5.80101 0
M  V30 502 H 47.2801 -1.89596 -2.32106 0
M  V30 503 H 44.8411 -1.13276 -1.15673 0
M  V30 504 H 46.8331 -0.0442386 -4.04676 0
M  V30 505 H 45.4031 0.430232 -3.09625 0
M  V30 506 H 44.6231 -2.04 -3.37309 0
M  V30 507 H 45.9111 -2.22195 -4.57719 0
M  V30 508 H 45.3091 0.789779 -5.6016 0
M  V30 509 H 43.8661 0.527826 -6.49659 0
M  V30 510 N 47.2992 1.18797 -1.03562 0
M  V30 511 C 48.5452 1.8893 -0.737113 0
M  V30 512 C 48.8782 1.79837 0.732956 0
M  V30 513 O 48.1532 1.19525 1.5344 0
M  V30 514 C 48.4362 3.39607 -1.19745 0
M  V30 515 C 48.2892 3.57537 -2.72924 0
M  V30 516 C 49.6082 4.33069 -0.783526 0
M  V30 517 H 46.7272 0.686057 -0.269249 0
M  V30 518 H 49.3692 1.39797 -1.28673 0
M  V30 519 H 47.5192 3.81583 -0.729855 0
M  V30 520 H 49.1912 3.24688 -3.27682 0
M  V30 521 H 47.4342 3.00363 -3.12993 0
M  V30 522 H 48.1052 4.63238 -3.00191 0
M  V30 523 H 50.5812 3.98846 -1.18581 0
M  V30 524 H 49.4572 5.3707 -1.13343 0
M  V30 525 H 49.7182 4.40986 0.313681 0
M  V30 526 N 48.7773 0.814389 1.34928 0
M  V30 527 C 50.0233 0.399013 1.98836 0
M  V30 528 C 50.3563 -1.03314 1.64438 0
M  V30 529 O 49.6313 -1.71811 0.911659 0
M  V30 530 C 49.9143 0.591629 3.55207 0
M  V30 531 C 49.7673 2.06928 3.99376 0
M  V30 532 C 51.0863 0.022199 4.40094 0
M  V30 533 H 48.2053 0.146451 0.722303 0
M  V30 534 H 50.8473 1.02537 1.59957 0
M  V30 535 H 48.9973 0.0584441 3.88456 0
M  V30 536 H 50.6693 2.66544 3.76499 0
M  V30 537 H 48.9123 2.56287 3.49999 0
M  V30 538 H 49.5833 2.1549 5.08201 0
M  V30 539 H 52.0593 0.477643 4.13349 0
M  V30 540 H 50.9353 0.186832 5.48582 0
M  V30 541 H 51.1963 -1.07215 4.28902 0
M  V30 542 N 50.2554 -1.46986 0.568584 0
M  V30 543 C 51.2024 -2.30153 -0.172707 0
M  V30 544 C 52.1724 -1.39759 -0.897586 0
M  V30 545 O 53.3574 -1.68716 -0.891044 0
M  V30 546 C 50.4974 -3.23952 -1.1895 0
M  V30 547 C 49.6104 -4.29441 -0.469517 0
M  V30 548 C 48.7454 -5.1038 -1.47259 0
M  V30 549 C 47.7844 -6.07632 -0.738225 0
M  V30 550 N 46.9214 -6.8149 -1.68868 0
M  V30 551 H 51.7614 -2.93019 0.542596 0
M  V30 552 H 49.2984 -1.44422 0.279401 0
M  V30 553 H 51.2564 -3.76767 -1.79173 0
M  V30 554 H 49.8864 -2.62926 -1.87269 0
M  V30 555 H 48.9384 -3.79594 0.247467 0
M  V30 556 H 50.2504 -4.98689 0.105241 0
M  V30 557 H 49.4044 -5.67402 -2.14803 0
M  V30 558 H 48.1434 -4.4106 -2.08128 0
M  V30 559 H 47.1484 -5.49778 -0.0489293 0
M  V30 560 H 48.3734 -6.78966 -0.135129 0
M  V30 561 H 46.3194 -6.14891 -2.28573 0
M  V30 562 H 46.2364 -7.46948 -1.16636 0
M  V30 563 H 47.5044 -7.43078 -2.3549 0
M  V30 564 N 51.7335 -0.305618 -1.54608 0
M  V30 565 C 52.9615 0.304775 -2.04643 0
M  V30 566 C 53.3765 1.47167 -1.18268 0
M  V30 567 O 52.7335 1.81296 -0.209328 0
M  V30 568 C 52.7845 0.756564 -3.53495 0
M  V30 569 O 52.5055 -0.36389 -4.36586 0
M  V30 570 C 54.0065 1.43163 -4.19546 0
M  V30 571 H 51.2265 0.0655481 -0.667791 0
M  V30 572 H 53.7705 -0.446592 -1.99564 0
M  V30 573 H 51.9255 1.45794 -3.58919 0
M  V30 574 H 52.3395 -0.0113121 -5.24499 0
M  V30 575 H 53.8135 1.69886 -5.25207 0
M  V30 576 H 54.2905 2.37318 -3.69563 0
M  V30 577 H 54.8965 0.773307 -4.18211 0
M  V30 578 N 53.2116 1.57565 -0.0334293 0
M  V30 579 C 54.4576 1.92262 0.645226 0
M  V30 580 C 54.7906 0.910543 1.71531 0
M  V30 581 O 54.0656 -0.066099 1.94388 0
M  V30 582 C 54.3486 3.37422 1.2577 0
M  V30 583 C 54.2016 4.49369 0.196891 0
M  V30 584 C 55.5206 3.82628 2.17449 0
M  V30 585 H 52.6396 0.699171 0.233085 0
M  V30 586 H 55.2816 1.89779 -0.0915694 0
M  V30 587 H 53.4316 3.39669 1.88566 0
M  V30 588 H 55.1036 4.59254 -0.433962 0
M  V30 589 H 53.3466 4.31168 -0.477137 0
M  V30 590 H 54.0176 5.47978 0.665124 0
M  V30 591 H 56.4936 3.82145 1.64634 0
M  V30 592 H 55.3696 4.84883 2.57254 0
M  V30 593 H 55.6306 3.18376 3.0674 0
M  V30 594 N 54.6897 -0.239769 1.55765 0
M  V30 595 C 55.9377 -0.964892 1.77579 0
M  V30 596 C 56.2587 -1.85582 0.598699 0
M  V30 597 O 55.5287 -1.92075 -0.385226 0
M  V30 598 H 54.1087 -0.359265 0.654933 0
M  V30 599 H 56.7707 -0.256001 1.93211 0
M  V30 600 H 55.8667 -1.58243 2.69009 0
M  V30 601 N 56.1678 -1.49265 -0.50573 0
M  V30 602 C 57.0978 -1.68495 -1.61653 0
M  V30 603 C 58.0788 -0.53366 -1.61512 0
M  V30 604 O 59.2638 -0.76897 -1.78327 0
M  V30 605 C 56.3938 -1.74709 -3.00157 0
M  V30 606 C 55.3478 -2.89581 -3.15162 0
M  V30 607 C 54.6738 -2.80903 -4.5497 0
M  V30 608 C 55.9738 -4.30578 -2.95634 0
M  V30 609 H 57.6678 -2.61493 -1.45814 0
M  V30 610 H 55.2138 -1.25838 -0.70005 0
M  V30 611 H 57.1668 -1.86748 -3.77761 0
M  V30 612 H 55.8908 -0.783067 -3.17074 0
M  V30 613 H 54.5498 -2.77136 -2.39982 0
M  V30 614 H 54.1978 -1.82419 -4.68756 0
M  V30 615 H 53.8978 -3.57999 -4.65951 0
M  V30 616 H 55.4218 -2.94944 -5.34641 0
M  V30 617 H 56.8358 -4.4373 -3.63011 0
M  V30 618 H 55.2328 -5.0886 -3.18091 0
M  V30 619 H 56.3028 -4.45352 -1.91806 0
M  V30 620 N 57.6459 0.756429 -1.3826 0
M  V30 621 C 59.0619 1.0591 -1.19395 0
M  V30 622 C 59.2619 2.01459 -0.0406567 0
M  V30 623 O 58.3179 2.44909 0.614467 0
M  V30 624 C 59.6309 1.64191 -2.51916 0
M  V30 625 C 61.1789 1.76376 -2.58574 0
M  V30 626 C 61.6539 2.38069 -3.91264 0
M  V30 627 N 63.1449 2.45503 -3.92788 0
M  V30 628 C 63.8799 2.94126 -4.92217 0
M  V30 629 N 63.3759 3.42805 -6.02043 0
M  V30 630 N 65.1689 2.9314 -4.7961 0
M  V30 631 H 57.3199 0.122313 -2.12048 0
M  V30 632 H 59.5829 0.116892 -0.940766 0
M  V30 633 H 59.2889 1.01451 -3.3675 0
M  V30 634 H 59.1629 2.6329 -2.70108 0
M  V30 635 H 61.5499 2.38244 -1.74137 0
M  V30 636 H 61.6309 0.759894 -2.44252 0
M  V30 637 H 61.2749 1.76835 -4.76121 0
M  V30 638 H 61.2049 3.39091 -4.02895 0
M  V30 639 H 63.6959 2.1107 -3.13461 0
M  V30 640 H 64.0089 3.78354 -6.73846 0
M  V30 641 H 62.3539 3.4087 -6.05667 0
M  V30 642 H 65.5449 2.54419 -3.92923 0
M  V30 643 H 65.7179 3.30721 -5.5725 0
M  V30 644 N 59.124 1.23083 0.984299 0
M  V30 645 C 60.034 1.02515 2.11016 0
M  V30 646 C 61.05 -0.0291702 1.73976 0
M  V30 647 O 62.226 0.165434 2.00719 0
M  V30 648 C 59.291 0.614673 3.41208 0
M  V30 649 C 58.352 1.74359 3.92297 0
M  V30 650 C 57.585 1.35261 5.16275 0
M  V30 651 O 57.808 0.235136 5.69915 0
M  V30 652 O 56.742 2.17227 5.61334 0
M  V30 653 H 60.568 1.96862 2.31255 0
M  V30 654 H 58.153 1.01753 1.09392 0
M  V30 655 H 60.035 0.396518 4.1953 0
M  V30 656 H 58.71 -0.299851 3.22308 0
M  V30 657 H 57.617 2.01635 3.1511 0
M  V30 658 H 58.95 2.63629 4.15645 0
M  V30 659 N 60.6021 -1.18246 1.0419 0
M  V30 660 C 61.8481 -1.88536 0.747122 0
M  V30 661 C 62.1811 -1.80223 -0.723409 0
M  V30 662 O 61.4561 -1.20337 -1.52804 0
M  V30 663 C 61.7391 -3.38968 1.21544 0
M  V30 664 C 61.5921 -3.56084 2.74816 0
M  V30 665 C 62.9111 -4.32648 0.806482 0
M  V30 666 H 60.0301 -0.684619 0.272883 0
M  V30 667 H 62.6721 -1.39113 1.29413 0
M  V30 668 H 60.8221 -3.8119 0.750081 0
M  V30 669 H 62.4941 -3.22946 3.29399 0
M  V30 670 H 60.7371 -2.98699 3.14582 0
M  V30 671 H 61.4081 -4.61639 3.02644 0
M  V30 672 H 63.8841 -3.98211 1.20695 0
M  V30 673 H 62.7601 -5.36462 1.1619 0
M  V30 674 H 63.0211 -4.41146 -0.29029 0
M  V30 675 N 62.0802 -0.821533 -1.34494 0
M  V30 676 C 63.3262 -0.418729 -1.99043 0
M  V30 677 C 63.6812 1.00672 -1.6396 0
M  V30 678 O 62.9742 1.69132 -0.900271 0
M  V30 679 C 63.1682 -0.556512 -3.53041 0
M  V30 680 C 62.9972 -1.9938 -4.03085 0
M  V30 681 C 61.7672 -2.62539 -4.31742 0
M  V30 682 C 63.9652 -2.96035 -4.20556 0
M  V30 683 N 61.9472 -3.97523 -4.67813 0
M  V30 684 C 63.3182 -4.15924 -4.59791 0
M  V30 685 C 65.3732 -2.9267 -4.02801 0
M  V30 686 C 64.0762 -5.32899 -4.83126 0
M  V30 687 C 66.1022 -4.08861 -4.27302 0
M  V30 688 C 65.4642 -5.275 -4.66822 0
M  V30 689 H 61.5632 -0.201299 -0.755647 0
M  V30 690 H 64.1472 -1.06594 -1.62929 0
M  V30 691 H 62.3182 0.0607924 -3.88352 0
M  V30 692 H 64.0502 -0.126842 -4.04501 0
M  V30 693 H 60.8052 -2.13789 -4.22601 0
M  V30 694 H 61.2292 -4.67061 -4.90085 0
M  V30 695 H 65.8712 -2.02088 -3.71376 0
M  V30 696 H 63.5892 -6.24041 -5.13418 0
M  V30 697 H 67.1752 -4.07654 -4.15101 0
M  V30 698 H 66.0552 -6.15913 -4.85408 0
M  V30 699 N 63.5583 1.46682 -0.576371 0
M  V30 700 C 64.8053 2.02412 -0.0595339 0
M  V30 701 C 65.1333 1.44859 1.29793 0
M  V30 702 O 64.3883 0.601099 1.8624 0
M  V30 703 C 64.6873 3.57345 0.062886 0
M  V30 704 C 64.3533 4.33908 -1.22616 0
M  V30 705 C 63.0153 4.54544 -1.57933 0
M  V30 706 C 65.3673 4.77919 -2.07948 0
M  V30 707 C 62.6953 5.16444 -2.78393 0
M  V30 708 C 65.0473 5.41149 -3.27629 0
M  V30 709 C 63.7113 5.60014 -3.63236 0
M  V30 710 H 62.9813 0.74068 -0.021785 0
M  V30 711 H 65.6283 1.76128 -0.751735 0
M  V30 712 H 63.9333 3.82729 0.838178 0
M  V30 713 H 65.6303 3.98136 0.478439 0
M  V30 714 H 62.2203 4.18138 -0.941202 0
M  V30 715 H 66.4043 4.61738 -1.81967 0
M  V30 716 H 61.6603 5.29242 -3.06126 0
M  V30 717 H 65.8343 5.74211 -3.94023 0
M  V30 718 H 63.4613 6.07748 -4.56669 0
M  V30 719 N 65.0364 0.313813 1.54444 0
M  V30 720 C 66.2834 -0.291675 2.00388 0
M  V30 721 C 66.6114 -1.52904 1.2021 0
M  V30 722 O 65.8664 -1.93833 0.269707 0
M  V30 723 C 66.1654 -0.680386 3.50864 0
M  V30 724 C 65.8314 0.456699 4.48581 0
M  V30 725 C 64.4934 0.768824 4.75018 0
M  V30 726 C 66.8454 1.22098 5.06697 0
M  V30 727 C 64.1734 1.84812 5.56831 0
M  V30 728 C 66.5254 2.29029 5.89685 0
M  V30 729 C 65.1894 2.60834 6.14428 0
M  V30 730 H 64.4594 -0.106732 0.733273 0
M  V30 731 H 67.1064 0.43557 1.86481 0
M  V30 732 H 65.4114 -1.48791 3.62448 0
M  V30 733 H 67.1084 -1.16026 3.83847 0
M  V30 734 H 63.6984 0.203337 4.28117 0
M  V30 735 H 67.8824 0.993096 4.86263 0
M  V30 736 H 63.1384 2.09912 5.74236 0
M  V30 737 H 67.3124 2.887 6.33739 0
M  V30 738 H 64.9394 3.44596 6.77612 0
M  V30 739 N 66.5145 -1.57545 0.0417849 0
M  V30 740 C 67.7625 -1.91937 -0.632829 0
M  V30 741 C 68.0835 -0.919978 -1.71934 0
M  V30 742 O 67.3535 0.0366064 -1.95866 0
M  V30 743 H 65.9335 -0.708493 -0.236742 0
M  V30 744 H 68.5955 -1.9468 0.0925745 0
M  V30 745 H 67.6915 -2.92912 -1.07746 0
M  V30 746 N 67.9926 0.231505 -1.5589 0
M  V30 747 C 68.9226 1.29022 -1.94617 0
M  V30 748 C 69.9036 1.4941 -0.813067 0
M  V30 749 O 71.0886 1.6176 -1.07459 0
M  V30 750 C 68.2186 2.64199 -2.25424 0
M  V30 751 C 67.1726 2.58484 -3.41131 0
M  V30 752 C 66.4986 3.97599 -3.57518 0
M  V30 753 C 67.7986 2.1413 -4.76388 0
M  V30 754 H 69.4926 0.968563 -2.83301 0
M  V30 755 H 67.0386 0.464479 -1.36303 0
M  V30 756 H 68.9916 3.38413 -2.51107 0
M  V30 757 H 67.7156 2.98032 -1.33583 0
M  V30 758 H 66.3746 1.86727 -3.15481 0
M  V30 759 H 66.0226 4.28723 -2.6307 0
M  V30 760 H 65.7226 3.94659 -4.35337 0
M  V30 761 H 67.2466 4.7349 -3.85538 0
M  V30 762 H 68.6606 2.78083 -5.01341 0
M  V30 763 H 67.0576 2.2227 -5.57419 0
M  V30 764 H 68.1276 1.09331 -4.72414 0
M  V30 765 N 69.4707 1.49531 0.497807 0
M  V30 766 C 70.4027 1.62559 1.61578 0
M  V30 767 C 71.4157 0.508134 1.54667 0
M  V30 768 O 72.6047 0.780309 1.60541 0
M  V30 769 C 69.7047 1.56925 3.00379 0
M  V30 770 C 68.8777 2.84257 3.3244 0
M  V30 771 C 67.9367 2.71632 4.50669 0
M  V30 772 O 66.9627 3.4557 4.52294 0
M  V30 773 N 68.1647 1.83391 5.5077 0
M  V30 774 H 70.9297 2.58981 1.50828 0
M  V30 775 H 68.4907 1.4666 0.685743 0
M  V30 776 H 70.4827 1.46129 3.77397 0
M  V30 777 H 69.0527 0.683483 3.05037 0
M  V30 778 H 68.2727 3.09381 2.44289 0
M  V30 779 H 69.5607 3.68666 3.5066 0
M  V30 780 H 68.9587 1.22583 5.52259 0
M  V30 781 H 67.5157 1.78515 6.26878 0
M  V30 782 N 70.9488 -0.749086 1.3866 0
M  V30 783 C 72.1788 -1.53611 1.38157 0
M  V30 784 C 72.5868 -1.89177 -0.0293595 0
M  V30 785 O 71.9298 -1.53606 -1.00752 0
M  V30 786 C 71.9918 -2.86087 2.17702 0
M  V30 787 C 71.6558 -2.73034 3.66472 0
M  V30 788 C 72.6528 -2.42526 4.59866 0
M  V30 789 C 70.3378 -2.90345 4.09884 0
M  V30 790 C 72.3318 -2.29492 5.94653 0
M  V30 791 C 70.0188 -2.7693 5.4475 0
M  V30 792 C 71.0168 -2.46547 6.36949 0
M  V30 793 O 70.7048 -2.33199 7.69333 0
M  V30 794 H 70.4368 -0.481773 0.474205 0
M  V30 795 H 72.9908 -0.934465 1.82912 0
M  V30 796 H 71.2208 -3.48458 1.67672 0
M  V30 797 H 72.9098 -3.47625 2.09551 0
M  V30 798 H 73.6758 -2.28816 4.27631 0
M  V30 799 H 69.5548 -3.1299 3.38464 0
M  V30 800 H 73.0988 -2.05698 6.66584 0
M  V30 801 H 68.9958 -2.90215 5.76581 0
M  V30 802 H 69.7638 -2.48376 7.79905 0
M  V30 803 N 72.4269 -1.23603 -0.977757 0
M  V30 804 C 73.6729 -1.07129 -1.72195 0
M  V30 805 C 74.0059 0.390501 -1.90233 0
M  V30 806 O 73.2809 1.28902 -1.45653 0
M  V30 807 C 73.5639 -1.80031 -3.11867 0
M  V30 808 C 73.4169 -3.33899 -3.01383 0
M  V30 809 C 74.7359 -1.56492 -4.11337 0
M  V30 810 H 71.8549 -0.390571 -0.624999 0
M  V30 811 H 74.4969 -1.52142 -1.13811 0
M  V30 812 H 72.6469 -1.41768 -3.6171 0
M  V30 813 H 74.3189 -3.81699 -2.59043 0
M  V30 814 H 72.5619 -3.62796 -2.37827 0
M  V30 815 H 73.2329 -3.801 -4.00285 0
M  V30 816 H 75.7089 -1.89757 -3.70313 0
M  V30 817 H 74.5849 -2.09973 -5.07151 0
M  V30 818 H 74.8459 -0.500874 -4.39254 0
M  V30 819 N 73.905 1.17692 -1.04816 0
M  V30 820 C 75.182 1.83768 -0.669963 0
M  V30 821 C 75.562 1.93232 0.849986 0
M  V30 822 O 74.91 1.46397 1.75443 0
M  V30 823 C 75.12 3.21641 -1.35455 0
M  V30 824 C 76.468 3.97592 -1.49017 0
M  V30 825 O 77.492 3.31107 -1.31326 0
M  V30 826 O 76.351 5.16729 -1.77914 0
M  V30 827 H 73.445 0.792799 -0.235368 0
M  V30 828 H 75.991 1.25021 -1.14751 0
M  V30 829 H 74.763 3.097 -2.39168 0
M  V30 830 H 74.386 3.88052 -0.866107 0
M  V30 831 N 75.3831 0.828654 1.34056 0
M  V30 832 C 76.6081 0.431637 2.02859 0
M  V30 833 C 77.0331 -0.956339 1.61975 0
M  V30 834 O 76.3911 -1.62338 0.807228 0
M  V30 835 C 76.4391 0.548323 3.56407 0
M  V30 836 O 75.5431 -0.429556 4.10157 0
M  V30 837 H 74.8841 0.176886 0.640006 0
M  V30 838 H 77.4141 1.12066 1.71179 0
M  V30 839 H 77.4241 0.426196 4.05768 0
M  V30 840 H 76.0991 1.5606 3.8551 0
M  V30 841 H 74.6761 -0.265836 3.71951 0
M  V30 842 N 76.8612 -1.46375 0.584142 0
M  V30 843 C 77.8082 -2.30323 -0.148286 0
M  V30 844 C 78.7782 -1.40703 -0.882713 0
M  V30 845 O 79.9632 -1.69651 -0.873099 0
M  V30 846 C 77.1032 -3.25196 -1.15507 0
M  V30 847 C 76.2162 -4.29915 -0.423943 0
M  V30 848 C 75.3512 -5.11914 -1.41838 0
M  V30 849 C 74.3902 -6.08381 -0.673736 0
M  V30 850 N 73.5272 -6.83242 -1.6163 0
M  V30 851 H 78.3672 -2.92427 0.573644 0
M  V30 852 H 75.9042 -1.44118 0.294703 0
M  V30 853 H 77.8622 -3.78646 -1.75166 0
M  V30 854 H 76.4922 -2.64898 -1.8447 0
M  V30 855 H 75.5442 -3.7931 0.287714 0
M  V30 856 H 76.8562 -4.98549 0.158128 0
M  V30 857 H 76.0102 -5.69648 -2.08773 0
M  V30 858 H 74.7492 -4.43243 -2.03438 0
M  V30 859 H 73.7542 -5.49799 0.00938483 0
M  V30 860 H 74.9792 -6.79071 -0.0631082 0
M  V30 861 H 72.9252 -6.1728 -2.22038 0
M  V30 862 H 72.8422 -7.48144 -1.08707 0
M  V30 863 H 74.1102 -7.45534 -2.27596 0
M  V30 864 N 78.3393 -0.321999 -1.54275 0
M  V30 865 C 79.5873 0.280489 -2.00144 0
M  V30 866 C 79.9083 1.52777 -1.21178 0
M  V30 867 O 79.1783 1.9338 -0.313187 0
M  V30 868 H 77.7583 0.106632 -0.73935 0
M  V30 869 H 80.4203 -0.438184 -1.8991 0
M  V30 870 H 79.5163 0.537972 -3.07428 0
M  V30 871 N 79.8174 1.5752 -0.0501392 0
M  V30 872 C 81.0474 1.96678 0.632573 0
M  V30 873 C 81.4554 0.926298 1.64974 0
M  V30 874 O 80.7984 -0.09802 1.83438 0
M  V30 875 C 80.8604 3.32068 1.37735 0
M  V30 876 C 80.5244 4.54076 0.516131 0
M  V30 877 C 81.5214 5.19445 -0.217357 0
M  V30 878 C 79.2064 5.00304 0.44736 0
M  V30 879 C 81.2004 6.29378 -1.00807 0
M  V30 880 C 78.8874 6.10114 -0.347038 0
M  V30 881 C 79.8854 6.74512 -1.07344 0
M  V30 882 O 79.5734 7.82211 -1.85477 0
M  V30 883 H 79.3054 0.652193 0.177821 0
M  V30 884 H 81.8594 2.05091 -0.112543 0
M  V30 885 H 80.0894 3.20206 2.16807 0
M  V30 886 H 81.7784 3.55981 1.95019 0
M  V30 887 H 82.5444 4.84689 -0.173688 0
M  V30 888 H 78.4234 4.49971 1.00235 0
M  V30 889 H 81.9674 6.79575 -1.57556 0
M  V30 890 H 77.8644 6.44307 -0.392349 0
M  V30 891 H 78.6324 7.98982 -1.77678 0
M  V30 892 N 81.2955 -0.223234 1.56011 0
M  V30 893 C 82.5205 -0.968978 1.83373 0
M  V30 894 C 82.9455 -1.77227 0.630254 0
M  V30 895 O 82.3035 -1.76345 -0.420959 0
M  V30 896 C 82.3515 -1.86363 3.08709 0
M  V30 897 O 81.4555 -2.95873 2.87285 0
M  V30 898 H 80.7965 -0.274461 0.604622 0
M  V30 899 H 83.3265 -0.237056 2.03222 0
M  V30 900 H 83.3365 -2.27376 3.38768 0
M  V30 901 H 82.0115 -1.27319 3.95933 0
M  V30 902 H 80.5885 -2.58818 2.68454 0
M  V30 903 N 82.7736 -1.49793 -0.48987 0
M  V30 904 C 84.0016 -1.63568 -1.26701 0
M  V30 905 C 84.4166 -0.311465 -1.86213 0
M  V30 906 O 83.7736 0.704416 -1.68357 0
M  V30 907 C 83.8246 -2.71284 -2.38929 0
M  V30 908 O 83.5456 -3.9857 -1.81861 0
M  V30 909 C 85.0466 -2.95864 -3.3012 0
M  V30 910 H 82.2666 -0.550342 -0.383881 0
M  V30 911 H 84.8106 -1.95898 -0.586864 0
M  V30 912 H 82.9656 -2.417 -3.02753 0
M  V30 913 H 83.3796 -4.57993 -2.55622 0
M  V30 914 H 84.8536 -3.74941 -4.05121 0
M  V30 915 H 85.3306 -2.06206 -3.87783 0
M  V30 916 H 85.9366 -3.26907 -2.72051 0
M  V30 917 N 84.2517 0.741722 -1.39055 0
M  V30 918 C 85.4977 1.50234 -1.37118 0
M  V30 919 C 85.8527 1.92368 0.0350439 0
M  V30 920 O 85.1457 1.63422 1.00019 0
M  V30 921 C 85.3397 2.7592 -2.27163 0
M  V30 922 C 85.1687 2.46074 -3.76401 0
M  V30 923 C 83.9387 2.38704 -4.45364 0
M  V30 924 C 86.1367 2.12062 -4.68545 0
M  V30 925 N 84.1187 2.01258 -5.79973 0
M  V30 926 C 85.4897 1.85005 -5.91754 0
M  V30 927 C 87.5447 1.98473 -4.56632 0
M  V30 928 C 86.2477 1.4573 -7.04383 0
M  V30 929 C 88.2737 1.60599 -5.69176 0
M  V30 930 C 87.6357 1.34423 -6.91455 0
M  V30 931 H 83.7347 0.548858 -0.557027 0
M  V30 932 H 86.3187 0.862642 -1.74547 0
M  V30 933 H 84.4897 3.3768 -1.91904 0
M  V30 934 H 86.2217 3.42068 -2.16267 0
M  V30 935 H 82.9767 2.55574 -3.98721 0
M  V30 936 H 83.4007 1.85147 -6.51191 0
M  V30 937 H 88.0427 2.17381 -3.62637 0
M  V30 938 H 85.7607 1.25562 -7.98286 0
M  V30 939 H 89.3467 1.507 -5.61944 0
M  V30 940 H 88.2267 1.05555 -7.77064 0
M  V30 941 N 85.7298 1.2412 0.971189 0
M  V30 942 C 86.6598 1.05508 2.08304 0
M  V30 943 C 87.6408 -0.0308864 1.70072 0
M  V30 944 O 88.8258 0.135521 1.93727 0
M  V30 945 C 85.9558 0.655365 3.4106 0
M  V30 946 C 84.9098 1.68971 3.93234 0
M  V30 947 C 84.2358 1.14516 5.22293 0
M  V30 948 C 85.5358 3.08487 4.21465 0
M  V30 949 H 87.2298 1.98507 2.24132 0
M  V30 950 H 84.7758 0.955821 1.07704 0
M  V30 951 H 86.7288 0.51217 4.18276 0
M  V30 952 H 85.4528 -0.31032 3.25122 0
M  V30 953 H 84.1118 1.82106 3.18171 0
M  V30 954 H 83.7598 0.170189 5.02712 0
M  V30 955 H 83.4598 1.83635 5.58168 0
M  V30 956 H 84.9838 1.01401 6.02121 0
M  V30 957 H 86.3978 2.98601 4.89398 0
M  V30 958 H 84.7948 3.74926 4.68562 0
M  V30 959 H 85.8648 3.56787 3.28376 0
M  V30 960 N 87.2079 -1.17134 1.05439 0
M  V30 961 C 88.1549 -2.21235 0.657539 0
M  V30 962 C 89.1249 -1.62551 -0.341543 0
M  V30 963 O 90.3099 -1.89379 -0.232393 0
M  V30 964 C 87.4499 -3.45076 0.0410575 0
M  V30 965 C 86.5629 -4.18042 1.08927 0
M  V30 966 C 85.6979 -5.29376 0.439848 0
M  V30 967 C 84.7369 -5.94132 1.4722 0
M  V30 968 N 83.8739 -6.96975 0.846756 0
M  V30 969 H 88.7139 -2.54534 1.54972 0
M  V30 970 H 86.2509 -1.25028 0.775006 0
M  V30 971 H 88.2089 -4.15862 -0.33383 0
M  V30 972 H 86.8389 -3.12353 -0.814568 0
M  V30 973 H 85.8909 -3.45945 1.58196 0
M  V30 974 H 87.2029 -4.62306 1.87282 0
M  V30 975 H 86.3569 -6.06699 0.0115125 0
M  V30 976 H 85.0959 -4.86251 -0.375656 0
M  V30 977 H 84.1009 -5.15538 1.91052 0
M  V30 978 H 85.3259 -6.39337 2.28965 0
M  V30 979 H 83.2719 -6.5598 0.0518075 0
M  V30 980 H 83.1889 -7.39565 1.5678 0
M  V30 981 H 84.4569 -7.78239 0.443277 0
M  V30 982 N 88.686 -0.835752 -1.33615 0
M  V30 983 C 89.616 -0.281739 -2.31794 0
M  V30 984 C 90.597 0.608833 -1.58831 0
M  V30 985 O 91.782 0.533035 -1.86741 0
M  V30 986 C 88.912 0.546612 -3.42971 0
M  V30 987 C 87.866 -0.247904 -4.27281 0
M  V30 988 C 87.192 0.704001 -5.30045 0
M  V30 989 C 88.492 -1.46324 -5.01385 0
M  V30 990 H 90.186 -1.10206 -2.78379 0
M  V30 991 H 87.732 -0.531388 -1.33837 0
M  V30 992 H 89.685 0.944467 -4.1068 0
M  V30 993 H 88.409 1.40011 -2.95067 0
M  V30 994 H 87.068 -0.627281 -3.61194 0
M  V30 995 H 86.716 1.55381 -4.78399 0
M  V30 996 H 86.416 0.176524 -5.87335 0
M  V30 997 H 87.94 1.09944 -6.0062 0
M  V30 998 H 89.354 -1.13871 -5.61877 0
M  V30 999 H 87.751 -1.92728 -5.6831 0
M  V30 1000 H 88.821 -2.23467 -4.30338 0
M  V30 1001 N 90.1641 1.46063 -0.591896 0
M  V30 1002 C 91.1121 2.32124 0.148739 0
M  V30 1003 C 92.1061 1.45035 0.875286 0
M  V30 1004 O 93.3121 1.61609 0.792632 0
M  V30 1005 H 89.6871 0.749024 0.066832 0
M  V30 1006 H 91.6581 2.92392 -0.595783 0
M  V30 1007 C 90.4071 3.28373 1.1431 0
M  V30 1008 H 89.7301 3.95371 0.59346 0
M  V30 1009 H 91.1701 3.91352 1.63155 0
M  V30 1010 C 89.6291 2.54393 2.20875 0
M  V30 1011 O 90.1591 2.31373 3.28374 0
M  V30 1012 N 88.3651 2.14797 1.95731 0
M  V30 1013 H 87.9121 2.33719 1.08319 0
M  V30 1014 H 87.8701 1.65619 2.67241 0
M  V30 1015 N 91.6422 0.330177 1.54103 0
M  V30 1016 C 92.5892 -0.532762 2.24567 0
M  V30 1017 C 93.5592 -1.10635 1.23892 0
M  V30 1018 O 94.7442 -1.14546 1.5259 0
M  V30 1019 C 91.8842 -1.6845 3.01195 0
M  V30 1020 C 90.9972 -1.13951 4.167 0
M  V30 1021 C 90.1322 -2.25746 4.80845 0
M  V30 1022 C 89.1712 -1.6853 5.88442 0
M  V30 1023 N 88.3082 -2.74014 6.46421 0
M  V30 1024 H 93.1482 0.0746905 2.97906 0
M  V30 1025 H 90.6852 0.048632 1.4702 0
M  V30 1026 H 92.6432 -2.36234 3.43874 0
M  V30 1027 H 91.2732 -2.26314 2.30178 0
M  V30 1028 H 90.3252 -0.35301 3.78758 0
M  V30 1029 H 91.6372 -0.680892 4.94131 0
M  V30 1030 H 90.7912 -3.01422 5.26526 0
M  V30 1031 H 89.5302 -2.74947 4.0281 0
M  V30 1032 H 88.5352 -0.913543 5.42157 0
M  V30 1033 H 89.7602 -1.20198 6.68378 0
M  V30 1034 H 87.7062 -3.22494 5.71256 0
M  V30 1035 H 87.6232 -2.32735 7.19285 0
M  V30 1036 H 88.8912 -3.49499 6.96757 0
M  V30 1037 N 93.1203 -1.57491 0.0584922 0
M  V30 1038 C 94.0673 -2.11958 -0.913376 0
M  V30 1039 C 95.0373 -1.02875 -1.30407 0
M  V30 1040 O 96.2223 -1.30464 -1.39226 0
M  V30 1041 C 93.3623 -2.67497 -2.18035 0
M  V30 1042 C 92.4753 -3.90691 -1.84349 0
M  V30 1043 C 91.6103 -4.3452 -3.05559 0
M  V30 1044 C 90.6493 -5.50395 -2.67827 0
M  V30 1045 N 89.7863 -5.89244 -3.81754 0
M  V30 1046 H 94.6263 -2.94704 -0.442017 0
M  V30 1047 H 92.1633 -1.45643 -0.206545 0
M  V30 1048 H 94.1213 -2.978 -2.92183 0
M  V30 1049 H 92.7513 -1.87537 -2.62735 0
M  V30 1050 H 91.8033 -3.66934 -1.00319 0
M  V30 1051 H 93.1153 -4.7489 -1.5258 0
M  V30 1052 H 92.2693 -4.66414 -3.87998 0
M  V30 1053 H 91.0083 -3.49147 -3.40511 0
M  V30 1054 H 90.0133 -5.18165 -1.83806 0
M  V30 1055 H 91.2383 -6.3749 -2.34059 0
M  V30 1056 H 89.1843 -5.06823 -4.16493 0
M  V30 1057 H 89.1013 -6.68151 -3.53708 0
M  V30 1058 H 90.3693 -6.25756 -4.64811 0
M  V30 1059 N 94.5984 0.214957 -1.56127 0
M  V30 1060 C 95.8444 0.939762 -1.79712 0
M  V30 1061 C 96.1774 1.83723 -0.629247 0
M  V30 1062 O 95.4524 1.90925 0.371197 0
M  V30 1063 C 95.7354 1.77306 -3.13424 0
M  V30 1064 C 95.5884 0.90164 -4.40671 0
M  V30 1065 C 96.9074 2.74956 -3.43638 0
M  V30 1066 H 94.0264 0.340214 -0.653776 0
M  V30 1067 H 96.6684 0.20824 -1.88855 0
M  V30 1068 H 94.8184 2.39673 -3.0576 0
M  V30 1069 H 96.4904 0.294206 -4.60361 0
M  V30 1070 H 94.7334 0.207368 -4.33304 0
M  V30 1071 H 95.4044 1.51923 -5.30682 0
M  V30 1072 H 97.8804 2.22724 -3.51473 0
M  V30 1073 H 96.7564 3.30358 -4.38355 0
M  V30 1074 H 97.0174 3.53023 -2.66134 0
M  V30 1075 N 96.0765 1.50051 0.48192 0
M  V30 1076 C 97.3045 1.64237 1.25832 0
M  V30 1077 C 97.7195 0.321336 1.86045 0
M  V30 1078 O 97.0765 -0.695478 1.68729 0
M  V30 1079 C 97.1275 2.72548 2.37487 0
M  V30 1080 O 96.8485 3.99529 1.79745 0
M  V30 1081 C 98.3495 2.9761 3.28547 0
M  V30 1082 H 95.5695 0.55237 0.380957 0
M  V30 1083 H 98.1135 1.96207 0.576467 0
M  V30 1084 H 96.2685 2.43303 3.01467 0
M  V30 1085 H 96.6825 4.59342 2.5319 0
M  V30 1086 H 98.1565 3.77084 4.03127 0
M  V30 1087 H 98.6335 2.0826 3.86684 0
M  V30 1088 H 99.2395 3.28345 2.70314 0
M  V30 1089 N 97.5546 -0.734337 1.39446 0
M  V30 1090 C 98.4866 -1.85861 1.34121 0
M  V30 1091 C 99.4996 -1.60871 0.249864 0
M  V30 1092 O 100.689 -1.71093 0.508865 0
M  V30 1093 C 97.7886 -3.21899 1.05991 0
M  V30 1094 C 96.9616 -3.74239 2.26415 0
M  V30 1095 C 96.0206 -4.88841 1.94733 0
M  V30 1096 O 95.0466 -5.02468 2.67422 0
M  V30 1097 N 96.2486 -5.73261 0.913884 0
M  V30 1098 H 99.0136 -1.90934 2.31007 0
M  V30 1099 H 96.5746 -0.915102 1.33557 0
M  V30 1100 H 98.5666 -3.96136 0.828147 0
M  V30 1101 H 97.1366 -3.12091 0.178361 0
M  V30 1102 H 96.3566 -2.91347 2.65539 0
M  V30 1103 H 97.6446 -4.05942 3.06738 0
M  V30 1104 H 97.0426 -5.64842 0.311476 0
M  V30 1105 H 95.5996 -6.47563 0.742015 0
M  V30 1106 N 99.0327 -1.24633 -0.964593 0
M  V30 1107 C 99.9647 -0.999302 -2.06268 0
M  V30 1108 C 100.978 0.0323226 -1.62768 0
M  V30 1109 O 102.167 -0.205079 -1.77318 0
M  V30 1110 C 99.2667 -0.486816 -3.35385 0
M  V30 1111 C 98.4397 -1.5823 -4.07777 0
M  V30 1112 C 97.4987 -1.07191 -5.15166 0
M  V30 1113 O 96.5247 -1.76426 -5.41168 0
M  V30 1114 N 97.7267 0.0920373 -5.80427 0
M  V30 1115 H 100.492 -1.94477 -2.28033 0
M  V30 1116 H 98.0527 -1.15704 -1.13244 0
M  V30 1117 H 100.045 -0.130066 -4.04491 0
M  V30 1118 H 98.6147 0.364459 -3.10468 0
M  V30 1119 H 97.8347 -2.11109 -3.32906 0
M  V30 1120 H 99.1227 -2.31854 -4.52903 0
M  V30 1121 H 98.5207 0.670784 -5.61709 0
M  V30 1122 H 97.0777 0.389905 -6.50633 0
M  V30 1123 N 100.511 1.16574 -1.06058 0
M  V30 1124 C 101.788 1.83048 -0.689416 0
M  V30 1125 C 102.168 1.94122 0.829443 0
M  V30 1126 O 101.516 1.48249 1.7388 0
M  V30 1127 C 101.726 3.20186 -1.38859 0
M  V30 1128 C 103.074 3.95989 -1.53226 0
M  V30 1129 O 104.098 3.29696 -1.3483 0
M  V30 1130 O 102.957 5.14813 -1.83384 0
M  V30 1131 H 100.051 0.790258 -0.243764 0
M  V30 1132 H 102.597 1.23797 -1.16071 0
M  V30 1133 H 101.369 3.07146 -2.4244 0
M  V30 1134 H 100.992 3.87112 -0.907216 0
M  V30 1135 N 101.989 0.842826 1.3317 0
M  V30 1136 C 103.235 0.441099 1.97945 0
M  V30 1137 C 103.568 -0.998024 1.66593 0
M  V30 1138 O 102.843 -1.69839 0.947898 0
M  V30 1139 C 103.126 0.666841 3.53872 0
M  V30 1140 C 102.979 2.15352 3.94897 0
M  V30 1141 C 104.298 0.115544 4.39948 0
M  V30 1142 H 101.417 0.161739 0.719034 0
M  V30 1143 H 104.059 1.05907 1.57746 0
M  V30 1144 H 102.209 0.140828 3.88245 0
M  V30 1145 H 103.881 2.7447 3.70761 0
M  V30 1146 H 102.124 2.63653 3.44484 0
M  V30 1147 H 102.795 2.26221 5.03516 0
M  V30 1148 H 105.271 0.565213 4.12243 0
M  V30 1149 H 104.147 0.303152 5.48062 0
M  V30 1150 H 104.408 -0.980935 4.3108 0
M  V30 1151 N 103.467 -1.45747 0.599634 0
M  V30 1152 C 104.414 -2.30467 -0.123849 0
M  V30 1153 C 105.384 -1.41632 -0.86774 0
M  V30 1154 O 106.569 -1.70568 -0.855056 0
M  V30 1155 C 103.709 -3.26402 -1.12051 0
M  V30 1156 C 102.822 -4.3034 -0.37832 0
M  V30 1157 C 101.957 -5.13389 -1.364 0
M  V30 1158 C 100.996 -6.09061 -0.609171 0
M  V30 1159 N 100.133 -6.84918 -1.54374 0
M  V30 1160 H 104.973 -2.91802 0.604627 0
M  V30 1161 H 102.51 -1.43797 0.309972 0
M  V30 1162 H 104.468 -3.80482 -1.7114 0
M  V30 1163 H 103.098 -2.66839 -1.8165 0
M  V30 1164 H 102.15 -3.78984 0.327929 0
M  V30 1165 H 103.462 -4.98354 0.210997 0
M  V30 1166 H 102.616 -5.7183 -2.02719 0
M  V30 1167 H 101.355 -4.45376 -1.98725 0
M  V30 1168 H 100.36 -5.49758 0.0676979 0
M  V30 1169 H 101.585 -6.79099 0.00891991 0
M  V30 1170 H 99.531 -6.19601 -2.15478 0
M  V30 1171 H 99.448 -7.49254 -1.00766 0
M  V30 1172 H 100.716 -7.47906 -2.19676 0
M  V30 1173 N 104.945 -0.338344 -1.53925 0
M  V30 1174 C 105.892 0.520845 -2.24846 0
M  V30 1175 C 106.862 1.09976 -1.24477 0
M  V30 1176 O 108.047 1.13735 -1.53196 0
M  V30 1177 C 105.187 1.6685 -3.02084 0
M  V30 1178 C 104.3 1.11739 -4.17299 0
M  V30 1179 C 103.435 2.23193 -4.82036 0
M  V30 1180 C 102.474 1.65407 -5.89328 0
M  V30 1181 N 101.611 2.70582 -6.47866 0
M  V30 1182 H 106.451 -0.0904881 -2.97863 0
M  V30 1183 H 103.988 -0.0564282 -1.46992 0
M  V30 1184 H 105.946 2.34407 -3.45122 0
M  V30 1185 H 104.576 2.2509 -2.31375 0
M  V30 1186 H 103.628 0.332919 -3.7894 0
M  V30 1187 H 104.94 0.654677 -4.94485 0
M  V30 1188 H 104.094 2.98626 -5.28117 0
M  V30 1189 H 102.833 2.72807 -4.04262 0
M  V30 1190 H 101.838 0.884779 -5.42634 0
M  V30 1191 H 103.063 1.16652 -6.69006 0
M  V30 1192 H 101.009 3.1946 -5.72959 0
M  V30 1193 H 100.926 2.28917 -7.20509 0
M  V30 1194 H 102.194 3.45799 -6.98601 0
M  V30 1195 N 106.423 1.57458 -0.0668435 0
M  V30 1196 C 107.333 2.15937 0.916975 0
M  V30 1197 C 108.349 1.12123 1.33058 0
M  V30 1198 O 109.525 1.44366 1.40429 0
M  V30 1199 C 106.59 2.70547 2.16807 0
M  V30 1200 C 105.651 3.89215 1.81135 0
M  V30 1201 C 104.884 4.41211 3.0028 0
M  V30 1202 O 105.107 3.92225 4.14144 0
M  V30 1203 O 104.041 5.32605 2.80384 0
M  V30 1204 H 107.867 3.00354 0.449561 0
M  V30 1205 H 105.452 1.48584 0.155949 0
M  V30 1206 H 107.334 3.0557 2.90181 0
M  V30 1207 H 106.009 1.89192 2.62656 0
M  V30 1208 H 104.916 3.59054 1.05028 0
M  V30 1209 H 106.249 4.71848 1.40073 0
M  V30 1210 N 107.901 -0.206675 1.56239 0
M  V30 1211 C 108.849 -1.27571 1.94495 0
M  V30 1212 C 109.843 -1.47737 0.828862 0
M  V30 1213 O 111.049 -1.48735 1.0138 0
M  V30 1214 H 107.424 -0.428029 0.6183 0
M  V30 1215 H 109.395 -0.925961 2.8367 0
M  V30 1216 C 108.144 -2.61568 2.29079 0
M  V30 1217 H 107.467 -2.46863 3.14482 0
M  V30 1218 H 108.907 -3.35144 2.5972 0
M  V30 1219 C 107.366 -3.17695 1.12123 0
M  V30 1220 O 107.896 -3.99801 0.390153 0
M  V30 1221 N 106.102 -2.76276 0.901097 0
M  V30 1222 H 105.649 -2.09613 1.49733 0
M  V30 1223 H 105.607 -3.1417 0.120319 0
M  V30 1224 N 109.379 -1.50304 -0.473955 0
M  V30 1225 C 110.79 -1.54042 -1.0549 0
M  V30 1226 C 111.141 -0.342248 -1.93192 0
M  V30 1227 O 110.266 0.545157 -2.09421 0
M  V30 1228 C 110.861 -2.79152 -1.91989 0
M  V30 1229 C 109.42 -2.8558 -2.45196 0
M  V30 1230 C 108.567 -2.48295 -1.2347 0
M  V30 1231 H 111.518 -1.5661 -0.256693 0
M  V30 1232 H 111.539 -2.60845 -2.7702 0
M  V30 1233 H 111.051 -3.66339 -1.28131 0
M  V30 1234 H 109.152 -2.02738 -3.12615 0
M  V30 1235 H 109.265 -3.88403 -2.80499 0
M  V30 1236 H 107.629 -2.00669 -1.56856 0
M  V30 1237 H 108.412 -3.37787 -0.612789 0
M  V30 1238 N 110.857 0.726932 -1.39834 0
M  V30 1239 C 111.787 1.85405 -1.41941 0
M  V30 1240 C 112.768 1.67751 -0.281728 0
M  V30 1241 O 113.953 1.8795 -0.488717 0
M  V30 1242 C 111.083 3.23243 -1.2701 0
M  V30 1243 C 110.037 3.55549 -2.38262 0
M  V30 1244 C 109.363 4.9241 -2.08415 0
M  V30 1245 C 110.663 3.577 -3.80589 0
M  V30 1246 H 112.357 1.83899 -2.36266 0
M  V30 1247 H 109.903 0.883349 -1.13723 0
M  V30 1248 H 111.856 4.01775 -1.27103 0
M  V30 1249 H 110.58 3.25296 -0.291564 0
M  V30 1250 H 109.239 2.79351 -2.37399 0
M  V30 1251 H 108.887 4.91052 -1.0898 0
M  V30 1252 H 108.587 5.14992 -2.82943 0
M  V30 1253 H 110.111 5.73289 -2.10171 0
M  V30 1254 H 111.525 4.26293 -3.83337 0
M  V30 1255 H 109.922 3.91804 -4.54543 0
M  V30 1256 H 110.992 2.57328 -4.10987 0
M  V30 1257 N 112.336 1.25143 0.95797 0
M  V30 1258 C 113.268 1.01023 2.05735 0
M  V30 1259 C 114.281 -0.0236902 1.62783 0
M  V30 1260 O 115.47 0.21448 1.77207 0
M  V30 1261 C 112.57 0.504595 3.35122 0
M  V30 1262 C 111.743 1.6039 4.06932 0
M  V30 1263 C 110.802 1.09922 5.14591 0
M  V30 1264 O 109.828 1.79293 5.40225 0
M  V30 1265 N 111.03 -0.0612545 5.80468 0
M  V30 1266 H 113.795 1.95683 2.26998 0
M  V30 1267 H 111.356 1.16303 1.12629 0
M  V30 1268 H 113.348 0.151516 4.04416 0
M  V30 1269 H 111.918 -0.347989 3.10657 0
M  V30 1270 H 111.138 2.12872 3.31782 0
M  V30 1271 H 112.426 2.34252 4.51667 0
M  V30 1272 H 111.824 -0.640985 5.62057 0
M  V30 1273 H 110.381 -0.355395 6.5083 0
M  V30 1274 N 113.814 -1.1601 1.06675 0
M  V30 1275 C 115.061 -1.86633 0.785781 0
M  V30 1276 C 115.389 -1.81929 -0.687896 0
M  V30 1277 O 114.644 -1.23253 -1.52011 0
M  V30 1278 C 114.943 -3.35547 1.23057 0
M  V30 1279 C 114.609 -3.60448 2.70902 0
M  V30 1280 C 113.271 -3.66954 3.11285 0
M  V30 1281 C 115.623 -3.7071 3.66365 0
M  V30 1282 C 112.951 -3.81225 4.45965 0
M  V30 1283 C 115.303 -3.86503 5.00797 0
M  V30 1284 C 113.967 -3.91252 5.40813 0
M  V30 1285 H 113.237 -0.682937 0.287538 0
M  V30 1286 H 115.884 -1.37146 1.33654 0
M  V30 1287 H 114.189 -3.87193 0.59907 0
M  V30 1288 H 115.886 -3.88583 0.990163 0
M  V30 1289 H 112.476 -3.56021 2.38636 0
M  V30 1290 H 116.66 -3.64991 3.36296 0
M  V30 1291 H 111.916 -3.83155 4.76447 0
M  V30 1292 H 116.09 -3.93385 5.74649 0
M  V30 1293 H 113.717 -4.02062 6.45174 0
M  V30 1294 N 115.292 -0.849877 -1.32721 0
M  V30 1295 C 116.239 -0.289033 -2.28983 0
M  V30 1296 C 117.209 0.601324 -1.54833 0
M  V30 1297 O 118.394 0.537253 -1.8308 0
M  V30 1298 C 115.534 0.520623 -3.4115 0
M  V30 1299 C 114.647 -0.394989 -4.3019 0
M  V30 1300 C 113.782 0.426834 -5.29482 0
M  V30 1301 C 112.821 -0.486476 -6.10164 0
M  V30 1302 N 111.958 0.297879 -7.01468 0
M  V30 1303 H 116.798 -1.11519 -2.76347 0
M  V30 1304 H 114.335 -0.56138 -1.35967 0
M  V30 1305 H 116.293 1.00563 -4.04899 0
M  V30 1306 H 114.923 1.31165 -2.9495 0
M  V30 1307 H 113.975 -0.99836 -3.67065 0
M  V30 1308 H 115.287 -1.09612 -4.86607 0
M  V30 1309 H 114.441 0.975205 -5.98811 0
M  V30 1310 H 113.18 1.16136 -4.73671 0
M  V30 1311 H 112.185 -1.04677 -5.39743 0
M  V30 1312 H 113.41 -1.21953 -6.6806 0
M  V30 1313 H 111.356 1.01558 -6.48091 0
M  V30 1314 H 111.273 -0.344318 -7.55216 0
M  V30 1315 H 112.541 0.828131 -7.75089 0
M  V30 1316 N 116.77 1.45427 -0.607355 0
M  V30 1317 C 118.017 2.02241 -0.102455 0
M  V30 1318 C 118.345 1.4758 1.26691 0
M  V30 1319 O 117.6 0.640468 1.84923 0
M  V30 1320 C 117.899 3.57398 -0.0129263 0
M  V30 1321 C 117.565 4.3121 -1.31792 0
M  V30 1322 C 116.227 4.51092 -1.67539 0
M  V30 1323 C 118.579 4.73401 -2.18039 0
M  V30 1324 C 115.907 5.10422 -2.89285 0
M  V30 1325 C 118.259 5.34078 -3.39034 0
M  V30 1326 C 116.923 5.52184 -3.75033 0
M  V30 1327 H 116.193 0.740051 -0.037491 0
M  V30 1328 H 118.84 1.74494 -0.788926 0
M  V30 1329 H 117.145 3.84421 0.756806 0
M  V30 1330 H 118.842 3.99061 0.393881 0
M  V30 1331 H 115.432 4.16047 -1.02968 0
M  V30 1332 H 119.616 4.57774 -1.91721 0
M  V30 1333 H 114.872 5.22629 -3.17283 0
M  V30 1334 H 119.046 5.65724 -4.06115 0
M  V30 1335 H 116.673 5.97925 -4.69457 0
M  V30 1336 N 118.248 0.346503 1.53744 0
M  V30 1337 C 119.664 -0.00530975 1.59599 0
M  V30 1338 C 119.864 -1.48465 1.36236 0
M  V30 1339 O 118.92 -2.24376 1.15808 0
M  V30 1340 C 120.233 0.433516 2.97559 0
M  V30 1341 C 121.781 0.386111 3.10609 0
M  V30 1342 C 122.256 0.800451 4.50951 0
M  V30 1343 N 123.747 0.754753 4.5701 0
M  V30 1344 C 124.482 1.04727 5.63755 0
M  V30 1345 N 123.978 1.4081 6.7834 0
M  V30 1346 N 125.771 0.971316 5.53644 0
M  V30 1347 H 117.922 1.31009 1.67184 0
M  V30 1348 H 120.185 0.534242 0.783128 0
M  V30 1349 H 119.891 1.46509 3.19731 0
M  V30 1350 H 119.765 -0.189753 3.76722 0
M  V30 1351 H 122.152 -0.636295 2.88158 0
M  V30 1352 H 122.233 1.04462 2.33498 0
M  V30 1353 H 121.877 1.82088 4.74137 0
M  V30 1354 H 121.807 0.119386 5.26465 0
M  V30 1355 H 124.298 0.488662 3.74727 0
M  V30 1356 H 124.611 1.61607 7.55714 0
M  V30 1357 H 122.956 1.44657 6.79779 0
M  V30 1358 H 126.147 0.688748 4.63005 0
M  V30 1359 H 126.32 1.20263 6.36742 0
M  V30 1360 N 119.726 -1.57421 0.075193 0
M  V30 1361 C 120.689 -2.11791 -0.876203 0
M  V30 1362 C 121.689 -1.04268 -1.22412 0
M  V30 1363 O 122.879 -1.30242 -1.15684 0
M  V30 1364 C 120.011 -2.62207 -2.17854 0
M  V30 1365 H 121.204 -2.9716 -0.40444 0
M  V30 1366 H 118.757 -1.55333 -0.173557 0
M  V30 1367 H 119.492 -1.803 -2.6956 0
M  V30 1368 H 119.277 -3.40802 -1.93897 0
M  V30 1369 H 120.767 -3.04335 -2.85955 0
M  V30 1370 N 121.204 0.198386 -1.56346 0
M  V30 1371 C 122.151 1.24589 -1.94284 0
M  V30 1372 C 123.121 1.454 -0.802997 0
M  V30 1373 O 124.306 1.58588 -1.06087 0
M  V30 1374 C 121.446 2.58631 -2.28482 0
M  V30 1375 C 120.559 2.45426 -3.55514 0
M  V30 1376 C 119.694 3.7215 -3.79049 0
M  V30 1377 C 118.733 3.53763 -4.99518 0
M  V30 1378 N 117.87 4.72491 -5.19323 0
M  V30 1379 H 122.71 0.915356 -2.83593 0
M  V30 1380 H 120.247 0.440629 -1.40346 0
M  V30 1381 H 122.205 3.3672 -2.46324 0
M  V30 1382 H 120.835 2.89734 -1.42317 0
M  V30 1383 H 119.887 1.58652 -3.45737 0
M  V30 1384 H 121.199 2.27772 -4.43758 0
M  V30 1385 H 120.353 4.58679 -3.97113 0
M  V30 1386 H 119.092 3.92754 -2.89129 0
M  V30 1387 H 118.097 2.65619 -4.8138 0
M  V30 1388 H 119.322 3.34607 -5.90944 0
M  V30 1389 H 117.268 4.93365 -4.3235 0
M  V30 1390 H 117.185 4.5765 -6.01741 0
M  V30 1391 H 118.453 5.6038 -5.41843 0
M  V30 1392 N 122.682 1.50554 0.465978 0
M  V30 1393 C 123.929 1.61798 1.21768 0
M  V30 1394 C 124.257 0.320696 1.91838 0
M  V30 1395 O 123.512 -0.693724 1.82992 0
M  V30 1396 C 123.811 2.75152 2.28093 0
M  V30 1397 C 123.477 4.15454 1.75239 0
M  V30 1398 C 122.139 4.53628 1.60546 0
M  V30 1399 C 124.491 5.03121 1.36083 0
M  V30 1400 C 121.819 5.77204 1.05128 0
M  V30 1401 C 124.171 6.27249 0.821056 0
M  V30 1402 C 122.835 6.64221 0.660795 0
M  V30 1403 H 122.105 0.592063 0.445582 0
M  V30 1404 H 124.752 1.84503 0.512927 0
M  V30 1405 H 123.057 2.46556 3.04496 0
M  V30 1406 H 124.754 2.81055 2.86023 0
M  V30 1407 H 121.344 3.85341 1.87644 0
M  V30 1408 H 125.528 4.74257 1.46267 0
M  V30 1409 H 120.784 6.0452 0.91462 0
M  V30 1410 H 124.958 6.94537 0.509018 0
M  V30 1411 H 122.585 7.59854 0.229226 0
M  V30 1412 N 124.16 -0.719506 1.40217 0
M  V30 1413 C 125.407 -1.47933 1.38283 0
M  V30 1414 C 125.735 -1.94493 -0.0161536 0
M  V30 1415 O 124.99 -1.68224 -0.999956 0
M  V30 1416 C 125.289 -2.72271 2.31524 0
M  V30 1417 C 124.955 -2.44496 3.78857 0
M  V30 1418 C 123.617 -2.36631 4.18998 0
M  V30 1419 C 125.969 -2.21104 4.71977 0
M  V30 1420 C 123.297 -2.03437 5.503 0
M  V30 1421 C 125.649 -1.89423 6.03574 0
M  V30 1422 C 124.313 -1.80038 6.42762 0
M  V30 1423 H 123.583 -0.541325 0.506012 0
M  V30 1424 H 126.23 -0.824502 1.72842 0
M  V30 1425 H 124.535 -3.42572 1.90137 0
M  V30 1426 H 126.232 -3.30348 2.27313 0
M  V30 1427 H 122.822 -2.51503 3.47051 0
M  V30 1428 H 127.006 -2.26139 4.41786 0
M  V30 1429 H 122.262 -1.94705 5.79569 0
M  V30 1430 H 126.436 -1.70336 6.75247 0
M  V30 1431 H 124.063 -1.54083 7.44421 0
M  V30 1432 N 125.638 -1.25649 -0.95132 0
M  V30 1433 C 127.049 -1.09654 -1.51106 0
M  V30 1434 C 127.4 0.326615 -1.93462 0
M  V30 1435 O 126.525 1.21697 -1.78938 0
M  V30 1436 C 127.12 -1.98437 -2.74605 0
M  V30 1437 C 125.679 -1.86618 -3.2688 0
M  V30 1438 C 124.826 -1.9239 -1.99703 0
M  V30 1439 H 127.777 -1.38887 -0.767865 0
M  V30 1440 H 127.798 -1.5263 -3.48546 0
M  V30 1441 H 127.31 -3.02009 -2.43746 0
M  V30 1442 H 125.411 -0.859421 -3.62553 0
M  V30 1443 H 125.524 -2.71607 -3.94673 0
M  V30 1444 H 123.888 -1.36317 -2.15151 0
M  V30 1445 H 124.671 -2.97573 -1.71188 0
M  V30 1446 N 127.117 1.15442 -1.07289 0
M  V30 1447 C 128.027 2.23786 -0.704057 0
M  V30 1448 C 129.043 1.7166 0.284413 0
M  V30 1449 O 130.219 2.00972 0.131205 0
M  V30 1450 C 127.284 3.46535 -0.106792 0
M  V30 1451 C 126.345 4.13654 -1.14842 0
M  V30 1452 C 125.578 5.30544 -0.57956 0
M  V30 1453 O 125.801 5.67187 0.604585 0
M  V30 1454 O 124.735 5.87154 -1.32414 0
M  V30 1455 H 128.561 2.57664 -1.60757 0
M  V30 1456 H 126.146 1.23152 -0.845803 0
M  V30 1457 H 128.028 4.20804 0.224048 0
M  V30 1458 H 126.703 3.14407 0.770049 0
M  V30 1459 H 125.61 3.4131 -1.5316 0
M  V30 1460 H 126.943 4.49861 -1.99714 0
M  V30 1461 N 128.595 0.856903 1.32268 0
M  V30 1462 C 129.872 0.382583 1.91822 0
M  V30 1463 C 130.252 -1.13407 1.78051 0
M  V30 1464 O 129.6 -1.95673 1.18001 0
M  V30 1465 C 129.81 0.849446 3.38505 0
M  V30 1466 C 131.158 0.867936 4.15634 0
M  V30 1467 O 132.182 0.794232 3.47232 0
M  V30 1468 O 131.041 0.972286 5.37781 0
M  V30 1469 H 128.135 0.112014 0.819379 0
M  V30 1470 H 130.681 0.943952 1.41024 0
M  V30 1471 H 129.453 1.89267 3.42482 0
M  V30 1472 H 129.076 0.265652 3.96712 0
M  V30 1473 N 130.073 -1.45103 0.615059 0
M  V30 1474 C 131.319 -2.02483 0.113347 0
M  V30 1475 C 131.652 -1.48146 -1.25564 0
M  V30 1476 O 130.927 -0.659104 -1.82992 0
M  V30 1477 C 131.21 -3.60005 0.0825278 0
M  V30 1478 C 131.063 -4.2466 1.48271 0
M  V30 1479 C 132.382 -4.35972 -0.601401 0
M  V30 1480 H 129.501 -0.735764 0.0426632 0
M  V30 1481 H 132.143 -1.72868 0.788461 0
M  V30 1482 H 130.293 -3.85367 -0.492378 0
M  V30 1483 H 131.965 -4.10458 2.10527 0
M  V30 1484 H 130.208 -3.82772 2.04127 0
M  V30 1485 H 130.879 -5.336 1.41332 0
M  V30 1486 H 133.355 -4.15947 -0.112666 0
M  V30 1487 H 132.231 -5.45697 -0.592097 0
M  V30 1488 H 132.492 -4.09391 -1.66887 0
M  V30 1489 N 131.551 -0.354651 -1.53558 0
M  V30 1490 C 132.776 0.242153 -2.05981 0
M  V30 1491 C 133.201 1.42553 -1.2272 0
M  V30 1492 O 132.559 1.79656 -0.243604 0
M  V30 1493 C 132.607 0.624367 -3.55154 0
M  V30 1494 O 131.711 1.72301 -3.74681 0
M  V30 1495 H 131.052 0.0378432 -0.662921 0
M  V30 1496 H 133.582 -0.512087 -1.98088 0
M  V30 1497 H 133.592 0.898433 -3.97985 0
M  V30 1498 H 132.267 -0.240989 -4.15201 0
M  V30 1499 H 130.844 1.44535 -3.4375 0
M  V30 1500 N 133.029 1.57378 -0.0835403 0
M  V30 1501 C 133.939 2.16897 0.894021 0
M  V30 1502 C 134.955 1.13528 1.31861 0
M  V30 1503 O 136.131 1.45848 1.3889 0
M  V30 1504 C 133.196 2.72831 2.13925 0
M  V30 1505 C 132.257 3.91115 1.76997 0
M  V30 1506 C 131.49 4.44371 2.95584 0
M  V30 1507 O 131.713 3.96596 4.09961 0
M  V30 1508 O 130.647 5.35549 2.74719 0
M  V30 1509 H 134.473 3.00814 0.417679 0
M  V30 1510 H 132.058 1.48741 0.140181 0
M  V30 1511 H 133.94 3.0863 2.86924 0
M  V30 1512 H 132.615 1.91967 2.60635 0
M  V30 1513 H 131.522 3.60148 1.01214 0
M  V30 1514 H 132.855 4.73307 1.3506 0
M  V30 1515 N 134.507 -0.190092 1.56449 0
M  V30 1516 C 135.417 -1.25591 1.98152 0
M  V30 1517 C 136.433 -1.49519 0.889944 0
M  V30 1518 O 137.609 -1.62036 1.19609 0
M  V30 1519 C 134.674 -2.57916 2.3169 0
M  V30 1520 C 133.735 -2.42015 3.5458 0
M  V30 1521 C 132.968 -3.6803 3.8651 0
M  V30 1522 O 133.191 -4.72413 3.1966 0
M  V30 1523 O 132.125 -3.6326 4.79923 0
M  V30 1524 H 135.951 -0.931988 2.89046 0
M  V30 1525 H 133.536 -0.395488 1.4407 0
M  V30 1526 H 135.418 -3.36008 2.54316 0
M  V30 1527 H 134.093 -2.89925 1.43963 0
M  V30 1528 H 133 -1.62017 3.37196 0
M  V30 1529 H 134.333 -2.14937 4.4279 0
M  V30 1530 N 135.985 -1.50799 -0.457987 0
M  V30 1531 C 136.915 -1.73553 -1.5621 0
M  V30 1532 C 137.896 -0.584774 -1.59732 0
M  V30 1533 O 139.081 -0.825314 -1.7579 0
M  V30 1534 C 136.211 -1.84169 -2.94447 0
M  V30 1535 C 135.165 -2.99461 -3.0579 0
M  V30 1536 C 134.491 -2.95235 -4.45803 0
M  V30 1537 C 135.791 -4.39766 -2.81786 0
M  V30 1538 H 137.485 -2.66 -1.37421 0
M  V30 1539 H 135.031 -1.28002 -0.659662 0
M  V30 1540 H 136.984 -1.98672 -3.71628 0
M  V30 1541 H 135.708 -0.883545 -3.14422 0
M  V30 1542 H 134.367 -2.8463 -2.31044 0
M  V30 1543 H 134.015 -1.97239 -4.62715 0
M  V30 1544 H 133.715 -3.72642 -4.54326 0
M  V30 1545 H 135.239 -3.11803 -5.24987 0
M  V30 1546 H 136.653 -4.55054 -3.4871 0
M  V30 1547 H 135.05 -5.18722 -3.0174 0
M  V30 1548 H 136.12 -4.51229 -1.7754 0
M  V30 1549 N 137.463 0.71206 -1.40597 0
M  V30 1550 C 138.712 1.46754 -1.38369 0
M  V30 1551 C 139.025 1.95598 0.0097839 0
M  V30 1552 O 140.231 2.71059 0.154677 0
M  V30 1553 C 138.687 2.65289 -2.43207 0
M  V30 1554 C 138.295 2.23301 -3.88382 0
M  V30 1555 C 140.039 3.43008 -2.50091 0
M  V30 1556 C 137.946 3.38696 -4.84808 0
M  V30 1557 H 136.876 0.55118 -0.514506 0
M  V30 1558 H 139.527 0.774616 -1.66349 0
M  V30 1559 H 137.909 3.36769 -2.08332 0
M  V30 1560 H 139.083 1.59218 -4.32419 0
M  V30 1561 H 137.398 1.58618 -3.85006 0
M  V30 1562 H 139.995 4.28881 -3.1932 0
M  V30 1563 H 140.338 3.87065 -1.53253 0
M  V30 1564 H 140.871 2.78574 -2.83974 0
M  V30 1565 H 137.61 2.99668 -5.82992 0
M  V30 1566 H 137.13 4.01683 -4.45433 0
M  V30 1567 H 138.809 4.04712 -5.04794 0
M  V30 1568 N 138.941 1.26152 0.944643 0
M  V30 1569 C 139.873 1.03199 2.04652 0
M  V30 1570 C 140.886 -0.00642356 1.62799 0
M  V30 1571 O 142.075 0.233263 1.76969 0
M  V30 1572 C 139.175 0.540111 3.34568 0
M  V30 1573 C 138.348 1.64697 4.05208 0
M  V30 1574 C 137.407 1.15374 5.13396 0
M  V30 1575 O 136.433 1.85013 5.38293 0
M  V30 1576 N 137.635 0.00031529 5.805 0
M  V30 1577 H 140.4 1.9808 2.2491 0
M  V30 1578 H 137.961 1.17491 1.11389 0
M  V30 1579 H 139.953 0.194401 4.04233 0
M  V30 1580 H 138.523 -0.315021 3.11009 0
M  V30 1581 H 137.743 2.16379 3.29506 0
M  V30 1582 H 139.031 2.3903 4.49157 0
M  V30 1583 H 138.429 -0.581336 5.62705 0
M  V30 1584 H 136.986 -0.286346 6.51171 0
M  V30 1585 N 140.419 -1.14872 1.07899 0
M  V30 1586 C 141.329 -2.2341 0.715915 0
M  V30 1587 C 142.345 -1.71808 -0.275306 0
M  V30 1588 O 143.521 -2.01039 -0.120545 0
M  V30 1589 C 140.586 -3.46474 0.125168 0
M  V30 1590 C 139.647 -4.13039 1.17034 0
M  V30 1591 C 138.88 -5.30229 0.607688 0
M  V30 1592 O 139.103 -5.675 -0.574497 0
M  V30 1593 O 138.037 -5.86444 1.35526 0
M  V30 1594 H 141.863 -2.56808 1.62121 0
M  V30 1595 H 139.448 -1.22702 0.852322 0
M  V30 1596 H 141.33 -4.20917 -0.201729 0
M  V30 1597 H 140.005 -3.14811 -0.753364 0
M  V30 1598 H 138.912 -3.40493 1.54968 0
M  V30 1599 H 140.245 -4.48796 2.02097 0
M  V30 1600 N 141.898 -0.863906 -1.31812 0
M  V30 1601 C 143.147 -0.46801 -1.96195 0
M  V30 1602 C 143.46 0.983474 -1.69077 0
M  V30 1603 O 144.666 1.48523 -2.27273 0
M  V30 1604 C 143.122 -0.785995 -3.51212 0
M  V30 1605 C 142.73 -2.25383 -3.87178 0
M  V30 1606 C 144.474 -0.458274 -4.22019 0
M  V30 1607 C 142.381 -2.51455 -5.3528 0
M  V30 1608 H 141.311 -0.171283 -0.734287 0
M  V30 1609 H 143.962 -1.05597 -1.50072 0
M  V30 1610 H 142.344 -0.127359 -3.95795 0
M  V30 1611 H 143.518 -2.95502 -3.53575 0
M  V30 1612 H 141.833 -2.54698 -3.2942 0
M  V30 1613 H 144.43 -0.630369 -5.30971 0
M  V30 1614 H 144.773 0.600834 -4.11941 0
M  V30 1615 H 145.306 -1.07319 -3.8305 0
M  V30 1616 H 142.045 -3.56025 -5.50387 0
M  V30 1617 H 141.565 -1.85923 -5.70257 0
M  V30 1618 H 143.244 -2.35874 -6.02472 0
M  V30 1619 N 143.376 1.44774 -0.622745 0
M  V30 1620 C 144.604 2.06487 -0.130722 0
M  V30 1621 C 145.019 1.46476 1.19123 0
M  V30 1622 O 144.376 0.584502 1.72887 0
M  V30 1623 C 144.427 3.615 -0.000807207 0
M  V30 1624 O 144.148 4.19274 -1.27048 0
M  V30 1625 C 145.649 4.40229 0.520898 0
M  V30 1626 H 142.869 0.666704 -0.0758106 0
M  V30 1627 H 145.413 1.85779 -0.854774 0
M  V30 1628 H 143.568 3.81498 0.673643 0
M  V30 1629 H 143.982 5.12622 -1.1099 0
M  V30 1630 H 145.456 5.49144 0.560838 0
M  V30 1631 H 145.933 4.1108 1.54627 0
M  V30 1632 H 146.539 4.25131 -0.120018 0
M  V30 1633 N 144.854 0.36279 1.53368 0
M  V30 1634 C 145.786 -0.519668 2.23231 0
M  V30 1635 C 146.799 -1.04844 1.24546 0
M  V30 1636 O 147.988 -0.955296 1.50786 0
M  V30 1637 C 145.088 -1.72995 2.9142 0
M  V30 1638 C 144.261 -1.33316 4.16588 0
M  V30 1639 C 143.32 -2.40521 4.68013 0
M  V30 1640 O 142.346 -2.03027 5.3176 0
M  V30 1641 N 143.548 -3.72065 4.45587 0
M  V30 1642 H 146.313 0.078751 2.99597 0
M  V30 1643 H 143.874 0.187833 1.60807 0
M  V30 1644 H 145.866 -2.44184 3.22733 0
M  V30 1645 H 144.436 -2.2353 2.18525 0
M  V30 1646 H 143.656 -0.451236 3.91609 0
M  V30 1647 H 144.944 -1.04432 4.97967 0
M  V30 1648 H 144.342 -4.05304 3.94646 0
M  V30 1649 H 142.899 -4.39366 4.81457 0
M  V30 1650 N 146.332 -1.57332 0.0918853 0
M  V30 1651 C 147.748 -1.57389 -0.264766 0
M  V30 1652 C 147.948 -1.10281 -1.68643 0
M  V30 1653 O 147.004 -0.777801 -2.40222 0
M  V30 1654 C 148.317 -3.00648 -0.0561195 0
M  V30 1655 C 149.865 -3.12754 -0.124116 0
M  V30 1656 C 150.34 -4.57965 0.0564972 0
M  V30 1657 N 151.831 -4.632 0.00155611 0
M  V30 1658 C 152.566 -5.73281 0.116598 0
M  V30 1659 N 152.062 -6.92208 0.286294 0
M  V30 1660 N 153.855 -5.6207 0.0580973 0
M  V30 1661 H 146.006 -1.86262 1.02079 0
M  V30 1662 H 148.269 -0.859579 0.399786 0
M  V30 1663 H 147.975 -3.393 0.925669 0
M  V30 1664 H 147.849 -3.68623 -0.799823 0
M  V30 1665 H 150.236 -2.73976 -1.09641 0
M  V30 1666 H 150.317 -2.47377 0.651024 0
M  V30 1667 H 149.961 -4.97436 1.02564 0
M  V30 1668 H 149.891 -5.21399 -0.738297 0
M  V30 1669 H 152.382 -3.77686 -0.127192 0
M  V30 1670 H 152.695 -7.71934 0.365676 0
M  V30 1671 H 151.04 -6.94254 0.32192 0
M  V30 1672 H 154.231 -4.68043 -0.0733204 0
M  V30 1673 H 154.404 -6.47824 0.151203 0
M  V30 1674 N 147.81 0.181792 -1.56548 0
M  V30 1675 C 148.74 1.22765 -1.98623 0
M  V30 1676 C 149.721 1.46747 -0.860189 0
M  V30 1677 O 150.906 1.58259 -1.12551 0
M  V30 1678 C 148.036 2.56894 -2.33715 0
M  V30 1679 C 146.99 2.475 -3.49182 0
M  V30 1680 C 146.316 3.86023 -3.69986 0
M  V30 1681 C 147.616 1.98866 -4.82959 0
M  V30 1682 H 149.31 0.877942 -2.86239 0
M  V30 1683 H 146.856 0.42088 -1.37712 0
M  V30 1684 H 148.809 3.30253 -2.61746 0
M  V30 1685 H 147.533 2.93632 -1.42997 0
M  V30 1686 H 146.192 1.76596 -3.21262 0
M  V30 1687 H 145.84 4.20136 -2.76576 0
M  V30 1688 H 145.54 3.80609 -4.47672 0
M  V30 1689 H 147.064 4.60984 -4.00407 0
M  V30 1690 H 148.478 2.61992 -5.09934 0
M  V30 1691 H 146.875 2.04424 -5.64208 0
M  V30 1692 H 147.945 0.942465 -4.75653 0
M  V30 1693 N 149.288 1.51039 0.449983 0
M  V30 1694 C 150.535 1.63081 1.20045 0
M  V30 1695 C 150.863 0.341024 1.91487 0
M  V30 1696 O 150.118 -0.674276 1.83717 0
M  V30 1697 C 150.417 2.77556 2.25161 0
M  V30 1698 C 150.083 4.17289 1.70823 0
M  V30 1699 C 148.745 4.55305 1.55725 0
M  V30 1700 C 151.097 5.04536 1.3074 0
M  V30 1701 C 148.425 5.78287 0.989999 0
M  V30 1702 C 150.777 6.28085 0.754482 0
M  V30 1703 C 149.441 6.64885 0.590308 0
M  V30 1704 H 148.711 0.596755 0.439277 0
M  V30 1705 H 151.358 1.85037 0.49333 0
M  V30 1706 H 149.663 2.49771 3.01863 0
M  V30 1707 H 151.36 2.84073 2.83026 0
M  V30 1708 H 147.95 3.8731 1.83546 0
M  V30 1709 H 152.134 4.75782 1.41229 0
M  V30 1710 H 147.39 6.05456 0.850451 0
M  V30 1711 H 151.564 6.95038 0.435324 0
M  V30 1712 H 149.191 7.60055 0.14862 0
M  V30 1713 N 150.766 -0.704594 1.40972 0
M  V30 1714 C 152.013 -1.46458 1.39844 0
M  V30 1715 C 152.341 -1.94499 0.00447594 0
M  V30 1716 O 151.596 -1.69275 -0.982057 0
M  V30 1717 C 151.895 -2.698 2.34399 0
M  V30 1718 C 151.561 -2.40464 3.81429 0
M  V30 1719 C 150.223 -2.32174 4.21484 0
M  V30 1720 C 152.575 -2.16086 4.74296 0
M  V30 1721 C 149.903 -1.97589 5.52427 0
M  V30 1722 C 152.255 -1.83011 6.05549 0
M  V30 1723 C 150.919 -1.7321 6.44635 0
M  V30 1724 H 150.189 -0.535927 0.511725 0
M  V30 1725 H 152.836 -0.806124 1.73706 0
M  V30 1726 H 151.141 -3.40536 1.93759 0
M  V30 1727 H 152.838 -3.27919 2.30804 0
M  V30 1728 H 149.428 -2.47808 3.49699 0
M  V30 1729 H 153.612 -2.2144 4.4416 0
M  V30 1730 H 148.868 -1.88547 5.81601 0
M  V30 1731 H 153.042 -1.63164 6.77016 0
M  V30 1732 H 150.669 -1.46179 7.46013 0
M  V30 1733 N 152.244 -1.26651 -0.937939 0
M  V30 1734 C 153.174 -1.10993 -2.05433 0
M  V30 1735 C 154.155 -0.0142161 -1.70094 0
M  V30 1736 O 155.34 -0.186837 -1.93299 0
M  V30 1737 C 152.47 -0.745561 -3.39203 0
M  V30 1738 C 151.424 -1.79337 -3.88616 0
M  V30 1739 C 150.75 -1.28324 -5.19073 0
M  V30 1740 C 152.05 -3.19553 -4.13138 0
M  V30 1741 H 153.744 -2.0438 -2.1879 0
M  V30 1742 H 151.29 -0.984041 -1.05131 0
M  V30 1743 H 153.243 -0.622888 -4.16771 0
M  V30 1744 H 151.967 0.22401 -3.25831 0
M  V30 1745 H 150.626 -1.90477 -3.13231 0
M  V30 1746 H 150.274 -0.303414 -5.02084 0
M  V30 1747 H 149.974 -1.98369 -5.53103 0
M  V30 1748 H 151.498 -1.1733 -5.99221 0
M  V30 1749 H 152.912 -3.11471 -4.81309 0
M  V30 1750 H 151.309 -3.87218 -4.58457 0
M  V30 1751 H 152.379 -3.65368 -3.18801 0
M  V30 1752 N 153.722 1.14298 -1.08507 0
M  V30 1753 C 154.654 2.1907 -0.673859 0
M  V30 1754 C 155.667 1.60381 0.279577 0
M  V30 1755 O 156.856 1.78374 0.0670754 0
M  V30 1756 C 153.956 3.38888 0.0290979 0
M  V30 1757 C 153.129 4.27103 -0.943494 0
M  V30 1758 C 152.188 5.25477 -0.275676 0
M  V30 1759 O 151.214 5.61709 -0.920401 0
M  V30 1760 N 152.416 5.7227 0.974013 0
M  V30 1761 H 155.181 2.54965 -1.57521 0
M  V30 1762 H 152.742 1.29528 -0.971287 0
M  V30 1763 H 154.734 4.01761 0.48683 0
M  V30 1764 H 153.304 3.01309 0.832555 0
M  V30 1765 H 152.524 3.61149 -1.58004 0
M  V30 1766 H 153.812 4.82905 -1.60251 0
M  V30 1767 H 153.21 5.44965 1.51755 0
M  V30 1768 H 151.767 6.37127 1.37522 0
M  V30 1769 N 155.201 0.870884 1.31352 0
M  V30 1770 C 156.447 0.482987 1.96965 0
M  V30 1771 C 156.78 -0.962462 1.68672 0
M  V30 1772 O 156.055 -1.6779 0.98371 0
M  V30 1773 C 156.338 0.741752 3.52378 0
M  V30 1774 C 156.191 2.2368 3.9024 0
M  V30 1775 C 157.51 0.208838 4.39604 0
M  V30 1776 H 154.629 0.176955 0.715441 0
M  V30 1777 H 157.271 1.09229 1.55464 0
M  V30 1778 H 155.421 0.223149 3.87859 0
M  V30 1779 H 157.093 2.82273 3.64856 0
M  V30 1780 H 155.336 2.70901 3.38814 0
M  V30 1781 H 156.007 2.3685 4.98604 0
M  V30 1782 H 158.483 0.652529 4.10952 0
M  V30 1783 H 157.359 0.419336 5.47296 0
M  V30 1784 H 157.62 -0.889275 4.33064 0
M  V30 1785 N 156.679 -1.44442 0.630414 0
M  V30 1786 C 157.626 -2.30678 -0.0749355 0
M  V30 1787 C 158.596 -1.4344 -0.837502 0
M  V30 1788 O 159.781 -1.72343 -0.818684 0
M  V30 1789 C 156.921 -3.28706 -1.05103 0
M  V30 1790 C 156.034 -4.31046 -0.286954 0
M  V30 1791 C 155.169 -5.16167 -1.2548 0
M  V30 1792 C 154.208 -6.10216 -0.479843 0
M  V30 1793 N 153.345 -6.88039 -1.39811 0
M  V30 1794 H 158.185 -2.90454 0.666386 0
M  V30 1795 H 155.722 -1.43107 0.340404 0
M  V30 1796 H 157.68 -3.84027 -1.63031 0
M  V30 1797 H 156.31 -2.70632 -1.75949 0
M  V30 1798 H 155.362 -3.78203 0.408243 0
M  V30 1799 H 156.674 -4.97794 0.316657 0
M  V30 1800 H 155.828 -5.76002 -1.90544 0
M  V30 1801 H 154.567 -4.49491 -1.89233 0
M  V30 1802 H 153.572 -5.49491 0.184295 0
M  V30 1803 H 154.797 -6.78928 0.152965 0
M  V30 1804 H 152.743 -6.24032 -2.02287 0
M  V30 1805 H 152.66 -7.51223 -0.848508 0
M  V30 1806 H 153.928 -7.52397 -2.03762 0
M  V30 1807 N 158.157 -0.370918 -1.53173 0
M  V30 1808 C 159.067 0.480823 -2.2962 0
M  V30 1809 C 160.083 1.08789 -1.35798 0
M  V30 1810 O 161.259 1.09768 -1.68858 0
M  V30 1811 C 158.324 1.60227 -3.07454 0
M  V30 1812 C 157.385 1.0222 -4.16953 0
M  V30 1813 C 156.618 2.0902 -4.91066 0
M  V30 1814 O 156.841 3.30222 -4.65091 0
M  V30 1815 O 155.775 1.71778 -5.76867 0
M  V30 1816 H 159.601 -0.141421 -3.03371 0
M  V30 1817 H 157.186 -0.135146 -1.48787 0
M  V30 1818 H 159.068 2.25417 -3.56041 0
M  V30 1819 H 157.743 2.20982 -2.36535 0
M  V30 1820 H 156.65 0.334064 -3.72605 0
M  V30 1821 H 157.983 0.459131 -4.90054 0
M  V30 1822 N 159.635 1.57281 -0.100228 0
M  V30 1823 C 160.598 2.13158 0.842398 0
M  V30 1824 C 161.598 1.06202 1.20738 0
M  V30 1825 O 162.788 1.32066 1.13597 0
M  V30 1826 C 159.92 2.65639 2.13655 0
M  V30 1827 H 161.113 2.97766 0.357114 0
M  V30 1828 H 158.666 1.5559 0.148823 0
M  V30 1829 H 159.401 1.84566 2.66657 0
M  V30 1830 H 159.186 3.43844 1.88451 0
M  V30 1831 H 160.676 3.08846 2.81077 0
M  V30 1832 N 161.113 -0.173488 1.56642 0
M  V30 1833 C 162.362 -0.888758 1.81063 0
M  V30 1834 C 162.675 -1.83506 0.67712 0
M  V30 1835 O 163.881 -2.59254 0.806206 0
M  V30 1836 C 162.337 -1.63091 3.20826 0
M  V30 1837 C 161.945 -0.728357 4.4204 0
M  V30 1838 C 163.689 -2.33454 3.54541 0
M  V30 1839 C 161.596 -1.47062 5.72823 0
M  V30 1840 H 160.526 -0.335618 0.675186 0
M  V30 1841 H 163.177 -0.141712 1.82952 0
M  V30 1842 H 161.559 -2.42263 3.13248 0
M  V30 1843 H 162.733 0.0262449 4.60793 0
M  V30 1844 H 161.048 -0.134492 4.16183 0
M  V30 1845 H 163.645 -2.89578 4.49498 0
M  V30 1846 H 163.988 -3.08687 2.79317 0
M  V30 1847 H 164.521 -1.61227 3.63663 0
M  V30 1848 H 161.26 -0.760658 6.51072 0
M  V30 1849 H 160.78 -2.1986 5.58052 0
M  V30 1850 H 162.459 -2.01868 6.14702 0
M  V30 1851 N 162.591 -1.51276 -0.441967 0
M  V30 1852 C 163.521 -1.752 -1.54361 0
M  V30 1853 C 164.502 -0.601682 -1.59103 0
M  V30 1854 O 165.687 -0.843913 -1.74905 0
M  V30 1855 C 162.817 -1.87282 -2.92477 0
M  V30 1856 C 161.771 -3.02687 -3.02596 0
M  V30 1857 C 161.097 -2.99947 -4.42647 0
M  V30 1858 C 162.397 -4.4273 -2.77106 0
M  V30 1859 H 164.091 -2.67442 -1.34592 0
M  V30 1860 H 161.637 -1.28694 -0.646048 0
M  V30 1861 H 163.59 -2.02602 -3.695 0
M  V30 1862 H 162.314 -0.916844 -3.13467 0
M  V30 1863 H 160.973 -2.87065 -2.28012 0
M  V30 1864 H 160.621 -2.02136 -4.60597 0
M  V30 1865 H 160.321 -3.77439 -4.50348 0
M  V30 1866 H 161.845 -3.17354 -5.2165 0
M  V30 1867 H 163.259 -4.58727 -3.43864 0
M  V30 1868 H 161.656 -5.21893 -2.96222 0
M  V30 1869 H 162.726 -4.53087 -1.72744 0
M  V30 1870 N 164.069 0.697108 -1.41344 0
M  V30 1871 C 165.017 1.83237 -1.43272 0
M  V30 1872 C 166.011 1.66522 -0.310947 0
M  V30 1873 O 167.217 1.73402 -0.482899 0
M  V30 1874 H 163.592 0.603802 -0.448249 0
M  V30 1875 H 165.563 1.78727 -2.38954 0
M  V30 1876 C 164.312 3.21245 -1.33029 0
M  V30 1877 H 163.635 3.34723 -2.18633 0
M  V30 1878 H 165.075 4.00763 -1.38439 0
M  V30 1879 C 163.534 3.36873 -0.0424635 0
M  V30 1880 O 164.064 3.91177 0.913421 0
M  V30 1881 N 162.27 2.90581 0.0331145 0
M  V30 1882 H 161.817 2.46577 -0.745506 0
M  V30 1883 H 161.775 3.01416 0.894199 0
M  V30 1884 N 165.547 1.27147 0.931209 0
M  V30 1885 C 166.824 1.0401 1.65654 0
M  V30 1886 C 167.204 -0.426297 2.06751 0
M  V30 1887 O 166.552 -1.40879 1.79904 0
M  V30 1888 C 166.762 1.99834 2.86125 0
M  V30 1889 C 168.11 2.29007 3.57549 0
M  V30 1890 O 169.134 1.97779 2.96246 0
M  V30 1891 O 167.993 2.82222 4.67989 0
M  V30 1892 H 165.087 0.396239 0.725895 0
M  V30 1893 H 167.633 1.38397 0.982056 0
M  V30 1894 H 166.405 2.98744 2.52721 0
M  V30 1895 H 166.028 1.65987 3.61295 0
M  V30 1896 N 167.025 -1.13721 1.09112 0
M  V30 1897 C 167.935 -2.22638 0.73957 0
M  V30 1898 C 168.951 -1.72091 -0.257068 0
M  V30 1899 O 170.127 -2.01155 -0.0992154 0
M  V30 1900 C 167.192 -3.46322 0.16191 0
M  V30 1901 C 166.253 -4.11775 1.21408 0
M  V30 1902 C 165.486 -5.29555 0.663891 0
M  V30 1903 O 165.709 -5.68077 -0.514274 0
M  V30 1904 O 164.643 -5.84973 1.41738 0
M  V30 1905 H 168.469 -2.55074 1.64836 0
M  V30 1906 H 166.054 -1.21791 0.865289 0
M  V30 1907 H 167.936 -4.21107 -0.157073 0
M  V30 1908 H 166.611 -3.15593 -0.719932 0
M  V30 1909 H 165.518 -3.3883 1.58571 0
M  V30 1910 H 166.851 -4.46627 2.06845 0
M  V30 1911 N 168.503 -0.877838 -1.30888 0
M  V30 1912 C 169.752 -0.488793 -1.95688 0
M  V30 1913 C 170.065 0.965485 -1.70111 0
M  V30 1914 O 171.271 1.46104 -2.28836 0
M  V30 1915 C 169.727 -0.823201 -3.50359 0
M  V30 1916 C 169.335 -2.29477 -3.84765 0
M  V30 1917 C 171.079 -0.503009 -4.21509 0
M  V30 1918 C 168.986 -2.57118 -5.32583 0
M  V30 1919 H 167.916 -0.179062 -0.732429 0
M  V30 1920 H 170.567 -1.07183 -1.48943 0
M  V30 1921 H 168.949 -0.169331 -3.95638 0
M  V30 1922 H 170.123 -2.99236 -3.5042 0
M  V30 1923 H 168.438 -2.58178 -3.267 0
M  V30 1924 H 171.035 -0.68665 -5.30273 0
M  V30 1925 H 171.378 0.557109 -4.12555 0
M  V30 1926 H 171.911 -1.11376 -3.8189 0
M  V30 1927 H 168.65 -3.61843 -5.4658 0
M  V30 1928 H 168.17 -1.91961 -5.68253 0
M  V30 1929 H 169.849 -2.42251 -5.99936 0
M  V30 1930 N 169.982 1.44106 -0.638065 0
M  V30 1931 C 171.212 2.06037 -0.152394 0
M  V30 1932 C 171.62 1.47808 1.18108 0
M  V30 1933 O 170.963 0.598092 1.73691 0
M  V30 1934 C 171.025 3.59488 0.0293714 0
M  V30 1935 C 170.689 4.4022 -1.22702 0
M  V30 1936 C 171.686 4.73256 -2.15232 0
M  V30 1937 C 169.371 4.8048 -1.46437 0
M  V30 1938 C 171.365 5.45444 -3.29802 0
M  V30 1939 C 169.052 5.52417 -2.61303 0
M  V30 1940 C 170.05 5.84819 -3.52811 0
M  V30 1941 O 169.738 6.55289 -4.65673 0
M  V30 1942 H 169.47 0.671233 -0.0801401 0
M  V30 1943 H 172.024 1.85851 -0.874563 0
M  V30 1944 H 170.254 3.78191 0.806758 0
M  V30 1945 H 171.943 4.03164 0.470475 0
M  V30 1946 H 172.709 4.42684 -1.98131 0
M  V30 1947 H 168.588 4.54676 -0.760977 0
M  V30 1948 H 172.132 5.70653 -4.01249 0
M  V30 1949 H 168.029 5.82404 -2.78344 0
M  V30 1950 H 168.797 6.73762 -4.64744 0
M  V30 1951 N 171.46 0.379036 1.52974 0
M  V30 1952 C 172.7 -0.206325 2.03356 0
M  V30 1953 C 173.064 -1.44892 1.25977 0
M  V30 1954 O 174.265 -2.11078 1.66432 0
M  V30 1955 C 172.536 -0.477887 3.54191 0
M  V30 1956 S 174.095 -1.035 4.26419 0
M  V30 1957 H 170.913 -0.0590259 0.708546 0
M  V30 1958 H 173.515 0.525013 1.88319 0
M  V30 1959 H 172.219 0.433745 4.08101 0
M  V30 1960 H 171.75 -1.23793 3.73415 0
M  V30 1961 H 173.765 -2.31821 4.38718 0
M  V30 1962 N 172.938 -1.57226 0.108567 0
M  V30 1963 C 174.349 -1.8195 -0.418464 0
M  V30 1964 C 174.7 -1.02508 -1.67292 0
M  V30 1965 O 173.825 -0.258496 -2.14851 0
M  V30 1966 C 174.42 -3.30028 -0.765979 0
M  V30 1967 C 172.979 -3.55469 -1.23769 0
M  V30 1968 C 172.126 -2.7625 -0.241106 0
M  V30 1969 H 175.077 -1.55149 0.33384 0
M  V30 1970 H 175.098 -3.44086 -1.62434 0
M  V30 1971 H 174.61 -3.87821 0.147219 0
M  V30 1972 H 172.711 -3.03022 -2.16814 0
M  V30 1973 H 172.824 -4.6408 -1.19022 0
M  V30 1974 H 171.188 -2.44133 -0.72602 0
M  V30 1975 H 171.971 -3.36797 0.665007 0
M  V30 1976 N 174.416 0.165178 -1.56732 0
M  V30 1977 C 175.827 0.727046 -1.71962 0
M  V30 1978 C 176.178 1.82508 -0.720078 0
M  V30 1979 O 175.303 2.16082 0.117242 0
M  V30 1980 C 175.898 1.32559 -3.11791 0
M  V30 1981 C 174.457 1.83422 -3.28684 0
M  V30 1982 C 173.604 0.715567 -2.67908 0
M  V30 1983 H 176.555 -0.0602896 -1.58585 0
M  V30 1984 H 176.576 2.19533 -3.10782 0
M  V30 1985 H 176.088 0.526195 -3.84516 0
M  V30 1986 H 174.189 2.65986 -2.60926 0
M  V30 1987 H 174.302 1.97543 -4.36478 0
M  V30 1988 H 172.666 1.13758 -2.27884 0
M  V30 1989 H 173.449 -0.0720836 -3.43224 0
M  V30 1990 N 175.894 1.51508 0.433938 0
M  V30 1991 C 176.804 1.75917 1.5521 0
M  V30 1992 C 177.82 0.643545 1.61662 0
M  V30 1993 O 178.996 0.926183 1.7884 0
M  V30 1994 C 176.061 1.88213 2.91164 0
M  V30 1995 C 175.122 3.12074 2.94802 0
M  V30 1996 C 174.355 3.23774 4.24271 0
M  V30 1997 O 174.578 2.4133 5.16833 0
M  V30 1998 O 173.512 4.16774 4.34262 0
M  V30 1999 H 177.338 2.70777 1.37527 0
M  V30 2000 H 174.923 1.36051 0.617293 0
M  V30 2001 H 176.805 1.98267 3.71845 0
M  V30 2002 H 175.48 0.965413 3.08968 0
M  V30 2003 H 174.387 3.07497 2.13065 0
M  V30 2004 H 175.72 4.03446 2.81943 0
M  V30 2005 N 177.372 -0.689602 1.41712 0
M  V30 2006 C 178.6 -1.47827 1.44758 0
M  V30 2007 C 179.015 -1.88721 0.0545703 0
M  V30 2008 O 178.372 -1.57176 -0.927463 0
M  V30 2009 C 178.423 -2.73698 2.3616 0
M  V30 2010 O 178.144 -2.34524 3.7004 0
M  V30 2011 C 179.645 -3.67389 2.48072 0
M  V30 2012 H 176.865 -0.455357 0.49284 0
M  V30 2013 H 179.409 -0.848574 1.86063 0
M  V30 2014 H 177.564 -3.32891 1.98148 0
M  V30 2015 H 177.978 -3.15701 4.18847 0
M  V30 2016 H 179.452 -4.52475 3.16181 0
M  V30 2017 H 179.929 -4.12284 1.51388 0
M  V30 2018 H 180.535 -3.14097 2.86746 0
M  V30 2019 N 178.85 -1.27639 -0.924453 0
M  V30 2020 C 179.813 -1.10681 -2.00705 0
M  V30 2021 C 180.813 -0.0497823 -1.60723 0
M  V30 2022 O 182.003 -0.294654 -1.7169 0
M  V30 2023 C 179.135 -0.687164 -3.33902 0
M  V30 2024 H 180.328 -2.06817 -2.17179 0
M  V30 2025 H 177.881 -1.10473 -1.10569 0
M  V30 2026 H 178.616 0.275439 -3.23128 0
M  V30 2027 H 178.401 -1.45061 -3.6428 0
M  V30 2028 H 179.891 -0.590853 -4.13399 0
M  V30 2029 N 180.328 1.1314 -1.09713 0
M  V30 2030 C 181.574 1.84757 -0.836224 0
M  V30 2031 C 181.907 1.8347 0.636598 0
M  V30 2032 O 181.182 1.27491 1.46889 0
M  V30 2033 C 181.465 3.32782 -1.37578 0
M  V30 2034 C 181.318 3.42567 -2.91493 0
M  V30 2035 C 182.637 4.28307 -1.01198 0
M  V30 2036 H 179.756 0.67082 -0.305236 0
M  V30 2037 H 182.398 1.3278 -1.35903 0
M  V30 2038 H 180.548 3.77177 -0.931097 0
M  V30 2039 H 182.22 3.06862 -3.44432 0
M  V30 2040 H 180.463 2.83349 -3.28475 0
M  V30 2041 H 181.134 4.46674 -3.24324 0
M  V30 2042 H 183.61 3.91999 -1.39556 0
M  V30 2043 H 182.486 5.30307 -1.41653 0
M  V30 2044 H 182.747 4.42029 0.0794833 0
M  V30 2045 N 181.806 0.884767 1.30421 0
M  V30 2046 C 182.736 0.367574 2.30589 0
M  V30 2047 C 183.717 -0.549464 1.60981 0
M  V30 2048 O 184.902 -0.46336 1.88591 0
M  V30 2049 C 182.032 -0.418944 3.44764 0
M  V30 2050 C 180.986 0.406316 4.26067 0
M  V30 2051 C 180.312 -0.506793 5.32293 0
M  V30 2052 C 181.612 1.64832 4.95608 0
M  V30 2053 H 183.306 1.20462 2.74097 0
M  V30 2054 H 180.852 0.580695 1.31772 0
M  V30 2055 H 182.805 -0.791395 4.13902 0
M  V30 2056 H 181.529 -1.28964 3.0006 0
M  V30 2057 H 180.188 0.760903 3.58617 0
M  V30 2058 H 179.836 -1.37519 4.83836 0
M  V30 2059 H 179.536 0.0415828 5.87585 0
M  V30 2060 H 181.06 -0.875764 6.04287 0
M  V30 2061 H 182.474 1.34646 5.57264 0
M  V30 2062 H 180.871 2.13688 5.60765 0
M  V30 2063 H 181.941 2.39284 4.21748 0
M  V30 2064 N 183.284 -1.43765 0.645699 0
M  V30 2065 C 184.214 -2.33471 -0.0370477 0
M  V30 2066 C 185.195 -1.49042 -0.819779 0
M  V30 2067 O 186.38 -1.77726 -0.782758 0
M  V30 2068 C 183.51 -3.32311 -1.0093 0
M  V30 2069 C 182.464 -4.2667 -0.337201 0
M  V30 2070 C 181.79 -5.1549 -1.42037 0
M  V30 2071 C 183.09 -5.16657 0.765706 0
M  V30 2072 H 184.784 -2.90809 0.712069 0
M  V30 2073 H 182.33 -1.39834 0.343876 0
M  V30 2074 H 184.283 -3.9396 -1.49578 0
M  V30 2075 H 183.007 -2.73213 -1.78948 0
M  V30 2076 H 181.666 -3.66374 0.128771 0
M  V30 2077 H 181.314 -4.52735 -2.1918 0
M  V30 2078 H 181.014 -5.79438 -0.975966 0
M  V30 2079 H 182.538 -5.80012 -1.90838 0
M  V30 2080 H 183.952 -5.72158 0.361702 0
M  V30 2081 H 182.349 -5.89286 1.13413 0
M  V30 2082 H 183.419 -4.56796 1.62683 0
M  V30 2083 N 184.763 -0.387143 -1.52771 0
M  V30 2084 C 185.726 0.436939 -2.24997 0
M  V30 2085 C 186.726 0.991991 -1.26555 0
M  V30 2086 O 187.916 0.874335 -1.50669 0
M  V30 2087 C 185.048 1.61281 -3.00335 0
M  V30 2088 H 186.241 -0.195365 -2.99263 0
M  V30 2089 H 183.794 -0.139218 -1.55679 0
M  V30 2090 H 184.529 2.2826 -2.30364 0
M  V30 2091 H 184.314 1.22154 -3.72587 0
M  V30 2092 H 185.804 2.19629 -3.5518 0
M  V30 2093 N 186.241 1.57166 -0.116904 0
M  V30 2094 C 187.466 1.999 0.55271 0
M  V30 2095 C 187.891 0.996039 1.59564 0
M  V30 2096 O 187.249 -0.032556 1.81271 0
M  V30 2097 C 187.297 3.4152 1.15742 0
M  V30 2098 O 186.401 3.44106 2.27299 0
M  V30 2099 H 185.742 0.649447 0.138258 0
M  V30 2100 H 188.272 2.03573 -0.204759 0
M  V30 2101 H 188.282 3.79684 1.49346 0
M  V30 2102 H 186.957 4.14034 0.393493 0
M  V30 2103 H 185.534 3.17759 1.9515 0
M  V30 2104 N 187.719 -0.156864 1.56817 0
M  V30 2105 C 188.949 -0.885031 1.86684 0
M  V30 2106 C 189.357 -1.75696 0.701954 0
M  V30 2107 O 188.7 -1.80569 -0.337732 0
M  V30 2108 C 188.762 -1.80092 3.11138 0
M  V30 2109 C 188.426 -1.10714 4.43386 0
M  V30 2110 C 189.423 -0.465714 5.1781 0
M  V30 2111 C 187.108 -1.09959 4.90117 0
M  V30 2112 C 189.102 0.174002 6.37162 0
M  V30 2113 C 186.789 -0.456055 6.09396 0
M  V30 2114 C 187.787 0.179622 6.82764 0
M  V30 2115 O 187.475 0.812975 7.99779 0
M  V30 2116 H 187.207 -0.261813 0.623242 0
M  V30 2117 H 189.761 -0.157383 2.04796 0
M  V30 2118 H 187.991 -2.56926 2.89009 0
M  V30 2119 H 189.68 -2.40018 3.27332 0
M  V30 2120 H 190.446 -0.463427 4.82781 0
M  V30 2121 H 186.325 -1.58378 4.3294 0
M  V30 2122 H 189.869 0.670765 6.94368 0
M  V30 2123 H 185.766 -0.455975 6.43888 0
M  V30 2124 H 186.534 0.71366 8.15383 0
M  V30 2125 N 189.197 -1.51736 -0.425897 0
M  V30 2126 C 190.16 -1.73271 -1.50032 0
M  V30 2127 C 191.16 -0.602639 -1.4908 0
M  V30 2128 O 192.35 -0.87033 -1.509 0
M  V30 2129 C 189.482 -1.79969 -2.89523 0
M  V30 2130 H 190.675 -2.69172 -1.32237 0
M  V30 2131 H 188.228 -1.41899 -0.65532 0
M  V30 2132 H 188.963 -0.859241 -3.1271 0
M  V30 2133 H 188.748 -2.62109 -2.91619 0
M  V30 2134 H 190.238 -1.9843 -3.67444 0
M  V30 2135 N 190.675 0.682077 -1.42076 0
M  V30 2136 C 191.921 1.44428 -1.42367 0
M  V30 2137 C 192.254 1.94164 -0.0373056 0
M  V30 2138 O 191.529 1.70429 0.937239 0
M  V30 2139 C 191.812 2.64654 -2.44194 0
M  V30 2140 C 191.665 2.20596 -3.91991 0
M  V30 2141 C 192.984 3.66865 -2.431 0
M  V30 2142 H 190.103 0.523834 -0.518428 0
M  V30 2143 H 192.745 0.77576 -1.73442 0
M  V30 2144 H 190.895 3.2169 -2.17826 0
M  V30 2145 H 192.567 1.68783 -4.29313 0
M  V30 2146 H 190.81 1.52242 -4.06208 0
M  V30 2147 H 191.481 3.06921 -4.58807 0
M  V30 2148 H 193.957 3.19531 -2.66532 0
M  V30 2149 H 192.833 4.48577 -3.16339 0
M  V30 2150 H 193.094 4.17493 -1.45437 0
M  V30 2151 N 192.153 1.28127 0.917671 0
M  V30 2152 C 193.085 1.07517 2.02417 0
M  V30 2153 C 194.098 0.0281099 1.62776 0
M  V30 2154 O 195.287 0.270748 1.76435 0
M  V30 2155 C 192.387 0.610957 3.33347 0
M  V30 2156 C 191.56 1.73255 4.01624 0
M  V30 2157 C 190.619 1.26238 5.10833 0
M  V30 2158 O 189.645 1.96389 5.34247 0
M  V30 2159 N 190.847 0.123448 5.80369 0
M  V30 2160 H 193.612 2.02806 2.20658 0
M  V30 2161 H 191.173 1.19827 1.08871 0
M  V30 2162 H 193.165 0.280101 4.0373 0
M  V30 2163 H 191.735 -0.24898 3.11607 0
M  V30 2164 H 190.955 2.23319 3.24842 0
M  V30 2165 H 192.243 2.48503 4.43986 0
M  V30 2166 H 191.641 -0.461847 5.63812 0
M  V30 2167 H 190.198 -0.148158 6.51632 0
M  V30 2168 N 193.631 -1.12557 1.10312 0
M  V30 2169 C 194.594 -2.16434 0.75424 0
M  V30 2170 C 195.594 -1.59278 -0.220685 0
M  V30 2171 O 196.784 -1.742 0.00230591 0
M  V30 2172 C 193.916 -3.40699 0.116987 0
M  V30 2173 H 195.109 -2.48811 1.67431 0
M  V30 2174 H 192.662 -1.27542 0.903475 0
M  V30 2175 H 193.397 -3.13921 -0.813877 0
M  V30 2176 H 193.182 -3.83459 0.818613 0
M  V30 2177 H 194.672 -4.17451 -0.111387 0
M  V30 2178 N 195.109 -0.891671 -1.2995 0
M  V30 2179 C 196.056 -0.361736 -2.27948 0
M  V30 2180 C 197.026 0.551761 -1.56668 0
M  V30 2181 O 198.211 0.478736 -1.84696 0
M  V30 2182 C 195.351 0.411825 -3.42634 0
M  V30 2183 C 194.464 -0.531651 -4.28716 0
M  V30 2184 C 193.599 0.258167 -5.30572 0
M  V30 2185 C 192.638 -0.680349 -6.08307 0
M  V30 2186 N 191.775 0.0745613 -7.0206 0
M  V30 2187 H 196.615 -1.20254 -2.72659 0
M  V30 2188 H 194.152 -0.604352 -1.34112 0
M  V30 2189 H 196.11 0.876304 -4.07893 0
M  V30 2190 H 194.74 1.21715 -2.98974 0
M  V30 2191 H 193.792 -1.11463 -3.63703 0
M  V30 2192 H 195.104 -1.25038 -4.82874 0
M  V30 2193 H 194.258 0.784204 -6.0161 0
M  V30 2194 H 192.997 1.01008 -4.77126 0
M  V30 2195 H 192.002 -1.21796 -5.3614 0
M  V30 2196 H 193.227 -1.43145 -6.63842 0
M  V30 2197 H 191.173 0.808883 -6.50994 0
M  V30 2198 H 191.09 -0.584409 -7.53738 0
M  V30 2199 H 192.358 0.581123 -7.77331 0
M  V30 2200 N 196.587 1.43421 -0.653314 0
M  V30 2201 C 197.817 2.05864 -0.174238 0
M  V30 2202 C 198.225 1.49052 1.16534 0
M  V30 2203 O 197.568 0.616481 1.73047 0
M  V30 2204 C 197.63 3.59499 -0.00875873 0
M  V30 2205 C 197.294 4.38893 -1.27364 0
M  V30 2206 C 198.291 4.70947 -2.20239 0
M  V30 2207 C 195.976 4.789 -1.51525 0
M  V30 2208 C 197.97 5.41916 -3.35568 0
M  V30 2209 C 195.657 5.49614 -2.67147 0
M  V30 2210 C 196.655 5.81044 -3.58994 0
M  V30 2211 O 196.343 6.50313 -4.72597 0
M  V30 2212 H 196.075 0.670345 -0.0872549 0
M  V30 2213 H 198.629 1.84913 -0.894226 0
M  V30 2214 H 196.859 3.79025 0.7666 0
M  V30 2215 H 198.548 4.0364 0.427687 0
M  V30 2216 H 199.314 4.40558 -2.02815 0
M  V30 2217 H 195.193 4.53843 -0.809158 0
M  V30 2218 H 198.737 5.66365 -4.07279 0
M  V30 2219 H 194.634 5.79419 -2.84505 0
M  V30 2220 H 195.402 6.68795 -4.71864 0
M  V30 2221 N 198.065 0.39524 1.52563 0
M  V30 2222 C 199.313 -0.184678 2.01254 0
M  V30 2223 C 199.634 -1.46822 1.28329 0
M  V30 2224 O 198.904 -1.91666 0.405094 0
M  V30 2225 H 197.484 -0.0712355 0.743596 0
M  V30 2226 H 200.146 0.528293 1.87603 0
M  V30 2227 H 199.242 -0.390681 3.09645 0
M  V30 2228 N 199.544 -1.57102 0.125237 0
M  V30 2229 C 200.821 -1.86953 -0.575142 0
M  V30 2230 C 201.201 -1.02749 -1.84407 0
M  V30 2231 O 200.549 -0.108144 -2.28244 0
M  V30 2232 C 200.759 -3.38198 -0.861583 0
M  V30 2233 C 202.107 -4.06937 -1.21192 0
M  V30 2234 O 203.131 -3.43252 -0.951645 0
M  V30 2235 O 201.99 -5.19364 -1.70068 0
M  V30 2236 H 199.084 -0.774147 -0.290906 0
M  V30 2237 H 201.63 -1.68942 0.160211 0
M  V30 2238 H 200.402 -3.91282 0.0373647 0
M  V30 2239 H 200.025 -3.61661 -1.65188 0
M  V30 2240 N 201.022 0.148545 -1.56898 0
M  V30 2241 C 202.252 0.875118 -1.8715 0
M  V30 2242 C 202.66 1.75322 -0.711262 0
M  V30 2243 O 202.003 1.80745 0.328151 0
M  V30 2244 C 202.065 1.7844 -3.12089 0
M  V30 2245 C 201.729 1.08361 -4.43967 0
M  V30 2246 C 202.726 0.438247 -5.1805 0
M  V30 2247 C 200.411 1.07358 -4.90693 0
M  V30 2248 C 202.405 -0.20779 -6.37061 0
M  V30 2249 C 200.092 0.42373 -6.09629 0
M  V30 2250 C 201.09 -0.215829 -6.82659 0
M  V30 2251 O 200.778 -0.855378 -7.99336 0
M  V30 2252 H 200.51 0.258504 -0.624621 0
M  V30 2253 H 203.064 0.14652 -2.04877 0
M  V30 2254 H 201.294 2.55389 -2.90367 0
M  V30 2255 H 202.983 2.38279 -3.286 0
M  V30 2256 H 203.749 0.437817 -4.8302 0
M  V30 2257 H 199.628 1.5608 -4.33774 0
M  V30 2258 H 203.172 -0.70758 -6.94002 0
M  V30 2259 H 199.069 0.421822 -6.4412 0
M  V30 2260 H 199.837 -0.756892 -8.14993 0
M  V30 2261 N 202.5 1.5196 0.417844 0
M  V30 2262 C 203.448 1.75278 1.52907 0
M  V30 2263 C 204.442 0.619611 1.57662 0
M  V30 2264 O 205.648 0.801457 1.61173 0
M  V30 2265 H 202.023 0.554141 0.508362 0
M  V30 2266 H 203.994 2.68389 1.30422 0
M  V30 2267 C 202.743 1.91262 2.90369 0
M  V30 2268 H 202.066 2.77872 2.8745 0
M  V30 2269 H 203.506 2.11581 3.67436 0
M  V30 2270 C 201.965 0.677431 3.30019 0
M  V30 2271 O 202.495 -0.158799 4.01386 0
M  V30 2272 N 200.701 0.515851 2.85985 0
M  V30 2273 H 200.248 1.19744 2.28077 0
M  V30 2274 H 200.206 -0.309315 3.12875 0
M  V30 2275 N 203.978 -0.674533 1.42435 0
M  V30 2276 C 204.925 -1.78807 1.45934 0
M  V30 2277 C 205.895 -1.63157 0.311271 0
M  V30 2278 O 207.08 -1.83707 0.515383 0
M  V30 2279 C 204.22 -3.16839 1.36773 0
M  V30 2280 C 203.333 -3.43774 2.61617 0
M  V30 2281 C 202.468 -4.71536 2.44597 0
M  V30 2282 C 201.507 -4.91505 3.64814 0
M  V30 2283 N 200.644 -6.10508 3.46734 0
M  V30 2284 H 205.484 -1.75151 2.41093 0
M  V30 2285 H 203.021 -0.85504 1.19697 0
M  V30 2286 H 204.979 -3.96606 1.29459 0
M  V30 2287 H 203.609 -3.19619 0.452089 0
M  V30 2288 H 202.661 -2.58259 2.79297 0
M  V30 2289 H 203.973 -3.54423 3.50978 0
M  V30 2290 H 203.127 -5.59393 2.3487 0
M  V30 2291 H 201.866 -4.6317 1.52726 0
M  V30 2292 H 200.871 -4.0209 3.74972 0
M  V30 2293 H 202.096 -5.01716 4.57665 0
M  V30 2294 H 200.042 -6.03315 2.5758 0
M  V30 2295 H 199.959 -6.2202 4.29682 0
M  V30 2296 H 201.227 -7.01044 3.40819 0
M  V30 2297 N 205.456 -1.28612 -0.910864 0
M  V30 2298 C 206.366 -1.14643 -2.0468 0
M  V30 2299 C 207.382 -0.0723121 -1.7385 0
M  V30 2300 O 208.558 -0.282178 -1.99413 0
M  V30 2301 C 205.623 -0.812561 -3.37044 0
M  V30 2302 C 204.684 -1.96935 -3.81465 0
M  V30 2303 C 203.917 -1.65131 -5.07511 0
M  V30 2304 O 204.14 -0.567013 -5.67575 0
M  V30 2305 O 203.074 -2.49585 -5.47714 0
M  V30 2306 H 206.9 -2.1001 -2.19384 0
M  V30 2307 H 204.485 -1.07958 -1.03274 0
M  V30 2308 H 206.367 -0.640441 -4.16505 0
M  V30 2309 H 205.042 0.111426 -3.23508 0
M  V30 2310 H 203.949 -2.19664 -3.02818 0
M  V30 2311 H 205.282 -2.87414 -3.99567 0
M  V30 2312 N 206.934 1.1197 -1.10907 0
M  V30 2313 C 208.183 1.82947 -0.849302 0
M  V30 2314 C 208.496 1.85275 0.627112 0
M  V30 2315 O 209.702 2.52296 1.00295 0
M  V30 2316 C 208.158 3.28529 -1.46959 0
M  V30 2317 C 207.766 3.34546 -2.97965 0
M  V30 2318 C 209.51 4.04443 -1.28942 0
M  V30 2319 C 207.417 4.74491 -3.53004 0
M  V30 2320 H 206.347 0.685477 -0.314065 0
M  V30 2321 H 208.998 1.2604 -1.33365 0
M  V30 2322 H 207.38 3.85333 -0.912917 0
M  V30 2323 H 208.554 2.87654 -3.59989 0
M  V30 2324 H 206.869 2.72108 -3.15192 0
M  V30 2325 H 209.466 5.07787 -1.67502 0
M  V30 2326 H 209.809 4.15656 -0.231456 0
M  V30 2327 H 210.342 3.5401 -1.81443 0
M  V30 2328 H 207.081 4.68474 -4.58489 0
M  V30 2329 H 206.601 5.21816 -2.9575 0
M  V30 2330 H 208.28 5.4344 -3.51115 0
M  V30 2331 N 208.412 0.89855 1.29475 0
M  V30 2332 C 209.362 0.346767 2.25348 0
M  V30 2333 C 210.346 -0.532509 1.51833 0
M  V30 2334 O 211.538 -0.374714 1.72988 0
M  V30 2335 C 208.667 -0.425681 3.40651 0
M  V30 2336 C 207.753 0.46845 4.21505 0
M  V30 2337 N 208.144 1.57514 4.80648 0
M  V30 2338 C 206.442 0.26603 4.45206 0
M  V30 2339 C 207.143 2.12889 5.41344 0
M  V30 2340 N 206.119 1.42208 5.24669 0
M  V30 2341 H 209.921 1.19219 2.68634 0
M  V30 2342 H 207.435 0.749473 1.44072 0
M  V30 2343 H 209.432 -0.837716 4.08397 0
M  V30 2344 H 208.092 -1.26838 2.98902 0
M  V30 2345 H 209.103 1.95789 4.79465 0
M  V30 2346 H 205.78 -0.538394 4.14014 0
M  V30 2347 H 207.17 3.05901 5.98226 0
M  V30 2348 N 209.89 -1.43072 0.660911 0
M  V30 2349 C 210.837 -2.30785 -0.0259884 0
M  V30 2350 C 211.807 -1.45184 -0.806888 0
M  V30 2351 O 212.992 -1.74041 -0.781943 0
M  V30 2352 C 210.132 -3.30861 -0.981067 0
M  V30 2353 C 209.245 -4.31558 -0.195458 0
M  V30 2354 C 208.38 -5.18712 -1.14503 0
M  V30 2355 C 207.419 -6.11097 -0.350299 0
M  V30 2356 N 206.556 -6.90849 -1.25186 0
M  V30 2357 H 211.396 -2.88975 0.727846 0
M  V30 2358 H 208.933 -1.42353 0.370682 0
M  V30 2359 H 210.891 -3.87399 -1.54849 0
M  V30 2360 H 209.521 -2.74304 -1.70169 0
M  V30 2361 H 208.573 -3.77252 0.488374 0
M  V30 2362 H 209.885 -4.9701 0.422176 0
M  V30 2363 H 209.039 -5.79914 -1.78284 0
M  V30 2364 H 207.778 -4.53404 -1.79656 0
M  V30 2365 H 206.783 -5.48976 0.300808 0
M  V30 2366 H 208.008 -6.7845 0.296941 0
M  V30 2367 H 205.954 -6.28182 -1.89005 0
M  V30 2368 H 205.871 -7.52854 -0.688971 0
M  V30 2369 H 207.139 -7.5655 -1.87757 0
M  V30 2370 N 211.368 -0.403325 -1.52352 0
M  V30 2371 C 212.779 0.0675782 -1.86578 0
M  V30 2372 C 213.13 1.44941 -1.32236 0
M  V30 2373 O 212.255 2.06112 -0.659307 0
M  V30 2374 C 212.85 0.129404 -3.38553 0
M  V30 2375 C 211.409 0.544629 -3.72439 0
M  V30 2376 C 210.556 -0.284551 -2.75836 0
M  V30 2377 H 213.507 -0.620631 -1.46061 0
M  V30 2378 H 213.528 0.94581 -3.68558 0
M  V30 2379 H 213.04 -0.87645 -3.78074 0
M  V30 2380 H 211.141 1.55734 -3.38493 0
M  V30 2381 H 211.254 0.293046 -4.78203 0
M  V30 2382 H 209.618 0.252258 -2.53448 0
M  V30 2383 H 210.401 -1.28865 -3.18196 0
M  V30 2384 N 212.846 1.57033 -0.133567 0
M  V30 2385 C 214.094 1.953 0.519848 0
M  V30 2386 C 214.415 1.01866 1.66278 0
M  V30 2387 O 213.685 0.0776513 1.95746 0
M  V30 2388 H 212.265 0.721091 0.195032 0
M  V30 2389 H 214.927 1.93809 -0.205921 0
M  V30 2390 H 214.023 2.98695 0.904854 0
M  V30 2391 N 214.325 -0.140222 1.56975 0
M  V30 2392 C 215.555 -0.865181 1.87612 0
M  V30 2393 C 215.963 -1.74942 0.72055 0
M  V30 2394 O 215.306 -1.80917 -0.318561 0
M  V30 2395 C 215.368 -1.76782 3.13031 0
M  V30 2396 C 215.032 -1.06005 4.44536 0
M  V30 2397 C 216.029 -0.410768 5.18275 0
M  V30 2398 C 213.714 -1.04754 4.91255 0
M  V30 2399 C 215.708 0.241572 6.36942 0
M  V30 2400 C 213.395 -0.391394 6.09845 0
M  V30 2401 C 214.393 0.252029 6.82535 0
M  V30 2402 O 214.081 0.897757 7.98871 0
M  V30 2403 H 213.813 -0.255188 0.625983 0
M  V30 2404 H 216.367 -0.135653 2.04952 0
M  V30 2405 H 214.597 -2.53846 2.91718 0
M  V30 2406 H 216.286 -2.36533 3.29859 0
M  V30 2407 H 217.052 -0.412195 4.83245 0
M  V30 2408 H 212.931 -1.53777 4.34596 0
M  V30 2409 H 216.475 0.744375 6.93617 0
M  V30 2410 H 212.372 -0.387656 6.44335 0
M  V30 2411 H 213.14 0.800102 8.1458 0
M  V30 2412 N 215.803 -1.52179 -0.40978 0
M  V30 2413 C 216.733 -1.78435 -1.5061 0
M  V30 2414 C 217.714 -0.635295 -1.57791 0
M  V30 2415 O 218.899 -0.880823 -1.73076 0
M  V30 2416 C 216.029 -1.93444 -2.88439 0
M  V30 2417 C 214.983 -3.09038 -2.96108 0
M  V30 2418 C 214.309 -3.09268 -4.36185 0
M  V30 2419 C 215.609 -4.48508 -2.67652 0
M  V30 2420 H 217.303 -2.70237 -1.28889 0
M  V30 2421 H 214.849 -1.30036 -0.618605 0
M  V30 2422 H 216.802 -2.10394 -3.65119 0
M  V30 2423 H 215.526 -0.983129 -3.11452 0
M  V30 2424 H 214.185 -2.91837 -2.21872 0
M  V30 2425 H 213.833 -2.11861 -4.56206 0
M  V30 2426 H 213.533 -3.86907 -4.42241 0
M  V30 2427 H 215.057 -3.28348 -5.14801 0
M  V30 2428 H 216.471 -4.65918 -3.34056 0
M  V30 2429 H 214.868 -5.28059 -2.85085 0
M  V30 2430 H 215.938 -4.56649 -1.63095 0
M  V30 2431 N 217.281 0.66697 -1.42791 0
M  V30 2432 C 218.244 1.76211 -1.46568 0
M  V30 2433 C 219.244 1.56896 -0.352196 0
M  V30 2434 O 220.434 1.63044 -0.613364 0
M  V30 2435 C 217.566 3.14935 -1.30494 0
M  V30 2436 H 218.759 1.74247 -2.44086 0
M  V30 2437 H 216.312 0.877342 -1.29354 0
M  V30 2438 H 217.047 3.2252 -0.339301 0
M  V30 2439 H 216.832 3.30359 -2.11199 0
M  V30 2440 H 218.322 3.94821 -1.36038 0
M  V30 2441 N 218.759 1.29093 0.90403 0
M  V30 2442 C 219.707 1.13727 2.02901 0
M  V30 2443 C 220.701 0.0539853 1.69314 0
M  V30 2444 O 221.907 0.213469 1.7873 0
M  V30 2445 H 218.282 0.35117 0.664969 0
M  V30 2446 H 220.253 2.08982 2.13001 0
M  V30 2447 C 219.002 0.826066 3.37745 0
M  V30 2448 H 218.325 1.65164 3.64089 0
M  V30 2449 H 219.765 0.758559 4.17159 0
M  V30 2450 C 218.224 -0.470541 3.33598 0
M  V30 2451 O 218.754 -1.49792 3.72727 0
M  V30 2452 N 216.96 -0.474812 2.86695 0
M  V30 2453 H 216.507 0.361692 2.55048 0
M  V30 2454 H 216.465 -1.34236 2.84303 0
M  V30 2455 N 220.237 -1.11381 1.11499 0
M  V30 2456 C 221.514 -1.7955 0.775965 0
M  V30 2457 C 221.894 -1.97859 -0.73588 0
M  V30 2458 O 221.242 -1.56376 -1.66609 0
M  V30 2459 C 221.452 -3.13196 1.53977 0
M  V30 2460 C 222.8 -3.88227 1.71944 0
M  V30 2461 O 223.824 -3.22887 1.50407 0
M  V30 2462 O 222.683 -5.05477 2.07738 0
M  V30 2463 H 219.777 -0.777728 0.28119 0
M  V30 2464 H 222.323 -1.18118 1.21845 0
M  V30 2465 H 221.095 -2.95229 2.56818 0
M  V30 2466 H 220.718 -3.82342 1.09088 0
M  V30 2467 N 221.715 -0.905404 -1.28997 0
M  V30 2468 C 223.131 -0.60233 -1.47798 0
M  V30 2469 C 223.331 0.854645 -1.82478 0
M  V30 2470 O 222.387 1.63439 -1.92468 0
M  V30 2471 C 223.7 -1.53306 -2.58685 0
M  V30 2472 C 225.248 -1.53887 -2.72558 0
M  V30 2473 C 225.723 -2.45602 -3.86579 0
M  V30 2474 N 227.214 -2.43681 -3.93921 0
M  V30 2475 C 227.949 -3.11347 -4.81509 0
M  V30 2476 N 227.445 -3.88313 -5.73746 0
M  V30 2477 N 229.238 -3.00476 -4.75048 0
M  V30 2478 H 221.389 -1.84765 -1.04764 0
M  V30 2479 H 223.652 -0.792025 -0.520961 0
M  V30 2480 H 223.358 -2.57141 -2.39941 0
M  V30 2481 H 223.232 -1.25787 -3.55609 0
M  V30 2482 H 225.619 -0.507941 -2.90696 0
M  V30 2483 H 225.7 -1.85447 -1.76191 0
M  V30 2484 H 225.344 -3.48792 -3.69197 0
M  V30 2485 H 225.274 -2.11349 -4.82327 0
M  V30 2486 H 227.765 -1.87767 -3.27951 0
M  V30 2487 H 228.078 -4.36985 -6.37389 0
M  V30 2488 H 226.423 -3.92419 -5.73614 0
M  V30 2489 H 229.614 -2.39858 -4.01977 0
M  V30 2490 H 229.787 -3.53485 -5.43095 0
M  V30 2491 N 223.193 1.4272 -0.668489 0
M  V30 2492 C 224.123 2.335 -0.000100175 0
M  V30 2493 C 225.104 1.50328 0.795964 0
M  V30 2494 O 226.289 1.78949 0.754385 0
M  V30 2495 C 223.419 3.33874 0.956302 0
M  V30 2496 C 222.373 4.27152 0.269278 0
M  V30 2497 C 221.699 5.17684 1.33818 0
M  V30 2498 C 222.999 5.15373 -0.847805 0
M  V30 2499 H 224.693 2.89639 -0.758244 0
M  V30 2500 H 222.239 1.39269 -0.366079 0
M  V30 2501 H 224.192 3.9629 1.43292 0
M  V30 2502 H 222.916 2.76025 1.74579 0
M  V30 2503 H 221.575 3.66123 -0.187042 0
M  V30 2504 H 221.223 4.56165 2.1195 0
M  V30 2505 H 220.923 5.80918 0.883659 0
M  V30 2506 H 222.447 5.82974 1.81586 0
M  V30 2507 H 223.861 5.7151 -0.452681 0
M  V30 2508 H 222.258 5.87407 -1.22773 0
M  V30 2509 H 223.328 4.5415 -1.69929 0
M  V30 2510 N 224.671 0.411399 1.52136 0
M  V30 2511 C 225.601 -0.404015 2.29978 0
M  V30 2512 C 226.582 -1.04412 1.34284 0
M  V30 2513 O 227.767 -1.0527 1.63192 0
M  V30 2514 C 224.897 -1.5197 3.12286 0
M  V30 2515 C 223.851 -1.00448 4.16046 0
M  V30 2516 C 223.177 -2.21393 4.86712 0
M  V30 2517 C 224.477 -0.0569336 5.22269 0
M  V30 2518 H 226.171 0.245529 2.98392 0
M  V30 2519 H 223.717 0.119525 1.43503 0
M  V30 2520 H 225.67 -2.09715 3.6551 0
M  V30 2521 H 224.394 -2.19716 2.41646 0
M  V30 2522 H 223.053 -0.449421 3.63835 0
M  V30 2523 H 222.701 -2.87699 4.12599 0
M  V30 2524 H 222.401 -1.87571 5.56858 0
M  V30 2525 H 223.925 -2.7974 5.4275 0
M  V30 2526 H 225.339 -0.54325 5.7072 0
M  V30 2527 H 223.736 0.192594 5.99791 0
M  V30 2528 H 224.806 0.887663 4.76706 0
M  V30 2529 N 226.149 -1.5696 0.141893 0
M  V30 2530 C 227.56 -1.82797 -0.379776 0
M  V30 2531 C 227.911 -1.06033 -1.6508 0
M  V30 2532 O 227.036 -0.304011 -2.14254 0
M  V30 2533 C 227.631 -3.31578 -0.695802 0
M  V30 2534 C 226.19 -3.58014 -1.16201 0
M  V30 2535 C 225.337 -2.76699 -0.182455 0
M  V30 2536 H 228.288 -1.54406 0.366675 0
M  V30 2537 H 228.309 -3.47454 -1.55099 0
M  V30 2538 H 227.821 -3.87421 0.229449 0
M  V30 2539 H 225.922 -3.07553 -2.10338 0
M  V30 2540 H 226.035 -4.66501 -1.09151 0
M  V30 2541 H 224.399 -2.45618 -0.674072 0
M  V30 2542 H 225.182 -3.35311 0.736297 0
M  V30 2543 N 227.627 0.131896 -1.57047 0
M  V30 2544 C 228.559 1.1878 -1.9602 0
M  V30 2545 C 229.572 1.38363 -0.857875 0
M  V30 2546 O 230.761 1.37666 -1.13623 0
M  V30 2547 C 227.861 2.55008 -2.23213 0
M  V30 2548 C 227.034 2.56201 -3.54513 0
M  V30 2549 C 226.093 3.7408 -3.70069 0
M  V30 2550 O 225.119 3.58258 -4.42312 0
M  V30 2551 N 226.321 4.92137 -3.07866 0
M  V30 2552 H 229.086 0.85639 -2.87204 0
M  V30 2553 H 226.647 0.321309 -1.5868 0
M  V30 2554 H 228.639 3.32404 -2.30846 0
M  V30 2555 H 227.209 2.80382 -1.3822 0
M  V30 2556 H 226.429 1.64613 -3.58185 0
M  V30 2557 H 227.717 2.54043 -4.4084 0
M  V30 2558 H 227.115 5.07895 -2.49116 0
M  V30 2559 H 225.672 5.67254 -3.21039 0
M  V30 2560 N 229.106 1.52395 0.401703 0
M  V30 2561 C 230.522 1.41363 0.740864 0
M  V30 2562 C 230.722 0.523982 1.94568 0
M  V30 2563 O 229.778 -0.00741204 2.52499 0
M  V30 2564 C 231.091 2.84011 0.987847 0
M  V30 2565 C 232.639 2.93404 1.09011 0
M  V30 2566 C 233.114 4.37036 1.3698 0
M  V30 2567 N 234.605 4.40304 1.43829 0
M  V30 2568 C 235.34 5.48508 1.67112 0
M  V30 2569 N 234.836 6.66819 1.87949 0
M  V30 2570 N 236.629 5.36034 1.69187 0
M  V30 2571 H 228.78 2.08765 -0.391262 0
M  V30 2572 H 231.043 0.941265 -0.112798 0
M  V30 2573 H 230.749 3.51265 0.174835 0
M  V30 2574 H 230.623 3.25502 1.906 0
M  V30 2575 H 233.01 2.26325 1.8937 0
M  V30 2576 H 233.091 2.55359 0.15015 0
M  V30 2577 H 232.735 5.04676 0.571353 0
M  V30 2578 H 232.665 4.72623 2.3224 0
M  V30 2579 H 235.156 3.55024 1.29486 0
M  V30 2580 H 235.469 7.45063 2.05185 0
M  V30 2581 H 233.814 6.6987 1.85199 0
M  V30 2582 H 237.005 4.42579 1.52451 0
M  V30 2583 H 237.178 6.20434 1.86993 0
M  V30 2584 N 230.584 -0.659388 1.43143 0
M  V30 2585 C 231.83 -1.42145 1.44647 0
M  V30 2586 C 232.163 -1.9408 0.0681907 0
M  V30 2587 O 231.438 -1.71899 -0.910007 0
M  V30 2588 C 231.721 -2.60735 2.48373 0
M  V30 2589 C 231.574 -2.14332 3.95451 0
M  V30 2590 C 232.893 -3.62951 2.48906 0
M  V30 2591 H 230.012 -0.51552 0.526696 0
M  V30 2592 H 232.654 -0.748069 1.74654 0
M  V30 2593 H 230.804 -3.18184 2.22916 0
M  V30 2594 H 232.476 -1.61932 4.31944 0
M  V30 2595 H 230.719 -1.4576 4.08578 0
M  V30 2596 H 231.39 -2.99583 4.63631 0
M  V30 2597 H 233.866 -3.1525 2.71582 0
M  V30 2598 H 232.742 -4.43487 3.23435 0
M  V30 2599 H 233.003 -4.15126 1.52061 0
M  V30 2600 N 232.062 -1.29571 -0.897171 0
M  V30 2601 C 232.992 -1.17473 -2.01798 0
M  V30 2602 C 233.973 -0.068323 -1.69963 0
M  V30 2603 O 235.158 -0.248239 -1.92607 0
M  V30 2604 C 232.288 -0.853099 -3.36659 0
M  V30 2605 C 231.242 -1.9161 -3.82713 0
M  V30 2606 C 230.568 -1.44773 -5.14728 0
M  V30 2607 C 231.868 -3.32535 -4.02763 0
M  V30 2608 H 233.562 -2.11237 -2.12177 0
M  V30 2609 H 231.108 -1.01699 -1.01948 0
M  V30 2610 H 233.061 -0.755165 -4.14578 0
M  V30 2611 H 231.785 0.120236 -3.26379 0
M  V30 2612 H 230.444 -2.00346 -3.07013 0
M  V30 2613 H 230.092 -0.462995 -5.00865 0
M  V30 2614 H 229.792 -2.15865 -5.46513 0
M  V30 2615 H 231.316 -1.36334 -5.95185 0
M  V30 2616 H 232.73 -3.26626 -4.71156 0
M  V30 2617 H 231.127 -4.01607 -4.45905 0
M  V30 2618 H 232.197 -3.75326 -3.07016 0
M  V30 2619 N 233.54 1.10788 -1.12088 0
M  V30 2620 C 234.45 2.20599 -0.798338 0
M  V30 2621 C 235.466 1.72712 0.21135 0
M  V30 2622 O 236.642 2.01348 0.0458477 0
M  V30 2623 C 233.707 3.45771 -0.253674 0
M  V30 2624 C 232.768 4.08411 -1.32283 0
M  V30 2625 C 232.001 5.27608 -0.80406 0
M  V30 2626 O 232.224 5.69241 0.363478 0
M  V30 2627 O 231.158 5.8101 -1.57198 0
M  V30 2628 H 234.984 2.50614 -1.7154 0
M  V30 2629 H 232.569 1.19454 -0.897275 0
M  V30 2630 H 234.451 4.21376 0.0453691 0
M  V30 2631 H 233.126 3.1739 0.636005 0
M  V30 2632 H 232.033 3.34507 -1.67499 0
M  V30 2633 H 233.366 4.40986 -2.18614 0
M  V30 2634 N 235.018 0.912232 1.28515 0
M  V30 2635 C 235.95 0.35676 2.26406 0
M  V30 2636 C 236.963 -0.503933 1.54804 0
M  V30 2637 O 238.152 -0.319059 1.75625 0
M  V30 2638 C 235.252 -0.508825 3.35058 0
M  V30 2639 C 234.425 0.329007 4.36161 0
M  V30 2640 C 233.484 -0.471422 5.24084 0
M  V30 2641 O 232.51 0.115482 5.69083 0
M  V30 2642 N 233.712 -1.77479 5.52704 0
M  V30 2643 H 236.477 1.19818 2.74707 0
M  V30 2644 H 234.038 0.778022 1.4198 0
M  V30 2645 H 236.03 -1.051 3.90815 0
M  V30 2646 H 234.6 -1.25095 2.86478 0
M  V30 2647 H 233.82 1.05256 3.79888 0
M  V30 2648 H 235.108 0.90234 5.00735 0
M  V30 2649 H 234.506 -2.27417 5.17975 0
M  V30 2650 H 233.063 -2.26382 6.11224 0
M  V30 2651 N 236.496 -1.42363 0.676048 0
M  V30 2652 C 237.446 -2.27987 -0.0242903 0
M  V30 2653 C 238.43 -1.41153 -0.772319 0
M  V30 2654 O 239.622 -1.64592 -0.651025 0
M  V30 2655 C 236.751 -3.29195 -0.973953 0
M  V30 2656 C 235.837 -4.23512 -0.223202 0
M  V30 2657 N 236.228 -4.99865 0.772589 0
M  V30 2658 C 234.526 -4.43606 -0.461469 0
M  V30 2659 C 235.227 -5.68757 1.22027 0
M  V30 2660 N 234.203 -5.40811 0.549975 0
M  V30 2661 H 238.005 -2.84445 0.73949 0
M  V30 2662 H 235.519 -1.54341 0.50522 0
M  V30 2663 H 237.516 -3.89339 -1.49067 0
M  V30 2664 H 236.176 -2.74298 -1.73755 0
M  V30 2665 H 237.187 -5.04921 1.15217 0
M  V30 2666 H 233.864 -3.99749 -1.20446 0
M  V30 2667 H 235.254 -6.40007 2.0455 0
M  V30 2668 N 237.974 -0.419461 -1.51915 0
M  V30 2669 C 238.921 0.400927 -2.27291 0
M  V30 2670 C 239.891 1.03224 -1.30131 0
M  V30 2671 O 241.076 1.05455 -1.59009 0
M  V30 2672 C 238.216 1.50603 -3.10504 0
M  V30 2673 C 237.329 0.89462 -4.22635 0
M  V30 2674 C 236.464 1.97328 -4.93189 0
M  V30 2675 C 235.503 1.33935 -5.97267 0
M  V30 2676 N 234.64 2.3586 -6.61298 0
M  V30 2677 H 239.48 -0.248251 -2.96964 0
M  V30 2678 H 237.017 -0.134266 -1.46486 0
M  V30 2679 H 238.975 2.15783 -3.57062 0
M  V30 2680 H 237.605 2.12509 -2.42981 0
M  V30 2681 H 236.657 0.131583 -3.80172 0
M  V30 2682 H 237.969 0.391641 -4.9726 0
M  V30 2683 H 237.123 2.70211 -5.43204 0
M  V30 2684 H 235.862 2.50994 -4.18155 0
M  V30 2685 H 234.867 0.595896 -5.46561 0
M  V30 2686 H 236.092 0.810252 -6.74249 0
M  V30 2687 H 234.038 2.88639 -5.89087 0
M  V30 2688 H 233.955 1.90403 -7.3163 0
M  V30 2689 H 235.223 3.08282 -7.15949 0
M  V30 2690 N 239.452 1.56882 -0.150215 0
M  V30 2691 C 240.382 2.19935 0.784284 0
M  V30 2692 C 241.363 1.14854 1.25469 0
M  V30 2693 O 242.548 1.43209 1.31168 0
M  V30 2694 C 239.678 2.82349 2.02229 0
M  V30 2695 C 238.632 3.93285 1.68853 0
M  V30 2696 C 237.958 4.42649 2.99944 0
M  V30 2697 C 239.258 5.13904 0.932714 0
M  V30 2698 H 240.952 2.9828 0.258781 0
M  V30 2699 H 238.498 1.43473 0.123029 0
M  V30 2700 H 240.451 3.25126 2.68088 0
M  V30 2701 H 239.175 2.0134 2.57157 0
M  V30 2702 H 237.834 3.5113 1.05371 0
M  V30 2703 H 237.482 3.58458 3.52869 0
M  V30 2704 H 237.182 5.17476 2.78374 0
M  V30 2705 H 238.706 4.88099 3.66868 0
M  V30 2706 H 240.12 5.53506 1.49345 0
M  V30 2707 H 238.517 5.94515 0.81684 0
M  V30 2708 H 239.587 4.84842 -0.0749568 0
M  V30 2709 N 240.93 -0.123565 1.57115 0
M  V30 2710 C 242.158 -0.846461 1.88793 0
M  V30 2711 C 242.573 -1.73652 0.740976 0
M  V30 2712 O 241.93 -1.80207 -0.288393 0
M  V30 2713 C 241.981 -1.6837 3.19897 0
M  V30 2714 O 241.702 -0.829477 4.30176 0
M  V30 2715 C 243.203 -2.51214 3.65248 0
M  V30 2716 H 240.423 -0.243573 0.625231 0
M  V30 2717 H 242.967 -0.109324 2.04208 0
M  V30 2718 H 241.122 -2.37364 3.06165 0
M  V30 2719 H 241.536 -1.40651 5.0529 0
M  V30 2720 H 243.01 -3.05497 4.59756 0
M  V30 2721 H 243.487 -3.28359 2.9168 0
M  V30 2722 H 244.093 -1.8747 3.81752 0
M  V30 2723 N 242.408 -1.52605 -0.393616 0
M  V30 2724 C 243.355 -1.77055 -1.48054 0
M  V30 2725 C 244.325 -0.61358 -1.54352 0
M  V30 2726 O 245.51 -0.852806 -1.70681 0
M  V30 2727 C 242.65 -1.94108 -2.85335 0
M  V30 2728 C 241.763 -3.21792 -2.88226 0
M  V30 2729 C 240.898 -3.29188 -4.16904 0
M  V30 2730 C 239.937 -4.51013 -4.13828 0
M  V30 2731 N 239.074 -4.55716 -5.34105 0
M  V30 2732 H 243.914 -2.69815 -1.26506 0
M  V30 2733 H 241.451 -1.33683 -0.61379 0
M  V30 2734 H 243.409 -2.01979 -3.65049 0
M  V30 2735 H 242.039 -1.04713 -3.05344 0
M  V30 2736 H 241.091 -3.23015 -2.00911 0
M  V30 2737 H 242.403 -4.11557 -2.8182 0
M  V30 2738 H 241.557 -3.36216 -5.05018 0
M  V30 2739 H 240.296 -2.37389 -4.26026 0
M  V30 2740 H 239.301 -4.44115 -3.24102 0
M  V30 2741 H 240.526 -5.44123 -4.06333 0
M  V30 2742 H 238.472 -3.66807 -5.43865 0
M  V30 2743 H 238.389 -5.39346 -5.29756 0
M  V30 2744 H 239.657 -4.66993 -6.2413 0
M  V30 2745 N 243.887 0.651787 -1.4349 0
M  V30 2746 C 244.797 1.79368 -1.5121 0
M  V30 2747 C 245.813 1.69361 -0.399093 0
M  V30 2748 O 246.989 1.90505 -0.653431 0
M  V30 2749 C 244.054 3.15653 -1.43401 0
M  V30 2750 C 243.115 3.37446 -2.65384 0
M  V30 2751 C 242.348 4.67229 -2.57939 0
M  V30 2752 O 242.571 5.46676 -1.62792 0
M  V30 2753 O 241.505 4.90773 -3.48462 0
M  V30 2754 H 245.331 1.7581 -2.47638 0
M  V30 2755 H 242.916 0.810447 -1.25507 0
M  V30 2756 H 244.798 3.96935 -1.41494 0
M  V30 2757 H 243.473 3.19798 -0.501085 0
M  V30 2758 H 242.38 2.55923 -2.72863 0
M  V30 2759 H 243.713 3.38148 -3.57654 0
M  V30 2760 N 245.365 1.30045 0.890287 0
M  V30 2761 C 246.297 1.11786 2.00091 0
M  V30 2762 C 247.31 0.0626307 1.62679 0
M  V30 2763 O 248.499 0.308112 1.75821 0
M  V30 2764 C 245.599 0.681527 3.31977 0
M  V30 2765 C 244.772 1.81735 3.97858 0
M  V30 2766 C 243.831 1.37045 5.08041 0
M  V30 2767 O 242.857 2.07677 5.29961 0
M  V30 2768 N 244.059 0.246525 5.79976 0
M  V30 2769 H 246.824 2.07441 2.16306 0
M  V30 2770 H 244.385 1.2211 1.06305 0
M  V30 2771 H 246.377 0.365675 4.03045 0
M  V30 2772 H 244.947 -0.182828 3.12065 0
M  V30 2773 H 244.167 2.30159 3.20032 0
M  V30 2774 H 245.455 2.57865 4.38615 0
M  V30 2775 H 244.853 -0.34215 5.64664 0
M  V30 2776 H 243.41 -0.00990438 6.51799 0
M  V30 2777 N 246.843 -1.10192 1.12674 0
M  V30 2778 C 248.089 -1.82658 0.894847 0
M  V30 2779 C 248.444 -1.83666 -0.573107 0
M  V30 2780 O 247.737 -1.28816 -1.41835 0
M  V30 2781 C 247.931 -3.28552 1.4067 0
M  V30 2782 C 247.76 -3.41756 2.92289 0
M  V30 2783 C 246.53 -3.54021 3.60551 0
M  V30 2784 C 248.728 -3.34949 3.90274 0
M  V30 2785 N 246.71 -3.55827 5.0026 0
M  V30 2786 C 248.081 -3.43531 5.16127 0
M  V30 2787 C 250.136 -3.18565 3.8265 0
M  V30 2788 C 248.839 -3.37416 6.3525 0
M  V30 2789 C 250.865 -3.13772 5.01299 0
M  V30 2790 C 250.227 -3.22938 6.26012 0
M  V30 2791 H 246.326 -0.683044 0.380756 0
M  V30 2792 H 248.91 -1.31752 1.43351 0
M  V30 2793 H 247.081 -3.77946 0.895055 0
M  V30 2794 H 248.813 -3.88991 1.11661 0
M  V30 2795 H 245.568 -3.57135 3.1105 0
M  V30 2796 H 245.992 -3.60335 5.73138 0
M  V30 2797 H 250.634 -3.10354 2.87124 0
M  V30 2798 H 248.352 -3.44391 7.3104 0
M  V30 2799 H 251.938 -3.02242 4.97133 0
M  V30 2800 H 250.818 -3.19235 7.16281 0
M  V30 2801 N 248.321 -0.919034 -1.28029 0
M  V30 2802 C 249.231 -0.416756 -2.30869 0
M  V30 2803 C 250.247 0.498235 -1.66714 0
M  V30 2804 O 251.423 0.383144 -1.97722 0
M  V30 2805 C 248.488 0.330274 -3.45123 0
M  V30 2806 C 247.549 -0.618578 -4.2482 0
M  V30 2807 C 246.782 0.0928959 -5.33619 0
M  V30 2808 O 247.005 1.31375 -5.55065 0
M  V30 2809 O 245.939 -0.574499 -5.99152 0
M  V30 2810 H 249.765 -1.27043 -2.75851 0
M  V30 2811 H 247.35 -0.684052 -1.3282 0
M  V30 2812 H 249.232 0.751972 -4.14636 0
M  V30 2813 H 247.907 1.1597 -3.02213 0
M  V30 2814 H 246.814 -1.08978 -3.57875 0
M  V30 2815 H 248.147 -1.41497 -4.71423 0
M  V30 2816 N 249.799 1.42003 -0.683588 0
M  V30 2817 C 250.709 2.34597 -0.0109075 0
M  V30 2818 C 251.725 1.55576 0.779245 0
M  V30 2819 O 252.901 1.88107 0.719555 0
M  V30 2820 C 249.966 3.34199 0.922588 0
M  V30 2821 C 249.027 4.29115 0.125984 0
M  V30 2822 C 248.26 5.23959 1.01502 0
M  V30 2823 O 248.483 5.23952 2.25456 0
M  V30 2824 O 247.417 6.00053 0.47111 0
M  V30 2825 H 251.243 2.93675 -0.773853 0
M  V30 2826 H 248.828 1.42654 -0.443861 0
M  V30 2827 H 250.71 3.95365 1.45823 0
M  V30 2828 H 249.385 2.77582 1.66523 0
M  V30 2829 H 248.292 3.71335 -0.453969 0
M  V30 2830 H 249.625 4.88798 -0.577736 0
M  V30 2831 N 251.277 0.427512 1.51691 0
M  V30 2832 C 252.693 0.0792977 1.59403 0
M  V30 2833 C 252.893 -1.41035 1.43914 0
M  V30 2834 O 251.949 -2.17922 1.27539 0
M  V30 2835 C 253.262 0.590636 2.94842 0
M  V30 2836 C 254.81 0.550215 3.08126 0
M  V30 2837 C 255.285 1.03836 4.46074 0
M  V30 2838 N 256.776 0.995943 4.52366 0
M  V30 2839 C 257.511 1.34463 5.57411 0
M  V30 2840 N 257.007 1.76569 6.69922 0
M  V30 2841 N 258.8 1.26343 5.47717 0
M  V30 2842 H 250.951 1.39687 1.60004 0
M  V30 2843 H 253.214 0.575003 0.753708 0
M  V30 2844 H 252.92 1.63251 3.11516 0
M  V30 2845 H 252.794 0.0102061 3.77199 0
M  V30 2846 H 255.181 -0.482654 2.91126 0
M  V30 2847 H 255.262 1.16693 2.27632 0
M  V30 2848 H 254.906 2.06965 4.63819 0
M  V30 2849 H 254.836 0.398286 5.25092 0
M  V30 2850 H 257.327 0.68661 3.7161 0
M  V30 2851 H 257.64 2.01438 7.46085 0
M  V30 2852 H 255.985 1.80488 6.71155 0
M  V30 2853 H 259.176 0.933209 4.58703 0
M  V30 2854 H 259.349 1.53846 6.29472 0
M  V30 2855 N 252.755 -1.56801 0.158532 0
M  V30 2856 C 254.004 -1.95665 -0.489702 0
M  V30 2857 C 254.317 -1.04654 -1.65248 0
M  V30 2858 O 255.523 -1.33146 -2.3661 0
M  V30 2859 C 253.979 -3.47874 -0.922582 0
M  V30 2860 C 253.587 -4.47489 0.213893 0
M  V30 2861 C 255.331 -3.95583 -1.53996 0
M  V30 2862 C 253.238 -5.90921 -0.237903 0
M  V30 2863 H 252.168 -0.730516 -0.186716 0
M  V30 2864 H 254.819 -1.81861 0.244722 0
M  V30 2865 H 253.201 -3.57051 -1.71261 0
M  V30 2866 H 254.375 -4.50017 0.991036 0
M  V30 2867 H 252.69 -4.09764 0.740407 0
M  V30 2868 H 255.287 -5.0019 -1.8898 0
M  V30 2869 H 255.63 -3.37789 -2.43319 0
M  V30 2870 H 256.163 -3.8937 -0.814611 0
M  V30 2871 H 252.902 -6.52559 0.620236 0
M  V30 2872 H 252.422 -5.91729 -0.980676 0
M  V30 2873 H 254.101 -6.43352 -0.686067 0
M  V30 2874 N 254.233 0.115231 -1.57178 0
M  V30 2875 C 255.165 1.16694 -1.97269 0
M  V30 2876 C 256.178 1.37445 -0.872502 0
M  V30 2877 O 257.367 1.36454 -1.15077 0
M  V30 2878 C 254.467 2.52627 -2.25905 0
M  V30 2879 C 253.64 2.52427 -3.57211 0
M  V30 2880 C 252.699 3.70134 -3.74016 0
M  V30 2881 O 251.725 3.53546 -4.46087 0
M  V30 2882 N 252.927 4.88844 -3.13068 0
M  V30 2883 H 255.692 0.82588 -2.88096 0
M  V30 2884 H 253.253 0.304461 -1.59011 0
M  V30 2885 H 255.245 3.29937 -2.34359 0
M  V30 2886 H 253.815 2.789 -1.41186 0
M  V30 2887 H 253.035 1.60805 -3.5991 0
M  V30 2888 H 254.323 2.49353 -4.43509 0
M  V30 2889 H 253.721 5.05225 -2.54489 0
M  V30 2890 H 252.278 5.63817 -3.27037 0
M  V30 2891 N 255.711 1.52812 0.385517 0
M  V30 2892 C 256.659 1.78482 1.49155 0
M  V30 2893 C 257.653 0.652914 1.56312 0
M  V30 2894 O 258.859 0.835464 1.59436 0
M  V30 2895 H 255.234 0.5648 0.496493 0
M  V30 2896 H 257.205 2.71095 1.24699 0
M  V30 2897 C 255.954 1.97378 2.86247 0
M  V30 2898 H 255.277 2.83907 2.81491 0
M  V30 2899 H 256.717 2.19327 3.62866 0
M  V30 2900 C 255.176 0.74728 3.28508 0
M  V30 2901 O 255.706 -0.0736232 4.01633 0
M  V30 2902 N 253.912 0.576396 2.84826 0
M  V30 2903 H 253.459 1.24555 2.25486 0
M  V30 2904 H 253.417 -0.24288 3.1346 0
M  V30 2905 N 257.189 -0.644168 1.43834 0
M  V30 2906 C 258.435 -1.40431 1.47141 0
M  V30 2907 C 258.79 -1.92153 0.0975577 0
M  V30 2908 O 258.083 -1.69924 -0.885232 0
M  V30 2909 C 258.277 -2.59615 2.45631 0
M  V30 2910 C 258.106 -2.1956 3.92458 0
M  V30 2911 C 256.876 -2.07456 4.60749 0
M  V30 2912 C 259.074 -1.79281 4.8204 0
M  V30 2913 N 257.056 -1.60827 5.92459 0
M  V30 2914 C 258.427 -1.43801 6.03093 0
M  V30 2915 C 260.482 -1.66545 4.6922 0
M  V30 2916 C 259.185 -0.968599 7.12749 0
M  V30 2917 C 261.211 -1.21008 5.78888 0
M  V30 2918 C 260.573 -0.864711 6.99072 0
M  V30 2919 H 256.672 -0.509182 0.593513 0
M  V30 2920 H 259.256 -0.740351 1.80075 0
M  V30 2921 H 257.427 -3.23658 2.1471 0
M  V30 2922 H 259.159 -3.26357 2.39318 0
M  V30 2923 H 255.914 -2.275 4.1538 0
M  V30 2924 H 256.338 -1.39848 6.62398 0
M  V30 2925 H 260.98 -1.91883 3.7675 0
M  V30 2926 H 258.698 -0.702715 8.05039 0
M  V30 2927 H 262.284 -1.11631 5.7099 0
M  V30 2928 H 261.164 -0.517736 7.82489 0
M  V30 2929 N 258.668 -1.30515 -0.883378 0
M  V30 2930 C 259.618 -1.13641 -1.9766 0
M  V30 2931 C 260.602 -0.0511314 -1.60819 0
M  V30 2932 O 261.794 -0.274623 -1.74857 0
M  V30 2933 C 258.923 -0.831976 -3.33066 0
M  V30 2934 C 258.009 -1.95759 -3.76217 0
M  V30 2935 N 258.4 -3.20313 -3.9145 0
M  V30 2936 C 256.698 -1.85431 -4.05625 0
M  V30 2937 C 257.399 -3.93856 -4.2808 0
M  V30 2938 N 256.375 -3.21919 -4.38029 0
M  V30 2939 H 260.177 -2.08106 -2.07531 0
M  V30 2940 H 257.691 -1.21877 -1.0733 0
M  V30 2941 H 259.688 -0.692102 -4.11115 0
M  V30 2942 H 258.348 0.104588 -3.24532 0
M  V30 2943 H 259.359 -3.55583 -3.76538 0
M  V30 2944 H 256.036 -0.991531 -4.05555 0
M  V30 2945 H 257.426 -5.01125 -4.47575 0
M  V30 2946 N 260.146 1.09593 -1.13257 0
M  V30 2947 C 261.056 2.19739 -0.821691 0
M  V30 2948 C 262.072 1.72926 0.19302 0
M  V30 2949 O 263.248 2.01385 0.0244895 0
M  V30 2950 C 260.313 3.45482 -0.290333 0
M  V30 2951 C 259.374 4.06985 -1.36607 0
M  V30 2952 C 258.607 5.26726 -0.859975 0
M  V30 2953 O 258.83 5.69594 0.303082 0
M  V30 2954 O 257.764 5.7931 -1.63351 0
M  V30 2955 H 261.59 2.48781 -1.74189 0
M  V30 2956 H 259.175 1.18496 -0.909894 0
M  V30 2957 H 261.057 4.214 0.000674022 0
M  V30 2958 H 259.732 3.18047 0.602306 0
M  V30 2959 H 258.639 3.32712 -1.71037 0
M  V30 2960 H 259.972 4.38643 -2.23279 0
M  V30 2961 N 261.624 0.925811 1.2754 0
M  V30 2962 C 262.534 0.428993 2.30644 0
M  V30 2963 C 263.55 -0.489387 1.66976 0
M  V30 2964 O 264.726 -0.372653 1.97922 0
M  V30 2965 C 261.791 -0.311967 3.45294 0
M  V30 2966 C 260.852 0.641098 4.24486 0
M  V30 2967 C 260.085 -0.0645955 5.33661 0
M  V30 2968 O 260.308 -1.28429 5.55754 0
M  V30 2969 O 259.242 0.606265 5.98839 0
M  V30 2970 H 263.068 1.28504 2.75173 0
M  V30 2971 H 260.653 0.691086 1.32455 0
M  V30 2972 H 262.535 -0.729972 4.15029 0
M  V30 2973 H 261.21 -1.14365 3.02824 0
M  V30 2974 H 260.117 1.10874 3.57292 0
M  V30 2975 H 261.45 1.43995 4.70666 0
M  V30 2976 N 263.102 -1.41638 0.69111 0
M  V30 2977 C 264.052 -2.28 -0.000107832 0
M  V30 2978 C 265.036 -1.41964 -0.757304 0
M  V30 2979 O 266.228 -1.65274 -0.633532 0
M  V30 2980 C 263.357 -3.30209 -0.938983 0
M  V30 2981 C 262.443 -4.23725 -0.17827 0
M  V30 2982 N 262.834 -4.99017 0.825563 0
M  V30 2983 C 261.132 -4.44071 -0.414392 0
M  V30 2984 C 261.833 -5.67431 1.28052 0
M  V30 2985 N 260.809 -5.40197 0.607304 0
M  V30 2986 H 264.611 -2.83644 0.769617 0
M  V30 2987 H 262.125 -1.53797 0.521562 0
M  V30 2988 H 264.122 -3.90898 -1.44929 0
M  V30 2989 H 262.782 -2.76126 -1.70836 0
M  V30 2990 H 263.793 -5.03671 1.20566 0
M  V30 2991 H 260.47 -4.01004 -1.162 0
M  V30 2992 H 261.86 -6.37801 2.11327 0
M  V30 2993 N 264.58 -0.43555 -1.51462 0
M  V30 2994 C 265.996 -0.0877501 -1.59359 0
M  V30 2995 C 266.196 1.4027 -1.4466 0
M  V30 2996 O 265.252 2.17243 -1.28693 0
M  V30 2997 C 266.565 -0.606264 -2.94525 0
M  V30 2998 C 268.113 -0.566548 -3.0783 0
M  V30 2999 C 268.588 -1.06201 -4.45517 0
M  V30 3000 N 270.079 -1.01992 -4.51832 0
M  V30 3001 C 270.814 -1.37417 -5.5669 0
M  V30 3002 N 270.31 -1.80119 -6.68976 0
M  V30 3003 N 272.103 -1.29245 -5.47039 0
M  V30 3004 H 264.254 -1.40533 -1.59261 0
M  V30 3005 H 266.517 -0.578992 -0.750648 0
M  V30 3006 H 266.223 -1.64901 -3.10645 0
M  V30 3007 H 266.097 -0.0302097 -3.77188 0
M  V30 3008 H 268.484 0.467208 -2.91378 0
M  V30 3009 H 268.565 -1.17898 -2.2701 0
M  V30 3010 H 268.209 -2.09422 -4.62715 0
M  V30 3011 H 268.139 -0.426127 -5.24873 0
M  V30 3012 H 270.63 -0.706308 -3.71241 0
M  V30 3013 H 270.943 -2.05392 -7.45006 0
M  V30 3014 H 269.288 -1.84044 -6.70189 0
M  V30 3015 H 272.479 -0.957522 -4.58202 0
M  V30 3016 H 272.652 -1.57182 -6.28648 0
M  V30 3017 N 266.058 1.56714 -0.166846 0
M  V30 3018 C 267.306 1.96358 0.478305 0
M  V30 3019 C 267.627 1.0537 1.6408 0
M  V30 3020 O 266.897 0.119154 1.95537 0
M  V30 3021 H 265.477 0.725065 0.179692 0
M  V30 3022 H 268.139 1.93329 -0.246985 0
M  V30 3023 H 267.235 3.00547 0.841292 0
M  V30 3024 N 267.536 -0.106894 1.57237 0
M  V30 3025 C 268.469 -1.16125 1.96444 0
M  V30 3026 C 269.447 -1.3947 0.835871 0
M  V30 3027 O 270.631 -1.53425 1.09513 0
M  V30 3028 C 267.758 -2.51277 2.27107 0
M  V30 3029 C 266.804 -2.44285 3.4961 0
M  V30 3030 S 267.637 -1.87077 5.01759 0
M  V30 3031 C 268.793 -3.23877 5.35588 0
M  V30 3032 H 269.026 -0.826971 2.85567 0
M  V30 3033 H 266.559 -0.314124 1.51171 0
M  V30 3034 H 268.517 -3.29035 2.45451 0
M  V30 3035 H 267.178 -2.81879 1.38576 0
M  V30 3036 H 266.371 -3.4387 3.68469 0
M  V30 3037 H 265.973 -1.74652 3.30715 0
M  V30 3038 H 268.265 -4.20122 5.31511 0
M  V30 3039 H 269.208 -3.09833 6.36717 0
M  V30 3040 H 269.616 -3.22864 4.63054 0
M  V30 3041 N 269.014 -1.53014 -0.377408 0
M  V30 3042 C 269.944 -1.81589 -1.46791 0
M  V30 3043 C 270.925 -0.668622 -1.56408 0
M  V30 3044 O 272.11 -0.917337 -1.71168 0
M  V30 3045 C 269.24 -1.99519 -2.8427 0
M  V30 3046 C 268.194 -3.15249 -2.89486 0
M  V30 3047 C 267.52 -3.18451 -4.29527 0
M  V30 3048 C 268.82 -4.54084 -2.58079 0
M  V30 3049 H 270.514 -2.7291 -1.23127 0
M  V30 3050 H 268.06 -1.31319 -0.590883 0
M  V30 3051 H 270.013 -2.18092 -3.60575 0
M  V30 3052 H 268.737 -1.04897 -3.09296 0
M  V30 3053 H 267.396 -2.96477 -2.15631 0
M  V30 3054 H 267.044 -2.2149 -4.5161 0
M  V30 3055 H 266.744 -3.962 -4.33934 0
M  V30 3056 H 268.268 -3.39193 -5.07721 0
M  V30 3057 H 269.682 -4.72899 -3.24098 0
M  V30 3058 H 268.079 -5.33987 -2.7382 0
M  V30 3059 H 269.149 -4.60006 -1.53372 0
M  V30 3060 N 270.492 0.636531 -1.44174 0
M  V30 3061 C 271.908 0.954104 -1.27941 0
M  V30 3062 C 272.108 2.0039 -0.211248 0
M  V30 3063 O 271.164 2.49236 0.404695 0
M  V30 3064 C 272.477 1.4225 -2.64925 0
M  V30 3065 C 274.025 1.53827 -2.72592 0
M  V30 3066 C 274.5 2.04053 -4.10032 0
M  V30 3067 N 275.991 2.11331 -4.12182 0
M  V30 3068 C 276.726 2.51352 -5.15374 0
M  V30 3069 N 276.222 2.90549 -6.2893 0
M  V30 3070 N 278.015 2.51438 -5.02728 0
M  V30 3071 H 270.166 -0.0578386 -2.12321 0
M  V30 3072 H 272.429 0.0367406 -0.947288 0
M  V30 3073 H 272.135 0.725466 -3.44136 0
M  V30 3074 H 272.009 2.39451 -2.9145 0
M  V30 3075 H 274.396 2.22628 -1.93702 0
M  V30 3076 H 274.477 0.550154 -2.49814 0
M  V30 3077 H 274.121 1.35848 -4.89395 0
M  V30 3078 H 274.051 3.03726 -4.30184 0
M  V30 3079 H 276.542 1.83745 -3.30222 0
M  V30 3080 H 276.855 3.19884 -7.03487 0
M  V30 3081 H 275.2 2.88313 -6.32377 0
M  V30 3082 H 278.391 2.20203 -4.13072 0
M  V30 3083 H 278.564 2.82304 -5.83274 0
M  V30 3084 N 271.97 1.30982 0.876444 0
M  V30 3085 C 272.88 1.2003 2.01569 0
M  V30 3086 C 273.896 0.11838 1.73597 0
M  V30 3087 O 275.072 0.33495 1.98595 0
M  V30 3088 C 272.137 0.901637 3.34771 0
M  V30 3089 C 271.198 2.06979 3.76109 0
M  V30 3090 C 270.431 1.78529 5.02954 0
M  V30 3091 O 270.654 0.717296 5.65872 0
M  V30 3092 O 269.588 2.64019 5.40905 0
M  V30 3093 H 273.414 2.15753 2.13739 0
M  V30 3094 H 270.999 1.10658 1.00375 0
M  V30 3095 H 272.881 0.750645 4.1466 0
M  V30 3096 H 271.556 -0.0256141 3.2369 0
M  V30 3097 H 270.463 2.27616 2.96887 0
M  V30 3098 H 271.796 2.97907 3.91807 0
M  V30 3099 N 273.449 -1.08991 1.13837 0
M  V30 3100 C 274.726 -1.77863 0.813876 0
M  V30 3101 C 275.106 -1.99375 -0.693746 0
M  V30 3102 O 274.454 -1.59875 -1.63255 0
M  V30 3103 C 274.664 -3.0986 1.60586 0
M  V30 3104 C 276.012 -3.84493 1.8014 0
M  V30 3105 O 277.036 -3.19624 1.57222 0
M  V30 3106 O 275.895 -5.00957 2.18413 0
M  V30 3107 H 272.989 -0.771589 0.297624 0
M  V30 3108 H 275.535 -1.15507 1.24323 0
M  V30 3109 H 274.307 -2.89715 2.63022 0
M  V30 3110 H 273.93 -3.79942 1.17173 0
M  V30 3111 N 274.927 -0.932562 -1.27047 0
M  V30 3112 C 276.152 -0.591474 -1.98787 0
M  V30 3113 C 276.577 0.824601 -1.69062 0
M  V30 3114 O 275.935 1.5541 -0.933677 0
M  V30 3115 C 275.983 -0.829808 -3.50922 0
M  V30 3116 O 275.087 0.102266 -4.12273 0
M  V30 3117 H 274.428 -0.227185 -0.623926 0
M  V30 3118 H 276.958 -1.25314 -1.61733 0
M  V30 3119 H 276.968 -0.747292 -4.01098 0
M  V30 3120 H 275.643 -1.86201 -3.7189 0
M  V30 3121 H 274.22 -0.0305761 -3.72887 0
M  V30 3122 N 276.405 1.4127 -0.698611 0
M  V30 3123 C 277.338 2.28195 0.0153898 0
M  V30 3124 C 278.316 1.42402 0.784883 0
M  V30 3125 O 279.5 1.71828 0.775067 0
M  V30 3126 C 276.627 3.22685 1.02918 0
M  V30 3127 C 275.673 4.25041 0.352501 0
M  V30 3128 S 276.506 5.27757 -0.907322 0
M  V30 3129 C 277.662 6.25812 0.104796 0
M  V30 3130 H 277.895 2.88403 -0.721858 0
M  V30 3131 H 275.428 1.46452 -0.488996 0
M  V30 3132 H 277.386 3.77655 1.60893 0
M  V30 3133 H 276.047 2.61566 1.73902 0
M  V30 3134 H 275.24 4.91437 1.11828 0
M  V30 3135 H 274.842 3.73682 -0.154254 0
M  V30 3136 H 277.134 6.70705 0.957103 0
M  V30 3137 H 278.077 7.06149 -0.525323 0
M  V30 3138 H 278.485 5.62615 0.460931 0
M  V30 3139 N 277.883 0.443576 1.51229 0
M  V30 3140 C 278.816 -0.410089 2.24485 0
M  V30 3141 C 279.794 -1.01949 1.26669 0
M  V30 3142 O 280.978 -1.06075 1.55821 0
M  V30 3143 C 278.105 -1.57211 3.00004 0
M  V30 3144 C 277.151 -1.08279 4.12526 0
M  V30 3145 S 277.984 -0.0197476 5.35496 0
M  V30 3146 C 279.14 -1.18629 6.14555 0
M  V30 3147 H 279.373 0.211832 2.96544 0
M  V30 3148 H 276.906 0.228156 1.52705 0
M  V30 3149 H 278.864 -2.23825 3.44111 0
M  V30 3150 H 277.525 -2.16547 2.27522 0
M  V30 3151 H 276.718 -1.95193 4.64667 0
M  V30 3152 H 276.32 -0.494797 3.70713 0
M  V30 3153 H 278.612 -2.10344 6.4402 0
M  V30 3154 H 279.555 -0.70472 7.04584 0
M  V30 3155 H 279.963 -1.42768 5.46148 0
M  V30 3156 N 279.361 -1.56624 0.175154 0
M  V30 3157 C 280.271 -2.21741 -0.766042 0
M  V30 3158 C 281.287 -1.21023 -1.25018 0
M  V30 3159 O 282.463 -1.53697 -1.3015 0
M  V30 3160 C 279.528 -2.84839 -1.97655 0
M  V30 3161 C 278.589 -4.00769 -1.53892 0
M  V30 3162 C 277.822 -4.60849 -2.69173 0
M  V30 3163 O 278.045 -4.19823 -3.86141 0
M  V30 3164 O 276.979 -5.50655 -2.43028 0
M  V30 3165 H 280.805 -3.02738 -0.241585 0
M  V30 3166 H 278.39 -1.49305 -0.053222 0
M  V30 3167 H 280.272 -3.24834 -2.68442 0
M  V30 3168 H 278.947 -2.06836 -2.48999 0
M  V30 3169 H 277.854 -3.65436 -0.80044 0
M  V30 3170 H 279.187 -4.80376 -1.07236 0
M  V30 3171 N 280.839 0.0985539 -1.57292 0
M  V30 3172 C 282.069 0.815135 -1.8984 0
M  V30 3173 C 282.477 1.7297 -0.766679 0
M  V30 3174 O 281.82 1.81698 0.270483 0
M  V30 3175 C 281.882 1.6842 -3.17608 0
M  V30 3176 C 281.546 0.94182 -4.4719 0
M  V30 3177 C 282.543 0.273212 -5.19182 0
M  V30 3178 C 280.228 0.916927 -4.9386 0
M  V30 3179 C 282.222 -0.410361 -6.36078 0
M  V30 3180 C 279.909 0.229567 -6.10669 0
M  V30 3181 C 280.907 -0.432902 -6.81627 0
M  V30 3182 O 280.595 -1.10925 -7.9621 0
M  V30 3183 H 280.327 0.238501 -0.632529 0
M  V30 3184 H 282.881 0.0812659 -2.05239 0
M  V30 3185 H 281.111 2.46022 -2.98345 0
M  V30 3186 H 282.8 2.27704 -3.36015 0
M  V30 3187 H 283.566 0.283927 -4.84168 0
M  V30 3188 H 279.445 1.42201 -4.3852 0
M  V30 3189 H 282.989 -0.928013 -6.914 0
M  V30 3190 H 278.886 0.216686 -6.45136 0
M  V30 3191 H 279.654 -1.01579 -8.12172 0
M  V30 3192 N 282.317 1.53212 0.369288 0
M  V30 3193 C 283.247 1.82365 1.45826 0
M  V30 3194 C 284.228 0.676907 1.56051 0
M  V30 3195 O 285.413 0.926401 1.70679 0
M  V30 3196 C 282.543 2.01023 2.83208 0
M  V30 3197 C 281.497 3.1678 2.8781 0
M  V30 3198 C 280.823 3.20724 4.27832 0
M  V30 3199 C 282.123 4.55447 2.55667 0
M  V30 3200 H 283.817 2.73559 1.21678 0
M  V30 3201 H 281.363 1.3163 0.583911 0
M  V30 3202 H 283.316 2.20001 3.59413 0
M  V30 3203 H 282.04 1.06536 3.08736 0
M  V30 3204 H 280.699 2.97616 2.14056 0
M  V30 3205 H 280.347 2.23882 4.50429 0
M  V30 3206 H 280.047 3.98496 4.31827 0
M  V30 3207 H 281.571 3.41881 5.05915 0
M  V30 3208 H 282.985 4.74611 3.21586 0
M  V30 3209 H 281.382 5.35432 2.70984 0
M  V30 3210 H 282.452 4.60812 1.5093 0
M  V30 3211 N 283.795 -0.628877 1.44509 0
M  V30 3212 C 284.742 -1.74074 1.51549 0
M  V30 3213 C 285.712 -1.62084 0.363021 0
M  V30 3214 O 286.897 -1.81975 0.573567 0
M  V30 3215 C 284.037 -3.12328 1.46784 0
M  V30 3216 C 283.15 -3.35277 2.72422 0
M  V30 3217 C 282.285 -4.63515 2.59475 0
M  V30 3218 C 281.324 -4.7965 3.80266 0
M  V30 3219 N 280.461 -5.99168 3.65981 0
M  V30 3220 H 285.301 -1.67392 2.46544 0
M  V30 3221 H 282.838 -0.816527 1.22357 0
M  V30 3222 H 284.796 -3.92286 1.42012 0
M  V30 3223 H 283.426 -3.18018 0.553544 0
M  V30 3224 H 282.478 -2.49242 2.87372 0
M  V30 3225 H 283.79 -3.43078 3.62076 0
M  V30 3226 H 282.944 -5.51638 2.52548 0
M  V30 3227 H 281.683 -4.58076 1.67384 0
M  V30 3228 H 280.688 -3.89957 3.87574 0
M  V30 3229 H 281.913 -4.86902 4.73395 0
M  V30 3230 H 279.859 -5.94814 2.76644 0
M  V30 3231 H 279.776 -6.08035 4.49254 0
M  V30 3232 H 281.044 -6.89846 3.6295 0
M  V30 3233 N 285.273 -1.31445 -0.869486 0
M  V30 3234 C 286.522 -1.20517 -1.61736 0
M  V30 3235 C 286.835 0.235341 -1.94179 0
M  V30 3236 O 288.041 0.466312 -2.67465 0
M  V30 3237 C 286.497 -2.10982 -2.91573 0
M  V30 3238 C 286.105 -3.60032 -2.66611 0
M  V30 3239 C 287.849 -2.08856 -3.69567 0
M  V30 3240 C 285.756 -4.42503 -3.92358 0
M  V30 3241 H 284.686 -0.447493 -0.606849 0
M  V30 3242 H 287.337 -1.56303 -0.96133 0
M  V30 3243 H 285.719 -1.68095 -3.58553 0
M  V30 3244 H 286.893 -4.11167 -2.08035 0
M  V30 3245 H 285.208 -3.64139 -2.0197 0
M  V30 3246 H 287.805 -2.67716 -4.62852 0
M  V30 3247 H 288.148 -1.07582 -4.02159 0
M  V30 3248 H 288.681 -2.49945 -3.09471 0
M  V30 3249 H 285.42 -5.44533 -3.64916 0
M  V30 3250 H 284.94 -3.96125 -4.50383 0
M  V30 3251 H 286.619 -4.54741 -4.60238 0
M  V30 3252 N 286.751 1.08385 -1.14413 0
M  V30 3253 C 287.714 2.13486 -0.834048 0
M  V30 3254 C 288.714 1.59988 0.161418 0
M  V30 3255 O 289.904 1.74071 -0.0669575 0
M  V30 3256 C 287.036 3.4003 -0.243354 0
M  V30 3257 H 288.229 2.42425 -1.7655 0
M  V30 3258 H 285.782 1.24101 -0.950189 0
M  V30 3259 H 286.517 3.16726 0.696807 0
M  V30 3260 H 286.302 3.80157 -0.960367 0
M  V30 3261 H 287.792 4.17577 -0.0436242 0
M  V30 3262 N 288.23 0.939286 1.26551 0
M  V30 3263 C 289.162 0.404704 2.25599 0
M  V30 3264 C 290.175 -0.470983 1.55838 0
M  V30 3265 O 291.364 -0.281734 1.76263 0
M  V30 3266 C 288.464 -0.43764 3.36062 0
M  V30 3267 C 287.637 0.421449 4.35365 0
M  V30 3268 C 286.696 -0.36015 5.24966 0
M  V30 3269 O 285.722 0.236167 5.6871 0
M  V30 3270 N 286.924 -1.65715 5.56344 0
M  V30 3271 H 289.689 1.25618 2.72103 0
M  V30 3272 H 287.25 0.807963 1.40298 0
M  V30 3273 H 289.242 -0.967866 3.92956 0
M  V30 3274 H 287.812 -1.18991 2.89067 0
M  V30 3275 H 287.032 1.1329 3.7757 0
M  V30 3276 H 288.32 1.00835 4.98708 0
M  V30 3277 H 287.718 -2.16378 5.22682 0
M  V30 3278 H 286.275 -2.13366 6.15888 0
M  V30 3279 N 289.708 -1.40897 0.706093 0
M  V30 3280 C 290.985 -1.94868 0.169099 0
M  V30 3281 C 291.365 -1.64485 -1.32318 0
M  V30 3282 O 290.713 -0.95744 -2.07474 0
M  V30 3283 C 290.923 -3.45798 0.471654 0
M  V30 3284 C 292.271 -4.22663 0.405127 0
M  V30 3285 O 293.295 -3.53865 0.407168 0
M  V30 3286 O 292.154 -5.45216 0.374383 0
M  V30 3287 H 289.248 -0.82673 0.0211352 0
M  V30 3288 H 291.794 -1.50558 0.782976 0
M  V30 3289 H 290.566 -3.61235 1.50416 0
M  V30 3290 H 290.189 -3.97225 -0.172666 0
M  V30 3291 N 291.186 -0.45159 -1.50991 0
M  V30 3292 C 292.116 0.342898 -2.30969 0
M  V30 3293 C 293.097 1.00815 -1.37005 0
M  V30 3294 O 294.282 1.00907 -1.65926 0
M  V30 3295 C 291.412 1.43637 -3.16205 0
M  V30 3296 C 290.366 0.893818 -4.18563 0
M  V30 3297 C 289.692 2.08411 -4.92411 0
M  V30 3298 C 290.992 -0.0815568 -5.22236 0
M  V30 3299 H 292.686 -0.324556 -2.97636 0
M  V30 3300 H 290.232 -0.157531 -1.43136 0
M  V30 3301 H 292.185 1.9995 -3.70942 0
M  V30 3302 H 290.909 2.13232 -2.47386 0
M  V30 3303 H 289.568 0.352798 -3.64898 0
M  V30 3304 H 289.216 2.76658 -4.20082 0
M  V30 3305 H 288.916 1.72741 -5.61636 0
M  V30 3306 H 290.44 2.65251 -5.49976 0
M  V30 3307 H 291.854 0.391742 -5.7196 0
M  V30 3308 H 290.251 -0.351551 -5.99069 0
M  V30 3309 H 291.321 -1.01374 -4.74185 0
M  V30 3310 N 292.664 1.56529 -0.183458 0
M  V30 3311 C 293.574 2.22144 0.754272 0
M  V30 3312 C 294.59 1.21684 1.24374 0
M  V30 3313 O 295.766 1.54385 1.29333 0
M  V30 3314 C 292.831 2.85884 1.96141 0
M  V30 3315 C 291.892 4.01579 1.51765 0
M  V30 3316 C 291.125 4.6227 2.66725 0
M  V30 3317 O 291.348 4.21865 3.83909 0
M  V30 3318 O 290.282 5.51936 2.40104 0
M  V30 3319 H 294.108 3.02861 0.225527 0
M  V30 3320 H 291.693 1.49331 0.0453032 0
M  V30 3321 H 293.575 3.26253 2.66715 0
M  V30 3322 H 292.25 2.08154 2.47899 0
M  V30 3323 H 291.157 3.65856 0.781049 0
M  V30 3324 H 292.49 4.80938 1.04686 0
M  V30 3325 N 294.142 -0.090211 1.57342 0
M  V30 3326 C 295.075 -1.14035 1.97664 0
M  V30 3327 C 296.053 -1.38576 0.850616 0
M  V30 3328 O 297.237 -1.52255 1.11134 0
M  V30 3329 C 294.364 -2.48854 2.2976 0
M  V30 3330 C 293.41 -2.40564 3.52181 0
M  V30 3331 S 294.243 -1.81745 5.03715 0
M  V30 3332 C 295.399 -3.18178 5.38993 0
M  V30 3333 H 295.632 -0.796636 2.86428 0
M  V30 3334 H 293.165 -0.298072 1.51496 0
M  V30 3335 H 295.123 -3.26413 2.48927 0
M  V30 3336 H 293.784 -2.80393 1.41558 0
M  V30 3337 H 292.977 -3.39942 3.72096 0
M  V30 3338 H 292.579 -1.71135 3.32549 0
M  V30 3339 H 294.871 -4.14461 5.35937 0
M  V30 3340 H 295.814 -3.03062 6.39968 0
M  V30 3341 H 296.222 -3.17935 4.66452 0
M  V30 3342 N 295.62 -1.53406 -0.361157 0
M  V30 3343 C 296.85 -1.73465 -1.1222 0
M  V30 3344 C 297.258 -0.465486 -1.83384 0
M  V30 3345 O 296.601 0.571611 -1.7458 0
M  V30 3346 C 296.663 -2.84834 -2.19339 0
M  V30 3347 C 296.327 -4.25038 -1.67903 0
M  V30 3348 C 297.324 -5.07231 -1.14074 0
M  V30 3349 C 295.009 -4.71464 -1.73282 0
M  V30 3350 C 297.003 -6.33942 -0.663068 0
M  V30 3351 C 294.69 -5.98153 -1.25127 0
M  V30 3352 C 295.688 -6.79223 -0.717296 0
M  V30 3353 O 295.376 -8.03533 -0.242865 0
M  V30 3354 H 295.108 -0.583526 -0.341283 0
M  V30 3355 H 297.662 -2.00964 -0.424591 0
M  V30 3356 H 295.892 -2.5282 -2.92607 0
M  V30 3357 H 297.581 -2.9303 -2.80871 0
M  V30 3358 H 298.347 -4.72534 -1.09254 0
M  V30 3359 H 294.226 -4.08432 -2.13786 0
M  V30 3360 H 297.77 -6.97167 -0.245612 0
M  V30 3361 H 293.667 -6.32347 -1.29642 0
M  V30 3362 H 294.435 -8.177 -0.361786 0
M  V30 3363 N 297.098 0.621204 -1.44841 0
M  V30 3364 C 298.346 1.37783 -1.47852 0
M  V30 3365 C 298.667 1.94653 -0.116224 0
M  V30 3366 O 297.937 1.76367 0.852737 0
M  V30 3367 H 296.517 0.511453 -0.544449 0
M  V30 3368 H 299.179 0.730446 -1.80694 0
M  V30 3369 H 298.275 2.20414 -2.20961 0
M  V30 3370 N 298.576 1.31904 0.862503 0
M  V30 3371 C 299.822 1.22197 1.61851 0
M  V30 3372 C 300.155 -0.217641 1.92977 0
M  V30 3373 O 299.43 -1.15264 1.56666 0
M  V30 3374 C 299.713 2.07378 2.94391 0
M  V30 3375 C 299.566 3.59678 2.70096 0
M  V30 3376 C 300.885 1.92891 3.95577 0
M  V30 3377 H 298.004 0.445255 0.587296 0
M  V30 3378 H 300.646 1.6177 0.99651 0
M  V30 3379 H 298.796 1.73758 3.47477 0
M  V30 3380 H 300.468 4.03472 2.23625 0
M  V30 3381 H 298.711 3.82735 2.04197 0
M  V30 3382 H 299.382 4.14595 3.64438 0
M  V30 3383 H 301.858 2.22327 3.51724 0
M  V30 3384 H 300.734 2.54781 4.86187 0
M  V30 3385 H 300.995 0.894315 4.3296 0
M  V30 3386 N 300.054 -1.07777 1.14986 0
M  V30 3387 C 301.002 -2.16964 0.838406 0
M  V30 3388 C 301.996 -1.68372 -0.186386 0
M  V30 3389 O 303.202 -1.79951 -0.0418465 0
M  V30 3390 H 299.577 -0.708006 0.253439 0
M  V30 3391 H 301.548 -2.40454 1.76704 0
M  V30 3392 C 300.297 -3.4604 0.339335 0
M  V30 3393 H 299.62 -3.83813 1.11927 0
M  V30 3394 H 301.06 -4.23698 0.160021 0
M  V30 3395 C 299.519 -3.23569 -0.938325 0
M  V30 3396 O 300.049 -3.47752 -2.01077 0
M  V30 3397 N 298.255 -2.77079 -0.876117 0
M  V30 3398 H 297.802 -2.576 -0.00322037 0
M  V30 3399 H 297.76 -2.62422 -1.73153 0
M  V30 3400 N 301.532 -0.945985 -1.26051 0
M  V30 3401 C 302.762 -0.612136 -1.97323 0
M  V30 3402 C 303.17 0.818171 -1.70595 0
M  V30 3403 O 302.513 1.55777 -0.973613 0
M  V30 3404 C 302.575 -0.780347 -3.50929 0
M  V30 3405 C 302.239 -2.18619 -4.01317 0
M  V30 3406 C 303.236 -3.16209 -4.12683 0
M  V30 3407 C 300.921 -2.50805 -4.35203 0
M  V30 3408 C 302.915 -4.44085 -4.57238 0
M  V30 3409 C 300.602 -3.78912 -4.79446 0
M  V30 3410 C 301.6 -4.75365 -4.90425 0
M  V30 3411 O 301.288 -6.01191 -5.3369 0
M  V30 3412 H 301.02 -0.229134 -0.635982 0
M  V30 3413 H 303.574 -1.27036 -1.61404 0
M  V30 3414 H 301.804 -0.0649864 -3.86645 0
M  V30 3415 H 303.493 -0.448842 -4.03411 0
M  V30 3416 H 304.259 -2.92668 -3.86744 0
M  V30 3417 H 300.138 -1.76463 -4.2589 0
M  V30 3418 H 303.682 -5.19373 -4.65723 0
M  V30 3419 H 299.579 -4.02265 -5.0483 0
M  V30 3420 H 300.347 -6.04442 -5.51899 0
M  V30 3421 N 303.011 1.40521 -0.713556 0
M  V30 3422 C 304.258 2.00923 -0.25219 0
M  V30 3423 C 304.586 1.56571 1.15395 0
M  V30 3424 O 303.841 0.775874 1.79663 0
M  V30 3425 C 304.14 3.56317 -0.278 0
M  V30 3426 C 303.806 4.20246 -1.63415 0
M  V30 3427 C 302.468 4.37422 -2.00538 0
M  V30 3428 C 304.82 4.55923 -2.52554 0
M  V30 3429 C 302.148 4.87558 -3.2635 0
M  V30 3430 C 304.5 5.07458 -3.77716 0
M  V30 3431 C 303.164 5.22843 -4.14959 0
M  V30 3432 H 302.434 0.735231 -0.0922829 0
M  V30 3433 H 305.081 1.68161 -0.916188 0
M  V30 3434 H 303.386 3.88976 0.469567 0
M  V30 3435 H 305.083 4.00883 0.0967819 0
M  V30 3436 H 301.673 4.07263 -1.33546 0
M  V30 3437 H 305.857 4.42291 -2.25149 0
M  V30 3438 H 301.113 4.97654 -3.55176 0
M  V30 3439 H 305.287 5.34041 -4.4696 0
M  V30 3440 H 302.914 5.61454 -5.12516 0
M  V30 3441 N 304.489 0.459591 1.5075 0
M  V30 3442 C 305.399 -0.34613 2.32033 0
M  V30 3443 C 306.415 -1.00686 1.41909 0
M  V30 3444 O 307.591 -0.997361 1.7497 0
M  V30 3445 C 304.656 -1.42029 3.16273 0
M  V30 3446 C 303.717 -0.777362 4.22203 0
M  V30 3447 C 302.95 -1.80034 5.02418 0
M  V30 3448 O 303.173 -3.02544 4.83553 0
M  V30 3449 O 302.107 -1.37853 5.85901 0
M  V30 3450 H 305.933 0.318054 3.0203 0
M  V30 3451 H 303.518 0.221663 1.47746 0
M  V30 3452 H 305.4 -2.04275 3.68578 0
M  V30 3453 H 304.075 -2.06815 2.49016 0
M  V30 3454 H 302.982 -0.116256 3.73919 0
M  V30 3455 H 304.315 -0.172634 4.91897 0
M  V30 3456 N 305.967 -1.56429 0.191757 0
M  V30 3457 C 307.216 -1.9666 -0.448088 0
M  V30 3458 C 307.529 -1.08136 -1.62991 0
M  V30 3459 O 308.735 -1.38135 -2.33733 0
M  V30 3460 C 307.191 -3.49753 -0.848585 0
M  V30 3461 C 306.799 -4.46935 0.308764 0
M  V30 3462 C 308.543 -3.9876 -1.4557 0
M  V30 3463 C 306.45 -5.91293 -0.112506 0
M  V30 3464 H 305.38 -0.734312 -0.171179 0
M  V30 3465 H 308.031 -1.81301 0.283242 0
M  V30 3466 H 306.413 -3.60604 -1.63649 0
M  V30 3467 H 307.587 -4.47813 1.08627 0
M  V30 3468 H 305.902 -4.08102 0.827158 0
M  V30 3469 H 308.499 -5.04086 -1.78328 0
M  V30 3470 H 308.842 -3.42875 -2.36099 0
M  V30 3471 H 309.375 -3.9101 -0.731836 0
M  V30 3472 H 306.114 -6.51097 0.758514 0
M  V30 3473 H 305.634 -5.93676 -0.854941 0
M  V30 3474 H 307.313 -6.44663 -0.549448 0
M  V30 3475 N 307.445 0.0818655 -1.57387 0
M  V30 3476 C 308.392 1.09834 -2.0299 0
M  V30 3477 C 309.362 1.39043 -0.908639 0
M  V30 3478 O 310.547 1.50282 -1.17559 0
M  V30 3479 C 307.687 2.40971 -2.47037 0
M  V30 3480 C 306.8 2.18379 -3.7274 0
M  V30 3481 C 305.935 3.43008 -4.0561 0
M  V30 3482 C 304.974 3.15736 -5.24383 0
M  V30 3483 N 304.111 4.32667 -5.52941 0
M  V30 3484 H 308.951 0.702472 -2.89602 0
M  V30 3485 H 306.488 0.33531 -1.43227 0
M  V30 3486 H 308.446 3.1752 -2.70623 0
M  V30 3487 H 307.076 2.78379 -1.63417 0
M  V30 3488 H 306.128 1.32569 -3.56552 0
M  V30 3489 H 307.44 1.94227 -4.59431 0
M  V30 3490 H 306.594 4.27958 -4.30043 0
M  V30 3491 H 305.333 3.70225 -3.17466 0
M  V30 3492 H 304.338 2.2918 -4.99757 0
M  V30 3493 H 305.563 2.8985 -6.14136 0
M  V30 3494 H 303.509 4.59935 -4.67756 0
M  V30 3495 H 303.426 4.11753 -6.34031 0
M  V30 3496 H 304.694 5.18644 -5.81918 0
M  V30 3497 N 308.923 1.53595 0.353017 0
M  V30 3498 C 309.871 1.81605 1.45335 0
M  V30 3499 C 310.865 0.685923 1.54892 0
M  V30 3500 O 312.071 0.869095 1.57628 0
M  V30 3501 H 308.446 0.575204 0.484401 0
M  V30 3502 H 310.417 2.73679 1.18921 0
M  V30 3503 C 309.166 2.03406 2.81995 0
M  V30 3504 H 308.489 2.89814 2.75405 0
M  V30 3505 H 309.929 2.26975 3.58132 0
M  V30 3506 C 308.388 0.816794 3.26849 0
M  V30 3507 O 308.918 0.0115856 4.01698 0
M  V30 3508 N 307.124 0.636682 2.8354 0
M  V30 3509 H 306.671 1.2931 2.22793 0
M  V30 3510 H 306.629 -0.176336 3.13905 0
M  V30 3511 N 310.401 -0.613514 1.45168 0
M  V30 3512 C 311.348 -1.72456 1.53387 0
M  V30 3513 C 312.318 -1.6169 0.380191 0
M  V30 3514 O 313.503 -1.81356 0.592836 0
M  V30 3515 C 310.643 -3.10753 1.50088 0
M  V30 3516 C 309.756 -3.32368 2.75963 0
M  V30 3517 C 308.891 -4.60737 2.64376 0
M  V30 3518 C 307.93 -4.7559 3.85332 0
M  V30 3519 N 307.067 -5.95253 3.72315 0
M  V30 3520 H 311.907 -1.64768 2.48305 0
M  V30 3521 H 309.444 -0.803503 1.23216 0
M  V30 3522 H 311.402 -3.90758 1.46164 0
M  V30 3523 H 310.032 -3.17413 0.587243 0
M  V30 3524 H 309.084 -2.4618 2.89999 0
M  V30 3525 H 310.396 -3.39218 3.65695 0
M  V30 3526 H 309.55 -5.48928 2.58385 0
M  V30 3527 H 308.289 -4.56275 1.72233 0
M  V30 3528 H 307.294 -3.85824 3.91688 0
M  V30 3529 H 308.519 -4.81854 4.78533 0
M  V30 3530 H 306.465 -5.91847 2.82937 0
M  V30 3531 H 306.382 -6.03236 4.55677 0
M  V30 3532 H 307.65 -6.85958 3.70246 0
M  V30 3533 N 311.879 -1.3236 -0.855495 0
M  V30 3534 C 312.826 -1.21225 -1.964 0
M  V30 3535 C 313.796 -0.0946204 -1.6583 0
M  V30 3536 O 314.981 -0.27002 -1.8888 0
M  V30 3537 C 312.121 -0.940419 -3.32039 0
M  V30 3538 C 311.234 -2.14276 -3.75113 0
M  V30 3539 C 310.369 -1.80648 -4.9954 0
M  V30 3540 C 309.408 -2.97208 -5.35102 0
M  V30 3541 N 308.545 -2.63678 -6.50706 0
M  V30 3542 H 313.385 -2.16042 -2.05255 0
M  V30 3543 H 310.922 -1.07451 -1.00463 0
M  V30 3544 H 312.88 -0.763311 -4.10158 0
M  V30 3545 H 311.51 -0.0290413 -3.22787 0
M  V30 3546 H 310.562 -2.43017 -2.92655 0
M  V30 3547 H 311.874 -3.01468 -3.97389 0
M  V30 3548 H 311.028 -1.59484 -5.85363 0
M  V30 3549 H 309.767 -0.906678 -4.79198 0
M  V30 3550 H 308.772 -3.19004 -4.47791 0
M  V30 3551 H 309.997 -3.87918 -5.57401 0
M  V30 3552 H 307.943 -1.76238 -6.31883 0
M  V30 3553 H 307.86 -3.444 -6.72997 0
M  V30 3554 H 309.128 -2.45942 -7.39684 0
M  V30 3555 N 313.357 1.07166 -1.15556 0
M  V30 3556 C 314.605 1.79443 -0.929764 0
M  V30 3557 C 314.926 1.87246 0.544414 0
M  V30 3558 O 314.196 1.37473 1.39564 0
M  V30 3559 H 312.776 0.664625 -0.341003 0
M  V30 3560 H 315.438 1.29499 -1.45657 0
M  V30 3561 H 314.534 2.81832 -1.34079 0
M  V30 3562 N 314.835 0.952656 1.25548 0
M  V30 3563 C 316.063 0.623496 1.97282 0
M  V30 3564 C 316.478 -0.803987 1.70826 0
M  V30 3565 O 315.835 -1.53755 0.983147 0
M  V30 3566 C 315.886 0.870209 3.5087 0
M  V30 3567 O 315.607 2.24156 3.76412 0
M  V30 3568 C 317.108 0.553164 4.39835 0
M  V30 3569 H 314.328 0.233931 0.628902 0
M  V30 3570 H 316.872 1.27649 1.59768 0
M  V30 3571 H 315.027 0.263652 3.86502 0
M  V30 3572 H 315.441 2.31021 4.70882 0
M  V30 3573 H 316.915 0.776342 5.46513 0
M  V30 3574 H 317.392 -0.512215 4.36203 0
M  V30 3575 H 317.998 1.13896 4.09766 0
M  V30 3576 N 316.313 -1.40141 0.720998 0
M  V30 3577 C 317.223 -2.34486 0.0731031 0
M  V30 3578 C 318.239 -1.57587 -0.737723 0
M  V30 3579 O 319.415 -1.89949 -0.669429 0
M  V30 3580 C 316.48 -3.36528 -0.833656 0
M  V30 3581 C 315.541 -4.29298 -0.0121673 0
M  V30 3582 C 314.774 -5.26466 -0.875742 0
M  V30 3583 O 314.997 -5.29745 -2.11485 0
M  V30 3584 O 313.931 -6.01092 -0.31185 0
M  V30 3585 H 317.757 -2.9152 0.851444 0
M  V30 3586 H 315.342 -1.41427 0.481527 0
M  V30 3587 H 317.224 -3.99093 -1.35289 0
M  V30 3588 H 315.899 -2.81899 -1.59105 0
M  V30 3589 H 314.806 -3.70001 0.552262 0
M  V30 3590 H 316.139 -4.87094 0.707129 0
M  V30 3591 N 317.792 -0.46758 -1.50504 0
M  V30 3592 C 318.722 0.318381 -2.31319 0
M  V30 3593 C 319.703 0.993564 -1.38066 0
M  V30 3594 O 320.888 0.991411 -1.66987 0
M  V30 3595 C 318.018 1.40275 -3.17711 0
M  V30 3596 C 316.972 0.849373 -4.19487 0
M  V30 3597 C 316.298 2.03177 -4.94594 0
M  V30 3598 C 317.598 -0.136942 -5.2212 0
M  V30 3599 H 319.292 -0.356106 -2.97275 0
M  V30 3600 H 316.838 -0.172703 -1.42961 0
M  V30 3601 H 318.791 1.96004 -3.73042 0
M  V30 3602 H 317.515 2.10596 -2.49634 0
M  V30 3603 H 316.174 0.314076 -3.65252 0
M  V30 3604 H 315.822 2.72187 -4.22993 0
M  V30 3605 H 315.522 1.66774 -5.63436 0
M  V30 3606 H 317.046 2.59403 -5.52759 0
M  V30 3607 H 318.46 0.331056 -5.72343 0
M  V30 3608 H 316.857 -0.41507 -5.98663 0
M  V30 3609 H 317.927 -1.06398 -4.73083 0
M  V30 3610 N 319.27 1.56325 -0.20005 0
M  V30 3611 C 320.516 1.98772 0.431408 0
M  V30 3612 C 320.871 1.0849 1.58895 0
M  V30 3613 O 320.164 0.130331 1.91156 0
M  V30 3614 C 320.358 3.4495 0.935103 0
M  V30 3615 C 320.187 4.49371 -0.172096 0
M  V30 3616 C 318.957 5.0134 -0.631377 0
M  V30 3617 C 321.155 5.04822 -0.982806 0
M  V30 3618 N 319.137 5.89433 -1.71588 0
M  V30 3619 C 320.508 5.89632 -1.91661 0
M  V30 3620 C 322.563 4.87242 -1.02467 0
M  V30 3621 C 321.266 6.58741 -2.88881 0
M  V30 3622 C 323.292 5.57094 -1.98494 0
M  V30 3623 C 322.654 6.41655 -2.90617 0
M  V30 3624 H 318.753 0.771922 0.125144 0
M  V30 3625 H 321.337 1.92266 -0.306883 0
M  V30 3626 H 319.508 3.51946 1.64282 0
M  V30 3627 H 321.24 3.74354 1.53758 0
M  V30 3628 H 317.995 4.73071 -0.223827 0
M  V30 3629 H 318.419 6.38182 -2.25948 0
M  V30 3630 H 323.061 4.21538 -0.326408 0
M  V30 3631 H 320.779 7.23641 -3.5968 0
M  V30 3632 H 324.365 5.45466 -2.0238 0
M  V30 3633 H 323.245 6.94755 -3.63711 0
M  V30 3634 N 320.748 -0.0735177 1.57428 0
M  V30 3635 C 321.678 -1.0879 2.06608 0
M  V30 3636 C 322.659 -1.40473 0.959237 0
M  V30 3637 O 323.844 -1.5013 1.23185 0
M  V30 3638 C 320.974 -2.40183 2.50857 0
M  V30 3639 C 319.928 -2.22858 3.65402 0
M  V30 3640 C 319.254 -3.59619 3.957 0
M  V30 3641 C 320.554 -1.65123 4.95511 0
M  V30 3642 H 322.248 -0.678673 2.91607 0
M  V30 3643 H 319.794 -0.325013 1.40284 0
M  V30 3644 H 321.747 -3.11437 2.83874 0
M  V30 3645 H 320.471 -2.83083 1.62885 0
M  V30 3646 H 319.13 -1.54045 3.32664 0
M  V30 3647 H 318.778 -4.00086 3.04861 0
M  V30 3648 H 318.478 -3.48866 4.72828 0
M  V30 3649 H 320.002 -4.32306 4.31212 0
M  V30 3650 H 321.416 -2.26241 5.26771 0
M  V30 3651 H 319.813 -1.65071 5.7695 0
M  V30 3652 H 320.883 -0.612559 4.81015 0
M  V30 3653 N 322.226 -1.5378 -0.344866 0
M  V30 3654 C 323.474 -1.70625 -1.08311 0
M  V30 3655 C 323.795 -0.471447 -1.89215 0
M  V30 3656 O 323.065 0.514616 -1.8902 0
M  V30 3657 H 321.645 -0.629058 -0.402859 0
M  V30 3658 H 324.307 -1.9103 -0.386459 0
M  V30 3659 H 323.403 -2.57656 -1.76124 0
M  V30 3660 N 323.704 0.605807 -1.45491 0
M  V30 3661 C 324.95 1.36679 -1.49823 0
M  V30 3662 C 325.283 1.93693 -0.140175 0
M  V30 3663 O 324.558 1.75158 0.845581 0
M  V30 3664 C 324.841 2.51337 -2.57879 0
M  V30 3665 C 324.694 1.99508 -4.03134 0
M  V30 3666 C 326.013 3.53463 -2.62205 0
M  V30 3667 H 323.132 0.495617 -0.545466 0
M  V30 3668 H 325.774 0.682732 -1.7731 0
M  V30 3669 H 323.924 3.09691 -2.34571 0
M  V30 3670 H 325.596 1.45789 -4.37656 0
M  V30 3671 H 323.839 1.30496 -4.13707 0
M  V30 3672 H 324.51 2.82169 -4.74431 0
M  V30 3673 H 326.986 3.04953 -2.83095 0
M  V30 3674 H 325.862 4.31178 -3.39672 0
M  V30 3675 H 326.123 4.09197 -1.67363 0
M  V30 3676 N 325.182 1.32811 0.848464 0
M  V30 3677 C 326.459 1.14334 1.58704 0
M  V30 3678 C 326.839 -0.293948 2.09043 0
M  V30 3679 O 326.187 -1.29153 1.88499 0
M  V30 3680 C 326.397 2.17626 2.72837 0
M  V30 3681 C 327.745 2.51282 3.42261 0
M  V30 3682 O 328.769 2.16219 2.83068 0
M  V30 3683 O 327.628 3.11413 4.49093 0
M  V30 3684 H 324.722 0.441601 0.699226 0
M  V30 3685 H 327.268 1.44362 0.892053 0
M  V30 3686 H 326.04 3.14211 2.3321 0
M  V30 3687 H 325.663 1.88628 3.50008 0
M  V30 3688 N 326.66 -1.06551 1.16123 0
M  V30 3689 C 327.623 -2.12132 0.867906 0
M  V30 3690 C 328.623 -1.60224 -0.135944 0
M  V30 3691 O 329.813 -1.73943 0.0946422 0
M  V30 3692 C 326.945 -3.396 0.297419 0
M  V30 3693 H 328.138 -2.39586 1.80385 0
M  V30 3694 H 325.691 -1.22574 0.969812 0
M  V30 3695 H 326.426 -3.17794 -0.64633 0
M  V30 3696 H 326.211 -3.78581 1.02073 0
M  V30 3697 H 327.701 -4.17455 0.110052 0
M  V30 3698 N 328.138 -0.959301 -1.25041 0
M  V30 3699 C 329.068 -0.501388 -2.28053 0
M  V30 3700 C 330.049 0.454673 -1.63911 0
M  V30 3701 O 331.234 0.352618 -1.90972 0
M  V30 3702 C 328.364 0.217224 -3.4662 0
M  V30 3703 C 327.318 -0.654034 -4.22973 0
M  V30 3704 C 326.644 0.195589 -5.34342 0
M  V30 3705 C 327.944 -1.93447 -4.85155 0
M  V30 3706 H 329.638 -1.36238 -2.66608 0
M  V30 3707 H 327.184 -0.656534 -1.28163 0
M  V30 3708 H 329.137 0.548732 -4.17812 0
M  V30 3709 H 327.861 1.1125 -3.07068 0
M  V30 3710 H 326.52 -0.968693 -3.5357 0
M  V30 3711 H 326.168 1.09076 -4.91031 0
M  V30 3712 H 325.868 -0.384091 -5.86343 0
M  V30 3713 H 327.392 0.521958 -6.08365 0
M  V30 3714 H 328.806 -1.66908 -5.48466 0
M  V30 3715 H 327.203 -2.46018 -5.47353 0
M  V30 3716 H 328.273 -2.63466 -4.07079 0
M  V30 3717 N 329.616 1.39756 -0.72842 0
M  V30 3718 C 330.864 2.00248 -0.272946 0
M  V30 3719 C 331.185 1.58077 1.14178 0
M  V30 3720 O 330.455 0.826014 1.77634 0
M  V30 3721 H 329.035 0.740554 -0.0979247 0
M  V30 3722 H 331.697 1.70903 -0.936912 0
M  V30 3723 H 330.793 3.10495 -0.316142 0
M  V30 3724 N 331.094 0.475555 1.50254 0
M  V30 3725 C 332.024 -0.30611 2.31485 0
M  V30 3726 C 333.005 -0.986228 1.38591 0
M  V30 3727 O 334.19 -0.982541 1.67511 0
M  V30 3728 C 331.32 -1.38588 3.1845 0
M  V30 3729 C 330.274 -0.827115 4.19932 0
M  V30 3730 C 329.6 -2.00551 4.95665 0
M  V30 3731 C 330.9 0.16463 5.2204 0
M  V30 3732 H 332.594 0.371866 2.97082 0
M  V30 3733 H 330.14 0.180282 1.42867 0
M  V30 3734 H 332.093 -1.94023 3.74076 0
M  V30 3735 H 330.817 -2.09269 2.50747 0
M  V30 3736 H 329.476 -0.294702 3.65414 0
M  V30 3737 H 329.124 -2.6994 4.2443 0
M  V30 3738 H 328.824 -1.63784 5.64313 0
M  V30 3739 H 330.348 -2.56468 5.54127 0
M  V30 3740 H 331.762 -0.300699 5.72511 0
M  V30 3741 H 330.159 0.446813 5.98434 0
M  V30 3742 H 331.229 1.08905 4.72512 0
M  V30 3743 N 332.573 -1.56217 0.208337 0
M  V30 3744 C 333.521 -2.21053 -0.723769 0
M  V30 3745 C 334.515 -1.18578 -1.20978 0
M  V30 3746 O 335.721 -1.36691 -1.17114 0
M  V30 3747 H 332.096 -0.708595 -0.251788 0
M  V30 3748 H 334.067 -2.98006 -0.153365 0
M  V30 3749 C 332.816 -2.89417 -1.927 0
M  V30 3750 H 332.139 -3.68019 -1.56212 0
M  V30 3751 H 333.579 -3.38201 -2.55727 0
M  V30 3752 C 332.038 -1.91166 -2.77411 0
M  V30 3753 O 332.568 -1.42026 -3.75754 0
M  V30 3754 N 330.774 -1.59105 -2.43175 0
M  V30 3755 H 330.321 -1.99259 -1.63259 0
M  V30 3756 H 330.279 -0.936255 -3.00136 0
M  V30 3757 N 334.051 0.0651679 -1.57465 0
M  V30 3758 C 335.3 0.761916 -1.86756 0
M  V30 3759 C 335.613 1.78406 -0.801925 0
M  V30 3760 O 336.819 2.53084 -0.982885 0
M  V30 3761 C 335.275 1.40603 -3.31299 0
M  V30 3762 C 334.883 0.422115 -4.46007 0
M  V30 3763 C 336.627 2.08476 -3.69781 0
M  V30 3764 C 334.534 1.07252 -5.81593 0
M  V30 3765 H 333.464 0.288308 -0.696702 0
M  V30 3766 H 336.115 0.015344 -1.83494 0
M  V30 3767 H 334.497 2.20109 -3.29193 0
M  V30 3768 H 335.671 -0.343613 -4.59517 0
M  V30 3769 H 333.986 -0.152527 -4.16121 0
M  V30 3770 H 336.583 2.57925 -4.68379 0
M  V30 3771 H 336.926 2.88712 -2.99919 0
M  V30 3772 H 337.459 1.35792 -3.73905 0
M  V30 3773 H 334.198 0.310342 -6.54765 0
M  V30 3774 H 333.718 1.80895 -5.71872 0
M  V30 3775 H 335.397 1.59043 -6.27148 0
M  V30 3776 N 335.529 1.53961 0.336706 0
M  V30 3777 C 336.759 1.75229 1.09446 0
M  V30 3778 C 337.167 0.494602 1.82621 0
M  V30 3779 O 336.51 -0.543764 1.75468 0
M  V30 3780 C 336.572 2.88288 2.1478 0
M  V30 3781 C 336.236 4.27656 1.6112 0
M  V30 3782 C 337.233 5.08981 1.0599 0
M  V30 3783 C 334.918 4.74161 1.6576 0
M  V30 3784 C 336.912 6.34916 0.562129 0
M  V30 3785 C 334.599 6.00067 1.15595 0
M  V30 3786 C 335.597 6.80278 0.609147 0
M  V30 3787 O 335.285 8.03818 0.114999 0
M  V30 3788 H 335.017 0.588881 0.331956 0
M  V30 3789 H 337.571 2.01614 0.392566 0
M  V30 3790 H 335.801 2.57443 2.88548 0
M  V30 3791 H 337.49 2.97461 2.76174 0
M  V30 3792 H 338.256 4.74213 1.01722 0
M  V30 3793 H 334.135 4.11781 2.07261 0
M  V30 3794 H 337.679 6.9747 0.134668 0
M  V30 3795 H 333.576 6.3433 1.19566 0
M  V30 3796 H 334.344 8.18172 0.231651 0
M  V30 3797 N 337.007 -0.598083 1.45811 0
M  V30 3798 C 337.917 -1.73632 1.57763 0
M  V30 3799 C 338.933 -1.67763 0.461676 0
M  V30 3800 O 340.109 -1.87949 0.723685 0
M  V30 3801 C 337.174 -3.10114 1.55018 0
M  V30 3802 C 336.235 -3.27364 2.77726 0
M  V30 3803 C 335.468 -4.57334 2.75102 0
M  V30 3804 O 335.691 -5.40258 1.8297 0
M  V30 3805 O 334.625 -4.77502 3.66437 0
M  V30 3806 H 338.451 -1.66498 2.53992 0
M  V30 3807 H 336.036 -0.763308 1.28429 0
M  V30 3808 H 337.918 -3.9141 1.56129 0
M  V30 3809 H 336.593 -3.17718 0.619431 0
M  V30 3810 H 335.5 -2.45619 2.82174 0
M  V30 3811 H 336.833 -3.24641 3.69958 0
M  V30 3812 N 338.485 -1.33259 -0.841409 0
M  V30 3813 C 339.435 -1.19872 -1.93945 0
M  V30 3814 C 340.419 -0.102269 -1.60575 0
M  V30 3815 O 341.611 -0.330114 -1.73894 0
M  V30 3816 C 338.74 -0.937517 -3.30251 0
M  V30 3817 C 337.826 -2.07629 -3.69799 0
M  V30 3818 N 338.217 -3.32604 -3.81062 0
M  V30 3819 C 336.515 -1.98242 -3.9952 0
M  V30 3820 C 337.216 -4.07275 -4.15333 0
M  V30 3821 N 336.192 -3.35691 -4.27566 0
M  V30 3822 H 339.994 -2.14604 -2.00805 0
M  V30 3823 H 337.508 -1.2523 -1.03398 0
M  V30 3824 H 339.505 -0.822545 -4.08705 0
M  V30 3825 H 338.165 0.00128798 -3.247 0
M  V30 3826 H 339.176 -3.67382 -3.65035 0
M  V30 3827 H 335.853 -1.12005 -4.02195 0
M  V30 3828 H 337.243 -5.1511 -4.31406 0
M  V30 3829 N 339.963 1.05934 -1.16686 0
M  V30 3830 C 341.24 1.75643 -0.860747 0
M  V30 3831 C 341.62 2.01144 0.640641 0
M  V30 3832 O 340.968 1.64147 1.58959 0
M  V30 3833 C 341.178 3.05493 -1.68745 0
M  V30 3834 C 342.526 3.79581 -1.90271 0
M  V30 3835 O 343.55 3.15344 -1.65641 0
M  V30 3836 O 342.409 4.9499 -2.31618 0
M  V30 3837 H 339.503 0.763426 -0.317977 0
M  V30 3838 H 342.049 1.1217 -1.27342 0
M  V30 3839 H 340.821 2.8264 -2.70611 0
M  V30 3840 H 340.444 3.76702 -1.27206 0
M  V30 3841 N 341.441 0.965919 1.2453 0
M  V30 3842 C 342.718 0.543777 1.87889 0
M  V30 3843 C 343.098 -0.97909 1.87021 0
M  V30 3844 O 342.446 -1.84969 1.3416 0
M  V30 3845 C 342.656 1.13327 3.30088 0
M  V30 3846 C 344.004 1.21707 4.06783 0
M  V30 3847 O 345.028 1.08566 3.39252 0
M  V30 3848 O 343.887 1.42456 5.27606 0
M  V30 3849 H 340.981 0.181054 0.806938 0
M  V30 3850 H 343.527 1.06007 1.32516 0
M  V30 3851 H 342.299 2.17612 3.25209 0
M  V30 3852 H 341.922 0.600911 3.93033 0
M  V30 3853 N 342.919 -1.39368 0.735821 0
M  V30 3854 C 343.866 -2.30599 0.0963825 0
M  V30 3855 C 344.836 -1.49257 -0.728794 0
M  V30 3856 O 346.021 -1.77941 -0.688588 0
M  V30 3857 C 343.161 -3.35596 -0.804305 0
M  V30 3858 C 342.274 -4.31987 0.0335761 0
M  V30 3859 C 341.409 -5.24053 -0.868461 0
M  V30 3860 C 340.448 -6.12095 -0.0258776 0
M  V30 3861 N 339.585 -6.96514 -0.883893 0
M  V30 3862 H 344.425 -2.8471 0.880002 0
M  V30 3863 H 341.962 -1.40188 0.445619 0
M  V30 3864 H 343.92 -3.95062 -1.34096 0
M  V30 3865 H 342.55 -2.82938 -1.55389 0
M  V30 3866 H 341.602 -3.74133 0.68766 0
M  V30 3867 H 342.914 -4.94074 0.685036 0
M  V30 3868 H 342.068 -5.88549 -1.47293 0
M  V30 3869 H 340.807 -4.62289 -1.5537 0
M  V30 3870 H 339.812 -5.4661 0.591386 0
M  V30 3871 H 341.037 -6.75923 0.656156 0
M  V30 3872 H 338.983 -6.37318 -1.55441 0
M  V30 3873 H 338.9 -7.55448 -0.288931 0
M  V30 3874 H 340.168 -7.65439 -1.4739 0
M  V30 3875 N 344.397 -0.483516 -1.5 0
M  V30 3876 C 345.327 0.293829 -2.31644 0
M  V30 3877 C 346.308 0.978864 -1.39112 0
M  V30 3878 O 347.493 0.973644 -1.68029 0
M  V30 3879 C 344.623 1.36897 -3.19181 0
M  V30 3880 C 343.577 0.804833 -4.20365 0
M  V30 3881 C 342.903 1.9792 -4.96721 0
M  V30 3882 C 344.203 -0.192313 -5.21946 0
M  V30 3883 H 345.897 -0.387616 -2.9688 0
M  V30 3884 H 343.443 -0.187856 -1.42769 0
M  V30 3885 H 345.396 1.92037 -3.751 0
M  V30 3886 H 344.12 2.07936 -2.51853 0
M  V30 3887 H 342.779 0.275319 -3.65565 0
M  V30 3888 H 342.427 2.67686 -4.25856 0
M  V30 3889 H 342.127 1.60789 -5.65173 0
M  V30 3890 H 343.651 2.53526 -5.55479 0
M  V30 3891 H 345.065 0.270333 -5.72662 0
M  V30 3892 H 343.462 -0.478543 -5.98189 0
M  V30 3893 H 344.532 -1.11409 -4.71928 0
M  V30 3894 N 345.875 1.56104 -0.216619 0
M  V30 3895 C 347.103 2.02563 0.421413 0
M  V30 3896 C 347.518 1.0965 1.53695 0
M  V30 3897 O 346.875 0.10521 1.82196 0
M  V30 3898 C 346.926 3.48584 0.957665 0
M  V30 3899 O 346.647 4.37953 -0.113389 0
M  V30 3900 C 348.148 4.10664 1.66943 0
M  V30 3901 H 345.368 0.662944 0.103665 0
M  V30 3902 H 347.912 2.01793 -0.331629 0
M  V30 3903 H 346.067 3.49985 1.661 0
M  V30 3904 H 346.481 5.23704 0.288932 0
M  V30 3905 H 347.955 5.14622 1.99671 0
M  V30 3906 H 348.432 3.55373 2.58083 0
M  V30 3907 H 349.038 4.13098 1.01142 0
M  V30 3908 N 347.353 -0.0568162 1.57498 0
M  V30 3909 C 348.764 -0.606858 1.76562 0
M  V30 3910 C 349.115 -1.77114 0.844094 0
M  V30 3911 O 348.24 -2.16376 0.0318911 0
M  V30 3912 C 348.835 -1.10766 3.20182 0
M  V30 3913 C 347.394 -1.60344 3.40539 0
M  V30 3914 C 346.541 -0.529311 2.72201 0
M  V30 3915 H 349.492 0.169393 1.57793 0
M  V30 3916 H 349.513 -1.97602 3.25167 0
M  V30 3917 H 349.025 -0.26006 3.87228 0
M  V30 3918 H 347.126 -2.47379 2.78629 0
M  V30 3919 H 347.239 -1.67006 4.4905 0
M  V30 3920 H 345.603 -0.977893 2.35179 0
M  V30 3921 H 346.386 0.308352 3.41912 0
M  V30 3922 N 348.832 -1.54138 -0.328536 0
M  V30 3923 C 349.779 -1.83176 -1.40411 0
M  V30 3924 C 350.749 -0.678494 -1.5161 0
M  V30 3925 O 351.934 -0.92443 -1.6691 0
M  V30 3926 C 349.074 -2.06035 -2.76846 0
M  V30 3927 C 348.187 -3.33727 -2.74318 0
M  V30 3928 C 347.322 -3.46574 -4.02567 0
M  V30 3929 C 346.361 -4.68159 -3.94327 0
M  V30 3930 N 345.498 -4.77959 -5.14296 0
M  V30 3931 H 350.338 -2.74938 -1.14948 0
M  V30 3932 H 347.875 -1.36166 -0.556538 0
M  V30 3933 H 349.833 -2.1728 -3.56153 0
M  V30 3934 H 348.463 -1.1757 -3.00628 0
M  V30 3935 H 347.515 -3.31246 -1.8703 0
M  V30 3936 H 348.827 -4.23139 -2.64111 0
M  V30 3937 H 347.981 -3.57333 -4.90304 0
M  V30 3938 H 346.72 -2.55245 -4.15574 0
M  V30 3939 H 345.725 -4.57461 -3.04974 0
M  V30 3940 H 346.95 -5.60868 -3.82889 0
M  V30 3941 H 344.896 -3.89544 -5.27818 0
M  V30 3942 H 344.813 -5.6133 -5.06404 0
M  V30 3943 H 346.081 -4.93044 -6.03761 0
M  V30 3944 N 350.31 0.590341 -1.46126 0
M  V30 3945 C 351.559 1.34499 -1.50309 0
M  V30 3946 C 351.872 1.94977 -0.156021 0
M  V30 3947 O 353.078 2.71395 -0.0756037 0
M  V30 3948 C 351.534 2.43723 -2.64815 0
M  V30 3949 C 351.142 1.89582 -4.0591 0
M  V30 3950 C 352.886 3.20579 -2.78262 0
M  V30 3951 C 350.793 2.9639 -5.11769 0
M  V30 3952 H 349.723 0.505593 -0.559368 0
M  V30 3953 H 352.374 0.630848 -1.72315 0
M  V30 3954 H 350.756 3.17902 -2.36124 0
M  V30 3955 H 351.93 1.21997 -4.44357 0
M  V30 3956 H 350.245 1.25418 -3.97063 0
M  V30 3957 H 352.842 4.00276 -3.54519 0
M  V30 3958 H 353.185 3.72684 -1.85505 0
M  V30 3959 H 353.718 2.53505 -3.06562 0
M  V30 3960 H 350.457 2.49181 -6.06291 0
M  V30 3961 H 349.977 3.62487 -4.77873 0
M  V30 3962 H 351.656 3.60474 -5.37278 0
M  V30 3963 N 351.788 1.33704 0.83433 0
M  V30 3964 C 353.036 1.25169 1.58673 0
M  V30 3965 C 353.357 -0.18127 1.94156 0
M  V30 3966 O 352.627 -1.11113 1.6134 0
M  V30 3967 H 351.207 0.4603 0.58833 0
M  V30 3968 H 353.869 1.67478 0.996847 0
M  V30 3969 H 352.965 1.84856 2.51465 0
M  V30 3970 N 353.266 -1.05314 1.17247 0
M  V30 3971 C 354.513 -1.78293 0.960091 0
M  V30 3972 C 354.841 -1.87658 -0.51136 0
M  V30 3973 O 354.096 -1.3718 -1.39571 0
M  V30 3974 C 354.395 -3.2229 1.54479 0
M  V30 3975 C 354.061 -3.32987 3.04024 0
M  V30 3976 C 352.723 -3.35613 3.44844 0
M  V30 3977 C 355.075 -3.34102 4.00031 0
M  V30 3978 C 352.403 -3.36982 4.8027 0
M  V30 3979 C 354.755 -3.3701 5.35357 0
M  V30 3980 C 353.419 -3.37923 5.75642 0
M  V30 3981 H 352.689 -0.652422 0.351322 0
M  V30 3982 H 355.336 -1.23782 1.46117 0
M  V30 3983 H 353.641 -3.7972 0.965391 0
M  V30 3984 H 355.338 -3.77376 1.35603 0
M  V30 3985 H 351.928 -3.31655 2.71483 0
M  V30 3986 H 356.112 -3.31276 3.69554 0
M  V30 3987 H 351.368 -3.35999 5.10798 0
M  V30 3988 H 355.542 -3.36822 6.09528 0
M  V30 3989 H 353.169 -3.38738 6.80559 0
M  V30 3990 N 354.744 -0.972509 -1.24016 0
M  V30 3991 C 356.155 -0.67517 -1.74064 0
M  V30 3992 C 356.506 0.808939 -1.78747 0
M  V30 3993 O 355.631 1.63286 -1.42009 0
M  V30 3994 C 356.226 -1.21889 -3.16115 0
M  V30 3995 C 354.785 -0.971358 -3.6365 0
M  V30 3996 C 353.932 -1.35134 -2.42145 0
M  V30 3997 H 356.883 -1.14727 -1.09651 0
M  V30 3998 H 356.904 -0.587489 -3.75937 0
M  V30 3999 H 356.416 -2.29906 -3.12674 0
M  V30 4000 H 354.517 0.0930686 -3.72484 0
M  V30 4001 H 354.63 -1.62039 -4.50866 0
M  V30 4002 H 352.994 -0.769751 -2.4279 0
M  V30 4003 H 353.777 -2.4411 -2.41381 0
M  V30 4004 N 356.222 1.38976 -0.743202 0
M  V30 4005 C 357.468 2.01114 -0.304109 0
M  V30 4006 C 357.823 1.57929 1.09892 0
M  V30 4007 O 357.116 0.801983 1.74008 0
M  V30 4008 C 357.31 3.55647 -0.353517 0
M  V30 4009 C 357.139 4.13837 -1.75981 0
M  V30 4010 C 355.909 4.46062 -2.37395 0
M  V30 4011 C 358.107 4.36812 -2.71477 0
M  V30 4012 N 356.089 4.898 -3.70093 0
M  V30 4013 C 357.46 4.82844 -3.88923 0
M  V30 4014 C 359.515 4.18893 -2.69134 0
M  V30 4015 C 358.218 5.12837 -5.04371 0
M  V30 4016 C 360.244 4.50005 -3.83731 0
M  V30 4017 C 359.606 4.96251 -4.99914 0
M  V30 4018 H 355.705 0.765931 -0.157716 0
M  V30 4019 H 358.289 1.68763 -0.970931 0
M  V30 4020 H 356.46 3.87368 0.282987 0
M  V30 4021 H 358.192 4.04564 0.104904 0
M  V30 4022 H 354.947 4.34145 -1.89248 0
M  V30 4023 H 355.371 5.16016 -4.38242 0
M  V30 4024 H 360.013 3.82335 -1.80499 0
M  V30 4025 H 357.731 5.48297 -5.9363 0
M  V30 4026 H 361.317 4.37755 -3.83225 0
M  V30 4027 H 360.197 5.19867 -5.87118 0
M  V30 4028 N 357.7 0.491464 1.49741 0
M  V30 4029 C 358.925 -0.0557177 2.07325 0
M  V30 4030 C 359.35 -1.30925 1.35056 0
M  V30 4031 O 358.708 -1.76733 0.404365 0
M  V30 4032 C 358.756 -0.302074 3.59333 0
M  V30 4033 O 357.86 -1.37868 3.88672 0
M  V30 4034 H 357.201 0.0219956 0.663636 0
M  V30 4035 H 359.731 0.688352 1.92673 0
M  V30 4036 H 359.741 -0.536464 4.04458 0
M  V30 4037 H 358.416 0.61383 4.11345 0
M  V30 4038 H 356.993 -1.12999 3.55367 0
M  V30 4039 N 359.178 -1.55987 0.224894 0
M  V30 4040 C 360.088 -2.24066 -0.69511 0
M  V30 4041 C 361.104 -1.24939 -1.21104 0
M  V30 4042 O 362.28 -1.5776 -1.25195 0
M  V30 4043 C 359.345 -2.90983 -1.88493 0
M  V30 4044 C 358.406 -4.05462 -1.41064 0
M  V30 4045 C 357.639 -4.69179 -2.54375 0
M  V30 4046 O 357.862 -4.31895 -3.72589 0
M  V30 4047 O 356.796 -5.58108 -2.25386 0
M  V30 4048 H 360.622 -3.03353 -0.145149 0
M  V30 4049 H 358.207 -1.49399 -0.00569476 0
M  V30 4050 H 360.089 -3.33209 -2.57972 0
M  V30 4051 H 358.764 -2.14653 -2.42293 0
M  V30 4052 H 357.671 -3.67798 -0.683774 0
M  V30 4053 H 359.004 -4.83545 -0.918985 0
M  V30 4054 N 360.656 0.0484629 -1.57525 0
M  V30 4055 C 361.905 0.742065 -1.87553 0
M  V30 4056 C 362.218 1.77545 -0.820802 0
M  V30 4057 O 363.424 2.52027 -1.00967 0
M  V30 4058 C 361.88 1.37081 -3.32771 0
M  V30 4059 C 361.488 0.374786 -4.4643 0
M  V30 4060 C 363.232 2.04542 -3.71972 0
M  V30 4061 C 361.139 1.01077 -5.82698 0
M  V30 4062 H 360.069 0.280903 -0.699721 0
M  V30 4063 H 362.72 -0.00411877 -1.835 0
M  V30 4064 H 361.102 2.16605 -3.31509 0
M  V30 4065 H 362.276 -0.392331 -4.59127 0
M  V30 4066 H 360.591 -0.196653 -4.15935 0
M  V30 4067 H 363.188 2.52943 -4.71088 0
M  V30 4068 H 363.531 2.85515 -3.02964 0
M  V30 4069 H 364.064 1.31819 -3.75325 0
M  V30 4070 H 360.803 0.240878 -6.55057 0
M  V30 4071 H 360.323 1.74819 -5.73758 0
M  V30 4072 H 362.002 1.52383 -6.28799 0
M  V30 4073 N 362.134 1.5431 0.320358 0
M  V30 4074 C 363.55 1.45091 0.664889 0
M  V30 4075 C 363.75 0.626382 1.91517 0
M  V30 4076 O 362.806 0.126443 2.52183 0
M  V30 4077 C 364.119 2.88848 0.83591 0
M  V30 4078 C 365.667 2.9877 0.933046 0
M  V30 4079 C 366.142 4.43683 1.13621 0
M  V30 4080 N 367.633 4.47309 1.20287 0
M  V30 4081 C 368.368 5.56595 1.37801 0
M  V30 4082 N 367.864 6.75844 1.52338 0
M  V30 4083 N 369.657 5.44248 1.40535 0
M  V30 4084 H 361.808 2.06398 -0.501374 0
M  V30 4085 H 364.071 0.933963 -0.162534 0
M  V30 4086 H 363.777 3.51698 -0.0116092 0
M  V30 4087 H 363.651 3.35148 1.73078 0
M  V30 4088 H 366.038 2.36045 1.77107 0
M  V30 4089 H 366.119 2.55796 0.0145782 0
M  V30 4090 H 365.763 5.06995 0.303032 0
M  V30 4091 H 365.693 4.84269 2.0686 0
M  V30 4092 H 368.184 3.61388 1.10485 0
M  V30 4093 H 368.497 7.54892 1.65403 0
M  V30 4094 H 366.842 6.78746 1.4943 0
M  V30 4095 H 370.033 4.50038 1.28777 0
M  V30 4096 H 370.206 6.29473 1.53842 0
M  V30 4097 N 363.613 -0.582584 1.46437 0
M  V30 4098 C 364.561 -1.71272 1.5738 0
M  V30 4099 C 365.555 -1.63524 0.44229 0
M  V30 4100 O 366.761 -1.69016 0.619166 0
M  V30 4101 H 363.136 -0.566273 0.494813 0
M  V30 4102 H 365.107 -1.59174 2.52401 0
M  V30 4103 C 363.856 -3.09658 1.58136 0
M  V30 4104 H 363.179 -3.16291 2.44541 0
M  V30 4105 H 364.619 -3.88494 1.69847 0
M  V30 4106 C 363.078 -3.3547 0.310026 0
M  V30 4107 O 363.608 -3.97199 -0.599683 0
M  V30 4108 N 361.814 -2.89925 0.197901 0
M  V30 4109 H 361.361 -2.39873 0.93909 0
M  V30 4110 H 361.319 -3.07568 -0.65185 0
M  V30 4111 N 365.091 -1.34144 -0.827227 0
M  V30 4112 C 366.34 -1.25602 -1.5782 0
M  V30 4113 C 366.653 0.173445 -1.94829 0
M  V30 4114 O 367.859 0.380984 -2.68814 0
M  V30 4115 C 366.315 -2.20151 -2.84713 0
M  V30 4116 C 365.923 -3.68331 -2.55021 0
M  V30 4117 C 367.667 -2.20508 -3.62735 0
M  V30 4118 C 365.574 -4.54762 -3.78082 0
M  V30 4119 H 364.504 -0.466573 -0.592306 0
M  V30 4120 H 367.155 -1.59283 -0.911116 0
M  V30 4121 H 365.537 -1.79417 -3.53023 0
M  V30 4122 H 366.711 -4.17577 -1.94849 0
M  V30 4123 H 365.026 -3.7038 -1.90283 0
M  V30 4124 H 367.623 -2.82306 -4.54101 0
M  V30 4125 H 367.966 -1.20322 -3.98533 0
M  V30 4126 H 368.499 -2.59664 -3.01362 0
M  V30 4127 H 365.238 -5.55867 -3.47407 0
M  V30 4128 H 364.758 -4.10254 -4.37552 0
M  V30 4129 H 366.437 -4.69153 -4.45538 0
M  V30 4130 N 366.569 1.04691 -1.17803 0
M  V30 4131 C 367.794 1.81984 -0.994813 0
M  V30 4132 C 368.219 1.82586 0.452112 0
M  V30 4133 O 367.577 1.23854 1.324 0
M  V30 4134 C 367.625 3.2575 -1.54659 0
M  V30 4135 O 366.729 4.05267 -0.763728 0
M  V30 4136 H 366.07 0.562483 -0.352857 0
M  V30 4137 H 368.6 1.3189 -1.56417 0
M  V30 4138 H 368.61 3.76541 -1.57102 0
M  V30 4139 H 367.285 3.24627 -2.59981 0
M  V30 4140 H 365.862 3.63972 -0.811108 0
M  V30 4141 N 368.047 0.979072 1.23499 0
M  V30 4142 C 369.294 0.647219 1.91878 0
M  V30 4143 C 369.622 -0.819074 1.76413 0
M  V30 4144 O 368.877 -1.60616 1.11808 0
M  V30 4145 C 369.176 0.981932 3.43646 0
M  V30 4146 C 368.842 2.43822 3.79291 0
M  V30 4147 C 367.504 2.83622 3.88731 0
M  V30 4148 C 369.856 3.3828 3.96505 0
M  V30 4149 C 367.184 4.16897 4.12812 0
M  V30 4150 C 369.536 4.71197 4.22085 0
M  V30 4151 C 368.2 5.10758 4.29747 0
M  V30 4152 H 367.47 0.236834 0.702133 0
M  V30 4153 H 370.117 1.23268 1.46551 0
M  V30 4154 H 368.422 0.314365 3.90537 0
M  V30 4155 H 370.119 0.703395 3.94783 0
M  V30 4156 H 366.709 2.11966 3.72516 0
M  V30 4157 H 370.893 3.0871 3.88603 0
M  V30 4158 H 366.149 4.47157 4.16966 0
M  V30 4159 H 370.323 5.44348 4.34348 0
M  V30 4160 H 367.95 6.1405 4.48159 0
M  V30 4161 N 369.525 -1.3858 0.750561 0
M  V30 4162 C 370.473 -2.32339 0.110162 0
M  V30 4163 C 371.467 -1.53864 -0.708674 0
M  V30 4164 O 372.673 -1.69417 -0.608112 0
M  V30 4165 H 369.048 -0.751812 0.0168275 0
M  V30 4166 H 371.019 -2.83959 0.917053 0
M  V30 4167 C 369.768 -3.39043 -0.771067 0
M  V30 4168 H 369.091 -3.99517 -0.150374 0
M  V30 4169 H 370.531 -4.07061 -1.1865 0
M  V30 4170 C 368.99 -2.77365 -1.91234 0
M  V30 4171 O 369.52 -2.66434 -3.00626 0
M  V30 4172 N 367.726 -2.35219 -1.70646 0
M  V30 4173 H 367.273 -2.4431 -0.81673 0
M  V30 4174 H 367.231 -1.94294 -2.47178 0
M  V30 4175 N 371.003 -0.499398 -1.49478 0
M  V30 4176 C 372.28 0.108629 -1.95298 0
M  V30 4177 C 372.66 1.54282 -1.44084 0
M  V30 4178 O 372.008 2.18944 -0.653908 0
M  V30 4179 C 372.218 0.0229111 -3.48992 0
M  V30 4180 C 373.566 0.197643 -4.2414 0
M  V30 4181 O 374.59 0.0981735 -3.56065 0
M  V30 4182 O 373.449 0.401669 -5.45022 0
M  V30 4183 H 370.543 0.096181 -0.821388 0
M  V30 4184 H 373.089 -0.561822 -1.6013 0
M  V30 4185 H 371.861 -0.977321 -3.78899 0
M  V30 4186 H 371.484 0.733579 -3.90774 0
M  V30 4187 N 372.481 1.55866 -0.233164 0
M  V30 4188 C 373.428 2.20796 0.67215 0
M  V30 4189 C 374.398 1.16731 1.18166 0
M  V30 4190 O 375.583 1.45129 1.23864 0
M  V30 4191 C 372.723 2.90072 1.86955 0
M  V30 4192 C 371.836 4.08759 1.39786 0
M  V30 4193 C 370.971 4.65787 2.55374 0
M  V30 4194 C 370.01 5.76752 2.04998 0
M  V30 4195 N 369.147 6.28021 3.13901 0
M  V30 4196 H 373.987 2.9779 0.111749 0
M  V30 4197 H 371.524 1.47036 0.0434007 0
M  V30 4198 H 373.482 3.28428 2.57276 0
M  V30 4199 H 372.112 2.15575 2.40265 0
M  V30 4200 H 371.164 3.7581 0.589173 0
M  V30 4201 H 372.476 4.88906 0.98856 0
M  V30 4202 H 371.63 5.06646 3.33758 0
M  V30 4203 H 370.369 3.84828 2.99598 0
M  V30 4204 H 369.374 5.35383 1.25079 0
M  V30 4205 H 370.599 6.59553 1.61759 0
M  V30 4206 H 368.545 5.49971 3.57586 0
M  V30 4207 H 368.462 7.03323 2.7726 0
M  V30 4208 H 369.73 6.73538 3.92386 0
M  V30 4209 N 373.959 -0.0401083 1.57549 0
M  V30 4210 C 374.906 -1.04413 2.05831 0
M  V30 4211 C 375.876 -1.36585 0.945184 0
M  V30 4212 O 377.061 -1.47112 1.21502 0
M  V30 4213 C 374.201 -2.34336 2.53339 0
M  V30 4214 C 373.314 -2.08419 3.78398 0
M  V30 4215 C 372.449 -3.32133 4.14561 0
M  V30 4216 C 371.488 -3.01721 5.3257 0
M  V30 4217 N 370.625 -4.17855 5.64218 0
M  V30 4218 H 375.465 -0.625442 2.91363 0
M  V30 4219 H 373.002 -0.297218 1.44066 0
M  V30 4220 H 374.96 -3.10234 2.78946 0
M  V30 4221 H 373.59 -2.73948 1.7074 0
M  V30 4222 H 372.642 -1.23069 3.59942 0
M  V30 4223 H 373.954 -1.81978 4.64419 0
M  V30 4224 H 373.108 -4.16406 4.41238 0
M  V30 4225 H 371.847 -3.61678 3.2717 0
M  V30 4226 H 370.852 -2.15849 5.05657 0
M  V30 4227 H 372.077 -2.73466 6.21605 0
M  V30 4228 H 370.023 -4.47372 4.79786 0
M  V30 4229 H 369.94 -3.94798 6.44725 0
M  V30 4230 H 371.208 -5.03033 5.95465 0
M  V30 4231 N 375.437 -1.54477 -0.31217 0
M  V30 4232 C 376.684 -1.73227 -1.04875 0
M  V30 4233 C 377.012 -0.512042 -1.87639 0
M  V30 4234 O 376.267 0.506131 -1.89042 0
M  V30 4235 C 376.566 -2.967 -1.99258 0
M  V30 4236 C 376.232 -4.30974 -1.32559 0
M  V30 4237 C 374.894 -4.67477 -1.141 0
M  V30 4238 C 377.246 -5.14258 -0.847835 0
M  V30 4239 C 374.574 -5.84852 -0.465326 0
M  V30 4240 C 376.926 -6.32327 -0.185931 0
M  V30 4241 C 375.59 -6.67499 0.0107077 0
M  V30 4242 H 374.86 -0.633881 -0.383765 0
M  V30 4243 H 377.507 -1.88727 -0.324731 0
M  V30 4244 H 375.812 -2.75935 -2.7815 0
M  V30 4245 H 377.509 -3.08401 -2.563 0
M  V30 4246 H 374.099 -4.02262 -1.4793 0
M  V30 4247 H 378.283 -4.86565 -0.978192 0
M  V30 4248 H 373.539 -6.10654 -0.301883 0
M  V30 4249 H 377.713 -6.96135 0.192211 0
M  V30 4250 H 375.34 -7.58306 0.536287 0
M  V30 4251 N 376.915 0.57481 -1.46744 0
M  V30 4252 C 378.161 1.3347 -1.52688 0
M  V30 4253 C 378.494 1.93353 -0.181229 0
M  V30 4254 O 377.769 1.76912 0.808237 0
M  V30 4255 C 378.052 2.45811 -2.63152 0
M  V30 4256 C 377.905 1.90912 -4.07275 0
M  V30 4257 C 379.224 3.47822 -2.69644 0
M  V30 4258 H 376.343 0.483935 -0.555856 0
M  V30 4259 H 378.985 0.644968 -1.78718 0
M  V30 4260 H 377.135 3.04646 -2.41088 0
M  V30 4261 H 378.807 1.36473 -4.4065 0
M  V30 4262 H 377.05 1.21691 -4.16382 0
M  V30 4263 H 377.721 2.72042 -4.80309 0
M  V30 4264 H 380.197 2.9888 -2.895 0
M  V30 4265 H 379.073 4.23876 -3.48742 0
M  V30 4266 H 379.334 4.05555 -1.76005 0
M  V30 4267 N 378.394 1.34581 0.820102 0
M  V30 4268 C 379.643 1.26437 1.57151 0
M  V30 4269 C 379.956 -0.163111 1.94919 0
M  V30 4270 O 381.162 -0.366722 2.69012 0
M  V30 4271 C 379.618 2.21658 2.83541 0
M  V30 4272 C 379.226 3.69679 2.53065 0
M  V30 4273 C 380.97 2.22428 3.61561 0
M  V30 4274 C 378.877 4.56761 3.75664 0
M  V30 4275 H 377.807 0.469707 0.589823 0
M  V30 4276 H 380.458 1.59763 0.902656 0
M  V30 4277 H 378.84 1.81287 3.52067 0
M  V30 4278 H 380.014 4.18605 1.92631 0
M  V30 4279 H 378.329 3.71384 1.88316 0
M  V30 4280 H 380.926 2.8471 4.52597 0
M  V30 4281 H 381.269 1.22434 3.97889 0
M  V30 4282 H 381.802 2.61259 2.99981 0
M  V30 4283 H 378.541 5.57702 3.44454 0
M  V30 4284 H 378.061 4.12568 4.35371 0
M  V30 4285 H 379.74 4.71509 4.43044 0
M  V30 4286 N 379.872 -1.04064 1.18357 0
M  V30 4287 C 380.819 -2.12077 0.910603 0
M  V30 4288 C 381.789 -1.65421 -0.15 0
M  V30 4289 O 382.974 -1.90797 -0.0103614 0
M  V30 4290 C 380.114 -3.42252 0.442472 0
M  V30 4291 C 379.227 -4.0252 1.5685 0
M  V30 4292 C 378.362 -5.20657 1.05309 0
M  V30 4293 C 377.401 -5.72955 2.1538 0
M  V30 4294 N 376.538 -6.8238 1.65233 0
M  V30 4295 H 381.378 -2.34764 1.83548 0
M  V30 4296 H 378.915 -1.15157 0.915279 0
M  V30 4297 H 380.873 -4.16921 0.152534 0
M  V30 4298 H 379.503 -3.19712 -0.445428 0
M  V30 4299 H 378.555 -3.25178 1.97391 0
M  V30 4300 H 379.867 -4.37362 2.39824 0
M  V30 4301 H 379.021 -6.0244 0.717677 0
M  V30 4302 H 377.76 -4.87318 0.19293 0
M  V30 4303 H 376.765 -4.89793 2.49766 0
M  V30 4304 H 377.99 -6.08337 3.01832 0
M  V30 4305 H 375.936 -6.50917 0.815064 0
M  V30 4306 H 375.853 -7.16286 2.41805 0
M  V30 4307 H 377.121 -7.67788 1.34619 0
M  V30 4308 N 381.35 -0.985608 -1.22978 0
M  V30 4309 C 382.761 -0.693593 -1.73338 0
M  V30 4310 C 383.112 0.789935 -1.79595 0
M  V30 4311 O 382.237 1.61771 -1.43733 0
M  V30 4312 C 382.832 -1.25235 -3.14804 0
M  V30 4313 C 381.391 -1.00987 -3.626 0
M  V30 4314 C 380.538 -1.37695 -2.40698 0
M  V30 4315 H 383.489 -1.15884 -1.08428 0
M  V30 4316 H 383.51 -0.627329 -3.75293 0
M  V30 4317 H 383.022 -2.33209 -3.10218 0
M  V30 4318 H 381.123 0.0535565 -3.72562 0
M  V30 4319 H 381.236 -1.66812 -4.49122 0
M  V30 4320 H 379.6 -0.795459 -2.4196 0
M  V30 4321 H 380.383 -2.46657 -2.38779 0
M  V30 4322 N 382.828 1.3818 -0.7579 0
M  V30 4323 C 384.077 1.99261 -0.312744 0
M  V30 4324 C 384.39 1.60846 1.11301 0
M  V30 4325 O 385.596 2.14929 1.65885 0
M  V30 4326 C 384.052 3.56294 -0.50821 0
M  V30 4327 C 383.66 4.03657 -1.94333 0
M  V30 4328 C 385.404 4.24313 -0.125982 0
M  V30 4329 C 383.311 5.53347 -2.08712 0
M  V30 4330 H 382.241 0.745456 -0.113185 0
M  V30 4331 H 384.892 1.57889 -0.935056 0
M  V30 4332 H 383.274 3.95575 0.183353 0
M  V30 4333 H 384.448 3.75655 -2.66871 0
M  V30 4334 H 382.763 3.48376 -2.28086 0
M  V30 4335 H 385.36 5.34279 -0.212125 0
M  V30 4336 H 385.703 4.05962 0.921964 0
M  V30 4337 H 386.236 3.90285 -0.769563 0
M  V30 4338 H 382.975 5.76607 -3.11777 0
M  V30 4339 H 382.495 5.83078 -1.4064 0
M  V30 4340 H 384.174 6.19111 -1.87912 0
M  V30 4341 N 384.306 0.507319 1.49211 0
M  V30 4342 C 385.583 -0.0982702 1.95353 0
M  V30 4343 C 385.963 -1.53516 1.449 0
M  V30 4344 O 385.311 -2.18594 0.66551 0
M  V30 4345 C 385.521 -0.00440283 3.49 0
M  V30 4346 C 386.869 -0.175147 4.24239 0
M  V30 4347 O 387.893 -0.0792891 3.56112 0
M  V30 4348 O 386.752 -0.37276 5.45227 0
M  V30 4349 H 383.846 -0.0918236 0.821887 0
M  V30 4350 H 386.392 0.570307 1.5983 0
M  V30 4351 H 385.164 0.997402 3.78375 0
M  V30 4352 H 384.787 -0.712845 3.91158 0
M  V30 4353 N 385.784 -1.5574 0.241426 0
M  V30 4354 C 386.731 -2.21149 -0.660432 0
M  V30 4355 C 387.701 -1.17356 -1.17545 0
M  V30 4356 O 388.886 -1.45784 -1.23093 0
M  V30 4357 C 386.026 -2.91059 -1.85414 0
M  V30 4358 C 385.139 -4.09495 -1.37616 0
M  V30 4359 C 384.274 -4.67135 -2.529 0
M  V30 4360 C 383.313 -5.77831 -2.01936 0
M  V30 4361 N 382.45 -6.29677 -3.10566 0
M  V30 4362 H 387.29 -2.97845 -0.095955 0
M  V30 4363 H 384.827 -1.47057 -0.0356024 0
M  V30 4364 H 386.785 -3.29788 -2.5553 0
M  V30 4365 H 385.415 -2.16846 -2.39118 0
M  V30 4366 H 384.467 -3.76117 -0.569235 0
M  V30 4367 H 385.779 -4.89423 -0.962618 0
M  V30 4368 H 384.933 -5.08409 -3.31067 0
M  V30 4369 H 383.672 -3.86411 -2.97553 0
M  V30 4370 H 382.677 -5.36039 -1.22238 0
M  V30 4371 H 383.902 -6.60402 -1.58259 0
M  V30 4372 H 381.848 -5.5186 -3.54664 0
M  V30 4373 H 381.765 -7.04783 -2.73526 0
M  V30 4374 H 383.033 -6.75609 -3.88809 0
M  V30 4375 N 387.262 0.0317525 -1.57568 0
M  V30 4376 C 388.209 1.0332 -2.06382 0
M  V30 4377 C 389.179 1.36082 -0.952414 0
M  V30 4378 O 390.364 1.46466 -1.2228 0
M  V30 4379 C 387.504 2.32989 -2.54578 0
M  V30 4380 C 386.617 2.0641 -3.79498 0
M  V30 4381 C 385.752 3.2993 -4.16317 0
M  V30 4382 C 384.791 2.98893 -5.34162 0
M  V30 4383 N 383.928 4.14857 -5.66426 0
M  V30 4384 H 388.768 0.609982 -2.9169 0
M  V30 4385 H 386.305 0.289573 -1.44222 0
M  V30 4386 H 388.263 3.0875 -2.80587 0
M  V30 4387 H 386.893 2.73039 -1.7219 0
M  V30 4388 H 385.945 1.21158 -3.6059 0
M  V30 4389 H 387.257 1.79513 -4.65378 0
M  V30 4390 H 386.411 4.1406 -4.4344 0
M  V30 4391 H 385.15 3.59938 -3.29083 0
M  V30 4392 H 384.155 2.13164 -5.06795 0
M  V30 4393 H 385.38 2.70165 -6.23047 0
M  V30 4394 H 383.326 4.44821 -4.82151 0
M  V30 4395 H 383.243 3.91374 -6.4681 0
M  V30 4396 H 384.511 4.99868 -5.98124 0
M  V30 4397 N 388.74 1.54641 0.303973 0
M  V30 4398 C 389.703 1.84646 1.35789 0
M  V30 4399 C 390.703 0.7192 1.4382 0
M  V30 4400 O 391.893 0.987491 1.43507 0
M  V30 4401 C 389.025 2.02407 2.74307 0
M  V30 4402 H 390.218 2.78829 1.10429 0
M  V30 4403 H 387.771 1.46658 0.540487 0
M  V30 4404 H 388.506 1.10502 3.04893 0
M  V30 4405 H 388.291 2.84453 2.69868 0
M  V30 4406 H 389.781 2.27002 3.50514 0
M  V30 4407 N 390.218 -0.567019 1.47046 0
M  V30 4408 C 391.629 -1.14916 1.47143 0
M  V30 4409 C 391.98 -1.94954 0.220767 0
M  V30 4410 O 391.105 -2.05602 -0.67505 0
M  V30 4411 C 391.7 -2.09069 2.666 0
M  V30 4412 C 390.259 -2.62575 2.69687 0
M  V30 4413 C 389.406 -1.38755 2.40088 0
M  V30 4414 H 392.357 -0.354126 1.54699 0
M  V30 4415 H 392.378 -2.92789 2.43011 0
M  V30 4416 H 391.89 -1.50789 3.57609 0
M  V30 4417 H 389.991 -3.24681 1.82792 0
M  V30 4418 H 390.104 -3.04239 3.70102 0
M  V30 4419 H 388.468 -1.69098 1.90468 0
M  V30 4420 H 389.251 -0.822822 3.33293 0
M  V30 4421 N 391.696 -1.35014 -0.812953 0
M  V30 4422 C 392.973 -1.18502 -1.55617 0
M  V30 4423 C 393.353 0.238421 -2.09749 0
M  V30 4424 O 392.701 1.2411 -1.91857 0
M  V30 4425 C 392.911 -2.24783 -2.66971 0
M  V30 4426 C 394.259 -2.60268 -3.35478 0
M  V30 4427 O 395.283 -2.23648 -2.77236 0
M  V30 4428 O 394.142 -3.2321 -4.40678 0
M  V30 4429 H 391.236 -0.459984 -0.687272 0
M  V30 4430 H 393.782 -1.46677 -0.853464 0
M  V30 4431 H 392.554 -3.20284 -2.24798 0
M  V30 4432 H 392.177 -1.97841 -3.44884 0
M  V30 4433 N 393.175 1.03435 -1.18907 0
M  V30 4434 C 394.422 1.76743 -0.988334 0
M  V30 4435 C 394.75 1.88447 0.481441 0
M  V30 4436 O 394.005 1.39383 1.37371 0
M  V30 4437 C 394.304 3.19792 -1.59586 0
M  V30 4438 C 393.97 3.28108 -3.09283 0
M  V30 4439 C 392.632 3.30084 -3.5014 0
M  V30 4440 C 394.984 3.27696 -4.05296 0
M  V30 4441 C 392.312 3.29299 -4.85571 0
M  V30 4442 C 394.664 3.28451 -5.4065 0
M  V30 4443 C 393.328 3.28723 -5.80946 0
M  V30 4444 H 392.598 0.64675 -0.361657 0
M  V30 4445 H 395.245 1.21442 -1.48068 0
M  V30 4446 H 393.55 3.78136 -1.02568 0
M  V30 4447 H 395.247 3.75171 -1.41589 0
M  V30 4448 H 391.837 3.27294 -2.76725 0
M  V30 4449 H 396.021 3.25354 -3.74778 0
M  V30 4450 H 391.277 3.2783 -5.16079 0
M  V30 4451 H 395.451 3.27082 -6.14809 0
M  V30 4452 H 393.078 3.27868 -6.85862 0
M  V30 4453 N 394.653 0.992116 1.22453 0
M  V30 4454 C 395.899 0.668523 1.91464 0
M  V30 4455 C 396.232 -0.797313 1.77078 0
M  V30 4456 O 395.507 -1.5765 1.13916 0
M  V30 4457 C 395.79 1.07424 3.43703 0
M  V30 4458 C 395.643 2.59857 3.67143 0
M  V30 4459 C 396.962 0.626891 4.35612 0
M  V30 4460 H 394.081 0.244341 0.695318 0
M  V30 4461 H 396.723 1.2355 1.44345 0
M  V30 4462 H 394.873 0.591816 3.83966 0
M  V30 4463 H 396.545 3.15764 3.3629 0
M  V30 4464 H 394.788 3.01961 3.11451 0
M  V30 4465 H 395.459 2.83296 4.73759 0
M  V30 4466 H 397.935 1.04125 4.02861 0
M  V30 4467 H 396.811 0.939076 5.40807 0
M  V30 4468 H 397.072 -0.472457 4.39568 0
M  V30 4469 N 396.131 -1.37776 0.765217 0
M  V30 4470 C 397.378 -1.99849 0.326588 0
M  V30 4471 C 397.706 -1.60746 -1.09504 0
M  V30 4472 O 396.961 -0.84202 -1.76659 0
M  V30 4473 C 397.26 -3.5504 0.410053 0
M  V30 4474 C 396.926 -4.13891 1.78899 0
M  V30 4475 C 395.588 -4.29678 2.16635 0
M  V30 4476 C 397.94 -4.46236 2.69301 0
M  V30 4477 C 395.268 -4.7511 3.44221 0
M  V30 4478 C 397.62 -4.93089 3.9629 0
M  V30 4479 C 396.284 -5.07082 4.34078 0
M  V30 4480 H 395.554 -0.7313 0.119507 0
M  V30 4481 H 398.201 -1.64645 0.977968 0
M  V30 4482 H 396.506 -3.90451 -0.324878 0
M  V30 4483 H 398.203 -4.00966 0.0520699 0
M  V30 4484 H 394.793 -4.02026 1.48569 0
M  V30 4485 H 398.977 -4.3363 2.41409 0
M  V30 4486 H 394.233 -4.84129 3.73402 0
M  V30 4487 H 398.407 -5.17084 4.66472 0
M  V30 4488 H 396.034 -5.42046 5.33001 0
M  V30 4489 N 397.609 -0.515225 -1.4894 0
M  V30 4490 C 398.839 0.0205735 -2.0659 0
M  V30 4491 C 399.247 1.30064 -1.37405 0
M  V30 4492 O 398.59 1.78087 -0.450632 0
M  V30 4493 C 398.652 0.330124 -3.57981 0
M  V30 4494 C 398.316 -0.854295 -4.48944 0
M  V30 4495 C 399.313 -1.7487 -4.89609 0
M  V30 4496 C 396.998 -1.05712 -4.9105 0
M  V30 4497 C 398.992 -2.82996 -5.71132 0
M  V30 4498 C 396.679 -2.14154 -5.72347 0
M  V30 4499 C 397.677 -3.0263 -6.12294 0
M  V30 4500 O 397.365 -4.09198 -6.91962 0
M  V30 4501 H 397.097 -0.0236833 -0.675585 0
M  V30 4502 H 399.651 -0.715956 -1.92518 0
M  V30 4503 H 397.881 1.12044 -3.70112 0
M  V30 4504 H 399.57 0.806233 -3.97812 0
M  V30 4505 H 400.336 -1.60388 -4.57712 0
M  V30 4506 H 396.215 -0.377788 -4.59449 0
M  V30 4507 H 399.759 -3.52083 -6.02232 0
M  V30 4508 H 395.656 -2.28626 -6.03656 0
M  V30 4509 H 396.424 -4.06726 -7.10293 0
M  V30 4510 N 399.087 1.5561 -0.249682 0
M  V30 4511 C 400.05 2.20217 0.635394 0
M  V30 4512 C 401.05 1.17227 1.10066 0
M  V30 4513 O 402.24 1.42292 1.00492 0
M  V30 4514 C 399.372 2.84794 1.87363 0
M  V30 4515 H 400.565 2.99814 0.0716752 0
M  V30 4516 H 398.118 1.563 -0.000153234 0
M  V30 4517 H 398.853 2.09142 2.47851 0
M  V30 4518 H 398.638 3.60241 1.5482 0
M  V30 4519 H 400.128 3.3423 2.5036 0
M  V30 4520 N 400.565 -0.0233959 1.57583 0
M  V30 4521 C 401.976 -0.56927 1.77809 0
M  V30 4522 C 402.327 -1.75284 0.881472 0
M  V30 4523 O 401.452 -2.1626 0.0777805 0
M  V30 4524 C 402.047 -1.03949 3.22459 0
M  V30 4525 C 400.606 -1.53084 3.43864 0
M  V30 4526 C 399.753 -0.471454 2.73263 0
M  V30 4527 H 402.704 0.202825 1.57399 0
M  V30 4528 H 402.725 -1.90661 3.29285 0
M  V30 4529 H 402.237 -0.177865 3.87692 0
M  V30 4530 H 400.338 -2.41414 2.83814 0
M  V30 4531 H 400.451 -1.57443 4.52491 0
M  V30 4532 H 398.815 -0.927788 2.37201 0
M  V30 4533 H 399.598 0.380808 3.41181 0
M  V30 4534 N 402.043 -1.548 -0.295768 0
M  V30 4535 C 403.459 -1.4613 -0.641722 0
M  V30 4536 C 403.659 -0.656771 -1.90496 0
M  V30 4537 O 402.715 -0.166547 -2.5195 0
M  V30 4538 C 404.028 -2.90141 -0.789852 0
M  V30 4539 C 405.576 -3.00216 -0.885396 0
M  V30 4540 C 406.051 -4.45434 -1.06548 0
M  V30 4541 N 407.542 -4.49166 -1.13156 0
M  V30 4542 C 408.277 -5.58717 -1.28929 0
M  V30 4543 N 407.773 -6.78182 -1.41567 0
M  V30 4544 N 409.566 -5.46415 -1.31859 0
M  V30 4545 H 401.717 -2.05574 0.534147 0
M  V30 4546 H 403.98 -0.931259 0.177372 0
M  V30 4547 H 403.686 -3.51635 0.0675598 0
M  V30 4548 H 403.56 -3.37859 -1.67724 0
M  V30 4549 H 405.947 -2.38833 -1.73329 0
M  V30 4550 H 406.028 -2.55787 0.0261185 0
M  V30 4551 H 405.672 -5.07413 -0.222335 0
M  V30 4552 H 405.602 -4.87499 -1.9913 0
M  V30 4553 H 408.093 -3.631 -1.04721 0
M  V30 4554 H 408.406 -7.57428 -1.53372 0
M  V30 4555 H 406.751 -6.81037 -1.38613 0
M  V30 4556 H 409.942 -4.5203 -1.21601 0
M  V30 4557 H 410.115 -6.31841 -1.43808 0
M  V30 4558 N 403.521 0.559213 -1.47345 0
M  V30 4559 C 404.451 1.67622 -1.62558 0
M  V30 4560 C 405.432 1.63331 -0.475087 0
M  V30 4561 O 406.617 1.80983 -0.704182 0
M  V30 4562 C 403.747 3.0626 -1.63774 0
M  V30 4563 C 402.701 3.25397 -2.7803 0
M  V30 4564 C 402.027 4.64801 -2.64318 0
M  V30 4565 C 403.327 3.10965 -4.19641 0
M  V30 4566 H 405.021 1.55146 -2.56067 0
M  V30 4567 H 402.567 0.744961 -1.23233 0
M  V30 4568 H 404.52 3.84247 -1.73008 0
M  V30 4569 H 403.244 3.1969 -0.66825 0
M  V30 4570 H 401.903 2.49817 -2.68304 0
M  V30 4571 H 401.551 4.75028 -1.65401 0
M  V30 4572 H 401.251 4.78555 -3.40968 0
M  V30 4573 H 402.775 5.44926 -2.75478 0
M  V30 4574 H 404.189 3.78772 -4.30354 0
M  V30 4575 H 402.586 3.36229 -4.97062 0
M  V30 4576 H 403.656 2.07736 -4.38148 0
M  V30 4577 N 404.999 1.35443 0.805782 0
M  V30 4578 C 406.415 1.15499 1.10146 0
M  V30 4579 C 406.615 -0.0319975 2.01475 0
M  V30 4580 O 405.671 -0.70236 2.42535 0
M  V30 4581 C 406.984 2.45833 1.73166 0
M  V30 4582 C 408.532 2.52047 1.85583 0
M  V30 4583 C 409.007 3.82427 2.52019 0
M  V30 4584 N 410.498 3.83682 2.59504 0
M  V30 4585 C 411.233 4.81294 3.11679 0
M  V30 4586 N 410.729 5.89294 3.64287 0
M  V30 4587 N 412.522 4.6873 3.1024 0
M  V30 4588 H 404.673 2.11469 0.198678 0
M  V30 4589 H 406.936 0.93594 0.150731 0
M  V30 4590 H 406.642 3.32874 1.13526 0
M  V30 4591 H 406.516 2.6044 2.72857 0
M  V30 4592 H 408.903 1.65435 2.44367 0
M  V30 4593 H 408.984 2.41354 0.847455 0
M  V30 4594 H 408.628 4.69437 1.93885 0
M  V30 4595 H 408.558 3.90409 3.53395 0
M  V30 4596 H 411.049 3.05648 2.22234 0
M  V30 4597 H 411.362 6.59768 4.02401 0
M  V30 4598 H 409.707 5.92985 3.62483 0
M  V30 4599 H 412.898 3.83496 2.68419 0
M  V30 4600 H 413.071 5.44965 3.50596 0
M  V30 4601 N 406.477 -1.02803 1.19454 0
M  V30 4602 C 407.726 -1.7562 0.991996 0
M  V30 4603 C 408.039 -1.89672 -0.477901 0
M  V30 4604 O 409.245 -2.59468 -0.799287 0
M  V30 4605 C 407.701 -3.15812 1.72601 0
M  V30 4606 C 407.309 -3.0981 3.23607 0
M  V30 4607 C 409.053 -3.92918 1.60674 0
M  V30 4608 C 406.96 -4.44939 3.89594 0
M  V30 4609 H 405.89 -0.658352 0.367543 0
M  V30 4610 H 408.541 -1.15044 1.42959 0
M  V30 4611 H 406.923 -3.7686 1.21624 0
M  V30 4612 H 408.097 -2.58138 3.81709 0
M  V30 4613 H 406.412 -2.46201 3.35819 0
M  V30 4614 H 409.009 -4.9287 2.07323 0
M  V30 4615 H 409.352 -4.12502 0.561025 0
M  V30 4616 H 409.885 -3.38472 2.09001 0
M  V30 4617 H 406.624 -4.30559 4.94267 0
M  V30 4618 H 406.144 -4.96664 3.36281 0
M  V30 4619 H 407.823 -5.1382 3.93189 0
M  V30 4620 N 407.956 -0.998596 -1.21925 0
M  V30 4621 C 408.904 -0.546641 -2.26085 0
M  V30 4622 C 409.898 0.405576 -1.64473 0
M  V30 4623 O 411.104 0.277471 -1.77849 0
M  V30 4624 H 407.479 -0.158403 -0.735127 0
M  V30 4625 H 409.45 -1.43645 -2.61551 0
M  V30 4626 C 408.199 0.117388 -3.47502 0
M  V30 4627 H 407.522 -0.606277 -3.95176 0
M  V30 4628 H 408.962 0.396993 -4.22137 0
M  V30 4629 C 407.421 1.35455 -3.0847 0
M  V30 4630 O 407.951 2.44944 -3.18379 0
M  V30 4631 N 406.157 1.23191 -2.63196 0
M  V30 4632 H 405.704 0.341006 -2.55333 0
M  V30 4633 H 405.662 2.06071 -2.37449 0
M  V30 4634 N 409.434 1.37368 -0.772513 0
M  V30 4635 C 410.381 2.30262 -0.157488 0
M  V30 4636 C 411.351 1.51137 0.688965 0
M  V30 4637 O 412.536 1.79704 0.641168 0
M  V30 4638 C 409.676 3.37611 0.715045 0
M  V30 4639 C 408.789 4.31746 -0.148098 0
M  V30 4640 C 407.924 5.26171 0.729213 0
M  V30 4641 C 406.963 6.11948 -0.136418 0
M  V30 4642 N 406.1 6.98613 0.698914 0
M  V30 4643 H 410.94 2.82277 -0.955179 0
M  V30 4644 H 408.477 1.38957 -0.482631 0
M  V30 4645 H 410.435 3.98479 1.23575 0
M  V30 4646 H 409.065 2.86959 1.47833 0
M  V30 4647 H 408.117 3.72178 -0.786613 0
M  V30 4648 H 409.429 4.92084 -0.81579 0
M  V30 4649 H 408.583 5.92247 1.31637 0
M  V30 4650 H 407.322 4.66246 1.43059 0
M  V30 4651 H 406.327 5.4485 -0.736102 0
M  V30 4652 H 407.552 6.73945 -0.835134 0
M  V30 4653 H 405.498 6.41215 1.38489 0
M  V30 4654 H 405.415 7.55948 0.0885358 0
M  V30 4655 H 406.683 7.69077 1.27044 0
M  V30 4656 N 410.912 0.523116 1.48665 0
M  V30 4657 C 412.328 0.180511 1.58576 0
M  V30 4658 C 412.528 -1.31597 1.52592 0
M  V30 4659 O 411.584 -2.0937 1.4114 0
M  V30 4660 C 412.897 0.776949 2.90489 0
M  V30 4661 C 414.445 0.745058 3.04003 0
M  V30 4662 C 414.92 1.31995 4.38567 0
M  V30 4663 N 416.411 1.28162 4.45117 0
M  V30 4664 C 417.146 1.6964 5.47731 0
M  V30 4665 N 416.642 2.18816 6.57337 0
M  V30 4666 N 418.435 1.6092 5.38573 0
M  V30 4667 H 410.586 1.4958 1.50797 0
M  V30 4668 H 412.849 0.621772 0.715614 0
M  V30 4669 H 412.555 1.82732 3.00503 0
M  V30 4670 H 412.429 0.25007 3.7637 0
M  V30 4671 H 414.816 -0.296532 2.93606 0
M  V30 4672 H 414.897 1.30933 2.1975 0
M  V30 4673 H 414.541 2.36043 4.49718 0
M  V30 4674 H 414.471 0.731418 5.21496 0
M  V30 4675 H 416.962 0.92155 3.66491 0
M  V30 4676 H 417.275 2.48478 7.31764 0
M  V30 4677 H 415.62 2.22805 6.58318 0
M  V30 4678 H 418.811 1.22304 4.5184 0
M  V30 4679 H 418.984 1.93567 6.18414 0
M  V30 4680 N 412.39 -1.55475 0.257931 0
M  V30 4681 C 413.639 -1.98383 -0.364275 0
M  V30 4682 C 413.952 -1.14952 -1.58258 0
M  V30 4683 O 415.158 -1.47924 -2.27664 0
M  V30 4684 C 413.614 -3.53037 -0.699479 0
M  V30 4685 C 413.222 -4.45223 0.498046 0
M  V30 4686 C 414.966 -4.04575 -1.28526 0
M  V30 4687 C 412.873 -5.91238 0.138383 0
M  V30 4688 H 411.803 -0.740911 -0.13988 0
M  V30 4689 H 414.454 -1.79936 0.359883 0
M  V30 4690 H 412.836 -3.6722 -1.48207 0
M  V30 4691 H 414.01 -4.42803 1.27522 0
M  V30 4692 H 412.325 -4.04226 0.999503 0
M  V30 4693 H 414.922 -5.11196 -1.56788 0
M  V30 4694 H 415.265 -3.5258 -2.21344 0
M  V30 4695 H 415.798 -3.93762 -0.565337 0
M  V30 4696 H 412.537 -6.47294 1.03398 0
M  V30 4697 H 412.057 -5.96768 -0.602374 0
M  V30 4698 H 413.736 -6.46413 -0.27553 0
M  V30 4699 N 413.868 0.0150385 -1.57593 0
M  V30 4700 C 414.798 1.01047 -2.10503 0
M  V30 4701 C 415.779 1.36816 -1.01071 0
M  V30 4702 O 416.964 1.45455 -1.28672 0
M  V30 4703 C 414.094 2.30708 -2.59598 0
M  V30 4704 C 413.048 2.09142 -3.73421 0
M  V30 4705 C 412.374 3.44685 -4.08774 0
M  V30 4706 C 413.674 1.46619 -5.01298 0
M  V30 4707 H 415.368 0.569978 -2.93925 0
M  V30 4708 H 412.914 0.272724 -1.41394 0
M  V30 4709 H 414.867 3.00687 -2.95238 0
M  V30 4710 H 413.591 2.76843 -1.73279 0
M  V30 4711 H 412.25 1.41592 -3.38153 0
M  V30 4712 H 411.898 3.88495 -3.195 0
M  V30 4713 H 411.598 3.31077 -4.8545 0
M  V30 4714 H 413.122 4.16004 -4.4696 0
M  V30 4715 H 414.536 2.06535 -5.34805 0
M  V30 4716 H 412.933 1.43544 -5.82679 0
M  V30 4717 H 414.003 0.433611 -4.82957 0
M  V30 4718 N 415.346 1.54954 0.287554 0
M  V30 4719 C 416.309 1.86076 1.33823 0
M  V30 4720 C 417.309 0.734414 1.43049 0
M  V30 4721 O 418.499 1.00266 1.42452 0
M  V30 4722 C 415.631 2.05305 2.72144 0
M  V30 4723 H 416.824 2.79984 1.07465 0
M  V30 4724 H 414.377 1.47223 0.524902 0
M  V30 4725 H 415.112 1.1373 3.03704 0
M  V30 4726 H 414.897 2.873 2.66836 0
M  V30 4727 H 416.387 2.30706 3.48087 0
M  V30 4728 N 416.824 -0.551391 1.4764 0
M  V30 4729 C 417.754 -1.66757 1.63445 0
M  V30 4730 C 418.735 -1.63077 0.483742 0
M  V30 4731 O 419.92 -1.80607 0.71377 0
M  V30 4732 C 417.05 -3.05387 1.65396 0
M  V30 4733 C 416.004 -3.23918 2.79752 0
M  V30 4734 C 415.33 -4.63393 2.66779 0
M  V30 4735 C 416.63 -3.08735 4.21284 0
M  V30 4736 H 418.324 -1.53786 2.56886 0
M  V30 4737 H 415.87 -0.738415 1.23626 0
M  V30 4738 H 417.823 -3.83325 1.75043 0
M  V30 4739 H 416.547 -3.19332 0.685195 0
M  V30 4740 H 415.206 -2.48391 2.69625 0
M  V30 4741 H 414.854 -4.74144 1.67918 0
M  V30 4742 H 414.554 -4.7674 3.43501 0
M  V30 4743 H 416.078 -5.43458 2.78364 0
M  V30 4744 H 417.492 -3.76484 4.32357 0
M  V30 4745 H 415.889 -3.33588 4.98838 0
M  V30 4746 H 416.959 -2.0541 4.39243 0
M  V30 4747 N 418.302 -1.35869 -0.798587 0
M  V30 4748 C 419.542 -1.30961 -1.56935 0
M  V30 4749 C 419.906 0.112404 -1.91671 0
M  V30 4750 O 421.107 0.285937 -2.67275 0
M  V30 4751 C 419.378 -2.19811 -2.81811 0
M  V30 4752 S 420.937 -2.32498 -3.72143 0
M  V30 4753 H 417.755 -0.465297 -0.537606 0
M  V30 4754 H 420.357 -1.71344 -0.941346 0
M  V30 4755 H 419.061 -3.22095 -2.54329 0
M  V30 4756 H 418.592 -1.80415 -3.49591 0
M  V30 4757 H 420.607 -1.5157 -4.72484 0
M  V30 4758 N 419.78 1.02168 -1.19998 0
M  V30 4759 C 420.713 2.10232 -0.887558 0
M  V30 4760 C 421.691 1.61827 0.158317 0
M  V30 4761 O 422.875 1.88471 0.0330249 0
M  V30 4762 C 420.002 3.37092 -0.32964 0
M  V30 4763 C 419.048 4.0438 -1.3557 0
M  V30 4764 S 419.881 4.48956 -2.91888 0
M  V30 4765 C 421.037 5.79024 -2.37658 0
M  V30 4766 H 421.27 2.36409 -1.80272 0
M  V30 4767 H 418.803 1.15211 -1.0279 0
M  V30 4768 H 420.761 4.10498 -0.0142824 0
M  V30 4769 H 419.422 3.08996 0.563941 0
M  V30 4770 H 418.615 4.95632 -0.9146 0
M  V30 4771 H 418.217 3.37176 -1.61828 0
M  V30 4772 H 420.509 6.53942 -1.77103 0
M  V30 4773 H 421.452 6.27924 -3.27287 0
M  V30 4774 H 421.86 5.35043 -1.79971 0
M  V30 4775 N 421.258 1.00505 1.21394 0
M  V30 4776 C 422.506 0.686415 1.90086 0
M  V30 4777 C 422.827 -0.785264 1.7849 0
M  V30 4778 O 422.097 -1.56387 1.17983 0
M  V30 4779 H 420.677 0.2509 0.703604 0
M  V30 4780 H 423.339 1.27417 1.47482 0
M  V30 4781 H 422.435 0.959621 2.96981 0
M  V30 4782 N 422.737 -1.36956 0.779787 0
M  V30 4783 C 423.685 -2.32053 0.15942 0
M  V30 4784 C 424.679 -1.55333 -0.675878 0
M  V30 4785 O 425.885 -1.70668 -0.57204 0
M  V30 4786 H 422.26 -0.751286 0.0327707 0
M  V30 4787 H 424.231 -2.8195 0.977078 0
M  V30 4788 C 422.98 -3.40602 -0.698977 0
M  V30 4789 H 422.303 -3.99746 -0.0655966 0
M  V30 4790 H 423.743 -4.09486 -1.09989 0
M  V30 4791 C 422.202 -2.81359 -1.85307 0
M  V30 4792 O 422.732 -2.72751 -2.94906 0
M  V30 4793 N 420.938 -2.38786 -1.65619 0
M  V30 4794 H 420.485 -2.45987 -0.764725 0
M  V30 4795 H 420.443 -1.99493 -2.43002 0
M  V30 4796 N 424.215 -0.530993 -1.48385 0
M  V30 4797 C 425.165 0.251092 -2.26613 0
M  V30 4798 C 426.149 0.908977 -1.32765 0
M  V30 4799 O 427.341 0.811616 -1.57295 0
M  V30 4800 C 424.47 1.29677 -3.17866 0
M  V30 4801 C 423.556 0.643627 -4.19188 0
M  V30 4802 N 423.947 -0.271223 -5.05072 0
M  V30 4803 C 422.245 0.900711 -4.3681 0
M  V30 4804 C 422.946 -0.648109 -5.78078 0
M  V30 4805 N 421.922 -0.00895987 -5.43599 0
M  V30 4806 H 425.724 -0.452702 -2.90393 0
M  V30 4807 H 423.238 -0.349091 -1.58604 0
M  V30 4808 H 425.235 1.87079 -3.72568 0
M  V30 4809 H 423.895 2.00193 -2.55642 0
M  V30 4810 H 424.906 -0.643883 -5.13882 0
M  V30 4811 H 421.583 1.59636 -3.85775 0
M  V30 4812 H 422.973 -1.39833 -6.57188 0
M  V30 4813 N 425.693 1.55336 -0.266172 0
M  V30 4814 C 426.603 2.2583 0.635458 0
M  V30 4815 C 427.619 1.28106 1.17749 0
M  V30 4816 O 428.795 1.61024 1.20968 0
M  V30 4817 C 425.86 2.95879 1.80712 0
M  V30 4818 C 424.921 4.09059 1.30265 0
M  V30 4819 C 424.154 4.75759 2.41846 0
M  V30 4820 O 424.377 4.41622 3.61007 0
M  V30 4821 O 423.311 5.63888 2.1051 0
M  V30 4822 H 427.137 3.03631 0.0646693 0
M  V30 4823 H 424.722 1.49361 -0.0339177 0
M  V30 4824 H 426.604 3.39932 2.49047 0
M  V30 4825 H 425.279 2.21002 2.36516 0
M  V30 4826 H 424.186 3.69482 0.586019 0
M  V30 4827 H 425.519 4.85811 0.790458 0
M  V30 4828 N 427.171 -0.0066808 1.57599 0
M  V30 4829 C 428.101 -0.999296 2.11036 0
M  V30 4830 C 429.082 -1.36278 1.01795 0
M  V30 4831 O 430.267 -1.4477 1.29442 0
M  V30 4832 C 427.397 -2.29328 2.60818 0
M  V30 4833 C 426.351 -2.07159 3.74525 0
M  V30 4834 C 425.677 -3.42512 4.10596 0
M  V30 4835 C 426.977 -1.43959 5.02069 0
M  V30 4836 H 428.671 -0.554382 2.94223 0
M  V30 4837 H 426.217 -0.265221 1.41536 0
M  V30 4838 H 428.17 -2.99117 2.96828 0
M  V30 4839 H 426.894 -2.7592 1.74745 0
M  V30 4840 H 425.553 -1.39797 3.38899 0
M  V30 4841 H 425.201 -3.86795 3.21556 0
M  V30 4842 H 424.901 -3.28498 4.87199 0
M  V30 4843 H 426.425 -4.13628 4.4916 0
M  V30 4844 H 427.839 -2.03696 5.35893 0
M  V30 4845 H 426.236 -1.40452 5.83432 0
M  V30 4846 H 427.306 -0.407992 4.83181 0
M  V30 4847 N 428.649 -1.55105 -0.279332 0
M  V30 4848 C 429.879 -1.7917 -1.02867 0
M  V30 4849 C 430.287 -0.56204 -1.80659 0
M  V30 4850 O 429.63 0.478266 -1.77365 0
M  V30 4851 C 429.692 -2.96061 -2.03932 0
M  V30 4852 C 429.356 -4.33341 -1.45137 0
M  V30 4853 C 430.353 -5.12565 -0.870266 0
M  V30 4854 C 428.038 -4.79987 -1.48048 0
M  V30 4855 C 430.032 -6.36565 -0.326097 0
M  V30 4856 C 427.719 -6.03944 -0.932443 0
M  V30 4857 C 428.717 -6.8207 -0.356247 0
M  V30 4858 O 428.405 -8.03691 0.183412 0
M  V30 4859 H 428.137 -0.600796 -0.309872 0
M  V30 4860 H 430.691 -2.02932 -0.317468 0
M  V30 4861 H 428.921 -2.67975 -2.78794 0
M  V30 4862 H 430.61 -3.07506 -2.64943 0
M  V30 4863 H 431.376 -4.77661 -0.840521 0
M  V30 4864 H 427.255 -4.1919 -1.91835 0
M  V30 4865 H 430.799 -6.97489 0.124286 0
M  V30 4866 H 426.696 -6.3833 -0.959407 0
M  V30 4867 H 427.464 -8.18468 0.0721681 0
M  V30 4868 N 430.127 0.543554 -1.4793 0
M  V30 4869 C 431.06 1.66556 -1.55995 0
M  V30 4870 C 432.038 1.57315 -0.411205 0
M  V30 4871 O 433.222 1.7798 -0.620922 0
M  V30 4872 C 430.349 3.04883 -1.47527 0
M  V30 4873 C 429.395 3.32526 -2.67074 0
M  V30 4874 S 430.228 3.20282 -4.29162 0
M  V30 4875 C 431.384 4.61079 -4.23269 0
M  V30 4876 H 431.617 1.59462 -2.50917 0
M  V30 4877 H 429.15 0.725456 -1.36296 0
M  V30 4878 H 431.108 3.84665 -1.43328 0
M  V30 4879 H 429.769 3.09429 -0.539665 0
M  V30 4880 H 428.962 4.33403 -2.5725 0
M  V30 4881 H 428.564 2.60389 -2.68466 0
M  V30 4882 H 430.856 5.52318 -3.92365 0
M  V30 4883 H 431.799 4.75959 -5.24279 0
M  V30 4884 H 432.207 4.39766 -3.5393 0
M  V30 4885 N 431.605 1.3629 0.791371 0
M  V30 4886 C 433.021 1.16661 1.08914 0
M  V30 4887 C 433.221 -0.0106266 2.01497 0
M  V30 4888 O 432.277 -0.676596 2.43266 0
M  V30 4889 C 433.59 2.47656 1.70549 0
M  V30 4890 C 435.138 2.54002 1.82899 0
M  V30 4891 C 435.613 3.85078 2.47949 0
M  V30 4892 N 437.104 3.86413 2.5542 0
M  V30 4893 C 437.839 4.84572 3.06557 0
M  V30 4894 N 437.335 5.93124 3.58016 0
M  V30 4895 N 439.128 4.71994 3.05251 0
M  V30 4896 H 431.279 2.11668 0.176238 0
M  V30 4897 H 433.542 0.937486 0.140796 0
M  V30 4898 H 433.248 3.34059 1.09989 0
M  V30 4899 H 433.122 2.63319 2.70079 0
M  V30 4900 H 435.509 1.68018 2.42598 0
M  V30 4901 H 435.59 2.42239 0.821808 0
M  V30 4902 H 435.234 4.71467 1.88895 0
M  V30 4903 H 435.164 3.94135 3.49235 0
M  V30 4904 H 437.655 3.07988 2.18979 0
M  V30 4905 H 437.968 6.63999 3.95381 0
M  V30 4906 H 436.313 5.96796 3.56173 0
M  V30 4907 H 439.504 3.86321 2.64336 0
M  V30 4908 H 439.677 5.48653 3.44796 0
M  V30 4909 N 433.083 -1.0153 1.20538 0
M  V30 4910 C 434.499 -1.27461 0.96051 0
M  V30 4911 C 434.699 -1.98273 -0.359193 0
M  V30 4912 O 433.755 -2.27886 -1.0874 0
M  V30 4913 C 435.068 -2.10837 2.14402 0
M  V30 4914 C 436.616 -2.24099 2.18515 0
M  V30 4915 C 437.091 -3.10852 3.36355 0
M  V30 4916 N 438.582 -3.18441 3.36377 0
M  V30 4917 C 439.317 -3.85795 4.24205 0
M  V30 4918 N 438.813 -4.55264 5.22213 0
M  V30 4919 N 440.606 -3.82331 4.12043 0
M  V30 4920 H 432.757 -0.539907 2.05423 0
M  V30 4921 H 435.02 -0.30092 0.898972 0
M  V30 4922 H 434.726 -1.66144 3.09983 0
M  V30 4923 H 434.6 -3.11576 2.12604 0
M  V30 4924 H 436.987 -2.68016 1.23497 0
M  V30 4925 H 437.068 -1.22865 2.24361 0
M  V30 4926 H 436.712 -2.6764 4.31661 0
M  V30 4927 H 436.642 -4.12177 3.27746 0
M  V30 4928 H 439.133 -2.68978 2.65442 0
M  V30 4929 H 439.446 -5.04331 5.85551 0
M  V30 4930 H 437.791 -4.54085 5.26148 0
M  V30 4931 H 440.982 -3.27207 3.34743 0
M  V30 4932 H 441.155 -4.34547 4.807 0
M  V30 4933 N 434.561 -1.01147 -1.20859 0
M  V30 4934 C 435.977 -0.725422 -1.42161 0
M  V30 4935 C 436.177 0.696919 -1.89064 0
M  V30 4936 O 435.233 1.46539 -2.05627 0
M  V30 4937 C 436.546 -1.74678 -2.44761 0
M  V30 4938 C 438.094 -1.76433 -2.58535 0
M  V30 4939 C 438.569 -2.77481 -3.64374 0
M  V30 4940 N 440.06 -2.76189 -3.71852 0
M  V30 4941 C 440.795 -3.51035 -4.53389 0
M  V30 4942 N 440.291 -4.35541 -5.38773 0
M  V30 4943 N 442.084 -3.39655 -4.47873 0
M  V30 4944 H 434.235 -1.92979 -0.887282 0
M  V30 4945 H 436.498 -0.833327 -0.451962 0
M  V30 4946 H 436.204 -2.76551 -2.17285 0
M  V30 4947 H 436.078 -1.55472 -3.43669 0
M  V30 4948 H 438.465 -0.75248 -2.85345 0
M  V30 4949 H 438.546 -1.99712 -1.5984 0
M  V30 4950 H 438.19 -3.78827 -3.38308 0
M  V30 4951 H 438.12 -2.51466 -4.6268 0
M  V30 4952 H 440.611 -2.14885 -3.10858 0
M  V30 4953 H 440.924 -4.89432 -5.98061 0
M  V30 4954 H 439.269 -4.39621 -5.38292 0
M  V30 4955 H 442.46 -2.73063 -3.80203 0
M  V30 4956 H 442.633 -3.9824 -5.11184 0
M  V30 4957 N 436.039 1.36541 -0.78704 0
M  V30 4958 C 436.986 2.30082 -0.181901 0
M  V30 4959 C 437.956 1.5186 0.672896 0
M  V30 4960 O 439.141 1.80374 0.622072 0
M  V30 4961 C 436.281 3.3835 0.679197 0
M  V30 4962 C 435.394 4.31565 -0.193882 0
M  V30 4963 C 434.529 5.26915 0.673364 0
M  V30 4964 C 433.568 6.11769 -0.201315 0
M  V30 4965 N 432.705 6.99315 0.624777 0
M  V30 4966 H 437.545 2.81248 -0.985064 0
M  V30 4967 H 435.082 1.38437 -0.497342 0
M  V30 4968 H 437.04 3.99767 1.19341 0
M  V30 4969 H 435.67 2.8851 1.44781 0
M  V30 4970 H 434.722 3.71323 -0.826044 0
M  V30 4971 H 436.034 4.91191 -0.867937 0
M  V30 4972 H 435.188 5.9361 1.25348 0
M  V30 4973 H 433.927 4.67737 1.38105 0
M  V30 4974 H 432.932 5.44039 -0.793849 0
M  V30 4975 H 434.157 6.73022 -0.906568 0
M  V30 4976 H 432.103 6.42648 1.3168 0
M  V30 4977 H 432.02 7.56 0.00835237 0
M  V30 4978 H 433.288 7.70382 1.18879 0
M  V30 4979 N 437.518 0.538854 1.48102 0
M  V30 4980 C 438.929 0.100679 1.86428 0
M  V30 4981 C 439.28 -1.32447 1.44749 0
M  V30 4982 O 438.405 -1.99339 0.842199 0
M  V30 4983 C 439 0.175933 3.38343 0
M  V30 4984 C 437.559 -0.207098 3.7583 0
M  V30 4985 C 436.706 0.531741 2.72154 0
M  V30 4986 H 439.657 0.749614 1.3988 0
M  V30 4987 H 439.678 -0.610144 3.75576 0
M  V30 4988 H 439.19 1.21328 3.68648 0
M  V30 4989 H 437.291 -1.24626 3.5114 0
M  V30 4990 H 437.404 0.138687 4.78899 0
M  V30 4991 H 435.768 -0.0230462 2.5469 0
M  V30 4992 H 436.551 1.56989 3.05302 0
M  V30 4993 N 438.996 -1.55193 0.274407 0
M  V30 4994 C 440.273 -1.91584 -0.394331 0
M  V30 4995 C 440.653 -1.19858 -1.73774 0
M  V30 4996 O 440.001 -0.3252 -2.26174 0
M  V30 4997 C 440.211 -3.4487 -0.535311 0
M  V30 4998 C 441.559 -4.16636 -0.818534 0
M  V30 4999 O 442.583 -3.5076 -0.620146 0
M  V30 5000 O 441.442 -5.33209 -1.19792 0
M  V30 5001 H 438.536 -0.798349 -0.215794 0
M  V30 5002 H 441.082 -1.66646 0.320507 0
M  V30 5003 H 439.854 -3.89145 0.410141 0
M  V30 5004 H 439.477 -3.75759 -1.29964 0
M  V30 5005 N 440.474 -0.00167713 -1.576 0
M  V30 5006 C 441.702 0.693759 -1.94922 0
M  V30 5007 C 442.117 1.67215 -0.876626 0
M  V30 5008 O 441.474 1.81929 0.144279 0
M  V30 5009 C 441.525 1.42416 -3.32265 0
M  V30 5010 O 441.246 0.485014 -4.35407 0
M  V30 5011 C 442.747 2.21395 -3.84056 0
M  V30 5012 H 439.967 0.193118 -0.642609 0
M  V30 5013 H 442.511 -0.0532952 -2.04431 0
M  V30 5014 H 440.666 2.12284 -3.24059 0
M  V30 5015 H 441.08 1.00053 -5.14868 0
M  V30 5016 H 442.554 2.67996 -4.82578 0
M  V30 5017 H 443.031 3.04142 -3.16851 0
M  V30 5018 H 443.637 1.56542 -3.95443 0
M  V30 5019 N 441.952 1.55251 0.271103 0
M  V30 5020 C 443.201 1.75151 1.00025 0
M  V30 5021 C 443.514 0.561041 1.87381 0
M  V30 5022 O 444.72 0.642506 2.63788 0
M  V30 5023 C 443.176 3.09999 1.82835 0
M  V30 5024 C 442.784 4.3662 1.00336 0
M  V30 5025 C 444.528 3.39249 2.55168 0
M  V30 5026 C 442.435 5.62506 1.82595 0
M  V30 5027 H 441.365 0.652877 0.377183 0
M  V30 5028 H 444.016 1.81708 0.255843 0
M  V30 5029 H 442.398 2.97485 2.61378 0
M  V30 5030 H 443.572 4.60055 0.261959 0
M  V30 5031 H 441.887 4.14527 0.394486 0
M  V30 5032 H 444.484 4.3051 3.1712 0
M  V30 5033 H 444.827 2.59467 3.2555 0
M  V30 5034 H 445.36 3.52869 1.83653 0
M  V30 5035 H 442.099 6.45041 1.16631 0
M  V30 5036 H 441.619 5.43211 2.54327 0
M  V30 5037 H 443.298 6.00875 2.39913 0
M  V30 5038 N 443.43 -0.535701 1.48216 0
M  V30 5039 C 444.34 -1.66785 1.64985 0
M  V30 5040 C 445.356 -1.65654 0.532414 0
M  V30 5041 O 446.532 -1.8471 0.80275 0
M  V30 5042 C 443.597 -3.0326 1.68031 0
M  V30 5043 C 442.658 -3.1529 2.9136 0
M  V30 5044 C 441.891 -4.45255 2.94252 0
M  V30 5045 O 442.114 -5.32011 2.05719 0
M  V30 5046 O 441.048 -4.6153 3.86359 0
M  V30 5047 H 444.874 -1.55576 2.60825 0
M  V30 5048 H 442.459 -0.70815 1.31551 0
M  V30 5049 H 444.341 -3.84436 1.72589 0
M  V30 5050 H 443.016 -3.14805 0.753628 0
M  V30 5051 H 441.923 -2.3343 2.92337 0
M  V30 5052 H 443.256 -3.08658 3.83394 0
M  V30 5053 N 444.908 -1.36708 -0.784132 0
M  V30 5054 C 446.154 -1.31426 -1.54451 0
M  V30 5055 C 446.487 0.10476 -1.93917 0
M  V30 5056 O 445.762 1.05934 -1.6312 0
M  V30 5057 C 446.045 -2.24189 -2.818 0
M  V30 5058 C 445.898 -3.74813 -2.48667 0
M  V30 5059 C 447.217 -2.15626 -3.83658 0
M  V30 5060 H 444.336 -0.478739 -0.560337 0
M  V30 5061 H 446.978 -1.67305 -0.900498 0
M  V30 5062 H 445.128 -1.93722 -3.36755 0
M  V30 5063 H 446.8 -4.15823 -1.99722 0
M  V30 5064 H 445.043 -3.93989 -1.81535 0
M  V30 5065 H 445.714 -4.35138 -3.39646 0
M  V30 5066 H 448.19 -2.42456 -3.38163 0
M  V30 5067 H 447.066 -2.82694 -4.70506 0
M  V30 5068 H 447.327 -1.14522 -4.27009 0
M  V30 5069 N 446.386 1.0089 -1.21074 0
M  V30 5070 C 447.318 2.09737 -0.924291 0
M  V30 5071 C 448.331 1.62546 0.0909809 0
M  V30 5072 O 449.52 1.77942 -0.141021 0
M  V30 5073 C 446.62 3.36922 -0.36559 0
M  V30 5074 C 445.793 4.13216 -1.43426 0
M  V30 5075 C 444.852 5.18696 -0.885496 0
M  V30 5076 O 443.878 5.47176 -1.56801 0
M  V30 5077 N 445.08 5.79718 0.301227 0
M  V30 5078 H 447.845 2.34895 -1.8613 0
M  V30 5079 H 445.406 1.17341 -1.11546 0
M  V30 5080 H 447.398 4.04697 0.0158407 0
M  V30 5081 H 445.968 3.08952 0.476149 0
M  V30 5082 H 445.188 3.40301 -1.9897 0
M  V30 5083 H 446.476 4.60967 -2.15376 0
M  V30 5084 H 445.874 5.58926 0.872849 0
M  V30 5085 H 444.431 6.48804 0.624211 0
M  V30 5086 N 447.864 1.01787 1.20321 0
M  V30 5087 C 448.796 0.547357 2.22568 0
M  V30 5088 C 449.809 -0.370922 1.58518 0
M  V30 5089 O 450.998 -0.169067 1.77698 0
M  V30 5090 C 448.098 -0.223031 3.38165 0
M  V30 5091 C 447.271 0.697472 4.31803 0
M  V30 5092 C 446.33 -0.025562 5.26194 0
M  V30 5093 O 445.356 0.597367 5.66057 0
M  V30 5094 N 446.558 -1.29999 5.65757 0
M  V30 5095 H 449.323 1.42668 2.63564 0
M  V30 5096 H 446.884 0.895552 1.34876 0
M  V30 5097 H 448.876 -0.716002 3.98316 0
M  V30 5098 H 447.446 -1.00366 2.9605 0
M  V30 5099 H 446.666 1.37073 3.69601 0
M  V30 5100 H 447.954 1.32347 4.91286 0
M  V30 5101 H 447.352 -1.827 5.35385 0
M  V30 5102 H 445.909 -1.73766 6.28211 0
M  V30 5103 N 449.342 -1.36122 0.79427 0
M  V30 5104 C 450.275 -2.27759 0.141845 0
M  V30 5105 C 451.253 -1.47471 -0.684921 0
M  V30 5106 O 452.437 -1.76759 -0.654857 0
M  V30 5107 C 449.564 -3.29008 -0.804446 0
M  V30 5108 C 448.61 -4.26459 -0.0588617 0
M  V30 5109 S 449.443 -5.20253 1.26873 0
M  V30 5110 C 450.599 -6.25048 0.326562 0
M  V30 5111 H 450.832 -2.82746 0.918818 0
M  V30 5112 H 448.365 -1.42736 0.588722 0
M  V30 5113 H 450.323 -3.87842 -1.34495 0
M  V30 5114 H 448.984 -2.72924 -1.5547 0
M  V30 5115 H 448.177 -4.97973 -0.777087 0
M  V30 5116 H 447.779 -3.71731 0.411309 0
M  V30 5117 H 450.071 -6.75705 -0.492795 0
M  V30 5118 H 451.014 -7.00852 1.01053 0
M  V30 5119 H 451.422 -5.64454 -0.0722627 0
M  V30 5120 N 450.82 -0.546701 -1.47814 0
M  V30 5121 C 451.767 0.206854 -2.29871 0
M  V30 5122 C 452.737 0.918235 -1.38411 0
M  V30 5123 O 453.922 0.915991 -1.67375 0
M  V30 5124 C 451.062 1.23746 -3.22151 0
M  V30 5125 C 450.175 0.533216 -4.28697 0
M  V30 5126 C 449.31 1.5482 -5.08138 0
M  V30 5127 C 448.349 0.828347 -6.06469 0
M  V30 5128 N 447.486 1.78966 -6.78908 0
M  V30 5129 H 452.326 -0.499037 -2.93792 0
M  V30 5130 H 449.863 -0.25793 -1.44821 0
M  V30 5131 H 451.821 1.84746 -3.74065 0
M  V30 5132 H 450.451 1.91151 -2.60117 0
M  V30 5133 H 449.503 -0.191089 -3.7992 0
M  V30 5134 H 450.815 -0.0311987 -4.9879 0
M  V30 5135 H 449.969 2.23202 -5.6415 0
M  V30 5136 H 448.708 2.14652 -4.37922 0
M  V30 5137 H 447.713 0.130539 -5.49645 0
M  V30 5138 H 448.938 0.235907 -6.7869 0
M  V30 5139 H 446.884 2.37675 -6.1143 0
M  V30 5140 H 446.801 1.27712 -7.45135 0
M  V30 5141 H 448.069 2.46496 -7.395 0
M  V30 5142 N 452.299 1.55045 -0.282633 0
M  V30 5143 C 453.262 2.21515 0.588539 0
M  V30 5144 C 454.262 1.19535 1.07554 0
M  V30 5145 O 455.452 1.44391 0.974514 0
M  V30 5146 C 452.584 2.88704 1.8128 0
M  V30 5147 H 453.777 2.99899 0.00806397 0
M  V30 5148 H 451.33 1.56265 -0.0333067 0
M  V30 5149 H 452.065 2.14352 2.43359 0
M  V30 5150 H 451.85 3.63443 1.47144 0
M  V30 5151 H 453.34 3.39465 2.43214 0
M  V30 5152 N 453.777 0.010035 1.57597 0
M  V30 5153 C 454.709 -1.00649 2.05918 0
M  V30 5154 C 455.722 -1.30077 0.978964 0
M  V30 5155 O 456.911 -1.26878 1.25556 0
M  V30 5156 C 454.011 -2.33876 2.45265 0
M  V30 5157 C 453.184 -2.23242 3.7614 0
M  V30 5158 C 452.243 -3.39242 4.02245 0
M  V30 5159 O 451.269 -3.1698 4.72771 0
M  V30 5160 N 452.471 -4.6242 3.50924 0
M  V30 5161 H 455.236 -0.594333 2.93748 0
M  V30 5162 H 452.797 -0.17714 1.60928 0
M  V30 5163 H 454.789 -3.1027 2.59836 0
M  V30 5164 H 453.359 -2.66799 1.62902 0
M  V30 5165 H 452.579 -1.31696 3.71551 0
M  V30 5166 H 453.867 -2.13321 4.61922 0
M  V30 5167 H 453.265 -4.83404 2.93832 0
M  V30 5168 H 451.822 -5.36046 3.70807 0
M  V30 5169 N 455.255 -1.55392 -0.262866 0
M  V30 5170 C 456.218 -1.88181 -1.30846 0
M  V30 5171 C 457.218 -0.757079 -1.41862 0
M  V30 5172 O 458.408 -1.02519 -1.40838 0
M  V30 5173 C 455.54 -2.09609 -2.68844 0
M  V30 5174 H 456.733 -2.81659 -1.02997 0
M  V30 5175 H 454.286 -1.48039 -0.501414 0
M  V30 5176 H 455.021 -1.18547 -3.01856 0
M  V30 5177 H 454.806 -2.91508 -2.62231 0
M  V30 5178 H 456.296 -2.36215 -3.44372 0
M  V30 5179 N 456.733 0.527833 -1.48498 0
M  V30 5180 C 458.149 0.856571 -1.34666 0
M  V30 5181 C 458.349 1.98271 -0.35931 0
M  V30 5182 O 457.405 2.51551 0.218703 0
M  V30 5183 C 458.718 1.22207 -2.74747 0
M  V30 5184 C 460.266 1.33183 -2.83251 0
M  V30 5185 C 460.741 1.73075 -4.24039 0
M  V30 5186 N 462.232 1.80174 -4.26722 0
M  V30 5187 C 462.967 2.1243 -5.32598 0
M  V30 5188 N 462.463 2.43096 -6.4875 0
M  V30 5189 N 464.256 2.13454 -5.19994 0
M  V30 5190 H 456.407 -0.215174 -2.11307 0
M  V30 5191 H 458.67 -0.0336281 -0.947403 0
M  V30 5192 H 458.376 0.468195 -3.4857 0
M  V30 5193 H 458.25 2.17173 -3.08409 0
M  V30 5194 H 460.637 2.07647 -2.09683 0
M  V30 5195 H 460.718 0.363333 -2.53206 0
M  V30 5196 H 460.362 0.991712 -4.98124 0
M  V30 5197 H 460.292 2.70979 -4.51529 0
M  V30 5198 H 462.783 1.58744 -3.42942 0
M  V30 5199 H 463.096 2.6682 -7.25277 0
M  V30 5200 H 461.441 2.40611 -6.52021 0
M  V30 5201 H 464.632 1.88956 -4.28268 0
M  V30 5202 H 464.805 2.38261 -6.02608 0
M  V30 5203 N 458.211 1.37122 0.776871 0
M  V30 5204 C 459.121 1.34651 1.9211 0
M  V30 5205 C 460.137 0.246824 1.7224 0
M  V30 5206 O 461.313 0.48134 1.95563 0
M  V30 5207 C 458.378 1.14748 3.2716 0
M  V30 5208 C 457.439 2.34308 3.5972 0
M  V30 5209 C 456.672 2.15345 4.88326 0
M  V30 5210 O 456.895 1.13507 5.58992 0
M  V30 5211 O 455.829 3.03414 5.1983 0
M  V30 5212 H 459.655 2.31013 1.97146 0
M  V30 5213 H 457.24 1.17799 0.918901 0
M  V30 5214 H 459.122 1.05616 4.0795 0
M  V30 5215 H 457.797 0.214562 3.22988 0
M  V30 5216 H 456.704 2.49011 2.79185 0
M  V30 5217 H 458.037 3.26149 3.68629 0
M  V30 5218 N 459.689 -1.00246 1.21608 0
M  V30 5219 C 460.599 -2.12515 0.993709 0
M  V30 5220 C 461.615 -1.73913 -0.0549939 0
M  V30 5221 O 462.791 -2.00943 0.135619 0
M  V30 5222 C 459.856 -3.42083 0.563953 0
M  V30 5223 C 458.917 -3.94843 1.68516 0
M  V30 5224 C 458.15 -5.18226 1.27582 0
M  V30 5225 O 458.373 -5.70201 0.150506 0
M  V30 5226 O 457.307 -5.64497 2.0887 0
M  V30 5227 H 461.133 -2.34152 1.93407 0
M  V30 5228 H 458.718 -1.10891 1.00118 0
M  V30 5229 H 460.6 -4.20073 0.334194 0
M  V30 5230 H 459.275 -3.21828 -0.347665 0
M  V30 5231 H 458.182 -3.18068 1.96935 0
M  V30 5232 H 459.515 -4.19512 2.5743 0
M  V30 5233 N 461.167 -1.02423 -1.1978 0
M  V30 5234 C 462.114 -0.601023 -2.22837 0
M  V30 5235 C 463.084 0.382801 -1.61629 0
M  V30 5236 O 464.269 0.280514 -1.88727 0
M  V30 5237 C 461.409 0.0467755 -3.45068 0
M  V30 5238 C 460.522 -0.98253 -4.20678 0
M  V30 5239 C 459.657 -0.304982 -5.30324 0
M  V30 5240 C 458.696 -1.32052 -5.97686 0
M  V30 5241 N 457.833 -0.669105 -6.98904 0
M  V30 5242 H 462.673 -1.48444 -2.58396 0
M  V30 5243 H 460.21 -0.742936 -1.2696 0
M  V30 5244 H 462.168 0.439556 -4.14878 0
M  V30 5245 H 460.798 0.893796 -3.10179 0
M  V30 5246 H 459.85 -1.49341 -3.49859 0
M  V30 5247 H 461.162 -1.75455 -4.66923 0
M  V30 5248 H 460.316 0.142893 -6.06532 0
M  V30 5249 H 459.055 0.499283 -4.85138 0
M  V30 5250 H 458.06 -1.7787 -5.20233 0
M  V30 5251 H 459.285 -2.1262 -6.44957 0
M  V30 5252 H 457.231 0.115152 -6.55899 0
M  V30 5253 H 457.148 -1.37908 -7.43315 0
M  V30 5254 H 458.416 -0.245076 -7.79115 0
M  V30 5255 N 462.645 1.35699 -0.801477 0
M  V30 5256 C 463.595 2.2728 -0.181073 0
M  V30 5257 C 464.579 1.47533 0.642098 0
M  V30 5258 O 465.771 1.69785 0.500193 0
M  V30 5259 C 462.9 3.36626 0.673612 0
M  V30 5260 C 461.986 4.23802 -0.159008 0
M  V30 5261 N 462.377 4.90879 -1.2195 0
M  V30 5262 C 460.675 4.45959 0.0602005 0
M  V30 5263 C 461.376 5.5546 -1.72738 0
M  V30 5264 N 460.352 5.33663 -1.03465 0
M  V30 5265 H 464.154 2.76632 -0.992582 0
M  V30 5266 H 461.668 1.49166 -0.642127 0
M  V30 5267 H 463.665 4.01179 1.13408 0
M  V30 5268 H 462.325 2.88828 1.48353 0
M  V30 5269 H 463.336 4.92497 -1.60209 0
M  V30 5270 H 460.013 4.08969 0.839664 0
M  V30 5271 H 461.403 6.18991 -2.61342 0
M  V30 5272 N 464.123 0.554532 1.47522 0
M  V30 5273 C 465.055 -0.232106 2.28022 0
M  V30 5274 C 466.068 -0.881865 1.36847 0
M  V30 5275 O 467.257 -0.756168 1.61692 0
M  V30 5276 C 464.357 -1.34604 3.11022 0
M  V30 5277 C 463.53 -0.793582 4.30141 0
M  V30 5278 C 462.589 -1.79168 4.94758 0
M  V30 5279 O 461.615 -1.33886 5.5323 0
M  V30 5280 N 462.817 -3.12495 4.89211 0
M  V30 5281 H 465.582 0.458407 2.96173 0
M  V30 5282 H 463.143 0.390433 1.57122 0
M  V30 5283 H 465.135 -2.01243 3.51118 0
M  V30 5284 H 463.705 -1.93983 2.45131 0
M  V30 5285 H 462.925 0.0495025 3.94169 0
M  V30 5286 H 464.213 -0.403776 5.07195 0
M  V30 5287 H 463.611 -3.51931 4.42901 0
M  V30 5288 H 462.168 -3.74698 5.33333 0
M  V30 5289 N 465.601 -1.54893 0.290851 0
M  V30 5290 C 466.548 -2.23138 -0.58974 0
M  V30 5291 C 467.518 -1.21036 -1.13752 0
M  V30 5292 O 468.703 -1.49626 -1.18392 0
M  V30 5293 C 465.843 -2.96811 -1.76061 0
M  V30 5294 C 464.956 -4.13665 -1.24519 0
M  V30 5295 C 464.091 -4.74944 -2.3791 0
M  V30 5296 C 463.13 -5.83963 -1.83451 0
M  V30 5297 N 462.267 -6.39239 -2.90376 0
M  V30 5298 H 467.107 -2.98 -0.00114915 0
M  V30 5299 H 464.644 -1.47096 0.0112006 0
M  V30 5300 H 466.602 -3.37751 -2.44909 0
M  V30 5301 H 465.232 -2.24344 -2.32098 0
M  V30 5302 H 464.284 -3.77737 -0.449288 0
M  V30 5303 H 465.596 -4.92238 -0.806424 0
M  V30 5304 H 464.75 -5.18684 -3.14724 0
M  V30 5305 H 463.489 -3.95682 -2.85109 0
M  V30 5306 H 462.494 -5.39657 -1.05122 0
M  V30 5307 H 463.719 -6.65103 -1.37169 0
M  V30 5308 H 461.665 -5.62864 -3.36927 0
M  V30 5309 H 461.582 -7.13129 -2.50965 0
M  V30 5310 H 462.85 -6.87637 -3.67118 0
M  V30 5311 N 467.08 -0.0183926 -1.57589 0
M  V30 5312 C 468.012 0.995557 -2.06449 0
M  V30 5313 C 469.025 1.29556 -0.985849 0
M  V30 5314 O 470.214 1.2621 -1.26227 0
M  V30 5315 C 467.314 2.32572 -2.46502 0
M  V30 5316 C 466.487 2.21245 -3.77319 0
M  V30 5317 C 465.546 3.37104 -4.04039 0
M  V30 5318 O 464.572 3.14468 -4.74445 0
M  V30 5319 N 465.774 4.60553 -3.53372 0
M  V30 5320 H 468.539 0.578746 -2.94059 0
M  V30 5321 H 466.1 0.168603 -1.6102 0
M  V30 5322 H 468.092 3.08887 -2.61478 0
M  V30 5323 H 466.662 2.65931 -1.64315 0
M  V30 5324 H 465.882 1.29723 -3.72244 0
M  V30 5325 H 467.17 2.10868 -4.63047 0
M  V30 5326 H 466.568 4.81839 -2.96391 0
M  V30 5327 H 465.125 5.34072 -3.73644 0
M  V30 5328 N 468.558 1.5553 0.254621 0
M  V30 5329 C 469.488 1.9268 1.31897 0
M  V30 5330 C 470.469 0.790797 1.506 0
M  V30 5331 O 471.654 1.05045 1.63337 0
M  V30 5332 C 468.784 2.21477 2.67517 0
M  V30 5333 C 467.738 3.37256 2.63519 0
M  V30 5334 C 467.064 3.51576 4.02862 0
M  V30 5335 C 468.364 4.73157 2.21179 0
M  V30 5336 H 470.058 2.81832 1.01051 0
M  V30 5337 H 467.604 1.35599 0.484662 0
M  V30 5338 H 469.557 2.46055 3.42104 0
M  V30 5339 H 468.281 1.29144 2.99982 0
M  V30 5340 H 466.94 3.12675 1.9139 0
M  V30 5341 H 466.588 2.56676 4.32581 0
M  V30 5342 H 466.288 4.2943 4.01078 0
M  V30 5343 H 467.812 3.78467 4.79161 0
M  V30 5344 H 469.226 4.97158 2.85494 0
M  V30 5345 H 467.623 5.54058 2.30521 0
M  V30 5346 H 468.693 4.70739 1.16332 0
M  V30 5347 N 470.036 -0.519951 1.48776 0
M  V30 5348 C 470.946 -1.65025 1.66745 0
M  V30 5349 C 471.962 -1.6508 0.549954 0
M  V30 5350 O 473.138 -1.83848 0.822295 0
M  V30 5351 C 470.203 -3.0146 1.71238 0
M  V30 5352 C 469.264 -3.12182 2.94688 0
M  V30 5353 C 468.497 -4.42109 2.98958 0
M  V30 5354 O 468.72 -5.29799 2.1135 0
M  V30 5355 O 467.654 -4.57406 3.91233 0
M  V30 5356 H 471.48 -1.52801 2.62461 0
M  V30 5357 H 469.065 -0.694157 1.32294 0
M  V30 5358 H 470.947 -3.82584 1.76657 0
M  V30 5359 H 469.622 -3.13988 0.786975 0
M  V30 5360 H 468.529 -2.30316 2.94797 0
M  V30 5361 H 469.862 -3.04574 3.86646 0
M  V30 5362 N 471.514 -1.37532 -0.769588 0
M  V30 5363 C 472.93 -1.18379 -1.07045 0
M  V30 5364 C 473.13 -0.0214312 -2.01489 0
M  V30 5365 O 472.186 0.637809 -2.44312 0
M  V30 5366 C 473.499 -2.50338 -1.66588 0
M  V30 5367 C 475.047 -2.56879 -1.78835 0
M  V30 5368 C 475.522 -3.88974 -2.41792 0
M  V30 5369 N 477.013 -3.90428 -2.4924 0
M  V30 5370 C 477.748 -4.89388 -2.98809 0
M  V30 5371 N 477.244 -5.98745 -3.48535 0
M  V30 5372 N 479.037 -4.76791 -2.97703 0
M  V30 5373 H 471.188 -2.11921 -0.142541 0
M  V30 5374 H 473.451 -0.939608 -0.125863 0
M  V30 5375 H 473.157 -3.35767 -1.0466 0
M  V30 5376 H 473.031 -2.67583 -2.65856 0
M  V30 5377 H 475.418 -1.71856 -2.39895 0
M  V30 5378 H 475.499 -2.43516 -0.783166 0
M  V30 5379 H 475.143 -4.74412 -1.81371 0
M  V30 5380 H 475.073 -3.99641 -3.4292 0
M  V30 5381 H 477.564 -3.11433 -2.14052 0
M  V30 5382 H 477.877 -6.70205 -3.84767 0
M  V30 5383 H 476.222 -6.02387 -3.46634 0
M  V30 5384 H 479.413 -3.90478 -2.58157 0
M  V30 5385 H 479.586 -5.54069 -3.36024 0
M  V30 5386 N 472.992 0.995999 -1.22138 0
M  V30 5387 C 473.955 2.06711 -0.990109 0
M  V30 5388 C 474.955 1.60744 0.0422978 0
M  V30 5389 O 476.145 1.73095 -0.195895 0
M  V30 5390 C 473.277 3.37288 -0.49491 0
M  V30 5391 H 474.47 2.28661 -1.94047 0
M  V30 5392 H 472.023 1.16711 -1.03963 0
M  V30 5393 H 472.758 3.21022 0.459948 0
M  V30 5394 H 472.543 3.71986 -1.23971 0
M  V30 5395 H 474.033 4.16103 -0.353253 0
M  V30 5396 N 474.47 1.03057 1.19235 0
M  V30 5397 C 475.402 0.570932 2.21975 0
M  V30 5398 C 476.415 -0.354088 1.58903 0
M  V30 5399 O 477.604 -0.150211 1.77867 0
M  V30 5400 C 474.704 -0.187152 3.38383 0
M  V30 5401 C 473.877 0.743231 4.31039 0
M  V30 5402 C 472.936 0.0302493 5.26191 0
M  V30 5403 O 471.962 0.657371 5.65391 0
M  V30 5404 N 473.164 -1.23991 5.67104 0
M  V30 5405 H 475.929 1.45456 2.62036 0
M  V30 5406 H 473.49 0.909807 1.33918 0
M  V30 5407 H 475.482 -0.673715 3.99053 0
M  V30 5408 H 474.052 -0.972205 2.97098 0
M  V30 5409 H 473.272 1.40985 3.68126 0
M  V30 5410 H 474.56 1.3755 4.89854 0
M  V30 5411 H 473.958 -1.77011 5.37293 0
M  V30 5412 H 472.515 -1.67093 6.30018 0
M  V30 5413 N 475.948 -1.35272 0.808662 0
M  V30 5414 C 476.878 -2.32315 0.234981 0
M  V30 5415 C 477.859 -1.57572 -0.64071 0
M  V30 5416 O 479.044 -1.8563 -0.570551 0
M  V30 5417 C 476.174 -3.41801 -0.615601 0
M  V30 5418 C 475.128 -4.27694 0.161767 0
M  V30 5419 C 474.454 -5.28519 -0.810649 0
M  V30 5420 C 475.754 -5.04231 1.36193 0
M  V30 5421 H 477.448 -2.80543 1.04575 0
M  V30 5422 H 474.994 -1.3488 0.504315 0
M  V30 5423 H 476.947 -4.08693 -1.02702 0
M  V30 5424 H 475.671 -2.92186 -1.45928 0
M  V30 5425 H 474.33 -3.62384 0.554382 0
M  V30 5426 H 473.978 -4.75171 -1.64988 0
M  V30 5427 H 473.678 -5.8686 -0.294822 0
M  V30 5428 H 475.202 -5.98283 -1.22023 0
M  V30 5429 H 476.616 -5.64058 1.02528 0
M  V30 5430 H 475.013 -5.72077 1.81239 0
M  V30 5431 H 476.083 -4.34753 2.14751 0
M  V30 5432 N 477.426 -0.562348 -1.47226 0
M  V30 5433 C 478.336 0.185466 -2.33866 0
M  V30 5434 C 479.352 0.906713 -1.48508 0
M  V30 5435 O 480.528 0.874458 -1.81425 0
M  V30 5436 C 477.593 1.19904 -3.25306 0
M  V30 5437 C 476.654 0.484669 -4.26555 0
M  V30 5438 C 475.887 1.44996 -5.13626 0
M  V30 5439 O 476.11 2.68515 -5.03245 0
M  V30 5440 O 475.044 0.971642 -5.94006 0
M  V30 5441 H 478.87 -0.525361 -2.99121 0
M  V30 5442 H 476.455 -0.322916 -1.45868 0
M  V30 5443 H 478.337 1.78399 -3.81774 0
M  V30 5444 H 477.012 1.8917 -2.62672 0
M  V30 5445 H 475.919 -0.141605 -3.73832 0
M  V30 5446 H 477.252 -0.166634 -4.91918 0
M  V30 5447 N 478.904 1.54736 -0.299062 0
M  V30 5448 C 479.852 2.24897 0.593658 0
M  V30 5449 C 480.846 1.25429 1.13859 0
M  V30 5450 O 482.052 1.43286 1.08945 0
M  V30 5451 H 478.427 0.72207 0.210046 0
M  V30 5452 H 480.398 2.98393 -0.0206421 0
M  V30 5453 C 479.147 3.00159 1.75499 0
M  V30 5454 H 478.47 3.76501 1.34489 0
M  V30 5455 H 479.91 3.52535 2.35574 0
M  V30 5456 C 478.369 2.07015 2.65794 0
M  V30 5457 O 478.899 1.63692 3.66835 0
M  V30 5458 N 477.105 1.73012 2.33485 0
M  V30 5459 H 476.652 2.08439 1.51364 0
M  V30 5460 H 476.61 1.10965 2.94167 0
M  V30 5461 N 480.382 0.0267497 1.57577 0
M  V30 5462 C 481.292 -0.971633 2.13533 0
M  V30 5463 C 482.308 -1.35868 1.08701 0
M  V30 5464 O 483.484 -1.44058 1.40746 0
M  V30 5465 C 480.549 -2.23622 2.64941 0
M  V30 5466 C 479.61 -1.90982 3.8448 0
M  V30 5467 C 478.843 -3.11411 4.33427 0
M  V30 5468 O 479.066 -4.23992 3.81558 0
M  V30 5469 O 478 -2.93848 5.25297 0
M  V30 5470 H 481.826 -0.525853 2.99113 0
M  V30 5471 H 479.411 -0.193712 1.48139 0
M  V30 5472 H 481.293 -2.97864 2.98086 0
M  V30 5473 H 479.968 -2.67386 1.82446 0
M  V30 5474 H 478.875 -1.14132 3.56265 0
M  V30 5475 H 480.208 -1.52036 4.6813 0
M  V30 5476 N 481.861 -1.55662 -0.24637 0
M  V30 5477 C 482.808 -1.90361 -1.30504 0
M  V30 5478 C 483.778 -0.757905 -1.47801 0
M  V30 5479 O 484.963 -1.01161 -1.61775 0
M  V30 5480 C 482.103 -2.2042 -2.65535 0
M  V30 5481 C 481.216 -3.47799 -2.56242 0
M  V30 5482 C 480.351 -3.67426 -3.8363 0
M  V30 5483 C 479.39 -4.88403 -3.68956 0
M  V30 5484 N 478.527 -5.04548 -4.88237 0
M  V30 5485 H 483.367 -2.80645 -1.00213 0
M  V30 5486 H 480.904 -1.38924 -0.483577 0
M  V30 5487 H 482.862 -2.35853 -3.44135 0
M  V30 5488 H 481.492 -1.3334 -2.93973 0
M  V30 5489 H 480.544 -3.40694 -1.69208 0
M  V30 5490 H 481.856 -4.36544 -2.4131 0
M  V30 5491 H 481.01 -3.82821 -4.70673 0
M  V30 5492 H 479.749 -2.76914 -4.01459 0
M  V30 5493 H 478.754 -4.72984 -2.80296 0
M  V30 5494 H 479.979 -5.80375 -3.52621 0
M  V30 5495 H 477.925 -4.16974 -5.06427 0
M  V30 5496 H 477.842 -5.87384 -4.75937 0
M  V30 5497 H 479.11 -5.24355 -5.76777 0
M  V30 5498 N 483.339 0.512053 -1.4905 0
M  V30 5499 C 484.286 1.6148 -1.64902 0
M  V30 5500 C 485.256 1.58687 -0.490673 0
M  V30 5501 O 486.441 1.76842 -0.71636 0
M  V30 5502 C 483.581 2.99676 -1.71139 0
M  V30 5503 C 482.694 3.12568 -2.98203 0
M  V30 5504 C 481.829 4.4143 -2.95487 0
M  V30 5505 C 480.868 4.47916 -4.17179 0
M  V30 5506 N 480.005 5.68191 -4.12437 0
M  V30 5507 H 484.845 1.47271 -2.59066 0
M  V30 5508 H 482.382 0.716713 -1.28459 0
M  V30 5509 H 484.34 3.79761 -1.72736 0
M  V30 5510 H 482.97 3.12614 -0.804508 0
M  V30 5511 H 482.022 2.25618 -3.06269 0
M  V30 5512 H 483.334 3.1322 -3.88194 0
M  V30 5513 H 482.488 5.29825 -2.95585 0
M  V30 5514 H 481.227 4.43326 -2.03256 0
M  V30 5515 H 480.232 3.57925 -4.17337 0
M  V30 5516 H 481.457 4.47744 -5.1059 0
M  V30 5517 H 479.403 5.7095 -3.23036 0
M  V30 5518 H 479.32 5.70413 -4.96151 0
M  V30 5519 H 480.588 6.58823 -4.16621 0
M  V30 5520 N 484.817 1.37938 0.762283 0
M  V30 5521 C 485.764 1.34467 1.87583 0
M  V30 5522 C 486.734 0.208633 1.64785 0
M  V30 5523 O 487.919 0.399494 1.86571 0
M  V30 5524 C 485.059 1.16692 3.24772 0
M  V30 5525 C 484.172 2.39608 3.59461 0
M  V30 5526 C 483.307 2.14631 4.85908 0
M  V30 5527 C 482.346 3.33364 5.13357 0
M  V30 5528 N 481.483 3.07877 6.30996 0
M  V30 5529 H 486.323 2.29669 1.89885 0
M  V30 5530 H 483.86 1.14116 0.928219 0
M  V30 5531 H 485.818 1.04405 4.03925 0
M  V30 5532 H 484.448 0.251333 3.2182 0
M  V30 5533 H 483.5 2.626 2.75219 0
M  V30 5534 H 484.812 3.28128 3.75678 0
M  V30 5535 H 483.966 1.99429 5.72986 0
M  V30 5536 H 482.705 1.23463 4.71814 0
M  V30 5537 H 481.71 3.49094 4.24751 0
M  V30 5538 H 482.935 4.25395 5.29354 0
M  V30 5539 H 480.881 2.19348 6.18241 0
M  V30 5540 H 480.798 3.89944 6.47673 0
M  V30 5541 H 482.066 2.96313 7.20985 0
M  V30 5542 N 486.295 -0.989507 1.22664 0
M  V30 5543 C 487.711 -1.25395 0.987331 0
M  V30 5544 C 487.911 -1.9899 -0.317056 0
M  V30 5545 O 486.967 -2.30141 -1.03882 0
M  V30 5546 C 488.28 -2.06242 2.18826 0
M  V30 5547 C 489.828 -2.19413 2.23219 0
M  V30 5548 C 490.303 -3.03648 3.42873 0
M  V30 5549 N 491.794 -3.11234 3.43056 0
M  V30 5550 C 492.529 -3.7671 4.32293 0
M  V30 5551 N 492.025 -4.44085 5.31752 0
M  V30 5552 N 493.818 -3.73505 4.2006 0
M  V30 5553 H 485.969 -0.496212 2.06522 0
M  V30 5554 H 488.232 -0.281784 0.905153 0
M  V30 5555 H 487.938 -1.59531 3.13437 0
M  V30 5556 H 487.812 -3.06996 2.19165 0
M  V30 5557 H 490.199 -2.65336 1.29154 0
M  V30 5558 H 490.28 -1.18078 2.26917 0
M  V30 5559 H 489.924 -2.58424 4.37241 0
M  V30 5560 H 489.854 -4.05132 3.36416 0
M  V30 5561 H 492.345 -2.63287 2.71088 0
M  V30 5562 H 492.658 -4.91797 5.96117 0
M  V30 5563 H 491.003 -4.42822 5.35662 0
M  V30 5564 H 494.194 -3.20033 3.41609 0
M  V30 5565 H 494.367 -4.24253 4.8981 0
M  V30 5566 N 487.773 -1.03688 -1.18687 0
M  V30 5567 C 488.683 -0.634908 -2.25845 0
M  V30 5568 C 489.699 0.337065 -1.70704 0
M  V30 5569 O 490.875 0.192943 -2.00474 0
M  V30 5570 C 487.94 -0.000180054 -3.467 0
M  V30 5571 C 487.001 -1.02067 -4.1699 0
M  V30 5572 C 486.234 -0.41614 -5.32075 0
M  V30 5573 O 486.457 0.778712 -5.65059 0
M  V30 5574 O 485.391 -1.14296 -5.90948 0
M  V30 5575 H 489.217 -1.52757 -2.62486 0
M  V30 5576 H 486.802 -0.807533 -1.25695 0
M  V30 5577 H 488.684 0.353342 -4.19916 0
M  V30 5578 H 487.359 0.866367 -3.11891 0
M  V30 5579 H 486.266 -1.42592 -3.45859 0
M  V30 5580 H 487.599 -1.85786 -4.5579 0
M  V30 5581 N 489.251 1.34841 -0.815825 0
M  V30 5582 C 490.5 1.97755 -0.396976 0
M  V30 5583 C 490.813 1.65422 1.04379 0
M  V30 5584 O 492.019 2.21771 1.5662 0
M  V30 5585 C 490.475 3.53818 -0.658869 0
M  V30 5586 C 490.083 3.95051 -2.11278 0
M  V30 5587 C 491.827 4.23397 -0.305834 0
M  V30 5588 C 489.734 5.43997 -2.31994 0
M  V30 5589 H 488.664 0.739985 -0.1447 0
M  V30 5590 H 491.315 1.53781 -1.00118 0
M  V30 5591 H 489.697 3.95997 0.0154112 0
M  V30 5592 H 490.871 3.63998 -2.82564 0
M  V30 5593 H 489.186 3.38388 -2.42657 0
M  V30 5594 H 491.783 5.32899 -0.43854 0
M  V30 5595 H 492.126 4.09508 0.748952 0
M  V30 5596 H 492.659 3.8667 -0.934403 0
M  V30 5597 H 489.398 5.62865 -3.35952 0
M  V30 5598 H 488.918 5.76589 -1.65244 0
M  V30 5599 H 490.597 6.10584 -2.14001 0
M  V30 5600 N 490.729 0.570148 1.46925 0
M  V30 5601 C 491.692 -0.159933 2.28641 0
M  V30 5602 C 492.692 -0.830638 1.37685 0
M  V30 5603 O 493.882 -0.684516 1.60187 0
M  V30 5604 C 491.014 -1.2354 3.17727 0
M  V30 5605 H 492.207 0.558035 2.94662 0
M  V30 5606 H 489.76 0.327603 1.52828 0
M  V30 5607 H 490.495 -1.98535 2.56426 0
M  V30 5608 H 490.28 -0.759125 3.84681 0
M  V30 5609 H 491.77 -1.74782 3.79264 0
M  V30 5610 N 492.207 -1.54576 0.307264 0
M  V30 5611 C 493.117 -2.27435 -0.57536 0
M  V30 5612 C 494.133 -1.31183 -1.14311 0
M  V30 5613 O 495.309 -1.64175 -1.16656 0
M  V30 5614 C 492.374 -3.00566 -1.72803 0
M  V30 5615 C 491.435 -4.12369 -1.19373 0
M  V30 5616 C 490.668 -4.82003 -2.29147 0
M  V30 5617 O 490.891 -4.51038 -3.49171 0
M  V30 5618 O 489.825 -5.69271 -1.95485 0
M  V30 5619 H 493.651 -3.03696 0.0158558 0
M  V30 5620 H 491.236 -1.49219 0.0735064 0
M  V30 5621 H 493.118 -3.46416 -2.39946 0
M  V30 5622 H 491.793 -2.27195 -2.30574 0
M  V30 5623 H 490.7 -3.70905 -0.487851 0
M  V30 5624 H 492.033 -4.87736 -0.661376 0
M  V30 5625 N 493.685 -0.035106 -1.57561 0
M  V30 5626 C 494.632 0.94474 -2.10578 0
M  V30 5627 C 495.602 1.3192 -1.00927 0
M  V30 5628 O 496.787 1.41147 -1.28382 0
M  V30 5629 C 493.927 2.21982 -2.64231 0
M  V30 5630 C 493.04 1.90128 -3.87911 0
M  V30 5631 C 492.175 3.11975 -4.29936 0
M  V30 5632 C 491.214 2.75968 -5.46359 0
M  V30 5633 N 490.351 3.90459 -5.83512 0
M  V30 5634 H 495.191 0.485717 -2.94015 0
M  V30 5635 H 492.728 0.228143 -1.4532 0
M  V30 5636 H 494.686 2.96572 -2.9343 0
M  V30 5637 H 493.316 2.6549 -1.83616 0
M  V30 5638 H 492.368 1.05755 -3.65404 0
M  V30 5639 H 493.68 1.59613 -4.72573 0
M  V30 5640 H 492.834 3.9488 -4.60603 0
M  V30 5641 H 491.573 3.45657 -3.44053 0
M  V30 5642 H 490.578 1.91478 -5.1538 0
M  V30 5643 H 491.803 2.43497 -6.33945 0
M  V30 5644 H 489.749 4.23971 -5.00584 0
M  V30 5645 H 489.666 3.63588 -6.62827 0
M  V30 5646 H 490.934 4.7405 -6.18787 0
M  V30 5647 N 495.163 1.55791 0.238111 0
M  V30 5648 C 496.073 1.94196 1.31625 0
M  V30 5649 C 497.089 0.843545 1.52185 0
M  V30 5650 O 498.265 1.1457 1.65637 0
M  V30 5651 C 495.33 2.2365 2.64918 0
M  V30 5652 C 494.391 3.46971 2.52804 0
M  V30 5653 C 493.624 3.7501 3.79741 0
M  V30 5654 O 493.847 3.04982 4.82019 0
M  V30 5655 O 492.781 4.68525 3.77846 0
M  V30 5656 H 496.607 2.86044 1.02043 0
M  V30 5657 H 494.192 1.42786 0.439603 0
M  V30 5658 H 496.074 2.43863 3.4367 0
M  V30 5659 H 494.749 1.34979 2.94215 0
M  V30 5660 H 493.656 3.32055 1.72309 0
M  V30 5661 H 494.989 4.35971 2.28451 0
M  V30 5662 N 496.642 -0.504142 1.49319 0
M  V30 5663 C 497.589 -1.60603 1.65756 0
M  V30 5664 C 498.559 -1.58425 0.499082 0
M  V30 5665 O 499.744 -1.76459 0.725728 0
M  V30 5666 C 496.884 -2.98764 1.72726 0
M  V30 5667 C 495.997 -3.10982 2.99857 0
M  V30 5668 C 495.132 -4.39857 2.97824 0
M  V30 5669 C 494.171 -4.45697 4.19548 0
M  V30 5670 N 493.308 -5.65995 4.15444 0
M  V30 5671 H 498.148 -1.45895 2.59843 0
M  V30 5672 H 495.685 -0.709891 1.28837 0
M  V30 5673 H 497.643 -3.78839 1.74747 0
M  V30 5674 H 496.273 -3.12183 0.821075 0
M  V30 5675 H 495.325 -2.23991 3.07461 0
M  V30 5676 H 496.637 -3.11157 3.89849 0
M  V30 5677 H 495.791 -5.2825 2.98391 0
M  V30 5678 H 494.53 -4.42242 2.05604 0
M  V30 5679 H 493.535 -3.55707 4.19229 0
M  V30 5680 H 494.76 -4.4503 5.12957 0
M  V30 5681 H 492.706 -5.69229 3.26059 0
M  V30 5682 H 492.623 -5.67773 4.99169 0
M  V30 5683 H 493.891 -6.56604 4.20109 0
M  V30 5684 N 498.12 -1.38341 -0.754957 0
M  V30 5685 C 499.03 -1.3769 -1.89944 0
M  V30 5686 C 500.046 -0.274194 -1.71826 0
M  V30 5687 O 501.222 -0.512391 -1.94773 0
M  V30 5688 C 498.287 -1.19938 -3.25293 0
M  V30 5689 C 497.348 -2.40001 -3.55946 0
M  V30 5690 C 496.581 -2.23087 -4.84838 0
M  V30 5691 O 496.804 -1.22386 -5.57116 0
M  V30 5692 O 495.738 -3.11646 -5.14937 0
M  V30 5693 H 499.564 -2.3412 -1.93446 0
M  V30 5694 H 497.149 -1.19246 -0.900044 0
M  V30 5695 H 499.031 -1.12093 -4.06218 0
M  V30 5696 H 497.706 -0.265919 -3.22606 0
M  V30 5697 H 496.613 -2.53421 -2.75188 0
M  V30 5698 H 497.946 -3.31973 -3.63394 0
M  V30 5699 N 499.598 0.982988 -1.23187 0
M  V30 5700 C 501.014 1.2487 -0.993967 0
M  V30 5701 C 501.214 1.99155 0.306498 0
M  V30 5702 O 500.27 2.30688 1.0266 0
M  V30 5703 C 501.583 2.05078 -2.19917 0
M  V30 5704 C 503.131 2.18227 -2.2438 0
M  V30 5705 C 503.606 3.01825 -3.44479 0
M  V30 5706 N 505.097 3.09411 -3.44702 0
M  V30 5707 C 505.832 3.74412 -4.34285 0
M  V30 5708 N 505.328 4.41259 -5.341 0
M  V30 5709 N 507.121 3.71273 -4.22035 0
M  V30 5710 H 499.272 0.485253 -2.06783 0
M  V30 5711 H 501.535 0.276979 -0.906635 0
M  V30 5712 H 501.241 1.57867 -3.14279 0
M  V30 5713 H 501.115 3.05829 -2.2079 0
M  V30 5714 H 503.502 2.64648 -1.30559 0
M  V30 5715 H 503.583 1.16873 -2.2754 0
M  V30 5716 H 503.227 2.56102 -4.38605 0
M  V30 5717 H 503.157 4.03342 -3.38559 0
M  V30 5718 H 505.648 2.61845 -2.7248 0
M  V30 5719 H 505.961 4.88629 -5.98717 0
M  V30 5720 H 504.306 4.39975 -5.38002 0
M  V30 5721 H 507.497 3.18217 -3.43301 0
M  V30 5722 H 507.67 4.21649 -4.92053 0
M  V30 5723 N 501.076 1.04316 1.18135 0
M  V30 5724 C 502.325 0.74319 1.87509 0
M  V30 5725 C 502.638 -0.732136 1.81381 0
M  V30 5726 O 503.844 -1.14572 2.46141 0
M  V30 5727 C 502.3 1.27913 3.36402 0
M  V30 5728 C 501.908 2.78326 3.51053 0
M  V30 5729 C 503.652 1.0558 4.11161 0
M  V30 5730 C 501.559 3.25266 4.93919 0
M  V30 5731 H 500.489 0.274313 0.702331 0
M  V30 5732 H 503.14 1.25931 1.33467 0
M  V30 5733 H 501.522 0.690853 3.89927 0
M  V30 5734 H 502.696 3.42933 3.07788 0
M  V30 5735 H 501.011 2.991 2.89704 0
M  V30 5736 H 503.608 1.38161 5.16542 0
M  V30 5737 H 503.951 -0.00684729 4.16299 0
M  V30 5738 H 504.484 1.60882 3.63816 0
M  V30 5739 H 501.223 4.30922 4.9395 0
M  V30 5740 H 500.743 2.65396 5.3789 0
M  V30 5741 H 502.422 3.19433 5.62647 0
M  V30 5742 N 502.554 -1.34406 0.822964 0
M  V30 5743 C 503.464 -2.33298 0.246838 0
M  V30 5744 C 504.48 -1.62625 -0.618797 0
M  V30 5745 O 505.656 -1.94391 -0.526685 0
M  V30 5746 C 502.721 -3.41785 -0.581731 0
M  V30 5747 C 501.782 -4.28206 0.306309 0
M  V30 5748 C 501.015 -5.31512 -0.48281 0
M  V30 5749 O 501.238 -5.43973 -1.71607 0
M  V30 5750 O 500.172 -6.01749 0.134884 0
M  V30 5751 H 503.998 -2.84401 1.06534 0
M  V30 5752 H 501.583 -1.37466 0.585108 0
M  V30 5753 H 503.465 -4.08028 -1.05313 0
M  V30 5754 H 502.14 -2.92925 -1.37756 0
M  V30 5755 H 501.047 -3.64885 0.825199 0
M  V30 5756 H 502.38 -4.80507 1.06649 0
M  V30 5757 N 504.032 -0.577932 -1.46621 0
M  V30 5758 C 505.448 -0.239242 -1.57797 0
M  V30 5759 C 505.648 1.25843 -1.57371 0
M  V30 5760 O 504.704 2.03988 -1.48813 0
M  V30 5761 C 506.017 -0.884227 -2.87405 0
M  V30 5762 C 507.565 -0.857373 -3.01028 0
M  V30 5763 C 508.04 -1.48181 -4.33366 0
M  V30 5764 N 509.531 -1.44593 -4.40053 0
M  V30 5765 C 510.266 -1.89852 -5.41058 0
M  V30 5766 N 509.762 -2.43062 -6.48762 0
M  V30 5767 N 511.555 -1.80797 -5.3223 0
M  V30 5768 H 503.706 -1.55073 -1.45142 0
M  V30 5769 H 505.969 -0.647903 -0.692044 0
M  V30 5770 H 505.675 -1.93759 -2.93514 0
M  V30 5771 H 505.549 -0.389585 -3.75183 0
M  V30 5772 H 507.936 0.187357 -2.94505 0
M  V30 5773 H 508.017 -1.38999 -2.14739 0
M  V30 5774 H 507.661 -2.52572 -4.40647 0
M  V30 5775 H 507.591 -0.924464 -5.18422 0
M  V30 5776 H 510.082 -1.05694 -3.62819 0
M  V30 5777 H 510.395 -2.75466 -7.22038 0
M  V30 5778 H 508.74 -2.47085 -6.49595 0
M  V30 5779 H 511.931 -1.38989 -4.46989 0
M  V30 5780 H 512.104 -2.16385 -6.10804 0
M  V30 5781 N 505.51 1.54411 -0.315457 0
M  V30 5782 C 506.42 2.27737 0.56329 0
M  V30 5783 C 507.436 1.31787 1.13614 0
M  V30 5784 O 508.612 1.64791 1.15784 0
M  V30 5785 C 505.677 3.01478 1.71207 0
M  V30 5786 C 504.738 4.12997 1.17185 0
M  V30 5787 C 503.971 4.83212 2.26588 0
M  V30 5788 O 504.194 4.52884 3.46775 0
M  V30 5789 O 503.128 5.70299 1.92463 0
M  V30 5790 H 506.954 3.03683 -0.0319614 0
M  V30 5791 H 504.539 1.49178 -0.0814188 0
M  V30 5792 H 506.421 3.47683 2.38106 0
M  V30 5793 H 505.096 2.28414 2.29366 0
M  V30 5794 H 504.003 3.71159 0.468174 0
M  V30 5795 H 505.336 4.8808 0.635501 0
M  V30 5796 N 506.988 0.0434614 1.5754 0
M  V30 5797 C 507.935 -0.93356 2.11077 0
M  V30 5798 C 508.905 -1.31383 1.01626 0
M  V30 5799 O 510.09 -1.40465 1.29129 0
M  V30 5800 C 507.23 -2.20578 2.65404 0
M  V30 5801 C 506.343 -1.88068 3.88914 0
M  V30 5802 C 505.478 -3.09691 4.31584 0
M  V30 5803 C 504.517 -2.73067 5.47815 0
M  V30 5804 N 503.654 -3.87359 5.85574 0
M  V30 5805 H 508.494 -0.470118 2.94268 0
M  V30 5806 H 506.031 -0.220434 1.45439 0
M  V30 5807 H 507.989 -2.95011 2.94999 0
M  V30 5808 H 506.619 -2.64513 1.85021 0
M  V30 5809 H 505.671 -1.03816 3.6596 0
M  V30 5810 H 506.983 -1.57104 4.73413 0
M  V30 5811 H 506.137 -3.92431 4.62691 0
M  V30 5812 H 504.876 -3.43827 3.45882 0
M  V30 5813 H 503.881 -1.88742 5.16388 0
M  V30 5814 H 505.106 -2.40131 6.35227 0
M  V30 5815 H 503.052 -4.21311 5.02825 0
M  V30 5816 H 502.969 -3.60068 6.64746 0
M  V30 5817 H 504.237 -4.70761 6.21292 0
M  V30 5818 N 508.466 -1.55915 -0.229846 0
M  V30 5819 C 509.376 -1.94891 -1.30593 0
M  V30 5820 C 510.392 -0.851604 -1.51736 0
M  V30 5821 O 511.568 -1.15447 -1.65027 0
M  V30 5822 C 508.633 -2.25052 -2.63728 0
M  V30 5823 C 507.694 -3.48306 -2.5096 0
M  V30 5824 C 506.927 -3.77019 -3.77747 0
M  V30 5825 O 507.15 -3.07534 -4.80395 0
M  V30 5826 O 506.084 -4.70523 -3.75356 0
M  V30 5827 H 509.91 -2.86581 -1.00525 0
M  V30 5828 H 507.495 -1.43017 -0.432025 0
M  V30 5829 H 509.377 -2.45682 -3.42372 0
M  V30 5830 H 508.052 -1.36538 -2.93495 0
M  V30 5831 H 506.959 -3.32964 -1.70546 0
M  V30 5832 H 508.292 -4.37177 -2.26136 0
M  V30 5833 N 509.944 0.496216 -1.49584 0
M  V30 5834 C 510.854 1.62352 -1.69349 0
M  V30 5835 C 511.87 1.64184 -0.576147 0
M  V30 5836 O 513.046 1.82517 -0.85144 0
M  V30 5837 C 510.111 2.98698 -1.76013 0
M  V30 5838 C 509.172 3.07454 -2.99617 0
M  V30 5839 C 508.405 4.37296 -3.05953 0
M  V30 5840 O 508.628 5.2637 -2.19752 0
M  V30 5841 O 507.562 4.51124 -3.9846 0
M  V30 5842 H 511.388 1.48606 -2.64859 0
M  V30 5843 H 508.973 0.673022 -1.33382 0
M  V30 5844 H 510.855 3.79725 -1.82721 0
M  V30 5845 H 509.53 3.12696 -0.836828 0
M  V30 5846 H 508.437 2.25597 -2.98424 0
M  V30 5847 H 509.77 2.98385 -3.91443 0
M  V30 5848 N 511.423 1.38739 0.74761 0
M  V30 5849 C 512.353 1.39173 1.87492 0
M  V30 5850 C 513.334 0.256794 1.6815 0
M  V30 5851 O 514.519 0.460762 1.88655 0
M  V30 5852 C 511.649 1.22197 3.25093 0
M  V30 5853 C 510.603 2.32957 3.59047 0
M  V30 5854 C 509.929 2.01082 4.95449 0
M  V30 5855 C 511.229 3.75237 3.6331 0
M  V30 5856 H 512.923 2.3351 1.87386 0
M  V30 5857 H 510.469 1.12399 0.900134 0
M  V30 5858 H 512.422 1.21124 4.03617 0
M  V30 5859 H 511.146 0.243241 3.25693 0
M  V30 5860 H 509.805 2.33226 2.82845 0
M  V30 5861 H 509.453 1.01678 4.92616 0
M  V30 5862 H 509.153 2.75267 5.19136 0
M  V30 5863 H 510.677 2.01638 5.76346 0
M  V30 5864 H 512.091 3.76966 4.31937 0
M  V30 5865 H 510.488 4.48677 3.98509 0
M  V30 5866 H 511.558 4.07122 2.634 0
M  V30 5867 N 512.901 -0.976442 1.23707 0
M  V30 5868 C 513.834 -2.06793 0.964973 0
M  V30 5869 C 514.812 -1.62304 -0.0981472 0
M  V30 5870 O 515.996 -1.88464 0.0369477 0
M  V30 5871 C 513.123 -3.35636 0.454522 0
M  V30 5872 C 512.169 -3.99069 1.50485 0
M  V30 5873 S 513.002 -4.37814 3.0835 0
M  V30 5874 C 514.158 -5.69805 2.58985 0
M  V30 5875 H 514.391 -2.29556 1.88922 0
M  V30 5876 H 511.924 -1.11317 1.06995 0
M  V30 5877 H 513.882 -4.10162 0.166626 0
M  V30 5878 H 512.543 -3.10876 -0.448871 0
M  V30 5879 H 511.736 -4.91896 1.09792 0
M  V30 5880 H 511.338 -3.30938 1.7423 0
M  V30 5881 H 513.63 -6.46919 2.01252 0
M  V30 5882 H 514.573 -6.15345 3.50366 0
M  V30 5883 H 514.981 -5.27994 1.99705 0
M  V30 5884 N 514.379 -1.04941 -1.1758 0
M  V30 5885 C 515.289 -0.658826 -2.25159 0
M  V30 5886 C 516.305 0.318941 -1.71052 0
M  V30 5887 O 517.481 0.171669 -2.00667 0
M  V30 5888 C 514.546 -0.0369522 -3.4668 0
M  V30 5889 C 513.607 -1.06484 -4.15884 0
M  V30 5890 C 512.84 -0.472551 -5.31604 0
M  V30 5891 O 513.063 0.718736 -5.65854 0
M  V30 5892 O 511.997 -1.20557 -5.89703 0
M  V30 5893 H 515.823 -1.55533 -2.60851 0
M  V30 5894 H 513.408 -0.820819 -1.24832 0
M  V30 5895 H 515.29 0.308784 -4.20267 0
M  V30 5896 H 513.965 0.833238 -3.12792 0
M  V30 5897 H 512.872 -1.46253 -3.44327 0
M  V30 5898 H 514.205 -1.9061 -4.53794 0
M  V30 5899 N 515.857 1.33968 -0.830081 0
M  V30 5900 C 517.273 1.51003 -0.516742 0
M  V30 5901 C 517.473 1.77286 0.957694 0
M  V30 5902 O 516.529 1.82797 1.74188 0
M  V30 5903 C 517.842 2.67036 -1.38247 0
M  V30 5904 C 519.39 2.80919 -1.38034 0
M  V30 5905 C 519.865 4.00004 -2.23071 0
M  V30 5906 N 521.356 4.07224 -2.20733 0
M  V30 5907 C 522.091 4.98541 -2.83275 0
M  V30 5908 N 521.587 5.95033 -3.54835 0
M  V30 5909 N 523.38 4.91469 -2.72791 0
M  V30 5910 H 515.531 1.15168 -1.78466 0
M  V30 5911 H 517.794 0.565443 -0.760906 0
M  V30 5912 H 517.5 2.54266 -2.42985 0
M  V30 5913 H 517.374 3.62226 -1.05225 0
M  V30 5914 H 519.761 2.93127 -0.340713 0
M  V30 5915 H 519.842 1.86517 -1.75057 0
M  V30 5916 H 519.486 3.88557 -3.27087 0
M  V30 5917 H 519.416 4.93634 -1.83394 0
M  V30 5918 H 521.907 3.38162 -1.68687 0
M  V30 5919 H 522.22 6.61357 -3.99784 0
M  V30 5920 H 520.565 5.95135 -3.58942 0
M  V30 5921 H 523.756 4.15048 -2.16456 0
M  V30 5922 H 523.929 5.62439 -3.21818 0
M  V30 5923 N 517.335 0.585699 1.46312 0
M  V30 5924 C 518.265 -0.133556 2.33118 0
M  V30 5925 C 519.246 -0.880707 1.45525 0
M  V30 5926 O 520.431 -0.855579 1.74337 0
M  V30 5927 C 517.561 -1.14585 3.27853 0
M  V30 5928 C 516.515 -0.513341 4.2491 0
M  V30 5929 C 515.841 -1.63231 5.09175 0
M  V30 5930 C 517.141 0.551413 5.19381 0
M  V30 5931 H 518.835 0.59121 2.93505 0
M  V30 5932 H 516.381 0.285761 1.41136 0
M  V30 5933 H 518.334 -1.65741 3.87438 0
M  V30 5934 H 517.058 -1.90093 2.65579 0
M  V30 5935 H 515.717 -0.0228349 3.66593 0
M  V30 5936 H 515.365 -2.37713 4.43285 0
M  V30 5937 H 515.065 -1.21473 5.74907 0
M  V30 5938 H 516.589 -2.14658 5.71624 0
M  V30 5939 H 518.003 0.124804 5.73164 0
M  V30 5940 H 516.4 0.889486 5.93471 0
M  V30 5941 H 517.47 1.43655 4.63132 0
M  V30 5942 N 518.813 -1.54241 0.323641 0
M  V30 5943 C 519.76 -2.24339 -0.542277 0
M  V30 5944 C 520.73 -1.23421 -1.11159 0
M  V30 5945 O 521.915 -1.52104 -1.15192 0
M  V30 5946 C 519.055 -3.00479 -1.69725 0
M  V30 5947 C 518.168 -4.16214 -1.15716 0
M  V30 5948 C 517.303 -4.79884 -2.27783 0
M  V30 5949 C 516.342 -5.87722 -1.71023 0
M  V30 5950 N 515.479 -6.45254 -2.76752 0
M  V30 5951 H 520.319 -2.97935 0.0620613 0
M  V30 5952 H 517.856 -1.47039 0.0423993 0
M  V30 5953 H 519.814 -3.42869 -2.3769 0
M  V30 5954 H 518.444 -2.29217 -2.27288 0
M  V30 5955 H 517.496 -3.78605 -0.369063 0
M  V30 5956 H 518.808 -4.93838 -0.701832 0
M  V30 5957 H 517.962 -5.25243 -3.03651 0
M  V30 5958 H 516.701 -4.01641 -2.76652 0
M  V30 5959 H 515.706 -5.41765 -0.936518 0
M  V30 5960 H 516.931 -6.67863 -1.2303 0
M  V30 5961 H 514.877 -5.69884 -3.24912 0
M  V30 5962 H 514.794 -7.18292 -2.35782 0
M  V30 5963 H 516.062 -6.95269 -3.5245 0
M  V30 5964 N 520.291 -0.0518155 -1.57515 0
M  V30 5965 C 521.223 0.951542 -2.08515 0
M  V30 5966 C 522.236 1.27436 -1.01311 0
M  V30 5967 O 523.425 1.23504 -1.28876 0
M  V30 5968 C 520.525 2.27291 -2.5138 0
M  V30 5969 C 519.698 2.13191 -3.81927 0
M  V30 5970 C 518.757 3.28458 -4.11098 0
M  V30 5971 O 517.783 3.04334 -4.81009 0
M  V30 5972 N 518.985 4.52954 -3.63061 0
M  V30 5973 H 521.75 0.516242 -2.9522 0
M  V30 5974 H 519.311 0.13441 -1.61341 0
M  V30 5975 H 521.303 3.03272 -2.67971 0
M  V30 5976 H 519.873 2.62386 -1.69919 0
M  V30 5977 H 519.093 1.21798 -3.74912 0
M  V30 5978 H 520.381 2.00999 -4.67415 0
M  V30 5979 H 519.779 4.75444 -3.06545 0
M  V30 5980 H 518.336 5.26026 -3.84889 0
M  V30 5981 N 521.769 1.56035 0.221574 0
M  V30 5982 C 523.018 1.78245 0.944016 0
M  V30 5983 C 523.331 0.620371 1.85501 0
M  V30 5984 O 524.537 0.726103 2.6161 0
M  V30 5985 C 522.993 3.15659 1.7288 0
M  V30 5986 C 522.601 4.39591 0.863942 0
M  V30 5987 C 524.345 3.47195 2.44246 0
M  V30 5988 C 522.252 5.6803 1.64607 0
M  V30 5989 H 521.182 0.664547 0.356222 0
M  V30 5990 H 523.833 1.8243 0.197904 0
M  V30 5991 H 522.215 3.0565 2.51781 0
M  V30 5992 H 523.389 4.60655 0.115464 0
M  V30 5993 H 521.704 4.15572 0.262407 0
M  V30 5994 H 524.301 4.40381 3.03263 0
M  V30 5995 H 524.644 2.69693 3.1713 0
M  V30 5996 H 525.177 3.58533 1.72334 0
M  V30 5997 H 521.916 6.48425 0.960507 0
M  V30 5998 H 521.436 5.51027 2.36917 0
M  V30 5999 H 523.115 6.08203 2.20675 0
M  V30 6000 N 523.247 -0.488276 1.49845 0
M  V30 6001 C 524.157 -1.61451 1.70207 0
M  V30 6002 C 525.173 -1.63877 0.584846 0
M  V30 6003 O 526.349 -1.82063 0.861107 0
M  V30 6004 C 523.414 -2.9776 1.77594 0
M  V30 6005 C 522.475 -3.05861 3.01243 0
M  V30 6006 C 521.708 -4.35668 3.08268 0
M  V30 6007 O 521.931 -5.25197 2.22541 0
M  V30 6008 O 520.865 -4.49005 4.00847 0
M  V30 6009 H 524.691 -1.47199 2.65643 0
M  V30 6010 H 522.276 -0.665939 1.33737 0
M  V30 6011 H 524.158 -3.7875 1.84732 0
M  V30 6012 H 522.833 -3.12248 0.8534 0
M  V30 6013 H 521.74 -2.24012 2.99616 0
M  V30 6014 H 523.073 -2.96304 3.9302 0
M  V30 6015 N 524.725 -1.39134 -0.740242 0
M  V30 6016 C 525.635 -1.39697 -1.88473 0
M  V30 6017 C 526.651 -0.292403 -1.71526 0
M  V30 6018 O 527.827 -0.533021 -1.94219 0
M  V30 6019 C 524.892 -1.23382 -3.24003 0
M  V30 6020 C 523.953 -2.43763 -3.53381 0
M  V30 6021 C 523.186 -2.28216 -4.82445 0
M  V30 6022 O 523.409 -1.28288 -5.55786 0
M  V30 6023 O 522.343 -3.1709 -5.11603 0
M  V30 6024 H 526.169 -2.36159 -1.90952 0
M  V30 6025 H 523.754 -1.20194 -0.887346 0
M  V30 6026 H 525.636 -1.16395 -4.05006 0
M  V30 6027 H 524.311 -0.300121 -3.22306 0
M  V30 6028 H 523.218 -2.56325 -2.72485 0
M  V30 6029 H 524.551 -3.35808 -3.59852 0
M  V30 6030 N 526.204 0.969867 -1.24223 0
M  V30 6031 C 527.136 2.0669 -0.99055 0
M  V30 6032 C 528.149 1.62753 0.0392222 0
M  V30 6033 O 529.338 1.77403 -0.197561 0
M  V30 6034 C 526.438 3.35589 -0.472594 0
M  V30 6035 C 525.611 4.08444 -1.56499 0
M  V30 6036 C 524.67 5.15616 -1.05007 0
M  V30 6037 O 523.696 5.41911 -1.7413 0
M  V30 6038 N 524.898 5.80383 0.116641 0
M  V30 6039 H 527.663 2.28855 -1.93508 0
M  V30 6040 H 525.224 1.13733 -1.15223 0
M  V30 6041 H 527.216 4.04542 -0.112919 0
M  V30 6042 H 525.786 3.10311 0.377617 0
M  V30 6043 H 525.006 3.33798 -2.09696 0
M  V30 6044 H 526.294 4.53882 -2.29932 0
M  V30 6045 H 525.692 5.6142 0.694589 0
M  V30 6046 H 524.249 6.50462 0.417483 0
M  V30 6047 N 527.682 1.05563 1.17022 0
M  V30 6048 C 528.91 0.78845 1.91288 0
M  V30 6049 C 529.325 -0.656318 1.77025 0
M  V30 6050 O 528.682 -1.44869 1.10992 0
M  V30 6051 C 528.733 1.16444 3.42232 0
M  V30 6052 O 528.454 2.5525 3.5606 0
M  V30 6053 C 529.955 0.923937 4.33565 0
M  V30 6054 H 527.175 0.286389 0.606813 0
M  V30 6055 H 529.719 1.4073 1.48375 0
M  V30 6056 H 527.874 0.590266 3.82877 0
M  V30 6057 H 528.288 2.70097 4.49609 0
M  V30 6058 H 529.762 1.23672 5.37968 0
M  V30 6059 H 530.239 -0.140688 4.38975 0
M  V30 6060 H 530.845 1.48214 3.98639 0
M  V30 6061 N 529.16 -1.33526 0.837174 0
M  V30 6062 C 530.409 -1.97098 0.428387 0
M  V30 6063 C 530.722 -1.67062 -1.01734 0
M  V30 6064 O 531.928 -2.24235 -1.53072 0
M  V30 6065 C 530.384 -3.52725 0.715075 0
M  V30 6066 C 529.992 -3.9164 2.17537 0
M  V30 6067 C 531.736 -4.22857 0.373154 0
M  V30 6068 C 529.643 -5.40237 2.40619 0
M  V30 6069 H 528.573 -0.737589 0.156455 0
M  V30 6070 H 531.224 -1.52169 1.02552 0
M  V30 6071 H 529.606 -3.95971 0.0475904 0
M  V30 6072 H 530.78 -3.59456 2.88319 0
M  V30 6073 H 529.095 -3.34485 2.4801 0
M  V30 6074 H 531.692 -5.32133 0.523264 0
M  V30 6075 H 532.035 -4.10647 -0.683708 0
M  V30 6076 H 532.568 -3.85135 0.995801 0
M  V30 6077 H 529.307 -5.57449 3.44864 0
M  V30 6078 H 528.827 -5.73887 1.74396 0
M  V30 6079 H 530.506 -6.07102 2.23688 0
M  V30 6080 N 530.638 -0.59345 -1.46 0
M  V30 6081 C 531.585 0.133618 -2.30413 0
M  V30 6082 C 532.555 0.873736 -1.41262 0
M  V30 6083 O 533.74 0.862279 -1.70204 0
M  V30 6084 C 530.88 1.13434 -3.25924 0
M  V30 6085 C 529.993 0.39656 -4.30176 0
M  V30 6086 C 529.128 1.38575 -5.12806 0
M  V30 6087 C 528.167 0.634984 -6.08797 0
M  V30 6088 N 527.304 1.57276 -6.84258 0
M  V30 6089 H 532.144 -0.592252 -2.92055 0
M  V30 6090 H 529.681 -0.303874 -1.43927 0
M  V30 6091 H 531.639 1.72752 -3.79753 0
M  V30 6092 H 530.269 1.82779 -2.66067 0
M  V30 6093 H 529.321 -0.311861 -3.79119 0
M  V30 6094 H 530.633 -0.189869 -4.98438 0
M  V30 6095 H 529.787 2.05141 -5.70966 0
M  V30 6096 H 528.526 2.00611 -4.44529 0
M  V30 6097 H 527.531 -0.0443925 -5.49782 0
M  V30 6098 H 528.756 0.0198678 -6.79097 0
M  V30 6099 H 526.702 2.18103 -6.18682 0
M  V30 6100 H 526.619 1.03941 -7.48821 0
M  V30 6101 H 527.887 2.22844 -7.46968 0
M  V30 6102 N 532.116 1.54067 -0.331816 0
M  V30 6103 C 533.079 2.23275 0.517768 0
M  V30 6104 C 534.079 1.22897 1.03697 0
M  V30 6105 O 535.269 1.47419 0.928084 0
M  V30 6106 C 532.401 2.94326 1.72004 0
M  V30 6107 H 533.594 2.99773 -0.0873507 0
M  V30 6108 H 531.147 1.56079 -0.0830042 0
M  V30 6109 H 531.882 2.21986 2.36417 0
M  V30 6110 H 531.667 3.67941 1.35507 0
M  V30 6111 H 533.157 3.47031 2.32291 0
M  V30 6112 N 533.594 0.0601682 1.57485 0
M  V30 6113 C 534.526 -0.94047 2.09016 0
M  V30 6114 C 535.539 -1.26897 1.01985 0
M  V30 6115 O 536.728 -1.22819 1.29529 0
M  V30 6116 C 533.828 -2.25955 2.52582 0
M  V30 6117 C 533.001 -2.11163 3.83052 0
M  V30 6118 C 532.06 -3.26273 4.12835 0
M  V30 6119 O 531.086 -3.01779 4.82616 0
M  V30 6120 N 532.288 -4.51022 3.65458 0
M  V30 6121 H 535.053 -0.500578 2.9549 0
M  V30 6122 H 532.614 -0.125852 1.6141 0
M  V30 6123 H 534.606 -3.01846 2.69575 0
M  V30 6124 H 533.176 -2.61481 1.71308 0
M  V30 6125 H 532.396 -1.19808 3.75552 0
M  V30 6126 H 533.684 -1.98517 4.68475 0
M  V30 6127 H 533.082 -4.73811 3.09062 0
M  V30 6128 H 531.639 -5.23978 3.87673 0
M  V30 6129 N 535.072 -1.5615 -0.213296 0
M  V30 6130 C 536.019 -1.93086 -1.26437 0
M  V30 6131 C 536.989 -0.789086 -1.4616 0
M  V30 6132 O 538.174 -1.04569 -1.59593 0
M  V30 6133 C 535.314 -2.26003 -2.608 0
M  V30 6134 C 534.427 -3.53156 -2.48807 0
M  V30 6135 C 533.562 -3.7548 -3.7575 0
M  V30 6136 C 532.601 -4.96119 -3.58514 0
M  V30 6137 N 531.738 -5.14791 -4.77425 0
M  V30 6138 H 536.578 -2.82707 -0.942376 0
M  V30 6139 H 534.115 -1.39919 -0.454001 0
M  V30 6140 H 536.073 -2.431 -3.39055 0
M  V30 6141 H 534.703 -1.39546 -2.91079 0
M  V30 6142 H 533.755 -3.44207 -1.61944 0
M  V30 6143 H 535.067 -4.41565 -2.31996 0
M  V30 6144 H 534.221 -3.92718 -4.62447 0
M  V30 6145 H 532.96 -2.85368 -3.95495 0
M  V30 6146 H 531.965 -4.78823 -2.70201 0
M  V30 6147 H 533.19 -5.87724 -3.40231 0
M  V30 6148 H 531.136 -4.27623 -4.97468 0
M  V30 6149 H 531.053 -5.97347 -4.63371 0
M  V30 6150 H 532.321 -5.36471 -5.65525 0
M  V30 6151 N 536.55 0.480323 -1.50102 0
M  V30 6152 C 537.46 1.60547 -1.71061 0
M  V30 6153 C 538.476 1.63564 -0.593529 0
M  V30 6154 O 539.652 1.81604 -0.870751 0
M  V30 6155 C 536.717 2.96814 -1.79171 0
M  V30 6156 C 535.778 3.04259 -3.02861 0
M  V30 6157 C 535.011 4.34027 -3.10574 0
M  V30 6158 O 535.234 5.24009 -2.25323 0
M  V30 6159 O 534.168 4.46873 -4.03223 0
M  V30 6160 H 537.994 1.45788 -2.6642 0
M  V30 6161 H 535.579 0.658838 -1.34088 0
M  V30 6162 H 537.461 3.77765 -1.86738 0
M  V30 6163 H 536.136 3.11791 -0.869947 0
M  V30 6164 H 535.043 2.22419 -3.008 0
M  V30 6165 H 536.376 2.94216 -3.94586 0
M  V30 6166 N 538.028 1.39524 0.732853 0
M  V30 6167 C 538.958 1.41153 1.86005 0
M  V30 6168 C 539.939 0.274614 1.67869 0
M  V30 6169 O 541.124 0.480745 1.88155 0
M  V30 6170 C 538.254 1.25638 3.23778 0
M  V30 6171 C 537.208 2.36752 3.56556 0
M  V30 6172 C 536.534 2.06326 4.93289 0
M  V30 6173 C 537.834 3.79069 3.5931 0
M  V30 6174 H 539.528 2.35484 1.84899 0
M  V30 6175 H 537.074 1.13348 0.888162 0
M  V30 6176 H 539.027 1.25398 4.0231 0
M  V30 6177 H 537.751 0.277772 3.25417 0
M  V30 6178 H 536.41 2.36213 2.80355 0
M  V30 6179 H 536.058 1.06897 4.9151 0
M  V30 6180 H 535.758 2.80757 5.16187 0
M  V30 6181 H 537.282 2.07739 5.74175 0
M  V30 6182 H 538.696 3.81526 4.27914 0
M  V30 6183 H 537.093 4.52878 3.93728 0
M  V30 6184 H 538.163 4.09893 2.59068 0
M  V30 6185 N 539.506 -0.963266 1.24736 0
M  V30 6186 C 540.416 -2.09246 1.06082 0
M  V30 6187 C 541.432 -1.74 0.000363101 0
M  V30 6188 O 542.608 -2.0041 0.199479 0
M  V30 6189 C 539.673 -3.40115 0.672498 0
M  V30 6190 C 538.734 -3.89282 1.80993 0
M  V30 6191 C 537.967 -5.13905 1.44004 0
M  V30 6192 O 538.19 -5.69434 0.331835 0
M  V30 6193 O 537.124 -5.57566 2.26723 0
M  V30 6194 H 540.95 -2.27881 2.00759 0
M  V30 6195 H 538.535 -1.07649 1.03595 0
M  V30 6196 H 540.417 -4.18797 0.467668 0
M  V30 6197 H 539.092 -3.22771 -0.245102 0
M  V30 6198 H 537.999 -3.11642 2.06955 0
M  V30 6199 H 539.332 -4.1111 2.70646 0
M  V30 6200 N 540.985 -1.06182 -1.16461 0
M  V30 6201 C 541.895 -0.682671 -2.24448 0
M  V30 6202 C 542.911 0.30078 -1.71381 0
M  V30 6203 O 544.087 0.150376 -2.00838 0
M  V30 6204 C 541.152 -0.0737202 -3.46622 0
M  V30 6205 C 540.213 -1.10889 -4.14731 0
M  V30 6206 C 539.446 -0.528908 -5.31073 0
M  V30 6207 O 539.669 0.65868 -5.66584 0
M  V30 6208 O 538.603 -1.26805 -5.88391 0
M  V30 6209 H 542.429 -1.58291 -2.59187 0
M  V30 6210 H 540.014 -0.834013 -1.23954 0
M  V30 6211 H 541.896 0.264192 -4.20571 0
M  V30 6212 H 540.571 0.800015 -3.13658 0
M  V30 6213 H 539.478 -1.49896 -3.42756 0
M  V30 6214 H 540.811 -1.95412 -4.51747 0
M  V30 6215 N 542.463 1.3308 -0.844243 0
M  V30 6216 C 543.395 2.27954 -0.238671 0
M  V30 6217 C 544.408 1.51978 0.583665 0
M  V30 6218 O 545.597 1.73731 0.409857 0
M  V30 6219 C 542.697 3.31963 0.682185 0
M  V30 6220 C 541.87 4.37281 -0.101998 0
M  V30 6221 C 540.929 5.20928 0.743022 0
M  V30 6222 O 539.955 5.68914 0.180285 0
M  V30 6223 N 541.157 5.42738 2.0595 0
M  V30 6224 H 543.922 2.8056 -1.05386 0
M  V30 6225 H 541.483 1.4583 -0.70322 0
M  V30 6226 H 543.475 3.84828 1.25259 0
M  V30 6227 H 542.045 2.79594 1.39808 0
M  V30 6228 H 541.265 3.84843 -0.853802 0
M  V30 6229 H 542.553 5.04746 -0.641015 0
M  V30 6230 H 541.951 5.05463 2.54016 0
M  V30 6231 H 540.508 5.98639 2.57827 0
M  V30 6232 N 543.941 0.601185 1.45683 0
M  V30 6233 C 545.169 0.100054 2.06658 0
M  V30 6234 C 545.584 -1.21285 1.44691 0
M  V30 6235 O 544.941 -1.73735 0.558772 0
M  V30 6236 C 544.992 -0.0528579 3.61461 0
M  V30 6237 O 544.713 1.20809 4.21114 0
M  V30 6238 C 546.214 -0.586193 4.39407 0
M  V30 6239 H 543.434 0.065905 0.667756 0
M  V30 6240 H 545.978 0.827101 1.87028 0
M  V30 6241 H 544.133 -0.730203 3.80456 0
M  V30 6242 H 544.547 1.03368 5.14213 0
M  V30 6243 H 546.021 -0.642297 5.4825 0
M  V30 6244 H 546.498 -1.60713 4.0874 0
M  V30 6245 H 547.104 0.0568935 4.25262 0
M  V30 6246 N 545.419 -1.53889 0.339982 0
M  V30 6247 C 546.835 -1.59595 -0.0120752 0
M  V30 6248 C 547.035 -1.35605 -1.49042 0
M  V30 6249 O 546.091 -1.14856 -2.24865 0
M  V30 6250 C 547.404 -2.9774 0.420898 0
M  V30 6251 C 548.952 -3.1077 0.37294 0
M  V30 6252 C 549.427 -4.51286 0.781327 0
M  V30 6253 N 550.918 -4.57325 0.735374 0
M  V30 6254 C 551.653 -5.64194 1.02336 0
M  V30 6255 N 551.149 -6.7893 1.37933 0
M  V30 6256 N 552.942 -5.54051 0.947838 0
M  V30 6257 H 545.093 -1.67738 1.30299 0
M  V30 6258 H 547.356 -0.785385 0.530918 0
M  V30 6259 H 547.062 -3.20349 1.45152 0
M  V30 6260 H 546.936 -3.76639 -0.205721 0
M  V30 6261 H 549.323 -2.87886 -0.648505 0
M  V30 6262 H 549.404 -2.33939 1.03472 0
M  V30 6263 H 549.048 -4.74905 1.80077 0
M  V30 6264 H 548.978 -5.26511 0.0970679 0
M  V30 6265 H 551.469 -3.74931 0.472773 0
M  V30 6266 H 551.782 -7.56392 1.58402 0
M  V30 6267 H 550.127 -6.80386 1.41774 0
M  V30 6268 H 553.318 -4.63293 0.669115 0
M  V30 6269 H 553.491 -6.37246 1.17563 0
M  V30 6270 N 546.897 -0.0685191 -1.57451 0
M  V30 6271 C 547.844 0.899861 -2.12535 0
M  V30 6272 C 548.814 1.29749 -1.03703 0
M  V30 6273 O 549.999 1.38392 -1.31348 0
M  V30 6274 C 547.139 2.16328 -2.6888 0
M  V30 6275 C 546.252 1.81857 -3.91857 0
M  V30 6276 C 545.387 3.02786 -4.36457 0
M  V30 6277 C 544.426 2.64317 -5.5209 0
M  V30 6278 N 543.563 3.77994 -5.91663 0
M  V30 6279 H 548.403 0.423243 -2.94979 0
M  V30 6280 H 545.94 0.197268 -1.45771 0
M  V30 6281 H 547.898 2.90281 -2.99655 0
M  V30 6282 H 546.528 2.61536 -1.89206 0
M  V30 6283 H 545.58 0.979808 -3.67565 0
M  V30 6284 H 546.892 1.49553 -4.75852 0
M  V30 6285 H 546.046 3.85021 -4.68875 0
M  V30 6286 H 544.785 3.38281 -3.51308 0
M  V30 6287 H 543.79 1.80503 -5.19325 0
M  V30 6288 H 545.015 2.29995 -6.38967 0
M  V30 6289 H 542.961 4.13258 -5.09464 0
M  V30 6290 H 542.878 3.49447 -6.7039 0
M  V30 6291 H 544.146 4.60818 -6.28703 0
M  V30 6292 N 548.375 1.56261 0.205012 0
M  V30 6293 C 549.338 1.92908 1.23771 0
M  V30 6294 C 550.338 0.809208 1.38955 0
M  V30 6295 O 551.528 1.07676 1.36936 0
M  V30 6296 C 548.66 2.19442 2.60879 0
M  V30 6297 H 549.853 2.85287 0.924728 0
M  V30 6298 H 547.406 1.49798 0.446125 0
M  V30 6299 H 548.141 1.29668 2.97248 0
M  V30 6300 H 547.926 3.0104 2.51232 0
M  V30 6301 H 549.416 2.48833 3.35368 0
M  V30 6302 N 549.853 -0.472356 1.50355 0
M  V30 6303 C 550.783 -1.57859 1.72055 0
M  V30 6304 C 551.764 -1.60283 0.569505 0
M  V30 6305 O 552.949 -1.7657 0.808503 0
M  V30 6306 C 550.079 -2.96191 1.81351 0
M  V30 6307 C 549.033 -3.08633 2.96529 0
M  V30 6308 C 548.359 -4.486 2.90968 0
M  V30 6309 C 549.659 -2.85969 4.37057 0
M  V30 6310 H 551.353 -1.39953 2.64676 0
M  V30 6311 H 548.899 -0.671846 1.27367 0
M  V30 6312 H 550.852 -3.73507 1.95117 0
M  V30 6313 H 549.576 -3.15251 0.853502 0
M  V30 6314 H 548.235 -2.33749 2.82413 0
M  V30 6315 H 547.883 -4.64577 1.92815 0
M  V30 6316 H 547.583 -4.57861 3.68289 0
M  V30 6317 H 549.107 -5.27938 3.0678 0
M  V30 6318 H 550.521 -3.53036 4.51706 0
M  V30 6319 H 548.918 -3.06677 5.15819 0
M  V30 6320 H 549.988 -1.81838 4.49514 0
M  V30 6321 N 551.331 -1.39911 -0.725443 0
M  V30 6322 C 552.241 -1.41688 -1.8698 0
M  V30 6323 C 553.257 -0.310579 -1.71206 0
M  V30 6324 O 554.433 -0.55359 -1.93642 0
M  V30 6325 C 551.498 -1.26811 -3.22676 0
M  V30 6326 C 550.559 -2.47497 -3.50776 0
M  V30 6327 C 549.792 -2.3332 -4.79997 0
M  V30 6328 O 550.015 -1.34175 -5.54394 0
M  V30 6329 O 548.949 -3.22498 -5.08211 0
M  V30 6330 H 552.775 -2.38171 -1.88436 0
M  V30 6331 H 550.36 -1.21128 -0.874548 0
M  V30 6332 H 552.242 -1.20684 -4.03749 0
M  V30 6333 H 550.917 -0.334289 -3.21969 0
M  V30 6334 H 549.824 -2.59201 -2.69751 0
M  V30 6335 H 551.157 -3.39606 -3.5627 0
M  V30 6336 N 552.809 0.956637 -1.25245 0
M  V30 6337 C 553.739 2.07058 -1.07931 0
M  V30 6338 C 554.72 1.70096 0.0110361 0
M  V30 6339 O 555.905 1.93555 -0.158121 0
M  V30 6340 C 553.035 3.40272 -0.695124 0
M  V30 6341 C 551.989 3.91235 -1.73549 0
M  V30 6342 C 551.315 5.20921 -1.20604 0
M  V30 6343 C 552.615 4.17837 -3.13385 0
M  V30 6344 H 554.309 2.218 -2.01109 0
M  V30 6345 H 551.855 1.06581 -0.968326 0
M  V30 6346 H 553.808 4.1765 -0.560949 0
M  V30 6347 H 552.532 3.25462 0.272355 0
M  V30 6348 H 551.191 3.16025 -1.85807 0
M  V30 6349 H 550.839 5.02479 -0.228846 0
M  V30 6350 H 550.539 5.55987 -1.90136 0
M  V30 6351 H 552.063 6.00897 -1.08421 0
M  V30 6352 H 553.477 4.8588 -3.04292 0
M  V30 6353 H 551.874 4.64154 -3.80369 0
M  V30 6354 H 552.944 3.2419 -3.60595 0
M  V30 6355 N 554.287 1.06798 1.15896 0
M  V30 6356 C 555.564 0.701057 1.82605 0
M  V30 6357 C 555.944 -0.817066 1.94646 0
M  V30 6358 O 555.292 -1.72933 1.49353 0
M  V30 6359 C 555.502 1.40895 3.19296 0
M  V30 6360 C 556.85 1.55744 3.95005 0
M  V30 6361 O 557.874 1.36927 3.28831 0
M  V30 6362 O 556.733 1.86658 5.13635 0
M  V30 6363 H 553.827 0.248791 0.78869 0
M  V30 6364 H 556.373 1.16857 1.23055 0
M  V30 6365 H 555.145 2.4439 3.05596 0
M  V30 6366 H 554.768 0.931847 3.86526 0
M  V30 6367 N 555.766 -1.3263 0.851289 0
M  V30 6368 C 556.698 -2.27824 0.250757 0
M  V30 6369 C 557.711 -1.52285 -0.575598 0
M  V30 6370 O 558.9 -1.73946 -0.400638 0
M  V30 6371 C 556 -3.3232 -0.664571 0
M  V30 6372 C 555.173 -4.37221 0.125187 0
M  V30 6373 C 554.232 -5.21314 -0.715385 0
M  V30 6374 O 553.258 -5.69002 -0.150111 0
M  V30 6375 N 554.46 -5.43823 -2.03069 0
M  V30 6376 H 557.225 -2.79997 1.06873 0
M  V30 6377 H 554.786 -1.45455 0.710943 0
M  V30 6378 H 556.778 -3.85486 -1.23216 0
M  V30 6379 H 555.348 -2.80331 -1.38323 0
M  V30 6380 H 554.568 -3.84384 0.874199 0
M  V30 6381 H 555.856 -5.04399 0.667774 0
M  V30 6382 H 555.254 -5.06803 -2.51332 0
M  V30 6383 H 553.811 -5.99998 -2.54648 0
M  V30 6384 N 557.244 -0.608902 -1.45362 0
M  V30 6385 C 558.154 0.110969 -2.34337 0
M  V30 6386 C 559.17 0.859007 -1.51318 0
M  V30 6387 O 560.346 0.816296 -1.84116 0
M  V30 6388 C 557.411 1.09494 -3.28956 0
M  V30 6389 C 556.472 0.348718 -4.27881 0
M  V30 6390 C 555.705 1.28582 -5.17979 0
M  V30 6391 O 555.928 2.52369 -5.11533 0
M  V30 6392 O 554.862 0.782172 -5.96796 0
M  V30 6393 H 558.688 -0.620258 -2.97299 0
M  V30 6394 H 556.273 -0.36916 -1.44767 0
M  V30 6395 H 558.155 1.66163 -3.87257 0
M  V30 6396 H 556.83 1.80717 -2.68557 0
M  V30 6397 H 555.737 -0.260465 -3.73192 0
M  V30 6398 H 557.07 -0.323049 -4.91139 0
M  V30 6399 N 558.722 1.53707 -0.348139 0
M  V30 6400 C 560.138 1.596 0.00361134 0
M  V30 6401 C 560.338 1.36394 1.4832 0
M  V30 6402 O 559.394 1.16046 2.24253 0
M  V30 6403 C 560.707 2.97512 -0.436682 0
M  V30 6404 C 562.255 3.10568 -0.389416 0
M  V30 6405 C 562.73 4.50866 -0.805249 0
M  V30 6406 N 564.221 4.56929 -0.759616 0
M  V30 6407 C 564.956 5.63643 -1.05327 0
M  V30 6408 N 564.452 6.78189 -1.41531 0
M  V30 6409 N 566.245 5.5354 -0.977207 0
M  V30 6410 H 558.396 1.67044 -1.31187 0
M  V30 6411 H 560.659 0.782559 -0.535075 0
M  V30 6412 H 560.365 3.19575 -1.46849 0
M  V30 6413 H 560.239 3.76742 0.185744 0
M  V30 6414 H 562.626 2.88226 0.633228 0
M  V30 6415 H 562.707 2.33387 -1.04711 0
M  V30 6416 H 562.351 4.73943 -1.82593 0
M  V30 6417 H 562.281 5.26452 -0.124989 0
M  V30 6418 H 564.772 3.74675 -0.49265 0
M  V30 6419 H 565.085 7.55541 -1.62411 0
M  V30 6420 H 563.43 6.79624 -1.45381 0
M  V30 6421 H 566.621 4.62932 -0.693675 0
M  V30 6422 H 566.794 6.36614 -1.2094 0
M  V30 6423 N 560.2 0.0768682 1.57412 0
M  V30 6424 C 561.147 -0.888577 2.13009 0
M  V30 6425 C 562.117 -1.29198 1.0439 0
M  V30 6426 O 563.302 -1.37694 1.3208 0
M  V30 6427 C 560.442 -2.14899 2.70023 0
M  V30 6428 C 559.555 -1.79777 3.92816 0
M  V30 6429 C 558.69 -3.00467 4.38056 0
M  V30 6430 C 557.729 -2.61385 5.53484 0
M  V30 6431 N 556.866 -3.74851 5.93659 0
M  V30 6432 H 561.706 -0.407593 2.95199 0
M  V30 6433 H 559.243 -0.189534 1.45874 0
M  V30 6434 H 561.201 -2.88688 3.0119 0
M  V30 6435 H 559.831 -2.60529 1.9059 0
M  V30 6436 H 558.883 -0.960301 3.68079 0
M  V30 6437 H 560.195 -1.47027 4.76639 0
M  V30 6438 H 559.349 -3.82529 4.7091 0
M  V30 6439 H 558.088 -3.36413 3.53097 0
M  V30 6440 H 557.093 -1.77746 5.20275 0
M  V30 6441 H 558.318 -2.26603 6.40178 0
M  V30 6442 H 556.264 -4.1055 5.11649 0
M  V30 6443 H 556.181 -3.45887 6.72234 0
M  V30 6444 H 557.449 -4.57477 6.31138 0
M  V30 6445 N 561.678 -1.56367 -0.196722 0
M  V30 6446 C 563.094 -1.49916 -0.54749 0
M  V30 6447 C 563.294 -0.77659 -1.85934 0
M  V30 6448 O 562.35 -0.32644 -2.50381 0
M  V30 6449 C 563.663 -2.94577 -0.603734 0
M  V30 6450 C 565.211 -3.05239 -0.692677 0
M  V30 6451 C 565.686 -4.51308 -0.780046 0
M  V30 6452 N 567.177 -4.55453 -0.843616 0
M  V30 6453 C 567.912 -5.65786 -0.931358 0
M  V30 6454 N 567.408 -6.85812 -0.981503 0
M  V30 6455 N 569.201 -5.53695 -0.968421 0
M  V30 6456 H 561.352 -2.01761 0.663803 0
M  V30 6457 H 563.615 -0.918094 0.236238 0
M  V30 6458 H 563.321 -3.50494 0.29105 0
M  V30 6459 H 563.195 -3.47841 -1.45898 0
M  V30 6460 H 565.582 -2.49372 -1.57789 0
M  V30 6461 H 565.663 -2.55103 0.188736 0
M  V30 6462 H 565.307 -5.078 0.100811 0
M  V30 6463 H 565.237 -4.99176 -1.67724 0
M  V30 6464 H 567.728 -3.69025 -0.814176 0
M  V30 6465 H 568.041 -7.65648 -1.04892 0
M  V30 6466 H 566.386 -6.88474 -0.950208 0
M  V30 6467 H 569.577 -4.58848 -0.926072 0
M  V30 6468 H 569.75 -6.39708 -1.03334 0
M  V30 6469 N 563.156 0.464375 -1.50603 0
M  V30 6470 C 564.119 1.54393 -1.69397 0
M  V30 6471 C 565.119 1.50566 -0.564504 0
M  V30 6472 O 566.309 1.53066 -0.831645 0
M  V30 6473 C 563.441 2.9401 -1.72543 0
M  V30 6474 H 564.634 1.39044 -2.65719 0
M  V30 6475 H 562.187 0.69122 -1.40185 0
M  V30 6476 H 562.922 3.14795 -0.77938 0
M  V30 6477 H 562.707 2.98195 -2.54602 0
M  V30 6478 H 564.197 3.72375 -1.89015 0
M  V30 6479 N 564.634 1.40294 0.718013 0
M  V30 6480 C 565.581 1.40367 1.8321 0
M  V30 6481 C 566.551 0.260952 1.64037 0
M  V30 6482 O 567.736 0.458648 1.85205 0
M  V30 6483 C 564.876 1.26965 3.20895 0
M  V30 6484 C 563.989 2.50922 3.51656 0
M  V30 6485 C 563.124 2.29981 4.78834 0
M  V30 6486 C 562.163 3.49527 5.02491 0
M  V30 6487 N 561.3 3.27796 6.20882 0
M  V30 6488 H 566.14 2.35593 1.82482 0
M  V30 6489 H 563.677 1.17012 0.891444 0
M  V30 6490 H 565.635 1.17202 4.00399 0
M  V30 6491 H 564.265 0.353591 3.20858 0
M  V30 6492 H 563.317 2.71223 2.66725 0
M  V30 6493 H 564.629 3.39913 3.65048 0
M  V30 6494 H 563.783 2.17558 5.66351 0
M  V30 6495 H 562.522 1.38411 4.67647 0
M  V30 6496 H 561.527 3.6243 4.1343 0
M  V30 6497 H 562.752 4.42021 5.15553 0
M  V30 6498 H 560.698 2.38906 6.1095 0
M  V30 6499 H 560.615 4.10351 6.34939 0
M  V30 6500 H 561.883 3.19101 7.11193 0
M  V30 6501 N 566.112 -0.949982 1.2575 0
M  V30 6502 C 567.022 -2.08109 1.08295 0
M  V30 6503 C 568.038 -1.7399 0.0188181 0
M  V30 6504 O 569.214 -2.00187 0.220724 0
M  V30 6505 C 566.279 -3.39383 0.708534 0
M  V30 6506 C 565.34 -3.8734 1.85111 0
M  V30 6507 C 564.573 -5.12349 1.49447 0
M  V30 6508 O 564.796 -5.6905 0.392212 0
M  V30 6509 O 563.73 -5.5513 2.32624 0
M  V30 6510 H 567.556 -2.25738 2.03165 0
M  V30 6511 H 565.141 -1.06545 1.04731 0
M  V30 6512 H 567.023 -4.18277 0.512061 0
M  V30 6513 H 565.698 -3.23013 -0.210854 0
M  V30 6514 H 564.605 -3.09429 2.10248 0
M  V30 6515 H 565.938 -4.08216 2.74991 0
M  V30 6516 N 567.59 -1.07411 -1.15328 0
M  V30 6517 C 568.5 -0.706438 -2.23711 0
M  V30 6518 C 569.516 0.282586 -1.7169 0
M  V30 6519 O 570.692 0.129066 -2.00986 0
M  V30 6520 C 567.757 -0.11048 -3.46524 0
M  V30 6521 C 566.818 -1.15282 -4.13532 0
M  V30 6522 C 566.051 -0.585205 -5.30482 0
M  V30 6523 O 566.274 0.598549 -5.67251 0
M  V30 6524 O 565.208 -1.33039 -5.87013 0
M  V30 6525 H 569.034 -1.61031 -2.57493 0
M  V30 6526 H 566.619 -0.847113 -1.23062 0
M  V30 6527 H 568.501 0.21957 -4.20828 0
M  V30 6528 H 567.176 0.766703 -3.14489 0
M  V30 6529 H 566.083 -1.53523 -3.41147 0
M  V30 6530 H 567.416 -2.00192 -4.49649 0
M  V30 6531 N 569.068 1.32177 -0.85831 0
M  V30 6532 C 570.031 2.27086 -0.310588 0
M  V30 6533 C 571.031 1.51751 0.531806 0
M  V30 6534 O 572.221 1.70794 0.34279 0
M  V30 6535 C 569.353 3.36266 0.560179 0
M  V30 6536 H 570.546 2.77045 -1.1483 0
M  V30 6537 H 568.099 1.42911 -0.632942 0
M  V30 6538 H 568.834 2.9158 1.41956 0
M  V30 6539 H 568.619 3.92077 -0.0428473 0
M  V30 6540 H 570.109 4.06974 0.936056 0
M  V30 6541 N 570.547 0.616602 1.45037 0
M  V30 6542 C 571.457 -0.0985401 2.34393 0
M  V30 6543 C 572.473 -0.850971 1.51771 0
M  V30 6544 O 573.649 -0.806521 1.84546 0
M  V30 6545 C 570.714 -1.07748 3.29532 0
M  V30 6546 C 569.775 -0.326022 4.2806 0
M  V30 6547 C 569.008 -1.25833 5.18654 0
M  V30 6548 O 569.231 -2.49652 5.12864 0
M  V30 6549 O 568.165 -0.750512 5.97203 0
M  V30 6550 H 571.991 0.636016 2.96966 0
M  V30 6551 H 569.576 0.376832 1.44569 0
M  V30 6552 H 571.458 -1.64107 3.88133 0
M  V30 6553 H 570.133 -1.79291 2.69512 0
M  V30 6554 H 569.04 0.280253 3.73049 0
M  V30 6555 H 570.373 0.349091 4.9096 0
M  V30 6556 N 572.025 -1.5352 0.356285 0
M  V30 6557 C 573.441 -1.59599 0.00485267 0
M  V30 6558 C 573.641 -1.37179 -1.47595 0
M  V30 6559 O 572.697 -1.17234 -2.23635 0
M  V30 6560 C 574.01 -2.97277 0.452454 0
M  V30 6561 C 575.558 -3.10357 0.405881 0
M  V30 6562 C 576.033 -4.50432 0.829148 0
M  V30 6563 N 577.524 -4.5652 0.783838 0
M  V30 6564 C 578.259 -5.63077 1.08315 0
M  V30 6565 N 577.755 -6.77429 1.45126 0
M  V30 6566 N 579.548 -5.53014 1.00655 0
M  V30 6567 H 571.699 -1.66346 1.32071 0
M  V30 6568 H 573.962 -0.77971 0.539218 0
M  V30 6569 H 573.668 -3.18792 1.48542 0
M  V30 6570 H 573.542 -3.76836 -0.165762 0
M  V30 6571 H 575.929 -2.88558 -0.617934 0
M  V30 6572 H 576.01 -2.32828 1.05947 0
M  V30 6573 H 575.654 -4.72968 1.85103 0
M  V30 6574 H 575.584 -5.26378 0.152906 0
M  V30 6575 H 578.075 -3.74408 0.512513 0
M  V30 6576 H 578.388 -7.54669 1.66415 0
M  V30 6577 H 576.733 -6.78844 1.48983 0
M  V30 6578 H 579.924 -4.62557 0.718215 0
M  V30 6579 H 580.097 -6.35964 1.24315 0
M  V30 6580 N 573.503 -0.0852151 -1.57369 0
M  V30 6581 C 574.433 0.874556 -2.16503 0
M  V30 6582 C 575.414 1.30111 -1.09568 0
M  V30 6583 O 576.599 1.36977 -1.37662 0
M  V30 6584 C 573.729 2.13731 -2.73745 0
M  V30 6585 C 572.683 1.84971 -3.85966 0
M  V30 6586 C 572.009 3.17991 -4.29867 0
M  V30 6587 C 573.309 1.14442 -5.09608 0
M  V30 6588 H 575.003 0.381899 -2.96954 0
M  V30 6589 H 572.549 0.18225 -1.42842 0
M  V30 6590 H 574.502 2.81302 -3.13763 0
M  V30 6591 H 573.226 2.65263 -1.90534 0
M  V30 6592 H 571.885 1.19801 -3.46473 0
M  V30 6593 H 571.533 3.6739 -3.4356 0
M  V30 6594 H 571.233 2.99534 -5.05523 0
M  V30 6595 H 572.757 3.86737 -4.72511 0
M  V30 6596 H 574.171 1.72105 -5.46857 0
M  V30 6597 H 572.568 1.06197 -5.90629 0
M  V30 6598 H 573.638 0.12559 -4.84737 0
M  V30 6599 N 574.981 1.5647 0.188427 0
M  V30 6600 C 575.891 1.98285 1.2538 0
M  V30 6601 C 576.907 0.891535 1.49424 0
M  V30 6602 O 578.083 1.19782 1.61908 0
M  V30 6603 C 575.148 2.31965 2.57669 0
M  V30 6604 C 574.209 3.54838 2.41638 0
M  V30 6605 C 573.442 3.86901 3.67618 0
M  V30 6606 O 573.665 3.20163 4.72072 0
M  V30 6607 O 572.599 4.80309 3.62749 0
M  V30 6608 H 576.425 2.89145 0.928912 0
M  V30 6609 H 574.01 1.44112 0.393955 0
M  V30 6610 H 575.892 2.54673 3.35737 0
M  V30 6611 H 574.567 1.44271 2.89771 0
M  V30 6612 H 573.474 3.37369 1.61658 0
M  V30 6613 H 574.807 4.43019 2.14465 0
M  V30 6614 N 576.459 -0.456382 1.50847 0
M  V30 6615 C 577.406 -1.55249 1.70782 0
M  V30 6616 C 578.376 -1.56757 0.549231 0
M  V30 6617 O 579.561 -1.74061 0.7815 0
M  V30 6618 C 576.701 -2.93118 1.82143 0
M  V30 6619 C 575.814 -3.01285 3.09598 0
M  V30 6620 C 574.949 -4.30159 3.11667 0
M  V30 6621 C 573.988 -4.32124 4.33515 0
M  V30 6622 N 573.125 -5.52492 4.3324 0
M  V30 6623 H 577.965 -1.37555 2.64353 0
M  V30 6624 H 575.502 -0.668543 1.3103 0
M  V30 6625 H 577.46 -3.73088 1.86711 0
M  V30 6626 H 576.09 -3.09413 0.919978 0
M  V30 6627 H 575.142 -2.14096 3.14431 0
M  V30 6628 H 576.454 -2.98597 3.99551 0
M  V30 6629 H 575.608 -5.18489 3.15046 0
M  V30 6630 H 574.347 -4.35477 2.1957 0
M  V30 6631 H 573.352 -3.42189 4.30333 0
M  V30 6632 H 574.577 -4.28485 5.26856 0
M  V30 6633 H 572.523 -5.58567 3.44004 0
M  V30 6634 H 572.44 -5.51605 5.16979 0
M  V30 6635 H 573.708 -6.42906 4.40786 0
M  V30 6636 N 577.937 -1.40673 -0.710563 0
M  V30 6637 C 578.847 -1.43663 -1.85467 0
M  V30 6638 C 579.863 -0.328721 -1.70867 0
M  V30 6639 O 581.039 -0.574098 -1.93044 0
M  V30 6640 C 578.104 -1.30226 -3.21313 0
M  V30 6641 C 577.165 -2.51204 -3.48131 0
M  V30 6642 C 576.398 -2.38398 -4.77495 0
M  V30 6643 O 576.621 -1.40048 -5.5294 0
M  V30 6644 O 575.555 -3.2787 -5.04762 0
M  V30 6645 H 579.381 -2.40156 -1.859 0
M  V30 6646 H 576.966 -1.22049 -0.861652 0
M  V30 6647 H 578.848 -1.2496 -4.02446 0
M  V30 6648 H 577.523 -0.368419 -3.21597 0
M  V30 6649 H 576.43 -2.62048 -2.66987 0
M  V30 6650 H 577.763 -3.43366 -3.52648 0
M  V30 6651 N 579.415 0.9433 -1.26252 0
M  V30 6652 C 580.831 1.21644 -1.03319 0
M  V30 6653 C 581.031 2.0003 0.242983 0
M  V30 6654 O 580.087 2.33838 0.952688 0
M  V30 6655 C 581.4 1.97978 -2.2633 0
M  V30 6656 C 582.948 2.10978 -2.31209 0
M  V30 6657 C 583.423 2.90713 -3.53907 0
M  V30 6658 N 584.914 2.98287 -3.54371 0
M  V30 6659 C 585.649 3.60406 -4.45976 0
M  V30 6660 N 585.145 4.24043 -5.47868 0
M  V30 6661 N 586.938 3.57658 -4.33633 0
M  V30 6662 H 579.089 0.419221 -2.08222 0
M  V30 6663 H 581.352 0.247995 -0.914988 0
M  V30 6664 H 581.058 1.47788 -3.19142 0
M  V30 6665 H 580.932 2.9865 -2.30408 0
M  V30 6666 H 583.319 2.6036 -1.38913 0
M  V30 6667 H 583.4 1.09575 -2.31143 0
M  V30 6668 H 583.044 2.42018 -4.46531 0
M  V30 6669 H 582.974 3.92367 -3.5122 0
M  V30 6670 H 585.465 2.53044 -2.80673 0
M  V30 6671 H 585.778 4.69334 -6.13959 0
M  V30 6672 H 584.123 4.22637 -5.51728 0
M  V30 6673 H 587.314 3.07134 -3.53251 0
M  V30 6674 H 587.487 4.05782 -5.05218 0
M  V30 6675 N 580.893 1.08022 1.14757 0
M  V30 6676 C 582.309 0.807072 1.3769 0
M  V30 6677 C 582.509 -0.585504 1.92806 0
M  V30 6678 O 581.565 -1.34301 2.13821 0
M  V30 6679 C 582.878 1.88651 2.34161 0
M  V30 6680 C 584.426 1.91206 2.47809 0
M  V30 6681 C 584.901 2.98253 3.47576 0
M  V30 6682 N 586.392 2.974 3.55117 0
M  V30 6683 C 587.127 3.76872 4.32152 0
M  V30 6684 N 586.623 4.66212 5.12463 0
M  V30 6685 N 588.416 3.6519 4.27309 0
M  V30 6686 H 580.567 1.97824 0.77326 0
M  V30 6687 H 582.83 0.85826 0.402608 0
M  V30 6688 H 582.536 2.88749 2.00791 0
M  V30 6689 H 582.41 1.75244 3.3402 0
M  V30 6690 H 584.797 0.917564 2.80472 0
M  V30 6691 H 584.878 2.08691 1.47925 0
M  V30 6692 H 584.522 3.97907 3.15646 0
M  V30 6693 H 584.452 2.78014 4.47231 0
M  V30 6694 H 586.943 2.32643 2.97801 0
M  V30 6695 H 587.256 5.23468 5.68508 0
M  V30 6696 H 585.601 4.70257 5.11745 0
M  V30 6697 H 588.792 2.94765 3.63636 0
M  V30 6698 H 588.965 4.27366 4.87095 0
M  V30 6699 N 582.371 -1.3172 0.865308 0
M  V30 6700 C 583.334 -2.26918 0.322627 0
M  V30 6701 C 584.334 -1.52031 -0.523751 0
M  V30 6702 O 585.524 -1.70973 -0.333727 0
M  V30 6703 C 582.656 -3.36558 -0.542338 0
M  V30 6704 H 583.849 -2.76432 1.16298 0
M  V30 6705 H 581.402 -1.42573 0.640512 0
M  V30 6706 H 582.137 -2.92329 -1.40407 0
M  V30 6707 H 581.922 -3.92048 0.0636395 0
M  V30 6708 H 583.412 -4.07465 -0.91446 0
M  V30 6709 N 583.85 -0.624285 -1.44708 0
M  V30 6710 C 584.812 0.0749638 -2.29077 0
M  V30 6711 C 585.812 0.778965 -1.40673 0
M  V30 6712 O 587.003 0.624591 -1.62618 0
M  V30 6713 C 584.135 1.11663 -3.22094 0
M  V30 6714 H 585.327 -0.667013 -2.92388 0
M  V30 6715 H 582.88 -0.384098 -1.51507 0
M  V30 6716 H 583.615 1.88881 -2.63618 0
M  V30 6717 H 583.401 0.61583 -3.87234 0
M  V30 6718 H 584.891 1.60585 -3.8549 0
M  V30 6719 N 585.328 1.53329 -0.364422 0
M  V30 6720 C 586.238 2.29414 0.490552 0
M  V30 6721 C 587.254 1.35335 1.09363 0
M  V30 6722 O 588.43 1.68391 1.10483 0
M  V30 6723 C 585.495 3.06772 1.61529 0
M  V30 6724 C 584.556 4.16516 1.03986 0
M  V30 6725 C 583.789 4.90176 2.111 0
M  V30 6726 O 584.012 4.63687 3.32191 0
M  V30 6727 O 582.946 5.76134 1.74222 0
M  V30 6728 H 586.772 3.03428 -0.12856 0
M  V30 6729 H 584.357 1.48843 -0.128837 0
M  V30 6730 H 586.239 3.55082 2.26924 0
M  V30 6731 H 584.914 2.35596 2.21983 0
M  V30 6732 H 583.821 3.7246 0.349856 0
M  V30 6733 H 585.154 4.89855 0.4799 0
M  V30 6734 N 586.806 0.0935595 1.57322 0
M  V30 6735 C 587.716 -0.880192 2.17462 0
M  V30 6736 C 588.732 -1.31135 1.14366 0
M  V30 6737 O 589.908 -1.37958 1.46729 0
M  V30 6738 C 586.973 -2.12184 2.74188 0
M  V30 6739 C 586.034 -1.74503 3.92234 0
M  V30 6740 C 585.267 -2.92748 4.46245 0
M  V30 6741 O 585.49 -4.07427 3.99198 0
M  V30 6742 O 584.424 -2.71303 5.37288 0
M  V30 6743 H 588.25 -0.398516 3.01074 0
M  V30 6744 H 585.835 -0.130707 1.48827 0
M  V30 6745 H 587.717 -2.84953 3.10451 0
M  V30 6746 H 586.392 -2.59407 1.93623 0
M  V30 6747 H 585.299 -0.989186 3.60785 0
M  V30 6748 H 586.632 -1.32044 4.74157 0
M  V30 6749 N 588.284 -1.56567 -0.180126 0
M  V30 6750 C 589.247 -1.94852 -1.20686 0
M  V30 6751 C 590.247 -0.831212 -1.3765 0
M  V30 6752 O 591.437 -1.09841 -1.35206 0
M  V30 6753 C 588.569 -2.23565 -2.57355 0
M  V30 6754 H 589.762 -2.86722 -0.879225 0
M  V30 6755 H 587.315 -1.50489 -0.422237 0
M  V30 6756 H 588.05 -1.34381 -2.95148 0
M  V30 6757 H 587.835 -3.04999 -2.46411 0
M  V30 6758 H 589.325 -2.54137 -3.31367 0
M  V30 6759 N 589.762 0.448376 -1.51087 0
M  V30 6760 C 590.709 1.54341 -1.71603 0
M  V30 6761 C 591.679 1.56463 -0.557536 0
M  V30 6762 O 592.864 1.73644 -0.79072 0
M  V30 6763 C 590.004 2.92148 -1.83695 0
M  V30 6764 C 589.117 2.99639 -3.11192 0
M  V30 6765 C 588.252 4.285 -3.13944 0
M  V30 6766 C 587.291 4.29819 -4.35801 0
M  V30 6767 N 586.428 5.50186 -4.36164 0
M  V30 6768 H 591.268 1.36151 -2.65079 0
M  V30 6769 H 588.805 0.661585 -1.31383 0
M  V30 6770 H 590.763 3.72093 -1.88687 0
M  V30 6771 H 589.393 3.0892 -0.936374 0
M  V30 6772 H 588.445 2.12425 -3.15562 0
M  V30 6773 H 589.757 2.96474 -4.01129 0
M  V30 6774 H 588.911 5.16811 -3.17791 0
M  V30 6775 H 587.65 4.34307 -2.21876 0
M  V30 6776 H 586.655 3.39902 -4.32142 0
M  V30 6777 H 587.88 4.25685 -5.29121 0
M  V30 6778 H 585.826 5.56735 -3.46961 0
M  V30 6779 H 585.743 5.48856 -5.19897 0
M  V30 6780 H 587.011 6.40559 -4.44189 0
M  V30 6781 N 591.24 1.41047 0.703093 0
M  V30 6782 C 592.465 1.43537 1.49706 0
M  V30 6783 C 592.89 0.0401853 1.88057 0
M  V30 6784 O 592.248 -0.954785 1.54122 0
M  V30 6785 C 592.296 2.3433 2.74084 0
M  V30 6786 O 591.4 1.79515 3.71279 0
M  V30 6787 H 590.741 0.487454 0.450871 0
M  V30 6788 H 593.271 1.85422 0.86486 0
M  V30 6789 H 593.281 2.49947 3.22476 0
M  V30 6790 H 591.956 3.35708 2.45506 0
M  V30 6791 H 590.533 1.7331 3.30179 0
M  V30 6792 N 592.718 -0.936591 1.26751 0
M  V30 6793 C 593.681 -2.01752 1.08761 0
M  V30 6794 C 594.681 -1.60763 0.0344435 0
M  V30 6795 O 595.871 -1.71963 0.278258 0
M  V30 6796 C 593.003 -3.34543 0.655271 0
M  V30 6797 H 594.196 -2.19143 2.04735 0
M  V30 6798 H 591.749 -1.11618 1.09413 0
M  V30 6799 H 592.484 -3.22851 -0.30626 0
M  V30 6800 H 592.269 -3.65647 1.41578 0
M  V30 6801 H 593.759 -4.13944 0.551378 0
M  V30 6802 N 594.196 -1.08629 -1.14182 0
M  V30 6803 C 595.445 -0.812271 -1.84621 0
M  V30 6804 C 595.758 0.664313 -1.83973 0
M  V30 6805 O 596.964 1.05357 -2.50224 0
M  V30 6806 C 595.42 -1.4031 -3.31423 0
M  V30 6807 C 595.028 -2.91164 -3.40481 0
M  V30 6808 C 596.772 -1.20767 -4.06959 0
M  V30 6809 C 594.679 -3.43373 -4.81507 0
M  V30 6810 H 593.609 -0.30019 -0.691666 0
M  V30 6811 H 596.26 -1.30798 -1.28701 0
M  V30 6812 H 594.642 -0.835096 -3.87094 0
M  V30 6813 H 595.816 -3.5412 -2.94848 0
M  V30 6814 H 594.131 -3.09646 -2.78403 0
M  V30 6815 H 596.728 -1.57237 -5.11058 0
M  V30 6816 H 597.071 -0.147664 -4.16038 0
M  V30 6817 H 597.604 -1.74274 -3.57594 0
M  V30 6818 H 594.343 -4.48958 -4.77616 0
M  V30 6819 H 593.863 -2.85176 -5.27669 0
M  V30 6820 H 595.542 -3.40095 -5.50404 0
M  V30 6821 N 595.674 1.31259 -0.872281 0
M  V30 6822 C 596.637 2.26744 -0.334656 0
M  V30 6823 C 597.637 1.52307 0.515681 0
M  V30 6824 O 598.827 1.71148 0.324656 0
M  V30 6825 C 595.959 3.36841 0.524482 0
M  V30 6826 H 597.152 2.75812 -1.17762 0
M  V30 6827 H 594.705 1.42232 -0.648064 0
M  V30 6828 H 595.44 2.93069 1.38855 0
M  V30 6829 H 595.225 3.92009 -0.0844299 0
M  V30 6830 H 596.715 4.07944 0.892838 0
M  V30 6831 N 597.152 0.631951 1.44375 0
M  V30 6832 C 598.099 -0.0724807 2.30686 0
M  V30 6833 C 599.069 -0.835975 1.43529 0
M  V30 6834 O 600.254 -0.816849 1.7243 0
M  V30 6835 C 597.394 -1.04753 3.28817 0
M  V30 6836 C 596.507 -0.282367 4.31076 0
M  V30 6837 C 595.642 -1.2493 5.163 0
M  V30 6838 C 594.681 -0.473349 6.10267 0
M  V30 6839 N 593.818 -1.39079 6.88187 0
M  V30 6840 H 598.658 0.669477 2.90383 0
M  V30 6841 H 596.195 0.341927 1.43071 0
M  V30 6842 H 598.153 -1.62623 3.842 0
M  V30 6843 H 596.783 -1.75661 2.70819 0
M  V30 6844 H 595.835 0.412268 3.78159 0
M  V30 6845 H 597.147 0.321955 4.9776 0
M  V30 6846 H 596.301 -1.89931 5.76204 0
M  V30 6847 H 595.04 -1.88755 4.49692 0
M  V30 6848 H 594.045 0.190142 5.49471 0
M  V30 6849 H 595.27 0.16019 6.78911 0
M  V30 6850 H 593.216 -2.01623 6.24247 0
M  V30 6851 H 593.133 -0.840513 7.51313 0
M  V30 6852 H 594.401 -2.02961 7.52613 0
M  V30 6853 N 598.631 -1.53133 0.372548 0
M  V30 6854 C 599.563 -2.23557 -0.505444 0
M  V30 6855 C 600.576 -1.25211 -1.04049 0
M  V30 6856 O 601.765 -1.51391 -0.945675 0
M  V30 6857 C 598.865 -2.92516 -1.71136 0
M  V30 6858 C 598.038 -4.17428 -1.30661 0
M  V30 6859 C 597.097 -4.69535 -2.37536 0
M  V30 6860 O 596.123 -5.33042 -1.99637 0
M  V30 6861 N 597.325 -4.47947 -3.6922 0
M  V30 6862 H 600.09 -2.9954 0.0978259 0
M  V30 6863 H 597.651 -1.60684 0.198068 0
M  V30 6864 H 599.643 -3.24281 -2.42124 0
M  V30 6865 H 598.213 -2.19944 -2.22134 0
M  V30 6866 H 597.433 -3.91888 -0.426292 0
M  V30 6867 H 598.721 -4.98622 -1.01259 0
M  V30 6868 H 598.119 -3.97219 -4.02783 0
M  V30 6869 H 596.676 -4.84245 -4.36292 0
M  V30 6870 N 600.109 -0.101901 -1.5727 0
M  V30 6871 C 601.072 0.840129 -2.13247 0
M  V30 6872 C 602.072 1.20625 -1.06331 0
M  V30 6873 O 603.262 1.13456 -1.32186 0
M  V30 6874 C 600.394 2.13372 -2.65867 0
M  V30 6875 H 601.587 0.353945 -2.97804 0
M  V30 6876 H 599.14 0.147167 -1.55606 0
M  V30 6877 H 599.875 2.66461 -1.84849 0
M  V30 6878 H 599.66 1.88085 -3.44044 0
M  V30 6879 H 601.15 2.80748 -3.09145 0
M  V30 6880 N 601.587 1.56661 0.17182 0
M  V30 6881 C 602.55 1.9549 1.19651 0
M  V30 6882 C 603.55 0.838501 1.37207 0
M  V30 6883 O 604.74 1.10556 1.34622 0
M  V30 6884 C 601.872 2.24927 2.56166 0
M  V30 6885 H 603.065 2.87184 0.864007 0
M  V30 6886 H 600.618 1.50711 0.41425 0
M  V30 6887 H 601.353 1.35944 2.94431 0
M  V30 6888 H 601.138 3.06301 2.4479 0
M  V30 6889 H 602.628 2.55891 3.30014 0
M  V30 6890 N 603.065 -0.440357 1.51323 0
M  V30 6891 C 604.342 -1.20109 1.5438 0
M  V30 6892 C 604.722 -2.08866 0.306303 0
M  V30 6893 O 604.07 -2.1723 -0.708773 0
M  V30 6894 C 604.28 -2.00555 2.8562 0
M  V30 6895 C 605.628 -2.577 3.37455 0
M  V30 6896 O 606.652 -2.10769 2.8715 0
M  V30 6897 O 605.511 -3.43289 4.25224 0
M  V30 6898 H 602.605 -0.546668 0.620551 0
M  V30 6899 H 605.151 -0.449672 1.63634 0
M  V30 6900 H 603.923 -1.35346 3.67147 0
M  V30 6901 H 603.546 -2.82768 2.79514 0
M  V30 6902 N 604.543 -1.41418 -0.695603 0
M  V30 6903 C 605.475 -1.39195 -1.82092 0
M  V30 6904 C 606.488 -0.294132 -1.60121 0
M  V30 6905 O 607.677 -0.555854 -1.69625 0
M  V30 6906 C 604.777 -1.14828 -3.18854 0
M  V30 6907 C 603.95 -2.36649 -3.67853 0
M  V30 6908 C 603.009 -2.08139 -4.83285 0
M  V30 6909 O 602.035 -2.81177 -4.94902 0
M  V30 6910 N 603.237 -1.07162 -5.70523 0
M  V30 6911 H 606.002 -2.36185 -1.84491 0
M  V30 6912 H 603.563 -1.3603 -0.877923 0
M  V30 6913 H 605.555 -0.937075 -3.93702 0
M  V30 6914 H 604.125 -0.264358 -3.1148 0
M  V30 6915 H 603.345 -2.73472 -2.83913 0
M  V30 6916 H 604.633 -3.17816 -3.97329 0
M  V30 6917 H 604.031 -0.467124 -5.63768 0
M  V30 6918 H 602.588 -0.920311 -6.4527 0
M  V30 6919 N 606.021 0.929856 -1.27246 0
M  V30 6920 C 606.954 2.03069 -1.04106 0
M  V30 6921 C 607.932 1.62556 0.0378417 0
M  V30 6922 O 609.116 1.88197 -0.106869 0
M  V30 6923 C 606.243 3.33718 -0.578778 0
M  V30 6924 C 605.289 3.93209 -1.65193 0
M  V30 6925 S 606.122 4.26068 -3.24386 0
M  V30 6926 C 607.278 5.598 -2.79954 0
M  V30 6927 H 607.511 2.22386 -1.97311 0
M  V30 6928 H 605.044 1.07269 -1.11053 0
M  V30 6929 H 607.002 4.09261 -0.31874 0
M  V30 6930 H 605.663 3.12328 0.333182 0
M  V30 6931 H 604.856 4.87482 -1.27973 0
M  V30 6932 H 604.458 3.24243 -1.86393 0
M  V30 6933 H 606.75 6.39004 -2.25123 0
M  V30 6934 H 607.693 6.01917 -3.72963 0
M  V30 6935 H 608.101 5.20219 -2.19164 0
M  V30 6936 N 607.499 1.09233 1.13605 0
M  V30 6937 C 608.446 0.729921 2.18954 0
M  V30 6938 C 609.416 -0.287916 1.63586 0
M  V30 6939 O 610.601 -0.170003 1.90041 0
M  V30 6940 C 607.741 0.154489 3.44754 0
M  V30 6941 C 606.854 1.22613 4.14234 0
M  V30 6942 C 605.989 0.613657 5.27644 0
M  V30 6943 C 605.028 1.66674 5.8897 0
M  V30 6944 N 604.165 1.07545 6.93814 0
M  V30 6945 H 609.005 1.63257 2.49302 0
M  V30 6946 H 606.542 0.815693 1.22413 0
M  V30 6947 H 608.5 -0.196923 4.16735 0
M  V30 6948 H 607.13 -0.711433 3.14863 0
M  V30 6949 H 606.182 1.69485 3.40557 0
M  V30 6950 H 607.494 2.0238 4.55899 0
M  V30 6951 H 606.648 0.210976 6.06333 0
M  V30 6952 H 605.387 -0.215584 4.87223 0
M  V30 6953 H 604.392 2.07899 5.08978 0
M  V30 6954 H 605.617 2.49861 6.31464 0
M  V30 6955 H 603.563 0.267451 6.55455 0
M  V30 6956 H 603.48 1.81011 7.3401 0
M  V30 6957 H 604.748 0.698906 7.7636 0
M  V30 6958 N 608.977 -1.30795 0.87923 0
M  V30 6959 C 609.925 -2.30231 0.331112 0
M  V30 6960 C 610.919 -1.59918 -0.558794 0
M  V30 6961 O 612.125 -1.74441 -0.443866 0
M  V30 6962 H 608.5 -0.746785 0.088409 0
M  V30 6963 H 610.471 -2.73925 1.18353 0
M  V30 6964 C 609.22 -3.44848 -0.444401 0
M  V30 6965 H 608.543 -3.99131 0.231106 0
M  V30 6966 H 609.983 -4.16516 -0.793109 0
M  V30 6967 C 608.442 -2.94329 -1.63926 0
M  V30 6968 O 608.972 -2.93875 -2.73862 0
M  V30 6969 N 607.178 -2.50413 -1.4745 0
M  V30 6970 H 606.725 -2.50982 -0.58015 0
M  V30 6971 H 606.683 -2.16969 -2.27534 0
M  V30 6972 N 610.455 -0.639598 -1.44038 0
M  V30 6973 C 611.387 0.0987684 -2.28987 0
M  V30 6974 C 612.4 0.80058 -1.41755 0
M  V30 6975 O 613.589 0.660611 -1.65826 0
M  V30 6976 C 610.689 1.16242 -3.18341 0
M  V30 6977 C 609.862 0.541447 -4.34036 0
M  V30 6978 C 608.921 1.50017 -5.04362 0
M  V30 6979 O 607.947 1.01403 -5.60095 0
M  V30 6980 N 609.149 2.83441 -5.06598 0
M  V30 6981 H 611.914 -0.630305 -2.92997 0
M  V30 6982 H 609.475 -0.481376 -1.54578 0
M  V30 6983 H 611.467 1.80429 -3.62253 0
M  V30 6984 H 610.037 1.79362 -2.56024 0
M  V30 6985 H 609.257 -0.27923 -3.9321 0
M  V30 6986 H 610.545 0.107379 -5.08687 0
M  V30 6987 H 609.943 3.2551 -4.62666 0
M  V30 6988 H 608.5 3.42966 -5.54272 0
M  V30 6989 N 611.933 1.52934 -0.380664 0
M  V30 6990 C 612.843 2.29921 0.466192 0
M  V30 6991 C 613.859 1.36488 1.07922 0
M  V30 6992 O 615.035 1.69553 1.0869 0
M  V30 6993 C 612.1 3.08468 1.58266 0
M  V30 6994 C 611.161 4.17595 0.995627 0
M  V30 6995 C 610.394 4.92387 2.05889 0
M  V30 6996 O 610.617 4.67184 3.27254 0
M  V30 6997 O 609.551 5.77949 1.68102 0
M  V30 6998 H 613.377 3.03274 -0.160735 0
M  V30 6999 H 610.962 1.48698 -0.144617 0
M  V30 7000 H 612.844 3.57469 2.23145 0
M  V30 7001 H 611.519 2.37937 2.19471 0
M  V30 7002 H 610.426 3.72811 0.310332 0
M  V30 7003 H 611.759 4.90336 0.427918 0
M  V30 7004 N 613.412 0.11024 1.57214 0
M  V30 7005 C 614.344 -0.873497 2.11902 0
M  V30 7006 C 615.357 -1.23588 1.05971 0
M  V30 7007 O 616.546 -1.18636 1.33371 0
M  V30 7008 C 613.646 -2.17805 2.59643 0
M  V30 7009 C 612.819 -1.98869 3.89576 0
M  V30 7010 C 611.878 -3.12974 4.23006 0
M  V30 7011 O 610.904 -2.86272 4.91973 0
M  V30 7012 N 612.106 -4.39167 3.79622 0
M  V30 7013 H 614.871 -0.406317 2.96933 0
M  V30 7014 H 612.432 -0.074437 1.61729 0
M  V30 7015 H 614.424 -2.93117 2.79042 0
M  V30 7016 H 612.994 -2.55899 1.7954 0
M  V30 7017 H 612.214 -1.078 3.79174 0
M  V30 7018 H 613.502 -1.83512 4.74553 0
M  V30 7019 H 612.9 -4.63739 3.2398 0
M  V30 7020 H 611.457 -5.11379 4.04147 0
M  V30 7021 N 614.89 -1.56749 -0.16351 0
M  V30 7022 C 615.82 -2.00042 -1.20438 0
M  V30 7023 C 616.801 -0.877256 -1.45733 0
M  V30 7024 O 617.986 -1.1439 -1.56935 0
M  V30 7025 C 615.116 -2.36697 -2.54149 0
M  V30 7026 C 614.07 -3.52046 -2.43408 0
M  V30 7027 C 613.396 -3.74466 -3.81679 0
M  V30 7028 C 614.696 -4.85247 -1.93216 0
M  V30 7029 H 616.39 -2.87244 -0.844477 0
M  V30 7030 H 613.936 -1.38194 -0.40478 0
M  V30 7031 H 615.889 -2.65582 -3.27176 0
M  V30 7032 H 614.613 -1.46414 -2.91943 0
M  V30 7033 H 613.272 -3.23301 -1.72834 0
M  V30 7034 H 612.92 -2.81461 -4.1688 0
M  V30 7035 H 612.62 -4.52084 -3.75359 0
M  V30 7036 H 614.144 -4.0576 -4.5628 0
M  V30 7037 H 615.558 -5.12957 -2.56023 0
M  V30 7038 H 613.955 -5.66556 -1.97825 0
M  V30 7039 H 615.025 -4.7672 -0.88689 0
M  V30 7040 N 616.368 0.432326 -1.51554 0
M  V30 7041 C 617.331 1.50765 -1.72634 0
M  V30 7042 C 618.331 1.49334 -0.596314 0
M  V30 7043 O 619.521 1.51268 -0.863925 0
M  V30 7044 C 616.653 2.90284 -1.7874 0
M  V30 7045 H 617.846 1.33377 -2.68609 0
M  V30 7046 H 615.399 0.661329 -1.4162 0
M  V30 7047 H 616.134 3.13071 -0.845977 0
M  V30 7048 H 615.919 2.92727 -2.6087 0
M  V30 7049 H 617.409 3.68282 -1.96871 0
M  V30 7050 N 617.846 1.41785 0.688094 0
M  V30 7051 C 618.809 1.43936 1.78368 0
M  V30 7052 C 619.809 0.328866 1.57401 0
M  V30 7053 O 620.999 0.589093 1.63937 0
M  V30 7054 C 618.131 1.25804 3.16838 0
M  V30 7055 H 619.324 2.41472 1.77852 0
M  V30 7056 H 616.877 1.28037 0.896448 0
M  V30 7057 H 617.612 0.291386 3.22988 0
M  V30 7058 H 617.397 2.06272 3.33458 0
M  V30 7059 H 618.887 1.30162 3.96797 0
M  V30 7060 N 619.324 -0.923095 1.27737 0
M  V30 7061 C 620.234 -2.05765 1.12685 0
M  V30 7062 C 621.25 -1.73911 0.0557197 0
M  V30 7063 O 622.426 -1.99674 0.263137 0
M  V30 7064 C 619.491 -3.37804 0.780363 0
M  V30 7065 C 618.552 -3.83326 1.93286 0
M  V30 7066 C 617.785 -5.09064 1.60281 0
M  V30 7067 O 618.008 -5.6809 0.512828 0
M  V30 7068 O 616.942 -5.50071 2.44347 0
M  V30 7069 H 620.768 -2.21378 2.07907 0
M  V30 7070 H 618.353 -1.04299 1.06968 0
M  V30 7071 H 620.235 -4.17097 0.600668 0
M  V30 7072 H 618.91 -3.23387 -0.142291 0
M  V30 7073 H 617.817 -3.049 2.16764 0
M  V30 7074 H 619.15 -4.02292 2.83588 0
M  V30 7075 N 620.802 -1.09834 -1.13024 0
M  V30 7076 C 621.732 -0.763451 -2.20666 0
M  V30 7077 C 622.713 0.260778 -1.68089 0
M  V30 7078 O 623.898 0.127915 -1.93778 0
M  V30 7079 C 621.028 -0.187744 -3.46792 0
M  V30 7080 C 619.982 -1.14196 -4.12484 0
M  V30 7081 C 619.308 -0.427755 -5.32986 0
M  V30 7082 C 620.608 -2.48607 -4.59338 0
M  V30 7083 H 622.302 -1.66347 -2.48936 0
M  V30 7084 H 619.848 -0.801261 -1.19649 0
M  V30 7085 H 621.801 0.0586375 -4.21359 0
M  V30 7086 H 620.525 0.747485 -3.17931 0
M  V30 7087 H 619.184 -1.37369 -3.3989 0
M  V30 7088 H 618.832 0.511747 -5.0039 0
M  V30 7089 H 618.532 -1.06403 -5.77886 0
M  V30 7090 H 620.056 -0.189772 -6.10305 0
M  V30 7091 H 621.47 -2.29618 -5.25308 0
M  V30 7092 H 619.867 -3.08062 -5.14993 0
M  V30 7093 H 620.937 -3.09062 -3.73642 0
M  V30 7094 N 622.28 1.30327 -0.886154 0
M  V30 7095 C 623.243 2.26376 -0.358687 0
M  V30 7096 C 624.243 1.52845 0.499498 0
M  V30 7097 O 625.433 1.71483 0.306485 0
M  V30 7098 C 622.565 3.37379 0.488726 0
M  V30 7099 H 623.758 2.74547 -1.20681 0
M  V30 7100 H 621.311 1.41536 -0.663113 0
M  V30 7101 H 622.046 2.94526 1.35739 0
M  V30 7102 H 621.831 3.91897 -0.126003 0
M  V30 7103 H 623.321 4.08868 0.84952 0
M  V30 7104 N 623.758 0.647228 1.43697 0
M  V30 7105 C 624.668 -0.0487997 2.34549 0
M  V30 7106 C 625.684 -0.818586 1.53542 0
M  V30 7107 O 626.86 -0.767195 1.86215 0
M  V30 7108 C 623.925 -1.00734 3.31743 0
M  V30 7109 C 622.986 -0.23515 4.28655 0
M  V30 7110 C 622.219 -1.14803 5.21206 0
M  V30 7111 O 622.442 -2.38717 5.18045 0
M  V30 7112 O 621.376 -0.623667 5.9866 0
M  V30 7113 H 625.202 0.698863 2.9555 0
M  V30 7114 H 622.787 0.407412 1.43738 0
M  V30 7115 H 624.669 -1.55837 3.91526 0
M  V30 7116 H 623.344 -1.73534 2.73254 0
M  V30 7117 H 622.251 0.359319 3.7237 0
M  V30 7118 H 623.584 0.453152 4.9011 0
M  V30 7119 N 625.236 -1.5273 0.388769 0
M  V30 7120 C 626.483 -2.01573 -0.19359 0
M  V30 7121 C 626.811 -1.27525 -1.46859 0
M  V30 7122 O 626.066 -0.363926 -1.92286 0
M  V30 7123 C 626.365 -3.53765 -0.508445 0
M  V30 7124 C 626.031 -4.4582 0.674947 0
M  V30 7125 C 624.693 -4.70703 0.999596 0
M  V30 7126 C 627.045 -5.00138 1.46666 0
M  V30 7127 C 624.373 -5.47155 2.11751 0
M  V30 7128 C 626.725 -5.77812 2.57518 0
M  V30 7129 C 625.389 -6.00975 2.90492 0
M  V30 7130 H 624.659 -0.737606 -0.0708397 0
M  V30 7131 H 627.306 -1.84134 0.526006 0
M  V30 7132 H 625.611 -3.69274 -1.30936 0
M  V30 7133 H 627.308 -3.8905 -0.971664 0
M  V30 7134 H 623.898 -4.26616 0.411906 0
M  V30 7135 H 628.082 -4.8084 1.22909 0
M  V30 7136 H 623.338 -5.63314 2.3767 0
M  V30 7137 H 627.512 -6.18904 3.19267 0
M  V30 7138 H 625.139 -6.59998 3.77236 0
M  V30 7139 N 626.714 -0.118576 -1.57153 0
M  V30 7140 C 627.942 0.54726 -1.99531 0
M  V30 7141 C 628.357 1.60251 -0.998246 0
M  V30 7142 O 627.714 1.82498 0.00893106 0
M  V30 7143 C 627.765 1.17378 -3.41913 0
M  V30 7144 O 627.486 0.160703 -4.37805 0
M  V30 7145 C 628.987 1.92297 -3.9942 0
M  V30 7146 H 626.207 0.144919 -0.655164 0
M  V30 7147 H 628.751 -0.20479 -2.03472 0
M  V30 7148 H 626.906 1.87661 -3.38913 0
M  V30 7149 H 627.32 0.61586 -5.20872 0
M  V30 7150 H 628.794 2.31462 -5.01128 0
M  V30 7151 H 629.271 2.79801 -3.38538 0
M  V30 7152 H 629.877 1.26777 -4.05965 0
M  V30 7153 N 628.193 1.56834 0.155195 0
M  V30 7154 C 629.156 1.96748 1.17571 0
M  V30 7155 C 630.156 0.853006 1.3631 0
M  V30 7156 O 631.346 1.11978 1.33441 0
M  V30 7157 C 628.478 2.27631 2.53765 0
M  V30 7158 H 629.671 2.88085 0.833498 0
M  V30 7159 H 627.224 1.51141 0.398242 0
M  V30 7160 H 627.959 1.39059 2.92973 0
M  V30 7161 H 627.744 3.0888 2.41527 0
M  V30 7162 H 629.234 2.59377 3.27282 0
M  V30 7163 N 629.671 -0.424282 1.51781 0
M  V30 7164 C 630.618 -1.51591 1.74037 0
M  V30 7165 C 631.588 -1.55556 0.582358 0
M  V30 7166 O 632.773 -1.72364 0.818245 0
M  V30 7167 C 629.913 -2.89188 1.8832 0
M  V30 7168 C 629.026 -2.9465 3.1592 0
M  V30 7169 C 628.161 -4.23452 3.20721 0
M  V30 7170 C 627.2 -4.22831 4.42584 0
M  V30 7171 N 626.337 -5.43178 4.44862 0
M  V30 7172 H 631.177 -1.31917 2.67212 0
M  V30 7173 H 628.714 -0.640599 1.32419 0
M  V30 7174 H 630.672 -3.69044 1.94583 0
M  V30 7175 H 629.302 -3.07392 0.985402 0
M  V30 7176 H 628.354 -2.07378 3.18902 0
M  V30 7177 H 629.666 -2.90055 4.05795 0
M  V30 7178 H 628.82 -5.1169 3.25973 0
M  V30 7179 H 627.559 -4.30722 2.28757 0
M  V30 7180 H 626.564 -3.32984 4.37495 0
M  V30 7181 H 627.789 -4.17213 5.35826 0
M  V30 7182 H 625.735 -5.51145 3.55775 0
M  V30 7183 H 625.652 -5.40515 5.28563 0
M  V30 7184 H 626.92 -6.33412 4.54324 0
M  V30 7185 N 631.149 -1.42148 -0.680565 0
M  V30 7186 C 632.398 -1.41604 -1.43636 0
M  V30 7187 C 632.711 -0.0337887 -1.95571 0
M  V30 7188 O 633.917 0.0942588 -2.71336 0
M  V30 7189 C 632.373 -2.49056 -2.59806 0
M  V30 7190 C 631.981 -3.9326 -2.14594 0
M  V30 7191 C 633.725 -2.5767 -3.37352 0
M  V30 7192 C 631.632 -4.92232 -3.27813 0
M  V30 7193 H 630.562 -0.526656 -0.539583 0
M  V30 7194 H 633.213 -1.68033 -0.737369 0
M  V30 7195 H 631.595 -2.15782 -3.32045 0
M  V30 7196 H 632.769 -4.35858 -1.49546 0
M  V30 7197 H 631.084 -3.88443 -1.50002 0
M  V30 7198 H 633.681 -3.28794 -4.21662 0
M  V30 7199 H 634.024 -1.61837 -3.83555 0
M  V30 7200 H 634.557 -2.90109 -2.72179 0
M  V30 7201 H 631.296 -5.89522 -2.86607 0
M  V30 7202 H 630.816 -4.5427 -3.91661 0
M  V30 7203 H 632.495 -5.13684 -3.93367 0
M  V30 7204 N 632.627 0.916307 -1.28225 0
M  V30 7205 C 633.59 1.99996 -1.11957 0
M  V30 7206 C 634.59 1.60688 -0.0600152 0
M  V30 7207 O 635.78 1.71499 -0.30558 0
M  V30 7208 C 632.912 3.33458 -0.708411 0
M  V30 7209 H 634.105 2.15858 -2.08196 0
M  V30 7210 H 631.658 1.09863 -1.11175 0
M  V30 7211 H 632.393 3.23297 0.254859 0
M  V30 7212 H 632.178 3.63349 -1.47377 0
M  V30 7213 H 633.668 4.13014 -0.617164 0
M  V30 7214 N 634.105 1.10431 1.1244 0
M  V30 7215 C 635.035 0.775143 2.20258 0
M  V30 7216 C 636.016 -0.25186 1.68225 0
M  V30 7217 O 637.201 -0.117637 1.93843 0
M  V30 7218 C 634.331 0.206133 3.46688 0
M  V30 7219 C 633.285 1.16382 4.11873 0
M  V30 7220 C 632.611 0.456014 5.32752 0
M  V30 7221 C 633.911 2.5104 4.58013 0
M  V30 7222 H 635.605 1.67665 2.4805 0
M  V30 7223 H 633.151 0.807595 1.19222 0
M  V30 7224 H 635.104 -0.036291 4.21384 0
M  V30 7225 H 633.828 -0.730614 3.18323 0
M  V30 7226 H 632.487 1.39169 3.39157 0
M  V30 7227 H 632.135 -0.485203 5.00654 0
M  V30 7228 H 631.835 1.09466 5.77314 0
M  V30 7229 H 633.359 0.222135 6.10196 0
M  V30 7230 H 634.773 2.32401 5.24083 0
M  V30 7231 H 633.17 3.10789 5.13352 0
M  V30 7232 H 634.24 3.11039 3.71998 0
M  V30 7233 N 635.583 -1.29855 0.893053 0
M  V30 7234 C 636.513 -2.3035 0.382249 0
M  V30 7235 C 637.494 -1.61328 -0.539203 0
M  V30 7236 O 638.679 -1.88882 -0.451342 0
M  V30 7237 C 635.809 -3.45024 -0.396983 0
M  V30 7238 C 634.763 -4.258 0.433437 0
M  V30 7239 C 634.089 -5.32605 -0.472889 0
M  V30 7240 C 635.389 -4.94549 1.67984 0
M  V30 7241 H 637.083 -2.73325 1.22205 0
M  V30 7242 H 634.629 -1.314 0.589073 0
M  V30 7243 H 636.582 -4.14398 -0.765024 0
M  V30 7244 H 635.306 -3.00875 -1.2705 0
M  V30 7245 H 633.965 -3.58125 0.783723 0
M  V30 7246 H 633.613 -4.84702 -1.34435 0
M  V30 7247 H 633.313 -5.87547 0.0789958 0
M  V30 7248 H 634.837 -6.04832 -0.837269 0
M  V30 7249 H 636.251 -5.56395 1.38192 0
M  V30 7250 H 634.648 -5.59393 2.17254 0
M  V30 7251 H 635.718 -4.20215 2.41965 0
M  V30 7252 N 637.061 -0.65484 -1.43351 0
M  V30 7253 C 637.971 0.0363603 -2.34572 0
M  V30 7254 C 638.987 0.810432 -1.53974 0
M  V30 7255 O 640.163 0.757308 -1.86619 0
M  V30 7256 C 637.228 0.989733 -3.32273 0
M  V30 7257 C 636.289 0.212414 -4.28774 0
M  V30 7258 C 635.522 1.12038 -5.21808 0
M  V30 7259 O 635.745 2.35967 -5.19303 0
M  V30 7260 O 634.679 0.59191 -5.98982 0
M  V30 7261 H 638.505 -0.714527 -2.95175 0
M  V30 7262 H 636.09 -0.415029 -1.4352 0
M  V30 7263 H 637.972 1.53759 -3.92347 0
M  V30 7264 H 636.647 1.72082 -2.74171 0
M  V30 7265 H 635.554 -0.379062 -3.72175 0
M  V30 7266 H 636.887 -0.479138 -4.89862 0
M  V30 7267 N 638.539 1.52521 -0.396863 0
M  V30 7268 C 639.449 2.30403 0.44178 0
M  V30 7269 C 640.465 1.37625 1.06468 0
M  V30 7270 O 641.641 1.70697 1.06886 0
M  V30 7271 C 638.706 3.1013 1.54986 0
M  V30 7272 C 637.767 4.18628 0.951279 0
M  V30 7273 C 637 4.94543 2.00655 0
M  V30 7274 O 637.223 4.70629 3.22281 0
M  V30 7275 O 636.157 5.797 1.61962 0
M  V30 7276 H 639.983 3.03087 -0.192892 0
M  V30 7277 H 637.568 1.48537 -0.16038 0
M  V30 7278 H 639.45 3.59816 2.19341 0
M  V30 7279 H 638.125 2.40251 2.16935 0
M  V30 7280 H 637.032 3.73119 0.270773 0
M  V30 7281 H 638.365 4.90763 0.375887 0
M  V30 7282 N 640.017 0.126909 1.57088 0
M  V30 7283 C 640.98 -0.806097 2.14557 0
M  V30 7284 C 641.98 -1.18918 1.08236 0
M  V30 7285 O 643.17 -1.11339 1.33975 0
M  V30 7286 C 640.302 -2.09116 2.69227 0
M  V30 7287 H 641.495 -0.306522 2.98329 0
M  V30 7288 H 639.048 -0.122393 1.5582 0
M  V30 7289 H 639.783 -2.63486 1.89065 0
M  V30 7290 H 639.568 -1.82588 3.46993 0
M  V30 7291 H 641.058 -2.75794 3.13572 0
M  V30 7292 N 641.495 -1.56914 -0.146875 0
M  V30 7293 C 642.442 -1.98275 -1.18134 0
M  V30 7294 C 643.412 -0.850367 -1.42681 0
M  V30 7295 O 644.597 -1.11244 -1.55014 0
M  V30 7296 C 641.737 -2.36861 -2.5098 0
M  V30 7297 C 640.85 -3.63391 -2.33605 0
M  V30 7298 C 639.985 -3.91079 -3.59486 0
M  V30 7299 C 639.024 -5.10879 -3.37149 0
M  V30 7300 N 638.161 -5.34577 -4.55161 0
M  V30 7301 H 643.001 -2.8645 -0.821622 0
M  V30 7302 H 640.538 -1.41718 -0.394248 0
M  V30 7303 H 642.496 -2.57262 -3.28439 0
M  V30 7304 H 641.126 -1.51766 -2.84898 0
M  V30 7305 H 640.178 -3.50766 -1.47199 0
M  V30 7306 H 641.49 -4.51007 -2.13059 0
M  V30 7307 H 640.644 -4.11979 -4.45374 0
M  V30 7308 H 639.383 -3.01885 -3.83036 0
M  V30 7309 H 638.388 -4.89853 -2.49649 0
M  V30 7310 H 639.613 -6.01626 -3.14997 0
M  V30 7311 H 637.559 -4.48337 -4.78884 0
M  V30 7312 H 637.476 -6.16463 -4.37618 0
M  V30 7313 H 638.744 -5.59975 -5.42263 0
M  V30 7314 N 642.974 0.416227 -1.52004 0
M  V30 7315 C 643.921 1.50666 -1.74838 0
M  V30 7316 C 644.891 1.55245 -0.590599 0
M  V30 7317 O 646.076 1.71928 -0.827374 0
M  V30 7318 C 643.216 2.88185 -1.89851 0
M  V30 7319 C 642.329 2.92971 -3.17478 0
M  V30 7320 C 641.464 4.21745 -3.22962 0
M  V30 7321 C 640.503 4.20478 -4.4482 0
M  V30 7322 N 639.64 5.40811 -4.47736 0
M  V30 7323 H 644.48 1.30498 -2.67907 0
M  V30 7324 H 642.017 0.633568 -1.32757 0
M  V30 7325 H 643.975 3.68007 -1.96537 0
M  V30 7326 H 642.605 3.06865 -1.00169 0
M  V30 7327 H 641.657 2.05684 -3.19997 0
M  V30 7328 H 642.969 2.87899 -4.07328 0
M  V30 7329 H 642.123 5.09954 -3.28682 0
M  V30 7330 H 640.862 4.29503 -2.31038 0
M  V30 7331 H 639.867 3.30659 -4.39254 0
M  V30 7332 H 641.092 4.14366 -5.38031 0
M  V30 7333 H 639.038 5.4925 -3.58692 0
M  V30 7334 H 638.955 5.37705 -5.31422 0
M  V30 7335 H 640.223 6.30993 -4.57676 0
M  V30 7336 N 644.452 1.42507 0.673017 0
M  V30 7337 C 645.399 1.46124 1.78651 0
M  V30 7338 C 646.369 0.313007 1.63124 0
M  V30 7339 O 647.554 0.517337 1.83653 0
M  V30 7340 C 644.694 1.3711 3.16694 0
M  V30 7341 C 643.807 2.61983 3.43495 0
M  V30 7342 C 642.942 2.45098 4.71275 0
M  V30 7343 C 641.981 3.65336 4.91117 0
M  V30 7344 N 641.118 3.47383 6.10139 0
M  V30 7345 H 645.958 2.4128 1.74895 0
M  V30 7346 H 643.495 1.19788 0.853766 0
M  V30 7347 H 645.453 1.29881 3.96468 0
M  V30 7348 H 644.083 0.45549 3.1957 0
M  V30 7349 H 643.135 2.79571 2.57961 0
M  V30 7350 H 644.447 3.51355 3.5405 0
M  V30 7351 H 643.601 2.35466 5.59143 0
M  V30 7352 H 642.34 1.53219 4.63007 0
M  V30 7353 H 641.345 3.754 4.0169 0
M  V30 7354 H 642.57 4.58199 5.01229 0
M  V30 7355 H 640.516 2.58222 6.0304 0
M  V30 7356 H 640.433 4.30344 6.21563 0
M  V30 7357 H 641.701 3.41565 7.00681 0
M  V30 7358 N 645.93 -0.909495 1.28709 0
M  V30 7359 C 646.877 -2.01245 1.13 0
M  V30 7360 C 647.847 -1.6608 0.0259684 0
M  V30 7361 O 649.032 -1.89835 0.191687 0
M  V30 7362 C 646.172 -3.35644 0.802315 0
M  V30 7363 C 645.285 -3.83653 1.98582 0
M  V30 7364 C 644.42 -5.06582 1.59837 0
M  V30 7365 C 643.459 -5.46934 2.74827 0
M  V30 7366 N 642.596 -6.61053 2.36546 0
M  V30 7367 H 647.436 -2.14013 2.0737 0
M  V30 7368 H 644.973 -1.0482 1.03205 0
M  V30 7369 H 646.931 -4.12963 0.593057 0
M  V30 7370 H 645.561 -3.22631 -0.104457 0
M  V30 7371 H 644.613 -3.02454 2.30708 0
M  V30 7372 H 645.925 -4.09515 2.84779 0
M  V30 7373 H 645.079 -5.91457 1.35143 0
M  V30 7374 H 643.818 -4.82537 0.707753 0
M  V30 7375 H 642.823 -4.60599 3.00215 0
M  V30 7376 H 644.048 -5.72965 3.64538 0
M  V30 7377 H 641.994 -6.3863 1.49959 0
M  V30 7378 H 641.911 -6.86662 3.16277 0
M  V30 7379 H 643.179 -7.49221 2.15146 0
M  V30 7380 N 647.408 -1.11026 -1.11852 0
M  V30 7381 C 648.318 -0.777252 -2.2135 0
M  V30 7382 C 649.334 0.227821 -1.72502 0
M  V30 7383 O 650.51 0.0650587 -2.01295 0
M  V30 7384 C 647.575 -0.220668 -3.45997 0
M  V30 7385 C 646.636 -1.2838 -4.09655 0
M  V30 7386 C 645.869 -0.753678 -5.28352 0
M  V30 7387 O 646.092 0.417779 -5.68868 0
M  V30 7388 O 645.026 -1.51647 -5.82483 0
M  V30 7389 H 648.852 -1.69141 -2.5224 0
M  V30 7390 H 646.437 -0.885836 -1.20305 0
M  V30 7391 H 648.319 0.0855756 -4.21313 0
M  V30 7392 H 646.994 0.666262 -3.16769 0
M  V30 7393 H 645.901 -1.64299 -3.3609 0
M  V30 7394 H 647.234 -2.14396 -4.43052 0
M  V30 7395 N 648.886 1.2938 -0.899927 0
M  V30 7396 C 649.796 2.31462 -0.382437 0
M  V30 7397 C 650.812 1.65956 0.522929 0
M  V30 7398 O 651.988 1.97131 0.412454 0
M  V30 7399 C 649.053 3.44595 0.381472 0
M  V30 7400 C 648.114 4.25692 -0.555444 0
M  V30 7401 C 647.347 5.33422 0.172102 0
M  V30 7402 O 647.57 5.53053 1.396 0
M  V30 7403 O 646.504 5.99939 -0.485491 0
M  V30 7404 H 650.33 2.77706 -1.22934 0
M  V30 7405 H 647.915 1.33821 -0.664259 0
M  V30 7406 H 649.797 4.13474 0.813442 0
M  V30 7407 H 648.472 3.00458 1.20443 0
M  V30 7408 H 647.379 3.59453 -1.03653 0
M  V30 7409 H 648.712 4.73471 -1.34483 0
M  V30 7410 N 650.364 0.662433 1.43002 0
M  V30 7411 C 651.274 -0.0239199 2.34588 0
M  V30 7412 C 652.29 -0.802255 1.54402 0
M  V30 7413 O 653.466 -0.747401 1.87018 0
M  V30 7414 C 650.531 -0.972098 3.32793 0
M  V30 7415 C 649.592 -0.189673 4.28881 0
M  V30 7416 C 648.825 -1.09269 5.22395 0
M  V30 7417 O 649.048 -2.33209 5.20547 0
M  V30 7418 O 647.982 -0.560136 5.99288 0
M  V30 7419 H 651.808 0.730171 2.94792 0
M  V30 7420 H 649.393 0.422635 1.43297 0
M  V30 7421 H 651.275 -1.51676 3.93157 0
M  V30 7422 H 649.95 -1.70626 2.75079 0
M  V30 7423 H 648.857 0.398794 3.71968 0
M  V30 7424 H 650.19 0.50511 4.89601 0
M  V30 7425 N 651.842 -1.52309 0.404946 0
M  V30 7426 C 652.805 -2.25491 -0.410651 0
M  V30 7427 C 653.805 -1.27704 -0.977154 0
M  V30 7428 O 654.995 -1.51679 -0.856691 0
M  V30 7429 C 652.127 -3.02197 -1.57765 0
M  V30 7430 H 653.32 -2.99015 0.230277 0
M  V30 7431 H 650.873 -1.55506 0.157377 0
M  V30 7432 H 651.608 -2.33013 -2.25556 0
M  V30 7433 H 651.393 -3.73987 -1.17797 0
M  V30 7434 H 652.883 -3.57719 -2.15469 0
M  V30 7435 N 653.32 -0.135238 -1.57019 0
M  V30 7436 C 654.548 0.526066 -2.001 0
M  V30 7437 C 654.963 1.59184 -1.01519 0
M  V30 7438 O 654.32 1.82497 -0.0104258 0
M  V30 7439 C 654.371 1.13744 -3.43139 0
M  V30 7440 O 654.092 0.114259 -4.37951 0
M  V30 7441 C 655.593 1.8805 -4.01438 0
M  V30 7442 H 652.813 0.137962 -0.656664 0
M  V30 7443 H 655.357 -0.226359 -2.03243 0
M  V30 7444 H 653.512 1.84056 -3.40885 0
M  V30 7445 H 653.926 0.56058 -5.21496 0
M  V30 7446 H 655.4 2.26133 -5.03555 0
M  V30 7447 H 655.877 2.76194 -3.41487 0
M  V30 7448 H 656.483 1.22464 -4.07287 0
M  V30 7449 N 654.798 1.5699 0.138552 0
M  V30 7450 C 655.708 2.02174 1.19008 0
M  V30 7451 C 656.724 0.938622 1.46512 0
M  V30 7452 O 657.9 1.24872 1.58016 0
M  V30 7453 C 654.965 2.40045 2.50159 0
M  V30 7454 C 654.026 3.62346 2.30226 0
M  V30 7455 C 653.259 3.98401 3.55123 0
M  V30 7456 O 653.482 3.35019 4.61647 0
M  V30 7457 O 652.416 4.91606 3.47285 0
M  V30 7458 H 656.242 2.91954 0.836452 0
M  V30 7459 H 653.827 1.45293 0.347907 0
M  V30 7460 H 655.709 2.65225 3.27465 0
M  V30 7461 H 654.384 1.53417 2.85035 0
M  V30 7462 H 653.291 3.42341 1.50843 0
M  V30 7463 H 654.624 4.49617 2.00262 0
M  V30 7464 N 656.276 -0.40816 1.52223 0
M  V30 7465 C 657.522 -1.15347 1.67531 0
M  V30 7466 C 657.877 -1.8818 0.400748 0
M  V30 7467 O 657.17 -1.81803 -0.604845 0
M  V30 7468 C 657.364 -2.17422 2.83659 0
M  V30 7469 C 657.193 -1.54611 4.22286 0
M  V30 7470 C 655.963 -1.31841 4.87797 0
M  V30 7471 C 658.161 -1.00648 5.04355 0
M  V30 7472 N 656.143 -0.649338 6.10456 0
M  V30 7473 C 657.514 -0.464384 6.18258 0
M  V30 7474 C 659.569 -0.901041 4.89679 0
M  V30 7475 C 658.272 0.172825 7.19092 0
M  V30 7476 C 660.298 -0.277684 5.90748 0
M  V30 7477 C 659.66 0.253734 7.03943 0
M  V30 7478 H 655.759 -0.408722 0.666686 0
M  V30 7479 H 658.343 -0.445713 1.8953 0
M  V30 7480 H 656.514 -2.85554 2.63274 0
M  V30 7481 H 658.246 -2.84321 2.87999 0
M  V30 7482 H 655.001 -1.58819 4.46176 0
M  V30 7483 H 655.425 -0.3314 6.76188 0
M  V30 7484 H 660.067 -1.29772 4.02392 0
M  V30 7485 H 657.785 0.581564 8.06005 0
M  V30 7486 H 661.371 -0.197605 5.81464 0
M  V30 7487 H 660.251 0.728482 7.80809 0
M  V30 7488 N 657.755 -1.42862 -0.66545 0
M  V30 7489 C 658.687 -1.43026 -1.79098 0
M  V30 7490 C 659.7 -0.32803 -1.59461 0
M  V30 7491 O 660.889 -0.591709 -1.68407 0
M  V30 7492 C 657.989 -1.21566 -3.16346 0
M  V30 7493 C 657.162 -2.44399 -3.62751 0
M  V30 7494 C 656.221 -2.18344 -4.78761 0
M  V30 7495 O 655.247 -2.91611 -4.88827 0
M  V30 7496 N 656.449 -1.1924 -5.68122 0
M  V30 7497 H 659.214 -2.40045 -1.79439 0
M  V30 7498 H 656.775 -1.37861 -0.848872 0
M  V30 7499 H 658.767 -1.02037 -3.91625 0
M  V30 7500 H 657.337 -0.330368 -3.10849 0
M  V30 7501 H 656.557 -2.79433 -2.78048 0
M  V30 7502 H 657.845 -3.26173 -3.90498 0
M  V30 7503 H 657.243 -0.586603 -5.6265 0
M  V30 7504 H 655.8 -1.05698 -6.43173 0
M  V30 7505 N 659.233 0.902656 -1.29189 0
M  V30 7506 C 660.183 1.99326 -1.10695 0
M  V30 7507 C 661.167 1.60877 -0.0272521 0
M  V30 7508 O 662.359 1.75245 -0.248635 0
M  V30 7509 C 659.488 3.34265 -0.78244 0
M  V30 7510 C 658.574 3.79081 -1.90153 0
M  V30 7511 N 658.965 3.96162 -3.14466 0
M  V30 7512 C 657.263 4.08333 -1.79389 0
M  V30 7513 C 657.964 4.3388 -3.87458 0
M  V30 7514 N 656.94 4.42759 -3.15381 0
M  V30 7515 H 660.742 2.10597 -2.05003 0
M  V30 7516 H 658.256 1.09127 -1.20271 0
M  V30 7517 H 660.253 4.12097 -0.630996 0
M  V30 7518 H 658.913 3.2434 0.152754 0
M  V30 7519 H 659.924 3.81775 -3.49954 0
M  V30 7520 H 656.601 4.06982 -0.931217 0
M  V30 7521 H 657.991 4.54965 -4.94425 0
M  V30 7522 N 660.711 1.11618 1.11262 0
M  V30 7523 C 661.658 0.7762 2.17356 0
M  V30 7524 C 662.628 -0.253152 1.6416 0
M  V30 7525 O 663.813 -0.129655 1.90359 0
M  V30 7526 C 660.953 0.227581 3.44349 0
M  V30 7527 C 660.066 1.31372 4.1154 0
M  V30 7528 C 659.201 0.72544 5.26223 0
M  V30 7529 C 658.24 1.7913 5.85302 0
M  V30 7530 N 657.377 1.22237 6.91377 0
M  V30 7531 H 662.217 1.68508 2.45783 0
M  V30 7532 H 659.754 0.841475 1.20655 0
M  V30 7533 H 661.712 -0.108483 4.17059 0
M  V30 7534 H 660.342 -0.644486 3.16301 0
M  V30 7535 H 659.394 1.7667 3.36885 0
M  V30 7536 H 660.706 2.12005 4.51504 0
M  V30 7537 H 659.86 0.339541 6.05749 0
M  V30 7538 H 658.599 -0.112188 4.87571 0
M  V30 7539 H 657.604 2.18648 5.04453 0
M  V30 7540 H 658.829 2.63199 6.26022 0
M  V30 7541 H 656.775 0.406423 6.5474 0
M  V30 7542 H 656.692 1.9654 7.30006 0
M  V30 7543 H 657.96 0.863426 7.74703 0
M  V30 7544 N 662.189 -1.289 0.906776 0
M  V30 7545 C 663.152 -2.25777 0.394656 0
M  V30 7546 C 664.152 -1.53621 -0.475119 0
M  V30 7547 O 665.342 -1.71949 -0.279165 0
M  V30 7548 C 662.474 -3.38113 -0.43499 0
M  V30 7549 H 663.667 -2.72592 1.25033 0
M  V30 7550 H 661.22 -1.40463 0.685547 0
M  V30 7551 H 661.955 -2.96648 -1.31036 0
M  V30 7552 H 661.74 -3.91647 0.188334 0
M  V30 7553 H 663.23 -4.10168 -0.784365 0
M  V30 7554 N 663.667 -0.670007 -1.42649 0
M  V30 7555 C 664.914 -0.190286 -2.01604 0
M  V30 7556 C 665.242 1.20155 -1.52948 0
M  V30 7557 O 664.497 1.81964 -0.72026 0
M  V30 7558 C 664.796 -0.168298 -3.57004 0
M  V30 7559 C 664.462 -1.50415 -4.25072 0
M  V30 7560 C 663.124 -1.86992 -4.43382 0
M  V30 7561 C 665.476 -2.38414 -4.63474 0
M  V30 7562 C 662.804 -3.11203 -4.97363 0
M  V30 7563 C 665.156 -3.61933 -5.18833 0
M  V30 7564 C 663.82 -3.98685 -5.35356 0
M  V30 7565 H 663.09 -0.0696305 -0.737721 0
M  V30 7566 H 665.737 -0.864044 -1.70899 0
M  V30 7567 H 664.042 0.588958 -3.87348 0
M  V30 7568 H 665.739 0.22001 -4.00396 0
M  V30 7569 H 662.329 -1.20959 -4.11177 0
M  V30 7570 H 666.513 -2.11442 -4.49006 0
M  V30 7571 H 661.769 -3.39705 -5.08341 0
M  V30 7572 H 665.943 -4.30326 -5.47533 0
M  V30 7573 H 663.57 -4.95009 -5.76949 0
M  V30 7574 N 665.145 1.52092 -0.413018 0
M  V30 7575 C 666.108 2.25706 0.398687 0
M  V30 7576 C 667.108 1.28221 0.970368 0
M  V30 7577 O 668.298 1.52131 0.848635 0
M  V30 7578 C 665.43 3.03029 1.5616 0
M  V30 7579 H 666.623 2.98888 -0.246131 0
M  V30 7580 H 664.176 1.5542 -0.165622 0
M  V30 7581 H 664.911 2.34205 2.24317 0
M  V30 7582 H 664.696 3.74606 1.15812 0
M  V30 7583 H 666.186 3.58857 2.13569 0
M  V30 7584 N 666.623 0.143563 1.56945 0
M  V30 7585 C 667.586 -0.783295 2.154 0
M  V30 7586 C 668.586 -1.17763 1.09492 0
M  V30 7587 O 669.776 -1.09912 1.35148 0
M  V30 7588 C 666.908 -2.06248 2.7143 0
M  V30 7589 H 668.101 -0.274863 2.98638 0
M  V30 7590 H 665.654 -0.105859 1.55941 0
M  V30 7591 H 666.389 -2.61466 1.91849 0
M  V30 7592 H 666.174 -1.78897 3.4891 0
M  V30 7593 H 667.664 -2.72453 3.16479 0
M  V30 7594 N 668.101 -1.57061 -0.130224 0
M  V30 7595 C 669.033 -1.96147 -1.18571 0
M  V30 7596 C 670.046 -0.859347 -1.38272 0
M  V30 7597 O 671.235 -1.13769 -1.37545 0
M  V30 7598 C 668.335 -2.23484 -2.54771 0
M  V30 7599 C 667.508 -3.54786 -2.55824 0
M  V30 7600 C 666.567 -3.70467 -3.73686 0
M  V30 7601 O 665.593 -4.42693 -3.57787 0
M  V30 7602 N 666.795 -3.08389 -4.91809 0
M  V30 7603 H 669.56 -2.87295 -0.853333 0
M  V30 7604 H 667.121 -1.58714 -0.319621 0
M  V30 7605 H 669.113 -2.312 -3.32158 0
M  V30 7606 H 667.683 -1.38518 -2.80235 0
M  V30 7607 H 666.903 -3.5836 -1.64232 0
M  V30 7608 H 668.191 -4.4111 -2.53573 0
M  V30 7609 H 667.589 -2.49656 -5.0763 0
M  V30 7610 H 666.146 -3.21642 -5.66912 0
M  V30 7611 N 669.579 0.400081 -1.52437 0
M  V30 7612 C 670.489 1.51253 -1.79331 0
M  V30 7613 C 671.505 1.60188 -0.679396 0
M  V30 7614 O 672.681 1.76733 -0.965791 0
M  V30 7615 C 669.746 2.869 -1.94652 0
M  V30 7616 C 668.807 2.87777 -3.18564 0
M  V30 7617 C 668.04 4.16954 -3.33145 0
M  V30 7618 O 668.263 5.11329 -2.52783 0
M  V30 7619 O 667.197 4.2487 -4.26343 0
M  V30 7620 H 671.023 1.31461 -2.73773 0
M  V30 7621 H 668.608 0.586834 -1.37392 0
M  V30 7622 H 670.49 3.67336 -2.065 0
M  V30 7623 H 669.165 3.06741 -1.034 0
M  V30 7624 H 668.072 2.06162 -3.12167 0
M  V30 7625 H 669.405 2.72886 -4.09627 0
M  V30 7626 N 671.057 1.43213 0.657864 0
M  V30 7627 C 672.334 1.35063 1.41483 0
M  V30 7628 C 672.714 -0.0038314 2.111 0
M  V30 7629 O 672.062 -1.02018 2.04462 0
M  V30 7630 C 672.272 2.53061 2.40335 0
M  V30 7631 C 673.62 2.9594 3.04474 0
M  V30 7632 O 674.644 2.53074 2.50663 0
M  V30 7633 O 673.503 3.70184 4.02027 0
M  V30 7634 H 670.597 0.533517 0.631893 0
M  V30 7635 H 673.143 1.55253 0.685162 0
M  V30 7636 H 671.915 3.43283 1.87809 0
M  V30 7637 H 671.538 2.34945 3.20759 0
M  V30 7638 N 672.536 -0.895792 1.29666 0
M  V30 7639 C 673.466 -2.01673 1.17688 0
M  V30 7640 C 674.447 -1.69955 0.0701317 0
M  V30 7641 O 675.632 -1.9258 0.250289 0
M  V30 7642 C 672.762 -3.36568 0.856681 0
M  V30 7643 C 671.716 -3.82509 1.92017 0
M  V30 7644 C 671.042 -5.14574 1.4532 0
M  V30 7645 C 672.342 -4.02409 3.32963 0
M  V30 7646 H 674.036 -2.11953 2.11463 0
M  V30 7647 H 671.582 -1.01839 1.01807 0
M  V30 7648 H 673.535 -4.14498 0.759577 0
M  V30 7649 H 672.259 -3.26391 -0.116763 0
M  V30 7650 H 670.918 -3.068 2.00673 0
M  V30 7651 H 670.566 -5.00815 0.468325 0
M  V30 7652 H 670.266 -5.46283 2.16447 0
M  V30 7653 H 671.79 -5.9504 1.36968 0
M  V30 7654 H 673.204 -4.70808 3.27127 0
M  V30 7655 H 671.601 -4.45478 4.02082 0
M  V30 7656 H 672.671 -3.06616 3.75652 0
M  V30 7657 N 674.014 -1.12206 -1.10668 0
M  V30 7658 C 674.924 -0.800686 -2.20513 0
M  V30 7659 C 675.94 0.209512 -1.72734 0
M  V30 7660 O 677.116 0.043705 -2.01353 0
M  V30 7661 C 674.181 -0.257353 -3.45744 0
M  V30 7662 C 673.242 -1.32718 -4.0827 0
M  V30 7663 C 672.475 -0.809674 -5.27522 0
M  V30 7664 O 672.698 0.35742 -5.69279 0
M  V30 7665 O 671.632 -1.57816 -5.80842 0
M  V30 7666 H 675.458 -1.71807 -2.50432 0
M  V30 7667 H 673.043 -0.898546 -1.19359 0
M  V30 7668 H 674.925 0.0408849 -4.2138 0
M  V30 7669 H 673.6 0.632627 -3.17458 0
M  V30 7670 H 672.507 -1.67855 -3.34329 0
M  V30 7671 H 673.84 -2.19083 -4.40753 0
M  V30 7672 N 675.492 1.28418 -0.913599 0
M  V30 7673 C 676.439 2.27301 -0.400373 0
M  V30 7674 C 677.409 1.57582 0.52509 0
M  V30 7675 O 678.594 1.85482 0.447318 0
M  V30 7676 C 675.734 3.43284 0.35361 0
M  V30 7677 C 674.847 4.27752 -0.604341 0
M  V30 7678 C 673.982 5.30934 0.168075 0
M  V30 7679 C 673.021 6.07065 -0.783499 0
M  V30 7680 N 672.158 7.02086 -0.0446112 0
M  V30 7681 H 676.998 2.70579 -1.24865 0
M  V30 7682 H 674.535 1.33067 -0.627028 0
M  V30 7683 H 676.493 4.09322 0.806945 0
M  V30 7684 H 675.123 3.00997 1.16623 0
M  V30 7685 H 674.175 3.61759 -1.17621 0
M  V30 7686 H 675.487 4.80682 -1.33216 0
M  V30 7687 H 674.641 6.02855 0.681979 0
M  V30 7688 H 673.38 4.78771 0.928947 0
M  V30 7689 H 672.385 5.33995 -1.30878 0
M  V30 7690 H 673.61 6.61317 -1.54392 0
M  V30 7691 H 671.556 6.52273 0.698272 0
M  V30 7692 H 671.473 7.52637 -0.712258 0
M  V30 7693 H 672.741 7.78205 0.449102 0
M  V30 7694 N 676.97 0.677563 1.42291 0
M  V30 7695 C 678.198 0.209459 2.05837 0
M  V30 7696 C 678.613 -1.13444 1.50917 0
M  V30 7697 O 677.97 -1.70529 0.65008 0
M  V30 7698 C 678.021 0.138819 3.61233 0
M  V30 7699 O 677.742 1.42962 4.14118 0
M  V30 7700 C 679.243 -0.352449 4.41897 0
M  V30 7701 H 676.463 0.101209 0.663323 0
M  V30 7702 H 679.007 0.925077 1.8238 0
M  V30 7703 H 677.162 -0.527505 3.83792 0
M  V30 7704 H 677.576 1.3048 5.08011 0
M  V30 7705 H 679.05 -0.350778 5.50884 0
M  V30 7706 H 679.527 -1.3882 4.16684 0
M  V30 7707 H 680.133 0.282236 4.24362 0
M  V30 7708 N 678.448 -1.51871 0.421078 0
M  V30 7709 C 679.395 -2.27334 -0.398508 0
M  V30 7710 C 680.365 -1.30241 -1.03085 0
M  V30 7711 O 681.55 -1.59121 -1.05285 0
M  V30 7712 C 678.69 -3.10664 -1.50272 0
M  V30 7713 C 677.803 -4.2273 -0.890122 0
M  V30 7714 C 676.938 -4.93399 -1.96803 0
M  V30 7715 C 675.977 -5.97409 -1.333 0
M  V30 7716 N 675.114 -6.61548 -2.35156 0
M  V30 7717 H 679.954 -2.96938 0.251411 0
M  V30 7718 H 677.491 -1.46472 0.135825 0
M  V30 7719 H 679.449 -3.57292 -2.15403 0
M  V30 7720 H 678.079 -2.43207 -2.1225 0
M  V30 7721 H 677.131 -3.80186 -0.127537 0
M  V30 7722 H 678.443 -4.97302 -0.386349 0
M  V30 7723 H 677.597 -5.43491 -2.69633 0
M  V30 7724 H 676.336 -4.18421 -2.50549 0
M  V30 7725 H 675.341 -5.46624 -0.59008 0
M  V30 7726 H 676.566 -6.74335 -0.803076 0
M  V30 7727 H 674.512 -5.89394 -2.88012 0
M  V30 7728 H 674.429 -7.31832 -1.89624 0
M  V30 7729 H 675.697 -7.16276 -3.0752 0
M  V30 7730 N 679.926 -0.151884 -1.56866 0
M  V30 7731 C 680.836 0.798876 -2.20579 0
M  V30 7732 C 681.852 1.268 -1.19154 0
M  V30 7733 O 683.028 1.32418 -1.51748 0
M  V30 7734 C 680.093 2.01861 -2.81874 0
M  V30 7735 C 679.154 1.59825 -3.9844 0
M  V30 7736 C 678.387 2.75984 -4.56802 0
M  V30 7737 O 678.61 3.92331 -4.14044 0
M  V30 7738 O 677.544 2.51175 -5.46987 0
M  V30 7739 H 681.37 0.2865 -3.02346 0
M  V30 7740 H 678.955 0.0753806 -1.4921 0
M  V30 7741 H 680.837 2.73235 -3.20813 0
M  V30 7742 H 679.512 2.52042 -2.03117 0
M  V30 7743 H 678.419 0.854601 -3.64208 0
M  V30 7744 H 679.752 1.14355 -4.78731 0
M  V30 7745 N 681.404 1.57128 0.121893 0
M  V30 7746 C 682.314 2.03425 1.16857 0
M  V30 7747 C 683.33 0.954108 1.45509 0
M  V30 7748 O 684.506 1.26541 1.56682 0
M  V30 7749 C 681.571 2.42685 2.47599 0
M  V30 7750 C 680.632 3.64767 2.2637 0
M  V30 7751 C 679.865 4.02145 3.50878 0
M  V30 7752 O 680.088 3.39897 4.58068 0
M  V30 7753 O 679.022 4.95262 3.42051 0
M  V30 7754 H 682.848 2.92825 0.80544 0
M  V30 7755 H 680.433 1.45654 0.332477 0
M  V30 7756 H 682.315 2.68684 3.24634 0
M  V30 7757 H 680.99 1.56432 2.83392 0
M  V30 7758 H 679.897 3.43922 1.47203 0
M  V30 7759 H 681.23 4.51716 1.95482 0
M  V30 7760 N 682.882 -0.391992 1.52647 0
M  V30 7761 C 683.812 -1.48517 1.8018 0
M  V30 7762 C 684.793 -1.57039 0.653667 0
M  V30 7763 O 685.978 -1.72036 0.900962 0
M  V30 7764 C 683.108 -2.86161 1.96797 0
M  V30 7765 C 682.062 -2.92481 3.12472 0
M  V30 7766 C 681.388 -4.32546 3.14338 0
M  V30 7767 C 682.688 -2.624 4.51601 0
M  V30 7768 H 684.382 -1.25726 2.71723 0
M  V30 7769 H 681.928 -0.603387 1.30749 0
M  V30 7770 H 683.881 -3.62639 2.14641 0
M  V30 7771 H 682.605 -3.10283 1.01941 0
M  V30 7772 H 681.264 -2.18451 2.94406 0
M  V30 7773 H 680.912 -4.53703 2.1717 0
M  V30 7774 H 680.612 -4.37695 3.92042 0
M  V30 7775 H 682.136 -5.10934 3.34333 0
M  V30 7776 H 683.55 -3.28596 4.69785 0
M  V30 7777 H 681.947 -2.78903 5.3135 0
M  V30 7778 H 683.017 -1.57754 4.58521 0
M  V30 7779 N 684.36 -1.4356 -0.65026 0
M  V30 7780 C 685.307 -1.48948 -1.76304 0
M  V30 7781 C 686.277 -0.338919 -1.62605 0
M  V30 7782 O 687.462 -0.54649 -1.82806 0
M  V30 7783 C 684.602 -1.42131 -3.14472 0
M  V30 7784 C 683.715 -2.67415 -3.39284 0
M  V30 7785 C 682.85 -2.52565 -4.67316 0
M  V30 7786 C 681.889 -3.73103 -4.85243 0
M  V30 7787 N 681.026 -3.57046 -6.04535 0
M  V30 7788 H 685.866 -2.44032 -1.71034 0
M  V30 7789 H 683.403 -1.21131 -0.834601 0
M  V30 7790 H 685.361 -1.36172 -3.94351 0
M  V30 7791 H 683.991 -0.506273 -3.18805 0
M  V30 7792 H 683.043 -2.8364 -2.53481 0
M  V30 7793 H 684.355 -3.56943 -3.48415 0
M  V30 7794 H 683.509 -2.44331 -5.55326 0
M  V30 7795 H 682.248 -1.60566 -4.60511 0
M  V30 7796 H 681.253 -3.81743 -3.95667 0
M  V30 7797 H 682.478 -4.66115 -4.93876 0
M  V30 7798 H 680.424 -2.67783 -5.98856 0
M  V30 7799 H 680.341 -4.40178 -6.14638 0
M  V30 7800 H 681.609 -3.52669 -6.95158 0
M  V30 7801 N 685.838 0.888903 -1.30139 0
M  V30 7802 C 687.066 1.67358 -1.21651 0
M  V30 7803 C 687.481 1.87499 0.221246 0
M  V30 7804 O 686.838 1.41969 1.14677 0
M  V30 7805 C 686.889 3.05213 -1.93719 0
M  V30 7806 O 686.61 2.85984 -3.31881 0
M  V30 7807 C 688.111 3.9964 -1.9184 0
M  V30 7808 H 685.331 0.522365 -0.42116 0
M  V30 7809 H 687.875 1.11086 -1.71698 0
M  V30 7810 H 686.03 3.5823 -1.4748 0
M  V30 7811 H 686.444 3.73411 -3.68327 0
M  V30 7812 H 687.918 4.93749 -2.46811 0
M  V30 7813 H 688.395 4.29955 -0.896409 0
M  V30 7814 H 689.001 3.52558 -2.37872 0
M  V30 7815 N 687.317 1.12792 1.10072 0
M  V30 7816 C 688.563 0.886857 1.82381 0
M  V30 7817 C 688.896 -0.58576 1.85155 0
M  V30 7818 O 688.171 -1.43317 1.31493 0
M  V30 7819 C 688.454 1.46703 3.28862 0
M  V30 7820 C 688.307 3.00829 3.34398 0
M  V30 7821 C 689.626 1.12971 4.25353 0
M  V30 7822 H 686.745 0.32362 0.662148 0
M  V30 7823 H 689.387 1.39513 1.28982 0
M  V30 7824 H 687.537 1.03476 3.74466 0
M  V30 7825 H 689.209 3.52764 2.97247 0
M  V30 7826 H 687.452 3.36164 2.74183 0
M  V30 7827 H 688.123 3.36519 4.3756 0
M  V30 7828 H 690.599 1.50313 3.88001 0
M  V30 7829 H 689.475 1.56223 5.26199 0
M  V30 7830 H 689.736 0.0424452 4.4208 0
M  V30 7831 N 688.795 -1.27931 0.920396 0
M  V30 7832 C 689.728 -2.2537 0.358285 0
M  V30 7833 C 690.706 -1.53328 -0.541242 0
M  V30 7834 O 691.89 -1.82196 -0.483399 0
M  V30 7835 C 689.017 -3.35178 -0.487193 0
M  V30 7836 C 688.063 -4.25079 0.347881 0
M  V30 7837 S 688.896 -5.05792 1.75883 0
M  V30 7838 C 690.052 -6.19089 0.920832 0
M  V30 7839 H 690.285 -2.72701 1.18413 0
M  V30 7840 H 687.818 -1.36474 0.722088 0
M  V30 7841 H 689.776 -3.98895 -0.96916 0
M  V30 7842 H 688.437 -2.865 -1.28749 0
M  V30 7843 H 687.63 -5.03113 -0.298912 0
M  V30 7844 H 687.232 -3.66119 0.763748 0
M  V30 7845 H 689.524 -6.77326 0.15349 0
M  V30 7846 H 690.467 -6.8803 1.67394 0
M  V30 7847 H 690.875 -5.62573 0.466069 0
M  V30 7848 N 690.273 -0.685099 -1.4193 0
M  V30 7849 C 691.498 -0.218842 -2.06242 0
M  V30 7850 C 691.923 1.11923 -1.51178 0
M  V30 7851 O 691.281 1.69837 -0.634446 0
M  V30 7852 C 691.329 -0.175592 -3.60172 0
M  V30 7853 O 690.433 0.852776 -4.03487 0
M  V30 7854 H 689.774 -0.109531 -0.654904 0
M  V30 7855 H 692.304 -0.937013 -1.81882 0
M  V30 7856 H 692.314 -0.00291151 -4.08 0
M  V30 7857 H 690.989 -1.15222 -3.99621 0
M  V30 7858 H 689.566 0.650301 -3.67186 0
M  V30 7859 N 691.751 1.51645 -0.429126 0
M  V30 7860 C 692.714 2.26116 0.374726 0
M  V30 7861 C 693.714 1.29242 0.956714 0
M  V30 7862 O 694.904 1.53022 0.832452 0
M  V30 7863 C 692.036 3.04669 1.52937 0
M  V30 7864 H 693.229 2.9861 -0.277818 0
M  V30 7865 H 690.782 1.55236 -0.182097 0
M  V30 7866 H 691.517 2.36571 2.21821 0
M  V30 7867 H 691.302 3.75814 1.11833 0
M  V30 7868 H 692.792 3.61102 2.09751 0
M  V30 7869 N 693.229 0.160201 1.56784 0
M  V30 7870 C 694.64 -0.358417 1.83227 0
M  V30 7871 C 694.991 -1.63831 1.07952 0
M  V30 7872 O 694.116 -2.13885 0.328995 0
M  V30 7873 C 694.711 -0.657058 3.32368 0
M  V30 7874 C 693.27 -1.12015 3.59346 0
M  V30 7875 C 692.417 -0.15015 2.76893 0
M  V30 7876 H 695.368 0.384669 1.53967 0
M  V30 7877 H 695.389 -1.51033 3.49241 0
M  V30 7878 H 694.901 0.274647 3.87127 0
M  V30 7879 H 693.002 -2.06734 3.09987 0
M  V30 7880 H 693.115 -1.037 4.67743 0
M  V30 7881 H 691.479 -0.645361 2.46388 0
M  V30 7882 H 692.262 0.775379 3.34429 0
M  V30 7883 N 694.707 -1.5719 -0.113559 0
M  V30 7884 C 696.118 -1.74259 -0.670116 0
M  V30 7885 C 696.469 -0.779694 -1.80042 0
M  V30 7886 O 695.594 0.0461353 -2.16351 0
M  V30 7887 C 696.189 -3.15981 -1.22236 0
M  V30 7888 C 694.748 -3.34537 -1.72516 0
M  V30 7889 C 693.895 -2.70116 -0.627098 0
M  V30 7890 H 696.846 -1.58301 0.112396 0
M  V30 7891 H 696.867 -3.17832 -2.09197 0
M  V30 7892 H 696.379 -3.86038 -0.39949 0
M  V30 7893 H 694.48 -2.6953 -2.57263 0
M  V30 7894 H 694.593 -4.42737 -1.83086 0
M  V30 7895 H 692.957 -2.31501 -1.06204 0
M  V30 7896 H 693.74 -3.42802 0.184889 0
M  V30 7897 N 696.185 0.383891 -1.52853 0
M  V30 7898 C 697.596 0.961591 -1.60032 0
M  V30 7899 C 697.947 1.90819 -0.456333 0
M  V30 7900 O 697.072 2.12288 0.419873 0
M  V30 7901 C 697.667 1.75078 -2.90057 0
M  V30 7902 C 696.226 2.2781 -2.99632 0
M  V30 7903 C 695.373 1.08512 -2.55187 0
M  V30 7904 H 698.324 0.163269 -1.57858 0
M  V30 7905 H 698.345 2.61046 -2.7683 0
M  V30 7906 H 697.857 1.06157 -3.73299 0
M  V30 7907 H 695.958 3.00028 -2.20939 0
M  V30 7908 H 696.071 2.56947 -4.0437 0
M  V30 7909 H 694.435 1.44667 -2.09627 0
M  V30 7910 H 695.218 0.41118 -3.40829 0
M  V30 7911 N 697.663 1.43903 0.642637 0
M  V30 7912 C 699.074 1.40975 1.22404 0
M  V30 7913 C 699.425 0.1192 1.95838 0
M  V30 7914 O 698.55 -0.780939 2.01818 0
M  V30 7915 C 699.145 2.5538 2.22636 0
M  V30 7916 C 697.704 2.55684 2.76229 0
M  V30 7917 C 696.851 2.32556 1.51039 0
M  V30 7918 H 699.802 1.5265 0.434006 0
M  V30 7919 H 699.823 2.27474 3.05017 0
M  V30 7920 H 699.335 3.49294 1.69161 0
M  V30 7921 H 697.436 1.65679 3.33738 0
M  V30 7922 H 697.549 3.53799 3.23053 0
M  V30 7923 H 695.913 1.81427 1.78764 0
M  V30 7924 H 696.696 3.28569 0.99484 0
M  V30 7925 N 699.141 -0.881989 1.30609 0
M  V30 7926 C 700.552 -1.44956 1.17664 0
M  V30 7927 C 700.903 -1.94945 -0.221531 0
M  V30 7928 O 700.028 -1.85257 -1.11844 0
M  V30 7929 C 700.623 -2.63474 2.12995 0
M  V30 7930 C 699.182 -3.16312 2.04019 0
M  V30 7931 C 698.329 -1.89008 2.02907 0
M  V30 7932 H 701.28 -0.691645 1.42835 0
M  V30 7933 H 701.301 -3.39783 1.71253 0
M  V30 7934 H 700.813 -2.2706 3.14746 0
M  V30 7935 H 698.914 -3.57376 1.0542 0
M  V30 7936 H 699.027 -3.79409 2.9255 0
M  V30 7937 H 697.391 -2.07465 1.47751 0
M  V30 7938 H 698.174 -1.54848 3.06394 0
M  V30 7939 N 700.619 -1.13374 -1.09472 0
M  V30 7940 C 702.03 -0.90801 -1.63132 0
M  V30 7941 C 702.381 0.555576 -1.8817 0
M  V30 7942 O 701.506 1.42218 -1.63104 0
M  V30 7943 C 702.101 -1.64182 -2.96361 0
M  V30 7944 C 700.66 -1.46197 -3.46848 0
M  V30 7945 C 699.807 -1.67134 -2.21273 0
M  V30 7946 H 702.758 -1.2871 -0.928411 0
M  V30 7947 H 702.779 -1.09863 -3.64294 0
M  V30 7948 H 702.291 -2.707 -2.78106 0
M  V30 7949 H 700.392 -0.419788 -3.70228 0
M  V30 7950 H 700.505 -2.22472 -4.24315 0
M  V30 7951 H 698.869 -1.09616 -2.29905 0
M  V30 7952 H 699.652 -2.74971 -2.05538 0
M  V30 7953 N 702.098 1.27442 -0.927168 0
M  V30 7954 C 703.509 1.76385 -0.611979 0
M  V30 7955 C 703.86 1.75715 0.872853 0
M  V30 7956 O 702.985 1.3603 1.683 0
M  V30 7957 C 703.58 3.20303 -1.10414 0
M  V30 7958 C 702.139 3.66916 -0.839628 0
M  V30 7959 C 701.286 2.46859 -1.26317 0
M  V30 7960 H 704.237 1.13716 -1.107 0
M  V30 7961 H 704.258 3.77811 -0.451578 0
M  V30 7962 H 703.77 3.20759 -2.18484 0
M  V30 7963 H 701.871 3.71906 0.227292 0
M  V30 7964 H 701.984 4.56415 -1.45679 0
M  V30 7965 H 700.348 2.45407 -0.681723 0
M  V30 7966 H 701.131 2.50025 -2.3525 0
M  V30 7967 N 703.576 0.692616 1.41565 0
M  V30 7968 C 704.987 0.297478 1.84315 0
M  V30 7969 C 705.338 -1.16379 1.57957 0
M  V30 7970 O 704.463 -1.89303 1.0485 0
M  V30 7971 C 705.058 0.533136 3.34579 0
M  V30 7972 C 703.617 0.191944 3.7591 0
M  V30 7973 C 702.764 0.816873 2.64995 0
M  V30 7974 H 705.715 0.893488 1.31158 0
M  V30 7975 H 705.736 -0.209105 3.79925 0
M  V30 7976 H 705.248 1.59674 3.53731 0
M  V30 7977 H 703.349 -0.867512 3.6236 0
M  V30 7978 H 703.462 0.644902 4.7474 0
M  V30 7979 H 701.826 0.246715 2.53502 0
M  V30 7980 H 702.609 1.88429 2.86966 0
M  V30 7981 N 705.054 -1.51416 0.437162 0
M  V30 7982 C 706.3 -2.02386 -0.129555 0
M  V30 7983 C 706.633 -1.32071 -1.42376 0
M  V30 7984 O 705.908 -0.43559 -1.8956 0
M  V30 7985 C 706.191 -3.5841 -0.348487 0
M  V30 7986 C 706.044 -4.39341 0.964352 0
M  V30 7987 C 707.363 -4.25654 -1.11834 0
M  V30 7988 H 704.482 -0.735587 -0.0456109 0
M  V30 7989 H 707.124 -1.81055 0.576124 0
M  V30 7990 H 705.274 -3.76716 -0.949592 0
M  V30 7991 H 706.946 -4.32685 1.59942 0
M  V30 7992 H 705.189 -4.04432 1.56898 0
M  V30 7993 H 705.86 -5.4667 0.765212 0
M  V30 7994 H 708.336 -4.11617 -0.609165 0
M  V30 7995 H 707.212 -5.34704 -1.24029 0
M  V30 7996 H 707.473 -3.86502 -2.14636 0
M  V30 7997 N 706.532 -0.168513 -1.56696 0
M  V30 7998 C 707.781 0.477233 -1.95973 0
M  V30 7999 C 708.094 1.64578 -1.05704 0
M  V30 8000 O 709.3 2.35758 -1.3465 0
M  V30 8001 C 707.756 0.900413 -3.48455 0
M  V30 8002 C 707.364 -0.242382 -4.47344 0
M  V30 8003 C 709.108 1.51474 -3.96555 0
M  V30 8004 C 707.015 0.200272 -5.91061 0
M  V30 8005 H 705.945 0.182061 -0.73169 0
M  V30 8006 H 708.596 -0.256297 -1.81701 0
M  V30 8007 H 706.978 1.68984 -3.58135 0
M  V30 8008 H 708.152 -1.01967 -4.49377 0
M  V30 8009 H 706.467 -0.766484 -4.09285 0
M  V30 8010 H 709.064 1.85792 -5.01384 0
M  V30 8011 H 709.407 2.41163 -3.39332 0
M  V30 8012 H 709.94 0.789802 -3.89881 0
M  V30 8013 H 706.679 -0.661775 -6.52151 0
M  V30 8014 H 706.199 0.942979 -5.92341 0
M  V30 8015 H 707.878 0.645088 -6.43776 0
M  V30 8016 N 708.01 1.57248 0.105221 0
M  V30 8017 C 709.421 1.74612 0.660865 0
M  V30 8018 C 709.772 0.789231 1.79626 0
M  V30 8019 O 708.897 -0.0346611 2.16372 0
M  V30 8020 C 709.492 3.16624 1.20559 0
M  V30 8021 C 708.051 3.35447 1.7074 0
M  V30 8022 C 707.198 2.70445 0.612764 0
M  V30 8023 H 710.149 1.5824 -0.12079 0
M  V30 8024 H 710.17 3.18937 2.07508 0
M  V30 8025 H 709.682 3.86245 0.379012 0
M  V30 8026 H 707.783 2.7089 2.5583 0
M  V30 8027 H 707.896 4.43702 1.80736 0
M  V30 8028 H 706.26 2.32061 1.04975 0
M  V30 8029 H 707.043 3.42699 -0.203066 0
M  V30 8030 N 709.488 -0.375779 1.53054 0
M  V30 8031 C 710.899 -0.95309 1.6054 0
M  V30 8032 C 711.25 -1.90575 0.466446 0
M  V30 8033 O 710.375 -2.12507 -0.408609 0
M  V30 8034 C 710.97 -1.73537 2.90982 0
M  V30 8035 C 709.529 -2.26218 3.00836 0
M  V30 8036 C 708.676 -1.07157 2.55759 0
M  V30 8037 H 711.627 -0.154895 1.57942 0
M  V30 8038 H 711.648 -2.59574 2.78211 0
M  V30 8039 H 711.16 -1.04176 3.73857 0
M  V30 8040 H 709.261 -2.98852 2.22527 0
M  V30 8041 H 709.374 -2.54799 4.05727 0
M  V30 8042 H 707.738 -1.43553 2.10391 0
M  V30 8043 H 708.521 -0.393099 3.41042 0
M  V30 8044 N 710.966 -1.44241 -0.634997 0
M  V30 8045 C 712.194 -1.50296 -1.42193 0
M  V30 8046 C 712.609 -0.12658 -1.88375 0
M  V30 8047 O 711.966 0.86678 -1.60603 0
M  V30 8048 C 712.017 -2.46437 -2.64482 0
M  V30 8049 O 711.738 -3.78724 -2.20226 0
M  V30 8050 C 713.239 -2.61918 -3.57651 0
M  V30 8051 H 710.459 -0.509865 -0.43621 0
M  V30 8052 H 713.003 -1.89167 -0.776921 0
M  V30 8053 H 711.158 -2.10712 -3.25083 0
M  V30 8054 H 711.572 -4.30595 -2.9948 0
M  V30 8055 H 713.046 -3.33225 -4.40074 0
M  V30 8056 H 713.523 -1.67017 -4.06204 0
M  V30 8057 H 714.129 -2.98528 -3.02921 0
M  V30 8058 N 712.444 0.87505 -1.31075 0
M  V30 8059 C 713.354 2.01441 -1.20244 0
M  V30 8060 C 714.37 1.73584 -0.120227 0
M  V30 8061 O 715.546 1.98559 -0.337063 0
M  V30 8062 C 712.611 3.34675 -0.905199 0
M  V30 8063 C 711.672 3.75889 -2.0738 0
M  V30 8064 C 710.905 5.02764 -1.79064 0
M  V30 8065 O 711.128 5.65795 -0.723318 0
M  V30 8066 O 710.062 5.40623 -2.64594 0
M  V30 8067 H 713.888 2.13509 -2.1598 0
M  V30 8068 H 711.473 1.00257 -1.10765 0
M  V30 8069 H 713.355 4.1458 -0.755057 0
M  V30 8070 H 712.03 3.23692 0.0221695 0
M  V30 8071 H 710.937 2.96645 -2.27931 0
M  V30 8072 H 712.27 3.91489 -2.98324 0
M  V30 8073 N 713.922 1.13953 1.08869 0
M  V30 8074 C 714.87 0.817664 2.17754 0
M  V30 8075 C 715.864 -0.202444 1.68186 0
M  V30 8076 O 717.07 -0.0590159 1.79903 0
M  V30 8077 H 713.445 0.246671 0.710392 0
M  V30 8078 H 715.416 1.74401 2.4213 0
M  V30 8079 C 714.165 0.3063 3.46348 0
M  V30 8080 H 713.488 1.08259 3.84864 0
M  V30 8081 H 714.928 0.119584 4.23831 0
M  V30 8082 C 713.387 -0.969158 3.22659 0
M  V30 8083 O 713.917 -2.04386 3.45817 0
M  V30 8084 N 712.123 -0.902516 2.7623 0
M  V30 8085 H 711.67 -0.027801 2.57585 0
M  V30 8086 H 711.628 -1.75649 2.60758 0
M  V30 8087 N 715.4 -1.26948 0.933913 0
M  V30 8088 C 716.31 -2.30366 0.443671 0
M  V30 8089 C 717.326 -1.67284 -0.478745 0
M  V30 8090 O 718.502 -1.98156 -0.360043 0
M  V30 8091 C 715.567 -3.45485 -0.289974 0
M  V30 8092 C 714.628 -4.24069 0.668114 0
M  V30 8093 C 713.861 -5.33691 -0.0306138 0
M  V30 8094 O 714.084 -5.5656 -1.24888 0
M  V30 8095 O 713.018 -5.98441 0.644384 0
M  V30 8096 H 716.844 -2.74349 1.30254 0
M  V30 8097 H 714.429 -1.32012 0.699506 0
M  V30 8098 H 716.311 -4.15486 -0.70353 0
M  V30 8099 H 714.986 -3.03546 -1.12435 0
M  V30 8100 H 713.893 -3.56579 1.13147 0
M  V30 8101 H 715.226 -4.69739 1.46989 0
M  V30 8102 N 716.879 -0.700114 -1.41195 0
M  V30 8103 C 717.829 -0.0144098 -2.27995 0
M  V30 8104 C 718.813 0.748249 -1.42443 0
M  V30 8105 O 720.005 0.622995 -1.65674 0
M  V30 8106 C 717.134 0.917938 -3.308 0
M  V30 8107 C 716.22 0.151286 -4.2383 0
M  V30 8108 N 716.611 -0.85732 -4.98481 0
M  V30 8109 C 714.909 0.386108 -4.44326 0
M  V30 8110 C 715.61 -1.31663 -5.66604 0
M  V30 8111 N 714.586 -0.641689 -5.39799 0
M  V30 8112 H 718.388 -0.787662 -2.83149 0
M  V30 8113 H 715.902 -0.531344 -1.53462 0
M  V30 8114 H 717.899 1.42437 -3.91813 0
M  V30 8115 H 716.559 1.69074 -2.77208 0
M  V30 8116 H 717.57 -1.2377 -5.02893 0
M  V30 8117 H 714.247 1.13644 -4.01735 0
M  V30 8118 H 715.637 -2.15384 -6.36443 0
M  V30 8119 N 718.357 1.51182 -0.445186 0
M  V30 8120 C 719.634 1.9478 0.178965 0
M  V30 8121 C 720.014 1.38428 1.59376 0
M  V30 8122 O 719.362 0.574552 2.21159 0
M  V30 8123 C 719.572 3.48683 0.148711 0
M  V30 8124 C 720.92 4.23152 0.35042 0
M  V30 8125 O 721.944 3.55479 0.226474 0
M  V30 8126 O 720.803 5.4322 0.597893 0
M  V30 8127 H 717.897 0.817387 0.12573 0
M  V30 8128 H 720.443 1.62051 -0.503729 0
M  V30 8129 H 719.215 3.82176 -0.84009 0
M  V30 8130 H 718.838 3.87875 0.873979 0
M  V30 8131 N 719.835 0.176821 1.56605 0
M  V30 8132 C 720.745 -0.763682 2.21822 0
M  V30 8133 C 721.761 -1.24889 1.21156 0
M  V30 8134 O 722.937 -1.29987 1.53836 0
M  V30 8135 C 720.002 -1.97352 2.8505 0
M  V30 8136 C 719.063 -1.53466 4.00932 0
M  V30 8137 C 718.296 -2.68682 4.61135 0
M  V30 8138 O 718.519 -3.85694 4.20234 0
M  V30 8139 O 717.453 -2.42442 5.50913 0
M  V30 8140 H 721.279 -0.238363 3.02763 0
M  V30 8141 H 718.864 -0.0516331 1.49311 0
M  V30 8142 H 720.746 -2.68096 3.25119 0
M  V30 8143 H 719.421 -2.48779 2.07101 0
M  V30 8144 H 718.328 -0.796551 3.65521 0
M  V30 8145 H 719.661 -1.06724 4.8049 0
M  V30 8146 N 721.313 -1.57302 -0.09688 0
M  V30 8147 C 722.263 -1.98369 -1.12399 0
M  V30 8148 C 723.247 -0.861872 -1.3587 0
M  V30 8149 O 724.439 -1.1257 -1.36591 0
M  V30 8150 C 721.568 -2.41017 -2.4447 0
M  V30 8151 C 720.654 -3.59881 -2.24381 0
M  V30 8152 N 721.045 -4.74872 -1.74155 0
M  V30 8153 C 719.343 -3.65943 -2.54954 0
M  V30 8154 C 720.044 -5.56823 -1.68294 0
M  V30 8155 N 719.02 -4.99942 -2.13444 0
M  V30 8156 H 722.822 -2.84726 -0.728575 0
M  V30 8157 H 720.336 -1.59523 -0.304332 0
M  V30 8158 H 722.333 -2.68665 -3.18786 0
M  V30 8159 H 720.993 -1.56036 -2.84751 0
M  V30 8160 H 722.004 -4.97657 -1.43379 0
M  V30 8161 H 718.681 -2.9162 -2.98771 0
M  V30 8162 H 720.071 -6.59099 -1.30528 0
M  V30 8163 N 722.791 0.367657 -1.53252 0
M  V30 8164 C 724.068 1.12606 -1.59935 0
M  V30 8165 C 724.448 2.07167 -0.405606 0
M  V30 8166 O 723.796 2.20364 0.604323 0
M  V30 8167 C 724.006 1.86699 -2.94863 0
M  V30 8168 C 725.354 2.41306 -3.49366 0
M  V30 8169 O 726.378 1.96828 -2.96879 0
M  V30 8170 O 725.237 3.2261 -4.41118 0
M  V30 8171 H 722.331 0.516438 -0.645926 0
M  V30 8172 H 724.877 0.371088 -1.65593 0
M  V30 8173 H 723.649 1.17674 -3.73187 0
M  V30 8174 H 723.272 2.6911 -2.92687 0
M  V30 8175 N 724.269 1.44576 0.627338 0
M  V30 8176 C 725.179 1.54232 1.76776 0
M  V30 8177 C 726.195 0.427782 1.6866 0
M  V30 8178 O 727.371 0.685671 1.89369 0
M  V30 8179 C 724.436 1.48738 3.13174 0
M  V30 8180 C 723.497 2.71074 3.32893 0
M  V30 8181 C 722.73 2.65832 4.62784 0
M  V30 8182 O 722.953 1.72048 5.43834 0
M  V30 8183 O 721.887 3.56742 4.84787 0
M  V30 8184 H 725.713 2.50586 1.71582 0
M  V30 8185 H 723.298 1.26865 0.789028 0
M  V30 8186 H 725.18 1.48211 3.94476 0
M  V30 8187 H 723.855 0.555292 3.18902 0
M  V30 8188 H 722.762 2.77168 2.51254 0
M  V30 8189 H 724.095 3.63342 3.32029 0
M  V30 8190 N 725.747 -0.868086 1.31537 0
M  V30 8191 C 726.695 -1.99688 1.1928 0
M  V30 8192 C 727.689 -1.69101 0.100656 0
M  V30 8193 O 728.895 -1.78073 0.262677 0
M  V30 8194 H 725.27 -0.655032 0.369374 0
M  V30 8195 H 727.241 -2.07157 2.14776 0
M  V30 8196 C 725.99 -3.35338 0.918892 0
M  V30 8197 H 725.313 -3.59396 1.75142 0
M  V30 8198 H 726.753 -4.14909 0.873311 0
M  V30 8199 C 725.212 -3.34769 -0.378366 0
M  V30 8200 O 725.742 -3.76716 -1.39456 0
M  V30 8201 N 723.948 -2.87895 -0.39557 0
M  V30 8202 H 723.495 -2.53954 0.431889 0
M  V30 8203 H 723.453 -2.87897 -1.26344 0
M  V30 8204 N 727.225 -1.14528 -1.08264 0
M  V30 8205 C 728.173 -0.829201 -2.17318 0
M  V30 8206 C 729.167 0.193521 -1.68291 0
M  V30 8207 O 730.373 0.0494744 -1.79932 0
M  V30 8208 H 726.748 -0.250435 -0.709074 0
M  V30 8209 H 728.719 -1.75683 -2.41201 0
M  V30 8210 C 727.468 -0.324663 -3.46181 0
M  V30 8211 H 726.791 -1.10299 -3.84284 0
M  V30 8212 H 728.231 -0.142059 -4.23762 0
M  V30 8213 C 726.69 0.952033 -3.23169 0
M  V30 8214 O 727.22 2.02549 -3.46896 0
M  V30 8215 N 725.426 0.887854 -2.76705 0
M  V30 8216 H 724.973 0.0141402 -2.57596 0
M  V30 8217 H 724.931 1.74263 -2.61686 0
M  V30 8218 N 728.703 1.26451 -0.940633 0
M  V30 8219 C 729.666 2.24651 -0.454378 0
M  V30 8220 C 730.666 1.54826 0.434222 0
M  V30 8221 O 731.856 1.72628 0.233477 0
M  V30 8222 C 728.988 3.39148 0.345192 0
M  V30 8223 H 730.181 2.69182 -1.32217 0
M  V30 8224 H 727.734 1.38596 -0.722547 0
M  V30 8225 H 728.469 3.00018 1.23125 0
M  V30 8226 H 728.254 3.9101 -0.292107 0
M  V30 8227 H 729.744 4.12103 0.675341 0
M  V30 8228 N 730.181 0.707592 1.40822 0
M  V30 8229 C 731.091 0.0507246 2.34545 0
M  V30 8230 C 732.107 -0.752727 1.56876 0
M  V30 8231 O 733.283 -0.687524 1.89302 0
M  V30 8232 C 730.348 -0.865731 3.35717 0
M  V30 8233 C 729.409 -0.0531313 4.29267 0
M  V30 8234 C 728.642 -0.925939 5.25606 0
M  V30 8235 O 728.865 -2.16531 5.27703 0
M  V30 8236 O 727.799 -0.369194 6.00767 0
M  V30 8237 H 731.625 0.823587 2.9232 0
M  V30 8238 H 729.21 0.46801 1.4188 0
M  V30 8239 H 731.092 -1.39091 3.97783 0
M  V30 8240 H 729.767 -1.61788 2.80368 0
M  V30 8241 H 728.674 0.516931 3.70511 0
M  V30 8242 H 730.007 0.660617 4.87747 0
M  V30 8243 N 731.66 -1.50943 0.453197 0
M  V30 8244 C 732.623 -2.26684 -0.338705 0
M  V30 8245 C 733.623 -1.30748 -0.936032 0
M  V30 8246 O 734.813 -1.54327 -0.808002 0
M  V30 8247 C 731.945 -3.07063 -1.48071 0
M  V30 8248 H 733.138 -2.98131 0.325289 0
M  V30 8249 H 730.691 -1.54926 0.206771 0
M  V30 8250 H 731.426 -2.4007 -2.18029 0
M  V30 8251 H 731.211 -3.77545 -1.0584 0
M  V30 8252 H 732.701 -3.64393 -2.0398 0
M  V30 8253 N 733.138 -0.185124 -1.56509 0
M  V30 8254 C 734.363 0.465278 -2.02114 0
M  V30 8255 C 734.788 1.55083 -1.06447 0
M  V30 8256 O 734.146 1.81241 -0.0462852 0
M  V30 8257 C 734.194 1.00784 -3.46229 0
M  V30 8258 O 733.298 2.12123 -3.53663 0
M  V30 8259 H 732.639 0.109891 -0.654843 0
M  V30 8260 H 735.169 -0.293072 -2.0249 0
M  V30 8261 H 735.179 1.32697 -3.85818 0
M  V30 8262 H 733.854 0.213113 -4.15354 0
M  V30 8263 H 732.431 1.8115 -3.25943 0
M  V30 8264 N 734.616 1.57351 0.0885366 0
M  V30 8265 C 735.579 2.01557 1.09121 0
M  V30 8266 C 736.579 0.910052 1.3257 0
M  V30 8267 O 737.769 1.17537 1.28572 0
M  V30 8268 C 734.901 2.38189 2.43883 0
M  V30 8269 H 736.094 2.91361 0.710562 0
M  V30 8270 H 733.647 1.52694 0.333779 0
M  V30 8271 H 734.382 1.5136 2.86811 0
M  V30 8272 H 734.167 3.18846 2.28209 0
M  V30 8273 H 735.657 2.73025 3.15986 0
M  V30 8274 N 736.094 -0.359525 1.53444 0
M  V30 8275 C 737.004 -1.46445 1.83278 0
M  V30 8276 C 738.02 -1.5833 0.721629 0
M  V30 8277 O 739.196 -1.7411 1.01231 0
M  V30 8278 C 736.261 -2.81638 2.02191 0
M  V30 8279 C 735.322 -2.7923 3.26082 0
M  V30 8280 C 734.555 -4.07974 3.44082 0
M  V30 8281 O 734.778 -5.04447 2.66251 0
M  V30 8282 O 733.712 -4.13417 4.37458 0
M  V30 8283 H 737.538 -1.24156 2.77162 0
M  V30 8284 H 735.123 -0.550201 1.389 0
M  V30 8285 H 737.005 -3.61732 2.16167 0
M  V30 8286 H 735.68 -3.03892 1.11496 0
M  V30 8287 H 734.587 -1.97813 3.17523 0
M  V30 8288 H 735.92 -2.6193 4.16718 0
M  V30 8289 N 737.572 -1.44907 -0.619662 0
M  V30 8290 C 738.502 -1.55488 -1.742 0
M  V30 8291 C 739.483 -0.407143 -1.65156 0
M  V30 8292 O 740.668 -0.628743 -1.8374 0
M  V30 8293 C 737.798 -1.5097 -3.1277 0
M  V30 8294 C 736.752 -2.64337 -3.36615 0
M  V30 8295 C 736.078 -2.44872 -4.75333 0
M  V30 8296 C 737.378 -4.06423 -3.28051 0
M  V30 8297 H 739.072 -2.49432 -1.65602 0
M  V30 8298 H 736.618 -1.20047 -0.795281 0
M  V30 8299 H 738.571 -1.56971 -3.91073 0
M  V30 8300 H 737.295 -0.535486 -3.2218 0
M  V30 8301 H 735.954 -2.57744 -2.60698 0
M  V30 8302 H 735.602 -1.45617 -4.81461 0
M  V30 8303 H 735.302 -3.20888 -4.92244 0
M  V30 8304 H 736.826 -2.52709 -5.55851 0
M  V30 8305 H 738.24 -4.14324 -3.96243 0
M  V30 8306 H 736.637 -4.82733 -3.56495 0
M  V30 8307 H 737.707 -4.29183 -2.25676 0
M  V30 8308 N 739.05 0.861098 -1.31996 0
M  V30 8309 C 740.275 1.65264 -1.2531 0
M  V30 8310 C 740.7 1.87265 0.177007 0
M  V30 8311 O 740.058 1.4208 1.12619 0
M  V30 8312 C 740.106 2.99284 -2.0115 0
M  V30 8313 O 739.21 3.89508 -1.3549 0
M  V30 8314 H 738.551 0.50409 -0.432192 0
M  V30 8315 H 741.081 1.07297 -1.74208 0
M  V30 8316 H 741.091 3.49154 -2.11081 0
M  V30 8317 H 739.766 2.82591 -3.05148 0
M  V30 8318 H 738.343 3.47966 -1.34066 0
M  V30 8319 N 740.528 1.15101 1.07655 0
M  V30 8320 C 741.476 0.840714 2.16875 0
M  V30 8321 C 742.47 -0.184594 1.68391 0
M  V30 8322 O 743.676 -0.0399315 1.79956 0
M  V30 8323 H 740.051 0.254192 0.707736 0
M  V30 8324 H 742.022 1.76959 2.40266 0
M  V30 8325 C 740.771 0.343018 3.46004 0
M  V30 8326 H 740.094 1.12335 3.83694 0
M  V30 8327 H 741.534 0.16453 4.23681 0
M  V30 8328 C 739.993 -0.934881 3.23669 0
M  V30 8329 O 740.523 -2.00706 3.47965 0
M  V30 8330 N 738.729 -0.873167 2.77172 0
M  V30 8331 H 738.276 -0.000479072 2.576 0
M  V30 8332 H 738.234 -1.72873 2.62607 0
M  V30 8333 N 742.006 -1.2595 0.947325 0
M  V30 8334 C 742.916 -2.29883 0.468079 0
M  V30 8335 C 743.932 -1.67783 -0.460975 0
M  V30 8336 O 745.108 -1.98526 -0.339006 0
M  V30 8337 C 742.173 -3.45773 -0.253315 0
M  V30 8338 C 741.234 -4.23337 0.713054 0
M  V30 8339 C 740.467 -5.33694 0.025993 0
M  V30 8340 O 740.69 -5.57853 -1.18978 0
M  V30 8341 O 739.624 -5.97724 0.70782 0
M  V30 8342 H 743.45 -2.72952 1.33156 0
M  V30 8343 H 741.035 -1.31263 0.713468 0
M  V30 8344 H 742.917 -4.16209 -0.659423 0
M  V30 8345 H 741.592 -3.04721 -1.09209 0
M  V30 8346 H 740.499 -3.55359 1.16923 0
M  V30 8347 H 741.832 -4.68154 1.51963 0
M  V30 8348 N 743.484 -0.715051 -1.40445 0
M  V30 8349 C 744.732 -0.253826 -2.005 0
M  V30 8350 C 745.053 1.15681 -1.5698 0
M  V30 8351 O 744.323 1.78414 -0.809027 0
M  V30 8352 H 742.903 -0.0908537 -0.741454 0
M  V30 8353 H 745.565 -0.920561 -1.7179 0
M  V30 8354 H 744.661 -0.286499 -3.10782 0
M  V30 8355 N 744.962 1.50701 -0.461195 0
M  V30 8356 C 746.208 2.02566 0.0973411 0
M  V30 8357 C 746.541 1.3432 1.40257 0
M  V30 8358 O 745.816 0.465692 1.88843 0
M  V30 8359 C 746.099 3.58919 0.291423 0
M  V30 8360 C 745.952 4.37751 -1.03413 0
M  V30 8361 C 747.271 4.27379 1.05048 0
M  V30 8362 H 744.39 0.73622 0.0339026 0
M  V30 8363 H 747.032 1.80115 -0.604855 0
M  V30 8364 H 745.182 3.78179 0.889539 0
M  V30 8365 H 746.854 4.30085 -1.66806 0
M  V30 8366 H 745.097 4.01885 -1.63313 0
M  V30 8367 H 745.768 5.45384 -0.852085 0
M  V30 8368 H 748.244 4.12534 0.543603 0
M  V30 8369 H 747.12 5.36609 1.15506 0
M  V30 8370 H 747.381 3.89868 2.0846 0
M  V30 8371 N 746.441 0.193421 1.56409 0
M  V30 8372 C 747.374 -0.767384 2.1491 0
M  V30 8373 C 748.352 -1.21075 1.08534 0
M  V30 8374 O 749.536 -1.29856 1.36637 0
M  V30 8375 C 746.663 -2.03615 2.70663 0
M  V30 8376 C 745.709 -1.73505 3.89613 0
M  V30 8377 S 746.542 -0.884645 5.28142 0
M  V30 8378 C 747.698 -2.1636 5.87315 0
M  V30 8379 H 747.931 -0.270053 2.96071 0
M  V30 8380 H 745.464 -0.0215546 1.54385 0
M  V30 8381 H 747.422 -2.7648 3.03429 0
M  V30 8382 H 746.083 -2.50461 1.89547 0
M  V30 8383 H 745.276 -2.67701 4.27027 0
M  V30 8384 H 744.878 -1.08723 3.57848 0
M  V30 8385 H 747.17 -3.11629 6.01576 0
M  V30 8386 H 748.113 -1.8338 6.83943 0
M  V30 8387 H 748.521 -2.29129 5.15907 0
M  V30 8388 N 747.919 -1.57396 -0.0801906 0
M  V30 8389 C 748.867 -2.04136 -1.11495 0
M  V30 8390 C 749.861 -0.945137 -1.40583 0
M  V30 8391 O 751.067 -1.13028 -1.40088 0
M  V30 8392 H 747.442 -0.65076 -0.37685 0
M  V30 8393 H 749.413 -2.90205 -0.694526 0
M  V30 8394 C 748.162 -2.49399 -2.42272 0
M  V30 8395 H 747.485 -3.33339 -2.20737 0
M  V30 8396 H 748.925 -2.85864 -3.13142 0
M  V30 8397 C 747.384 -1.37341 -3.07635 0
M  V30 8398 O 747.914 -0.710829 -3.95361 0
M  V30 8399 N 746.12 -1.12064 -2.68123 0
M  V30 8400 H 745.667 -1.66126 -1.96875 0
M  V30 8401 H 745.625 -0.372916 -3.12181 0
M  V30 8402 N 749.397 0.351382 -1.53633 0
M  V30 8403 C 750.347 1.4316 -1.77452 0
M  V30 8404 C 751.331 1.48076 -0.62946 0
M  V30 8405 O 752.523 1.53078 -0.888599 0
M  V30 8406 C 749.652 2.80409 -1.98055 0
M  V30 8407 C 748.738 2.79915 -3.18604 0
M  V30 8408 N 749.129 2.49057 -4.40232 0
M  V30 8409 C 747.427 3.11067 -3.19614 0
M  V30 8410 C 748.128 2.566 -5.22045 0
M  V30 8411 N 747.104 2.919 -4.5858 0
M  V30 8412 H 750.906 1.18188 -2.69089 0
M  V30 8413 H 748.42 0.559684 -1.52451 0
M  V30 8414 H 750.417 3.58231 -2.13251 0
M  V30 8415 H 749.077 3.06334 -1.07655 0
M  V30 8416 H 750.088 2.22395 -4.67719 0
M  V30 8417 H 746.765 3.42215 -2.39154 0
M  V30 8418 H 748.155 2.35968 -6.29101 0
M  V30 8419 N 750.875 1.45233 0.611969 0
M  V30 8420 C 752.291 1.29542 0.932251 0
M  V30 8421 C 752.491 0.24523 2.00002 0
M  V30 8422 O 751.547 -0.362333 2.49887 0
M  V30 8423 C 752.86 2.67301 1.37733 0
M  V30 8424 C 754.408 2.75163 1.49178 0
M  V30 8425 C 754.883 4.13437 1.97064 0
M  V30 8426 N 756.374 4.15709 2.04304 0
M  V30 8427 C 757.109 5.19566 2.42568 0
M  V30 8428 N 756.605 6.33771 2.79832 0
M  V30 8429 N 758.398 5.06923 2.42869 0
M  V30 8430 H 750.549 2.12192 -0.0938679 0
M  V30 8431 H 752.812 0.947775 0.0206569 0
M  V30 8432 H 752.518 3.45318 0.666951 0
M  V30 8433 H 752.392 2.95472 2.3447 0
M  V30 8434 H 754.779 1.97453 2.19309 0
M  V30 8435 H 754.86 2.50712 0.507674 0
M  V30 8436 H 754.504 4.91631 1.27521 0
M  V30 8437 H 754.434 4.35277 2.9638 0
M  V30 8438 H 756.925 3.33293 1.78113 0
M  V30 8439 H 757.238 7.08815 3.07898 0
M  V30 8440 H 755.583 6.37179 2.77538 0
M  V30 8441 H 758.774 4.1675 2.1316 0
M  V30 8442 H 758.947 5.87981 2.72364 0
M  V30 8443 N 752.353 -0.854086 1.3245 0
M  V30 8444 C 753.578 -1.64597 1.26185 0
M  V30 8445 C 754.003 -1.87357 -0.167074 0
M  V30 8446 O 753.361 -1.42675 -1.11864 0
M  V30 8447 C 753.409 -2.98213 2.02734 0
M  V30 8448 O 752.513 -3.88784 1.37554 0
M  V30 8449 H 751.854 -0.50179 0.434859 0
M  V30 8450 H 754.384 -1.06372 1.74775 0
M  V30 8451 H 754.394 -3.4803 2.1293 0
M  V30 8452 H 753.069 -2.80969 3.06642 0
M  V30 8453 H 751.646 -3.4725 1.3591 0
M  V30 8454 N 753.831 -1.1567 -1.07043 0
M  V30 8455 C 754.741 -0.870435 -2.17855 0
M  V30 8456 C 755.757 0.154452 -1.73313 0
M  V30 8457 O 756.933 -0.0203759 -2.0139 0
M  V30 8458 C 753.998 -0.367219 -3.4475 0
M  V30 8459 C 753.059 -1.45639 -4.03841 0
M  V30 8460 C 752.292 -0.977092 -5.2468 0
M  V30 8461 O 752.515 0.176127 -5.70128 0
M  V30 8462 O 751.449 -1.76215 -5.75527 0
M  V30 8463 H 755.275 -1.79687 -2.44839 0
M  V30 8464 H 752.86 -0.936064 -1.1644 0
M  V30 8465 H 754.742 -0.0931947 -4.21297 0
M  V30 8466 H 753.417 0.53131 -3.1931 0
M  V30 8467 H 752.324 -1.78406 -3.28819 0
M  V30 8468 H 753.657 -2.32995 -4.3356 0
M  V30 8469 N 755.309 1.25446 -0.953992 0
M  V30 8470 C 756.219 2.29632 -0.480264 0
M  V30 8471 C 757.235 1.68025 0.452071 0
M  V30 8472 O 758.411 1.98703 0.328472 0
M  V30 8473 C 755.476 3.45903 0.234974 0
M  V30 8474 C 754.537 4.22953 -0.735495 0
M  V30 8475 C 753.77 5.33672 -0.0542957 0
M  V30 8476 O 753.993 5.58477 1.16018 0
M  V30 8477 O 752.927 5.9734 -0.739509 0
M  V30 8478 H 756.753 2.72242 -1.34602 0
M  V30 8479 H 754.338 1.30883 -0.720419 0
M  V30 8480 H 756.22 4.16552 0.637341 0
M  V30 8481 H 754.895 3.05296 1.07592 0
M  V30 8482 H 753.802 3.54734 -1.18806 0
M  V30 8483 H 755.135 4.67341 -1.54444 0
M  V30 8484 N 756.787 0.722489 1.40064 0
M  V30 8485 C 757.697 0.0755984 2.34478 0
M  V30 8486 C 758.713 -0.736046 1.57665 0
M  V30 8487 O 759.889 -0.667407 1.9002 0
M  V30 8488 C 756.954 -0.830075 3.36616 0
M  V30 8489 C 756.015 -0.00759884 4.29299 0
M  V30 8490 C 755.248 -0.870139 5.26559 0
M  V30 8491 O 755.471 -2.10921 5.2997 0
M  V30 8492 O 754.405 -0.305454 6.01124 0
M  V30 8493 H 758.231 0.854545 2.9143 0
M  V30 8494 H 755.816 0.483032 1.41376 0
M  V30 8495 H 757.698 -1.34864 3.99236 0
M  V30 8496 H 756.373 -1.58805 2.82069 0
M  V30 8497 H 755.28 0.556199 3.69942 0
M  V30 8498 H 756.613 0.712312 4.87018 0
M  V30 8499 N 758.265 -1.50454 0.469181 0
M  V30 8500 C 759.681 -1.59124 0.123226 0
M  V30 8501 C 759.881 -1.47749 -1.37013 0
M  V30 8502 O 758.937 -1.335 -2.14322 0
M  V30 8503 C 760.25 -2.93101 0.67172 0
M  V30 8504 C 761.798 -3.06491 0.634978 0
M  V30 8505 C 762.273 -4.43041 1.16098 0
M  V30 8506 N 763.764 -4.49448 1.12031 0
M  V30 8507 C 764.499 -5.53491 1.49784 0
M  V30 8508 N 763.995 -6.64798 1.94976 0
M  V30 8509 N 765.788 -5.44025 1.41399 0
M  V30 8510 H 757.939 -1.56091 1.44046 0
M  V30 8511 H 760.202 -0.737564 0.59557 0
M  V30 8512 H 759.908 -3.06895 1.7178 0
M  V30 8513 H 759.782 -3.77027 0.114222 0
M  V30 8514 H 762.169 -2.92346 -0.402187 0
M  V30 8515 H 762.25 -2.24328 1.22926 0
M  V30 8516 H 761.894 -4.57935 2.19677 0
M  V30 8517 H 761.824 -5.23794 0.542939 0
M  V30 8518 H 764.315 -3.69575 0.788828 0
M  V30 8519 H 764.628 -7.40246 2.21936 0
M  V30 8520 H 762.973 -6.65923 1.98927 0
M  V30 8521 H 766.164 -4.55955 1.05935 0
M  V30 8522 H 766.337 -6.2499 1.71147 0
M  V30 8523 N 759.743 -0.201713 -1.56304 0
M  V30 8524 C 760.989 0.435952 -1.98059 0
M  V30 8525 C 761.322 1.60811 -1.08873 0
M  V30 8526 O 760.597 1.9398 -0.142128 0
M  V30 8527 C 760.88 0.889706 -3.48936 0
M  V30 8528 C 760.733 -0.284725 -4.48898 0
M  V30 8529 C 762.052 1.7529 -4.03685 0
M  V30 8530 H 759.171 0.15699 -0.720085 0
M  V30 8531 H 761.813 -0.293965 -1.87712 0
M  V30 8532 H 759.963 1.51166 -3.57884 0
M  V30 8533 H 761.635 -0.922531 -4.51981 0
M  V30 8534 H 759.878 -0.935427 -4.23594 0
M  V30 8535 H 760.549 0.0753865 -5.51949 0
M  V30 8536 H 763.025 1.2283 -3.97558 0
M  V30 8537 H 761.901 2.03933 -5.0961 0
M  V30 8538 H 762.162 2.70939 -3.49348 0
M  V30 8539 N 761.222 1.57436 0.0718424 0
M  V30 8540 C 762.45 1.91474 0.783932 0
M  V30 8541 C 762.865 0.797669 1.71122 0
M  V30 8542 O 762.222 -0.228989 1.81058 0
M  V30 8543 C 762.273 3.25259 1.57761 0
M  V30 8544 O 761.994 4.3267 0.687596 0
M  V30 8545 C 763.495 3.7331 2.3907 0
M  V30 8546 H 760.715 0.632901 0.222885 0
M  V30 8547 H 763.259 2.04457 0.0421262 0
M  V30 8548 H 761.414 3.13804 2.27169 0
M  V30 8549 H 761.828 5.09641 1.23962 0
M  V30 8550 H 763.302 4.69551 2.90216 0
M  V30 8551 H 763.779 3.02318 3.18591 0
M  V30 8552 H 764.385 3.8771 1.74818 0
M  V30 8553 N 762.7 -0.34323 1.53817 0
M  V30 8554 C 763.61 -1.44493 1.84821 0
M  V30 8555 C 764.626 -1.57556 0.738381 0
M  V30 8556 O 765.802 -1.73026 1.03072 0
M  V30 8557 C 762.867 -2.79478 2.05166 0
M  V30 8558 C 761.928 -2.75756 3.29025 0
M  V30 8559 C 761.161 -4.04302 3.4839 0
M  V30 8560 O 761.384 -5.01595 2.71586 0
M  V30 8561 O 760.318 -4.08754 4.41819 0
M  V30 8562 H 764.144 -1.21209 2.78464 0
M  V30 8563 H 761.729 -0.535437 1.39476 0
M  V30 8564 H 763.611 -3.59419 2.19991 0
M  V30 8565 H 762.286 -3.02692 1.14713 0
M  V30 8566 H 761.193 -1.94434 3.19603 0
M  V30 8567 H 762.526 -2.57495 4.19472 0
M  V30 8568 N 764.178 -1.45556 -0.604258 0
M  V30 8569 C 765.406 -1.53278 -1.38973 0
M  V30 8570 C 765.821 -0.166509 -1.88064 0
M  V30 8571 O 765.178 0.832519 -1.62405 0
M  V30 8572 C 765.229 -2.51992 -2.59195 0
M  V30 8573 O 764.95 -3.8331 -2.12143 0
M  V30 8574 C 766.451 -2.69445 -3.52015 0
M  V30 8575 H 763.671 -0.519003 -0.425297 0
M  V30 8576 H 766.215 -1.90773 -0.736621 0
M  V30 8577 H 764.37 -2.17561 -3.2054 0
M  V30 8578 H 764.784 -4.3685 -2.90279 0
M  V30 8579 H 766.258 -3.42485 -4.32907 0
M  V30 8580 H 766.735 -1.75596 -4.0257 0
M  V30 8581 H 767.341 -3.04886 -2.9652 0
M  V30 8582 N 765.656 0.84705 -1.32902 0
M  V30 8583 C 766.588 1.96308 -1.18304 0
M  V30 8584 C 767.601 1.62386 -0.116082 0
M  V30 8585 O 768.79 1.74713 -0.365751 0
M  V30 8586 C 765.89 3.29556 -0.790305 0
M  V30 8587 C 765.063 3.91668 -1.94717 0
M  V30 8588 C 764.122 5.0326 -1.53674 0
M  V30 8589 O 763.148 5.22847 -2.24989 0
M  V30 8590 N 764.35 5.78852 -0.437075 0
M  V30 8591 H 767.115 2.09369 -2.14441 0
M  V30 8592 H 764.676 1.02233 -1.25539 0
M  V30 8593 H 766.668 4.01624 -0.49799 0
M  V30 8594 H 765.238 3.12497 0.0801286 0
M  V30 8595 H 764.458 3.12292 -2.40557 0
M  V30 8596 H 765.746 4.299 -2.72146 0
M  V30 8597 H 765.144 5.65484 0.156316 0
M  V30 8598 H 763.701 6.51479 -0.204399 0
M  V30 8599 N 767.134 1.16236 1.06428 0
M  V30 8600 C 768.081 0.86769 2.13869 0
M  V30 8601 C 769.051 -0.183298 1.65086 0
M  V30 8602 O 770.236 -0.0488002 1.90738 0
M  V30 8603 C 767.376 0.373427 3.43074 0
M  V30 8604 C 766.489 1.48708 4.05598 0
M  V30 8605 C 765.624 0.947977 5.22673 0
M  V30 8606 C 764.663 2.03793 5.77178 0
M  V30 8607 N 763.8 1.51451 6.85571 0
M  V30 8608 H 768.64 1.78781 2.38414 0
M  V30 8609 H 766.177 0.891892 1.16977 0
M  V30 8610 H 768.135 0.0685035 4.17144 0
M  V30 8611 H 766.765 -0.509752 3.1875 0
M  V30 8612 H 765.817 1.908 3.29089 0
M  V30 8613 H 767.129 2.30964 4.42105 0
M  V30 8614 H 766.283 0.596154 6.03764 0
M  V30 8615 H 765.022 0.0947081 4.87608 0
M  V30 8616 H 764.027 2.39847 4.94726 0
M  V30 8617 H 765.252 2.89514 6.14295 0
M  V30 8618 H 763.198 0.683755 6.52427 0
M  V30 8619 H 763.115 2.27325 7.21013 0
M  V30 8620 H 764.383 1.19123 7.70344 0
M  V30 8621 N 768.612 -1.24939 0.960631 0
M  V30 8622 C 769.56 -2.27659 0.47686 0
M  V30 8623 C 770.554 -1.63148 -0.455961 0
M  V30 8624 O 771.76 -1.76911 -0.332029 0
M  V30 8625 H 768.135 -0.739651 0.135723 0
M  V30 8626 H 770.106 -2.65844 1.35534 0
M  V30 8627 C 768.855 -3.46976 -0.224191 0
M  V30 8628 H 768.178 -3.96854 0.484471 0
M  V30 8629 H 769.618 -4.20717 -0.526615 0
M  V30 8630 C 768.077 -3.04159 -1.44876 0
M  V30 8631 O 768.607 -3.10697 -2.54618 0
M  V30 8632 N 766.813 -2.59284 -1.31226 0
M  V30 8633 H 766.36 -2.54164 -0.419361 0
M  V30 8634 H 766.318 -2.31 -2.13275 0
M  V30 8635 N 770.09 -0.729906 -1.39679 0
M  V30 8636 C 771 -0.0880322 -2.34435 0
M  V30 8637 C 772.016 0.727674 -1.58053 0
M  V30 8638 O 773.192 0.657321 -1.90371 0
M  V30 8639 C 770.257 0.812211 -3.37052 0
M  V30 8640 C 769.318 -0.0151681 -4.29297 0
M  V30 8641 C 768.551 0.842202 -5.27013 0
M  V30 8642 O 768.774 2.08108 -5.31081 0
M  V30 8643 O 767.708 0.27357 -6.01278 0
M  V30 8644 H 771.534 -0.869989 -2.90972 0
M  V30 8645 H 769.119 -0.490522 -1.41118 0
M  V30 8646 H 771.001 1.32745 -3.99946 0
M  V30 8647 H 769.676 1.57307 -2.82907 0
M  V30 8648 H 768.583 -0.575811 -3.69642 0
M  V30 8649 H 769.916 -0.738129 -4.86634 0
M  V30 8650 N 771.568 1.50203 -0.477153 0
M  V30 8651 C 772.984 1.59056 -0.131663 0
M  V30 8652 C 773.184 1.48473 1.36227 0
M  V30 8653 O 772.24 1.34635 2.13611 0
M  V30 8654 C 773.553 2.92741 -0.687254 0
M  V30 8655 C 775.101 3.0615 -0.651223 0
M  V30 8656 C 775.576 4.42419 -1.18446 0
M  V30 8657 N 777.067 4.48847 -1.14413 0
M  V30 8658 C 777.802 5.52689 -1.52717 0
M  V30 8659 N 777.298 6.63754 -1.98499 0
M  V30 8660 N 779.091 5.43267 -1.44282 0
M  V30 8661 H 771.242 1.55325 -1.44872 0
M  V30 8662 H 773.505 0.734395 -0.599473 0
M  V30 8663 H 773.211 3.0598 -1.73405 0
M  V30 8664 H 773.085 3.76961 -0.134215 0
M  V30 8665 H 775.472 2.92556 0.386677 0
M  V30 8666 H 775.553 2.23673 -1.24114 0
M  V30 8667 H 775.197 4.56763 -2.22103 0
M  V30 8668 H 775.127 5.23498 -0.570709 0
M  V30 8669 H 777.618 3.69152 -0.808416 0
M  V30 8670 H 777.931 7.39059 -2.25859 0
M  V30 8671 H 776.276 6.64858 -2.02456 0
M  V30 8672 H 779.467 4.55387 -1.08352 0
M  V30 8673 H 779.64 6.24074 -1.74459 0
M  V30 8674 N 773.046 0.209999 1.56195 0
M  V30 8675 C 774.292 -0.425442 1.98287 0
M  V30 8676 C 774.625 -1.60232 1.09724 0
M  V30 8677 O 773.9 -1.93902 0.152414 0
M  V30 8678 C 774.183 -0.871189 3.49403 0
M  V30 8679 C 774.036 0.308527 4.48741 0
M  V30 8680 C 775.355 -1.73146 4.04609 0
M  V30 8681 H 772.474 -0.153169 0.720908 0
M  V30 8682 H 775.116 0.303916 1.87554 0
M  V30 8683 H 773.266 -1.49266 3.58681 0
M  V30 8684 H 774.938 0.946487 4.51486 0
M  V30 8685 H 773.181 0.957878 4.23092 0
M  V30 8686 H 773.852 -0.0461143 5.51981 0
M  V30 8687 H 776.328 -1.2072 3.98203 0
M  V30 8688 H 775.204 -2.01228 5.10684 0
M  V30 8689 H 775.465 -2.69083 3.5078 0
M  V30 8690 N 774.524 -1.57472 -0.0634922 0
M  V30 8691 C 775.471 -2.04258 -1.07457 0
M  V30 8692 C 776.441 -0.924804 -1.37973 0
M  V30 8693 O 777.626 -1.19305 -1.48899 0
M  V30 8694 C 774.766 -2.49832 -2.38071 0
M  V30 8695 C 773.879 -3.75263 -2.14014 0
M  V30 8696 C 773.014 -4.09585 -3.38251 0
M  V30 8697 C 772.053 -5.28032 -3.09594 0
M  V30 8698 N 771.19 -5.57953 -4.26185 0
M  V30 8699 H 776.03 -2.90402 -0.668626 0
M  V30 8700 H 773.567 -1.43609 -0.318572 0
M  V30 8701 H 775.525 -2.7431 -3.14341 0
M  V30 8702 H 774.155 -1.66654 -2.76453 0
M  V30 8703 H 773.207 -3.58075 -1.28399 0
M  V30 8704 H 774.519 -4.61667 -1.88852 0
M  V30 8705 H 773.673 -4.35008 -4.2291 0
M  V30 8706 H 772.412 -3.21765 -3.66495 0
M  V30 8707 H 771.417 -5.02397 -2.23332 0
M  V30 8708 H 772.642 -6.17477 -2.82663 0
M  V30 8709 H 770.588 -4.73092 -4.54445 0
M  V30 8710 H 770.505 -6.38793 -4.04326 0
M  V30 8711 H 771.773 -5.87931 -5.11817 0
M  V30 8712 N 776.003 0.335068 -1.53997 0
M  V30 8713 C 776.95 1.41187 -1.82579 0
M  V30 8714 C 777.92 1.51897 -0.672061 0
M  V30 8715 O 779.105 1.673 -0.917346 0
M  V30 8716 C 776.245 2.77717 -2.0486 0
M  V30 8717 C 775.358 2.7573 -3.32561 0
M  V30 8718 C 774.493 4.04032 -3.44864 0
M  V30 8719 C 773.532 3.96308 -4.66483 0
M  V30 8720 N 772.669 5.16317 -4.75774 0
M  V30 8721 H 777.509 1.16113 -2.74448 0
M  V30 8722 H 775.046 0.562305 -1.35928 0
M  V30 8723 H 777.004 3.57071 -2.15768 0
M  V30 8724 H 775.634 3.01124 -1.16294 0
M  V30 8725 H 774.686 1.88432 -3.3045 0
M  V30 8726 H 775.998 2.65902 -4.22016 0
M  V30 8727 H 775.152 4.91814 -3.55251 0
M  V30 8728 H 773.891 4.16652 -2.53481 0
M  V30 8729 H 772.896 3.06911 -4.56164 0
M  V30 8730 H 774.121 3.85263 -5.5924 0
M  V30 8731 H 772.067 5.29464 -3.87303 0
M  V30 8732 H 771.984 5.08779 -5.59178 0
M  V30 8733 H 773.252 6.05846 -4.9048 0
M  V30 8734 N 777.481 1.45874 0.596531 0
M  V30 8735 C 778.413 1.51408 1.7207 0
M  V30 8736 C 779.426 0.403738 1.57714 0
M  V30 8737 O 780.615 0.671384 1.65393 0
M  V30 8738 C 777.715 1.3652 3.10186 0
M  V30 8739 C 776.888 2.61428 3.50677 0
M  V30 8740 C 775.947 2.40937 4.67799 0
M  V30 8741 O 774.973 3.14602 4.74357 0
M  V30 8742 N 776.175 1.4621 5.61785 0
M  V30 8743 H 778.94 2.48333 1.67782 0
M  V30 8744 H 776.501 1.41755 0.782129 0
M  V30 8745 H 778.493 1.20606 3.86311 0
M  V30 8746 H 777.063 0.478302 3.08919 0
M  V30 8747 H 776.283 2.92381 2.644 0
M  V30 8748 H 777.571 3.44432 3.74491 0
M  V30 8749 H 776.969 0.854382 5.59211 0
M  V30 8750 H 775.526 1.36264 6.37397 0
M  V30 8751 N 778.959 -0.83999 1.33349 0
M  V30 8752 C 779.889 -1.965 1.26135 0
M  V30 8753 C 780.87 -1.69505 0.142152 0
M  V30 8754 O 782.055 -1.91346 0.331743 0
M  V30 8755 C 779.185 -3.32632 0.99866 0
M  V30 8756 C 778.139 -3.74021 2.08068 0
M  V30 8757 C 777.465 -5.07947 1.67014 0
M  V30 8758 C 778.765 -3.87925 3.49731 0
M  V30 8759 H 780.459 -2.02793 2.20262 0
M  V30 8760 H 778.005 -0.974297 1.06035 0
M  V30 8761 H 779.958 -4.10903 0.934696 0
M  V30 8762 H 778.682 -3.26593 0.0217759 0
M  V30 8763 H 777.341 -2.98012 2.13505 0
M  V30 8764 H 776.989 -4.98378 0.680316 0
M  V30 8765 H 776.689 -5.36611 2.39422 0
M  V30 8766 H 778.213 -5.88695 1.62082 0
M  V30 8767 H 779.627 -4.5651 3.46802 0
M  V30 8768 H 778.024 -4.28023 4.20614 0
M  V30 8769 H 779.094 -2.90407 3.88319 0
M  V30 8770 N 780.437 -1.16799 -1.0581 0
M  V30 8771 C 781.369 -0.836774 -2.13379 0
M  V30 8772 C 782.382 0.158116 -1.6203 0
M  V30 8773 O 783.571 -0.0673211 -1.78373 0
M  V30 8774 C 780.671 -0.225959 -3.38146 0
M  V30 8775 C 779.844 -1.26217 -4.18794 0
M  V30 8776 C 778.903 -0.670257 -5.21914 0
M  V30 8777 O 777.929 -1.34042 -5.53192 0
M  V30 8778 N 779.131 0.540683 -5.77977 0
M  V30 8779 H 781.896 -1.76257 -2.42391 0
M  V30 8780 H 779.457 -1.06599 -1.21853 0
M  V30 8781 H 781.449 0.18317 -4.04285 0
M  V30 8782 H 780.019 0.603494 -3.06719 0
M  V30 8783 H 779.239 -1.84729 -3.48237 0
M  V30 8784 H 780.527 -1.9613 -4.69479 0
M  V30 8785 H 779.925 1.10322 -5.54838 0
M  V30 8786 H 778.482 0.891958 -6.45668 0
M  V30 8787 N 781.915 1.24427 -0.967243 0
M  V30 8788 C 782.878 2.23637 -0.501927 0
M  V30 8789 C 783.878 1.55712 0.401283 0
M  V30 8790 O 785.068 1.73085 0.196808 0
M  V30 8791 C 782.2 3.39804 0.273176 0
M  V30 8792 H 783.393 2.66317 -1.37897 0
M  V30 8793 H 780.946 1.37033 -0.751783 0
M  V30 8794 H 781.681 3.02562 1.16733 0
M  V30 8795 H 781.466 3.90303 -0.37498 0
M  V30 8796 H 782.956 4.13443 0.587776 0
M  V30 8797 N 783.393 0.737304 1.3929 0
M  V30 8798 C 784.323 0.113988 2.33222 0
M  V30 8799 C 785.304 -0.721695 1.54031 0
M  V30 8800 O 786.489 -0.666206 1.82415 0
M  V30 8801 C 783.619 -0.792319 3.38141 0
M  V30 8802 C 782.573 -0.0606178 4.27957 0
M  V30 8803 C 781.899 -1.08409 5.23595 0
M  V30 8804 C 783.199 1.09817 5.10625 0
M  V30 8805 H 784.893 0.898611 2.85596 0
M  V30 8806 H 782.439 0.433571 1.37318 0
M  V30 8807 H 784.392 -1.23793 4.02807 0
M  V30 8808 H 783.116 -1.60908 2.84211 0
M  V30 8809 H 781.775 0.365393 3.64775 0
M  V30 8810 H 781.423 -1.89449 4.6596 0
M  V30 8811 H 781.123 -0.599269 5.84536 0
M  V30 8812 H 782.647 -1.52936 5.91137 0
M  V30 8813 H 784.061 0.730892 5.68622 0
M  V30 8814 H 782.458 1.51278 5.80719 0
M  V30 8815 H 783.528 1.91878 4.45321 0
M  V30 8816 N 784.871 -1.49948 0.485112 0
M  V30 8817 C 786.096 -2.073 -0.0645059 0
M  V30 8818 C 786.521 -1.345 -1.31497 0
M  V30 8819 O 785.879 -0.39687 -1.76903 0
M  V30 8820 C 785.927 -3.59201 -0.317304 0
M  V30 8821 O 785.031 -3.88085 -1.39514 0
M  V30 8822 H 784.372 -0.663723 0.0191822 0
M  V30 8823 H 786.902 -1.92963 0.680179 0
M  V30 8824 H 786.912 -4.04227 -0.553604 0
M  V30 8825 H 785.587 -4.11602 0.596387 0
M  V30 8826 H 784.164 -3.54885 -1.14504 0
M  V30 8827 N 786.349 -0.21828 -1.56081 0
M  V30 8828 C 787.574 0.422302 -2.03055 0
M  V30 8829 C 787.999 1.5279 -1.09713 0
M  V30 8830 O 787.357 1.81102 -0.0847187 0
M  V30 8831 C 787.405 0.934177 -3.48289 0
M  V30 8832 O 786.509 2.04574 -3.58083 0
M  V30 8833 H 785.85 0.0959764 -0.657027 0
M  V30 8834 H 788.38 -0.335958 -2.01823 0
M  V30 8835 H 788.39 1.24484 -3.88546 0
M  V30 8836 H 787.065 0.124963 -4.15712 0
M  V30 8837 H 785.642 1.74196 -3.29712 0
M  V30 8838 N 787.827 1.57504 0.0551401 0
M  V30 8839 C 788.737 2.08198 1.08124 0
M  V30 8840 C 789.753 1.01496 1.41331 0
M  V30 8841 O 790.929 1.33073 1.51174 0
M  V30 8842 C 787.994 2.52968 2.37083 0
M  V30 8843 C 787.055 3.7404 2.10696 0
M  V30 8844 C 786.288 4.16665 3.33505 0
M  V30 8845 O 786.511 3.59019 4.4324 0
M  V30 8846 O 785.445 5.09324 3.20737 0
M  V30 8847 H 789.271 2.95977 0.680518 0
M  V30 8848 H 786.856 1.46933 0.270401 0
M  V30 8849 H 788.738 2.82211 3.12946 0
M  V30 8850 H 787.413 1.6831 2.76502 0
M  V30 8851 H 786.32 3.49855 1.32484 0
M  V30 8852 H 787.653 4.59601 1.76148 0
M  V30 8853 N 789.305 -0.326896 1.54172 0
M  V30 8854 C 790.235 -1.40741 1.86317 0
M  V30 8855 C 791.216 -1.54125 0.719684 0
M  V30 8856 O 792.401 -1.6806 0.973117 0
M  V30 8857 C 789.531 -2.77557 2.08757 0
M  V30 8858 C 788.485 -2.78965 3.24596 0
M  V30 8859 C 787.811 -4.18824 3.32401 0
M  V30 8860 C 789.111 -2.4301 4.62324 0
M  V30 8861 H 790.805 -1.14088 2.76811 0
M  V30 8862 H 788.351 -0.547389 1.3319 0
M  V30 8863 H 790.304 -3.53209 2.29829 0
M  V30 8864 H 789.028 -3.0568 1.15009 0
M  V30 8865 H 787.687 -2.05767 3.03406 0
M  V30 8866 H 787.335 -4.44083 2.36218 0
M  V30 8867 H 787.035 -4.20673 4.10253 0
M  V30 8868 H 788.559 -4.96294 3.55703 0
M  V30 8869 H 789.973 -3.08375 4.83299 0
M  V30 8870 H 788.37 -2.56116 5.42701 0
M  V30 8871 H 789.44 -1.38165 4.64799 0
M  V30 8872 N 790.784 -1.46188 -0.588786 0
M  V30 8873 C 791.747 -1.55882 -1.68029 0
M  V30 8874 C 792.747 -0.436515 -1.54762 0
M  V30 8875 O 793.937 -0.700626 -1.59489 0
M  V30 8876 C 791.069 -1.47332 -3.07418 0
M  V30 8877 H 792.262 -2.5315 -1.60795 0
M  V30 8878 H 789.815 -1.33908 -0.806116 0
M  V30 8879 H 790.55 -0.513193 -3.20214 0
M  V30 8880 H 790.335 -2.28753 -3.18456 0
M  V30 8881 H 791.825 -1.57187 -3.86887 0
M  V30 8882 N 792.262 0.832906 -1.33792 0
M  V30 8883 C 793.194 1.95042 -1.2038 0
M  V30 8884 C 794.207 1.62253 -0.133299 0
M  V30 8885 O 795.396 1.74315 -0.384261 0
M  V30 8886 C 792.496 3.287 -0.825215 0
M  V30 8887 C 791.669 3.89581 -1.98861 0
M  V30 8888 C 790.728 5.01602 -1.59003 0
M  V30 8889 O 789.754 5.20431 -2.30522 0
M  V30 8890 N 790.956 5.78356 -0.498446 0
M  V30 8891 H 793.721 2.07083 -2.16649 0
M  V30 8892 H 791.282 1.00896 -1.26616 0
M  V30 8893 H 793.274 4.01074 -0.540559 0
M  V30 8894 H 791.844 3.12565 0.0469796 0
M  V30 8895 H 791.064 3.09723 -2.43856 0
M  V30 8896 H 792.352 4.26989 -2.76691 0
M  V30 8897 H 791.75 5.65618 0.0963297 0
M  V30 8898 H 790.307 6.51226 -0.273485 0
M  V30 8899 N 793.74 1.17359 1.05189 0
M  V30 8900 C 794.703 0.892604 2.11105 0
M  V30 8901 C 795.703 -0.117236 1.60372 0
M  V30 8902 O 796.893 0.114936 1.7382 0
M  V30 8903 C 794.025 0.337032 3.3923 0
M  V30 8904 H 795.218 1.83169 2.37464 0
M  V30 8905 H 792.771 0.984051 1.21434 0
M  V30 8906 H 793.506 -0.609198 3.18527 0
M  V30 8907 H 793.291 1.06484 3.77364 0
M  V30 8908 H 794.781 0.158763 4.17298 0
M  V30 8909 N 795.218 -1.23913 0.973828 0
M  V30 8910 C 796.634 -1.44325 0.681363 0
M  V30 8911 C 796.834 -1.86832 -0.754728 0
M  V30 8912 O 795.89 -2.01024 -1.52793 0
M  V30 8913 C 797.203 -2.50017 1.67069 0
M  V30 8914 C 798.751 -2.63838 1.68399 0
M  V30 8915 C 799.226 -3.72734 2.66145 0
M  V30 8916 N 800.717 -3.80169 2.64624 0
M  V30 8917 C 801.452 -4.6397 3.36927 0
M  V30 8918 N 800.948 -5.51911 4.18767 0
M  V30 8919 N 802.741 -4.58106 3.25722 0
M  V30 8920 H 794.892 -0.946204 1.9016 0
M  V30 8921 H 797.155 -0.477374 0.819035 0
M  V30 8922 H 796.861 -2.25686 2.69738 0
M  V30 8923 H 796.735 -3.48287 1.4483 0
M  V30 8924 H 799.122 -2.87524 0.664379 0
M  V30 8925 H 799.203 -1.65906 1.94702 0
M  V30 8926 H 798.847 -3.49797 3.68245 0
M  V30 8927 H 798.777 -4.70193 2.3712 0
M  V30 8928 H 801.268 -3.17319 2.05224 0
M  V30 8929 H 801.581 -6.12828 4.70809 0
M  V30 8930 H 799.926 -5.51556 4.2286 0
M  V30 8931 H 803.117 -3.8842 2.61242 0
M  V30 8932 H 803.29 -5.23188 3.82333 0
M  V30 8933 N 796.696 -0.74468 -1.38897 0
M  V30 8934 C 797.973 -0.222773 -1.94327 0
M  V30 8935 C 798.353 1.27731 -1.68071 0
M  V30 8936 O 797.701 2.04754 -1.01429 0
M  V30 8937 C 797.911 -0.566836 -3.44366 0
M  V30 8938 C 799.259 -0.521531 -4.21385 0
M  V30 8939 O 800.283 -0.504599 -3.52608 0
M  V30 8940 O 799.142 -0.524595 -5.43976 0
M  V30 8941 H 796.236 -0.0439259 -0.825833 0
M  V30 8942 H 798.782 -0.824197 -1.48341 0
M  V30 8943 H 797.554 -1.60321 -3.56949 0
M  V30 8944 H 797.177 0.0630577 -3.9755 0
M  V30 8945 N 798.174 1.49689 -0.493057 0
M  V30 8946 C 799.084 2.32746 0.294358 0
M  V30 8947 C 800.1 1.44117 0.975003 0
M  V30 8948 O 801.276 1.77149 0.958138 0
M  V30 8949 C 798.341 3.19358 1.34949 0
M  V30 8950 C 797.402 4.2383 0.683122 0
M  V30 8951 C 796.635 5.06303 1.68798 0
M  V30 8952 O 796.858 4.90172 2.91698 0
M  V30 8953 O 795.792 5.88826 1.24768 0
M  V30 8954 H 799.618 3.01247 -0.385254 0
M  V30 8955 H 797.203 1.47216 -0.254519 0
M  V30 8956 H 799.085 3.73037 1.96014 0
M  V30 8957 H 797.76 2.53561 2.01217 0
M  V30 8958 H 796.667 3.74086 0.0329351 0
M  V30 8959 H 798 4.9216 0.0630192 0
M  V30 8960 N 799.652 0.226554 1.55963 0
M  V30 8961 C 800.88 -0.408507 2.02827 0
M  V30 8962 C 801.295 -1.52994 1.10627 0
M  V30 8963 O 800.652 -1.82126 0.116809 0
M  V30 8964 C 800.703 -0.93545 3.49187 0
M  V30 8965 O 800.424 0.141273 4.37872 0
M  V30 8966 C 801.925 -1.64325 4.11719 0
M  V30 8967 H 799.145 -0.099442 0.66359 0
M  V30 8968 H 801.689 0.344471 2.01578 0
M  V30 8969 H 799.844 -1.63868 3.51036 0
M  V30 8970 H 800.258 -0.25558 5.23877 0
M  V30 8971 H 801.732 -1.9639 5.15883 0
M  V30 8972 H 802.209 -2.55815 3.57009 0
M  V30 8973 H 802.815 -0.9851 4.13734 0
M  V30 8974 N 801.13 -1.57531 -0.0467866 0
M  V30 8975 C 802.077 -2.05387 -1.05285 0
M  V30 8976 C 803.047 -0.939385 -1.36985 0
M  V30 8977 O 804.232 -1.20877 -1.47626 0
M  V30 8978 C 801.372 -2.52343 -2.35408 0
M  V30 8979 C 800.485 -3.77512 -2.10022 0
M  V30 8980 C 799.62 -4.1315 -3.33887 0
M  V30 8981 C 798.659 -5.31286 -3.03976 0
M  V30 8982 N 797.796 -5.62441 -4.20243 0
M  V30 8983 H 802.636 -2.91095 -0.637788 0
M  V30 8984 H 800.173 -1.43939 -0.303322 0
M  V30 8985 H 802.131 -2.77628 -3.11413 0
M  V30 8986 H 800.761 -1.69577 -2.7467 0
M  V30 8987 H 799.813 -3.59417 -1.24594 0
M  V30 8988 H 801.125 -4.63644 -1.83945 0
M  V30 8989 H 800.279 -4.39469 -4.18273 0
M  V30 8990 H 799.018 -3.25634 -3.63062 0
M  V30 8991 H 798.023 -5.04738 -2.17991 0
M  V30 8992 H 799.248 -6.20441 -2.76098 0
M  V30 8993 H 797.194 -4.77885 -4.49402 0
M  V30 8994 H 797.111 -6.43046 -3.97528 0
M  V30 8995 H 798.379 -5.93327 -5.05553 0
M  V30 8996 N 802.608 0.318715 -1.54344 0
M  V30 8997 C 803.555 1.39242 -1.84066 0
M  V30 8998 C 804.525 1.51175 -0.688134 0
M  V30 8999 O 805.71 1.66318 -0.935039 0
M  V30 9000 C 802.85 2.75528 -2.07794 0
M  V30 9001 C 801.963 2.72187 -3.35467 0
M  V30 9002 C 801.098 4.00352 -3.4913 0
M  V30 9003 C 800.137 3.91338 -4.7066 0
M  V30 9004 N 799.274 5.11242 -4.81224 0
M  V30 9005 H 804.114 1.13196 -2.75664 0
M  V30 9006 H 801.651 0.547857 -1.36517 0
M  V30 9007 H 803.609 3.54763 -2.19543 0
M  V30 9008 H 802.239 2.99873 -1.19482 0
M  V30 9009 H 801.291 1.84917 -3.3243 0
M  V30 9010 H 802.603 2.61411 -4.24812 0
M  V30 9011 H 801.757 4.88019 -3.60448 0
M  V30 9012 H 800.496 4.1394 -2.57886 0
M  V30 9013 H 799.501 3.02055 -4.59394 0
M  V30 9014 H 800.726 3.7931 -5.63294 0
M  V30 9015 H 798.672 5.25327 -3.92897 0
M  V30 9016 H 798.589 5.0282 -5.64543 0
M  V30 9017 H 799.857 6.0061 -4.96879 0
M  V30 9018 N 804.086 1.46499 0.581025 0
M  V30 9019 C 805.314 1.5547 1.36517 0
M  V30 9020 C 805.729 0.196407 1.87776 0
M  V30 9021 O 805.086 -0.806577 1.63709 0
M  V30 9022 C 805.137 2.56084 2.55154 0
M  V30 9023 O 804.858 3.86637 2.06018 0
M  V30 9024 C 806.359 2.75011 3.47683 0
M  V30 9025 H 803.579 0.525703 0.416986 0
M  V30 9026 H 806.123 1.9192 0.706177 0
M  V30 9027 H 804.278 2.22633 3.17039 0
M  V30 9028 H 804.692 4.41413 2.83292 0
M  V30 9029 H 806.166 3.49329 4.27403 0
M  V30 9030 H 806.643 1.81978 3.99726 0
M  V30 9031 H 807.249 3.09565 2.91632 0
M  V30 9032 N 805.565 -0.825799 1.34232 0
M  V30 9033 C 806.497 -1.94401 1.21413 0
M  V30 9034 C 807.51 -1.6218 0.141902 0
M  V30 9035 O 808.699 -1.74109 0.3935 0
M  V30 9036 C 805.799 -3.28257 0.842635 0
M  V30 9037 C 804.972 -3.88521 2.00924 0
M  V30 9038 C 804.031 -5.00752 1.61661 0
M  V30 9039 O 803.057 -5.19201 2.33279 0
M  V30 9040 N 804.259 -5.78084 0.52911 0
M  V30 9041 H 807.024 -2.05931 2.17744 0
M  V30 9042 H 804.585 -1.00223 1.27149 0
M  V30 9043 H 806.577 -4.00781 0.561822 0
M  V30 9044 H 805.147 -3.12585 -0.0304029 0
M  V30 9045 H 804.367 -3.08425 2.45495 0
M  V30 9046 H 805.655 -4.25516 2.78951 0
M  V30 9047 H 805.053 -5.65661 -0.0663322 0
M  V30 9048 H 803.61 -6.51072 0.308017 0
M  V30 9049 N 807.043 -1.17915 -1.04565 0
M  V30 9050 C 807.991 -0.897919 -2.1457 0
M  V30 9051 C 808.985 0.139883 -1.68821 0
M  V30 9052 O 810.191 -0.00779463 -1.79998 0
M  V30 9053 H 806.566 -0.272867 -0.700748 0
M  V30 9054 H 808.537 -1.83268 -2.3549 0
M  V30 9055 C 807.286 -0.434634 -3.44973 0
M  V30 9056 H 806.609 -1.22469 -3.8058 0
M  V30 9057 H 808.049 -0.276804 -4.23095 0
M  V30 9058 C 806.508 0.848738 -3.26034 0
M  V30 9059 O 807.038 1.9141 -3.53164 0
M  V30 9060 N 805.244 0.799373 -2.79389 0
M  V30 9061 H 804.791 -0.0678192 -2.57511 0
M  V30 9062 H 804.749 1.6585 -2.67098 0
M  V30 9063 N 808.521 1.23394 -0.980386 0
M  V30 9064 C 809.798 1.87242 -0.565667 0
M  V30 9065 C 810.178 1.88151 0.957197 0
M  V30 9066 O 809.526 1.36309 1.8339 0
M  V30 9067 C 809.736 3.28743 -1.17172 0
M  V30 9068 C 811.084 4.05335 -1.26446 0
M  V30 9069 O 812.108 3.37962 -1.12517 0
M  V30 9070 O 810.967 5.25908 -1.48604 0
M  V30 9071 H 808.061 0.80477 -0.190459 0
M  V30 9072 H 810.607 1.3127 -1.07547 0
M  V30 9073 H 809.379 3.22647 -2.21392 0
M  V30 9074 H 809.002 3.92305 -0.646739 0
M  V30 9075 N 809.999 0.752036 1.385 0
M  V30 9076 C 811.245 0.307958 2.00448 0
M  V30 9077 C 811.578 -1.10702 1.59558 0
M  V30 9078 O 810.853 -1.75788 0.832391 0
M  V30 9079 C 811.136 0.429092 3.57534 0
M  V30 9080 C 810.989 1.88507 4.08393 0
M  V30 9081 C 812.308 -0.178442 4.39738 0
M  V30 9082 H 809.427 0.113373 0.728228 0
M  V30 9083 H 812.069 0.951389 1.64465 0
M  V30 9084 H 810.219 -0.118695 3.88319 0
M  V30 9085 H 811.891 2.49104 3.88259 0
M  V30 9086 H 810.134 2.40066 3.61318 0
M  V30 9087 H 810.805 1.92099 5.17496 0
M  V30 9088 H 813.281 0.28872 4.15097 0
M  V30 9089 H 812.157 -0.0634349 5.48863 0
M  V30 9090 H 812.418 -1.26655 4.23569 0
M  V30 9091 N 811.477 -1.49425 0.500989 0
M  V30 9092 C 812.407 -2.31971 -0.266775 0
M  V30 9093 C 813.388 -1.40245 -0.962563 0
M  V30 9094 O 814.573 -1.69154 -0.953968 0
M  V30 9095 C 811.703 -3.20757 -1.33163 0
M  V30 9096 C 810.657 -4.21275 -0.75572 0
M  V30 9097 C 809.983 -4.98997 -1.92109 0
M  V30 9098 C 811.283 -5.21686 0.253213 0
M  V30 9099 H 812.977 -2.96408 0.422237 0
M  V30 9100 H 810.523 -1.4254 0.204505 0
M  V30 9101 H 812.476 -3.77315 -1.87646 0
M  V30 9102 H 811.2 -2.54263 -2.04983 0
M  V30 9103 H 809.859 -3.65861 -0.232637 0
M  V30 9104 H 809.507 -4.28951 -2.62698 0
M  V30 9105 H 809.207 -5.67011 -1.54182 0
M  V30 9106 H 810.731 -5.584 -2.47026 0
M  V30 9107 H 812.145 -5.72939 -0.203483 0
M  V30 9108 H 810.542 -5.9759 0.548322 0
M  V30 9109 H 811.612 -4.70596 1.16909 0
M  V30 9110 N 812.955 -0.234822 -1.55841 0
M  V30 9111 C 813.905 0.68346 -2.17515 0
M  V30 9112 C 814.889 1.14798 -1.1274 0
M  V30 9113 O 816.081 1.09976 -1.38688 0
M  V30 9114 C 813.21 1.88551 -2.86886 0
M  V30 9115 C 812.296 1.44006 -3.98903 0
M  V30 9116 N 812.687 0.708034 -5.0082 0
M  V30 9117 C 810.985 1.7263 -4.11236 0
M  V30 9118 C 811.686 0.479036 -5.79724 0
M  V30 9119 N 810.662 1.03968 -5.33565 0
M  V30 9120 H 814.464 0.115897 -2.93671 0
M  V30 9121 H 811.978 -0.0366273 -1.62359 0
M  V30 9122 H 813.975 2.55425 -3.2949 0
M  V30 9123 H 812.635 2.45742 -2.12229 0
M  V30 9124 H 813.646 0.359363 -5.16652 0
M  V30 9125 H 810.323 2.31046 -3.47741 0
M  V30 9126 H 811.713 -0.104514 -6.71819 0
M  V30 9127 N 814.433 1.57553 0.0384317 0
M  V30 9128 C 815.396 2.04927 1.02653 0
M  V30 9129 C 816.396 0.951768 1.29607 0
M  V30 9130 O 817.586 1.21568 1.24768 0
M  V30 9131 C 814.718 2.45828 2.36181 0
M  V30 9132 H 815.911 2.93474 0.617508 0
M  V30 9133 H 813.464 1.53679 0.285031 0
M  V30 9134 H 814.199 1.60408 2.8185 0
M  V30 9135 H 813.984 3.25945 2.1795 0
M  V30 9136 H 815.474 2.82939 3.0714 0
M  V30 9137 N 815.911 -0.310526 1.54511 0
M  V30 9138 C 816.821 -1.4054 1.87844 0
M  V30 9139 C 817.837 -1.55954 0.771635 0
M  V30 9140 O 819.013 -1.70801 1.06719 0
M  V30 9141 C 816.078 -2.75063 2.11048 0
M  V30 9142 C 815.139 -2.68715 3.348 0
M  V30 9143 C 814.372 -3.96821 3.56887 0
M  V30 9144 O 814.595 -4.95721 2.82165 0
M  V30 9145 O 813.529 -3.99291 4.50389 0
M  V30 9146 H 817.355 -1.15275 2.80972 0
M  V30 9147 H 814.94 -0.505732 1.4058 0
M  V30 9148 H 816.822 -3.54671 2.27566 0
M  V30 9149 H 815.497 -3.00191 1.21108 0
M  V30 9150 H 814.404 -1.87611 3.23655 0
M  V30 9151 H 815.737 -2.4854 4.2484 0
M  V30 9152 N 817.389 -1.46805 -0.573248 0
M  V30 9153 C 818.337 -1.58468 -1.70267 0
M  V30 9154 C 819.331 -0.452694 -1.63239 0
M  V30 9155 O 820.537 -0.629915 -1.68618 0
M  V30 9156 H 816.912 -0.498408 -0.56311 0
M  V30 9157 H 818.883 -2.5341 -1.57563 0
M  V30 9158 C 817.632 -1.60104 -3.08645 0
M  V30 9159 H 816.955 -2.4655 -3.14727 0
M  V30 9160 H 818.395 -1.72318 -3.87405 0
M  V30 9161 C 816.854 -0.33138 -3.35266 0
M  V30 9162 O 817.384 0.57438 -3.97572 0
M  V30 9163 N 815.59 -0.216358 -2.89793 0
M  V30 9164 H 815.137 -0.954345 -2.3927 0
M  V30 9165 H 815.095 0.632253 -3.07977 0
M  V30 9166 N 818.867 0.818669 -1.34668 0
M  V30 9167 C 820.113 1.57746 -1.27453 0
M  V30 9168 C 820.446 1.93588 0.154077 0
M  V30 9169 O 819.721 1.60371 1.10051 0
M  V30 9170 C 820.004 2.87414 -2.16945 0
M  V30 9171 C 819.857 2.58125 -3.68363 0
M  V30 9172 C 821.176 3.89021 -2.05792 0
M  V30 9173 H 818.295 0.572339 -0.464324 0
M  V30 9174 H 820.937 0.942784 -1.64959 0
M  V30 9175 H 819.087 3.41576 -1.85089 0
M  V30 9176 H 820.759 2.10239 -4.10606 0
M  V30 9177 H 819.002 1.91503 -3.89242 0
M  V30 9178 H 819.673 3.5061 -4.26353 0
M  V30 9179 H 822.149 3.44224 -2.33771 0
M  V30 9180 H 821.025 4.77548 -2.70628 0
M  V30 9181 H 821.286 4.29786 -1.03618 0
M  V30 9182 N 820.346 1.18468 1.03938 0
M  V30 9183 C 821.293 0.912859 2.1198 0
M  V30 9184 C 822.263 -0.14824 1.65437 0
M  V30 9185 O 823.448 -0.008331 1.90798 0
M  V30 9186 C 820.588 0.446114 3.42204 0
M  V30 9187 C 819.701 1.57278 4.02353 0
M  V30 9188 C 818.836 1.05863 5.20544 0
M  V30 9189 C 817.875 2.1599 5.72726 0
M  V30 9190 N 817.012 1.65959 6.82204 0
M  V30 9191 H 821.852 1.83798 2.34569 0
M  V30 9192 H 819.389 0.916504 1.15059 0
M  V30 9193 H 821.347 0.15697 4.16905 0
M  V30 9194 H 819.977 -0.442025 3.19759 0
M  V30 9195 H 819.029 1.97737 3.24968 0
M  V30 9196 H 820.341 2.40289 4.37107 0
M  V30 9197 H 819.495 0.724087 6.02364 0
M  V30 9198 H 818.234 0.198116 4.87297 0
M  V30 9199 H 817.239 2.50287 4.89527 0
M  V30 9200 H 818.464 3.02479 6.08016 0
M  V30 9201 H 816.41 0.82199 6.5083 0
M  V30 9202 H 816.327 2.42567 7.16029 0
M  V30 9203 H 817.595 1.35436 7.67644 0
M  V30 9204 N 821.824 -1.22873 0.986916 0
M  V30 9205 C 822.787 -2.2281 0.537442 0
M  V30 9206 C 823.787 -1.56331 -0.37646 0
M  V30 9207 O 824.977 -1.73376 -0.169247 0
M  V30 9208 C 822.109 -3.40195 -0.219082 0
M  V30 9209 H 823.302 -2.64089 1.42116 0
M  V30 9210 H 820.855 -1.35819 0.773488 0
M  V30 9211 H 821.59 -3.04381 -1.11905 0
M  V30 9212 H 821.375 -3.89657 0.437026 0
M  V30 9213 H 822.865 -4.14326 -0.521926 0
M  V30 9214 N 823.302 -0.75937 -1.38099 0
M  V30 9215 C 824.55 -0.317485 -1.99591 0
M  V30 9216 C 824.871 1.10628 -1.60581 0
M  V30 9217 O 824.141 1.7575 -0.865378 0
M  V30 9218 H 822.721 -0.114397 -0.738189 0
M  V30 9219 H 825.383 -0.974749 -1.68774 0
M  V30 9220 H 824.479 -0.385227 -3.09713 0
M  V30 9221 N 824.78 1.49157 -0.508906 0
M  V30 9222 C 826.196 1.58741 -0.165372 0
M  V30 9223 C 826.396 1.5133 1.33047 0
M  V30 9224 O 825.452 1.39135 2.10707 0
M  V30 9225 C 826.765 2.91217 -0.749194 0
M  V30 9226 C 828.313 3.047 -0.716015 0
M  V30 9227 C 828.788 4.39807 -1.27804 0
M  V30 9228 N 830.279 4.46319 -1.23908 0
M  V30 9229 C 831.014 5.49325 -1.64406 0
M  V30 9230 N 830.51 6.59395 -2.12534 0
M  V30 9231 N 832.303 5.40084 -1.55773 0
M  V30 9232 H 824.454 1.52217 -1.48134 0
M  V30 9233 H 826.717 0.721514 -0.614915 0
M  V30 9234 H 826.423 3.02233 -1.79856 0
M  V30 9235 H 826.297 3.76592 -0.214144 0
M  V30 9236 H 828.684 2.9331 0.324535 0
M  V30 9237 H 828.765 2.2099 -1.2883 0
M  V30 9238 H 828.409 4.5195 -2.31741 0
M  V30 9239 H 828.339 5.2217 -0.681623 0
M  V30 9240 H 830.83 3.67354 -0.886537 0
M  V30 9241 H 831.143 7.34102 -2.41485 0
M  V30 9242 H 829.488 6.60414 -2.16513 0
M  V30 9243 H 832.679 4.52986 -1.17987 0
M  V30 9244 H 832.852 6.20233 -1.87657 0
M  V30 9245 N 826.258 0.243083 1.55714 0
M  V30 9246 C 827.535 -0.432851 1.90751 0
M  V30 9247 C 827.915 -1.76153 1.16333 0
M  V30 9248 O 827.263 -2.26783 0.279565 0
M  V30 9249 C 827.473 -0.604685 3.43722 0
M  V30 9250 C 828.821 -0.90231 4.14902 0
M  V30 9251 O 829.845 -0.690689 3.49439 0
M  V30 9252 O 828.704 -1.3051 5.30688 0
M  V30 9253 H 825.798 -0.231835 0.79384 0
M  V30 9254 H 828.344 0.286867 1.67258 0
M  V30 9255 H 827.116 0.331655 3.89892 0
M  V30 9256 H 826.739 -1.37509 3.73065 0
M  V30 9257 N 827.736 -1.57571 -0.0300757 0
M  V30 9258 C 828.683 -2.06492 -1.03101 0
M  V30 9259 C 829.653 -0.953862 -1.3598 0
M  V30 9260 O 830.838 -1.22436 -1.46335 0
M  V30 9261 C 827.978 -2.54826 -2.32718 0
M  V30 9262 C 827.091 -3.79718 -2.06006 0
M  V30 9263 C 826.226 -4.16668 -3.29487 0
M  V30 9264 C 825.265 -5.3448 -2.98324 0
M  V30 9265 N 824.402 -5.66867 -4.14254 0
M  V30 9266 H 829.242 -2.91755 -0.606877 0
M  V30 9267 H 826.779 -1.44252 -0.288038 0
M  V30 9268 H 828.737 -2.80916 -3.08451 0
M  V30 9269 H 827.367 -1.72481 -2.72856 0
M  V30 9270 H 826.419 -3.60718 -1.20774 0
M  V30 9271 H 827.731 -4.65569 -1.79017 0
M  V30 9272 H 826.885 -4.43881 -4.13588 0
M  V30 9273 H 825.624 -3.29466 -3.59588 0
M  V30 9274 H 824.629 -5.07021 -2.12625 0
M  V30 9275 H 825.854 -6.23334 -2.69502 0
M  V30 9276 H 823.8 -4.82625 -4.44308 0
M  V30 9277 H 823.717 -6.47226 -3.90685 0
M  V30 9278 H 824.985 -5.98656 -4.99231 0
M  V30 9279 N 829.214 0.302327 -1.54673 0
M  V30 9280 C 830.444 1.05516 -1.77623 0
M  V30 9281 C 830.852 1.81474 -0.535159 0
M  V30 9282 O 830.195 1.76635 0.504543 0
M  V30 9283 C 830.257 2.08305 -2.93001 0
M  V30 9284 C 829.921 1.51554 -4.31139 0
M  V30 9285 C 830.918 0.946261 -5.11216 0
M  V30 9286 C 828.603 1.55157 -4.77736 0
M  V30 9287 C 830.597 0.420559 -6.36011 0
M  V30 9288 C 828.284 1.022 -6.02494 0
M  V30 9289 C 829.282 0.457461 -6.81466 0
M  V30 9290 O 828.97 -0.064083 -8.03874 0
M  V30 9291 H 828.702 0.318756 -0.59613 0
M  V30 9292 H 831.256 0.347558 -2.02438 0
M  V30 9293 H 829.486 2.82742 -2.63807 0
M  V30 9294 H 831.175 2.69479 -3.03539 0
M  V30 9295 H 831.941 0.911338 -4.76361 0
M  V30 9296 H 827.82 1.98037 -4.16296 0
M  V30 9297 H 831.364 -0.0207298 -6.97597 0
M  V30 9298 H 827.261 1.05406 -6.36836 0
M  V30 9299 H 828.029 0.0493422 -8.18485 0
M  V30 9300 N 830.692 1.47107 0.565454 0
M  V30 9301 C 831.639 1.58974 1.6732 0
M  V30 9302 C 832.609 0.433146 1.60353 0
M  V30 9303 O 833.794 0.652141 1.79309 0
M  V30 9304 C 830.934 1.60224 3.05651 0
M  V30 9305 C 830.047 2.86741 3.23116 0
M  V30 9306 C 829.182 2.79381 4.51796 0
M  V30 9307 C 828.221 4.0076 4.62664 0
M  V30 9308 N 827.358 3.91685 5.8269 0
M  V30 9309 H 832.198 2.53588 1.56515 0
M  V30 9310 H 829.735 1.25791 0.762558 0
M  V30 9311 H 831.693 1.58933 3.85741 0
M  V30 9312 H 830.323 0.691285 3.15311 0
M  V30 9313 H 829.375 2.97936 2.36513 0
M  V30 9314 H 830.687 3.7665 3.27011 0
M  V30 9315 H 829.841 2.76293 5.40136 0
M  V30 9316 H 828.58 1.87142 4.50366 0
M  V30 9317 H 827.585 4.04162 3.72738 0
M  V30 9318 H 828.81 4.94117 4.6586 0
M  V30 9319 H 826.756 3.02243 5.82224 0
M  V30 9320 H 826.673 4.75264 5.87929 0
M  V30 9321 H 827.941 3.92599 6.73414 0
M  V30 9322 N 832.17 -0.811516 1.35101 0
M  V30 9323 C 833.398 -1.59981 1.31201 0
M  V30 9324 C 833.813 -1.8847 -0.111552 0
M  V30 9325 O 833.17 -1.48414 -1.06205 0
M  V30 9326 C 833.221 -2.934 2.11184 0
M  V30 9327 O 832.942 -2.66148 3.4799 0
M  V30 9328 C 834.443 -3.87776 2.14813 0
M  V30 9329 H 831.663 -0.496921 0.450899 0
M  V30 9330 H 834.207 -1.00886 1.77883 0
M  V30 9331 H 832.362 -3.49022 1.68115 0
M  V30 9332 H 832.776 -3.51301 3.89471 0
M  V30 9333 H 834.25 -4.7852 2.75178 0
M  V30 9334 H 834.727 -4.23997 1.14556 0
M  V30 9335 H 835.333 -3.3809 2.58022 0
M  V30 9336 N 833.648 -1.19017 -1.03309 0
M  V30 9337 C 834.578 -0.94772 -2.13402 0
M  V30 9338 C 835.559 0.117383 -1.69694 0
M  V30 9339 O 836.744 -0.0367733 -1.94165 0
M  V30 9340 C 833.874 -0.480977 -3.43953 0
M  V30 9341 C 832.828 -1.48743 -4.01322 0
M  V30 9342 C 832.154 -0.877924 -5.27443 0
M  V30 9343 C 833.454 -2.86642 -4.36616 0
M  V30 9344 H 835.148 -1.86846 -2.33942 0
M  V30 9345 H 832.694 -0.899781 -1.12427 0
M  V30 9346 H 834.647 -0.298677 -4.2034 0
M  V30 9347 H 833.371 0.475348 -3.23122 0
M  V30 9348 H 832.03 -1.65681 -3.27025 0
M  V30 9349 H 831.678 0.0858232 -5.02927 0
M  V30 9350 H 831.378 -1.54996 -5.66789 0
M  V30 9351 H 832.902 -0.706326 -6.06501 0
M  V30 9352 H 834.316 -2.73312 -5.03958 0
M  V30 9353 H 832.713 -3.50599 -4.87032 0
M  V30 9354 H 833.783 -3.39617 -3.46105 0
M  V30 9355 N 835.127 1.22348 -0.993418 0
M  V30 9356 C 836.543 1.43222 -0.704238 0
M  V30 9357 C 836.743 1.88009 0.724909 0
M  V30 9358 O 835.799 2.03429 1.49575 0
M  V30 9359 C 837.112 2.47328 -1.71025 0
M  V30 9360 C 838.66 2.61126 -1.72576 0
M  V30 9361 C 839.135 3.68453 -2.72041 0
M  V30 9362 N 840.626 3.75911 -2.70639 0
M  V30 9363 C 841.361 4.58551 -3.44266 0
M  V30 9364 N 840.857 5.45179 -4.27495 0
M  V30 9365 N 842.65 4.52866 -3.32969 0
M  V30 9366 H 834.801 0.915832 -1.91641 0
M  V30 9367 H 837.064 0.464283 -0.826526 0
M  V30 9368 H 836.77 2.21366 -2.73295 0
M  V30 9369 H 836.644 3.45939 -1.50353 0
M  V30 9370 H 839.031 2.86431 -0.710037 0
M  V30 9371 H 839.112 1.62787 -1.97317 0
M  V30 9372 H 838.756 3.43895 -3.73763 0
M  V30 9373 H 838.686 4.66362 -2.4457 0
M  V30 9374 H 841.177 3.14014 -2.10247 0
M  V30 9375 H 841.49 6.0526 -4.80499 0
M  V30 9376 H 839.835 5.44759 -4.31582 0
M  V30 9377 H 843.026 3.84215 -2.67389 0
M  V30 9378 H 843.199 5.17039 -3.90608 0
M  V30 9379 N 836.605 0.766683 1.37694 0
M  V30 9380 C 837.537 0.107798 2.28946 0
M  V30 9381 C 838.55 -0.669701 1.48387 0
M  V30 9382 O 839.739 -0.508629 1.711 0
M  V30 9383 C 836.839 -0.871084 3.27514 0
M  V30 9384 C 836.012 -0.148471 4.37148 0
M  V30 9385 C 835.071 -1.03998 5.1582 0
M  V30 9386 O 834.097 -0.505639 5.6695 0
M  V30 9387 N 835.299 -2.36679 5.3006 0
M  V30 9388 H 838.064 0.89154 2.86132 0
M  V30 9389 H 835.625 0.618593 1.49616 0
M  V30 9390 H 837.617 -1.47081 3.77027 0
M  V30 9391 H 836.187 -1.55582 2.71133 0
M  V30 9392 H 835.407 0.632117 3.89099 0
M  V30 9393 H 836.695 0.351045 5.07588 0
M  V30 9394 H 836.093 -2.82532 4.90094 0
M  V30 9395 H 834.65 -2.9167 5.82899 0
M  V30 9396 N 838.083 -1.48885 0.516809 0
M  V30 9397 C 839.332 -2.01686 -0.0239899 0
M  V30 9398 C 839.645 -1.40029 -1.3657 0
M  V30 9399 O 840.851 -1.84249 -1.9941 0
M  V30 9400 C 839.307 -3.59779 -0.0931825 0
M  V30 9401 C 838.915 -4.30416 1.24283 0
M  V30 9402 C 840.659 -4.20471 -0.583507 0
M  V30 9403 C 838.566 -5.80408 1.13494 0
M  V30 9404 H 837.496 -0.753892 -0.0127376 0
M  V30 9405 H 840.147 -1.71273 0.65861 0
M  V30 9406 H 838.529 -3.86976 -0.840577 0
M  V30 9407 H 839.703 -4.14905 2.00476 0
M  V30 9408 H 838.018 -3.81539 1.66785 0
M  V30 9409 H 840.615 -5.30333 -0.681987 0
M  V30 9410 H 840.958 -3.84898 -1.58617 0
M  V30 9411 H 841.491 -3.97654 0.107814 0
M  V30 9412 H 838.23 -6.20532 2.11235 0
M  V30 9413 H 837.75 -5.98368 0.414167 0
M  V30 9414 H 839.429 -6.41781 0.820162 0
M  V30 9415 N 839.561 -0.251338 -1.55583 0
M  V30 9416 C 840.977 0.103409 -1.59265 0
M  V30 9417 C 841.177 1.56559 -1.26852 0
M  V30 9418 O 840.233 2.31071 -1.01796 0
M  V30 9419 C 841.546 -0.249781 -2.99661 0
M  V30 9420 C 843.094 -0.194442 -3.12395 0
M  V30 9421 C 843.569 -0.521728 -4.55019 0
M  V30 9422 N 845.06 -0.472393 -4.60785 0
M  V30 9423 C 845.795 -0.698737 -5.69127 0
M  V30 9424 N 845.291 -0.988443 -6.85713 0
M  V30 9425 N 847.084 -0.629143 -5.58568 0
M  V30 9426 H 839.235 -1.20484 -1.74921 0
M  V30 9427 H 841.498 -0.485092 -0.814488 0
M  V30 9428 H 841.204 -1.26577 -3.28133 0
M  V30 9429 H 841.078 0.420973 -3.74844 0
M  V30 9430 H 843.465 0.812229 -2.83702 0
M  V30 9431 H 843.546 -0.899111 -2.39478 0
M  V30 9432 H 843.19 -1.52597 -4.84434 0
M  V30 9433 H 843.12 0.204468 -5.26203 0
M  V30 9434 H 845.611 -0.257386 -3.77022 0
M  V30 9435 H 845.924 -1.14846 -7.64219 0
M  V30 9436 H 844.269 -1.02596 -6.87386 0
M  V30 9437 H 847.46 -0.402826 -4.66364 0
M  V30 9438 H 847.633 -0.808935 -6.42931 0
M  V30 9439 N 841.039 1.57585 0.0217189 0
M  V30 9440 C 841.971 2.03849 1.04777 0
M  V30 9441 C 842.984 0.952558 1.32023 0
M  V30 9442 O 844.173 1.22974 1.29381 0
M  V30 9443 C 841.273 2.40504 2.3877 0
M  V30 9444 C 840.446 3.71566 2.30775 0
M  V30 9445 C 839.505 3.95329 3.47277 0
M  V30 9446 O 838.531 4.66289 3.26441 0
M  V30 9447 N 839.733 3.41536 4.69397 0
M  V30 9448 H 842.498 2.92491 0.653395 0
M  V30 9449 H 840.059 1.60538 0.209527 0
M  V30 9450 H 842.051 2.53532 3.15442 0
M  V30 9451 H 840.621 1.57494 2.70027 0
M  V30 9452 H 839.841 3.68822 1.39155 0
M  V30 9453 H 841.129 4.5753 2.22584 0
M  V30 9454 H 840.527 2.84033 4.89226 0
M  V30 9455 H 839.084 3.59932 5.43408 0
M  V30 9456 N 842.517 -0.29412 1.54831 0
M  V30 9457 C 843.765 -1.02643 1.74094 0
M  V30 9458 C 844.086 -1.87563 0.533402 0
M  V30 9459 O 843.356 -1.9061 -0.452192 0
M  V30 9460 H 841.936 -0.381959 0.641963 0
M  V30 9461 H 844.598 -0.323444 1.92197 0
M  V30 9462 H 843.694 -1.67558 2.63307 0
M  V30 9463 N 843.995 -1.47404 -0.557645 0
M  V30 9464 C 844.943 -1.60265 -1.68576 0
M  V30 9465 C 845.937 -0.469982 -1.6275 0
M  V30 9466 O 847.143 -0.647764 -1.67941 0
M  V30 9467 H 843.518 -0.504353 -0.557792 0
M  V30 9468 H 845.489 -2.55066 -1.54867 0
M  V30 9469 C 844.238 -1.63369 -3.0693 0
M  V30 9470 H 843.561 -2.49874 -3.12095 0
M  V30 9471 H 845.001 -1.76417 -3.85556 0
M  V30 9472 C 843.46 -0.366921 -3.34896 0
M  V30 9473 O 843.99 0.53218 -3.98159 0
M  V30 9474 N 842.196 -0.247082 -2.89548 0
M  V30 9475 H 841.743 -0.979669 -2.38244 0
M  V30 9476 H 841.701 0.599552 -3.0863 0
M  V30 9477 N 845.473 0.80434 -1.35529 0
M  V30 9478 C 846.701 1.59283 -1.32048 0
M  V30 9479 C 847.116 1.88527 0.101556 0
M  V30 9480 O 846.473 1.48975 1.05417 0
M  V30 9481 C 846.524 2.92276 -2.12737 0
M  V30 9482 O 846.245 2.64299 -3.49396 0
M  V30 9483 C 847.746 3.86631 -2.16867 0
M  V30 9484 H 844.966 0.494523 -0.453528 0
M  V30 9485 H 847.51 0.999415 -1.78415 0
M  V30 9486 H 845.665 3.48125 -1.69964 0
M  V30 9487 H 846.079 3.4923 -3.91329 0
M  V30 9488 H 847.553 4.77053 -2.77712 0
M  V30 9489 H 848.03 4.23384 -1.16803 0
M  V30 9490 H 848.636 3.36717 -2.59811 0
M  V30 9491 N 846.951 1.19563 1.02676 0
M  V30 9492 C 847.898 0.935291 2.11 0
M  V30 9493 C 848.868 -0.130685 1.65585 0
M  V30 9494 O 850.053 0.0119062 1.90796 0
M  V30 9495 C 847.193 0.482384 3.41712 0
M  V30 9496 C 846.306 1.61537 4.00662 0
M  V30 9497 C 845.441 1.11378 5.19392 0
M  V30 9498 C 844.48 2.22052 5.70403 0
M  V30 9499 N 843.617 1.73185 6.80405 0
M  V30 9500 H 848.457 1.86275 2.32606 0
M  V30 9501 H 845.994 0.928656 1.14081 0
M  V30 9502 H 847.952 0.20118 4.16715 0
M  V30 9503 H 846.582 -0.408086 3.2021 0
M  V30 9504 H 845.634 2.01173 3.22852 0
M  V30 9505 H 846.946 2.44912 4.34534 0
M  V30 9506 H 846.1 0.787935 6.01562 0
M  V30 9507 H 844.839 0.249789 4.8706 0
M  V30 9508 H 843.844 2.55465 4.86845 0
M  V30 9509 H 845.069 3.08911 6.04774 0
M  V30 9510 H 843.015 0.890973 6.49921 0
M  V30 9511 H 842.932 2.50148 7.13416 0
M  V30 9512 H 844.2 1.4357 7.66164 0
M  V30 9513 N 848.429 -1.21819 0.999893 0
M  V30 9514 C 849.361 -2.23356 0.514256 0
M  V30 9515 C 850.374 -1.5795 -0.394413 0
M  V30 9516 O 851.563 -1.77427 -0.195428 0
M  V30 9517 C 848.663 -3.37797 -0.273207 0
M  V30 9518 C 847.836 -4.32791 0.633293 0
M  V30 9519 C 846.895 -5.26098 -0.103673 0
M  V30 9520 O 845.921 -5.66881 0.513269 0
M  V30 9521 N 847.123 -5.63764 -1.38383 0
M  V30 9522 H 849.888 -2.65653 1.3874 0
M  V30 9523 H 847.449 -1.3619 0.875431 0
M  V30 9524 H 849.441 -3.97209 -0.775053 0
M  V30 9525 H 848.011 -2.94527 -1.0475 0
M  V30 9526 H 847.231 -3.71595 1.31571 0
M  V30 9527 H 848.519 -4.93196 1.25039 0
M  V30 9528 H 847.917 -5.32614 -1.90627 0
M  V30 9529 H 846.474 -6.25562 -1.83073 0
M  V30 9530 N 849.908 -0.773975 -1.37286 0
M  V30 9531 C 851.324 -0.45386 -1.53011 0
M  V30 9532 C 851.524 1.03018 -1.73175 0
M  V30 9533 O 850.58 1.81597 -1.75438 0
M  V30 9534 C 851.893 -1.27087 -2.72524 0
M  V30 9535 C 853.441 -1.26299 -2.86387 0
M  V30 9536 C 853.916 -2.0634 -4.08886 0
M  V30 9537 N 855.407 -2.03706 -4.16003 0
M  V30 9538 C 856.142 -2.62418 -5.09828 0
M  V30 9539 N 855.638 -3.29926 -6.09197 0
M  V30 9540 N 857.431 -2.52236 -5.02328 0
M  V30 9541 H 849.582 -1.73551 -1.22449 0
M  V30 9542 H 851.845 -0.736874 -0.596423 0
M  V30 9543 H 851.551 -2.32263 -2.64096 0
M  V30 9544 H 851.425 -0.90157 -3.66267 0
M  V30 9545 H 853.812 -0.219213 -2.94285 0
M  V30 9546 H 853.893 -1.67195 -1.93596 0
M  V30 9547 H 853.537 -3.10741 -4.01749 0
M  V30 9548 H 853.467 -1.62825 -5.00795 0
M  V30 9549 H 855.958 -1.54559 -3.44848 0
M  V30 9550 H 856.271 -3.72095 -6.77322 0
M  V30 9551 H 854.616 -3.34026 -6.09469 0
M  V30 9552 H 857.807 -1.99108 -4.23643 0
M  V30 9553 H 857.98 -2.98286 -5.75265 0
M  V30 9554 N 851.386 1.48609 -0.524698 0
M  V30 9555 C 852.635 2.01696 0.0132937 0
M  V30 9556 C 852.948 1.40751 1.35825 0
M  V30 9557 O 854.154 1.85304 1.9843 0
M  V30 9558 C 852.61 3.59824 0.0741012 0
M  V30 9559 C 852.218 4.2975 -1.26564 0
M  V30 9560 C 853.962 4.20774 0.5612 0
M  V30 9561 C 851.869 5.79798 -1.16571 0
M  V30 9562 H 850.799 0.753949 0.00873931 0
M  V30 9563 H 853.45 1.70922 -0.667684 0
M  V30 9564 H 851.832 3.87416 0.820043 0
M  V30 9565 H 853.006 4.13836 -2.02674 0
M  V30 9566 H 851.321 3.80649 -1.68806 0
M  V30 9567 H 853.918 5.30687 0.653853 0
M  V30 9568 H 854.261 3.85734 1.56573 0
M  V30 9569 H 854.794 3.97591 -0.128901 0
M  V30 9570 H 851.533 6.19403 -2.14523 0
M  V30 9571 H 851.053 5.9814 -0.445894 0
M  V30 9572 H 852.732 6.41337 -0.854186 0
M  V30 9573 N 852.864 0.259585 1.55447 0
M  V30 9574 C 854.141 -0.412595 1.91199 0
M  V30 9575 C 854.521 -1.74909 1.18194 0
M  V30 9576 O 853.869 -2.26474 0.303603 0
M  V30 9577 C 854.079 -0.568195 3.44344 0
M  V30 9578 C 855.427 -0.858253 4.15836 0
M  V30 9579 O 856.451 -0.653588 3.50152 0
M  V30 9580 O 855.31 -1.24874 5.32042 0
M  V30 9581 H 852.404 -0.223403 0.796254 0
M  V30 9582 H 854.95 0.30459 1.66944 0
M  V30 9583 H 853.722 0.372989 3.89518 0
M  V30 9584 H 853.345 -1.33544 3.74502 0
M  V30 9585 N 854.342 -1.57594 -0.0133615 0
M  V30 9586 C 855.252 -2.10991 -1.02566 0
M  V30 9587 C 856.268 -1.05208 -1.3859 0
M  V30 9588 O 857.444 -1.37034 -1.47593 0
M  V30 9589 C 854.509 -2.59165 -2.30292 0
M  V30 9590 C 853.57 -3.79495 -2.00704 0
M  V30 9591 C 852.803 -4.25361 -3.22341 0
M  V30 9592 O 853.026 -3.70645 -4.33565 0
M  V30 9593 O 851.96 -5.17649 -3.07121 0
M  V30 9594 H 855.786 -2.97678 -0.601806 0
M  V30 9595 H 853.371 -1.47598 -0.23135 0
M  V30 9596 H 855.253 -2.90409 -3.05354 0
M  V30 9597 H 853.928 -1.75582 -2.71942 0
M  V30 9598 H 852.835 -3.53245 -1.23161 0
M  V30 9599 H 854.168 -4.64109 -1.639 0
M  V30 9600 N 855.82 0.285905 -1.54985 0
M  V30 9601 C 857.067 1.0192 -1.74982 0
M  V30 9602 C 857.395 1.86743 -0.543816 0
M  V30 9603 O 856.65 1.89874 0.473972 0
M  V30 9604 C 856.949 1.94193 -3.0004 0
M  V30 9605 C 856.615 1.25225 -4.33162 0
M  V30 9606 C 855.277 1.06149 -4.69346 0
M  V30 9607 C 857.629 0.760427 -5.15623 0
M  V30 9608 C 854.957 0.365991 -5.85557 0
M  V30 9609 C 857.309 0.0785787 -6.32551 0
M  V30 9610 C 855.973 -0.124002 -6.67385 0
M  V30 9611 H 855.243 0.372951 -0.640304 0
M  V30 9612 H 857.89 0.292652 -1.89251 0
M  V30 9613 H 856.195 2.73426 -2.80616 0
M  V30 9614 H 857.892 2.51029 -3.12707 0
M  V30 9615 H 854.482 1.41081 -4.04715 0
M  V30 9616 H 858.666 0.895466 -4.88155 0
M  V30 9617 H 853.922 0.198193 -6.11079 0
M  V30 9618 H 858.096 -0.310339 -6.95708 0
M  V30 9619 H 855.723 -0.664918 -7.57287 0
M  V30 9620 N 857.298 1.47698 0.54982 0
M  V30 9621 C 858.208 1.63386 1.68351 0
M  V30 9622 C 859.224 0.516583 1.66155 0
M  V30 9623 O 860.4 0.785088 1.85468 0
M  V30 9624 C 857.465 1.6513 3.04849 0
M  V30 9625 C 856.526 2.88338 3.18056 0
M  V30 9626 C 855.759 2.8999 4.48042 0
M  V30 9627 O 855.982 2.00633 5.3395 0
M  V30 9628 O 854.916 3.81938 4.65196 0
M  V30 9629 H 858.742 2.59329 1.58057 0
M  V30 9630 H 856.327 1.30869 0.72067 0
M  V30 9631 H 858.209 1.68913 3.86065 0
M  V30 9632 H 856.884 0.723555 3.1551 0
M  V30 9633 H 855.791 2.90097 2.36209 0
M  V30 9634 H 857.124 3.80431 3.12302 0
M  V30 9635 N 858.776 -0.797141 1.35954 0
M  V30 9636 C 859.739 -1.89104 1.29508 0
M  V30 9637 C 860.739 -1.59495 0.204444 0
M  V30 9638 O 861.929 -1.68051 0.458746 0
M  V30 9639 C 859.061 -3.25726 1.00576 0
M  V30 9640 H 860.254 -1.96237 2.26785 0
M  V30 9641 H 857.807 -0.994075 1.20614 0
M  V30 9642 H 858.542 -3.24279 0.0372519 0
M  V30 9643 H 858.327 -3.48604 1.79492 0
M  V30 9644 H 859.817 -4.0578 0.986508 0
M  V30 9645 N 860.254 -1.20106 -1.0204 0
M  V30 9646 C 861.187 -0.889795 -2.10138 0
M  V30 9647 C 862.165 0.156595 -1.61844 0
M  V30 9648 O 863.349 0.0310192 -1.88474 0
M  V30 9649 C 860.476 -0.333227 -3.37057 0
M  V30 9650 C 859.522 -1.36001 -4.04235 0
M  V30 9651 S 860.355 -2.92366 -4.48645 0
M  V30 9652 C 861.511 -2.38274 -5.78771 0
M  V30 9653 H 861.744 -1.80523 -2.36217 0
M  V30 9654 H 859.277 -1.02912 -1.15102 0
M  V30 9655 H 861.235 -0.0186507 -4.10496 0
M  V30 9656 H 859.896 0.560652 -3.09056 0
M  V30 9657 H 859.089 -0.919874 -4.95534 0
M  V30 9658 H 858.691 -1.62186 -3.37004 0
M  V30 9659 H 860.983 -1.77799 -6.53754 0
M  V30 9660 H 861.926 -3.27955 -6.27576 0
M  V30 9661 H 862.334 -1.8054 -5.34851 0
M  V30 9662 O 861.771 1.15001 -1.13389 0
M  V30 9663 H 862.462 1.74049 -0.85009 0
M  V30 END ATOM
M  V30 BEGIN BOND
M  V30 END BOND
M  V30 END CTAB
M  END
$$$$
