drugbank_target|P35232 Prohibitin (DB15495; DB15496)
 OpenBabel12092121203D

  0  0  0     0  0            999 V3000
M  V30 BEGIN CTAB
M  V30 COUNTS 4253 4283 0 0 0
M  V30 BEGIN ATOM
M  V30 1 H -0.908 1.98254 -0.117106 0
M  V30 2 N 0 1.576 0 0
M  V30 3 C 0.933 2.03868 1.02534 0
M  V30 4 C 1.911 0.928543 1.3348 0
M  V30 5 O 3.095 1.19667 1.45644 0
M  V30 6 C 0.222 2.43627 2.35294 0
M  V30 7 C -0.732 3.65373 2.2001 0
M  V30 8 S 0.101 5.13292 1.52614 0
M  V30 9 C 1.257 5.56322 2.86805 0
M  V30 10 H 1.49 2.90518 0.631377 0
M  V30 11 H -0.977 1.52953 0.210867 0
M  V30 12 H 0.981 2.67203 3.11629 0
M  V30 13 H -0.358 1.57376 2.7183 0
M  V30 14 H -1.165 3.90944 3.18086 0
M  V30 15 H -1.563 3.418 1.51819 0
M  V30 16 H 0.729 5.58782 3.83104 0
M  V30 17 H 1.672 6.56266 2.65933 0
M  V30 18 H 2.08 4.83886 2.90714 0
M  V30 19 N 1.4781 -0.272755 1.55222 0
M  V30 20 C 2.4411 -1.32041 1.87344 0
M  V30 21 C 3.4411 -1.42342 0.74803 0
M  V30 22 O 4.6311 -1.41488 1.0162 0
M  V30 23 C 1.7631 -2.70173 2.07893 0
M  V30 24 H 2.9561 -1.04789 2.80997 0
M  V30 25 H 0.5091 -0.51083 1.47717 0
M  V30 26 H 1.2441 -3.02605 1.16622 0
M  V30 27 H 1.0291 -2.64082 2.89833 0
M  V30 28 H 2.5191 -3.45869 2.34017 0
M  V30 29 N 2.9562 -1.48159 -0.537278 0
M  V30 30 C 3.9192 -1.61665 -1.62472 0
M  V30 31 C 4.9192 -0.490395 -1.5314 0
M  V30 32 O 6.1092 -0.755998 -1.5694 0
M  V30 33 C 3.2412 -1.57997 -3.02076 0
M  V30 34 H 4.4342 -2.58621 -1.51839 0
M  V30 35 H 1.9872 -1.36647 -0.758771 0
M  V30 36 H 2.7222 -0.624913 -3.18222 0
M  V30 37 H 2.5072 -2.39755 -3.10258 0
M  V30 38 H 3.9972 -1.70627 -3.81151 0
M  V30 39 N 4.4343 0.785586 -1.36625 0
M  V30 40 C 5.3813 1.89838 -1.31264 0
M  V30 41 C 6.3513 1.65115 -0.180633 0
M  V30 42 O 7.5363 1.87222 -0.36777 0
M  V30 43 C 4.6763 3.26706 -1.11163 0
M  V30 44 C 3.7893 3.63476 -2.33472 0
M  V30 45 C 2.9243 4.89481 -2.06353 0
M  V30 46 C 1.9633 5.18941 -3.24602 0
M  V30 47 N 1.1003 6.36131 -2.97123 0
M  V30 48 H 5.9403 1.93756 -2.26413 0
M  V30 49 H 3.4773 0.947454 -1.12524 0
M  V30 50 H 5.4353 4.05639 -0.975337 0
M  V30 51 H 4.0653 3.222 -0.196674 0
M  V30 52 H 3.1173 2.79636 -2.57891 0
M  V30 53 H 4.4293 3.81193 -3.21704 0
M  V30 54 H 3.5833 5.76288 -1.89675 0
M  V30 55 H 2.3223 4.73841 -1.15437 0
M  V30 56 H 1.3273 4.30615 -3.41834 0
M  V30 57 H 2.5523 5.36498 -4.16349 0
M  V30 58 H 0.4983 6.21875 -2.08823 0
M  V30 59 H 0.4153 6.54198 -3.78894 0
M  V30 60 H 1.6833 7.2591 -2.84033 0
M  V30 61 N 5.9124 1.20967 1.01018 0
M  V30 62 C 7.1584 1.02526 1.74975 0
M  V30 63 C 7.4914 -0.4408 1.89131 0
M  V30 64 O 6.7664 -1.32718 1.42184 0
M  V30 65 C 7.0494 1.71699 3.1653 0
M  V30 66 C 6.9024 3.25791 3.10129 0
M  V30 67 C 8.2214 1.45531 4.15342 0
M  V30 68 H 5.3404 0.373863 0.635134 0
M  V30 69 H 7.9824 1.49071 1.17805 0
M  V30 70 H 6.1324 1.32128 3.65341 0
M  V30 71 H 7.8044 3.74697 2.69072 0
M  V30 72 H 6.0474 3.56363 2.47362 0
M  V30 73 H 6.7184 3.69353 4.10222 0
M  V30 74 H 9.1944 1.79872 3.75213 0
M  V30 75 H 8.0704 1.96453 5.1254 0
M  V30 76 H 8.3314 0.384237 4.40427 0
M  V30 77 N 7.3905 -1.2043 1.01659 0
M  V30 78 C 8.6375 -1.89797 0.705917 0
M  V30 79 C 8.9655 -1.78848 -0.764439 0
M  V30 80 O 8.2205 -1.16694 -1.57102 0
M  V30 81 C 8.5195 -3.40464 1.08714 0
M  V30 82 C 8.1855 -3.71614 2.5537 0
M  V30 83 C 6.8475 -3.79826 2.95441 0
M  V30 84 C 9.1995 -3.85915 3.50313 0
M  V30 85 C 6.5275 -3.99797 4.29394 0
M  V30 86 C 8.8795 -4.07396 4.83954 0
M  V30 87 C 7.5435 -4.13837 5.23732 0
M  V30 88 H 6.8135 -0.694518 0.258313 0
M  V30 89 H 9.4605 -1.42691 1.27717 0
M  V30 90 H 7.7655 -3.89385 0.434309 0
M  V30 91 H 9.4625 -3.92433 0.824461 0
M  V30 92 H 6.0525 -3.65822 2.23321 0
M  V30 93 H 10.2365 -3.78926 3.20513 0
M  V30 94 H 5.4925 -4.03018 4.59768 0
M  V30 95 H 9.6665 -4.17404 5.57447 0
M  V30 96 H 7.2935 -4.29064 6.27541 0
M  V30 97 N 8.8686 -0.792821 -1.36206 0
M  V30 98 C 9.7786 -0.194808 -2.3379 0
M  V30 99 C 10.7946 0.654869 -1.61206 0
M  V30 100 O 11.9706 0.569856 -1.9317 0
M  V30 101 C 9.0356 0.657721 -3.40404 0
M  V30 102 C 8.0966 -0.210849 -4.28782 0
M  V30 103 C 7.3296 0.601086 -5.30304 0
M  V30 104 O 7.5526 1.83682 -5.40016 0
M  V30 105 O 6.4866 -0.000808277 -6.019 0
M  V30 106 H 10.3126 -1.00172 -2.86704 0
M  V30 107 H 7.8976 -0.554341 -1.38735 0
M  V30 108 H 9.7796 1.14375 -4.05581 0
M  V30 109 H 8.4546 1.44247 -2.89784 0
M  V30 110 H 7.3616 -0.743714 -3.66633 0
M  V30 111 H 8.6946 -0.959195 -4.82763 0
M  V30 112 N 10.3467 1.47872 -0.545128 0
M  V30 113 C 11.5717 2.07391 -0.0190611 0
M  V30 114 C 11.9967 1.39688 1.25971 0
M  V30 115 O 11.3547 0.467816 1.7516 0
M  V30 116 C 11.4027 3.60188 0.172335 0
M  V30 117 O 10.5067 3.9339 1.23766 0
M  V30 118 H 9.8477 0.662411 -0.0459059 0
M  V30 119 H 12.3777 1.90066 -0.757365 0
M  V30 120 H 12.3877 4.06129 0.390305 0
M  V30 121 H 11.0627 4.08865 -0.761725 0
M  V30 122 H 9.6397 3.5921 1.00114 0
M  V30 123 N 11.8248 0.280983 1.55075 0
M  V30 124 C 13.0738 -0.334784 1.98902 0
M  V30 125 C 13.3868 -1.56534 1.17288 0
M  V30 126 O 14.5928 -2.25443 1.51287 0
M  V30 127 C 13.0488 -0.646994 3.54037 0
M  V30 128 C 12.6568 0.564085 4.44435 0
M  V30 129 C 14.4008 -1.22506 4.06439 0
M  V30 130 C 12.3078 0.226137 5.90967 0
M  V30 131 H 11.2378 -0.128866 0.742906 0
M  V30 132 H 13.8888 0.386556 1.79382 0
M  V30 133 H 12.2708 -1.42739 3.6938 0
M  V30 134 H 13.4448 1.34082 4.40861 0
M  V30 135 H 11.7598 1.0594 4.02698 0
M  V30 136 H 14.3568 -1.49182 5.13468 0
M  V30 137 H 14.6998 -2.16085 3.55827 0
M  V30 138 H 15.2328 -0.50682 3.94558 0
M  V30 139 H 11.9718 1.12996 6.45687 0
M  V30 140 H 11.4918 -0.513717 5.97596 0
M  V30 141 H 13.1708 -0.179539 6.46751 0
M  V30 142 N 13.3029 -1.57598 0.00835791 0
M  V30 143 C 14.5509 -1.90551 -0.6734 0
M  V30 144 C 14.8719 -0.883301 -1.73847 0
M  V30 145 O 14.1419 0.0781442 -1.95744 0
M  V30 146 H 12.7219 -0.703312 -0.251717 0
M  V30 147 H 15.3839 -1.94833 0.0512592 0
M  V30 148 H 14.4799 -2.9056 -1.13935 0
M  V30 149 N 14.781 0.264519 -1.55364 0
M  V30 150 C 15.728 1.32717 -1.88825 0
M  V30 151 C 16.698 1.48675 -0.740605 0
M  V30 152 O 17.883 1.62945 -0.992657 0
M  V30 153 C 15.023 2.68089 -2.17307 0
M  V30 154 C 14.136 2.60284 -3.44785 0
M  V30 155 C 13.271 3.87892 -3.62924 0
M  V30 156 C 12.31 3.74631 -4.84064 0
M  V30 157 N 11.447 4.94092 -4.98816 0
M  V30 158 H 16.287 1.03481 -2.79456 0
M  V30 159 H 13.824 0.499757 -1.3835 0
M  V30 160 H 15.782 3.46864 -2.31821 0
M  V30 161 H 14.412 2.95509 -1.299 0
M  V30 162 H 13.464 1.73173 -3.38697 0
M  V30 163 H 14.776 2.46388 -4.33698 0
M  V30 164 H 13.93 4.75109 -3.77302 0
M  V30 165 H 12.669 4.04664 -2.7221 0
M  V30 166 H 11.674 2.85797 -4.69681 0
M  V30 167 H 12.899 3.5937 -5.76221 0
M  V30 168 H 10.845 5.11259 -4.11036 0
M  V30 169 H 10.762 4.8276 -5.81789 0
M  V30 170 H 12.03 5.82857 -5.17588 0
M  V30 171 N 16.2591 1.48442 0.529413 0
M  V30 172 C 17.5061 1.56488 1.28521 0
M  V30 173 C 17.8341 0.239042 1.93025 0
M  V30 174 O 17.0891 -0.770713 1.79885 0
M  V30 175 C 17.3881 2.6523 2.39558 0
M  V30 176 C 17.0541 4.07648 1.92702 0
M  V30 177 C 15.7161 4.46411 1.79641 0
M  V30 178 C 18.0681 4.96896 1.573 0
M  V30 179 C 15.3961 5.72226 1.29514 0
M  V30 180 C 17.7481 6.23202 1.08636 0
M  V30 181 C 16.4121 6.60821 0.941919 0
M  V30 182 H 15.6821 0.572631 0.470292 0
M  V30 183 H 18.3291 1.82161 0.59072 0
M  V30 184 H 16.6341 2.33419 3.14679 0
M  V30 185 H 18.3311 2.68671 2.97686 0
M  V30 186 H 14.9211 3.77036 2.03819 0
M  V30 187 H 19.1051 4.67626 1.66251 0
M  V30 188 H 14.3611 6.00097 1.17019 0
M  V30 189 H 18.5351 6.91753 0.803136 0
M  V30 190 H 16.1621 7.58198 0.5513 0
M  V30 191 N 17.7372 -0.778329 1.37039 0
M  V30 192 C 18.9852 -1.53361 1.31623 0
M  V30 193 C 19.3062 -1.94739 -0.100831 0
M  V30 194 O 18.5762 -1.65797 -1.04347 0
M  V30 195 H 17.1562 -0.568794 0.484234 0
M  V30 196 H 19.8182 -0.926742 1.71457 0
M  V30 197 H 18.9142 -2.43606 1.95096 0
M  V30 198 N 19.2153 -1.21501 -1.00376 0
M  V30 199 C 20.1453 -0.999478 -2.11028 0
M  V30 200 C 21.1263 0.0759671 -1.6993 0
M  V30 201 O 22.3113 -0.0841106 -1.94018 0
M  V30 202 C 19.4413 -0.564709 -3.42678 0
M  V30 203 C 18.3953 -1.58486 -3.97576 0
M  V30 204 C 17.7213 -1.00628 -5.25146 0
M  V30 205 C 19.0213 -2.97204 -4.29496 0
M  V30 206 H 20.7153 -1.92495 -2.29317 0
M  V30 207 H 18.2613 -0.92693 -1.102 0
M  V30 208 H 20.2143 -0.401091 -4.19487 0
M  V30 209 H 18.9383 0.396411 -3.24185 0
M  V30 210 H 17.5973 -1.73606 -3.22888 0
M  V30 211 H 17.2453 -0.0368439 -5.02987 0
M  V30 212 H 16.9453 -1.68771 -5.62841 0
M  V30 213 H 18.4693 -0.854015 -6.04598 0
M  V30 214 H 19.8833 -2.8552 -4.97143 0
M  V30 215 H 18.2803 -3.62372 -4.78338 0
M  V30 216 H 19.3503 -3.47956 -3.3772 0
M  V30 217 N 20.6934 1.19889 -1.02296 0
M  V30 218 C 21.6564 2.21116 -0.603351 0
M  V30 219 C 22.6564 1.5738 0.329884 0
M  V30 220 O 23.8464 1.73802 0.117702 0
M  V30 221 C 20.9784 3.40696 0.117992 0
M  V30 222 H 22.1714 2.59754 -1.49893 0
M  V30 223 H 19.7244 1.33463 -0.813468 0
M  V30 224 H 20.4594 3.07569 1.0282 0
M  V30 225 H 20.2444 3.88188 -0.552511 0
M  V30 226 H 21.7344 4.15692 0.398696 0
M  V30 227 N 22.1715 0.800033 1.35784 0
M  V30 228 C 23.1015 0.220184 2.3246 0
M  V30 229 C 24.0825 -0.65073 1.57161 0
M  V30 230 O 25.2675 -0.582359 1.85263 0
M  V30 231 C 22.3975 -0.637353 3.41402 0
M  V30 232 C 21.3515 0.134531 4.27789 0
M  V30 233 C 20.6775 -0.844285 5.27992 0
M  V30 234 C 21.9775 1.32979 5.05088 0
M  V30 235 H 23.6715 1.02787 2.81203 0
M  V30 236 H 21.2175 0.495717 1.35199 0
M  V30 237 H 23.1705 -1.05302 4.08031 0
M  V30 238 H 21.8945 -1.47785 2.91251 0
M  V30 239 H 20.5535 0.531296 3.6273 0
M  V30 240 H 20.2015 -1.68011 4.74111 0
M  V30 241 H 19.9015 -0.332184 5.8666 0
M  V30 242 H 21.4255 -1.2583 5.97494 0
M  V30 243 H 22.8395 0.98934 5.64699 0
M  V30 244 H 21.2365 1.77593 5.7322 0
M  V30 245 H 22.3065 2.11978 4.36111 0
M  V30 246 N 23.6496 -1.47581 0.552962 0
M  V30 247 C 24.6126 -2.28439 -0.186605 0
M  V30 248 C 25.6126 -1.36706 -0.84665 0
M  V30 249 O 26.8026 -1.59378 -0.703164 0
M  V30 250 C 23.9346 -3.16264 -1.2724 0
M  V30 251 H 25.1276 -2.95294 0.523609 0
M  V30 252 H 22.6806 -1.532 0.309745 0
M  V30 253 H 23.4156 -2.54091 -2.01514 0
M  V30 254 H 23.2006 -3.83769 -0.803968 0
M  V30 255 H 24.6906 -3.77198 -1.79196 0
M  V30 256 N 25.1277 -0.289203 -1.54924 0
M  V30 257 C 26.3737 0.323998 -2.00195 0
M  V30 258 C 26.7067 1.54441 -1.17735 0
M  V30 259 O 25.9817 1.92875 -0.250878 0
M  V30 260 C 26.2647 0.692276 -3.53383 0
M  V30 261 C 26.1177 -0.536457 -4.46589 0
M  V30 262 C 27.4367 1.52335 -4.12895 0
M  V30 263 H 24.5557 0.116289 -0.727768 0
M  V30 264 H 27.1977 -0.398954 -1.85764 0
M  V30 265 H 25.3477 1.30822 -3.65811 0
M  V30 266 H 27.0197 -1.17499 -4.46085 0
M  V30 267 H 25.2627 -1.17192 -4.1767 0
M  V30 268 H 25.9337 -0.234806 -5.515 0
M  V30 269 H 28.4097 1.00302 -4.0383 0
M  V30 270 H 27.2857 1.74982 -5.20262 0
M  V30 271 H 27.5467 2.50886 -3.64018 0
M  V30 272 N 26.6058 1.57591 -0.0167156 0
M  V30 273 C 27.5688 2.08393 0.954204 0
M  V30 274 C 28.5688 0.996531 1.26198 0
M  V30 275 O 29.7588 1.25858 1.20438 0
M  V30 276 C 26.8908 2.5394 2.27436 0
M  V30 277 H 28.0838 2.95455 0.514451 0
M  V30 278 H 25.6368 1.54582 0.231089 0
M  V30 279 H 26.3718 1.70171 2.76066 0
M  V30 280 H 26.1568 3.33371 2.06412 0
M  V30 281 H 27.6468 2.93512 2.97053 0
M  V30 282 N 28.0839 -0.256276 1.55502 0
M  V30 283 C 29.3319 -0.983672 1.76545 0
M  V30 284 C 29.6529 -1.86206 0.578982 0
M  V30 285 O 28.9229 -1.91656 -0.405577 0
M  V30 286 H 27.5029 -0.366191 0.651086 0
M  V30 287 H 30.1649 -0.276479 1.92929 0
M  V30 288 H 29.2609 -1.61087 2.67315 0
M  V30 289 N 29.562 -1.4872 -0.521534 0
M  V30 290 C 30.81 -1.56857 -1.27437 0
M  V30 291 C 31.131 -0.247982 -1.93417 0
M  V30 292 O 30.401 0.731151 -1.81744 0
M  V30 293 H 28.981 -0.577885 -0.473347 0
M  V30 294 H 31.643 -1.85233 -0.606205 0
M  V30 295 H 30.739 -2.35402 -2.0492 0
M  V30 296 N 31.0401 0.771051 -1.3745 0
M  V30 297 C 32.2861 1.5319 -1.32894 0
M  V30 298 C 32.6191 1.94008 0.0862511 0
M  V30 299 O 31.8941 1.64124 1.04373 0
M  V30 300 C 32.1771 2.79648 -2.26868 0
M  V30 301 C 32.0301 2.45079 -3.77169 0
M  V30 302 C 33.3491 3.81583 -2.19277 0
M  V30 303 H 30.4681 0.555744 -0.484064 0
M  V30 304 H 33.1101 0.884492 -1.68157 0
M  V30 305 H 31.2601 3.34891 -1.96926 0
M  V30 306 H 32.9321 1.95745 -4.1771 0
M  V30 307 H 31.1751 1.77767 -3.95704 0
M  V30 308 H 31.8461 3.35478 -4.38359 0
M  V30 309 H 34.3221 3.35835 -2.45671 0
M  V30 310 H 33.1981 4.67787 -2.87171 0
M  V30 311 H 33.4591 4.25897 -1.18592 0
M  V30 312 N 32.5182 1.22032 0.997298 0
M  V30 313 C 33.7642 1.04376 1.73878 0
M  V30 314 C 34.0972 -0.420716 1.89588 0
M  V30 315 O 33.3722 -1.31202 1.43583 0
M  V30 316 C 33.6552 1.75047 3.14691 0
M  V30 317 C 33.5082 3.29062 3.06656 0
M  V30 318 C 34.8272 1.49928 4.13775 0
M  V30 319 H 31.9462 0.380578 0.631133 0
M  V30 320 H 34.5882 1.50312 1.16217 0
M  V30 321 H 32.7382 1.35996 3.63919 0
M  V30 322 H 34.4102 3.7753 2.65083 0
M  V30 323 H 32.6532 3.58967 2.43568 0
M  V30 324 H 33.3242 3.73683 4.06282 0
M  V30 325 H 35.8002 1.83842 3.73285 0
M  V30 326 H 34.6762 2.01878 5.10428 0
M  V30 327 H 34.9372 0.430929 4.39995 0
M  V30 328 N 33.9963 -1.19345 1.0293 0
M  V30 329 C 34.9443 -2.24621 0.604001 0
M  V30 330 C 35.9383 -1.65452 -0.363587 0
M  V30 331 O 37.1443 -1.78497 -0.23212 0
M  V30 332 H 33.5193 -0.730858 0.177061 0
M  V30 333 H 35.4903 -2.5781 1.50255 0
M  V30 334 C 34.2393 -3.47688 -0.0289127 0
M  V30 335 H 33.5623 -3.93505 0.706651 0
M  V30 336 H 35.0023 -4.23011 -0.289432 0
M  V30 337 C 33.4613 -3.11817 -1.2756 0
M  V30 338 O 33.9913 -3.2451 -2.36762 0
M  V30 339 N 32.1973 -2.66246 -1.16453 0
M  V30 340 H 31.7443 -2.56118 -0.275914 0
M  V30 341 H 31.7023 -2.42617 -1.99961 0
M  V30 342 N 35.4744 -0.807222 -1.35358 0
M  V30 343 C 36.6994 -0.399309 -2.0352 0
M  V30 344 C 37.1244 0.981986 -1.60433 0
M  V30 345 O 36.4824 1.63601 -0.781299 0
M  V30 346 C 36.5304 -0.491552 -3.57234 0
M  V30 347 O 35.6344 0.494754 -4.09421 0
M  V30 348 H 34.9754 -0.166682 -0.642739 0
M  V30 349 H 37.5054 -1.09328 -1.72941 0
M  V30 350 H 37.5154 -0.361588 -4.06395 0
M  V30 351 H 36.1904 -1.49907 -3.87944 0
M  V30 352 H 34.7674 0.324977 -3.71481 0
M  V30 353 N 36.9525 1.47285 -0.560781 0
M  V30 354 C 37.9155 2.28535 0.174488 0
M  V30 355 C 38.9155 1.37153 0.839388 0
M  V30 356 O 40.1055 1.59748 0.694702 0
M  V30 357 C 37.2375 3.16934 1.25561 0
M  V30 358 H 38.4305 2.95012 -0.539262 0
M  V30 359 H 35.9835 1.53034 -0.317865 0
M  V30 360 H 36.7185 2.55157 2.00164 0
M  V30 361 H 36.5035 3.8419 0.783604 0
M  V30 362 H 37.9935 3.78143 1.77193 0
M  V30 363 N 38.4306 0.297415 1.54768 0
M  V30 364 C 39.3606 -0.573494 2.26348 0
M  V30 365 C 40.3416 -1.14085 1.26169 0
M  V30 366 O 41.5266 -1.17086 1.54934 0
M  V30 367 C 38.6566 -1.74716 3.00153 0
M  V30 368 C 37.6106 -1.31032 4.07449 0
M  V30 369 C 36.9366 -2.56887 4.68949 0
M  V30 370 C 38.2366 -0.444183 5.20408 0
M  V30 371 H 39.9306 0.0235131 2.99391 0
M  V30 372 H 37.4766 0.0127488 1.43994 0
M  V30 373 H 39.4296 -2.3625 3.48947 0
M  V30 374 H 38.1536 -2.37035 2.24682 0
M  V30 375 H 36.8126 -0.718066 3.59499 0
M  V30 376 H 36.4606 -3.17512 3.90122 0
M  V30 377 H 36.1606 -2.2836 5.41411 0
M  V30 378 H 37.6846 -3.19229 5.20505 0
M  V30 379 H 39.0986 -0.9651 5.65118 0
M  V30 380 H 37.4956 -0.252846 5.99567 0
M  V30 381 H 38.5656 0.531609 4.81977 0
M  V30 382 N 39.9087 -1.5758 0.0250728 0
M  V30 383 C 41.1387 -1.95646 -0.663783 0
M  V30 384 C 41.5467 -0.899935 -1.66427 0
M  V30 385 O 40.8897 0.127191 -1.83259 0
M  V30 386 C 40.9517 -3.29835 -1.43 0
M  V30 387 C 40.6157 -4.53197 -0.588305 0
M  V30 388 C 41.6127 -5.19726 0.13469 0
M  V30 389 C 39.2977 -4.99529 -0.526897 0
M  V30 390 C 41.2917 -6.30902 0.90781 0
M  V30 391 C 38.9787 -6.10589 0.24993 0
M  V30 392 C 39.9767 -6.76134 0.965994 0
M  V30 393 O 39.6647 -7.85062 1.7301 0
M  V30 394 H 39.3967 -0.649282 -0.188174 0
M  V30 395 H 41.9507 -2.05245 0.0799006 0
M  V30 396 H 40.1807 -3.16716 -2.21873 0
M  V30 397 H 41.8697 -3.52833 -2.00658 0
M  V30 398 H 42.6357 -4.84904 0.0965562 0
M  V30 399 H 38.5147 -4.48319 -1.07381 0
M  V30 400 H 42.0587 -6.81995 1.46724 0
M  V30 401 H 37.9557 -6.44849 0.289795 0
M  V30 402 H 38.7237 -8.01708 1.64944 0
M  V30 403 N 41.3868 0.248026 -1.55636 0
M  V30 404 C 42.3348 1.32683 -1.91045 0
M  V30 405 C 43.3288 1.49883 -0.789401 0
M  V30 406 O 44.5348 1.51371 -0.974007 0
M  V30 407 H 40.9098 0.444272 -0.606734 0
M  V30 408 H 42.8808 1.00085 -2.81115 0
M  V30 409 C 41.6298 2.6755 -2.22064 0
M  V30 410 H 40.9528 2.55114 -3.07826 0
M  V30 411 H 42.3928 3.41912 -2.50743 0
M  V30 412 C 40.8518 3.20556 -1.0366 0
M  V30 413 O 41.3818 4.00695 -0.284016 0
M  V30 414 N 39.5878 2.78568 -0.82753 0
M  V30 415 H 39.1348 2.1351 -1.44123 0
M  V30 416 H 39.0928 3.14378 -0.0369803 0
M  V30 417 N 42.8649 1.48995 0.513639 0
M  V30 418 C 44.1109 1.58076 1.27042 0
M  V30 419 C 44.4439 0.261026 1.92438 0
M  V30 420 O 43.7189 -0.734393 1.80103 0
M  V30 421 C 44.0019 2.73091 2.34719 0
M  V30 422 C 43.8549 4.14821 1.73907 0
M  V30 423 C 45.1739 2.83796 3.36375 0
M  V30 424 H 42.2929 0.575391 0.460536 0
M  V30 425 H 44.9349 1.81232 0.570516 0
M  V30 426 H 43.0849 2.53479 2.94416 0
M  V30 427 H 44.7569 4.45917 1.18135 0
M  V30 428 H 42.9999 4.21058 1.0437 0
M  V30 429 H 43.6709 4.91147 2.51949 0
M  V30 430 H 46.1469 3.01611 2.86653 0
M  V30 431 H 45.0229 3.65971 4.09093 0
M  V30 432 H 45.2839 1.92624 3.9793 0
M  V30 433 N 44.343 -0.763751 1.37857 0
M  V30 434 C 45.62 -1.51244 1.24035 0
M  V30 435 C 46 -2.10472 -0.162649 0
M  V30 436 O 45.348 -1.96206 -1.17112 0
M  V30 437 C 45.558 -2.58694 2.34261 0
M  V30 438 C 46.906 -3.25878 2.72193 0
M  V30 439 O 47.93 -2.68993 2.33497 0
M  V30 440 O 46.789 -4.2874 3.38887 0
M  V30 441 H 43.883 -0.670243 0.484462 0
M  V30 442 H 46.429 -0.800031 1.49658 0
M  V30 443 H 45.201 -2.13105 3.2818 0
M  V30 444 H 44.824 -3.37527 2.10146 0
M  V30 445 N 45.8211 -1.22559 -0.990812 0
M  V30 446 C 46.7841 -0.998863 -2.0629 0
M  V30 447 C 47.7841 0.0354834 -1.60761 0
M  V30 448 O 48.9741 -0.203231 -1.7301 0
M  V30 449 C 46.1061 -0.509203 -3.37076 0
M  V30 450 H 47.2991 -1.95014 -2.27837 0
M  V30 451 H 44.8521 -1.04456 -1.16269 0
M  V30 452 H 45.5871 0.446335 -3.21214 0
M  V30 453 H 45.3721 -1.25547 -3.71457 0
M  V30 454 H 46.8621 -0.370888 -4.1595 0
M  V30 455 N 47.2992 1.18797 -1.03562 0
M  V30 456 C 48.5472 1.88278 -0.734569 0
M  V30 457 C 48.8682 1.8043 0.739586 0
M  V30 458 O 48.1382 1.21925 1.53333 0
M  V30 459 H 46.7182 0.696991 -0.268725 0
M  V30 460 H 49.3802 1.44192 -1.31129 0
M  V30 461 H 48.4762 2.94443 -1.03489 0
M  V30 462 N 48.7773 0.814389 1.34928 0
M  V30 463 C 49.7273 0.202752 2.27097 0
M  V30 464 C 50.7113 -0.62799 1.48139 0
M  V30 465 O 51.9033 -0.483969 1.70255 0
M  V30 466 C 49.0323 -0.64146 3.37254 0
M  V30 467 C 48.1183 0.19944 4.23631 0
M  V30 468 N 48.5093 1.26628 4.89693 0
M  V30 469 C 46.8073 -0.0176433 4.45997 0
M  V30 470 C 47.5083 1.78031 5.53787 0
M  V30 471 N 46.4843 1.08553 5.32651 0
M  V30 472 H 50.2863 1.01893 2.75672 0
M  V30 473 H 47.8003 0.656332 1.48546 0
M  V30 474 H 49.7973 -1.09575 4.02243 0
M  V30 475 H 48.4573 -1.4559 2.9023 0
M  V30 476 H 49.4683 1.64901 4.90946 0
M  V30 477 H 46.1453 -0.800601 4.09752 0
M  V30 478 H 47.5353 2.67236 6.16469 0
M  V30 479 N 50.2554 -1.46986 0.568584 0
M  V30 480 C 51.6714 -1.57946 0.229189 0
M  V30 481 C 51.8714 -1.56567 -1.26843 0
M  V30 482 O 50.9274 -1.47511 -2.04931 0
M  V30 483 C 52.2404 -2.87963 0.865909 0
M  V30 484 C 53.7884 -3.01568 0.838188 0
M  V30 485 C 54.2634 -4.34301 1.45419 0
M  V30 486 N 55.7544 -4.40965 1.41788 0
M  V30 487 C 56.4894 -5.42256 1.86403 0
M  V30 488 N 55.9854 -6.50297 2.38926 0
M  V30 489 N 57.7784 -5.3337 1.77405 0
M  V30 490 H 49.9294 -1.46126 1.54146 0
M  V30 491 H 52.1924 -0.696156 0.643484 0
M  V30 492 H 51.8984 -2.94742 1.91886 0
M  V30 493 H 51.7724 -3.75423 0.365687 0
M  V30 494 H 54.1594 -2.94379 -0.206106 0
M  V30 495 H 54.2404 -2.1562 1.37629 0
M  V30 496 H 53.8844 -4.42247 2.49761 0
M  V30 497 H 53.8144 -5.19 0.891435 0
M  V30 498 H 56.3054 -3.63484 1.03381 0
M  V30 499 H 56.6184 -7.23777 2.70863 0
M  V30 500 H 54.9634 -6.51155 2.42944 0
M  V30 501 H 58.1544 -4.47865 1.3614 0
M  V30 502 H 58.3274 -6.12169 2.12492 0
M  V30 503 N 51.7335 -0.305618 -1.54608 0
M  V30 504 C 52.6965 0.555591 -2.22364 0
M  V30 505 C 53.6965 1.05768 -1.21119 0
M  V30 506 O 54.8865 0.952972 -1.45822 0
M  V30 507 C 52.0185 1.76974 -2.91364 0
M  V30 508 H 53.2115 -0.0364572 -2.99878 0
M  V30 509 H 50.7645 -0.0565007 -1.56198 0
M  V30 510 H 51.4995 2.40151 -2.17941 0
M  V30 511 H 51.2845 1.41732 -3.65588 0
M  V30 512 H 52.7745 2.38148 -3.43038 0
M  V30 513 N 53.2116 1.57565 -0.0334293 0
M  V30 514 C 54.4576 1.92262 0.645226 0
M  V30 515 C 54.7906 0.910543 1.71531 0
M  V30 516 O 54.0656 -0.066099 1.94388 0
M  V30 517 C 54.3486 3.37422 1.2577 0
M  V30 518 C 54.2016 4.49369 0.196891 0
M  V30 519 C 55.5206 3.82628 2.17449 0
M  V30 520 H 52.6396 0.699171 0.233085 0
M  V30 521 H 55.2816 1.89779 -0.0915694 0
M  V30 522 H 53.4316 3.39669 1.88566 0
M  V30 523 H 55.1036 4.59254 -0.433962 0
M  V30 524 H 53.3466 4.31168 -0.477137 0
M  V30 525 H 54.0176 5.47978 0.665124 0
M  V30 526 H 56.4936 3.82145 1.64634 0
M  V30 527 H 55.3696 4.84883 2.57254 0
M  V30 528 H 55.6306 3.18376 3.0674 0
M  V30 529 N 54.6897 -0.239769 1.55765 0
M  V30 530 C 55.9387 -0.964754 1.77131 0
M  V30 531 C 56.2517 -1.86213 0.59868 0
M  V30 532 O 57.4577 -2.6244 0.695522 0
M  V30 533 C 55.9137 -1.76552 3.1362 0
M  V30 534 C 55.5217 -0.915185 4.38553 0
M  V30 535 C 57.2657 -2.48281 3.44321 0
M  V30 536 C 55.1727 -1.71225 5.66071 0
M  V30 537 H 54.1027 -0.363953 0.660344 0
M  V30 538 H 56.7537 -0.219181 1.82186 0
M  V30 539 H 55.1357 -2.55331 3.02691 0
M  V30 540 H 56.3097 -0.169217 4.60489 0
M  V30 541 H 54.6247 -0.310889 4.15238 0
M  V30 542 H 57.2217 -3.08382 4.36812 0
M  V30 543 H 57.5647 -3.20256 2.65973 0
M  V30 544 H 58.0977 -1.76507 3.56497 0
M  V30 545 H 54.8367 -1.03612 6.4726 0
M  V30 546 H 54.3567 -2.43331 5.48224 0
M  V30 547 H 56.0357 -2.27758 6.05587 0
M  V30 548 N 56.1678 -1.49265 -0.50573 0
M  V30 549 C 57.4148 -1.58513 -1.26015 0
M  V30 550 C 57.7428 -0.26972 -1.92621 0
M  V30 551 O 56.9978 0.741997 -1.81088 0
M  V30 552 C 57.2968 -2.69008 -2.35308 0
M  V30 553 C 56.9628 -4.10662 -1.86192 0
M  V30 554 C 55.6248 -4.49212 -1.72516 0
M  V30 555 C 57.9768 -4.99336 -1.49375 0
M  V30 556 C 55.3048 -5.74214 -1.20394 0
M  V30 557 C 57.6568 -6.24852 -0.987072 0
M  V30 558 C 56.3208 -6.62236 -0.836669 0
M  V30 559 H 55.5908 -0.580041 -0.461122 0
M  V30 560 H 58.2378 -1.83078 -0.561665 0
M  V30 561 H 56.5428 -2.38396 -3.10926 0
M  V30 562 H 58.2398 -2.73373 -2.93374 0
M  V30 563 H 54.8298 -3.8023 -1.97795 0
M  V30 564 H 59.0138 -4.70212 -1.5879 0
M  V30 565 H 54.2698 -6.01883 -1.07458 0
M  V30 566 H 58.4438 -6.92944 -0.692983 0
M  V30 567 H 56.0708 -7.58979 -0.430607 0
M  V30 568 N 57.6459 0.756429 -1.3826 0
M  V30 569 C 58.9229 1.50584 -1.24835 0
M  V30 570 C 59.3029 2.10556 0.151485 0
M  V30 571 O 58.6509 1.96825 1.1607 0
M  V30 572 C 58.8609 2.57448 -2.3563 0
M  V30 573 C 60.2089 3.24429 -2.73917 0
M  V30 574 O 61.2329 2.67751 -2.34921 0
M  V30 575 O 60.0919 4.26937 -3.41156 0
M  V30 576 H 57.1859 0.667664 -0.48801 0
M  V30 577 H 59.7319 0.792083 -1.5008 0
M  V30 578 H 58.5039 2.11362 -3.29305 0
M  V30 579 H 58.1269 3.36408 -2.11933 0
M  V30 580 N 59.124 1.23083 0.984299 0
M  V30 581 C 60.54 0.992637 1.24975 0
M  V30 582 C 60.74 -0.308618 1.99123 0
M  V30 583 O 59.796 -1.02905 2.30579 0
M  V30 584 C 61.109 2.19698 2.05312 0
M  V30 585 C 62.657 2.24147 2.18465 0
M  V30 586 C 63.132 3.44157 3.02192 0
M  V30 587 N 64.623 3.44372 3.09777 0
M  V30 588 C 65.358 4.33886 3.74874 0
M  V30 589 N 64.854 5.3363 4.41827 0
M  V30 590 N 66.647 4.21639 3.71721 0
M  V30 591 H 58.798 2.06731 0.487453 0
M  V30 592 H 61.061 0.906339 0.277944 0
M  V30 593 H 60.767 3.1411 1.58201 0
M  V30 594 H 60.641 2.20465 3.06064 0
M  V30 595 H 63.028 1.30277 2.64786 0
M  V30 596 H 63.109 2.27415 1.17115 0
M  V30 597 H 62.753 4.38332 2.56568 0
M  V30 598 H 62.683 3.3813 4.03702 0
M  V30 599 H 65.174 2.72201 2.62135 0
M  V30 600 H 65.487 5.98196 4.89266 0
M  V30 601 H 63.832 5.37534 4.40548 0
M  V30 602 H 67.023 3.42962 3.18582 0
M  V30 603 H 67.196 4.91604 4.22173 0
M  V30 604 N 60.6021 -1.18246 1.0419 0
M  V30 605 C 61.8491 -1.88257 0.746017 0
M  V30 606 C 62.1771 -1.80429 -0.726331 0
M  V30 607 O 61.4321 -1.2 -1.54591 0
M  V30 608 C 61.7311 -3.38082 1.15911 0
M  V30 609 C 61.3971 -3.66114 2.63195 0
M  V30 610 C 60.0591 -3.73474 3.03432 0
M  V30 611 C 62.4111 -3.78398 3.5842 0
M  V30 612 C 59.7391 -3.90599 4.37778 0
M  V30 613 C 62.0911 -3.97039 4.92487 0
M  V30 614 C 60.7551 -4.02635 5.32392 0
M  V30 615 H 60.0251 -0.688883 0.272987 0
M  V30 616 H 62.6721 -1.3995 1.30715 0
M  V30 617 H 60.9771 -3.88377 0.516806 0
M  V30 618 H 62.6741 -3.90596 0.907516 0
M  V30 619 H 59.2641 -3.61003 2.3103 0
M  V30 620 H 63.4481 -3.72042 3.28479 0
M  V30 621 H 58.7041 -3.93175 4.68213 0
M  V30 622 H 62.8781 -4.05486 5.66175 0
M  V30 623 H 60.5051 -4.15657 6.36501 0
M  V30 624 N 62.0802 -0.821533 -1.34494 0
M  V30 625 C 63.4962 -0.507117 -1.51329 0
M  V30 626 C 63.6962 0.968964 -1.76673 0
M  V30 627 O 62.7522 1.75348 -1.81685 0
M  V30 628 C 64.0652 -1.36544 -2.67911 0
M  V30 629 C 65.6132 -1.36242 -2.81793 0
M  V30 630 C 66.0882 -2.2052 -4.01416 0
M  V30 631 N 67.5792 -2.18136 -4.08621 0
M  V30 632 C 68.3142 -2.80095 -5.00334 0
M  V30 633 N 67.8102 -3.51039 -5.9728 0
M  V30 634 N 69.6032 -2.69656 -4.93196 0
M  V30 635 H 61.7542 -1.77729 -1.16302 0
M  V30 636 H 64.0172 -0.757291 -0.570276 0
M  V30 637 H 63.7232 -2.41361 -2.55808 0
M  V30 638 H 63.5972 -1.02917 -3.62888 0
M  V30 639 H 65.9842 -0.322041 -2.93338 0
M  V30 640 H 66.0652 -1.73866 -1.87628 0
M  V30 641 H 65.7092 -3.24607 -3.90631 0
M  V30 642 H 65.6392 -1.80247 -4.94791 0
M  V30 643 H 68.1302 -1.6653 -3.39229 0
M  V30 644 H 68.4432 -3.95565 -6.63889 0
M  V30 645 H 66.7882 -3.55145 -5.97409 0
M  V30 646 H 69.9792 -2.13808 -4.16418 0
M  V30 647 H 70.1522 -3.1823 -5.64476 0
M  V30 648 N 63.5583 1.46682 -0.576371 0
M  V30 649 C 64.8063 2.02013 -0.0594163 0
M  V30 650 C 65.1273 1.45101 1.30271 0
M  V30 651 O 64.3973 0.633317 1.8538 0
M  V30 652 H 62.9773 0.746759 -0.0189745 0
M  V30 653 H 65.6393 1.79862 -0.750717 0
M  V30 654 H 64.7353 3.12097 0.014345 0
M  V30 655 N 65.0364 0.313813 1.54444 0
M  V30 656 C 66.2824 -0.292108 2.00685 0
M  V30 657 C 66.6154 -1.52548 1.20177 0
M  V30 658 O 65.8904 -1.92452 0.281531 0
M  V30 659 C 66.1734 -0.635968 3.5444 0
M  V30 660 C 66.0264 0.607437 4.4568 0
M  V30 661 C 67.3454 -1.45747 4.15266 0
M  V30 662 H 64.4644 -0.104697 0.729526 0
M  V30 663 H 67.1064 0.428457 1.85106 0
M  V30 664 H 65.2564 -1.24986 3.67846 0
M  V30 665 H 66.9284 1.24581 4.44159 0
M  V30 666 H 65.1714 1.23822 4.15753 0
M  V30 667 H 65.8424 0.322515 5.51057 0
M  V30 668 H 68.3184 -0.938645 4.05375 0
M  V30 669 H 67.1944 -1.66683 5.2298 0
M  V30 670 H 67.4554 -2.45063 3.67963 0
M  V30 671 N 66.5145 -1.57545 0.0417849 0
M  V30 672 C 67.4465 -2.07904 -0.964799 0
M  V30 673 C 68.4595 -1.00497 -1.28079 0
M  V30 674 O 69.6485 -1.28087 -1.24322 0
M  V30 675 C 66.7485 -2.49928 -2.28887 0
M  V30 676 C 65.9215 -3.80562 -2.15619 0
M  V30 677 C 64.9805 -4.08999 -3.31069 0
M  V30 678 O 64.0065 -4.79061 -3.0739 0
M  V30 679 N 65.2085 -3.6017 -4.55256 0
M  V30 680 H 67.9735 -2.94886 -0.535029 0
M  V30 681 H 65.5345 -1.61252 -0.144681 0
M  V30 682 H 67.5265 -2.66034 -3.04972 0
M  V30 683 H 66.0965 -1.68245 -2.63463 0
M  V30 684 H 65.3165 -3.74129 -1.24183 0
M  V30 685 H 66.6045 -4.66126 -2.03971 0
M  V30 686 H 66.0025 -3.03512 -4.77386 0
M  V30 687 H 64.5595 -3.81532 -5.28466 0
M  V30 688 N 67.9926 0.231505 -1.5589 0
M  V30 689 C 69.2696 0.981096 -1.69215 0
M  V30 690 C 69.6496 2.02799 -0.586164 0
M  V30 691 O 68.9976 2.24823 0.408253 0
M  V30 692 C 69.2076 1.60054 -3.10135 0
M  V30 693 C 70.5556 2.09658 -3.69227 0
M  V30 694 O 71.5796 1.69967 -3.13033 0
M  V30 695 O 70.4386 2.8258 -4.67772 0
M  V30 696 H 67.5326 0.457653 -0.688827 0
M  V30 697 H 70.0786 0.224073 -1.68214 0
M  V30 698 H 68.8506 0.844105 -3.82087 0
M  V30 699 H 68.4736 2.42336 -3.15212 0
M  V30 700 N 69.4707 1.49531 0.497807 0
M  V30 701 C 70.7197 1.58426 1.24837 0
M  V30 702 C 71.0327 0.277643 1.93619 0
M  V30 703 O 72.2387 0.24517 2.70391 0
M  V30 704 C 70.6947 2.79538 2.26686 0
M  V30 705 C 70.3027 4.16971 1.63828 0
M  V30 706 C 72.0467 2.97764 3.0255 0
M  V30 707 C 69.9537 5.29301 2.63807 0
M  V30 708 H 68.8837 0.58989 0.469623 0
M  V30 709 H 71.5347 1.75923 0.521857 0
M  V30 710 H 69.9167 2.55542 3.02514 0
M  V30 711 H 71.0907 4.51116 0.939711 0
M  V30 712 H 69.4057 4.04129 1.00342 0
M  V30 713 H 72.0027 3.78856 3.77323 0
M  V30 714 H 72.3457 2.08448 3.60354 0
M  V30 715 H 72.8787 3.21815 2.33838 0
M  V30 716 H 69.6177 6.20687 2.10779 0
M  V30 717 H 69.1377 4.99606 3.31894 0
M  V30 718 H 70.8167 5.58768 3.2617 0
M  V30 719 N 70.9488 -0.749086 1.3866 0
M  V30 720 C 72.1948 -1.51056 1.35314 0
M  V30 721 C 72.5278 -1.94121 -0.0553751 0
M  V30 722 O 71.8028 -1.65763 -1.01749 0
M  V30 723 C 72.0858 -2.76003 2.31288 0
M  V30 724 C 71.9388 -2.39047 3.8102 0
M  V30 725 C 73.2578 -3.78046 2.2532 0
M  V30 726 H 70.3768 -0.547972 0.492844 0
M  V30 727 H 73.0188 -0.857628 1.69543 0
M  V30 728 H 71.1688 -3.31716 2.02229 0
M  V30 729 H 72.8408 -1.89074 4.20771 0
M  V30 730 H 71.0838 -1.71449 3.98482 0
M  V30 731 H 71.7548 -3.28462 4.4364 0
M  V30 732 H 74.2308 -3.31884 2.50983 0
M  V30 733 H 73.1068 -4.63159 2.94576 0
M  V30 734 H 73.3678 -4.23957 1.25352 0
M  V30 735 N 72.4269 -1.23603 -0.977757 0
M  V30 736 C 73.6729 -1.07129 -1.72195 0
M  V30 737 C 74.0059 0.390501 -1.90233 0
M  V30 738 O 73.2809 1.28902 -1.45653 0
M  V30 739 C 73.5639 -1.80031 -3.11867 0
M  V30 740 C 73.4169 -3.33899 -3.01383 0
M  V30 741 C 74.7359 -1.56492 -4.11337 0
M  V30 742 H 71.8549 -0.390571 -0.624999 0
M  V30 743 H 74.4969 -1.52142 -1.13811 0
M  V30 744 H 72.6469 -1.41768 -3.6171 0
M  V30 745 H 74.3189 -3.81699 -2.59043 0
M  V30 746 H 72.5619 -3.62796 -2.37827 0
M  V30 747 H 73.2329 -3.801 -4.00285 0
M  V30 748 H 75.7089 -1.89757 -3.70313 0
M  V30 749 H 74.5849 -2.09973 -5.07151 0
M  V30 750 H 74.8459 -0.500874 -4.39254 0
M  V30 751 N 73.905 1.17692 -1.04816 0
M  V30 752 C 75.153 1.87488 -0.754497 0
M  V30 753 C 75.474 1.81205 0.720407 0
M  V30 754 O 74.744 1.23544 1.52032 0
M  V30 755 H 73.324 0.694101 -0.276102 0
M  V30 756 H 75.986 1.42793 -1.32651 0
M  V30 757 H 75.082 2.93328 -1.06606 0
M  V30 758 N 75.3831 0.828654 1.34056 0
M  V30 759 C 76.2931 0.256725 2.33191 0
M  V30 760 C 77.3091 -0.611898 1.62886 0
M  V30 761 O 78.4851 -0.51844 1.94613 0
M  V30 762 C 75.5501 -0.567238 3.42028 0
M  V30 763 C 74.6111 0.324458 4.28072 0
M  V30 764 C 73.8441 -0.460274 5.31712 0
M  V30 765 O 74.0671 -1.693 5.44696 0
M  V30 766 O 73.0011 0.160391 6.01686 0
M  V30 767 H 76.8271 1.07739 2.83947 0
M  V30 768 H 74.4121 0.59093 1.37217 0
M  V30 769 H 76.2941 -1.03582 4.08471 0
M  V30 770 H 74.9691 -1.36513 2.93506 0
M  V30 771 H 73.8761 0.840659 3.64532 0
M  V30 772 H 75.2091 1.08685 4.8005 0
M  V30 773 N 76.8612 -1.46375 0.584142 0
M  V30 774 C 78.1092 -2.01978 0.0701287 0
M  V30 775 C 78.4302 -1.4579 -1.295 0
M  V30 776 O 77.7002 -0.64314 -1.85042 0
M  V30 777 H 76.2802 -0.746648 0.0229345 0
M  V30 778 H 78.9422 -1.79461 0.760245 0
M  V30 779 H 78.0382 -3.121 0.0022064 0
M  V30 780 N 78.3393 -0.321999 -1.54275 0
M  V30 781 C 79.5673 0.283052 -2.04955 0
M  V30 782 C 79.9823 1.45904 -1.19823 0
M  V30 783 O 79.3393 1.81063 -0.228545 0
M  V30 784 C 79.3903 0.719028 -3.54277 0
M  V30 785 O 79.1113 -0.410175 -4.36176 0
M  V30 786 C 80.6123 1.38705 -4.21041 0
M  V30 787 H 77.8323 0.0584616 -0.668448 0
M  V30 788 H 80.3763 -0.467734 -1.99079 0
M  V30 789 H 78.5313 1.41979 -3.60445 0
M  V30 790 H 78.9453 -0.0669416 -5.24457 0
M  V30 791 H 80.4193 1.64306 -5.2698 0
M  V30 792 H 80.8963 2.33385 -3.72059 0
M  V30 793 H 81.5023 0.728906 -4.19007 0
M  V30 794 N 79.8174 1.5752 -0.0501392 0
M  V30 795 C 80.7674 2.07981 0.934231 0
M  V30 796 C 81.7514 0.984745 1.27246 0
M  V30 797 O 82.9434 1.24809 1.25506 0
M  V30 798 C 80.0724 2.62751 2.20945 0
M  V30 799 C 79.1584 3.79225 1.89865 0
M  V30 800 N 79.5494 4.89036 1.29142 0
M  V30 801 C 77.8474 3.88111 2.19741 0
M  V30 802 C 78.5484 5.70084 1.15669 0
M  V30 803 N 77.5244 5.17659 1.65923 0
M  V30 804 H 81.3264 2.90277 0.460053 0
M  V30 805 H 78.8404 1.61665 0.15434 0
M  V30 806 H 80.8374 2.97205 2.9236 0
M  V30 807 H 79.4974 1.81894 2.6897 0
M  V30 808 H 80.5084 5.08854 0.963756 0
M  V30 809 H 77.1854 3.18194 2.70293 0
M  V30 810 H 78.5754 6.68395 0.685356 0
M  V30 811 N 81.2955 -0.223234 1.56011 0
M  V30 812 C 82.5425 -0.947875 1.78946 0
M  V30 813 C 82.8705 -1.844 0.618608 0
M  V30 814 O 82.1255 -1.91629 -0.397093 0
M  V30 815 C 82.4245 -1.81948 3.0762 0
M  V30 816 C 82.0905 -1.07672 4.37856 0
M  V30 817 C 80.7525 -0.871544 4.73242 0
M  V30 818 C 83.1045 -0.552081 5.18268 0
M  V30 819 C 80.4325 -0.129791 5.86556 0
M  V30 820 C 82.7845 0.17632 6.32354 0
M  V30 821 C 81.4485 0.39277 6.66343 0
M  V30 822 H 80.7185 -0.346852 0.654809 0
M  V30 823 H 83.3655 -0.216171 1.90276 0
M  V30 824 H 81.6705 -2.61899 2.91404 0
M  V30 825 H 83.3675 -2.38227 3.22566 0
M  V30 826 H 79.9575 -1.24662 4.1007 0
M  V30 827 H 84.1415 -0.698076 4.91366 0
M  V30 828 H 79.3975 0.048153 6.11381 0
M  V30 829 H 83.5715 0.590367 6.93893 0
M  V30 830 H 81.1985 0.969466 7.53993 0
M  V30 831 N 82.7736 -1.49793 -0.48987 0
M  V30 832 C 83.7036 -1.70201 -1.59856 0
M  V30 833 C 84.6846 -0.55076 -1.60937 0
M  V30 834 O 85.8696 -0.787841 -1.77501 0
M  V30 835 C 82.9996 -1.77882 -2.98287 0
M  V30 836 C 81.9536 -2.92907 -3.12073 0
M  V30 837 C 81.2796 -2.85712 -4.51965 0
M  V30 838 C 82.5796 -4.3369 -2.91051 0
M  V30 839 H 84.2736 -2.63025 -1.43032 0
M  V30 840 H 81.8196 -1.26574 -0.686664 0
M  V30 841 H 83.7726 -1.90744 -3.75759 0
M  V30 842 H 82.4966 -0.816653 -3.16225 0
M  V30 843 H 81.1556 -2.79665 -2.37029 0
M  V30 844 H 80.8036 -1.8738 -4.66795 0
M  V30 845 H 80.5036 -3.62921 -4.62128 0
M  V30 846 H 82.0276 -3.00598 -5.31482 0
M  V30 847 H 83.4416 -4.47555 -3.58284 0
M  V30 848 H 81.8386 -5.12205 -3.12675 0
M  V30 849 H 82.9086 -4.47362 -1.87071 0
M  V30 850 N 84.2517 0.741722 -1.39055 0
M  V30 851 C 85.5007 1.49656 -1.35225 0
M  V30 852 C 85.8137 1.95533 0.0512708 0
M  V30 853 O 87.0197 2.7067 0.212138 0
M  V30 854 C 85.4757 2.70389 -2.37525 0
M  V30 855 C 85.0837 2.31489 -3.83558 0
M  V30 856 C 86.8277 3.48236 -2.42759 0
M  V30 857 C 84.7347 3.48903 -4.77515 0
M  V30 858 H 83.6647 0.56197 -0.502699 0
M  V30 859 H 86.3157 0.809727 -1.64668 0
M  V30 860 H 84.6977 3.41113 -2.01142 0
M  V30 861 H 85.8717 1.68354 -4.28945 0
M  V30 862 H 84.1867 1.66749 -3.81554 0
M  V30 863 H 86.7837 4.35558 -3.1015 0
M  V30 864 H 87.1267 3.90229 -1.45008 0
M  V30 865 H 87.6597 2.84535 -2.78002 0
M  V30 866 H 84.3987 3.11966 -5.76504 0
M  V30 867 H 83.9187 4.11041 -4.36813 0
M  V30 868 H 85.5977 4.15328 -4.96096 0
M  V30 869 N 85.7298 1.2412 0.971189 0
M  V30 870 C 87.1408 1.07236 1.52831 0
M  V30 871 C 87.4918 -0.357352 1.92918 0
M  V30 872 O 86.6168 -1.24528 1.76979 0
M  V30 873 C 87.2118 1.94043 2.77728 0
M  V30 874 C 85.7708 1.81394 3.29808 0
M  V30 875 C 84.9178 1.89189 2.02738 0
M  V30 876 H 87.8688 1.37648 0.789864 0
M  V30 877 H 87.8898 1.47066 3.5093 0
M  V30 878 H 87.4018 2.98093 2.4852 0
M  V30 879 H 85.5028 0.801634 3.63874 0
M  V30 880 H 85.6158 2.65294 3.98944 0
M  V30 881 H 83.9798 1.32877 2.17292 0
M  V30 882 H 84.7628 2.94812 1.759 0
M  V30 883 N 87.2079 -1.17134 1.05439 0
M  V30 884 C 88.4539 -1.87979 0.776872 0
M  V30 885 C 88.8089 -1.7965 -0.688751 0
M  V30 886 O 88.1019 -1.19535 -1.4974 0
M  V30 887 C 88.2959 -3.36833 1.19491 0
M  V30 888 C 88.1249 -3.59653 2.69963 0
M  V30 889 C 86.8949 -3.76234 3.37307 0
M  V30 890 C 89.0929 -3.59091 3.68182 0
M  V30 891 N 87.0749 -3.86922 4.76618 0
M  V30 892 C 88.4459 -3.75659 4.93235 0
M  V30 893 C 90.5009 -3.42255 3.61616 0
M  V30 894 C 89.2039 -3.77133 6.12506 0
M  V30 895 C 91.2299 -3.45018 4.8033 0
M  V30 896 C 90.5919 -3.62096 6.04207 0
M  V30 897 H 86.6909 -0.705876 0.336546 0
M  V30 898 H 89.2749 -1.40602 1.34682 0
M  V30 899 H 87.4459 -3.82873 0.652884 0
M  V30 900 H 89.1779 -3.95305 0.866966 0
M  V30 901 H 85.9329 -3.76193 2.87708 0
M  V30 902 H 86.3569 -3.96055 5.49062 0
M  V30 903 H 90.9989 -3.27986 2.66805 0
M  V30 904 H 88.7169 -3.90186 7.07659 0
M  V30 905 H 92.3029 -3.33246 4.76905 0
M  V30 906 H 91.1829 -3.64142 6.94529 0
M  V30 907 N 88.686 -0.835752 -1.33615 0
M  V30 908 C 89.932 -0.430596 -1.98176 0
M  V30 909 C 90.265 1.00684 -1.66061 0
M  V30 910 O 89.54 1.70339 -0.938877 0
M  V30 911 C 89.823 -0.648065 -3.5422 0
M  V30 912 C 89.676 -2.13255 -3.96033 0
M  V30 913 C 90.995 -0.0922113 -4.40003 0
M  V30 914 H 88.114 -0.157924 -0.719881 0
M  V30 915 H 90.756 -1.05069 -1.58305 0
M  V30 916 H 88.906 -0.120237 -3.88314 0
M  V30 917 H 90.578 -2.725 -3.72211 0
M  V30 918 H 88.821 -2.61823 -3.45878 0
M  V30 919 H 89.492 -2.23547 -5.04708 0
M  V30 920 H 91.968 -0.543343 -4.12537 0
M  V30 921 H 90.844 -0.274083 -5.48215 0
M  V30 922 H 91.105 1.00378 -4.30554 0
M  V30 923 N 90.1641 1.46063 -0.591896 0
M  V30 924 C 91.0961 2.28539 0.174001 0
M  V30 925 C 92.1091 1.39047 0.846753 0
M  V30 926 O 93.2981 1.63564 0.714774 0
M  V30 927 C 90.3981 3.14347 1.26645 0
M  V30 928 C 89.5711 4.32021 0.683856 0
M  V30 929 C 88.6301 4.99157 1.66518 0
M  V30 930 O 87.6561 5.56458 1.19763 0
M  V30 931 N 88.8581 4.97005 2.99943 0
M  V30 932 H 91.6231 2.94911 -0.533633 0
M  V30 933 H 89.1841 1.56077 -0.430294 0
M  V30 934 H 91.1761 3.56125 1.92242 0
M  V30 935 H 89.7461 2.49988 1.87682 0
M  V30 936 H 88.9661 3.93915 -0.1498 0
M  V30 937 H 90.2541 5.08059 0.274567 0
M  V30 938 H 89.6521 4.51714 3.40545 0
M  V30 939 H 88.2091 5.42696 3.61004 0
M  V30 940 N 91.6422 0.330177 1.54103 0
M  V30 941 C 92.5892 -0.532762 2.24567 0
M  V30 942 C 93.5592 -1.10635 1.23892 0
M  V30 943 O 94.7442 -1.14546 1.5259 0
M  V30 944 C 91.8842 -1.6845 3.01195 0
M  V30 945 C 90.9972 -1.13951 4.167 0
M  V30 946 C 90.1322 -2.25746 4.80845 0
M  V30 947 C 89.1712 -1.6853 5.88442 0
M  V30 948 N 88.3082 -2.74014 6.46421 0
M  V30 949 H 93.1482 0.0746905 2.97906 0
M  V30 950 H 90.6852 0.048632 1.4702 0
M  V30 951 H 92.6432 -2.36234 3.43874 0
M  V30 952 H 91.2732 -2.26314 2.30178 0
M  V30 953 H 90.3252 -0.35301 3.78758 0
M  V30 954 H 91.6372 -0.680892 4.94131 0
M  V30 955 H 90.7912 -3.01422 5.26526 0
M  V30 956 H 89.5302 -2.74947 4.0281 0
M  V30 957 H 88.5352 -0.913543 5.42157 0
M  V30 958 H 89.7602 -1.20198 6.68378 0
M  V30 959 H 87.7062 -3.22494 5.71256 0
M  V30 960 H 87.6232 -2.32735 7.19285 0
M  V30 961 H 88.8912 -3.49499 6.96757 0
M  V30 962 N 93.1203 -1.57491 0.0584922 0
M  V30 963 C 94.5313 -1.80526 -0.476138 0
M  V30 964 C 94.8823 -0.971334 -1.70469 0
M  V30 965 O 94.0073 -0.190012 -2.15564 0
M  V30 966 C 94.6023 -3.27424 -0.870587 0
M  V30 967 C 93.1613 -3.51351 -1.35015 0
M  V30 968 C 92.3083 -2.75343 -0.32887 0
M  V30 969 H 95.2593 -1.56133 0.284312 0
M  V30 970 H 95.2803 -3.38745 -1.73299 0
M  V30 971 H 94.7923 -3.88093 0.0237627 0
M  V30 972 H 92.8933 -2.95971 -2.26345 0
M  V30 973 H 93.0063 -4.60059 -1.33726 0
M  V30 974 H 91.3703 -2.417 -0.803321 0
M  V30 975 H 92.1533 -3.38743 0.557521 0
M  V30 976 N 94.5984 0.214957 -1.56127 0
M  V30 977 C 95.8474 0.936451 -1.78643 0
M  V30 978 C 96.1604 1.85237 -0.628229 0
M  V30 979 O 97.3664 2.613 -0.737186 0
M  V30 980 C 95.8224 1.7154 -3.16389 0
M  V30 981 C 95.4304 0.845299 -4.39953 0
M  V30 982 C 97.1744 2.42772 -3.48227 0
M  V30 983 C 95.0814 1.62198 -5.68723 0
M  V30 984 H 94.0114 0.353401 -0.666051 0
M  V30 985 H 96.6624 0.190169 -1.82512 0
M  V30 986 H 95.0444 2.50484 -3.06715 0
M  V30 987 H 96.2184 0.0959353 -4.607 0
M  V30 988 H 94.5334 0.244789 -4.1568 0
M  V30 989 H 97.1304 3.01394 -4.41663 0
M  V30 990 H 97.4734 3.15984 -2.71035 0
M  V30 991 H 98.0064 1.70813 -3.5926 0
M  V30 992 H 94.7454 0.933011 -6.48826 0
M  V30 993 H 94.2654 2.34579 -5.52026 0
M  V30 994 H 95.9444 2.18095 -6.09133 0
M  V30 995 N 96.0765 1.50051 0.48192 0
M  V30 996 C 97.3255 1.59741 1.23149 0
M  V30 997 C 97.6385 0.298163 1.93314 0
M  V30 998 O 98.8445 0.273835 2.70116 0
M  V30 999 C 97.3005 2.81926 2.23708 0
M  V30 1000 C 96.9085 4.18685 1.59396 0
M  V30 1001 C 98.6525 3.00956 2.99375 0
M  V30 1002 C 96.5595 5.3207 2.58178 0
M  V30 1003 H 95.4895 0.594838 0.46334 0
M  V30 1004 H 98.1405 1.76467 0.503169 0
M  V30 1005 H 96.5225 2.58736 2.99786 0
M  V30 1006 H 97.6965 4.52088 0.891811 0
M  V30 1007 H 96.0115 4.05171 0.960503 0
M  V30 1008 H 98.6085 3.82836 3.73283 0
M  V30 1009 H 98.9515 2.12258 3.58123 0
M  V30 1010 H 99.4845 3.24277 2.30411 0
M  V30 1011 H 96.2235 6.22888 2.04184 0
M  V30 1012 H 95.7435 5.03098 3.26577 0
M  V30 1013 H 97.4225 5.62196 3.20225 0
M  V30 1014 N 97.5546 -0.734337 1.39446 0
M  V30 1015 C 98.8016 -1.49391 1.36706 0
M  V30 1016 C 99.1296 -1.94465 -0.0367813 0
M  V30 1017 O 98.3846 -1.67154 -1.01774 0
M  V30 1018 C 98.6836 -2.74711 2.28623 0
M  V30 1019 C 98.3496 -2.48501 3.76242 0
M  V30 1020 C 97.0116 -2.41062 4.16464 0
M  V30 1021 C 99.3636 -2.26098 4.69606 0
M  V30 1022 C 96.6916 -2.09262 5.48112 0
M  V30 1023 C 99.0436 -1.95814 6.01531 0
M  V30 1024 C 97.7076 -1.86845 6.40816 0
M  V30 1025 H 96.9776 -0.546661 0.500243 0
M  V30 1026 H 99.6246 -0.842788 1.71957 0
M  V30 1027 H 97.9296 -3.44569 1.86492 0
M  V30 1028 H 99.6266 -3.32741 2.23796 0
M  V30 1029 H 96.2166 -2.55169 3.44364 0
M  V30 1030 H 100.401 -2.30812 4.39363 0
M  V30 1031 H 95.6566 -2.00841 5.77471 0
M  V30 1032 H 99.8306 -1.77488 6.73403 0
M  V30 1033 H 97.4576 -1.6197 7.42745 0
M  V30 1034 N 99.0327 -1.24633 -0.964593 0
M  V30 1035 C 100.31 -0.995809 -1.68354 0
M  V30 1036 C 100.69 0.480964 -2.05548 0
M  V30 1037 O 100.038 1.45599 -1.76105 0
M  V30 1038 C 100.248 -1.92177 -2.91323 0
M  V30 1039 C 101.596 -2.19446 -3.63495 0
M  V30 1040 O 102.62 -1.89855 -3.01386 0
M  V30 1041 O 101.479 -2.69714 -4.75307 0
M  V30 1042 H 98.5727 -0.376854 -0.736146 0
M  V30 1043 H 101.119 -1.35745 -1.0184 0
M  V30 1044 H 99.8907 -2.91938 -2.60553 0
M  V30 1045 H 99.5137 -1.56349 -3.65569 0
M  V30 1046 N 100.511 1.16574 -1.06058 0
M  V30 1047 C 101.751 1.88723 -0.78504 0
M  V30 1048 C 102.115 1.79706 0.676006 0
M  V30 1049 O 103.316 2.46757 1.06603 0
M  V30 1050 C 101.587 3.34338 -1.26304 0
M  V30 1051 S 103.146 4.24366 -1.1162 0
M  V30 1052 H 99.9638 0.651448 -0.284846 0
M  V30 1053 H 102.566 1.40732 -1.35701 0
M  V30 1054 H 101.27 3.38439 -2.32136 0
M  V30 1055 H 100.801 3.87378 -0.685719 0
M  V30 1056 H 102.816 4.96179 -0.0456539 0
M  V30 1057 N 101.989 0.842826 1.3317 0
M  V30 1058 C 103.405 0.531128 1.50503 0
M  V30 1059 C 103.605 -0.940734 1.78192 0
M  V30 1060 O 102.661 -1.72436 1.84451 0
M  V30 1061 C 103.974 1.40789 2.65705 0
M  V30 1062 C 105.522 1.40708 2.79589 0
M  V30 1063 C 105.997 2.26878 3.97857 0
M  V30 1064 N 107.488 2.24609 4.05099 0
M  V30 1065 C 108.223 2.88019 4.95815 0
M  V30 1066 N 107.719 3.60496 5.9162 0
M  V30 1067 N 109.512 2.77469 4.88843 0
M  V30 1068 H 101.663 1.79557 1.1346 0
M  V30 1069 H 103.926 0.766267 0.558156 0
M  V30 1070 H 103.632 2.454 2.51936 0
M  V30 1071 H 103.506 1.08677 3.61205 0
M  V30 1072 H 105.893 0.368668 2.92788 0
M  V30 1073 H 105.974 1.76829 1.84838 0
M  V30 1074 H 105.618 3.3078 3.85418 0
M  V30 1075 H 105.548 1.88096 4.91861 0
M  V30 1076 H 108.039 1.71906 3.36536 0
M  V30 1077 H 108.352 4.06076 6.57512 0
M  V30 1078 H 106.697 3.64604 5.91683 0
M  V30 1079 H 109.888 2.20406 4.12963 0
M  V30 1080 H 110.061 3.2717 5.59342 0
M  V30 1081 N 103.467 -1.45747 0.599634 0
M  V30 1082 C 104.692 -2.07178 0.0960198 0
M  V30 1083 C 105.117 -1.44268 -1.207 0
M  V30 1084 O 104.475 -0.532503 -1.73303 0
M  V30 1085 C 104.523 -3.60579 -0.0385348 0
M  V30 1086 O 103.627 -3.97713 -1.0908 0
M  V30 1087 H 102.968 -0.660251 0.0704593 0
M  V30 1088 H 105.498 -1.87124 0.827385 0
M  V30 1089 H 105.508 -4.07298 -0.239304 0
M  V30 1090 H 104.183 -4.05756 0.912947 0
M  V30 1091 H 102.76 -3.62678 -0.867135 0
M  V30 1092 N 104.945 -0.338344 -1.53925 0
M  V30 1093 C 106.361 0.0137736 -1.59594 0
M  V30 1094 C 106.561 1.49186 -1.35447 0
M  V30 1095 O 105.617 2.24987 -1.14616 0
M  V30 1096 C 106.93 -0.41773 -2.97784 0
M  V30 1097 C 108.478 -0.369633 -3.1081 0
M  V30 1098 C 108.953 -0.776524 -4.51369 0
M  V30 1099 N 110.444 -0.730506 -4.57403 0
M  V30 1100 C 111.179 -1.01736 -5.64303 0
M  V30 1101 N 110.675 -1.3721 -6.79077 0
M  V30 1102 N 112.468 -0.941942 -5.54151 0
M  V30 1103 H 104.619 -1.3012 -1.67876 0
M  V30 1104 H 106.882 -0.530082 -0.78595 0
M  V30 1105 H 106.588 -1.44811 -3.20504 0
M  V30 1106 H 106.462 0.209729 -3.76616 0
M  V30 1107 H 108.849 0.651568 -2.87817 0
M  V30 1108 H 108.93 -1.03223 -2.34049 0
M  V30 1109 H 108.574 -1.79571 -4.75096 0
M  V30 1110 H 108.504 -0.0914649 -5.26521 0
M  V30 1111 H 110.995 -0.468783 -3.74981 0
M  V30 1112 H 111.308 -1.57597 -7.5656 0
M  V30 1113 H 109.653 -1.4105 -6.80536 0
M  V30 1114 H 112.844 -0.664184 -4.63364 0
M  V30 1115 H 113.017 -1.16884 -6.37371 0
M  V30 1116 N 106.423 1.57458 -0.0668435 0
M  V30 1117 C 107.834 1.80776 0.466558 0
M  V30 1118 C 108.185 0.980361 1.69951 0
M  V30 1119 O 107.31 0.201441 2.1546 0
M  V30 1120 C 107.905 3.27881 0.85321 0
M  V30 1121 C 106.464 3.52062 1.3315 0
M  V30 1122 C 105.611 2.75513 0.314264 0
M  V30 1123 H 108.562 1.5598 -0.292588 0
M  V30 1124 H 108.583 3.39659 1.715 0
M  V30 1125 H 108.095 3.88075 -0.0443439 0
M  V30 1126 H 106.196 2.97167 2.24772 0
M  V30 1127 H 106.309 4.60762 1.31285 0
M  V30 1128 H 104.673 2.42123 0.790492 0
M  V30 1129 H 105.456 3.38442 -0.575477 0
M  V30 1130 N 107.901 -0.206675 1.56239 0
M  V30 1131 C 109.317 -0.557025 1.49564 0
M  V30 1132 C 109.517 -1.86424 0.764735 0
M  V30 1133 O 108.573 -2.50584 0.310491 0
M  V30 1134 C 109.886 -0.622478 2.94186 0
M  V30 1135 C 111.434 -0.712099 3.04792 0
M  V30 1136 C 111.909 -0.808767 4.50803 0
M  V30 1137 N 113.4 -0.8726 4.54907 0
M  V30 1138 C 114.135 -0.967365 5.65181 0
M  V30 1139 N 113.631 -1.02515 6.85173 0
M  V30 1140 N 115.424 -1.00366 5.53067 0
M  V30 1141 H 107.575 0.650943 2.02179 0
M  V30 1142 H 109.838 0.230387 0.919579 0
M  V30 1143 H 109.544 0.268727 3.50672 0
M  V30 1144 H 109.418 -1.4811 3.46905 0
M  V30 1145 H 111.805 -1.59374 2.48363 0
M  V30 1146 H 111.886 0.172489 2.55218 0
M  V30 1147 H 111.53 0.0684754 5.07854 0
M  V30 1148 H 111.46 -1.70899 4.98098 0
M  V30 1149 H 113.951 -0.837657 3.68499 0
M  V30 1150 H 114.264 -1.09765 7.64965 0
M  V30 1151 H 112.609 -0.994026 6.87855 0
M  V30 1152 H 115.8 -0.95527 4.58249 0
M  V30 1153 H 115.973 -1.07405 6.39037 0
M  V30 1154 N 109.379 -1.50304 -0.473955 0
M  V30 1155 C 110.327 -1.69482 -1.59307 0
M  V30 1156 C 111.321 -0.560669 -1.59853 0
M  V30 1157 O 112.527 -0.741087 -1.64036 0
M  V30 1158 H 108.902 -0.534892 -0.528578 0
M  V30 1159 H 110.873 -2.63364 -1.40293 0
M  V30 1160 C 109.622 -1.80354 -2.97267 0
M  V30 1161 H 108.945 -2.67012 -2.97564 0
M  V30 1162 H 110.385 -1.97798 -3.75036 0
M  V30 1163 C 108.844 -0.55448 -3.32306 0
M  V30 1164 O 109.374 0.307661 -4.0052 0
M  V30 1165 N 107.58 -0.409354 -2.87702 0
M  V30 1166 H 107.127 -1.11196 -2.32364 0
M  V30 1167 H 107.085 0.425223 -3.11511 0
M  V30 1168 N 110.857 0.726932 -1.39834 0
M  V30 1169 C 112.103 1.48884 -1.377 0
M  V30 1170 C 112.436 1.94185 0.0244852 0
M  V30 1171 O 111.711 1.67361 0.990986 0
M  V30 1172 C 111.994 2.72288 -2.3565 0
M  V30 1173 C 111.847 2.32956 -3.84775 0
M  V30 1174 C 113.166 3.74414 -2.31306 0
M  V30 1175 H 110.285 0.540062 -0.5015 0
M  V30 1176 H 112.927 0.830547 -1.70886 0
M  V30 1177 H 111.077 3.28457 -2.07481 0
M  V30 1178 H 112.749 1.82356 -4.23726 0
M  V30 1179 H 110.992 1.65088 -4.01159 0
M  V30 1180 H 111.663 3.21362 -4.4881 0
M  V30 1181 H 114.139 3.27849 -2.56231 0
M  V30 1182 H 113.015 4.58414 -3.01907 0
M  V30 1183 H 113.276 4.21909 -1.32081 0
M  V30 1184 N 112.336 1.25143 0.95797 0
M  V30 1185 C 113.747 1.08851 1.51685 0
M  V30 1186 C 114.098 -0.33687 1.93286 0
M  V30 1187 O 113.223 -1.22644 1.7829 0
M  V30 1188 C 113.818 1.96978 2.75654 0
M  V30 1189 C 112.377 1.84881 3.27866 0
M  V30 1190 C 111.524 1.91329 2.0072 0
M  V30 1191 H 114.475 1.38478 0.77522 0
M  V30 1192 H 114.496 1.5078 3.4935 0
M  V30 1193 H 114.008 3.00712 2.45345 0
M  V30 1194 H 112.109 0.840182 3.63004 0
M  V30 1195 H 112.222 2.6951 3.96107 0
M  V30 1196 H 110.586 1.35174 2.15871 0
M  V30 1197 H 111.369 2.96661 1.72764 0
M  V30 1198 N 113.814 -1.1601 1.06675 0
M  V30 1199 C 115.06 -1.86909 0.786945 0
M  V30 1200 C 115.393 -1.81717 -0.685018 0
M  V30 1201 O 114.668 -1.23551 -1.50218 0
M  V30 1202 C 114.951 -3.36313 1.28707 0
M  V30 1203 C 114.804 -3.50175 2.82308 0
M  V30 1204 C 116.123 -4.3084 0.898071 0
M  V30 1205 H 113.242 -0.678677 0.287343 0
M  V30 1206 H 115.884 -1.36336 1.32334 0
M  V30 1207 H 114.034 -3.79513 0.830768 0
M  V30 1208 H 115.706 -3.15886 3.36175 0
M  V30 1209 H 113.949 -2.91959 3.20847 0
M  V30 1210 H 114.62 -4.55116 3.12368 0
M  V30 1211 H 117.096 -3.95561 1.29114 0
M  V30 1212 H 115.972 -5.33876 1.27543 0
M  V30 1213 H 116.233 -4.41662 -0.196651 0
M  V30 1214 N 115.292 -0.849877 -1.32721 0
M  V30 1215 C 116.541 -0.447175 -1.96681 0
M  V30 1216 C 116.854 1.00135 -1.68025 0
M  V30 1217 O 118.06 1.50926 -2.25685 0
M  V30 1218 C 116.516 -0.7487 -3.52026 0
M  V30 1219 C 116.124 -2.21264 -3.89546 0
M  V30 1220 C 117.868 -0.413487 -4.22481 0
M  V30 1221 C 115.775 -2.45763 -5.37917 0
M  V30 1222 H 114.705 -0.163486 -0.736063 0
M  V30 1223 H 117.356 -1.03999 -1.51183 0
M  V30 1224 H 115.738 -0.0853727 -3.95908 0
M  V30 1225 H 116.912 -2.91736 -3.56689 0
M  V30 1226 H 115.227 -2.5119 -3.32103 0
M  V30 1227 H 117.824 -0.574017 -5.3161 0
M  V30 1228 H 118.167 0.644492 -4.11281 0
M  V30 1229 H 118.7 -1.03251 -3.84167 0
M  V30 1230 H 115.439 -3.50168 -5.54132 0
M  V30 1231 H 114.959 -1.79864 -5.72197 0
M  V30 1232 H 116.638 -2.29471 -6.0494 0
M  V30 1233 N 116.77 1.45427 -0.607355 0
M  V30 1234 C 117.998 2.06614 -0.108814 0
M  V30 1235 C 118.413 1.45204 1.2067 0
M  V30 1236 O 117.77 0.566132 1.73497 0
M  V30 1237 C 117.821 3.61481 0.0375347 0
M  V30 1238 O 117.542 4.20598 -1.22593 0
M  V30 1239 C 119.043 4.39652 0.567561 0
M  V30 1240 H 116.263 0.66747 -0.0687351 0
M  V30 1241 H 118.807 1.86675 -0.835022 0
M  V30 1242 H 116.962 3.80762 0.714068 0
M  V30 1243 H 117.376 5.1377 -1.05547 0
M  V30 1244 H 118.85 5.48518 0.61905 0
M  V30 1245 H 119.327 4.09417 1.58978 0
M  V30 1246 H 119.933 4.25234 -0.0749202 0
M  V30 1247 N 118.248 0.346503 1.53744 0
M  V30 1248 C 119.496 -0.248612 2.00565 0
M  V30 1249 C 119.817 -1.5083 1.23593 0
M  V30 1250 O 119.087 -1.92858 0.343912 0
M  V30 1251 H 117.667 -0.0948564 0.740953 0
M  V30 1252 H 120.329 0.468341 1.89189 0
M  V30 1253 H 119.425 -0.488994 3.08245 0
M  V30 1254 N 119.726 -1.57421 0.075193 0
M  V30 1255 C 120.951 -1.98364 -0.605515 0
M  V30 1256 C 121.376 -0.953383 -1.62149 0
M  V30 1257 O 120.734 0.0806053 -1.81121 0
M  V30 1258 C 120.782 -3.38332 -1.24756 0
M  V30 1259 O 119.886 -3.37959 -2.36342 0
M  V30 1260 H 119.227 -0.645553 -0.155428 0
M  V30 1261 H 121.757 -2.04044 0.150714 0
M  V30 1262 H 121.767 -3.75591 -1.5936 0
M  V30 1263 H 120.442 -4.12846 -0.503129 0
M  V30 1264 H 119.019 -3.12474 -2.03506 0
M  V30 1265 N 121.204 0.198386 -1.56346 0
M  V30 1266 C 122.151 1.24589 -1.94284 0
M  V30 1267 C 123.121 1.454 -0.802997 0
M  V30 1268 O 124.306 1.58588 -1.06087 0
M  V30 1269 C 121.446 2.58631 -2.28482 0
M  V30 1270 C 120.559 2.45426 -3.55514 0
M  V30 1271 C 119.694 3.7215 -3.79049 0
M  V30 1272 C 118.733 3.53763 -4.99518 0
M  V30 1273 N 117.87 4.72491 -5.19323 0
M  V30 1274 H 122.71 0.915356 -2.83593 0
M  V30 1275 H 120.247 0.440629 -1.40346 0
M  V30 1276 H 122.205 3.3672 -2.46324 0
M  V30 1277 H 120.835 2.89734 -1.42317 0
M  V30 1278 H 119.887 1.58652 -3.45737 0
M  V30 1279 H 121.199 2.27772 -4.43758 0
M  V30 1280 H 120.353 4.58679 -3.97113 0
M  V30 1281 H 119.092 3.92754 -2.89129 0
M  V30 1282 H 118.097 2.65619 -4.8138 0
M  V30 1283 H 119.322 3.34607 -5.90944 0
M  V30 1284 H 117.268 4.93365 -4.3235 0
M  V30 1285 H 117.185 4.5765 -6.01741 0
M  V30 1286 H 118.453 5.6038 -5.41843 0
M  V30 1287 N 122.682 1.50554 0.465978 0
M  V30 1288 C 123.959 1.5232 1.22712 0
M  V30 1289 C 124.339 0.270807 2.09356 0
M  V30 1290 O 123.687 -0.745541 2.15995 0
M  V30 1291 C 123.897 2.82175 2.05374 0
M  V30 1292 C 125.245 3.33033 2.6339 0
M  V30 1293 O 126.269 2.83531 2.15612 0
M  V30 1294 O 125.128 4.19336 3.50456 0
M  V30 1295 H 122.222 0.611183 0.557122 0
M  V30 1296 H 124.768 1.62847 0.477381 0
M  V30 1297 H 123.54 3.64797 1.41558 0
M  V30 1298 H 123.163 2.74675 2.87471 0
M  V30 1299 N 124.16 -0.719506 1.40217 0
M  V30 1300 C 125.09 -1.8465 1.42922 0
M  V30 1301 C 126.071 -1.67599 0.29062 0
M  V30 1302 O 127.256 -1.87688 0.498677 0
M  V30 1303 C 124.386 -3.22565 1.28722 0
M  V30 1304 C 123.34 -3.54281 2.40144 0
M  V30 1305 C 122.666 -4.91298 2.11023 0
M  V30 1306 C 123.966 -3.55676 3.82481 0
M  V30 1307 H 125.66 -1.82644 2.37237 0
M  V30 1308 H 123.206 -0.877305 1.1419 0
M  V30 1309 H 125.159 -4.01095 1.29232 0
M  V30 1310 H 123.883 -3.25137 0.308811 0
M  V30 1311 H 122.542 -2.78088 2.38877 0
M  V30 1312 H 122.19 -4.90468 1.11582 0
M  V30 1313 H 121.89 -5.13485 2.8567 0
M  V30 1314 H 123.414 -5.72166 2.13209 0
M  V30 1315 H 124.828 -4.24254 3.85592 0
M  V30 1316 H 123.225 -3.89388 4.56614 0
M  V30 1317 H 124.295 -2.55144 4.12346 0
M  V30 1318 N 125.638 -1.25649 -0.95132 0
M  V30 1319 C 126.57 -1.02112 -2.05197 0
M  V30 1320 C 127.583 0.0150571 -1.62793 0
M  V30 1321 O 128.772 -0.223874 -1.77091 0
M  V30 1322 C 125.872 -0.522361 -3.3485 0
M  V30 1323 C 125.045 -1.62546 -4.06076 0
M  V30 1324 C 124.104 -1.12649 -5.14001 0
M  V30 1325 O 123.13 -1.82156 -5.39266 0
M  V30 1326 N 124.332 0.03047 -5.80492 0
M  V30 1327 H 127.097 -1.96885 -2.25957 0
M  V30 1328 H 124.658 -1.16899 -1.1201 0
M  V30 1329 H 126.65 -0.172961 -4.0433 0
M  V30 1330 H 125.22 0.33151 -3.10837 0
M  V30 1331 H 124.44 -2.14628 -3.30649 0
M  V30 1332 H 125.728 -2.36644 -4.50419 0
M  V30 1333 H 125.126 0.611169 -5.62389 0
M  V30 1334 H 123.683 0.320875 -6.5101 0
M  V30 1335 N 127.117 1.15442 -1.07289 0
M  V30 1336 C 128.065 2.22225 -0.686952 0
M  V30 1337 C 129.059 1.66688 0.30193 0
M  V30 1338 O 130.265 1.79236 0.165712 0
M  V30 1339 H 126.64 0.723783 -0.204064 0
M  V30 1340 H 128.611 2.52056 -1.5972 0
M  V30 1341 C 127.36 3.47556 -0.100149 0
M  V30 1342 H 126.683 3.90612 -0.852211 0
M  V30 1343 H 128.123 4.23794 0.132235 0
M  V30 1344 C 126.582 3.16337 1.159 0
M  V30 1345 O 127.112 3.33074 2.24555 0
M  V30 1346 N 125.318 2.70385 1.06491 0
M  V30 1347 H 124.865 2.56966 0.180668 0
M  V30 1348 H 124.823 2.49871 1.90819 0
M  V30 1349 N 128.595 0.856903 1.32268 0
M  V30 1350 C 129.841 0.462069 1.97466 0
M  V30 1351 C 130.174 -0.980298 1.67642 0
M  V30 1352 O 129.449 -1.68824 0.965858 0
M  V30 1353 C 129.732 0.704336 3.53145 0
M  V30 1354 C 129.585 2.19529 3.9259 0
M  V30 1355 C 130.904 0.1622 4.39801 0
M  V30 1356 H 128.023 0.169357 0.717278 0
M  V30 1357 H 130.665 1.07574 1.56614 0
M  V30 1358 H 128.815 0.181999 3.88073 0
M  V30 1359 H 130.487 2.78387 3.67829 0
M  V30 1360 H 128.73 2.67292 3.41668 0
M  V30 1361 H 129.401 2.31549 5.01088 0
M  V30 1362 H 131.877 0.608905 4.11621 0
M  V30 1363 H 130.753 0.361265 5.4771 0
M  V30 1364 H 131.014 -0.935158 4.32096 0
M  V30 1365 N 130.073 -1.45103 0.615059 0
M  V30 1366 C 131.021 -2.32331 -0.111791 0
M  V30 1367 C 132.015 -1.46409 -0.852102 0
M  V30 1368 O 133.221 -1.62849 -0.766821 0
M  V30 1369 H 129.596 -0.749993 -0.0549072 0
M  V30 1370 H 131.567 -2.91407 0.642225 0
M  V30 1371 C 130.316 -3.3015 -1.09071 0
M  V30 1372 H 129.639 -3.96265 -0.530485 0
M  V30 1373 H 131.079 -3.93898 -1.56908 0
M  V30 1374 C 129.538 -2.57875 -2.168 0
M  V30 1375 O 130.068 -2.36567 -3.24652 0
M  V30 1376 N 128.274 -2.17884 -1.92289 0
M  V30 1377 H 127.821 -2.35413 -1.04587 0
M  V30 1378 H 127.779 -1.6985 -2.64572 0
M  V30 1379 N 131.551 -0.354651 -1.53558 0
M  V30 1380 C 132.8 0.239504 -2.00273 0
M  V30 1381 C 133.113 1.50759 -1.24623 0
M  V30 1382 O 134.319 2.17968 -1.61871 0
M  V30 1383 C 132.775 0.477341 -3.5672 0
M  V30 1384 C 132.383 -0.775488 -4.41237 0
M  V30 1385 C 134.127 1.02975 -4.11821 0
M  V30 1386 C 132.034 -0.507838 -5.89216 0
M  V30 1387 H 130.964 0.0932743 -0.748208 0
M  V30 1388 H 133.615 -0.471701 -1.77334 0
M  V30 1389 H 131.997 1.24953 -3.7577 0
M  V30 1390 H 133.171 -1.54963 -4.33962 0
M  V30 1391 H 131.486 -1.25033 -3.97185 0
M  V30 1392 H 134.083 1.24513 -5.2 0
M  V30 1393 H 134.426 1.98862 -3.65731 0
M  V30 1394 H 134.959 0.317994 -3.96527 0
M  V30 1395 H 131.698 -1.43674 -6.39561 0
M  V30 1396 H 131.218 0.228011 -5.99366 0
M  V30 1397 H 132.897 -0.129238 -6.46871 0
M  V30 1398 N 133.029 1.57378 -0.0835403 0
M  V30 1399 C 134.257 1.98263 0.59157 0
M  V30 1400 C 134.672 0.962302 1.62435 0
M  V30 1401 O 134.029 -0.049581 1.82433 0
M  V30 1402 C 134.08 3.39214 1.24965 0
M  V30 1403 O 133.801 4.37339 0.258186 0
M  V30 1404 C 135.302 3.95038 2.01147 0
M  V30 1405 H 132.522 0.651773 0.159477 0
M  V30 1406 H 135.066 2.03878 -0.159415 0
M  V30 1407 H 133.221 3.34649 1.95164 0
M  V30 1408 H 133.635 5.19371 0.731734 0
M  V30 1409 H 135.109 4.95848 2.42567 0
M  V30 1410 H 135.586 3.32222 2.87272 0
M  V30 1411 H 136.192 4.0304 1.35789 0
M  V30 1412 N 134.507 -0.190092 1.56449 0
M  V30 1413 C 135.437 -1.23816 1.97969 0
M  V30 1414 C 136.418 -1.47201 0.852395 0
M  V30 1415 O 137.603 -1.58854 1.1171 0
M  V30 1416 C 134.733 -2.5813 2.3235 0
M  V30 1417 C 133.687 -2.49348 3.47864 0
M  V30 1418 C 133.013 -3.8798 3.67934 0
M  V30 1419 C 134.313 -2.01424 4.81898 0
M  V30 1420 H 136.007 -0.89311 2.85769 0
M  V30 1421 H 133.553 -0.428177 1.37487 0
M  V30 1422 H 135.506 -3.31637 2.59991 0
M  V30 1423 H 134.23 -2.94386 1.41438 0
M  V30 1424 H 132.889 -1.78297 3.20321 0
M  V30 1425 H 132.537 -4.21597 2.74344 0
M  V30 1426 H 132.237 -3.82978 4.45648 0
M  V30 1427 H 133.761 -4.63101 3.97957 0
M  V30 1428 H 135.175 -2.64693 5.08538 0
M  V30 1429 H 133.572 -2.07413 5.63116 0
M  V30 1430 H 134.642 -0.967677 4.75146 0
M  V30 1431 N 135.985 -1.50799 -0.457987 0
M  V30 1432 C 137.401 -1.38515 -0.792819 0
M  V30 1433 C 137.601 -0.451409 -1.96379 0
M  V30 1434 O 136.657 0.10112 -2.52297 0
M  V30 1435 C 137.97 -2.80149 -1.09258 0
M  V30 1436 C 139.518 -2.89156 -1.19825 0
M  V30 1437 C 139.993 -4.31651 -1.53106 0
M  V30 1438 N 141.484 -4.34662 -1.60072 0
M  V30 1439 C 142.219 -5.41928 -1.87354 0
M  V30 1440 N 141.715 -6.59384 -2.12568 0
M  V30 1441 N 143.508 -5.29385 -1.88965 0
M  V30 1442 H 135.659 -2.10073 0.313511 0
M  V30 1443 H 137.922 -0.944803 0.0777862 0
M  V30 1444 H 137.628 -3.50374 -0.305084 0
M  V30 1445 H 137.502 -3.18204 -2.02549 0
M  V30 1446 H 139.889 -2.19141 -1.97639 0
M  V30 1447 H 139.97 -2.54626 -0.244821 0
M  V30 1448 H 139.614 -5.02208 -0.758266 0
M  V30 1449 H 139.544 -4.63678 -2.49621 0
M  V30 1450 H 142.035 -3.49973 -1.42573 0
M  V30 1451 H 142.348 -7.36934 -2.32696 0
M  V30 1452 H 140.693 -6.62535 -2.09933 0
M  V30 1453 H 143.884 -4.36616 -1.68772 0
M  V30 1454 H 144.057 -6.13066 -2.09891 0
M  V30 1455 N 137.463 0.71206 -1.40597 0
M  V30 1456 C 138.712 1.46754 -1.38369 0
M  V30 1457 C 139.025 1.95598 0.0097839 0
M  V30 1458 O 140.231 2.71059 0.154677 0
M  V30 1459 C 138.687 2.65289 -2.43207 0
M  V30 1460 C 138.295 2.23301 -3.88382 0
M  V30 1461 C 140.039 3.43008 -2.50091 0
M  V30 1462 C 137.946 3.38696 -4.84808 0
M  V30 1463 H 136.876 0.55118 -0.514506 0
M  V30 1464 H 139.527 0.774616 -1.66349 0
M  V30 1465 H 137.909 3.36769 -2.08332 0
M  V30 1466 H 139.083 1.59218 -4.32419 0
M  V30 1467 H 137.398 1.58618 -3.85006 0
M  V30 1468 H 139.995 4.28881 -3.1932 0
M  V30 1469 H 140.338 3.87065 -1.53253 0
M  V30 1470 H 140.871 2.78574 -2.83974 0
M  V30 1471 H 137.61 2.99668 -5.82992 0
M  V30 1472 H 137.13 4.01683 -4.45433 0
M  V30 1473 H 138.809 4.04712 -5.04794 0
M  V30 1474 N 138.941 1.26152 0.944643 0
M  V30 1475 C 139.871 1.09902 2.06019 0
M  V30 1476 C 140.852 0.00519538 1.70099 0
M  V30 1477 O 142.037 0.176583 1.93396 0
M  V30 1478 C 139.167 0.727562 3.39594 0
M  V30 1479 C 138.121 1.77274 3.89561 0
M  V30 1480 C 137.447 1.25569 5.19747 0
M  V30 1481 C 138.747 3.17357 4.14827 0
M  V30 1482 H 140.441 2.03217 2.19871 0
M  V30 1483 H 137.987 0.978452 1.05652 0
M  V30 1484 H 139.94 0.600777 4.17095 0
M  V30 1485 H 138.664 -0.241287 3.25707 0
M  V30 1486 H 137.323 1.88814 3.14237 0
M  V30 1487 H 136.971 0.276783 5.02238 0
M  V30 1488 H 136.671 1.95433 5.54148 0
M  V30 1489 H 138.195 1.1415 5.99835 0
M  V30 1490 H 139.609 3.08914 4.82954 0
M  V30 1491 H 138.006 3.84781 4.60504 0
M  V30 1492 H 139.076 3.63673 3.20734 0
M  V30 1493 N 140.419 -1.14872 1.07899 0
M  V30 1494 C 141.666 -1.85789 0.805532 0
M  V30 1495 C 141.994 -1.82649 -0.668561 0
M  V30 1496 O 141.249 -1.24858 -1.50695 0
M  V30 1497 C 141.548 -3.34223 1.26609 0
M  V30 1498 C 141.214 -3.57555 2.74709 0
M  V30 1499 C 139.876 -3.63631 3.1516 0
M  V30 1500 C 142.228 -3.66803 3.70277 0
M  V30 1501 C 139.556 -3.76473 4.49983 0
M  V30 1502 C 141.908 -3.8117 5.04869 0
M  V30 1503 C 140.572 -3.85494 5.44932 0
M  V30 1504 H 139.842 -0.679849 0.294765 0
M  V30 1505 H 142.489 -1.3572 1.35101 0
M  V30 1506 H 140.794 -3.86536 0.640103 0
M  V30 1507 H 142.491 -3.87511 1.03132 0
M  V30 1508 H 139.081 -3.5347 2.42398 0
M  V30 1509 H 143.265 -3.61404 3.40149 0
M  V30 1510 H 138.521 -3.7808 4.80484 0
M  V30 1511 H 142.695 -3.87268 5.78789 0
M  V30 1512 H 140.322 -3.95197 6.49403 0
M  V30 1513 N 141.898 -0.863906 -1.31812 0
M  V30 1514 C 143.314 -0.555004 -1.49639 0
M  V30 1515 C 143.514 0.912266 -1.79666 0
M  V30 1516 O 142.57 1.69479 -1.87171 0
M  V30 1517 C 143.883 -1.44998 -2.63431 0
M  V30 1518 C 145.431 -1.45138 -2.77316 0
M  V30 1519 C 145.906 -2.33179 -3.94197 0
M  V30 1520 N 147.397 -2.31025 -4.01474 0
M  V30 1521 C 148.132 -2.95871 -4.9117 0
M  V30 1522 N 147.628 -3.69863 -5.8581 0
M  V30 1523 N 149.421 -2.85211 -4.84367 0
M  V30 1524 H 141.572 -1.81339 -1.10589 0
M  V30 1525 H 143.835 -0.77505 -0.545895 0
M  V30 1526 H 143.541 -2.49377 -2.48 0
M  V30 1527 H 143.415 -1.14409 -3.59431 0
M  V30 1528 H 145.802 -0.415201 -2.92164 0
M  V30 1529 H 145.883 -1.79747 -1.82001 0
M  V30 1530 H 145.527 -3.3687 -3.80107 0
M  V30 1531 H 145.457 -1.95897 -4.88807 0
M  V30 1532 H 147.948 -1.77238 -3.33759 0
M  V30 1533 H 148.261 -4.16486 -6.50968 0
M  V30 1534 H 146.606 -3.73971 -5.85808 0
M  V30 1535 H 149.797 -2.26948 -4.09405 0
M  V30 1536 H 149.97 -3.36027 -5.54066 0
M  V30 1537 N 143.376 1.44774 -0.622745 0
M  V30 1538 C 144.787 1.85546 -0.207226 0
M  V30 1539 C 145.138 1.52093 1.23944 0
M  V30 1540 O 144.263 0.95492 1.94191 0
M  V30 1541 C 144.858 3.36781 -0.369313 0
M  V30 1542 C 143.417 3.76399 -0.00836847 0
M  V30 1543 C 142.564 2.68664 -0.686651 0
M  V30 1544 H 145.515 1.3536 -0.828454 0
M  V30 1545 H 145.536 3.78453 0.394162 0
M  V30 1546 H 145.048 3.61098 -1.42231 0
M  V30 1547 H 143.149 3.57698 1.04322 0
M  V30 1548 H 143.262 4.7732 -0.412584 0
M  V30 1549 H 141.626 2.54404 -0.122777 0
M  V30 1550 H 142.409 2.95815 -1.74208 0
M  V30 1551 N 144.854 0.36279 1.53368 0
M  V30 1552 C 146.1 -0.228113 2.01513 0
M  V30 1553 C 146.433 -1.48648 1.2497 0
M  V30 1554 O 145.708 -1.91459 0.342616 0
M  V30 1555 C 145.991 -0.522884 3.56284 0
M  V30 1556 C 145.844 0.74892 4.43521 0
M  V30 1557 C 147.163 -1.32461 4.19693 0
M  V30 1558 H 144.282 -0.0814343 0.732487 0
M  V30 1559 H 146.924 0.48713 1.83649 0
M  V30 1560 H 145.074 -1.1322 3.71636 0
M  V30 1561 H 146.746 1.38648 4.39971 0
M  V30 1562 H 144.989 1.36986 4.11603 0
M  V30 1563 H 145.66 0.497667 5.49752 0
M  V30 1564 H 148.136 -0.809203 4.08156 0
M  V30 1565 H 147.012 -1.49961 5.28018 0
M  V30 1566 H 147.273 -2.33232 3.75573 0
M  V30 1567 N 146.332 -1.57332 0.0918853 0
M  V30 1568 C 147.295 -2.12708 -0.85369 0
M  V30 1569 C 148.295 -1.05561 -1.213 0
M  V30 1570 O 149.485 -1.31461 -1.14296 0
M  V30 1571 C 146.617 -2.64503 -2.15061 0
M  V30 1572 H 147.81 -2.97573 -0.3729 0
M  V30 1573 H 145.363 -1.55509 -0.157072 0
M  V30 1574 H 146.098 -1.83149 -2.67632 0
M  V30 1575 H 145.883 -3.4284 -1.90272 0
M  V30 1576 H 147.373 -3.07351 -2.82711 0
M  V30 1577 N 147.81 0.181792 -1.56548 0
M  V30 1578 C 149.035 0.920019 -1.85877 0
M  V30 1579 C 149.46 1.75494 -0.677021 0
M  V30 1580 O 148.818 1.77399 0.374056 0
M  V30 1581 C 148.866 1.78112 -3.13542 0
M  V30 1582 O 147.97 2.88152 -2.95029 0
M  V30 1583 H 147.311 0.258334 -0.611686 0
M  V30 1584 H 149.841 0.183092 -2.03779 0
M  V30 1585 H 149.851 2.18314 -3.44678 0
M  V30 1586 H 148.526 1.16777 -3.99169 0
M  V30 1587 H 147.103 2.51609 -2.75222 0
M  V30 1588 N 149.288 1.51039 0.449983 0
M  V30 1589 C 150.22 1.67617 1.56324 0
M  V30 1590 C 151.233 0.557083 1.52972 0
M  V30 1591 O 152.422 0.830989 1.57977 0
M  V30 1592 C 149.522 1.66402 2.95235 0
M  V30 1593 C 148.695 2.9469 3.23229 0
M  V30 1594 C 147.754 2.85832 4.41799 0
M  V30 1595 O 146.78 3.59785 4.41071 0
M  V30 1596 N 147.982 2.00821 5.44657 0
M  V30 1597 H 150.747 2.63648 1.42512 0
M  V30 1598 H 148.308 1.48767 0.638737 0
M  V30 1599 H 150.3 1.58062 3.72557 0
M  V30 1600 H 148.87 0.780182 3.02708 0
M  V30 1601 H 148.09 3.16996 2.34323 0
M  V30 1602 H 149.378 3.79636 3.38754 0
M  V30 1603 H 148.776 1.40091 5.48079 0
M  V30 1604 H 147.333 1.98368 6.20881 0
M  V30 1605 N 150.766 -0.704594 1.40972 0
M  V30 1606 C 151.696 -1.83124 1.44872 0
M  V30 1607 C 152.677 -1.67281 0.30838 0
M  V30 1608 O 153.862 -1.87149 0.518556 0
M  V30 1609 C 150.992 -3.21181 1.32136 0
M  V30 1610 C 149.946 -3.51714 2.43888 0
M  V30 1611 C 149.272 -4.89032 2.16222 0
M  V30 1612 C 150.572 -3.516 3.86232 0
M  V30 1613 H 152.266 -1.80117 2.39161 0
M  V30 1614 H 149.812 -0.865145 1.15114 0
M  V30 1615 H 151.765 -3.99702 1.33479 0
M  V30 1616 H 150.489 -3.24791 0.343279 0
M  V30 1617 H 149.148 -2.75539 2.41813 0
M  V30 1618 H 148.796 -4.89256 1.16778 0
M  V30 1619 H 148.496 -5.10426 2.911 0
M  V30 1620 H 150.02 -5.69873 2.19265 0
M  V30 1621 H 151.434 -4.2014 3.9007 0
M  V30 1622 H 149.831 -3.84523 4.60719 0
M  V30 1623 H 150.901 -2.50757 4.15029 0
M  V30 1624 N 152.244 -1.26651 -0.937939 0
M  V30 1625 C 153.655 -1.1125 -1.49934 0
M  V30 1626 C 154.006 0.306077 -1.93798 0
M  V30 1627 O 153.131 1.19792 -1.80219 0
M  V30 1628 C 153.726 -2.01339 -2.72485 0
M  V30 1629 C 152.285 -1.90074 -3.24883 0
M  V30 1630 C 151.432 -1.94498 -1.97651 0
M  V30 1631 H 154.383 -1.39693 -0.753091 0
M  V30 1632 H 154.404 -1.56319 -3.46907 0
M  V30 1633 H 153.916 -3.04577 -2.40529 0
M  V30 1634 H 152.017 -0.897827 -3.61621 0
M  V30 1635 H 152.13 -2.75778 -3.9177 0
M  V30 1636 H 150.494 -1.38591 -2.13693 0
M  V30 1637 H 151.277 -2.99372 -1.68022 0
M  V30 1638 N 153.722 1.14298 -1.08507 0
M  V30 1639 C 155.138 1.37347 -0.812901 0
M  V30 1640 C 155.338 1.93052 0.577325 0
M  V30 1641 O 154.394 2.14389 1.33393 0
M  V30 1642 C 155.707 2.33359 -1.89642 0
M  V30 1643 C 157.255 2.46996 -1.92255 0
M  V30 1644 C 157.73 3.46309 -2.99724 0
M  V30 1645 N 159.221 3.53853 -2.98902 0
M  V30 1646 C 159.956 4.3055 -3.787 0
M  V30 1647 N 159.452 5.10482 -4.6838 0
M  V30 1648 N 161.245 4.25757 -3.66998 0
M  V30 1649 H 153.396 0.764867 -1.9815 0
M  V30 1650 H 155.659 0.398966 -0.859959 0
M  V30 1651 H 155.365 1.99565 -2.89597 0
M  V30 1652 H 155.239 3.33274 -1.76659 0
M  V30 1653 H 157.626 2.80081 -0.929445 0
M  V30 1654 H 157.707 1.47039 -2.09316 0
M  V30 1655 H 157.351 3.13957 -3.99241 0
M  V30 1656 H 157.281 4.46049 -2.79907 0
M  V30 1657 H 159.772 2.96812 -2.33904 0
M  V30 1658 H 160.085 5.66284 -5.25873 0
M  V30 1659 H 158.43 5.09747 -4.72422 0
M  V30 1660 H 161.621 3.62383 -2.96304 0
M  V30 1661 H 161.794 4.85279 -4.29427 0
M  V30 1662 N 155.201 0.870884 1.31352 0
M  V30 1663 C 156.45 0.478408 1.95944 0
M  V30 1664 C 156.763 -0.974493 1.69597 0
M  V30 1665 O 157.969 -1.47316 2.28058 0
M  V30 1666 C 156.425 0.804609 3.50791 0
M  V30 1667 C 156.033 2.27433 3.85977 0
M  V30 1668 C 157.777 0.480648 4.2177 0
M  V30 1669 C 155.684 2.5429 5.33939 0
M  V30 1670 H 154.614 0.175175 0.733369 0
M  V30 1671 H 157.265 1.06391 1.4951 0
M  V30 1672 H 155.647 0.148347 3.95722 0
M  V30 1673 H 156.821 2.97373 3.52002 0
M  V30 1674 H 155.136 2.56442 3.28065 0
M  V30 1675 H 157.733 0.658519 5.30629 0
M  V30 1676 H 158.076 -0.578979 4.12254 0
M  V30 1677 H 158.609 1.09349 3.82476 0
M  V30 1678 H 155.348 3.58939 5.48491 0
M  V30 1679 H 154.868 1.88945 5.69263 0
M  V30 1680 H 156.547 2.39066 6.01212 0
M  V30 1681 N 156.679 -1.44442 0.630414 0
M  V30 1682 C 157.926 -2.02052 0.134617 0
M  V30 1683 C 158.254 -1.49576 -1.24327 0
M  V30 1684 O 157.509 -0.669806 -1.83881 0
M  V30 1685 C 157.808 -3.57332 0.0697835 0
M  V30 1686 C 157.474 -4.29058 1.38635 0
M  V30 1687 C 156.136 -4.4837 1.74694 0
M  V30 1688 C 158.488 -4.69872 2.25543 0
M  V30 1689 C 155.816 -5.05756 2.97369 0
M  V30 1690 C 158.168 -5.28616 3.47487 0
M  V30 1691 C 156.832 -5.46147 3.8377 0
M  V30 1692 H 156.102 -0.739361 0.0492598 0
M  V30 1693 H 158.749 -1.73217 0.816586 0
M  V30 1694 H 157.054 -3.85577 -0.695553 0
M  V30 1695 H 158.751 -3.99637 -0.330344 0
M  V30 1696 H 155.341 -4.14357 1.09574 0
M  V30 1697 H 159.525 -4.54666 1.98979 0
M  V30 1698 H 154.781 -5.17515 3.25558 0
M  V30 1699 H 158.955 -5.59192 4.15063 0
M  V30 1700 H 156.582 -5.9038 4.7891 0
M  V30 1701 N 158.157 -0.370918 -1.53173 0
M  V30 1702 C 159.385 0.217704 -2.05751 0
M  V30 1703 C 159.8 1.42018 -1.24404 0
M  V30 1704 O 159.157 1.80245 -0.286033 0
M  V30 1705 C 159.208 0.605954 -3.56385 0
M  V30 1706 O 158.929 -0.548734 -4.3465 0
M  V30 1707 C 160.43 1.2524 -4.25241 0
M  V30 1708 H 157.65 0.0371659 -0.66997 0
M  V30 1709 H 160.194 -0.530832 -1.9749 0
M  V30 1710 H 158.349 1.3044 -3.6478 0
M  V30 1711 H 158.763 -0.23376 -5.23979 0
M  V30 1712 H 160.237 1.47458 -5.3194 0
M  V30 1713 H 160.714 2.2143 -3.79296 0
M  V30 1714 H 161.32 0.595233 -4.21114 0
M  V30 1715 N 159.635 1.57281 -0.100228 0
M  V30 1716 C 160.86 1.99302 0.573881 0
M  V30 1717 C 161.285 0.979059 1.60611 0
M  V30 1718 O 160.643 -0.0517803 1.81226 0
M  V30 1719 C 160.691 3.40274 1.19358 0
M  V30 1720 O 159.795 3.41676 2.30935 0
M  V30 1721 H 159.136 0.647944 0.145138 0
M  V30 1722 H 161.666 2.03779 -0.183156 0
M  V30 1723 H 161.676 3.78078 1.53365 0
M  V30 1724 H 160.351 4.13594 0.437385 0
M  V30 1725 H 158.928 3.15672 1.98509 0
M  V30 1726 N 161.113 -0.173488 1.56642 0
M  V30 1727 C 162.362 -0.888758 1.81063 0
M  V30 1728 C 162.675 -1.83506 0.67712 0
M  V30 1729 O 163.881 -2.59254 0.806206 0
M  V30 1730 C 162.337 -1.63091 3.20826 0
M  V30 1731 C 161.945 -0.728357 4.4204 0
M  V30 1732 C 163.689 -2.33454 3.54541 0
M  V30 1733 C 161.596 -1.47062 5.72823 0
M  V30 1734 H 160.526 -0.335618 0.675186 0
M  V30 1735 H 163.177 -0.141712 1.82952 0
M  V30 1736 H 161.559 -2.42263 3.13248 0
M  V30 1737 H 162.733 0.0262449 4.60793 0
M  V30 1738 H 161.048 -0.134492 4.16183 0
M  V30 1739 H 163.645 -2.89578 4.49498 0
M  V30 1740 H 163.988 -3.08687 2.79317 0
M  V30 1741 H 164.521 -1.61227 3.63663 0
M  V30 1742 H 161.26 -0.760658 6.51072 0
M  V30 1743 H 160.78 -2.1986 5.58052 0
M  V30 1744 H 162.459 -2.01868 6.14702 0
M  V30 1745 N 162.591 -1.51276 -0.441967 0
M  V30 1746 C 163.839 -1.63392 -1.18943 0
M  V30 1747 C 164.16 -0.350159 -1.9183 0
M  V30 1748 O 163.43 0.633784 -1.85364 0
M  V30 1749 H 162.01 -0.602164 -0.442049 0
M  V30 1750 H 164.672 -1.88186 -0.507165 0
M  V30 1751 H 163.768 -2.45934 -1.92154 0
M  V30 1752 N 164.069 0.697108 -1.41344 0
M  V30 1753 C 164.979 1.84088 -1.45427 0
M  V30 1754 C 165.995 1.70545 -0.34501 0
M  V30 1755 O 167.171 1.92488 -0.592492 0
M  V30 1756 C 164.236 3.20056 -1.33286 0
M  V30 1757 C 163.297 3.45718 -2.54514 0
M  V30 1758 C 162.53 4.75199 -2.42944 0
M  V30 1759 O 162.753 5.51579 -1.45318 0
M  V30 1760 O 161.687 5.0161 -3.32672 0
M  V30 1761 H 165.513 1.836 -2.41919 0
M  V30 1762 H 163.098 0.849966 -1.22866 0
M  V30 1763 H 164.98 4.01236 -1.28794 0
M  V30 1764 H 163.655 3.2123 -0.39909 0
M  V30 1765 H 162.562 2.64474 -2.64583 0
M  V30 1766 H 163.895 3.49356 -3.46715 0
M  V30 1767 N 165.547 1.27147 0.931209 0
M  V30 1768 C 166.824 1.0401 1.65654 0
M  V30 1769 C 167.204 -0.426297 2.06751 0
M  V30 1770 O 166.552 -1.40879 1.79904 0
M  V30 1771 C 166.762 1.99834 2.86125 0
M  V30 1772 C 168.11 2.29007 3.57549 0
M  V30 1773 O 169.134 1.97779 2.96246 0
M  V30 1774 O 167.993 2.82222 4.67989 0
M  V30 1775 H 165.087 0.396239 0.725895 0
M  V30 1776 H 167.633 1.38397 0.982056 0
M  V30 1777 H 166.405 2.98744 2.52721 0
M  V30 1778 H 166.028 1.65987 3.61295 0
M  V30 1779 N 167.025 -1.13721 1.09112 0
M  V30 1780 C 168.255 -1.88499 0.845671 0
M  V30 1781 C 168.663 -1.79218 -0.606432 0
M  V30 1782 O 168.006 -1.1544 -1.42896 0
M  V30 1783 C 168.068 -3.38954 1.19793 0
M  V30 1784 C 167.732 -3.72018 2.65428 0
M  V30 1785 C 168.729 -3.7153 3.63677 0
M  V30 1786 C 166.414 -4.01775 3.01467 0
M  V30 1787 C 168.408 -4.00336 4.95994 0
M  V30 1788 C 166.095 -4.30243 4.33975 0
M  V30 1789 C 167.093 -4.29508 5.31048 0
M  V30 1790 O 166.781 -4.5728 6.61173 0
M  V30 1791 H 166.513 -0.603702 0.304171 0
M  V30 1792 H 169.067 -1.44903 1.45576 0
M  V30 1793 H 167.297 -3.83039 0.530871 0
M  V30 1794 H 168.986 -3.95052 0.932146 0
M  V30 1795 H 169.752 -3.4862 3.37179 0
M  V30 1796 H 165.631 -4.01496 2.26544 0
M  V30 1797 H 169.175 -3.99678 5.71755 0
M  V30 1798 H 165.072 -4.52625 4.60219 0
M  V30 1799 H 165.84 -4.74964 6.66597 0
M  V30 1800 N 168.503 -0.877838 -1.30888 0
M  V30 1801 C 169.78 -0.413052 -1.91189 0
M  V30 1802 C 170.16 1.1056 -1.79832 0
M  V30 1803 O 169.508 1.93771 -1.21099 0
M  V30 1804 C 169.718 -0.903191 -3.3711 0
M  V30 1805 C 171.066 -0.93395 -4.14201 0
M  V30 1806 O 172.09 -0.849373 -3.45925 0
M  V30 1807 O 170.949 -1.05772 -5.36167 0
M  V30 1808 H 168.043 -0.125035 -0.817493 0
M  V30 1809 H 170.589 -0.966269 -1.39504 0
M  V30 1810 H 169.361 -1.94692 -3.39427 0
M  V30 1811 H 168.984 -0.328732 -3.96239 0
M  V30 1812 N 169.982 1.44106 -0.638065 0
M  V30 1813 C 170.892 2.34513 0.0637334 0
M  V30 1814 C 171.908 1.53018 0.828346 0
M  V30 1815 O 173.084 1.85723 0.779036 0
M  V30 1816 C 170.149 3.31095 1.02844 0
M  V30 1817 C 169.21 4.28497 0.26244 0
M  V30 1818 C 168.443 5.20465 1.1812 0
M  V30 1819 O 168.666 5.16514 2.42011 0
M  V30 1820 O 167.6 5.98251 0.661774 0
M  V30 1821 H 171.426 2.95989 -0.68003 0
M  V30 1822 H 169.011 1.43994 -0.398252 0
M  V30 1823 H 170.893 3.90526 1.58327 0
M  V30 1824 H 169.568 2.72144 1.7527 0
M  V30 1825 H 168.475 3.72592 -0.335602 0
M  V30 1826 H 169.808 4.90388 -0.421936 0
M  V30 1827 N 171.46 0.379036 1.52974 0
M  V30 1828 C 172.876 0.0285448 1.59574 0
M  V30 1829 C 173.076 -1.45542 1.39355 0
M  V30 1830 O 172.132 -2.2187 1.20541 0
M  V30 1831 C 173.445 0.496535 2.96572 0
M  V30 1832 C 174.993 0.451909 3.0972 0
M  V30 1833 C 175.468 0.895924 4.49152 0
M  V30 1834 N 176.959 0.851522 4.55306 0
M  V30 1835 C 177.694 1.16661 5.61407 0
M  V30 1836 N 177.19 1.55166 6.752 0
M  V30 1837 N 178.983 1.08853 5.51459 0
M  V30 1838 H 171.134 1.34525 1.64367 0
M  V30 1839 H 173.397 0.550733 0.771619 0
M  V30 1840 H 173.103 1.53258 3.16552 0
M  V30 1841 H 172.977 -0.109802 3.7704 0
M  V30 1842 H 175.364 -0.575029 2.89443 0
M  V30 1843 H 175.445 1.09392 2.3123 0
M  V30 1844 H 175.089 1.92104 4.70168 0
M  V30 1845 H 175.019 0.23103 5.26093 0
M  V30 1846 H 177.51 0.568038 3.73606 0
M  V30 1847 H 177.823 1.776 7.52116 0
M  V30 1848 H 176.168 1.59044 6.76557 0
M  V30 1849 H 179.359 0.786803 4.6144 0
M  V30 1850 H 179.532 1.33742 6.34048 0
M  V30 1851 N 172.938 -1.57226 0.108567 0
M  V30 1852 C 174.184 -1.95121 -0.552761 0
M  V30 1853 C 174.517 -0.991345 -1.66991 0
M  V30 1854 O 173.792 -0.0267211 -1.94482 0
M  V30 1855 C 174.075 -3.43039 -1.09528 0
M  V30 1856 C 173.928 -4.49797 0.0177332 0
M  V30 1857 C 175.247 -3.92567 -1.98945 0
M  V30 1858 H 172.366 -0.709496 -0.199461 0
M  V30 1859 H 175.008 -1.89126 0.182011 0
M  V30 1860 H 173.158 -3.48279 -1.72146 0
M  V30 1861 H 174.83 -4.56661 0.652584 0
M  V30 1862 H 173.073 -4.284 0.682309 0
M  V30 1863 H 173.744 -5.50528 -0.402919 0
M  V30 1864 H 176.22 -3.89565 -1.46214 0
M  V30 1865 H 175.096 -4.96605 -2.33827 0
M  V30 1866 H 175.357 -3.32648 -2.91201 0
M  V30 1867 N 174.416 0.165178 -1.56732 0
M  V30 1868 C 175.346 1.20651 -1.99914 0
M  V30 1869 C 176.327 1.45827 -0.875705 0
M  V30 1870 O 177.512 1.57057 -1.14223 0
M  V30 1871 C 174.642 2.54401 -2.36427 0
M  V30 1872 C 173.596 2.43782 -3.51787 0
M  V30 1873 C 172.922 3.82078 -3.7406 0
M  V30 1874 C 174.222 1.93732 -4.85041 0
M  V30 1875 H 175.916 0.847534 -2.87154 0
M  V30 1876 H 173.462 0.40625 -1.38151 0
M  V30 1877 H 175.415 3.27458 -2.65234 0
M  V30 1878 H 174.139 2.92098 -1.46103 0
M  V30 1879 H 172.798 1.73178 -3.23117 0
M  V30 1880 H 172.446 4.17179 -2.81017 0
M  V30 1881 H 172.146 3.7584 -4.51684 0
M  V30 1882 H 173.67 4.56712 -4.05274 0
M  V30 1883 H 175.084 2.56569 -5.12684 0
M  V30 1884 H 173.481 1.98428 -5.66345 0
M  V30 1885 H 174.551 0.891962 -4.76626 0
M  V30 1886 N 175.894 1.51508 0.433938 0
M  V30 1887 C 177.305 1.56784 1.01369 0
M  V30 1888 C 177.656 0.393349 1.92217 0
M  V30 1889 O 176.781 -0.489441 2.10792 0
M  V30 1890 C 177.376 2.84144 1.8452 0
M  V30 1891 C 175.935 2.9198 2.37539 0
M  V30 1892 C 175.082 2.51482 1.16843 0
M  V30 1893 H 178.033 1.57236 0.215081 0
M  V30 1894 H 178.054 2.68098 2.70007 0
M  V30 1895 H 177.566 3.69607 1.18373 0
M  V30 1896 H 175.667 2.10955 3.0713 0
M  V30 1897 H 175.78 3.95704 2.70103 0
M  V30 1898 H 174.144 2.04758 1.51481 0
M  V30 1899 H 174.927 3.39293 0.523015 0
M  V30 1900 N 177.372 -0.689602 1.41712 0
M  V30 1901 C 178.597 -1.48329 1.44959 0
M  V30 1902 C 179.022 -1.8801 0.0581283 0
M  V30 1903 O 178.38 -1.55026 -0.940035 0
M  V30 1904 C 178.428 -2.71835 2.36935 0
M  V30 1905 O 177.532 -3.69549 1.8305 0
M  V30 1906 H 176.873 -0.446199 0.491734 0
M  V30 1907 H 179.403 -0.847127 1.86239 0
M  V30 1908 H 179.413 -3.20076 2.53013 0
M  V30 1909 H 178.088 -2.42291 3.38035 0
M  V30 1910 H 176.665 -3.2851 1.76452 0
M  V30 1911 N 178.85 -1.27639 -0.924453 0
M  V30 1912 C 180.099 -1.13549 -1.66702 0
M  V30 1913 C 180.412 0.317487 -1.93006 0
M  V30 1914 O 181.618 0.579333 -2.65247 0
M  V30 1915 C 180.074 -1.98426 -3.00259 0
M  V30 1916 C 179.682 -3.484 -2.81641 0
M  V30 1917 C 181.426 -1.92993 -3.78092 0
M  V30 1918 C 179.333 -4.25464 -4.10773 0
M  V30 1919 H 178.263 -0.421351 -0.625283 0
M  V30 1920 H 180.914 -1.52085 -1.02676 0
M  V30 1921 H 179.296 -1.52736 -3.6536 0
M  V30 1922 H 180.47 -4.01973 -2.25287 0
M  V30 1923 H 178.785 -3.55245 -2.17232 0
M  V30 1924 H 181.382 -2.47844 -4.7379 0
M  V30 1925 H 181.725 -0.904281 -4.0636 0
M  V30 1926 H 182.258 -2.36595 -3.19793 0
M  V30 1927 H 178.997 -5.28566 -3.87683 0
M  V30 1928 H 178.517 -3.76667 -4.66779 0
M  V30 1929 H 180.196 -4.34812 -4.79111 0
M  V30 1930 N 180.328 1.1314 -1.09713 0
M  V30 1931 C 181.556 1.88321 -0.856898 0
M  V30 1932 C 181.971 1.79276 0.592073 0
M  V30 1933 O 181.328 1.16142 1.40774 0
M  V30 1934 C 181.379 3.37812 -1.28706 0
M  V30 1935 O 181.1 3.46627 -2.67921 0
M  V30 1936 C 182.601 4.29952 -1.07964 0
M  V30 1937 H 179.821 0.596094 -0.308079 0
M  V30 1938 H 182.365 1.43205 -1.45988 0
M  V30 1939 H 180.52 3.805 -0.727912 0
M  V30 1940 H 180.934 4.39579 -2.8613 0
M  V30 1941 H 182.408 5.33159 -1.42986 0
M  V30 1942 H 182.885 4.39196 -0.0176577 0
M  V30 1943 H 183.491 3.93036 -1.62489 0
M  V30 1944 N 181.806 0.884767 1.30421 0
M  V30 1945 C 183.034 0.518044 2.0031 0
M  V30 1946 C 183.449 -0.893408 1.66324 0
M  V30 1947 O 182.806 -1.5875 0.900262 0
M  V30 1948 C 182.857 0.682997 3.54989 0
M  V30 1949 O 182.578 2.03888 3.87764 0
M  V30 1950 C 184.079 0.31924 4.42149 0
M  V30 1951 H 181.299 0.200265 0.640418 0
M  V30 1952 H 183.843 1.19001 1.6631 0
M  V30 1953 H 181.998 0.0584052 3.87356 0
M  V30 1954 H 182.412 2.05735 4.82466 0
M  V30 1955 H 183.886 0.485555 5.4986 0
M  V30 1956 H 184.363 -0.742717 4.32875 0
M  V30 1957 H 184.969 0.920147 4.15227 0
M  V30 1958 N 183.284 -1.43765 0.645699 0
M  V30 1959 C 184.194 -2.34544 -0.0512957 0
M  V30 1960 C 185.21 -1.53455 -0.82022 0
M  V30 1961 O 186.386 -1.86133 -0.769176 0
M  V30 1962 C 183.451 -3.31636 -1.01087 0
M  V30 1963 C 182.512 -4.2863 -0.239712 0
M  V30 1964 C 181.745 -5.21084 -1.15358 0
M  V30 1965 O 181.968 -5.1779 -2.39269 0
M  V30 1966 O 180.902 -5.98593 -0.630038 0
M  V30 1967 H 184.728 -2.95624 0.695718 0
M  V30 1968 H 182.313 -1.43781 0.405882 0
M  V30 1969 H 184.195 -3.9136 -1.56254 0
M  V30 1970 H 182.87 -2.73069 -1.73824 0
M  V30 1971 H 181.777 -3.72408 0.355356 0
M  V30 1972 H 183.11 -4.90157 0.447936 0
M  V30 1973 N 184.763 -0.387143 -1.52771 0
M  V30 1974 C 186.012 0.19697 -2.00736 0
M  V30 1975 C 186.325 1.48082 -1.27793 0
M  V30 1976 O 187.531 2.14485 -1.66458 0
M  V30 1977 C 185.987 0.401568 -3.57653 0
M  V30 1978 C 185.595 -0.868907 -4.39493 0
M  V30 1979 C 187.339 0.942164 -4.13912 0
M  V30 1980 C 185.246 -0.632705 -5.88006 0
M  V30 1981 H 184.176 0.0773827 -0.750019 0
M  V30 1982 H 186.827 -0.50921 -1.76293 0
M  V30 1983 H 185.209 1.16954 -3.78335 0
M  V30 1984 H 186.383 -1.64133 -4.30577 0
M  V30 1985 H 184.698 -1.33429 -3.94443 0
M  V30 1986 H 187.295 1.13455 -5.22525 0
M  V30 1987 H 187.638 1.9106 -3.69867 0
M  V30 1988 H 188.171 0.233814 -3.97112 0
M  V30 1989 H 184.91 -1.57208 -6.36369 0
M  V30 1990 H 184.43 0.100825 -5.99715 0
M  V30 1991 H 186.109 -0.26642 -6.46451 0
M  V30 1992 N 186.241 1.57166 -0.116904 0
M  V30 1993 C 187.171 2.18222 0.830759 0
M  V30 1994 C 188.152 1.12167 1.27877 0
M  V30 1995 O 189.337 1.40394 1.34176 0
M  V30 1996 C 186.467 2.77996 2.08172 0
M  V30 1997 C 185.421 3.89614 1.77157 0
M  V30 1998 C 184.747 4.36187 3.09265 0
M  V30 1999 C 186.047 5.1181 1.04151 0
M  V30 2000 H 187.741 2.97664 0.321992 0
M  V30 2001 H 185.287 1.4318 0.153434 0
M  V30 2002 H 187.24 3.19366 2.74924 0
M  V30 2003 H 185.964 1.9584 2.6137 0
M  V30 2004 H 184.623 3.48816 1.12796 0
M  V30 2005 H 184.271 3.50893 3.60393 0
M  V30 2006 H 183.971 5.11455 2.89288 0
M  V30 2007 H 185.495 4.80207 3.77139 0
M  V30 2008 H 186.909 5.50214 1.61052 0
M  V30 2009 H 185.306 5.92648 0.942762 0
M  V30 2010 H 186.376 4.84892 0.0279022 0
M  V30 2011 N 187.719 -0.156864 1.56817 0
M  V30 2012 C 188.666 -1.19394 1.97519 0
M  V30 2013 C 189.636 -1.4322 0.841265 0
M  V30 2014 O 190.821 -1.55719 1.10255 0
M  V30 2015 C 187.961 -2.52483 2.35258 0
M  V30 2016 C 187.074 -2.35914 3.61896 0
M  V30 2017 C 186.209 -3.61969 3.88782 0
M  V30 2018 C 185.248 -3.40395 5.08722 0
M  V30 2019 N 184.385 -4.58556 5.31668 0
M  V30 2020 H 189.225 -0.839845 2.85921 0
M  V30 2021 H 186.762 -0.403264 1.41464 0
M  V30 2022 H 188.72 -3.30071 2.55165 0
M  V30 2023 H 187.35 -2.85859 1.49949 0
M  V30 2024 H 186.402 -1.49429 3.49821 0
M  V30 2025 H 187.714 -2.15926 4.49641 0
M  V30 2026 H 186.868 -4.47989 4.09135 0
M  V30 2027 H 185.607 -3.84951 2.9944 0
M  V30 2028 H 184.612 -2.52763 4.88253 0
M  V30 2029 H 185.837 -3.18822 5.99608 0
M  V30 2030 H 183.783 -4.81729 4.45279 0
M  V30 2031 H 183.7 -4.41535 6.13664 0
M  V30 2032 H 184.968 -5.45817 5.5651 0
M  V30 2033 N 189.197 -1.51736 -0.425897 0
M  V30 2034 C 190.422 -1.69082 -1.20108 0
M  V30 2035 C 190.847 -0.392398 -1.83962 0
M  V30 2036 O 190.205 0.64858 -1.69302 0
M  V30 2037 C 190.253 -2.81604 -2.25237 0
M  V30 2038 O 189.357 -2.46004 -3.30992 0
M  V30 2039 H 188.698 -0.563408 -0.35138 0
M  V30 2040 H 191.228 -1.98358 -0.501512 0
M  V30 2041 H 191.238 -3.06025 -2.69838 0
M  V30 2042 H 189.913 -3.75817 -1.78142 0
M  V30 2043 H 188.49 -2.32195 -2.91787 0
M  V30 2044 N 190.675 0.682077 -1.42076 0
M  V30 2045 C 191.921 1.44428 -1.42367 0
M  V30 2046 C 192.254 1.94164 -0.0373056 0
M  V30 2047 O 191.529 1.70429 0.937239 0
M  V30 2048 C 191.812 2.64654 -2.44194 0
M  V30 2049 C 191.665 2.20596 -3.91991 0
M  V30 2050 C 192.984 3.66865 -2.431 0
M  V30 2051 H 190.103 0.523834 -0.518428 0
M  V30 2052 H 192.745 0.77576 -1.73442 0
M  V30 2053 H 190.895 3.2169 -2.17826 0
M  V30 2054 H 192.567 1.68783 -4.29313 0
M  V30 2055 H 190.81 1.52242 -4.06208 0
M  V30 2056 H 191.481 3.06921 -4.58807 0
M  V30 2057 H 193.957 3.19531 -2.66532 0
M  V30 2058 H 192.833 4.48577 -3.16339 0
M  V30 2059 H 193.094 4.17493 -1.45437 0
M  V30 2060 N 192.153 1.28127 0.917671 0
M  V30 2061 C 193.399 1.15223 1.66888 0
M  V30 2062 C 193.732 -0.299293 1.9188 0
M  V30 2063 O 193.007 -1.21805 1.51637 0
M  V30 2064 C 193.29 1.94706 3.02922 0
M  V30 2065 C 193.143 3.47898 2.85109 0
M  V30 2066 C 194.462 1.75939 4.03402 0
M  V30 2067 H 191.581 0.419946 0.605652 0
M  V30 2068 H 194.223 1.57398 1.06423 0
M  V30 2069 H 192.373 1.58864 3.54534 0
M  V30 2070 H 194.045 3.93624 2.40537 0
M  V30 2071 H 192.288 3.7373 2.20246 0
M  V30 2072 H 192.959 3.98765 3.81694 0
M  V30 2073 H 195.435 2.07209 3.60837 0
M  V30 2074 H 194.311 2.33931 4.96556 0
M  V30 2075 H 194.572 0.709877 4.36364 0
M  V30 2076 N 193.631 -1.12557 1.10312 0
M  V30 2077 C 194.594 -2.16434 0.75424 0
M  V30 2078 C 195.594 -1.59278 -0.220685 0
M  V30 2079 O 196.784 -1.742 0.00230591 0
M  V30 2080 C 193.916 -3.40699 0.116987 0
M  V30 2081 H 195.109 -2.48811 1.67431 0
M  V30 2082 H 192.662 -1.27542 0.903475 0
M  V30 2083 H 193.397 -3.13921 -0.813877 0
M  V30 2084 H 193.182 -3.83459 0.818613 0
M  V30 2085 H 194.672 -4.17451 -0.111387 0
M  V30 2086 N 195.109 -0.891671 -1.2995 0
M  V30 2087 C 196.525 -0.58662 -1.48428 0
M  V30 2088 C 196.725 0.873951 -1.81561 0
M  V30 2089 O 195.781 1.65471 -1.90724 0
M  V30 2090 C 197.094 -1.50553 -2.60296 0
M  V30 2091 C 198.642 -1.50988 -2.74175 0
M  V30 2092 C 199.117 -2.41488 -3.89163 0
M  V30 2093 N 200.608 -2.39489 -3.96483 0
M  V30 2094 C 201.343 -3.06223 -4.84784 0
M  V30 2095 N 200.839 -3.82206 -5.77833 0
M  V30 2096 N 202.632 -2.95421 -4.78208 0
M  V30 2097 H 194.783 -1.83644 -1.06718 0
M  V30 2098 H 197.046 -0.786455 -0.529332 0
M  V30 2099 H 196.752 -2.54581 -2.42654 0
M  V30 2100 H 196.626 -1.22008 -3.56923 0
M  V30 2101 H 199.013 -0.47708 -2.91218 0
M  V30 2102 H 199.094 -1.83567 -1.78148 0
M  V30 2103 H 198.738 -3.44857 -3.72876 0
M  V30 2104 H 198.668 -2.06222 -4.84541 0
M  V30 2105 H 201.159 -1.84278 -3.29924 0
M  V30 2106 H 201.472 -4.302 -6.41988 0
M  V30 2107 H 199.817 -3.86313 -5.77743 0
M  V30 2108 H 203.008 -2.35581 -4.04499 0
M  V30 2109 H 203.181 -3.47704 -5.46814 0
M  V30 2110 N 196.587 1.43421 -0.653314 0
M  V30 2111 C 197.834 2.01812 -0.166745 0
M  V30 2112 C 198.162 1.51535 1.21931 0
M  V30 2113 O 197.417 0.698975 1.82792 0
M  V30 2114 C 197.716 3.57176 -0.126623 0
M  V30 2115 C 197.382 4.26798 -1.45444 0
M  V30 2116 C 196.044 4.45534 -1.81805 0
M  V30 2117 C 198.396 4.66225 -2.32989 0
M  V30 2118 C 195.724 5.00961 -3.05377 0
M  V30 2119 C 198.076 5.23021 -3.55853 0
M  V30 2120 C 196.74 5.39973 -3.9241 0
M  V30 2121 H 196.01 0.738484 -0.0610162 0
M  V30 2122 H 198.657 1.71896 -0.84404 0
M  V30 2123 H 196.962 3.86634 0.634123 0
M  V30 2124 H 198.659 4.00112 0.266723 0
M  V30 2125 H 195.249 4.12561 -1.16153 0
M  V30 2126 H 199.433 4.51443 -2.06187 0
M  V30 2127 H 194.689 5.12271 -3.3375 0
M  V30 2128 H 198.863 5.52518 -4.23907 0
M  V30 2129 H 196.49 5.82687 -4.88242 0
M  V30 2130 N 198.065 0.39524 1.52563 0
M  V30 2131 C 199.342 -0.242908 1.94086 0
M  V30 2132 C 199.722 -1.63841 1.33114 0
M  V30 2133 O 199.07 -2.22928 0.501529 0
M  V30 2134 C 199.28 -0.26327 3.48006 0
M  V30 2135 C 200.628 -0.489354 4.21771 0
M  V30 2136 O 201.652 -0.343226 3.54543 0
M  V30 2137 O 200.511 -0.776169 5.4096 0
M  V30 2138 H 197.605 -0.152536 0.812811 0
M  V30 2139 H 200.151 0.450178 1.6362 0
M  V30 2140 H 198.923 0.713985 3.84731 0
M  V30 2141 H 198.546 -1.00103 3.84792 0
M  V30 2142 N 199.544 -1.57102 0.125237 0
M  V30 2143 C 200.507 -2.14471 -0.80838 0
M  V30 2144 C 201.507 -1.0811 -1.19033 0
M  V30 2145 O 202.697 -1.33856 -1.11482 0
M  V30 2146 C 199.829 -2.69005 -2.09402 0
M  V30 2147 H 201.022 -2.98297 -0.309696 0
M  V30 2148 H 198.575 -1.55807 -0.124051 0
M  V30 2149 H 199.31 -1.88785 -2.63687 0
M  V30 2150 H 199.095 -3.46799 -1.82957 0
M  V30 2151 H 200.585 -3.13278 -2.76128 0
M  V30 2152 N 201.022 0.148545 -1.56898 0
M  V30 2153 C 202.27 0.859717 -1.82902 0
M  V30 2154 C 202.591 1.81775 -0.70588 0
M  V30 2155 O 201.861 1.93994 0.272586 0
M  V30 2156 H 200.441 0.320469 -0.674766 0
M  V30 2157 H 203.103 0.142918 -1.94375 0
M  V30 2158 H 202.199 1.4229 -2.77777 0
M  V30 2159 N 202.5 1.5196 0.417844 0
M  V30 2160 C 203.41 1.77554 1.53336 0
M  V30 2161 C 204.426 0.660655 1.6097 0
M  V30 2162 O 205.602 0.945099 1.77848 0
M  V30 2163 C 202.667 1.91291 2.89152 0
M  V30 2164 C 201.728 3.15183 2.91475 0
M  V30 2165 C 200.961 3.28256 4.20813 0
M  V30 2166 O 201.184 2.46798 5.14244 0
M  V30 2167 O 200.118 4.21356 4.29817 0
M  V30 2168 H 203.944 2.7222 1.34647 0
M  V30 2169 H 201.529 1.36698 0.602828 0
M  V30 2170 H 203.411 2.02199 3.69721 0
M  V30 2171 H 202.086 0.998129 3.07927 0
M  V30 2172 H 200.993 3.09739 2.09791 0
M  V30 2173 H 202.326 4.06414 2.77648 0
M  V30 2174 N 203.978 -0.674533 1.42435 0
M  V30 2175 C 204.908 -1.80009 1.48724 0
M  V30 2176 C 205.889 -1.6659 0.343793 0
M  V30 2177 O 207.074 -1.86007 0.558137 0
M  V30 2178 C 204.204 -3.18306 1.38919 0
M  V30 2179 C 203.158 -3.46461 2.51294 0
M  V30 2180 C 202.484 -4.84335 2.26547 0
M  V30 2181 C 203.784 -3.43328 3.93603 0
M  V30 2182 H 205.478 -1.75004 2.42928 0
M  V30 2183 H 203.024 -0.840533 1.16923 0
M  V30 2184 H 204.977 -3.9678 1.41927 0
M  V30 2185 H 203.701 -3.2399 0.412094 0
M  V30 2186 H 202.36 -2.70348 2.47604 0
M  V30 2187 H 202.008 -4.86669 1.2713 0
M  V30 2188 H 201.708 -5.04136 3.01861 0
M  V30 2189 H 203.232 -5.65094 2.31304 0
M  V30 2190 H 204.646 -4.11772 3.98894 0
M  V30 2191 H 203.043 -3.74664 4.68771 0
M  V30 2192 H 204.113 -2.41897 4.20255 0
M  V30 2193 N 205.456 -1.28612 -0.910864 0
M  V30 2194 C 206.705 -1.15311 -1.65488 0
M  V30 2195 C 207.018 0.296999 -1.93332 0
M  V30 2196 O 208.224 0.551168 -2.65847 0
M  V30 2197 C 206.68 -2.01599 -2.98137 0
M  V30 2198 C 206.288 -3.51367 -2.7793 0
M  V30 2199 C 208.032 -1.96993 -3.76024 0
M  V30 2200 C 205.939 -4.29797 -4.06237 0
M  V30 2201 H 204.869 -0.42796 -0.620779 0
M  V30 2202 H 207.52 -1.53166 -1.01057 0
M  V30 2203 H 205.902 -1.56603 -3.63719 0
M  V30 2204 H 207.076 -4.0434 -2.21011 0
M  V30 2205 H 205.391 -3.57529 -2.13452 0
M  V30 2206 H 207.988 -2.52856 -4.71135 0
M  V30 2207 H 208.331 -0.94733 -4.05378 0
M  V30 2208 H 208.864 -2.39973 -3.17266 0
M  V30 2209 H 205.603 -5.32648 -3.82055 0
M  V30 2210 H 205.123 -3.81596 -4.62757 0
M  V30 2211 H 206.802 -4.39869 -4.74473 0
M  V30 2212 N 206.934 1.1197 -1.10907 0
M  V30 2213 C 208.162 1.87402 -0.876824 0
M  V30 2214 C 208.577 1.79894 0.573025 0
M  V30 2215 O 207.934 1.17629 1.39534 0
M  V30 2216 C 207.985 3.36428 -1.32282 0
M  V30 2217 O 207.706 3.43765 -2.71582 0
M  V30 2218 C 209.207 4.28783 -1.12518 0
M  V30 2219 H 206.427 0.592793 -0.314384 0
M  V30 2220 H 208.971 1.41649 -1.47499 0
M  V30 2221 H 207.126 3.79706 -0.768229 0
M  V30 2222 H 207.54 4.3652 -2.90776 0
M  V30 2223 H 209.014 5.31613 -1.48633 0
M  V30 2224 H 209.491 4.39153 -0.0642394 0
M  V30 2225 H 210.097 3.91291 -1.66648 0
M  V30 2226 N 208.412 0.89855 1.29475 0
M  V30 2227 C 209.344 0.332726 2.26772 0
M  V30 2228 C 210.357 -0.520323 1.54261 0
M  V30 2229 O 211.546 -0.337668 1.75277 0
M  V30 2230 C 208.646 -0.544334 3.345 0
M  V30 2231 C 207.819 0.282728 4.36485 0
M  V30 2232 C 206.878 -0.526982 5.23555 0
M  V30 2233 O 205.904 0.0551165 5.69173 0
M  V30 2234 N 207.106 -1.83331 5.5079 0
M  V30 2235 H 209.871 1.16897 2.75962 0
M  V30 2236 H 207.432 0.762919 1.42798 0
M  V30 2237 H 209.424 -1.09239 3.89678 0
M  V30 2238 H 207.994 -1.28127 2.85136 0
M  V30 2239 H 207.214 1.01221 3.80983 0
M  V30 2240 H 208.502 0.84918 5.01664 0
M  V30 2241 H 207.9 -2.32898 5.15534 0
M  V30 2242 H 206.457 -2.32852 6.08788 0
M  V30 2243 N 209.89 -1.43072 0.660911 0
M  V30 2244 C 211.306 -1.56169 0.329173 0
M  V30 2245 C 211.506 -1.64317 -1.16629 0
M  V30 2246 O 210.562 -1.60245 -1.95135 0
M  V30 2247 C 211.875 -2.81873 1.04729 0
M  V30 2248 C 213.423 -2.95627 1.02828 0
M  V30 2249 C 213.898 -4.24174 1.72744 0
M  V30 2250 N 215.389 -4.31055 1.69545 0
M  V30 2251 C 216.124 -5.29304 2.20511 0
M  V30 2252 N 215.62 -6.33786 2.79799 0
M  V30 2253 N 217.413 -5.21008 2.10966 0
M  V30 2254 H 209.564 -1.36027 1.63127 0
M  V30 2255 H 211.827 -0.653823 0.686454 0
M  V30 2256 H 211.533 -2.81942 2.10242 0
M  V30 2257 H 211.407 -3.72338 0.603702 0
M  V30 2258 H 213.794 -2.95094 -0.0184742 0
M  V30 2259 H 213.875 -2.06431 1.51063 0
M  V30 2260 H 213.519 -4.25467 2.7738 0
M  V30 2261 H 213.449 -5.1228 1.2197 0
M  V30 2262 H 215.94 -3.56174 1.26288 0
M  V30 2263 H 216.253 -7.05086 3.16344 0
M  V30 2264 H 214.598 -6.34387 2.83863 0
M  V30 2265 H 217.789 -4.38301 1.64347 0
M  V30 2266 H 217.962 -5.97416 2.50993 0
M  V30 2267 N 211.368 -0.403325 -1.52352 0
M  V30 2268 C 212.278 0.432009 -2.30588 0
M  V30 2269 C 213.294 1.05884 -1.38075 0
M  V30 2270 O 214.47 1.06161 -1.71148 0
M  V30 2271 C 211.535 1.53669 -3.10784 0
M  V30 2272 C 210.596 0.933525 -4.19027 0
M  V30 2273 C 209.829 1.98557 -4.9539 0
M  V30 2274 O 210.052 3.20283 -4.71991 0
M  V30 2275 O 208.986 1.59504 -5.80381 0
M  V30 2276 H 212.812 -0.205739 -3.03002 0
M  V30 2277 H 210.397 -0.166675 -1.48467 0
M  V30 2278 H 212.279 2.17814 -3.60742 0
M  V30 2279 H 210.954 2.15915 -2.41169 0
M  V30 2280 H 209.861 0.254954 -3.7323 0
M  V30 2281 H 211.194 0.35508 -4.90918 0
M  V30 2282 N 212.846 1.57033 -0.133567 0
M  V30 2283 C 213.776 2.1909 0.807567 0
M  V30 2284 C 214.757 1.13517 1.26681 0
M  V30 2285 O 215.942 1.41809 1.32679 0
M  V30 2286 C 213.072 2.80188 2.05212 0
M  V30 2287 C 212.026 3.91471 1.73015 0
M  V30 2288 C 211.352 4.39443 3.04622 0
M  V30 2289 C 212.652 5.12886 0.987168 0
M  V30 2290 H 214.346 2.97988 0.290403 0
M  V30 2291 H 211.892 1.43335 0.138239 0
M  V30 2292 H 213.845 3.22264 2.71521 0
M  V30 2293 H 212.569 1.98601 2.59278 0
M  V30 2294 H 211.228 3.49993 1.0909 0
M  V30 2295 H 210.876 3.54695 3.56651 0
M  V30 2296 H 210.576 5.14495 2.83847 0
M  V30 2297 H 212.1 4.8418 3.72024 0
M  V30 2298 H 213.514 5.51891 1.55208 0
M  V30 2299 H 211.911 5.93615 0.87985 0
M  V30 2300 H 212.981 4.84894 -0.0235286 0
M  V30 2301 N 214.325 -0.140222 1.56975 0
M  V30 2302 C 215.571 -0.852949 1.83991 0
M  V30 2303 C 215.904 -1.80512 0.716187 0
M  V30 2304 O 215.179 -1.92479 -0.279681 0
M  V30 2305 C 215.462 -1.6215 3.21527 0
M  V30 2306 C 215.315 -0.690363 4.4447 0
M  V30 2307 C 216.634 -2.58247 3.56366 0
M  V30 2308 H 213.753 -0.308634 0.669264 0
M  V30 2309 H 216.395 -0.117898 1.89634 0
M  V30 2310 H 214.545 -2.24812 3.16847 0
M  V30 2311 H 216.217 -0.0742264 4.6124 0
M  V30 2312 H 214.46 -0.000396433 4.338 0
M  V30 2313 H 215.131 -1.2643 5.37326 0
M  V30 2314 H 217.607 -2.05701 3.61699 0
M  V30 2315 H 216.483 -3.09067 4.53617 0
M  V30 2316 H 216.744 -3.39923 2.82674 0
M  V30 2317 N 215.803 -1.52179 -0.40978 0
M  V30 2318 C 217.028 -1.70347 -1.18308 0
M  V30 2319 C 217.453 -0.411887 -1.83535 0
M  V30 2320 O 216.811 0.630587 -1.6998 0
M  V30 2321 C 216.859 -2.83977 -2.22238 0
M  V30 2322 O 215.963 -2.495 -3.28365 0
M  V30 2323 H 215.304 -0.567103 -0.345384 0
M  V30 2324 H 217.834 -1.98879 -0.480445 0
M  V30 2325 H 217.844 -3.0887 -2.66577 0
M  V30 2326 H 216.519 -3.77685 -1.74146 0
M  V30 2327 H 215.096 -2.35277 -2.89308 0
M  V30 2328 N 217.281 0.66697 -1.42791 0
M  V30 2329 C 218.697 0.981027 -1.25889 0
M  V30 2330 C 218.897 2.00793 -0.168695 0
M  V30 2331 O 217.953 2.48321 0.45747 0
M  V30 2332 C 219.266 1.47838 -2.61848 0
M  V30 2333 C 220.814 1.59575 -2.69267 0
M  V30 2334 C 221.289 2.12704 -4.05612 0
M  V30 2335 N 222.78 2.20026 -4.07606 0
M  V30 2336 C 223.515 2.62227 -5.09926 0
M  V30 2337 N 223.011 3.03824 -6.22626 0
M  V30 2338 N 224.804 2.62045 -4.97281 0
M  V30 2339 H 216.955 -0.0127891 -2.12396 0
M  V30 2340 H 219.218 0.0568258 -0.946295 0
M  V30 2341 H 218.924 0.798299 -3.4252 0
M  V30 2342 H 218.798 2.45579 -2.86305 0
M  V30 2343 H 221.185 2.26687 -1.88936 0
M  V30 2344 H 221.266 0.60302 -2.48591 0
M  V30 2345 H 220.91 1.46198 -4.86404 0
M  V30 2346 H 220.84 3.12782 -4.23645 0
M  V30 2347 H 223.331 1.90708 -3.2625 0
M  V30 2348 H 223.644 3.34734 -6.96544 0
M  V30 2349 H 221.989 3.01662 -6.26119 0
M  V30 2350 H 225.18 2.28916 -4.08308 0
M  V30 2351 H 225.353 2.94613 -5.77154 0
M  V30 2352 N 218.759 1.29093 0.90403 0
M  V30 2353 C 219.691 1.09658 2.01266 0
M  V30 2354 C 220.704 0.0453729 1.62737 0
M  V30 2355 O 221.893 0.289446 1.76138 0
M  V30 2356 C 218.993 0.646278 3.32681 0
M  V30 2357 C 218.166 1.77505 3.99763 0
M  V30 2358 C 217.225 1.31649 5.09465 0
M  V30 2359 O 216.251 2.02045 5.32134 0
M  V30 2360 N 217.453 0.184997 5.80205 0
M  V30 2361 H 220.218 2.05135 2.18494 0
M  V30 2362 H 217.779 1.20975 1.07594 0
M  V30 2363 H 219.771 0.322906 4.0341 0
M  V30 2364 H 218.341 -0.215916 3.11853 0
M  V30 2365 H 217.561 2.26752 3.22455 0
M  V30 2366 H 218.849 2.53198 4.41325 0
M  V30 2367 H 218.247 -0.402021 5.6427 0
M  V30 2368 H 216.804 -0.0790358 6.51752 0
M  V30 2369 N 220.237 -1.11381 1.11499 0
M  V30 2370 C 221.483 -1.83403 0.865512 0
M  V30 2371 C 221.816 -1.84459 -0.607329 0
M  V30 2372 O 221.091 -1.29811 -1.44842 0
M  V30 2373 C 221.374 -3.30552 1.42855 0
M  V30 2374 C 221.227 -3.37886 2.96906 0
M  V30 2375 C 222.546 -4.26643 1.08 0
M  V30 2376 H 219.665 -0.665879 0.31587 0
M  V30 2377 H 222.307 -1.30601 1.37998 0
M  V30 2378 H 220.457 -3.75648 0.990985 0
M  V30 2379 H 222.129 -3.01343 3.49271 0
M  V30 2380 H 220.372 -2.78088 3.32941 0
M  V30 2381 H 221.043 -4.41458 3.31389 0
M  V30 2382 H 223.519 -3.89729 1.45775 0
M  V30 2383 H 222.395 -5.27986 1.50072 0
M  V30 2384 H 222.656 -4.42099 -0.00915037 0
M  V30 2385 N 221.715 -0.905404 -1.28997 0
M  V30 2386 C 222.94 -0.549175 -1.99997 0
M  V30 2387 C 223.365 0.860276 -1.67275 0
M  V30 2388 O 222.723 1.57355 -0.900502 0
M  V30 2389 C 222.771 -0.755185 -3.52604 0
M  V30 2390 O 221.875 0.189692 -4.11964 0
M  V30 2391 H 221.216 -0.213899 -0.628604 0
M  V30 2392 H 223.746 -1.21856 -1.64354 0
M  V30 2393 H 223.756 -0.662045 -4.02593 0
M  V30 2394 H 222.431 -1.78271 -3.75755 0
M  V30 2395 H 221.008 0.0485257 -3.72868 0
M  V30 2396 N 223.193 1.4272 -0.668489 0
M  V30 2397 C 224.47 1.95248 -0.117373 0
M  V30 2398 C 224.85 1.60919 1.36632 0
M  V30 2399 O 224.198 0.902095 2.09939 0
M  V30 2400 C 224.408 3.46927 -0.379806 0
M  V30 2401 C 225.756 4.23588 -0.292923 0
M  V30 2402 O 226.78 3.5482 -0.313204 0
M  V30 2403 O 225.639 5.46017 -0.229697 0
M  V30 2404 H 222.733 0.827 0.00079152 0
M  V30 2405 H 225.279 1.52581 -0.742783 0
M  V30 2406 H 224.051 3.65096 -1.40786 0
M  V30 2407 H 223.674 3.96627 0.277923 0
M  V30 2408 N 224.671 0.411399 1.52136 0
M  V30 2409 C 225.948 -0.222308 1.94333 0
M  V30 2410 C 226.328 -1.6242 1.34844 0
M  V30 2411 O 225.676 -2.22384 0.525145 0
M  V30 2412 C 225.886 -0.226345 3.48265 0
M  V30 2413 C 227.234 -0.444592 4.22266 0
M  V30 2414 O 228.258 -0.305602 3.54887 0
M  V30 2415 O 227.117 -0.718749 5.41753 0
M  V30 2416 H 224.211 -0.143907 0.814383 0
M  V30 2417 H 226.757 0.467506 1.63133 0
M  V30 2418 H 225.529 0.75475 3.83952 0
M  V30 2419 H 225.152 -0.960163 3.85832 0
M  V30 2420 N 226.149 -1.5696 0.141893 0
M  V30 2421 C 227.079 -2.19516 -0.795936 0
M  V30 2422 C 228.06 -1.14187 -1.26077 0
M  V30 2423 O 229.245 -1.42511 -1.31925 0
M  V30 2424 C 226.375 -2.81272 -2.03723 0
M  V30 2425 C 225.329 -3.92384 -1.70936 0
M  V30 2426 C 224.655 -4.41052 -3.02287 0
M  V30 2427 C 225.955 -5.13403 -0.959954 0
M  V30 2428 H 227.649 -2.98138 -0.274596 0
M  V30 2429 H 225.195 -1.43406 -0.130636 0
M  V30 2430 H 227.148 -3.237 -2.69808 0
M  V30 2431 H 225.872 -1.99973 -2.58221 0
M  V30 2432 H 224.531 -3.50566 -1.07232 0
M  V30 2433 H 224.179 -3.56582 -3.54765 0
M  V30 2434 H 223.879 -5.15993 -2.81114 0
M  V30 2435 H 225.403 -4.86146 -3.69451 0
M  V30 2436 H 226.817 -5.52706 -1.52279 0
M  V30 2437 H 225.214 -5.94073 -0.848357 0
M  V30 2438 H 226.284 -4.84875 0.0492434 0
M  V30 2439 N 227.627 0.131896 -1.57047 0
M  V30 2440 C 228.855 0.856461 -1.88341 0
M  V30 2441 C 229.27 1.74042 -0.731757 0
M  V30 2442 O 228.627 1.80051 0.297945 0
M  V30 2443 C 228.678 1.70064 -3.18999 0
M  V30 2444 O 228.399 0.852278 -4.2973 0
M  V30 2445 C 229.9 2.53148 -3.63911 0
M  V30 2446 H 227.12 0.246885 -0.62393 0
M  V30 2447 H 229.664 0.120152 -2.04147 0
M  V30 2448 H 227.819 2.38984 -3.04902 0
M  V30 2449 H 228.233 1.43329 -5.04537 0
M  V30 2450 H 229.707 3.07931 -4.58129 0
M  V30 2451 H 230.184 3.29901 -2.89935 0
M  V30 2452 H 230.79 1.89492 -3.80753 0
M  V30 2453 N 229.106 1.52395 0.401703 0
M  V30 2454 C 230.016 1.7917 1.51444 0
M  V30 2455 C 231.032 0.677691 1.6026 0
M  V30 2456 O 232.208 0.963909 1.76835 0
M  V30 2457 C 229.273 1.94347 2.87107 0
M  V30 2458 C 228.334 3.18257 2.88116 0
M  V30 2459 C 227.567 3.32701 4.17308 0
M  V30 2460 O 227.79 2.52238 5.11598 0
M  V30 2461 O 226.724 4.25891 4.25324 0
M  V30 2462 H 230.55 2.73633 1.31752 0
M  V30 2463 H 228.135 1.3733 0.588296 0
M  V30 2464 H 230.017 2.06109 3.67555 0
M  V30 2465 H 228.692 1.03073 3.06851 0
M  V30 2466 H 227.599 3.11947 2.06494 0
M  V30 2467 H 228.932 4.09336 2.73322 0
M  V30 2468 N 230.584 -0.659388 1.43143 0
M  V30 2469 C 232 -0.974337 1.26407 0
M  V30 2470 C 232.2 -2.007 0.179341 0
M  V30 2471 O 231.256 -2.4856 -0.444295 0
M  V30 2472 C 232.569 -1.46447 2.62628 0
M  V30 2473 C 234.117 -1.58144 2.7011 0
M  V30 2474 C 234.592 -2.1055 4.06734 0
M  V30 2475 N 236.083 -2.17861 4.08767 0
M  V30 2476 C 236.818 -2.59519 5.1131 0
M  V30 2477 N 236.314 -3.00518 6.24228 0
M  V30 2478 N 238.107 -2.59404 4.98664 0
M  V30 2479 H 230.258 0.0240528 2.12386 0
M  V30 2480 H 232.521 -0.0518065 0.946583 0
M  V30 2481 H 232.227 -0.780123 3.42939 0
M  V30 2482 H 232.101 -2.44058 2.87603 0
M  V30 2483 H 234.488 -2.25682 1.90136 0
M  V30 2484 H 234.569 -0.589828 2.48907 0
M  V30 2485 H 234.213 -1.43616 4.87172 0
M  V30 2486 H 234.143 -3.10531 4.25298 0
M  V30 2487 H 236.634 -1.88975 3.27257 0
M  V30 2488 H 236.947 -3.31036 6.98309 0
M  V30 2489 H 235.292 -2.98337 6.2771 0
M  V30 2490 H 238.483 -2.26747 4.09516 0
M  V30 2491 H 238.656 -2.91548 5.78709 0
M  V30 2492 N 232.062 -1.29571 -0.897171 0
M  V30 2493 C 233.025 -1.14913 -1.98312 0
M  V30 2494 C 234.025 -0.0838629 -1.60581 0
M  V30 2495 O 235.215 -0.331006 -1.71026 0
M  V30 2496 C 232.347 -0.757835 -3.3237 0
M  V30 2497 H 233.54 -2.11377 -2.12743 0
M  V30 2498 H 231.093 -1.12793 -1.08201 0
M  V30 2499 H 231.828 0.206837 -3.2364 0
M  V30 2500 H 231.613 -1.52755 -3.61121 0
M  V30 2501 H 233.103 -0.678408 -4.12053 0
M  V30 2502 N 233.54 1.10788 -1.12088 0
M  V30 2503 C 234.503 2.15207 -0.788577 0
M  V30 2504 C 235.503 1.59609 0.195317 0
M  V30 2505 O 236.693 1.74174 -0.0300193 0
M  V30 2506 C 233.825 3.4047 -0.171174 0
M  V30 2507 H 235.018 2.46116 -1.71368 0
M  V30 2508 H 232.571 1.26089 -0.923652 0
M  V30 2509 H 233.306 3.15176 0.763832 0
M  V30 2510 H 233.091 3.82109 -0.879514 0
M  V30 2511 H 234.581 4.17576 0.04496 0
M  V30 2512 N 235.018 0.912232 1.28515 0
M  V30 2513 C 236.246 0.560416 1.99166 0
M  V30 2514 C 236.661 -0.857927 1.68182 0
M  V30 2515 O 236.018 -1.56805 0.933733 0
M  V30 2516 C 236.069 0.758142 3.53461 0
M  V30 2517 O 235.79 2.12067 3.83352 0
M  V30 2518 C 237.291 0.412954 4.41372 0
M  V30 2519 H 234.511 0.213805 0.636026 0
M  V30 2520 H 237.055 1.22502 1.63749 0
M  V30 2521 H 235.21 0.140556 3.87145 0
M  V30 2522 H 235.624 2.15923 4.77993 0
M  V30 2523 H 237.098 0.60208 5.48707 0
M  V30 2524 H 237.575 -0.65073 4.34353 0
M  V30 2525 H 238.181 1.00802 4.13182 0
M  V30 2526 N 236.496 -1.42363 0.676048 0
M  V30 2527 C 237.743 -2.01522 0.19883 0
M  V30 2528 C 238.071 -1.53456 -1.19505 0
M  V30 2529 O 237.326 -0.727967 -1.81657 0
M  V30 2530 C 237.625 -3.56929 0.183431 0
M  V30 2531 C 237.291 -4.24431 1.52215 0
M  V30 2532 C 235.953 -4.42585 1.8887 0
M  V30 2533 C 238.305 -4.62459 2.40377 0
M  V30 2534 C 235.633 -4.96039 3.13309 0
M  V30 2535 C 237.985 -5.17294 3.64129 0
M  V30 2536 C 236.649 -5.33661 4.00951 0
M  V30 2537 H 235.919 -0.737419 0.0727571 0
M  V30 2538 H 238.566 -1.70531 0.871281 0
M  V30 2539 H 236.871 -3.87594 -0.572532 0
M  V30 2540 H 238.568 -4.00486 -0.203035 0
M  V30 2541 H 235.158 -4.10661 1.22701 0
M  V30 2542 H 239.342 -4.48105 2.13343 0
M  V30 2543 H 234.598 -5.06896 3.41857 0
M  V30 2544 H 238.772 -5.45704 4.32644 0
M  V30 2545 H 236.399 -5.74845 4.9745 0
M  V30 2546 N 237.974 -0.419461 -1.51915 0
M  V30 2547 C 239.222 0.152637 -2.01523 0
M  V30 2548 C 239.543 1.44762 -1.30649 0
M  V30 2549 O 238.813 1.90997 -0.435535 0
M  V30 2550 H 237.393 0.0593966 -0.744635 0
M  V30 2551 H 240.055 -0.558073 -1.86739 0
M  V30 2552 H 239.151 0.341369 -3.10227 0
M  V30 2553 N 239.452 1.56882 -0.150215 0
M  V30 2554 C 240.382 2.19935 0.784284 0
M  V30 2555 C 241.363 1.14854 1.25469 0
M  V30 2556 O 242.548 1.43209 1.31168 0
M  V30 2557 C 239.678 2.82349 2.02229 0
M  V30 2558 C 238.632 3.93285 1.68853 0
M  V30 2559 C 237.958 4.42649 2.99944 0
M  V30 2560 C 239.258 5.13904 0.932714 0
M  V30 2561 H 240.952 2.9828 0.258781 0
M  V30 2562 H 238.498 1.43473 0.123029 0
M  V30 2563 H 240.451 3.25126 2.68088 0
M  V30 2564 H 239.175 2.0134 2.57157 0
M  V30 2565 H 237.834 3.5113 1.05371 0
M  V30 2566 H 237.482 3.58458 3.52869 0
M  V30 2567 H 237.182 5.17476 2.78374 0
M  V30 2568 H 238.706 4.88099 3.66868 0
M  V30 2569 H 240.12 5.53506 1.49345 0
M  V30 2570 H 238.517 5.94515 0.81684 0
M  V30 2571 H 239.587 4.84842 -0.0749568 0
M  V30 2572 N 240.93 -0.123565 1.57115 0
M  V30 2573 C 242.179 -0.830704 1.83799 0
M  V30 2574 C 242.492 -1.81259 0.735158 0
M  V30 2575 O 243.698 -2.56558 0.888278 0
M  V30 2576 C 242.154 -1.52802 3.25852 0
M  V30 2577 C 241.762 -0.587356 4.44133 0
M  V30 2578 C 243.506 -2.22056 3.61789 0
M  V30 2579 C 241.413 -1.28764 5.77212 0
M  V30 2580 H 240.343 -0.313967 0.685522 0
M  V30 2581 H 242.994 -0.0834359 1.8331 0
M  V30 2582 H 241.376 -2.32175 3.20797 0
M  V30 2583 H 242.55 0.172829 4.60476 0
M  V30 2584 H 240.865 -0.00201892 4.164 0
M  V30 2585 H 243.462 -2.75131 4.58483 0
M  V30 2586 H 243.805 -2.99644 2.88997 0
M  V30 2587 H 244.338 -1.49576 3.68608 0
M  V30 2588 H 241.077 -0.55314 6.53162 0
M  V30 2589 H 240.597 -2.01995 5.64764 0
M  V30 2590 H 242.276 -1.8221 6.20813 0
M  V30 2591 N 242.408 -1.52605 -0.393616 0
M  V30 2592 C 243.338 -1.80022 -1.48709 0
M  V30 2593 C 244.319 -0.651995 -1.57108 0
M  V30 2594 O 245.504 -0.89913 -1.72132 0
M  V30 2595 C 242.634 -1.96492 -2.86371 0
M  V30 2596 C 241.588 -3.12161 -2.92813 0
M  V30 2597 C 240.914 -3.13877 -4.3288 0
M  V30 2598 C 242.214 -4.51322 -2.6288 0
M  V30 2599 H 243.908 -2.71589 -1.26015 0
M  V30 2600 H 241.454 -1.30684 -0.604778 0
M  V30 2601 H 243.407 -2.14255 -3.62867 0
M  V30 2602 H 242.131 -1.01611 -3.10391 0
M  V30 2603 H 240.79 -2.94173 -2.18764 0
M  V30 2604 H 240.438 -2.16687 -4.53933 0
M  V30 2605 H 240.138 -3.91576 -4.38112 0
M  V30 2606 H 241.662 -3.33789 -5.1129 0
M  V30 2607 H 243.076 -4.69435 -3.29096 0
M  V30 2608 H 241.473 -5.31053 -2.79468 0
M  V30 2609 H 242.543 -4.58353 -1.58242 0
M  V30 2610 N 243.887 0.651787 -1.4349 0
M  V30 2611 C 245.164 1.40909 -1.35661 0
M  V30 2612 C 245.544 2.11099 -0.00511733 0
M  V30 2613 O 244.892 2.04892 1.0115 0
M  V30 2614 C 245.102 2.3926 -2.54078 0
M  V30 2615 C 246.45 3.03217 -2.97228 0
M  V30 2616 O 247.474 2.49588 -2.54135 0
M  V30 2617 O 246.333 4.00455 -3.71885 0
M  V30 2618 H 243.427 0.629625 -0.536191 0
M  V30 2619 H 245.973 0.678575 -1.55542 0
M  V30 2620 H 244.745 1.86352 -3.44076 0
M  V30 2621 H 244.368 3.1976 -2.36303 0
M  V30 2622 N 245.365 1.30045 0.890287 0
M  V30 2623 C 246.642 1.09227 1.62262 0
M  V30 2624 C 247.022 -0.360305 2.08002 0
M  V30 2625 O 246.37 -1.35084 1.84295 0
M  V30 2626 C 246.58 2.08835 2.79623 0
M  V30 2627 C 247.928 2.40266 3.50082 0
M  V30 2628 O 248.952 2.07104 2.89804 0
M  V30 2629 O 247.811 2.96967 4.58773 0
M  V30 2630 H 244.905 0.419132 0.712922 0
M  V30 2631 H 247.451 1.41451 0.937529 0
M  V30 2632 H 246.223 3.06633 2.43089 0
M  V30 2633 H 245.846 1.77397 3.55832 0
M  V30 2634 N 246.843 -1.10192 1.12674 0
M  V30 2635 C 248.089 -1.82475 0.884915 0
M  V30 2636 C 248.422 -1.85093 -0.58773 0
M  V30 2637 O 247.697 -1.3134 -1.43457 0
M  V30 2638 C 247.98 -3.29018 1.46353 0
M  V30 2639 C 247.833 -3.34718 3.00473 0
M  V30 2640 C 249.152 -4.25473 1.12519 0
M  V30 2641 H 246.271 -0.662492 0.322915 0
M  V30 2642 H 248.913 -1.2913 1.39375 0
M  V30 2643 H 247.063 -3.74576 1.03077 0
M  V30 2644 H 248.735 -2.97622 3.52447 0
M  V30 2645 H 246.978 -2.74541 3.35872 0
M  V30 2646 H 247.649 -4.37918 3.36053 0
M  V30 2647 H 250.125 -3.88161 1.499 0
M  V30 2648 H 249.001 -5.26365 1.55663 0
M  V30 2649 H 249.262 -4.42084 0.0377407 0
M  V30 2650 N 248.321 -0.919034 -1.28029 0
M  V30 2651 C 249.546 -0.570357 -1.99403 0
M  V30 2652 C 249.971 0.842486 -1.68178 0
M  V30 2653 O 249.329 1.56391 -0.917141 0
M  V30 2654 C 249.377 -0.792541 -3.51783 0
M  V30 2655 O 248.481 0.145988 -4.12142 0
M  V30 2656 H 247.822 -0.220555 -0.6263 0
M  V30 2657 H 250.352 -1.23592 -1.63053 0
M  V30 2658 H 250.362 -0.704708 -4.01868 0
M  V30 2659 H 249.037 -1.82247 -3.73844 0
M  V30 2660 H 247.614 0.00897528 -3.72899 0
M  V30 2661 N 249.799 1.42003 -0.683588 0
M  V30 2662 C 250.729 2.33487 -0.024866 0
M  V30 2663 C 251.71 1.51163 0.779975 0
M  V30 2664 O 252.895 1.79739 0.735362 0
M  V30 2665 C 250.025 3.3487 0.920836 0
M  V30 2666 C 248.979 4.27414 0.223958 0
M  V30 2667 C 248.305 5.19074 1.2832 0
M  V30 2668 C 249.605 5.14445 -0.90242 0
M  V30 2669 H 251.299 2.88819 -0.788921 0
M  V30 2670 H 248.845 1.38873 -0.38083 0
M  V30 2671 H 250.798 3.97787 1.39081 0
M  V30 2672 H 249.522 2.77861 1.71642 0
M  V30 2673 H 248.181 3.65904 -0.225864 0
M  V30 2674 H 247.829 4.58387 2.071 0
M  V30 2675 H 247.529 5.81822 0.821995 0
M  V30 2676 H 249.053 5.84867 1.75392 0
M  V30 2677 H 250.467 5.70998 -0.513272 0
M  V30 2678 H 248.864 5.86072 -1.28997 0
M  V30 2679 H 249.934 4.52322 -1.74737 0
M  V30 2680 N 251.277 0.427512 1.51691 0
M  V30 2681 C 252.505 -0.141191 2.06418 0
M  V30 2682 C 252.92 -1.37303 1.29589 0
M  V30 2683 O 252.277 -1.79059 0.352732 0
M  V30 2684 C 252.328 -0.473266 3.58389 0
M  V30 2685 O 252.049 0.709673 4.32314 0
M  V30 2686 C 253.55 -1.09371 4.29596 0
M  V30 2687 H 250.77 -0.0122747 0.670888 0
M  V30 2688 H 253.314 0.603764 1.95384 0
M  V30 2689 H 251.469 -1.16812 3.69369 0
M  V30 2690 H 251.883 0.42807 5.2275 0
M  V30 2691 H 253.357 -1.27613 5.37046 0
M  V30 2692 H 253.834 -2.072 3.87253 0
M  V30 2693 H 254.44 -0.43853 4.23033 0
M  V30 2694 N 252.755 -1.56801 0.158532 0
M  V30 2695 C 253.705 -2.13923 -0.788738 0
M  V30 2696 C 254.689 -1.07006 -1.2016 0
M  V30 2697 O 255.881 -1.33159 -1.1661 0
M  V30 2698 C 253.01 -2.77348 -2.02319 0
M  V30 2699 C 252.096 -3.91404 -1.6329 0
M  V30 2700 N 252.487 -4.9677 -0.951463 0
M  V30 2701 C 250.785 -4.02326 -1.92482 0
M  V30 2702 C 251.486 -5.76698 -0.761221 0
M  V30 2703 N 250.462 -5.27859 -1.29869 0
M  V30 2704 H 254.264 -2.92757 -0.258995 0
M  V30 2705 H 251.778 -1.62344 -0.0426055 0
M  V30 2706 H 253.775 -3.16639 -2.71192 0
M  V30 2707 H 252.435 -1.99991 -2.558 0
M  V30 2708 H 253.446 -5.14284 -0.610928 0
M  V30 2709 H 250.123 -3.36059 -2.47732 0
M  V30 2710 H 251.513 -6.71529 -0.223284 0
M  V30 2711 N 254.233 0.115231 -1.57178 0
M  V30 2712 C 255.163 1.1423 -2.03651 0
M  V30 2713 C 256.144 1.42967 -0.921655 0
M  V30 2714 O 257.329 1.53343 -1.19162 0
M  V30 2715 C 254.459 2.4675 -2.44401 0
M  V30 2716 C 253.413 2.32467 -3.59365 0
M  V30 2717 C 252.739 3.69984 -3.86026 0
M  V30 2718 C 254.039 1.78203 -4.90959 0
M  V30 2719 H 255.733 0.755749 -2.89705 0
M  V30 2720 H 253.279 0.362093 -1.39373 0
M  V30 2721 H 255.232 3.18854 -2.75517 0
M  V30 2722 H 253.956 2.87302 -1.55322 0
M  V30 2723 H 252.615 1.62811 -3.28463 0
M  V30 2724 H 252.263 4.08028 -2.94147 0
M  V30 2725 H 251.963 3.61279 -4.63412 0
M  V30 2726 H 253.487 4.43587 -4.19599 0
M  V30 2727 H 254.901 2.40128 -5.20587 0
M  V30 2728 H 253.298 1.8031 -5.72371 0
M  V30 2729 H 254.368 0.739876 -4.79222 0
M  V30 2730 N 255.711 1.52812 0.385517 0
M  V30 2731 C 256.939 1.71907 1.15133 0
M  V30 2732 C 257.354 0.439004 1.83625 0
M  V30 2733 O 256.711 -0.586765 1.7281 0
M  V30 2734 C 256.762 2.87099 2.19673 0
M  V30 2735 O 256.483 4.10151 1.53973 0
M  V30 2736 C 257.984 3.17902 3.08955 0
M  V30 2737 H 255.204 0.575479 0.345057 0
M  V30 2738 H 257.748 1.99476 0.45052 0
M  V30 2739 H 255.903 2.61982 2.85384 0
M  V30 2740 H 256.317 4.74514 2.23465 0
M  V30 2741 H 257.791 4.01959 3.7833 0
M  V30 2742 H 258.268 2.3243 3.72657 0
M  V30 2743 H 258.874 3.44871 2.48885 0
M  V30 2744 N 257.189 -0.644168 1.43834 0
M  V30 2745 C 258.436 -1.40395 1.4593 0
M  V30 2746 C 258.764 -1.94305 0.0869658 0
M  V30 2747 O 258.019 -1.73288 -0.909378 0
M  V30 2748 C 258.318 -2.59615 2.45631 0
M  V30 2749 C 257.984 -2.2407 3.91284 0
M  V30 2750 C 256.646 -2.14089 4.30952 0
M  V30 2751 C 258.998 -1.95775 4.83034 0
M  V30 2752 C 256.326 -1.73981 5.6031 0
M  V30 2753 C 258.678 -1.57163 6.12766 0
M  V30 2754 C 257.342 -1.45713 6.51402 0
M  V30 2755 H 256.612 -0.513741 0.533995 0
M  V30 2756 H 259.259 -0.731724 1.76969 0
M  V30 2757 H 257.564 -3.32011 2.08028 0
M  V30 2758 H 259.261 -3.17834 2.44504 0
M  V30 2759 H 255.851 -2.32753 3.59895 0
M  V30 2760 H 260.035 -2.02403 4.53152 0
M  V30 2761 H 255.291 -1.63709 5.89075 0
M  V30 2762 H 259.465 -1.34303 6.83327 0
M  V30 2763 H 257.092 -1.14406 7.51542 0
M  V30 2764 N 258.668 -1.30515 -0.883378 0
M  V30 2765 C 259.916 -1.19194 -1.63209 0
M  V30 2766 C 260.237 0.253205 -1.93349 0
M  V30 2767 O 259.507 1.17025 -1.57105 0
M  V30 2768 H 258.087 -0.438148 -0.605009 0
M  V30 2769 H 260.749 -1.63663 -1.05832 0
M  V30 2770 H 259.845 -1.75396 -2.58153 0
M  V30 2771 N 260.146 1.09593 -1.13257 0
M  V30 2772 C 261.093 2.1618 -0.808381 0
M  V30 2773 C 262.063 1.64517 0.228754 0
M  V30 2774 O 263.248 1.9053 0.101381 0
M  V30 2775 C 260.388 3.43973 -0.278675 0
M  V30 2776 C 259.501 4.09545 -1.37466 0
M  V30 2777 C 258.636 5.25088 -0.803479 0
M  V30 2778 C 257.675 5.82579 -1.87799 0
M  V30 2779 N 256.812 6.89486 -1.32488 0
M  V30 2780 H 261.652 2.43254 -1.72138 0
M  V30 2781 H 259.189 1.19392 -0.859294 0
M  V30 2782 H 261.147 4.17174 0.0465583 0
M  V30 2783 H 259.777 3.17223 0.597459 0
M  V30 2784 H 258.829 3.34226 -1.81652 0
M  V30 2785 H 260.141 4.48307 -2.18684 0
M  V30 2786 H 259.295 6.05178 -0.429427 0
M  V30 2787 H 258.034 4.87684 0.0397956 0
M  V30 2788 H 257.039 5.01152 -2.26113 0
M  V30 2789 H 258.264 6.22045 -2.72463 0
M  V30 2790 H 256.21 6.54064 -0.503575 0
M  V30 2791 H 256.127 7.27007 -2.07355 0
M  V30 2792 H 257.395 7.73336 -0.978336 0
M  V30 2793 N 261.624 0.925811 1.2754 0
M  V30 2794 C 262.534 0.428993 2.30644 0
M  V30 2795 C 263.55 -0.489387 1.66976 0
M  V30 2796 O 264.726 -0.372653 1.97922 0
M  V30 2797 C 261.791 -0.311967 3.45294 0
M  V30 2798 C 260.852 0.641098 4.24486 0
M  V30 2799 C 260.085 -0.0645955 5.33661 0
M  V30 2800 O 260.308 -1.28429 5.55754 0
M  V30 2801 O 259.242 0.606265 5.98839 0
M  V30 2802 H 263.068 1.28504 2.75173 0
M  V30 2803 H 260.653 0.691086 1.32455 0
M  V30 2804 H 262.535 -0.729972 4.15029 0
M  V30 2805 H 261.21 -1.14365 3.02824 0
M  V30 2806 H 260.117 1.10874 3.57292 0
M  V30 2807 H 261.45 1.43995 4.70666 0
M  V30 2808 N 263.102 -1.41638 0.69111 0
M  V30 2809 C 264.349 -2.01299 0.220193 0
M  V30 2810 C 264.677 -1.54715 -1.17871 0
M  V30 2811 O 263.932 -0.747193 -1.80874 0
M  V30 2812 C 264.231 -3.56714 0.221277 0
M  V30 2813 C 263.897 -4.22792 1.56709 0
M  V30 2814 C 262.559 -4.40557 1.93554 0
M  V30 2815 C 264.911 -4.59883 2.45268 0
M  V30 2816 C 262.239 -4.92688 3.18552 0
M  V30 2817 C 264.591 -5.13403 3.69595 0
M  V30 2818 C 263.255 -5.29379 4.06589 0
M  V30 2819 H 262.525 -0.736606 0.0805743 0
M  V30 2820 H 265.172 -1.69598 0.889319 0
M  V30 2821 H 263.477 -3.8818 -0.531391 0
M  V30 2822 H 265.174 -4.00678 -0.160547 0
M  V30 2823 H 261.764 -4.09336 1.2705 0
M  V30 2824 H 265.948 -4.45817 2.18084 0
M  V30 2825 H 261.204 -5.03242 3.47214 0
M  V30 2826 H 265.378 -5.41084 4.38407 0
M  V30 2827 H 263.005 -5.69537 5.03519 0
M  V30 2828 N 264.58 -0.43555 -1.51462 0
M  V30 2829 C 265.808 0.130242 -2.0649 0
M  V30 2830 C 266.223 1.36614 -1.30315 0
M  V30 2831 O 265.58 1.78869 -0.362223 0
M  V30 2832 C 265.631 0.454253 -3.58635 0
M  V30 2833 O 265.352 -0.73259 -4.31931 0
M  V30 2834 C 266.853 1.07091 -4.3017 0
M  V30 2835 H 264.073 0.00871669 -0.670943 0
M  V30 2836 H 266.617 -0.614117 -1.95061 0
M  V30 2837 H 264.772 1.14851 -3.69984 0
M  V30 2838 H 265.186 -0.455787 -5.22516 0
M  V30 2839 H 266.66 1.24764 -5.37716 0
M  V30 2840 H 267.137 2.05144 -3.88346 0
M  V30 2841 H 267.743 0.416089 -4.2326 0
M  V30 2842 N 266.058 1.56714 -0.166846 0
M  V30 2843 C 266.968 2.21331 0.777791 0
M  V30 2844 C 267.984 1.20358 1.25658 0
M  V30 2845 O 269.16 1.53005 1.30964 0
M  V30 2846 C 266.225 2.83787 1.99163 0
M  V30 2847 C 265.286 3.99947 1.56016 0
M  V30 2848 C 264.519 4.59415 2.71613 0
M  V30 2849 O 264.742 4.17769 3.88362 0
M  V30 2850 O 263.676 5.49359 2.45945 0
M  V30 2851 H 267.502 3.02605 0.257636 0
M  V30 2852 H 265.087 1.49275 0.0611393 0
M  V30 2853 H 266.969 3.23405 2.70161 0
M  V30 2854 H 265.644 2.05513 2.50092 0
M  V30 2855 H 264.551 3.65007 0.819809 0
M  V30 2856 H 265.884 4.79801 1.09782 0
M  V30 2857 N 267.536 -0.106894 1.57237 0
M  V30 2858 C 268.499 -1.11466 2.0027 0
M  V30 2859 C 269.499 -1.33623 0.894519 0
M  V30 2860 O 270.689 -1.29935 1.16028 0
M  V30 2861 C 267.821 -2.46646 2.35327 0
M  V30 2862 H 269.014 -0.744516 2.90512 0
M  V30 2863 H 266.567 -0.351576 1.52295 0
M  V30 2864 H 267.302 -2.88558 1.48003 0
M  V30 2865 H 267.087 -2.31915 3.16161 0
M  V30 2866 H 268.577 -3.19151 2.69318 0
M  V30 2867 N 269.014 -1.53014 -0.377408 0
M  V30 2868 C 270.26 -1.68872 -1.12294 0
M  V30 2869 C 270.593 -0.433224 -1.89306 0
M  V30 2870 O 269.868 0.569258 -1.85983 0
M  V30 2871 C 270.151 -2.93115 -2.09179 0
M  V30 2872 C 270.004 -4.28794 -1.35853 0
M  V30 2873 C 271.323 -3.12928 -3.09458 0
M  V30 2874 H 268.442 -0.614518 -0.406862 0
M  V30 2875 H 271.084 -1.85633 -0.40503 0
M  V30 2876 H 269.234 -2.78956 -2.70399 0
M  V30 2877 H 270.906 -4.54742 -0.775082 0
M  V30 2878 H 269.149 -4.28744 -0.660364 0
M  V30 2879 H 269.82 -5.11837 -2.06706 0
M  V30 2880 H 272.296 -3.26194 -2.58334 0
M  V30 2881 H 271.172 -4.01316 -3.74482 0
M  V30 2882 H 271.433 -2.27669 -3.78971 0
M  V30 2883 N 270.492 0.636531 -1.44174 0
M  V30 2884 C 271.402 1.77754 -1.53103 0
M  V30 2885 C 272.418 1.68928 -0.417034 0
M  V30 2886 O 273.594 1.89801 -0.6736 0
M  V30 2887 C 270.659 3.14115 -1.46741 0
M  V30 2888 C 269.72 3.34612 -2.68948 0
M  V30 2889 C 268.953 4.64467 -2.6288 0
M  V30 2890 O 269.176 5.44919 -1.68581 0
M  V30 2891 O 268.11 4.87049 -3.53648 0
M  V30 2892 H 271.936 1.73174 -2.49489 0
M  V30 2893 H 269.521 0.79709 -1.2636 0
M  V30 2894 H 271.403 3.95412 -1.45696 0
M  V30 2895 H 270.078 3.19249 -0.534975 0
M  V30 2896 H 268.985 2.53014 -2.75562 0
M  V30 2897 H 270.318 3.34336 -3.61221 0
M  V30 2898 N 271.97 1.30982 0.876444 0
M  V30 2899 C 272.933 1.18054 1.96459 0
M  V30 2900 C 273.933 0.109399 1.60427 0
M  V30 2901 O 275.123 0.358173 1.70478 0
M  V30 2902 C 272.255 0.810616 3.31122 0
M  V30 2903 H 273.448 2.14735 2.09354 0
M  V30 2904 H 271.001 1.145 1.06392 0
M  V30 2905 H 271.736 -0.155322 3.23928 0
M  V30 2906 H 271.521 1.58481 3.58645 0
M  V30 2907 H 273.011 0.743876 4.10921 0
M  V30 2908 N 273.449 -1.08991 1.13837 0
M  V30 2909 C 274.396 -2.15748 0.819835 0
M  V30 2910 C 275.366 -1.64636 -0.220026 0
M  V30 2911 O 276.551 -1.90582 -0.0912757 0
M  V30 2912 C 273.691 -3.4382 0.296913 0
M  V30 2913 C 272.804 -4.0881 1.39636 0
M  V30 2914 C 271.939 -5.24655 0.831314 0
M  V30 2915 C 270.978 -5.81575 1.90886 0
M  V30 2916 N 270.115 -6.88774 1.36142 0
M  V30 2917 H 274.955 -2.42338 1.73426 0
M  V30 2918 H 272.492 -1.18935 0.865613 0
M  V30 2919 H 274.45 -4.17193 -0.0244339 0
M  V30 2920 H 273.08 -3.17535 -0.580628 0
M  V30 2921 H 272.132 -3.33258 1.83422 0
M  V30 2922 H 273.444 -4.47141 2.21058 0
M  V30 2923 H 272.598 -6.04942 0.461515 0
M  V30 2924 H 271.337 -4.87698 -0.013932 0
M  V30 2925 H 270.342 -4.99946 2.28767 0
M  V30 2926 H 271.567 -6.20592 2.75758 0
M  V30 2927 H 269.513 -6.53788 0.538254 0
M  V30 2928 H 269.43 -7.25898 2.11208 0
M  V30 2929 H 270.698 -7.72806 1.01933 0
M  V30 2930 N 274.927 -0.932562 -1.27047 0
M  V30 2931 C 275.859 -0.392734 -2.2581 0
M  V30 2932 C 276.872 0.479241 -1.55586 0
M  V30 2933 O 278.061 0.291078 -1.76111 0
M  V30 2934 C 275.161 0.455456 -3.35826 0
M  V30 2935 C 274.334 -0.398355 -4.35582 0
M  V30 2936 C 273.393 0.387985 -5.24768 0
M  V30 2937 O 272.419 -0.206003 -5.68827 0
M  V30 2938 N 273.621 1.68664 -5.55457 0
M  V30 2939 H 276.386 -1.24173 -2.72766 0
M  V30 2940 H 273.947 -0.800511 -1.40725 0
M  V30 2941 H 275.939 0.988692 -3.92437 0
M  V30 2942 H 274.509 1.20522 -2.88432 0
M  V30 2943 H 273.729 -1.11286 -3.78165 0
M  V30 2944 H 275.017 -0.981889 -4.99236 0
M  V30 2945 H 274.415 2.19147 -5.21528 0
M  V30 2946 H 272.972 2.1663 -6.14748 0
M  V30 2947 N 276.405 1.4127 -0.698611 0
M  V30 2948 C 277.651 2.01478 -0.231207 0
M  V30 2949 C 277.984 1.55215 1.16713 0
M  V30 2950 O 277.259 0.764672 1.78838 0
M  V30 2951 C 277.542 3.58912 -0.292281 0
M  V30 2952 C 277.395 4.15293 -1.72778 0
M  V30 2953 C 278.714 4.38736 0.346194 0
M  V30 2954 H 275.833 0.732025 -0.0854878 0
M  V30 2955 H 278.475 1.67977 -0.887906 0
M  V30 2956 H 276.625 3.87582 0.26686 0
M  V30 2957 H 278.297 3.97486 -2.341 0
M  V30 2958 H 276.54 3.7022 -2.26096 0
M  V30 2959 H 277.211 5.24452 -1.72202 0
M  V30 2960 H 279.687 4.15897 -0.130035 0
M  V30 2961 H 278.563 5.48221 0.272932 0
M  V30 2962 H 278.824 4.18425 1.42734 0
M  V30 2963 N 277.883 0.443576 1.51229 0
M  V30 2964 C 278.846 -0.353132 2.26463 0
M  V30 2965 C 279.846 -0.944338 1.3015 0
M  V30 2966 O 281.036 -0.817813 1.5381 0
M  V30 2967 C 278.168 -1.50023 3.06114 0
M  V30 2968 H 279.361 0.3063 2.98332 0
M  V30 2969 H 276.914 0.196902 1.55055 0
M  V30 2970 H 277.649 -2.19553 2.38677 0
M  V30 2971 H 277.434 -1.08241 3.76864 0
M  V30 2972 H 278.924 -2.06296 3.63087 0
M  V30 2973 N 279.361 -1.56624 0.175154 0
M  V30 2974 C 280.293 -2.15333 -0.785128 0
M  V30 2975 C 281.306 -1.1099 -1.19101 0
M  V30 2976 O 282.495 -1.38162 -1.13019 0
M  V30 2977 C 279.595 -2.68427 -2.06882 0
M  V30 2978 C 278.768 -3.97466 -1.8259 0
M  V30 2979 C 277.827 -4.35585 -2.95215 0
M  V30 2980 O 276.853 -5.03389 -2.65684 0
M  V30 2981 N 278.055 -3.97457 -4.23094 0
M  V30 2982 H 280.82 -2.98359 -0.283187 0
M  V30 2983 H 278.381 -1.61898 -0.00749817 0
M  V30 2984 H 280.373 -2.90924 -2.81328 0
M  V30 2985 H 278.943 -1.89968 -2.48256 0
M  V30 2986 H 278.163 -3.83307 -0.920287 0
M  V30 2987 H 279.451 -4.81736 -1.63733 0
M  V30 2988 H 278.849 -3.42878 -4.49945 0
M  V30 2989 H 277.406 -4.24947 -4.9423 0
M  V30 2990 N 280.839 0.0985539 -1.57292 0
M  V30 2991 C 281.771 1.14595 -1.98496 0
M  V30 2992 C 282.784 1.36512 -0.887031 0
M  V30 2993 O 283.973 1.35225 -1.16518 0
M  V30 2994 C 281.073 2.50216 -2.28572 0
M  V30 2995 C 280.246 2.48624 -3.59868 0
M  V30 2996 C 279.305 3.66146 -3.7792 0
M  V30 2997 O 278.331 3.48795 -4.49812 0
M  V30 2998 N 279.533 4.85496 -3.18235 0
M  V30 2999 H 282.298 0.795277 -2.88956 0
M  V30 3000 H 279.859 0.287579 -1.59325 0
M  V30 3001 H 281.851 3.27432 -2.37845 0
M  V30 3002 H 280.421 2.77387 -1.44136 0
M  V30 3003 H 279.641 1.56978 -3.61596 0
M  V30 3004 H 280.929 2.44635 -4.46129 0
M  V30 3005 H 280.327 5.02497 -2.59833 0
M  V30 3006 H 278.884 5.60317 -3.32999 0
M  V30 3007 N 282.317 1.53212 0.369288 0
M  V30 3008 C 283.227 1.82342 1.47609 0
M  V30 3009 C 284.243 0.711532 1.58787 0
M  V30 3010 O 285.419 1.0012 1.74751 0
M  V30 3011 C 282.484 2.00393 2.8292 0
M  V30 3012 C 281.545 3.24297 2.81301 0
M  V30 3013 C 280.778 3.41478 4.10157 0
M  V30 3014 O 281.001 2.63033 5.06132 0
M  V30 3015 O 279.935 4.34817 4.16194 0
M  V30 3016 H 283.761 2.76366 1.25918 0
M  V30 3017 H 281.346 1.38547 0.559034 0
M  V30 3018 H 283.228 2.13859 3.63101 0
M  V30 3019 H 281.903 1.09559 3.04596 0
M  V30 3020 H 280.81 3.16257 1.99831 0
M  V30 3021 H 282.143 4.15041 2.64578 0
M  V30 3022 N 283.795 -0.628877 1.44509 0
M  V30 3023 C 284.758 -1.72263 1.51188 0
M  V30 3024 C 285.758 -1.55907 0.39367 0
M  V30 3025 O 286.948 -1.61361 0.656377 0
M  V30 3026 C 284.08 -3.11365 1.38798 0
M  V30 3027 H 285.273 -1.67714 2.4862 0
M  V30 3028 H 282.826 -0.842737 1.31634 0
M  V30 3029 H 283.561 -3.21507 0.424693 0
M  V30 3030 H 283.346 -3.24644 2.19884 0
M  V30 3031 H 284.836 -3.91075 1.46458 0
M  V30 3032 N 285.273 -1.31445 -0.869486 0
M  V30 3033 C 286.183 -1.21097 -2.0093 0
M  V30 3034 C 287.199 -0.127584 -1.73532 0
M  V30 3035 O 288.375 -0.345477 -1.98415 0
M  V30 3036 C 285.44 -0.919378 -3.34288 0
M  V30 3037 C 284.501 -2.08971 -3.75006 0
M  V30 3038 C 283.734 -1.81194 -5.02001 0
M  V30 3039 O 283.957 -0.747296 -5.65484 0
M  V30 3040 O 282.891 -2.66883 -5.39497 0
M  V30 3041 H 286.717 -2.16883 -2.12592 0
M  V30 3042 H 284.302 -1.11189 -0.997868 0
M  V30 3043 H 286.184 -0.772625 -4.14257 0
M  V30 3044 H 284.859 0.00844772 -3.23699 0
M  V30 3045 H 283.766 -2.29187 -2.95676 0
M  V30 3046 H 285.099 -2.9998 -3.90221 0
M  V30 3047 N 286.751 1.08385 -1.14413 0
M  V30 3048 C 288.167 1.32844 -0.884563 0
M  V30 3049 C 288.367 1.95841 0.474181 0
M  V30 3050 O 287.423 2.21158 1.21842 0
M  V30 3051 C 288.736 2.22978 -2.01745 0
M  V30 3052 C 290.284 2.36458 -2.05077 0
M  V30 3053 C 290.759 3.29934 -3.1766 0
M  V30 3054 N 292.25 3.37511 -3.17239 0
M  V30 3055 C 292.985 4.09871 -4.0099 0
M  V30 3056 N 292.481 4.84936 -4.94781 0
M  V30 3057 N 294.274 4.05704 -3.89051 0
M  V30 3058 H 286.425 0.658756 -2.01926 0
M  V30 3059 H 288.688 0.352821 -0.879899 0
M  V30 3060 H 288.394 1.83934 -2.99769 0
M  V30 3061 H 288.268 3.23441 -1.94077 0
M  V30 3062 H 290.655 2.7476 -1.0766 0
M  V30 3063 H 290.736 1.35736 -2.16816 0
M  V30 3064 H 290.38 2.92352 -4.15322 0
M  V30 3065 H 290.31 4.30584 -3.03158 0
M  V30 3066 H 292.801 2.83996 -2.49308 0
M  V30 3067 H 293.114 5.37612 -5.55151 0
M  V30 3068 H 291.459 4.83988 -4.98779 0
M  V30 3069 H 294.65 3.46167 -3.15097 0
M  V30 3070 H 294.823 4.61834 -4.54547 0
M  V30 3071 N 288.23 0.939286 1.26551 0
M  V30 3072 C 289.193 0.451987 2.24699 0
M  V30 3073 C 290.193 -0.435869 1.5478 0
M  V30 3074 O 291.383 -0.235314 1.72603 0
M  V30 3075 C 288.515 -0.348801 3.39111 0
M  V30 3076 H 289.708 1.3193 2.69322 0
M  V30 3077 H 287.261 0.721072 1.38673 0
M  V30 3078 H 287.996 -1.23444 2.99887 0
M  V30 3079 H 287.781 0.287945 3.91041 0
M  V30 3080 H 289.271 -0.679726 4.12031 0
M  V30 3081 N 289.708 -1.40897 0.706093 0
M  V30 3082 C 291.124 -1.55042 0.37869 0
M  V30 3083 C 291.324 -1.67944 -1.11342 0
M  V30 3084 O 290.38 -1.66372 -1.89938 0
M  V30 3085 C 291.693 -2.78398 1.13643 0
M  V30 3086 C 293.241 -2.92206 1.12181 0
M  V30 3087 C 293.716 -4.18463 1.86152 0
M  V30 3088 N 295.207 -4.25443 1.83173 0
M  V30 3089 C 295.942 -5.2202 2.37239 0
M  V30 3090 N 295.438 -6.24563 2.99821 0
M  V30 3091 N 297.231 -5.14033 2.27435 0
M  V30 3092 H 289.382 -1.30769 1.67372 0
M  V30 3093 H 291.645 -0.631653 0.706907 0
M  V30 3094 H 291.351 -2.7511 2.19106 0
M  V30 3095 H 291.225 -3.70228 0.721853 0
M  V30 3096 H 293.612 -2.95004 0.0754171 0
M  V30 3097 H 293.693 -2.01521 1.57554 0
M  V30 3098 H 293.337 -4.16427 2.90776 0
M  V30 3099 H 293.267 -5.08141 1.38206 0
M  V30 3100 H 295.758 -3.51976 1.37556 0
M  V30 3101 H 296.071 -6.94665 3.38616 0
M  V30 3102 H 294.416 -6.25035 3.03902 0
M  V30 3103 H 297.607 -4.3285 1.78208 0
M  V30 3104 H 297.78 -5.89129 2.69873 0
M  V30 3105 N 291.186 -0.45159 -1.50991 0
M  V30 3106 C 292.433 0.110074 -2.02201 0
M  V30 3107 C 292.761 1.4146 -1.33489 0
M  V30 3108 O 292.016 1.90617 -0.443125 0
M  V30 3109 C 292.315 0.361728 -3.55565 0
M  V30 3110 C 291.981 -0.858717 -4.42648 0
M  V30 3111 C 290.643 -1.19338 -4.66167 0
M  V30 3112 C 292.995 -1.67221 -4.93646 0
M  V30 3113 C 290.323 -2.34195 -5.37931 0
M  V30 3114 C 292.675 -2.8119 -5.6667 0
M  V30 3115 C 291.339 -3.15094 -5.88449 0
M  V30 3116 H 290.609 0.040279 -0.739904 0
M  V30 3117 H 293.256 -0.601696 -1.81802 0
M  V30 3118 H 291.561 1.15554 -3.74372 0
M  V30 3119 H 293.258 0.80996 -3.92735 0
M  V30 3120 H 289.848 -0.58796 -4.24548 0
M  V30 3121 H 294.032 -1.42686 -4.75347 0
M  V30 3122 H 289.288 -2.6076 -5.53005 0
M  V30 3123 H 293.462 -3.44585 -6.05173 0
M  V30 3124 H 291.089 -4.04204 -6.43835 0
M  V30 3125 N 292.664 1.56529 -0.183458 0
M  V30 3126 C 293.91 1.97537 0.459036 0
M  V30 3127 C 294.243 1.06989 1.62071 0
M  V30 3128 O 293.518 0.11948 1.94133 0
M  V30 3129 C 293.801 3.47874 0.930368 0
M  V30 3130 C 293.654 4.492 -0.232317 0
M  V30 3131 C 294.973 4.01612 1.79989 0
M  V30 3132 H 292.092 0.718204 0.165383 0
M  V30 3133 H 294.734 1.88042 -0.272038 0
M  V30 3134 H 292.884 3.56095 1.55333 0
M  V30 3135 H 294.556 4.53027 -0.86972 0
M  V30 3136 H 292.799 4.24657 -0.885928 0
M  V30 3137 H 293.47 5.51823 0.139796 0
M  V30 3138 H 295.946 3.96097 1.27461 0
M  V30 3139 H 294.822 5.07195 2.09867 0
M  V30 3140 H 295.083 3.46163 2.74998 0
M  V30 3141 N 294.142 -0.090211 1.57342 0
M  V30 3142 C 295.388 -0.793982 1.86611 0
M  V30 3143 C 295.721 -1.78142 0.773252 0
M  V30 3144 O 294.996 -1.93271 -0.218304 0
M  V30 3145 C 295.279 -1.51839 3.26523 0
M  V30 3146 C 295.132 -0.548609 4.46442 0
M  V30 3147 C 296.451 -2.46779 3.64401 0
M  V30 3148 H 293.57 -0.287186 0.678744 0
M  V30 3149 H 296.212 -0.0575076 1.89913 0
M  V30 3150 H 294.362 -2.14617 3.23839 0
M  V30 3151 H 296.034 0.0725513 4.61243 0
M  V30 3152 H 294.277 0.137614 4.33582 0
M  V30 3153 H 294.948 -1.09271 5.41076 0
M  V30 3154 H 297.424 -1.94089 3.68061 0
M  V30 3155 H 296.3 -2.94479 4.63221 0
M  V30 3156 H 296.561 -3.30758 2.93346 0
M  V30 3157 N 295.62 -1.53406 -0.361157 0
M  V30 3158 C 296.53 -1.83122 -1.4664 0
M  V30 3159 C 297.546 -0.719943 -1.58407 0
M  V30 3160 O 298.722 -1.01046 -1.74218 0
M  V30 3161 C 295.787 -2.01891 -2.81853 0
M  V30 3162 C 294.848 -3.25784 -2.79577 0
M  V30 3163 C 294.081 -3.43648 -4.0834 0
M  V30 3164 O 294.304 -2.65714 -5.0473 0
M  V30 3165 O 293.238 -4.37018 -4.13883 0
M  V30 3166 H 297.064 -2.7703 -1.24451 0
M  V30 3167 H 294.649 -1.38841 -0.551678 0
M  V30 3168 H 296.531 -2.15782 -3.61962 0
M  V30 3169 H 295.206 -1.11173 -3.0401 0
M  V30 3170 H 294.113 -3.17312 -1.98151 0
M  V30 3171 H 295.446 -4.16439 -2.62373 0
M  V30 3172 N 297.098 0.621204 -1.44841 0
M  V30 3173 C 298.045 1.73267 -1.5247 0
M  V30 3174 C 299.015 1.6189 -0.371611 0
M  V30 3175 O 300.2 1.81668 -0.58321 0
M  V30 3176 C 297.34 3.11545 -1.48438 0
M  V30 3177 C 296.453 3.33827 -2.74196 0
M  V30 3178 C 295.588 4.62133 -2.61929 0
M  V30 3179 C 294.627 4.77627 -3.82804 0
M  V30 3180 N 293.764 5.97219 -3.69153 0
M  V30 3181 H 298.604 1.66082 -2.47428 0
M  V30 3182 H 296.141 0.810026 -1.22788 0
M  V30 3183 H 298.099 3.91528 -1.4409 0
M  V30 3184 H 296.729 3.1772 -0.570402 0
M  V30 3185 H 295.781 2.47715 -2.88689 0
M  V30 3186 H 297.093 3.41153 -3.6389 0
M  V30 3187 H 296.247 5.50291 -2.5547 0
M  V30 3188 H 294.986 4.57182 -1.69811 0
M  V30 3189 H 293.991 3.87896 -3.89637 0
M  V30 3190 H 295.216 4.84385 -4.75971 0
M  V30 3191 H 293.162 5.93339 -2.79794 0
M  V30 3192 H 293.079 6.05644 -4.52472 0
M  V30 3193 H 294.347 6.87912 -3.66603 0
M  V30 3194 N 298.576 1.31904 0.862503 0
M  V30 3195 C 299.539 1.20131 1.95195 0
M  V30 3196 C 300.539 0.126409 1.60302 0
M  V30 3197 O 301.729 0.376234 1.70089 0
M  V30 3198 C 298.861 0.845691 3.30244 0
M  V30 3199 H 300.054 2.16943 2.07064 0
M  V30 3200 H 297.607 1.15622 1.05172 0
M  V30 3201 H 298.342 -0.120957 3.24074 0
M  V30 3202 H 298.127 1.62276 3.56944 0
M  V30 3203 H 299.617 0.787418 4.10109 0
M  V30 3204 N 300.054 -1.07777 1.14986 0
M  V30 3205 C 300.964 -2.18404 0.856546 0
M  V30 3206 C 301.98 -1.73211 -0.165485 0
M  V30 3207 O 303.156 -2.01399 0.00755219 0
M  V30 3208 C 300.221 -3.44977 0.34526 0
M  V30 3209 C 299.282 -4.0476 1.43065 0
M  V30 3210 C 298.515 -5.25291 0.943663 0
M  V30 3211 O 298.738 -5.70004 -0.212426 0
M  V30 3212 O 297.672 -5.76638 1.72547 0
M  V30 3213 H 301.498 -2.45978 1.78125 0
M  V30 3214 H 299.083 -1.17033 0.928631 0
M  V30 3215 H 300.965 -4.21348 0.0663671 0
M  V30 3216 H 299.64 -3.18965 -0.551631 0
M  V30 3217 H 298.547 -3.29949 1.76309 0
M  V30 3218 H 299.88 -4.35035 2.30229 0
M  V30 3219 N 301.532 -0.945985 -1.26051 0
M  V30 3220 C 302.464 -0.416662 -2.25381 0
M  V30 3221 C 303.477 0.462712 -1.56086 0
M  V30 3222 O 304.666 0.272383 -1.7641 0
M  V30 3223 C 301.766 0.419812 -3.3629 0
M  V30 3224 C 300.939 -0.444531 -4.35135 0
M  V30 3225 C 299.998 0.332305 -5.2515 0
M  V30 3226 O 299.024 -0.266324 -5.68577 0
M  V30 3227 N 300.226 1.62763 -5.57215 0
M  V30 3228 H 302.991 -1.27059 -2.71433 0
M  V30 3229 H 300.552 -0.815392 -1.39868 0
M  V30 3230 H 302.544 0.947013 -3.93464 0
M  V30 3231 H 301.114 1.17456 -2.89694 0
M  V30 3232 H 300.334 -1.15291 -3.76964 0
M  V30 3233 H 301.622 -1.03478 -4.98166 0
M  V30 3234 H 301.02 2.13603 -5.23823 0
M  V30 3235 H 299.577 2.10097 -6.17011 0
M  V30 3236 N 303.011 1.40521 -0.713556 0
M  V30 3237 C 303.943 2.29191 -0.0203126 0
M  V30 3238 C 304.956 1.45723 0.725864 0
M  V30 3239 O 306.145 1.69033 0.573581 0
M  V30 3240 C 303.245 3.2395 0.995486 0
M  V30 3241 C 302.418 4.36262 0.315256 0
M  V30 3242 C 301.477 5.11474 1.23616 0
M  V30 3243 O 300.503 5.64606 0.721719 0
M  V30 3244 N 301.705 5.20638 2.56743 0
M  V30 3245 H 304.47 2.89327 -0.781652 0
M  V30 3246 H 302.031 1.51869 -0.561022 0
M  V30 3247 H 304.023 3.71137 1.61368 0
M  V30 3248 H 302.593 2.64995 1.6582 0
M  V30 3249 H 301.813 3.91228 -0.483106 0
M  V30 3250 H 303.101 5.08558 -0.157004 0
M  V30 3251 H 302.499 4.7895 3.01037 0
M  V30 3252 H 301.056 5.71339 3.13712 0
M  V30 3253 N 304.489 0.459591 1.5075 0
M  V30 3254 C 305.436 -0.340524 2.28274 0
M  V30 3255 C 306.406 -0.997371 1.32822 0
M  V30 3256 O 307.591 -1.01202 1.61749 0
M  V30 3257 C 304.731 -1.42317 3.14388 0
M  V30 3258 C 303.844 -0.782251 4.24859 0
M  V30 3259 C 302.979 -1.84182 4.98247 0
M  V30 3260 C 302.018 -1.18053 6.00608 0
M  V30 3261 N 301.155 -2.18244 6.67319 0
M  V30 3262 H 305.995 0.326899 2.96202 0
M  V30 3263 H 303.532 0.173057 1.46078 0
M  V30 3264 H 305.49 -2.06241 3.62658 0
M  V30 3265 H 304.12 -2.05992 2.4853 0
M  V30 3266 H 303.172 -0.0307404 3.80388 0
M  V30 3267 H 304.484 -0.259663 4.98124 0
M  V30 3268 H 303.638 -2.55714 5.50177 0
M  V30 3269 H 302.377 -2.39819 4.24662 0
M  V30 3270 H 301.382 -0.450776 5.47949 0
M  V30 3271 H 302.607 -0.631202 6.7616 0
M  V30 3272 H 300.553 -2.72919 5.96533 0
M  V30 3273 H 300.47 -1.70938 7.36421 0
M  V30 3274 H 301.738 -2.89191 7.23871 0
M  V30 3275 N 305.967 -1.56429 0.191757 0
M  V30 3276 C 306.914 -2.18936 -0.730454 0
M  V30 3277 C 307.884 -1.13557 -1.21219 0
M  V30 3278 O 309.069 -1.41794 -1.27668 0
M  V30 3279 C 306.209 -2.85013 -1.9458 0
M  V30 3280 C 305.322 -4.04909 -1.50574 0
M  V30 3281 C 304.457 -4.58853 -2.67634 0
M  V30 3282 C 303.496 -5.71114 -2.20217 0
M  V30 3283 N 302.633 -6.19478 -3.30442 0
M  V30 3284 H 307.473 -2.97389 -0.190664 0
M  V30 3285 H 305.01 -1.46869 -0.0823694 0
M  V30 3286 H 306.968 -3.21492 -2.65893 0
M  V30 3287 H 305.598 -2.09129 -2.45896 0
M  V30 3288 H 304.65 -3.74115 -0.688605 0
M  V30 3289 H 305.962 -4.86113 -1.11784 0
M  V30 3290 H 305.116 -4.97619 -3.47074 0
M  V30 3291 H 303.855 -3.76749 -3.09696 0
M  V30 3292 H 302.86 -5.31879 -1.3923 0
M  V30 3293 H 304.085 -6.55033 -1.79189 0
M  V30 3294 H 302.031 -5.40297 -3.72041 0
M  V30 3295 H 301.948 -6.95725 -2.9581 0
M  V30 3296 H 303.216 -6.62898 -4.10106 0
M  V30 3297 N 307.445 0.0818655 -1.57387 0
M  V30 3298 C 308.408 1.08265 -2.02018 0
M  V30 3299 C 309.408 1.32183 -0.915664 0
M  V30 3300 O 310.598 1.28073 -1.18081 0
M  V30 3301 C 307.73 2.42871 -2.39221 0
M  V30 3302 H 308.923 0.698204 -2.91659 0
M  V30 3303 H 306.476 0.327303 -1.52835 0
M  V30 3304 H 307.211 2.86167 -1.52575 0
M  V30 3305 H 306.996 2.26855 -3.19811 0
M  V30 3306 H 308.486 3.14826 -2.74362 0
M  V30 3307 N 308.923 1.53595 0.353017 0
M  V30 3308 C 309.886 1.80232 1.41594 0
M  V30 3309 C 310.886 0.673081 1.46035 0
M  V30 3310 O 312.076 0.941335 1.46576 0
M  V30 3311 C 309.208 1.93578 2.80607 0
M  V30 3312 H 310.401 2.75174 1.19244 0
M  V30 3313 H 307.954 1.44864 0.586872 0
M  V30 3314 H 308.689 1.00746 3.08254 0
M  V30 3315 H 308.474 2.75724 2.78781 0
M  V30 3316 H 309.964 2.15735 3.57558 0
M  V30 3317 N 310.401 -0.613514 1.45168 0
M  V30 3318 C 311.65 -1.36874 1.4815 0
M  V30 3319 C 311.963 -1.952 0.124982 0
M  V30 3320 O 313.169 -2.71481 0.0324176 0
M  V30 3321 C 311.625 -2.47905 2.60904 0
M  V30 3322 C 311.233 -1.96016 4.02842 0
M  V30 3323 C 312.977 -3.24965 2.73126 0
M  V30 3324 C 310.884 -3.04494 5.06988 0
M  V30 3325 H 309.814 -0.514428 0.551253 0
M  V30 3326 H 312.465 -0.658182 1.7129 0
M  V30 3327 H 310.847 -3.21618 2.31037 0
M  V30 3328 H 312.021 -1.29051 4.4236 0
M  V30 3329 H 310.336 -1.31719 3.95018 0
M  V30 3330 H 312.933 -4.05865 3.48106 0
M  V30 3331 H 313.276 -3.75588 1.79553 0
M  V30 3332 H 313.809 -2.5835 3.0249 0
M  V30 3333 H 310.548 -2.58795 6.0225 0
M  V30 3334 H 310.068 -3.70044 4.72046 0
M  V30 3335 H 311.747 -3.68976 5.31475 0
M  V30 3336 N 311.879 -1.3236 -0.855495 0
M  V30 3337 C 313.128 -1.22226 -1.60448 0
M  V30 3338 C 313.441 0.214733 -1.94418 0
M  V30 3339 O 314.647 0.437917 -2.67945 0
M  V30 3340 C 313.103 -2.14063 -2.89318 0
M  V30 3341 C 312.711 -3.62839 -2.62777 0
M  V30 3342 C 314.455 -2.12764 -3.67331 0
M  V30 3343 C 312.362 -4.4664 -3.87643 0
M  V30 3344 H 311.292 -0.453904 -0.602069 0
M  V30 3345 H 313.943 -1.57314 -0.944698 0
M  V30 3346 H 312.325 -1.71889 -3.5675 0
M  V30 3347 H 313.499 -4.1335 -2.03662 0
M  V30 3348 H 311.814 -3.66261 -1.98096 0
M  V30 3349 H 314.411 -2.72611 -4.59987 0
M  V30 3350 H 314.754 -1.11841 -4.00995 0
M  V30 3351 H 315.287 -2.53214 -3.06802 0
M  V30 3352 H 312.026 -5.48373 -3.5912 0
M  V30 3353 H 311.546 -4.0088 -4.46156 0
M  V30 3354 H 313.225 -4.59597 -4.55389 0
M  V30 3355 N 313.357 1.07166 -1.15556 0
M  V30 3356 C 314.582 1.84053 -0.955988 0
M  V30 3357 C 315.007 1.81586 0.490739 0
M  V30 3358 O 314.365 1.21018 1.34997 0
M  V30 3359 C 314.413 3.28957 -1.47714 0
M  V30 3360 O 313.517 4.06795 -0.677593 0
M  V30 3361 H 312.858 0.569842 -0.340847 0
M  V30 3362 H 315.388 1.35178 -1.53584 0
M  V30 3363 H 315.398 3.79788 -1.4908 0
M  V30 3364 H 314.073 3.30068 -2.53037 0
M  V30 3365 H 312.65 3.6561 -0.733721 0
M  V30 3366 N 314.835 0.952656 1.25548 0
M  V30 3367 C 315.798 0.475794 2.24207 0
M  V30 3368 C 316.798 -0.419428 1.55234 0
M  V30 3369 O 317.988 -0.216994 1.72843 0
M  V30 3370 C 315.12 -0.312814 3.39462 0
M  V30 3371 H 316.313 1.34779 2.67908 0
M  V30 3372 H 313.866 0.735739 1.37901 0
M  V30 3373 H 314.601 -1.20257 3.01179 0
M  V30 3374 H 314.386 0.329404 3.90714 0
M  V30 3375 H 315.876 -0.635986 4.12729 0
M  V30 3376 N 316.313 -1.40141 0.720998 0
M  V30 3377 C 317.223 -2.34486 0.0731031 0
M  V30 3378 C 318.239 -1.57587 -0.737723 0
M  V30 3379 O 319.415 -1.89949 -0.669429 0
M  V30 3380 C 316.48 -3.36528 -0.833656 0
M  V30 3381 C 315.541 -4.29298 -0.0121673 0
M  V30 3382 C 314.774 -5.26466 -0.875742 0
M  V30 3383 O 314.997 -5.29745 -2.11485 0
M  V30 3384 O 313.931 -6.01092 -0.31185 0
M  V30 3385 H 317.757 -2.9152 0.851444 0
M  V30 3386 H 315.342 -1.41427 0.481527 0
M  V30 3387 H 317.224 -3.99093 -1.35289 0
M  V30 3388 H 315.899 -2.81899 -1.59105 0
M  V30 3389 H 314.806 -3.70001 0.552262 0
M  V30 3390 H 316.139 -4.87094 0.707129 0
M  V30 3391 N 317.792 -0.46758 -1.50504 0
M  V30 3392 C 319.04 0.0884469 -2.01906 0
M  V30 3393 C 319.361 1.40532 -1.35188 0
M  V30 3394 O 318.631 1.89515 -0.496079 0
M  V30 3395 H 317.211 0.0356765 -0.746148 0
M  V30 3396 H 319.873 -0.6172 -1.84869 0
M  V30 3397 H 318.969 0.2425 -3.11156 0
M  V30 3398 N 319.27 1.56325 -0.20005 0
M  V30 3399 C 320.547 1.89484 0.48529 0
M  V30 3400 C 320.927 1.1143 1.79294 0
M  V30 3401 O 320.275 0.216919 2.27468 0
M  V30 3402 C 320.485 3.41923 0.699243 0
M  V30 3403 C 321.833 4.12256 1.01638 0
M  V30 3404 O 322.857 3.47402 0.786792 0
M  V30 3405 O 321.716 5.26887 1.45095 0
M  V30 3406 H 318.81 0.787144 0.253639 0
M  V30 3407 H 321.356 1.67985 -0.240633 0
M  V30 3408 H 320.128 3.90658 -0.224008 0
M  V30 3409 H 319.751 3.69131 1.47744 0
M  V30 3410 N 320.748 -0.0735177 1.57428 0
M  V30 3411 C 321.973 -0.789787 1.91774 0
M  V30 3412 C 322.398 -1.70413 0.796306 0
M  V30 3413 O 321.756 -1.79555 -0.250961 0
M  V30 3414 C 321.804 -1.5609 3.25067 0
M  V30 3415 O 320.908 -2.67144 3.14178 0
M  V30 3416 H 320.249 -0.215582 0.628029 0
M  V30 3417 H 322.779 -0.0422781 2.04556 0
M  V30 3418 H 322.789 -1.94052 3.58898 0
M  V30 3419 H 321.464 -0.890015 4.06265 0
M  V30 3420 H 320.041 -2.32052 2.91901 0
M  V30 3421 N 322.226 -1.5378 -0.344866 0
M  V30 3422 C 323.173 -1.81676 -1.42346 0
M  V30 3423 C 324.143 -0.662376 -1.52321 0
M  V30 3424 O 325.328 -0.906675 -1.67881 0
M  V30 3425 C 322.468 -2.03087 -2.79015 0
M  V30 3426 C 321.581 -3.30799 -2.77842 0
M  V30 3427 C 320.716 -3.42285 -4.0622 0
M  V30 3428 C 319.755 -4.6395 -3.9927 0
M  V30 3429 N 318.892 -4.72477 -5.19336 0
M  V30 3430 H 323.732 -2.73703 -1.17858 0
M  V30 3431 H 321.269 -1.35568 -0.570949 0
M  V30 3432 H 323.227 -2.1349 -3.58438 0
M  V30 3433 H 321.857 -1.14375 -3.01858 0
M  V30 3434 H 320.909 -3.29244 -1.90533 0
M  V30 3435 H 322.221 -4.20314 -2.68584 0
M  V30 3436 H 321.375 -3.52113 -4.94066 0
M  V30 3437 H 320.114 -2.50823 -4.18258 0
M  V30 3438 H 319.119 -4.54201 -3.09809 0
M  V30 3439 H 320.344 -5.56775 -3.88817 0
M  V30 3440 H 318.29 -3.83924 -5.3192 0
M  V30 3441 H 318.207 -5.55927 -5.12329 0
M  V30 3442 H 319.475 -4.86613 -6.08957 0
M  V30 3443 N 323.704 0.605807 -1.45491 0
M  V30 3444 C 324.667 1.69836 -1.5391 0
M  V30 3445 C 325.667 1.55261 -0.418424 0
M  V30 3446 O 326.857 1.60296 -0.681965 0
M  V30 3447 C 323.989 3.09117 -1.43734 0
M  V30 3448 H 325.182 1.63738 -2.51257 0
M  V30 3449 H 322.735 0.821689 -1.32959 0
M  V30 3450 H 323.47 3.20791 -0.475788 0
M  V30 3451 H 323.255 3.21104 -2.25021 0
M  V30 3452 H 324.745 3.88696 -1.52661 0
M  V30 3453 N 325.182 1.32811 0.848464 0
M  V30 3454 C 326.145 1.22194 1.9391 0
M  V30 3455 C 327.145 0.143404 1.60159 0
M  V30 3456 O 328.335 0.394253 1.6968 0
M  V30 3457 C 325.467 0.88067 3.29328 0
M  V30 3458 H 326.66 2.19127 2.04752 0
M  V30 3459 H 324.213 1.16731 1.0394 0
M  V30 3460 H 324.948 -0.0865776 3.24184 0
M  V30 3461 H 324.733 1.66052 3.55203 0
M  V30 3462 H 326.223 0.830871 4.09251 0
M  V30 3463 N 326.66 -1.06551 1.16123 0
M  V30 3464 C 327.57 -2.17484 0.879662 0
M  V30 3465 C 328.586 -1.73377 -0.147104 0
M  V30 3466 O 329.762 -2.01379 0.0289128 0
M  V30 3467 C 326.827 -3.44591 0.381829 0
M  V30 3468 C 325.888 -4.0322 1.4735 0
M  V30 3469 C 325.121 -5.24261 0.999324 0
M  V30 3470 O 325.344 -5.70198 -0.151957 0
M  V30 3471 O 324.278 -5.74775 1.78653 0
M  V30 3472 H 328.104 -2.44075 1.80724 0
M  V30 3473 H 325.689 -1.16042 0.940992 0
M  V30 3474 H 327.571 -4.21254 0.111053 0
M  V30 3475 H 326.246 -3.19532 -0.51777 0
M  V30 3476 H 325.153 -3.2806 1.79798 0
M  V30 3477 H 326.486 -4.32568 2.34831 0
M  V30 3478 N 328.138 -0.959301 -1.25041 0
M  V30 3479 C 329.068 -0.501388 -2.28053 0
M  V30 3480 C 330.049 0.454673 -1.63911 0
M  V30 3481 O 331.234 0.352618 -1.90972 0
M  V30 3482 C 328.364 0.217224 -3.4662 0
M  V30 3483 C 327.318 -0.654034 -4.22973 0
M  V30 3484 C 326.644 0.195589 -5.34342 0
M  V30 3485 C 327.944 -1.93447 -4.85155 0
M  V30 3486 H 329.638 -1.36238 -2.66608 0
M  V30 3487 H 327.184 -0.656534 -1.28163 0
M  V30 3488 H 329.137 0.548732 -4.17812 0
M  V30 3489 H 327.861 1.1125 -3.07068 0
M  V30 3490 H 326.52 -0.968693 -3.5357 0
M  V30 3491 H 326.168 1.09076 -4.91031 0
M  V30 3492 H 325.868 -0.384091 -5.86343 0
M  V30 3493 H 327.392 0.521958 -6.08365 0
M  V30 3494 H 328.806 -1.66908 -5.48466 0
M  V30 3495 H 327.203 -2.46018 -5.47353 0
M  V30 3496 H 328.273 -2.63466 -4.07079 0
M  V30 3497 N 329.616 1.39756 -0.72842 0
M  V30 3498 C 330.865 1.99879 -0.270407 0
M  V30 3499 C 331.178 1.58449 1.14688 0
M  V30 3500 O 332.384 2.11362 1.70407 0
M  V30 3501 C 330.84 3.57292 -0.43252 0
M  V30 3502 C 330.448 4.07688 -1.85727 0
M  V30 3503 C 332.192 4.24485 -0.0359507 0
M  V30 3504 C 330.099 5.5765 -1.96928 0
M  V30 3505 H 329.029 0.747689 -0.0973472 0
M  V30 3506 H 331.68 1.59837 -0.901355 0
M  V30 3507 H 330.062 3.95097 0.267219 0
M  V30 3508 H 331.236 3.81231 -2.58843 0
M  V30 3509 H 329.551 3.53135 -2.20646 0
M  V30 3510 H 332.148 5.34609 -0.0987484 0
M  V30 3511 H 332.491 4.03915 1.00787 0
M  V30 3512 H 333.024 3.9183 -0.686604 0
M  V30 3513 H 329.763 5.8309 -2.99476 0
M  V30 3514 H 329.283 5.8593 -1.28241 0
M  V30 3515 H 330.962 6.22957 -1.74737 0
M  V30 3516 N 331.094 0.475555 1.50254 0
M  V30 3517 C 332.057 -0.305016 2.27161 0
M  V30 3518 C 333.057 -0.916519 1.32123 0
M  V30 3519 O 334.247 -0.785003 1.5551 0
M  V30 3520 C 331.379 -1.43496 3.09227 0
M  V30 3521 H 332.572 0.369511 2.97615 0
M  V30 3522 H 330.125 0.229747 1.54602 0
M  V30 3523 H 330.86 -2.14441 2.43281 0
M  V30 3524 H 330.645 -1.00223 3.79075 0
M  V30 3525 H 332.135 -1.98548 3.67381 0
M  V30 3526 N 332.573 -1.56217 0.208337 0
M  V30 3527 C 333.521 -2.21053 -0.723769 0
M  V30 3528 C 334.515 -1.18578 -1.20978 0
M  V30 3529 O 335.721 -1.36691 -1.17114 0
M  V30 3530 H 332.096 -0.708595 -0.251788 0
M  V30 3531 H 334.067 -2.98006 -0.153365 0
M  V30 3532 C 332.816 -2.89417 -1.927 0
M  V30 3533 H 332.139 -3.68019 -1.56212 0
M  V30 3534 H 333.579 -3.38201 -2.55727 0
M  V30 3535 C 332.038 -1.91166 -2.77411 0
M  V30 3536 O 332.568 -1.42026 -3.75754 0
M  V30 3537 N 330.774 -1.59105 -2.43175 0
M  V30 3538 H 330.321 -1.99259 -1.63259 0
M  V30 3539 H 330.279 -0.936255 -3.00136 0
M  V30 3540 N 334.051 0.0651679 -1.57465 0
M  V30 3541 C 335.276 0.779605 -1.9219 0
M  V30 3542 C 335.701 1.69988 -0.805333 0
M  V30 3543 O 335.059 1.79685 0.241435 0
M  V30 3544 C 335.107 1.54364 -3.2589 0
M  V30 3545 O 334.211 2.65474 -3.1559 0
M  V30 3546 H 333.552 0.212249 -0.629163 0
M  V30 3547 H 336.082 0.0314294 -2.04576 0
M  V30 3548 H 336.092 1.92146 -3.59922 0
M  V30 3549 H 334.767 0.868457 -4.06732 0
M  V30 3550 H 333.344 2.30501 -2.93128 0
M  V30 3551 N 335.529 1.53961 0.336706 0
M  V30 3552 C 336.459 1.85417 1.41925 0
M  V30 3553 C 337.44 0.709856 1.5458 0
M  V30 3554 O 338.625 0.962396 1.68676 0
M  V30 3555 C 335.755 2.06985 2.78881 0
M  V30 3556 C 334.709 3.22813 2.81026 0
M  V30 3557 C 334.035 3.29727 4.20932 0
M  V30 3558 C 335.335 4.60767 2.45949 0
M  V30 3559 H 337.029 2.76079 1.15848 0
M  V30 3560 H 334.575 1.32839 0.555859 0
M  V30 3561 H 336.528 2.27575 3.54665 0
M  V30 3562 H 335.252 1.13061 3.06406 0
M  V30 3563 H 333.911 3.0209 2.07695 0
M  V30 3564 H 333.559 2.33385 4.45579 0
M  V30 3565 H 333.259 4.07566 4.23277 0
M  V30 3566 H 334.783 3.52536 4.98549 0
M  V30 3567 H 336.197 4.81325 3.11446 0
M  V30 3568 H 334.594 5.4106 2.59566 0
M  V30 3569 H 335.664 4.6391 1.41122 0
M  V30 3570 N 337.007 -0.598083 1.45811 0
M  V30 3571 C 337.97 -1.69018 1.54808 0
M  V30 3572 C 338.97 -1.55037 0.426652 0
M  V30 3573 O 340.16 -1.59932 0.690456 0
M  V30 3574 C 337.292 -3.0835 1.45371 0
M  V30 3575 H 338.485 -1.62403 2.52121 0
M  V30 3576 H 336.038 -0.814626 1.33392 0
M  V30 3577 H 336.773 -3.20534 0.492793 0
M  V30 3578 H 336.558 -3.19907 2.26721 0
M  V30 3579 H 338.048 -3.8788 1.54721 0
M  V30 3580 N 338.485 -1.33259 -0.841409 0
M  V30 3581 C 339.713 -1.27605 -1.62864 0
M  V30 3582 C 340.128 0.153507 -1.88175 0
M  V30 3583 O 339.485 1.09485 -1.46011 0
M  V30 3584 C 339.536 -2.04596 -2.98031 0
M  V30 3585 O 339.257 -3.41975 -2.73834 0
M  V30 3586 C 340.758 -2.06122 -3.92465 0
M  V30 3587 H 337.978 -0.439718 -0.506842 0
M  V30 3588 H 340.522 -1.75591 -1.04824 0
M  V30 3589 H 338.677 -1.60299 -3.5268 0
M  V30 3590 H 339.091 -3.81549 -3.59889 0
M  V30 3591 H 340.565 -2.64451 -4.84531 0
M  V30 3592 H 341.042 -1.05083 -4.26444 0
M  V30 3593 H 341.648 -2.50427 -3.43753 0
M  V30 3594 N 339.963 1.05934 -1.16686 0
M  V30 3595 C 340.926 2.11669 -0.879144 0
M  V30 3596 C 341.926 1.60294 0.127445 0
M  V30 3597 O 343.116 1.7389 -0.103865 0
M  V30 3598 C 340.248 3.39438 -0.315425 0
M  V30 3599 H 341.441 2.38626 -1.81653 0
M  V30 3600 H 338.994 1.22058 -0.976299 0
M  V30 3601 H 339.729 3.18132 0.629468 0
M  V30 3602 H 339.514 3.78034 -1.04079 0
M  V30 3603 H 341.004 4.17391 -0.132189 0
M  V30 3604 N 341.441 0.965919 1.2453 0
M  V30 3605 C 342.689 0.625593 1.92174 0
M  V30 3606 C 343.01 -0.841652 1.75901 0
M  V30 3607 O 342.28 -1.60061 1.12948 0
M  V30 3608 H 340.86 0.228388 0.71123 0
M  V30 3609 H 343.522 1.2266 1.51461 0
M  V30 3610 H 342.618 0.864653 2.99884 0
M  V30 3611 N 342.919 -1.39368 0.735821 0
M  V30 3612 C 344.196 -1.94465 0.210395 0
M  V30 3613 C 344.576 -1.67254 -1.28799 0
M  V30 3614 O 343.924 -1.00123 -2.05396 0
M  V30 3615 C 344.134 -3.4472 0.544897 0
M  V30 3616 C 345.482 -4.21708 0.494689 0
M  V30 3617 O 346.506 -3.52922 0.482136 0
M  V30 3618 O 345.365 -5.44299 0.489947 0
M  V30 3619 H 342.459 -0.826096 0.0386666 0
M  V30 3620 H 345.005 -1.48863 0.814735 0
M  V30 3621 H 343.777 -3.57963 1.58045 0
M  V30 3622 H 343.4 -3.97502 -0.08837 0
M  V30 3623 N 344.397 -0.483516 -1.5 0
M  V30 3624 C 345.645 0.067027 -2.01989 0
M  V30 3625 C 345.966 1.3909 -1.36671 0
M  V30 3626 O 345.236 1.88978 -0.516152 0
M  V30 3627 H 343.816 0.0277606 -0.746484 0
M  V30 3628 H 346.478 -0.636773 -1.84204 0
M  V30 3629 H 345.574 0.209484 -3.11396 0
M  V30 3630 N 345.875 1.56104 -0.216619 0
M  V30 3631 C 346.805 2.23063 0.690296 0
M  V30 3632 C 347.786 1.20072 1.20485 0
M  V30 3633 O 348.971 1.48643 1.24976 0
M  V30 3634 C 346.101 2.90672 1.90072 0
M  V30 3635 C 345.055 4.00092 1.5202 0
M  V30 3636 C 344.381 4.54972 2.80899 0
M  V30 3637 C 345.681 5.17398 0.71391 0
M  V30 3638 H 347.375 2.99109 0.132038 0
M  V30 3639 H 344.921 1.43866 0.0620664 0
M  V30 3640 H 346.874 3.36204 2.54057 0
M  V30 3641 H 345.598 2.12066 2.48386 0
M  V30 3642 H 344.257 3.55283 0.903839 0
M  V30 3643 H 343.905 3.73102 3.37348 0
M  V30 3644 H 343.605 5.28817 2.56176 0
M  V30 3645 H 345.129 5.0322 3.45836 0
M  V30 3646 H 346.543 5.59342 1.25735 0
M  V30 3647 H 344.94 5.97444 0.563951 0
M  V30 3648 H 346.01 4.84088 -0.280527 0
M  V30 3649 N 347.353 -0.0568162 1.57498 0
M  V30 3650 C 348.602 -0.752001 1.87157 0
M  V30 3651 C 348.915 -1.77978 0.811375 0
M  V30 3652 O 350.121 -2.52559 0.996293 0
M  V30 3653 C 348.577 -1.38844 3.3204 0
M  V30 3654 C 348.185 -0.398456 4.46225 0
M  V30 3655 C 349.929 -2.06512 3.70882 0
M  V30 3656 C 347.836 -1.04166 5.82154 0
M  V30 3657 H 346.766 -0.28461 0.698222 0
M  V30 3658 H 349.417 -0.00561272 1.83499 0
M  V30 3659 H 347.799 -2.1836 3.30356 0
M  V30 3660 H 348.973 0.367977 4.59328 0
M  V30 3661 H 347.288 0.174592 4.16034 0
M  V30 3662 H 349.885 -2.55437 4.6974 0
M  V30 3663 H 350.228 -2.87117 3.01445 0
M  V30 3664 H 350.761 -1.33808 3.7462 0
M  V30 3665 H 347.5 -0.275614 6.5492 0
M  V30 3666 H 347.02 -1.7786 5.72823 0
M  V30 3667 H 348.699 -1.55715 6.27982 0
M  V30 3668 N 348.832 -1.54138 -0.328536 0
M  V30 3669 C 349.742 -1.86192 -1.42723 0
M  V30 3670 C 350.758 -0.753382 -1.56844 0
M  V30 3671 O 351.934 -1.04718 -1.72035 0
M  V30 3672 C 348.999 -2.07824 -2.77507 0
M  V30 3673 C 348.06 -3.31641 -2.72603 0
M  V30 3674 C 347.293 -3.52232 -4.00959 0
M  V30 3675 O 347.516 -2.7636 -4.9898 0
M  V30 3676 O 346.45 -4.45699 -4.0452 0
M  V30 3677 H 350.276 -2.79608 -1.18547 0
M  V30 3678 H 347.861 -1.3998 -0.522104 0
M  V30 3679 H 349.743 -2.23411 -3.57303 0
M  V30 3680 H 348.418 -1.17596 -3.01584 0
M  V30 3681 H 347.325 -3.21444 -1.91376 0
M  V30 3682 H 348.658 -4.2191 -2.53481 0
M  V30 3683 N 350.31 0.590341 -1.46126 0
M  V30 3684 C 351.24 1.71032 -1.58966 0
M  V30 3685 C 352.221 1.64302 -0.440335 0
M  V30 3686 O 353.406 1.82436 -0.665634 0
M  V30 3687 C 350.536 3.09665 -1.57241 0
M  V30 3688 C 349.49 3.31221 -2.71066 0
M  V30 3689 C 348.816 4.70303 -2.54399 0
M  V30 3690 C 350.116 3.19796 -4.1295 0
M  V30 3691 H 351.81 1.60543 -2.52718 0
M  V30 3692 H 349.356 0.770933 -1.21625 0
M  V30 3693 H 351.309 3.87831 -1.64819 0
M  V30 3694 H 350.033 3.21036 -0.600289 0
M  V30 3695 H 348.692 2.55452 -2.62944 0
M  V30 3696 H 348.34 4.78429 -1.55288 0
M  V30 3697 H 348.04 4.85679 -3.30741 0
M  V30 3698 H 349.564 5.50647 -2.63857 0
M  V30 3699 H 350.978 3.87815 -4.22223 0
M  V30 3700 H 349.375 3.46696 -4.89818 0
M  V30 3701 H 350.445 2.16983 -4.33643 0
M  V30 3702 N 351.788 1.33704 0.83433 0
M  V30 3703 C 353.204 1.13137 1.12571 0
M  V30 3704 C 353.404 -0.0747261 2.01361 0
M  V30 3705 O 352.46 -0.753647 2.4099 0
M  V30 3706 C 353.773 2.42105 1.78342 0
M  V30 3707 C 355.321 2.48054 1.90888 0
M  V30 3708 C 355.796 3.76995 2.60075 0
M  V30 3709 N 357.287 3.78092 2.67584 0
M  V30 3710 C 358.022 4.74574 3.21818 0
M  V30 3711 N 357.518 5.81434 3.76705 0
M  V30 3712 N 359.311 4.62044 3.20112 0
M  V30 3713 H 351.462 2.11 0.243489 0
M  V30 3714 H 353.725 0.932532 0.17055 0
M  V30 3715 H 353.431 3.30391 1.20561 0
M  V30 3716 H 353.305 2.54594 2.7832 0
M  V30 3717 H 355.692 1.60215 2.47821 0
M  V30 3718 H 355.773 2.39502 0.898459 0
M  V30 3719 H 355.417 4.65219 2.03799 0
M  V30 3720 H 355.347 3.82825 3.61597 0
M  V30 3721 H 357.838 3.00865 2.28667 0
M  V30 3722 H 358.151 6.51084 4.16305 0
M  V30 3723 H 356.496 5.85163 3.7498 0
M  V30 3724 H 359.687 3.77716 2.76493 0
M  V30 3725 H 359.86 5.37406 3.62076 0
M  V30 3726 N 353.266 -1.05314 1.17247 0
M  V30 3727 C 354.213 -2.13031 0.888058 0
M  V30 3728 C 355.183 -1.65253 -0.167537 0
M  V30 3729 O 356.368 -1.90775 -0.0305974 0
M  V30 3730 C 353.508 -3.42702 0.406147 0
M  V30 3731 C 352.621 -4.04161 1.52572 0
M  V30 3732 C 351.756 -5.21744 0.997808 0
M  V30 3733 C 350.795 -5.75207 2.09291 0
M  V30 3734 N 349.932 -6.84094 1.57986 0
M  V30 3735 H 354.772 -2.36698 1.81048 0
M  V30 3736 H 352.309 -1.16121 0.903013 0
M  V30 3737 H 354.267 -4.17059 0.108305 0
M  V30 3738 H 352.897 -3.19222 -0.479313 0
M  V30 3739 H 351.949 -3.27253 1.93931 0
M  V30 3740 H 353.261 -4.39881 2.35172 0
M  V30 3741 H 352.415 -6.03168 0.653739 0
M  V30 3742 H 351.154 -4.87495 0.141232 0
M  V30 3743 H 350.159 -4.92414 2.44557 0
M  V30 3744 H 351.384 -6.11505 2.95362 0
M  V30 3745 H 349.33 -6.51745 0.74598 0
M  V30 3746 H 349.247 -7.18811 2.34195 0
M  V30 3747 H 350.515 -7.69172 1.26468 0
M  V30 3748 N 354.744 -0.972509 -1.24016 0
M  V30 3749 C 355.674 -0.525548 -2.27509 0
M  V30 3750 C 356.655 0.437262 -1.64384 0
M  V30 3751 O 357.84 0.332343 -1.91335 0
M  V30 3752 C 354.97 0.180448 -3.46831 0
M  V30 3753 C 353.924 -0.698859 -4.22256 0
M  V30 3754 C 353.25 0.138903 -5.3452 0
M  V30 3755 C 354.55 -1.98582 -4.83076 0
M  V30 3756 H 356.244 -1.39058 -2.65148 0
M  V30 3757 H 353.79 -0.67009 -1.27459 0
M  V30 3758 H 355.743 0.504387 -4.18371 0
M  V30 3759 H 354.467 1.07987 -3.08231 0
M  V30 3760 H 353.126 -1.00614 -3.52523 0
M  V30 3761 H 352.774 1.03862 -4.9216 0
M  V30 3762 H 352.474 -0.446259 -5.85903 0
M  V30 3763 H 353.998 0.457404 -6.08884 0
M  V30 3764 H 355.412 -1.72715 -5.46665 0
M  V30 3765 H 353.809 -2.5181 -5.44713 0
M  V30 3766 H 354.879 -2.67769 -4.04262 0
M  V30 3767 N 356.222 1.38976 -0.743202 0
M  V30 3768 C 357.132 2.3434 -0.110399 0
M  V30 3769 C 358.148 1.58741 0.712559 0
M  V30 3770 O 359.324 1.9099 0.639125 0
M  V30 3771 C 356.389 3.37812 0.780012 0
M  V30 3772 C 355.45 4.29263 -0.0561319 0
M  V30 3773 C 354.683 5.27793 0.791875 0
M  V30 3774 O 354.906 5.33043 2.03031 0
M  V30 3775 O 353.84 6.01512 0.216183 0
M  V30 3776 H 357.666 2.90129 -0.897714 0
M  V30 3777 H 355.251 1.40643 -0.503966 0
M  V30 3778 H 357.133 4.01194 1.28923 0
M  V30 3779 H 355.808 2.84395 1.546 0
M  V30 3780 H 354.715 3.69076 -0.611056 0
M  V30 3781 H 356.048 4.85907 -0.784531 0
M  V30 3782 N 357.7 0.491464 1.49741 0
M  V30 3783 C 358.663 -0.280906 2.27472 0
M  V30 3784 C 359.663 -0.902454 1.33088 0
M  V30 3785 O 360.853 -0.768465 1.56334 0
M  V30 3786 C 357.985 -1.40209 3.10732 0
M  V30 3787 H 359.178 0.401056 2.97206 0
M  V30 3788 H 356.731 0.246131 1.5435 0
M  V30 3789 H 357.466 -2.11849 2.45541 0
M  V30 3790 H 357.251 -0.961969 3.80117 0
M  V30 3791 H 358.741 -1.9464 3.69466 0
M  V30 3792 N 359.178 -1.55987 0.224894 0
M  V30 3793 C 360.141 -2.19178 -0.670348 0
M  V30 3794 C 361.141 -1.15461 -1.11917 0
M  V30 3795 O 362.331 -1.40675 -1.02743 0
M  V30 3796 C 359.463 -2.81777 -1.9187 0
M  V30 3797 H 360.656 -2.99662 -0.119364 0
M  V30 3798 H 358.209 -1.5628 -0.0247128 0
M  V30 3799 H 358.944 -2.05172 -2.51147 0
M  V30 3800 H 358.729 -3.57732 -1.60531 0
M  V30 3801 H 360.219 -3.30205 -2.55645 0
M  V30 3802 N 360.656 0.0484629 -1.57525 0
M  V30 3803 C 361.566 1.07241 -2.08654 0
M  V30 3804 C 362.582 1.409 -1.02095 0
M  V30 3805 O 363.758 1.50609 -1.33712 0
M  V30 3806 C 360.823 2.36008 -2.5397 0
M  V30 3807 C 359.884 2.09108 -3.7493 0
M  V30 3808 C 359.117 3.31736 -4.18075 0
M  V30 3809 O 359.34 4.41714 -3.60895 0
M  V30 3810 O 358.274 3.18576 -5.10679 0
M  V30 3811 H 362.1 0.667965 -2.96263 0
M  V30 3812 H 359.685 0.26417 -1.47046 0
M  V30 3813 H 361.567 3.11747 -2.83535 0
M  V30 3814 H 360.242 2.75786 -1.69481 0
M  V30 3815 H 359.149 1.31 -3.50414 0
M  V30 3816 H 360.482 1.74198 -4.60343 0
M  V30 3817 N 362.134 1.5431 0.320358 0
M  V30 3818 C 363.411 1.63322 1.07635 0
M  V30 3819 C 363.791 0.46912 2.05821 0
M  V30 3820 O 363.139 -0.536274 2.22118 0
M  V30 3821 C 363.349 3.00465 1.77544 0
M  V30 3822 C 364.697 3.56621 2.30449 0
M  V30 3823 O 365.721 3.02791 1.87606 0
M  V30 3824 O 364.58 4.5083 3.08892 0
M  V30 3825 H 361.674 0.661502 0.496331 0
M  V30 3826 H 364.22 1.66656 0.319992 0
M  V30 3827 H 362.992 3.76629 1.06143 0
M  V30 3828 H 362.615 3.00824 2.59982 0
M  V30 3829 N 363.613 -0.582584 1.46437 0
M  V30 3830 C 364.862 -1.337 1.5102 0
M  V30 3831 C 365.175 -1.94891 0.166359 0
M  V30 3832 O 366.381 -2.71351 0.0899954 0
M  V30 3833 C 364.837 -2.42315 2.66104 0
M  V30 3834 C 364.445 -1.87427 4.06909 0
M  V30 3835 C 366.189 -3.19099 2.79958 0
M  V30 3836 C 364.096 -2.93672 5.13333 0
M  V30 3837 H 363.026 -0.502619 0.562041 0
M  V30 3838 H 365.677 -0.621701 1.72647 0
M  V30 3839 H 364.059 -3.16645 2.37807 0
M  V30 3840 H 365.233 -1.19639 4.44998 0
M  V30 3841 H 363.548 -1.2331 3.97723 0
M  V30 3842 H 366.145 -3.9839 3.56636 0
M  V30 3843 H 366.488 -3.71695 1.87479 0
M  V30 3844 H 367.021 -2.51875 3.07902 0
M  V30 3845 H 363.76 -2.45962 6.07604 0
M  V30 3846 H 363.28 -3.59948 4.79789 0
M  V30 3847 H 364.959 -3.5762 5.39182 0
M  V30 3848 N 365.091 -1.34144 -0.827227 0
M  V30 3849 C 366.054 -1.25264 -1.91942 0
M  V30 3850 C 367.054 -0.168866 -1.59911 0
M  V30 3851 O 368.244 -0.421198 -1.69031 0
M  V30 3852 C 365.376 -0.932952 -3.27885 0
M  V30 3853 H 366.569 -2.22357 -2.0124 0
M  V30 3854 H 364.122 -1.1837 -1.0207 0
M  V30 3855 H 364.857 0.0349917 -3.24281 0
M  V30 3856 H 364.642 -1.71682 -3.52516 0
M  V30 3857 H 366.132 -0.895874 -4.07877 0
M  V30 3858 N 366.569 1.04691 -1.17803 0
M  V30 3859 C 367.799 1.81183 -0.992788 0
M  V30 3860 C 368.207 1.8347 0.462098 0
M  V30 3861 O 367.55 1.2643 1.33271 0
M  V30 3862 C 367.612 3.28363 -1.46349 0
M  V30 3863 C 367.276 3.49749 -2.94151 0
M  V30 3864 C 368.273 3.41456 -3.92051 0
M  V30 3865 C 365.958 3.76548 -3.32441 0
M  V30 3866 C 367.952 3.59656 -5.26238 0
M  V30 3867 C 365.639 3.94396 -4.66792 0
M  V30 3868 C 366.637 3.8595 -5.635 0
M  V30 3869 O 366.325 4.03294 -6.9542 0
M  V30 3870 H 366.057 0.577622 -0.351182 0
M  V30 3871 H 368.611 1.32876 -1.5663 0
M  V30 3872 H 366.841 3.77609 -0.833574 0
M  V30 3873 H 368.53 3.86395 -1.24313 0
M  V30 3874 H 369.296 3.20723 -3.63815 0
M  V30 3875 H 365.175 3.82224 -2.57732 0
M  V30 3876 H 368.719 3.52979 -6.01707 0
M  V30 3877 H 364.616 4.14622 -4.94731 0
M  V30 3878 H 365.384 4.2049 -7.02232 0
M  V30 3879 N 368.047 0.979072 1.23499 0
M  V30 3880 C 368.979 0.476271 2.24197 0
M  V30 3881 C 369.992 -0.421166 1.57258 0
M  V30 3882 O 371.181 -0.225515 1.7707 0
M  V30 3883 C 368.281 -0.330503 3.37285 0
M  V30 3884 C 367.454 0.559744 4.33804 0
M  V30 3885 C 366.513 -0.192954 5.25846 0
M  V30 3886 O 365.539 0.416978 5.67671 0
M  V30 3887 N 366.741 -1.47932 5.61334 0
M  V30 3888 H 369.506 1.34211 2.67969 0
M  V30 3889 H 367.067 0.852189 1.37657 0
M  V30 3890 H 369.059 -0.842361 3.95836 0
M  V30 3891 H 367.629 -1.09734 2.92707 0
M  V30 3892 H 366.849 1.25245 3.73775 0
M  V30 3893 H 368.137 1.1665 4.95248 0
M  V30 3894 H 367.535 -1.9964 5.29302 0
M  V30 3895 H 366.092 -1.93664 6.22364 0
M  V30 3896 N 369.525 -1.3858 0.750561 0
M  V30 3897 C 370.455 -2.33102 0.136237 0
M  V30 3898 C 371.436 -1.54713 -0.706965 0
M  V30 3899 O 372.621 -1.83043 -0.648769 0
M  V30 3900 C 369.751 -3.38882 -0.760017 0
M  V30 3901 C 368.705 -4.27995 -0.0197785 0
M  V30 3902 C 368.031 -5.24605 -1.03408 0
M  V30 3903 C 369.331 -5.09554 1.14684 0
M  V30 3904 H 371.025 -2.84726 0.925822 0
M  V30 3905 H 368.571 -1.36898 0.446654 0
M  V30 3906 H 370.524 -4.0397 -1.19943 0
M  V30 3907 H 369.248 -2.85734 -1.58189 0
M  V30 3908 H 367.907 -3.64409 0.400184 0
M  V30 3909 H 367.555 -4.67746 -1.84994 0
M  V30 3910 H 367.255 -5.85081 -0.543464 0
M  V30 3911 H 368.779 -5.9257 -1.47288 0
M  V30 3912 H 370.193 -5.67899 0.785118 0
M  V30 3913 H 368.59 -5.7925 1.56812 0
M  V30 3914 H 369.66 -4.4347 1.96118 0
M  V30 3915 N 371.003 -0.499398 -1.49478 0
M  V30 3916 C 372.228 0.044722 -2.07352 0
M  V30 3917 C 372.653 1.30207 -1.35749 0
M  V30 3918 O 372.011 1.76516 -0.413732 0
M  V30 3919 C 372.059 0.283013 -3.59488 0
M  V30 3920 O 371.163 1.35804 -3.89398 0
M  V30 3921 H 370.504 -0.0255147 -0.66351 0
M  V30 3922 H 373.034 -0.698561 -1.92305 0
M  V30 3923 H 373.044 0.515007 -4.04737 0
M  V30 3924 H 371.719 -0.635636 -4.11014 0
M  V30 3925 H 370.296 1.11113 -3.55961 0
M  V30 3926 N 372.481 1.55866 -0.233164 0
M  V30 3927 C 373.897 1.59133 0.121988 0
M  V30 3928 C 374.097 1.25016 1.58029 0
M  V30 3929 O 373.153 0.990922 2.32243 0
M  V30 3930 C 374.466 2.99932 -0.214792 0
M  V30 3931 C 376.014 3.12601 -0.157971 0
M  V30 3932 C 376.489 4.55597 -0.46859 0
M  V30 3933 N 377.98 4.61305 -0.418585 0
M  V30 3934 C 378.715 5.69903 -0.63227 0
M  V30 3935 N 378.211 6.86819 -0.90835 0
M  V30 3936 N 380.004 5.59264 -0.563913 0
M  V30 3937 H 372.155 1.76315 -1.18434 0
M  V30 3938 H 374.418 0.820093 -0.475553 0
M  V30 3939 H 374.124 3.29588 -1.22739 0
M  V30 3940 H 373.998 3.74327 0.464691 0
M  V30 3941 H 376.385 2.82735 0.845283 0
M  V30 3942 H 376.466 2.40511 -0.871102 0
M  V30 3943 H 376.11 4.86182 -1.46934 0
M  V30 3944 H 376.04 5.25928 0.265865 0
M  V30 3945 H 378.531 3.77297 -0.213368 0
M  V30 3946 H 378.844 7.65507 -1.05919 0
M  V30 3947 H 377.189 6.88536 -0.945673 0
M  V30 3948 H 380.38 4.66802 -0.348372 0
M  V30 3949 H 380.553 6.43831 -0.733847 0
M  V30 3950 N 373.959 -0.0401083 1.57549 0
M  V30 3951 C 375.184 -0.748931 1.93406 0
M  V30 3952 C 375.609 -1.68686 0.832274 0
M  V30 3953 O 374.967 -1.80047 -0.212818 0
M  V30 3954 C 375.015 -1.4916 3.28304 0
M  V30 3955 O 374.119 -2.6042 3.19774 0
M  V30 3956 H 373.46 -0.202212 0.63246 0
M  V30 3957 H 375.99 0.00112086 2.046 0
M  V30 3958 H 376 -1.86395 3.62934 0
M  V30 3959 H 374.675 -0.80364 4.08062 0
M  V30 3960 H 373.252 -2.25808 2.96758 0
M  V30 3961 N 375.437 -1.54477 -0.31217 0
M  V30 3962 C 376.853 -1.45442 -0.657185 0
M  V30 3963 C 377.053 -0.63653 -1.91182 0
M  V30 3964 O 376.109 -0.139815 -2.52113 0
M  V30 3965 C 377.422 -2.89287 -0.82058 0
M  V30 3966 C 378.97 -2.9926 -0.917188 0
M  V30 3967 C 379.445 -4.44279 -1.11267 0
M  V30 3968 N 380.936 -4.4794 -1.17914 0
M  V30 3969 C 381.671 -5.57318 -1.34848 0
M  V30 3970 N 381.167 -6.76642 -1.48752 0
M  V30 3971 N 382.96 -5.44986 -1.37647 0
M  V30 3972 H 375.111 -2.06129 0.512313 0
M  V30 3973 H 377.374 -0.933088 0.167485 0
M  V30 3974 H 377.08 -3.51687 0.0302604 0
M  V30 3975 H 376.954 -3.36061 -1.71298 0
M  V30 3976 H 379.341 -2.36981 -1.75852 0
M  V30 3977 H 379.422 -2.558 -0.00101257 0
M  V30 3978 H 379.066 -5.07149 -0.27614 0
M  V30 3979 H 378.996 -4.85359 -2.04289 0
M  V30 3980 H 381.487 -3.61969 -1.08567 0
M  V30 3981 H 381.8 -7.55758 -1.61397 0
M  V30 3982 H 380.145 -6.79529 -1.45828 0
M  V30 3983 H 383.336 -4.50715 -1.26388 0
M  V30 3984 H 383.509 -6.3028 -1.50501 0
M  V30 3985 N 376.915 0.57481 -1.46744 0
M  V30 3986 C 377.863 1.70435 -1.58286 0
M  V30 3987 C 378.857 1.63287 -0.450956 0
M  V30 3988 O 380.063 1.68685 -0.628121 0
M  V30 3989 H 376.438 0.56364 -0.497809 0
M  V30 3990 H 378.409 1.57833 -2.53242 0
M  V30 3991 C 377.158 3.08815 -1.59776 0
M  V30 3992 H 376.481 3.1499 -2.46214 0
M  V30 3993 H 377.921 3.87588 -1.71905 0
M  V30 3994 C 376.38 3.35301 -0.327812 0
M  V30 3995 O 376.91 3.97511 0.57861 0
M  V30 3996 N 375.116 2.89816 -0.213274 0
M  V30 3997 H 374.663 2.39371 -0.951798 0
M  V30 3998 H 374.621 3.0791 0.63553 0
M  V30 3999 N 378.394 1.34581 0.820102 0
M  V30 4000 C 379.643 1.26437 1.57151 0
M  V30 4001 C 379.956 -0.163111 1.94919 0
M  V30 4002 O 381.162 -0.366722 2.69012 0
M  V30 4003 C 379.618 2.21658 2.83541 0
M  V30 4004 C 379.226 3.69679 2.53065 0
M  V30 4005 C 380.97 2.22428 3.61561 0
M  V30 4006 C 378.877 4.56761 3.75664 0
M  V30 4007 H 377.807 0.469707 0.589823 0
M  V30 4008 H 380.458 1.59763 0.902656 0
M  V30 4009 H 378.84 1.81287 3.52067 0
M  V30 4010 H 380.014 4.18605 1.92631 0
M  V30 4011 H 378.329 3.71384 1.88316 0
M  V30 4012 H 380.926 2.8471 4.52597 0
M  V30 4013 H 381.269 1.22434 3.97889 0
M  V30 4014 H 381.802 2.61259 2.99981 0
M  V30 4015 H 378.541 5.57702 3.44454 0
M  V30 4016 H 378.061 4.12568 4.35371 0
M  V30 4017 H 379.74 4.71509 4.43044 0
M  V30 4018 N 379.872 -1.04064 1.18357 0
M  V30 4019 C 381.1 -1.80916 1.00384 0
M  V30 4020 C 381.515 -1.83414 -0.447738 0
M  V30 4021 O 380.872 -1.26962 -1.31099 0
M  V30 4022 C 380.923 -3.26516 1.55144 0
M  V30 4023 O 380.644 -3.2424 2.94618 0
M  V30 4024 C 382.145 -4.20013 1.41789 0
M  V30 4025 H 379.365 -0.569728 0.354474 0
M  V30 4026 H 381.909 -1.31151 1.56906 0
M  V30 4027 H 380.064 -3.73512 1.02798 0
M  V30 4028 H 380.478 -4.15452 3.20156 0
M  V30 4029 H 381.952 -5.20111 1.84901 0
M  V30 4030 H 382.429 -4.37667 0.36661 0
M  V30 4031 H 383.035 -3.78881 1.93207 0
M  V30 4032 N 381.35 -0.985608 -1.22978 0
M  V30 4033 C 382.58 -0.674603 -1.95276 0
M  V30 4034 C 382.988 0.763483 -1.73111 0
M  V30 4035 O 382.331 1.52601 -1.02268 0
M  V30 4036 C 382.393 -0.891597 -3.48268 0
M  V30 4037 C 382.057 -2.31275 -3.94158 0
M  V30 4038 C 383.054 -3.29179 -4.02415 0
M  V30 4039 C 380.739 -2.64524 -4.27004 0
M  V30 4040 C 382.733 -4.58407 -4.42879 0
M  V30 4041 C 380.42 -3.93974 -4.67149 0
M  V30 4042 C 381.418 -4.90727 -4.75053 0
M  V30 4043 O 381.106 -6.17865 -5.14294 0
M  V30 4044 H 380.838 -0.249251 -0.628371 0
M  V30 4045 H 383.392 -1.32106 -1.5728 0
M  V30 4046 H 381.622 -0.187962 -3.86243 0
M  V30 4047 H 383.311 -0.576957 -4.01779 0
M  V30 4048 H 384.077 -3.04823 -3.77237 0
M  V30 4049 H 379.956 -1.89923 -4.2006 0
M  V30 4050 H 383.5 -5.33926 -4.48964 0
M  V30 4051 H 379.397 -4.18122 -4.91777 0
M  V30 4052 H 380.165 -6.21694 -5.32389 0
M  V30 4053 N 382.828 1.3818 -0.7579 0
M  V30 4054 C 383.758 2.33027 -0.148597 0
M  V30 4055 C 384.739 1.55085 0.69875 0
M  V30 4056 O 385.924 1.83384 0.639053 0
M  V30 4057 C 383.054 3.3928 0.742034 0
M  V30 4058 C 382.008 4.28 -0.00291946 0
M  V30 4059 C 381.334 5.25146 1.00625 0
M  V30 4060 C 382.634 5.08938 -1.17385 0
M  V30 4061 H 384.328 2.84231 -0.940909 0
M  V30 4062 H 381.874 1.36659 -0.453908 0
M  V30 4063 H 383.827 4.046 1.17799 0
M  V30 4064 H 382.551 2.86569 1.56671 0
M  V30 4065 H 381.21 3.64192 -0.419504 0
M  V30 4066 H 380.858 4.68721 1.8251 0
M  V30 4067 H 380.558 5.85361 0.512428 0
M  V30 4068 H 382.082 5.93342 1.44143 0
M  V30 4069 H 383.496 5.67474 -0.815224 0
M  V30 4070 H 381.893 5.7841 -1.59882 0
M  V30 4071 H 382.963 4.42424 -1.98468 0
M  V30 4072 N 384.306 0.507319 1.49211 0
M  V30 4073 C 385.717 0.0611118 1.866 0
M  V30 4074 C 386.068 -1.35488 1.41907 0
M  V30 4075 O 385.193 -2.0108 0.799726 0
M  V30 4076 C 385.788 0.104125 3.3864 0
M  V30 4077 C 384.347 -0.28677 3.75306 0
M  V30 4078 C 383.494 0.473893 2.73221 0
M  V30 4079 H 386.445 0.719775 1.41439 0
M  V30 4080 H 386.466 -0.689672 3.74198 0
M  V30 4081 H 385.978 1.13482 3.71138 0
M  V30 4082 H 384.079 -1.32046 3.48417 0
M  V30 4083 H 384.192 0.0370745 4.79086 0
M  V30 4084 H 382.556 -0.0770644 2.54583 0
M  V30 4085 H 383.339 1.50478 3.08563 0
M  V30 4086 N 385.784 -1.5574 0.241426 0
M  V30 4087 C 386.747 -2.19877 -0.647063 0
M  V30 4088 C 387.747 -1.16642 -1.10686 0
M  V30 4089 O 388.937 -1.41757 -1.01245 0
M  V30 4090 C 386.069 -2.83797 -1.88871 0
M  V30 4091 H 387.262 -2.99772 -0.087574 0
M  V30 4092 H 384.815 -1.56298 -0.00813574 0
M  V30 4093 H 385.55 -2.07824 -2.48957 0
M  V30 4094 H 385.335 -3.59414 -1.56728 0
M  V30 4095 H 386.825 -3.32898 -2.52129 0
M  V30 4096 N 387.262 0.0317525 -1.57568 0
M  V30 4097 C 388.51 0.721676 -1.88776 0
M  V30 4098 C 388.831 1.76039 -0.838772 0
M  V30 4099 O 388.101 1.95482 0.127935 0
M  V30 4100 H 386.681 0.269534 -0.696678 0
M  V30 4101 H 389.343 -0.00165879 -1.949 0
M  V30 4102 H 388.439 1.21293 -2.87566 0
M  V30 4103 N 388.74 1.54641 0.303973 0
M  V30 4104 C 389.672 1.81754 1.39636 0
M  V30 4105 C 390.685 0.70035 1.46966 0
M  V30 4106 O 391.874 0.97778 1.49338 0
M  V30 4107 C 388.974 1.93785 2.7803 0
M  V30 4108 C 388.147 3.24156 2.93669 0
M  V30 4109 C 387.206 3.26641 4.12544 0
M  V30 4110 O 386.232 4.00187 4.04771 0
M  V30 4111 N 387.434 2.5182 5.23036 0
M  V30 4112 H 390.199 2.76031 1.16734 0
M  V30 4113 H 387.76 1.54178 0.494033 0
M  V30 4114 H 389.752 1.92852 3.55795 0
M  V30 4115 H 388.322 1.06515 2.93893 0
M  V30 4116 H 387.542 3.37887 2.03042 0
M  V30 4117 H 388.83 4.10195 3.01027 0
M  V30 4118 H 388.228 1.91692 5.32232 0
M  V30 4119 H 386.785 2.56644 5.99147 0
M  V30 4120 N 390.218 -0.567019 1.47046 0
M  V30 4121 C 391.443 -1.3551 1.57009 0
M  V30 4122 C 391.868 -1.86841 0.217259 0
M  V30 4123 O 391.226 -1.62435 -0.805268 0
M  V30 4124 C 391.274 -2.50777 2.5912 0
M  V30 4125 O 390.378 -3.52706 2.13711 0
M  V30 4126 H 389.719 -0.402919 0.52778 0
M  V30 4127 H 392.249 -0.686241 1.92748 0
M  V30 4128 H 392.259 -2.97481 2.79229 0
M  V30 4129 H 390.934 -2.12771 3.57353 0
M  V30 4130 H 389.511 -3.12374 2.03659 0
M  V30 4131 N 391.696 -1.35014 -0.812953 0
M  V30 4132 C 392.942 -1.2812 -1.57204 0
M  V30 4133 C 393.275 0.145869 -1.93651 0
M  V30 4134 O 392.55 1.0937 -1.60836 0
M  V30 4135 C 392.833 -2.18162 -2.86492 0
M  V30 4136 C 392.686 -3.69454 -2.56561 0
M  V30 4137 C 394.005 -2.07439 -3.88145 0
M  V30 4138 H 391.124 -0.466746 -0.570366 0
M  V30 4139 H 393.766 -1.65357 -0.935783 0
M  V30 4140 H 391.916 -1.86535 -3.40789 0
M  V30 4141 H 393.588 -4.11493 -2.08497 0
M  V30 4142 H 391.831 -3.9005 -1.89851 0
M  V30 4143 H 392.502 -4.27835 -3.48799 0
M  V30 4144 H 394.978 -2.35228 -3.4323 0
M  V30 4145 H 393.854 -2.7265 -4.76396 0
M  V30 4146 H 394.115 -1.05439 -4.29343 0
M  V30 4147 N 393.175 1.03435 -1.18907 0
M  V30 4148 C 394.105 2.13503 -0.945448 0
M  V30 4149 C 395.086 1.69682 0.119189 0
M  V30 4150 O 396.271 1.94169 -0.034707 0
M  V30 4151 C 393.401 3.44004 -0.477316 0
M  V30 4152 C 392.355 4.0148 -1.48316 0
M  V30 4153 C 391.681 5.27537 -0.872311 0
M  V30 4154 C 392.981 4.36921 -2.86177 0
M  V30 4155 H 394.675 2.34141 -1.86597 0
M  V30 4156 H 392.221 1.12523 -0.898584 0
M  V30 4157 H 394.174 4.20372 -0.294204 0
M  V30 4158 H 392.898 3.23072 0.478786 0
M  V30 4159 H 391.557 3.27201 -1.65332 0
M  V30 4160 H 391.205 5.02917 0.0911752 0
M  V30 4161 H 390.905 5.66954 -1.54393 0
M  V30 4162 H 392.429 6.06576 -0.699871 0
M  V30 4163 H 393.843 5.04248 -2.72776 0
M  V30 4164 H 392.24 4.87405 -3.50081 0
M  V30 4165 H 393.31 3.46466 -3.39248 0
M  V30 4166 N 394.653 0.992116 1.22453 0
M  V30 4167 C 395.583 0.561677 2.26644 0
M  V30 4168 C 396.564 -0.411055 1.65059 0
M  V30 4169 O 397.749 -0.301861 1.9184 0
M  V30 4170 C 394.879 -0.125247 3.47074 0
M  V30 4171 C 393.833 0.765948 4.21091 0
M  V30 4172 C 393.159 -0.0538484 5.34673 0
M  V30 4173 C 394.459 2.06242 4.79856 0
M  V30 4174 H 396.153 1.43259 2.62902 0
M  V30 4175 H 393.699 0.690283 1.26377 0
M  V30 4176 H 395.652 -0.437764 4.1912 0
M  V30 4177 H 394.376 -1.03069 3.0991 0
M  V30 4178 H 393.035 1.0621 3.50878 0
M  V30 4179 H 392.683 -0.960188 4.9375 0
M  V30 4180 H 392.383 0.539415 5.85119 0
M  V30 4181 H 393.907 -0.360477 6.09535 0
M  V30 4182 H 395.321 1.8139 5.43848 0
M  V30 4183 H 393.718 2.60444 5.40638 0
M  V30 4184 H 394.788 2.74167 3.99951 0
M  V30 4185 N 396.131 -1.37776 0.765217 0
M  V30 4186 C 397.063 -2.28958 0.105361 0
M  V30 4187 C 398.076 -1.48316 -0.67128 0
M  V30 4188 O 399.265 -1.71046 -0.51045 0
M  V30 4189 C 396.365 -3.27421 -0.874569 0
M  V30 4190 C 395.538 -4.37132 -0.153123 0
M  V30 4191 C 394.597 -5.1571 -1.04547 0
M  V30 4192 O 393.623 -5.66896 -0.511672 0
M  V30 4193 N 394.825 -5.29808 -2.37243 0
M  V30 4194 H 397.59 -2.86227 0.888495 0
M  V30 4195 H 395.151 -1.49682 0.617 0
M  V30 4196 H 397.143 -3.7687 -1.47483 0
M  V30 4197 H 395.713 -2.70967 -1.55871 0
M  V30 4198 H 394.933 -3.89166 0.627975 0
M  V30 4199 H 396.221 -5.07625 0.345643 0
M  V30 4200 H 395.619 -4.89793 -2.83054 0
M  V30 4201 H 394.176 -5.82589 -2.9229 0
M  V30 4202 N 397.609 -0.515225 -1.4894 0
M  V30 4203 C 398.539 0.244628 -2.32215 0
M  V30 4204 C 399.52 0.949136 -1.41157 0
M  V30 4205 O 400.705 0.937783 -1.70057 0
M  V30 4206 C 397.835 1.30096 -3.22013 0
M  V30 4207 C 396.789 0.715486 -4.21977 0
M  V30 4208 C 396.115 1.87339 -5.00808 0
M  V30 4209 C 397.415 -0.302982 -5.2142 0
M  V30 4210 H 399.109 -0.450501 -2.95991 0
M  V30 4211 H 396.655 -0.218098 -1.42339 0
M  V30 4212 H 398.608 1.84037 -3.79089 0
M  V30 4213 H 397.332 2.02547 -2.56207 0
M  V30 4214 H 395.991 0.197715 -3.66066 0
M  V30 4215 H 395.639 2.58592 -4.31438 0
M  V30 4216 H 395.339 1.48764 -5.68457 0
M  V30 4217 H 396.863 2.41686 -5.60732 0
M  V30 4218 H 398.277 0.148802 -5.73107 0
M  V30 4219 H 396.674 -0.60532 -5.97039 0
M  V30 4220 H 397.744 -1.21395 -4.69459 0
M  V30 4221 N 399.087 1.5561 -0.249682 0
M  V30 4222 C 400.498 1.84979 0.252949 0
M  V30 4223 C 400.849 1.17153 1.57384 0
M  V30 4224 O 399.974 0.450884 2.11651 0
M  V30 4225 C 400.569 3.35584 0.465732 0
M  V30 4226 C 399.128 3.65169 0.912624 0
M  V30 4227 C 398.275 2.77299 -0.00859085 0
M  V30 4228 H 401.226 1.51513 -0.47217 0
M  V30 4229 H 401.247 3.57313 1.30795 0
M  V30 4230 H 400.759 3.8492 -0.49579 0
M  V30 4231 H 398.86 3.21312 1.88652 0
M  V30 4232 H 398.973 4.72912 0.767559 0
M  V30 4233 H 397.337 2.49678 0.50327 0
M  V30 4234 H 398.12 3.29442 -0.965537 0
M  V30 4235 N 400.565 -0.0233959 1.57583 0
M  V30 4236 C 401.497 -1.04994 2.03737 0
M  V30 4237 C 402.51 -1.32125 0.951152 0
M  V30 4238 O 403.699 -1.29512 1.22837 0
M  V30 4239 C 400.799 -2.39026 2.40249 0
M  V30 4240 C 399.972 -2.31171 3.7132 0
M  V30 4241 C 399.031 -3.47698 3.94959 0
M  V30 4242 O 398.057 -3.26937 4.65941 0
M  V30 4243 N 399.259 -4.6976 3.41037 0
M  V30 4244 H 402.024 -0.656507 2.92421 0
M  V30 4245 H 399.585 -0.211235 1.60516 0
M  V30 4246 H 401.577 -3.15712 2.53196 0
M  V30 4247 H 400.147 -2.70194 1.57207 0
M  V30 4248 H 399.367 -1.39547 3.68674 0
M  V30 4249 H 400.655 -2.23071 4.57293 0
M  V30 4250 H 400.053 -4.89528 2.83512 0
M  V30 4251 H 398.61 -5.43791 3.59353 0
M  V30 4252 O 402.082 -1.60643 -0.16613 0
M  V30 4253 H 402.773 -1.76304 -0.80228 0
M  V30 END ATOM
M  V30 BEGIN BOND
M  V30 END BOND
M  V30 END CTAB
M  END
$$$$
