drugbank_target|P35346 Somatostatin receptor type 5 (DB04894; DB06663; DB06791; DB09099; DB13985; DB15494)
 OpenBabel12092120063D

  0  0  0     0  0            999 V3000
M  V30 BEGIN CTAB
M  V30 COUNTS 5614 5682 0 0 0
M  V30 BEGIN ATOM
M  V30 1 H -0.908 1.98254 -0.117106 0
M  V30 2 N 0 1.576 0 0
M  V30 3 C 0.933 2.03868 1.02534 0
M  V30 4 C 1.911 0.928543 1.3348 0
M  V30 5 O 3.095 1.19667 1.45644 0
M  V30 6 C 0.222 2.43627 2.35294 0
M  V30 7 C -0.732 3.65373 2.2001 0
M  V30 8 S 0.101 5.13292 1.52614 0
M  V30 9 C 1.257 5.56322 2.86805 0
M  V30 10 H 1.49 2.90518 0.631377 0
M  V30 11 H -0.977 1.52953 0.210867 0
M  V30 12 H 0.981 2.67203 3.11629 0
M  V30 13 H -0.358 1.57376 2.7183 0
M  V30 14 H -1.165 3.90944 3.18086 0
M  V30 15 H -1.563 3.418 1.51819 0
M  V30 16 H 0.729 5.58782 3.83104 0
M  V30 17 H 1.672 6.56266 2.65933 0
M  V30 18 H 2.08 4.83886 2.90714 0
M  V30 19 N 1.4781 -0.272755 1.55222 0
M  V30 20 C 2.3881 -1.35918 1.91216 0
M  V30 21 C 3.4041 -1.54026 0.809436 0
M  V30 22 O 4.5801 -1.68148 1.10852 0
M  V30 23 C 1.6451 -2.69834 2.17693 0
M  V30 24 C 0.7061 -2.6047 3.41253 0
M  V30 25 C -0.0609 -3.88 3.66458 0
M  V30 26 O 0.1621 -4.88693 2.94169 0
M  V30 27 O -0.9039 -3.88189 4.59992 0
M  V30 28 H 2.9221 -1.0839 2.83699 0
M  V30 29 H 0.5071 -0.471301 1.41771 0
M  V30 30 H 2.3891 -3.49017 2.36147 0
M  V30 31 H 1.0641 -2.97148 1.28392 0
M  V30 32 H -0.0289 -1.79663 3.28134 0
M  V30 33 H 1.3041 -2.38106 4.30774 0
M  V30 34 N 2.9562 -1.48159 -0.537278 0
M  V30 35 C 4.3672 -1.49429 -1.11928 0
M  V30 36 C 4.7182 -0.26 -1.9447 0
M  V30 37 O 3.8432 0.633489 -2.0692 0
M  V30 38 C 4.4382 -2.70758 -2.03656 0
M  V30 39 C 2.9972 -2.74923 -2.57088 0
M  V30 40 C 2.1442 -2.42835 -1.3389 0
M  V30 41 H 5.0952 -1.55381 -0.322886 0
M  V30 42 H 5.1162 -2.48861 -2.87834 0
M  V30 43 H 4.6282 -3.60575 -1.43553 0
M  V30 44 H 2.7292 -1.89296 -3.20933 0
M  V30 45 H 2.8422 -3.76157 -2.9672 0
M  V30 46 H 1.2062 -1.93836 -1.65226 0
M  V30 47 H 1.9892 -3.34884 -0.755504 0
M  V30 48 N 4.4343 0.785586 -1.36625 0
M  V30 49 C 5.3643 1.91259 -1.33949 0
M  V30 50 C 6.3453 1.68795 -0.210325 0
M  V30 51 O 7.5303 1.89854 -0.408561 0
M  V30 52 C 4.6603 3.28339 -1.13186 0
M  V30 53 C 3.6143 3.65335 -2.22967 0
M  V30 54 C 2.9403 5.00806 -1.87342 0
M  V30 55 C 4.2403 3.7352 -3.65075 0
M  V30 56 H 5.9343 1.93755 -2.28253 0
M  V30 57 H 3.4803 0.930788 -1.09874 0
M  V30 58 H 5.4333 4.06804 -1.09948 0
M  V30 59 H 4.1573 3.2624 -0.153332 0
M  V30 60 H 2.8163 2.89169 -2.25337 0
M  V30 61 H 2.4643 4.95233 -0.880545 0
M  V30 62 H 2.1643 5.26529 -2.60846 0
M  V30 63 H 3.6883 5.81687 -1.85667 0
M  V30 64 H 5.1023 4.42168 -3.64911 0
M  V30 65 H 3.4993 4.10731 -4.37516 0
M  V30 66 H 4.5693 2.74527 -3.99703 0
M  V30 67 N 5.9124 1.20967 1.01018 0
M  V30 68 C 7.1594 1.02374 1.74716 0
M  V30 69 C 7.4874 -0.443375 1.89379 0
M  V30 70 O 6.7424 -1.34535 1.42123 0
M  V30 71 C 7.0414 1.65997 3.16512 0
M  V30 72 C 6.7074 3.15831 3.2181 0
M  V30 73 C 5.3694 3.56719 3.22963 0
M  V30 74 C 7.7214 4.11816 3.19464 0
M  V30 75 C 5.0494 4.92107 3.19449 0
M  V30 76 C 7.4014 5.47158 3.17491 0
M  V30 77 C 6.0654 5.87451 3.16951 0
M  V30 78 H 5.3354 0.374614 0.639332 0
M  V30 79 H 7.9824 1.50485 1.18434 0
M  V30 80 H 6.2874 1.10166 3.75993 0
M  V30 81 H 7.9844 1.49119 3.72242 0
M  V30 82 H 4.5744 2.83263 3.21652 0
M  V30 83 H 8.7584 3.81257 3.17737 0
M  V30 84 H 4.0144 5.22579 3.17366 0
M  V30 85 H 8.1884 6.21274 3.14629 0
M  V30 86 H 5.8154 6.92329 3.13983 0
M  V30 87 N 7.3905 -1.2043 1.01659 0
M  V30 88 C 8.8015 -1.71517 0.737482 0
M  V30 89 C 9.1525 -1.81547 -0.743973 0
M  V30 90 O 8.2775 -1.47803 -1.58061 0
M  V30 91 C 8.8725 -3.11515 1.33206 0
M  V30 92 C 7.4315 -3.59912 1.10183 0
M  V30 93 C 6.5785 -2.37116 1.43776 0
M  V30 94 H 9.5295 -1.05444 1.18606 0
M  V30 95 H 9.5505 -3.73575 0.722636 0
M  V30 96 H 9.0625 -3.04182 2.41028 0
M  V30 97 H 7.1635 -3.72577 0.0412756 0
M  V30 98 H 7.2765 -4.44731 1.78188 0
M  V30 99 H 5.6405 -2.39857 0.856778 0
M  V30 100 H 6.4235 -2.32424 2.52654 0
M  V30 101 N 8.8686 -0.792821 -1.36206 0
M  V30 102 C 9.8316 -0.199459 -2.2833 0
M  V30 103 C 10.8316 0.605189 -1.48977 0
M  V30 104 O 12.0216 0.425685 -1.68919 0
M  V30 105 C 9.1536 0.723523 -3.33134 0
M  V30 106 H 10.3466 -1.01181 -2.82316 0
M  V30 107 H 7.8996 -0.562485 -1.45828 0
M  V30 108 H 8.6346 1.56008 -2.84309 0
M  V30 109 H 8.4196 0.148436 -3.91819 0
M  V30 110 H 9.9096 1.13344 -4.01924 0
M  V30 111 N 10.3467 1.47872 -0.545128 0
M  V30 112 C 11.5717 2.07391 -0.0190611 0
M  V30 113 C 11.9967 1.39688 1.25971 0
M  V30 114 O 11.3547 0.467816 1.7516 0
M  V30 115 C 11.4027 3.60188 0.172335 0
M  V30 116 O 10.5067 3.9339 1.23766 0
M  V30 117 H 9.8477 0.662411 -0.0459059 0
M  V30 118 H 12.3777 1.90066 -0.757365 0
M  V30 119 H 12.3877 4.06129 0.390305 0
M  V30 120 H 11.0627 4.08865 -0.761725 0
M  V30 121 H 9.6397 3.5921 1.00114 0
M  V30 122 N 11.8248 0.280983 1.55075 0
M  V30 123 C 13.0528 -0.337293 2.04132 0
M  V30 124 C 13.4678 -1.4903 1.15912 0
M  V30 125 O 12.8248 -1.81606 0.180459 0
M  V30 126 C 12.8758 -0.812706 3.52246 0
M  V30 127 O 12.5968 0.294387 4.3711 0
M  V30 128 C 14.0978 -1.4982 4.17216 0
M  V30 129 H 11.3178 -0.0761638 0.666663 0
M  V30 130 H 13.8618 0.414787 2.00249 0
M  V30 131 H 12.0168 -1.51486 3.56554 0
M  V30 132 H 12.4308 -0.0721325 5.2445 0
M  V30 133 H 13.9048 -1.7822 5.22438 0
M  V30 134 H 14.3818 -2.43168 3.65741 0
M  V30 135 H 14.9878 -0.839742 4.16927 0
M  V30 136 N 13.3029 -1.57598 0.00835791 0
M  V30 137 C 14.7139 -1.7892 -0.53333 0
M  V30 138 C 15.0649 -0.916609 -1.73473 0
M  V30 139 O 14.1899 -0.121336 -2.1606 0
M  V30 140 C 14.7849 -3.24488 -0.974313 0
M  V30 141 C 13.3439 -3.46878 -1.46125 0
M  V30 142 C 12.4909 -2.74157 -0.416302 0
M  V30 143 H 15.4419 -1.56958 0.234495 0
M  V30 144 H 15.4629 -3.3306 -1.83988 0
M  V30 145 H 14.9749 -3.87972 -0.099718 0
M  V30 146 H 13.0759 -2.8862 -2.35646 0
M  V30 147 H 13.1889 -4.55572 -1.48295 0
M  V30 148 H 11.5529 -2.39022 -0.87981 0
M  V30 149 H 12.3359 -3.40345 0.44947 0
M  V30 150 N 14.781 0.264519 -1.55364 0
M  V30 151 C 16.006 1.01726 -1.80739 0
M  V30 152 C 16.431 1.78836 -0.583044 0
M  V30 153 O 15.789 1.75167 0.467566 0
M  V30 154 C 15.837 1.94482 -3.03659 0
M  V30 155 O 14.941 3.03386 -2.7934 0
M  V30 156 H 14.282 0.290395 -0.597132 0
M  V30 157 H 16.812 0.290854 -2.02522 0
M  V30 158 H 16.822 2.36278 -3.32621 0
M  V30 159 H 15.497 1.37772 -3.92418 0
M  V30 160 H 14.074 2.65844 -2.61498 0
M  V30 161 N 16.2591 1.48442 0.529413 0
M  V30 162 C 17.5051 1.57699 1.28463 0
M  V30 163 C 17.8601 0.247913 1.90796 0
M  V30 164 O 17.1531 -0.749279 1.76342 0
M  V30 165 C 17.3471 2.6523 2.39558 0
M  V30 166 C 17.1761 4.08464 1.88114 0
M  V30 167 C 15.9461 4.75596 1.70693 0
M  V30 168 C 18.1441 4.94613 1.40935 0
M  V30 169 N 16.1261 6.03245 1.13881 0
M  V30 170 C 17.4971 6.12511 0.960734 0
M  V30 171 C 19.5521 4.80833 1.29243 0
M  V30 172 C 18.2551 7.18149 0.406792 0
M  V30 173 C 20.2811 5.86593 0.752487 0
M  V30 174 C 19.6431 7.037 0.313946 0
M  V30 175 H 15.7421 0.631608 0.46108 0
M  V30 176 H 18.3261 1.85325 0.596886 0
M  V30 177 H 16.4971 2.39425 3.05827 0
M  V30 178 H 18.2291 2.64169 3.06589 0
M  V30 179 H 14.9841 4.31938 1.94232 0
M  V30 180 H 15.4081 6.71324 0.874831 0
M  V30 181 H 20.0501 3.90635 1.61754 0
M  V30 182 H 17.7681 8.0807 0.0693671 0
M  V30 183 H 21.3541 5.77985 0.665192 0
M  V30 184 H 20.2341 7.8414 -0.0973632 0
M  V30 185 N 17.7372 -0.778329 1.37039 0
M  V30 186 C 18.6852 -1.91278 1.32345 0
M  V30 187 C 19.6792 -1.68051 0.213331 0
M  V30 188 O 20.8852 -1.75922 0.38098 0
M  V30 189 H 17.2602 -0.628909 0.412283 0
M  V30 190 H 19.2312 -1.92355 2.28127 0
M  V30 191 C 17.9802 -3.28455 1.14073 0
M  V30 192 H 17.3032 -3.46901 1.98746 0
M  V30 193 H 18.7432 -4.08152 1.14837 0
M  V30 194 C 17.2022 -3.36548 -0.154015 0
M  V30 195 O 17.7322 -3.85186 -1.13993 0
M  V30 196 N 15.9382 -2.89894 -0.202475 0
M  V30 197 H 15.4852 -2.50504 0.600476 0
M  V30 198 H 15.4432 -2.9569 -1.06841 0
M  V30 199 N 19.2153 -1.21501 -1.00376 0
M  V30 200 C 20.1783 -0.976927 -2.07337 0
M  V30 201 C 21.1783 0.0525322 -1.60714 0
M  V30 202 O 22.3683 -0.184869 -1.73216 0
M  V30 203 C 19.5003 -0.473423 -3.37597 0
M  V30 204 H 20.6933 -1.92587 -2.29892 0
M  V30 205 H 18.2463 -1.03217 -1.17371 0
M  V30 206 H 18.9813 0.480379 -3.20722 0
M  V30 207 H 18.7663 -1.216 -3.72768 0
M  V30 208 H 20.2563 -0.32675 -4.1632 0
M  V30 209 N 20.6934 1.19889 -1.02296 0
M  V30 210 C 21.9184 1.9393 -0.735237 0
M  V30 211 C 22.3434 1.74639 0.698782 0
M  V30 212 O 21.7014 1.04481 1.48167 0
M  V30 213 C 21.7494 3.43916 -1.08417 0
M  V30 214 O 20.8534 4.11917 -0.199446 0
M  V30 215 H 20.1944 0.605645 -0.272196 0
M  V30 216 H 22.7244 1.52137 -1.36804 0
M  V30 217 H 22.7344 3.9456 -1.03856 0
M  V30 218 H 21.4094 3.5728 -2.12894 0
M  V30 219 H 19.9864 3.71666 -0.303136 0
M  V30 220 N 22.1715 0.800033 1.35784 0
M  V30 221 C 23.3965 0.388511 2.03729 0
M  V30 222 C 23.8215 -0.990481 1.5991 0
M  V30 223 O 23.1795 -1.64013 0.772612 0
M  V30 224 C 23.2275 0.4726 3.5749 0
M  V30 225 O 22.3315 -0.51646 4.09153 0
M  V30 226 H 21.6725 0.163271 0.643614 0
M  V30 227 H 24.2025 1.0841 1.73518 0
M  V30 228 H 24.2125 0.34003 4.06581 0
M  V30 229 H 22.8875 1.47848 3.88734 0
M  V30 230 H 21.4645 -0.344673 3.71304 0
M  V30 231 N 23.6496 -1.47581 0.552962 0
M  V30 232 C 25.0606 -1.86324 0.118463 0
M  V30 233 C 25.4116 -1.46006 -1.3106 0
M  V30 234 O 24.5366 -0.861182 -1.98526 0
M  V30 235 C 25.1316 -3.3816 0.20821 0
M  V30 236 C 23.6906 -3.7601 -0.171226 0
M  V30 237 C 22.8376 -2.71634 0.557686 0
M  V30 238 H 25.7886 -1.39159 0.762928 0
M  V30 239 H 25.8096 -3.76141 -0.574278 0
M  V30 240 H 25.3216 -3.67473 1.24841 0
M  V30 241 H 23.4226 -3.52313 -1.21269 0
M  V30 242 H 23.5356 -4.78745 0.184379 0
M  V30 243 H 21.8996 -2.547 0.00125792 0
M  V30 244 H 22.6826 -3.0379 1.59896 0
M  V30 245 N 25.1277 -0.289203 -1.54924 0
M  V30 246 C 26.3757 0.322879 -1.99504 0
M  V30 247 C 26.6967 1.55313 -1.1791 0
M  V30 248 O 25.9667 1.94001 -0.272097 0
M  V30 249 H 24.5467 0.122291 -0.736922 0
M  V30 250 H 27.2087 -0.397802 -1.90797 0
M  V30 251 H 26.3047 0.603061 -3.06218 0
M  V30 252 N 26.6058 1.57591 -0.0167156 0
M  V30 253 C 27.5688 2.08393 0.954204 0
M  V30 254 C 28.5688 0.996531 1.26198 0
M  V30 255 O 29.7588 1.25858 1.20438 0
M  V30 256 C 26.8908 2.5394 2.27436 0
M  V30 257 H 28.0838 2.95455 0.514451 0
M  V30 258 H 25.6368 1.54582 0.231089 0
M  V30 259 H 26.3718 1.70171 2.76066 0
M  V30 260 H 26.1568 3.33371 2.06412 0
M  V30 261 H 27.6468 2.93512 2.97053 0
M  V30 262 N 28.0839 -0.256276 1.55502 0
M  V30 263 C 29.0469 -1.30047 1.88734 0
M  V30 264 C 30.0469 -1.4154 0.763086 0
M  V30 265 O 31.2369 -1.40403 1.03115 0
M  V30 266 C 28.3689 -2.67953 2.10747 0
M  V30 267 H 29.5619 -1.01802 2.82093 0
M  V30 268 H 27.1149 -0.495134 1.4825 0
M  V30 269 H 27.8499 -3.01351 1.19825 0
M  V30 270 H 27.6349 -2.60993 2.92617 0
M  V30 271 H 29.1249 -3.43368 2.37673 0
M  V30 272 N 29.562 -1.4872 -0.521534 0
M  V30 273 C 30.787 -1.61101 -1.30618 0
M  V30 274 C 31.212 -0.274611 -1.86085 0
M  V30 275 O 30.57 0.754937 -1.64834 0
M  V30 276 C 30.618 -2.66709 -2.4269 0
M  V30 277 O 29.722 -2.24456 -3.45967 0
M  V30 278 H 29.063 -0.539921 -0.386499 0
M  V30 279 H 31.593 -1.94767 -0.626645 0
M  V30 280 H 31.603 -2.88245 -2.88754 0
M  V30 281 H 30.278 -3.63727 -2.01682 0
M  V30 282 H 28.855 -2.13168 -3.05964 0
M  V30 283 N 31.0401 0.771051 -1.3745 0
M  V30 284 C 32.2881 1.52661 -1.32435 0
M  V30 285 C 32.6091 1.9479 0.0905024 0
M  V30 286 O 31.8791 1.66348 1.03466 0
M  V30 287 H 30.4591 0.566218 -0.487244 0
M  V30 288 H 33.1211 0.917636 -1.71946 0
M  V30 289 H 32.2171 2.42568 -1.96385 0
M  V30 290 N 32.5182 1.22032 0.997298 0
M  V30 291 C 33.7662 1.04016 1.73278 0
M  V30 292 C 34.0872 -0.426255 1.90284 0
M  V30 293 O 33.3572 -1.30694 1.45931 0
M  V30 294 H 31.9372 0.381897 0.642 0
M  V30 295 H 34.5992 1.5347 1.20137 0
M  V30 296 H 33.6952 1.51441 2.72896 0
M  V30 297 N 33.9963 -1.19345 1.0293 0
M  V30 298 C 35.2443 -1.88665 0.724574 0
M  V30 299 C 35.5653 -1.80036 -0.749144 0
M  V30 300 O 34.8353 -1.2111 -1.53978 0
M  V30 301 H 33.4153 -0.698406 0.265025 0
M  V30 302 H 36.0773 -1.44885 1.30362 0
M  V30 303 H 35.1733 -2.94987 1.01926 0
M  V30 304 N 35.4744 -0.807222 -1.35358 0
M  V30 305 C 36.7514 -0.311126 -1.9311 0
M  V30 306 C 37.1314 1.19937 -1.73719 0
M  V30 307 O 36.4794 1.99918 -1.10657 0
M  V30 308 C 36.6894 -0.723226 -3.41424 0
M  V30 309 C 38.0374 -0.713078 -4.18569 0
M  V30 310 O 39.0614 -0.664811 -3.49941 0
M  V30 311 O 37.9204 -0.772022 -5.41019 0
M  V30 312 H 35.0144 -0.081526 -0.822972 0
M  V30 313 H 37.5604 -0.890962 -1.4443 0
M  V30 314 H 36.3324 -1.76426 -3.4927 0
M  V30 315 H 35.9554 -0.118232 -3.97424 0
M  V30 316 N 36.9525 1.47285 -0.560781 0
M  V30 317 C 37.9005 2.31756 0.197942 0
M  V30 318 C 38.8945 1.43146 0.905854 0
M  V30 319 O 40.1005 1.59891 0.826733 0
M  V30 320 H 36.4755 0.747438 0.0827049 0
M  V30 321 H 38.4465 2.9359 -0.533629 0
M  V30 322 C 37.1955 3.25874 1.21249 0
M  V30 323 H 36.5185 3.94023 0.67719 0
M  V30 324 H 37.9585 3.87803 1.71419 0
M  V30 325 C 36.4175 2.49651 2.26221 0
M  V30 326 O 36.9475 2.24355 3.33208 0
M  V30 327 N 35.1535 2.10597 2.00243 0
M  V30 328 H 34.7005 2.31369 1.13252 0
M  V30 329 H 34.6585 1.59913 2.70694 0
M  V30 330 N 38.4306 0.297415 1.54768 0
M  V30 331 C 39.8466 -0.0560823 1.59501 0
M  V30 332 C 40.0466 -1.52725 1.31444 0
M  V30 333 O 39.1026 -2.27947 1.08611 0
M  V30 334 C 40.4156 0.338631 2.98787 0
M  V30 335 C 41.9636 0.287097 3.11681 0
M  V30 336 C 42.4386 0.656579 4.53269 0
M  V30 337 N 43.9296 0.608977 4.59179 0
M  V30 338 C 44.6646 0.867385 5.66802 0
M  V30 339 N 44.1606 1.19157 6.82476 0
M  V30 340 N 45.9536 0.794687 5.56454 0
M  V30 341 H 38.1046 1.25624 1.71267 0
M  V30 342 H 40.3676 0.509057 0.799728 0
M  V30 343 H 40.0736 1.36263 3.2423 0
M  V30 344 H 39.9476 -0.309508 3.75928 0
M  V30 345 H 42.3346 -0.727649 2.85988 0
M  V30 346 H 42.4156 0.969809 2.36703 0
M  V30 347 H 42.0596 1.66912 4.7969 0
M  V30 348 H 41.9896 -0.0481649 5.26578 0
M  V30 349 H 44.4806 0.369198 3.76092 0
M  V30 350 H 44.7936 1.37482 7.60473 0
M  V30 351 H 43.1386 1.22958 6.84037 0
M  V30 352 H 46.3296 0.541098 4.64962 0
M  V30 353 H 46.5026 0.999445 6.40246 0
M  V30 354 N 39.9087 -1.5758 0.0250728 0
M  V30 355 C 41.1367 -1.9593 -0.664747 0
M  V30 356 C 41.5517 -0.901352 -1.65895 0
M  V30 357 O 40.9087 0.117255 -1.82123 0
M  V30 358 C 40.9597 -3.34342 -1.37468 0
M  V30 359 O 40.6807 -4.36079 -0.420324 0
M  V30 360 C 42.1817 -3.873 -2.1567 0
M  V30 361 H 39.4017 -0.645405 -0.183557 0
M  V30 362 H 41.9457 -2.04329 0.0836372 0
M  V30 363 H 40.1007 -3.27175 -2.0745 0
M  V30 364 H 40.5147 -5.16297 -0.923991 0
M  V30 365 H 41.9887 -4.86504 -2.60803 0
M  V30 366 H 42.4657 -3.21331 -2.99405 0
M  V30 367 H 43.0717 -3.97723 -1.50654 0
M  V30 368 N 41.3868 0.248026 -1.55636 0
M  V30 369 C 42.3168 1.31079 -1.93237 0
M  V30 370 C 43.2978 1.50264 -0.797174 0
M  V30 371 O 44.4828 1.62891 -1.05737 0
M  V30 372 C 41.6128 2.66575 -2.22609 0
M  V30 373 C 40.5668 2.62087 -3.3837 0
M  V30 374 C 39.8928 4.01369 -3.53281 0
M  V30 375 C 41.1928 2.19171 -4.7409 0
M  V30 376 H 42.8868 0.998556 -2.82257 0
M  V30 377 H 40.4328 0.47891 -1.35803 0
M  V30 378 H 42.3858 3.41057 -2.47503 0
M  V30 379 H 41.1098 2.99432 -1.30414 0
M  V30 380 H 39.7688 1.90063 -3.13483 0
M  V30 381 H 39.4168 4.31489 -2.58508 0
M  V30 382 H 39.1168 3.99254 -4.31127 0
M  V30 383 H 40.6408 4.77552 -3.80495 0
M  V30 384 H 42.0548 2.83384 -4.98363 0
M  V30 385 H 40.4518 2.2817 -5.5503 0
M  V30 386 H 41.5218 1.14336 -4.71227 0
M  V30 387 N 42.8649 1.48995 0.513639 0
M  V30 388 C 44.1109 1.58076 1.27042 0
M  V30 389 C 44.4439 0.261026 1.92438 0
M  V30 390 O 43.7189 -0.734393 1.80103 0
M  V30 391 C 44.0019 2.73091 2.34719 0
M  V30 392 C 43.8549 4.14821 1.73907 0
M  V30 393 C 45.1739 2.83796 3.36375 0
M  V30 394 H 42.2929 0.575391 0.460536 0
M  V30 395 H 44.9349 1.81232 0.570516 0
M  V30 396 H 43.0849 2.53479 2.94416 0
M  V30 397 H 44.7569 4.45917 1.18135 0
M  V30 398 H 42.9999 4.21058 1.0437 0
M  V30 399 H 43.6709 4.91147 2.51949 0
M  V30 400 H 46.1469 3.01611 2.86653 0
M  V30 401 H 45.0229 3.65971 4.09093 0
M  V30 402 H 45.2839 1.92624 3.9793 0
M  V30 403 N 44.343 -0.763751 1.37857 0
M  V30 404 C 45.591 -1.51957 1.33243 0
M  V30 405 C 45.912 -1.94835 -0.0801709 0
M  V30 406 O 45.182 -1.66894 -1.02582 0
M  V30 407 H 43.762 -0.563626 0.49024 0
M  V30 408 H 46.424 -0.908504 1.7243 0
M  V30 409 H 45.52 -2.41523 1.97669 0
M  V30 410 N 45.8211 -1.22559 -0.990812 0
M  V30 411 C 47.2321 -1.04791 -1.54518 0
M  V30 412 C 47.5831 0.387998 -1.92325 0
M  V30 413 O 46.7081 1.27328 -1.74976 0
M  V30 414 C 47.3031 -1.896 -2.80779 0
M  V30 415 C 45.8621 -1.76124 -3.32652 0
M  V30 416 C 45.0091 -1.8594 -2.05722 0
M  V30 417 H 47.9601 -1.36374 -0.811662 0
M  V30 418 H 47.9811 -1.41464 -3.53225 0
M  V30 419 H 47.4931 -2.94101 -2.53231 0
M  V30 420 H 45.5941 -0.743643 -3.65104 0
M  V30 421 H 45.7071 -2.58913 -4.03114 0
M  V30 422 H 44.0711 -1.29403 -2.19379 0
M  V30 423 H 44.8541 -2.91976 -1.80568 0
M  V30 424 N 47.2992 1.18797 -1.03562 0
M  V30 425 C 48.2622 2.20464 -0.626769 0
M  V30 426 C 49.2622 1.57721 0.313173 0
M  V30 427 O 50.4522 1.73917 0.0992615 0
M  V30 428 C 47.5842 3.40802 0.0818498 0
M  V30 429 H 48.7772 2.58149 -1.5264 0
M  V30 430 H 46.3302 1.32593 -0.827578 0
M  V30 431 H 47.0652 3.08642 0.995518 0
M  V30 432 H 46.8502 3.8758 -0.593652 0
M  V30 433 H 48.3402 4.16092 0.354584 0
M  V30 434 N 48.7773 0.814389 1.34928 0
M  V30 435 C 50.1883 0.458364 1.80986 0
M  V30 436 C 50.5393 -1.02042 1.67577 0
M  V30 437 O 49.6643 -1.79352 1.21086 0
M  V30 438 C 50.2593 0.825212 3.28597 0
M  V30 439 C 48.8183 0.521677 3.72767 0
M  V30 440 C 47.9653 1.04668 2.56788 0
M  V30 441 H 50.9163 1.00533 1.22795 0
M  V30 442 H 50.9373 0.12571 3.80292 0
M  V30 443 H 50.4493 1.90154 3.38324 0
M  V30 444 H 48.5503 -0.545589 3.68584 0
M  V30 445 H 48.6633 1.05977 4.67232 0
M  V30 446 H 47.0273 0.468622 2.50352 0
M  V30 447 H 47.8103 2.12927 2.6929 0
M  V30 448 N 50.2554 -1.46986 0.568584 0
M  V30 449 C 51.4804 -2.07335 0.0520528 0
M  V30 450 C 51.9054 -1.41675 -1.23733 0
M  V30 451 O 51.2634 -0.495623 -1.74394 0
M  V30 452 C 51.3114 -3.60417 -0.11501 0
M  V30 453 O 50.4154 -3.95309 -1.17492 0
M  V30 454 H 49.7564 -0.661597 0.0564385 0
M  V30 455 H 52.2864 -1.88837 0.787507 0
M  V30 456 H 52.2964 -4.06698 -0.325644 0
M  V30 457 H 50.9714 -4.07601 0.826675 0
M  V30 458 H 49.5484 -3.60757 -0.943869 0
M  V30 459 N 51.7335 -0.305618 -1.54608 0
M  V30 460 C 52.6965 0.555591 -2.22364 0
M  V30 461 C 53.6965 1.05768 -1.21119 0
M  V30 462 O 54.8865 0.952972 -1.45822 0
M  V30 463 C 52.0185 1.76974 -2.91364 0
M  V30 464 H 53.2115 -0.0364572 -2.99878 0
M  V30 465 H 50.7645 -0.0565007 -1.56198 0
M  V30 466 H 51.4995 2.40151 -2.17941 0
M  V30 467 H 51.2845 1.41732 -3.65588 0
M  V30 468 H 52.7745 2.38148 -3.43038 0
M  V30 469 N 53.2116 1.57565 -0.0334293 0
M  V30 470 C 54.4596 1.91598 0.642999 0
M  V30 471 C 54.7806 0.910847 1.7242 0
M  V30 472 O 54.0506 -0.0469931 1.95844 0
M  V30 473 H 52.6306 0.707228 0.240496 0
M  V30 474 H 55.2926 1.94726 -0.0822488 0
M  V30 475 H 54.3886 2.92336 1.09298 0
M  V30 476 N 54.6897 -0.239769 1.55765 0
M  V30 477 C 55.6527 -1.28038 1.90103 0
M  V30 478 C 56.6527 -1.40723 0.778055 0
M  V30 479 O 57.8427 -1.39301 1.04599 0
M  V30 480 C 54.9747 -2.65702 2.13577 0
M  V30 481 H 56.1677 -0.988048 2.83157 0
M  V30 482 H 53.7207 -0.479382 1.48767 0
M  V30 483 H 54.4557 -3.00063 1.23015 0
M  V30 484 H 54.2407 -2.57875 2.95369 0
M  V30 485 H 55.7307 -3.40828 2.41301 0
M  V30 486 N 56.1678 -1.49265 -0.50573 0
M  V30 487 C 57.5838 -1.35923 -0.836486 0
M  V30 488 C 57.7838 -0.388704 -1.97715 0
M  V30 489 O 56.8398 0.181336 -2.51848 0
M  V30 490 C 58.1528 -2.76531 -1.18115 0
M  V30 491 C 59.7008 -2.85197 -1.28964 0
M  V30 492 C 60.1758 -4.26561 -1.66761 0
M  V30 493 N 61.6668 -4.2935 -1.73819 0
M  V30 494 C 62.4018 -5.35693 -2.045 0
M  V30 495 N 61.8978 -6.52287 -2.33438 0
M  V30 496 N 63.6908 -5.23105 -2.05711 0
M  V30 497 H 55.8418 -2.10965 0.246519 0
M  V30 498 H 58.1048 -0.9468 0.0476887 0
M  V30 499 H 57.8108 -3.49226 -0.416398 0
M  V30 500 H 57.6848 -3.11599 -2.1257 0
M  V30 501 H 60.0718 -2.12742 -2.04511 0
M  V30 502 H 60.1528 -2.53718 -0.325704 0
M  V30 503 H 59.7968 -4.99541 -0.917656 0
M  V30 504 H 59.7268 -4.55502 -2.64246 0
M  V30 505 H 62.2178 -3.4526 -1.53635 0
M  V30 506 H 62.5308 -7.29158 -2.56024 0
M  V30 507 H 60.8758 -6.55521 -2.30905 0
M  V30 508 H 64.0668 -4.31026 -1.82577 0
M  V30 509 H 64.2398 -6.06078 -2.29289 0
M  V30 510 N 57.6459 0.756429 -1.3826 0
M  V30 511 C 58.6089 1.85176 -1.35065 0
M  V30 512 C 59.6089 1.58818 -0.251703 0
M  V30 513 O 60.7989 1.66615 -0.508433 0
M  V30 514 C 57.9309 3.22596 -1.10201 0
M  V30 515 H 59.1239 1.89417 -2.3251 0
M  V30 516 H 56.6769 0.95783 -1.23512 0
M  V30 517 H 57.4119 3.24025 -0.133504 0
M  V30 518 H 57.1969 3.43122 -1.89762 0
M  V30 519 H 58.6869 4.02673 -1.10654 0
M  V30 520 N 59.124 1.23083 0.984299 0
M  V30 521 C 60.37 1.06214 1.72761 0
M  V30 522 C 60.703 -0.400584 1.90024 0
M  V30 523 O 59.978 -1.29672 1.44967 0
M  V30 524 C 60.261 1.78375 3.12817 0
M  V30 525 C 60.114 3.32296 3.03149 0
M  V30 526 C 61.433 1.54309 4.12161 0
M  V30 527 H 58.552 0.387251 0.627061 0
M  V30 528 H 61.194 1.51536 1.14616 0
M  V30 529 H 59.344 1.39848 3.62457 0
M  V30 530 H 61.016 3.8032 2.61064 0
M  V30 531 H 59.259 3.6153 2.39747 0
M  V30 532 H 59.93 3.77972 4.02295 0
M  V30 533 H 62.406 1.87791 3.71314 0
M  V30 534 H 61.282 2.07281 5.08258 0
M  V30 535 H 61.543 0.477572 4.39513 0
M  V30 536 N 60.6021 -1.18246 1.0419 0
M  V30 537 C 61.5321 -2.24127 0.654914 0
M  V30 538 C 62.5131 -1.66617 -0.342451 0
M  V30 539 O 63.6981 -1.92924 -0.222277 0
M  V30 540 C 60.8281 -3.47295 0.0183757 0
M  V30 541 C 59.7821 -4.17563 0.939414 0
M  V30 542 C 59.1081 -5.34438 0.167286 0
M  V30 543 C 60.4081 -4.70917 2.25908 0
M  V30 544 H 62.1021 -2.56753 1.54007 0
M  V30 545 H 59.6481 -1.23414 0.74195 0
M  V30 546 H 61.6011 -4.20572 -0.264082 0
M  V30 547 H 60.3251 -3.13907 -0.901664 0
M  V30 548 H 58.9841 -3.46186 1.20628 0
M  V30 549 H 58.6321 -4.97298 -0.7552 0
M  V30 550 H 58.3321 -5.82388 0.780901 0
M  V30 551 H 59.8561 -6.10504 -0.108125 0
M  V30 552 H 61.2701 -5.35882 2.03724 0
M  V30 553 H 59.6671 -5.29406 2.82577 0
M  V30 554 H 60.7371 -3.88272 2.9047 0
M  V30 555 N 62.0802 -0.821533 -1.34494 0
M  V30 556 C 63.3262 -0.409552 -1.98622 0
M  V30 557 C 63.6592 1.0244 -1.64984 0
M  V30 558 O 62.9342 1.71325 -0.920758 0
M  V30 559 C 63.2172 -0.610458 -3.54888 0
M  V30 560 C 63.0702 -2.09043 -3.98273 0
M  V30 561 C 64.3892 -0.0455379 -4.40076 0
M  V30 562 H 61.5082 -0.15028 -0.721516 0
M  V30 563 H 64.1502 -1.03384 -1.59411 0
M  V30 564 H 62.3002 -0.079044 -3.8842 0
M  V30 565 H 63.9722 -2.68537 -3.75081 0
M  V30 566 H 62.2152 -2.58139 -3.48635 0
M  V30 567 H 62.8862 -2.18182 -5.07051 0
M  V30 568 H 65.3622 -0.499557 -4.1309 0
M  V30 569 H 64.2382 -0.215922 -5.48475 0
M  V30 570 H 64.4992 1.04939 -4.29465 0
M  V30 571 N 63.5583 1.46682 -0.576371 0
M  V30 572 C 64.9693 1.86112 -0.148091 0
M  V30 573 C 65.3203 1.48073 1.2872 0
M  V30 574 O 64.4453 0.892656 1.97131 0
M  V30 575 C 65.0403 3.37786 -0.261982 0
M  V30 576 C 63.5993 3.76235 0.111384 0
M  V30 577 C 62.7463 2.70713 -0.60083 0
M  V30 578 H 65.6973 1.37927 -0.78497 0
M  V30 579 H 65.7183 3.77007 0.514364 0
M  V30 580 H 65.2303 3.6544 -1.30671 0
M  V30 581 H 63.3313 3.54198 1.15649 0
M  V30 582 H 63.4443 4.78391 -0.26052 0
M  V30 583 H 61.8083 2.54666 -0.0417783 0
M  V30 584 H 62.5913 3.01208 -1.64708 0
M  V30 585 N 65.0364 0.313813 1.54444 0
M  V30 586 C 66.2824 -0.292108 2.00685 0
M  V30 587 C 66.6154 -1.52548 1.20177 0
M  V30 588 O 65.8904 -1.92452 0.281531 0
M  V30 589 C 66.1734 -0.635968 3.5444 0
M  V30 590 C 66.0264 0.607437 4.4568 0
M  V30 591 C 67.3454 -1.45747 4.15266 0
M  V30 592 H 64.4644 -0.104697 0.729526 0
M  V30 593 H 67.1064 0.428457 1.85106 0
M  V30 594 H 65.2564 -1.24986 3.67846 0
M  V30 595 H 66.9284 1.24581 4.44159 0
M  V30 596 H 65.1714 1.23822 4.15753 0
M  V30 597 H 65.8424 0.322515 5.51057 0
M  V30 598 H 68.3184 -0.938645 4.05375 0
M  V30 599 H 67.1944 -1.66683 5.2298 0
M  V30 600 H 67.4554 -2.45063 3.67963 0
M  V30 601 N 66.5145 -1.57545 0.0417849 0
M  V30 602 C 67.4445 -2.14009 -0.933929 0
M  V30 603 C 68.4255 -1.05938 -1.33083 0
M  V30 604 O 69.6105 -1.33833 -1.40721 0
M  V30 605 C 66.7405 -2.67747 -2.21199 0
M  V30 606 C 65.6945 -3.80718 -1.95544 0
M  V30 607 C 65.0205 -4.20935 -3.29724 0
M  V30 608 C 66.3205 -5.06258 -1.28452 0
M  V30 609 H 68.0145 -2.95788 -0.463645 0
M  V30 610 H 65.5605 -1.42285 -0.221573 0
M  V30 611 H 67.5135 -3.05886 -2.89848 0
M  V30 612 H 66.2375 -1.83147 -2.70416 0
M  V30 613 H 64.8965 -3.43037 -1.2931 0
M  V30 614 H 64.5445 -3.33298 -3.76724 0
M  V30 615 H 64.2445 -4.9707 -3.13361 0
M  V30 616 H 65.7685 -4.61666 -3.9962 0
M  V30 617 H 67.1825 -5.41903 -1.8712 0
M  V30 618 H 65.5795 -5.87475 -1.22445 0
M  V30 619 H 66.6495 -4.84207 -0.259219 0
M  V30 620 N 67.9926 0.231505 -1.5589 0
M  V30 621 C 69.2226 0.973092 -1.82248 0
M  V30 622 C 69.6306 1.78845 -0.617328 0
M  V30 623 O 68.9736 1.78752 0.423499 0
M  V30 624 C 69.0356 1.94732 -3.02192 0
M  V30 625 C 68.6996 1.31743 -4.37599 0
M  V30 626 C 69.6966 0.712238 -5.14998 0
M  V30 627 C 67.3816 1.33218 -4.84312 0
M  V30 628 C 69.3756 0.130195 -6.37267 0
M  V30 629 C 67.0626 0.746286 -6.06526 0
M  V30 630 C 68.0606 0.146337 -6.82843 0
M  V30 631 O 67.7486 -0.430465 -8.02747 0
M  V30 632 H 67.4806 0.29125 -0.61004 0
M  V30 633 H 70.0346 0.254915 -2.03812 0
M  V30 634 H 68.2646 2.70422 -2.76422 0
M  V30 635 H 69.9536 2.55362 -3.15508 0
M  V30 636 H 70.7196 0.69324 -4.8002 0
M  V30 637 H 66.5986 1.78854 -4.24891 0
M  V30 638 H 70.1426 -0.33871 -6.96777 0
M  V30 639 H 66.0396 0.762663 -6.40979 0
M  V30 640 H 66.8076 -0.323818 -8.17859 0
M  V30 641 N 69.4707 1.49531 0.497807 0
M  V30 642 C 70.4007 1.6935 1.60757 0
M  V30 643 C 71.3817 0.542218 1.61227 0
M  V30 644 O 72.5667 0.778417 1.77917 0
M  V30 645 C 69.6967 1.76298 2.99226 0
M  V30 646 C 68.6507 2.91248 3.13622 0
M  V30 647 C 67.9767 2.83312 4.53474 0
M  V30 648 C 69.2767 4.3214 2.93346 0
M  V30 649 H 70.9707 2.62263 1.44425 0
M  V30 650 H 68.5167 1.26208 0.693367 0
M  V30 651 H 70.4697 1.88749 3.76765 0
M  V30 652 H 69.1937 0.799871 3.16654 0
M  V30 653 H 67.8527 2.78404 2.38509 0
M  V30 654 H 67.5007 1.84902 4.67782 0
M  V30 655 H 67.2007 3.60465 4.64046 0
M  V30 656 H 68.7247 2.97775 5.33069 0
M  V30 657 H 70.1387 4.45649 3.60652 0
M  V30 658 H 68.5357 5.1054 3.15387 0
M  V30 659 H 69.6057 4.46363 1.89441 0
M  V30 660 N 70.9488 -0.749086 1.3866 0
M  V30 661 C 71.8788 -1.8764 1.38973 0
M  V30 662 C 72.8598 -1.68178 0.255004 0
M  V30 663 O 74.0448 -1.88704 0.458754 0
M  V30 664 C 71.1748 -3.25222 1.21851 0
M  V30 665 C 70.1288 -3.59295 2.32575 0
M  V30 666 C 69.4548 -4.95663 2.00555 0
M  V30 667 C 70.7548 -3.63709 3.7485 0
M  V30 668 H 72.4488 -1.87635 2.3331 0
M  V30 669 H 69.9948 -0.901329 1.12303 0
M  V30 670 H 71.9478 -4.03746 1.20695 0
M  V30 671 H 70.6718 -3.25719 0.239775 0
M  V30 672 H 69.3308 -2.83093 2.32925 0
M  V30 673 H 68.9788 -4.92724 1.01154 0
M  V30 674 H 68.6788 -5.19429 2.74714 0
M  V30 675 H 70.2028 -5.7656 2.01024 0
M  V30 676 H 71.6168 -4.32338 3.76506 0
M  V30 677 H 70.0138 -3.98986 4.48252 0
M  V30 678 H 71.0838 -2.63834 4.06841 0
M  V30 679 N 72.4269 -1.23603 -0.977757 0
M  V30 680 C 73.6729 -1.07129 -1.72195 0
M  V30 681 C 74.0059 0.390501 -1.90233 0
M  V30 682 O 73.2809 1.28902 -1.45653 0
M  V30 683 C 73.5639 -1.80031 -3.11867 0
M  V30 684 C 73.4169 -3.33899 -3.01383 0
M  V30 685 C 74.7359 -1.56492 -4.11337 0
M  V30 686 H 71.8549 -0.390571 -0.624999 0
M  V30 687 H 74.4969 -1.52142 -1.13811 0
M  V30 688 H 72.6469 -1.41768 -3.6171 0
M  V30 689 H 74.3189 -3.81699 -2.59043 0
M  V30 690 H 72.5619 -3.62796 -2.37827 0
M  V30 691 H 73.2329 -3.801 -4.00285 0
M  V30 692 H 75.7089 -1.89757 -3.70313 0
M  V30 693 H 74.5849 -2.09973 -5.07151 0
M  V30 694 H 74.8459 -0.500874 -4.39254 0
M  V30 695 N 73.905 1.17692 -1.04816 0
M  V30 696 C 75.145 1.89545 -0.764979 0
M  V30 697 C 75.509 1.78979 0.695028 0
M  V30 698 O 76.71 2.45613 1.09215 0
M  V30 699 C 74.981 3.35659 -1.22751 0
M  V30 700 S 76.54 4.25526 -1.07112 0
M  V30 701 H 73.358 0.654432 -0.27792 0
M  V30 702 H 75.96 1.42163 -1.34201 0
M  V30 703 H 74.664 3.40882 -2.28533 0
M  V30 704 H 74.195 3.88083 -0.644594 0
M  V30 705 H 76.21 4.962 0.00697508 0
M  V30 706 N 75.3831 0.828654 1.34056 0
M  V30 707 C 76.3461 0.259927 2.27721 0
M  V30 708 C 77.3461 -0.565478 1.50529 0
M  V30 709 O 78.5361 -0.38075 1.69988 0
M  V30 710 C 75.6681 -0.634944 3.34935 0
M  V30 711 H 76.8611 1.0863 2.79534 0
M  V30 712 H 74.4141 0.600951 1.44285 0
M  V30 713 H 75.1491 -1.48416 2.88346 0
M  V30 714 H 74.9341 -0.0444999 3.92075 0
M  V30 715 H 76.4241 -1.02648 4.04788 0
M  V30 716 N 76.8612 -1.46375 0.584142 0
M  V30 717 C 77.8242 -2.28784 -0.138108 0
M  V30 718 C 78.8242 -1.38471 -0.817462 0
M  V30 719 O 80.0142 -1.60833 -0.669199 0
M  V30 720 C 77.1462 -3.18892 -1.20503 0
M  V30 721 H 78.3392 -2.94117 0.586127 0
M  V30 722 H 75.8922 -1.52509 0.342171 0
M  V30 723 H 76.6272 -2.58309 -1.96079 0
M  V30 724 H 76.4122 -3.85388 -0.722384 0
M  V30 725 H 77.9022 -3.80914 -1.71155 0
M  V30 726 N 78.3393 -0.321999 -1.54275 0
M  V30 727 C 79.5873 0.280489 -2.00144 0
M  V30 728 C 79.9083 1.52777 -1.21178 0
M  V30 729 O 79.1783 1.9338 -0.313187 0
M  V30 730 H 77.7583 0.106632 -0.73935 0
M  V30 731 H 80.4203 -0.438184 -1.8991 0
M  V30 732 H 79.5163 0.537972 -3.07428 0
M  V30 733 N 79.8174 1.5752 -0.0501392 0
M  V30 734 C 80.7474 2.14502 0.922566 0
M  V30 735 C 81.7284 1.06642 1.3252 0
M  V30 736 O 82.9134 1.34577 1.4001 0
M  V30 737 C 80.0434 2.68916 2.19776 0
M  V30 738 C 78.9974 3.8175 1.93523 0
M  V30 739 C 78.3234 4.22677 3.27487 0
M  V30 740 C 79.6234 5.06932 1.25765 0
M  V30 741 H 81.3174 2.9603 0.447952 0
M  V30 742 H 78.8634 1.42401 0.214024 0
M  V30 743 H 80.8164 3.07419 2.88222 0
M  V30 744 H 79.5404 1.84578 2.69441 0
M  V30 745 H 78.1994 3.43718 1.27489 0
M  V30 746 H 77.8474 3.35291 3.74952 0
M  V30 747 H 77.5474 4.98725 3.1072 0
M  V30 748 H 79.0714 4.63779 3.97166 0
M  V30 749 H 80.4854 5.42888 1.84244 0
M  V30 750 H 78.8824 5.88116 1.19328 0
M  V30 751 H 79.9524 4.84337 0.233536 0
M  V30 752 N 81.2955 -0.223234 1.56011 0
M  V30 753 C 82.5435 -0.946003 1.78592 0
M  V30 754 C 82.8645 -1.84936 0.618349 0
M  V30 755 O 82.1345 -1.92473 -0.364833 0
M  V30 756 H 80.7145 -0.352298 0.658707 0
M  V30 757 H 83.3765 -0.235494 1.93472 0
M  V30 758 H 82.4725 -1.55381 2.70672 0
M  V30 759 N 82.7736 -1.49793 -0.48987 0
M  V30 760 C 84.0216 -1.59525 -1.24081 0
M  V30 761 C 84.3426 -0.288953 -1.92847 0
M  V30 762 O 83.6126 0.692436 -1.83254 0
M  V30 763 H 82.1926 -0.587796 -0.460983 0
M  V30 764 H 84.8546 -1.86477 -0.566778 0
M  V30 765 H 83.9506 -2.39696 -1.99881 0
M  V30 766 N 84.2517 0.741722 -1.39055 0
M  V30 767 C 85.1997 1.87702 -1.3737 0
M  V30 768 C 86.1937 1.67427 -0.257812 0
M  V30 769 O 87.3997 1.7485 -0.427489 0
M  V30 770 H 83.7747 0.617757 -0.428812 0
M  V30 771 H 85.7457 1.86239 -2.33147 0
M  V30 772 C 84.4947 3.25315 -1.22741 0
M  V30 773 H 83.8177 3.41509 -2.07873 0
M  V30 774 H 85.2577 4.04964 -1.25618 0
M  V30 775 C 83.7167 3.36838 0.0647316 0
M  V30 776 O 84.2467 3.88073 1.03741 0
M  V30 777 N 82.4527 2.90329 0.125544 0
M  V30 778 H 81.9997 2.48823 -0.666682 0
M  V30 779 H 81.9577 2.98418 0.989639 0
M  V30 780 N 85.7298 1.2412 0.971189 0
M  V30 781 C 86.9578 1.10575 1.74874 0
M  V30 782 C 87.3728 -0.342017 1.85676 0
M  V30 783 O 86.7298 -1.23617 1.34258 0
M  V30 784 C 86.7808 1.73579 3.171 0
M  V30 785 O 86.5018 3.12695 3.06844 0
M  V30 786 C 88.0028 1.65598 4.11208 0
M  V30 787 H 85.2228 0.386504 0.548503 0
M  V30 788 H 87.7668 1.64156 1.21955 0
M  V30 789 H 85.9218 1.24009 3.67016 0
M  V30 790 H 86.3358 3.43412 3.96445 0
M  V30 791 H 87.8098 2.1437 5.08674 0
M  V30 792 H 88.2868 0.616532 4.34851 0
M  V30 793 H 88.8928 2.14578 3.67201 0
M  V30 794 N 87.2079 -1.17134 1.05439 0
M  V30 795 C 88.1379 -2.2342 0.678649 0
M  V30 796 C 89.1189 -1.66971 -0.32476 0
M  V30 797 O 90.3039 -1.93149 -0.201802 0
M  V30 798 C 87.4339 -3.47256 0.0552099 0
M  V30 799 C 86.3879 -4.16543 0.98365 0
M  V30 800 C 85.7139 -5.34231 0.223961 0
M  V30 801 C 87.0139 -4.68495 2.3089 0
M  V30 802 H 88.7079 -2.55105 1.56722 0
M  V30 803 H 86.2539 -1.2262 0.754998 0
M  V30 804 H 88.2069 -4.20828 -0.21946 0
M  V30 805 H 86.9309 -3.14846 -0.868319 0
M  V30 806 H 85.5899 -3.44887 1.24293 0
M  V30 807 H 85.2379 -4.98071 -0.702412 0
M  V30 808 H 84.9379 -5.81527 0.842627 0
M  V30 809 H 86.4619 -6.10585 -0.0433671 0
M  V30 810 H 87.8759 -5.33691 2.09396 0
M  V30 811 H 86.2729 -5.26379 2.88176 0
M  V30 812 H 87.3429 -3.85169 2.94572 0
M  V30 813 N 88.686 -0.835752 -1.33615 0
M  V30 814 C 89.932 -0.430596 -1.98176 0
M  V30 815 C 90.265 1.00684 -1.66061 0
M  V30 816 O 89.54 1.70339 -0.938877 0
M  V30 817 C 89.823 -0.648065 -3.5422 0
M  V30 818 C 89.676 -2.13255 -3.96033 0
M  V30 819 C 90.995 -0.0922113 -4.40003 0
M  V30 820 H 88.114 -0.157924 -0.719881 0
M  V30 821 H 90.756 -1.05069 -1.58305 0
M  V30 822 H 88.906 -0.120237 -3.88314 0
M  V30 823 H 90.578 -2.725 -3.72211 0
M  V30 824 H 88.821 -2.61823 -3.45878 0
M  V30 825 H 89.492 -2.23547 -5.04708 0
M  V30 826 H 91.968 -0.543343 -4.12537 0
M  V30 827 H 90.844 -0.274083 -5.48215 0
M  V30 828 H 91.105 1.00378 -4.30554 0
M  V30 829 N 90.1641 1.46063 -0.591896 0
M  V30 830 C 91.4131 2.01547 -0.0786637 0
M  V30 831 C 91.7261 1.46796 1.29268 0
M  V30 832 O 92.9321 1.94157 1.89777 0
M  V30 833 C 91.3881 3.59787 -0.0900024 0
M  V30 834 C 90.9961 4.23534 -1.46023 0
M  V30 835 C 92.7401 4.22895 0.368806 0
M  V30 836 C 90.6471 5.73881 -1.4288 0
M  V30 837 H 89.5771 0.753564 -0.0256388 0
M  V30 838 H 92.2281 1.677 -0.744905 0
M  V30 839 H 90.6101 3.90752 0.642586 0
M  V30 840 H 91.7841 4.04167 -2.21328 0
M  V30 841 H 90.0991 3.72558 -1.85982 0
M  V30 842 H 92.6961 5.33116 0.411258 0
M  V30 843 H 93.0391 3.9247 1.38827 0
M  V30 844 H 93.5721 3.9659 -0.31001 0
M  V30 845 H 90.3111 6.0898 -2.42536 0
M  V30 846 H 89.8311 5.95486 -0.718095 0
M  V30 847 H 91.5101 6.36776 -1.14565 0
M  V30 848 N 91.6422 0.330177 1.54103 0
M  V30 849 C 92.8722 -0.271784 2.04805 0
M  V30 850 C 93.2802 -1.45816 1.20559 0
M  V30 851 O 92.6232 -1.82247 0.2306 0
M  V30 852 C 92.6852 -0.763238 3.51305 0
M  V30 853 C 92.3492 0.301705 4.56003 0
M  V30 854 C 93.3462 1.13999 5.07248 0
M  V30 855 C 91.0312 0.451793 5.00264 0
M  V30 856 C 93.0252 2.11402 6.01322 0
M  V30 857 C 90.7122 1.42924 5.94151 0
M  V30 858 C 91.7102 2.25882 6.44567 0
M  V30 859 O 91.3982 3.21965 7.3661 0
M  V30 860 H 91.1302 -0.058693 0.673447 0
M  V30 861 H 93.6842 0.476395 1.99799 0
M  V30 862 H 91.9142 -1.56244 3.5373 0
M  V30 863 H 93.6032 -1.28427 3.85047 0
M  V30 864 H 94.3692 1.03505 4.73827 0
M  V30 865 H 90.2482 -0.184044 4.60632 0
M  V30 866 H 93.7922 2.76192 6.40596 0
M  V30 867 H 89.6892 1.53479 6.26988 0
M  V30 868 H 90.4572 3.17281 7.54503 0
M  V30 869 N 93.1203 -1.57491 0.0584922 0
M  V30 870 C 94.3663 -1.93264 -0.614558 0
M  V30 871 C 94.6993 -0.937717 -1.7006 0
M  V30 872 O 93.9743 0.0351652 -1.94468 0
M  V30 873 C 94.2573 -3.3938 -1.20386 0
M  V30 874 C 94.1103 -4.49625 -0.125375 0
M  V30 875 C 95.4293 -3.86039 -2.11334 0
M  V30 876 H 92.5483 -0.702791 -0.221933 0
M  V30 877 H 95.1903 -1.8961 0.12175 0
M  V30 878 H 93.3403 -3.42626 -1.83139 0
M  V30 879 H 95.0123 -4.58506 0.506971 0
M  V30 880 H 93.2553 -4.30354 0.545672 0
M  V30 881 H 93.9263 -5.48967 -0.577861 0
M  V30 882 H 96.4023 -3.84716 -1.58534 0
M  V30 883 H 95.2783 -4.88914 -2.49507 0
M  V30 884 H 95.5393 -3.23215 -3.01636 0
M  V30 885 N 94.5984 0.214957 -1.56127 0
M  V30 886 C 95.8444 0.939762 -1.79712 0
M  V30 887 C 96.1774 1.83723 -0.629247 0
M  V30 888 O 95.4524 1.90925 0.371197 0
M  V30 889 C 95.7354 1.77306 -3.13424 0
M  V30 890 C 95.5884 0.90164 -4.40671 0
M  V30 891 C 96.9074 2.74956 -3.43638 0
M  V30 892 H 94.0264 0.340214 -0.653776 0
M  V30 893 H 96.6684 0.20824 -1.88855 0
M  V30 894 H 94.8184 2.39673 -3.0576 0
M  V30 895 H 96.4904 0.294206 -4.60361 0
M  V30 896 H 94.7334 0.207368 -4.33304 0
M  V30 897 H 95.4044 1.51923 -5.30682 0
M  V30 898 H 97.8804 2.22724 -3.51473 0
M  V30 899 H 96.7564 3.30358 -4.38355 0
M  V30 900 H 97.0174 3.53023 -2.66134 0
M  V30 901 N 96.0765 1.50051 0.48192 0
M  V30 902 C 97.0065 1.71046 1.58951 0
M  V30 903 C 97.9875 0.559288 1.60642 0
M  V30 904 O 99.1725 0.797243 1.77081 0
M  V30 905 C 96.3025 1.79462 2.97339 0
M  V30 906 C 95.2565 2.94558 3.10515 0
M  V30 907 C 94.5825 2.88105 4.50444 0
M  V30 908 C 95.8825 4.35227 2.88747 0
M  V30 909 H 97.5765 2.6378 1.41635 0
M  V30 910 H 95.1225 1.26936 0.679942 0
M  V30 911 H 97.0755 1.92734 3.74742 0
M  V30 912 H 95.7995 0.833412 3.15788 0
M  V30 913 H 94.4585 2.80918 2.35543 0
M  V30 914 H 94.1065 1.89853 4.65795 0
M  V30 915 H 93.8065 3.65366 4.60197 0
M  V30 916 H 95.3305 3.03412 5.29881 0
M  V30 917 H 96.7445 4.49449 3.55905 0
M  V30 918 H 95.1415 5.13856 3.09955 0
M  V30 919 H 96.2115 4.48347 1.84696 0
M  V30 920 N 97.5546 -0.734337 1.39446 0
M  V30 921 C 98.9706 -1.03997 1.21065 0
M  V30 922 C 99.1706 -2.01369 0.0727019 0
M  V30 923 O 98.2266 -2.45856 -0.575426 0
M  V30 924 C 99.5396 -1.60163 2.54496 0
M  V30 925 C 101.088 -1.7224 2.61347 0
M  V30 926 C 101.563 -2.31814 3.95002 0
M  V30 927 N 103.054 -2.39223 3.96644 0
M  V30 928 C 103.789 -2.86258 4.96834 0
M  V30 929 N 103.285 -3.33184 6.07421 0
M  V30 930 N 105.078 -2.85473 4.84213 0
M  V30 931 H 97.2286 -0.0885624 2.12215 0
M  V30 932 H 99.4916 -0.10191 0.942506 0
M  V30 933 H 99.1976 -0.960811 3.38321 0
M  V30 934 H 99.0716 -2.5896 2.74262 0
M  V30 935 H 101.459 -2.35443 1.77906 0
M  V30 936 H 101.54 -0.720939 2.4543 0
M  V30 937 H 101.184 -1.69238 4.78875 0
M  V30 938 H 101.114 -3.32638 4.08239 0
M  V30 939 H 103.605 -2.06057 3.16779 0
M  V30 940 H 103.918 -3.67586 6.7978 0
M  V30 941 H 102.263 -3.31191 6.11013 0
M  V30 942 H 105.454 -2.48136 3.96921 0
M  V30 943 H 105.627 -3.21814 5.62441 0
M  V30 944 N 99.0327 -1.24633 -0.964593 0
M  V30 945 C 100.28 -1.08788 -1.70796 0
M  V30 946 C 100.608 0.372783 -1.90894 0
M  V30 947 O 99.8627 1.29167 -1.47018 0
M  V30 948 C 100.162 -1.7763 -3.10133 0
M  V30 949 C 99.8277 -3.27557 -3.09866 0
M  V30 950 C 98.4897 -3.6846 -3.09501 0
M  V30 951 C 100.842 -4.23389 -3.03959 0
M  V30 952 C 98.1697 -5.03624 -3.00965 0
M  V30 953 C 100.522 -5.58565 -2.96965 0
M  V30 954 C 99.1857 -5.98809 -2.9493 0
M  V30 955 H 98.4557 -0.398084 -0.624988 0
M  V30 956 H 101.103 -1.54777 -1.12767 0
M  V30 957 H 99.4077 -1.24044 -3.71645 0
M  V30 958 H 101.105 -1.62832 -3.66451 0
M  V30 959 H 97.6947 -2.95006 -3.10917 0
M  V30 960 H 101.879 -3.92787 -3.03368 0
M  V30 961 H 97.1347 -5.33998 -2.97752 0
M  V30 962 H 101.309 -6.32523 -2.91354 0
M  V30 963 H 98.9357 -7.03505 -2.88071 0
M  V30 964 N 100.511 1.16574 -1.06058 0
M  V30 965 C 101.474 2.19085 -0.673392 0
M  V30 966 C 102.474 1.5835 0.279648 0
M  V30 967 O 103.664 1.74088 0.0623488 0
M  V30 968 C 100.796 3.40899 0.00954234 0
M  V30 969 H 101.989 2.54853 -1.58081 0
M  V30 970 H 99.5418 1.30808 -0.855516 0
M  V30 971 H 100.277 3.10684 0.929826 0
M  V30 972 H 100.062 3.86233 -0.67573 0
M  V30 973 H 101.552 4.1675 0.266245 0
M  V30 974 N 101.989 0.842826 1.3317 0
M  V30 975 C 102.936 0.276885 2.29133 0
M  V30 976 C 103.906 -0.609527 1.54512 0
M  V30 977 O 105.091 -0.546955 1.82792 0
M  V30 978 C 102.231 -0.538707 3.40869 0
M  V30 979 C 101.344 0.372169 4.30394 0
M  V30 980 C 100.479 -0.454908 5.29249 0
M  V30 981 C 99.5179 0.45411 6.10413 0
M  V30 982 N 98.6549 -0.335075 7.013 0
M  V30 983 H 103.495 1.10052 2.76934 0
M  V30 984 H 101.032 0.554161 1.36262 0
M  V30 985 H 102.99 -1.02709 4.0436 0
M  V30 986 H 101.62 -1.32727 2.9425 0
M  V30 987 H 100.672 0.97888 3.6759 0
M  V30 988 H 101.984 1.0703 4.87182 0
M  V30 989 H 101.138 -1.00695 5.98285 0
M  V30 990 H 99.8769 -1.18646 4.73048 0
M  V30 991 H 98.8819 1.01813 5.40291 0
M  V30 992 H 100.107 1.18409 6.68697 0
M  V30 993 H 98.0529 -1.04994 6.47543 0
M  V30 994 H 97.9699 0.304262 7.55387 0
M  V30 995 H 99.2379 -0.869224 7.74638 0
M  V30 996 N 103.467 -1.45747 0.599634 0
M  V30 997 C 104.4 -2.27547 -0.172552 0
M  V30 998 C 105.378 -1.36657 -0.881116 0
M  V30 999 O 106.562 -1.66081 -0.891595 0
M  V30 1000 C 103.689 -3.14829 -1.24903 0
M  V30 1001 C 102.735 -4.21603 -0.644465 0
M  V30 1002 S 103.568 -5.32754 0.541606 0
M  V30 1003 C 104.724 -6.23604 -0.535656 0
M  V30 1004 H 104.957 -2.92691 0.521468 0
M  V30 1005 H 102.49 -1.49473 0.386947 0
M  V30 1006 H 104.448 -3.65675 -1.86527 0
M  V30 1007 H 103.109 -2.48965 -1.91508 0
M  V30 1008 H 102.302 -4.82566 -1.45417 0
M  V30 1009 H 101.904 -3.73857 -0.103534 0
M  V30 1010 H 104.196 -6.62519 -1.41686 0
M  V30 1011 H 105.139 -7.0809 0.0376246 0
M  V30 1012 H 105.547 -5.58103 -0.84741 0
M  V30 1013 N 104.945 -0.338344 -1.53925 0
M  V30 1014 C 105.892 0.520845 -2.24846 0
M  V30 1015 C 106.862 1.09976 -1.24477 0
M  V30 1016 O 108.047 1.13735 -1.53196 0
M  V30 1017 C 105.187 1.6685 -3.02084 0
M  V30 1018 C 104.3 1.11739 -4.17299 0
M  V30 1019 C 103.435 2.23193 -4.82036 0
M  V30 1020 C 102.474 1.65407 -5.89328 0
M  V30 1021 N 101.611 2.70582 -6.47866 0
M  V30 1022 H 106.451 -0.0904881 -2.97863 0
M  V30 1023 H 103.988 -0.0564282 -1.46992 0
M  V30 1024 H 105.946 2.34407 -3.45122 0
M  V30 1025 H 104.576 2.2509 -2.31375 0
M  V30 1026 H 103.628 0.332919 -3.7894 0
M  V30 1027 H 104.94 0.654677 -4.94485 0
M  V30 1028 H 104.094 2.98626 -5.28117 0
M  V30 1029 H 102.833 2.72807 -4.04262 0
M  V30 1030 H 101.838 0.884779 -5.42634 0
M  V30 1031 H 103.063 1.16652 -6.69006 0
M  V30 1032 H 101.009 3.1946 -5.72959 0
M  V30 1033 H 100.926 2.28917 -7.20509 0
M  V30 1034 H 102.194 3.45799 -6.98601 0
M  V30 1035 N 106.423 1.57458 -0.0668435 0
M  V30 1036 C 107.651 1.97624 0.612565 0
M  V30 1037 C 108.066 0.94502 1.63447 0
M  V30 1038 O 107.423 -0.0689276 1.8237 0
M  V30 1039 C 107.474 3.37869 1.28555 0
M  V30 1040 O 107.195 4.3704 0.304557 0
M  V30 1041 C 108.696 3.92882 2.05325 0
M  V30 1042 H 105.916 0.650045 0.166381 0
M  V30 1043 H 108.46 2.04035 -0.137782 0
M  V30 1044 H 106.615 3.3256 1.98702 0
M  V30 1045 H 107.029 5.18565 0.786779 0
M  V30 1046 H 108.503 4.93247 2.47812 0
M  V30 1047 H 108.98 3.29156 2.9078 0
M  V30 1048 H 109.586 4.01577 1.40056 0
M  V30 1049 N 107.901 -0.206675 1.56239 0
M  V30 1050 C 109.147 -0.930218 1.80208 0
M  V30 1051 C 109.48 -1.83387 0.638981 0
M  V30 1052 O 108.755 -1.91119 -0.361066 0
M  V30 1053 C 109.038 -1.75641 3.1436 0
M  V30 1054 C 108.891 -0.878257 4.41142 0
M  V30 1055 C 110.21 -2.73129 3.45092 0
M  V30 1056 H 107.329 -0.336742 0.655571 0
M  V30 1057 H 109.971 -0.198222 1.88963 0
M  V30 1058 H 108.121 -2.38048 3.07027 0
M  V30 1059 H 109.793 -0.269787 4.6051 0
M  V30 1060 H 108.036 -0.184385 4.33408 0
M  V30 1061 H 108.707 -1.49106 5.3148 0
M  V30 1062 H 111.183 -2.20856 3.52649 0
M  V30 1063 H 110.059 -3.28028 4.40101 0
M  V30 1064 H 110.32 -3.51606 2.68003 0
M  V30 1065 N 109.379 -1.50304 -0.473955 0
M  V30 1066 C 110.607 -1.64902 -1.24959 0
M  V30 1067 C 111.022 -0.331198 -1.85872 0
M  V30 1068 O 110.379 0.68652 -1.69095 0
M  V30 1069 C 110.43 -2.73803 -2.36038 0
M  V30 1070 O 110.151 -4.00477 -1.77624 0
M  V30 1071 C 111.652 -2.99349 -3.26964 0
M  V30 1072 H 108.872 -0.554383 -0.378022 0
M  V30 1073 H 111.416 -1.9651 -0.566054 0
M  V30 1074 H 109.571 -2.44898 -3.00173 0
M  V30 1075 H 109.985 -4.60678 -2.5075 0
M  V30 1076 H 111.459 -3.79217 -4.01121 0
M  V30 1077 H 111.936 -2.10307 -3.85574 0
M  V30 1078 H 112.542 -3.29774 -2.68569 0
M  V30 1079 N 110.857 0.726932 -1.39834 0
M  V30 1080 C 111.805 1.86235 -1.39353 0
M  V30 1081 C 112.799 1.67144 -0.275555 0
M  V30 1082 O 114.005 1.74387 -0.44601 0
M  V30 1083 H 110.38 0.613174 -0.43534 0
M  V30 1084 H 112.351 1.83756 -2.35109 0
M  V30 1085 C 111.1 3.23995 -1.26185 0
M  V30 1086 H 110.423 3.39285 -2.11484 0
M  V30 1087 H 111.863 4.03609 -1.29907 0
M  V30 1088 C 110.322 3.36888 0.0290018 0
M  V30 1089 O 110.852 3.89152 0.99619 0
M  V30 1090 N 109.058 2.90446 0.0947437 0
M  V30 1091 H 108.605 2.48102 -0.693035 0
M  V30 1092 H 108.563 2.99451 0.957932 0
M  V30 1093 N 112.336 1.25143 0.95797 0
M  V30 1094 C 113.585 1.0909 1.69654 0
M  V30 1095 C 113.898 -0.368548 1.92097 0
M  V30 1096 O 115.104 -0.649455 2.63618 0
M  V30 1097 C 113.56 1.90395 3.05414 0
M  V30 1098 C 113.168 3.4081 2.90779 0
M  V30 1099 C 114.912 1.82901 3.83076 0
M  V30 1100 C 112.819 4.14423 4.21909 0
M  V30 1101 H 111.749 0.404625 0.636235 0
M  V30 1102 H 114.4 1.4931 1.06672 0
M  V30 1103 H 112.782 1.42996 3.69281 0
M  V30 1104 H 113.956 3.95859 2.35865 0
M  V30 1105 H 112.271 3.49361 2.26575 0
M  V30 1106 H 114.868 2.35196 4.80195 0
M  V30 1107 H 115.211 0.796224 4.08615 0
M  V30 1108 H 115.744 2.28033 3.25954 0
M  V30 1109 H 112.483 5.18102 4.01561 0
M  V30 1110 H 112.003 3.64159 4.76601 0
M  V30 1111 H 113.682 4.21956 4.90471 0
M  V30 1112 N 113.814 -1.1601 1.06675 0
M  V30 1113 C 115.044 -1.90251 0.805497 0
M  V30 1114 C 115.452 -1.77891 -0.64431 0
M  V30 1115 O 114.795 -1.12383 -1.45313 0
M  V30 1116 C 114.857 -3.41419 1.12576 0
M  V30 1117 C 114.521 -3.77564 2.57477 0
M  V30 1118 C 115.518 -3.79161 3.55715 0
M  V30 1119 C 113.203 -4.08079 2.92877 0
M  V30 1120 C 115.197 -4.10767 4.8739 0
M  V30 1121 C 112.884 -4.39351 4.24751 0
M  V30 1122 C 113.882 -4.40675 5.21818 0
M  V30 1123 O 113.57 -4.71202 6.51325 0
M  V30 1124 H 113.302 -0.610018 0.291297 0
M  V30 1125 H 115.856 -1.47958 1.4247 0
M  V30 1126 H 114.086 -3.84079 0.449503 0
M  V30 1127 H 115.775 -3.9694 0.84814 0
M  V30 1128 H 116.541 -3.55693 3.29708 0
M  V30 1129 H 112.42 -4.06211 2.17976 0
M  V30 1130 H 115.964 -4.11715 5.63148 0
M  V30 1131 H 111.861 -4.62285 4.50514 0
M  V30 1132 H 112.629 -4.88996 6.56373 0
M  V30 1133 N 115.292 -0.849877 -1.32721 0
M  V30 1134 C 116.541 -0.447175 -1.96681 0
M  V30 1135 C 116.854 1.00135 -1.68025 0
M  V30 1136 O 118.06 1.50926 -2.25685 0
M  V30 1137 C 116.516 -0.7487 -3.52026 0
M  V30 1138 C 116.124 -2.21264 -3.89546 0
M  V30 1139 C 117.868 -0.413487 -4.22481 0
M  V30 1140 C 115.775 -2.45763 -5.37917 0
M  V30 1141 H 114.705 -0.163486 -0.736063 0
M  V30 1142 H 117.356 -1.03999 -1.51183 0
M  V30 1143 H 115.738 -0.0853727 -3.95908 0
M  V30 1144 H 116.912 -2.91736 -3.56689 0
M  V30 1145 H 115.227 -2.5119 -3.32103 0
M  V30 1146 H 117.824 -0.574017 -5.3161 0
M  V30 1147 H 118.167 0.644492 -4.11281 0
M  V30 1148 H 118.7 -1.03251 -3.84167 0
M  V30 1149 H 115.439 -3.50168 -5.54132 0
M  V30 1150 H 114.959 -1.79864 -5.72197 0
M  V30 1151 H 116.638 -2.29471 -6.0494 0
M  V30 1152 N 116.77 1.45427 -0.607355 0
M  V30 1153 C 117.7 2.3329 0.0989352 0
M  V30 1154 C 118.681 1.46816 0.859007 0
M  V30 1155 O 119.866 1.75588 0.829604 0
M  V30 1156 C 116.996 3.29518 1.09705 0
M  V30 1157 C 115.95 4.25626 0.450206 0
M  V30 1158 C 115.276 5.11542 1.55655 0
M  V30 1159 C 116.576 5.18505 -0.628455 0
M  V30 1160 H 118.27 2.92595 -0.634716 0
M  V30 1161 H 115.816 1.40696 -0.306681 0
M  V30 1162 H 117.769 3.89855 1.59971 0
M  V30 1163 H 116.493 2.68372 1.86129 0
M  V30 1164 H 115.152 3.66586 -0.0315886 0
M  V30 1165 H 114.8 4.46765 2.31107 0
M  V30 1166 H 114.5 5.76647 1.12925 0
M  V30 1167 H 116.024 5.74748 2.06148 0
M  V30 1168 H 117.438 5.72916 -0.209877 0
M  V30 1169 H 115.835 5.92085 -0.977489 0
M  V30 1170 H 116.905 4.60948 -1.50514 0
M  V30 1171 N 118.248 0.346503 1.53744 0
M  V30 1172 C 119.196 -0.52422 2.26616 0
M  V30 1173 C 120.19 -1.09948 1.28871 0
M  V30 1174 O 121.396 -1.04488 1.46568 0
M  V30 1175 H 117.771 -0.187743 0.728187 0
M  V30 1176 H 119.742 0.11239 2.98188 0
M  V30 1177 C 118.491 -1.66186 3.05414 0
M  V30 1178 H 117.814 -1.22848 3.80458 0
M  V30 1179 H 119.254 -2.24622 3.59612 0
M  V30 1180 C 117.713 -2.59302 2.1509 0
M  V30 1181 O 118.243 -3.61628 1.74895 0
M  V30 1182 N 116.449 -2.28055 1.8011 0
M  V30 1183 H 115.996 -1.44883 2.12994 0
M  V30 1184 H 115.954 -2.90615 1.19958 0
M  V30 1185 N 119.726 -1.57421 0.075193 0
M  V30 1186 C 120.656 -2.15942 -0.888324 0
M  V30 1187 C 121.637 -1.08737 -1.30806 0
M  V30 1188 O 122.822 -1.36787 -1.37851 0
M  V30 1189 C 119.952 -2.72379 -2.1547 0
M  V30 1190 C 118.906 -3.8478 -1.87425 0
M  V30 1191 C 118.232 -4.27834 -3.20721 0
M  V30 1192 C 119.532 -5.08869 -1.17684 0
M  V30 1193 H 121.226 -2.96705 -0.400799 0
M  V30 1194 H 118.772 -1.42723 -0.191342 0
M  V30 1195 H 120.725 -3.11965 -2.83295 0
M  V30 1196 H 119.449 -1.88841 -2.6647 0
M  V30 1197 H 118.108 -3.45703 -1.22004 0
M  V30 1198 H 117.756 -3.41214 -3.6957 0
M  V30 1199 H 117.456 -5.03605 -3.02746 0
M  V30 1200 H 118.98 -4.70039 -3.89738 0
M  V30 1201 H 120.394 -5.4575 -1.75584 0
M  V30 1202 H 118.791 -5.8994 -1.09956 0
M  V30 1203 H 119.861 -4.84648 -0.156453 0
M  V30 1204 N 121.204 0.198386 -1.56346 0
M  V30 1205 C 122.167 1.22952 -1.93431 0
M  V30 1206 C 123.167 1.38611 -0.815092 0
M  V30 1207 O 124.357 1.36479 -1.08255 0
M  V30 1208 C 121.489 2.59946 -2.20546 0
M  V30 1209 H 122.682 0.912626 -2.85677 0
M  V30 1210 H 120.235 0.43977 -1.49986 0
M  V30 1211 H 120.97 2.96696 -1.30927 0
M  V30 1212 H 120.755 2.49953 -3.02102 0
M  V30 1213 H 122.245 3.3431 -2.50253 0
M  V30 1214 N 122.682 1.50554 0.465978 0
M  V30 1215 C 123.928 1.62038 1.21949 0
M  V30 1216 C 124.261 0.322116 1.9151 0
M  V30 1217 O 123.536 -0.676723 1.82348 0
M  V30 1218 C 123.819 2.80421 2.25912 0
M  V30 1219 C 123.672 4.20144 1.60622 0
M  V30 1220 C 124.991 2.94354 3.27176 0
M  V30 1221 H 122.11 0.589752 0.441998 0
M  V30 1222 H 124.752 1.82956 0.51257 0
M  V30 1223 H 122.902 2.62717 2.86203 0
M  V30 1224 H 124.574 4.49449 1.03889 0
M  V30 1225 H 122.817 4.24165 0.909211 0
M  V30 1226 H 123.488 4.98914 2.36196 0
M  V30 1227 H 125.964 3.10578 2.76913 0
M  V30 1228 H 124.84 3.788 3.97242 0
M  V30 1229 H 125.101 2.05186 3.916 0
M  V30 1230 N 124.16 -0.719506 1.40217 0
M  V30 1231 C 125.123 -1.8153 1.39927 0
M  V30 1232 C 126.123 -1.58095 0.293723 0
M  V30 1233 O 127.313 -1.65209 0.552429 0
M  V30 1234 C 124.445 -3.19561 1.18716 0
M  V30 1235 H 125.638 -1.83186 2.37451 0
M  V30 1236 H 123.191 -0.924746 1.26008 0
M  V30 1237 H 123.926 -3.23557 0.219366 0
M  V30 1238 H 123.711 -3.3797 1.98793 0
M  V30 1239 H 125.201 -3.99598 1.21291 0
M  V30 1240 N 125.638 -1.25649 -0.95132 0
M  V30 1241 C 126.915 -1.01361 -1.67288 0
M  V30 1242 C 127.295 0.459135 -2.06046 0
M  V30 1243 O 126.643 1.43723 -1.7764 0
M  V30 1244 C 126.853 -1.95256 -2.89268 0
M  V30 1245 C 128.201 -2.23289 -3.61147 0
M  V30 1246 O 129.225 -1.93041 -2.99355 0
M  V30 1247 O 128.084 -2.74741 -4.72419 0
M  V30 1248 H 125.178 -0.38464 -0.732107 0
M  V30 1249 H 127.724 -1.36817 -1.00395 0
M  V30 1250 H 126.496 -2.94685 -2.57442 0
M  V30 1251 H 126.119 -1.60218 -3.6389 0
M  V30 1252 N 127.117 1.15442 -1.07289 0
M  V30 1253 C 128.363 1.86489 -0.796846 0
M  V30 1254 C 128.696 1.82078 0.675371 0
M  V30 1255 O 127.971 1.24346 1.4956 0
M  V30 1256 C 128.254 3.35626 -1.30489 0
M  V30 1257 C 128.107 3.48673 -2.84161 0
M  V30 1258 C 129.426 4.30357 -0.920907 0
M  V30 1259 H 126.545 0.677144 -0.290939 0
M  V30 1260 H 129.187 1.35633 -1.33056 0
M  V30 1261 H 127.337 3.79068 -0.850883 0
M  V30 1262 H 129.009 3.14099 -3.37846 0
M  V30 1263 H 127.252 2.90253 -3.22391 0
M  V30 1264 H 127.923 4.53453 -3.14777 0
M  V30 1265 H 130.399 3.94871 -1.3121 0
M  V30 1266 H 129.275 5.33193 -1.30372 0
M  V30 1267 H 129.536 4.4176 0.173226 0
M  V30 1268 N 128.595 0.856903 1.32268 0
M  V30 1269 C 129.525 0.31858 2.31316 0
M  V30 1270 C 130.506 -0.583487 1.59779 0
M  V30 1271 O 131.691 -0.503259 1.87566 0
M  V30 1272 C 128.821 -0.491979 3.43798 0
M  V30 1273 C 127.775 0.315849 4.26833 0
M  V30 1274 C 127.101 -0.619586 5.31098 0
M  V30 1275 C 128.401 1.54282 4.98993 0
M  V30 1276 H 130.095 1.14621 2.76591 0
M  V30 1277 H 127.641 0.552613 1.32974 0
M  V30 1278 H 129.594 -0.879012 4.1213 0
M  V30 1279 H 128.318 -1.35299 2.97257 0
M  V30 1280 H 126.977 0.684664 3.6015 0
M  V30 1281 H 126.625 -1.47751 4.8081 0
M  V30 1282 H 126.325 -0.0830621 5.87541 0
M  V30 1283 H 127.849 -1.00375 6.02293 0
M  V30 1284 H 129.263 1.22796 5.59995 0
M  V30 1285 H 127.66 2.01745 5.65172 0
M  V30 1286 H 128.73 2.30285 4.26728 0
M  V30 1287 N 130.073 -1.45103 0.615059 0
M  V30 1288 C 131.303 -2.06254 0.119596 0
M  V30 1289 C 131.711 -1.4591 -1.20445 0
M  V30 1290 O 131.054 -0.570384 -1.7462 0
M  V30 1291 C 131.116 -3.59396 -0.0865591 0
M  V30 1292 C 130.78 -4.42116 1.15683 0
M  V30 1293 C 131.777 -4.7662 2.07676 0
M  V30 1294 C 129.462 -4.82749 1.38775 0
M  V30 1295 C 131.456 -5.50622 3.21082 0
M  V30 1296 C 129.143 -5.56504 2.52481 0
M  V30 1297 C 130.141 -5.90358 3.43463 0
M  V30 1298 O 129.829 -6.62615 4.55189 0
M  V30 1299 H 129.561 -0.672423 0.0694512 0
M  V30 1300 H 132.115 -1.87219 0.844885 0
M  V30 1301 H 130.345 -3.76859 -0.866823 0
M  V30 1302 H 132.034 -4.02365 -0.534555 0
M  V30 1303 H 132.8 -4.4578 1.91063 0
M  V30 1304 H 128.679 -4.55829 0.688545 0
M  V30 1305 H 132.223 -5.76965 3.92119 0
M  V30 1306 H 128.12 -5.86759 2.69043 0
M  V30 1307 H 128.888 -6.81071 4.53966 0
M  V30 1308 N 131.551 -0.354651 -1.53558 0
M  V30 1309 C 132.484 0.540273 -2.21712 0
M  V30 1310 C 133.462 1.09161 -1.2051 0
M  V30 1311 O 134.646 1.14979 -1.49372 0
M  V30 1312 C 131.773 1.74435 -2.90328 0
M  V30 1313 C 130.819 1.32146 -4.05512 0
M  V30 1314 S 131.652 0.331924 -5.3447 0
M  V30 1315 C 132.808 1.54258 -6.06593 0
M  V30 1316 H 133.041 -0.0385776 -2.97275 0
M  V30 1317 H 130.574 -0.138736 -1.53775 0
M  V30 1318 H 132.532 2.43507 -3.30476 0
M  V30 1319 H 131.193 2.29444 -2.1451 0
M  V30 1320 H 130.386 2.21952 -4.52497 0
M  V30 1321 H 129.988 0.710091 -3.67197 0
M  V30 1322 H 132.28 2.47534 -6.30661 0
M  V30 1323 H 133.223 1.11431 -6.99277 0
M  V30 1324 H 133.631 1.74367 -5.36895 0
M  V30 1325 N 133.029 1.57378 -0.0835403 0
M  V30 1326 C 133.959 2.1641 0.87686 0
M  V30 1327 C 134.94 1.09429 1.30228 0
M  V30 1328 O 136.125 1.37516 1.37124 0
M  V30 1329 C 133.255 2.73517 2.14022 0
M  V30 1330 C 132.209 3.85769 1.85381 0
M  V30 1331 C 131.535 4.29529 3.18448 0
M  V30 1332 C 132.835 5.09486 1.14984 0
M  V30 1333 H 134.529 2.96914 0.385059 0
M  V30 1334 H 132.075 1.42823 0.18377 0
M  V30 1335 H 134.028 3.13463 2.81636 0
M  V30 1336 H 132.752 1.90252 2.65465 0
M  V30 1337 H 131.411 3.46345 1.20169 0
M  V30 1338 H 131.059 3.43169 3.67755 0
M  V30 1339 H 130.759 5.05204 3.00071 0
M  V30 1340 H 132.283 4.72099 3.8724 0
M  V30 1341 H 133.697 5.46674 1.72687 0
M  V30 1342 H 132.094 5.90515 1.06826 0
M  V30 1343 H 133.164 4.84724 0.130749 0
M  V30 1344 N 134.507 -0.190092 1.56449 0
M  V30 1345 C 135.755 -0.907908 1.80559 0
M  V30 1346 C 136.076 -1.83583 0.657438 0
M  V30 1347 O 135.346 -1.93203 -0.323924 0
M  V30 1348 H 133.926 -0.338247 0.666032 0
M  V30 1349 H 136.588 -0.194403 1.93928 0
M  V30 1350 H 135.684 -1.49604 2.73907 0
M  V30 1351 N 135.985 -1.50799 -0.457987 0
M  V30 1352 C 136.915 -1.73553 -1.5621 0
M  V30 1353 C 137.896 -0.584774 -1.59732 0
M  V30 1354 O 139.081 -0.825314 -1.7579 0
M  V30 1355 C 136.211 -1.84169 -2.94447 0
M  V30 1356 C 135.165 -2.99461 -3.0579 0
M  V30 1357 C 134.491 -2.95235 -4.45803 0
M  V30 1358 C 135.791 -4.39766 -2.81786 0
M  V30 1359 H 137.485 -2.66 -1.37421 0
M  V30 1360 H 135.031 -1.28002 -0.659662 0
M  V30 1361 H 136.984 -1.98672 -3.71628 0
M  V30 1362 H 135.708 -0.883545 -3.14422 0
M  V30 1363 H 134.367 -2.8463 -2.31044 0
M  V30 1364 H 134.015 -1.97239 -4.62715 0
M  V30 1365 H 133.715 -3.72642 -4.54326 0
M  V30 1366 H 135.239 -3.11803 -5.24987 0
M  V30 1367 H 136.653 -4.55054 -3.4871 0
M  V30 1368 H 135.05 -5.18722 -3.0174 0
M  V30 1369 H 136.12 -4.51229 -1.7754 0
M  V30 1370 N 137.463 0.71206 -1.40597 0
M  V30 1371 C 138.874 1.29135 -1.34837 0
M  V30 1372 C 139.225 1.96186 -0.0235395 0
M  V30 1373 O 138.35 1.97768 0.878444 0
M  V30 1374 C 138.945 2.34827 -2.44217 0
M  V30 1375 C 137.504 2.88371 -2.41907 0
M  V30 1376 C 136.651 1.62202 -2.24913 0
M  V30 1377 H 139.602 0.507944 -1.50352 0
M  V30 1378 H 139.623 3.15749 -2.12327 0
M  V30 1379 H 139.135 1.85996 -3.40627 0
M  V30 1380 H 137.236 3.41422 -1.49204 0
M  V30 1381 H 137.349 3.39925 -3.37621 0
M  V30 1382 H 135.713 1.874 -1.72492 0
M  V30 1383 H 136.496 1.15391 -3.23326 0
M  V30 1384 N 138.941 1.26152 0.944643 0
M  V30 1385 C 140.188 1.11492 1.69044 0
M  V30 1386 C 140.516 -0.342366 1.91463 0
M  V30 1387 O 139.771 -1.26812 1.49054 0
M  V30 1388 C 140.07 1.82541 3.07268 0
M  V30 1389 C 139.736 3.32445 3.04616 0
M  V30 1390 C 138.398 3.73337 3.036 0
M  V30 1391 C 140.75 4.28171 2.97185 0
M  V30 1392 C 138.078 5.08348 2.92915 0
M  V30 1393 C 140.43 5.63218 2.88041 0
M  V30 1394 C 139.094 6.03426 2.85366 0
M  V30 1395 H 138.364 0.407977 0.618576 0
M  V30 1396 H 141.011 1.56551 1.10291 0
M  V30 1397 H 139.316 1.29941 3.69625 0
M  V30 1398 H 141.013 1.68642 3.63815 0
M  V30 1399 H 137.603 2.99915 3.06185 0
M  V30 1400 H 141.787 3.97563 2.97081 0
M  V30 1401 H 137.043 5.38667 2.89219 0
M  V30 1402 H 141.217 6.37078 2.81254 0
M  V30 1403 H 138.844 7.07999 2.76842 0
M  V30 1404 N 140.419 -1.14872 1.07899 0
M  V30 1405 C 141.349 -2.2193 0.725887 0
M  V30 1406 C 142.33 -1.67622 -0.28927 0
M  V30 1407 O 143.515 -1.93533 -0.160787 0
M  V30 1408 C 140.645 -3.47061 0.128856 0
M  V30 1409 C 139.599 -4.14363 1.07178 0
M  V30 1410 C 138.925 -5.33636 0.337229 0
M  V30 1411 C 140.225 -4.63492 2.40775 0
M  V30 1412 H 141.919 -2.51724 1.62097 0
M  V30 1413 H 139.465 -1.20991 0.780838 0
M  V30 1414 H 141.418 -4.21199 -0.130147 0
M  V30 1415 H 140.142 -3.16617 -0.80134 0
M  V30 1416 H 138.801 -3.42173 1.3158 0
M  V30 1417 H 138.449 -4.99449 -0.596606 0
M  V30 1418 H 138.149 -5.79609 0.965788 0
M  V30 1419 H 139.673 -6.10539 0.0861567 0
M  V30 1420 H 141.087 -5.2913 2.20669 0
M  V30 1421 H 139.484 -5.20148 2.99276 0
M  V30 1422 H 140.554 -3.78834 3.02676 0
M  V30 1423 N 141.898 -0.863906 -1.31812 0
M  V30 1424 C 142.861 -0.320212 -2.26952 0
M  V30 1425 C 143.861 0.525369 -1.51975 0
M  V30 1426 O 145.051 0.335547 -1.70938 0
M  V30 1427 C 142.183 0.545919 -3.365 0
M  V30 1428 H 143.376 -1.16004 -2.76556 0
M  V30 1429 H 140.929 -0.638995 -1.42641 0
M  V30 1430 H 141.664 1.40718 -2.92179 0
M  V30 1431 H 141.449 -0.0594674 -3.92055 0
M  V30 1432 H 142.939 0.918796 -4.07367 0
M  V30 1433 N 143.376 1.44774 -0.622745 0
M  V30 1434 C 144.604 2.06487 -0.130722 0
M  V30 1435 C 145.019 1.46476 1.19123 0
M  V30 1436 O 144.376 0.584502 1.72887 0
M  V30 1437 C 144.427 3.615 -0.000807207 0
M  V30 1438 O 144.148 4.19274 -1.27048 0
M  V30 1439 C 145.649 4.40229 0.520898 0
M  V30 1440 H 142.869 0.666704 -0.0758106 0
M  V30 1441 H 145.413 1.85779 -0.854774 0
M  V30 1442 H 143.568 3.81498 0.673643 0
M  V30 1443 H 143.982 5.12622 -1.1099 0
M  V30 1444 H 145.456 5.49144 0.560838 0
M  V30 1445 H 145.933 4.1108 1.54627 0
M  V30 1446 H 146.539 4.25131 -0.120018 0
M  V30 1447 N 144.854 0.36279 1.53368 0
M  V30 1448 C 145.786 -0.519668 2.23231 0
M  V30 1449 C 146.799 -1.04844 1.24546 0
M  V30 1450 O 147.988 -0.955296 1.50786 0
M  V30 1451 C 145.088 -1.72995 2.9142 0
M  V30 1452 C 144.261 -1.33316 4.16588 0
M  V30 1453 C 143.32 -2.40521 4.68013 0
M  V30 1454 O 142.346 -2.03027 5.3176 0
M  V30 1455 N 143.548 -3.72065 4.45587 0
M  V30 1456 H 146.313 0.078751 2.99597 0
M  V30 1457 H 143.874 0.187833 1.60807 0
M  V30 1458 H 145.866 -2.44184 3.22733 0
M  V30 1459 H 144.436 -2.2353 2.18525 0
M  V30 1460 H 143.656 -0.451236 3.91609 0
M  V30 1461 H 144.944 -1.04432 4.97967 0
M  V30 1462 H 144.342 -4.05304 3.94646 0
M  V30 1463 H 142.899 -4.39366 4.81457 0
M  V30 1464 N 146.332 -1.57332 0.0918853 0
M  V30 1465 C 147.28 -2.15075 -0.885747 0
M  V30 1466 C 148.274 -1.09277 -1.29441 0
M  V30 1467 O 149.48 -1.27627 -1.26931 0
M  V30 1468 H 145.855 -0.687966 -0.303656 0
M  V30 1469 H 147.826 -2.96047 -0.373995 0
M  V30 1470 C 146.575 -2.74325 -2.13638 0
M  V30 1471 H 145.898 -3.55418 -1.8308 0
M  V30 1472 H 147.338 -3.183 -2.80109 0
M  V30 1473 C 145.797 -1.70062 -2.90827 0
M  V30 1474 O 146.327 -1.13763 -3.85254 0
M  V30 1475 N 144.533 -1.40628 -2.54307 0
M  V30 1476 H 144.08 -1.866 -1.7759 0
M  V30 1477 H 144.038 -0.711043 -3.06254 0
M  V30 1478 N 147.81 0.181792 -1.56548 0
M  V30 1479 C 148.773 1.20894 -1.94724 0
M  V30 1480 C 149.773 1.37738 -0.829747 0
M  V30 1481 O 150.963 1.35323 -1.09697 0
M  V30 1482 C 148.095 2.57593 -2.23291 0
M  V30 1483 H 149.288 0.882275 -2.86629 0
M  V30 1484 H 146.841 0.423838 -1.50444 0
M  V30 1485 H 147.576 2.95291 -1.34067 0
M  V30 1486 H 147.361 2.46735 -3.04736 0
M  V30 1487 H 148.851 3.31637 -2.53785 0
M  V30 1488 N 149.288 1.51039 0.449983 0
M  V30 1489 C 150.251 1.70863 1.5277 0
M  V30 1490 C 151.251 0.578846 1.5002 0
M  V30 1491 O 152.441 0.846213 1.52266 0
M  V30 1492 C 149.573 1.75341 2.9235 0
M  V30 1493 H 150.766 2.67034 1.36502 0
M  V30 1494 H 148.319 1.40838 0.677812 0
M  V30 1495 H 149.054 0.809383 3.14037 0
M  V30 1496 H 148.839 2.57436 2.95752 0
M  V30 1497 H 150.329 1.92559 3.70555 0
M  V30 1498 N 150.766 -0.704594 1.40972 0
M  V30 1499 C 151.991 -1.49858 1.43378 0
M  V30 1500 C 152.416 -1.88061 0.038184 0
M  V30 1501 O 151.774 -1.5402 -0.956425 0
M  V30 1502 C 151.822 -2.74333 2.34038 0
M  V30 1503 O 150.926 -3.7147 1.7912 0
M  V30 1504 H 150.267 -0.45139 0.486974 0
M  V30 1505 H 152.797 -0.866832 1.8533 0
M  V30 1506 H 152.807 -3.22741 2.49604 0
M  V30 1507 H 151.482 -2.45863 3.35446 0
M  V30 1508 H 150.059 -3.30363 1.72958 0
M  V30 1509 N 152.244 -1.26651 -0.937939 0
M  V30 1510 C 153.491 -1.12387 -1.6845 0
M  V30 1511 C 153.819 0.332208 -1.91642 0
M  V30 1512 O 153.074 1.2602 -1.49725 0
M  V30 1513 C 153.373 -1.84168 -3.06295 0
M  V30 1514 C 153.039 -3.34056 -3.02849 0
M  V30 1515 C 151.701 -3.74942 -3.01616 0
M  V30 1516 C 154.053 -4.29741 -2.9491 0
M  V30 1517 C 151.381 -5.09894 -2.90215 0
M  V30 1518 C 153.733 -5.64738 -2.8505 0
M  V30 1519 C 152.397 -6.0493 -2.82162 0
M  V30 1520 H 151.667 -0.411252 -0.616403 0
M  V30 1521 H 154.314 -1.57134 -1.09459 0
M  V30 1522 H 152.619 -1.319 -3.6893 0
M  V30 1523 H 154.316 -1.70569 -3.62915 0
M  V30 1524 H 150.906 -3.01534 -3.0459 0
M  V30 1525 H 155.09 -3.99133 -2.94969 0
M  V30 1526 H 150.346 -5.40194 -2.86358 0
M  V30 1527 H 154.52 -6.38561 -2.77872 0
M  V30 1528 H 152.147 -7.09457 -2.73084 0
M  V30 1529 N 153.722 1.14298 -1.08507 0
M  V30 1530 C 154.968 1.85854 -0.826438 0
M  V30 1531 C 155.323 1.81413 0.640878 0
M  V30 1532 O 154.616 1.23463 1.46518 0
M  V30 1533 C 154.81 3.33547 -1.28379 0
M  V30 1534 C 154.639 3.52369 -2.79403 0
M  V30 1535 C 153.409 3.67159 -3.47164 0
M  V30 1536 C 155.607 3.49203 -3.77573 0
M  V30 1537 N 153.589 3.74149 -4.86709 0
M  V30 1538 C 154.96 3.6245 -5.03021 0
M  V30 1539 C 157.015 3.32547 -3.70563 0
M  V30 1540 C 155.718 3.60761 -6.2229 0
M  V30 1541 C 157.744 3.32162 -4.89308 0
M  V30 1542 C 157.106 3.45949 -6.13595 0
M  V30 1543 H 153.205 0.696705 -0.355143 0
M  V30 1544 H 155.789 1.36981 -1.38362 0
M  V30 1545 H 153.96 3.81008 -0.754166 0
M  V30 1546 H 155.692 3.92867 -0.971469 0
M  V30 1547 H 152.447 3.68433 -2.9758 0
M  V30 1548 H 152.871 3.81359 -5.5937 0
M  V30 1549 H 157.513 3.20797 -2.75407 0
M  V30 1550 H 155.231 3.71286 -7.17755 0
M  V30 1551 H 158.817 3.20485 -4.85573 0
M  V30 1552 H 157.697 3.456 -7.03939 0
M  V30 1553 N 155.201 0.870884 1.31352 0
M  V30 1554 C 156.612 0.534714 1.78879 0
M  V30 1555 C 156.963 -0.948423 1.71754 0
M  V30 1556 O 156.088 -1.74055 1.28584 0
M  V30 1557 C 156.683 0.963839 3.24801 0
M  V30 1558 C 155.242 0.679311 3.70219 0
M  V30 1559 C 154.389 1.15465 2.52117 0
M  V30 1560 H 157.34 1.05651 1.18421 0
M  V30 1561 H 157.361 0.286892 3.79417 0
M  V30 1562 H 156.873 2.04332 3.29955 0
M  V30 1563 H 154.974 -0.388769 3.70566 0
M  V30 1564 H 155.087 1.25698 4.62317 0
M  V30 1565 H 153.451 0.574383 2.48139 0
M  V30 1566 H 154.234 2.24157 2.60016 0
M  V30 1567 N 156.679 -1.44442 0.630414 0
M  V30 1568 C 157.926 -2.02052 0.134617 0
M  V30 1569 C 158.254 -1.49576 -1.24327 0
M  V30 1570 O 157.509 -0.669806 -1.83881 0
M  V30 1571 C 157.808 -3.57332 0.0697835 0
M  V30 1572 C 157.474 -4.29058 1.38635 0
M  V30 1573 C 156.136 -4.4837 1.74694 0
M  V30 1574 C 158.488 -4.69872 2.25543 0
M  V30 1575 C 155.816 -5.05756 2.97369 0
M  V30 1576 C 158.168 -5.28616 3.47487 0
M  V30 1577 C 156.832 -5.46147 3.8377 0
M  V30 1578 H 156.102 -0.739361 0.0492598 0
M  V30 1579 H 158.749 -1.73217 0.816586 0
M  V30 1580 H 157.054 -3.85577 -0.695553 0
M  V30 1581 H 158.751 -3.99637 -0.330344 0
M  V30 1582 H 155.341 -4.14357 1.09574 0
M  V30 1583 H 159.525 -4.54666 1.98979 0
M  V30 1584 H 154.781 -5.17515 3.25558 0
M  V30 1585 H 158.955 -5.59192 4.15063 0
M  V30 1586 H 156.582 -5.9038 4.7891 0
M  V30 1587 N 158.157 -0.370918 -1.53173 0
M  V30 1588 C 159.405 0.216673 -2.00935 0
M  V30 1589 C 159.726 1.48845 -1.25977 0
M  V30 1590 O 158.996 1.92286 -0.374551 0
M  V30 1591 H 157.576 0.0830565 -0.742368 0
M  V30 1592 H 160.238 -0.49838 -1.8842 0
M  V30 1593 H 159.334 0.439893 -3.08984 0
M  V30 1594 N 159.635 1.57281 -0.100228 0
M  V30 1595 C 161.046 1.81725 0.428107 0
M  V30 1596 C 161.397 1.01619 1.67833 0
M  V30 1597 O 160.522 0.247098 2.14985 0
M  V30 1598 C 161.117 3.29617 0.78347 0
M  V30 1599 C 159.676 3.54808 1.25653 0
M  V30 1600 C 158.823 2.76118 0.255752 0
M  V30 1601 H 161.774 1.55324 -0.325608 0
M  V30 1602 H 161.795 3.4322 1.64256 0
M  V30 1603 H 161.307 3.87893 -0.12665 0
M  V30 1604 H 159.408 3.01868 2.18418 0
M  V30 1605 H 159.521 4.63443 1.21482 0
M  V30 1606 H 157.885 2.43745 0.738956 0
M  V30 1607 H 158.668 3.37145 -0.647136 0
M  V30 1608 N 161.113 -0.173488 1.56642 0
M  V30 1609 C 162.359 -0.891784 1.8214 0
M  V30 1610 C 162.692 -1.8199 0.677736 0
M  V30 1611 O 161.967 -1.91842 -0.320446 0
M  V30 1612 C 162.25 -1.68933 3.18015 0
M  V30 1613 C 162.103 -0.784487 4.42906 0
M  V30 1614 C 163.422 -2.65748 3.50808 0
M  V30 1615 H 160.541 -0.322761 0.662567 0
M  V30 1616 H 163.183 -0.158095 1.89341 0
M  V30 1617 H 161.333 -2.31482 3.12007 0
M  V30 1618 H 163.005 -0.172046 4.60979 0
M  V30 1619 H 161.248 -0.0924117 4.33702 0
M  V30 1620 H 161.919 -1.37799 5.34524 0
M  V30 1621 H 164.395 -2.13327 3.57255 0
M  V30 1622 H 163.271 -3.18619 4.4696 0
M  V30 1623 H 163.532 -3.45842 2.75401 0
M  V30 1624 N 162.591 -1.51276 -0.441967 0
M  V30 1625 C 163.521 -1.752 -1.54361 0
M  V30 1626 C 164.502 -0.601682 -1.59103 0
M  V30 1627 O 165.687 -0.843913 -1.74905 0
M  V30 1628 C 162.817 -1.87282 -2.92477 0
M  V30 1629 C 161.771 -3.02687 -3.02596 0
M  V30 1630 C 161.097 -2.99947 -4.42647 0
M  V30 1631 C 162.397 -4.4273 -2.77106 0
M  V30 1632 H 164.091 -2.67442 -1.34592 0
M  V30 1633 H 161.637 -1.28694 -0.646048 0
M  V30 1634 H 163.59 -2.02602 -3.695 0
M  V30 1635 H 162.314 -0.916844 -3.13467 0
M  V30 1636 H 160.973 -2.87065 -2.28012 0
M  V30 1637 H 160.621 -2.02136 -4.60597 0
M  V30 1638 H 160.321 -3.77439 -4.50348 0
M  V30 1639 H 161.845 -3.17354 -5.2165 0
M  V30 1640 H 163.259 -4.58727 -3.43864 0
M  V30 1641 H 161.656 -5.21893 -2.96222 0
M  V30 1642 H 162.726 -4.53087 -1.72744 0
M  V30 1643 N 164.069 0.697108 -1.41344 0
M  V30 1644 C 165.309 1.46939 -1.42085 0
M  V30 1645 C 165.673 1.9198 -0.0280397 0
M  V30 1646 O 166.874 2.6865 0.0897504 0
M  V30 1647 C 165.145 2.64985 -2.39828 0
M  V30 1648 S 166.704 3.54147 -2.59085 0
M  V30 1649 H 163.522 0.502146 -0.503359 0
M  V30 1650 H 166.124 0.813546 -1.77769 0
M  V30 1651 H 164.828 2.30098 -3.39828 0
M  V30 1652 H 164.359 3.35464 -2.05493 0
M  V30 1653 H 166.374 4.60137 -1.85711 0
M  V30 1654 N 165.547 1.27147 0.931209 0
M  V30 1655 C 166.963 1.04475 1.20653 0
M  V30 1656 C 167.163 -0.223885 2.00252 0
M  V30 1657 O 166.219 -0.930332 2.34736 0
M  V30 1658 C 167.532 2.28209 1.95809 0
M  V30 1659 C 169.08 2.33211 2.08762 0
M  V30 1660 C 169.555 3.56665 2.87323 0
M  V30 1661 N 171.046 3.57201 2.94892 0
M  V30 1662 C 171.781 4.49395 3.56134 0
M  V30 1663 N 171.277 5.51889 4.18796 0
M  V30 1664 N 173.07 4.37026 3.53504 0
M  V30 1665 H 165.221 2.08612 0.399333 0
M  V30 1666 H 167.484 0.917312 0.239253 0
M  V30 1667 H 167.19 3.20538 1.44736 0
M  V30 1668 H 167.064 2.33247 2.96438 0
M  V30 1669 H 169.451 1.41391 2.59023 0
M  V30 1670 H 169.532 2.32178 1.07364 0
M  V30 1671 H 169.176 4.4882 2.37746 0
M  V30 1672 H 169.106 3.54948 3.88998 0
M  V30 1673 H 171.597 2.83074 2.50354 0
M  V30 1674 H 171.91 6.18409 4.63454 0
M  V30 1675 H 170.255 5.55735 4.17353 0
M  V30 1676 H 173.446 3.56166 3.03749 0
M  V30 1677 H 173.619 5.09067 4.00942 0
M  V30 1678 N 167.025 -1.13721 1.09112 0
M  V30 1679 C 167.955 -2.21148 0.749385 0
M  V30 1680 C 168.936 -1.6792 -0.271475 0
M  V30 1681 O 170.121 -1.93693 -0.140251 0
M  V30 1682 C 167.251 -3.46905 0.165659 0
M  V30 1683 C 166.205 -4.13203 1.11567 0
M  V30 1684 C 165.531 -5.33248 0.393809 0
M  V30 1685 C 166.831 -4.60912 2.45678 0
M  V30 1686 H 168.525 -2.4999 1.64758 0
M  V30 1687 H 166.071 -1.20156 0.793626 0
M  V30 1688 H 168.024 -4.21313 -0.085466 0
M  V30 1689 H 166.748 -3.17449 -0.767714 0
M  V30 1690 H 165.407 -3.40758 1.35202 0
M  V30 1691 H 165.055 -5.00054 -0.543599 0
M  V30 1692 H 164.755 -5.78552 1.02721 0
M  V30 1693 H 166.279 -6.10413 0.150908 0
M  V30 1694 H 167.693 -5.26759 2.26269 0
M  V30 1695 H 166.09 -5.16944 3.04776 0
M  V30 1696 H 167.16 -3.75603 3.06677 0
M  V30 1697 N 168.503 -0.877838 -1.30888 0
M  V30 1698 C 169.749 -0.493426 -1.96706 0
M  V30 1699 C 170.082 0.953504 -1.6918 0
M  V30 1700 O 169.357 1.67266 -0.992594 0
M  V30 1701 C 169.64 -0.760429 -3.51979 0
M  V30 1702 C 169.493 -2.25747 -3.89048 0
M  V30 1703 C 170.812 -0.232148 -4.39487 0
M  V30 1704 H 167.931 -0.180746 -0.714493 0
M  V30 1705 H 170.573 -1.10052 -1.54882 0
M  V30 1706 H 168.723 -0.243715 -3.87735 0
M  V30 1707 H 170.395 -2.84204 -3.63354 0
M  V30 1708 H 168.638 -2.72694 -3.37373 0
M  V30 1709 H 169.309 -2.39491 -4.97341 0
M  V30 1710 H 171.785 -0.674314 -4.106 0
M  V30 1711 H 170.661 -0.448355 -5.47066 0
M  V30 1712 H 170.922 0.866297 -4.33529 0
M  V30 1713 N 169.982 1.44106 -0.638065 0
M  V30 1714 C 170.915 2.27924 0.112161 0
M  V30 1715 C 171.893 1.38945 0.844574 0
M  V30 1716 O 173.077 1.68386 0.847248 0
M  V30 1717 C 170.204 3.18029 1.16512 0
M  V30 1718 C 169.25 4.23163 0.532458 0
M  V30 1719 S 170.083 5.31131 -0.682666 0
M  V30 1720 C 171.239 6.24805 0.37013 0
M  V30 1721 H 171.472 2.91205 -0.598887 0
M  V30 1722 H 169.005 1.48394 -0.426441 0
M  V30 1723 H 170.963 3.70492 1.76766 0
M  V30 1724 H 169.624 2.53955 1.8484 0
M  V30 1725 H 168.817 4.86252 1.32571 0
M  V30 1726 H 168.419 3.74 0.00437644 0
M  V30 1727 H 170.711 6.66042 1.24071 0
M  V30 1728 H 171.654 7.07741 -0.225349 0
M  V30 1729 H 172.062 5.60154 0.699141 0
M  V30 1730 N 171.46 0.379036 1.52974 0
M  V30 1731 C 172.688 -0.20679 2.05864 0
M  V30 1732 C 173.103 -1.41356 1.25155 0
M  V30 1733 O 172.46 -1.8009 0.295588 0
M  V30 1734 C 172.511 -0.587045 3.56702 0
M  V30 1735 O 172.232 0.571776 4.34353 0
M  V30 1736 C 173.733 -1.22983 4.25899 0
M  V30 1737 H 170.953 -0.0336123 0.670158 0
M  V30 1738 H 173.497 0.541298 1.97206 0
M  V30 1739 H 171.652 -1.28504 3.65466 0
M  V30 1740 H 172.066 0.261544 5.23847 0
M  V30 1741 H 173.54 -1.44635 5.32715 0
M  V30 1742 H 174.017 -2.19416 3.80465 0
M  V30 1743 H 174.623 -0.572892 4.21424 0
M  V30 1744 N 172.938 -1.57226 0.108567 0
M  V30 1745 C 173.868 -2.17778 -0.84232 0
M  V30 1746 C 174.849 -1.11487 -1.2847 0
M  V30 1747 O 176.034 -1.39681 -1.34918 0
M  V30 1748 C 173.164 -2.76888 -2.09644 0
M  V30 1749 C 172.118 -3.88669 -1.79221 0
M  V30 1750 C 171.444 -4.34541 -3.11574 0
M  V30 1751 C 172.744 -5.11251 -1.06864 0
M  V30 1752 H 174.438 -2.97489 -0.337774 0
M  V30 1753 H 171.984 -1.43097 -0.161025 0
M  V30 1754 H 173.937 -3.17904 -2.76614 0
M  V30 1755 H 172.661 -1.94451 -2.62405 0
M  V30 1756 H 171.32 -3.48213 -1.14644 0
M  V30 1757 H 170.968 -3.48977 -3.62249 0
M  V30 1758 H 170.668 -5.09914 -2.91996 0
M  V30 1759 H 172.192 -4.782 -3.7968 0
M  V30 1760 H 173.606 -5.49352 -1.63968 0
M  V30 1761 H 172.003 -5.9214 -0.974178 0
M  V30 1762 H 173.073 -4.8487 -0.0536168 0
M  V30 1763 N 174.416 0.165178 -1.56732 0
M  V30 1764 C 175.693 0.908443 -1.73224 0
M  V30 1765 C 176.073 2.0013 -0.67165 0
M  V30 1766 O 175.421 2.26353 0.31253 0
M  V30 1767 C 175.631 1.46756 -3.16644 0
M  V30 1768 C 176.979 1.93809 -3.77787 0
M  V30 1769 O 178.003 1.56537 -3.1996 0
M  V30 1770 O 176.862 2.62486 -4.79336 0
M  V30 1771 H 173.956 0.428025 -0.707618 0
M  V30 1772 H 176.502 0.152526 -1.69013 0
M  V30 1773 H 175.274 0.68129 -3.85323 0
M  V30 1774 H 174.897 2.28749 -3.25207 0
M  V30 1775 N 175.894 1.51508 0.433938 0
M  V30 1776 C 177.142 1.6402 1.18075 0
M  V30 1777 C 177.463 0.360328 1.91642 0
M  V30 1778 O 176.733 -0.623945 1.85698 0
M  V30 1779 H 175.313 0.6045 0.43885 0
M  V30 1780 H 177.975 1.88452 0.497178 0
M  V30 1781 H 177.071 2.46949 1.90847 0
M  V30 1782 N 177.372 -0.689602 1.41712 0
M  V30 1783 C 178.618 -1.45181 1.41599 0
M  V30 1784 C 178.951 -1.94181 0.0270081 0
M  V30 1785 O 178.226 -1.6993 -0.946265 0
M  V30 1786 C 178.509 -2.65945 2.42787 0
M  V30 1787 C 178.362 -2.22672 3.90816 0
M  V30 1788 C 179.681 -3.68149 2.41151 0
M  V30 1789 H 176.8 -0.526576 0.515642 0
M  V30 1790 H 179.442 -0.784947 1.73028 0
M  V30 1791 H 177.592 -3.2284 2.16116 0
M  V30 1792 H 179.264 -1.71058 4.28412 0
M  V30 1793 H 177.507 -1.54394 4.05395 0
M  V30 1794 H 178.178 -3.0935 4.57172 0
M  V30 1795 H 180.654 -3.2094 2.64834 0
M  V30 1796 H 179.53 -4.50248 3.13955 0
M  V30 1797 H 179.791 -4.18259 1.43221 0
M  V30 1798 N 178.85 -1.27639 -0.924453 0
M  V30 1799 C 179.798 -1.10485 -2.04685 0
M  V30 1800 C 180.792 -0.0270421 -1.69378 0
M  V30 1801 O 181.998 -0.185008 -1.79047 0
M  V30 1802 H 178.373 -0.340546 -0.670472 0
M  V30 1803 H 180.344 -2.05566 -2.16298 0
M  V30 1804 C 179.093 -0.772229 -3.39016 0
M  V30 1805 H 178.416 -1.59351 -3.66671 0
M  V30 1806 H 179.856 -0.692097 -4.18313 0
M  V30 1807 C 178.315 0.523554 -3.32807 0
M  V30 1808 O 178.845 1.55702 -3.70297 0
M  V30 1809 N 177.051 0.520363 -2.85903 0
M  V30 1810 H 176.598 -0.32107 -2.55591 0
M  V30 1811 H 176.556 1.38742 -2.82131 0
M  V30 1812 N 180.328 1.1314 -1.09713 0
M  V30 1813 C 181.26 2.18343 -0.697056 0
M  V30 1814 C 182.273 1.60669 0.262551 0
M  V30 1815 O 183.462 1.78435 0.0481527 0
M  V30 1816 C 180.562 3.38899 -0.00684728 0
M  V30 1817 C 179.735 4.26078 -0.988741 0
M  V30 1818 C 178.794 5.25155 -0.331394 0
M  V30 1819 O 177.82 5.60701 -0.979926 0
M  V30 1820 N 179.022 5.73271 0.913261 0
M  V30 1821 H 181.787 2.5328 -1.60216 0
M  V30 1822 H 179.348 1.28491 -0.984971 0
M  V30 1823 H 181.34 4.02255 0.444191 0
M  V30 1824 H 179.91 3.02175 0.800551 0
M  V30 1825 H 179.13 3.59453 -1.61826 0
M  V30 1826 H 180.418 4.81178 -1.65364 0
M  V30 1827 H 179.816 5.46544 1.45966 0
M  V30 1828 H 178.373 6.3855 1.30757 0
M  V30 1829 N 181.806 0.884767 1.30421 0
M  V30 1830 C 183.053 0.503105 1.96151 0
M  V30 1831 C 183.381 -0.947676 1.69851 0
M  V30 1832 O 182.636 -1.68467 0.995861 0
M  V30 1833 C 182.935 0.724318 3.49983 0
M  V30 1834 C 182.601 2.15015 3.96332 0
M  V30 1835 C 181.263 2.54005 4.08699 0
M  V30 1836 C 183.615 3.07936 4.20505 0
M  V30 1837 C 180.943 3.85128 4.42599 0
M  V30 1838 C 183.295 4.3859 4.55874 0
M  V30 1839 C 181.959 4.77474 4.66449 0
M  V30 1840 H 181.229 0.184099 0.717766 0
M  V30 1841 H 183.876 1.12058 1.55291 0
M  V30 1842 H 182.181 0.0238086 3.91793 0
M  V30 1843 H 183.878 0.408617 3.98913 0
M  V30 1844 H 180.468 1.8375 3.87213 0
M  V30 1845 H 184.652 2.79033 4.10431 0
M  V30 1846 H 179.908 4.14996 4.48986 0
M  V30 1847 H 184.082 5.10629 4.7353 0
M  V30 1848 H 181.709 5.79115 4.92473 0
M  V30 1849 N 183.284 -1.43765 0.645699 0
M  V30 1850 C 184.512 -2.06253 0.163556 0
M  V30 1851 C 184.927 -1.48352 -1.16778 0
M  V30 1852 O 184.284 -0.611932 -1.71935 0
M  V30 1853 C 184.335 -3.61453 0.0583186 0
M  V30 1854 O 184.056 -4.172 1.33702 0
M  V30 1855 C 185.557 -4.41002 -0.450795 0
M  V30 1856 H 182.777 -0.665413 0.0864077 0
M  V30 1857 H 185.321 -1.84396 0.884222 0
M  V30 1858 H 183.476 -3.82522 -0.612865 0
M  V30 1859 H 183.89 -5.10791 1.19131 0
M  V30 1860 H 185.364 -5.49966 -0.473403 0
M  V30 1861 H 185.841 -4.13488 -1.48068 0
M  V30 1862 H 186.447 -4.24886 0.187637 0
M  V30 1863 N 184.763 -0.387143 -1.52771 0
M  V30 1864 C 185.988 0.198407 -2.06449 0
M  V30 1865 C 186.413 1.39918 -1.25716 0
M  V30 1866 O 185.771 1.79099 -0.281657 0
M  V30 1867 C 185.819 0.548893 -3.56398 0
M  V30 1868 O 184.923 1.64315 -3.78252 0
M  V30 1869 H 184.264 0.0237731 -0.663574 0
M  V30 1870 H 186.794 -0.553989 -1.96957 0
M  V30 1871 H 186.804 0.813812 -3.99801 0
M  V30 1872 H 185.479 -0.329005 -4.14597 0
M  V30 1873 H 184.056 1.37211 -3.46738 0
M  V30 1874 N 186.241 1.57166 -0.116904 0
M  V30 1875 C 187.487 1.95412 0.542405 0
M  V30 1876 C 187.82 1.00019 1.66463 0
M  V30 1877 O 187.095 0.0370346 1.94465 0
M  V30 1878 C 187.378 3.43615 1.07708 0
M  V30 1879 C 187.231 4.49781 -0.0415868 0
M  V30 1880 C 188.55 3.93616 1.96861 0
M  V30 1881 H 185.669 0.710543 0.195696 0
M  V30 1882 H 188.311 1.89027 -0.192038 0
M  V30 1883 H 186.461 3.49187 1.70296 0
M  V30 1884 H 188.133 4.56308 -0.676793 0
M  V30 1885 H 186.376 4.28033 -0.705019 0
M  V30 1886 H 187.047 5.50733 0.373717 0
M  V30 1887 H 189.523 3.90335 1.44146 0
M  V30 1888 H 188.399 4.97838 2.3119 0
M  V30 1889 H 188.66 3.34188 2.89432 0
M  V30 1890 N 187.719 -0.156864 1.56817 0
M  V30 1891 C 188.966 -0.871125 1.82805 0
M  V30 1892 C 189.294 -1.81611 0.696262 0
M  V30 1893 O 188.549 -1.93141 -0.315459 0
M  V30 1894 C 188.848 -1.68737 3.1506 0
M  V30 1895 C 188.514 -0.890045 4.42028 0
M  V30 1896 C 187.176 -0.670042 4.76512 0
M  V30 1897 C 189.528 -0.331769 5.20143 0
M  V30 1898 C 186.856 0.119104 5.86579 0
M  V30 1899 C 189.208 0.444365 6.31037 0
M  V30 1900 C 187.872 0.675035 6.64078 0
M  V30 1901 H 187.142 -0.318767 0.668931 0
M  V30 1902 H 189.789 -0.135274 1.91022 0
M  V30 1903 H 188.094 -2.49304 3.0225 0
M  V30 1904 H 189.791 -2.24331 3.3238 0
M  V30 1905 H 186.381 -1.07157 4.14988 0
M  V30 1906 H 190.565 -0.489043 4.93885 0
M  V30 1907 H 185.821 0.307417 6.10627 0
M  V30 1908 H 189.995 0.884139 6.90765 0
M  V30 1909 H 187.622 1.28839 7.49203 0
M  V30 1910 N 189.197 -1.51736 -0.425897 0
M  V30 1911 C 190.437 -1.66636 -1.18371 0
M  V30 1912 C 190.801 -0.379854 -1.88205 0
M  V30 1913 O 192.002 -0.404758 -2.65735 0
M  V30 1914 C 190.273 -2.84382 -2.16476 0
M  V30 1915 S 191.832 -3.19673 -3.0059 0
M  V30 1916 H 188.65 -0.586957 -0.40125 0
M  V30 1917 H 191.252 -1.89679 -0.473518 0
M  V30 1918 H 189.956 -3.76281 -1.63831 0
M  V30 1919 H 189.487 -2.63562 -2.92059 0
M  V30 1920 H 191.502 -2.66994 -4.18245 0
M  V30 1921 N 190.675 0.682077 -1.42076 0
M  V30 1922 C 191.605 1.80796 -1.47767 0
M  V30 1923 C 192.586 1.6677 -0.334954 0
M  V30 1924 O 193.771 1.863 -0.548264 0
M  V30 1925 C 190.901 3.19038 -1.37229 0
M  V30 1926 C 189.855 3.47789 -2.49453 0
M  V30 1927 C 189.181 4.8553 -2.23975 0
M  V30 1928 C 190.481 3.45411 -3.91776 0
M  V30 1929 H 192.175 1.7629 -2.41997 0
M  V30 1930 H 189.721 0.846721 -1.16476 0
M  V30 1931 H 191.674 3.97528 -1.39821 0
M  V30 1932 H 190.398 3.24204 -0.394907 0
M  V30 1933 H 189.057 2.71657 -2.46166 0
M  V30 1934 H 188.705 4.87337 -1.24547 0
M  V30 1935 H 188.405 5.0573 -2.99184 0
M  V30 1936 H 189.929 5.66312 -2.28304 0
M  V30 1937 H 191.343 4.13882 -3.96705 0
M  V30 1938 H 189.74 3.77145 -4.66778 0
M  V30 1939 H 190.81 2.44122 -4.18966 0
M  V30 1940 N 192.153 1.28127 0.917671 0
M  V30 1941 C 193.381 1.17892 1.70026 0
M  V30 1942 C 193.796 -0.262958 1.8696 0
M  V30 1943 O 193.153 -1.17811 1.3938 0
M  V30 1944 C 193.204 1.86872 3.09453 0
M  V30 1945 O 192.925 3.25428 2.93306 0
M  V30 1946 C 194.426 1.8289 4.03815 0
M  V30 1947 H 191.646 0.40942 0.531617 0
M  V30 1948 H 194.19 1.69181 1.14883 0
M  V30 1949 H 192.345 1.39464 3.61426 0
M  V30 1950 H 192.759 3.59918 3.81523 0
M  V30 1951 H 194.233 2.35751 4.99125 0
M  V30 1952 H 194.71 0.800412 4.31845 0
M  V30 1953 H 195.316 2.29959 3.57769 0
M  V30 1954 N 193.631 -1.12557 1.10312 0
M  V30 1955 C 194.877 -1.84311 0.846011 0
M  V30 1956 C 195.21 -1.83805 -0.626859 0
M  V30 1957 O 194.485 -1.28268 -1.46211 0
M  V30 1958 C 194.768 -3.32048 1.39341 0
M  V30 1959 C 194.621 -3.41016 2.93305 0
M  V30 1960 C 195.94 -4.27764 1.03468 0
M  V30 1961 H 193.059 -0.669192 0.30879 0
M  V30 1962 H 195.701 -1.32057 1.36605 0
M  V30 1963 H 193.851 -3.76678 0.951087 0
M  V30 1964 H 195.523 -3.05031 3.46055 0
M  V30 1965 H 193.766 -2.81603 3.29973 0
M  V30 1966 H 194.437 -4.44948 3.26689 0
M  V30 1967 H 196.913 -3.91253 1.41633 0
M  V30 1968 H 195.789 -5.29549 1.44463 0
M  V30 1969 H 196.05 -4.42064 -0.0560404 0
M  V30 1970 N 195.109 -0.891671 -1.2995 0
M  V30 1971 C 196.042 -0.307994 -2.26112 0
M  V30 1972 C 197.02 0.575262 -1.52084 0
M  V30 1973 O 198.204 0.523864 -1.81074 0
M  V30 1974 C 195.331 0.561734 -3.34009 0
M  V30 1975 C 194.377 -0.253107 -4.25748 0
M  V30 1976 S 195.21 -1.64572 -5.09584 0
M  V30 1977 C 196.366 -0.782699 -6.20987 0
M  V30 1978 H 196.599 -1.12309 -2.75271 0
M  V30 1979 H 194.132 -0.691509 -1.38049 0
M  V30 1980 H 196.09 1.05777 -3.96638 0
M  V30 1981 H 194.751 1.35099 -2.83561 0
M  V30 1982 H 193.944 0.410908 -5.02322 0
M  V30 1983 H 193.546 -0.682004 -3.67729 0
M  V30 1984 H 195.838 -0.00257476 -6.775 0
M  V30 1985 H 196.781 -1.52026 -6.91588 0
M  V30 1986 H 197.189 -0.340638 -5.63471 0
M  V30 1987 N 196.587 1.43421 -0.653314 0
M  V30 1988 C 197.812 2.06678 -0.172846 0
M  V30 1989 C 198.237 1.48648 1.15262 0
M  V30 1990 O 197.595 0.596457 1.71208 0
M  V30 1991 C 197.643 3.60474 -0.0953184 0
M  V30 1992 O 196.747 4.01487 0.942442 0
M  V30 1993 H 196.088 0.657181 -0.0949155 0
M  V30 1994 H 198.618 1.83925 -0.896265 0
M  V30 1995 H 198.628 4.07905 0.0879728 0
M  V30 1996 H 197.303 4.02088 -1.06291 0
M  V30 1997 H 195.88 3.65646 0.731932 0
M  V30 1998 N 198.065 0.39524 1.52563 0
M  V30 1999 C 199.311 -0.185318 2.01952 0
M  V30 2000 C 199.644 -1.45964 1.28095 0
M  V30 2001 O 198.919 -1.90689 0.38315 0
M  V30 2002 C 199.202 -0.447193 3.57312 0
M  V30 2003 C 199.055 0.842828 4.41833 0
M  V30 2004 C 200.374 -1.23529 4.22408 0
M  V30 2005 H 197.493 -0.0658788 0.73405 0
M  V30 2006 H 200.135 0.525975 1.82575 0
M  V30 2007 H 198.285 -1.05312 3.73954 0
M  V30 2008 H 199.957 1.4795 4.36931 0
M  V30 2009 H 198.2 1.45686 4.08605 0
M  V30 2010 H 198.871 0.614165 5.48573 0
M  V30 2011 H 201.347 -0.722445 4.0978 0
M  V30 2012 H 200.223 -1.38727 5.3108 0
M  V30 2013 H 200.484 -2.25213 3.80436 0
M  V30 2014 N 199.544 -1.57102 0.125237 0
M  V30 2015 C 200.821 -1.86953 -0.575142 0
M  V30 2016 C 201.201 -1.02749 -1.84407 0
M  V30 2017 O 200.549 -0.108144 -2.28244 0
M  V30 2018 C 200.759 -3.38198 -0.861583 0
M  V30 2019 C 202.107 -4.06937 -1.21192 0
M  V30 2020 O 203.131 -3.43252 -0.951645 0
M  V30 2021 O 201.99 -5.19364 -1.70068 0
M  V30 2022 H 199.084 -0.774147 -0.290906 0
M  V30 2023 H 201.63 -1.68942 0.160211 0
M  V30 2024 H 200.402 -3.91282 0.0373647 0
M  V30 2025 H 200.025 -3.61661 -1.65188 0
M  V30 2026 N 201.022 0.148545 -1.56898 0
M  V30 2027 C 202.438 0.501131 -1.51528 0
M  V30 2028 C 202.638 1.83458 -0.833399 0
M  V30 2029 O 201.694 2.49259 -0.40328 0
M  V30 2030 C 203.007 0.512864 -2.96294 0
M  V30 2031 C 204.555 0.598487 -3.07225 0
M  V30 2032 C 205.03 0.640897 -4.53494 0
M  V30 2033 N 206.521 0.703163 -4.57832 0
M  V30 2034 C 207.256 0.756935 -5.68382 0
M  V30 2035 N 206.752 0.770147 -6.88506 0
M  V30 2036 N 208.545 0.797698 -5.56411 0
M  V30 2037 H 200.696 -0.725532 -1.99624 0
M  V30 2038 H 202.959 -0.264358 -0.910395 0
M  V30 2039 H 202.665 -0.398691 -3.49433 0
M  V30 2040 H 202.539 1.35133 -3.52163 0
M  V30 2041 H 204.926 1.50046 -2.54106 0
M  V30 2042 H 205.007 -0.267093 -2.54402 0
M  V30 2043 H 204.651 -0.256915 -5.0725 0
M  V30 2044 H 204.581 1.52295 -5.04097 0
M  V30 2045 H 207.072 0.700314 -3.71354 0
M  V30 2046 H 207.385 0.812983 -7.68512 0
M  V30 2047 H 205.73 0.738049 -6.9107 0
M  V30 2048 H 208.921 0.784535 -4.61479 0
M  V30 2049 H 209.094 0.83614 -6.42583 0
M  V30 2050 N 202.5 1.5196 0.417844 0
M  V30 2051 C 203.73 1.69181 1.18581 0
M  V30 2052 C 204.138 0.397104 1.84986 0
M  V30 2053 O 203.481 -0.636011 1.72339 0
M  V30 2054 C 203.543 2.76497 2.29759 0
M  V30 2055 C 203.207 4.18514 1.83563 0
M  V30 2056 C 204.204 5.02648 1.32821 0
M  V30 2057 C 201.889 4.64708 1.90661 0
M  V30 2058 C 203.883 6.31044 0.897894 0
M  V30 2059 C 201.57 5.93096 1.47241 0
M  V30 2060 C 202.568 6.76093 0.968891 0
M  V30 2061 O 202.256 8.02078 0.540924 0
M  V30 2062 H 201.988 0.570457 0.362705 0
M  V30 2063 H 204.542 1.99249 0.498885 0
M  V30 2064 H 202.772 2.41786 3.01789 0
M  V30 2065 H 204.461 2.82403 2.91553 0
M  V30 2066 H 205.227 4.68154 1.26716 0
M  V30 2067 H 201.106 4.00216 2.28797 0
M  V30 2068 H 204.65 6.95776 0.504192 0
M  V30 2069 H 200.547 6.271 1.53022 0
M  V30 2070 H 201.315 8.15794 0.66502 0
M  V30 2071 N 203.978 -0.674533 1.42435 0
M  V30 2072 C 204.908 -1.80009 1.48724 0
M  V30 2073 C 205.889 -1.6659 0.343793 0
M  V30 2074 O 207.074 -1.86007 0.558137 0
M  V30 2075 C 204.204 -3.18306 1.38919 0
M  V30 2076 C 203.158 -3.46461 2.51294 0
M  V30 2077 C 202.484 -4.84335 2.26547 0
M  V30 2078 C 203.784 -3.43328 3.93603 0
M  V30 2079 H 205.478 -1.75004 2.42928 0
M  V30 2080 H 203.024 -0.840533 1.16923 0
M  V30 2081 H 204.977 -3.9678 1.41927 0
M  V30 2082 H 203.701 -3.2399 0.412094 0
M  V30 2083 H 202.36 -2.70348 2.47604 0
M  V30 2084 H 202.008 -4.86669 1.2713 0
M  V30 2085 H 201.708 -5.04136 3.01861 0
M  V30 2086 H 203.232 -5.65094 2.31304 0
M  V30 2087 H 204.646 -4.11772 3.98894 0
M  V30 2088 H 203.043 -3.74664 4.68771 0
M  V30 2089 H 204.113 -2.41897 4.20255 0
M  V30 2090 N 205.456 -1.28612 -0.910864 0
M  V30 2091 C 206.419 -1.12803 -1.9952 0
M  V30 2092 C 207.419 -0.0668264 -1.60661 0
M  V30 2093 O 208.609 -0.312847 -1.71368 0
M  V30 2094 C 205.741 -0.72254 -3.33155 0
M  V30 2095 H 206.934 -2.09109 -2.14973 0
M  V30 2096 H 204.487 -1.11639 -1.09391 0
M  V30 2097 H 205.222 0.241152 -3.23402 0
M  V30 2098 H 205.007 -1.48916 -3.62721 0
M  V30 2099 H 206.497 -0.634666 -4.12749 0
M  V30 2100 N 206.934 1.1197 -1.10907 0
M  V30 2101 C 208.18 1.8386 -0.855773 0
M  V30 2102 C 208.513 1.84134 0.617103 0
M  V30 2103 O 207.788 1.29041 1.45529 0
M  V30 2104 C 208.071 3.31305 -1.411 0
M  V30 2105 C 207.924 3.39456 -2.9511 0
M  V30 2106 C 209.243 4.2721 -1.05736 0
M  V30 2107 H 206.362 0.667545 -0.312334 0
M  V30 2108 H 209.004 1.31331 -1.37303 0
M  V30 2109 H 207.154 3.76169 -0.97105 0
M  V30 2110 H 208.826 3.03191 -3.47668 0
M  V30 2111 H 207.069 2.79849 -3.31462 0
M  V30 2112 H 207.74 4.43209 -3.29044 0
M  V30 2113 H 210.216 3.90497 -1.43706 0
M  V30 2114 H 209.092 5.28775 -1.47269 0
M  V30 2115 H 209.353 4.42088 0.0325958 0
M  V30 2116 N 208.412 0.89855 1.29475 0
M  V30 2117 C 209.658 0.524658 1.95896 0
M  V30 2118 C 209.991 -0.926468 1.70676 0
M  V30 2119 O 209.266 -1.65665 1.01908 0
M  V30 2120 C 209.549 0.81633 3.50725 0
M  V30 2121 C 209.402 2.31907 3.85408 0
M  V30 2122 C 210.721 0.302038 4.39062 0
M  V30 2123 H 207.84 0.19209 0.711527 0
M  V30 2124 H 210.482 1.12502 1.53112 0
M  V30 2125 H 208.632 0.305369 3.87298 0
M  V30 2126 H 210.304 2.89949 3.58786 0
M  V30 2127 H 208.547 2.78027 3.32992 0
M  V30 2128 H 209.218 2.47373 4.93468 0
M  V30 2129 H 211.694 0.739551 4.09475 0
M  V30 2130 H 210.57 0.535331 5.46283 0
M  V30 2131 H 210.831 -0.797216 4.34853 0
M  V30 2132 N 209.89 -1.43072 0.660911 0
M  V30 2133 C 210.84 -2.27948 -0.04847 0
M  V30 2134 C 211.824 -1.40325 -0.787246 0
M  V30 2135 O 213.016 -1.63893 -0.668446 0
M  V30 2136 C 210.145 -3.28143 -1.00881 0
M  V30 2137 C 209.231 -4.23252 -0.268108 0
M  V30 2138 N 209.622 -5.00656 0.719528 0
M  V30 2139 C 207.92 -4.43092 -0.508493 0
M  V30 2140 C 208.621 -5.70019 1.15988 0
M  V30 2141 N 207.597 -5.41364 0.492584 0
M  V30 2142 H 211.399 -2.85213 0.709279 0
M  V30 2143 H 208.913 -1.54869 0.488822 0
M  V30 2144 H 210.91 -3.87736 -1.53188 0
M  V30 2145 H 209.57 -2.7244 -1.76654 0
M  V30 2146 H 210.581 -5.06115 1.09855 0
M  V30 2147 H 207.258 -3.98449 -1.24679 0
M  V30 2148 H 208.648 -6.4214 1.97751 0
M  V30 2149 N 211.368 -0.403325 -1.52352 0
M  V30 2150 C 212.779 0.0675782 -1.86578 0
M  V30 2151 C 213.13 1.44941 -1.32236 0
M  V30 2152 O 212.255 2.06112 -0.659307 0
M  V30 2153 C 212.85 0.129404 -3.38553 0
M  V30 2154 C 211.409 0.544629 -3.72439 0
M  V30 2155 C 210.556 -0.284551 -2.75836 0
M  V30 2156 H 213.507 -0.620631 -1.46061 0
M  V30 2157 H 213.528 0.94581 -3.68558 0
M  V30 2158 H 213.04 -0.87645 -3.78074 0
M  V30 2159 H 211.141 1.55734 -3.38493 0
M  V30 2160 H 211.254 0.293046 -4.78203 0
M  V30 2161 H 209.618 0.252258 -2.53448 0
M  V30 2162 H 210.401 -1.28865 -3.18196 0
M  V30 2163 N 212.846 1.57033 -0.133567 0
M  V30 2164 C 213.776 2.1909 0.807567 0
M  V30 2165 C 214.757 1.13517 1.26681 0
M  V30 2166 O 215.942 1.41809 1.32679 0
M  V30 2167 C 213.072 2.80188 2.05212 0
M  V30 2168 C 212.026 3.91471 1.73015 0
M  V30 2169 C 211.352 4.39443 3.04622 0
M  V30 2170 C 212.652 5.12886 0.987168 0
M  V30 2171 H 214.346 2.97988 0.290403 0
M  V30 2172 H 211.892 1.43335 0.138239 0
M  V30 2173 H 213.845 3.22264 2.71521 0
M  V30 2174 H 212.569 1.98601 2.59278 0
M  V30 2175 H 211.228 3.49993 1.0909 0
M  V30 2176 H 210.876 3.54695 3.56651 0
M  V30 2177 H 210.576 5.14495 2.83847 0
M  V30 2178 H 212.1 4.8418 3.72024 0
M  V30 2179 H 213.514 5.51891 1.55208 0
M  V30 2180 H 211.911 5.93615 0.87985 0
M  V30 2181 H 212.981 4.84894 -0.0235286 0
M  V30 2182 N 214.325 -0.140222 1.56975 0
M  V30 2183 C 215.55 -0.870414 1.88251 0
M  V30 2184 C 215.975 -1.73637 0.723312 0
M  V30 2185 O 215.333 -1.78329 -0.32689 0
M  V30 2186 C 215.381 -1.69737 3.18154 0
M  V30 2187 O 214.485 -2.80229 3.02565 0
M  V30 2188 H 213.826 -0.242025 0.61832 0
M  V30 2189 H 216.356 -0.128999 2.04193 0
M  V30 2190 H 216.366 -2.09099 3.50345 0
M  V30 2191 H 215.041 -1.06152 4.02125 0
M  V30 2192 H 213.618 -2.44224 2.81796 0
M  V30 2193 N 215.803 -1.52179 -0.40978 0
M  V30 2194 C 217.028 -1.70347 -1.18308 0
M  V30 2195 C 217.453 -0.411887 -1.83535 0
M  V30 2196 O 216.811 0.630587 -1.6998 0
M  V30 2197 C 216.859 -2.83977 -2.22238 0
M  V30 2198 O 215.963 -2.495 -3.28365 0
M  V30 2199 H 215.304 -0.567103 -0.345384 0
M  V30 2200 H 217.834 -1.98879 -0.480445 0
M  V30 2201 H 217.844 -3.0887 -2.66577 0
M  V30 2202 H 216.519 -3.77685 -1.74146 0
M  V30 2203 H 215.096 -2.35277 -2.89308 0
M  V30 2204 N 217.281 0.66697 -1.42791 0
M  V30 2205 C 218.244 1.76211 -1.46568 0
M  V30 2206 C 219.244 1.56896 -0.352196 0
M  V30 2207 O 220.434 1.63044 -0.613364 0
M  V30 2208 C 217.566 3.14935 -1.30494 0
M  V30 2209 H 218.759 1.74247 -2.44086 0
M  V30 2210 H 216.312 0.877342 -1.29354 0
M  V30 2211 H 217.047 3.2252 -0.339301 0
M  V30 2212 H 216.832 3.30359 -2.11199 0
M  V30 2213 H 218.322 3.94821 -1.36038 0
M  V30 2214 N 218.759 1.29093 0.90403 0
M  V30 2215 C 220.175 1.07011 1.1841 0
M  V30 2216 C 220.375 -0.181358 2.00682 0
M  V30 2217 O 219.431 -0.880331 2.36657 0
M  V30 2218 C 220.744 2.32311 1.90924 0
M  V30 2219 C 222.292 2.37587 2.03768 0
M  V30 2220 C 222.767 3.62679 2.79693 0
M  V30 2221 N 224.258 3.63376 2.87249 0
M  V30 2222 C 224.993 4.56848 3.46522 0
M  V30 2223 N 224.489 5.60648 4.06996 0
M  V30 2224 N 226.282 4.44426 3.44154 0
M  V30 2225 H 218.433 2.09412 0.354993 0
M  V30 2226 H 220.696 0.922181 0.219742 0
M  V30 2227 H 220.402 3.23536 1.37905 0
M  V30 2228 H 220.276 2.39483 2.91424 0
M  V30 2229 H 222.663 1.46853 2.55965 0
M  V30 2230 H 222.744 2.34403 1.02415 0
M  V30 2231 H 222.388 4.53762 2.28173 0
M  V30 2232 H 222.318 3.63119 3.81381 0
M  V30 2233 H 224.809 2.88321 2.44293 0
M  V30 2234 H 225.122 6.28101 4.50232 0
M  V30 2235 H 223.467 5.64463 4.05471 0
M  V30 2236 H 226.658 3.62529 2.96126 0
M  V30 2237 H 226.831 5.17457 3.90054 0
M  V30 2238 N 220.237 -1.11381 1.11499 0
M  V30 2239 C 221.483 -1.83597 0.875423 0
M  V30 2240 C 221.838 -1.83048 -0.592555 0
M  V30 2241 O 221.131 -1.27304 -1.43193 0
M  V30 2242 C 221.325 -3.30026 1.37177 0
M  V30 2243 C 221.154 -3.44837 2.88647 0
M  V30 2244 C 219.924 -3.57825 3.56776 0
M  V30 2245 C 222.122 -3.3907 3.86699 0
M  V30 2246 N 220.104 -3.61113 4.96458 0
M  V30 2247 C 221.475 -3.48986 5.12454 0
M  V30 2248 C 223.53 -3.22605 3.7925 0
M  V30 2249 C 222.233 -3.44135 6.31636 0
M  V30 2250 C 224.259 -3.19072 4.97943 0
M  V30 2251 C 223.621 -3.29559 6.22551 0
M  V30 2252 H 219.72 -0.687044 0.37349 0
M  V30 2253 H 222.304 -1.33265 1.41946 0
M  V30 2254 H 220.475 -3.78874 0.854919 0
M  V30 2255 H 222.207 -3.90153 1.07529 0
M  V30 2256 H 218.962 -3.60414 3.07244 0
M  V30 2257 H 219.386 -3.66394 5.69284 0
M  V30 2258 H 224.028 -3.13382 2.83816 0
M  V30 2259 H 221.746 -3.52126 7.27347 0
M  V30 2260 H 225.332 -3.07498 4.93899 0
M  V30 2261 H 224.212 -3.26815 7.12855 0
M  V30 2262 N 221.715 -0.905404 -1.28997 0
M  V30 2263 C 223.131 -0.60233 -1.47798 0
M  V30 2264 C 223.331 0.854645 -1.82478 0
M  V30 2265 O 222.387 1.63439 -1.92468 0
M  V30 2266 C 223.7 -1.53306 -2.58685 0
M  V30 2267 C 225.248 -1.53887 -2.72558 0
M  V30 2268 C 225.723 -2.45602 -3.86579 0
M  V30 2269 N 227.214 -2.43681 -3.93921 0
M  V30 2270 C 227.949 -3.11347 -4.81509 0
M  V30 2271 N 227.445 -3.88313 -5.73746 0
M  V30 2272 N 229.238 -3.00476 -4.75048 0
M  V30 2273 H 221.389 -1.84765 -1.04764 0
M  V30 2274 H 223.652 -0.792025 -0.520961 0
M  V30 2275 H 223.358 -2.57141 -2.39941 0
M  V30 2276 H 223.232 -1.25787 -3.55609 0
M  V30 2277 H 225.619 -0.507941 -2.90696 0
M  V30 2278 H 225.7 -1.85447 -1.76191 0
M  V30 2279 H 225.344 -3.48792 -3.69197 0
M  V30 2280 H 225.274 -2.11349 -4.82327 0
M  V30 2281 H 227.765 -1.87767 -3.27951 0
M  V30 2282 H 228.078 -4.36985 -6.37389 0
M  V30 2283 H 226.423 -3.92419 -5.73614 0
M  V30 2284 H 229.614 -2.39858 -4.01977 0
M  V30 2285 H 229.787 -3.53485 -5.43095 0
M  V30 2286 N 223.193 1.4272 -0.668489 0
M  V30 2287 C 224.609 1.55992 -0.33745 0
M  V30 2288 C 224.809 1.64933 1.15756 0
M  V30 2289 O 223.865 1.61278 1.94282 0
M  V30 2290 C 225.178 2.81314 -1.06222 0
M  V30 2291 C 226.726 2.95078 -1.04394 0
M  V30 2292 C 227.201 4.23252 -1.74991 0
M  V30 2293 N 228.692 4.3015 -1.71829 0
M  V30 2294 C 229.427 5.28127 -2.23315 0
M  V30 2295 N 228.923 6.32293 -2.83156 0
M  V30 2296 N 230.716 5.19882 -2.13726 0
M  V30 2297 H 222.867 1.3516 -1.63846 0
M  V30 2298 H 225.13 0.650174 -0.689912 0
M  V30 2299 H 224.836 2.80823 -2.11734 0
M  V30 2300 H 224.71 3.72012 -0.62344 0
M  V30 2301 H 227.097 2.951 0.0028244 0
M  V30 2302 H 227.178 2.05627 -1.52155 0
M  V30 2303 H 226.822 4.2399 -2.79633 0
M  V30 2304 H 226.752 5.11626 -1.24685 0
M  V30 2305 H 229.243 3.55499 -1.28175 0
M  V30 2306 H 229.556 7.03398 -3.20079 0
M  V30 2307 H 227.901 6.32873 -2.87223 0
M  V30 2308 H 231.092 4.37423 -1.66669 0
M  V30 2309 H 231.265 5.96077 -2.54158 0
M  V30 2310 N 224.671 0.411399 1.52136 0
M  V30 2311 C 226.082 -0.0576826 1.86611 0
M  V30 2312 C 226.433 -1.44238 1.33003 0
M  V30 2313 O 225.558 -2.05759 0.670228 0
M  V30 2314 C 226.153 -0.111448 3.38617 0
M  V30 2315 C 224.712 -0.52487 3.72723 0
M  V30 2316 C 223.859 0.299176 2.75681 0
M  V30 2317 H 226.81 0.628368 1.4573 0
M  V30 2318 H 226.831 -0.926252 3.69054 0
M  V30 2319 H 226.343 0.896488 3.77604 0
M  V30 2320 H 224.444 -1.53936 3.39315 0
M  V30 2321 H 224.557 -0.267681 4.78352 0
M  V30 2322 H 222.921 -0.238814 2.53578 0
M  V30 2323 H 223.704 1.3055 3.17508 0
M  V30 2324 N 226.149 -1.5696 0.141893 0
M  V30 2325 C 227.565 -1.58151 -0.21456 0
M  V30 2326 C 227.765 -1.1559 -1.65049 0
M  V30 2327 O 226.821 -0.853832 -2.37626 0
M  V30 2328 C 228.134 -3.00674 0.0395576 0
M  V30 2329 C 229.682 -3.1299 -0.0245529 0
M  V30 2330 C 230.157 -4.57554 0.202167 0
M  V30 2331 N 231.648 -4.62961 0.148919 0
M  V30 2332 C 232.383 -5.7262 0.298924 0
M  V30 2333 N 231.879 -6.90947 0.50637 0
M  V30 2334 N 233.672 -5.61601 0.236886 0
M  V30 2335 H 225.823 -1.8292 1.07953 0
M  V30 2336 H 228.086 -0.846425 0.42693 0
M  V30 2337 H 227.792 -3.36183 1.03315 0
M  V30 2338 H 227.666 -3.70981 -0.682143 0
M  V30 2339 H 230.053 -2.77326 -1.00869 0
M  V30 2340 H 230.134 -2.4518 0.729396 0
M  V30 2341 H 229.778 -4.93922 1.18338 0
M  V30 2342 H 229.708 -5.23484 -0.572044 0
M  V30 2343 H 232.199 -3.77899 -0.00697015 0
M  V30 2344 H 232.512 -7.7038 0.611076 0
M  V30 2345 H 230.857 -6.92878 0.542628 0
M  V30 2346 H 234.048 -4.68039 0.0756209 0
M  V30 2347 H 234.221 -6.47015 0.357227 0
M  V30 2348 N 227.627 0.131896 -1.57047 0
M  V30 2349 C 228.873 0.843179 -1.84441 0
M  V30 2350 C 229.206 1.80129 -0.725749 0
M  V30 2351 O 228.481 1.92624 0.269469 0
M  V30 2352 C 228.764 1.60442 -3.22382 0
M  V30 2353 C 228.617 0.666782 -4.4483 0
M  V30 2354 C 229.936 2.56354 -3.5773 0
M  V30 2355 H 227.055 0.305081 -0.670891 0
M  V30 2356 H 229.697 0.107839 -1.89694 0
M  V30 2357 H 227.847 2.23128 -3.18035 0
M  V30 2358 H 229.519 0.0497646 -4.61273 0
M  V30 2359 H 227.762 -0.022609 -4.33794 0
M  V30 2360 H 228.433 1.23579 -5.37989 0
M  V30 2361 H 230.909 2.0378 -3.62785 0
M  V30 2362 H 229.785 3.06657 -4.5525 0
M  V30 2363 H 230.046 3.38419 -2.84473 0
M  V30 2364 N 229.106 1.52395 0.401703 0
M  V30 2365 C 230.069 1.75636 1.47257 0
M  V30 2366 C 231.069 0.62628 1.48103 0
M  V30 2367 O 232.259 0.894227 1.49497 0
M  V30 2368 C 229.391 1.84553 2.86624 0
M  V30 2369 H 230.584 2.71241 1.27938 0
M  V30 2370 H 228.137 1.42923 0.632662 0
M  V30 2371 H 228.872 0.908882 3.11303 0
M  V30 2372 H 228.657 2.66715 2.87412 0
M  V30 2373 H 230.147 2.04251 3.64241 0
M  V30 2374 N 230.584 -0.659388 1.43143 0
M  V30 2375 C 231.531 -1.77249 1.47822 0
M  V30 2376 C 232.501 -1.62818 0.328558 0
M  V30 2377 O 233.686 -1.83151 0.534838 0
M  V30 2378 C 230.826 -3.15371 1.40126 0
M  V30 2379 C 229.939 -3.4098 2.65249 0
M  V30 2380 C 229.074 -4.68915 2.49584 0
M  V30 2381 C 228.113 -4.87608 3.70006 0
M  V30 2382 N 227.25 -6.06796 3.53189 0
M  V30 2383 H 232.09 -1.72584 2.42938 0
M  V30 2384 H 229.627 -0.842297 1.20598 0
M  V30 2385 H 231.585 -3.9521 1.33659 0
M  V30 2386 H 230.215 -3.19121 0.485964 0
M  V30 2387 H 229.267 -2.55282 2.8202 0
M  V30 2388 H 230.579 -3.50681 3.54717 0
M  V30 2389 H 229.733 -5.56871 2.4079 0
M  V30 2390 H 228.472 -4.61524 1.5763 0
M  V30 2391 H 227.477 -3.9809 3.79215 0
M  V30 2392 H 228.702 -4.96834 4.62961 0
M  V30 2393 H 226.648 -6.00549 2.63965 0
M  V30 2394 H 226.565 -6.17428 4.36255 0
M  V30 2395 H 227.833 -6.9739 3.48236 0
M  V30 2396 N 232.062 -1.29571 -0.897171 0
M  V30 2397 C 232.992 -1.17473 -2.01798 0
M  V30 2398 C 233.973 -0.068323 -1.69963 0
M  V30 2399 O 235.158 -0.248239 -1.92607 0
M  V30 2400 C 232.288 -0.853099 -3.36659 0
M  V30 2401 C 231.242 -1.9161 -3.82713 0
M  V30 2402 C 230.568 -1.44773 -5.14728 0
M  V30 2403 C 231.868 -3.32535 -4.02763 0
M  V30 2404 H 233.562 -2.11237 -2.12177 0
M  V30 2405 H 231.108 -1.01699 -1.01948 0
M  V30 2406 H 233.061 -0.755165 -4.14578 0
M  V30 2407 H 231.785 0.120236 -3.26379 0
M  V30 2408 H 230.444 -2.00346 -3.07013 0
M  V30 2409 H 230.092 -0.462995 -5.00865 0
M  V30 2410 H 229.792 -2.15865 -5.46513 0
M  V30 2411 H 231.316 -1.36334 -5.95185 0
M  V30 2412 H 232.73 -3.26626 -4.71156 0
M  V30 2413 H 231.127 -4.01607 -4.45905 0
M  V30 2414 H 232.197 -3.75326 -3.07016 0
M  V30 2415 N 233.54 1.10788 -1.12088 0
M  V30 2416 C 234.503 2.15207 -0.788577 0
M  V30 2417 C 235.503 1.59609 0.195317 0
M  V30 2418 O 236.693 1.74174 -0.0300193 0
M  V30 2419 C 233.825 3.4047 -0.171174 0
M  V30 2420 H 235.018 2.46116 -1.71368 0
M  V30 2421 H 232.571 1.26089 -0.923652 0
M  V30 2422 H 233.306 3.15176 0.763832 0
M  V30 2423 H 233.091 3.82109 -0.879514 0
M  V30 2424 H 234.581 4.17576 0.04496 0
M  V30 2425 N 235.018 0.912232 1.28515 0
M  V30 2426 C 236.243 0.559774 1.99703 0
M  V30 2427 C 236.668 -0.851393 1.67729 0
M  V30 2428 O 236.026 -1.56875 0.908834 0
M  V30 2429 C 236.074 0.773874 3.52198 0
M  V30 2430 O 235.178 -0.167842 4.12058 0
M  V30 2431 H 234.519 0.21723 0.627461 0
M  V30 2432 H 237.049 1.22725 1.63706 0
M  V30 2433 H 237.059 0.683386 4.02236 0
M  V30 2434 H 235.734 1.80261 3.74805 0
M  V30 2435 H 234.311 -0.0287509 3.72889 0
M  V30 2436 N 236.496 -1.42363 0.676048 0
M  V30 2437 C 237.459 -2.29199 0.00766941 0
M  V30 2438 C 238.459 -1.43389 -0.727745 0
M  V30 2439 O 239.649 -1.64764 -0.56556 0
M  V30 2440 C 236.781 -3.2591 -0.999785 0
M  V30 2441 H 237.974 -2.89794 0.771988 0
M  V30 2442 H 235.527 -1.50024 0.438468 0
M  V30 2443 H 236.262 -2.70256 -1.79255 0
M  V30 2444 H 236.047 -3.89202 -0.475829 0
M  V30 2445 H 237.537 -3.91028 -1.46583 0
M  V30 2446 N 237.974 -0.419461 -1.51915 0
M  V30 2447 C 238.937 0.389116 -2.25873 0
M  V30 2448 C 239.937 0.964924 -1.28631 0
M  V30 2449 O 241.127 0.842179 -1.52489 0
M  V30 2450 C 238.259 1.54874 -3.03689 0
M  V30 2451 H 239.452 -0.258799 -2.98781 0
M  V30 2452 H 237.005 -0.172209 -1.55348 0
M  V30 2453 H 237.74 2.23323 -2.35154 0
M  V30 2454 H 237.525 1.14223 -3.75094 0
M  V30 2455 H 239.015 2.12046 -3.59759 0
M  V30 2456 N 239.452 1.56882 -0.150215 0
M  V30 2457 C 240.415 2.1573 0.774157 0
M  V30 2458 C 241.415 1.0999 1.17298 0
M  V30 2459 O 242.605 1.35613 1.09338 0
M  V30 2460 C 239.737 2.72302 2.05096 0
M  V30 2461 H 240.93 2.98752 0.262201 0
M  V30 2462 H 238.483 1.55985 0.099248 0
M  V30 2463 H 239.218 1.92956 2.6065 0
M  V30 2464 H 239.003 3.49665 1.77416 0
M  V30 2465 H 240.493 3.17632 2.71109 0
M  V30 2466 N 240.93 -0.123565 1.57115 0
M  V30 2467 C 242.176 -0.828428 1.85765 0
M  V30 2468 C 242.531 -1.77709 0.737371 0
M  V30 2469 O 241.824 -1.89787 -0.262978 0
M  V30 2470 C 242.018 -1.62016 3.18568 0
M  V30 2471 C 241.847 -0.749663 4.43407 0
M  V30 2472 C 240.617 -0.406251 5.03664 0
M  V30 2473 C 242.815 -0.0693505 5.14253 0
M  V30 2474 N 240.797 0.475389 6.12057 0
M  V30 2475 C 242.168 0.671474 6.16353 0
M  V30 2476 C 244.223 0.00754393 4.97899 0
M  V30 2477 C 242.926 1.48197 7.03868 0
M  V30 2478 C 244.952 0.804845 5.85898 0
M  V30 2479 C 244.314 1.53388 6.87497 0
M  V30 2480 H 240.413 -0.280219 0.73007 0
M  V30 2481 H 242.997 -0.0924183 1.94481 0
M  V30 2482 H 241.168 -2.32724 3.10957 0
M  V30 2483 H 242.9 -2.27 3.35042 0
M  V30 2484 H 239.655 -0.747446 4.67665 0
M  V30 2485 H 240.079 0.907924 6.70884 0
M  V30 2486 H 244.721 -0.541741 4.19315 0
M  V30 2487 H 242.439 2.04242 7.81864 0
M  V30 2488 H 246.025 0.866642 5.75309 0
M  V30 2489 H 244.905 2.1409 7.5441 0
M  V30 2490 N 242.408 -1.52605 -0.393616 0
M  V30 2491 C 243.654 -1.67672 -1.14079 0
M  V30 2492 C 243.987 -0.413121 -1.89755 0
M  V30 2493 O 243.262 0.588952 -1.85369 0
M  V30 2494 C 243.545 -2.9088 -2.12276 0
M  V30 2495 C 243.398 -4.27329 -1.40394 0
M  V30 2496 C 244.717 -3.09628 -3.12759 0
M  V30 2497 H 241.836 -0.610168 -0.413356 0
M  V30 2498 H 244.478 -1.85193 -0.424696 0
M  V30 2499 H 242.628 -2.76073 -2.73342 0
M  V30 2500 H 244.3 -4.53894 -0.82327 0
M  V30 2501 H 242.543 -4.2802 -0.705801 0
M  V30 2502 H 243.214 -5.09615 -2.12123 0
M  V30 2503 H 245.69 -3.23436 -2.61779 0
M  V30 2504 H 244.566 -3.97322 -3.78717 0
M  V30 2505 H 244.827 -2.23637 -3.81365 0
M  V30 2506 N 243.887 0.651787 -1.4349 0
M  V30 2507 C 244.817 1.77621 -1.51569 0
M  V30 2508 C 245.798 1.66022 -0.370253 0
M  V30 2509 O 246.983 1.85095 -0.587658 0
M  V30 2510 C 244.113 3.16056 -1.43966 0
M  V30 2511 C 243.067 3.4242 -2.56774 0
M  V30 2512 C 242.393 4.8067 -2.34223 0
M  V30 2513 C 243.693 3.37023 -3.99015 0
M  V30 2514 H 245.387 1.71117 -2.45681 0
M  V30 2515 H 242.933 0.821825 -1.18246 0
M  V30 2516 H 244.886 3.94472 -1.48221 0
M  V30 2517 H 243.61 3.23293 -0.463586 0
M  V30 2518 H 242.269 2.66375 -2.51873 0
M  V30 2519 H 241.917 4.84585 -1.34856 0
M  V30 2520 H 241.617 4.9927 -3.09844 0
M  V30 2521 H 243.141 5.61342 -2.40265 0
M  V30 2522 H 244.555 4.05374 -4.05395 0
M  V30 2523 H 242.952 3.67159 -4.74673 0
M  V30 2524 H 244.022 2.3518 -4.2405 0
M  V30 2525 N 245.365 1.30045 0.890287 0
M  V30 2526 C 246.59 1.21598 1.68014 0
M  V30 2527 C 247.015 -0.218678 1.86825 0
M  V30 2528 O 246.373 -1.15756 1.39536 0
M  V30 2529 C 246.421 1.94434 3.03691 0
M  V30 2530 O 245.525 1.2678 3.92429 0
M  V30 2531 H 244.866 0.420856 0.513592 0
M  V30 2532 H 247.396 1.71775 1.11151 0
M  V30 2533 H 247.406 2.03251 3.5377 0
M  V30 2534 H 246.081 2.98777 2.89318 0
M  V30 2535 H 244.658 1.26282 3.50866 0
M  V30 2536 N 246.843 -1.10192 1.12674 0
M  V30 2537 C 247.773 -2.18652 0.819362 0
M  V30 2538 C 248.754 -1.68698 -0.217915 0
M  V30 2539 O 249.939 -1.94041 -0.0785581 0
M  V30 2540 C 247.069 -3.46202 0.27594 0
M  V30 2541 C 246.023 -4.09444 1.24656 0
M  V30 2542 C 245.349 -5.31725 0.563258 0
M  V30 2543 C 246.649 -4.52863 2.60217 0
M  V30 2544 H 248.343 -2.44622 1.72628 0
M  V30 2545 H 245.889 -1.17571 0.831451 0
M  V30 2546 H 247.842 -4.21372 0.0486149 0
M  V30 2547 H 246.566 -3.1973 -0.666331 0
M  V30 2548 H 245.225 -3.36284 1.45974 0
M  V30 2549 H 244.873 -5.0153 -0.384235 0
M  V30 2550 H 244.573 -5.74991 1.21075 0
M  V30 2551 H 246.097 -6.09624 0.34503 0
M  V30 2552 H 247.511 -5.19294 2.42913 0
M  V30 2553 H 245.908 -5.06986 3.21068 0
M  V30 2554 H 246.978 -3.65656 3.18471 0
M  V30 2555 N 248.321 -0.919034 -1.28029 0
M  V30 2556 C 249.561 -0.562107 -1.96519 0
M  V30 2557 C 249.925 0.878784 -1.70708 0
M  V30 2558 O 251.126 1.34355 -2.32813 0
M  V30 2559 C 249.397 -0.868953 -3.46676 0
M  V30 2560 S 250.956 -0.619237 -4.34409 0
M  V30 2561 H 247.774 -0.2078 -0.679956 0
M  V30 2562 H 250.376 -1.18562 -1.55446 0
M  V30 2563 H 249.08 -1.91547 -3.62957 0
M  V30 2564 H 248.611 -0.234301 -3.92702 0
M  V30 2565 H 250.626 0.526995 -4.93394 0
M  V30 2566 N 249.799 1.42003 -0.683588 0
M  V30 2567 C 250.732 2.28166 0.039592 0
M  V30 2568 C 251.71 1.41562 0.799942 0
M  V30 2569 O 252.894 1.70997 0.793248 0
M  V30 2570 C 250.021 3.21575 1.06335 0
M  V30 2571 C 249.067 4.24643 0.397562 0
M  V30 2572 S 249.9 5.2869 -0.851296 0
M  V30 2573 C 251.056 6.25666 0.171166 0
M  V30 2574 H 251.289 2.89153 -0.691229 0
M  V30 2575 H 248.822 1.46962 -0.473435 0
M  V30 2576 H 250.78 3.75928 1.6489 0
M  V30 2577 H 249.441 2.59707 1.76667 0
M  V30 2578 H 248.634 4.90223 1.17035 0
M  V30 2579 H 248.236 3.73824 -0.114611 0
M  V30 2580 H 250.528 6.69653 1.02819 0
M  V30 2581 H 251.471 7.06666 -0.450397 0
M  V30 2582 H 251.879 5.62095 0.520578 0
M  V30 2583 N 251.277 0.427512 1.51691 0
M  V30 2584 C 252.502 -0.143601 2.06902 0
M  V30 2585 C 252.927 -1.36536 1.29382 0
M  V30 2586 O 252.285 -1.78289 0.329043 0
M  V30 2587 C 252.333 -0.454207 3.57728 0
M  V30 2588 O 251.437 -1.54228 3.82475 0
M  V30 2589 H 250.778 -0.00617128 0.663971 0
M  V30 2590 H 253.308 0.606014 1.95419 0
M  V30 2591 H 253.318 -0.707525 4.01818 0
M  V30 2592 H 251.993 0.438812 4.13579 0
M  V30 2593 H 250.57 -1.2797 3.50254 0
M  V30 2594 N 252.755 -1.56801 0.158532 0
M  V30 2595 C 253.685 -2.20347 -0.772609 0
M  V30 2596 C 254.666 -1.15518 -1.24859 0
M  V30 2597 O 255.851 -1.43902 -1.30406 0
M  V30 2598 C 252.981 -2.83417 -2.00729 0
M  V30 2599 C 251.935 -3.94174 -1.66765 0
M  V30 2600 C 251.261 -4.44233 -2.97592 0
M  V30 2601 C 252.561 -5.14392 -0.905447 0
M  V30 2602 H 254.255 -2.98413 -0.242959 0
M  V30 2603 H 251.801 -1.43537 -0.115419 0
M  V30 2604 H 253.754 -3.26543 -2.6636 0
M  V30 2605 H 252.478 -2.02701 -2.56086 0
M  V30 2606 H 251.137 -3.51684 -1.03508 0
M  V30 2607 H 250.785 -3.60325 -3.50963 0
M  V30 2608 H 250.485 -5.18945 -2.75626 0
M  V30 2609 H 252.009 -4.90037 -3.64274 0
M  V30 2610 H 253.423 -5.5429 -1.46408 0
M  V30 2611 H 251.82 -5.9494 -0.7853 0
M  V30 2612 H 252.89 -4.84795 0.100668 0
M  V30 2613 N 254.233 0.115231 -1.57178 0
M  V30 2614 C 255.644 0.67197 -1.74188 0
M  V30 2615 C 255.995 1.80125 -0.777777 0
M  V30 2616 O 255.12 2.16346 0.0484376 0
M  V30 2617 C 255.715 1.22573 -3.1585 0
M  V30 2618 C 254.274 1.72872 -3.34353 0
M  V30 2619 C 253.421 0.629972 -2.70049 0
M  V30 2620 H 256.372 -0.110712 -1.58313 0
M  V30 2621 H 256.393 2.09535 -3.17609 0
M  V30 2622 H 255.905 0.403598 -3.85996 0
M  V30 2623 H 254.006 2.5755 -2.69256 0
M  V30 2624 H 254.119 1.83557 -4.42542 0
M  V30 2625 H 252.483 1.0645 -2.31388 0
M  V30 2626 H 253.266 -0.181241 -3.42821 0
M  V30 2627 N 255.711 1.52812 0.385517 0
M  V30 2628 C 256.641 1.80808 1.47752 0
M  V30 2629 C 257.622 0.660318 1.5676 0
M  V30 2630 O 258.807 0.908246 1.71652 0
M  V30 2631 C 255.937 1.98008 2.85324 0
M  V30 2632 C 254.891 3.13709 2.91154 0
M  V30 2633 C 254.217 3.16169 4.31209 0
M  V30 2634 C 255.517 4.52709 2.60483 0
M  V30 2635 H 257.211 2.72253 1.24573 0
M  V30 2636 H 254.757 1.31003 0.597839 0
M  V30 2637 H 256.71 2.16176 3.61726 0
M  V30 2638 H 255.434 1.03255 3.09848 0
M  V30 2639 H 254.093 2.95329 2.17201 0
M  V30 2640 H 253.741 2.19092 4.52778 0
M  V30 2641 H 253.441 3.93894 4.36029 0
M  V30 2642 H 254.965 3.36496 5.09512 0
M  V30 2643 H 256.379 4.71173 3.26602 0
M  V30 2644 H 254.776 5.32528 2.76648 0
M  V30 2645 H 255.846 4.59186 1.55809 0
M  V30 2646 N 257.189 -0.644168 1.43834 0
M  V30 2647 C 258.119 -1.76814 1.52509 0
M  V30 2648 C 259.1 -1.65823 0.379052 0
M  V30 2649 O 260.285 -1.84781 0.597466 0
M  V30 2650 C 257.415 -3.15288 1.4564 0
M  V30 2651 C 256.369 -3.41053 2.58586 0
M  V30 2652 C 255.695 -4.79421 2.36769 0
M  V30 2653 C 256.995 -3.34902 4.00797 0
M  V30 2654 H 258.689 -1.69812 2.46586 0
M  V30 2655 H 256.235 -0.815542 1.1868 0
M  V30 2656 H 258.188 -3.93681 1.50311 0
M  V30 2657 H 256.912 -3.23043 0.480725 0
M  V30 2658 H 255.571 -2.65035 2.53282 0
M  V30 2659 H 255.219 -4.83863 1.37424 0
M  V30 2660 H 254.919 -4.9762 3.12487 0
M  V30 2661 H 256.443 -5.6006 2.43238 0
M  V30 2662 H 257.857 -4.03218 4.07539 0
M  V30 2663 H 256.254 -3.64637 4.76613 0
M  V30 2664 H 257.324 -2.32928 4.25291 0
M  V30 2665 N 258.668 -1.30515 -0.883378 0
M  V30 2666 C 259.914 -1.19607 -1.63774 0
M  V30 2667 C 260.247 0.248314 -1.92606 0
M  V30 2668 O 259.522 1.17742 -1.54813 0
M  V30 2669 C 259.805 -2.02669 -2.97653 0
M  V30 2670 C 259.658 -3.55335 -2.75784 0
M  V30 2671 C 260.977 -1.86573 -3.98596 0
M  V30 2672 H 258.096 -0.435856 -0.594305 0
M  V30 2673 H 260.738 -1.60165 -1.02212 0
M  V30 2674 H 258.888 -1.68208 -3.50197 0
M  V30 2675 H 260.56 -3.99863 -2.30016 0
M  V30 2676 H 258.803 -3.79438 -2.1026 0
M  V30 2677 H 259.474 -4.08745 -3.70988 0
M  V30 2678 H 261.95 -2.16703 -3.55217 0
M  V30 2679 H 260.826 -2.47014 -4.90179 0
M  V30 2680 H 261.087 -0.825321 -4.34328 0
M  V30 2681 N 260.146 1.09593 -1.13257 0
M  V30 2682 C 261.393 1.81734 -0.893257 0
M  V30 2683 C 261.721 1.8563 0.580656 0
M  V30 2684 O 260.976 1.31906 1.44566 0
M  V30 2685 C 261.275 3.27802 -1.42411 0
M  V30 2686 C 260.941 3.44041 -2.91456 0
M  V30 2687 C 259.603 3.48181 -3.3215 0
M  V30 2688 C 261.955 3.48719 -3.87356 0
M  V30 2689 C 259.283 3.54575 -4.67433 0
M  V30 2690 C 261.635 3.56648 -5.2248 0
M  V30 2691 C 260.299 3.59055 -5.62704 0
M  V30 2692 H 259.569 0.665011 -0.326866 0
M  V30 2693 H 262.216 1.2912 -1.41422 0
M  V30 2694 H 260.521 3.83042 -0.823795 0
M  V30 2695 H 262.218 3.82149 -1.21503 0
M  V30 2696 H 258.808 3.41502 -2.58987 0
M  V30 2697 H 262.992 3.44763 -3.57004 0
M  V30 2698 H 258.248 3.54725 -4.97976 0
M  V30 2699 H 262.422 3.59212 -5.96607 0
M  V30 2700 H 260.049 3.63763 -6.67518 0
M  V30 2701 N 261.624 0.925811 1.2754 0
M  V30 2702 C 262.587 0.428129 2.25166 0
M  V30 2703 C 263.587 -0.452261 1.54309 0
M  V30 2704 O 264.777 -0.253608 1.72344 0
M  V30 2705 C 261.909 -0.384749 3.38722 0
M  V30 2706 H 263.102 1.29066 2.70706 0
M  V30 2707 H 260.655 0.706323 1.3943 0
M  V30 2708 H 261.39 -1.26618 2.98561 0
M  V30 2709 H 261.175 0.246454 3.91325 0
M  V30 2710 H 262.665 -0.723389 4.11287 0
M  V30 2711 N 263.102 -1.41638 0.69111 0
M  V30 2712 C 264.379 -1.95036 0.148421 0
M  V30 2713 C 264.759 -1.63072 -1.34055 0
M  V30 2714 O 264.107 -0.93538 -2.08478 0
M  V30 2715 C 264.317 -3.46279 0.434951 0
M  V30 2716 C 265.665 -4.23069 0.360275 0
M  V30 2717 O 266.689 -3.54277 0.369613 0
M  V30 2718 O 265.548 -5.45583 0.316534 0
M  V30 2719 H 262.642 -0.826908 0.0123654 0
M  V30 2720 H 265.188 -1.5138 0.766963 0
M  V30 2721 H 263.96 -3.6281 1.46576 0
M  V30 2722 H 263.583 -3.97019 -0.214787 0
M  V30 2723 N 264.58 -0.43555 -1.51462 0
M  V30 2724 C 265.826 0.131709 -2.02372 0
M  V30 2725 C 266.159 1.42516 -1.3192 0
M  V30 2726 O 265.434 1.89606 -0.433573 0
M  V30 2727 C 265.717 0.352301 -3.58373 0
M  V30 2728 C 265.57 -0.959676 -4.39443 0
M  V30 2729 C 266.889 1.12286 -4.25535 0
M  V30 2730 H 264.008 0.0463936 -0.735538 0
M  V30 2731 H 266.65 -0.574197 -1.81116 0
M  V30 2732 H 264.8 0.9536 -3.76615 0
M  V30 2733 H 266.472 -1.59482 -4.32855 0
M  V30 2734 H 264.715 -1.56468 -4.04599 0
M  V30 2735 H 265.386 -0.759394 -5.46752 0
M  V30 2736 H 267.862 0.613545 -4.11552 0
M  V30 2737 H 266.738 1.24598 -5.34571 0
M  V30 2738 H 266.999 2.15048 -3.86273 0
M  V30 2739 N 266.058 1.56714 -0.166846 0
M  V30 2740 C 266.99 2.14914 0.796537 0
M  V30 2741 C 268.003 1.10357 1.19688 0
M  V30 2742 O 269.192 1.37561 1.13751 0
M  V30 2743 C 266.292 2.67326 2.08303 0
M  V30 2744 C 265.465 3.96493 1.84696 0
M  V30 2745 C 264.524 4.34014 2.97521 0
M  V30 2746 O 263.55 5.01973 2.6835 0
M  V30 2747 N 264.752 3.95208 4.25196 0
M  V30 2748 H 267.517 2.98205 0.299006 0
M  V30 2749 H 265.078 1.61892 0.0160839 0
M  V30 2750 H 267.07 2.89428 2.82867 0
M  V30 2751 H 265.64 1.88649 2.4926 0
M  V30 2752 H 264.86 3.82814 0.940602 0
M  V30 2753 H 266.148 4.8086 1.66285 0
M  V30 2754 H 265.546 3.40487 4.51758 0
M  V30 2755 H 264.103 4.2232 4.96477 0
M  V30 2756 N 267.536 -0.106894 1.57237 0
M  V30 2757 C 268.446 -1.14911 2.0453 0
M  V30 2758 C 269.462 -1.44592 0.96795 0
M  V30 2759 O 270.638 -1.55468 1.2803 0
M  V30 2760 C 267.703 -2.45272 2.45036 0
M  V30 2761 C 266.764 -2.22879 3.66911 0
M  V30 2762 C 265.997 -3.47024 4.05475 0
M  V30 2763 O 266.22 -4.54804 3.44252 0
M  V30 2764 O 265.154 -3.3731 4.98504 0
M  V30 2765 H 268.98 -0.777461 2.9358 0
M  V30 2766 H 266.565 -0.318563 1.45964 0
M  V30 2767 H 268.447 -3.22055 2.71769 0
M  V30 2768 H 267.122 -2.81886 1.59129 0
M  V30 2769 H 266.029 -1.43915 3.45311 0
M  V30 2770 H 267.362 -1.91163 4.53561 0
M  V30 2771 N 269.014 -1.53014 -0.377408 0
M  V30 2772 C 270.262 -1.6829 -1.11906 0
M  V30 2773 C 270.583 -0.431206 -1.90173 0
M  V30 2774 O 269.853 0.554595 -1.87886 0
M  V30 2775 H 268.433 -0.620371 -0.416112 0
M  V30 2776 H 271.095 -1.90167 -0.426893 0
M  V30 2777 H 270.191 -2.53862 -1.8155 0
M  V30 2778 N 270.492 0.636531 -1.44174 0
M  V30 2779 C 271.74 1.39343 -1.46383 0
M  V30 2780 C 272.061 1.94766 -0.0955715 0
M  V30 2781 O 271.331 1.75452 0.871395 0
M  V30 2782 H 269.911 0.517199 -0.538994 0
M  V30 2783 H 272.573 0.74957 -1.7991 0
M  V30 2784 H 271.669 2.22746 -2.18611 0
M  V30 2785 N 271.97 1.30982 0.876444 0
M  V30 2786 C 273.198 1.23242 1.6619 0
M  V30 2787 C 273.613 -0.203345 1.87702 0
M  V30 2788 O 272.97 -1.13317 1.43057 0
M  V30 2789 C 273.021 1.96623 3.03351 0
M  V30 2790 O 272.742 3.34594 2.82804 0
M  V30 2791 C 274.243 1.95644 3.97792 0
M  V30 2792 H 271.463 0.426126 0.518322 0
M  V30 2793 H 274.007 1.7275 1.09442 0
M  V30 2794 H 272.162 1.50892 3.56806 0
M  V30 2795 H 272.576 3.71873 3.69879 0
M  V30 2796 H 274.05 2.51511 4.91372 0
M  V30 2797 H 274.527 0.937395 4.2908 0
M  V30 2798 H 275.133 2.41225 3.50272 0
M  V30 2799 N 273.449 -1.08991 1.13837 0
M  V30 2800 C 274.689 -1.82867 0.913183 0
M  V30 2801 C 275.053 -1.83936 -0.550604 0
M  V30 2802 O 276.254 -2.53515 -0.893515 0
M  V30 2803 C 274.525 -3.24843 1.49036 0
M  V30 2804 S 276.084 -4.15669 1.40588 0
M  V30 2805 H 272.902 -0.630278 0.329046 0
M  V30 2806 H 275.504 -1.31049 1.45073 0
M  V30 2807 H 274.208 -3.21644 2.54899 0
M  V30 2808 H 273.739 -3.81734 0.950947 0
M  V30 2809 H 275.754 -4.94686 0.387353 0
M  V30 2810 N 274.927 -0.932562 -1.27047 0
M  V30 2811 C 275.875 -0.42603 -2.28665 0
M  V30 2812 C 276.869 0.49219 -1.62092 0
M  V30 2813 O 278.075 0.371355 -1.76128 0
M  V30 2814 H 274.45 -0.119213 -0.742491 0
M  V30 2815 H 276.421 -1.29579 -2.68797 0
M  V30 2816 C 275.17 0.301426 -3.46391 0
M  V30 2817 H 274.493 -0.39595 -3.97834 0
M  V30 2818 H 275.933 0.6202 -4.1944 0
M  V30 2819 C 274.392 1.51616 -3.00856 0
M  V30 2820 O 274.922 2.61476 -3.04948 0
M  V30 2821 N 273.128 1.36969 -2.56296 0
M  V30 2822 H 272.675 0.475873 -2.53166 0
M  V30 2823 H 272.633 2.18368 -2.26192 0
M  V30 2824 N 276.405 1.4127 -0.698611 0
M  V30 2825 C 277.368 2.29158 -0.044132 0
M  V30 2826 C 278.368 1.44529 0.704841 0
M  V30 2827 O 279.558 1.65643 0.539276 0
M  V30 2828 C 276.69 3.27459 0.947809 0
M  V30 2829 H 277.883 2.88529 -0.817994 0
M  V30 2830 H 275.436 1.49307 -0.46228 0
M  V30 2831 H 276.171 2.73073 1.74933 0
M  V30 2832 H 275.956 3.8991 0.41385 0
M  V30 2833 H 277.446 3.93311 1.40344 0
M  V30 2834 N 277.883 0.443576 1.51229 0
M  V30 2835 C 279.108 -0.121648 2.07043 0
M  V30 2836 C 279.533 -1.35156 1.30823 0
M  V30 2837 O 278.891 -1.7793 0.347934 0
M  V30 2838 C 278.939 -0.41624 3.5819 0
M  V30 2839 O 278.043 -1.50163 3.8409 0
M  V30 2840 H 277.384 0.000871367 0.663999 0
M  V30 2841 H 279.914 0.626706 1.94765 0
M  V30 2842 H 279.924 -0.664867 4.02546 0
M  V30 2843 H 278.599 0.482653 4.1309 0
M  V30 2844 H 277.176 -1.24248 3.51592 0
M  V30 2845 N 279.361 -1.56624 0.175154 0
M  V30 2846 C 280.607 -1.98061 -0.462976 0
M  V30 2847 C 280.962 -1.05949 -1.60601 0
M  V30 2848 O 280.255 -0.0999027 -1.91339 0
M  V30 2849 C 280.449 -3.43419 -0.989864 0
M  V30 2850 C 280.278 -4.49587 0.100583 0
M  V30 2851 C 279.048 -5.02281 0.551539 0
M  V30 2852 C 281.246 -5.06322 0.902369 0
M  V30 2853 N 279.228 -5.92088 1.62189 0
M  V30 2854 C 280.599 -5.92607 1.82256 0
M  V30 2855 C 282.654 -4.88811 0.947019 0
M  V30 2856 C 281.357 -6.63254 2.78364 0
M  V30 2857 C 283.383 -5.60182 1.89606 0
M  V30 2858 C 282.745 -6.46197 2.80372 0
M  V30 2859 H 278.844 -0.769833 -0.137409 0
M  V30 2860 H 281.428 -1.9273 0.276256 0
M  V30 2861 H 279.599 -3.49288 -1.6986 0
M  V30 2862 H 281.331 -3.7186 -1.59694 0
M  V30 2863 H 278.086 -4.73367 0.148537 0
M  V30 2864 H 278.51 -6.41696 2.15767 0
M  V30 2865 H 283.152 -4.22004 0.259304 0
M  V30 2866 H 280.87 -7.29271 3.48122 0
M  V30 2867 H 284.456 -5.48617 1.93676 0
M  V30 2868 H 283.336 -7.00453 3.52612 0
M  V30 2869 N 280.839 0.0985539 -1.57292 0
M  V30 2870 C 282.25 0.653457 -1.74891 0
M  V30 2871 C 282.601 1.7929 -0.796838 0
M  V30 2872 O 281.726 2.16385 0.0254886 0
M  V30 2873 C 282.321 1.19216 -3.17133 0
M  V30 2874 C 280.88 1.69316 -3.36168 0
M  V30 2875 C 280.027 0.601294 -2.70702 0
M  V30 2876 H 282.978 -0.127497 -1.58187 0
M  V30 2877 H 282.999 2.06154 -3.19814 0
M  V30 2878 H 282.511 0.362635 -3.86402 0
M  V30 2879 H 280.612 2.5468 -2.71972 0
M  V30 2880 H 280.725 1.78853 -4.44464 0
M  V30 2881 H 279.089 1.0399 -2.32504 0
M  V30 2882 H 279.872 -0.217592 -3.4261 0
M  V30 2883 N 282.317 1.53212 0.369288 0
M  V30 2884 C 283.227 1.82342 1.47609 0
M  V30 2885 C 284.243 0.711532 1.58787 0
M  V30 2886 O 285.419 1.0012 1.74751 0
M  V30 2887 C 282.484 2.00393 2.8292 0
M  V30 2888 C 281.545 3.24297 2.81301 0
M  V30 2889 C 280.778 3.41478 4.10157 0
M  V30 2890 O 281.001 2.63033 5.06132 0
M  V30 2891 O 279.935 4.34817 4.16194 0
M  V30 2892 H 283.761 2.76366 1.25918 0
M  V30 2893 H 281.346 1.38547 0.559034 0
M  V30 2894 H 283.228 2.13859 3.63101 0
M  V30 2895 H 281.903 1.09559 3.04596 0
M  V30 2896 H 280.81 3.16257 1.99831 0
M  V30 2897 H 282.143 4.15041 2.64578 0
M  V30 2898 N 283.795 -0.628877 1.44509 0
M  V30 2899 C 285.206 -1.21054 1.42137 0
M  V30 2900 C 285.557 -1.95715 0.137881 0
M  V30 2901 O 284.682 -2.02554 -0.761645 0
M  V30 2902 C 285.277 -2.20189 2.57493 0
M  V30 2903 C 283.836 -2.73777 2.58308 0
M  V30 2904 C 282.983 -1.48813 2.33987 0
M  V30 2905 H 285.934 -0.41942 1.53057 0
M  V30 2906 H 285.955 -3.02833 2.30375 0
M  V30 2907 H 285.467 -1.6582 3.50892 0
M  V30 2908 H 283.568 -3.32142 1.68856 0
M  V30 2909 H 283.681 -3.19662 3.56865 0
M  V30 2910 H 282.045 -1.77024 1.83124 0
M  V30 2911 H 282.828 -0.963442 3.29504 0
M  V30 2912 N 285.273 -1.31445 -0.869486 0
M  V30 2913 C 286.519 -1.21337 -1.62496 0
M  V30 2914 C 286.852 0.227872 -1.92858 0
M  V30 2915 O 286.127 1.16094 -1.56053 0
M  V30 2916 C 286.41 -2.05814 -2.95487 0
M  V30 2917 C 286.263 -3.5824 -2.72 0
M  V30 2918 C 287.582 -1.9079 -3.96594 0
M  V30 2919 H 284.701 -0.442135 -0.589649 0
M  V30 2920 H 287.343 -1.6124 -1.00507 0
M  V30 2921 H 285.493 -1.71913 -3.48394 0
M  V30 2922 H 287.165 -4.0228 -2.25762 0
M  V30 2923 H 285.408 -3.81647 -2.06224 0
M  V30 2924 H 286.079 -4.12657 -3.66631 0
M  V30 2925 H 288.555 -2.20459 -3.52898 0
M  V30 2926 H 287.431 -2.52199 -4.87531 0
M  V30 2927 H 287.692 -0.871341 -4.33428 0
M  V30 2928 N 286.751 1.08385 -1.14413 0
M  V30 2929 C 287.999 1.80419 -0.910679 0
M  V30 2930 C 288.32 1.86658 0.564243 0
M  V30 2931 O 287.59 1.35985 1.41014 0
M  V30 2932 H 286.17 0.668204 -0.333934 0
M  V30 2933 H 288.832 1.31037 -1.44275 0
M  V30 2934 H 287.928 2.83238 -1.31082 0
M  V30 2935 N 288.23 0.939286 1.26551 0
M  V30 2936 C 289.16 0.465044 2.28822 0
M  V30 2937 C 290.141 -0.480692 1.63167 0
M  V30 2938 O 291.326 -0.382955 1.90387 0
M  V30 2939 C 288.456 -0.27234 3.46231 0
M  V30 2940 C 287.41 0.58666 4.2396 0
M  V30 2941 C 286.736 -0.280573 5.33963 0
M  V30 2942 C 288.036 1.85704 4.88171 0
M  V30 2943 H 289.73 1.31979 2.68741 0
M  V30 2944 H 287.276 0.636061 1.29191 0
M  V30 2945 H 289.229 -0.615133 4.16886 0
M  V30 2946 H 287.953 -1.16121 3.0526 0
M  V30 2947 H 286.612 0.91232 3.55067 0
M  V30 2948 H 286.26 -1.16874 4.89234 0
M  V30 2949 H 285.96 0.29076 5.8688 0
M  V30 2950 H 287.484 -0.618678 6.07458 0
M  V30 2951 H 288.898 1.58161 5.51052 0
M  V30 2952 H 287.295 2.37279 5.51197 0
M  V30 2953 H 288.365 2.56957 4.11219 0
M  V30 2954 N 289.708 -1.40897 0.706093 0
M  V30 2955 C 290.954 -2.01849 0.250681 0
M  V30 2956 C 291.309 -1.5496 -1.14041 0
M  V30 2957 O 290.602 -0.755566 -1.76073 0
M  V30 2958 C 290.796 -3.5646 0.259099 0
M  V30 2959 C 290.625 -4.18357 1.64947 0
M  V30 2960 C 289.395 -4.522 2.25485 0
M  V30 2961 C 291.593 -4.43856 2.598 0
M  V30 2962 N 289.575 -4.9944 3.56977 0
M  V30 2963 C 290.946 -4.92986 3.75985 0
M  V30 2964 C 293.001 -4.25882 2.57933 0
M  V30 2965 C 291.704 -5.2603 4.90597 0
M  V30 2966 C 293.73 -4.6002 3.71665 0
M  V30 2967 C 293.092 -5.09331 4.86581 0
M  V30 2968 H 289.191 -0.769843 0.137353 0
M  V30 2969 H 291.775 -1.71278 0.925845 0
M  V30 2970 H 289.946 -3.86481 -0.385592 0
M  V30 2971 H 291.678 -4.04144 -0.21213 0
M  V30 2972 H 288.433 -4.3901 1.77671 0
M  V30 2973 H 288.857 -5.27454 4.24407 0
M  V30 2974 H 293.499 -3.86986 1.70298 0
M  V30 2975 H 291.217 -5.63843 5.78884 0
M  V30 2976 H 294.803 -4.47762 3.71484 0
M  V30 2977 H 293.683 -5.35251 5.73129 0
M  V30 2978 N 291.186 -0.45159 -1.50991 0
M  V30 2979 C 292.434 0.109857 -2.01801 0
M  V30 2980 C 292.755 1.41958 -1.3369 0
M  V30 2981 O 292.025 1.9003 -0.475951 0
M  V30 2982 H 290.605 0.0435884 -0.745727 0
M  V30 2983 H 293.267 -0.597557 -1.85514 0
M  V30 2984 H 292.363 0.275489 -3.10882 0
M  V30 2985 N 292.664 1.56529 -0.183458 0
M  V30 2986 C 293.627 2.17324 0.728223 0
M  V30 2987 C 294.627 1.12453 1.14939 0
M  V30 2988 O 295.817 1.37902 1.06437 0
M  V30 2989 C 292.949 2.76591 1.99274 0
M  V30 2990 H 294.142 2.99241 0.198772 0
M  V30 2991 H 291.695 1.5616 0.0661391 0
M  V30 2992 H 292.43 1.98441 2.56499 0
M  V30 2993 H 292.215 3.5335 1.69959 0
M  V30 2994 H 293.705 3.23311 2.6431 0
M  V30 2995 N 294.142 -0.090211 1.57342 0
M  V30 2996 C 295.388 -0.793982 1.86611 0
M  V30 2997 C 295.721 -1.78142 0.773252 0
M  V30 2998 O 294.996 -1.93271 -0.218304 0
M  V30 2999 C 295.279 -1.51839 3.26523 0
M  V30 3000 C 295.132 -0.548609 4.46442 0
M  V30 3001 C 296.451 -2.46779 3.64401 0
M  V30 3002 H 293.57 -0.287186 0.678744 0
M  V30 3003 H 296.212 -0.0575076 1.89913 0
M  V30 3004 H 294.362 -2.14617 3.23839 0
M  V30 3005 H 296.034 0.0725513 4.61243 0
M  V30 3006 H 294.277 0.137614 4.33582 0
M  V30 3007 H 294.948 -1.09271 5.41076 0
M  V30 3008 H 297.424 -1.94089 3.68061 0
M  V30 3009 H 296.3 -2.94479 4.63221 0
M  V30 3010 H 296.561 -3.30758 2.93346 0
M  V30 3011 N 295.62 -1.53406 -0.361157 0
M  V30 3012 C 296.867 -1.69802 -1.10333 0
M  V30 3013 C 297.195 -0.452087 -1.89173 0
M  V30 3014 O 296.45 0.566017 -1.87336 0
M  V30 3015 C 296.749 -2.90211 -2.08596 0
M  V30 3016 C 296.415 -4.26539 -1.46203 0
M  V30 3017 C 295.077 -4.6361 -1.28915 0
M  V30 3018 C 297.429 -5.113 -1.01101 0
M  V30 3019 C 294.757 -5.83075 -0.651157 0
M  V30 3020 C 297.109 -6.31415 -0.387007 0
M  V30 3021 C 295.773 -6.67195 -0.201657 0
M  V30 3022 H 295.043 -0.621351 -0.403737 0
M  V30 3023 H 297.69 -1.87598 -0.384609 0
M  V30 3024 H 295.995 -2.66946 -2.86788 0
M  V30 3025 H 297.692 -3.00091 -2.65982 0
M  V30 3026 H 294.282 -3.97352 -1.60653 0
M  V30 3027 H 298.466 -4.83206 -1.13249 0
M  V30 3028 H 293.722 -6.09385 -0.496006 0
M  V30 3029 H 297.896 -6.96394 -0.0293563 0
M  V30 3030 H 295.523 -7.59628 0.294766 0
M  V30 3031 N 297.098 0.621204 -1.44841 0
M  V30 3032 C 298.347 1.37658 -1.47422 0
M  V30 3033 C 298.66 1.95264 -0.114629 0
M  V30 3034 O 299.866 2.71494 -0.0180199 0
M  V30 3035 C 298.322 2.49285 -2.59586 0
M  V30 3036 C 297.93 1.98149 -4.01797 0
M  V30 3037 C 299.674 3.26409 -2.71399 0
M  V30 3038 C 297.581 3.07178 -5.05367 0
M  V30 3039 H 296.511 0.517344 -0.548517 0
M  V30 3040 H 299.162 0.667257 -1.70938 0
M  V30 3041 H 297.544 3.22839 -2.29328 0
M  V30 3042 H 298.718 1.31395 -4.41669 0
M  V30 3043 H 297.033 1.33812 -3.94314 0
M  V30 3044 H 299.63 4.07706 -3.45948 0
M  V30 3045 H 299.973 3.76535 -1.77559 0
M  V30 3046 H 300.506 2.5995 -3.01116 0
M  V30 3047 H 297.245 2.61985 -6.00869 0
M  V30 3048 H 296.765 3.72542 -4.70077 0
M  V30 3049 H 298.444 3.71789 -5.29511 0
M  V30 3050 N 298.576 1.31904 0.862503 0
M  V30 3051 C 299.825 1.21373 1.61094 0
M  V30 3052 C 300.138 -0.22504 1.94301 0
M  V30 3053 O 301.344 -0.452121 2.67709 0
M  V30 3054 C 299.8 2.12525 2.9045 0
M  V30 3055 C 299.408 3.61441 2.64697 0
M  V30 3056 C 301.152 2.10813 3.68454 0
M  V30 3057 C 299.059 4.44578 3.90006 0
M  V30 3058 H 297.989 0.450705 0.604468 0
M  V30 3059 H 300.64 1.56811 0.953027 0
M  V30 3060 H 299.022 1.69994 3.57656 0
M  V30 3061 H 300.196 4.12264 2.05851 0
M  V30 3062 H 298.511 3.65205 2.00036 0
M  V30 3063 H 301.108 2.70167 4.61426 0
M  V30 3064 H 301.451 1.09713 4.01583 0
M  V30 3065 H 301.984 2.51583 3.08141 0
M  V30 3066 H 298.723 5.46461 3.62023 0
M  V30 3067 H 298.243 3.98508 4.48276 0
M  V30 3068 H 299.922 4.57176 4.5782 0
M  V30 3069 N 300.054 -1.07777 1.14986 0
M  V30 3070 C 301.284 -1.83752 0.944402 0
M  V30 3071 C 301.692 -1.8218 -0.51058 0
M  V30 3072 O 301.035 -1.22852 -1.36576 0
M  V30 3073 C 301.097 -3.32128 1.37592 0
M  V30 3074 C 300.761 -3.57425 2.84775 0
M  V30 3075 C 301.758 -3.5173 3.8286 0
M  V30 3076 C 299.443 -3.8523 3.2234 0
M  V30 3077 C 301.437 -3.73482 5.16517 0
M  V30 3078 C 299.124 -4.06634 4.56171 0
M  V30 3079 C 300.122 -4.00754 5.53069 0
M  V30 3080 O 299.81 -4.2159 6.84483 0
M  V30 3081 H 299.542 -0.58673 0.335744 0
M  V30 3082 H 302.096 -1.36982 1.53052 0
M  V30 3083 H 300.326 -3.79686 0.733165 0
M  V30 3084 H 302.015 -3.89555 1.14024 0
M  V30 3085 H 302.781 -3.30256 3.55184 0
M  V30 3086 H 298.66 -3.88923 2.47508 0
M  V30 3087 H 302.204 -3.68808 5.92137 0
M  V30 3088 H 298.101 -4.27593 4.83564 0
M  V30 3089 H 298.869 -4.38961 6.90837 0
M  V30 3090 N 301.532 -0.945985 -1.26051 0
M  V30 3091 C 302.76 -0.613025 -1.9761 0
M  V30 3092 C 303.175 0.813035 -1.70397 0
M  V30 3093 O 302.532 1.54274 -0.974979 0
M  V30 3094 C 302.583 -0.85159 -3.51326 0
M  V30 3095 O 302.304 -2.22157 -3.77595 0
M  V30 3096 C 303.805 -0.529831 -4.40122 0
M  V30 3097 H 301.025 -0.230593 -0.630133 0
M  V30 3098 H 303.569 -1.268 -1.60443 0
M  V30 3099 H 301.724 -0.243151 -3.86636 0
M  V30 3100 H 302.138 -2.2852 -4.721 0
M  V30 3101 H 303.612 -0.747348 -5.46917 0
M  V30 3102 H 304.089 0.535341 -4.35925 0
M  V30 3103 H 304.695 -1.11721 -4.10364 0
M  V30 3104 N 303.011 1.40521 -0.713556 0
M  V30 3105 C 303.974 2.29098 -0.0684347 0
M  V30 3106 C 304.974 1.45268 0.689472 0
M  V30 3107 O 306.164 1.66205 0.521677 0
M  V30 3108 C 303.296 3.28446 0.913024 0
M  V30 3109 H 304.489 2.87645 -0.84855 0
M  V30 3110 H 302.042 1.48809 -0.47809 0
M  V30 3111 H 302.777 2.74913 1.72027 0
M  V30 3112 H 302.562 3.90327 0.372472 0
M  V30 3113 H 304.052 3.94777 1.36165 0
M  V30 3114 N 304.489 0.459591 1.5075 0
M  V30 3115 C 305.735 -0.0994966 2.02556 0
M  V30 3116 C 306.068 -1.40399 1.3417 0
M  V30 3117 O 305.343 -1.88892 0.463683 0
M  V30 3118 C 305.626 -0.295242 3.58888 0
M  V30 3119 C 305.479 1.02947 4.37861 0
M  V30 3120 C 306.798 -1.05502 4.27267 0
M  V30 3121 H 303.917 -0.034686 0.736183 0
M  V30 3122 H 306.559 0.602938 1.8018 0
M  V30 3123 H 304.709 -0.893563 3.78084 0
M  V30 3124 H 306.381 1.66348 4.30263 0
M  V30 3125 H 304.624 1.62885 4.02058 0
M  V30 3126 H 305.295 0.846281 5.45474 0
M  V30 3127 H 307.771 -0.547993 4.12476 0
M  V30 3128 H 306.647 -1.16077 5.36486 0
M  V30 3129 H 306.908 -2.08875 3.89645 0
M  V30 3130 N 305.967 -1.56429 0.191757 0
M  V30 3131 C 306.897 -2.21937 -0.725696 0
M  V30 3132 C 307.878 -1.1814 -1.2238 0
M  V30 3133 O 309.063 -1.46636 -1.27325 0
M  V30 3134 C 306.193 -2.87611 -1.94672 0
M  V30 3135 C 305.147 -3.97623 -1.58366 0
M  V30 3136 C 304.473 -4.50446 -2.88102 0
M  V30 3137 C 305.773 -5.16197 -0.796133 0
M  V30 3138 H 307.467 -2.98861 -0.179606 0
M  V30 3139 H 305.013 -1.43749 -0.0849464 0
M  V30 3140 H 306.966 -3.3212 -2.59373 0
M  V30 3141 H 305.69 -2.08087 -2.51728 0
M  V30 3142 H 304.349 -3.53801 -0.960247 0
M  V30 3143 H 303.997 -3.67688 -3.43241 0
M  V30 3144 H 303.697 -5.24675 -2.64556 0
M  V30 3145 H 305.221 -4.97654 -3.53798 0
M  V30 3146 H 306.635 -5.57271 -1.34618 0
M  V30 3147 H 305.032 -5.96471 -0.658928 0
M  V30 3148 H 306.102 -4.84473 0.203478 0
M  V30 3149 N 307.445 0.0818655 -1.57387 0
M  V30 3150 C 308.693 0.781368 -1.86384 0
M  V30 3151 C 309.014 1.78618 -0.782342 0
M  V30 3152 O 308.284 1.94976 0.190061 0
M  V30 3153 H 306.864 0.291562 -0.687751 0
M  V30 3154 H 309.526 0.060348 -1.94807 0
M  V30 3155 H 308.622 1.3038 -2.83562 0
M  V30 3156 N 308.923 1.53595 0.353017 0
M  V30 3157 C 310.17 1.70385 1.09431 0
M  V30 3158 C 310.498 0.462113 1.88931 0
M  V30 3159 O 309.753 -0.556074 1.87633 0
M  V30 3160 C 310.052 2.91313 2.07054 0
M  V30 3161 C 309.718 4.27308 1.43939 0
M  V30 3162 C 308.38 4.64287 1.26454 0
M  V30 3163 C 310.732 5.11829 0.983883 0
M  V30 3164 C 308.06 5.83412 0.620226 0
M  V30 3165 C 310.412 6.31611 0.353516 0
M  V30 3166 C 309.076 6.67293 0.166272 0
M  V30 3167 H 308.346 0.623484 0.400436 0
M  V30 3168 H 310.993 1.87799 0.374655 0
M  V30 3169 H 309.298 2.68463 2.85368 0
M  V30 3170 H 310.995 3.01497 2.64387 0
M  V30 3171 H 307.585 3.98198 1.58543 0
M  V30 3172 H 311.769 4.838 1.10685 0
M  V30 3173 H 307.025 6.09639 0.463681 0
M  V30 3174 H 311.199 6.964 -0.00757555 0
M  V30 3175 H 308.826 7.59461 -0.335047 0
M  V30 3176 N 310.401 -0.613514 1.45168 0
M  V30 3177 C 311.648 -1.37268 1.48875 0
M  V30 3178 C 311.976 -1.94077 0.128161 0
M  V30 3179 O 311.231 -1.75178 -0.872416 0
M  V30 3180 C 311.53 -2.54347 2.51083 0
M  V30 3181 C 311.196 -2.1572 3.95949 0
M  V30 3182 C 309.858 -2.04899 4.35396 0
M  V30 3183 C 312.21 -1.85485 4.87078 0
M  V30 3184 C 309.538 -1.62057 5.63875 0
M  V30 3185 C 311.89 -1.4413 6.15962 0
M  V30 3186 C 310.554 -1.31863 6.54346 0
M  V30 3187 H 309.824 -0.502299 0.544773 0
M  V30 3188 H 312.471 -0.694021 1.78481 0
M  V30 3189 H 310.776 -3.27524 2.15024 0
M  V30 3190 H 312.473 -3.12577 2.51191 0
M  V30 3191 H 309.063 -2.25066 3.64751 0
M  V30 3192 H 313.247 -1.92745 4.57343 0
M  V30 3193 H 308.503 -1.51177 5.92415 0
M  V30 3194 H 312.677 -1.19778 6.86022 0
M  V30 3195 H 310.304 -0.984392 7.538 0
M  V30 3196 N 311.879 -1.3236 -0.855495 0
M  V30 3197 C 312.842 -1.21164 -1.94556 0
M  V30 3198 C 313.842 -0.134908 -1.60233 0
M  V30 3199 O 315.032 -0.385249 -1.69887 0
M  V30 3200 C 312.164 -0.863192 -3.29791 0
M  V30 3201 H 313.357 -2.18038 -2.05911 0
M  V30 3202 H 310.91 -1.16179 -1.04557 0
M  V30 3203 H 311.645 0.103769 -3.24134 0
M  V30 3204 H 311.43 -1.64166 -3.56078 0
M  V30 3205 H 312.92 -0.809156 -4.09686 0
M  V30 3206 N 313.357 1.07166 -1.15556 0
M  V30 3207 C 314.768 1.6127 -0.940693 0
M  V30 3208 C 315.119 1.89251 0.517551 0
M  V30 3209 O 314.244 1.65937 1.38903 0
M  V30 3210 C 314.839 2.92993 -1.7012 0
M  V30 3211 C 313.398 3.43832 -1.53156 0
M  V30 3212 C 312.545 2.1786 -1.71558 0
M  V30 3213 H 315.496 0.90229 -1.30554 0
M  V30 3214 H 315.517 3.62007 -1.17181 0
M  V30 3215 H 315.029 2.72596 -2.76248 0
M  V30 3216 H 313.13 3.69307 -0.494294 0
M  V30 3217 H 313.243 4.19747 -2.30975 0
M  V30 3218 H 311.607 2.2765 -1.14225 0
M  V30 3219 H 312.39 1.99956 -2.79056 0
M  V30 3220 N 314.835 0.952656 1.25548 0
M  V30 3221 C 315.765 0.489287 2.28316 0
M  V30 3222 C 316.746 -0.463359 1.63667 0
M  V30 3223 O 317.931 -0.36274 1.90782 0
M  V30 3224 C 315.061 -0.235603 3.465 0
M  V30 3225 C 314.015 0.631593 4.23314 0
M  V30 3226 C 313.341 -0.223923 5.34231 0
M  V30 3227 C 314.641 1.90871 4.86174 0
M  V30 3228 H 316.335 1.34822 2.67326 0
M  V30 3229 H 313.881 0.649728 1.28509 0
M  V30 3230 H 315.834 -0.570882 4.17515 0
M  V30 3231 H 314.558 -1.12877 3.06474 0
M  V30 3232 H 313.217 0.949929 3.54079 0
M  V30 3233 H 312.865 -1.11678 4.90446 0
M  V30 3234 H 312.565 0.35299 5.86539 0
M  V30 3235 H 314.089 -0.554214 6.0808 0
M  V30 3236 H 315.503 1.63997 5.49343 0
M  V30 3237 H 313.9 2.43112 5.4865 0
M  V30 3238 H 314.97 2.61304 4.08471 0
M  V30 3239 N 316.313 -1.40141 0.720998 0
M  V30 3240 C 317.243 -2.33339 0.0867621 0
M  V30 3241 C 318.224 -1.53178 -0.739622 0
M  V30 3242 O 319.409 -1.81625 -0.687449 0
M  V30 3243 C 316.539 -3.37194 -0.831728 0
M  V30 3244 C 315.493 -4.27857 -0.110558 0
M  V30 3245 C 314.819 -5.22294 -1.14513 0
M  V30 3246 C 316.119 -5.11872 1.0385 0
M  V30 3247 H 317.813 -2.86626 0.865219 0
M  V30 3248 H 315.359 -1.37814 0.417516 0
M  V30 3249 H 317.312 -4.01335 -1.28485 0
M  V30 3250 H 316.036 -2.82314 -1.64214 0
M  V30 3251 H 314.695 -3.65176 0.322797 0
M  V30 3252 H 314.343 -4.63717 -1.94874 0
M  V30 3253 H 314.043 -5.83797 -0.667446 0
M  V30 3254 H 315.567 -5.89312 -1.59824 0
M  V30 3255 H 316.981 -5.69436 0.664482 0
M  V30 3256 H 315.378 -5.82445 1.4449 0
M  V30 3257 H 316.448 -4.4753 1.86668 0
M  V30 3258 N 317.792 -0.46758 -1.50504 0
M  V30 3259 C 319.038 0.0887532 -2.02606 0
M  V30 3260 C 319.371 1.39686 -1.34913 0
M  V30 3261 O 318.646 1.88644 -0.473694 0
M  V30 3262 C 318.929 0.276206 -3.59039 0
M  V30 3263 C 318.782 -1.05267 -4.37309 0
M  V30 3264 C 320.101 1.03235 -4.27821 0
M  V30 3265 H 317.22 0.0307814 -0.736357 0
M  V30 3266 H 319.862 -0.612485 -1.79857 0
M  V30 3267 H 318.012 0.8735 -3.78553 0
M  V30 3268 H 319.684 -1.68628 -4.29374 0
M  V30 3269 H 317.927 -1.65015 -4.01189 0
M  V30 3270 H 318.598 -0.875197 -5.45018 0
M  V30 3271 H 321.074 0.526111 -4.12761 0
M  V30 3272 H 319.95 1.1323 -5.37094 0
M  V30 3273 H 320.211 2.06806 -3.90748 0
M  V30 3274 N 319.27 1.56325 -0.20005 0
M  V30 3275 C 320.519 1.96895 0.437652 0
M  V30 3276 C 320.832 1.08999 1.62415 0
M  V30 3277 O 322.038 1.39372 2.32997 0
M  V30 3278 C 320.494 3.50198 0.830025 0
M  V30 3279 C 320.102 4.46765 -0.332461 0
M  V30 3280 C 321.846 3.99526 1.43453 0
M  V30 3281 C 319.753 5.91344 0.0811468 0
M  V30 3282 H 318.683 0.735209 0.167282 0
M  V30 3283 H 321.334 1.81148 -0.292853 0
M  V30 3284 H 319.716 3.61467 1.61734 0
M  V30 3285 H 320.89 4.47231 -1.11 0
M  V30 3286 H 319.205 4.07657 -0.848789 0
M  V30 3287 H 321.802 5.05025 1.75652 0
M  V30 3288 H 322.145 3.44122 2.34277 0
M  V30 3289 H 322.678 3.91393 0.71109 0
M  V30 3290 H 319.417 6.50685 -0.793033 0
M  V30 3291 H 318.937 5.94121 0.823445 0
M  V30 3292 H 320.616 6.44945 0.515252 0
M  V30 3293 N 320.748 -0.0735177 1.57428 0
M  V30 3294 C 321.988 -0.778363 1.89 0
M  V30 3295 C 322.352 -1.7483 0.793634 0
M  V30 3296 O 323.553 -2.49811 0.992367 0
M  V30 3297 C 321.824 -1.46929 3.25802 0
M  V30 3298 S 323.383 -2.20943 3.79117 0
M  V30 3299 H 320.201 -0.258874 0.662197 0
M  V30 3300 H 322.803 -0.0345338 1.95469 0
M  V30 3301 H 321.507 -0.749532 4.03497 0
M  V30 3302 H 321.038 -2.25258 3.22525 0
M  V30 3303 H 323.053 -3.47435 3.54265 0
M  V30 3304 N 322.226 -1.5378 -0.344866 0
M  V30 3305 C 323.156 -1.84662 -1.42906 0
M  V30 3306 C 324.137 -0.701648 -1.54955 0
M  V30 3307 O 325.322 -0.953438 -1.69184 0
M  V30 3308 C 322.452 -2.05503 -2.79974 0
M  V30 3309 C 321.406 -3.21318 -2.82734 0
M  V30 3310 C 320.732 -3.2749 -4.22675 0
M  V30 3311 C 322.032 -4.59456 -2.48389 0
M  V30 3312 H 323.726 -2.75461 -1.17311 0
M  V30 3313 H 321.272 -1.32542 -0.562896 0
M  V30 3314 H 323.225 -2.25691 -3.55867 0
M  V30 3315 H 321.949 -1.11434 -3.07002 0
M  V30 3316 H 320.608 -3.00984 -2.09294 0
M  V30 3317 H 320.256 -2.31019 -4.4681 0
M  V30 3318 H 319.956 -4.05316 -4.25433 0
M  V30 3319 H 321.48 -3.49887 -5.00412 0
M  V30 3320 H 322.894 -4.79667 -3.13995 0
M  V30 3321 H 321.291 -5.39675 -2.62432 0
M  V30 3322 H 322.361 -4.63155 -1.4358 0
M  V30 3323 N 323.704 0.605807 -1.45491 0
M  V30 3324 C 324.944 1.37606 -1.51142 0
M  V30 3325 C 325.308 1.91413 -0.150075 0
M  V30 3326 O 326.509 2.68677 -0.0812828 0
M  V30 3327 C 324.78 2.49197 -2.56195 0
M  V30 3328 S 326.339 3.36953 -2.81083 0
M  V30 3329 H 323.157 0.469118 -0.534275 0
M  V30 3330 H 325.759 0.698845 -1.82583 0
M  V30 3331 H 324.463 2.0802 -3.53773 0
M  V30 3332 H 323.994 3.21717 -2.26411 0
M  V30 3333 H 326.009 4.47395 -2.14598 0
M  V30 3334 N 325.182 1.32811 0.848464 0
M  V30 3335 C 326.412 1.26556 1.63301 0
M  V30 3336 C 326.82 -0.1676 1.88456 0
M  V30 3337 O 326.163 -1.11713 1.45828 0
M  V30 3338 C 326.225 1.96202 3.01239 0
M  V30 3339 C 325.889 3.45528 2.99098 0
M  V30 3340 C 326.886 4.40903 2.75501 0
M  V30 3341 C 324.571 3.87558 3.19537 0
M  V30 3342 C 326.565 5.76282 2.72356 0
M  V30 3343 C 324.252 5.23044 3.16019 0
M  V30 3344 C 325.25 6.17217 2.92458 0
M  V30 3345 O 324.938 7.50223 2.88825 0
M  V30 3346 H 324.67 0.43771 0.515156 0
M  V30 3347 H 327.224 1.7559 1.0657 0
M  V30 3348 H 325.454 1.41746 3.59785 0
M  V30 3349 H 327.143 1.83573 3.62016 0
M  V30 3350 H 327.909 4.09756 2.5947 0
M  V30 3351 H 323.788 3.14674 3.369 0
M  V30 3352 H 327.332 6.4976 2.53886 0
M  V30 3353 H 323.229 5.53818 3.31596 0
M  V30 3354 H 323.997 7.59657 3.04735 0
M  V30 3355 N 326.66 -1.06551 1.16123 0
M  V30 3356 C 327.59 -2.15935 0.88851 0
M  V30 3357 C 328.571 -1.69306 -0.164135 0
M  V30 3358 O 329.756 -1.94193 -0.0167857 0
M  V30 3359 C 326.886 -3.45149 0.385942 0
M  V30 3360 C 325.84 -4.05271 1.3762 0
M  V30 3361 C 325.166 -5.29664 0.732137 0
M  V30 3362 C 326.466 -4.44355 2.74493 0
M  V30 3363 H 328.16 -2.39006 1.80323 0
M  V30 3364 H 325.706 -1.14866 0.868435 0
M  V30 3365 H 327.659 -4.21004 0.182647 0
M  V30 3366 H 326.383 -3.21689 -0.564274 0
M  V30 3367 H 325.042 -3.3147 1.56599 0
M  V30 3368 H 324.69 -5.02499 -0.224483 0
M  V30 3369 H 324.39 -5.70848 1.39307 0
M  V30 3370 H 325.914 -6.08218 0.538802 0
M  V30 3371 H 327.328 -5.11303 2.59311 0
M  V30 3372 H 325.725 -4.96515 3.37035 0
M  V30 3373 H 326.795 -3.55339 3.29943 0
M  V30 3374 N 328.138 -0.959301 -1.25041 0
M  V30 3375 C 329.068 -0.501388 -2.28053 0
M  V30 3376 C 330.049 0.454673 -1.63911 0
M  V30 3377 O 331.234 0.352618 -1.90972 0
M  V30 3378 C 328.364 0.217224 -3.4662 0
M  V30 3379 C 327.318 -0.654034 -4.22973 0
M  V30 3380 C 326.644 0.195589 -5.34342 0
M  V30 3381 C 327.944 -1.93447 -4.85155 0
M  V30 3382 H 329.638 -1.36238 -2.66608 0
M  V30 3383 H 327.184 -0.656534 -1.28163 0
M  V30 3384 H 329.137 0.548732 -4.17812 0
M  V30 3385 H 327.861 1.1125 -3.07068 0
M  V30 3386 H 326.52 -0.968693 -3.5357 0
M  V30 3387 H 326.168 1.09076 -4.91031 0
M  V30 3388 H 325.868 -0.384091 -5.86343 0
M  V30 3389 H 327.392 0.521958 -6.08365 0
M  V30 3390 H 328.806 -1.66908 -5.48466 0
M  V30 3391 H 327.203 -2.46018 -5.47353 0
M  V30 3392 H 328.273 -2.63466 -4.07079 0
M  V30 3393 N 329.616 1.39756 -0.72842 0
M  V30 3394 C 330.865 1.99879 -0.270407 0
M  V30 3395 C 331.178 1.58449 1.14688 0
M  V30 3396 O 332.384 2.11362 1.70407 0
M  V30 3397 C 330.84 3.57292 -0.43252 0
M  V30 3398 C 330.448 4.07688 -1.85727 0
M  V30 3399 C 332.192 4.24485 -0.0359507 0
M  V30 3400 C 330.099 5.5765 -1.96928 0
M  V30 3401 H 329.029 0.747689 -0.0973472 0
M  V30 3402 H 331.68 1.59837 -0.901355 0
M  V30 3403 H 330.062 3.95097 0.267219 0
M  V30 3404 H 331.236 3.81231 -2.58843 0
M  V30 3405 H 329.551 3.53135 -2.20646 0
M  V30 3406 H 332.148 5.34609 -0.0987484 0
M  V30 3407 H 332.491 4.03915 1.00787 0
M  V30 3408 H 333.024 3.9183 -0.686604 0
M  V30 3409 H 329.763 5.8309 -2.99476 0
M  V30 3410 H 329.283 5.8593 -1.28241 0
M  V30 3411 H 330.962 6.22957 -1.74737 0
M  V30 3412 N 331.094 0.475555 1.50254 0
M  V30 3413 C 332.34 -0.0780073 2.0265 0
M  V30 3414 C 332.673 -1.38968 1.35652 0
M  V30 3415 O 331.948 -1.8839 0.483691 0
M  V30 3416 C 332.231 -0.257161 3.59181 0
M  V30 3417 C 332.084 1.07585 4.36744 0
M  V30 3418 C 333.403 -1.00965 4.28362 0
M  V30 3419 H 330.522 -0.0268758 0.73651 0
M  V30 3420 H 333.164 0.622015 1.7953 0
M  V30 3421 H 331.314 -0.853412 3.79011 0
M  V30 3422 H 332.986 1.70902 4.28474 0
M  V30 3423 H 331.229 1.6714 4.00308 0
M  V30 3424 H 331.9 0.904088 5.44546 0
M  V30 3425 H 334.376 -0.504214 4.13034 0
M  V30 3426 H 333.252 -1.10381 5.37687 0
M  V30 3427 H 333.513 -2.04731 3.91839 0
M  V30 3428 N 332.573 -1.56217 0.208337 0
M  V30 3429 C 333.819 -1.98242 -0.427552 0
M  V30 3430 C 334.152 -1.09554 -1.60348 0
M  V30 3431 O 333.427 -0.15035 -1.93918 0
M  V30 3432 C 333.71 -3.4931 -0.874907 0
M  V30 3433 C 333.563 -4.48773 0.303751 0
M  V30 3434 C 334.882 -4.04424 -1.73577 0
M  V30 3435 H 332.001 -0.720744 -0.153936 0
M  V30 3436 H 334.643 -1.87586 0.30192 0
M  V30 3437 H 332.793 -3.58522 -1.49648 0
M  V30 3438 H 334.465 -4.51586 0.941682 0
M  V30 3439 H 332.708 -4.23194 0.953375 0
M  V30 3440 H 333.379 -5.51976 -0.0519883 0
M  V30 3441 H 335.855 -3.98075 -1.21143 0
M  V30 3442 H 334.731 -5.1047 -2.01771 0
M  V30 3443 H 334.992 -3.50494 -2.69456 0
M  V30 3444 N 334.051 0.0651679 -1.57465 0
M  V30 3445 C 334.998 1.07675 -2.04144 0
M  V30 3446 C 335.968 1.38071 -0.923335 0
M  V30 3447 O 337.153 1.49026 -1.19146 0
M  V30 3448 C 334.293 2.38337 -2.49579 0
M  V30 3449 C 333.406 2.14413 -3.75035 0
M  V30 3450 C 332.541 3.38686 -4.09225 0
M  V30 3451 C 331.58 3.10156 -5.27702 0
M  V30 3452 N 330.717 4.26778 -5.57499 0
M  V30 3453 H 335.557 0.671716 -2.90331 0
M  V30 3454 H 333.094 0.3201 -1.43575 0
M  V30 3455 H 335.052 3.14632 -2.73975 0
M  V30 3456 H 333.682 2.7663 -1.6636 0
M  V30 3457 H 332.734 1.2878 -3.57939 0
M  V30 3458 H 334.046 1.89344 -4.61466 0
M  V30 3459 H 333.2 4.23373 -4.34558 0
M  V30 3460 H 331.939 3.66837 -3.21374 0
M  V30 3461 H 330.944 2.23866 -5.02159 0
M  V30 3462 H 332.169 2.8332 -6.17176 0
M  V30 3463 H 330.115 4.54948 -4.72608 0
M  V30 3464 H 330.032 4.05005 -6.38362 0
M  V30 3465 H 331.3 5.12443 -5.87386 0
M  V30 3466 N 335.529 1.53961 0.336706 0
M  V30 3467 C 336.775 1.7179 1.07777 0
M  V30 3468 C 337.108 0.483263 1.88091 0
M  V30 3469 O 336.383 -0.519747 1.87427 0
M  V30 3470 C 336.666 2.98558 2.01334 0
M  V30 3471 C 336.519 4.32245 1.24437 0
M  V30 3472 C 337.838 3.21023 3.01052 0
M  V30 3473 H 334.957 0.625089 0.390426 0
M  V30 3474 H 337.599 1.86641 0.35567 0
M  V30 3475 H 335.749 2.86028 2.62908 0
M  V30 3476 H 337.421 4.56637 0.654243 0
M  V30 3477 H 335.664 4.30344 0.546458 0
M  V30 3478 H 336.335 5.17137 1.93063 0
M  V30 3479 H 338.811 3.32929 2.49595 0
M  V30 3480 H 337.687 4.11104 3.6371 0
M  V30 3481 H 337.948 2.37637 3.72802 0
M  V30 3482 N 337.007 -0.598083 1.45811 0
M  V30 3483 C 338.423 -0.919847 1.30426 0
M  V30 3484 C 338.623 -1.99759 0.264303 0
M  V30 3485 O 337.679 -2.50221 -0.338472 0
M  V30 3486 C 338.992 -1.35176 2.68603 0
M  V30 3487 C 340.54 -1.46546 2.76574 0
M  V30 3488 C 341.015 -1.9311 4.15298 0
M  V30 3489 N 342.506 -2.00328 4.1764 0
M  V30 3490 C 343.241 -2.37599 5.21856 0
M  V30 3491 N 342.737 -2.73771 6.36413 0
M  V30 3492 N 344.53 -2.38021 5.09218 0
M  V30 3493 H 336.681 0.114111 2.12093 0
M  V30 3494 H 338.944 -0.0116121 0.947929 0
M  V30 3495 H 338.65 -0.633969 3.45939 0
M  V30 3496 H 338.524 -2.3164 2.97696 0
M  V30 3497 H 340.911 -2.17415 1.99537 0
M  V30 3498 H 340.992 -0.483727 2.51185 0
M  V30 3499 H 340.636 -1.22824 4.92825 0
M  V30 3500 H 340.566 -2.92213 4.38086 0
M  V30 3501 H 343.057 -1.74925 3.34977 0
M  V30 3502 H 343.37 -3.0112 7.11721 0
M  V30 3503 H 341.715 -2.71445 6.39799 0
M  V30 3504 H 344.906 -2.09174 4.18765 0
M  V30 3505 H 345.079 -2.66741 5.90554 0
M  V30 3506 N 338.485 -1.33259 -0.841409 0
M  V30 3507 C 339.448 -1.23221 -1.9326 0
M  V30 3508 C 340.448 -0.151895 -1.60081 0
M  V30 3509 O 341.638 -0.403246 -1.69468 0
M  V30 3510 C 338.77 -0.898123 -3.28856 0
M  V30 3511 H 339.963 -2.2021 -2.03587 0
M  V30 3512 H 337.516 -1.17281 -1.03319 0
M  V30 3513 H 338.251 0.0693841 -3.24226 0
M  V30 3514 H 338.036 -1.67934 -3.54317 0
M  V30 3515 H 339.526 -0.852563 -4.08805 0
M  V30 3516 N 339.963 1.05934 -1.16686 0
M  V30 3517 C 340.926 2.11669 -0.879144 0
M  V30 3518 C 341.926 1.60294 0.127445 0
M  V30 3519 O 343.116 1.7389 -0.103865 0
M  V30 3520 C 340.248 3.39438 -0.315425 0
M  V30 3521 H 341.441 2.38626 -1.81653 0
M  V30 3522 H 338.994 1.22058 -0.976299 0
M  V30 3523 H 339.729 3.18132 0.629468 0
M  V30 3524 H 339.514 3.78034 -1.04079 0
M  V30 3525 H 341.004 4.17391 -0.132189 0
M  V30 3526 N 341.441 0.965919 1.2453 0
M  V30 3527 C 342.689 0.625593 1.92174 0
M  V30 3528 C 343.01 -0.841652 1.75901 0
M  V30 3529 O 342.28 -1.60061 1.12948 0
M  V30 3530 H 340.86 0.228388 0.71123 0
M  V30 3531 H 343.522 1.2266 1.51461 0
M  V30 3532 H 342.618 0.864653 2.99884 0
M  V30 3533 N 342.919 -1.39368 0.735821 0
M  V30 3534 C 344.165 -2.00794 0.284544 0
M  V30 3535 C 344.498 -1.58255 -1.12557 0
M  V30 3536 O 343.773 -0.811819 -1.76748 0
M  V30 3537 C 344.056 -3.58011 0.387337 0
M  V30 3538 C 343.909 -4.10566 1.83728 0
M  V30 3539 C 345.228 -4.395 -0.22975 0
M  V30 3540 H 342.347 -0.729501 0.104866 0
M  V30 3541 H 344.989 -1.65564 0.93213 0
M  V30 3542 H 343.139 -3.88154 -0.164006 0
M  V30 3543 H 344.811 -3.91139 2.44556 0
M  V30 3544 H 343.054 -3.64095 2.35833 0
M  V30 3545 H 343.725 -5.19702 1.86047 0
M  V30 3546 H 346.201 -4.15406 0.240257 0
M  V30 3547 H 345.077 -5.48752 -0.127485 0
M  V30 3548 H 345.338 -4.22062 -1.3159 0
M  V30 3549 N 344.397 -0.483516 -1.5 0
M  V30 3550 C 345.813 -0.138404 -1.58999 0
M  V30 3551 C 346.013 1.35597 -1.4905 0
M  V30 3552 O 345.069 2.13039 -1.35539 0
M  V30 3553 C 346.382 -0.699658 -2.92447 0
M  V30 3554 C 347.93 -0.664195 -3.05872 0
M  V30 3555 C 348.405 -1.20321 -4.41913 0
M  V30 3556 N 349.896 -1.16315 -4.48358 0
M  V30 3557 C 350.631 -1.55058 -5.52037 0
M  V30 3558 N 350.127 -2.01311 -6.62907 0
M  V30 3559 N 351.92 -1.46584 -5.42651 0
M  V30 3560 H 344.071 -1.45529 -1.5471 0
M  V30 3561 H 346.334 -0.60258 -0.731848 0
M  V30 3562 H 346.04 -1.747 -3.05242 0
M  V30 3563 H 345.914 -0.150194 -3.76901 0
M  V30 3564 H 348.301 0.374272 -2.92717 0
M  V30 3565 H 348.382 -1.25061 -2.23144 0
M  V30 3566 H 348.026 -2.24037 -4.55818 0
M  V30 3567 H 347.956 -0.592896 -5.23252 0
M  V30 3568 H 350.447 -0.824058 -3.68806 0
M  V30 3569 H 350.76 -2.2899 -7.38095 0
M  V30 3570 H 349.105 -2.05273 -6.63994 0
M  V30 3571 H 352.296 -1.10281 -4.54924 0
M  V30 3572 H 352.469 -1.77103 -6.23329 0
M  V30 3573 N 345.875 1.56104 -0.216619 0
M  V30 3574 C 347.121 1.98466 0.417033 0
M  V30 3575 C 347.454 1.10403 1.59765 0
M  V30 3576 O 346.729 0.160632 1.93836 0
M  V30 3577 C 347.012 3.49769 0.85637 0
M  V30 3578 C 346.865 4.48606 -0.327546 0
M  V30 3579 C 348.184 4.05339 1.7143 0
M  V30 3580 H 345.303 0.721551 0.150112 0
M  V30 3581 H 347.945 1.87423 -0.311864 0
M  V30 3582 H 346.095 3.5931 1.47745 0
M  V30 3583 H 347.767 4.5108 -0.965618 0
M  V30 3584 H 346.01 4.22682 -0.975805 0
M  V30 3585 H 346.681 5.51995 0.0227149 0
M  V30 3586 H 349.157 3.98712 1.19031 0
M  V30 3587 H 348.033 5.11533 1.99061 0
M  V30 3588 H 348.294 3.51918 2.67593 0
M  V30 3589 N 347.353 -0.0568162 1.57498 0
M  V30 3590 C 348.601 -0.751617 1.87604 0
M  V30 3591 C 348.922 -1.77351 0.81066 0
M  V30 3592 O 348.192 -1.95254 -0.159018 0
M  V30 3593 H 346.772 -0.280583 0.692302 0
M  V30 3594 H 349.434 -0.0293483 1.94878 0
M  V30 3595 H 348.53 -1.25852 2.856 0
M  V30 3596 N 348.832 -1.54138 -0.328536 0
M  V30 3597 C 350.072 -1.73827 -1.07534 0
M  V30 3598 C 350.436 -0.498777 -1.85408 0
M  V30 3599 O 351.637 -0.572937 -2.62623 0
M  V30 3600 C 349.908 -2.97573 -1.97952 0
M  V30 3601 S 351.467 -3.38143 -2.79652 0
M  V30 3602 H 348.285 -0.611287 -0.36311 0
M  V30 3603 H 350.887 -1.92306 -0.351931 0
M  V30 3604 H 349.591 -3.85939 -1.39569 0
M  V30 3605 H 349.122 -2.81603 -2.74706 0
M  V30 3606 H 351.137 -2.93052 -4.00418 0
M  V30 3607 N 350.31 0.590341 -1.46126 0
M  V30 3608 C 351.556 1.35082 -1.51264 0
M  V30 3609 C 351.889 1.93534 -0.160711 0
M  V30 3610 O 351.164 1.76045 0.826956 0
M  V30 3611 C 351.447 2.48588 -2.6053 0
M  V30 3612 C 351.3 1.95221 -4.05227 0
M  V30 3613 C 352.619 3.50662 -2.6594 0
M  V30 3614 H 349.738 0.489803 -0.550692 0
M  V30 3615 H 352.38 0.663887 -1.78024 0
M  V30 3616 H 350.53 3.07186 -2.37843 0
M  V30 3617 H 352.202 1.41139 -4.39178 0
M  V30 3618 H 350.445 1.26101 -4.15068 0
M  V30 3619 H 351.116 2.77121 -4.77397 0
M  V30 3620 H 353.592 3.01934 -2.86313 0
M  V30 3621 H 352.468 4.27551 -3.44226 0
M  V30 3622 H 352.729 4.07399 -1.71694 0
M  V30 3623 N 351.788 1.33704 0.83433 0
M  V30 3624 C 353.204 1.13137 1.12571 0
M  V30 3625 C 353.404 -0.0747261 2.01361 0
M  V30 3626 O 352.46 -0.753647 2.4099 0
M  V30 3627 C 353.773 2.42105 1.78342 0
M  V30 3628 C 355.321 2.48054 1.90888 0
M  V30 3629 C 355.796 3.76995 2.60075 0
M  V30 3630 N 357.287 3.78092 2.67584 0
M  V30 3631 C 358.022 4.74574 3.21818 0
M  V30 3632 N 357.518 5.81434 3.76705 0
M  V30 3633 N 359.311 4.62044 3.20112 0
M  V30 3634 H 351.462 2.11 0.243489 0
M  V30 3635 H 353.725 0.932532 0.17055 0
M  V30 3636 H 353.431 3.30391 1.20561 0
M  V30 3637 H 353.305 2.54594 2.7832 0
M  V30 3638 H 355.692 1.60215 2.47821 0
M  V30 3639 H 355.773 2.39502 0.898459 0
M  V30 3640 H 355.417 4.65219 2.03799 0
M  V30 3641 H 355.347 3.82825 3.61597 0
M  V30 3642 H 357.838 3.00865 2.28667 0
M  V30 3643 H 358.151 6.51084 4.16305 0
M  V30 3644 H 356.496 5.85163 3.7498 0
M  V30 3645 H 359.687 3.77716 2.76493 0
M  V30 3646 H 359.86 5.37406 3.62076 0
M  V30 3647 N 353.266 -1.05314 1.17247 0
M  V30 3648 C 354.682 -1.30452 0.919473 0
M  V30 3649 C 354.882 -1.9703 -0.42209 0
M  V30 3650 O 353.938 -2.24311 -1.15935 0
M  V30 3651 C 355.251 -2.17551 2.07586 0
M  V30 3652 C 356.799 -2.30937 2.11275 0
M  V30 3653 C 357.274 -3.21396 3.26296 0
M  V30 3654 N 358.765 -3.28981 3.26076 0
M  V30 3655 C 359.5 -3.99095 4.11716 0
M  V30 3656 N 358.996 -4.71648 5.07465 0
M  V30 3657 N 360.789 -3.95247 3.9967 0
M  V30 3658 H 352.94 -0.604988 2.03602 0
M  V30 3659 H 355.203 -0.329368 0.888944 0
M  V30 3660 H 354.909 -1.75921 3.0454 0
M  V30 3661 H 354.783 -3.18182 2.02584 0
M  V30 3662 H 357.17 -2.71809 1.14907 0
M  V30 3663 H 357.251 -1.2994 2.20339 0
M  V30 3664 H 356.895 -2.81238 4.22927 0
M  V30 3665 H 356.825 -4.22395 3.14467 0
M  V30 3666 H 359.316 -2.77286 2.5675 0
M  V30 3667 H 359.629 -5.22705 5.6921 0
M  V30 3668 H 357.974 -4.70594 5.11435 0
M  V30 3669 H 361.165 -3.37691 3.24164 0
M  V30 3670 H 361.338 -4.4962 4.66632 0
M  V30 3671 N 354.744 -0.972509 -1.24016 0
M  V30 3672 C 356.16 -0.679827 -1.44397 0
M  V30 3673 C 356.36 0.756716 -1.86751 0
M  V30 3674 O 355.416 1.53007 -2.00861 0
M  V30 3675 C 356.729 -1.66803 -2.50195 0
M  V30 3676 C 358.277 -1.68119 -2.64017 0
M  V30 3677 C 358.752 -2.65748 -3.73017 0
M  V30 3678 N 360.243 -2.64219 -3.8045 0
M  V30 3679 C 360.978 -3.36433 -4.64328 0
M  V30 3680 N 360.474 -4.1818 -5.52356 0
M  V30 3681 N 362.267 -3.25235 -4.58453 0
M  V30 3682 H 354.418 -1.90059 -0.948228 0
M  V30 3683 H 356.681 -0.818527 -0.478245 0
M  V30 3684 H 356.387 -2.69498 -2.25973 0
M  V30 3685 H 356.261 -1.4446 -3.48441 0
M  V30 3686 H 358.648 -0.661319 -2.87594 0
M  V30 3687 H 358.729 -1.94525 -1.66113 0
M  V30 3688 H 358.373 -3.67872 -3.50189 0
M  V30 3689 H 358.303 -2.36619 -4.70446 0
M  V30 3690 H 360.794 -2.04887 -3.17537 0
M  V30 3691 H 361.107 -4.70157 -6.13329 0
M  V30 3692 H 359.452 -4.22273 -5.52006 0
M  V30 3693 H 362.643 -2.60829 -3.88698 0
M  V30 3694 H 362.816 -3.81776 -5.23594 0
M  V30 3695 N 356.222 1.38976 -0.743202 0
M  V30 3696 C 357.447 2.05161 -0.303936 0
M  V30 3697 C 357.872 1.55677 1.05576 0
M  V30 3698 O 357.23 0.704131 1.67068 0
M  V30 3699 C 357.278 3.59138 -0.324373 0
M  V30 3700 O 356.382 4.06668 0.685204 0
M  V30 3701 H 355.723 0.649815 -0.136518 0
M  V30 3702 H 358.253 1.77852 -1.01142 0
M  V30 3703 H 358.263 4.07639 -0.171618 0
M  V30 3704 H 356.938 3.94515 -1.31647 0
M  V30 3705 H 355.515 3.69561 0.497913 0
M  V30 3706 N 357.7 0.491464 1.49741 0
M  V30 3707 C 358.61 -0.296835 2.32715 0
M  V30 3708 C 359.626 -0.976536 1.44013 0
M  V30 3709 O 360.802 -0.960023 1.77047 0
M  V30 3710 C 357.867 -1.35288 3.19215 0
M  V30 3711 C 356.928 -0.687632 4.23757 0
M  V30 3712 C 356.161 -1.69336 5.06123 0
M  V30 3713 O 356.384 -2.92219 4.89861 0
M  V30 3714 O 355.318 -1.25394 5.88693 0
M  V30 3715 H 359.144 0.382048 3.01287 0
M  V30 3716 H 356.729 0.252953 1.47243 0
M  V30 3717 H 358.611 -1.96411 3.72828 0
M  V30 3718 H 357.286 -2.01487 2.53347 0
M  V30 3719 H 356.193 -0.0369159 3.74082 0
M  V30 3720 H 357.526 -0.0682566 4.92153 0
M  V30 3721 N 359.178 -1.55987 0.224894 0
M  V30 3722 C 360.594 -1.59066 -0.130426 0
M  V30 3723 C 360.794 -1.24176 -1.5869 0
M  V30 3724 O 359.85 -0.978592 -2.32766 0
M  V30 3725 C 361.163 -3.00042 0.198883 0
M  V30 3726 C 362.711 -3.1268 0.141391 0
M  V30 3727 C 363.186 -4.55839 0.444422 0
M  V30 3728 N 364.677 -4.6152 0.394115 0
M  V30 3729 C 365.412 -5.70231 0.602038 0
M  V30 3730 N 364.908 -6.87291 0.871914 0
M  V30 3731 N 366.701 -5.59555 0.534245 0
M  V30 3732 H 358.852 -1.76941 1.17497 0
M  V30 3733 H 361.115 -0.822604 0.471197 0
M  V30 3734 H 360.821 -3.30234 1.2099 0
M  V30 3735 H 360.695 -3.74075 -0.484535 0
M  V30 3736 H 363.082 -2.82283 -0.860265 0
M  V30 3737 H 363.163 -2.40969 0.858335 0
M  V30 3738 H 362.807 -4.86954 1.44353 0
M  V30 3739 H 362.737 -5.2578 -0.293752 0
M  V30 3740 H 365.228 -3.77405 0.193356 0
M  V30 3741 H 365.541 -7.66058 1.01858 0
M  V30 3742 H 363.886 -6.89028 0.909145 0
M  V30 3743 H 367.077 -4.6698 0.323612 0
M  V30 3744 H 367.25 -6.44211 0.699693 0
M  V30 3745 N 360.656 0.0484629 -1.57525 0
M  V30 3746 C 361.603 1.05504 -2.05275 0
M  V30 3747 C 362.573 1.37084 -0.937927 0
M  V30 3748 O 363.758 1.47754 -1.2072 0
M  V30 3749 C 360.898 2.35676 -2.52093 0
M  V30 3750 C 360.011 2.10423 -3.77288 0
M  V30 3751 C 359.146 3.34327 -4.12794 0
M  V30 3752 C 358.185 3.04542 -5.30962 0
M  V30 3753 N 357.322 4.20841 -5.61994 0
M  V30 3754 H 362.162 0.640885 -2.91027 0
M  V30 3755 H 359.699 0.304854 -1.43906 0
M  V30 3756 H 361.657 3.11709 -2.77297 0
M  V30 3757 H 360.287 2.7485 -1.69285 0
M  V30 3758 H 359.339 1.24976 -3.59284 0
M  V30 3759 H 360.651 1.84438 -4.63448 0
M  V30 3760 H 359.805 4.1874 -4.39024 0
M  V30 3761 H 358.544 3.63408 -3.25247 0
M  V30 3762 H 357.549 2.18528 -5.04505 0
M  V30 3763 H 358.774 2.76758 -6.20146 0
M  V30 3764 H 356.72 4.4991 -4.77406 0
M  V30 3765 H 356.637 3.98212 -6.42622 0
M  V30 3766 H 357.905 5.06184 -5.92789 0
M  V30 3767 N 362.134 1.5431 0.320358 0
M  V30 3768 C 363.38 1.72924 1.05949 0
M  V30 3769 C 363.713 0.503185 1.87568 0
M  V30 3770 O 362.988 -0.499839 1.87968 0
M  V30 3771 C 363.271 3.00676 1.98156 0
M  V30 3772 C 363.124 4.3354 1.19845 0
M  V30 3773 C 364.443 3.24198 2.9763 0
M  V30 3774 H 361.562 0.629195 0.383774 0
M  V30 3775 H 364.204 1.87008 0.335854 0
M  V30 3776 H 362.354 2.888 2.59859 0
M  V30 3777 H 364.026 4.57305 0.605773 0
M  V30 3778 H 362.269 4.309 0.500784 0
M  V30 3779 H 362.94 5.19156 1.87567 0
M  V30 3780 H 365.416 3.35557 2.4605 0
M  V30 3781 H 364.292 4.14938 3.59329 0
M  V30 3782 H 364.553 2.41577 3.7026 0
M  V30 3783 N 363.613 -0.582584 1.46437 0
M  V30 3784 C 364.841 -1.36682 1.55324 0
M  V30 3785 C 365.256 -1.87796 0.194409 0
M  V30 3786 O 364.613 -1.63623 -0.808318 0
M  V30 3787 C 364.664 -2.55426 2.55812 0
M  V30 3788 O 364.385 -2.0643 3.86417 0
M  V30 3789 C 365.886 -3.47976 2.74641 0
M  V30 3790 H 363.106 -0.417545 0.525259 0
M  V30 3791 H 365.65 -0.708219 1.91845 0
M  V30 3792 H 363.805 -3.17275 2.22295 0
M  V30 3793 H 364.219 -2.83762 4.41111 0
M  V30 3794 H 365.693 -4.27775 3.48874 0
M  V30 3795 H 366.17 -3.99919 1.81553 0
M  V30 3796 H 366.776 -2.91962 3.09255 0
M  V30 3797 N 365.091 -1.34144 -0.827227 0
M  V30 3798 C 366.507 -1.13732 -1.11969 0
M  V30 3799 C 366.707 0.0640463 -2.01398 0
M  V30 3800 O 365.763 0.740856 -2.41387 0
M  V30 3801 C 367.076 -2.43047 -1.77055 0
M  V30 3802 C 368.624 -2.49063 -1.89569 0
M  V30 3803 C 369.099 -3.78369 -2.58072 0
M  V30 3804 N 370.59 -3.79505 -2.65575 0
M  V30 3805 C 371.325 -4.76274 -3.19297 0
M  V30 3806 N 370.821 -5.83424 -3.73616 0
M  V30 3807 N 372.614 -4.63735 -3.17658 0
M  V30 3808 H 364.765 -2.11126 -0.232296 0
M  V30 3809 H 367.028 -0.933424 -0.165602 0
M  V30 3810 H 366.734 -3.31025 -1.18807 0
M  V30 3811 H 366.608 -2.56066 -2.76966 0
M  V30 3812 H 368.995 -1.61527 -2.46968 0
M  V30 3813 H 369.076 -2.39975 -0.885745 0
M  V30 3814 H 368.72 -4.66293 -2.01329 0
M  V30 3815 H 368.65 -3.84737 -3.59562 0
M  V30 3816 H 371.141 -3.02074 -2.27068 0
M  V30 3817 H 371.454 -6.53282 -4.12846 0
M  V30 3818 H 369.799 -5.87143 -3.71871 0
M  V30 3819 H 372.99 -3.79177 -2.74486 0
M  V30 3820 H 373.163 -5.39318 -3.59221 0
M  V30 3821 N 366.569 1.04691 -1.17803 0
M  V30 3822 C 367.502 2.12068 -0.842765 0
M  V30 3823 C 368.48 1.61455 0.192608 0
M  V30 3824 O 369.664 1.88359 0.072995 0
M  V30 3825 C 366.791 3.37715 -0.258063 0
M  V30 3826 C 365.837 4.07164 -1.26962 0
M  V30 3827 S 366.67 4.55047 -2.82299 0
M  V30 3828 C 367.826 5.83935 -2.25323 0
M  V30 3829 H 368.059 2.4018 -1.75217 0
M  V30 3830 H 365.592 1.17366 -1.00323 0
M  V30 3831 H 367.55 4.10435 0.0727935 0
M  V30 3832 H 366.211 3.0773 0.629357 0
M  V30 3833 H 365.404 4.9746 -0.809263 0
M  V30 3834 H 365.006 3.40533 -1.54639 0
M  V30 3835 H 367.298 6.57552 -1.63192 0
M  V30 3836 H 368.241 6.34725 -3.13894 0
M  V30 3837 H 368.649 5.3874 -1.68582 0
M  V30 3838 N 368.047 0.979072 1.23499 0
M  V30 3839 C 369.293 0.648178 1.92163 0
M  V30 3840 C 369.626 -0.816049 1.76222 0
M  V30 3841 O 368.901 -1.58849 1.12237 0
M  V30 3842 C 369.184 1.03773 3.44824 0
M  V30 3843 C 369.037 2.55948 3.69879 0
M  V30 3844 C 370.356 0.580653 4.36253 0
M  V30 3845 H 367.475 0.236952 0.69787 0
M  V30 3846 H 370.117 1.22012 1.45647 0
M  V30 3847 H 368.267 0.551058 3.84572 0
M  V30 3848 H 369.939 3.12179 3.3962 0
M  V30 3849 H 368.182 2.98641 3.14636 0
M  V30 3850 H 368.853 2.78255 4.76737 0
M  V30 3851 H 371.329 0.998465 4.03943 0
M  V30 3852 H 370.205 0.881663 5.41773 0
M  V30 3853 H 370.466 -0.519052 4.39042 0
M  V30 3854 N 369.525 -1.3858 0.750561 0
M  V30 3855 C 370.455 -2.33102 0.136237 0
M  V30 3856 C 371.436 -1.54713 -0.706965 0
M  V30 3857 O 372.621 -1.83043 -0.648769 0
M  V30 3858 C 369.751 -3.38882 -0.760017 0
M  V30 3859 C 368.705 -4.27995 -0.0197785 0
M  V30 3860 C 368.031 -5.24605 -1.03408 0
M  V30 3861 C 369.331 -5.09554 1.14684 0
M  V30 3862 H 371.025 -2.84726 0.925822 0
M  V30 3863 H 368.571 -1.36898 0.446654 0
M  V30 3864 H 370.524 -4.0397 -1.19943 0
M  V30 3865 H 369.248 -2.85734 -1.58189 0
M  V30 3866 H 367.907 -3.64409 0.400184 0
M  V30 3867 H 367.555 -4.67746 -1.84994 0
M  V30 3868 H 367.255 -5.85081 -0.543464 0
M  V30 3869 H 368.779 -5.9257 -1.47288 0
M  V30 3870 H 370.193 -5.67899 0.785118 0
M  V30 3871 H 368.59 -5.7925 1.56812 0
M  V30 3872 H 369.66 -4.4347 1.96118 0
M  V30 3873 N 371.003 -0.499398 -1.49478 0
M  V30 3874 C 372.249 0.0457576 -2.02748 0
M  V30 3875 C 372.582 1.36793 -1.37846 0
M  V30 3876 O 371.857 1.87596 -0.513601 0
M  V30 3877 C 372.14 0.199986 -3.59544 0
M  V30 3878 C 371.993 -1.1452 -4.34977 0
M  V30 3879 C 373.312 0.94137 -4.29914 0
M  V30 3880 H 370.431 0.0151552 -0.736844 0
M  V30 3881 H 373.073 -0.650498 -1.78518 0
M  V30 3882 H 371.223 0.793007 -3.8032 0
M  V30 3883 H 372.895 -1.77697 -4.25701 0
M  V30 3884 H 371.138 -1.73488 -3.97598 0
M  V30 3885 H 371.809 -0.990607 -5.43039 0
M  V30 3886 H 374.285 0.43844 -4.13784 0
M  V30 3887 H 373.161 1.01812 -5.39375 0
M  V30 3888 H 373.422 1.98471 -3.95046 0
M  V30 3889 N 372.481 1.55866 -0.233164 0
M  V30 3890 C 373.727 1.98897 0.395959 0
M  V30 3891 C 374.06 1.12091 1.58585 0
M  V30 3892 O 373.335 0.181182 1.93654 0
M  V30 3893 C 373.618 3.50658 0.819224 0
M  V30 3894 C 373.471 4.48233 -0.375109 0
M  V30 3895 C 374.79 4.07135 1.67121 0
M  V30 3896 H 371.909 0.723102 0.142451 0
M  V30 3897 H 374.551 1.87082 -0.331725 0
M  V30 3898 H 372.701 3.60857 1.43925 0
M  V30 3899 H 374.373 4.50031 -1.01341 0
M  V30 3900 H 372.616 4.21624 -1.02058 0
M  V30 3901 H 373.287 5.51988 -0.0358328 0
M  V30 3902 H 375.763 3.99952 1.14795 0
M  V30 3903 H 374.639 5.13615 1.93625 0
M  V30 3904 H 374.9 3.54736 2.63846 0
M  V30 3905 N 373.959 -0.0401083 1.57549 0
M  V30 3906 C 375.205 -0.734211 1.89043 0
M  V30 3907 C 375.538 -1.75591 0.829535 0
M  V30 3908 O 374.813 -1.93868 -0.156706 0
M  V30 3909 C 375.096 -1.41374 3.31188 0
M  V30 3910 C 374.949 -0.406299 4.47961 0
M  V30 3911 C 376.268 -2.35061 3.72068 0
M  V30 3912 H 373.387 -0.265447 0.687537 0
M  V30 3913 H 376.029 0.00294087 1.9 0
M  V30 3914 H 374.179 -2.04206 3.30503 0
M  V30 3915 H 375.851 0.219255 4.60779 0
M  V30 3916 H 374.094 0.275485 4.32924 0
M  V30 3917 H 374.765 -0.920022 5.44279 0
M  V30 3918 H 377.241 -1.82282 3.74049 0
M  V30 3919 H 376.117 -2.79593 4.72355 0
M  V30 3920 H 376.378 -3.21258 3.0372 0
M  V30 3921 N 375.437 -1.54477 -0.31217 0
M  V30 3922 C 376.367 -1.87652 -1.38957 0
M  V30 3923 C 377.348 -0.734358 -1.53431 0
M  V30 3924 O 378.533 -0.98911 -1.67123 0
M  V30 3925 C 375.663 -2.11396 -2.75552 0
M  V30 3926 C 374.617 -3.27243 -2.75855 0
M  V30 3927 C 373.943 -3.36382 -4.15633 0
M  V30 3928 C 375.243 -4.64622 -2.38587 0
M  V30 3929 H 376.937 -2.77887 -1.11442 0
M  V30 3930 H 374.483 -1.33707 -0.534655 0
M  V30 3931 H 376.436 -2.33189 -3.51 0
M  V30 3932 H 375.16 -1.17921 -3.04569 0
M  V30 3933 H 373.819 -3.05356 -2.02863 0
M  V30 3934 H 373.467 -2.40445 -4.41809 0
M  V30 3935 H 373.167 -4.14249 -4.1674 0
M  V30 3936 H 374.691 -3.60422 -4.92877 0
M  V30 3937 H 376.105 -4.86219 -3.03749 0
M  V30 3938 H 374.502 -5.45121 -2.50925 0
M  V30 3939 H 375.572 -4.66097 -1.33723 0
M  V30 3940 N 376.915 0.57481 -1.46744 0
M  V30 3941 C 378.161 1.3347 -1.52688 0
M  V30 3942 C 378.494 1.93353 -0.181229 0
M  V30 3943 O 377.769 1.76912 0.808237 0
M  V30 3944 C 378.052 2.45811 -2.63152 0
M  V30 3945 C 377.905 1.90912 -4.07275 0
M  V30 3946 C 379.224 3.47822 -2.69644 0
M  V30 3947 H 376.343 0.483935 -0.555856 0
M  V30 3948 H 378.985 0.644968 -1.78718 0
M  V30 3949 H 377.135 3.04646 -2.41088 0
M  V30 3950 H 378.807 1.36473 -4.4065 0
M  V30 3951 H 377.05 1.21691 -4.16382 0
M  V30 3952 H 377.721 2.72042 -4.80309 0
M  V30 3953 H 380.197 2.9888 -2.895 0
M  V30 3954 H 379.073 4.23876 -3.48742 0
M  V30 3955 H 379.334 4.05555 -1.76005 0
M  V30 3956 N 378.394 1.34581 0.820102 0
M  V30 3957 C 379.641 1.27096 1.57648 0
M  V30 3958 C 379.969 -0.158317 1.93855 0
M  V30 3959 O 379.224 -1.12028 1.60463 0
M  V30 3960 C 379.523 2.10997 2.8847 0
M  V30 3961 C 379.189 3.59966 2.71543 0
M  V30 3962 C 377.851 4.00575 2.66634 0
M  V30 3963 C 380.203 4.54548 2.55021 0
M  V30 3964 C 377.531 5.33953 2.43128 0
M  V30 3965 C 379.883 5.88109 2.33047 0
M  V30 3966 C 378.547 6.27878 2.26552 0
M  V30 3967 H 377.817 0.465078 0.576874 0
M  V30 3968 H 380.464 1.6635 0.948671 0
M  V30 3969 H 378.769 1.6458 3.55557 0
M  V30 3970 H 380.466 2.0255 3.46084 0
M  V30 3971 H 377.056 3.27733 2.76205 0
M  V30 3972 H 381.24 4.24069 2.57835 0
M  V30 3973 H 376.496 5.63781 2.3656 0
M  V30 3974 H 380.67 6.60985 2.19251 0
M  V30 3975 H 378.297 7.31162 2.081 0
M  V30 3976 N 379.872 -1.04064 1.18357 0
M  V30 3977 C 380.835 -2.10243 0.912707 0
M  V30 3978 C 381.835 -1.60477 -0.101928 0
M  V30 3979 O 383.025 -1.73703 0.131517 0
M  V30 3980 C 380.157 -3.38893 0.369387 0
M  V30 3981 H 381.35 -2.35706 1.85426 0
M  V30 3982 H 378.903 -1.20489 0.995594 0
M  V30 3983 H 379.638 -3.19094 -0.578776 0
M  V30 3984 H 379.423 -3.76331 1.1008 0
M  V30 3985 H 380.913 -4.17128 0.198575 0
M  V30 3986 N 381.35 -0.985608 -1.22978 0
M  V30 3987 C 382.598 -0.656087 -1.91154 0
M  V30 3988 C 382.919 0.813561 -1.77218 0
M  V30 3989 O 382.189 1.58244 -1.1548 0
M  V30 3990 H 380.769 -0.239674 -0.707506 0
M  V30 3991 H 383.431 -1.25054 -1.49491 0
M  V30 3992 H 382.527 -0.912253 -2.9847 0
M  V30 3993 N 382.828 1.3818 -0.7579 0
M  V30 3994 C 384.068 2.01864 -0.320968 0
M  V30 3995 C 384.432 1.58863 1.07827 0
M  V30 3996 O 385.633 2.14908 1.61456 0
M  V30 3997 C 383.904 3.54626 -0.44446 0
M  V30 3998 S 385.463 4.38706 -0.0907467 0
M  V30 3999 H 382.281 0.700056 -0.124268 0
M  V30 4000 H 384.883 1.68611 -0.989468 0
M  V30 4001 H 383.587 3.83411 -1.4637 0
M  V30 4002 H 383.118 3.92661 0.241073 0
M  V30 4003 H 385.133 4.83435 1.11826 0
M  V30 4004 N 384.306 0.507319 1.49211 0
M  V30 4005 C 385.552 -0.0269732 2.03382 0
M  V30 4006 C 385.907 -1.34111 1.37957 0
M  V30 4007 O 385.2 -1.84733 0.508351 0
M  V30 4008 C 385.394 -0.229513 3.56662 0
M  V30 4009 C 385.223 1.06344 4.36945 0
M  V30 4010 C 383.993 1.617 4.78729 0
M  V30 4011 C 386.191 1.96833 4.75143 0
M  V30 4012 N 384.173 2.8552 5.43463 0
M  V30 4013 C 385.544 3.0523 5.39661 0
M  V30 4014 C 387.599 1.97434 4.57082 0
M  V30 4015 C 386.302 4.14265 5.88028 0
M  V30 4016 C 388.328 3.05448 5.06414 0
M  V30 4017 C 387.69 4.12564 5.70938 0
M  V30 4018 H 383.789 0.0310673 0.781383 0
M  V30 4019 H 386.373 0.683579 1.82305 0
M  V30 4020 H 384.544 -0.909127 3.7761 0
M  V30 4021 H 386.276 -0.761377 3.97473 0
M  V30 4022 H 383.031 1.16132 4.59141 0
M  V30 4023 H 383.455 3.48499 5.80412 0
M  V30 4024 H 388.097 1.15924 4.06597 0
M  V30 4025 H 385.815 4.96569 6.3753 0
M  V30 4026 H 389.401 3.06941 4.94246 0
M  V30 4027 H 388.281 4.94767 6.0842 0
M  V30 4028 N 385.784 -1.5574 0.241426 0
M  V30 4029 C 386.714 -2.24133 -0.654722 0
M  V30 4030 C 387.695 -1.21974 -1.1856 0
M  V30 4031 O 388.88 -1.50612 -1.22595 0
M  V30 4032 C 386.01 -2.93659 -1.85423 0
M  V30 4033 C 384.964 -4.0246 -1.45636 0
M  V30 4034 C 384.29 -4.59383 -2.73626 0
M  V30 4035 C 385.59 -5.18468 -0.631506 0
M  V30 4036 H 387.284 -2.99281 -0.0844353 0
M  V30 4037 H 384.83 -1.43947 -0.0391707 0
M  V30 4038 H 386.783 -3.40203 -2.48676 0
M  V30 4039 H 385.507 -2.15991 -2.44981 0
M  V30 4040 H 384.166 -3.56676 -0.847202 0
M  V30 4041 H 383.814 -3.78422 -3.3137 0
M  V30 4042 H 383.514 -5.32826 -2.4773 0
M  V30 4043 H 385.038 -5.08658 -3.37786 0
M  V30 4044 H 386.452 -5.61272 -1.1682 0
M  V30 4045 H 384.849 -5.98266 -0.468831 0
M  V30 4046 H 385.919 -4.8358 0.357506 0
M  V30 4047 N 387.262 0.0317525 -1.57568 0
M  V30 4048 C 388.673 0.578692 -1.77505 0
M  V30 4049 C 389.024 1.75749 -0.872164 0
M  V30 4050 O 388.149 2.16298 -0.0663106 0
M  V30 4051 C 388.744 1.05658 -3.21904 0
M  V30 4052 C 387.303 1.54906 -3.43047 0
M  V30 4053 C 386.45 0.485939 -2.73009 0
M  V30 4054 H 389.401 -0.194475 -1.57504 0
M  V30 4055 H 389.422 1.92404 -3.28269 0
M  V30 4056 H 388.934 0.198422 -3.87592 0
M  V30 4057 H 387.035 2.42915 -2.82529 0
M  V30 4058 H 387.148 1.59841 -4.5165 0
M  V30 4059 H 385.512 0.940354 -2.36705 0
M  V30 4060 H 386.295 -0.362709 -3.41379 0
M  V30 4061 N 388.74 1.54641 0.303973 0
M  V30 4062 C 389.987 1.7378 1.03955 0
M  V30 4063 C 390.315 0.521986 1.87365 0
M  V30 4064 O 389.57 -0.496099 1.89308 0
M  V30 4065 C 389.869 2.97753 1.97681 0
M  V30 4066 C 389.535 4.31671 1.30271 0
M  V30 4067 C 388.197 4.68075 1.11619 0
M  V30 4068 C 390.549 5.147 0.82055 0
M  V30 4069 C 387.877 5.8509 0.434304 0
M  V30 4070 C 390.229 6.32416 0.152395 0
M  V30 4071 C 388.893 6.67484 -0.0461067 0
M  V30 4072 H 388.163 0.635908 0.380398 0
M  V30 4073 H 390.81 1.88896 0.314718 0
M  V30 4074 H 389.115 2.77406 2.76682 0
M  V30 4075 H 390.812 3.09756 2.54661 0
M  V30 4076 H 387.402 4.03041 1.45795 0
M  V30 4077 H 391.586 4.87077 0.952374 0
M  V30 4078 H 386.842 6.10806 0.269495 0
M  V30 4079 H 391.016 6.96023 -0.229126 0
M  V30 4080 H 388.643 7.58011 -0.576494 0
M  V30 4081 N 390.218 -0.567019 1.47046 0
M  V30 4082 C 391.465 -1.32462 1.53167 0
M  V30 4083 C 391.793 -1.93571 0.189841 0
M  V30 4084 O 391.048 -1.77865 -0.816243 0
M  V30 4085 C 391.347 -2.4623 2.59047 0
M  V30 4086 C 391.013 -2.03014 4.02612 0
M  V30 4087 C 389.675 -1.90944 4.41694 0
M  V30 4088 C 392.027 -1.69895 4.92732 0
M  V30 4089 C 389.355 -1.44035 5.68745 0
M  V30 4090 C 391.707 -1.2446 6.20236 0
M  V30 4091 C 390.371 -1.10979 6.5821 0
M  V30 4092 H 389.641 -0.484713 0.560477 0
M  V30 4093 H 392.288 -0.636888 1.80599 0
M  V30 4094 H 390.593 -3.20517 2.25335 0
M  V30 4095 H 392.29 -3.04427 2.61008 0
M  V30 4096 H 388.88 -2.13348 3.71726 0
M  V30 4097 H 393.064 -1.78098 4.63244 0
M  V30 4098 H 388.32 -1.32254 5.96925 0
M  V30 4099 H 392.494 -0.978924 6.89485 0
M  V30 4100 H 390.121 -0.744078 7.5655 0
M  V30 4101 N 391.696 -1.35014 -0.812953 0
M  V30 4102 C 392.924 -1.31031 -1.6012 0
M  V30 4103 C 393.339 0.113558 -1.88458 0
M  V30 4104 O 392.696 1.06363 -1.48301 0
M  V30 4105 C 392.747 -2.10872 -2.93624 0
M  V30 4106 O 392.468 -3.47706 -2.66518 0
M  V30 4107 C 393.969 -2.14401 -3.88004 0
M  V30 4108 H 391.189 -0.45037 -0.497401 0
M  V30 4109 H 393.733 -1.77775 -1.01076 0
M  V30 4110 H 391.888 -1.67744 -3.492 0
M  V30 4111 H 392.302 -3.89097 -3.51715 0
M  V30 4112 H 393.776 -2.74669 -4.78812 0
M  V30 4113 H 394.253 -1.14105 -4.24119 0
M  V30 4114 H 394.859 -2.57662 -3.38364 0
M  V30 4115 N 393.175 1.03435 -1.18907 0
M  V30 4116 C 394.421 1.77005 -0.989798 0
M  V30 4117 C 394.754 1.88205 0.478816 0
M  V30 4118 O 394.029 1.39481 1.35556 0
M  V30 4119 C 394.312 3.19925 -1.65287 0
M  V30 4120 C 394.165 3.1663 -3.19477 0
M  V30 4121 C 395.484 4.18189 -1.37134 0
M  V30 4122 H 392.603 0.642538 -0.360991 0
M  V30 4123 H 395.245 1.20784 -1.46667 0
M  V30 4124 H 393.395 3.67929 -1.24741 0
M  V30 4125 H 395.067 2.76567 -3.692 0
M  V30 4126 H 393.31 2.54491 -3.51307 0
M  V30 4127 H 393.981 4.1758 -3.61013 0
M  V30 4128 H 396.457 3.78761 -1.72276 0
M  V30 4129 H 395.333 5.16394 -1.86087 0
M  V30 4130 H 395.594 4.41112 -0.295424 0
M  V30 4131 N 394.653 0.992116 1.22453 0
M  V30 4132 C 395.601 0.534644 2.26372 0
M  V30 4133 C 396.595 -0.414293 1.64256 0
M  V30 4134 O 397.801 -0.286899 1.77699 0
M  V30 4135 H 394.176 0.154502 0.735957 0
M  V30 4136 H 396.147 1.42256 2.62309 0
M  V30 4137 C 394.896 -0.135815 3.47435 0
M  V30 4138 H 394.219 0.585311 3.95492 0
M  V30 4139 H 395.659 -0.419374 4.21921 0
M  V30 4140 C 394.118 -1.37089 3.07747 0
M  V30 4141 O 394.648 -2.46629 3.17076 0
M  V30 4142 N 392.854 -1.24585 2.62539 0
M  V30 4143 H 392.401 -0.354542 2.55149 0
M  V30 4144 H 392.359 -2.07327 2.36353 0
M  V30 4145 N 396.131 -1.37776 0.765217 0
M  V30 4146 C 397.38 -1.99092 0.323307 0
M  V30 4147 C 397.693 -1.61434 -1.10446 0
M  V30 4148 O 398.899 -2.15805 -1.64743 0
M  V30 4149 C 397.355 -3.56019 0.527098 0
M  V30 4150 C 396.963 -4.0262 1.96471 0
M  V30 4151 C 398.707 -4.2424 0.148483 0
M  V30 4152 C 396.614 -5.52233 2.11644 0
M  V30 4153 H 395.544 -0.744846 0.117137 0
M  V30 4154 H 398.195 -1.57391 0.943417 0
M  V30 4155 H 396.577 -3.95667 -0.162372 0
M  V30 4156 H 397.751 -3.74234 2.68859 0
M  V30 4157 H 396.066 -3.47161 2.29931 0
M  V30 4158 H 398.663 -5.34159 0.240456 0
M  V30 4159 H 399.006 -4.06446 -0.900422 0
M  V30 4160 H 399.539 -3.89872 0.79025 0
M  V30 4161 H 396.278 -5.74945 3.1483 0
M  V30 4162 H 395.798 -5.82324 1.4373 0
M  V30 4163 H 397.477 -6.18106 1.91193 0
M  V30 4164 N 397.609 -0.515225 -1.4894 0
M  V30 4165 C 398.855 0.0242508 -2.02785 0
M  V30 4166 C 399.188 1.35323 -1.39289 0
M  V30 4167 O 398.463 1.87041 -0.533469 0
M  V30 4168 C 398.746 0.16184 -3.59736 0
M  V30 4169 C 398.599 -1.19127 -4.33738 0
M  V30 4170 C 399.918 0.895719 -4.30888 0
M  V30 4171 H 397.037 0.00733914 -0.736963 0
M  V30 4172 H 399.679 -0.669395 -1.77818 0
M  V30 4173 H 397.829 0.752624 -3.8114 0
M  V30 4174 H 399.501 -1.82202 -4.23792 0
M  V30 4175 H 397.744 -1.77695 -3.95736 0
M  V30 4176 H 398.415 -1.04815 -5.41957 0
M  V30 4177 H 400.891 0.394528 -4.14225 0
M  V30 4178 H 399.767 0.960859 -5.40425 0
M  V30 4179 H 400.028 1.9427 -3.97129 0
M  V30 4180 N 399.087 1.5561 -0.249682 0
M  V30 4181 C 400.035 2.22894 0.664906 0
M  V30 4182 C 401.029 1.21743 1.17792 0
M  V30 4183 O 402.235 1.39748 1.13449 0
M  V30 4184 H 398.61 0.715022 0.232912 0
M  V30 4185 H 400.581 2.98307 0.0742998 0
M  V30 4186 C 399.33 2.94424 1.84959 0
M  V30 4187 H 398.653 3.72031 1.46399 0
M  V30 4188 H 400.093 3.44862 2.4667 0
M  V30 4189 C 398.552 1.98454 2.72245 0
M  V30 4190 O 399.082 1.51939 3.71857 0
M  V30 4191 N 397.288 1.65496 2.38871 0
M  V30 4192 H 396.835 2.03517 1.57919 0
M  V30 4193 H 396.793 1.0155 2.97548 0
M  V30 4194 N 400.565 -0.0233959 1.57583 0
M  V30 4195 C 401.495 -1.02162 2.09965 0
M  V30 4196 C 402.476 -1.3735 1.00344 0
M  V30 4197 O 403.661 -1.46135 1.27899 0
M  V30 4198 C 400.791 -2.32081 2.58371 0
M  V30 4199 C 399.745 -2.1112 3.72307 0
M  V30 4200 C 399.071 -3.46848 4.06941 0
M  V30 4201 C 400.371 -1.49276 5.00514 0
M  V30 4202 H 402.065 -0.585557 2.93618 0
M  V30 4203 H 399.611 -0.280218 1.41247 0
M  V30 4204 H 401.564 -3.02249 2.93639 0
M  V30 4205 H 400.288 -2.77758 1.71808 0
M  V30 4206 H 398.947 -1.43384 3.37397 0
M  V30 4207 H 398.595 -3.90184 3.17436 0
M  V30 4208 H 398.295 -3.33646 4.83688 0
M  V30 4209 H 399.819 -4.18369 4.44747 0
M  V30 4210 H 401.233 -2.09368 5.33702 0
M  V30 4211 H 399.63 -1.46632 5.8191 0
M  V30 4212 H 400.7 -0.459217 4.82721 0
M  V30 4213 N 402.043 -1.548 -0.295768 0
M  V30 4214 C 403.006 -1.85363 -1.34808 0
M  V30 4215 C 404.006 -0.726817 -1.43436 0
M  V30 4216 O 405.196 -0.995088 -1.42981 0
M  V30 4217 C 402.328 -2.03859 -2.73229 0
M  V30 4218 H 403.521 -2.7941 -1.08949 0
M  V30 4219 H 401.074 -1.46942 -0.532702 0
M  V30 4220 H 401.809 -1.12117 -3.04303 0
M  V30 4221 H 401.594 -2.8588 -2.68356 0
M  V30 4222 H 403.084 -2.28857 -3.49305 0
M  V30 4223 N 403.521 0.559213 -1.47345 0
M  V30 4224 C 404.767 1.31843 -1.54095 0
M  V30 4225 C 405.1 1.93149 -0.201726 0
M  V30 4226 O 404.375 1.77759 0.789428 0
M  V30 4227 C 404.658 2.43006 -2.65744 0
M  V30 4228 C 404.511 1.86581 -4.09277 0
M  V30 4229 C 405.83 3.44943 -2.73318 0
M  V30 4230 H 402.949 0.478012 -0.560957 0
M  V30 4231 H 405.591 0.625977 -1.79392 0
M  V30 4232 H 403.741 3.02072 -2.44305 0
M  V30 4233 H 405.413 1.31792 -4.42073 0
M  V30 4234 H 403.656 1.17268 -4.17649 0
M  V30 4235 H 404.327 2.66933 -4.83168 0
M  V30 4236 H 406.803 2.95793 -2.92653 0
M  V30 4237 H 405.679 4.20153 -3.53218 0
M  V30 4238 H 405.94 4.03665 -1.80296 0
M  V30 4239 N 404.999 1.35443 0.805782 0
M  V30 4240 C 405.962 1.28301 1.89925 0
M  V30 4241 C 406.962 0.194285 1.59622 0
M  V30 4242 O 408.152 0.448036 1.6834 0
M  V30 4243 C 405.284 0.984997 3.2636 0
M  V30 4244 H 406.477 2.2553 1.97677 0
M  V30 4245 H 404.03 1.19979 1.00173 0
M  V30 4246 H 404.765 0.016603 3.24296 0
M  V30 4247 H 404.55 1.77269 3.4974 0
M  V30 4248 H 406.04 0.960651 4.064 0
M  V30 4249 N 406.477 -1.02803 1.19454 0
M  V30 4250 C 407.407 -2.12999 0.956758 0
M  V30 4251 C 408.388 -1.69743 -0.110188 0
M  V30 4252 O 409.573 -1.94148 0.0450038 0
M  V30 4253 C 406.703 -3.43746 0.495553 0
M  V30 4254 C 405.657 -4.00688 1.50443 0
M  V30 4255 C 404.983 -5.27067 0.900275 0
M  V30 4256 C 406.283 -4.35397 2.8849 0
M  V30 4257 H 407.977 -2.33148 1.87836 0
M  V30 4258 H 405.523 -1.12045 0.904539 0
M  V30 4259 H 407.476 -4.2021 0.316493 0
M  V30 4260 H 406.2 -3.23321 -0.461646 0
M  V30 4261 H 404.859 -3.2632 1.67065 0
M  V30 4262 H 404.507 -5.02959 -0.064503 0
M  V30 4263 H 404.207 -5.66127 1.57397 0
M  V30 4264 H 405.731 -6.06196 0.73203 0
M  V30 4265 H 407.145 -5.02795 2.75446 0
M  V30 4266 H 405.542 -4.85541 3.52661 0
M  V30 4267 H 406.612 -3.44662 3.41081 0
M  V30 4268 N 407.956 -0.998596 -1.21925 0
M  V30 4269 C 409.367 -0.711939 -1.72593 0
M  V30 4270 C 409.718 0.770842 -1.80423 0
M  V30 4271 O 408.843 1.60237 -1.4544 0
M  V30 4272 C 409.438 -1.28567 -3.13458 0
M  V30 4273 C 407.997 -1.04828 -3.61508 0
M  V30 4274 C 407.144 -1.4024 -2.39224 0
M  V30 4275 H 410.095 -1.17027 -1.07193 0
M  V30 4276 H 410.116 -0.667098 -3.74607 0
M  V30 4277 H 409.628 -2.36486 -3.07727 0
M  V30 4278 H 407.729 0.0140383 -3.72597 0
M  V30 4279 H 407.842 -1.71566 -4.47328 0
M  V30 4280 H 406.206 -0.821077 -2.41103 0
M  V30 4281 H 406.989 -2.49176 -2.36149 0
M  V30 4282 N 409.434 1.37368 -0.772513 0
M  V30 4283 C 410.366 2.28899 -0.117502 0
M  V30 4284 C 411.379 1.4867 0.663405 0
M  V30 4285 O 412.568 1.71314 0.501372 0
M  V30 4286 C 409.668 3.2788 0.857192 0
M  V30 4287 C 408.841 4.37207 0.129938 0
M  V30 4288 C 407.9 5.16257 1.01811 0
M  V30 4289 O 406.926 5.67159 0.481601 0
M  V30 4290 N 408.128 5.31058 2.3443 0
M  V30 4291 H 410.893 2.85752 -0.903662 0
M  V30 4292 H 408.454 1.49353 -0.62493 0
M  V30 4293 H 410.446 3.77647 1.45482 0
M  V30 4294 H 409.016 2.7179 1.54432 0
M  V30 4295 H 408.236 3.88827 -0.648605 0
M  V30 4296 H 409.524 5.07434 -0.372559 0
M  V30 4297 H 408.922 4.91287 2.80452 0
M  V30 4298 H 407.479 5.84131 2.89197 0
M  V30 4299 N 410.912 0.523116 1.48665 0
M  V30 4300 C 411.822 -0.247406 2.33292 0
M  V30 4301 C 412.838 -0.945769 1.46052 0
M  V30 4302 O 414.014 -0.922253 1.79043 0
M  V30 4303 C 411.079 -1.28487 3.22012 0
M  V30 4304 C 410.14 -0.597592 4.2512 0
M  V30 4305 C 409.373 -1.58563 5.09601 0
M  V30 4306 O 409.596 -2.81763 4.95949 0
M  V30 4307 O 408.53 -1.12879 5.91221 0
M  V30 4308 H 412.356 0.445869 3.00409 0
M  V30 4309 H 409.941 0.284128 1.46673 0
M  V30 4310 H 411.823 -1.88459 3.7691 0
M  V30 4311 H 410.498 -1.96068 2.57564 0
M  V30 4312 H 409.405 0.0424407 3.74076 0
M  V30 4313 H 410.738 0.0361517 4.92187 0
M  V30 4314 N 412.39 -1.55475 0.257931 0
M  V30 4315 C 413.801 -1.8511 -0.243135 0
M  V30 4316 C 414.152 -1.17986 -1.5676 0
M  V30 4317 O 413.277 -0.462102 -2.11409 0
M  V30 4318 C 413.872 -3.35826 -0.447929 0
M  V30 4319 C 412.431 -3.65647 -0.893245 0
M  V30 4320 C 411.578 -2.7729 0.0232965 0
M  V30 4321 H 414.529 -1.51261 0.480199 0
M  V30 4322 H 414.55 -3.58002 -1.28898 0
M  V30 4323 H 414.062 -3.84652 0.516196 0
M  V30 4324 H 412.163 -3.22308 -1.86945 0
M  V30 4325 H 412.276 -4.73312 -0.742469 0
M  V30 4326 H 410.64 -2.49942 -0.490021 0
M  V30 4327 H 411.423 -3.28926 0.982994 0
M  V30 4328 N 413.868 0.0150385 -1.57593 0
M  V30 4329 C 414.831 0.995996 -2.06428 0
M  V30 4330 C 415.831 1.2818 -0.970903 0
M  V30 4331 O 417.021 1.22949 -1.23406 0
M  V30 4332 C 414.153 2.32506 -2.49307 0
M  V30 4333 H 415.346 0.573873 -2.94358 0
M  V30 4334 H 412.899 0.262186 -1.54085 0
M  V30 4335 H 413.634 2.79438 -1.64575 0
M  V30 4336 H 413.419 2.13087 -3.29145 0
M  V30 4337 H 414.909 3.02906 -2.87468 0
M  V30 4338 N 415.346 1.54954 0.287554 0
M  V30 4339 C 416.571 1.79209 1.04397 0
M  V30 4340 C 416.996 0.556431 1.79682 0
M  V30 4341 O 416.354 -0.493518 1.74454 0
M  V30 4342 C 416.402 3.00739 1.98969 0
M  V30 4343 O 415.506 2.74805 3.075 0
M  V30 4344 H 414.847 0.592755 0.299227 0
M  V30 4345 H 417.377 2.02068 0.320886 0
M  V30 4346 H 417.387 3.29077 2.4119 0
M  V30 4347 H 416.062 3.90329 1.43582 0
M  V30 4348 H 414.639 2.57523 2.69697 0
M  V30 4349 N 416.824 -0.551391 1.4764 0
M  V30 4350 C 417.787 -1.64007 1.60107 0
M  V30 4351 C 418.787 -1.53601 0.47576 0
M  V30 4352 O 419.977 -1.57655 0.740988 0
M  V30 4353 C 417.109 -3.03569 1.55108 0
M  V30 4354 H 418.302 -1.543 2.57161 0
M  V30 4355 H 415.855 -0.771776 1.35917 0
M  V30 4356 H 416.59 -3.18804 0.594519 0
M  V30 4357 H 416.375 -3.12532 2.36783 0
M  V30 4358 H 417.865 -3.82762 1.66982 0
M  V30 4359 N 418.302 -1.35869 -0.798587 0
M  V30 4360 C 419.55 -1.29332 -1.55298 0
M  V30 4361 C 419.871 0.129729 -1.94568 0
M  V30 4362 O 419.141 1.06796 -1.6423 0
M  V30 4363 H 417.721 -0.475737 -0.57592 0
M  V30 4364 H 420.383 -1.70062 -0.952093 0
M  V30 4365 H 419.479 -1.91458 -2.46476 0
M  V30 4366 N 419.78 1.02168 -1.19998 0
M  V30 4367 C 420.71 2.12488 -0.96804 0
M  V30 4368 C 421.691 1.69799 0.101185 0
M  V30 4369 O 422.876 1.94121 -0.0552993 0
M  V30 4370 C 420.006 3.43479 -0.513776 0
M  V30 4371 C 418.96 3.99884 -1.52566 0
M  V30 4372 C 418.286 5.26582 -0.928214 0
M  V30 4373 C 419.586 4.33861 -2.90795 0
M  V30 4374 H 421.28 2.32149 -1.89069 0
M  V30 4375 H 418.826 1.11564 -0.910468 0
M  V30 4376 H 420.779 4.20036 -0.338774 0
M  V30 4377 H 419.503 3.23561 0.444493 0
M  V30 4378 H 418.162 3.25429 -1.68794 0
M  V30 4379 H 417.81 5.02986 0.0378289 0
M  V30 4380 H 417.51 5.65284 -1.60397 0
M  V30 4381 H 419.034 6.05799 -0.764167 0
M  V30 4382 H 420.448 5.01327 -2.78109 0
M  V30 4383 H 418.845 4.83664 -3.55231 0
M  V30 4384 H 419.915 3.42848 -3.42904 0
M  V30 4385 N 421.258 1.00505 1.21394 0
M  V30 4386 C 422.488 0.705584 1.94178 0
M  V30 4387 C 422.896 -0.735846 1.74304 0
M  V30 4388 O 422.239 -1.50954 1.04683 0
M  V30 4389 C 422.301 0.94689 3.46806 0
M  V30 4390 C 421.965 2.37517 3.90429 0
M  V30 4391 C 422.962 3.35539 3.97127 0
M  V30 4392 C 420.647 2.71284 4.22742 0
M  V30 4393 C 422.641 4.65395 4.3553 0
M  V30 4394 C 420.328 4.01356 4.60822 0
M  V30 4395 C 421.326 4.98223 4.67186 0
M  V30 4396 O 421.014 6.25969 5.04399 0
M  V30 4397 H 420.746 0.259216 0.624326 0
M  V30 4398 H 423.3 1.34592 1.55159 0
M  V30 4399 H 421.53 0.249386 3.85895 0
M  V30 4400 H 423.219 0.640804 4.0081 0
M  V30 4401 H 423.985 3.10786 3.7234 0
M  V30 4402 H 419.864 1.96581 4.16985 0
M  V30 4403 H 423.408 5.41002 4.40412 0
M  V30 4404 H 419.305 4.25893 4.85063 0
M  V30 4405 H 420.073 6.30085 5.22431 0
M  V30 4406 N 422.737 -1.36956 0.779787 0
M  V30 4407 C 423.984 -1.99491 0.347766 0
M  V30 4408 C 424.312 -1.61898 -1.07793 0
M  V30 4409 O 423.567 -0.86071 -1.75756 0
M  V30 4410 C 423.866 -3.54585 0.447686 0
M  V30 4411 C 423.532 -4.1197 1.83279 0
M  V30 4412 C 422.194 -4.27356 2.2118 0
M  V30 4413 C 424.546 -4.43354 2.74019 0
M  V30 4414 C 421.874 -4.71432 3.4924 0
M  V30 4415 C 424.226 -4.88858 4.01497 0
M  V30 4416 C 422.89 -5.0245 4.39432 0
M  V30 4417 H 422.16 -0.729991 0.127257 0
M  V30 4418 H 424.807 -1.63599 0.995376 0
M  V30 4419 H 423.112 -3.90773 -0.283447 0
M  V30 4420 H 424.809 -4.00888 0.0945948 0
M  V30 4421 H 421.399 -4.00428 1.52825 0
M  V30 4422 H 425.583 -4.31045 2.45995 0
M  V30 4423 H 420.839 -4.80141 3.78516 0
M  V30 4424 H 425.013 -5.12108 4.71931 0
M  V30 4425 H 422.64 -5.36362 5.38721 0
M  V30 4426 N 424.215 -0.530993 -1.48385 0
M  V30 4427 C 425.462 0.0027373 -2.025 0
M  V30 4428 C 425.79 1.34186 -1.40799 0
M  V30 4429 O 425.045 1.88 -0.543544 0
M  V30 4430 C 425.344 0.172742 -3.56982 0
M  V30 4431 C 425.01 -1.09215 -4.37473 0
M  V30 4432 C 423.672 -1.43881 -4.59186 0
M  V30 4433 C 426.024 -1.93153 -4.84088 0
M  V30 4434 C 423.352 -2.62381 -5.2476 0
M  V30 4435 C 425.704 -3.10833 -5.50968 0
M  V30 4436 C 424.368 -3.45843 -5.70919 0
M  V30 4437 H 423.638 0.00100165 -0.740999 0
M  V30 4438 H 426.285 -0.697219 -1.78357 0
M  V30 4439 H 424.59 0.955473 -3.79971 0
M  V30 4440 H 426.287 0.600642 -3.96476 0
M  V30 4441 H 422.877 -0.812177 -4.20834 0
M  V30 4442 H 427.061 -1.67683 -4.67115 0
M  V30 4443 H 422.317 -2.89707 -5.38405 0
M  V30 4444 H 426.491 -3.7618 -5.86056 0
M  V30 4445 H 424.118 -4.37764 -6.21503 0
M  V30 4446 N 425.693 1.55336 -0.266172 0
M  V30 4447 C 426.939 1.99692 0.353681 0
M  V30 4448 C 427.272 1.1543 1.56172 0
M  V30 4449 O 426.547 0.222218 1.93226 0
M  V30 4450 C 426.83 3.52316 0.74466 0
M  V30 4451 C 426.683 4.47337 -0.470101 0
M  V30 4452 C 428.002 4.10588 1.58447 0
M  V30 4453 H 425.121 0.725961 0.12708 0
M  V30 4454 H 427.763 1.86336 -0.371333 0
M  V30 4455 H 425.913 3.63829 1.36239 0
M  V30 4456 H 427.585 4.4778 -1.10864 0
M  V30 4457 H 425.828 4.19364 -1.10978 0
M  V30 4458 H 426.499 5.51788 -0.15291 0
M  V30 4459 H 428.975 4.02297 1.06286 0
M  V30 4460 H 427.851 5.17607 1.82686 0
M  V30 4461 H 428.112 3.60253 2.56262 0
M  V30 4462 N 427.171 -0.0066808 1.57599 0
M  V30 4463 C 428.417 -0.693947 1.90558 0
M  V30 4464 C 428.75 -1.73792 0.866594 0
M  V30 4465 O 428.025 -1.94156 -0.115548 0
M  V30 4466 C 428.308 -1.34317 3.34112 0
M  V30 4467 C 428.161 -0.311189 4.48722 0
M  V30 4468 C 429.48 -2.27116 3.7697 0
M  V30 4469 H 426.599 -0.250803 0.693013 0
M  V30 4470 H 429.241 0.043242 1.89951 0
M  V30 4471 H 427.391 -1.9715 3.3476 0
M  V30 4472 H 429.063 0.316944 4.6021 0
M  V30 4473 H 427.306 0.367253 4.32243 0
M  V30 4474 H 427.977 -0.804366 5.46108 0
M  V30 4475 H 430.453 -1.74306 3.77831 0
M  V30 4476 H 429.329 -2.69511 4.78179 0
M  V30 4477 H 429.59 -3.14743 3.10466 0
M  V30 4478 N 428.649 -1.55105 -0.279332 0
M  V30 4479 C 429.898 -1.74618 -1.00952 0
M  V30 4480 C 430.211 -0.551096 -1.87676 0
M  V30 4481 O 431.417 -0.628507 -2.64125 0
M  V30 4482 C 429.873 -3.09025 -1.84476 0
M  V30 4483 C 429.481 -4.36081 -1.0265 0
M  V30 4484 C 431.225 -3.37891 -2.56963 0
M  V30 4485 C 429.132 -5.6153 -1.85576 0
M  V30 4486 H 428.062 -0.650868 -0.38064 0
M  V30 4487 H 430.713 -1.81569 -0.265475 0
M  V30 4488 H 429.095 -2.96095 -2.62952 0
M  V30 4489 H 430.269 -4.59909 -0.286354 0
M  V30 4490 H 428.584 -4.14312 -0.416464 0
M  V30 4491 H 431.181 -4.28822 -3.19399 0
M  V30 4492 H 431.524 -2.57737 -3.26921 0
M  V30 4493 H 432.057 -3.5189 -1.85522 0
M  V30 4494 H 428.796 -6.44413 -1.2005 0
M  V30 4495 H 428.316 -5.41854 -2.57204 0
M  V30 4496 H 429.995 -5.99594 -2.43096 0
M  V30 4497 N 430.127 0.543554 -1.4793 0
M  V30 4498 C 431.057 1.65888 -1.64327 0
M  V30 4499 C 432.038 1.62818 -0.492383 0
M  V30 4500 O 433.223 1.80226 -0.723338 0
M  V30 4501 C 430.353 3.04506 -1.67013 0
M  V30 4502 C 429.307 3.2243 -2.81466 0
M  V30 4503 C 428.633 4.61972 -2.69233 0
M  V30 4504 C 429.933 3.06496 -4.22915 0
M  V30 4505 H 431.627 1.52421 -2.57698 0
M  V30 4506 H 429.173 0.731849 -1.24016 0
M  V30 4507 H 431.126 3.82391 -1.77074 0
M  V30 4508 H 429.85 3.18964 -0.70212 0
M  V30 4509 H 428.509 2.46957 -2.70938 0
M  V30 4510 H 428.157 4.73247 -1.7043 0
M  V30 4511 H 427.857 4.74911 -3.46025 0
M  V30 4512 H 429.381 5.41974 -2.81242 0
M  V30 4513 H 430.795 3.74186 -4.34348 0
M  V30 4514 H 429.192 3.30938 -5.006 0
M  V30 4515 H 430.262 2.03077 -4.40327 0
M  V30 4516 N 431.605 1.3629 0.791371 0
M  V30 4517 C 432.83 1.33726 1.58531 0
M  V30 4518 C 433.255 -0.0794933 1.87932 0
M  V30 4519 O 432.613 -1.05087 1.47738 0
M  V30 4520 C 432.661 2.16425 2.88431 0
M  V30 4521 O 431.765 1.5554 3.81944 0
M  V30 4522 H 431.106 0.457793 0.480959 0
M  V30 4523 H 433.636 1.79547 0.981031 0
M  V30 4524 H 433.646 2.28933 3.37718 0
M  V30 4525 H 432.321 3.19415 2.66359 0
M  V30 4526 H 430.898 1.51961 3.40532 0
M  V30 4527 N 433.083 -1.0153 1.20538 0
M  V30 4528 C 434.313 -1.78487 1.04048 0
M  V30 4529 C 434.721 -1.84631 -0.413292 0
M  V30 4530 O 434.064 -1.29919 -1.29872 0
M  V30 4531 C 434.126 -3.24367 1.55003 0
M  V30 4532 C 433.79 -3.41827 3.0332 0
M  V30 4533 C 434.787 -3.30941 4.00966 0
M  V30 4534 C 432.472 -3.67602 3.42307 0
M  V30 4535 C 434.466 -3.45577 5.35589 0
M  V30 4536 C 432.153 -3.81881 4.77085 0
M  V30 4537 C 433.151 -3.70874 5.73534 0
M  V30 4538 O 432.839 -3.84714 7.05868 0
M  V30 4539 H 432.571 -0.568108 0.366373 0
M  V30 4540 H 435.125 -1.28677 1.60098 0
M  V30 4541 H 433.355 -3.75266 0.933397 0
M  V30 4542 H 435.044 -3.82963 1.34514 0
M  V30 4543 H 435.81 -3.10964 3.72191 0
M  V30 4544 H 431.689 -3.75256 2.67776 0
M  V30 4545 H 435.233 -3.36902 6.10854 0
M  V30 4546 H 431.13 -4.01359 5.0555 0
M  V30 4547 H 431.898 -4.01724 7.13134 0
M  V30 4548 N 434.561 -1.01147 -1.20859 0
M  V30 4549 C 435.524 -0.582224 -2.21682 0
M  V30 4550 C 436.524 0.344887 -1.57058 0
M  V30 4551 O 437.714 0.134281 -1.73682 0
M  V30 4552 C 434.846 0.150496 -3.40568 0
M  V30 4553 H 436.039 -1.47408 -2.61172 0
M  V30 4554 H 433.592 -0.800695 -1.34233 0
M  V30 4555 H 434.327 1.0575 -3.06574 0
M  V30 4556 H 434.112 -0.515444 -3.88697 0
M  V30 4557 H 435.602 0.438344 -4.15293 0
M  V30 4558 N 436.039 1.36541 -0.78704 0
M  V30 4559 C 436.987 2.31965 -0.171724 0
M  V30 4560 C 437.981 1.55689 0.667631 0
M  V30 4561 O 439.187 1.70969 0.562981 0
M  V30 4562 H 435.562 0.751101 -0.0367545 0
M  V30 4563 H 437.533 2.81428 -0.992017 0
M  V30 4564 C 436.282 3.40968 0.680904 0
M  V30 4565 H 435.605 3.99775 0.0443961 0
M  V30 4566 H 437.045 4.10063 1.07815 0
M  V30 4567 C 435.504 2.82338 1.83813 0
M  V30 4568 O 436.034 2.74311 2.93456 0
M  V30 4569 N 434.24 2.39661 1.6435 0
M  V30 4570 H 433.787 2.46389 0.751668 0
M  V30 4571 H 433.745 2.00779 2.4194 0
M  V30 4572 N 437.518 0.538854 1.48102 0
M  V30 4573 C 438.743 0.0102694 2.07397 0
M  V30 4574 C 439.168 -1.26562 1.39153 0
M  V30 4575 O 438.526 -1.75357 0.460387 0
M  V30 4576 C 438.574 -0.187602 3.60112 0
M  V30 4577 O 437.678 -1.25432 3.92862 0
M  V30 4578 H 437.019 0.0430975 0.6626 0
M  V30 4579 H 439.549 0.749301 1.90385 0
M  V30 4580 H 439.559 -0.407517 4.0596 0
M  V30 4581 H 438.234 0.744386 4.09184 0
M  V30 4582 H 436.811 -1.01636 3.58782 0
M  V30 4583 N 438.996 -1.55193 0.274407 0
M  V30 4584 C 440.236 -2.01488 -0.343778 0
M  V30 4585 C 440.6 -1.1586 -1.53103 0
M  V30 4586 O 441.801 -1.51732 -2.2188 0
M  V30 4587 C 440.072 -3.50134 -0.717021 0
M  V30 4588 S 441.631 -4.18417 -1.32184 0
M  V30 4589 H 438.449 -0.70291 -0.106948 0
M  V30 4590 H 441.051 -1.91446 0.396075 0
M  V30 4591 H 439.755 -4.10104 0.155947 0
M  V30 4592 H 439.286 -3.64159 -1.48835 0
M  V30 4593 H 441.301 -4.21984 -2.61044 0
M  V30 4594 N 440.474 -0.00167713 -1.576 0
M  V30 4595 C 441.437 0.974046 -2.07473 0
M  V30 4596 C 442.437 1.27143 -0.984444 0
M  V30 4597 O 443.627 1.21633 -1.24703 0
M  V30 4598 C 440.759 2.29849 -2.51759 0
M  V30 4599 H 441.952 0.54262 -2.9495 0
M  V30 4600 H 439.505 0.245829 -1.54355 0
M  V30 4601 H 440.24 2.77677 -1.67529 0
M  V30 4602 H 440.025 2.09584 -3.31386 0
M  V30 4603 H 441.515 2.9984 -2.90664 0
M  V30 4604 N 441.952 1.55251 0.271103 0
M  V30 4605 C 442.9 1.89054 1.35504 0
M  V30 4606 C 443.894 0.767064 1.51038 0
M  V30 4607 O 445.1 0.951429 1.528 0
M  V30 4608 H 441.475 0.600072 0.45323 0
M  V30 4609 H 443.446 2.79598 1.04247 0
M  V30 4610 C 442.195 2.18068 2.70817 0
M  V30 4611 H 441.518 3.04005 2.59656 0
M  V30 4612 H 442.958 2.4564 3.45597 0
M  V30 4613 C 441.417 0.988901 3.2206 0
M  V30 4614 O 441.947 0.224501 4.01072 0
M  V30 4615 N 440.153 0.786085 2.79766 0
M  V30 4616 H 439.7 1.40937 2.15626 0
M  V30 4617 H 439.658 -0.00969349 3.14399 0
M  V30 4618 N 443.43 -0.535701 1.48216 0
M  V30 4619 C 444.841 -1.11769 1.49548 0
M  V30 4620 C 445.192 -1.94442 0.26207 0
M  V30 4621 O 444.317 -2.06987 -0.631287 0
M  V30 4622 C 444.912 -2.03367 2.70975 0
M  V30 4623 C 443.471 -2.56795 2.75196 0
M  V30 4624 C 442.618 -1.33631 2.42977 0
M  V30 4625 H 445.569 -0.321232 1.55415 0
M  V30 4626 H 445.59 -2.87569 2.49167 0
M  V30 4627 H 445.102 -1.43169 3.60727 0
M  V30 4628 H 443.203 -3.20731 1.89638 0
M  V30 4629 H 443.316 -2.9632 3.76472 0
M  V30 4630 H 441.68 -1.6502 1.94012 0
M  V30 4631 H 442.463 -0.75194 3.34964 0
M  V30 4632 N 444.908 -1.36708 -0.784132 0
M  V30 4633 C 446.154 -1.31426 -1.54451 0
M  V30 4634 C 446.487 0.10476 -1.93917 0
M  V30 4635 O 445.762 1.05934 -1.6312 0
M  V30 4636 C 446.045 -2.24189 -2.818 0
M  V30 4637 C 445.898 -3.74813 -2.48667 0
M  V30 4638 C 447.217 -2.15626 -3.83658 0
M  V30 4639 H 444.336 -0.478739 -0.560337 0
M  V30 4640 H 446.978 -1.67305 -0.900498 0
M  V30 4641 H 445.128 -1.93722 -3.36755 0
M  V30 4642 H 446.8 -4.15823 -1.99722 0
M  V30 4643 H 445.043 -3.93989 -1.81535 0
M  V30 4644 H 445.714 -4.35138 -3.39646 0
M  V30 4645 H 448.19 -2.42456 -3.38163 0
M  V30 4646 H 447.066 -2.82694 -4.70506 0
M  V30 4647 H 447.327 -1.14522 -4.27009 0
M  V30 4648 N 446.386 1.0089 -1.21074 0
M  V30 4649 C 447.316 2.1145 -0.990523 0
M  V30 4650 C 448.297 1.69897 0.0831699 0
M  V30 4651 O 449.482 1.94052 -0.0758853 0
M  V30 4652 C 446.612 3.42914 -0.550177 0
M  V30 4653 C 445.566 3.98244 -1.56799 0
M  V30 4654 C 444.892 5.25568 -0.984013 0
M  V30 4655 C 446.192 4.30752 -2.95381 0
M  V30 4656 H 447.886 2.3013 -1.91521 0
M  V30 4657 H 445.432 1.10592 -0.92225 0
M  V30 4658 H 447.385 4.19653 -0.383305 0
M  V30 4659 H 446.109 3.24014 0.41015 0
M  V30 4660 H 444.768 3.23621 -1.72236 0
M  V30 4661 H 444.416 5.02998 -0.0155216 0
M  V30 4662 H 444.116 5.63551 -1.66384 0
M  V30 4663 H 445.64 6.04955 -0.828378 0
M  V30 4664 H 447.054 4.98349 -2.8341 0
M  V30 4665 H 445.451 4.79869 -3.60341 0
M  V30 4666 H 446.521 3.39192 -3.46521 0
M  V30 4667 N 447.864 1.01787 1.20321 0
M  V30 4668 C 449.094 0.72614 1.93419 0
M  V30 4669 C 449.502 -0.717317 1.75075 0
M  V30 4670 O 448.845 -1.49836 1.06278 0
M  V30 4671 C 448.907 0.983621 3.45782 0
M  V30 4672 C 448.571 2.41645 3.87888 0
M  V30 4673 C 449.568 3.39732 3.93545 0
M  V30 4674 C 447.253 2.75752 4.19841 0
M  V30 4675 C 449.247 4.69988 4.30569 0
M  V30 4676 C 446.934 4.06221 4.56539 0
M  V30 4677 C 447.932 5.0315 4.61876 0
M  V30 4678 O 447.62 6.31284 4.97731 0
M  V30 4679 H 447.352 0.265824 0.621541 0
M  V30 4680 H 449.906 1.3623 1.53722 0
M  V30 4681 H 448.136 0.290301 3.85609 0
M  V30 4682 H 449.825 0.683279 4.00108 0
M  V30 4683 H 450.591 3.14718 3.69022 0
M  V30 4684 H 446.47 2.00993 4.14877 0
M  V30 4685 H 450.014 5.45642 4.3465 0
M  V30 4686 H 445.911 4.31013 4.80518 0
M  V30 4687 H 446.679 6.35591 5.15719 0
M  V30 4688 N 449.342 -1.36122 0.79427 0
M  V30 4689 C 450.59 -1.98718 0.368177 0
M  V30 4690 C 450.911 -1.63345 -1.06506 0
M  V30 4691 O 450.181 -0.909825 -1.73491 0
M  V30 4692 H 448.761 -0.735038 0.133146 0
M  V30 4693 H 451.423 -1.66239 1.01739 0
M  V30 4694 H 450.519 -3.08633 0.463923 0
M  V30 4695 N 450.82 -0.546701 -1.47814 0
M  V30 4696 C 452.067 -0.0187407 -2.02491 0
M  V30 4697 C 452.395 1.32685 -1.42215 0
M  V30 4698 O 451.65 1.87413 -0.563454 0
M  V30 4699 C 451.949 0.134869 -3.57145 0
M  V30 4700 C 451.615 -1.13849 -4.3629 0
M  V30 4701 C 450.277 -1.48743 -4.57634 0
M  V30 4702 C 452.629 -1.98277 -4.82012 0
M  V30 4703 C 449.957 -2.67932 -5.21948 0
M  V30 4704 C 452.309 -3.16659 -5.4764 0
M  V30 4705 C 450.973 -3.51879 -5.67219 0
M  V30 4706 H 450.243 -0.0068577 -0.740968 0
M  V30 4707 H 452.89 -0.716097 -1.77607 0
M  V30 4708 H 451.195 0.915118 -3.80963 0
M  V30 4709 H 452.892 0.558556 -3.97091 0
M  V30 4710 H 449.482 -0.856767 -4.19949 0
M  V30 4711 H 453.666 -1.72628 -4.6531 0
M  V30 4712 H 448.922 -2.95401 -5.35302 0
M  V30 4713 H 453.096 -3.82374 -5.82033 0
M  V30 4714 H 450.723 -4.44331 -6.16825 0
M  V30 4715 N 452.299 1.55045 -0.282633 0
M  V30 4716 C 453.229 2.2579 0.595066 0
M  V30 4717 C 454.21 1.25074 1.15284 0
M  V30 4718 O 455.395 1.5381 1.18559 0
M  V30 4719 C 452.525 2.98472 1.77572 0
M  V30 4720 C 451.479 4.0618 1.34914 0
M  V30 4721 C 450.805 4.66477 2.6135 0
M  V30 4722 C 452.105 5.1996 0.493821 0
M  V30 4723 H 453.799 2.994 0.00505653 0
M  V30 4724 H 451.345 1.44 0.000992001 0
M  V30 4725 H 453.298 3.46677 2.39568 0
M  V30 4726 H 452.022 2.2241 2.39168 0
M  V30 4727 H 450.681 3.58797 0.752338 0
M  V30 4728 H 450.329 3.87074 3.2122 0
M  V30 4729 H 450.029 5.39207 2.33516 0
M  V30 4730 H 451.553 5.17435 3.24181 0
M  V30 4731 H 452.967 5.64172 1.01898 0
M  V30 4732 H 451.364 5.99299 0.310047 0
M  V30 4733 H 452.434 4.82462 -0.485593 0
M  V30 4734 N 453.777 0.010035 1.57597 0
M  V30 4735 C 455.002 -0.687021 1.95691 0
M  V30 4736 C 455.427 -1.65952 0.885519 0
M  V30 4737 O 454.785 -1.80633 -0.15543 0
M  V30 4738 C 454.833 -1.3864 3.32884 0
M  V30 4739 O 453.937 -2.50115 3.27897 0
M  V30 4740 H 453.278 -0.181989 0.638573 0
M  V30 4741 H 455.808 0.0662122 2.04493 0
M  V30 4742 H 455.818 -1.74754 3.6868 0
M  V30 4743 H 454.493 -0.673411 4.10412 0
M  V30 4744 H 453.07 -2.16253 3.03791 0
M  V30 4745 N 455.255 -1.55392 -0.262866 0
M  V30 4746 C 456.532 -1.67204 -1.01499 0
M  V30 4747 C 456.912 -0.545186 -2.03939 0
M  V30 4748 O 456.26 0.453467 -2.23955 0
M  V30 4749 C 456.47 -3.06847 -1.6627 0
M  V30 4750 C 457.818 -3.64928 -2.17054 0
M  V30 4751 O 458.842 -3.09545 -1.76239 0
M  V30 4752 O 457.701 -4.61984 -2.91947 0
M  V30 4753 H 454.795 -0.679467 -0.471438 0
M  V30 4754 H 457.341 -1.67729 -0.257918 0
M  V30 4755 H 456.113 -3.80309 -0.920915 0
M  V30 4756 H 455.736 -3.10266 -2.48638 0
M  V30 4757 N 456.733 0.527833 -1.48498 0
M  V30 4758 C 457.681 1.65313 -1.63628 0
M  V30 4759 C 458.675 1.6177 -0.502676 0
M  V30 4760 O 459.881 1.66601 -0.681469 0
M  V30 4761 H 456.256 0.547518 -0.515488 0
M  V30 4762 H 458.227 1.49696 -2.58135 0
M  V30 4763 C 456.976 3.03576 -1.6952 0
M  V30 4764 H 456.299 3.06997 -2.56111 0
M  V30 4765 H 457.739 3.81923 -1.84149 0
M  V30 4766 C 456.198 3.34089 -0.43432 0
M  V30 4767 O 456.728 3.99151 0.451852 0
M  V30 4768 N 454.934 2.88991 -0.305368 0
M  V30 4769 H 454.481 2.36222 -1.02747 0
M  V30 4770 H 454.439 3.09776 0.537249 0
M  V30 4771 N 458.211 1.37122 0.776871 0
M  V30 4772 C 459.458 1.32047 1.53524 0
M  V30 4773 C 459.786 -0.0965631 1.9426 0
M  V30 4774 O 459.041 -1.06866 1.63945 0
M  V30 4775 C 459.34 2.20068 2.81611 0
M  V30 4776 C 459.006 3.68423 2.59953 0
M  V30 4777 C 457.668 4.08854 2.53755 0
M  V30 4778 C 460.02 4.62431 2.40431 0
M  V30 4779 C 457.348 5.41417 2.26018 0
M  V30 4780 C 459.7 5.95225 2.14219 0
M  V30 4781 C 458.364 6.34767 2.06462 0
M  V30 4782 H 457.634 0.483196 0.561785 0
M  V30 4783 H 460.281 1.69284 0.895268 0
M  V30 4784 H 458.586 1.75809 3.50141 0
M  V30 4785 H 460.283 2.13458 3.39465 0
M  V30 4786 H 456.873 3.36354 2.65638 0
M  V30 4787 H 461.057 4.32057 2.44213 0
M  V30 4788 H 456.313 5.71022 2.18504 0
M  V30 4789 H 460.487 6.67626 1.98112 0
M  V30 4790 H 458.114 7.37413 1.84733 0
M  V30 4791 N 459.689 -1.00246 1.21608 0
M  V30 4792 C 461.105 -1.26435 0.973975 0
M  V30 4793 C 461.305 -1.98642 -0.338143 0
M  V30 4794 O 460.361 -2.29026 -1.06317 0
M  V30 4795 C 461.674 -2.08551 2.16626 0
M  V30 4796 C 463.222 -2.21769 2.20879 0
M  V30 4797 C 463.697 -3.07267 3.39633 0
M  V30 4798 N 465.188 -3.14855 3.39736 0
M  V30 4799 C 465.923 -3.81274 4.28273 0
M  V30 4800 N 465.419 -4.497 5.27012 0
M  V30 4801 N 467.212 -3.7794 4.16074 0
M  V30 4802 H 459.363 -0.518089 2.05984 0
M  V30 4803 H 461.626 -0.291368 0.902113 0
M  V30 4804 H 461.332 -1.62847 3.11727 0
M  V30 4805 H 461.206 -3.09303 2.15897 0
M  V30 4806 H 463.593 -2.66691 1.26332 0
M  V30 4807 H 463.674 -1.20478 2.25652 0
M  V30 4808 H 463.318 -2.63047 4.34475 0
M  V30 4809 H 463.248 -4.08678 3.321 0
M  V30 4810 H 465.739 -2.66147 2.6828 0
M  V30 4811 H 466.052 -4.98092 5.90867 0
M  V30 4812 H 464.397 -4.48479 5.30935 0
M  V30 4813 H 467.588 -3.23638 3.38195 0
M  V30 4814 H 467.761 -4.29424 4.85282 0
M  V30 4815 N 461.167 -1.02423 -1.1978 0
M  V30 4816 C 462.099 -0.559152 -2.22275 0
M  V30 4817 C 463.112 0.36251 -1.58713 0
M  V30 4818 O 464.301 0.159641 -1.77785 0
M  V30 4819 C 461.401 0.205094 -3.38279 0
M  V30 4820 C 460.574 -0.720361 -4.31427 0
M  V30 4821 C 459.633 -0.00234368 -5.262 0
M  V30 4822 O 458.659 -0.627378 -5.65732 0
M  V30 4823 N 459.861 1.26996 -5.66438 0
M  V30 4824 H 462.626 -1.44064 -2.62804 0
M  V30 4825 H 460.187 -0.902692 -1.34399 0
M  V30 4826 H 462.179 0.694868 -3.9869 0
M  V30 4827 H 460.749 0.987947 -2.96578 0
M  V30 4828 H 459.969 -1.39031 -3.68869 0
M  V30 4829 H 461.257 -1.3495 -4.90577 0
M  V30 4830 H 460.655 1.79858 -5.36347 0
M  V30 4831 H 459.212 1.70432 -6.29123 0
M  V30 4832 N 462.645 1.35699 -0.801477 0
M  V30 4833 C 463.87 2.03687 -0.390678 0
M  V30 4834 C 464.295 1.60015 0.988778 0
M  V30 4835 O 463.653 0.774357 1.63931 0
M  V30 4836 C 463.701 3.57439 -0.476404 0
M  V30 4837 O 462.805 4.09208 0.512106 0
M  V30 4838 H 462.146 0.64344 -0.163956 0
M  V30 4839 H 464.676 1.73403 -1.08594 0
M  V30 4840 H 464.686 4.06544 -0.344357 0
M  V30 4841 H 463.361 3.88576 -1.48262 0
M  V30 4842 H 461.938 3.7134 0.340721 0
M  V30 4843 N 464.123 0.554532 1.47522 0
M  V30 4844 C 465.37 0.029479 2.02479 0
M  V30 4845 C 465.698 -1.31929 1.42916 0
M  V30 4846 O 464.953 -1.87112 0.573385 0
M  V30 4847 C 465.252 -0.115927 3.57212 0
M  V30 4848 C 464.918 1.16161 4.3568 0
M  V30 4849 C 463.58 1.51168 4.56839 0
M  V30 4850 C 465.932 2.0083 4.80954 0
M  V30 4851 C 463.26 2.70696 5.2052 0
M  V30 4852 C 465.612 3.19559 5.45953 0
M  V30 4853 C 464.276 3.54882 5.65345 0
M  V30 4854 H 463.546 0.0107871 0.740921 0
M  V30 4855 H 466.193 0.725506 1.77225 0
M  V30 4856 H 464.498 -0.894902 3.81443 0
M  V30 4857 H 466.195 -0.53749 3.97381 0
M  V30 4858 H 462.785 0.879026 4.19489 0
M  V30 4859 H 466.969 1.75093 4.64388 0
M  V30 4860 H 462.225 2.98236 5.33728 0
M  V30 4861 H 466.399 3.85456 5.79997 0
M  V30 4862 H 464.026 4.47596 6.1446 0
M  V30 4863 N 465.601 -1.54893 0.290851 0
M  V30 4864 C 466.533 -2.20564 -0.623236 0
M  V30 4865 C 467.546 -1.19519 -1.1054 0
M  V30 4866 O 468.735 -1.46165 -1.02459 0
M  V30 4867 C 465.835 -2.83033 -1.86401 0
M  V30 4868 C 465.008 -4.09916 -1.52604 0
M  V30 4869 C 464.067 -4.56284 -2.62091 0
M  V30 4870 O 463.093 -5.2171 -2.27612 0
M  V30 4871 N 464.295 -4.27746 -3.92446 0
M  V30 4872 H 467.06 -2.99638 -0.0610915 0
M  V30 4873 H 464.621 -1.61508 0.112615 0
M  V30 4874 H 466.613 -3.1099 -2.58973 0
M  V30 4875 H 465.183 -2.0786 -2.33481 0
M  V30 4876 H 464.403 -3.89078 -0.633424 0
M  V30 4877 H 465.691 -4.92554 -1.27547 0
M  V30 4878 H 465.089 -3.7531 -4.23272 0
M  V30 4879 H 463.646 -4.60437 -4.61347 0
M  V30 4880 N 467.08 -0.0183926 -1.57589 0
M  V30 4881 C 468.027 0.967022 -2.09565 0
M  V30 4882 C 468.997 1.32983 -0.995225 0
M  V30 4883 O 470.182 1.42501 -1.26878 0
M  V30 4884 C 467.322 2.24772 -2.61861 0
M  V30 4885 C 466.435 1.94232 -3.85873 0
M  V30 4886 C 465.57 3.16518 -4.26603 0
M  V30 4887 C 464.609 2.81748 -5.43401 0
M  V30 4888 N 463.746 3.96626 -5.79338 0
M  V30 4889 H 468.586 0.516874 -2.93483 0
M  V30 4890 H 466.123 0.243544 -1.4507 0
M  V30 4891 H 468.081 2.99667 -2.90268 0
M  V30 4892 H 466.711 2.67423 -1.8079 0
M  V30 4893 H 465.763 1.09625 -3.64262 0
M  V30 4894 H 467.075 1.64616 -4.70853 0
M  V30 4895 H 466.229 3.99743 -4.56389 0
M  V30 4896 H 464.968 3.49286 -3.40368 0
M  V30 4897 H 463.973 1.96933 -5.1332 0
M  V30 4898 H 465.198 2.50207 -6.31327 0
M  V30 4899 H 463.144 4.29257 -4.96059 0
M  V30 4900 H 463.061 3.70598 -6.58933 0
M  V30 4901 H 464.329 4.80586 -6.13724 0
M  V30 4902 N 468.558 1.5553 0.254621 0
M  V30 4903 C 469.804 1.77262 0.985193 0
M  V30 4904 C 470.137 0.582286 1.85265 0
M  V30 4905 O 469.412 -0.419666 1.89919 0
M  V30 4906 C 469.695 3.0881 1.85225 0
M  V30 4907 C 469.548 4.38233 1.0135 0
M  V30 4908 C 470.867 3.3653 2.83612 0
M  V30 4909 H 467.986 0.644906 0.356742 0
M  V30 4910 H 470.628 1.88264 0.256236 0
M  V30 4911 H 468.778 2.99562 2.47376 0
M  V30 4912 H 470.45 4.59463 0.411269 0
M  V30 4913 H 468.693 4.32636 0.317574 0
M  V30 4914 H 469.364 5.26644 1.65379 0
M  V30 4915 H 471.84 3.45691 2.31596 0
M  V30 4916 H 470.716 4.29805 3.41407 0
M  V30 4917 H 470.977 2.57064 3.59681 0
M  V30 4918 N 470.036 -0.519951 1.48776 0
M  V30 4919 C 470.966 -1.63253 1.66945 0
M  V30 4920 C 471.947 -1.62014 0.518224 0
M  V30 4921 O 473.132 -1.79053 0.751919 0
M  V30 4922 C 470.262 -3.0181 1.71836 0
M  V30 4923 C 469.216 -3.17911 2.8656 0
M  V30 4924 C 468.542 -4.5763 2.76548 0
M  V30 4925 C 469.842 -2.99729 4.27738 0
M  V30 4926 H 471.536 -1.48302 2.6009 0
M  V30 4927 H 469.082 -0.712026 1.25165 0
M  V30 4928 H 471.035 -3.79525 1.83135 0
M  V30 4929 H 469.759 -3.17806 0.752775 0
M  V30 4930 H 468.418 -2.42616 2.74833 0
M  V30 4931 H 468.066 -4.70476 1.77937 0
M  V30 4932 H 467.766 -4.69346 3.53536 0
M  V30 4933 H 469.29 -5.37431 2.89828 0
M  V30 4934 H 470.704 -3.67228 4.40246 0
M  V30 4935 H 469.101 -3.22932 5.05801 0
M  V30 4936 H 470.171 -1.96047 4.43502 0
M  V30 4937 N 471.514 -1.37532 -0.769588 0
M  V30 4938 C 472.754 -1.34261 -1.54122 0
M  V30 4939 C 473.118 0.0717222 -1.91866 0
M  V30 4940 O 474.319 0.22918 -2.67821 0
M  V30 4941 C 472.59 -2.2574 -2.77086 0
M  V30 4942 S 474.149 -2.40339 -3.67127 0
M  V30 4943 H 470.967 -0.476595 -0.527615 0
M  V30 4944 H 473.569 -1.73303 -0.90479 0
M  V30 4945 H 472.273 -3.27417 -2.4744 0
M  V30 4946 H 471.804 -1.87789 -3.45686 0
M  V30 4947 H 473.819 -1.61558 -4.69163 0
M  V30 4948 N 472.992 0.995999 -1.22138 0
M  V30 4949 C 473.922 2.10387 -1.01289 0
M  V30 4950 C 474.903 1.69975 0.0651454 0
M  V30 4951 O 476.088 1.9396 -0.0964628 0
M  V30 4952 C 473.218 3.42312 -0.586517 0
M  V30 4953 C 472.172 3.96558 -1.61014 0
M  V30 4954 C 471.498 5.24494 -1.0397 0
M  V30 4955 C 472.798 4.27595 -2.99933 0
M  V30 4956 H 474.492 2.28086 -1.93951 0
M  V30 4957 H 472.038 1.09607 -0.933928 0
M  V30 4958 H 473.991 4.19223 -0.427793 0
M  V30 4959 H 472.715 3.24431 0.375761 0
M  V30 4960 H 471.374 3.21776 -1.75658 0
M  V30 4961 H 471.022 5.02953 -0.0688703 0
M  V30 4962 H 470.722 5.61755 -1.72352 0
M  V30 4963 H 472.246 6.04042 -0.892494 0
M  V30 4964 H 473.66 4.95315 -2.8868 0
M  V30 4965 H 472.057 4.76021 -3.6541 0
M  V30 4966 H 473.127 3.35498 -3.50099 0
M  V30 4967 N 474.47 1.03057 1.19235 0
M  V30 4968 C 475.886 0.747947 1.40989 0
M  V30 4969 C 476.086 -0.666752 1.90149 0
M  V30 4970 O 475.142 -1.43249 2.07933 0
M  V30 4971 C 476.455 1.7855 2.41951 0
M  V30 4972 C 478.003 1.80524 2.55695 0
M  V30 4973 C 478.478 2.83243 3.59913 0
M  V30 4974 N 479.969 2.8207 3.67411 0
M  V30 4975 C 480.704 3.58204 4.47747 0
M  V30 4976 N 480.2 4.44057 5.31775 0
M  V30 4977 N 481.993 3.46738 4.42413 0
M  V30 4978 H 474.144 1.94367 0.856468 0
M  V30 4979 H 476.407 0.840412 0.438647 0
M  V30 4980 H 476.113 2.79973 2.12857 0
M  V30 4981 H 475.987 1.6092 3.41152 0
M  V30 4982 H 478.374 0.79778 2.84112 0
M  V30 4983 H 478.455 2.02229 1.56643 0
M  V30 4984 H 478.099 3.84161 3.32239 0
M  V30 4985 H 478.029 2.58795 4.5862 0
M  V30 4986 H 480.52 2.19803 3.074 0
M  V30 4987 H 480.833 4.98884 5.90199 0
M  V30 4988 H 479.178 4.48129 5.3123 0
M  V30 4989 H 482.369 2.79077 3.75811 0
M  V30 4990 H 482.542 4.06322 5.04783 0
M  V30 4991 N 475.948 -1.35272 0.808662 0
M  V30 4992 C 476.895 -2.29764 0.218482 0
M  V30 4993 C 477.865 -1.52911 -0.648652 0
M  V30 4994 O 479.05 -1.81341 -0.593297 0
M  V30 4995 C 476.19 -3.39388 -0.625282 0
M  V30 4996 C 475.303 -4.31202 0.262516 0
M  V30 4997 C 474.438 -5.27919 -0.589451 0
M  V30 4998 C 473.477 -6.11371 0.298617 0
M  V30 4999 N 472.614 -7.0022 -0.513443 0
M  V30 5000 H 477.454 -2.79645 1.02968 0
M  V30 5001 H 474.991 -1.37629 0.519303 0
M  V30 5002 H 476.949 -4.01615 -1.12966 0
M  V30 5003 H 475.579 -2.90777 -1.40173 0
M  V30 5004 H 474.631 -3.69962 0.885013 0
M  V30 5005 H 475.943 -4.89748 0.945971 0
M  V30 5006 H 475.097 -5.95529 -1.15888 0
M  V30 5007 H 473.836 -4.69875 -1.30647 0
M  V30 5008 H 472.841 -5.42707 0.880301 0
M  V30 5009 H 474.066 -6.71494 1.01352 0
M  V30 5010 H 472.012 -6.44662 -1.21439 0
M  V30 5011 H 471.929 -7.55917 0.111922 0
M  V30 5012 H 473.197 -7.72175 -1.06608 0
M  V30 5013 N 477.426 -0.562348 -1.47226 0
M  V30 5014 C 478.674 -0.0401371 -2.0206 0
M  V30 5015 C 478.995 1.3165 -1.43852 0
M  V30 5016 O 478.265 1.85976 -0.615599 0
M  V30 5017 H 476.845 -0.0118479 -0.746906 0
M  V30 5018 H 479.507 -0.73352 -1.8057 0
M  V30 5019 H 478.603 0.0441254 -3.12069 0
M  V30 5020 N 478.904 1.54736 -0.299062 0
M  V30 5021 C 480.129 2.04975 0.316254 0
M  V30 5022 C 480.554 1.17501 1.46885 0
M  V30 5023 O 479.912 0.178678 1.80417 0
M  V30 5024 C 479.96 3.52672 0.751997 0
M  V30 5025 O 479.064 3.68226 1.85697 0
M  V30 5026 H 478.405 0.661126 0.0617175 0
M  V30 5027 H 480.935 1.99805 -0.440341 0
M  V30 5028 H 480.945 3.94488 1.04133 0
M  V30 5029 H 479.62 4.158 -0.0911482 0
M  V30 5030 H 478.197 3.38316 1.56834 0
M  V30 5031 N 480.382 0.0267497 1.57577 0
M  V30 5032 C 481.63 -0.651116 1.91324 0
M  V30 5033 C 481.951 -1.72804 0.90353 0
M  V30 5034 O 481.221 -1.95822 -0.0552946 0
M  V30 5035 H 479.801 -0.243491 0.706202 0
M  V30 5036 H 482.463 0.0739935 1.94759 0
M  V30 5037 H 481.559 -1.10536 2.9187 0
M  V30 5038 N 481.861 -1.55662 -0.24637 0
M  V30 5039 C 482.824 -1.89558 -1.28842 0
M  V30 5040 C 483.824 -0.772082 -1.41052 0
M  V30 5041 O 485.014 -1.04007 -1.39743 0
M  V30 5042 C 482.146 -2.12449 -2.66605 0
M  V30 5043 H 483.339 -2.82735 -1.00004 0
M  V30 5044 H 480.892 -1.48562 -0.485684 0
M  V30 5045 H 481.627 -1.21742 -3.00582 0
M  V30 5046 H 481.412 -2.94273 -2.59125 0
M  V30 5047 H 482.902 -2.39854 -3.41847 0
M  V30 5048 N 483.339 0.512053 -1.4905 0
M  V30 5049 C 484.286 1.6148 -1.64902 0
M  V30 5050 C 485.256 1.58687 -0.490673 0
M  V30 5051 O 486.441 1.76842 -0.71636 0
M  V30 5052 C 483.581 2.99676 -1.71139 0
M  V30 5053 C 482.694 3.12568 -2.98203 0
M  V30 5054 C 481.829 4.4143 -2.95487 0
M  V30 5055 C 480.868 4.47916 -4.17179 0
M  V30 5056 N 480.005 5.68191 -4.12437 0
M  V30 5057 H 484.845 1.47271 -2.59066 0
M  V30 5058 H 482.382 0.716713 -1.28459 0
M  V30 5059 H 484.34 3.79761 -1.72736 0
M  V30 5060 H 482.97 3.12614 -0.804508 0
M  V30 5061 H 482.022 2.25618 -3.06269 0
M  V30 5062 H 483.334 3.1322 -3.88194 0
M  V30 5063 H 482.488 5.29825 -2.95585 0
M  V30 5064 H 481.227 4.43326 -2.03256 0
M  V30 5065 H 480.232 3.57925 -4.17337 0
M  V30 5066 H 481.457 4.47744 -5.1059 0
M  V30 5067 H 479.403 5.7095 -3.23036 0
M  V30 5068 H 479.32 5.70413 -4.96151 0
M  V30 5069 H 480.588 6.58823 -4.16621 0
M  V30 5070 N 484.817 1.37938 0.762283 0
M  V30 5071 C 486.094 1.24196 1.51112 0
M  V30 5072 C 486.474 -0.160409 2.1049 0
M  V30 5073 O 485.822 -1.16904 1.96331 0
M  V30 5074 C 486.032 2.34537 2.58445 0
M  V30 5075 C 487.38 2.7254 3.25588 0
M  V30 5076 O 488.404 2.33783 2.68745 0
M  V30 5077 O 487.263 3.39343 4.28379 0
M  V30 5078 H 484.357 0.485175 0.669727 0
M  V30 5079 H 486.903 1.49743 0.798438 0
M  V30 5080 H 485.675 3.28406 2.12756 0
M  V30 5081 H 485.298 2.10505 3.37303 0
M  V30 5082 N 486.295 -0.989507 1.22664 0
M  V30 5083 C 487.258 -2.06183 1.00106 0
M  V30 5084 C 488.258 -1.60765 -0.0337726 0
M  V30 5085 O 489.448 -1.72989 0.205072 0
M  V30 5086 C 486.58 -3.37021 0.51279 0
M  V30 5087 H 487.773 -2.27629 1.95256 0
M  V30 5088 H 485.326 -1.16158 1.0458 0
M  V30 5089 H 486.061 -3.21261 -0.442917 0
M  V30 5090 H 485.846 -3.71323 1.25942 0
M  V30 5091 H 487.336 -4.1591 0.375315 0
M  V30 5092 N 487.773 -1.03688 -1.18687 0
M  V30 5093 C 489.05 -0.652397 -1.84399 0
M  V30 5094 C 489.43 0.868386 -1.92412 0
M  V30 5095 O 488.778 1.76832 -1.44716 0
M  V30 5096 C 488.988 -1.3238 -3.22919 0
M  V30 5097 C 490.336 -1.45216 -3.98996 0
M  V30 5098 O 491.36 -1.2816 -3.32345 0
M  V30 5099 O 490.219 -1.72975 -5.18403 0
M  V30 5100 H 487.313 -0.227793 -0.795009 0
M  V30 5101 H 489.859 -1.13553 -1.2611 0
M  V30 5102 H 488.631 -2.36202 -3.11968 0
M  V30 5103 H 488.254 -0.829039 -3.88861 0
M  V30 5104 N 489.251 1.34841 -0.815825 0
M  V30 5105 C 490.214 2.27959 -0.238185 0
M  V30 5106 C 491.214 1.49983 0.579816 0
M  V30 5107 O 492.404 1.69617 0.396953 0
M  V30 5108 C 489.536 3.34314 0.666876 0
M  V30 5109 H 490.729 2.80558 -1.05958 0
M  V30 5110 H 488.282 1.44852 -0.587156 0
M  V30 5111 H 489.017 2.86916 1.5116 0
M  V30 5112 H 488.802 3.92014 0.0819106 0
M  V30 5113 H 490.292 4.0379 1.06506 0
M  V30 5114 N 490.729 0.570148 1.46925 0
M  V30 5115 C 491.957 0.0561966 2.06824 0
M  V30 5116 C 492.372 -1.24326 1.42086 0
M  V30 5117 O 491.729 -1.74882 0.521794 0
M  V30 5118 C 491.78 -0.129517 3.61268 0
M  V30 5119 O 491.501 1.1185 4.23581 0
M  V30 5120 C 493.002 -0.679266 4.38065 0
M  V30 5121 H 490.222 0.0517261 0.669003 0
M  V30 5122 H 492.766 0.787243 1.8874 0
M  V30 5123 H 490.921 -0.810739 3.78822 0
M  V30 5124 H 491.335 0.924375 5.1629 0
M  V30 5125 H 492.809 -0.758445 5.46765 0
M  V30 5126 H 493.286 -1.69346 4.05239 0
M  V30 5127 H 493.892 -0.0333237 4.25287 0
M  V30 5128 N 492.207 -1.54576 0.307264 0
M  V30 5129 C 493.117 -2.27435 -0.57536 0
M  V30 5130 C 494.133 -1.31183 -1.14311 0
M  V30 5131 O 495.309 -1.64175 -1.16656 0
M  V30 5132 C 492.374 -3.00566 -1.72803 0
M  V30 5133 C 491.435 -4.12369 -1.19373 0
M  V30 5134 C 490.668 -4.82003 -2.29147 0
M  V30 5135 O 490.891 -4.51038 -3.49171 0
M  V30 5136 O 489.825 -5.69271 -1.95485 0
M  V30 5137 H 493.651 -3.03696 0.0158558 0
M  V30 5138 H 491.236 -1.49219 0.0735064 0
M  V30 5139 H 493.118 -3.46416 -2.39946 0
M  V30 5140 H 491.793 -2.27195 -2.30574 0
M  V30 5141 H 490.7 -3.70905 -0.487851 0
M  V30 5142 H 492.033 -4.87736 -0.661376 0
M  V30 5143 N 493.685 -0.035106 -1.57561 0
M  V30 5144 C 495.096 0.502885 -1.798 0
M  V30 5145 C 495.447 1.71892 -0.945921 0
M  V30 5146 O 494.572 2.15822 -0.157991 0
M  V30 5147 C 495.167 0.919097 -3.26095 0
M  V30 5148 C 493.726 1.40216 -3.49308 0
M  V30 5149 C 492.873 0.369709 -2.74824 0
M  V30 5150 H 495.824 -0.261102 -1.56537 0
M  V30 5151 H 495.845 1.78308 -3.36135 0
M  V30 5152 H 495.357 0.0338526 -3.88085 0
M  V30 5153 H 493.458 2.30714 -2.92578 0
M  V30 5154 H 493.571 1.40541 -4.58023 0
M  V30 5155 H 491.935 0.839113 -2.40481 0
M  V30 5156 H 492.718 -0.507173 -3.39533 0
M  V30 5157 N 495.163 1.55791 0.238111 0
M  V30 5158 C 496.579 1.48411 0.587045 0
M  V30 5159 C 496.779 0.72702 1.87927 0
M  V30 5160 O 495.835 0.259942 2.51158 0
M  V30 5161 C 497.148 2.92873 0.681623 0
M  V30 5162 C 498.696 3.03295 0.773363 0
M  V30 5163 C 499.171 4.49082 0.899428 0
M  V30 5164 N 500.662 4.53056 0.964075 0
M  V30 5165 C 501.397 5.63117 1.08104 0
M  V30 5166 N 500.893 6.82969 1.16299 0
M  V30 5167 N 502.686 5.50933 1.11488 0
M  V30 5168 H 494.837 2.0345 -0.610076 0
M  V30 5169 H 497.1 0.924034 -0.211813 0
M  V30 5170 H 496.806 3.51142 -0.19802 0
M  V30 5171 H 496.68 3.43851 1.55069 0
M  V30 5172 H 499.067 2.45101 1.64346 0
M  V30 5173 H 499.148 2.55513 -0.121034 0
M  V30 5174 H 498.792 5.07889 0.0338586 0
M  V30 5175 H 498.722 4.94553 1.809 0
M  V30 5176 H 501.213 3.66737 0.91173 0
M  V30 5177 H 501.526 7.62598 1.25155 0
M  V30 5178 H 499.871 6.85712 1.13241 0
M  V30 5179 H 503.062 4.56231 1.0474 0
M  V30 5180 H 503.235 6.36743 1.20259 0
M  V30 5181 N 496.642 -0.504142 1.49319 0
M  V30 5182 C 498.053 -1.08572 1.51885 0
M  V30 5183 C 498.404 -1.93842 0.303255 0
M  V30 5184 O 497.529 -2.0828 -0.58724 0
M  V30 5185 C 498.124 -1.97574 2.75227 0
M  V30 5186 C 496.683 -2.509 2.80581 0
M  V30 5187 C 495.83 -1.28447 2.45757 0
M  V30 5188 H 498.781 -0.288194 1.56061 0
M  V30 5189 H 498.802 -2.82219 2.55211 0
M  V30 5190 H 498.314 -1.35486 3.63683 0
M  V30 5191 H 496.415 -3.16636 1.96398 0
M  V30 5192 H 496.528 -2.88268 3.82673 0
M  V30 5193 H 494.892 -1.60868 1.97468 0
M  V30 5194 H 495.675 -0.68072 3.36483 0
M  V30 5195 N 498.12 -1.38341 -0.754957 0
M  V30 5196 C 499.397 -1.24995 -1.50451 0
M  V30 5197 C 499.777 0.149244 -2.10572 0
M  V30 5198 O 499.125 1.15861 -1.96948 0
M  V30 5199 C 499.335 -2.35904 -2.57197 0
M  V30 5200 C 500.683 -2.74262 -3.24138 0
M  V30 5201 O 501.707 -2.35205 -2.67501 0
M  V30 5202 O 500.566 -3.4161 -4.26574 0
M  V30 5203 H 497.66 -0.48872 -0.667144 0
M  V30 5204 H 500.206 -1.50165 -0.790486 0
M  V30 5205 H 498.978 -3.2953 -2.11011 0
M  V30 5206 H 498.601 -2.12291 -3.36182 0
M  V30 5207 N 499.598 0.982988 -1.23187 0
M  V30 5208 C 501.014 1.2487 -0.993967 0
M  V30 5209 C 501.214 1.99155 0.306498 0
M  V30 5210 O 500.27 2.30688 1.0266 0
M  V30 5211 C 501.583 2.05078 -2.19917 0
M  V30 5212 C 503.131 2.18227 -2.2438 0
M  V30 5213 C 503.606 3.01825 -3.44479 0
M  V30 5214 N 505.097 3.09411 -3.44702 0
M  V30 5215 C 505.832 3.74412 -4.34285 0
M  V30 5216 N 505.328 4.41259 -5.341 0
M  V30 5217 N 507.121 3.71273 -4.22035 0
M  V30 5218 H 499.272 0.485253 -2.06783 0
M  V30 5219 H 501.535 0.276979 -0.906635 0
M  V30 5220 H 501.241 1.57867 -3.14279 0
M  V30 5221 H 501.115 3.05829 -2.2079 0
M  V30 5222 H 503.502 2.64648 -1.30559 0
M  V30 5223 H 503.583 1.16873 -2.2754 0
M  V30 5224 H 503.227 2.56102 -4.38605 0
M  V30 5225 H 503.157 4.03342 -3.38559 0
M  V30 5226 H 505.648 2.61845 -2.7248 0
M  V30 5227 H 505.961 4.88629 -5.98717 0
M  V30 5228 H 504.306 4.39975 -5.38002 0
M  V30 5229 H 507.497 3.18217 -3.43301 0
M  V30 5230 H 507.67 4.21649 -4.92053 0
M  V30 5231 N 501.076 1.04316 1.18135 0
M  V30 5232 C 502.325 0.74319 1.87509 0
M  V30 5233 C 502.638 -0.732136 1.81381 0
M  V30 5234 O 503.844 -1.14572 2.46141 0
M  V30 5235 C 502.3 1.27913 3.36402 0
M  V30 5236 C 501.908 2.78326 3.51053 0
M  V30 5237 C 503.652 1.0558 4.11161 0
M  V30 5238 C 501.559 3.25266 4.93919 0
M  V30 5239 H 500.489 0.274313 0.702331 0
M  V30 5240 H 503.14 1.25931 1.33467 0
M  V30 5241 H 501.522 0.690853 3.89927 0
M  V30 5242 H 502.696 3.42933 3.07788 0
M  V30 5243 H 501.011 2.991 2.89704 0
M  V30 5244 H 503.608 1.38161 5.16542 0
M  V30 5245 H 503.951 -0.00684729 4.16299 0
M  V30 5246 H 504.484 1.60882 3.63816 0
M  V30 5247 H 501.223 4.30922 4.9395 0
M  V30 5248 H 500.743 2.65396 5.3789 0
M  V30 5249 H 502.422 3.19433 5.62647 0
M  V30 5250 N 502.554 -1.34406 0.822964 0
M  V30 5251 C 503.97 -1.51275 0.508727 0
M  V30 5252 C 504.17 -1.76776 -0.967083 0
M  V30 5253 O 503.226 -1.81871 -1.75155 0
M  V30 5254 C 504.539 -2.67765 1.36829 0
M  V30 5255 C 506.087 -2.81647 1.36542 0
M  V30 5256 C 506.562 -4.01181 2.20947 0
M  V30 5257 N 508.053 -4.08388 2.18571 0
M  V30 5258 C 508.788 -5.00036 2.80627 0
M  V30 5259 N 508.284 -5.96906 3.51674 0
M  V30 5260 N 510.077 -4.92908 2.70181 0
M  V30 5261 H 502.228 -1.16113 1.77852 0
M  V30 5262 H 504.491 -0.56947 0.757897 0
M  V30 5263 H 504.197 -2.55551 2.41633 0
M  V30 5264 H 504.071 -3.62779 1.03303 0
M  V30 5265 H 506.458 -2.93303 0.325163 0
M  V30 5266 H 506.539 -1.87443 1.74066 0
M  V30 5267 H 506.183 -3.90286 3.25022 0
M  V30 5268 H 506.113 -4.94599 1.80774 0
M  V30 5269 H 508.604 -3.39051 1.66891 0
M  V30 5270 H 508.917 -6.63468 3.96271 0
M  V30 5271 H 507.262 -5.9703 3.5578 0
M  V30 5272 H 510.453 -4.1619 2.14251 0
M  V30 5273 H 510.626 -5.64137 3.18831 0
M  V30 5274 N 504.032 -0.577932 -1.46621 0
M  V30 5275 C 504.964 0.195801 -2.28362 0
M  V30 5276 C 505.977 0.859983 -1.38232 0
M  V30 5277 O 507.166 0.730349 -1.62875 0
M  V30 5278 C 504.266 1.29639 -3.13124 0
M  V30 5279 C 503.439 0.725049 -4.31349 0
M  V30 5280 C 502.498 1.71274 -4.97546 0
M  V30 5281 O 501.524 1.25067 -5.5529 0
M  V30 5282 N 502.726 3.04672 -4.94121 0
M  V30 5283 H 505.491 -0.505468 -2.95407 0
M  V30 5284 H 503.052 -0.415381 -1.56481 0
M  V30 5285 H 505.044 1.95631 -3.54275 0
M  V30 5286 H 503.614 1.90059 -2.48186 0
M  V30 5287 H 502.834 -0.112205 -3.9404 0
M  V30 5288 H 504.122 0.323034 -5.07774 0
M  V30 5289 H 503.52 3.4484 -4.48444 0
M  V30 5290 H 502.077 3.66166 -5.39227 0
M  V30 5291 N 505.51 1.54411 -0.315457 0
M  V30 5292 C 506.442 2.21527 0.588067 0
M  V30 5293 C 507.455 1.21263 1.08624 0
M  V30 5294 O 508.644 1.47777 1.00121 0
M  V30 5295 C 505.744 2.85963 1.81875 0
M  V30 5296 C 504.917 4.12291 1.46063 0
M  V30 5297 C 503.976 4.60396 2.54799 0
M  V30 5298 O 503.002 5.25265 2.19283 0
M  V30 5299 N 504.204 4.33935 3.85591 0
M  V30 5300 H 506.969 2.99697 0.013414 0
M  V30 5301 H 504.53 1.61308 -0.138295 0
M  V30 5302 H 506.522 3.15071 2.53993 0
M  V30 5303 H 505.092 2.11548 2.30144 0
M  V30 5304 H 504.312 3.90036 0.571445 0
M  V30 5305 H 505.6 4.9452 1.19695 0
M  V30 5306 H 504.998 3.81996 4.17248 0
M  V30 5307 H 503.555 4.67718 4.53964 0
M  V30 5308 N 506.988 0.0434614 1.5754 0
M  V30 5309 C 507.92 -0.962586 2.08007 0
M  V30 5310 C 508.933 -1.27972 1.00634 0
M  V30 5311 O 510.122 -1.24186 1.28219 0
M  V30 5312 C 507.222 -2.28621 2.50171 0
M  V30 5313 C 506.395 -2.15214 3.80791 0
M  V30 5314 C 505.454 -3.30633 4.09351 0
M  V30 5315 O 504.48 -3.0688 4.79388 0
M  V30 5316 N 505.682 -4.54873 3.60654 0
M  V30 5317 H 508.447 -0.531891 2.94942 0
M  V30 5318 H 506.008 -0.142965 1.61268 0
M  V30 5319 H 508 -3.04689 2.66359 0
M  V30 5320 H 506.57 -2.63283 1.68525 0
M  V30 5321 H 505.79 -1.23785 3.74261 0
M  V30 5322 H 507.078 -2.03475 4.66343 0
M  V30 5323 H 506.476 -4.77063 3.04019 0
M  V30 5324 H 505.033 -5.2806 3.82094 0
M  V30 5325 N 508.466 -1.55915 -0.229846 0
M  V30 5326 C 509.376 -1.94891 -1.30593 0
M  V30 5327 C 510.392 -0.851604 -1.51736 0
M  V30 5328 O 511.568 -1.15447 -1.65027 0
M  V30 5329 C 508.633 -2.25052 -2.63728 0
M  V30 5330 C 507.694 -3.48306 -2.5096 0
M  V30 5331 C 506.927 -3.77019 -3.77747 0
M  V30 5332 O 507.15 -3.07534 -4.80395 0
M  V30 5333 O 506.084 -4.70523 -3.75356 0
M  V30 5334 H 509.91 -2.86581 -1.00525 0
M  V30 5335 H 507.495 -1.43017 -0.432025 0
M  V30 5336 H 509.377 -2.45682 -3.42372 0
M  V30 5337 H 508.052 -1.36538 -2.93495 0
M  V30 5338 H 506.959 -3.32964 -1.70546 0
M  V30 5339 H 508.292 -4.37177 -2.26136 0
M  V30 5340 N 509.944 0.496216 -1.49584 0
M  V30 5341 C 510.907 1.57952 -1.66084 0
M  V30 5342 C 511.907 1.51729 -0.53244 0
M  V30 5343 O 513.097 1.54796 -0.79899 0
M  V30 5344 C 510.229 2.97604 -1.66268 0
M  V30 5345 H 511.422 1.44649 -2.6271 0
M  V30 5346 H 508.975 0.7208 -1.38687 0
M  V30 5347 H 509.71 3.16378 -0.712432 0
M  V30 5348 H 509.495 3.03528 -2.4822 0
M  V30 5349 H 510.985 3.76301 -1.81073 0
M  V30 5350 N 511.423 1.38739 0.74761 0
M  V30 5351 C 512.651 1.38521 1.53686 0
M  V30 5352 C 513.066 -0.0235129 1.88785 0
M  V30 5353 O 512.423 -0.991662 1.53207 0
M  V30 5354 C 512.474 2.24641 2.83229 0
M  V30 5355 O 512.195 3.60026 2.49625 0
M  V30 5356 C 513.696 2.32669 3.77333 0
M  V30 5357 H 510.916 0.473589 0.475347 0
M  V30 5358 H 513.46 1.82395 0.924786 0
M  V30 5359 H 511.615 1.84213 3.40799 0
M  V30 5360 H 512.029 4.05435 3.3275 0
M  V30 5361 H 513.503 2.97201 4.65162 0
M  V30 5362 H 513.98 1.3421 4.18192 0
M  V30 5363 H 514.586 2.73512 3.25685 0
M  V30 5364 N 512.901 -0.976442 1.23707 0
M  V30 5365 C 514.312 -1.53284 1.06587 0
M  V30 5366 C 514.663 -1.92765 -0.365526 0
M  V30 5367 O 513.788 -1.7645 -1.25277 0
M  V30 5368 C 514.383 -2.78548 1.92864 0
M  V30 5369 C 512.942 -3.30574 1.79994 0
M  V30 5370 C 512.089 -2.03538 1.88328 0
M  V30 5371 H 515.04 -0.795692 1.37311 0
M  V30 5372 H 515.061 -3.5155 1.45577 0
M  V30 5373 H 514.573 -2.49782 2.97037 0
M  V30 5374 H 512.674 -3.64211 0.786202 0
M  V30 5375 H 512.787 -4.00065 2.636 0
M  V30 5376 H 511.151 -2.17853 1.31954 0
M  V30 5377 H 511.934 -1.77149 2.94063 0
M  V30 5378 N 514.379 -1.04941 -1.1758 0
M  V30 5379 C 515.79 -0.784501 -1.69418 0
M  V30 5380 C 516.141 0.693625 -1.8353 0
M  V30 5381 O 515.266 1.53925 -1.52106 0
M  V30 5382 C 515.861 -1.41746 -3.07723 0
M  V30 5383 C 514.42 -1.20066 -3.56737 0
M  V30 5384 C 513.567 -1.5026 -2.33061 0
M  V30 5385 H 516.518 -1.21469 -1.02133 0
M  V30 5386 H 516.539 -0.825381 -3.7144 0
M  V30 5387 H 516.051 -2.49325 -2.9742 0
M  V30 5388 H 514.152 -0.144006 -3.72322 0
M  V30 5389 H 514.265 -1.90384 -4.39648 0
M  V30 5390 H 512.629 -0.922598 -2.37403 0
M  V30 5391 H 513.412 -2.58967 -2.25368 0
M  V30 5392 N 515.857 1.33968 -0.830081 0
M  V30 5393 C 516.82 2.27694 -0.26235 0
M  V30 5394 C 517.82 1.50589 0.563876 0
M  V30 5395 O 519.01 1.70028 0.378941 0
M  V30 5396 C 516.142 3.35002 0.63138 0
M  V30 5397 H 517.335 2.79419 -1.08928 0
M  V30 5398 H 514.888 1.44221 -0.602486 0
M  V30 5399 H 515.623 2.88504 1.48109 0
M  V30 5400 H 515.408 3.92079 0.0403276 0
M  V30 5401 H 516.898 4.04897 1.02217 0
M  V30 5402 N 517.335 0.585699 1.46312 0
M  V30 5403 C 518.285 -0.166813 2.27389 0
M  V30 5404 C 519.269 -0.859076 1.36047 0
M  V30 5405 O 520.461 -0.752678 1.60199 0
M  V30 5406 C 517.59 -1.17791 3.2246 0
M  V30 5407 C 516.676 -0.487605 4.21288 0
M  V30 5408 N 517.067 0.45849 5.03718 0
M  V30 5409 C 515.365 -0.737971 4.39852 0
M  V30 5410 C 516.066 0.862213 5.75275 0
M  V30 5411 N 515.042 0.210707 5.43191 0
M  V30 5412 H 518.844 0.560167 2.88512 0
M  V30 5413 H 516.358 0.407715 1.57199 0
M  V30 5414 H 518.355 -1.73122 3.79255 0
M  V30 5415 H 517.015 -1.90568 2.62896 0
M  V30 5416 H 518.026 0.834163 5.11138 0
M  V30 5417 H 514.703 -1.45209 3.91434 0
M  V30 5418 H 516.093 1.64128 6.51546 0
M  V30 5419 N 518.813 -1.54241 0.323641 0
M  V30 5420 C 520.229 -1.59574 -0.0290018 0
M  V30 5421 C 520.429 -1.34017 -1.50472 0
M  V30 5422 O 519.485 -1.12464 -2.26071 0
M  V30 5423 C 520.798 -2.98169 0.389295 0
M  V30 5424 C 522.346 -3.11148 0.339958 0
M  V30 5425 C 522.821 -4.5209 0.733418 0
M  V30 5426 N 524.312 -4.5808 0.686827 0
M  V30 5427 C 525.047 -5.65248 0.963464 0
M  V30 5428 N 524.543 -6.80355 1.30724 0
M  V30 5429 N 526.336 -5.55025 0.88902 0
M  V30 5430 H 518.487 -1.6911 1.28512 0
M  V30 5431 H 520.75 -0.790972 0.522558 0
M  V30 5432 H 520.456 -3.21871 1.41746 0
M  V30 5433 H 520.33 -3.76399 -0.245657 0
M  V30 5434 H 522.717 -2.87182 -0.679002 0
M  V30 5435 H 522.798 -2.35023 1.00985 0
M  V30 5436 H 522.442 -4.76788 1.75029 0
M  V30 5437 H 522.372 -5.26584 0.0412189 0
M  V30 5438 H 524.863 -3.75411 0.43298 0
M  V30 5439 H 525.176 -7.58029 1.5037 0
M  V30 5440 H 523.521 -6.81851 1.3455 0
M  V30 5441 H 526.712 -4.63977 0.619939 0
M  V30 5442 H 526.885 -6.38458 1.10797 0
M  V30 5443 N 520.291 -0.0518155 -1.57515 0
M  V30 5444 C 521.254 0.907547 -2.10467 0
M  V30 5445 C 522.254 1.23947 -1.02439 0
M  V30 5446 O 523.444 1.17604 -1.2851 0
M  V30 5447 C 520.576 2.21723 -2.58944 0
M  V30 5448 H 521.769 0.44851 -2.96527 0
M  V30 5449 H 519.322 0.196598 -1.55059 0
M  V30 5450 H 520.057 2.72206 -1.76279 0
M  V30 5451 H 519.842 1.98935 -3.37886 0
M  V30 5452 H 521.332 2.90441 -3.00056 0
M  V30 5453 N 521.769 1.56035 0.221574 0
M  V30 5454 C 522.732 1.91584 1.2581 0
M  V30 5455 C 523.732 0.794425 1.39805 0
M  V30 5456 O 524.922 1.06217 1.38071 0
M  V30 5457 C 522.054 2.16663 2.63192 0
M  V30 5458 H 523.247 2.8429 0.954935 0
M  V30 5459 H 520.8 1.49316 0.461988 0
M  V30 5460 H 521.535 1.26508 2.98607 0
M  V30 5461 H 521.32 2.98358 2.5441 0
M  V30 5462 H 522.81 2.45262 3.37988 0
M  V30 5463 N 523.247 -0.488276 1.49845 0
M  V30 5464 C 524.21 -1.57069 1.66919 0
M  V30 5465 C 525.21 -1.51445 0.540479 0
M  V30 5466 O 526.4 -1.5437 0.807188 0
M  V30 5467 C 523.532 -2.96718 1.67844 0
M  V30 5468 H 524.725 -1.43254 2.63474 0
M  V30 5469 H 522.278 -0.713435 1.39068 0
M  V30 5470 H 523.013 -3.15996 0.7292 0
M  V30 5471 H 522.798 -3.02208 2.49826 0
M  V30 5472 H 524.288 -3.75335 1.83066 0
M  V30 5473 N 524.725 -1.39134 -0.740242 0
M  V30 5474 C 525.673 -1.3757 -1.87556 0
M  V30 5475 C 526.667 -0.259593 -1.67399 0
M  V30 5476 O 527.873 -0.429349 -1.74804 0
M  V30 5477 H 524.248 -0.42947 -0.6173 0
M  V30 5478 H 526.219 -2.33345 -1.85991 0
M  V30 5479 C 524.968 -1.23087 -3.25184 0
M  V30 5480 H 524.291 -2.08237 -3.41288 0
M  V30 5481 H 525.731 -1.26049 -4.0483 0
M  V30 5482 C 524.19 0.0611471 -3.36845 0
M  V30 5483 O 524.72 1.03328 -3.88183 0
M  V30 5484 N 522.926 0.122454 -2.90342 0
M  V30 5485 H 522.473 -0.669329 -2.48752 0
M  V30 5486 H 522.431 0.986463 -2.98523 0
M  V30 5487 N 526.204 0.969867 -1.24223 0
M  V30 5488 C 527.452 1.70918 -1.0785 0
M  V30 5489 C 527.773 1.91186 0.383763 0
M  V30 5490 O 527.043 1.48806 1.27411 0
M  V30 5491 H 525.623 0.633334 -0.396103 0
M  V30 5492 H 528.285 1.16689 -1.56108 0
M  V30 5493 H 527.381 2.69455 -1.57482 0
M  V30 5494 N 527.682 1.05563 1.17022 0
M  V30 5495 C 528.612 0.681026 2.23348 0
M  V30 5496 C 529.593 -0.322983 1.67005 0
M  V30 5497 O 530.778 -0.199746 1.9317 0
M  V30 5498 C 527.908 0.0589053 3.4725 0
M  V30 5499 C 526.862 0.988082 4.16438 0
M  V30 5500 C 526.188 0.229646 5.34207 0
M  V30 5501 C 527.488 2.31388 4.68249 0
M  V30 5502 H 529.182 1.56993 2.54938 0
M  V30 5503 H 526.728 0.756302 1.2254 0
M  V30 5504 H 528.681 -0.214982 4.20851 0
M  V30 5505 H 527.405 -0.864968 3.14938 0
M  V30 5506 H 526.064 1.24659 3.44754 0
M  V30 5507 H 525.712 -0.697111 4.98146 0
M  V30 5508 H 525.412 0.848815 5.81437 0
M  V30 5509 H 526.936 -0.0368694 6.10589 0
M  V30 5510 H 528.35 2.09964 5.33468 0
M  V30 5511 H 526.747 2.88736 5.26072 0
M  V30 5512 H 527.817 2.94982 3.84855 0
M  V30 5513 N 529.16 -1.33526 0.837174 0
M  V30 5514 C 530.093 -2.27192 0.214233 0
M  V30 5515 C 531.071 -1.49575 -0.637657 0
M  V30 5516 O 532.255 -1.78753 -0.598291 0
M  V30 5517 C 529.382 -3.31401 -0.699367 0
M  V30 5518 C 528.428 -4.26431 0.0768429 0
M  V30 5519 S 529.261 -5.15954 1.4336 0
M  V30 5520 C 530.417 -6.23692 0.525251 0
M  V30 5521 H 530.65 -2.79679 1.00831 0
M  V30 5522 H 528.183 -1.4079 0.633834 0
M  V30 5523 H 530.141 -3.91924 -1.22088 0
M  V30 5524 H 528.802 -2.77732 -1.46709 0
M  V30 5525 H 527.995 -5.00193 -0.618268 0
M  V30 5526 H 527.597 -3.70235 0.529364 0
M  V30 5527 H 529.889 -6.76931 -0.277575 0
M  V30 5528 H 530.832 -6.97283 1.23299 0
M  V30 5529 H 531.24 -5.64398 0.107351 0
M  V30 5530 N 530.638 -0.59345 -1.46 0
M  V30 5531 C 531.57 0.171569 -2.28557 0
M  V30 5532 C 532.583 0.845273 -1.39137 0
M  V30 5533 O 533.772 0.713033 -1.6364 0
M  V30 5534 C 530.872 1.26311 -3.14482 0
M  V30 5535 C 530.045 0.679258 -4.32094 0
M  V30 5536 C 529.104 1.65987 -4.99334 0
M  V30 5537 O 528.13 1.19171 -5.56585 0
M  V30 5538 N 529.332 2.99414 -4.97324 0
M  V30 5539 H 532.097 -0.536771 -2.94854 0
M  V30 5540 H 529.658 -0.431954 -1.56031 0
M  V30 5541 H 531.65 1.91863 -3.5633 0
M  V30 5542 H 530.22 1.87416 -2.50188 0
M  V30 5543 H 529.44 -0.153992 -3.93899 0
M  V30 5544 H 530.728 0.26916 -5.08088 0
M  V30 5545 H 530.126 3.40064 -4.52076 0
M  V30 5546 H 528.683 3.60426 -5.4308 0
M  V30 5547 N 532.116 1.54067 -0.331816 0
M  V30 5548 C 533.344 2.05131 0.269996 0
M  V30 5549 C 533.759 1.20749 1.45138 0
M  V30 5550 O 533.116 0.240069 1.80914 0
M  V30 5551 C 533.167 3.54728 0.696456 0
M  V30 5552 O 532.888 4.35906 -0.43794 0
M  V30 5553 C 534.389 4.21916 1.36021 0
M  V30 5554 H 531.609 0.668807 0.0542042 0
M  V30 5555 H 534.153 1.98777 -0.4804 0
M  V30 5556 H 532.308 3.61342 1.39681 0
M  V30 5557 H 532.722 5.24404 -0.100334 0
M  V30 5558 H 534.196 5.28015 1.60947 0
M  V30 5559 H 534.673 3.73538 2.31011 0
M  V30 5560 H 535.279 4.19463 0.702212 0
M  V30 5561 N 533.594 0.0601682 1.57485 0
M  V30 5562 C 534.819 -0.624416 1.97777 0
M  V30 5563 C 535.244 -1.63051 0.937867 0
M  V30 5564 O 534.602 -1.81036 -0.0978845 0
M  V30 5565 C 534.65 -1.27979 3.37126 0
M  V30 5566 O 533.754 -2.39556 3.35688 0
M  V30 5567 H 533.095 -0.161581 0.64404 0
M  V30 5568 H 535.625 0.131237 2.04179 0
M  V30 5569 H 535.635 -1.62937 3.74053 0
M  V30 5570 H 534.31 -0.542501 4.12347 0
M  V30 5571 H 532.887 -2.06478 3.10517 0
M  V30 5572 N 535.072 -1.5615 -0.213296 0
M  V30 5573 C 536.019 -1.93086 -1.26437 0
M  V30 5574 C 536.989 -0.789086 -1.4616 0
M  V30 5575 O 538.174 -1.04569 -1.59593 0
M  V30 5576 C 535.314 -2.26003 -2.608 0
M  V30 5577 C 534.427 -3.53156 -2.48807 0
M  V30 5578 C 533.562 -3.7548 -3.7575 0
M  V30 5579 C 532.601 -4.96119 -3.58514 0
M  V30 5580 N 531.738 -5.14791 -4.77425 0
M  V30 5581 H 536.578 -2.82707 -0.942376 0
M  V30 5582 H 534.115 -1.39919 -0.454001 0
M  V30 5583 H 536.073 -2.431 -3.39055 0
M  V30 5584 H 534.703 -1.39546 -2.91079 0
M  V30 5585 H 533.755 -3.44207 -1.61944 0
M  V30 5586 H 535.067 -4.41565 -2.31996 0
M  V30 5587 H 534.221 -3.92718 -4.62447 0
M  V30 5588 H 532.96 -2.85368 -3.95495 0
M  V30 5589 H 531.965 -4.78823 -2.70201 0
M  V30 5590 H 533.19 -5.87724 -3.40231 0
M  V30 5591 H 531.136 -4.27623 -4.97468 0
M  V30 5592 H 531.053 -5.97347 -4.63371 0
M  V30 5593 H 532.321 -5.36471 -5.65525 0
M  V30 5594 N 536.55 0.480323 -1.50102 0
M  V30 5595 C 537.48 1.58769 -1.71215 0
M  V30 5596 C 538.461 1.60583 -0.560997 0
M  V30 5597 O 539.646 1.76996 -0.799127 0
M  V30 5598 C 536.776 2.97148 -1.79778 0
M  V30 5599 C 535.73 3.10201 -2.94888 0
M  V30 5600 C 535.056 4.50137 -2.88584 0
M  V30 5601 C 536.356 2.88283 -4.35534 0
M  V30 5602 H 538.05 1.41354 -2.6393 0
M  V30 5603 H 535.596 0.678591 -1.27008 0
M  V30 5604 H 537.549 3.74536 -1.93133 0
M  V30 5605 H 536.273 3.15699 -0.836772 0
M  V30 5606 H 534.932 2.35244 -2.81169 0
M  V30 5607 H 534.58 4.65593 -1.90349 0
M  V30 5608 H 534.28 4.59808 -3.65856 0
M  V30 5609 H 535.804 5.29558 -3.03976 0
M  V30 5610 H 537.218 3.55427 -4.49827 0
M  V30 5611 H 535.615 3.09408 -5.14186 0
M  V30 5612 H 536.685 1.84219 -4.48544 0
M  V30 5613 O 538.067 1.48883 0.625791 0
M  V30 5614 H 538.758 1.45381 1.28 0
M  V30 END ATOM
M  V30 BEGIN BOND
M  V30 END BOND
M  V30 END CTAB
M  END
$$$$
