drugbank_target|P35340 Alkyl hydroperoxide reductase subunit F (DB03147)
 OpenBabel12092120263D

  0  0  0     0  0            999 V3000
M  V30 BEGIN CTAB
M  V30 COUNTS 7939 8000 0 0 0
M  V30 BEGIN ATOM
M  V30 1 H -0.908 1.98254 -0.117106 0
M  V30 2 N 0 1.576 0 0
M  V30 3 C 0.933 2.03868 1.02534 0
M  V30 4 C 1.911 0.928543 1.3348 0
M  V30 5 O 3.095 1.19667 1.45644 0
M  V30 6 C 0.222 2.43627 2.35294 0
M  V30 7 C -0.732 3.65373 2.2001 0
M  V30 8 S 0.101 5.13292 1.52614 0
M  V30 9 C 1.257 5.56322 2.86805 0
M  V30 10 H 1.49 2.90518 0.631377 0
M  V30 11 H -0.977 1.52953 0.210867 0
M  V30 12 H 0.981 2.67203 3.11629 0
M  V30 13 H -0.358 1.57376 2.7183 0
M  V30 14 H -1.165 3.90944 3.18086 0
M  V30 15 H -1.563 3.418 1.51819 0
M  V30 16 H 0.729 5.58782 3.83104 0
M  V30 17 H 1.672 6.56266 2.65933 0
M  V30 18 H 2.08 4.83886 2.90714 0
M  V30 19 N 1.4781 -0.272755 1.55222 0
M  V30 20 C 2.4081 -1.34136 1.91127 0
M  V30 21 C 3.3891 -1.51513 0.773168 0
M  V30 22 O 4.5741 -1.64552 1.03132 0
M  V30 23 C 1.7041 -2.70083 2.1834 0
M  V30 24 C 0.6581 -2.67437 3.34158 0
M  V30 25 C -0.0159 -4.06938 3.46851 0
M  V30 26 C 1.2841 -2.26686 4.70543 0
M  V30 27 H 2.9781 -1.04333 2.80633 0
M  V30 28 H 0.5241 -0.500454 1.35024 0
M  V30 29 H 2.4771 -3.44952 2.42046 0
M  V30 30 H 1.2011 -3.01469 1.25634 0
M  V30 31 H -0.1399 -1.95026 3.1042 0
M  V30 32 H -0.4919 -4.35547 2.51611 0
M  V30 33 H -0.7919 -4.06062 4.2472 0
M  V30 34 H 0.7321 -4.83545 3.72849 0
M  V30 35 H 2.1461 -2.91277 4.93792 0
M  V30 36 H 0.5431 -2.36971 5.5133 0
M  V30 37 H 1.6131 -1.21818 4.69349 0
M  V30 38 N 2.9562 -1.48159 -0.537278 0
M  V30 39 C 4.2332 -1.46291 -1.29839 0
M  V30 40 C 4.6132 -0.170613 -2.10409 0
M  V30 41 O 3.9612 0.847746 -2.12192 0
M  V30 42 C 4.1712 -2.72055 -2.18603 0
M  V30 43 C 5.5192 -3.20087 -2.7898 0
M  V30 44 O 6.5432 -2.72921 -2.28894 0
M  V30 45 O 5.4022 -4.02138 -3.70064 0
M  V30 46 H 2.4962 -0.583906 -0.585647 0
M  V30 47 H 5.0422 -1.60384 -0.554534 0
M  V30 48 H 3.8142 -3.57628 -1.58801 0
M  V30 49 H 3.4372 -2.60646 -3.00249 0
M  V30 50 N 4.4343 0.785586 -1.36625 0
M  V30 51 C 5.6623 1.57448 -1.3423 0
M  V30 52 C 6.0773 1.88649 0.0755653 0
M  V30 53 O 5.4343 1.50414 1.03354 0
M  V30 54 C 5.4853 2.89316 -2.16745 0
M  V30 55 O 5.2063 2.59459 -3.53005 0
M  V30 56 C 6.7073 3.83606 -2.22174 0
M  V30 57 H 3.9273 0.488226 -0.4603 0
M  V30 58 H 6.4713 0.974733 -1.79775 0
M  V30 59 H 4.6263 3.4575 -1.74745 0
M  V30 60 H 5.0403 3.43804 -3.96105 0
M  V30 61 H 6.5143 4.73181 -2.8426 0
M  V30 62 H 6.9913 4.21734 -1.22627 0
M  V30 63 H 7.5973 3.33104 -2.64427 0
M  V30 64 N 5.9124 1.20967 1.01018 0
M  V30 65 C 6.8604 0.961223 2.1181 0
M  V30 66 C 7.8544 -0.0897034 1.69162 0
M  V30 67 O 9.0604 0.0612271 1.79896 0
M  V30 68 H 5.4354 0.29355 0.692338 0
M  V30 69 H 7.4064 1.90178 2.29946 0
M  V30 70 C 6.1554 0.536854 3.4353 0
M  V30 71 H 5.4784 1.33713 3.76777 0
M  V30 72 H 6.9184 0.402286 4.22087 0
M  V30 73 C 5.3774 -0.751574 3.2841 0
M  V30 74 O 5.9074 -1.80841 3.58691 0
M  V30 75 N 4.1134 -0.716079 2.81639 0
M  V30 76 H 3.6604 0.144236 2.57196 0
M  V30 77 H 3.6184 -1.57847 2.71904 0
M  V30 78 N 7.3905 -1.2043 1.01659 0
M  V30 79 C 8.3235 -2.21924 0.531521 0
M  V30 80 C 9.3015 -1.57054 -0.421032 0
M  V30 81 O 10.4855 -1.85389 -0.341035 0
M  V30 82 C 7.6125 -3.37942 -0.226496 0
M  V30 83 C 6.6585 -4.21115 0.67561 0
M  V30 84 S 7.4915 -4.90674 2.14475 0
M  V30 85 C 8.6475 -6.10113 1.3969 0
M  V30 86 H 8.8805 -2.62725 1.3915 0
M  V30 87 H 6.4135 -1.30481 0.825479 0
M  V30 88 H 8.3715 -4.05196 -0.657738 0
M  V30 89 H 7.0325 -2.956 -1.06205 0
M  V30 90 H 6.2255 -5.03918 0.091108 0
M  V30 91 H 5.8275 -3.59115 1.04463 0
M  V30 92 H 8.1195 -6.7411 0.676897 0
M  V30 93 H 9.0625 -6.73022 2.20107 0
M  V30 94 H 9.4705 -5.57283 0.899786 0
M  V30 95 N 8.8686 -0.792821 -1.36206 0
M  V30 96 C 9.8156 -0.191653 -2.30003 0
M  V30 97 C 10.7856 0.666453 -1.52143 0
M  V30 98 O 11.9706 0.61442 -1.80636 0
M  V30 99 C 9.1106 0.664848 -3.38635 0
M  V30 100 C 8.2236 -0.212175 -4.31479 0
M  V30 101 C 7.3586 0.651022 -5.27196 0
M  V30 102 C 6.3976 -0.227247 -6.11678 0
M  V30 103 N 5.5346 0.595127 -6.99573 0
M  V30 104 H 10.3746 -0.996978 -2.80828 0
M  V30 105 H 7.9116 -0.503206 -1.38225 0
M  V30 106 H 9.8696 1.17645 -4.00269 0
M  V30 107 H 8.4996 1.43557 -2.89122 0
M  V30 108 H 7.5516 -0.841777 -3.70969 0
M  V30 109 H 8.8636 -0.888751 -4.90818 0
M  V30 110 H 8.0176 1.2283 -5.94136 0
M  V30 111 H 6.7566 1.36121 -4.68319 0
M  V30 112 H 5.7616 -0.816904 -5.43697 0
M  V30 113 H 6.9866 -0.93509 -6.72631 0
M  V30 114 H 4.9326 1.28955 -6.432 0
M  V30 115 H 4.8496 -0.0236952 -7.55996 0
M  V30 116 H 6.1176 1.15613 -7.70879 0
M  V30 117 N 10.3467 1.47872 -0.545128 0
M  V30 118 C 11.5747 2.06889 -0.021084 0
M  V30 119 C 11.9897 1.39955 1.2672 0
M  V30 120 O 11.3467 0.492036 1.75742 0
M  V30 121 C 11.3977 3.60996 0.190817 0
M  V30 122 O 11.1187 4.25419 -1.04644 0
M  V30 123 C 12.6197 4.36849 0.753521 0
M  V30 124 H 9.8397 0.669785 -0.0403635 0
M  V30 125 H 12.3837 1.90049 -0.755095 0
M  V30 126 H 10.5387 3.77391 0.87492 0
M  V30 127 H 10.9527 5.17785 -0.836611 0
M  V30 128 H 12.4267 5.45399 0.851139 0
M  V30 129 H 12.9037 4.02306 1.762 0
M  V30 130 H 13.5097 4.25169 0.105503 0
M  V30 131 N 11.8248 0.280983 1.55075 0
M  V30 132 C 12.7568 -0.637268 2.20163 0
M  V30 133 C 13.7698 -1.11298 1.18813 0
M  V30 134 O 14.9588 -1.03388 1.4551 0
M  V30 135 C 12.0588 -1.88199 2.81841 0
M  V30 136 C 11.2318 -1.55211 4.08936 0
M  V30 137 C 10.2908 -2.64991 4.54606 0
M  V30 138 O 9.3168 -2.30929 5.2025 0
M  V30 139 N 10.5188 -3.95161 4.25238 0
M  V30 140 H 13.2838 -0.0801694 2.99593 0
M  V30 141 H 10.8448 0.102329 1.61576 0
M  V30 142 H 12.8368 -2.60948 3.09335 0
M  V30 143 H 11.4068 -2.34799 2.06369 0
M  V30 144 H 10.6268 -0.658185 3.88666 0
M  V30 145 H 11.9148 -1.30681 4.91732 0
M  V30 146 H 11.3128 -4.25653 3.72607 0
M  V30 147 H 9.8698 -4.6427 4.5749 0
M  V30 148 N 13.3029 -1.57598 0.00835791 0
M  V30 149 C 14.2329 -2.1198 -0.979113 0
M  V30 150 C 15.2139 -1.03091 -1.35301 0
M  V30 151 O 16.3989 -1.30818 -1.43528 0
M  V30 152 C 13.5289 -2.62995 -2.26828 0
M  V30 153 C 12.4829 -3.76485 -2.03576 0
M  V30 154 C 11.8089 -4.13846 -3.38579 0
M  V30 155 C 13.1089 -5.0342 -1.39161 0
M  V30 156 H 14.8029 -2.94738 -0.526281 0
M  V30 157 H 12.3489 -1.41783 -0.251704 0
M  V30 158 H 14.3019 -2.99669 -2.96271 0
M  V30 159 H 13.0259 -1.7737 -2.7424 0
M  V30 160 H 11.6849 -3.40217 -1.36557 0
M  V30 161 H 11.3329 -3.25232 -3.83709 0
M  V30 162 H 11.0329 -4.90312 -3.23834 0
M  V30 163 H 12.5569 -4.53086 -4.09323 0
M  V30 164 H 13.9709 -5.37812 -1.98573 0
M  V30 165 H 12.3679 -5.84746 -1.34878 0
M  V30 166 H 13.4379 -4.83548 -0.361868 0
M  V30 167 N 14.781 0.264519 -1.55364 0
M  V30 168 C 15.728 1.32717 -1.88825 0
M  V30 169 C 16.698 1.48675 -0.740605 0
M  V30 170 O 17.883 1.62945 -0.992657 0
M  V30 171 C 15.023 2.68089 -2.17307 0
M  V30 172 C 14.136 2.60284 -3.44785 0
M  V30 173 C 13.271 3.87892 -3.62924 0
M  V30 174 C 12.31 3.74631 -4.84064 0
M  V30 175 N 11.447 4.94092 -4.98816 0
M  V30 176 H 16.287 1.03481 -2.79456 0
M  V30 177 H 13.824 0.499757 -1.3835 0
M  V30 178 H 15.782 3.46864 -2.31821 0
M  V30 179 H 14.412 2.95509 -1.299 0
M  V30 180 H 13.464 1.73173 -3.38697 0
M  V30 181 H 14.776 2.46388 -4.33698 0
M  V30 182 H 13.93 4.75109 -3.77302 0
M  V30 183 H 12.669 4.04664 -2.7221 0
M  V30 184 H 11.674 2.85797 -4.69681 0
M  V30 185 H 12.899 3.5937 -5.76221 0
M  V30 186 H 10.845 5.11259 -4.11036 0
M  V30 187 H 10.762 4.8276 -5.81789 0
M  V30 188 H 12.03 5.82857 -5.17588 0
M  V30 189 N 16.2591 1.48442 0.529413 0
M  V30 190 C 17.2221 1.62524 1.61612 0
M  V30 191 C 18.2221 0.498509 1.52877 0
M  V30 192 O 19.4121 0.76431 1.56537 0
M  V30 193 C 16.5441 1.59597 3.01233 0
M  V30 194 H 17.7371 2.59423 1.50465 0
M  V30 195 H 15.2901 1.37047 0.751514 0
M  V30 196 H 16.0251 0.641781 3.17886 0
M  V30 197 H 15.8101 2.41397 3.08982 0
M  V30 198 H 17.3001 1.72646 3.80241 0
M  V30 199 N 17.7372 -0.778329 1.37039 0
M  V30 200 C 18.9672 -1.56507 1.34868 0
M  V30 201 C 19.3752 -1.89072 -0.0694802 0
M  V30 202 O 18.7182 -1.51434 -1.03987 0
M  V30 203 C 18.7802 -2.90641 2.11585 0
M  V30 204 C 18.4442 -2.80746 3.60598 0
M  V30 205 C 19.4412 -2.52226 4.54618 0
M  V30 206 C 17.1262 -2.98974 4.03633 0
M  V30 207 C 19.1202 -2.42054 5.89651 0
M  V30 208 C 16.8072 -2.88423 5.38754 0
M  V30 209 C 17.8052 -2.60002 6.31576 0
M  V30 210 O 17.4932 -2.49465 7.64214 0
M  V30 211 H 17.2252 -0.491723 0.463879 0
M  V30 212 H 19.7792 -0.973053 1.80889 0
M  V30 213 H 18.0092 -3.51936 1.60243 0
M  V30 214 H 19.6982 -3.51992 2.0213 0
M  V30 215 H 20.4642 -2.37835 4.22681 0
M  V30 216 H 16.3432 -3.20099 3.31749 0
M  V30 217 H 19.8872 -2.19791 6.62071 0
M  V30 218 H 15.7842 -3.0238 5.70295 0
M  V30 219 H 16.5522 -2.64864 7.74461 0
M  V30 220 N 19.2153 -1.21501 -1.00376 0
M  V30 221 C 20.1453 -0.999478 -2.11028 0
M  V30 222 C 21.1263 0.0759671 -1.6993 0
M  V30 223 O 22.3113 -0.0841106 -1.94018 0
M  V30 224 C 19.4413 -0.564709 -3.42678 0
M  V30 225 C 18.3953 -1.58486 -3.97576 0
M  V30 226 C 17.7213 -1.00628 -5.25146 0
M  V30 227 C 19.0213 -2.97204 -4.29496 0
M  V30 228 H 20.7153 -1.92495 -2.29317 0
M  V30 229 H 18.2613 -0.92693 -1.102 0
M  V30 230 H 20.2143 -0.401091 -4.19487 0
M  V30 231 H 18.9383 0.396411 -3.24185 0
M  V30 232 H 17.5973 -1.73606 -3.22888 0
M  V30 233 H 17.2453 -0.0368439 -5.02987 0
M  V30 234 H 16.9453 -1.68771 -5.62841 0
M  V30 235 H 18.4693 -0.854015 -6.04598 0
M  V30 236 H 19.8833 -2.8552 -4.97143 0
M  V30 237 H 18.2803 -3.62372 -4.78338 0
M  V30 238 H 19.3503 -3.47956 -3.3772 0
M  V30 239 N 20.6934 1.19889 -1.02296 0
M  V30 240 C 21.6034 2.26571 -0.608508 0
M  V30 241 C 22.6194 1.70299 0.356964 0
M  V30 242 O 23.7954 2.00235 0.216326 0
M  V30 243 C 20.8604 3.46677 0.0402814 0
M  V30 244 C 19.9214 4.18153 -0.97194 0
M  V30 245 C 19.1544 5.32525 -0.354016 0
M  V30 246 O 19.3774 5.64112 0.844604 0
M  V30 247 O 18.3114 5.92242 -1.07391 0
M  V30 248 H 22.1374 2.64251 -1.49684 0
M  V30 249 H 19.7224 1.26629 -0.792809 0
M  V30 250 H 21.6044 4.19475 0.402324 0
M  V30 251 H 20.2794 3.10858 0.902707 0
M  V30 252 H 19.1864 3.47499 -1.38546 0
M  V30 253 H 20.5194 4.57927 -1.80454 0
M  V30 254 N 22.1715 0.800033 1.35784 0
M  V30 255 C 23.1185 0.203848 2.29898 0
M  V30 256 C 24.0885 -0.658375 1.52495 0
M  V30 257 O 25.2735 -0.604832 1.8096 0
M  V30 258 C 22.4135 -0.64688 3.38983 0
M  V30 259 C 21.5265 0.235054 4.3136 0
M  V30 260 C 20.6615 -0.623054 5.27533 0
M  V30 261 C 19.7005 0.259682 6.11549 0
M  V30 262 N 18.8375 -0.558019 6.99879 0
M  V30 263 H 23.6775 1.01186 2.80295 0
M  V30 264 H 21.2145 0.51053 1.37957 0
M  V30 265 H 23.1725 -1.15521 4.00887 0
M  V30 266 H 21.8025 -1.42021 2.89879 0
M  V30 267 H 20.8545 0.861438 3.70518 0
M  V30 268 H 22.1665 0.914768 4.9034 0
M  V30 269 H 21.3205 -1.19678 5.94779 0
M  V30 270 H 20.0595 -1.33636 4.69034 0
M  V30 271 H 19.0645 0.845726 5.43256 0
M  V30 272 H 20.2895 0.970748 6.72126 0
M  V30 273 H 18.2355 -1.25542 6.43875 0
M  V30 274 H 18.1525 0.0637872 7.55973 0
M  V30 275 H 19.4205 -1.11523 7.71481 0
M  V30 276 N 23.6496 -1.47581 0.552962 0
M  V30 277 C 24.5796 -2.32762 -0.185451 0
M  V30 278 C 25.5606 -1.43527 -0.912905 0
M  V30 279 O 26.7456 -1.72388 -0.894201 0
M  V30 280 C 23.8756 -3.25219 -1.21859 0
M  V30 281 C 22.8296 -4.23661 -0.607864 0
M  V30 282 C 22.1556 -5.05413 -1.74533 0
M  V30 283 C 23.4556 -5.20481 0.435582 0
M  V30 284 H 25.1496 -2.94749 0.525684 0
M  V30 285 H 22.6956 -1.41738 0.254251 0
M  V30 286 H 24.6486 -3.8365 -1.7433 0
M  V30 287 H 23.3726 -2.61279 -1.95961 0
M  V30 288 H 22.0316 -3.66451 -0.104489 0
M  V30 289 H 21.6796 -4.3788 -2.47529 0
M  V30 290 H 21.3796 -5.72059 -1.34249 0
M  V30 291 H 22.9036 -5.66701 -2.27338 0
M  V30 292 H 24.3176 -5.733 -0.00290157 0
M  V30 293 H 22.7146 -5.95305 0.757067 0
M  V30 294 H 23.7846 -4.66217 1.33303 0
M  V30 295 N 25.1277 -0.289203 -1.54924 0
M  V30 296 C 26.3557 0.326463 -2.04308 0
M  V30 297 C 26.7707 1.48413 -1.16701 0
M  V30 298 O 26.1277 1.81507 -0.190087 0
M  V30 299 C 26.1787 0.794014 -3.52672 0
M  V30 300 O 25.8997 -0.317564 -4.36948 0
M  V30 301 C 27.4007 1.47605 -4.18004 0
M  V30 302 H 24.6207 0.0726272 -0.667058 0
M  V30 303 H 27.1647 -0.425401 -2.00026 0
M  V30 304 H 25.3197 1.49593 -3.57352 0
M  V30 305 H 25.7337 0.0443186 -5.24481 0
M  V30 306 H 27.2077 1.75447 -5.23376 0
M  V30 307 H 27.6847 2.41224 -3.67025 0
M  V30 308 H 28.2907 0.81762 -4.17367 0
M  V30 309 N 26.6058 1.57591 -0.0167156 0
M  V30 310 C 27.5528 2.09462 0.969251 0
M  V30 311 C 28.5228 0.99381 1.33089 0
M  V30 312 O 29.7078 1.26726 1.42636 0
M  V30 313 C 26.8478 2.61622 2.25051 0
M  V30 314 C 25.9608 3.85666 1.94642 0
M  V30 315 C 25.0958 4.26266 3.16972 0
M  V30 316 C 24.1348 5.43101 2.82326 0
M  V30 317 N 23.2718 5.78915 3.97243 0
M  V30 318 H 28.1118 2.93428 0.519997 0
M  V30 319 H 25.6488 1.45044 0.245087 0
M  V30 320 H 27.6068 2.89949 2.99976 0
M  V30 321 H 26.2368 1.80505 2.67615 0
M  V30 322 H 25.2888 3.64145 1.10013 0
M  V30 323 H 26.6008 4.70678 1.65117 0
M  V30 324 H 25.7548 4.55963 4.00228 0
M  V30 325 H 24.4938 3.39996 3.49648 0
M  V30 326 H 23.4988 5.1311 1.97479 0
M  V30 327 H 24.7238 6.3106 2.50879 0
M  V30 328 H 22.6698 4.95602 4.29785 0
M  V30 329 H 22.5868 6.58539 3.71299 0
M  V30 330 H 23.8548 6.13212 4.81239 0
M  V30 331 N 28.0839 -0.256276 1.55502 0
M  V30 332 C 29.4949 -0.826068 1.67431 0
M  V30 333 C 29.8459 -1.86396 0.612446 0
M  V30 334 O 28.9709 -2.15031 -0.243025 0
M  V30 335 C 29.5659 -1.50512 3.03532 0
M  V30 336 C 28.1249 -2.02273 3.17431 0
M  V30 337 C 27.2719 -0.870548 2.63281 0
M  V30 338 H 30.2229 -0.0322728 1.58667 0
M  V30 339 H 30.2439 -2.37279 2.97454 0
M  V30 340 H 29.7559 -0.749484 3.80794 0
M  V30 341 H 27.8569 -2.80746 2.44974 0
M  V30 342 H 27.9699 -2.22655 4.24219 0
M  V30 343 H 26.3339 -1.26851 2.20864 0
M  V30 344 H 27.1169 -0.128149 3.43061 0
M  V30 345 N 29.562 -1.4872 -0.521534 0
M  V30 346 C 30.808 -1.574 -1.27879 0
M  V30 347 C 31.141 -0.250817 -1.92573 0
M  V30 348 O 30.416 0.743934 -1.79711 0
M  V30 349 C 30.699 -2.71843 -2.36164 0
M  V30 350 C 30.552 -4.13893 -1.76105 0
M  V30 351 C 31.871 -2.82008 -3.37875 0
M  V30 352 H 28.99 -0.572941 -0.463581 0
M  V30 353 H 31.632 -1.80927 -0.580119 0
M  V30 354 H 29.782 -2.51914 -2.95756 0
M  V30 355 H 31.454 -4.45284 -1.20499 0
M  V30 356 H 29.697 -4.20498 -1.06601 0
M  V30 357 H 30.368 -4.89804 -2.5455 0
M  V30 358 H 32.844 -3.00086 -2.88249 0
M  V30 359 H 31.72 -3.63796 -4.11028 0
M  V30 360 H 31.981 -1.90511 -3.98946 0
M  V30 361 N 31.0401 0.771051 -1.3745 0
M  V30 362 C 31.9501 1.91538 -1.35464 0
M  V30 363 C 32.9661 1.72134 -0.254123 0
M  V30 364 O 34.1421 1.95358 -0.489626 0
M  V30 365 C 31.2071 3.26671 -1.16134 0
M  V30 366 C 30.2681 3.58723 -2.35831 0
M  V30 367 C 29.5011 4.87409 -2.17413 0
M  V30 368 O 29.7241 5.58506 -1.15876 0
M  V30 369 O 28.6581 5.18539 -3.05615 0
M  V30 370 H 32.4841 1.96165 -2.31847 0
M  V30 371 H 30.0691 0.9139 -1.18187 0
M  V30 372 H 31.9511 4.07499 -1.07345 0
M  V30 373 H 30.6261 3.22894 -0.228251 0
M  V30 374 H 29.5331 2.78127 -2.50192 0
M  V30 375 H 30.8661 3.67243 -3.27709 0
M  V30 376 N 32.5182 1.22032 0.997298 0
M  V30 377 C 33.4482 1.01065 2.10495 0
M  V30 378 C 34.4292 -0.0669542 1.69968 0
M  V30 379 O 35.6142 0.0943987 1.9397 0
M  V30 380 C 32.7442 0.582874 3.42374 0
M  V30 381 C 31.6982 1.60592 3.96729 0
M  V30 382 C 31.0242 1.03412 5.24605 0
M  V30 383 C 32.3242 2.99478 4.27914 0
M  V30 384 H 34.0182 1.93708 2.28292 0
M  V30 385 H 31.5642 0.932761 1.09707 0
M  V30 386 H 33.5172 0.423332 4.19268 0
M  V30 387 H 32.2412 -0.379213 3.24391 0
M  V30 388 H 30.9002 1.75316 3.21963 0
M  V30 389 H 30.5482 0.063518 5.0296 0
M  V30 390 H 30.2482 1.71754 5.61938 0
M  V30 391 H 31.7722 0.886066 6.04137 0
M  V30 392 H 33.1862 2.88153 4.95622 0
M  V30 393 H 31.5832 3.64903 4.76409 0
M  V30 394 H 32.6532 3.49742 3.3587 0
M  V30 395 N 33.9963 -1.19345 1.0293 0
M  V30 396 C 35.2453 -1.88363 0.721256 0
M  V30 397 C 35.5583 -1.80514 -0.753254 0
M  V30 398 O 36.7643 -2.44788 -1.17436 0
M  V30 399 C 35.2203 -3.37872 1.23978 0
M  V30 400 C 34.8283 -3.54278 2.74211 0
M  V30 401 C 36.5723 -4.12365 1.00775 0
M  V30 402 C 34.4793 -4.97682 3.19479 0
M  V30 403 H 33.4093 -0.705484 0.266098 0
M  V30 404 H 36.0603 -1.34928 1.24365 0
M  V30 405 H 34.4423 -3.90707 0.6453 0
M  V30 406 H 35.6163 -3.11769 3.39318 0
M  V30 407 H 33.9313 -2.93174 2.95699 0
M  V30 408 H 36.5283 -5.18119 1.32123 0
M  V30 409 H 36.8713 -4.16263 -0.0554308 0
M  V30 410 H 37.4043 -3.65668 1.56625 0
M  V30 411 H 34.1433 -4.98945 4.25128 0
M  V30 412 H 33.6633 -5.4095 2.591 0
M  V30 413 H 35.3423 -5.66337 3.12845 0
M  V30 414 N 35.4744 -0.807222 -1.35358 0
M  V30 415 C 36.4374 -0.223665 -2.28106 0
M  V30 416 C 37.4374 0.589354 -1.4961 0
M  V30 417 O 38.6274 0.407745 -1.69361 0
M  V30 418 C 35.7594 0.688149 -3.33882 0
M  V30 419 H 36.9524 -1.04169 -2.81227 0
M  V30 420 H 34.5054 -0.577921 -1.45223 0
M  V30 421 H 35.2404 1.52984 -2.85948 0
M  V30 422 H 35.0254 0.10687 -3.91954 0
M  V30 423 H 36.5154 1.09075 -4.03104 0
M  V30 424 N 36.9525 1.47285 -0.560781 0
M  V30 425 C 38.1805 2.06855 -0.0430262 0
M  V30 426 C 38.5955 1.41291 1.25229 0
M  V30 427 O 37.9525 0.510648 1.7521 0
M  V30 428 C 38.0035 3.61178 0.152518 0
M  V30 429 O 37.7245 4.24285 -1.0915 0
M  V30 430 C 39.2255 4.37624 0.707145 0
M  V30 431 H 36.4455 0.669319 -0.0474652 0
M  V30 432 H 38.9895 1.89237 -0.77521 0
M  V30 433 H 37.1445 3.78298 0.834843 0
M  V30 434 H 37.5585 5.16868 -0.891482 0
M  V30 435 H 39.0325 5.46271 0.793244 0
M  V30 436 H 39.5095 4.04152 1.71923 0
M  V30 437 H 40.1155 4.25257 0.0604027 0
M  V30 438 N 38.4306 0.297415 1.54768 0
M  V30 439 C 39.3606 -0.573494 2.26348 0
M  V30 440 C 40.3416 -1.14085 1.26169 0
M  V30 441 O 41.5266 -1.17086 1.54934 0
M  V30 442 C 38.6566 -1.74716 3.00153 0
M  V30 443 C 37.6106 -1.31032 4.07449 0
M  V30 444 C 36.9366 -2.56887 4.68949 0
M  V30 445 C 38.2366 -0.444183 5.20408 0
M  V30 446 H 39.9306 0.0235131 2.99391 0
M  V30 447 H 37.4766 0.0127488 1.43994 0
M  V30 448 H 39.4296 -2.3625 3.48947 0
M  V30 449 H 38.1536 -2.37035 2.24682 0
M  V30 450 H 36.8126 -0.718066 3.59499 0
M  V30 451 H 36.4606 -3.17512 3.90122 0
M  V30 452 H 36.1606 -2.2836 5.41411 0
M  V30 453 H 37.6846 -3.19229 5.20505 0
M  V30 454 H 39.0986 -0.9651 5.65118 0
M  V30 455 H 37.4956 -0.252846 5.99567 0
M  V30 456 H 38.5656 0.531609 4.81977 0
M  V30 457 N 39.9087 -1.5758 0.0250728 0
M  V30 458 C 41.1857 -1.82917 -0.692873 0
M  V30 459 C 41.5657 -0.908137 -1.90568 0
M  V30 460 O 40.9137 0.0372298 -2.2847 0
M  V30 461 C 41.1237 -3.32034 -1.07492 0
M  V30 462 C 42.4717 -3.98406 -1.46826 0
M  V30 463 O 43.4957 -3.36505 -1.16801 0
M  V30 464 O 42.3547 -5.07497 -2.02754 0
M  V30 465 H 39.4487 -0.754079 -0.33955 0
M  V30 466 H 41.9947 -1.69619 0.0524456 0
M  V30 467 H 40.7667 -3.90728 -0.211552 0
M  V30 468 H 40.3897 -3.50424 -1.87854 0
M  V30 469 N 41.3868 0.248026 -1.55636 0
M  V30 470 C 42.6638 0.998988 -1.68165 0
M  V30 471 C 43.0438 2.03409 -0.564621 0
M  V30 472 O 42.3918 2.24378 0.432076 0
M  V30 473 C 42.6018 1.63334 -3.0842 0
M  V30 474 C 43.9498 2.13562 -3.66983 0
M  V30 475 O 44.9738 1.73277 -3.11213 0
M  V30 476 O 43.8328 2.87526 -4.64749 0
M  V30 477 H 40.9268 0.464933 -0.683935 0
M  V30 478 H 43.4728 0.241902 -1.67967 0
M  V30 479 H 42.2448 0.884583 -3.8117 0
M  V30 480 H 41.8678 2.45666 -3.12624 0
M  V30 481 N 42.8649 1.48995 0.513639 0
M  V30 482 C 44.0899 1.61792 1.29762 0
M  V30 483 C 44.5149 0.284475 1.85936 0
M  V30 484 O 43.8729 -0.746185 1.65232 0
M  V30 485 C 43.9209 2.67993 2.41272 0
M  V30 486 O 43.0249 2.26287 3.44772 0
M  V30 487 H 42.3659 0.541963 0.38363 0
M  V30 488 H 44.8959 1.95097 0.616307 0
M  V30 489 H 44.9059 2.89772 2.87221 0
M  V30 490 H 43.5809 3.64791 1.9975 0
M  V30 491 H 42.1579 2.14788 3.04829 0
M  V30 492 N 44.343 -0.763751 1.37857 0
M  V30 493 C 45.306 -1.85889 1.34081 0
M  V30 494 C 46.306 -1.58949 0.243277 0
M  V30 495 O 47.496 -1.66882 0.499589 0
M  V30 496 C 44.628 -3.23176 1.08489 0
M  V30 497 H 45.821 -1.90648 2.31502 0
M  V30 498 H 43.374 -0.964367 1.23003 0
M  V30 499 H 44.109 -3.24091 0.116318 0
M  V30 500 H 43.894 -3.44124 1.8794 0
M  V30 501 H 45.384 -4.03254 1.08517 0
M  V30 502 N 45.8211 -1.22559 -0.990812 0
M  V30 503 C 46.7681 -0.997519 -2.0813 0
M  V30 504 C 47.7381 0.0814702 -1.659 0
M  V30 505 O 48.9231 -0.0685424 -1.90677 0
M  V30 506 C 46.0631 -0.583615 -3.40129 0
M  V30 507 C 45.1761 -1.7336 -3.9569 0
M  V30 508 C 44.3111 -1.26748 -5.15857 0
M  V30 509 C 43.3501 -2.38888 -5.63559 0
M  V30 510 N 42.4871 -1.93308 -6.74964 0
M  V30 511 H 47.3271 -1.93099 -2.26973 0
M  V30 512 H 44.8641 -0.962114 -1.11273 0
M  V30 513 H 46.8221 -0.324801 -4.15934 0
M  V30 514 H 45.4521 0.312845 -3.2128 0
M  V30 515 H 44.5041 -2.10669 -3.16738 0
M  V30 516 H 45.8161 -2.57704 -4.27071 0
M  V30 517 H 44.9701 -0.966173 -5.98957 0
M  V30 518 H 43.7091 -0.394272 -4.86104 0
M  V30 519 H 42.7141 -2.69805 -4.79046 0
M  V30 520 H 43.9391 -3.26728 -5.95336 0
M  V30 521 H 41.8851 -1.08352 -6.4699 0
M  V30 522 H 41.8021 -2.71217 -7.05675 0
M  V30 523 H 43.0701 -1.66252 -7.61564 0
M  V30 524 N 47.2992 1.18797 -1.03562 0
M  V30 525 C 48.5242 1.9314 -0.755764 0
M  V30 526 C 48.9492 1.7537 0.68022 0
M  V30 527 O 48.3072 1.06046 1.47051 0
M  V30 528 C 48.3552 3.42747 -1.12058 0
M  V30 529 O 47.4592 4.11683 -0.243124 0
M  V30 530 H 46.8002 0.602724 -0.278604 0
M  V30 531 H 49.3302 1.50678 -1.3841 0
M  V30 532 H 49.3402 3.93437 -1.08035 0
M  V30 533 H 48.0152 3.55002 -2.16672 0
M  V30 534 H 46.5922 3.71323 -0.342539 0
M  V30 535 N 48.7773 0.814389 1.34928 0
M  V30 536 C 49.7403 0.235759 2.27984 0
M  V30 537 C 50.7403 -0.581412 1.49921 0
M  V30 538 O 51.9303 -0.398758 1.69575 0
M  V30 539 C 49.0623 -0.670433 3.34242 0
M  V30 540 H 50.2553 1.05659 2.80671 0
M  V30 541 H 47.8083 0.585614 1.44915 0
M  V30 542 H 48.5433 -1.51466 2.86755 0
M  V30 543 H 48.3283 -0.0860822 3.92005 0
M  V30 544 H 49.8183 -1.06935 4.03676 0
M  V30 545 N 50.2554 -1.46986 0.568584 0
M  V30 546 C 51.1654 -2.33942 -0.17555 0
M  V30 547 C 52.1814 -1.48891 -0.90041 0
M  V30 548 O 53.3574 -1.81794 -0.86676 0
M  V30 549 C 50.4224 -3.25811 -1.18524 0
M  V30 550 C 49.4834 -4.26757 -0.466582 0
M  V30 551 C 48.7164 -5.14236 -1.42817 0
M  V30 552 O 48.9394 -5.04379 -2.66379 0
M  V30 553 O 47.8734 -5.94412 -0.946453 0
M  V30 554 H 51.6994 -2.98896 0.538036 0
M  V30 555 H 49.2844 -1.4573 0.329097 0
M  V30 556 H 51.1664 -3.82527 -1.76779 0
M  V30 557 H 49.8414 -2.63471 -1.88055 0
M  V30 558 H 48.7484 -3.73769 0.157451 0
M  V30 559 H 50.0814 -4.91843 0.187485 0
M  V30 560 N 51.7335 -0.305618 -1.54608 0
M  V30 561 C 52.9825 0.303098 -1.9941 0
M  V30 562 C 53.2955 1.54648 -1.19764 0
M  V30 563 O 54.5015 2.23007 -1.54855 0
M  V30 564 C 52.9575 0.590588 -3.55021 0
M  V30 565 C 52.5655 -0.634719 -4.43481 0
M  V30 566 C 54.3095 1.16025 -4.08336 0
M  V30 567 C 52.2165 -0.320126 -5.90533 0
M  V30 568 H 51.1465 0.117031 -0.744862 0
M  V30 569 H 53.7975 -0.415045 -1.78745 0
M  V30 570 H 52.1795 1.36845 -3.71604 0
M  V30 571 H 53.3535 -1.41079 -4.38672 0
M  V30 572 H 51.6685 -1.12333 -4.00962 0
M  V30 573 H 54.2655 1.40994 -5.15776 0
M  V30 574 H 54.6085 2.10397 -3.5922 0
M  V30 575 H 55.1415 0.443985 -3.95315 0
M  V30 576 H 51.8805 -1.23254 -6.43808 0
M  V30 577 H 51.4005 0.418579 -5.98338 0
M  V30 578 H 53.0795 0.0766241 -6.46955 0
M  V30 579 N 53.2116 1.57565 -0.0334293 0
M  V30 580 C 54.1586 2.10478 0.946981 0
M  V30 581 C 55.1286 1.00787 1.32027 0
M  V30 582 O 56.3136 1.28232 1.41284 0
M  V30 583 C 53.4536 2.63994 2.22263 0
M  V30 584 C 52.5666 3.87709 1.90541 0
M  V30 585 C 51.7016 4.29604 3.12433 0
M  V30 586 C 50.7406 5.46065 2.76549 0
M  V30 587 N 49.8776 5.83096 3.9108 0
M  V30 588 H 54.7176 2.93963 0.488846 0
M  V30 589 H 52.2546 1.45296 0.22969 0
M  V30 590 H 54.2126 2.93114 2.96884 0
M  V30 591 H 52.8426 1.83333 2.65685 0
M  V30 592 H 51.8946 3.65291 1.06144 0
M  V30 593 H 53.2066 4.72403 1.60116 0
M  V30 594 H 52.3606 4.60182 3.9537 0
M  V30 595 H 51.0996 3.43685 3.46023 0
M  V30 596 H 50.1046 5.15176 1.92026 0
M  V30 597 H 51.3296 6.33685 2.44171 0
M  V30 598 H 49.2756 5.00132 4.24504 0
M  V30 599 H 49.1926 6.6244 3.64293 0
M  V30 600 H 50.4606 6.18282 4.74708 0
M  V30 601 N 54.6897 -0.239769 1.55765 0
M  V30 602 C 55.5997 -1.31831 1.94056 0
M  V30 603 C 56.6157 -1.52275 0.841925 0
M  V30 604 O 57.7917 -1.65759 1.14394 0
M  V30 605 C 54.8567 -2.65156 2.23368 0
M  V30 606 C 53.9177 -2.53173 3.46701 0
M  V30 607 C 53.1507 -3.8014 3.74606 0
M  V30 608 O 53.3737 -4.82343 3.04469 0
M  V30 609 O 52.3077 -3.78344 4.68123 0
M  V30 610 H 56.1337 -1.02347 2.85935 0
M  V30 611 H 53.7187 -0.441123 1.42739 0
M  V30 612 H 55.6007 -3.43929 2.43497 0
M  V30 613 H 54.2757 -2.94358 1.34666 0
M  V30 614 H 53.1827 -1.72662 3.31871 0
M  V30 615 H 54.5157 -2.28915 4.35728 0
M  V30 616 N 56.1678 -1.49265 -0.50573 0
M  V30 617 C 57.0978 -1.68495 -1.61653 0
M  V30 618 C 58.0788 -0.53366 -1.61512 0
M  V30 619 O 59.2638 -0.76897 -1.78327 0
M  V30 620 C 56.3938 -1.74709 -3.00157 0
M  V30 621 C 55.3478 -2.89581 -3.15162 0
M  V30 622 C 54.6738 -2.80903 -4.5497 0
M  V30 623 C 55.9738 -4.30578 -2.95634 0
M  V30 624 H 57.6678 -2.61493 -1.45814 0
M  V30 625 H 55.2138 -1.25838 -0.70005 0
M  V30 626 H 57.1668 -1.86748 -3.77761 0
M  V30 627 H 55.8908 -0.783067 -3.17074 0
M  V30 628 H 54.5498 -2.77136 -2.39982 0
M  V30 629 H 54.1978 -1.82419 -4.68756 0
M  V30 630 H 53.8978 -3.57999 -4.65951 0
M  V30 631 H 55.4218 -2.94944 -5.34641 0
M  V30 632 H 56.8358 -4.4373 -3.63011 0
M  V30 633 H 55.2328 -5.0886 -3.18091 0
M  V30 634 H 56.3028 -4.45352 -1.91806 0
M  V30 635 N 57.6459 0.756429 -1.3826 0
M  V30 636 C 58.5759 1.88374 -1.37976 0
M  V30 637 C 59.5569 1.68311 -0.246082 0
M  V30 638 O 60.7419 1.88944 -0.44874 0
M  V30 639 C 57.8719 3.25864 -1.20125 0
M  V30 640 C 56.8259 3.60523 -2.30666 0
M  V30 641 C 56.1519 4.9672 -1.97923 0
M  V30 642 C 57.4519 3.65692 -3.72916 0
M  V30 643 H 59.1459 1.88869 -2.32312 0
M  V30 644 H 56.6919 0.907272 -1.11824 0
M  V30 645 H 58.6449 4.0438 -1.18552 0
M  V30 646 H 57.3689 3.25841 -0.222498 0
M  V30 647 H 56.0279 2.84324 -2.3142 0
M  V30 648 H 55.6759 4.93253 -0.985393 0
M  V30 649 H 55.3759 5.20878 -2.71955 0
M  V30 650 H 56.8999 5.77618 -1.97964 0
M  V30 651 H 58.3139 4.34328 -3.74208 0
M  V30 652 H 56.7109 4.01358 -4.4613 0
M  V30 653 H 57.7809 2.65987 -4.05436 0
M  V30 654 N 59.124 1.23083 0.984299 0
M  V30 655 C 60.087 1.00979 2.05757 0
M  V30 656 C 61.087 -0.0269573 1.60777 0
M  V30 657 O 62.277 0.212403 1.729 0
M  V30 658 C 59.409 0.527072 3.36801 0
M  V30 659 H 60.602 1.9622 2.26799 0
M  V30 660 H 58.155 1.05072 1.15714 0
M  V30 661 H 58.89 -0.429294 3.21446 0
M  V30 662 H 58.675 1.27515 3.70786 0
M  V30 663 H 60.165 0.392942 4.15747 0
M  V30 664 N 60.6021 -1.18246 1.0419 0
M  V30 665 C 61.5121 -2.25574 0.644476 0
M  V30 666 C 62.5281 -1.70845 -0.329826 0
M  V30 667 O 63.7041 -2.00554 -0.184443 0
M  V30 668 C 60.7691 -3.46697 0.014877 0
M  V30 669 C 59.8301 -4.16554 1.03834 0
M  V30 670 C 59.0631 -5.31894 0.438692 0
M  V30 671 O 59.2861 -5.65385 -0.754752 0
M  V30 672 O 58.2201 -5.90459 1.168 0
M  V30 673 H 62.0461 -2.61836 1.53869 0
M  V30 674 H 59.6311 -1.25352 0.812854 0
M  V30 675 H 61.5131 -4.20062 -0.335538 0
M  V30 676 H 60.1881 -3.12255 -0.853138 0
M  V30 677 H 59.0951 -3.45251 1.44057 0
M  V30 678 H 60.4281 -4.54998 1.87716 0
M  V30 679 N 62.0802 -0.821533 -1.34494 0
M  V30 680 C 63.3292 -0.405355 -1.97585 0
M  V30 681 C 63.6422 1.03677 -1.65863 0
M  V30 682 O 64.8482 1.55679 -2.22433 0
M  V30 683 C 63.3042 -0.673861 -3.53535 0
M  V30 684 C 62.9122 -2.12951 -3.94152 0
M  V30 685 C 64.6562 -0.32378 -4.23263 0
M  V30 686 C 62.5632 -2.34298 -5.43009 0
M  V30 687 H 61.4932 -0.147836 -0.739365 0
M  V30 688 H 64.1442 -1.00769 -1.53355 0
M  V30 689 H 62.5262 -0.00137554 -3.96 0
M  V30 690 H 63.7002 -2.84104 -3.62797 0
M  V30 691 H 62.0152 -2.44089 -3.37356 0
M  V30 692 H 64.6122 -0.461126 -5.32708 0
M  V30 693 H 64.9552 0.731586 -4.09821 0
M  V30 694 H 65.4882 -0.950786 -3.8627 0
M  V30 695 H 62.2272 -3.38335 -5.61435 0
M  V30 696 H 61.7472 -1.67687 -5.75883 0
M  V30 697 H 63.4262 -2.16588 -6.09671 0
M  V30 698 N 63.5583 1.46682 -0.576371 0
M  V30 699 C 64.5213 2.28707 0.150239 0
M  V30 700 C 65.5213 1.38035 0.824794 0
M  V30 701 O 66.7113 1.60476 0.677719 0
M  V30 702 C 63.8433 3.18248 1.22192 0
M  V30 703 H 65.0363 2.94423 -0.570521 0
M  V30 704 H 62.5893 1.52688 -0.334078 0
M  V30 705 H 63.3243 2.57265 1.97447 0
M  V30 706 H 63.1093 3.85 0.742812 0
M  V30 707 H 64.5993 3.80001 1.73172 0
M  V30 708 N 65.0364 0.313813 1.54444 0
M  V30 709 C 65.9464 -0.565714 2.27677 0
M  V30 710 C 66.9624 -1.13754 1.31666 0
M  V30 711 O 68.1384 -1.15959 1.64668 0
M  V30 712 C 65.2034 -1.71528 3.01296 0
M  V30 713 C 64.2644 -1.17624 4.12872 0
M  V30 714 C 63.4974 -2.27102 4.8297 0
M  V30 715 O 63.7204 -3.47256 4.52514 0
M  V30 716 O 62.6544 -1.9307 5.70094 0
M  V30 717 H 66.4804 0.0287296 3.03686 0
M  V30 718 H 64.0654 0.0798312 1.49187 0
M  V30 719 H 65.9474 -2.38476 3.4743 0
M  V30 720 H 64.6224 -2.29608 2.2817 0
M  V30 721 H 63.5294 -0.472124 3.71109 0
M  V30 722 H 64.8624 -0.640695 4.88012 0
M  V30 723 N 66.5145 -1.57545 0.0417849 0
M  V30 724 C 67.4445 -2.14009 -0.933929 0
M  V30 725 C 68.4255 -1.05938 -1.33083 0
M  V30 726 O 69.6105 -1.33833 -1.40721 0
M  V30 727 C 66.7405 -2.67747 -2.21199 0
M  V30 728 C 65.6945 -3.80718 -1.95544 0
M  V30 729 C 65.0205 -4.20935 -3.29724 0
M  V30 730 C 66.3205 -5.06258 -1.28452 0
M  V30 731 H 68.0145 -2.95788 -0.463645 0
M  V30 732 H 65.5605 -1.42285 -0.221573 0
M  V30 733 H 67.5135 -3.05886 -2.89848 0
M  V30 734 H 66.2375 -1.83147 -2.70416 0
M  V30 735 H 64.8965 -3.43037 -1.2931 0
M  V30 736 H 64.5445 -3.33298 -3.76724 0
M  V30 737 H 64.2445 -4.9707 -3.13361 0
M  V30 738 H 65.7685 -4.61666 -3.9962 0
M  V30 739 H 67.1825 -5.41903 -1.8712 0
M  V30 740 H 65.5795 -5.87475 -1.22445 0
M  V30 741 H 66.6495 -4.84207 -0.259219 0
M  V30 742 N 67.9926 0.231505 -1.5589 0
M  V30 743 C 69.2176 0.978689 -1.82856 0
M  V30 744 C 69.6426 1.77559 -0.620846 0
M  V30 745 O 69.0006 1.76119 0.430305 0
M  V30 746 C 69.0486 1.87997 -3.07716 0
M  V30 747 O 68.1526 2.97393 -2.85712 0
M  V30 748 H 67.4936 0.277663 -0.603158 0
M  V30 749 H 70.0236 0.24783 -2.03093 0
M  V30 750 H 70.0336 2.2917 -3.37558 0
M  V30 751 H 68.7086 1.29417 -3.95252 0
M  V30 752 H 67.2856 2.60238 -2.67078 0
M  V30 753 N 69.4707 1.49531 0.497807 0
M  V30 754 C 70.7477 1.49682 1.25915 0
M  V30 755 C 71.1277 0.226339 2.09883 0
M  V30 756 O 70.4757 -0.791189 2.14365 0
M  V30 757 C 70.6857 2.77755 2.11313 0
M  V30 758 C 72.0337 3.27371 2.70395 0
M  V30 759 O 73.0577 2.78894 2.21578 0
M  V30 760 O 71.9167 4.11808 3.59272 0
M  V30 761 H 69.0107 0.599228 0.56996 0
M  V30 762 H 71.5567 1.61798 0.511816 0
M  V30 763 H 70.3287 3.61713 1.49264 0
M  V30 764 H 69.9517 2.68515 2.93233 0
M  V30 765 N 70.9488 -0.749086 1.3866 0
M  V30 766 C 71.8958 -1.86291 1.36251 0
M  V30 767 C 72.8658 -1.64578 0.224347 0
M  V30 768 O 74.0508 -1.86181 0.417279 0
M  V30 769 C 71.1908 -3.23644 1.19786 0
M  V30 770 C 70.3038 -3.57158 2.43027 0
M  V30 771 C 69.4388 -4.83838 2.19258 0
M  V30 772 C 68.4778 -5.10152 3.38247 0
M  V30 773 N 67.6148 -6.28029 3.13884 0
M  V30 774 H 72.4548 -1.87685 2.3147 0
M  V30 775 H 69.9918 -0.917287 1.14997 0
M  V30 776 H 71.9498 -4.0291 1.08254 0
M  V30 777 H 70.5798 -3.21566 0.282031 0
M  V30 778 H 69.6318 -2.72701 2.65214 0
M  V30 779 H 70.9438 -3.7253 3.31697 0
M  V30 780 H 70.0978 -5.71057 2.04888 0
M  V30 781 H 68.8368 -4.70614 1.2796 0
M  V30 782 H 67.8418 -4.21401 3.53131 0
M  V30 783 H 69.0668 -5.25271 4.30427 0
M  V30 784 H 67.0128 -6.1612 2.25238 0
M  V30 785 H 66.9298 -6.43922 3.96106 0
M  V30 786 H 68.1978 -7.18124 3.03179 0
M  V30 787 N 72.4269 -1.23603 -0.977757 0
M  V30 788 C 73.6729 -1.07129 -1.72195 0
M  V30 789 C 74.0059 0.390501 -1.90233 0
M  V30 790 O 73.2809 1.28902 -1.45653 0
M  V30 791 C 73.5639 -1.80031 -3.11867 0
M  V30 792 C 73.4169 -3.33899 -3.01383 0
M  V30 793 C 74.7359 -1.56492 -4.11337 0
M  V30 794 H 71.8549 -0.390571 -0.624999 0
M  V30 795 H 74.4969 -1.52142 -1.13811 0
M  V30 796 H 72.6469 -1.41768 -3.6171 0
M  V30 797 H 74.3189 -3.81699 -2.59043 0
M  V30 798 H 72.5619 -3.62796 -2.37827 0
M  V30 799 H 73.2329 -3.801 -4.00285 0
M  V30 800 H 75.7089 -1.89757 -3.70313 0
M  V30 801 H 74.5849 -2.09973 -5.07151 0
M  V30 802 H 74.8459 -0.500874 -4.39254 0
M  V30 803 N 73.905 1.17692 -1.04816 0
M  V30 804 C 75.133 1.91786 -0.776254 0
M  V30 805 C 75.548 1.76604 0.667577 0
M  V30 806 O 74.905 1.10067 1.45573 0
M  V30 807 C 74.956 3.42967 -1.14263 0
M  V30 808 O 74.677 3.57678 -2.52978 0
M  V30 809 C 76.178 4.34144 -0.896311 0
M  V30 810 H 73.398 0.608624 -0.282519 0
M  V30 811 H 75.942 1.49268 -1.39783 0
M  V30 812 H 74.097 3.83245 -0.565874 0
M  V30 813 H 74.511 4.51319 -2.67229 0
M  V30 814 H 75.985 5.38744 -1.20244 0
M  V30 815 H 76.462 4.38876 0.168636 0
M  V30 816 H 77.068 3.99574 -1.45672 0
M  V30 817 N 75.3831 0.828654 1.34056 0
M  V30 818 C 76.6301 0.419458 1.98108 0
M  V30 819 C 76.9581 -1.01886 1.65679 0
M  V30 820 O 76.2131 -1.72539 0.923512 0
M  V30 821 C 76.5121 0.575226 3.52741 0
M  V30 822 C 76.1781 1.98012 4.05095 0
M  V30 823 C 74.8401 2.36442 4.19104 0
M  V30 824 C 77.1921 2.89824 4.33188 0
M  V30 825 C 74.5201 3.66009 4.58535 0
M  V30 826 C 76.8721 4.1886 4.74066 0
M  V30 827 C 75.5361 4.5726 4.86281 0
M  V30 828 H 74.8061 0.153491 0.724929 0
M  V30 829 H 77.4531 1.05371 1.59904 0
M  V30 830 H 75.7581 -0.142385 3.91541 0
M  V30 831 H 77.4551 0.239057 4.00287 0
M  V30 832 H 74.0451 1.67162 3.94658 0
M  V30 833 H 78.2291 2.61375 4.21897 0
M  V30 834 H 73.4851 3.95579 4.66184 0
M  V30 835 H 77.6591 4.90086 4.94761 0
M  V30 836 H 75.2861 5.57707 5.16592 0
M  V30 837 N 76.8612 -1.46375 0.584142 0
M  V30 838 C 77.8082 -2.30323 -0.148286 0
M  V30 839 C 78.7782 -1.40703 -0.882713 0
M  V30 840 O 79.9632 -1.69651 -0.873099 0
M  V30 841 C 77.1032 -3.25196 -1.15507 0
M  V30 842 C 76.2162 -4.29915 -0.423943 0
M  V30 843 C 75.3512 -5.11914 -1.41838 0
M  V30 844 C 74.3902 -6.08381 -0.673736 0
M  V30 845 N 73.5272 -6.83242 -1.6163 0
M  V30 846 H 78.3672 -2.92427 0.573644 0
M  V30 847 H 75.9042 -1.44118 0.294703 0
M  V30 848 H 77.8622 -3.78646 -1.75166 0
M  V30 849 H 76.4922 -2.64898 -1.8447 0
M  V30 850 H 75.5442 -3.7931 0.287714 0
M  V30 851 H 76.8562 -4.98549 0.158128 0
M  V30 852 H 76.0102 -5.69648 -2.08773 0
M  V30 853 H 74.7492 -4.43243 -2.03438 0
M  V30 854 H 73.7542 -5.49799 0.00938483 0
M  V30 855 H 74.9792 -6.79071 -0.0631082 0
M  V30 856 H 72.9252 -6.1728 -2.22038 0
M  V30 857 H 72.8422 -7.48144 -1.08707 0
M  V30 858 H 74.1102 -7.45534 -2.27596 0
M  V30 859 N 78.3393 -0.321999 -1.54275 0
M  V30 860 C 79.2493 0.553631 -2.27974 0
M  V30 861 C 80.2653 1.13054 -1.32268 0
M  V30 862 O 81.4413 1.15084 -1.6528 0
M  V30 863 C 78.5063 1.69927 -3.02201 0
M  V30 864 C 77.5673 1.15433 -4.1349 0
M  V30 865 C 76.8003 2.24537 -4.84168 0
M  V30 866 O 77.0233 3.44852 -4.5435 0
M  V30 867 O 75.9573 1.90044 -5.7111 0
M  V30 868 H 79.7833 -0.0448345 -3.03667 0
M  V30 869 H 77.3683 -0.0877418 -1.49142 0
M  V30 870 H 79.2503 2.3663 -3.48689 0
M  V30 871 H 77.9253 2.28395 -2.29385 0
M  V30 872 H 76.8323 0.452436 -3.71354 0
M  V30 873 H 78.1653 0.614805 -4.88345 0
M  V30 874 N 79.8174 1.5752 -0.0501392 0
M  V30 875 C 81.0944 1.83996 0.663685 0
M  V30 876 C 81.4744 0.938339 1.89099 0
M  V30 877 O 80.8224 -0.00087759 2.285 0
M  V30 878 C 81.0324 3.33702 1.02196 0
M  V30 879 C 82.3804 4.00691 1.40469 0
M  V30 880 O 83.4044 3.38321 1.11433 0
M  V30 881 O 82.2634 5.10658 1.94654 0
M  V30 882 H 79.3574 0.759385 0.32751 0
M  V30 883 H 81.9034 1.69514 -0.0794238 0
M  V30 884 H 80.6754 3.91015 0.149364 0
M  V30 885 H 80.2984 3.53368 1.82255 0
M  V30 886 N 81.2955 -0.223234 1.56011 0
M  V30 887 C 82.2435 -1.29627 1.93131 0
M  V30 888 C 83.2375 -1.48608 0.813146 0
M  V30 889 O 84.4435 -1.49802 0.997966 0
M  V30 890 H 80.8185 -0.434563 0.613726 0
M  V30 891 H 82.7895 -0.955995 2.82672 0
M  V30 892 C 81.5385 -2.63983 2.26292 0
M  V30 893 H 80.8615 -2.50185 3.11846 0
M  V30 894 H 82.3015 -3.3788 2.56151 0
M  V30 895 C 80.7605 -3.18866 1.08747 0
M  V30 896 O 81.2905 -4.00192 0.347727 0
M  V30 897 N 79.4965 -2.77217 0.871743 0
M  V30 898 H 79.0435 -2.1119 1.47501 0
M  V30 899 H 79.0015 -3.1428 0.0869905 0
M  V30 900 N 82.7736 -1.49793 -0.48987 0
M  V30 901 C 83.9986 -1.63836 -1.27172 0
M  V30 902 C 84.4236 -0.31402 -1.8546 0
M  V30 903 O 83.7816 0.719803 -1.66399 0
M  V30 904 C 83.8296 -2.71797 -2.36978 0
M  V30 905 O 82.9336 -2.31744 -3.41128 0
M  V30 906 H 82.2746 -0.547997 -0.37496 0
M  V30 907 H 84.8046 -1.96053 -0.585191 0
M  V30 908 H 84.8146 -2.94305 -2.82575 0
M  V30 909 H 83.4896 -3.67923 -1.93921 0
M  V30 910 H 82.0666 -2.1961 -3.01373 0
M  V30 911 N 84.2517 0.741722 -1.39055 0
M  V30 912 C 85.1817 1.869 -1.39966 0
M  V30 913 C 86.1627 1.6804 -0.26392 0
M  V30 914 O 87.3477 1.88458 -0.468755 0
M  V30 915 C 84.4777 3.24572 -1.23574 0
M  V30 916 C 83.4317 3.58056 -2.34477 0
M  V30 917 C 82.7577 4.94593 -2.0318 0
M  V30 918 C 84.0577 3.61716 -3.76774 0
M  V30 919 H 85.7517 1.86395 -2.34302 0
M  V30 920 H 83.2977 0.895361 -1.1278 0
M  V30 921 H 85.2507 4.031 -1.22834 0
M  V30 922 H 83.9747 3.25587 -0.257045 0
M  V30 923 H 82.6337 2.81854 -2.34423 0
M  V30 924 H 82.2817 4.92181 -1.03765 0
M  V30 925 H 81.9817 5.17964 -2.77465 0
M  V30 926 H 83.5057 5.75486 -2.04079 0
M  V30 927 H 84.9197 4.30335 -3.78794 0
M  V30 928 H 83.3167 3.96603 -4.50362 0
M  V30 929 H 84.3867 2.61672 -4.08235 0
M  V30 930 N 85.7298 1.2412 0.971189 0
M  V30 931 C 87.1408 1.07236 1.52831 0
M  V30 932 C 87.4918 -0.357352 1.92918 0
M  V30 933 O 86.6168 -1.24528 1.76979 0
M  V30 934 C 87.2118 1.94043 2.77728 0
M  V30 935 C 85.7708 1.81394 3.29808 0
M  V30 936 C 84.9178 1.89189 2.02738 0
M  V30 937 H 87.8688 1.37648 0.789864 0
M  V30 938 H 87.8898 1.47066 3.5093 0
M  V30 939 H 87.4018 2.98093 2.4852 0
M  V30 940 H 85.5028 0.801634 3.63874 0
M  V30 941 H 85.6158 2.65294 3.98944 0
M  V30 942 H 83.9798 1.32877 2.17292 0
M  V30 943 H 84.7628 2.94812 1.759 0
M  V30 944 N 87.2079 -1.17134 1.05439 0
M  V30 945 C 88.4539 -1.87733 0.767077 0
M  V30 946 C 88.7869 -1.8098 -0.704253 0
M  V30 947 O 88.0619 -1.21951 -1.5152 0
M  V30 948 C 88.3449 -3.37659 1.25133 0
M  V30 949 C 88.1979 -3.53149 2.78578 0
M  V30 950 C 89.5169 -4.31768 0.852324 0
M  V30 951 H 86.6359 -0.681687 0.280129 0
M  V30 952 H 89.2779 -1.37732 1.30881 0
M  V30 953 H 87.4279 -3.80373 0.790469 0
M  V30 954 H 89.0999 -3.19434 3.32806 0
M  V30 955 H 87.3429 -2.95345 3.17732 0
M  V30 956 H 88.0139 -4.58403 3.07523 0
M  V30 957 H 90.4899 -3.96909 1.24911 0
M  V30 958 H 89.3659 -5.35199 1.21873 0
M  V30 959 H 89.6269 -4.41429 -0.243485 0
M  V30 960 N 88.686 -0.835752 -1.33615 0
M  V30 961 C 90.102 -0.523139 -1.50783 0
M  V30 962 C 90.302 0.950171 -1.77691 0
M  V30 963 O 89.358 1.73411 -1.83534 0
M  V30 964 C 90.671 -1.39378 -2.66448 0
M  V30 965 C 92.219 -1.39223 -2.80332 0
M  V30 966 C 92.694 -2.24765 -3.99055 0
M  V30 967 N 94.185 -2.22458 -4.06284 0
M  V30 968 C 94.92 -2.85386 -4.97336 0
M  V30 969 N 94.416 -3.57354 -5.93523 0
M  V30 970 N 96.209 -2.74872 -4.90308 0
M  V30 971 H 88.36 -1.78952 -1.14411 0
M  V30 972 H 90.623 -0.763297 -0.562212 0
M  V30 973 H 90.329 -2.44061 -2.53234 0
M  V30 974 H 90.203 -1.0676 -3.61776 0
M  V30 975 H 92.59 -0.353136 -2.92979 0
M  V30 976 H 92.671 -1.75846 -1.85773 0
M  V30 977 H 92.315 -3.28732 -3.87167 0
M  V30 978 H 92.245 -1.85485 -4.92852 0
M  V30 979 H 94.736 -1.70119 -3.37443 0
M  V30 980 H 95.049 -4.02584 -6.59656 0
M  V30 981 H 93.394 -3.61461 -5.93608 0
M  V30 982 H 96.585 -2.18213 -4.14126 0
M  V30 983 H 96.758 -3.24199 -5.61069 0
M  V30 984 N 90.1641 1.46063 -0.591896 0
M  V30 985 C 91.1111 2.30399 0.136069 0
M  V30 986 C 92.0811 1.41169 0.875238 0
M  V30 987 O 93.2661 1.70112 0.86409 0
M  V30 988 C 90.4061 3.25804 1.13781 0
M  V30 989 C 89.5191 4.30134 0.401137 0
M  V30 990 C 88.6541 5.12659 1.39121 0
M  V30 991 C 87.6931 6.0873 0.641462 0
M  V30 992 N 86.8301 6.8409 1.58004 0
M  V30 993 H 91.6701 2.92118 -0.589144 0
M  V30 994 H 89.2071 1.43959 -0.302342 0
M  V30 995 H 91.1651 3.79569 1.73156 0
M  V30 996 H 89.7951 2.65872 1.83062 0
M  V30 997 H 88.8471 3.79152 -0.307826 0
M  V30 998 H 90.1591 4.98458 -0.184565 0
M  V30 999 H 89.3131 5.70747 2.05749 0
M  V30 1000 H 88.0521 4.44316 2.01084 0
M  V30 1001 H 87.0571 5.49786 -0.0385419 0
M  V30 1002 H 88.2821 6.79095 0.0270945 0
M  V30 1003 H 86.2281 6.18449 2.18761 0
M  V30 1004 H 86.1451 7.48709 1.04738 0
M  V30 1005 H 87.4131 7.4673 2.23639 0
M  V30 1006 N 91.6422 0.330177 1.54103 0
M  V30 1007 C 93.0532 -0.15652 1.86043 0
M  V30 1008 C 93.4042 -1.51086 1.2517 0
M  V30 1009 O 92.5292 -2.09023 0.560217 0
M  V30 1010 C 93.1242 -0.290784 3.3755 0
M  V30 1011 C 91.6832 -0.721705 3.69416 0
M  V30 1012 C 90.8302 0.152622 2.7688 0
M  V30 1013 H 93.7812 0.550237 1.48856 0
M  V30 1014 H 93.8022 -1.12058 3.63625 0
M  V30 1015 H 93.3142 0.695068 3.81825 0
M  V30 1016 H 91.4152 -1.71706 3.30678 0
M  V30 1017 H 91.5282 -0.520869 4.7626 0
M  V30 1018 H 89.8922 -0.372894 2.51956 0
M  V30 1019 H 90.6752 1.13536 3.23982 0
M  V30 1020 N 93.1203 -1.57491 0.0584922 0
M  V30 1021 C 94.3453 -1.97711 -0.62652 0
M  V30 1022 C 94.7703 -0.936132 -1.63151 0
M  V30 1023 O 94.1283 0.099811 -1.81025 0
M  V30 1024 C 94.1763 -3.36989 -1.28338 0
M  V30 1025 O 93.2803 -3.35433 -2.39913 0
M  V30 1026 H 92.6213 -0.643868 -0.162266 0
M  V30 1027 H 95.1513 -2.04193 0.129064 0
M  V30 1028 H 95.1613 -3.73879 -1.63335 0
M  V30 1029 H 93.8363 -4.12289 -0.546889 0
M  V30 1030 H 92.4133 -3.10298 -2.06809 0
M  V30 1031 N 94.5984 0.214957 -1.56127 0
M  V30 1032 C 95.8454 0.938372 -1.79446 0
M  V30 1033 C 96.1734 1.8407 -0.628378 0
M  V30 1034 O 95.4284 1.91837 0.386925 0
M  V30 1035 C 95.7274 1.80314 -3.0858 0
M  V30 1036 C 95.3934 1.05349 -4.3842 0
M  V30 1037 C 94.0554 0.846435 -4.73697 0
M  V30 1038 C 96.4074 0.524588 -5.18553 0
M  V30 1039 C 93.7354 0.098683 -5.86617 0
M  V30 1040 C 96.0874 -0.209853 -6.32252 0
M  V30 1041 C 94.7514 -0.428102 -6.66126 0
M  V30 1042 H 94.0214 0.343375 -0.656639 0
M  V30 1043 H 96.6684 0.206077 -1.90388 0
M  V30 1044 H 94.9734 2.6035 -2.92789 0
M  V30 1045 H 96.6704 2.36513 -3.23825 0
M  V30 1046 H 93.2604 1.22486 -4.10725 0
M  V30 1047 H 97.4444 0.672008 -4.91729 0
M  V30 1048 H 92.7004 -0.0805753 -6.11347 0
M  V30 1049 H 96.8744 -0.627157 -6.9357 0
M  V30 1050 H 94.5014 -1.00944 -7.53468 0
M  V30 1051 N 96.0765 1.50051 0.48192 0
M  V30 1052 C 97.0065 1.71046 1.58951 0
M  V30 1053 C 97.9875 0.559288 1.60642 0
M  V30 1054 O 99.1725 0.797243 1.77081 0
M  V30 1055 C 96.3025 1.79462 2.97339 0
M  V30 1056 C 95.2565 2.94558 3.10515 0
M  V30 1057 C 94.5825 2.88105 4.50444 0
M  V30 1058 C 95.8825 4.35227 2.88747 0
M  V30 1059 H 97.5765 2.6378 1.41635 0
M  V30 1060 H 95.1225 1.26936 0.679942 0
M  V30 1061 H 97.0755 1.92734 3.74742 0
M  V30 1062 H 95.7995 0.833412 3.15788 0
M  V30 1063 H 94.4585 2.80918 2.35543 0
M  V30 1064 H 94.1065 1.89853 4.65795 0
M  V30 1065 H 93.8065 3.65366 4.60197 0
M  V30 1066 H 95.3305 3.03412 5.29881 0
M  V30 1067 H 96.7445 4.49449 3.55905 0
M  V30 1068 H 95.1415 5.13856 3.09955 0
M  V30 1069 H 96.2115 4.48347 1.84696 0
M  V30 1070 N 97.5546 -0.734337 1.39446 0
M  V30 1071 C 98.8036 -1.48937 1.36017 0
M  V30 1072 C 99.1166 -1.95557 -0.0409005 0
M  V30 1073 O 100.323 -2.70779 -0.19778 0
M  V30 1074 C 98.7786 -2.69125 2.38955 0
M  V30 1075 C 98.3866 -2.29452 3.8478 0
M  V30 1076 C 100.131 -3.46944 2.44603 0
M  V30 1077 C 98.0376 -3.46366 4.79358 0
M  V30 1078 H 96.9676 -0.559296 0.505672 0
M  V30 1079 H 99.6186 -0.800983 1.65095 0
M  V30 1080 H 98.0006 -3.40041 2.02948 0
M  V30 1081 H 99.1746 -1.66077 4.29831 0
M  V30 1082 H 97.4896 -1.64723 3.82433 0
M  V30 1083 H 100.087 -4.33907 3.12456 0
M  V30 1084 H 100.43 -3.89454 1.47076 0
M  V30 1085 H 100.963 -2.83056 2.79507 0
M  V30 1086 H 97.7016 -3.08905 5.78151 0
M  V30 1087 H 97.2216 -4.08719 4.38986 0
M  V30 1088 H 98.9006 -4.12691 4.98292 0
M  V30 1089 N 99.0327 -1.24633 -0.964593 0
M  V30 1090 C 100.261 -1.11501 -1.74285 0
M  V30 1091 C 100.676 0.332165 -1.85855 0
M  V30 1092 O 100.033 1.22903 -1.34911 0
M  V30 1093 C 100.084 -1.75258 -3.16175 0
M  V30 1094 O 99.8047 -3.14318 -3.05182 0
M  V30 1095 C 101.306 -1.67776 -4.10324 0
M  V30 1096 H 98.5257 -0.389407 -0.546446 0
M  V30 1097 H 101.07 -1.64801 -1.21083 0
M  V30 1098 H 99.2247 -1.25954 -3.66353 0
M  V30 1099 H 99.6387 -3.4551 -3.94618 0
M  V30 1100 H 101.113 -2.17064 -5.0753 0
M  V30 1101 H 101.59 -0.639584 -4.34518 0
M  V30 1102 H 102.196 -2.16522 -3.66058 0
M  V30 1103 N 100.511 1.16574 -1.06058 0
M  V30 1104 C 101.459 2.22941 -0.663343 0
M  V30 1105 C 102.453 1.66358 0.319593 0
M  V30 1106 O 103.659 1.7905 0.184713 0
M  V30 1107 H 100.034 0.725907 -0.196376 0
M  V30 1108 H 102.005 2.53736 -1.57037 0
M  V30 1109 C 100.754 3.47642 -0.0632808 0
M  V30 1110 H 100.077 3.91493 -0.810733 0
M  V30 1111 H 101.517 4.2363 0.177177 0
M  V30 1112 C 99.9758 3.1509 1.19248 0
M  V30 1113 O 100.506 3.30673 2.28075 0
M  V30 1114 N 98.7118 2.6924 1.09353 0
M  V30 1115 H 98.2588 2.5676 0.207912 0
M  V30 1116 H 98.2168 2.47833 1.93458 0
M  V30 1117 N 101.989 0.842826 1.3317 0
M  V30 1118 C 103.4 0.496651 1.79973 0
M  V30 1119 C 103.751 -0.984641 1.69703 0
M  V30 1120 O 102.876 -1.76743 1.24863 0
M  V30 1121 C 103.471 0.894727 3.26772 0
M  V30 1122 C 102.03 0.600629 3.71577 0
M  V30 1123 C 101.177 1.10091 2.5451 0
M  V30 1124 H 104.128 1.03116 1.20635 0
M  V30 1125 H 104.149 0.206347 3.7994 0
M  V30 1126 H 103.661 1.97287 3.34215 0
M  V30 1127 H 101.762 -0.467284 3.69658 0
M  V30 1128 H 101.875 1.15863 4.64879 0
M  V30 1129 H 100.239 0.52162 2.49301 0
M  V30 1130 H 101.022 2.18591 2.64713 0
M  V30 1131 N 103.467 -1.45747 0.599634 0
M  V30 1132 C 104.715 -2.01893 0.0915472 0
M  V30 1133 C 105.036 -1.47155 -1.27946 0
M  V30 1134 O 104.306 -0.66273 -1.84349 0
M  V30 1135 H 102.886 -0.746363 0.0308524 0
M  V30 1136 H 105.548 -1.78645 0.779237 0
M  V30 1137 H 104.644 -3.1208 0.0353086 0
M  V30 1138 N 104.945 -0.338344 -1.53925 0
M  V30 1139 C 106.17 0.263987 -2.05713 0
M  V30 1140 C 106.595 1.43847 -1.21201 0
M  V30 1141 O 105.953 1.79904 -0.224535 0
M  V30 1142 C 106.001 0.662 -3.54471 0
M  V30 1143 O 105.105 1.76265 -3.72833 0
M  V30 1144 H 104.446 0.0448722 -0.662482 0
M  V30 1145 H 106.976 -0.491048 -1.9862 0
M  V30 1146 H 106.986 0.940594 -3.9701 0
M  V30 1147 H 105.661 -0.196937 -4.15433 0
M  V30 1148 H 104.238 1.48173 -3.42198 0
M  V30 1149 N 106.423 1.57458 -0.0668435 0
M  V30 1150 C 107.371 2.13639 0.919851 0
M  V30 1151 C 108.365 1.07204 1.31163 0
M  V30 1152 O 109.571 1.25591 1.28945 0
M  V30 1153 H 105.946 0.683048 0.314562 0
M  V30 1154 H 107.917 2.95415 0.421047 0
M  V30 1155 C 106.666 2.70892 2.17975 0
M  V30 1156 H 105.989 3.5246 1.88711 0
M  V30 1157 H 107.429 3.13803 2.85138 0
M  V30 1158 C 105.888 1.65414 2.93496 0
M  V30 1159 O 106.418 1.07619 3.87015 0
M  V30 1160 N 104.624 1.36564 2.56512 0
M  V30 1161 H 104.171 1.83751 1.80536 0
M  V30 1162 H 104.129 0.66223 3.07347 0
M  V30 1163 N 107.901 -0.206675 1.56239 0
M  V30 1164 C 108.833 -1.27997 1.9013 0
M  V30 1165 C 109.846 -1.42299 0.790883 0
M  V30 1166 O 111.035 -1.42931 1.06925 0
M  V30 1167 C 108.135 -2.65368 2.10792 0
M  V30 1168 C 107.308 -2.72824 3.41886 0
M  V30 1169 C 106.367 -3.9131 3.51799 0
M  V30 1170 O 105.393 -3.78953 4.24716 0
M  V30 1171 N 106.595 -5.06265 2.84035 0
M  V30 1172 H 109.36 -0.992444 2.82791 0
M  V30 1173 H 106.921 -0.396652 1.56966 0
M  V30 1174 H 108.913 -3.43039 2.14724 0
M  V30 1175 H 107.483 -2.86657 1.24685 0
M  V30 1176 H 106.703 -1.81515 3.49923 0
M  V30 1177 H 107.991 -2.74786 4.28217 0
M  V30 1178 H 107.389 -5.19203 2.246 0
M  V30 1179 H 105.946 -5.81925 2.93609 0
M  V30 1180 N 109.379 -1.50304 -0.473955 0
M  V30 1181 C 110.627 -1.60832 -1.22382 0
M  V30 1182 C 110.948 -0.30939 -1.9253 0
M  V30 1183 O 110.218 0.67296 -1.83978 0
M  V30 1184 H 108.798 -0.592652 -0.454723 0
M  V30 1185 H 111.46 -1.87068 -0.546968 0
M  V30 1186 H 110.556 -2.41803 -1.97327 0
M  V30 1187 N 110.857 0.726932 -1.39834 0
M  V30 1188 C 112.268 1.30558 -1.3346 0
M  V30 1189 C 112.619 1.962 -0.00273003 0
M  V30 1190 O 111.744 1.96826 0.899371 0
M  V30 1191 C 112.339 2.37404 -2.41713 0
M  V30 1192 C 110.898 2.90921 -2.38835 0
M  V30 1193 C 110.045 1.64578 -2.2318 0
M  V30 1194 H 112.996 0.523862 -1.49804 0
M  V30 1195 H 113.017 3.17984 -2.08966 0
M  V30 1196 H 112.529 1.89599 -3.38635 0
M  V30 1197 H 110.63 3.42985 -1.45575 0
M  V30 1198 H 110.743 3.43487 -3.33997 0
M  V30 1199 H 109.107 1.89219 -1.70494 0
M  V30 1200 H 109.89 1.18814 -3.22084 0
M  V30 1201 N 112.336 1.25143 0.95797 0
M  V30 1202 C 113.752 1.01892 1.22842 0
M  V30 1203 C 113.952 -0.266311 1.99732 0
M  V30 1204 O 113.008 -0.979913 2.3271 0
M  V30 1205 C 114.321 2.24004 2.00606 0
M  V30 1206 C 115.869 2.28731 2.13662 0
M  V30 1207 C 116.344 3.5049 2.94823 0
M  V30 1208 N 117.835 3.50866 3.02403 0
M  V30 1209 C 118.57 4.4174 3.65586 0
M  V30 1210 N 118.066 5.42882 4.30408 0
M  V30 1211 N 119.859 4.29429 3.62694 0
M  V30 1212 H 112.01 2.07718 0.443493 0
M  V30 1213 H 114.273 0.912031 0.258657 0
M  V30 1214 H 113.979 3.17395 1.51503 0
M  V30 1215 H 113.853 2.26907 3.01319 0
M  V30 1216 H 116.24 1.35865 2.61963 0
M  V30 1217 H 116.321 2.29848 1.12265 0
M  V30 1218 H 115.965 4.43676 2.47213 0
M  V30 1219 H 115.895 3.46617 3.96439 0
M  V30 1220 H 118.386 2.777 2.56302 0
M  V30 1221 H 118.699 6.0844 4.76467 0
M  V30 1222 H 117.044 5.46758 4.29047 0
M  V30 1223 H 120.235 3.49643 3.11236 0
M  V30 1224 H 120.408 5.00448 4.1165 0
M  V30 1225 N 113.814 -1.1601 1.06675 0
M  V30 1226 C 115.061 -1.86633 0.785781 0
M  V30 1227 C 115.389 -1.81929 -0.687896 0
M  V30 1228 O 114.644 -1.23253 -1.52011 0
M  V30 1229 C 114.943 -3.35547 1.23057 0
M  V30 1230 C 114.609 -3.60448 2.70902 0
M  V30 1231 C 113.271 -3.66954 3.11285 0
M  V30 1232 C 115.623 -3.7071 3.66365 0
M  V30 1233 C 112.951 -3.81225 4.45965 0
M  V30 1234 C 115.303 -3.86503 5.00797 0
M  V30 1235 C 113.967 -3.91252 5.40813 0
M  V30 1236 H 113.237 -0.682937 0.287538 0
M  V30 1237 H 115.884 -1.37146 1.33654 0
M  V30 1238 H 114.189 -3.87193 0.59907 0
M  V30 1239 H 115.886 -3.88583 0.990163 0
M  V30 1240 H 112.476 -3.56021 2.38636 0
M  V30 1241 H 116.66 -3.64991 3.36296 0
M  V30 1242 H 111.916 -3.83155 4.76447 0
M  V30 1243 H 116.09 -3.93385 5.74649 0
M  V30 1244 H 113.717 -4.02062 6.45174 0
M  V30 1245 N 115.292 -0.849877 -1.32721 0
M  V30 1246 C 116.255 -0.296122 -2.27279 0
M  V30 1247 C 117.255 0.541458 -1.5141 0
M  V30 1248 O 118.445 0.353658 -1.70572 0
M  V30 1249 C 115.577 0.581579 -3.35902 0
M  V30 1250 H 116.77 -1.13064 -2.77771 0
M  V30 1251 H 114.323 -0.62383 -1.43311 0
M  V30 1252 H 115.058 1.43809 -2.9067 0
M  V30 1253 H 114.843 -0.0178814 -3.92096 0
M  V30 1254 H 116.333 0.961951 -4.0637 0
M  V30 1255 N 116.77 1.45427 -0.607355 0
M  V30 1256 C 118.018 2.01841 -0.102253 0
M  V30 1257 C 118.339 1.47832 1.27164 0
M  V30 1258 O 117.609 0.672497 1.83995 0
M  V30 1259 H 116.189 0.746188 -0.0348101 0
M  V30 1260 H 118.851 1.78229 -0.7887 0
M  V30 1261 H 117.947 3.12057 -0.0518585 0
M  V30 1262 N 118.248 0.346503 1.53744 0
M  V30 1263 C 119.473 -0.253074 2.0585 0
M  V30 1264 C 119.898 -1.43202 1.21962 0
M  V30 1265 O 119.256 -1.79783 0.234073 0
M  V30 1266 C 119.304 -0.643193 3.54817 0
M  V30 1267 O 118.408 -1.74286 3.73762 0
M  V30 1268 H 117.749 -0.0413583 0.662711 0
M  V30 1269 H 120.279 0.501574 1.98357 0
M  V30 1270 H 120.289 -0.919526 3.97503 0
M  V30 1271 H 118.964 0.218966 4.15323 0
M  V30 1272 H 117.541 -1.46356 3.42979 0
M  V30 1273 N 119.726 -1.57421 0.075193 0
M  V30 1274 C 121.137 -1.81021 -0.456964 0
M  V30 1275 C 121.488 -0.98936 -1.69429 0
M  V30 1276 O 120.613 -0.212865 -2.15351 0
M  V30 1277 C 121.208 -3.28329 -0.83581 0
M  V30 1278 C 119.767 -3.52764 -1.31281 0
M  V30 1279 C 118.914 -2.75676 -0.299648 0
M  V30 1280 H 121.865 -1.55822 0.300856 0
M  V30 1281 H 121.886 -3.40564 -1.69696 0
M  V30 1282 H 121.398 -3.88046 0.0649238 0
M  V30 1283 H 119.499 -2.98355 -2.23193 0
M  V30 1284 H 119.612 -4.61451 -1.28839 0
M  V30 1285 H 117.976 -2.42538 -0.777641 0
M  V30 1286 H 118.759 -3.38132 0.593417 0
M  V30 1287 N 121.204 0.198386 -1.56346 0
M  V30 1288 C 122.134 1.24865 -1.9731 0
M  V30 1289 C 123.115 1.47651 -0.844576 0
M  V30 1290 O 124.3 1.59444 -1.10866 0
M  V30 1291 C 121.43 2.59358 -2.30977 0
M  V30 1292 C 120.384 2.5119 -3.46537 0
M  V30 1293 C 119.71 3.89926 -3.65871 0
M  V30 1294 C 121.01 2.03977 -4.80823 0
M  V30 1295 H 122.704 0.908252 -2.85291 0
M  V30 1296 H 120.25 0.435462 -1.37258 0
M  V30 1297 H 122.203 3.33011 -2.58228 0
M  V30 1298 H 120.927 2.95132 -1.39874 0
M  V30 1299 H 119.586 1.79993 -3.19371 0
M  V30 1300 H 119.234 4.23046 -2.72105 0
M  V30 1301 H 118.934 3.85336 -4.4361 0
M  V30 1302 H 120.458 4.65205 -3.95495 0
M  V30 1303 H 121.872 2.67386 -5.07127 0
M  V30 1304 H 120.269 2.10397 -5.62008 0
M  V30 1305 H 121.339 0.992861 -4.74626 0
M  V30 1306 N 122.682 1.50554 0.465978 0
M  V30 1307 C 123.93 1.61479 1.21528 0
M  V30 1308 C 124.251 0.319596 1.92363 0
M  V30 1309 O 123.521 -0.663194 1.84333 0
M  V30 1310 H 122.101 0.595055 0.451573 0
M  V30 1311 H 124.763 1.87355 0.53704 0
M  V30 1312 H 123.859 2.42846 1.96042 0
M  V30 1313 N 124.16 -0.719506 1.40217 0
M  V30 1314 C 125.11 -1.8251 1.36653 0
M  V30 1315 C 126.094 -1.59028 0.244732 0
M  V30 1316 O 127.286 -1.70268 0.483524 0
M  V30 1317 C 124.415 -3.20599 1.22763 0
M  V30 1318 C 123.501 -3.49858 2.39708 0
M  V30 1319 N 123.892 -3.49957 3.6519 0
M  V30 1320 C 122.19 -3.80297 2.33002 0
M  V30 1321 C 122.891 -3.77449 4.42614 0
M  V30 1322 N 121.867 -3.96002 3.72402 0
M  V30 1323 H 125.669 -1.80914 2.31619 0
M  V30 1324 H 123.183 -0.918455 1.33933 0
M  V30 1325 H 125.18 -3.99766 1.18292 0
M  V30 1326 H 123.84 -3.23424 0.287614 0
M  V30 1327 H 124.851 -3.309 3.98404 0
M  V30 1328 H 121.528 -3.90635 1.47346 0
M  V30 1329 H 122.918 -3.83863 5.51451 0
M  V30 1330 N 125.638 -1.25649 -0.95132 0
M  V30 1331 C 126.548 -1.08073 -2.08224 0
M  V30 1332 C 127.564 -0.0169666 -1.73992 0
M  V30 1333 O 128.74 -0.218593 -2.0021 0
M  V30 1334 C 125.805 -0.704922 -3.39458 0
M  V30 1335 C 124.866 -1.84699 -3.87537 0
M  V30 1336 C 124.099 -1.48902 -5.12508 0
M  V30 1337 O 124.322 -0.386156 -5.69091 0
M  V30 1338 O 123.256 -2.32033 -5.55378 0
M  V30 1339 H 127.082 -2.02924 -2.25954 0
M  V30 1340 H 124.667 -1.04618 -1.06656 0
M  V30 1341 H 126.549 -0.507609 -4.18332 0
M  V30 1342 H 125.224 0.214291 -3.2299 0
M  V30 1343 H 124.131 -2.09919 -3.09653 0
M  V30 1344 H 125.464 -2.74557 -4.08509 0
M  V30 1345 N 127.117 1.15442 -1.07289 0
M  V30 1346 C 128.364 1.86213 -0.795668 0
M  V30 1347 C 128.692 1.82291 0.678238 0
M  V30 1348 O 127.947 1.24057 1.51355 0
M  V30 1349 C 128.246 3.3489 -1.24834 0
M  V30 1350 C 127.912 3.59007 -2.72809 0
M  V30 1351 C 126.574 3.65298 -3.13227 0
M  V30 1352 C 128.926 3.68762 -3.68326 0
M  V30 1353 C 126.254 3.78854 -4.4798 0
M  V30 1354 C 128.606 3.83842 -5.0284 0
M  V30 1355 C 127.27 3.88378 -5.4288 0
M  V30 1356 H 126.54 0.681403 -0.291155 0
M  V30 1357 H 129.187 1.36435 -1.34379 0
M  V30 1358 H 127.492 3.8687 -0.619595 0
M  V30 1359 H 129.189 3.88052 -1.01076 0
M  V30 1360 H 125.779 3.5475 -2.40521 0
M  V30 1361 H 129.963 3.63202 -3.38227 0
M  V30 1362 H 125.219 3.80623 -4.78472 0
M  V30 1363 H 129.393 3.90332 -5.76727 0
M  V30 1364 H 127.02 3.98635 -6.47298 0
M  V30 1365 N 128.595 0.856903 1.32268 0
M  V30 1366 C 129.823 0.475439 2.01363 0
M  V30 1367 C 130.238 -0.928486 1.64392 0
M  V30 1368 O 129.595 -1.60624 0.866387 0
M  V30 1369 C 129.646 0.607545 3.56358 0
M  V30 1370 O 129.367 1.95617 3.92002 0
M  V30 1371 C 130.868 0.225382 4.42727 0
M  V30 1372 H 128.088 0.186636 0.644521 0
M  V30 1373 H 130.632 1.15446 1.68797 0
M  V30 1374 H 128.787 -0.0237719 3.87393 0
M  V30 1375 H 129.201 1.95455 4.86721 0
M  V30 1376 H 130.675 0.368813 5.50767 0
M  V30 1377 H 131.152 -0.834369 4.31202 0
M  V30 1378 H 131.758 0.831864 4.17085 0
M  V30 1379 N 130.073 -1.45103 0.615059 0
M  V30 1380 C 131.298 -2.07064 0.117988 0
M  V30 1381 C 131.723 -1.4554 -1.19163 0
M  V30 1382 O 131.081 -0.550855 -1.72729 0
M  V30 1383 C 131.129 -3.606 -0.000288387 0
M  V30 1384 O 130.233 -3.98847 -1.04856 0
M  V30 1385 H 129.574 -0.659467 0.0774581 0
M  V30 1386 H 132.104 -1.86236 0.847186 0
M  V30 1387 H 132.114 -4.07529 -0.196091 0
M  V30 1388 H 130.789 -4.04765 0.955932 0
M  V30 1389 H 129.366 -3.63577 -0.828619 0
M  V30 1390 N 131.551 -0.354651 -1.53558 0
M  V30 1391 C 132.481 0.489091 -2.2832 0
M  V30 1392 C 133.462 1.09324 -1.30316 0
M  V30 1393 O 134.647 1.11255 -1.59173 0
M  V30 1394 C 131.777 1.63456 -3.0643 0
M  V30 1395 C 130.731 1.1582 -4.12031 0
M  V30 1396 C 130.057 2.39305 -4.7816 0
M  V30 1397 C 131.357 0.250731 -5.21698 0
M  V30 1398 H 133.051 -0.134614 -2.99097 0
M  V30 1399 H 130.597 -0.0661826 -1.43848 0
M  V30 1400 H 132.55 2.23136 -3.57475 0
M  V30 1401 H 131.274 2.28533 -2.33325 0
M  V30 1402 H 129.933 0.584146 -3.61916 0
M  V30 1403 H 129.581 3.02814 -4.01637 0
M  V30 1404 H 129.281 2.08109 -5.49513 0
M  V30 1405 H 130.805 2.99691 -5.31994 0
M  V30 1406 H 132.219 0.754695 -5.68311 0
M  V30 1407 H 130.616 0.0301468 -6.00092 0
M  V30 1408 H 131.686 -0.710125 -4.79672 0
M  V30 1409 N 133.029 1.57378 -0.0835403 0
M  V30 1410 C 134.275 1.94217 0.583733 0
M  V30 1411 C 134.608 0.964653 1.68547 0
M  V30 1412 O 133.883 -0.00422258 1.945 0
M  V30 1413 C 134.166 3.41253 1.14972 0
M  V30 1414 C 134.019 4.49768 0.0538277 0
M  V30 1415 C 135.338 3.89352 2.05166 0
M  V30 1416 H 132.457 0.706233 0.210724 0
M  V30 1417 H 135.099 1.89392 -0.1519 0
M  V30 1418 H 133.249 3.45496 1.77665 0
M  V30 1419 H 134.921 4.57641 -0.579851 0
M  V30 1420 H 133.164 4.29432 -0.614068 0
M  V30 1421 H 133.835 5.49817 0.490452 0
M  V30 1422 H 136.311 3.87189 1.52393 0
M  V30 1423 H 135.187 4.92822 2.41698 0
M  V30 1424 H 135.448 3.27973 2.96456 0
M  V30 1425 N 134.507 -0.190092 1.56449 0
M  V30 1426 C 135.437 -1.23816 1.97969 0
M  V30 1427 C 136.418 -1.47201 0.852395 0
M  V30 1428 O 137.603 -1.58854 1.1171 0
M  V30 1429 C 134.733 -2.5813 2.3235 0
M  V30 1430 C 133.687 -2.49348 3.47864 0
M  V30 1431 C 133.013 -3.8798 3.67934 0
M  V30 1432 C 134.313 -2.01424 4.81898 0
M  V30 1433 H 136.007 -0.89311 2.85769 0
M  V30 1434 H 133.553 -0.428177 1.37487 0
M  V30 1435 H 135.506 -3.31637 2.59991 0
M  V30 1436 H 134.23 -2.94386 1.41438 0
M  V30 1437 H 132.889 -1.78297 3.20321 0
M  V30 1438 H 132.537 -4.21597 2.74344 0
M  V30 1439 H 132.237 -3.82978 4.45648 0
M  V30 1440 H 133.761 -4.63101 3.97957 0
M  V30 1441 H 135.175 -2.64693 5.08538 0
M  V30 1442 H 133.572 -2.07413 5.63116 0
M  V30 1443 H 134.642 -0.967677 4.75146 0
M  V30 1444 N 135.985 -1.50799 -0.457987 0
M  V30 1445 C 136.948 -1.7005 -1.53674 0
M  V30 1446 C 137.948 -0.570881 -1.50325 0
M  V30 1447 O 139.138 -0.838126 -1.52712 0
M  V30 1448 C 136.27 -1.73788 -2.93276 0
M  V30 1449 H 137.463 -2.66306 -1.37917 0
M  V30 1450 H 135.016 -1.40477 -0.685271 0
M  V30 1451 H 135.751 -0.792717 -3.14462 0
M  V30 1452 H 135.536 -2.55864 -2.97113 0
M  V30 1453 H 137.026 -1.90591 -3.71571 0
M  V30 1454 N 137.463 0.71206 -1.40597 0
M  V30 1455 C 138.393 1.83889 -1.43899 0
M  V30 1456 C 139.374 1.67442 -0.299504 0
M  V30 1457 O 140.559 1.87421 -0.508624 0
M  V30 1458 C 137.689 3.21877 -1.30431 0
M  V30 1459 C 136.643 3.53002 -2.42019 0
M  V30 1460 C 135.969 4.90172 -2.13626 0
M  V30 1461 C 137.269 3.53643 -3.84362 0
M  V30 1462 H 138.963 1.81383 -2.38203 0
M  V30 1463 H 136.509 0.871237 -1.14654 0
M  V30 1464 H 138.462 4.00404 -1.31357 0
M  V30 1465 H 137.186 3.24968 -0.326049 0
M  V30 1466 H 135.845 2.76818 -2.40349 0
M  V30 1467 H 135.493 4.89869 -1.14182 0
M  V30 1468 H 135.193 5.11962 -2.88389 0
M  V30 1469 H 136.717 5.71028 -2.1624 0
M  V30 1470 H 138.131 4.22203 -3.87837 0
M  V30 1471 H 136.528 3.86961 -4.58673 0
M  V30 1472 H 137.598 2.52954 -4.13693 0
M  V30 1473 N 138.941 1.26152 0.944643 0
M  V30 1474 C 139.871 1.09902 2.06019 0
M  V30 1475 C 140.852 0.00519538 1.70099 0
M  V30 1476 O 142.037 0.176583 1.93396 0
M  V30 1477 C 139.167 0.727562 3.39594 0
M  V30 1478 C 138.121 1.77274 3.89561 0
M  V30 1479 C 137.447 1.25569 5.19747 0
M  V30 1480 C 138.747 3.17357 4.14827 0
M  V30 1481 H 140.441 2.03217 2.19871 0
M  V30 1482 H 137.987 0.978452 1.05652 0
M  V30 1483 H 139.94 0.600777 4.17095 0
M  V30 1484 H 138.664 -0.241287 3.25707 0
M  V30 1485 H 137.323 1.88814 3.14237 0
M  V30 1486 H 136.971 0.276783 5.02238 0
M  V30 1487 H 136.671 1.95433 5.54148 0
M  V30 1488 H 138.195 1.1415 5.99835 0
M  V30 1489 H 139.609 3.08914 4.82954 0
M  V30 1490 H 138.006 3.84781 4.60504 0
M  V30 1491 H 139.076 3.63673 3.20734 0
M  V30 1492 N 140.419 -1.14872 1.07899 0
M  V30 1493 C 141.665 -1.86289 0.81657 0
M  V30 1494 C 142.02 -1.8107 -0.65049 0
M  V30 1495 O 141.313 -1.22684 -1.47171 0
M  V30 1496 C 141.507 -3.34223 1.26609 0
M  V30 1497 C 141.336 -3.53846 2.77531 0
M  V30 1498 C 140.106 -3.68995 3.45212 0
M  V30 1499 C 142.304 -3.51201 3.75716 0
M  V30 1500 N 140.286 -3.76725 4.84718 0
M  V30 1501 C 141.657 -3.65112 5.01092 0
M  V30 1502 C 143.712 -3.34507 3.68794 0
M  V30 1503 C 142.415 -3.64056 6.20368 0
M  V30 1504 C 144.441 -3.34752 4.8754 0
M  V30 1505 C 143.803 -3.49199 6.11751 0
M  V30 1506 H 139.902 -0.698579 0.351443 0
M  V30 1507 H 142.486 -1.37713 1.37634 0
M  V30 1508 H 140.657 -3.81402 0.73395 0
M  V30 1509 H 142.389 -3.93377 0.95062 0
M  V30 1510 H 139.144 -3.70006 2.95622 0
M  V30 1511 H 139.568 -3.8432 5.5734 0
M  V30 1512 H 144.21 -3.22253 2.73702 0
M  V30 1513 H 141.928 -3.75087 7.15776 0
M  V30 1514 H 145.514 -3.23055 4.83866 0
M  V30 1515 H 144.394 -3.49328 7.02097 0
M  V30 1516 N 141.898 -0.863906 -1.31812 0
M  V30 1517 C 143.126 -0.486111 -2.01108 0
M  V30 1518 C 143.541 0.919755 -1.64882 0
M  V30 1519 O 142.898 1.60162 -0.874893 0
M  V30 1520 C 142.949 -0.626435 -3.56031 0
M  V30 1521 O 142.67 -1.97693 -3.90959 0
M  V30 1522 C 144.171 -0.248857 -4.42601 0
M  V30 1523 H 141.391 -0.190052 -0.643523 0
M  V30 1524 H 143.935 -1.1634 -1.68182 0
M  V30 1525 H 142.09 0.00322717 -3.874 0
M  V30 1526 H 142.504 -1.98034 -4.85678 0
M  V30 1527 H 143.978 -0.398016 -5.50563 0
M  V30 1528 H 144.455 0.811489 -4.31638 0
M  V30 1529 H 145.061 -0.853971 -4.16638 0
M  V30 1530 N 143.376 1.44774 -0.622745 0
M  V30 1531 C 144.624 2.01721 -0.123655 0
M  V30 1532 C 144.945 1.49172 1.25589 0
M  V30 1533 O 144.215 0.691974 1.83272 0
M  V30 1534 H 142.795 0.745777 -0.0427225 0
M  V30 1535 H 145.457 1.77382 -0.807559 0
M  V30 1536 H 144.553 3.11984 -0.0849534 0
M  V30 1537 N 144.854 0.36279 1.53368 0
M  V30 1538 C 146.102 -0.227326 2.00817 0
M  V30 1539 C 146.423 -1.49511 1.25186 0
M  V30 1540 O 145.693 -1.92482 0.364348 0
M  V30 1541 H 144.273 -0.0869923 0.741917 0
M  V30 1542 H 146.935 0.488381 1.88682 0
M  V30 1543 H 146.031 -0.456273 3.08747 0
M  V30 1544 N 146.332 -1.57332 0.0918853 0
M  V30 1545 C 147.282 -2.10385 -0.87876 0
M  V30 1546 C 148.266 -1.01814 -1.24591 0
M  V30 1547 O 149.458 -1.28093 -1.22152 0
M  V30 1548 C 146.587 -2.68517 -2.13901 0
M  V30 1549 C 145.673 -3.84126 -1.79744 0
M  V30 1550 N 146.064 -4.92288 -1.1613 0
M  V30 1551 C 144.362 -3.93801 -2.09373 0
M  V30 1552 C 145.063 -5.7295 -1.00513 0
M  V30 1553 N 144.039 -5.21876 -1.5214 0
M  V30 1554 H 147.841 -2.91395 -0.38293 0
M  V30 1555 H 145.355 -1.62017 -0.111423 0
M  V30 1556 H 147.352 -3.04852 -2.84378 0
M  V30 1557 H 146.012 -1.88961 -2.64053 0
M  V30 1558 H 147.023 -5.1123 -0.828504 0
M  V30 1559 H 143.7 -3.25249 -2.61762 0
M  V30 1560 H 145.09 -6.69978 -0.507902 0
M  V30 1561 N 147.81 0.181792 -1.56548 0
M  V30 1562 C 149.221 0.745244 -1.71181 0
M  V30 1563 C 149.572 1.83262 -0.70068 0
M  V30 1564 O 148.697 2.15946 0.140154 0
M  V30 1565 C 149.292 1.35859 -3.10367 0
M  V30 1566 C 147.851 1.86898 -3.2672 0
M  V30 1567 C 146.998 0.743942 -2.67134 0
M  V30 1568 H 149.949 -0.0434661 -1.5864 0
M  V30 1569 H 149.97 2.22817 -3.08436 0
M  V30 1570 H 149.482 0.566948 -3.83937 0
M  V30 1571 H 147.583 2.68738 -2.5809 0
M  V30 1572 H 147.696 2.02162 -4.34359 0
M  V30 1573 H 146.06 1.16169 -2.26665 0
M  V30 1574 H 146.843 -0.035676 -3.43281 0
M  V30 1575 N 149.288 1.51039 0.449983 0
M  V30 1576 C 150.513 1.6715 1.22783 0
M  V30 1577 C 150.938 0.363081 1.84563 0
M  V30 1578 O 150.296 -0.675433 1.68249 0
M  V30 1579 C 150.344 2.77985 2.29689 0
M  V30 1580 O 149.448 2.40707 3.34864 0
M  V30 1581 H 148.789 0.557746 0.360299 0
M  V30 1582 H 151.319 1.97535 0.533005 0
M  V30 1583 H 151.329 3.01693 2.74673 0
M  V30 1584 H 150.004 3.72935 1.84098 0
M  V30 1585 H 148.581 2.27523 2.95445 0
M  V30 1586 N 150.766 -0.704594 1.40972 0
M  V30 1587 C 151.713 -1.81862 1.42109 0
M  V30 1588 C 152.683 -1.63781 0.276593 0
M  V30 1589 O 153.868 -1.84759 0.4763 0
M  V30 1590 C 151.008 -3.19669 1.30022 0
M  V30 1591 C 150.121 -3.49246 2.54267 0
M  V30 1592 C 149.256 -4.76618 2.3454 0
M  V30 1593 C 148.295 -4.99133 3.54306 0
M  V30 1594 N 147.432 -6.17726 3.33706 0
M  V30 1595 H 152.272 -1.80226 2.37324 0
M  V30 1596 H 149.809 -0.880238 1.17857 0
M  V30 1597 H 151.767 -3.99263 1.21018 0
M  V30 1598 H 150.397 -3.20506 0.384192 0
M  V30 1599 H 149.449 -2.64125 2.73756 0
M  V30 1600 H 150.761 -3.61788 3.43381 0
M  V30 1601 H 149.915 -5.64249 2.22952 0
M  V30 1602 H 148.654 -4.66305 1.42867 0
M  V30 1603 H 147.659 -4.09953 3.66359 0
M  V30 1604 H 148.884 -5.11311 4.4692 0
M  V30 1605 H 146.83 -6.08642 2.44725 0
M  V30 1606 H 146.747 -6.30995 4.16391 0
M  V30 1607 H 148.015 -7.08115 3.25873 0
M  V30 1608 N 152.244 -1.26651 -0.937939 0
M  V30 1609 C 153.154 -1.10276 -2.07066 0
M  V30 1610 C 154.17 -0.0354197 -1.73964 0
M  V30 1611 O 155.346 -0.239816 -1.99967 0
M  V30 1612 C 152.411 -0.740887 -3.38691 0
M  V30 1613 C 151.472 -1.88799 -3.85556 0
M  V30 1614 C 150.705 -1.54329 -5.10899 0
M  V30 1615 O 150.928 -0.446494 -5.6865 0
M  V30 1616 O 149.862 -2.37911 -5.52885 0
M  V30 1617 H 153.688 -2.05309 -2.23789 0
M  V30 1618 H 151.273 -1.05743 -1.0554 0
M  V30 1619 H 153.155 -0.55195 -4.1777 0
M  V30 1620 H 151.83 0.180022 -3.23199 0
M  V30 1621 H 150.737 -2.13191 -3.07409 0
M  V30 1622 H 152.07 -2.78874 -4.05574 0
M  V30 1623 N 153.722 1.14298 -1.08507 0
M  V30 1624 C 154.685 2.17607 -0.719711 0
M  V30 1625 C 155.685 1.58907 0.245997 0
M  V30 1626 O 156.875 1.74181 0.0254081 0
M  V30 1627 C 154.007 3.40842 -0.0627695 0
M  V30 1628 H 155.2 2.51443 -1.63452 0
M  V30 1629 H 152.753 1.28963 -0.88307 0
M  V30 1630 H 153.488 3.12587 0.863716 0
M  V30 1631 H 153.273 3.84713 -0.757504 0
M  V30 1632 H 154.763 4.17221 0.177786 0
M  V30 1633 N 155.201 0.870884 1.31352 0
M  V30 1634 C 156.133 0.28455 2.27427 0
M  V30 1635 C 157.146 -0.552927 1.53123 0
M  V30 1636 O 158.335 -0.374771 1.74521 0
M  V30 1637 C 155.435 -0.615164 3.3327 0
M  V30 1638 C 154.608 0.190079 4.36987 0
M  V30 1639 C 153.667 -0.637917 5.22319 0
M  V30 1640 O 152.693 -0.065626 5.69162 0
M  V30 1641 N 153.895 -1.94973 5.46778 0
M  V30 1642 H 156.66 1.11017 2.7838 0
M  V30 1643 H 154.221 0.732458 1.44384 0
M  V30 1644 H 156.213 -1.1748 3.87273 0
M  V30 1645 H 154.783 -1.34146 2.82354 0
M  V30 1646 H 154.003 0.931165 3.83044 0
M  V30 1647 H 155.291 0.742579 5.03352 0
M  V30 1648 H 154.689 -2.4378 5.10478 0
M  V30 1649 H 153.246 -2.45713 6.03712 0
M  V30 1650 N 156.679 -1.44442 0.630414 0
M  V30 1651 C 157.904 -2.06927 0.139944 0
M  V30 1652 C 158.329 -1.46795 -1.17613 0
M  V30 1653 O 157.687 -0.569144 -1.72135 0
M  V30 1654 C 157.735 -3.6058 0.0379581 0
M  V30 1655 O 156.839 -3.99937 -1.0062 0
M  V30 1656 H 156.18 -0.658608 0.0844483 0
M  V30 1657 H 158.71 -1.85327 0.866891 0
M  V30 1658 H 158.72 -4.07714 -0.152856 0
M  V30 1659 H 157.395 -4.03728 0.998809 0
M  V30 1660 H 155.972 -3.64436 -0.79001 0
M  V30 1661 N 158.157 -0.370918 -1.53173 0
M  V30 1662 C 159.087 0.464847 -2.28826 0
M  V30 1663 C 160.068 1.07936 -1.31468 0
M  V30 1664 O 161.253 1.0956 -1.60344 0
M  V30 1665 C 158.383 1.60196 -3.08147 0
M  V30 1666 C 157.337 1.11443 -4.13237 0
M  V30 1667 C 156.663 2.3422 -4.80672 0
M  V30 1668 C 157.963 0.195384 -5.21934 0
M  V30 1669 H 159.657 -0.166329 -2.98938 0
M  V30 1670 H 157.203 -0.0814359 -1.4377 0
M  V30 1671 H 159.156 2.19332 -3.59822 0
M  V30 1672 H 157.88 2.26045 -2.35735 0
M  V30 1673 H 156.539 0.545727 -3.62515 0
M  V30 1674 H 156.187 2.98537 -4.04827 0
M  V30 1675 H 155.887 2.02269 -5.51689 0
M  V30 1676 H 157.411 2.94032 -5.35143 0
M  V30 1677 H 158.825 0.694375 -5.69079 0
M  V30 1678 H 157.222 -0.0335027 -6.00091 0
M  V30 1679 H 158.292 -0.760961 -4.78892 0
M  V30 1680 N 159.635 1.57281 -0.100228 0
M  V30 1681 C 160.565 2.17328 0.853857 0
M  V30 1682 C 161.546 1.10804 1.2906 0
M  V30 1683 O 162.731 1.38963 1.35657 0
M  V30 1684 C 159.861 2.75772 2.11109 0
M  V30 1685 C 158.815 3.87713 1.81279 0
M  V30 1686 C 158.141 4.32882 3.13874 0
M  V30 1687 C 159.441 5.10677 1.09574 0
M  V30 1688 H 161.135 2.97305 0.353545 0
M  V30 1689 H 158.681 1.43009 0.168612 0
M  V30 1690 H 160.634 3.16433 2.78296 0
M  V30 1691 H 159.358 1.93057 2.63432 0
M  V30 1692 H 158.017 3.476 1.16489 0
M  V30 1693 H 157.665 3.47051 3.64095 0
M  V30 1694 H 157.365 5.08358 2.94696 0
M  V30 1695 H 158.889 4.7618 3.82211 0
M  V30 1696 H 160.303 5.48474 1.66879 0
M  V30 1697 H 158.7 5.91615 1.00557 0
M  V30 1698 H 159.77 4.84835 0.0793299 0
M  V30 1699 N 161.113 -0.173488 1.56642 0
M  V30 1700 C 162.023 -1.23482 1.99473 0
M  V30 1701 C 163.039 -1.48567 0.905752 0
M  V30 1702 O 164.215 -1.60758 1.21321 0
M  V30 1703 C 161.28 -2.55444 2.34413 0
M  V30 1704 C 160.341 -2.38241 3.57127 0
M  V30 1705 C 159.574 -3.63909 3.90392 0
M  V30 1706 O 159.797 -4.68996 3.24653 0
M  V30 1707 O 158.731 -3.58149 4.83749 0
M  V30 1708 H 162.557 -0.901279 2.90018 0
M  V30 1709 H 160.142 -0.380185 1.44482 0
M  V30 1710 H 162.024 -3.33292 2.57865 0
M  V30 1711 H 160.699 -2.88382 1.4703 0
M  V30 1712 H 159.606 -1.58431 3.38896 0
M  V30 1713 H 160.939 -2.10228 4.45045 0
M  V30 1714 N 162.591 -1.51276 -0.441967 0
M  V30 1715 C 163.523 -1.68444 -1.55433 0
M  V30 1716 C 164.536 -0.565187 -1.52674 0
M  V30 1717 O 165.725 -0.839356 -1.57534 0
M  V30 1718 C 162.825 -1.67966 -2.94348 0
M  V30 1719 C 161.998 -2.964 -3.21661 0
M  V30 1720 C 161.057 -2.88171 -4.40277 0
M  V30 1721 O 160.083 -3.62119 -4.39157 0
M  V30 1722 N 161.285 -2.03706 -5.43584 0
M  V30 1723 H 164.05 -2.644 -1.41112 0
M  V30 1724 H 161.611 -1.49104 -0.630838 0
M  V30 1725 H 163.603 -1.60035 -3.71713 0
M  V30 1726 H 162.173 -0.796225 -3.0229 0
M  V30 1727 H 161.393 -3.18234 -2.32638 0
M  V30 1728 H 162.681 -3.81427 -3.36736 0
M  V30 1729 H 162.079 -1.42995 -5.47329 0
M  V30 1730 H 160.636 -2.01658 -6.1982 0
M  V30 1731 N 164.069 0.697108 -1.41344 0
M  V30 1732 C 165.318 1.45279 -1.39918 0
M  V30 1733 C 165.631 1.95597 -0.0109624 0
M  V30 1734 O 166.837 2.71208 0.125919 0
M  V30 1735 C 165.293 2.62695 -2.46007 0
M  V30 1736 C 164.901 2.19169 -3.90729 0
M  V30 1737 C 166.645 3.40336 -2.53715 0
M  V30 1738 C 164.552 3.33535 -4.88373 0
M  V30 1739 H 163.482 0.545692 -0.520323 0
M  V30 1740 H 166.133 0.756929 -1.67161 0
M  V30 1741 H 164.515 3.34541 -2.11892 0
M  V30 1742 H 165.689 1.54623 -4.34083 0
M  V30 1743 H 164.004 1.54525 -3.86666 0
M  V30 1744 H 166.601 4.2547 -3.2385 0
M  V30 1745 H 166.944 3.85418 -1.5735 0
M  V30 1746 H 167.477 2.75546 -2.86913 0
M  V30 1747 H 164.216 2.93468 -5.86137 0
M  V30 1748 H 163.736 3.96936 -4.49668 0
M  V30 1749 H 165.415 3.99335 -5.09059 0
M  V30 1750 N 165.547 1.27147 0.931209 0
M  V30 1751 C 166.963 1.04475 1.20653 0
M  V30 1752 C 167.163 -0.223885 2.00252 0
M  V30 1753 O 166.219 -0.930332 2.34736 0
M  V30 1754 C 167.532 2.28209 1.95809 0
M  V30 1755 C 169.08 2.33211 2.08762 0
M  V30 1756 C 169.555 3.56665 2.87323 0
M  V30 1757 N 171.046 3.57201 2.94892 0
M  V30 1758 C 171.781 4.49395 3.56134 0
M  V30 1759 N 171.277 5.51889 4.18796 0
M  V30 1760 N 173.07 4.37026 3.53504 0
M  V30 1761 H 165.221 2.08612 0.399333 0
M  V30 1762 H 167.484 0.917312 0.239253 0
M  V30 1763 H 167.19 3.20538 1.44736 0
M  V30 1764 H 167.064 2.33247 2.96438 0
M  V30 1765 H 169.451 1.41391 2.59023 0
M  V30 1766 H 169.532 2.32178 1.07364 0
M  V30 1767 H 169.176 4.4882 2.37746 0
M  V30 1768 H 169.106 3.54948 3.88998 0
M  V30 1769 H 171.597 2.83074 2.50354 0
M  V30 1770 H 171.91 6.18409 4.63454 0
M  V30 1771 H 170.255 5.55735 4.17353 0
M  V30 1772 H 173.446 3.56166 3.03749 0
M  V30 1773 H 173.619 5.09067 4.00942 0
M  V30 1774 N 167.025 -1.13721 1.09112 0
M  V30 1775 C 167.975 -2.17082 0.697091 0
M  V30 1776 C 168.959 -1.58321 -0.286923 0
M  V30 1777 O 170.151 -1.7673 -0.0978008 0
M  V30 1778 C 167.28 -3.43105 0.115729 0
M  V30 1779 C 166.366 -4.0888 1.12596 0
M  V30 1780 N 166.757 -4.4987 2.31195 0
M  V30 1781 C 165.055 -4.35471 0.963366 0
M  V30 1782 C 165.756 -5.01094 2.95431 0
M  V30 1783 N 164.732 -4.95751 2.23006 0
M  V30 1784 H 168.534 -2.46524 1.6001 0
M  V30 1785 H 166.048 -1.30481 0.966869 0
M  V30 1786 H 168.045 -4.16491 -0.184555 0
M  V30 1787 H 166.705 -3.15138 -0.78217 0
M  V30 1788 H 167.716 -4.42678 2.68806 0
M  V30 1789 H 164.393 -4.17328 0.119878 0
M  V30 1790 H 165.783 -5.4263 3.96236 0
M  V30 1791 N 168.503 -0.877838 -1.30888 0
M  V30 1792 C 169.752 -0.488793 -1.95688 0
M  V30 1793 C 170.065 0.965485 -1.70111 0
M  V30 1794 O 171.271 1.46104 -2.28836 0
M  V30 1795 C 169.727 -0.823201 -3.50359 0
M  V30 1796 C 169.335 -2.29477 -3.84765 0
M  V30 1797 C 171.079 -0.503009 -4.21509 0
M  V30 1798 C 168.986 -2.57118 -5.32583 0
M  V30 1799 H 167.916 -0.179062 -0.732429 0
M  V30 1800 H 170.567 -1.07183 -1.48943 0
M  V30 1801 H 168.949 -0.169331 -3.95638 0
M  V30 1802 H 170.123 -2.99236 -3.5042 0
M  V30 1803 H 168.438 -2.58178 -3.267 0
M  V30 1804 H 171.035 -0.68665 -5.30273 0
M  V30 1805 H 171.378 0.557109 -4.12555 0
M  V30 1806 H 171.911 -1.11376 -3.8189 0
M  V30 1807 H 168.65 -3.61843 -5.4658 0
M  V30 1808 H 168.17 -1.91961 -5.68253 0
M  V30 1809 H 169.849 -2.42251 -5.99936 0
M  V30 1810 N 169.982 1.44106 -0.638065 0
M  V30 1811 C 171.259 1.95453 -0.0759321 0
M  V30 1812 C 171.639 1.57984 1.40015 0
M  V30 1813 O 170.987 0.857361 2.11806 0
M  V30 1814 C 171.197 3.47655 -0.306132 0
M  V30 1815 C 172.545 4.24114 -0.203008 0
M  V30 1816 O 173.569 3.55405 -0.237871 0
M  V30 1817 O 172.428 5.46381 -0.113827 0
M  V30 1818 H 169.522 0.826797 0.0183332 0
M  V30 1819 H 172.068 1.54122 -0.710251 0
M  V30 1820 H 170.84 3.68 -1.3301 0
M  V30 1821 H 170.463 3.95949 0.361991 0
M  V30 1822 N 171.46 0.379036 1.52974 0
M  V30 1823 C 172.708 -0.206014 2.01047 0
M  V30 1824 C 173.029 -1.48175 1.26765 0
M  V30 1825 O 172.299 -1.92085 0.384743 0
M  V30 1826 H 170.879 -0.0791184 0.742798 0
M  V30 1827 H 173.541 0.508366 1.88153 0
M  V30 1828 H 172.637 -0.423501 3.09213 0
M  V30 1829 N 172.938 -1.57226 0.108567 0
M  V30 1830 C 174.215 -1.86333 -0.594939 0
M  V30 1831 C 174.595 -1.00788 -1.85486 0
M  V30 1832 O 173.943 -0.0839293 -2.28346 0
M  V30 1833 C 174.153 -3.37265 -0.897405 0
M  V30 1834 C 175.501 -4.05629 -1.25501 0
M  V30 1835 O 176.525 -3.42224 -0.987998 0
M  V30 1836 O 175.384 -5.17531 -1.75567 0
M  V30 1837 H 172.478 -0.771018 -0.2991 0
M  V30 1838 H 175.024 -1.69102 0.142283 0
M  V30 1839 H 173.796 -3.913 -0.00413806 0
M  V30 1840 H 173.419 -3.59889 -1.69014 0
M  V30 1841 N 174.416 0.165178 -1.56732 0
M  V30 1842 C 175.663 0.880807 -1.8234 0
M  V30 1843 C 175.991 1.81977 -0.686621 0
M  V30 1844 O 175.246 1.92971 0.325697 0
M  V30 1845 C 175.545 1.70405 -3.1416 0
M  V30 1846 C 175.211 0.913475 -4.4155 0
M  V30 1847 C 173.873 0.695303 -4.7615 0
M  V30 1848 C 176.225 0.359349 -5.1996 0
M  V30 1849 C 173.553 -0.0879947 -5.86634 0
M  V30 1850 C 175.905 -0.410893 -6.31264 0
M  V30 1851 C 174.569 -0.639808 -6.64427 0
M  V30 1852 H 173.839 0.32231 -0.667231 0
M  V30 1853 H 176.486 0.145402 -1.90947 0
M  V30 1854 H 174.791 2.50903 -3.00923 0
M  V30 1855 H 176.488 2.26091 -3.31186 0
M  V30 1856 H 173.078 1.09357 -4.14414 0
M  V30 1857 H 177.262 0.515228 -4.93618 0
M  V30 1858 H 172.518 -0.27503 -6.10781 0
M  V30 1859 H 176.692 -0.847494 -6.91224 0
M  V30 1860 H 174.319 -1.24864 -7.49875 0
M  V30 1861 N 175.894 1.51508 0.433938 0
M  V30 1862 C 176.804 1.75917 1.5521 0
M  V30 1863 C 177.82 0.643545 1.61662 0
M  V30 1864 O 178.996 0.926183 1.7884 0
M  V30 1865 C 176.061 1.88213 2.91164 0
M  V30 1866 C 175.122 3.12074 2.94802 0
M  V30 1867 C 174.355 3.23774 4.24271 0
M  V30 1868 O 174.578 2.4133 5.16833 0
M  V30 1869 O 173.512 4.16774 4.34262 0
M  V30 1870 H 177.338 2.70777 1.37527 0
M  V30 1871 H 174.923 1.36051 0.617293 0
M  V30 1872 H 176.805 1.98267 3.71845 0
M  V30 1873 H 175.48 0.965413 3.08968 0
M  V30 1874 H 174.387 3.07497 2.13065 0
M  V30 1875 H 175.72 4.03446 2.81943 0
M  V30 1876 N 177.372 -0.689602 1.41712 0
M  V30 1877 C 178.619 -1.44966 1.4139 0
M  V30 1878 C 178.947 -1.94484 0.025105 0
M  V30 1879 O 178.202 -1.70307 -0.964048 0
M  V30 1880 C 178.501 -2.67298 2.37247 0
M  V30 1881 C 178.167 -2.36405 3.83958 0
M  V30 1882 C 176.829 -2.27691 4.23923 0
M  V30 1883 C 179.181 -2.11043 4.76561 0
M  V30 1884 C 176.509 -1.91719 5.54492 0
M  V30 1885 C 178.861 -1.76578 6.07456 0
M  V30 1886 C 177.525 -1.66363 6.46436 0
M  V30 1887 H 176.795 -0.53047 0.517381 0
M  V30 1888 H 179.442 -0.787655 1.74552 0
M  V30 1889 H 177.747 -3.38461 1.9736 0
M  V30 1890 H 179.444 -3.25452 2.34269 0
M  V30 1891 H 176.034 -2.44085 3.52308 0
M  V30 1892 H 180.218 -2.16717 4.46483 0
M  V30 1893 H 175.474 -1.82367 5.83568 0
M  V30 1894 H 179.648 -1.55974 6.78708 0
M  V30 1895 H 177.275 -1.38258 7.47522 0
M  V30 1896 N 178.85 -1.27639 -0.924453 0
M  V30 1897 C 179.76 -1.12466 -2.05885 0
M  V30 1898 C 180.776 -0.053869 -1.73917 0
M  V30 1899 O 181.952 -0.261012 -1.99702 0
M  V30 1900 C 179.017 -0.776768 -3.37886 0
M  V30 1901 C 178.078 -1.92878 -3.83532 0
M  V30 1902 C 177.311 -1.59739 -5.09234 0
M  V30 1903 O 177.534 -0.506782 -5.68144 0
M  V30 1904 O 176.468 -2.43761 -5.50331 0
M  V30 1905 H 180.294 -2.07671 -2.21599 0
M  V30 1906 H 177.879 -1.06857 -1.04413 0
M  V30 1907 H 179.761 -0.596229 -4.17161 0
M  V30 1908 H 178.436 0.145732 -3.23372 0
M  V30 1909 H 177.343 -2.1644 -3.0513 0
M  V30 1910 H 178.676 -2.8316 -4.02593 0
M  V30 1911 N 180.328 1.1314 -1.09713 0
M  V30 1912 C 181.556 1.88321 -0.856898 0
M  V30 1913 C 181.971 1.79276 0.592073 0
M  V30 1914 O 181.328 1.16142 1.40774 0
M  V30 1915 C 181.379 3.37812 -1.28706 0
M  V30 1916 O 181.1 3.46627 -2.67921 0
M  V30 1917 C 182.601 4.29952 -1.07964 0
M  V30 1918 H 179.821 0.596094 -0.308079 0
M  V30 1919 H 182.365 1.43205 -1.45988 0
M  V30 1920 H 180.52 3.805 -0.727912 0
M  V30 1921 H 180.934 4.39579 -2.8613 0
M  V30 1922 H 182.408 5.33159 -1.42986 0
M  V30 1923 H 182.885 4.39196 -0.0176577 0
M  V30 1924 H 183.491 3.93036 -1.62489 0
M  V30 1925 N 181.806 0.884767 1.30421 0
M  V30 1926 C 183.036 0.517293 2.00019 0
M  V30 1927 C 183.444 -0.898632 1.66497 0
M  V30 1928 O 182.787 -1.60245 0.898181 0
M  V30 1929 C 182.849 0.612025 3.54252 0
M  V30 1930 C 182.513 1.99222 4.1129 0
M  V30 1931 C 183.51 2.9616 4.273 0
M  V30 1932 C 181.195 2.29755 4.46674 0
M  V30 1933 C 183.189 4.21764 4.77906 0
M  V30 1934 C 180.876 3.55606 4.96979 0
M  V30 1935 C 181.874 4.51425 5.12547 0
M  V30 1936 O 181.562 5.75043 5.61766 0
M  V30 1937 H 181.294 0.198529 0.64619 0
M  V30 1938 H 183.848 1.1919 1.67281 0
M  V30 1939 H 182.078 -0.119561 3.86515 0
M  V30 1940 H 183.767 0.255859 4.05093 0
M  V30 1941 H 184.533 2.73882 4.00267 0
M  V30 1942 H 180.412 1.55942 4.33824 0
M  V30 1943 H 183.956 4.96561 4.89972 0
M  V30 1944 H 179.853 3.7772 5.23448 0
M  V30 1945 H 180.621 5.77422 5.80109 0
M  V30 1946 N 183.284 -1.43765 0.645699 0
M  V30 1947 C 184.514 -2.05953 0.163318 0
M  V30 1948 C 184.922 -1.48432 -1.17322 0
M  V30 1949 O 184.265 -0.607295 -1.73371 0
M  V30 1950 C 184.327 -3.59499 -0.0103065 0
M  V30 1951 C 183.991 -4.39563 1.25035 0
M  V30 1952 C 184.988 -4.72108 2.17739 0
M  V30 1953 C 182.673 -4.79697 1.48983 0
M  V30 1954 C 184.667 -5.43688 3.3269 0
M  V30 1955 C 182.354 -5.51023 2.64229 0
M  V30 1956 C 183.352 -5.8294 3.55908 0
M  V30 1957 O 183.04 -6.5281 4.69142 0
M  V30 1958 H 182.772 -0.670798 0.0836986 0
M  V30 1959 H 185.326 -1.85384 0.884407 0
M  V30 1960 H 183.556 -3.78613 -0.78669 0
M  V30 1961 H 185.245 -4.03408 -0.449087 0
M  V30 1962 H 186.011 -4.41627 2.00476 0
M  V30 1963 H 181.89 -4.54266 0.785078 0
M  V30 1964 H 185.434 -5.68517 4.04269 0
M  V30 1965 H 181.331 -5.8092 2.81429 0
M  V30 1966 H 182.099 -6.71288 4.6831 0
M  V30 1967 N 184.763 -0.387143 -1.52771 0
M  V30 1968 C 185.988 0.198407 -2.06449 0
M  V30 1969 C 186.413 1.39918 -1.25716 0
M  V30 1970 O 185.771 1.79099 -0.281657 0
M  V30 1971 C 185.819 0.548893 -3.56398 0
M  V30 1972 O 184.923 1.64315 -3.78252 0
M  V30 1973 H 184.264 0.0237731 -0.663574 0
M  V30 1974 H 186.794 -0.553989 -1.96957 0
M  V30 1975 H 186.804 0.813812 -3.99801 0
M  V30 1976 H 185.479 -0.329005 -4.14597 0
M  V30 1977 H 184.056 1.37211 -3.46738 0
M  V30 1978 N 186.241 1.57166 -0.116904 0
M  V30 1979 C 187.171 2.18222 0.830759 0
M  V30 1980 C 188.152 1.12167 1.27877 0
M  V30 1981 O 189.337 1.40394 1.34176 0
M  V30 1982 C 186.467 2.77996 2.08172 0
M  V30 1983 C 185.421 3.89614 1.77157 0
M  V30 1984 C 184.747 4.36187 3.09265 0
M  V30 1985 C 186.047 5.1181 1.04151 0
M  V30 1986 H 187.741 2.97664 0.321992 0
M  V30 1987 H 185.287 1.4318 0.153434 0
M  V30 1988 H 187.24 3.19366 2.74924 0
M  V30 1989 H 185.964 1.9584 2.6137 0
M  V30 1990 H 184.623 3.48816 1.12796 0
M  V30 1991 H 184.271 3.50893 3.60393 0
M  V30 1992 H 183.971 5.11455 2.89288 0
M  V30 1993 H 185.495 4.80207 3.77139 0
M  V30 1994 H 186.909 5.50214 1.61052 0
M  V30 1995 H 185.306 5.92648 0.942762 0
M  V30 1996 H 186.376 4.84892 0.0279022 0
M  V30 1997 N 187.719 -0.156864 1.56817 0
M  V30 1998 C 188.944 -0.890331 1.87318 0
M  V30 1999 C 189.369 -1.74394 0.704855 0
M  V30 2000 O 188.727 -1.77972 -0.345786 0
M  V30 2001 C 188.775 -1.73102 3.16336 0
M  V30 2002 O 187.879 -2.83422 2.99576 0
M  V30 2003 H 187.22 -0.24857 0.615718 0
M  V30 2004 H 189.75 -0.150649 2.04045 0
M  V30 2005 H 189.76 -2.12803 3.48107 0
M  V30 2006 H 188.435 -1.10412 4.00976 0
M  V30 2007 H 187.012 -2.47199 2.7919 0
M  V30 2008 N 189.197 -1.51736 -0.425897 0
M  V30 2009 C 190.437 -1.66636 -1.18371 0
M  V30 2010 C 190.801 -0.379854 -1.88205 0
M  V30 2011 O 192.002 -0.404758 -2.65735 0
M  V30 2012 C 190.273 -2.84382 -2.16476 0
M  V30 2013 S 191.832 -3.19673 -3.0059 0
M  V30 2014 H 188.65 -0.586957 -0.40125 0
M  V30 2015 H 191.252 -1.89679 -0.473518 0
M  V30 2016 H 189.956 -3.76281 -1.63831 0
M  V30 2017 H 189.487 -2.63562 -2.92059 0
M  V30 2018 H 191.502 -2.66994 -4.18245 0
M  V30 2019 N 190.675 0.682077 -1.42076 0
M  V30 2020 C 191.625 1.78823 -1.41444 0
M  V30 2021 C 192.609 1.58323 -0.28681 0
M  V30 2022 O 193.801 1.68926 -0.528498 0
M  V30 2023 C 190.93 3.17232 -1.3122 0
M  V30 2024 C 190.016 3.4338 -2.489 0
M  V30 2025 N 190.407 3.40152 -3.7434 0
M  V30 2026 C 188.705 3.73986 -2.43003 0
M  V30 2027 C 189.406 3.65581 -4.52466 0
M  V30 2028 N 188.382 3.85989 -3.8277 0
M  V30 2029 H 192.184 1.7471 -2.36334 0
M  V30 2030 H 189.698 0.882622 -1.36321 0
M  V30 2031 H 191.695 3.96489 -1.2885 0
M  V30 2032 H 190.355 3.22547 -0.373263 0
M  V30 2033 H 191.366 3.20221 -4.07037 0
M  V30 2034 H 188.043 3.86591 -1.57651 0
M  V30 2035 H 189.433 3.69108 -5.61435 0
M  V30 2036 N 192.153 1.28127 0.917671 0
M  V30 2037 C 193.101 1.11569 2.04096 0
M  V30 2038 C 194.095 0.0360242 1.69362 0
M  V30 2039 O 195.301 0.194501 1.78946 0
M  V30 2040 H 191.676 0.344097 0.668656 0
M  V30 2041 H 193.647 2.06711 2.15205 0
M  V30 2042 C 192.396 0.790197 3.38602 0
M  V30 2043 H 191.719 1.61293 3.6582 0
M  V30 2044 H 193.159 0.714271 4.1794 0
M  V30 2045 C 191.618 -0.505897 3.3308 0
M  V30 2046 O 192.148 -1.53736 3.71117 0
M  V30 2047 N 190.354 -0.505193 2.86175 0
M  V30 2048 H 189.901 0.334621 2.55417 0
M  V30 2049 H 189.859 -1.37243 2.82863 0
M  V30 2050 N 193.631 -1.12557 1.10312 0
M  V30 2051 C 194.871 -1.8568 0.854543 0
M  V30 2052 C 195.235 -1.82091 -0.608843 0
M  V30 2053 O 196.436 -2.50544 -0.973717 0
M  V30 2054 C 194.707 -3.2942 1.38626 0
M  V30 2055 S 196.266 -4.19931 1.27293 0
M  V30 2056 H 193.084 -0.640427 0.308827 0
M  V30 2057 H 195.686 -1.35599 1.40831 0
M  V30 2058 H 194.39 -3.2959 2.44537 0
M  V30 2059 H 193.921 -3.84566 0.82902 0
M  V30 2060 H 195.936 -4.95668 0.229776 0
M  V30 2061 N 195.109 -0.891671 -1.2995 0
M  V30 2062 C 196.52 -0.563104 -1.78006 0
M  V30 2063 C 196.871 0.920978 -1.73241 0
M  V30 2064 O 195.996 1.71987 -1.31337 0
M  V30 2065 C 196.591 -1.01539 -3.23226 0
M  V30 2066 C 195.15 -0.738124 -3.69092 0
M  V30 2067 C 194.297 -1.19461 -2.50249 0
M  V30 2068 H 197.248 -1.07522 -1.16725 0
M  V30 2069 H 197.269 -0.347217 -3.78912 0
M  V30 2070 H 196.781 -2.09555 -3.26662 0
M  V30 2071 H 194.882 0.329766 -3.71138 0
M  V30 2072 H 194.995 -1.33037 -4.60259 0
M  V30 2073 H 193.359 -0.613787 -2.47194 0
M  V30 2074 H 194.142 -2.28265 -2.56417 0
M  V30 2075 N 196.587 1.43421 -0.653314 0
M  V30 2076 C 197.864 1.95361 -0.0966581 0
M  V30 2077 C 198.244 1.59461 1.38331 0
M  V30 2078 O 197.592 0.879777 2.10884 0
M  V30 2079 C 197.802 3.47311 -0.342988 0
M  V30 2080 C 199.15 4.23875 -0.24798 0
M  V30 2081 O 200.174 3.55133 -0.275553 0
M  V30 2082 O 199.033 5.4623 -0.171771 0
M  V30 2083 H 196.127 0.826945 0.00956291 0
M  V30 2084 H 198.673 1.5336 -0.726558 0
M  V30 2085 H 197.445 3.66569 -1.36906 0
M  V30 2086 H 197.068 3.9631 0.319975 0
M  V30 2087 N 198.065 0.39524 1.52563 0
M  V30 2088 C 199.311 -0.185318 2.01952 0
M  V30 2089 C 199.644 -1.45964 1.28095 0
M  V30 2090 O 198.919 -1.90689 0.38315 0
M  V30 2091 C 199.202 -0.447193 3.57312 0
M  V30 2092 C 199.055 0.842828 4.41833 0
M  V30 2093 C 200.374 -1.23529 4.22408 0
M  V30 2094 H 197.493 -0.0658788 0.73405 0
M  V30 2095 H 200.135 0.525975 1.82575 0
M  V30 2096 H 198.285 -1.05312 3.73954 0
M  V30 2097 H 199.957 1.4795 4.36931 0
M  V30 2098 H 198.2 1.45686 4.08605 0
M  V30 2099 H 198.871 0.614165 5.48573 0
M  V30 2100 H 201.347 -0.722445 4.0978 0
M  V30 2101 H 200.223 -1.38727 5.3108 0
M  V30 2102 H 200.484 -2.25213 3.80436 0
M  V30 2103 N 199.544 -1.57102 0.125237 0
M  V30 2104 C 200.79 -1.95697 -0.532035 0
M  V30 2105 C 201.123 -1.009 -1.6593 0
M  V30 2106 O 200.398 -0.047347 -1.94442 0
M  V30 2107 C 200.681 -3.44181 -1.05884 0
M  V30 2108 C 200.534 -4.49752 0.0654392 0
M  V30 2109 C 201.853 -3.94655 -1.9477 0
M  V30 2110 H 198.972 -0.711571 -0.191925 0
M  V30 2111 H 201.614 -1.88923 0.20206 0
M  V30 2112 H 199.764 -3.50085 -1.68442 0
M  V30 2113 H 201.436 -4.55943 0.700982 0
M  V30 2114 H 199.679 -4.27653 0.727709 0
M  V30 2115 H 200.35 -5.50924 -0.344505 0
M  V30 2116 H 202.826 -3.91094 -1.42074 0
M  V30 2117 H 201.702 -4.99057 -2.28546 0
M  V30 2118 H 201.963 -3.35718 -2.87656 0
M  V30 2119 N 201.022 0.148545 -1.56898 0
M  V30 2120 C 201.954 1.20852 -1.9475 0
M  V30 2121 C 202.967 1.39265 -0.843152 0
M  V30 2122 O 204.156 1.38864 -1.12156 0
M  V30 2123 C 201.256 2.57362 -2.20495 0
M  V30 2124 C 200.429 2.59947 -3.51776 0
M  V30 2125 C 199.488 3.77984 -3.6608 0
M  V30 2126 O 198.514 3.62929 -4.38487 0
M  V30 2127 N 199.716 4.95375 -3.02629 0
M  V30 2128 H 202.481 0.886804 -2.86279 0
M  V30 2129 H 200.042 0.338121 -1.5833 0
M  V30 2130 H 202.034 3.34833 -2.27307 0
M  V30 2131 H 200.604 2.81832 -1.35238 0
M  V30 2132 H 199.824 1.68403 -3.56419 0
M  V30 2133 H 201.112 2.58704 -4.38121 0
M  V30 2134 H 200.51 5.10509 -2.43715 0
M  V30 2135 H 199.067 5.70627 -3.15004 0
M  V30 2136 N 202.5 1.5196 0.417844 0
M  V30 2137 C 203.463 1.74065 1.49111 0
M  V30 2138 C 204.463 0.610537 1.48758 0
M  V30 2139 O 205.653 0.87832 1.50437 0
M  V30 2140 C 202.785 1.81502 2.88565 0
M  V30 2141 H 203.978 2.69869 1.30807 0
M  V30 2142 H 201.531 1.42244 0.647785 0
M  V30 2143 H 202.266 0.875813 3.1225 0
M  V30 2144 H 202.051 2.63651 2.90225 0
M  V30 2145 H 203.541 2.00376 3.66387 0
M  V30 2146 N 203.978 -0.674533 1.42435 0
M  V30 2147 C 204.908 -1.80009 1.48724 0
M  V30 2148 C 205.889 -1.6659 0.343793 0
M  V30 2149 O 207.074 -1.86007 0.558137 0
M  V30 2150 C 204.204 -3.18306 1.38919 0
M  V30 2151 C 203.158 -3.46461 2.51294 0
M  V30 2152 C 202.484 -4.84335 2.26547 0
M  V30 2153 C 203.784 -3.43328 3.93603 0
M  V30 2154 H 205.478 -1.75004 2.42928 0
M  V30 2155 H 203.024 -0.840533 1.16923 0
M  V30 2156 H 204.977 -3.9678 1.41927 0
M  V30 2157 H 203.701 -3.2399 0.412094 0
M  V30 2158 H 202.36 -2.70348 2.47604 0
M  V30 2159 H 202.008 -4.86669 1.2713 0
M  V30 2160 H 201.708 -5.04136 3.01861 0
M  V30 2161 H 203.232 -5.65094 2.31304 0
M  V30 2162 H 204.646 -4.11772 3.98894 0
M  V30 2163 H 203.043 -3.74664 4.68771 0
M  V30 2164 H 204.113 -2.41897 4.20255 0
M  V30 2165 N 205.456 -1.28612 -0.910864 0
M  V30 2166 C 206.404 -1.1265 -2.03501 0
M  V30 2167 C 207.398 -0.0450054 -1.6934 0
M  V30 2168 O 208.604 -0.203988 -1.7884 0
M  V30 2169 H 204.979 -0.347639 -0.666822 0
M  V30 2170 H 206.95 -2.07849 -2.14106 0
M  V30 2171 C 205.699 -0.808143 -3.38178 0
M  V30 2172 H 205.022 -1.63231 -3.6496 0
M  V30 2173 H 206.462 -0.736426 -4.17556 0
M  V30 2174 C 204.921 0.488226 -3.33344 0
M  V30 2175 O 205.451 1.51766 -3.71927 0
M  V30 2176 N 203.657 0.490009 -2.86439 0
M  V30 2177 H 203.204 -0.348161 -2.55236 0
M  V30 2178 H 203.162 1.35741 -2.83587 0
M  V30 2179 N 206.934 1.1197 -1.10907 0
M  V30 2180 C 207.864 2.19928 -0.784473 0
M  V30 2181 C 208.845 1.6833 0.244726 0
M  V30 2182 O 210.03 1.93892 0.109418 0
M  V30 2183 C 207.16 3.46597 -0.220827 0
M  V30 2184 C 206.114 4.11376 -1.18127 0
M  V30 2185 C 205.44 5.32554 -0.478594 0
M  V30 2186 C 206.74 4.56945 -2.52979 0
M  V30 2187 H 208.434 2.47337 -1.68715 0
M  V30 2188 H 205.98 1.18879 -0.812642 0
M  V30 2189 H 207.933 4.21396 0.0184278 0
M  V30 2190 H 206.657 3.1863 0.717113 0
M  V30 2191 H 205.316 3.38564 -1.40606 0
M  V30 2192 H 204.964 5.00856 0.463976 0
M  V30 2193 H 204.664 5.76844 -1.11912 0
M  V30 2194 H 206.188 6.10096 -0.248 0
M  V30 2195 H 207.602 5.23093 -2.3462 0
M  V30 2196 H 205.999 5.1203 -3.12962 0
M  V30 2197 H 207.069 3.70676 -3.12614 0
M  V30 2198 N 208.412 0.89855 1.29475 0
M  V30 2199 C 209.345 0.319981 2.25945 0
M  V30 2200 C 210.323 -0.567189 1.52387 0
M  V30 2201 O 211.507 -0.514254 1.8135 0
M  V30 2202 C 208.634 -0.544013 3.34303 0
M  V30 2203 C 207.68 0.275682 4.25608 0
M  V30 2204 S 208.513 1.67272 5.08704 0
M  V30 2205 C 209.669 0.815621 6.20563 0
M  V30 2206 H 209.902 1.13767 2.74671 0
M  V30 2207 H 207.435 0.69882 1.3768 0
M  V30 2208 H 209.393 -1.03673 3.97193 0
M  V30 2209 H 208.054 -1.33593 2.84274 0
M  V30 2210 H 207.247 -0.384263 5.02533 0
M  V30 2211 H 206.849 0.701496 3.67362 0
M  V30 2212 H 209.141 0.0385042 6.77489 0
M  V30 2213 H 210.084 1.55691 6.90772 0
M  V30 2214 H 210.492 0.370516 5.63283 0
M  V30 2215 N 209.89 -1.43072 0.660911 0
M  V30 2216 C 211.115 -2.06584 0.183805 0
M  V30 2217 C 211.54 -1.49257 -1.14472 0
M  V30 2218 O 210.898 -0.605528 -1.70889 0
M  V30 2219 C 210.946 -3.60418 0.114434 0
M  V30 2220 O 210.05 -4.01981 -0.921137 0
M  V30 2221 H 209.391 -0.656669 0.0983994 0
M  V30 2222 H 211.921 -1.83447 0.906006 0
M  V30 2223 H 211.931 -4.07946 -0.0663394 0
M  V30 2224 H 210.606 -4.01519 1.08422 0
M  V30 2225 H 209.183 -3.66029 -0.71253 0
M  V30 2226 N 211.368 -0.403325 -1.52352 0
M  V30 2227 C 212.614 0.174605 -2.02047 0
M  V30 2228 C 212.947 1.45282 -1.28867 0
M  V30 2229 O 212.222 1.90483 -0.393257 0
M  V30 2230 C 212.505 0.428238 -3.57545 0
M  V30 2231 C 212.358 -0.866248 -4.4138 0
M  V30 2232 C 213.677 1.21287 -4.23057 0
M  V30 2233 H 210.796 0.0619851 -0.734389 0
M  V30 2234 H 213.438 -0.53565 -1.82293 0
M  V30 2235 H 211.588 1.03327 -3.74507 0
M  V30 2236 H 213.26 -1.50265 -4.3614 0
M  V30 2237 H 211.503 -1.47851 -4.07827 0
M  V30 2238 H 212.174 -0.643249 -5.48239 0
M  V30 2239 H 214.65 0.700703 -4.10158 0
M  V30 2240 H 213.526 1.35909 -5.31808 0
M  V30 2241 H 213.787 2.23193 -3.81625 0
M  V30 2242 N 212.846 1.57033 -0.133567 0
M  V30 2243 C 213.776 2.1909 0.807567 0
M  V30 2244 C 214.757 1.13517 1.26681 0
M  V30 2245 O 215.942 1.41809 1.32679 0
M  V30 2246 C 213.072 2.80188 2.05212 0
M  V30 2247 C 212.026 3.91471 1.73015 0
M  V30 2248 C 211.352 4.39443 3.04622 0
M  V30 2249 C 212.652 5.12886 0.987168 0
M  V30 2250 H 214.346 2.97988 0.290403 0
M  V30 2251 H 211.892 1.43335 0.138239 0
M  V30 2252 H 213.845 3.22264 2.71521 0
M  V30 2253 H 212.569 1.98601 2.59278 0
M  V30 2254 H 211.228 3.49993 1.0909 0
M  V30 2255 H 210.876 3.54695 3.56651 0
M  V30 2256 H 210.576 5.14495 2.83847 0
M  V30 2257 H 212.1 4.8418 3.72024 0
M  V30 2258 H 213.514 5.51891 1.55208 0
M  V30 2259 H 211.911 5.93615 0.87985 0
M  V30 2260 H 212.981 4.84894 -0.0235286 0
M  V30 2261 N 214.325 -0.140222 1.56975 0
M  V30 2262 C 215.273 -1.19207 1.99731 0
M  V30 2263 C 216.267 -1.44089 0.890777 0
M  V30 2264 O 217.473 -1.44301 1.07597 0
M  V30 2265 H 213.848 -0.40142 0.635898 0
M  V30 2266 H 215.819 -0.804813 2.87342 0
M  V30 2267 C 214.568 -2.51617 2.39967 0
M  V30 2268 H 213.891 -2.33303 3.24669 0
M  V30 2269 H 215.331 -3.23827 2.73701 0
M  V30 2270 C 213.79 -3.12654 1.25496 0
M  V30 2271 O 214.32 -3.97786 0.559371 0
M  V30 2272 N 212.526 -2.72206 1.01746 0
M  V30 2273 H 212.073 -2.03074 1.58489 0
M  V30 2274 H 212.031 -3.13377 0.253461 0
M  V30 2275 N 215.803 -1.52179 -0.40978 0
M  V30 2276 C 217.214 -1.58377 -0.988615 0
M  V30 2277 C 217.565 -0.423879 -1.91566 0
M  V30 2278 O 216.69 0.455844 -2.11544 0
M  V30 2279 C 217.285 -2.87044 -1.79976 0
M  V30 2280 C 215.844 -2.95722 -2.32863 0
M  V30 2281 C 214.991 -2.53309 -1.12828 0
M  V30 2282 H 217.942 -1.57558 -0.190039 0
M  V30 2283 H 217.963 -2.7236 -2.65707 0
M  V30 2284 H 217.475 -3.71444 -1.12478 0
M  V30 2285 H 215.576 -2.15814 -3.03735 0
M  V30 2286 H 215.689 -3.99951 -2.63773 0
M  V30 2287 H 214.053 -2.07142 -1.48204 0
M  V30 2288 H 214.836 -3.40082 -0.46897 0
M  V30 2289 N 217.281 0.66697 -1.42791 0
M  V30 2290 C 218.697 0.981027 -1.25889 0
M  V30 2291 C 218.897 2.00793 -0.168695 0
M  V30 2292 O 217.953 2.48321 0.45747 0
M  V30 2293 C 219.266 1.47838 -2.61848 0
M  V30 2294 C 220.814 1.59575 -2.69267 0
M  V30 2295 C 221.289 2.12704 -4.05612 0
M  V30 2296 N 222.78 2.20026 -4.07606 0
M  V30 2297 C 223.515 2.62227 -5.09926 0
M  V30 2298 N 223.011 3.03824 -6.22626 0
M  V30 2299 N 224.804 2.62045 -4.97281 0
M  V30 2300 H 216.955 -0.0127891 -2.12396 0
M  V30 2301 H 219.218 0.0568258 -0.946295 0
M  V30 2302 H 218.924 0.798299 -3.4252 0
M  V30 2303 H 218.798 2.45579 -2.86305 0
M  V30 2304 H 221.185 2.26687 -1.88936 0
M  V30 2305 H 221.266 0.60302 -2.48591 0
M  V30 2306 H 220.91 1.46198 -4.86404 0
M  V30 2307 H 220.84 3.12782 -4.23645 0
M  V30 2308 H 223.331 1.90708 -3.2625 0
M  V30 2309 H 223.644 3.34734 -6.96544 0
M  V30 2310 H 221.989 3.01662 -6.26119 0
M  V30 2311 H 225.18 2.28916 -4.08308 0
M  V30 2312 H 225.353 2.94613 -5.77154 0
M  V30 2313 N 218.759 1.29093 0.90403 0
M  V30 2314 C 220.008 1.16187 1.64874 0
M  V30 2315 C 220.321 -0.286742 1.93487 0
M  V30 2316 O 221.527 -0.537062 2.66135 0
M  V30 2317 C 219.983 2.03177 2.97064 0
M  V30 2318 C 219.591 3.52836 2.76062 0
M  V30 2319 C 221.335 1.98984 3.74974 0
M  V30 2320 C 219.242 4.31945 4.03952 0
M  V30 2321 H 218.172 0.431246 0.618501 0
M  V30 2322 H 220.823 1.53699 1.00243 0
M  V30 2323 H 219.205 1.5853 3.62883 0
M  V30 2324 H 220.379 4.05507 2.18863 0
M  V30 2325 H 218.694 3.58656 2.11553 0
M  V30 2326 H 221.291 2.55351 4.69787 0
M  V30 2327 H 221.634 0.968815 4.0487 0
M  V30 2328 H 222.167 2.41652 3.15989 0
M  V30 2329 H 218.906 5.34667 3.79225 0
M  V30 2330 H 218.426 3.84045 4.60727 0
M  V30 2331 H 220.105 4.42379 4.72133 0
M  V30 2332 N 220.237 -1.11381 1.11499 0
M  V30 2333 C 221.184 -2.17439 0.773887 0
M  V30 2334 C 222.154 -1.64132 -0.254899 0
M  V30 2335 O 223.339 -1.90345 -0.13168 0
M  V30 2336 C 220.479 -3.44373 0.223917 0
M  V30 2337 C 219.592 -4.1168 1.30934 0
M  V30 2338 C 218.727 -5.263 0.71984 0
M  V30 2339 C 217.766 -5.85493 1.78507 0
M  V30 2340 N 216.903 -6.91507 1.21502 0
M  V30 2341 H 221.743 -2.45962 1.68246 0
M  V30 2342 H 219.28 -1.20744 0.840191 0
M  V30 2343 H 221.238 -4.17047 -0.112921 0
M  V30 2344 H 219.868 -3.16232 -0.647851 0
M  V30 2345 H 218.92 -3.37073 1.76312 0
M  V30 2346 H 220.232 -4.51729 2.11524 0
M  V30 2347 H 219.386 -6.05785 0.333094 0
M  V30 2348 H 218.125 -4.87559 -0.117377 0
M  V30 2349 H 217.13 -5.04686 2.18111 0
M  V30 2350 H 218.355 -6.26301 2.62533 0
M  V30 2351 H 216.301 -6.54783 0.399455 0
M  V30 2352 H 216.218 -7.30214 1.95763 0
M  V30 2353 H 217.486 -7.74795 0.855181 0
M  V30 2354 N 221.715 -0.905404 -1.28997 0
M  V30 2355 C 222.665 -0.358713 -2.25161 0
M  V30 2356 C 223.649 0.524449 -1.52113 0
M  V30 2357 O 224.841 0.365534 -1.73184 0
M  V30 2358 C 221.97 0.407609 -3.40872 0
M  V30 2359 C 221.056 -0.490797 -4.21251 0
M  V30 2360 N 221.447 -1.60061 -4.79806 0
M  V30 2361 C 219.745 -0.289636 -4.45059 0
M  V30 2362 C 220.446 -2.15757 -5.40207 0
M  V30 2363 N 219.422 -1.44988 -5.23908 0
M  V30 2364 H 223.224 -1.20642 -2.67998 0
M  V30 2365 H 220.738 -0.757103 -1.43672 0
M  V30 2366 H 222.735 0.816046 -4.08835 0
M  V30 2367 H 221.395 1.25251 -2.9957 0
M  V30 2368 H 222.406 -1.98329 -4.7842 0
M  V30 2369 H 219.083 0.51643 -4.14294 0
M  V30 2370 H 220.473 -3.09069 -5.96595 0
M  V30 2371 N 223.193 1.4272 -0.668489 0
M  V30 2372 C 224.421 2.05966 -0.196348 0
M  V30 2373 C 224.836 1.50191 1.14403 0
M  V30 2374 O 224.193 0.639208 1.7094 0
M  V30 2375 C 224.244 3.61314 -0.115815 0
M  V30 2376 O 223.965 4.1502 -1.40322 0
M  V30 2377 C 225.466 4.41663 0.380579 0
M  V30 2378 H 222.686 0.663954 -0.0969829 0
M  V30 2379 H 225.23 1.82966 -0.913446 0
M  V30 2380 H 223.385 3.83448 0.551931 0
M  V30 2381 H 223.799 5.08832 -1.27243 0
M  V30 2382 H 225.273 5.5065 0.385848 0
M  V30 2383 H 225.75 4.15792 1.41471 0
M  V30 2384 H 226.356 4.24534 -0.255209 0
M  V30 2385 N 224.671 0.411399 1.52136 0
M  V30 2386 C 225.634 -0.401089 2.25663 0
M  V30 2387 C 226.634 -0.971732 1.28117 0
M  V30 2388 O 227.824 -0.850254 1.52041 0
M  V30 2389 C 224.956 -1.56483 3.02863 0
M  V30 2390 H 226.149 0.24295 2.98914 0
M  V30 2391 H 223.702 0.163968 1.55438 0
M  V30 2392 H 224.437 -2.24567 2.33967 0
M  V30 2393 H 224.222 -1.16211 3.74483 0
M  V30 2394 H 225.712 -2.13951 3.58629 0
M  V30 2395 N 226.149 -1.5696 0.141893 0
M  V30 2396 C 227.398 -1.95135 -0.510427 0
M  V30 2397 C 227.711 -1.02896 -1.66348 0
M  V30 2398 O 228.917 -1.30629 -2.38009 0
M  V30 2399 C 227.373 -3.46876 -0.959427 0
M  V30 2400 C 226.981 -4.47691 0.166419 0
M  V30 2401 C 228.725 -3.93927 -1.58183 0
M  V30 2402 C 226.632 -5.90636 -0.300565 0
M  V30 2403 H 225.562 -0.728494 -0.194454 0
M  V30 2404 H 228.213 -1.8211 0.22542 0
M  V30 2405 H 226.595 -3.55215 -1.75038 0
M  V30 2406 H 227.769 -4.51043 0.94325 0
M  V30 2407 H 226.084 -4.10527 0.696905 0
M  V30 2408 H 228.681 -4.98158 -1.94275 0
M  V30 2409 H 229.024 -3.3519 -2.46888 0
M  V30 2410 H 229.557 -3.88484 -0.855863 0
M  V30 2411 H 226.296 -6.5318 0.550989 0
M  V30 2412 H 225.816 -5.90655 -1.04338 0
M  V30 2413 H 227.495 -6.42588 -0.754265 0
M  V30 2414 N 227.627 0.131896 -1.57047 0
M  V30 2415 C 228.904 0.871495 -1.75112 0
M  V30 2416 C 229.284 1.9866 -0.713949 0
M  V30 2417 O 228.632 2.26965 0.264447 0
M  V30 2418 C 228.842 1.40007 -3.19686 0
M  V30 2419 C 230.19 1.85752 -3.81813 0
M  V30 2420 O 231.214 1.49715 -3.23209 0
M  V30 2421 O 230.073 2.5226 -4.84796 0
M  V30 2422 H 227.167 0.412919 -0.716538 0
M  V30 2423 H 229.713 0.116641 -1.69299 0
M  V30 2424 H 228.485 0.599404 -3.86682 0
M  V30 2425 H 228.108 2.218 -3.29986 0
M  V30 2426 N 229.106 1.52395 0.401703 0
M  V30 2427 C 230.354 1.66488 1.14569 0
M  V30 2428 C 230.675 0.400897 1.90835 0
M  V30 2429 O 229.945 -0.584415 1.8698 0
M  V30 2430 H 228.525 0.613672 0.425929 0
M  V30 2431 H 231.187 1.89464 0.457093 0
M  V30 2432 H 230.283 2.50942 1.85566 0
M  V30 2433 N 230.584 -0.659388 1.43143 0
M  V30 2434 C 231.832 -1.41654 1.44147 0
M  V30 2435 C 232.153 -1.94893 0.0645739 0
M  V30 2436 O 231.423 -1.74044 -0.899198 0
M  V30 2437 H 230.003 -0.525708 0.530697 0
M  V30 2438 H 232.665 -0.778097 1.78694 0
M  V30 2439 H 231.761 -2.26195 2.1504 0
M  V30 2440 N 232.062 -1.29571 -0.897171 0
M  V30 2441 C 233.29 -1.20583 -1.68129 0
M  V30 2442 C 233.705 0.233181 -1.87354 0
M  V30 2443 O 233.062 1.15579 -1.41236 0
M  V30 2444 C 233.113 -1.91772 -3.06441 0
M  V30 2445 O 232.834 -3.30053 -2.88091 0
M  V30 2446 C 234.335 -1.89291 -4.00854 0
M  V30 2447 H 231.555 -0.417826 -0.525036 0
M  V30 2448 H 234.099 -1.70987 -1.12177 0
M  V30 2449 H 232.254 -1.45196 -3.59161 0
M  V30 2450 H 232.668 -3.65942 -3.75748 0
M  V30 2451 H 234.142 -2.43662 -4.95311 0
M  V30 2452 H 234.619 -0.869014 -4.30517 0
M  V30 2453 H 235.225 -2.35622 -3.54066 0
M  V30 2454 N 233.54 1.10788 -1.12088 0
M  V30 2455 C 234.787 1.82671 -0.873931 0
M  V30 2456 C 235.115 1.85004 0.600311 0
M  V30 2457 O 234.37 1.30365 1.45957 0
M  V30 2458 C 234.669 3.29294 -1.38926 0
M  V30 2459 C 234.335 3.47113 -2.87791 0
M  V30 2460 C 232.997 3.51684 -3.28439 0
M  V30 2461 C 235.349 3.52808 -3.83635 0
M  V30 2462 C 232.677 3.59513 -4.63646 0
M  V30 2463 C 235.029 3.62169 -5.18668 0
M  V30 2464 C 233.693 3.65003 -5.58864 0
M  V30 2465 H 232.963 0.668441 -0.319794 0
M  V30 2466 H 235.61 1.30613 -1.40045 0
M  V30 2467 H 233.915 3.83894 -0.783122 0
M  V30 2468 H 235.612 3.83416 -1.17443 0
M  V30 2469 H 232.202 3.4423 -2.5535 0
M  V30 2470 H 236.386 3.4853 -3.53328 0
M  V30 2471 H 231.642 3.59987 -4.94185 0
M  V30 2472 H 235.816 3.6552 -5.92763 0
M  V30 2473 H 233.443 3.70822 -6.63623 0
M  V30 2474 N 235.018 0.912232 1.28515 0
M  V30 2475 C 235.95 0.35676 2.26406 0
M  V30 2476 C 236.963 -0.503933 1.54804 0
M  V30 2477 O 238.152 -0.319059 1.75625 0
M  V30 2478 C 235.252 -0.508825 3.35058 0
M  V30 2479 C 234.425 0.329007 4.36161 0
M  V30 2480 C 233.484 -0.471422 5.24084 0
M  V30 2481 O 232.51 0.115482 5.69083 0
M  V30 2482 N 233.712 -1.77479 5.52704 0
M  V30 2483 H 236.477 1.19818 2.74707 0
M  V30 2484 H 234.038 0.778022 1.4198 0
M  V30 2485 H 236.03 -1.051 3.90815 0
M  V30 2486 H 234.6 -1.25095 2.86478 0
M  V30 2487 H 233.82 1.05256 3.79888 0
M  V30 2488 H 235.108 0.90234 5.00735 0
M  V30 2489 H 234.506 -2.27417 5.17975 0
M  V30 2490 H 233.063 -2.26382 6.11224 0
M  V30 2491 N 236.496 -1.42363 0.676048 0
M  V30 2492 C 237.444 -2.32596 -0.0131507 0
M  V30 2493 C 238.438 -1.49891 -0.789238 0
M  V30 2494 O 239.644 -1.65955 -0.697061 0
M  V30 2495 H 236.019 -0.751647 -0.0230481 0
M  V30 2496 H 237.99 -2.88421 0.765243 0
M  V30 2497 C 236.739 -3.34479 -0.949702 0
M  V30 2498 H 236.062 -3.98158 -0.361938 0
M  V30 2499 H 237.502 -4.00199 -1.4006 0
M  V30 2500 C 235.961 -2.66838 -2.05667 0
M  V30 2501 O 236.491 -2.50124 -3.14326 0
M  V30 2502 N 234.697 -2.25843 -1.82875 0
M  V30 2503 H 234.244 -2.39637 -0.945085 0
M  V30 2504 H 234.202 -1.80918 -2.5713 0
M  V30 2505 N 237.974 -0.419461 -1.51915 0
M  V30 2506 C 238.884 0.407528 -2.31033 0
M  V30 2507 C 239.9 1.04413 -1.3919 0
M  V30 2508 O 241.076 1.0434 -1.72265 0
M  V30 2509 C 238.141 1.50365 -3.12396 0
M  V30 2510 C 237.202 0.889029 -4.19994 0
M  V30 2511 C 236.435 1.93291 -4.97468 0
M  V30 2512 O 236.658 3.15259 -4.75361 0
M  V30 2513 O 235.592 1.53339 -5.8204 0
M  V30 2514 H 239.418 -0.237865 -3.02767 0
M  V30 2515 H 237.003 -0.182413 -1.48282 0
M  V30 2516 H 238.885 2.13975 -3.63032 0
M  V30 2517 H 237.56 2.13345 -2.43445 0
M  V30 2518 H 236.467 0.215353 -3.7348 0
M  V30 2519 H 237.8 0.302991 -4.91267 0
M  V30 2520 N 239.452 1.56882 -0.150215 0
M  V30 2521 C 240.701 1.95403 0.500071 0
M  V30 2522 C 241.014 1.03777 1.658 0
M  V30 2523 O 242.22 1.31889 2.37313 0
M  V30 2524 C 240.676 3.4738 0.941018 0
M  V30 2525 C 240.284 4.47596 -0.190158 0
M  V30 2526 C 242.028 3.9476 1.56091 0
M  V30 2527 C 239.935 5.90787 0.269237 0
M  V30 2528 H 238.865 0.729515 0.190588 0
M  V30 2529 H 241.516 1.81988 -0.235074 0
M  V30 2530 H 239.898 3.56138 1.73152 0
M  V30 2531 H 241.072 4.50536 -0.967157 0
M  V30 2532 H 239.387 4.10151 -0.718666 0
M  V30 2533 H 241.984 4.99181 1.9163 0
M  V30 2534 H 242.327 3.36494 2.45107 0
M  V30 2535 H 242.86 3.88932 0.835249 0
M  V30 2536 H 239.599 6.52879 -0.585621 0
M  V30 2537 H 239.119 5.912 1.01204 0
M  V30 2538 H 240.798 6.42979 0.720176 0
M  V30 2539 N 240.93 -0.123565 1.57115 0
M  V30 2540 C 242.158 -0.846461 1.88793 0
M  V30 2541 C 242.573 -1.73652 0.740976 0
M  V30 2542 O 241.93 -1.80207 -0.288393 0
M  V30 2543 C 241.981 -1.6837 3.19897 0
M  V30 2544 O 241.702 -0.829477 4.30176 0
M  V30 2545 C 243.203 -2.51214 3.65248 0
M  V30 2546 H 240.423 -0.243573 0.625231 0
M  V30 2547 H 242.967 -0.109324 2.04208 0
M  V30 2548 H 241.122 -2.37364 3.06165 0
M  V30 2549 H 241.536 -1.40651 5.0529 0
M  V30 2550 H 243.01 -3.05497 4.59756 0
M  V30 2551 H 243.487 -3.28359 2.9168 0
M  V30 2552 H 244.093 -1.8747 3.81752 0
M  V30 2553 N 242.408 -1.52605 -0.393616 0
M  V30 2554 C 243.685 -1.58001 -1.15304 0
M  V30 2555 C 244.065 -0.370385 -2.07825 0
M  V30 2556 O 243.413 0.641638 -2.19306 0
M  V30 2557 C 243.623 -2.91652 -1.91677 0
M  V30 2558 C 244.971 -3.4522 -2.47201 0
M  V30 2559 O 245.995 -2.93495 -2.01839 0
M  V30 2560 O 244.854 -4.35579 -3.3005 0
M  V30 2561 H 241.948 -0.637068 -0.527327 0
M  V30 2562 H 244.494 -1.64939 -0.399141 0
M  V30 2563 H 243.266 -3.71136 -1.23992 0
M  V30 2564 H 242.889 -2.88077 -2.74039 0
M  V30 2565 N 243.887 0.651787 -1.4349 0
M  V30 2566 C 245.303 0.96762 -1.26922 0
M  V30 2567 C 245.503 2.00602 -0.189982 0
M  V30 2568 O 244.559 2.48793 0.431107 0
M  V30 2569 C 245.872 1.45052 -2.63401 0
M  V30 2570 C 247.42 1.5671 -2.70945 0
M  V30 2571 C 247.895 2.0839 -4.07845 0
M  V30 2572 N 249.386 2.1569 -4.09917 0
M  V30 2573 C 250.121 2.56804 -5.12679 0
M  V30 2574 N 249.617 2.97203 -6.25813 0
M  V30 2575 N 251.41 2.56756 -5.00033 0
M  V30 2576 H 243.561 -0.0353158 -2.12371 0
M  V30 2577 H 245.824 0.0467858 -0.946845 0
M  V30 2578 H 245.53 0.761926 -3.43348 0
M  V30 2579 H 245.404 2.42529 -2.88894 0
M  V30 2580 H 247.791 2.2467 -1.9133 0
M  V30 2581 H 247.872 0.57662 -2.49216 0
M  V30 2582 H 247.516 1.41031 -4.87927 0
M  V30 2583 H 247.446 3.08271 -4.26938 0
M  V30 2584 H 249.937 1.87237 -3.28254 0
M  V30 2585 H 250.25 3.27328 -7.00055 0
M  V30 2586 H 248.595 2.95004 -6.29283 0
M  V30 2587 H 251.786 2.24572 -4.10713 0
M  V30 2588 H 251.959 2.88475 -5.80247 0
M  V30 2589 N 245.365 1.30045 0.890287 0
M  V30 2590 C 246.313 1.15873 2.01683 0
M  V30 2591 C 247.307 0.0719403 1.69247 0
M  V30 2592 O 248.513 0.232414 1.78493 0
M  V30 2593 H 244.888 0.358203 0.661207 0
M  V30 2594 H 246.859 2.11229 2.10772 0
M  V30 2595 C 245.608 0.861842 3.36849 0
M  V30 2596 H 244.931 1.69016 3.62317 0
M  V30 2597 H 246.371 0.802762 4.16331 0
M  V30 2598 C 244.83 -0.435132 3.34078 0
M  V30 2599 O 245.36 -1.4583 3.74295 0
M  V30 2600 N 243.566 -0.444377 2.87182 0
M  V30 2601 H 243.113 0.388723 2.5465 0
M  V30 2602 H 243.071 -1.31213 2.85711 0
M  V30 2603 N 246.843 -1.10192 1.12674 0
M  V30 2604 C 248.089 -1.82475 0.884915 0
M  V30 2605 C 248.422 -1.85093 -0.58773 0
M  V30 2606 O 247.697 -1.3134 -1.43457 0
M  V30 2607 C 247.98 -3.29018 1.46353 0
M  V30 2608 C 247.833 -3.34718 3.00473 0
M  V30 2609 C 249.152 -4.25473 1.12519 0
M  V30 2610 H 246.271 -0.662492 0.322915 0
M  V30 2611 H 248.913 -1.2913 1.39375 0
M  V30 2612 H 247.063 -3.74576 1.03077 0
M  V30 2613 H 248.735 -2.97622 3.52447 0
M  V30 2614 H 246.978 -2.74541 3.35872 0
M  V30 2615 H 247.649 -4.37918 3.36053 0
M  V30 2616 H 250.125 -3.88161 1.499 0
M  V30 2617 H 249.001 -5.26365 1.55663 0
M  V30 2618 H 249.262 -4.42084 0.0377407 0
M  V30 2619 N 248.321 -0.919034 -1.28029 0
M  V30 2620 C 249.254 -0.355887 -2.25408 0
M  V30 2621 C 250.232 0.542874 -1.5327 0
M  V30 2622 O 251.416 0.485338 -1.82145 0
M  V30 2623 C 248.543 0.490759 -3.35126 0
M  V30 2624 C 247.589 -0.343358 -4.25116 0
M  V30 2625 S 248.422 -1.75344 -5.05979 0
M  V30 2626 C 249.578 -0.914244 -6.19187 0
M  V30 2627 H 249.811 -1.18123 -2.72826 0
M  V30 2628 H 247.344 -0.720636 -1.36551 0
M  V30 2629 H 249.302 0.973404 -3.98792 0
M  V30 2630 H 247.963 1.29054 -2.86363 0
M  V30 2631 H 247.156 0.304266 -5.03081 0
M  V30 2632 H 246.758 -0.759851 -3.662 0
M  V30 2633 H 249.05 -0.146282 -6.77342 0
M  V30 2634 H 249.993 -1.66661 -6.88208 0
M  V30 2635 H 250.401 -0.460082 -5.62622 0
M  V30 2636 N 249.799 1.42003 -0.683588 0
M  V30 2637 C 251.047 2.01015 -0.209101 0
M  V30 2638 C 251.368 1.54365 1.19149 0
M  V30 2639 O 250.638 0.769083 1.80172 0
M  V30 2640 H 249.218 0.743294 -0.074315 0
M  V30 2641 H 251.88 1.73798 -0.882066 0
M  V30 2642 H 250.976 3.11343 -0.2172 0
M  V30 2643 N 251.277 0.427512 1.51691 0
M  V30 2644 C 252.523 -0.142439 2.02299 0
M  V30 2645 C 252.856 -1.43214 1.31162 0
M  V30 2646 O 252.131 -1.89833 0.423511 0
M  V30 2647 C 252.414 -0.371301 3.58181 0
M  V30 2648 C 252.267 0.936358 4.39946 0
M  V30 2649 C 253.586 -1.14542 4.24933 0
M  V30 2650 H 250.705 -0.0502937 0.735282 0
M  V30 2651 H 253.347 0.564584 1.81418 0
M  V30 2652 H 251.497 -0.973559 3.76104 0
M  V30 2653 H 253.169 1.57184 4.33694 0
M  V30 2654 H 251.412 1.5432 4.05423 0
M  V30 2655 H 252.083 0.730388 5.47147 0
M  V30 2656 H 254.559 -0.635362 4.11221 0
M  V30 2657 H 253.435 -1.27431 5.33903 0
M  V30 2658 H 253.696 -2.17093 3.85127 0
M  V30 2659 N 252.755 -1.56801 0.158532 0
M  V30 2660 C 254.166 -1.83189 -0.360366 0
M  V30 2661 C 254.517 -1.07778 -1.63946 0
M  V30 2662 O 253.642 -0.326718 -2.13919 0
M  V30 2663 C 254.237 -3.32297 -0.660595 0
M  V30 2664 C 252.796 -3.59227 -1.12398 0
M  V30 2665 C 251.943 -2.76877 -0.153097 0
M  V30 2666 H 254.894 -1.54008 0.383031 0
M  V30 2667 H 254.915 -3.4908 -1.51405 0
M  V30 2668 H 254.427 -3.87156 0.270527 0
M  V30 2669 H 252.528 -3.09766 -2.07064 0
M  V30 2670 H 252.641 -4.67632 -1.04197 0
M  V30 2671 H 251.005 -2.46319 -0.647983 0
M  V30 2672 H 251.788 -3.34511 0.77182 0
M  V30 2673 N 254.233 0.115231 -1.57178 0
M  V30 2674 C 255.196 1.12526 -1.99676 0
M  V30 2675 C 256.196 1.34095 -0.88742 0
M  V30 2676 O 257.386 1.30548 -1.15337 0
M  V30 2677 C 254.518 2.4789 -2.34015 0
M  V30 2678 H 255.711 0.759912 -2.90113 0
M  V30 2679 H 253.264 0.359648 -1.52106 0
M  V30 2680 H 253.999 2.89339 -1.4647 0
M  V30 2681 H 253.784 2.33588 -3.14927 0
M  V30 2682 H 255.274 3.20575 -2.67622 0
M  V30 2683 N 255.711 1.52812 0.385517 0
M  V30 2684 C 256.957 1.68275 1.13188 0
M  V30 2685 C 257.29 0.423179 1.89533 0
M  V30 2686 O 256.565 -0.579113 1.85679 0
M  V30 2687 C 256.848 2.92001 2.1073 0
M  V30 2688 C 256.701 4.28067 1.38125 0
M  V30 2689 C 258.02 3.11283 3.11113 0
M  V30 2690 H 255.139 0.612352 0.410115 0
M  V30 2691 H 257.781 1.85415 0.414869 0
M  V30 2692 H 255.931 2.77519 2.71874 0
M  V30 2693 H 257.603 4.54324 0.799187 0
M  V30 2694 H 255.846 4.28388 0.683092 0
M  V30 2695 H 256.517 5.10733 2.09417 0
M  V30 2696 H 258.993 3.2482 2.6006 0
M  V30 2697 H 257.869 3.99325 3.76605 0
M  V30 2698 H 258.13 2.25656 3.80173 0
M  V30 2699 N 257.189 -0.644168 1.43834 0
M  V30 2700 C 258.436 -1.40395 1.4593 0
M  V30 2701 C 258.764 -1.94305 0.0869658 0
M  V30 2702 O 258.019 -1.73288 -0.909378 0
M  V30 2703 C 258.318 -2.59615 2.45631 0
M  V30 2704 C 257.984 -2.2407 3.91284 0
M  V30 2705 C 256.646 -2.14089 4.30952 0
M  V30 2706 C 258.998 -1.95775 4.83034 0
M  V30 2707 C 256.326 -1.73981 5.6031 0
M  V30 2708 C 258.678 -1.57163 6.12766 0
M  V30 2709 C 257.342 -1.45713 6.51402 0
M  V30 2710 H 256.612 -0.513741 0.533995 0
M  V30 2711 H 259.259 -0.731724 1.76969 0
M  V30 2712 H 257.564 -3.32011 2.08028 0
M  V30 2713 H 259.261 -3.17834 2.44504 0
M  V30 2714 H 255.851 -2.32753 3.59895 0
M  V30 2715 H 260.035 -2.02403 4.53152 0
M  V30 2716 H 255.291 -1.63709 5.89075 0
M  V30 2717 H 259.465 -1.34303 6.83327 0
M  V30 2718 H 257.092 -1.14406 7.51542 0
M  V30 2719 N 258.668 -1.30515 -0.883378 0
M  V30 2720 C 259.914 -1.19607 -1.63774 0
M  V30 2721 C 260.247 0.248314 -1.92606 0
M  V30 2722 O 259.522 1.17742 -1.54813 0
M  V30 2723 C 259.805 -2.02669 -2.97653 0
M  V30 2724 C 259.658 -3.55335 -2.75784 0
M  V30 2725 C 260.977 -1.86573 -3.98596 0
M  V30 2726 H 258.096 -0.435856 -0.594305 0
M  V30 2727 H 260.738 -1.60165 -1.02212 0
M  V30 2728 H 258.888 -1.68208 -3.50197 0
M  V30 2729 H 260.56 -3.99863 -2.30016 0
M  V30 2730 H 258.803 -3.79438 -2.1026 0
M  V30 2731 H 259.474 -4.08745 -3.70988 0
M  V30 2732 H 261.95 -2.16703 -3.55217 0
M  V30 2733 H 260.826 -2.47014 -4.90179 0
M  V30 2734 H 261.087 -0.825321 -4.34328 0
M  V30 2735 N 260.146 1.09593 -1.13257 0
M  V30 2736 C 261.094 2.18271 -0.803783 0
M  V30 2737 C 262.088 1.68054 0.213148 0
M  V30 2738 O 263.294 1.79862 0.0704699 0
M  V30 2739 H 259.669 0.711949 -0.242143 0
M  V30 2740 H 261.64 2.43235 -1.72856 0
M  V30 2741 C 260.389 3.46536 -0.28424 0
M  V30 2742 H 259.712 3.85545 -1.05807 0
M  V30 2743 H 261.152 4.23899 -0.0925945 0
M  V30 2744 C 259.611 3.22036 0.989684 0
M  V30 2745 O 260.141 3.44509 2.06584 0
M  V30 2746 N 258.347 2.7565 0.920086 0
M  V30 2747 H 257.894 2.57562 0.0442019 0
M  V30 2748 H 257.852 2.59635 1.77306 0
M  V30 2749 N 261.624 0.925811 1.2754 0
M  V30 2750 C 262.872 0.564138 1.94067 0
M  V30 2751 C 263.193 -0.897188 1.73134 0
M  V30 2752 O 262.463 -1.63573 1.07799 0
M  V30 2753 H 261.043 0.205645 0.718136 0
M  V30 2754 H 263.705 1.1778 1.55287 0
M  V30 2755 H 262.801 0.76881 3.02483 0
M  V30 2756 N 263.102 -1.41638 0.69111 0
M  V30 2757 C 264.049 -2.30789 0.0229705 0
M  V30 2758 C 265.019 -1.46863 -0.775911 0
M  V30 2759 O 266.204 -1.75661 -0.74485 0
M  V30 2760 C 263.344 -3.32868 -0.910666 0
M  V30 2761 C 262.457 -4.31875 -0.103874 0
M  V30 2762 C 261.592 -5.21024 -1.03475 0
M  V30 2763 C 260.631 -6.11702 -0.220598 0
M  V30 2764 N 259.768 -6.93349 -1.10504 0
M  V30 2765 H 264.608 -2.87366 0.788978 0
M  V30 2766 H 262.145 -1.41535 0.400794 0
M  V30 2767 H 264.103 -3.90596 -1.46597 0
M  V30 2768 H 262.733 -2.77851 -1.64312 0
M  V30 2769 H 261.785 -3.76131 0.568285 0
M  V30 2770 H 263.097 -4.96003 0.527504 0
M  V30 2771 H 262.251 -5.83565 -1.65943 0
M  V30 2772 H 260.99 -4.57112 -1.69999 0
M  V30 2773 H 259.995 -5.48215 0.417187 0
M  V30 2774 H 261.22 -6.77668 0.440784 0
M  V30 2775 H 259.166 -6.3205 -1.75638 0
M  V30 2776 H 259.083 -7.54146 -0.529125 0
M  V30 2777 H 260.351 -7.60362 -1.71667 0
M  V30 2778 N 264.58 -0.43555 -1.51462 0
M  V30 2779 C 265.49 0.383001 -2.31453 0
M  V30 2780 C 266.506 1.02931 -1.4029 0
M  V30 2781 O 267.682 1.02507 -1.73362 0
M  V30 2782 C 264.747 1.47043 -3.13973 0
M  V30 2783 C 263.808 0.844433 -4.20913 0
M  V30 2784 C 263.041 1.88004 -4.9949 0
M  V30 2785 O 263.264 3.10199 -4.78678 0
M  V30 2786 O 262.198 1.47157 -5.83634 0
M  V30 2787 H 266.024 -0.269964 -3.02498 0
M  V30 2788 H 263.609 -0.19813 -1.4808 0
M  V30 2789 H 265.491 2.10113 -3.65281 0
M  V30 2790 H 264.166 2.10751 -2.45695 0
M  V30 2791 H 263.073 0.175729 -3.73687 0
M  V30 2792 H 264.406 0.250869 -4.9156 0
M  V30 2793 N 266.058 1.56714 -0.166846 0
M  V30 2794 C 267.305 1.96747 0.479252 0
M  V30 2795 C 267.633 1.05263 1.63554 0
M  V30 2796 O 266.888 0.0858098 1.95512 0
M  V30 2797 C 267.187 3.42889 1.00806 0
M  V30 2798 C 266.853 4.50889 -0.0318574 0
M  V30 2799 C 265.515 4.8015 -0.317675 0
M  V30 2800 C 267.867 5.15949 -0.737956 0
M  V30 2801 C 265.195 5.71772 -1.31506 0
M  V30 2802 C 267.547 6.08647 -1.72429 0
M  V30 2803 C 266.211 6.36277 -2.0176 0
M  V30 2804 H 265.481 0.719949 0.175371 0
M  V30 2805 H 268.128 1.89756 -0.257864 0
M  V30 2806 H 266.433 3.4681 1.82291 0
M  V30 2807 H 268.13 3.71203 1.51689 0
M  V30 2808 H 264.72 4.28128 0.201088 0
M  V30 2809 H 268.904 4.93458 -0.530351 0
M  V30 2810 H 264.16 5.91465 -1.54853 0
M  V30 2811 H 268.334 6.58129 -2.27682 0
M  V30 2812 H 265.961 7.07075 -2.79194 0
M  V30 2813 N 267.536 -0.106894 1.57237 0
M  V30 2814 C 268.784 -0.810921 1.85117 0
M  V30 2815 C 269.105 -1.7984 0.753827 0
M  V30 2816 O 268.375 -1.94649 -0.221056 0
M  V30 2817 H 266.955 -0.302466 0.683025 0
M  V30 2818 H 269.617 -0.0913324 1.94686 0
M  V30 2819 H 268.713 -1.34875 2.81452 0
M  V30 2820 N 269.014 -1.53014 -0.377408 0
M  V30 2821 C 269.946 -1.74884 -1.48149 0
M  V30 2822 C 270.959 -0.629433 -1.5014 0
M  V30 2823 O 272.148 -0.905416 -1.53833 0
M  V30 2824 C 269.248 -1.80299 -2.86959 0
M  V30 2825 C 268.421 -3.09776 -3.08801 0
M  V30 2826 C 267.48 -3.06586 -4.27658 0
M  V30 2827 O 266.506 -3.80419 -4.23403 0
M  V30 2828 N 267.708 -2.26578 -5.34455 0
M  V30 2829 H 270.473 -2.70147 -1.29771 0
M  V30 2830 H 268.034 -1.51646 -0.56703 0
M  V30 2831 H 270.026 -1.75657 -3.64591 0
M  V30 2832 H 268.596 -0.92372 -2.98641 0
M  V30 2833 H 267.816 -3.27815 -2.18931 0
M  V30 2834 H 269.104 -3.95366 -3.20255 0
M  V30 2835 H 268.502 -1.66081 -5.40771 0
M  V30 2836 H 267.059 -2.27766 -6.10709 0
M  V30 2837 N 270.492 0.636531 -1.44174 0
M  V30 2838 C 271.74 1.39343 -1.46383 0
M  V30 2839 C 272.061 1.94766 -0.0955715 0
M  V30 2840 O 271.331 1.75452 0.871395 0
M  V30 2841 H 269.911 0.517199 -0.538994 0
M  V30 2842 H 272.573 0.74957 -1.7991 0
M  V30 2843 H 271.669 2.22746 -2.18611 0
M  V30 2844 N 271.97 1.30982 0.876444 0
M  V30 2845 C 273.386 1.09498 1.16113 0
M  V30 2846 C 273.586 -0.13875 2.01022 0
M  V30 2847 O 272.642 -0.829935 2.38471 0
M  V30 2848 C 273.955 2.36308 1.85954 0
M  V30 2849 C 275.503 2.41856 1.98683 0
M  V30 2850 C 275.978 3.6853 2.71937 0
M  V30 2851 N 277.469 3.69387 2.79477 0
M  V30 2852 C 278.204 4.64096 3.36753 0
M  V30 2853 N 277.7 5.69155 3.95012 0
M  V30 2854 N 279.493 4.51626 3.3465 0
M  V30 2855 H 271.644 2.10118 0.310494 0
M  V30 2856 H 273.907 0.926634 0.200131 0
M  V30 2857 H 273.613 3.26388 1.31011 0
M  V30 2858 H 273.487 2.4561 2.86278 0
M  V30 2859 H 275.874 1.52249 2.52793 0
M  V30 2860 H 275.955 2.36523 0.9742 0
M  V30 2861 H 275.599 4.58499 2.18496 0
M  V30 2862 H 275.529 3.71127 3.73593 0
M  V30 2863 H 278.02 2.93438 2.38123 0
M  V30 2864 H 278.333 6.3751 4.36808 0
M  V30 2865 H 276.678 5.72937 3.93406 0
M  V30 2866 H 279.869 3.68728 2.8837 0
M  V30 2867 H 280.042 5.25614 3.7899 0
M  V30 2868 N 273.449 -1.08991 1.13837 0
M  V30 2869 C 274.382 -2.15049 0.763477 0
M  V30 2870 C 275.36 -1.60629 -0.252398 0
M  V30 2871 O 276.544 -1.87958 -0.142853 0
M  V30 2872 C 273.671 -3.38441 0.132545 0
M  V30 2873 C 272.717 -4.11596 1.11763 0
M  V30 2874 S 273.55 -4.6521 2.65216 0
M  V30 2875 C 274.706 -5.91896 2.03495 0
M  V30 2876 H 274.939 -2.46518 1.66182 0
M  V30 2877 H 272.472 -1.21008 0.958976 0
M  V30 2878 H 274.43 -4.09883 -0.225074 0
M  V30 2879 H 273.091 -3.05182 -0.743135 0
M  V30 2880 H 272.284 -5.00121 0.624076 0
M  V30 2881 H 271.886 -3.46038 1.41894 0
M  V30 2882 H 274.178 -6.63156 1.38675 0
M  V30 2883 H 275.121 -6.45938 2.9012 0
M  V30 2884 H 275.529 -5.44625 1.48471 0
M  V30 2885 N 274.927 -0.932562 -1.27047 0
M  V30 2886 C 276.155 -0.592031 -1.98249 0
M  V30 2887 C 276.57 0.831062 -1.69525 0
M  V30 2888 O 275.927 1.55299 -0.958561 0
M  V30 2889 C 275.978 -0.814279 -3.5221 0
M  V30 2890 O 275.699 -2.18139 -3.7993 0
M  V30 2891 C 277.2 -0.483121 -4.4066 0
M  V30 2892 H 274.42 -0.223896 -0.632544 0
M  V30 2893 H 276.964 -1.25091 -1.61779 0
M  V30 2894 H 275.119 -0.20213 -3.86872 0
M  V30 2895 H 275.533 -2.235 -4.74498 0
M  V30 2896 H 277.007 -0.689298 -5.47679 0
M  V30 2897 H 277.484 0.581546 -4.35333 0
M  V30 2898 H 278.09 -1.07362 -4.11526 0
M  V30 2899 N 276.405 1.4127 -0.698611 0
M  V30 2900 C 277.335 2.33447 -0.049629 0
M  V30 2901 C 278.316 1.51982 0.763898 0
M  V30 2902 O 279.501 1.80509 0.716257 0
M  V30 2903 C 276.631 3.35828 0.885267 0
M  V30 2904 C 275.585 4.27627 0.178613 0
M  V30 2905 C 274.911 5.20406 1.22807 0
M  V30 2906 C 276.211 5.13459 -0.956933 0
M  V30 2907 H 277.905 2.87966 -0.81951 0
M  V30 2908 H 275.451 1.38461 -0.395538 0
M  V30 2909 H 277.404 3.9924 1.34854 0
M  V30 2910 H 276.128 2.79666 1.68685 0
M  V30 2911 H 274.787 3.65643 -0.26466 0
M  V30 2912 H 274.435 4.60558 2.02226 0
M  V30 2913 H 274.135 5.82661 0.760239 0
M  V30 2914 H 275.659 5.86695 1.69179 0
M  V30 2915 H 277.073 5.70421 -0.573805 0
M  V30 2916 H 275.47 5.8467 -1.35205 0
M  V30 2917 H 276.54 4.50443 -1.79524 0
M  V30 2918 N 277.883 0.443576 1.51229 0
M  V30 2919 C 279.111 -0.11929 2.06556 0
M  V30 2920 C 279.526 -1.35921 1.31038 0
M  V30 2921 O 278.883 -1.78675 0.371704 0
M  V30 2922 C 278.934 -0.435228 3.5887 0
M  V30 2923 O 278.655 0.755486 4.31537 0
M  V30 2924 C 280.156 -1.04808 4.30732 0
M  V30 2925 H 277.376 -0.0051584 0.67098 0
M  V30 2926 H 279.92 0.624453 1.94733 0
M  V30 2927 H 278.075 -1.12887 3.70588 0
M  V30 2928 H 278.489 0.483491 5.22267 0
M  V30 2929 H 279.963 -1.2191 5.3837 0
M  V30 2930 H 280.44 -2.03081 3.89429 0
M  V30 2931 H 281.046 -0.393637 4.23474 0
M  V30 2932 N 279.361 -1.56624 0.175154 0
M  V30 2933 C 280.271 -2.21741 -0.766042 0
M  V30 2934 C 281.287 -1.21023 -1.25018 0
M  V30 2935 O 282.463 -1.53697 -1.3015 0
M  V30 2936 C 279.528 -2.84839 -1.97655 0
M  V30 2937 C 278.589 -4.00769 -1.53892 0
M  V30 2938 C 277.822 -4.60849 -2.69173 0
M  V30 2939 O 278.045 -4.19823 -3.86141 0
M  V30 2940 O 276.979 -5.50655 -2.43028 0
M  V30 2941 H 280.805 -3.02738 -0.241585 0
M  V30 2942 H 278.39 -1.49305 -0.053222 0
M  V30 2943 H 280.272 -3.24834 -2.68442 0
M  V30 2944 H 278.947 -2.06836 -2.48999 0
M  V30 2945 H 277.854 -3.65436 -0.80044 0
M  V30 2946 H 279.187 -4.80376 -1.07236 0
M  V30 2947 N 280.839 0.0985539 -1.57292 0
M  V30 2948 C 282.088 0.801358 -1.85098 0
M  V30 2949 C 282.401 1.80066 -0.763902 0
M  V30 2950 O 283.607 2.55112 -0.928981 0
M  V30 2951 C 282.063 1.47599 -3.28242 0
M  V30 2952 C 281.671 0.516624 -4.45011 0
M  V30 2953 C 283.415 2.16272 -3.65276 0
M  V30 2954 C 281.322 1.19564 -5.79188 0
M  V30 2955 H 280.252 0.303022 -0.69043 0
M  V30 2956 H 282.903 0.0542623 -1.8342 0
M  V30 2957 H 281.285 2.27042 -3.2445 0
M  V30 2958 H 282.459 -0.246065 -4.60143 0
M  V30 2959 H 280.774 -0.064227 -4.1635 0
M  V30 2960 H 283.371 2.67802 -4.62803 0
M  V30 2961 H 283.714 2.95009 -2.93727 0
M  V30 2962 H 284.247 1.43693 -3.70941 0
M  V30 2963 H 280.986 0.449157 -6.53959 0
M  V30 2964 H 280.506 1.92984 -5.67906 0
M  V30 2965 H 282.185 1.7231 -6.23633 0
M  V30 2966 N 282.317 1.53212 0.369288 0
M  V30 2967 C 283.563 1.69466 1.11397 0
M  V30 2968 C 283.896 0.443257 1.89074 0
M  V30 2969 O 283.171 -0.559386 1.86282 0
M  V30 2970 C 283.454 2.9422 2.07621 0
M  V30 2971 C 283.307 4.29508 1.33577 0
M  V30 2972 C 284.626 3.14565 3.07794 0
M  V30 2973 H 281.745 0.616667 0.403597 0
M  V30 2974 H 284.387 1.85845 0.395179 0
M  V30 2975 H 282.537 2.80387 2.68916 0
M  V30 2976 H 284.209 4.55147 0.750955 0
M  V30 2977 H 282.452 4.29088 0.637618 0
M  V30 2978 H 283.123 5.12926 2.03989 0
M  V30 2979 H 285.599 3.2756 2.56601 0
M  V30 2980 H 284.475 4.03297 3.72348 0
M  V30 2981 H 284.736 2.29675 3.77759 0
M  V30 2982 N 283.795 -0.628877 1.44509 0
M  V30 2983 C 284.758 -1.72263 1.51188 0
M  V30 2984 C 285.758 -1.55907 0.39367 0
M  V30 2985 O 286.948 -1.61361 0.656377 0
M  V30 2986 C 284.08 -3.11365 1.38798 0
M  V30 2987 H 285.273 -1.67714 2.4862 0
M  V30 2988 H 282.826 -0.842737 1.31634 0
M  V30 2989 H 283.561 -3.21507 0.424693 0
M  V30 2990 H 283.346 -3.24644 2.19884 0
M  V30 2991 H 284.836 -3.91075 1.46458 0
M  V30 2992 N 285.273 -1.31445 -0.869486 0
M  V30 2993 C 286.22 -1.19135 -1.97675 0
M  V30 2994 C 287.19 -0.0770266 -1.65921 0
M  V30 2995 O 288.375 -0.249972 -1.89155 0
M  V30 2996 C 285.515 -0.905149 -3.33018 0
M  V30 2997 C 284.628 -2.10285 -3.77365 0
M  V30 2998 C 283.763 -1.75339 -5.01427 0
M  V30 2999 C 282.802 -2.91515 -5.38224 0
M  V30 3000 N 281.939 -2.56762 -6.53466 0
M  V30 3001 H 286.779 -2.13853 -2.07535 0
M  V30 3002 H 284.316 -1.06379 -1.01597 0
M  V30 3003 H 286.274 -0.719765 -4.10944 0
M  V30 3004 H 284.904 0.00519624 -3.228 0
M  V30 3005 H 283.956 -2.39899 -2.95216 0
M  V30 3006 H 285.268 -2.97237 -4.00564 0
M  V30 3007 H 284.422 -1.53266 -5.87022 0
M  V30 3008 H 283.161 -0.855801 -4.80133 0
M  V30 3009 H 282.166 -3.14237 -4.51149 0
M  V30 3010 H 283.391 -3.81985 -5.61484 0
M  V30 3011 H 281.337 -1.69526 -6.33717 0
M  V30 3012 H 281.254 -3.37243 -6.76612 0
M  V30 3013 H 282.522 -2.38083 -7.42251 0
M  V30 3014 N 286.751 1.08385 -1.14413 0
M  V30 3015 C 288 1.80153 -0.907076 0
M  V30 3016 C 288.313 1.87176 0.567851 0
M  V30 3017 O 289.519 2.55359 0.922172 0
M  V30 3018 C 287.975 3.23687 -1.57336 0
M  V30 3019 C 287.583 3.24897 -3.08457 0
M  V30 3020 C 289.327 4.00136 -1.41744 0
M  V30 3021 C 287.234 4.6302 -3.67921 0
M  V30 3022 H 286.164 0.675139 -0.335714 0
M  V30 3023 H 288.815 1.21733 -1.37307 0
M  V30 3024 H 287.197 3.82234 -1.03505 0
M  V30 3025 H 288.371 2.76055 -3.68958 0
M  V30 3026 H 286.686 2.61943 -3.2369 0
M  V30 3027 H 289.283 5.02201 -1.83572 0
M  V30 3028 H 289.626 4.14709 -0.363576 0
M  V30 3029 H 290.159 3.48058 -1.92614 0
M  V30 3030 H 286.898 4.5365 -4.73161 0
M  V30 3031 H 286.418 5.12143 -3.12201 0
M  V30 3032 H 288.097 5.31994 -3.68227 0
M  V30 3033 N 288.23 0.939286 1.26551 0
M  V30 3034 C 289.507 0.5038 1.89001 0
M  V30 3035 C 289.887 -1.01854 1.84903 0
M  V30 3036 O 289.235 -1.87773 1.30206 0
M  V30 3037 C 289.445 1.063 3.32417 0
M  V30 3038 C 290.793 1.13051 4.09273 0
M  V30 3039 O 291.817 1.01345 3.41479 0
M  V30 3040 O 290.676 1.31233 5.30509 0
M  V30 3041 H 287.77 0.163897 0.810597 0
M  V30 3042 H 290.316 1.03173 1.34735 0
M  V30 3043 H 289.088 2.10665 3.29752 0
M  V30 3044 H 288.711 0.517408 3.94219 0
M  V30 3045 N 289.708 -1.40897 0.706093 0
M  V30 3046 C 290.936 -2.05373 0.250887 0
M  V30 3047 C 291.351 -1.53172 -1.10381 0
M  V30 3048 O 290.708 -0.684305 -1.69185 0
M  V30 3049 C 290.759 -3.6088 0.211571 0
M  V30 3050 O 290.48 -4.11153 1.51276 0
M  V30 3051 C 291.981 -4.42517 -0.263346 0
M  V30 3052 H 289.201 -0.66115 0.114552 0
M  V30 3053 H 291.745 -1.80479 0.961635 0
M  V30 3054 H 289.9 -3.84777 -0.450073 0
M  V30 3055 H 290.314 -5.05279 1.40689 0
M  V30 3056 H 291.788 -5.51479 -0.239718 0
M  V30 3057 H 292.265 -4.19396 -1.30397 0
M  V30 3058 H 292.871 -4.23708 0.367677 0
M  V30 3059 N 291.186 -0.45159 -1.50991 0
M  V30 3060 C 292.434 0.109857 -2.01801 0
M  V30 3061 C 292.755 1.41958 -1.3369 0
M  V30 3062 O 292.025 1.9003 -0.475951 0
M  V30 3063 H 290.605 0.0435884 -0.745727 0
M  V30 3064 H 293.267 -0.597557 -1.85514 0
M  V30 3065 H 292.363 0.275489 -3.10882 0
M  V30 3066 N 292.664 1.56529 -0.183458 0
M  V30 3067 C 293.627 2.17324 0.728223 0
M  V30 3068 C 294.627 1.12453 1.14939 0
M  V30 3069 O 295.817 1.37902 1.06437 0
M  V30 3070 C 292.949 2.76591 1.99274 0
M  V30 3071 H 294.142 2.99241 0.198772 0
M  V30 3072 H 291.695 1.5616 0.0661391 0
M  V30 3073 H 292.43 1.98441 2.56499 0
M  V30 3074 H 292.215 3.5335 1.69959 0
M  V30 3075 H 293.705 3.23311 2.6431 0
M  V30 3076 N 294.142 -0.090211 1.57342 0
M  V30 3077 C 295.052 -1.12735 2.05738 0
M  V30 3078 C 296.068 -1.43557 0.983231 0
M  V30 3079 O 297.244 -1.54101 1.29672 0
M  V30 3080 C 294.309 -2.42659 2.47624 0
M  V30 3081 C 293.37 -2.18975 3.69254 0
M  V30 3082 C 292.603 -3.42704 4.09133 0
M  V30 3083 O 292.826 -4.51127 3.49057 0
M  V30 3084 O 291.76 -3.32003 5.02053 0
M  V30 3085 H 295.586 -0.746279 2.94388 0
M  V30 3086 H 293.171 -0.303064 1.46294 0
M  V30 3087 H 295.053 -3.19155 2.7517 0
M  V30 3088 H 293.728 -2.80182 1.62109 0
M  V30 3089 H 292.635 -1.40244 3.46818 0
M  V30 3090 H 293.968 -1.86342 4.55563 0
M  V30 3091 N 295.62 -1.53406 -0.361157 0
M  V30 3092 C 296.567 -1.80156 -1.44265 0
M  V30 3093 C 297.537 -0.646183 -1.53015 0
M  V30 3094 O 298.722 -0.888818 -1.68833 0
M  V30 3095 C 295.862 -2.00116 -2.81154 0
M  V30 3096 C 294.975 -3.27833 -2.81335 0
M  V30 3097 C 294.11 -3.37957 -4.09828 0
M  V30 3098 C 293.149 -4.59689 -4.04168 0
M  V30 3099 N 292.286 -4.66942 -5.24318 0
M  V30 3100 H 297.126 -2.72438 -1.20754 0
M  V30 3101 H 294.663 -1.34954 -0.585296 0
M  V30 3102 H 296.621 -2.09677 -3.60682 0
M  V30 3103 H 295.251 -1.11167 -3.03054 0
M  V30 3104 H 294.303 -3.27204 -1.94014 0
M  V30 3105 H 295.615 -4.17442 -2.73027 0
M  V30 3106 H 294.769 -3.46853 -4.97773 0
M  V30 3107 H 293.508 -2.46372 -4.20894 0
M  V30 3108 H 292.513 -4.50889 -3.14609 0
M  V30 3109 H 293.738 -5.5262 -3.947 0
M  V30 3110 H 291.684 -3.7826 -5.35962 0
M  V30 3111 H 291.601 -5.50462 -5.18197 0
M  V30 3112 H 292.869 -4.80127 -6.14084 0
M  V30 3113 N 297.098 0.621204 -1.44841 0
M  V30 3114 C 298.514 0.94048 -1.28946 0
M  V30 3115 C 298.714 2.00154 -0.23249 0
M  V30 3116 O 297.77 2.49651 0.378237 0
M  V30 3117 C 299.083 1.39433 -2.66419 0
M  V30 3118 C 300.631 1.50927 -2.74208 0
M  V30 3119 C 301.106 1.99692 -4.12174 0
M  V30 3120 N 302.597 2.06947 -4.144 0
M  V30 3121 C 303.332 2.45871 -5.1801 0
M  V30 3122 N 302.828 2.83862 -6.31977 0
M  V30 3123 N 304.621 2.46092 -5.05366 0
M  V30 3124 H 296.772 -0.0803548 -2.12248 0
M  V30 3125 H 299.035 0.0266913 -0.947624 0
M  V30 3126 H 298.741 0.688925 -3.44887 0
M  V30 3127 H 298.615 2.36347 -2.93973 0
M  V30 3128 H 301.002 2.20561 -1.96053 0
M  V30 3129 H 301.083 0.523627 -2.50383 0
M  V30 3130 H 300.727 1.30649 -4.90809 0
M  V30 3131 H 300.657 2.99146 -4.33381 0
M  V30 3132 H 303.148 1.80232 -3.32152 0
M  V30 3133 H 303.461 3.12405 -7.0684 0
M  V30 3134 H 301.806 2.8159 -6.35399 0
M  V30 3135 H 304.997 2.1581 -4.15384 0
M  V30 3136 H 305.17 2.76102 -5.86235 0
M  V30 3137 N 298.576 1.31904 0.862503 0
M  V30 3138 C 299.539 1.20131 1.95195 0
M  V30 3139 C 300.539 0.126409 1.60302 0
M  V30 3140 O 301.729 0.376234 1.70089 0
M  V30 3141 C 298.861 0.845691 3.30244 0
M  V30 3142 H 300.054 2.16943 2.07064 0
M  V30 3143 H 297.607 1.15622 1.05172 0
M  V30 3144 H 298.342 -0.120957 3.24074 0
M  V30 3145 H 298.127 1.62276 3.56944 0
M  V30 3146 H 299.617 0.787418 4.10109 0
M  V30 3147 N 300.054 -1.07777 1.14986 0
M  V30 3148 C 301.017 -2.13041 0.845358 0
M  V30 3149 C 302.017 -1.60071 -0.152931 0
M  V30 3150 O 303.207 -1.74033 0.0761879 0
M  V30 3151 C 300.339 -3.39896 0.261383 0
M  V30 3152 H 301.532 -2.41485 1.77834 0
M  V30 3153 H 299.085 -1.23595 0.956757 0
M  V30 3154 H 299.82 -3.17091 -0.68 0
M  V30 3155 H 299.605 -3.79642 0.980514 0
M  V30 3156 H 301.095 -4.17548 0.0657687 0
M  V30 3157 N 301.532 -0.945985 -1.26051 0
M  V30 3158 C 302.442 -0.465633 -2.29933 0
M  V30 3159 C 303.458 0.462761 -1.67733 0
M  V30 3160 O 304.634 0.341118 -1.9849 0
M  V30 3161 C 301.699 0.256994 -3.45746 0
M  V30 3162 C 300.76 -0.708549 -4.23412 0
M  V30 3163 C 299.993 -0.0203135 -5.33696 0
M  V30 3164 O 300.216 1.19571 -5.57726 0
M  V30 3165 O 299.15 -0.701459 -5.97799 0
M  V30 3166 H 302.976 -1.32866 -2.73094 0
M  V30 3167 H 300.561 -0.712071 -1.31339 0
M  V30 3168 H 302.443 0.663852 -4.16138 0
M  V30 3169 H 301.118 1.09533 -3.04605 0
M  V30 3170 H 300.025 -1.16545 -3.55483 0
M  V30 3171 H 301.358 -1.51465 -4.68315 0
M  V30 3172 N 303.011 1.40521 -0.713556 0
M  V30 3173 C 303.921 2.34522 -0.0606667 0
M  V30 3174 C 304.937 1.57193 0.74607 0
M  V30 3175 O 306.113 1.89591 0.679493 0
M  V30 3176 C 303.178 3.36081 0.851491 0
M  V30 3177 C 302.239 4.29286 0.0349339 0
M  V30 3178 C 301.472 5.25994 0.903649 0
M  V30 3179 O 301.695 5.28616 2.14292 0
M  V30 3180 O 300.629 6.00918 0.343723 0
M  V30 3181 H 304.455 2.91968 -0.835972 0
M  V30 3182 H 302.04 1.41681 -0.47402 0
M  V30 3183 H 303.922 3.98369 1.37404 0
M  V30 3184 H 302.597 2.81052 1.60598 0
M  V30 3185 H 301.504 3.70289 -0.532633 0
M  V30 3186 H 302.837 4.87462 -0.681287 0
M  V30 3187 N 304.489 0.459591 1.5075 0
M  V30 3188 C 305.419 -0.330644 2.31147 0
M  V30 3189 C 306.4 -1.00087 1.37538 0
M  V30 3190 O 307.585 -1.00025 1.66459 0
M  V30 3191 C 304.715 -1.41958 3.16962 0
M  V30 3192 C 303.669 -0.871608 4.19031 0
M  V30 3193 C 302.995 -2.05797 4.9351 0
M  V30 3194 C 304.295 0.109251 5.22186 0
M  V30 3195 H 305.989 0.340336 2.97459 0
M  V30 3196 H 303.535 0.165119 1.4305 0
M  V30 3197 H 305.488 -1.9798 3.71997 0
M  V30 3198 H 304.212 -2.11917 2.48513 0
M  V30 3199 H 302.871 -0.333442 3.6508 0
M  V30 3200 H 302.519 -2.74427 4.21544 0
M  V30 3201 H 302.219 -1.6976 5.62544 0
M  V30 3202 H 303.743 -2.62331 5.51375 0
M  V30 3203 H 305.157 -0.361405 5.7216 0
M  V30 3204 H 303.554 0.383316 5.98875 0
M  V30 3205 H 304.624 1.03887 4.73641 0
M  V30 3206 N 305.967 -1.56429 0.191757 0
M  V30 3207 C 306.915 -2.20273 -0.747174 0
M  V30 3208 C 307.909 -1.17288 -1.22229 0
M  V30 3209 O 309.115 -1.35441 -1.18557 0
M  V30 3210 H 305.49 -0.705885 -0.259289 0
M  V30 3211 H 307.461 -2.97826 -0.184963 0
M  V30 3212 C 306.21 -2.87356 -1.95759 0
M  V30 3213 H 305.533 -3.66341 -1.60106 0
M  V30 3214 H 306.973 -3.3547 -2.59299 0
M  V30 3215 C 305.432 -1.88213 -2.79423 0
M  V30 3216 O 305.962 -1.38033 -3.7724 0
M  V30 3217 N 304.168 -1.56516 -2.44849 0
M  V30 3218 H 303.715 -1.97516 -1.65364 0
M  V30 3219 H 303.673 -0.904369 -3.01112 0
M  V30 3220 N 307.445 0.0818655 -1.57387 0
M  V30 3221 C 308.392 1.09834 -2.0299 0
M  V30 3222 C 309.362 1.39043 -0.908639 0
M  V30 3223 O 310.547 1.50282 -1.17559 0
M  V30 3224 C 307.687 2.40971 -2.47037 0
M  V30 3225 C 306.8 2.18379 -3.7274 0
M  V30 3226 C 305.935 3.43008 -4.0561 0
M  V30 3227 C 304.974 3.15736 -5.24383 0
M  V30 3228 N 304.111 4.32667 -5.52941 0
M  V30 3229 H 308.951 0.702472 -2.89602 0
M  V30 3230 H 306.488 0.33531 -1.43227 0
M  V30 3231 H 308.446 3.1752 -2.70623 0
M  V30 3232 H 307.076 2.78379 -1.63417 0
M  V30 3233 H 306.128 1.32569 -3.56552 0
M  V30 3234 H 307.44 1.94227 -4.59431 0
M  V30 3235 H 306.594 4.27958 -4.30043 0
M  V30 3236 H 305.333 3.70225 -3.17466 0
M  V30 3237 H 304.338 2.2918 -4.99757 0
M  V30 3238 H 305.563 2.8985 -6.14136 0
M  V30 3239 H 303.509 4.59935 -4.67756 0
M  V30 3240 H 303.426 4.11753 -6.34031 0
M  V30 3241 H 304.694 5.18644 -5.81918 0
M  V30 3242 N 308.923 1.53595 0.353017 0
M  V30 3243 C 310.339 1.43648 0.695516 0
M  V30 3244 C 310.539 0.585617 1.92802 0
M  V30 3245 O 309.595 0.0729223 2.52395 0
M  V30 3246 C 310.908 2.8701 0.896991 0
M  V30 3247 C 312.456 2.96723 0.996209 0
M  V30 3248 C 312.931 4.41173 1.23007 0
M  V30 3249 N 314.422 4.44657 1.29749 0
M  V30 3250 C 315.157 5.53547 1.49577 0
M  V30 3251 N 314.653 6.72461 1.66639 0
M  V30 3252 N 316.446 5.41145 1.52048 0
M  V30 3253 H 308.597 2.07415 -0.457481 0
M  V30 3254 H 310.86 0.9372 -0.142687 0
M  V30 3255 H 310.566 3.51644 0.0629938 0
M  V30 3256 H 310.44 3.31401 1.80148 0
M  V30 3257 H 312.827 2.32235 1.82074 0
M  V30 3258 H 312.908 2.55707 0.0688331 0
M  V30 3259 H 312.552 5.06238 0.410505 0
M  V30 3260 H 312.482 4.79772 2.17086 0
M  V30 3261 H 314.973 3.58963 1.18126 0
M  V30 3262 H 315.286 7.51214 1.81378 0
M  V30 3263 H 313.631 6.75423 1.63794 0
M  V30 3264 H 316.822 4.47205 1.38294 0
M  V30 3265 H 316.995 6.26068 1.67159 0
M  V30 3266 N 310.401 -0.613514 1.45168 0
M  V30 3267 C 311.678 -1.37263 1.39349 0
M  V30 3268 C 312.058 -2.11012 0.0610848 0
M  V30 3269 O 311.406 -2.07502 -0.956825 0
M  V30 3270 C 311.616 -2.3244 2.60332 0
M  V30 3271 C 312.964 -2.9523 3.05163 0
M  V30 3272 O 313.988 -2.42762 2.60663 0
M  V30 3273 O 312.847 -3.90454 3.82372 0
M  V30 3274 H 309.941 -0.615188 0.552696 0
M  V30 3275 H 312.487 -0.637097 1.57287 0
M  V30 3276 H 311.259 -1.77164 3.48896 0
M  V30 3277 H 310.882 -3.13383 2.44698 0
M  V30 3278 N 311.879 -1.3236 -0.855495 0
M  V30 3279 C 312.842 -1.21164 -1.94556 0
M  V30 3280 C 313.842 -0.134908 -1.60233 0
M  V30 3281 O 315.032 -0.385249 -1.69887 0
M  V30 3282 C 312.164 -0.863192 -3.29791 0
M  V30 3283 H 313.357 -2.18038 -2.05911 0
M  V30 3284 H 310.91 -1.16179 -1.04557 0
M  V30 3285 H 311.645 0.103769 -3.24134 0
M  V30 3286 H 311.43 -1.64166 -3.56078 0
M  V30 3287 H 312.92 -0.809156 -4.09686 0
M  V30 3288 N 313.357 1.07166 -1.15556 0
M  V30 3289 C 314.587 1.83248 -0.954133 0
M  V30 3290 C 314.995 1.82449 0.500911 0
M  V30 3291 O 314.338 1.23575 1.35923 0
M  V30 3292 C 314.4 3.31393 -1.39351 0
M  V30 3293 C 314.064 3.5591 -2.86666 0
M  V30 3294 C 315.061 3.49695 -3.8472 0
M  V30 3295 C 312.746 3.83515 -3.24379 0
M  V30 3296 C 314.74 3.70737 -5.18491 0
M  V30 3297 C 312.427 4.04209 -4.58321 0
M  V30 3298 C 313.425 3.97815 -5.55186 0
M  V30 3299 O 313.113 4.17954 -6.86709 0
M  V30 3300 H 312.845 0.584941 -0.338851 0
M  V30 3301 H 315.399 1.36169 -1.53777 0
M  V30 3302 H 313.629 3.79292 -0.75329 0
M  V30 3303 H 315.318 3.88945 -1.16089 0
M  V30 3304 H 316.084 3.28368 -3.56931 0
M  V30 3305 H 311.963 3.87605 -2.49567 0
M  V30 3306 H 315.507 3.65663 -5.94085 0
M  V30 3307 H 311.404 4.25023 -4.85825 0
M  V30 3308 H 312.172 4.35291 -6.93155 0
M  V30 3309 N 314.835 0.952656 1.25548 0
M  V30 3310 C 316.112 0.523818 1.88456 0
M  V30 3311 C 316.492 -0.998871 1.85973 0
M  V30 3312 O 315.84 -1.86381 1.3219 0
M  V30 3313 C 316.05 1.0982 3.31271 0
M  V30 3314 C 317.398 1.17385 4.08051 0
M  V30 3315 O 318.422 1.04961 3.40384 0
M  V30 3316 O 317.281 1.36852 5.29088 0
M  V30 3317 H 314.375 0.172485 0.808813 0
M  V30 3318 H 316.921 1.04596 1.33633 0
M  V30 3319 H 315.693 2.1415 3.27499 0
M  V30 3320 H 315.316 0.559191 3.93648 0
M  V30 3321 N 316.313 -1.40141 0.720998 0
M  V30 3322 C 317.559 -2.01084 0.263231 0
M  V30 3323 C 317.892 -1.57052 -1.14229 0
M  V30 3324 O 317.167 -0.793027 -1.77599 0
M  V30 3325 C 317.45 -3.58401 0.349344 0
M  V30 3326 C 317.303 -4.12491 1.79363 0
M  V30 3327 C 318.622 -4.39231 -0.276351 0
M  V30 3328 H 315.741 -0.730572 0.0971228 0
M  V30 3329 H 318.383 -1.66543 0.914518 0
M  V30 3330 H 316.533 -3.87958 -0.205165 0
M  V30 3331 H 318.205 -3.93711 2.40394 0
M  V30 3332 H 316.448 -3.66576 2.31958 0
M  V30 3333 H 317.119 -5.21646 1.80524 0
M  V30 3334 H 319.595 -4.15637 0.196184 0
M  V30 3335 H 318.471 -5.48586 -0.185681 0
M  V30 3336 H 318.732 -4.20643 -1.36059 0
M  V30 3337 N 317.792 -0.46758 -1.50504 0
M  V30 3338 C 318.722 0.318381 -2.31319 0
M  V30 3339 C 319.703 0.993564 -1.38066 0
M  V30 3340 O 320.888 0.991411 -1.66987 0
M  V30 3341 C 318.018 1.40275 -3.17711 0
M  V30 3342 C 316.972 0.849373 -4.19487 0
M  V30 3343 C 316.298 2.03177 -4.94594 0
M  V30 3344 C 317.598 -0.136942 -5.2212 0
M  V30 3345 H 319.292 -0.356106 -2.97275 0
M  V30 3346 H 316.838 -0.172703 -1.42961 0
M  V30 3347 H 318.791 1.96004 -3.73042 0
M  V30 3348 H 317.515 2.10596 -2.49634 0
M  V30 3349 H 316.174 0.314076 -3.65252 0
M  V30 3350 H 315.822 2.72187 -4.22993 0
M  V30 3351 H 315.522 1.66774 -5.63436 0
M  V30 3352 H 317.046 2.59403 -5.52759 0
M  V30 3353 H 318.46 0.331056 -5.72343 0
M  V30 3354 H 316.857 -0.41507 -5.98663 0
M  V30 3355 H 317.927 -1.06398 -4.73083 0
M  V30 3356 N 319.27 1.56325 -0.20005 0
M  V30 3357 C 320.519 1.96895 0.437652 0
M  V30 3358 C 320.832 1.08999 1.62415 0
M  V30 3359 O 322.038 1.39372 2.32997 0
M  V30 3360 C 320.494 3.50198 0.830025 0
M  V30 3361 C 320.102 4.46765 -0.332461 0
M  V30 3362 C 321.846 3.99526 1.43453 0
M  V30 3363 C 319.753 5.91344 0.0811468 0
M  V30 3364 H 318.683 0.735209 0.167282 0
M  V30 3365 H 321.334 1.81148 -0.292853 0
M  V30 3366 H 319.716 3.61467 1.61734 0
M  V30 3367 H 320.89 4.47231 -1.11 0
M  V30 3368 H 319.205 4.07657 -0.848789 0
M  V30 3369 H 321.802 5.05025 1.75652 0
M  V30 3370 H 322.145 3.44122 2.34277 0
M  V30 3371 H 322.678 3.91393 0.71109 0
M  V30 3372 H 319.417 6.50685 -0.793033 0
M  V30 3373 H 318.937 5.94121 0.823445 0
M  V30 3374 H 320.616 6.44945 0.515252 0
M  V30 3375 N 320.748 -0.0735177 1.57428 0
M  V30 3376 C 321.994 -0.774145 1.87443 0
M  V30 3377 C 322.327 -1.77311 0.792103 0
M  V30 3378 O 321.602 -1.93492 -0.197793 0
M  V30 3379 C 321.885 -1.48367 3.28115 0
M  V30 3380 C 321.738 -0.501227 4.46999 0
M  V30 3381 C 323.057 -2.429 3.66998 0
M  V30 3382 H 320.176 -0.279971 0.681752 0
M  V30 3383 H 322.818 -0.0373616 1.89963 0
M  V30 3384 H 320.968 -2.11171 3.26097 0
M  V30 3385 H 322.64 0.121468 4.6114 0
M  V30 3386 H 320.883 0.183593 4.33411 0
M  V30 3387 H 321.554 -1.03526 5.42205 0
M  V30 3388 H 324.03 -1.90175 3.70098 0
M  V30 3389 H 322.906 -2.89549 4.66318 0
M  V30 3390 H 323.167 -3.27628 2.96837 0
M  V30 3391 N 322.226 -1.5378 -0.344866 0
M  V30 3392 C 323.474 -1.70625 -1.08311 0
M  V30 3393 C 323.795 -0.471447 -1.89215 0
M  V30 3394 O 323.065 0.514616 -1.8902 0
M  V30 3395 H 321.645 -0.629058 -0.402859 0
M  V30 3396 H 324.307 -1.9103 -0.386459 0
M  V30 3397 H 323.403 -2.57656 -1.76124 0
M  V30 3398 N 323.704 0.605807 -1.45491 0
M  V30 3399 C 324.929 1.39625 -1.53361 0
M  V30 3400 C 325.354 1.87351 -0.167645 0
M  V30 3401 O 324.712 1.60243 0.848051 0
M  V30 3402 C 324.76 2.57559 -2.5238 0
M  V30 3403 O 323.864 3.58248 -2.04285 0
M  V30 3404 H 323.205 0.416771 -0.516912 0
M  V30 3405 H 325.735 0.737103 -1.90861 0
M  V30 3406 H 325.745 3.0478 -2.71244 0
M  V30 3407 H 324.42 2.22171 -3.51586 0
M  V30 3408 H 322.997 3.17664 -1.95305 0
M  V30 3409 N 325.182 1.32811 0.848464 0
M  V30 3410 C 326.43 1.23479 1.59991 0
M  V30 3411 C 326.751 -0.201853 1.93952 0
M  V30 3412 O 326.021 -1.12818 1.60153 0
M  V30 3413 H 324.601 0.454034 0.593179 0
M  V30 3414 H 327.263 1.66412 1.01455 0
M  V30 3415 H 326.359 1.82178 2.53412 0
M  V30 3416 N 326.66 -1.06551 1.16123 0
M  V30 3417 C 328.071 -1.60768 0.949232 0
M  V30 3418 C 328.422 -1.89523 -0.507508 0
M  V30 3419 O 327.547 -1.66671 -1.38021 0
M  V30 3420 C 328.142 -2.92086 1.71671 0
M  V30 3421 C 326.701 -3.43015 1.54977 0
M  V30 3422 C 325.848 -2.16947 1.72711 0
M  V30 3423 H 328.799 -0.895354 1.31031 0
M  V30 3424 H 328.82 -3.6138 1.19099 0
M  V30 3425 H 328.332 -2.71127 2.7769 0
M  V30 3426 H 326.433 -3.69039 0.513873 0
M  V30 3427 H 326.546 -4.18516 2.33198 0
M  V30 3428 H 324.91 -2.27041 1.15431 0
M  V30 3429 H 325.693 -1.98473 2.80113 0
M  V30 3430 N 328.138 -0.959301 -1.25041 0
M  V30 3431 C 329.101 -0.487677 -2.23952 0
M  V30 3432 C 330.101 0.41119 -1.55454 0
M  V30 3433 O 331.291 0.207825 -1.72956 0
M  V30 3434 C 328.423 0.294807 -3.39623 0
M  V30 3435 H 329.616 -1.36198 -2.67189 0
M  V30 3436 H 327.169 -0.743042 -1.37508 0
M  V30 3437 H 327.904 1.18658 -3.01813 0
M  V30 3438 H 327.689 -0.35012 -3.90534 0
M  V30 3439 H 329.179 0.614089 -4.1306 0
M  V30 3440 N 329.616 1.39756 -0.72842 0
M  V30 3441 C 330.864 2.00248 -0.272946 0
M  V30 3442 C 331.185 1.58077 1.14178 0
M  V30 3443 O 330.455 0.826014 1.77634 0
M  V30 3444 H 329.035 0.740554 -0.0979247 0
M  V30 3445 H 331.697 1.70903 -0.936912 0
M  V30 3446 H 330.793 3.10495 -0.316142 0
M  V30 3447 N 331.094 0.475555 1.50254 0
M  V30 3448 C 332.057 -0.305016 2.27161 0
M  V30 3449 C 333.057 -0.916519 1.32123 0
M  V30 3450 O 334.247 -0.785003 1.5551 0
M  V30 3451 C 331.379 -1.43496 3.09227 0
M  V30 3452 H 332.572 0.369511 2.97615 0
M  V30 3453 H 330.125 0.229747 1.54602 0
M  V30 3454 H 330.86 -2.14441 2.43281 0
M  V30 3455 H 330.645 -1.00223 3.79075 0
M  V30 3456 H 332.135 -1.98548 3.67381 0
M  V30 3457 N 332.573 -1.56217 0.208337 0
M  V30 3458 C 333.536 -2.18455 -0.693557 0
M  V30 3459 C 334.536 -1.14268 -1.13135 0
M  V30 3460 O 335.726 -1.39577 -1.0423 0
M  V30 3461 C 332.858 -2.79727 -1.94848 0
M  V30 3462 H 334.051 -2.99519 -0.15114 0
M  V30 3463 H 331.604 -1.56245 -0.041287 0
M  V30 3464 H 332.339 -2.02497 -2.53309 0
M  V30 3465 H 332.124 -3.56009 -1.64316 0
M  V30 3466 H 333.614 -3.27475 -2.59133 0
M  V30 3467 N 334.051 0.0651679 -1.57465 0
M  V30 3468 C 335.014 1.06117 -2.03155 0
M  V30 3469 C 336.014 1.31204 -0.929632 0
M  V30 3470 O 337.204 1.26813 -1.19432 0
M  V30 3471 C 334.336 2.4032 -2.41783 0
M  V30 3472 H 335.529 0.667231 -2.92383 0
M  V30 3473 H 333.082 0.311075 -1.53173 0
M  V30 3474 H 333.817 2.84532 -1.55601 0
M  V30 3475 H 333.602 2.23451 -3.22199 0
M  V30 3476 H 335.092 3.11898 -2.77685 0
M  V30 3477 N 335.529 1.53961 0.336706 0
M  V30 3478 C 336.492 1.81724 1.39675 0
M  V30 3479 C 337.492 0.688532 1.45313 0
M  V30 3480 O 338.682 0.956829 1.45569 0
M  V30 3481 C 335.814 1.96543 2.78538 0
M  V30 3482 H 337.007 2.76424 1.16318 0
M  V30 3483 H 334.56 1.45478 0.571474 0
M  V30 3484 H 335.295 1.0401 3.07168 0
M  V30 3485 H 335.08 2.78665 2.75841 0
M  V30 3486 H 336.57 2.19516 3.5525 0
M  V30 3487 N 337.007 -0.598083 1.45811 0
M  V30 3488 C 338.256 -1.35295 1.49594 0
M  V30 3489 C 338.569 -1.95057 0.145679 0
M  V30 3490 O 339.775 -2.71431 0.0612099 0
M  V30 3491 C 338.231 -2.45124 2.63519 0
M  V30 3492 C 337.839 -1.91732 4.04899 0
M  V30 3493 C 339.583 -3.2205 2.76558 0
M  V30 3494 C 337.49 -2.991 5.1019 0
M  V30 3495 H 336.42 -0.508552 0.556679 0
M  V30 3496 H 339.071 -0.639977 1.71978 0
M  V30 3497 H 337.453 -3.19149 2.34435 0
M  V30 3498 H 338.627 -1.24352 4.43704 0
M  V30 3499 H 336.942 -1.27522 3.96393 0
M  V30 3500 H 339.539 -4.0215 3.52391 0
M  V30 3501 H 339.882 -3.73663 1.83526 0
M  V30 3502 H 340.415 -2.55127 3.05213 0
M  V30 3503 H 337.154 -2.52393 6.04961 0
M  V30 3504 H 336.674 -3.65017 4.75944 0
M  V30 3505 H 338.353 -3.63318 5.35359 0
M  V30 3506 N 338.485 -1.33259 -0.841409 0
M  V30 3507 C 339.715 -1.2742 -1.62628 0
M  V30 3508 C 340.123 0.157604 -1.88542 0
M  V30 3509 O 339.466 1.10938 -1.46419 0
M  V30 3510 C 339.528 -1.97797 -3.00194 0
M  V30 3511 C 339.192 -3.47109 -2.97261 0
M  V30 3512 C 340.189 -4.42358 -2.73159 0
M  V30 3513 C 337.874 -3.89247 -3.17478 0
M  V30 3514 C 339.868 -5.77718 -2.69296 0
M  V30 3515 C 337.555 -5.24713 -3.13241 0
M  V30 3516 C 338.553 -6.1876 -2.89181 0
M  V30 3517 O 338.241 -7.51745 -2.84843 0
M  V30 3518 H 337.973 -0.440436 -0.512827 0
M  V30 3519 H 340.527 -1.76153 -1.05638 0
M  V30 3520 H 338.757 -1.43652 -3.59028 0
M  V30 3521 H 340.446 -1.8549 -3.61038 0
M  V30 3522 H 341.212 -4.11127 -2.57294 0
M  V30 3523 H 337.091 -3.16456 -3.35226 0
M  V30 3524 H 340.635 -6.51097 -2.50436 0
M  V30 3525 H 336.532 -5.55569 -3.28654 0
M  V30 3526 H 337.3 -7.61262 -3.00702 0
M  V30 3527 N 339.963 1.05934 -1.16686 0
M  V30 3528 C 341.188 1.83029 -0.975455 0
M  V30 3529 C 341.613 1.82096 0.471452 0
M  V30 3530 O 340.971 1.22443 1.33706 0
M  V30 3531 C 341.019 3.27372 -1.51195 0
M  V30 3532 O 340.123 4.06054 -0.720701 0
M  V30 3533 H 339.464 0.566194 -0.346872 0
M  V30 3534 H 341.994 1.33541 -1.55009 0
M  V30 3535 H 342.004 3.78186 -1.53099 0
M  V30 3536 H 340.679 3.27366 -2.56523 0
M  V30 3537 H 339.256 3.64812 -0.772458 0
M  V30 3538 N 341.441 0.965919 1.2453 0
M  V30 3539 C 342.404 0.499547 2.2369 0
M  V30 3540 C 343.404 -0.40294 1.5567 0
M  V30 3541 O 344.594 -0.19865 1.73064 0
M  V30 3542 C 341.726 -0.276792 3.39774 0
M  V30 3543 H 342.919 1.37613 2.66463 0
M  V30 3544 H 340.472 0.750324 1.37112 0
M  V30 3545 H 341.207 -1.17055 3.02438 0
M  V30 3546 H 340.992 0.370826 3.90343 0
M  V30 3547 H 342.482 -0.592175 4.1338 0
M  V30 3548 N 342.919 -1.39368 0.735821 0
M  V30 3549 C 344.335 -1.54204 0.411492 0
M  V30 3550 C 344.535 -1.70268 -1.07755 0
M  V30 3551 O 343.591 -1.70364 -1.86366 0
M  V30 3552 C 344.904 -2.75925 1.19523 0
M  V30 3553 C 346.452 -2.89761 1.18354 0
M  V30 3554 C 346.927 -4.14421 1.94986 0
M  V30 3555 N 348.418 -4.21462 1.92156 0
M  V30 3556 C 349.153 -5.16871 2.48258 0
M  V30 3557 N 348.649 -6.18063 3.13001 0
M  V30 3558 N 350.442 -5.09093 2.38287 0
M  V30 3559 H 342.593 -1.27189 1.70108 0
M  V30 3560 H 344.856 -0.616517 0.720147 0
M  V30 3561 H 344.562 -2.70401 2.24892 0
M  V30 3562 H 344.436 -3.68614 0.800222 0
M  V30 3563 H 346.823 -2.94777 0.137975 0
M  V30 3564 H 346.904 -1.98133 1.61793 0
M  V30 3565 H 346.548 -4.10166 2.99543 0
M  V30 3566 H 346.478 -5.05095 1.48953 0
M  V30 3567 H 348.969 -3.48979 1.44991 0
M  V30 3568 H 349.282 -6.87326 3.53275 0
M  V30 3569 H 347.627 -6.18448 3.17091 0
M  V30 3570 H 350.818 -4.28973 1.8735 0
M  V30 3571 H 350.991 -5.83272 2.82308 0
M  V30 3572 N 344.397 -0.483516 -1.5 0
M  V30 3573 C 345.344 0.304164 -2.28787 0
M  V30 3574 C 346.314 0.976114 -1.34392 0
M  V30 3575 O 347.499 0.986156 -1.63339 0
M  V30 3576 C 344.639 1.37298 -3.16612 0
M  V30 3577 C 343.752 0.714561 -4.26049 0
M  V30 3578 C 342.887 1.76232 -5.01114 0
M  V30 3579 C 341.926 1.08483 -6.0241 0
M  V30 3580 N 341.063 2.076 -6.70706 0
M  V30 3581 H 345.903 -0.373981 -2.95644 0
M  V30 3582 H 343.44 -0.196275 -1.45785 0
M  V30 3583 H 345.398 2.00445 -3.65893 0
M  V30 3584 H 344.028 2.02012 -2.51776 0
M  V30 3585 H 343.08 -0.0297798 -3.80388 0
M  V30 3586 H 344.392 0.180383 -4.98474 0
M  V30 3587 H 343.546 2.46929 -5.54176 0
M  V30 3588 H 342.285 2.33033 -4.28424 0
M  V30 3589 H 341.29 0.363545 -5.48597 0
M  V30 3590 H 342.515 0.523551 -6.77079 0
M  V30 3591 H 340.461 2.63394 -6.00799 0
M  V30 3592 H 340.378 1.59201 -7.39047 0
M  V30 3593 H 341.646 2.77639 -7.2838 0
M  V30 3594 N 345.875 1.56104 -0.216619 0
M  V30 3595 C 347.123 1.97781 0.415593 0
M  V30 3596 C 347.444 1.10536 1.60645 0
M  V30 3597 O 346.714 0.181303 1.95059 0
M  V30 3598 H 345.294 0.730415 0.156534 0
M  V30 3599 H 347.956 1.92445 -0.308366 0
M  V30 3600 H 347.052 3.03072 0.74525 0
M  V30 3601 N 347.353 -0.0568162 1.57498 0
M  V30 3602 C 348.602 -0.752001 1.87157 0
M  V30 3603 C 348.915 -1.77978 0.811375 0
M  V30 3604 O 350.121 -2.52559 0.996293 0
M  V30 3605 C 348.577 -1.38844 3.3204 0
M  V30 3606 C 348.185 -0.398456 4.46225 0
M  V30 3607 C 349.929 -2.06512 3.70882 0
M  V30 3608 C 347.836 -1.04166 5.82154 0
M  V30 3609 H 346.766 -0.28461 0.698222 0
M  V30 3610 H 349.417 -0.00561272 1.83499 0
M  V30 3611 H 347.799 -2.1836 3.30356 0
M  V30 3612 H 348.973 0.367977 4.59328 0
M  V30 3613 H 347.288 0.174592 4.16034 0
M  V30 3614 H 349.885 -2.55437 4.6974 0
M  V30 3615 H 350.228 -2.87117 3.01445 0
M  V30 3616 H 350.761 -1.33808 3.7462 0
M  V30 3617 H 347.5 -0.275614 6.5492 0
M  V30 3618 H 347.02 -1.7786 5.72823 0
M  V30 3619 H 348.699 -1.55715 6.27982 0
M  V30 3620 N 348.832 -1.54138 -0.328536 0
M  V30 3621 C 350.248 -1.44736 -0.672574 0
M  V30 3622 C 350.448 -0.616217 -1.91846 0
M  V30 3623 O 349.504 -0.113067 -2.52247 0
M  V30 3624 C 350.817 -2.884 -0.851217 0
M  V30 3625 C 352.365 -2.98271 -0.948877 0
M  V30 3626 C 352.84 -4.43074 -1.15973 0
M  V30 3627 N 354.331 -4.46665 -1.22658 0
M  V30 3628 C 355.066 -5.55857 -1.40751 0
M  V30 3629 N 354.562 -6.75026 -1.5592 0
M  V30 3630 N 356.355 -5.43495 -1.4342 0
M  V30 3631 H 348.506 -2.06661 0.490421 0
M  V30 3632 H 350.769 -0.934812 0.157579 0
M  V30 3633 H 350.475 -3.51699 -0.00704236 0
M  V30 3634 H 350.349 -3.34225 -1.74853 0
M  V30 3635 H 352.736 -2.35102 -1.78356 0
M  V30 3636 H 352.817 -2.55785 -0.0281435 0
M  V30 3637 H 352.461 -5.06827 -0.329915 0
M  V30 3638 H 352.391 -4.83165 -2.09426 0
M  V30 3639 H 354.882 -3.60797 -1.124 0
M  V30 3640 H 355.195 -7.54004 -1.69404 0
M  V30 3641 H 353.54 -6.77944 -1.53027 0
M  V30 3642 H 356.731 -4.49349 -1.31162 0
M  V30 3643 H 356.904 -6.28649 -1.57178 0
M  V30 3644 N 350.31 0.590341 -1.46126 0
M  V30 3645 C 351.538 1.37504 -1.54597 0
M  V30 3646 C 351.953 1.87897 -0.184447 0
M  V30 3647 O 351.31 1.63192 0.816984 0
M  V30 3648 C 351.361 2.56779 -2.54454 0
M  V30 3649 O 351.082 2.08476 -3.85317 0
M  V30 3650 C 352.583 3.49427 -2.72792 0
M  V30 3651 H 349.803 0.420325 -0.523037 0
M  V30 3652 H 352.347 0.718383 -1.91467 0
M  V30 3653 H 350.502 3.1845 -2.20609 0
M  V30 3654 H 350.916 2.86097 -4.396 0
M  V30 3655 H 352.39 4.29619 -3.466 0
M  V30 3656 H 352.867 4.00876 -1.79429 0
M  V30 3657 H 353.473 2.93598 -3.07702 0
M  V30 3658 N 351.788 1.33704 0.83433 0
M  V30 3659 C 353.036 1.25169 1.58673 0
M  V30 3660 C 353.357 -0.18127 1.94156 0
M  V30 3661 O 352.627 -1.11113 1.6134 0
M  V30 3662 H 351.207 0.4603 0.58833 0
M  V30 3663 H 353.869 1.67478 0.996847 0
M  V30 3664 H 352.965 1.84856 2.51465 0
M  V30 3665 N 353.266 -1.05314 1.17247 0
M  V30 3666 C 354.196 -2.1498 0.911362 0
M  V30 3667 C 355.177 -1.69471 -0.146169 0
M  V30 3668 O 356.362 -1.942 0.003812 0
M  V30 3669 C 353.492 -3.4472 0.422528 0
M  V30 3670 C 352.446 -4.03789 1.4191 0
M  V30 3671 C 351.772 -5.28858 0.788274 0
M  V30 3672 C 353.072 -4.41418 2.7919 0
M  V30 3673 H 354.766 -2.3708 1.82848 0
M  V30 3674 H 352.312 -1.13938 0.880569 0
M  V30 3675 H 354.265 -4.20787 0.227289 0
M  V30 3676 H 352.989 -3.22269 -0.530123 0
M  V30 3677 H 351.648 -3.2979 1.60106 0
M  V30 3678 H 351.296 -5.02709 -0.171173 0
M  V30 3679 H 350.996 -5.69338 1.45353 0
M  V30 3680 H 352.52 -6.07612 0.603282 0
M  V30 3681 H 353.934 -5.08524 2.64719 0
M  V30 3682 H 352.331 -4.92913 3.42282 0
M  V30 3683 H 353.401 -3.51819 3.33693 0
M  V30 3684 N 354.744 -0.972509 -1.24016 0
M  V30 3685 C 355.677 -0.45117 -2.23696 0
M  V30 3686 C 356.655 0.477378 -1.55434 0
M  V30 3687 O 357.839 0.407647 -1.84039 0
M  V30 3688 C 354.966 0.34818 -3.36906 0
M  V30 3689 C 354.012 -0.523355 -4.23277 0
M  V30 3690 S 354.845 -1.96647 -4.98087 0
M  V30 3691 C 356.001 -1.17604 -6.14752 0
M  V30 3692 H 356.234 -1.29588 -2.67571 0
M  V30 3693 H 353.767 -0.777903 -1.33372 0
M  V30 3694 H 355.725 0.803387 -4.02562 0
M  V30 3695 H 354.386 1.16792 -2.91579 0
M  V30 3696 H 353.579 0.0906181 -5.03919 0
M  V30 3697 H 353.181 -0.914485 -3.62647 0
M  V30 3698 H 355.473 -0.433434 -6.76112 0
M  V30 3699 H 356.416 -1.95701 -6.8052 0
M  V30 3700 H 356.824 -0.698295 -5.60164 0
M  V30 3701 N 356.222 1.38976 -0.743202 0
M  V30 3702 C 357.47 1.99948 -0.29417 0
M  V30 3703 C 357.791 1.59279 1.12495 0
M  V30 3704 O 357.061 0.844808 1.76748 0
M  V30 3705 H 355.641 0.739473 -0.105774 0
M  V30 3706 H 358.303 1.699 -0.954986 0
M  V30 3707 H 357.399 3.10142 -0.349056 0
M  V30 3708 N 357.7 0.491464 1.49741 0
M  V30 3709 C 358.61 -0.296835 2.32715 0
M  V30 3710 C 359.626 -0.976536 1.44013 0
M  V30 3711 O 360.802 -0.960023 1.77047 0
M  V30 3712 C 357.867 -1.35288 3.19215 0
M  V30 3713 C 356.928 -0.687632 4.23757 0
M  V30 3714 C 356.161 -1.69336 5.06123 0
M  V30 3715 O 356.384 -2.92219 4.89861 0
M  V30 3716 O 355.318 -1.25394 5.88693 0
M  V30 3717 H 359.144 0.382048 3.01287 0
M  V30 3718 H 356.729 0.252953 1.47243 0
M  V30 3719 H 358.611 -1.96411 3.72828 0
M  V30 3720 H 357.286 -2.01487 2.53347 0
M  V30 3721 H 356.193 -0.0369159 3.74082 0
M  V30 3722 H 357.526 -0.0682566 4.92153 0
M  V30 3723 N 359.178 -1.55987 0.224894 0
M  V30 3724 C 360.594 -1.59066 -0.130426 0
M  V30 3725 C 360.794 -1.24176 -1.5869 0
M  V30 3726 O 359.85 -0.978592 -2.32766 0
M  V30 3727 C 361.163 -3.00042 0.198883 0
M  V30 3728 C 362.711 -3.1268 0.141391 0
M  V30 3729 C 363.186 -4.55839 0.444422 0
M  V30 3730 N 364.677 -4.6152 0.394115 0
M  V30 3731 C 365.412 -5.70231 0.602038 0
M  V30 3732 N 364.908 -6.87291 0.871914 0
M  V30 3733 N 366.701 -5.59555 0.534245 0
M  V30 3734 H 358.852 -1.76941 1.17497 0
M  V30 3735 H 361.115 -0.822604 0.471197 0
M  V30 3736 H 360.821 -3.30234 1.2099 0
M  V30 3737 H 360.695 -3.74075 -0.484535 0
M  V30 3738 H 363.082 -2.82283 -0.860265 0
M  V30 3739 H 363.163 -2.40969 0.858335 0
M  V30 3740 H 362.807 -4.86954 1.44353 0
M  V30 3741 H 362.737 -5.2578 -0.293752 0
M  V30 3742 H 365.228 -3.77405 0.193356 0
M  V30 3743 H 365.541 -7.66058 1.01858 0
M  V30 3744 H 363.886 -6.89028 0.909145 0
M  V30 3745 H 367.077 -4.6698 0.323612 0
M  V30 3746 H 367.25 -6.44211 0.699693 0
M  V30 3747 N 360.656 0.0484629 -1.57525 0
M  V30 3748 C 361.903 0.743125 -1.88372 0
M  V30 3749 C 362.231 1.76383 -0.819715 0
M  V30 3750 O 361.486 1.94855 0.181659 0
M  V30 3751 C 361.785 1.46632 -3.25935 0
M  V30 3752 C 361.451 0.583427 -4.4711 0
M  V30 3753 C 360.113 0.340191 -4.79996 0
M  V30 3754 C 362.465 -0.0273345 -5.21193 0
M  V30 3755 C 359.793 -0.522903 -5.84365 0
M  V30 3756 C 362.145 -0.878017 -6.26477 0
M  V30 3757 C 360.809 -1.1309 -6.5785 0
M  V30 3758 H 360.079 0.271929 -0.689301 0
M  V30 3759 H 362.726 0.00336166 -1.915 0
M  V30 3760 H 361.031 2.2789 -3.18706 0
M  V30 3761 H 362.728 2.00902 -3.47044 0
M  V30 3762 H 359.318 0.783151 -4.21384 0
M  V30 3763 H 363.502 0.147654 -4.9608 0
M  V30 3764 H 358.758 -0.727335 -6.07058 0
M  V30 3765 H 362.932 -1.35789 -6.83033 0
M  V30 3766 H 360.559 -1.80144 -7.38547 0
M  V30 3767 N 362.134 1.5431 0.320358 0
M  V30 3768 C 363.382 1.72327 1.05583 0
M  V30 3769 C 363.703 0.50149 1.88441 0
M  V30 3770 O 362.973 -0.48448 1.89815 0
M  V30 3771 H 361.553 0.635387 0.3928 0
M  V30 3772 H 364.215 1.91621 0.356019 0
M  V30 3773 H 363.311 2.60426 1.72003 0
M  V30 3774 N 363.613 -0.582584 1.46437 0
M  V30 3775 C 364.861 -1.33814 1.51453 0
M  V30 3776 C 365.182 -1.94277 0.167792 0
M  V30 3777 O 364.452 -1.78566 -0.805677 0
M  V30 3778 H 363.032 -0.496838 0.557818 0
M  V30 3779 H 365.694 -0.682281 1.82568 0
M  V30 3780 H 364.79 -2.14479 2.26728 0
M  V30 3781 N 365.091 -1.34144 -0.827227 0
M  V30 3782 C 366.023 -1.21206 -1.9453 0
M  V30 3783 C 367.036 -0.140176 -1.62195 0
M  V30 3784 O 368.225 -0.391647 -1.7415 0
M  V30 3785 C 365.325 -0.839141 -3.28347 0
M  V30 3786 C 364.498 -2.0051 -3.88734 0
M  V30 3787 C 363.557 -1.61128 -5.00923 0
M  V30 3788 O 362.583 -2.32726 -5.19449 0
M  V30 3789 N 363.785 -0.522958 -5.7814 0
M  V30 3790 H 366.55 -2.17525 -2.06162 0
M  V30 3791 H 364.111 -1.27043 -1.00358 0
M  V30 3792 H 366.103 -0.557556 -4.00841 0
M  V30 3793 H 364.673 0.0337293 -3.12582 0
M  V30 3794 H 363.893 -2.45166 -3.08686 0
M  V30 3795 H 365.181 -2.78498 -4.25812 0
M  V30 3796 H 364.579 0.0723518 -5.65654 0
M  V30 3797 H 363.136 -0.301089 -6.51104 0
M  V30 3798 N 366.569 1.04691 -1.17803 0
M  V30 3799 C 367.818 1.77176 -0.963931 0
M  V30 3800 C 368.131 1.88888 0.508015 0
M  V30 3801 O 369.337 2.58164 0.840465 0
M  V30 3802 C 367.793 3.18518 -1.67555 0
M  V30 3803 C 367.401 3.14919 -3.18637 0
M  V30 3804 C 369.145 3.95424 -1.54402 0
M  V30 3805 C 367.052 4.51081 -3.82466 0
M  V30 3806 H 365.982 0.664116 -0.357023 0
M  V30 3807 H 368.633 1.17303 -1.4111 0
M  V30 3808 H 367.015 3.78748 -1.15613 0
M  V30 3809 H 368.189 2.64178 -3.77554 0
M  V30 3810 H 366.504 2.51512 -3.31859 0
M  V30 3811 H 369.101 4.96106 -1.99456 0
M  V30 3812 H 369.444 4.13343 -0.495329 0
M  V30 3813 H 369.977 3.41754 -2.0359 0
M  V30 3814 H 366.716 4.38368 -4.87354 0
M  V30 3815 H 366.236 5.01951 -3.28337 0
M  V30 3816 H 367.915 5.2001 -3.84965 0
M  V30 3817 N 368.047 0.979072 1.23499 0
M  V30 3818 C 368.977 0.537606 2.27227 0
M  V30 3819 C 369.958 -0.428539 1.64613 0
M  V30 3820 O 371.143 -0.322191 1.91509 0
M  V30 3821 C 368.273 -0.162052 3.46922 0
M  V30 3822 C 367.227 0.721242 4.21879 0
M  V30 3823 C 366.553 -0.110555 5.34586 0
M  V30 3824 C 367.853 2.01141 4.82016 0
M  V30 3825 H 369.547 1.40462 2.64406 0
M  V30 3826 H 367.093 0.67684 1.27102 0
M  V30 3827 H 369.046 -0.482192 4.18632 0
M  V30 3828 H 367.77 -1.06351 3.08799 0
M  V30 3829 H 366.429 1.02482 3.51984 0
M  V30 3830 H 366.077 -1.0125 4.92704 0
M  V30 3831 H 365.777 0.477325 5.85658 0
M  V30 3832 H 367.301 -0.425107 6.09118 0
M  V30 3833 H 368.715 1.75612 5.45741 0
M  V30 3834 H 367.112 2.54695 5.43369 0
M  V30 3835 H 368.182 2.69909 4.02836 0
M  V30 3836 N 369.525 -1.3858 0.750561 0
M  V30 3837 C 370.802 -1.94231 0.231009 0
M  V30 3838 C 371.182 -1.68611 -1.27018 0
M  V30 3839 O 370.53 -1.02296 -2.04323 0
M  V30 3840 C 370.74 -3.44123 0.581428 0
M  V30 3841 C 372.088 -4.2116 0.539389 0
M  V30 3842 O 373.112 -3.52391 0.519541 0
M  V30 3843 O 371.971 -5.43749 0.54765 0
M  V30 3844 H 369.065 -0.825639 0.0474263 0
M  V30 3845 H 371.611 -1.4799 0.830478 0
M  V30 3846 H 370.383 -3.56267 1.61833 0
M  V30 3847 H 370.006 -3.97573 -0.0462047 0
M  V30 3848 N 371.003 -0.499398 -1.49478 0
M  V30 3849 C 372.231 0.0425456 -2.06856 0
M  V30 3850 C 372.646 1.30964 -1.35992 0
M  V30 3851 O 372.003 1.77172 -0.437762 0
M  V30 3852 C 372.054 0.301735 -3.60239 0
M  V30 3853 O 371.775 -0.915127 -4.28436 0
M  V30 3854 C 373.276 0.887499 -4.34325 0
M  V30 3855 H 370.496 -0.0197482 -0.670709 0
M  V30 3856 H 373.04 -0.696297 -1.92281 0
M  V30 3857 H 371.195 0.990556 -3.74522 0
M  V30 3858 H 371.609 -0.676993 -5.20113 0
M  V30 3859 H 373.083 1.01845 -5.42523 0
M  V30 3860 H 373.56 1.88488 -3.96698 0
M  V30 3861 H 374.166 0.236196 -4.24644 0
M  V30 3862 N 372.481 1.55866 -0.233164 0
M  V30 3863 C 373.727 1.98897 0.395959 0
M  V30 3864 C 374.06 1.12091 1.58585 0
M  V30 3865 O 373.335 0.181182 1.93654 0
M  V30 3866 C 373.618 3.50658 0.819224 0
M  V30 3867 C 373.471 4.48233 -0.375109 0
M  V30 3868 C 374.79 4.07135 1.67121 0
M  V30 3869 H 371.909 0.723102 0.142451 0
M  V30 3870 H 374.551 1.87082 -0.331725 0
M  V30 3871 H 372.701 3.60857 1.43925 0
M  V30 3872 H 374.373 4.50031 -1.01341 0
M  V30 3873 H 372.616 4.21624 -1.02058 0
M  V30 3874 H 373.287 5.51988 -0.0358328 0
M  V30 3875 H 375.763 3.99952 1.14795 0
M  V30 3876 H 374.639 5.13615 1.93625 0
M  V30 3877 H 374.9 3.54736 2.63846 0
M  V30 3878 N 373.959 -0.0401083 1.57549 0
M  V30 3879 C 375.236 -0.767917 1.79896 0
M  V30 3880 C 375.616 -1.9416 0.82856 0
M  V30 3881 O 374.964 -2.2812 -0.131671 0
M  V30 3882 C 375.174 -1.2113 3.27305 0
M  V30 3883 C 376.522 -1.63175 3.91994 0
M  V30 3884 O 377.546 -1.30616 3.31388 0
M  V30 3885 O 376.405 -2.23565 4.98679 0
M  V30 3886 H 373.499 -0.370441 0.739393 0
M  V30 3887 H 376.045 -0.017737 1.69691 0
M  V30 3888 H 374.817 -0.372937 3.89519 0
M  V30 3889 H 374.44 -2.02183 3.42356 0
M  V30 3890 N 375.437 -1.54477 -0.31217 0
M  V30 3891 C 376.686 -1.72438 -1.04633 0
M  V30 3892 C 376.999 -0.511163 -1.88803 0
M  V30 3893 O 378.205 -0.572341 -2.65399 0
M  V30 3894 C 376.661 -3.05043 -1.9099 0
M  V30 3895 C 376.269 -4.33806 -1.11877 0
M  V30 3896 C 378.013 -3.32364 -2.64073 0
M  V30 3897 C 375.92 -5.57467 -1.97445 0
M  V30 3898 H 374.85 -0.642647 -0.394361 0
M  V30 3899 H 377.501 -1.80966 -0.303929 0
M  V30 3900 H 375.883 -2.90451 -2.69173 0
M  V30 3901 H 377.057 -4.59199 -0.383843 0
M  V30 3902 H 375.372 -4.13336 -0.504252 0
M  V30 3903 H 377.969 -4.21951 -3.28423 0
M  V30 3904 H 378.312 -2.50745 -3.32314 0
M  V30 3905 H 378.845 -3.47875 -1.92944 0
M  V30 3906 H 375.584 -6.41722 -1.33692 0
M  V30 3907 H 375.104 -5.36277 -2.6864 0
M  V30 3908 H 376.783 -5.94303 -2.5576 0
M  V30 3909 N 376.915 0.57481 -1.46744 0
M  V30 3910 C 377.825 1.711 -1.60505 0
M  V30 3911 C 378.841 1.67008 -0.488307 0
M  V30 3912 O 380.017 1.86774 -0.753495 0
M  V30 3913 C 377.082 3.07608 -1.59932 0
M  V30 3914 C 376.143 3.22904 -2.82898 0
M  V30 3915 C 375.376 4.529 -2.82343 0
M  V30 3916 O 375.599 5.37278 -1.91542 0
M  V30 3917 O 374.533 4.71611 -3.73987 0
M  V30 3918 H 378.359 1.62436 -2.56609 0
M  V30 3919 H 375.944 0.742779 -1.29627 0
M  V30 3920 H 377.826 3.88877 -1.62336 0
M  V30 3921 H 376.501 3.16692 -0.669898 0
M  V30 3922 H 375.408 2.41099 -2.86046 0
M  V30 3923 H 376.741 3.18715 -3.75076 0
M  V30 3924 N 378.394 1.34581 0.820102 0
M  V30 3925 C 379.342 1.26401 1.95258 0
M  V30 3926 C 380.336 0.161553 1.68628 0
M  V30 3927 O 381.542 0.326703 1.7701 0
M  V30 3928 H 377.917 0.392749 0.64129 0
M  V30 3929 H 379.888 2.22105 1.99279 0
M  V30 3930 C 378.637 1.03919 3.31807 0
M  V30 3931 H 377.96 1.87984 3.52848 0
M  V30 3932 H 379.4 1.02232 4.11491 0
M  V30 3933 C 377.859 -0.257433 3.35915 0
M  V30 3934 O 378.389 -1.25784 3.81499 0
M  V30 3935 N 376.595 -0.291524 2.89134 0
M  V30 3936 H 376.142 0.523161 2.52232 0
M  V30 3937 H 376.1 -1.15883 2.92264 0
M  V30 3938 N 379.872 -1.04064 1.18357 0
M  V30 3939 C 381.102 -1.80654 1.00238 0
M  V30 3940 C 381.51 -1.83713 -0.452362 0
M  V30 3941 O 380.853 -1.27135 -1.32599 0
M  V30 3942 C 380.915 -3.27582 1.48088 0
M  V30 3943 C 380.579 -3.48184 2.96002 0
M  V30 3944 C 381.576 -3.39372 3.93856 0
M  V30 3945 C 379.261 -3.7478 3.34433 0
M  V30 3946 C 381.255 -3.5686 5.28138 0
M  V30 3947 C 378.942 -3.91915 4.68877 0
M  V30 3948 C 379.94 -3.82956 5.65539 0
M  V30 3949 O 379.628 -3.996 6.97549 0
M  V30 3950 H 379.36 -0.575751 0.354241 0
M  V30 3951 H 381.914 -1.32044 1.57333 0
M  V30 3952 H 380.144 -3.77161 0.853588 0
M  V30 3953 H 381.833 -3.8573 1.2636 0
M  V30 3954 H 382.599 -3.18789 3.65511 0
M  V30 3955 H 378.478 -3.80852 2.59756 0
M  V30 3956 H 382.022 -3.49783 6.03571 0
M  V30 3957 H 377.919 -4.11992 4.96923 0
M  V30 3958 H 378.687 -4.1676 7.04452 0
M  V30 3959 N 381.35 -0.985608 -1.22978 0
M  V30 3960 C 382.599 -0.652881 -1.90841 0
M  V30 3961 C 382.912 0.817842 -1.77681 0
M  V30 3962 O 384.118 1.26185 -2.40395 0
M  V30 3963 C 382.574 -1.11717 -3.42122 0
M  V30 3964 C 382.182 -2.6126 -3.63933 0
M  V30 3965 C 383.926 -0.85843 -4.1573 0
M  V30 3966 C 381.833 -3.0133 -5.08876 0
M  V30 3967 H 380.763 -0.240491 -0.714619 0
M  V30 3968 H 383.414 -1.1942 -1.39324 0
M  V30 3969 H 381.796 -0.504027 -3.92779 0
M  V30 3970 H 382.97 -3.27858 -3.23799 0
M  V30 3971 H 381.285 -2.84937 -3.03644 0
M  V30 3972 H 383.882 -1.13359 -5.22546 0
M  V30 3973 H 384.225 0.205461 -4.15793 0
M  V30 3974 H 384.758 -1.43341 -3.71077 0
M  V30 3975 H 381.497 -4.06864 -5.13947 0
M  V30 3976 H 381.017 -2.3943 -5.49939 0
M  V30 3977 H 382.696 -2.92224 -5.77247 0
M  V30 3978 N 382.828 1.3818 -0.7579 0
M  V30 3979 C 384.053 2.04827 -0.325679 0
M  V30 3980 C 384.478 1.56788 1.03919 0
M  V30 3981 O 383.836 0.721811 1.66312 0
M  V30 3982 C 383.884 3.58774 -0.362447 0
M  V30 3983 O 382.988 4.07372 0.642033 0
M  V30 3984 H 382.329 0.64833 -0.143402 0
M  V30 3985 H 384.859 1.7677 -1.03023 0
M  V30 3986 H 384.869 4.07434 -0.214844 0
M  V30 3987 H 383.544 3.93096 -1.35824 0
M  V30 3988 H 382.121 3.70068 0.458688 0
M  V30 3989 N 384.306 0.507319 1.49211 0
M  V30 3990 C 385.552 -0.0350047 2.0277 0
M  V30 3991 C 385.885 -1.3606 1.38569 0
M  V30 3992 O 385.16 -1.87321 0.523542 0
M  V30 3993 C 385.443 -0.180916 3.59645 0
M  V30 3994 C 385.296 1.16825 4.34364 0
M  V30 3995 C 386.615 -0.918558 4.30407 0
M  V30 3996 H 383.734 -0.0112473 0.736914 0
M  V30 3997 H 386.376 0.659956 1.7817 0
M  V30 3998 H 384.526 -0.772826 3.80736 0
M  V30 3999 H 386.198 1.79952 4.24753 0
M  V30 4000 H 384.441 1.75594 3.96673 0
M  V30 4001 H 385.112 1.01939 5.42506 0
M  V30 4002 H 387.588 -0.41649 4.1401 0
M  V30 4003 H 386.464 -0.989505 5.39907 0
M  V30 4004 H 386.725 -1.96373 3.96093 0
M  V30 4005 N 385.784 -1.5574 0.241426 0
M  V30 4006 C 387.195 -1.84842 -0.262755 0
M  V30 4007 C 387.546 -1.16317 -1.58003 0
M  V30 4008 O 386.671 -0.439653 -2.11887 0
M  V30 4009 C 387.266 -3.35332 -0.483523 0
M  V30 4010 C 385.825 -3.6468 -0.931977 0
M  V30 4011 C 384.972 -2.77299 -0.0061151 0
M  V30 4012 H 387.923 -1.51761 0.464129 0
M  V30 4013 H 387.944 -3.56615 -1.32688 0
M  V30 4014 H 387.456 -3.85178 0.47537 0
M  V30 4015 H 385.557 -3.20307 -1.90353 0
M  V30 4016 H 385.67 -4.72498 -0.792628 0
M  V30 4017 H 384.034 -2.49408 -0.516503 0
M  V30 4018 H 384.817 -3.2995 0.948052 0
M  V30 4019 N 387.262 0.0317525 -1.57568 0
M  V30 4020 C 388.209 1.0332 -2.06382 0
M  V30 4021 C 389.179 1.36082 -0.952414 0
M  V30 4022 O 390.364 1.46466 -1.2228 0
M  V30 4023 C 387.504 2.32989 -2.54578 0
M  V30 4024 C 386.617 2.0641 -3.79498 0
M  V30 4025 C 385.752 3.2993 -4.16317 0
M  V30 4026 C 384.791 2.98893 -5.34162 0
M  V30 4027 N 383.928 4.14857 -5.66426 0
M  V30 4028 H 388.768 0.609982 -2.9169 0
M  V30 4029 H 386.305 0.289573 -1.44222 0
M  V30 4030 H 388.263 3.0875 -2.80587 0
M  V30 4031 H 386.893 2.73039 -1.7219 0
M  V30 4032 H 385.945 1.21158 -3.6059 0
M  V30 4033 H 387.257 1.79513 -4.65378 0
M  V30 4034 H 386.411 4.1406 -4.4344 0
M  V30 4035 H 385.15 3.59938 -3.29083 0
M  V30 4036 H 384.155 2.13164 -5.06795 0
M  V30 4037 H 385.38 2.70165 -6.23047 0
M  V30 4038 H 383.326 4.44821 -4.82151 0
M  V30 4039 H 383.243 3.91374 -6.4681 0
M  V30 4040 H 384.511 4.99868 -5.98124 0
M  V30 4041 N 388.74 1.54641 0.303973 0
M  V30 4042 C 389.968 1.77768 1.05858 0
M  V30 4043 C 390.383 0.535722 1.8104 0
M  V30 4044 O 389.74 -0.494337 1.75677 0
M  V30 4045 C 389.791 2.9834 2.04146 0
M  V30 4046 O 389.512 4.17736 1.32015 0
M  V30 4047 C 391.013 3.33832 2.91669 0
M  V30 4048 H 388.233 0.592961 0.314067 0
M  V30 4049 H 390.777 2.01583 0.344149 0
M  V30 4050 H 388.932 2.76742 2.71096 0
M  V30 4051 H 389.346 4.85693 1.97998 0
M  V30 4052 H 390.82 4.21448 3.56491 0
M  V30 4053 H 391.297 2.51857 3.59812 0
M  V30 4054 H 391.903 3.57579 2.30254 0
M  V30 4055 N 390.218 -0.567019 1.47046 0
M  V30 4056 C 391.128 -1.70247 1.6141 0
M  V30 4057 C 392.144 -1.66746 0.497157 0
M  V30 4058 O 393.32 -1.86371 0.763389 0
M  V30 4059 C 390.385 -3.06756 1.61561 0
M  V30 4060 C 389.446 -3.21399 2.84607 0
M  V30 4061 C 388.679 -4.51396 2.84741 0
M  V30 4062 O 388.902 -5.36255 1.94388 0
M  V30 4063 O 387.836 -4.69621 3.76483 0
M  V30 4064 H 391.662 -1.61073 2.57467 0
M  V30 4065 H 389.247 -0.735894 1.30019 0
M  V30 4066 H 391.129 -3.8801 1.64396 0
M  V30 4067 H 389.804 -3.16333 0.686684 0
M  V30 4068 H 388.711 -2.39579 2.8732 0
M  V30 4069 H 390.044 -3.16721 3.76761 0
M  V30 4070 N 391.696 -1.35014 -0.812953 0
M  V30 4071 C 392.944 -1.27678 -1.56661 0
M  V30 4072 C 393.265 0.150359 -1.94419 0
M  V30 4073 O 392.535 1.08532 -1.63088 0
M  V30 4074 H 391.115 -0.469602 -0.580933 0
M  V30 4075 H 393.777 -1.69043 -0.970076 0
M  V30 4076 H 392.873 -1.88833 -2.48492 0
M  V30 4077 N 393.175 1.03435 -1.18907 0
M  V30 4078 C 394.107 2.1165 -0.879595 0
M  V30 4079 C 395.12 1.62316 0.125439 0
M  V30 4080 O 396.309 1.78201 -0.103245 0
M  V30 4081 C 393.409 3.37622 -0.294042 0
M  V30 4082 C 392.582 4.16166 -1.34629 0
M  V30 4083 C 391.641 5.20457 -0.775274 0
M  V30 4084 O 390.667 5.50379 -1.4516 0
M  V30 4085 N 391.869 5.78949 0.424126 0
M  V30 4086 H 394.634 2.38791 -1.81105 0
M  V30 4087 H 392.195 1.19681 -1.09032 0
M  V30 4088 H 394.187 4.04572 0.101679 0
M  V30 4089 H 392.757 3.07873 0.541575 0
M  V30 4090 H 391.977 3.44444 -1.91707 0
M  V30 4091 H 393.265 4.65432 -2.05549 0
M  V30 4092 H 392.663 5.56948 0.991209 0
M  V30 4093 H 391.22 6.47334 0.761691 0
M  V30 4094 N 394.653 0.992116 1.22453 0
M  V30 4095 C 395.6 0.541731 2.24352 0
M  V30 4096 C 396.57 -0.425519 1.60557 0
M  V30 4097 O 397.755 -0.330453 1.87917 0
M  V30 4098 C 394.895 -0.138248 3.44823 0
M  V30 4099 C 394.008 0.870649 4.23136 0
M  V30 4100 C 393.143 0.164269 5.30946 0
M  V30 4101 C 392.182 1.16159 6.00977 0
M  V30 4102 N 391.319 0.483568 7.00433 0
M  V30 4103 H 396.159 1.41541 2.62241 0
M  V30 4104 H 393.696 0.709013 1.28885 0
M  V30 4105 H 395.654 -0.5494 4.13567 0
M  V30 4106 H 394.284 -0.975721 3.077 0
M  V30 4107 H 393.336 1.40013 3.53696 0
M  V30 4108 H 394.648 1.63014 4.7141 0
M  V30 4109 H 393.802 -0.303653 6.0594 0
M  V30 4110 H 392.541 -0.627733 4.83643 0
M  V30 4111 H 391.546 1.64015 5.24766 0
M  V30 4112 H 392.771 1.95445 6.50368 0
M  V30 4113 H 390.717 -0.289012 6.55363 0
M  V30 4114 H 390.634 1.18152 7.4671 0
M  V30 4115 H 391.902 0.0384219 7.79491 0
M  V30 4116 N 396.131 -1.37776 0.765217 0
M  V30 4117 C 397.061 -2.32945 0.160953 0
M  V30 4118 C 398.042 -1.55454 -0.690516 0
M  V30 4119 O 399.227 -1.83721 -0.629318 0
M  V30 4120 C 396.357 -3.39669 -0.724031 0
M  V30 4121 C 395.311 -4.27992 0.0256173 0
M  V30 4122 C 394.637 -5.25673 -0.978383 0
M  V30 4123 C 395.937 -5.08309 1.20082 0
M  V30 4124 H 397.631 -2.83728 0.955969 0
M  V30 4125 H 395.177 -1.36416 0.461149 0
M  V30 4126 H 397.13 -4.05219 -1.15652 0
M  V30 4127 H 395.854 -2.87396 -1.5515 0
M  V30 4128 H 394.513 -3.63964 0.438812 0
M  V30 4129 H 394.161 -4.69682 -1.80022 0
M  V30 4130 H 393.861 -5.85625 -0.481378 0
M  V30 4131 H 395.385 -5.94098 -1.40995 0
M  V30 4132 H 396.799 -5.67034 0.845307 0
M  V30 4133 H 395.196 -5.77554 1.62947 0
M  V30 4134 H 396.266 -4.41365 2.00811 0
M  V30 4135 N 397.609 -0.515225 -1.4894 0
M  V30 4136 C 398.572 0.244681 -2.2789 0
M  V30 4137 C 399.572 0.881166 -1.34507 0
M  V30 4138 O 400.762 0.743497 -1.57537 0
M  V30 4139 C 397.894 1.35247 -3.12923 0
M  V30 4140 H 399.087 -0.448289 -2.96531 0
M  V30 4141 H 396.64 -0.270656 -1.53939 0
M  V30 4142 H 397.375 2.07916 -2.48881 0
M  V30 4143 H 397.16 0.901374 -3.81599 0
M  V30 4144 H 398.65 1.88737 -3.72516 0
M  V30 4145 N 399.087 1.5561 -0.249682 0
M  V30 4146 C 400.335 1.98618 0.373548 0
M  V30 4147 C 400.656 1.13919 1.58264 0
M  V30 4148 O 399.926 0.222637 1.94631 0
M  V30 4149 H 398.506 0.733571 0.141006 0
M  V30 4150 H 401.168 1.91748 -0.349117 0
M  V30 4151 H 400.264 3.04584 0.680796 0
M  V30 4152 N 400.565 -0.0233959 1.57583 0
M  V30 4153 C 401.528 -1.00693 2.05897 0
M  V30 4154 C 402.528 -1.28693 0.964092 0
M  V30 4155 O 403.718 -1.23602 1.22753 0
M  V30 4156 C 400.85 -2.33825 2.4807 0
M  V30 4157 H 402.043 -0.589476 2.9405 0
M  V30 4158 H 399.596 -0.270354 1.53944 0
M  V30 4159 H 400.331 -2.80307 1.6309 0
M  V30 4160 H 400.116 -2.1483 3.2801 0
M  V30 4161 H 401.606 -3.04426 2.85857 0
M  V30 4162 N 402.043 -1.548 -0.295768 0
M  V30 4163 C 402.973 -1.89115 -1.36959 0
M  V30 4164 C 403.954 -0.75059 -1.52644 0
M  V30 4165 O 405.139 -1.00678 -1.66065 0
M  V30 4166 C 402.269 -2.14307 -2.73295 0
M  V30 4167 C 401.223 -3.30151 -2.72368 0
M  V30 4168 C 400.549 -3.40772 -4.12042 0
M  V30 4169 C 401.849 -4.67126 -2.33646 0
M  V30 4170 H 403.543 -2.79053 -1.08488 0
M  V30 4171 H 401.089 -1.34266 -0.520443 0
M  V30 4172 H 403.042 -2.36898 -3.48507 0
M  V30 4173 H 401.766 -1.21145 -3.03301 0
M  V30 4174 H 400.425 -3.0749 -1.99613 0
M  V30 4175 H 400.073 -2.45117 -4.39234 0
M  V30 4176 H 399.773 -4.18645 -4.12322 0
M  V30 4177 H 401.297 -3.6563 -4.89027 0
M  V30 4178 H 402.711 -4.89414 -2.98575 0
M  V30 4179 H 401.108 -5.47751 -2.45129 0
M  V30 4180 H 402.178 -4.67489 -1.28772 0
M  V30 4181 N 403.521 0.559213 -1.47345 0
M  V30 4182 C 404.468 1.66645 -1.59682 0
M  V30 4183 C 405.438 1.60168 -0.43994 0
M  V30 4184 O 406.623 1.79031 -0.659736 0
M  V30 4185 C 403.763 3.04969 -1.61518 0
M  V30 4186 C 402.876 3.21897 -2.88108 0
M  V30 4187 C 402.011 4.50608 -2.81294 0
M  V30 4188 C 401.05 4.60961 -4.02717 0
M  V30 4189 N 400.187 5.81024 -3.94151 0
M  V30 4190 H 405.027 1.55439 -2.54249 0
M  V30 4191 H 402.564 0.757219 -1.26113 0
M  V30 4192 H 404.522 3.85064 -1.60566 0
M  V30 4193 H 403.152 3.15015 -0.704645 0
M  V30 4194 H 402.204 2.35248 -2.98936 0
M  V30 4195 H 403.516 3.25412 -3.78032 0
M  V30 4196 H 402.67 5.3896 -2.7858 0
M  V30 4197 H 401.409 4.49568 -1.89049 0
M  V30 4198 H 400.414 3.71021 -4.05738 0
M  V30 4199 H 401.639 4.63761 -4.96087 0
M  V30 4200 H 399.585 5.80938 -3.04708 0
M  V30 4201 H 399.502 5.85909 -4.77752 0
M  V30 4202 H 400.77 6.71744 -3.9545 0
M  V30 4203 N 404.999 1.35443 0.805782 0
M  V30 4204 C 406.245 1.28952 1.56522 0
M  V30 4205 C 406.578 -0.135597 1.93726 0
M  V30 4206 O 405.853 -1.08516 1.61414 0
M  V30 4207 C 406.136 2.19678 2.85331 0
M  V30 4208 C 405.989 3.7081 2.54598 0
M  V30 4209 C 407.308 2.09495 3.8704 0
M  V30 4210 H 404.427 0.469764 0.567883 0
M  V30 4211 H 407.069 1.65851 0.927001 0
M  V30 4212 H 405.219 1.8834 3.39795 0
M  V30 4213 H 406.891 4.12593 2.06312 0
M  V30 4214 H 405.134 3.91051 1.8778 0
M  V30 4215 H 405.805 4.29679 3.46525 0
M  V30 4216 H 408.281 2.37045 3.41978 0
M  V30 4217 H 407.157 2.75173 4.74943 0
M  V30 4218 H 407.418 1.07714 4.28777 0
M  V30 4219 N 406.477 -1.02803 1.19454 0
M  V30 4220 C 407.427 -2.0945 0.900827 0
M  V30 4221 C 408.411 -1.60335 -0.134715 0
M  V30 4222 O 409.603 -1.76857 0.0710924 0
M  V30 4223 C 406.732 -3.4044 0.442229 0
M  V30 4224 C 405.818 -3.96286 1.51056 0
M  V30 4225 N 406.209 -4.25785 2.73021 0
M  V30 4226 C 404.507 -4.24307 1.37404 0
M  V30 4227 C 405.208 -4.70654 3.41848 0
M  V30 4228 N 404.184 -4.72238 2.69243 0
M  V30 4229 H 407.986 -2.3015 1.82779 0
M  V30 4230 H 405.5 -1.20672 1.08683 0
M  V30 4231 H 407.497 -4.16354 0.21326 0
M  V30 4232 H 406.157 -3.21159 -0.478238 0
M  V30 4233 H 407.168 -4.15041 3.09776 0
M  V30 4234 H 403.845 -4.14285 0.517103 0
M  V30 4235 H 405.235 -5.02392 4.46152 0
M  V30 4236 N 407.956 -0.998596 -1.21925 0
M  V30 4237 C 409.202 -0.678667 -1.91107 0
M  V30 4238 C 409.535 0.78791 -1.77498 0
M  V30 4239 O 408.81 1.57043 -1.1475 0
M  V30 4240 C 409.093 -1.09245 -3.43129 0
M  V30 4241 C 408.946 -2.61801 -3.6576 0
M  V30 4242 C 410.265 -0.649984 -4.35274 0
M  V30 4243 H 407.384 -0.248025 -0.694012 0
M  V30 4244 H 410.026 -1.24314 -1.43688 0
M  V30 4245 H 408.176 -0.612171 -3.83647 0
M  V30 4246 H 409.848 -3.17543 -3.34611 0
M  V30 4247 H 408.091 -3.03609 -3.09845 0
M  V30 4248 H 408.762 -2.85804 -4.7225 0
M  V30 4249 H 411.238 -1.0626 -4.02303 0
M  V30 4250 H 410.114 -0.967743 -5.40302 0
M  V30 4251 H 410.375 0.449139 -4.39813 0
M  V30 4252 N 409.434 1.37368 -0.772513 0
M  V30 4253 C 410.711 1.93839 -0.26188 0
M  V30 4254 C 411.091 1.7061 1.24319 0
M  V30 4255 O 410.439 1.05534 2.02669 0
M  V30 4256 C 410.649 3.43154 -0.636102 0
M  V30 4257 C 411.997 4.20249 -0.606324 0
M  V30 4258 O 413.021 3.5152 -0.575538 0
M  V30 4259 O 411.88 5.42809 -0.634086 0
M  V30 4260 H 408.974 0.82478 -0.0605555 0
M  V30 4261 H 411.52 1.4665 -0.853917 0
M  V30 4262 H 410.292 3.53647 -1.6748 0
M  V30 4263 H 409.915 3.97596 -0.0170516 0
M  V30 4264 N 410.912 0.523116 1.48665 0
M  V30 4265 C 411.822 -0.247406 2.33292 0
M  V30 4266 C 412.838 -0.945769 1.46052 0
M  V30 4267 O 414.014 -0.922253 1.79043 0
M  V30 4268 C 411.079 -1.28487 3.22012 0
M  V30 4269 C 410.14 -0.597592 4.2512 0
M  V30 4270 C 409.373 -1.58563 5.09601 0
M  V30 4271 O 409.596 -2.81763 4.95949 0
M  V30 4272 O 408.53 -1.12879 5.91221 0
M  V30 4273 H 412.356 0.445869 3.00409 0
M  V30 4274 H 409.941 0.284128 1.46673 0
M  V30 4275 H 411.823 -1.88459 3.7691 0
M  V30 4276 H 410.498 -1.96068 2.57564 0
M  V30 4277 H 409.405 0.0424407 3.74076 0
M  V30 4278 H 410.738 0.0361517 4.92187 0
M  V30 4279 N 412.39 -1.55475 0.257931 0
M  V30 4280 C 413.62 -2.03314 -0.367026 0
M  V30 4281 C 414.028 -1.13625 -1.51281 0
M  V30 4282 O 413.371 -0.145334 -1.83124 0
M  V30 4283 C 413.433 -3.47362 -0.926284 0
M  V30 4284 C 413.097 -4.56914 0.0886584 0
M  V30 4285 C 414.094 -5.12013 0.902123 0
M  V30 4286 C 411.779 -5.01827 0.217936 0
M  V30 4287 C 413.773 -6.10529 1.83122 0
M  V30 4288 C 411.46 -6.00172 1.15052 0
M  V30 4289 C 412.458 -6.54402 1.95568 0
M  V30 4290 O 412.146 -7.50827 2.87253 0
M  V30 4291 H 411.878 -0.669976 -0.0900443 0
M  V30 4292 H 414.432 -2.01804 0.382673 0
M  V30 4293 H 412.662 -3.46056 -1.72575 0
M  V30 4294 H 414.351 -3.78637 -1.46249 0
M  V30 4295 H 415.117 -4.78139 0.812891 0
M  V30 4296 H 410.996 -4.59272 -0.398721 0
M  V30 4297 H 414.54 -6.52783 2.46008 0
M  V30 4298 H 410.437 -6.33465 1.24064 0
M  V30 4299 H 411.205 -7.68483 2.81739 0
M  V30 4300 N 413.868 0.0150385 -1.57593 0
M  V30 4301 C 415.145 0.7392 -1.81094 0
M  V30 4302 C 415.525 1.92817 -0.859344 0
M  V30 4303 O 414.873 2.28301 0.095362 0
M  V30 4304 C 415.083 1.15907 -3.29191 0
M  V30 4305 C 416.431 1.56918 -3.9454 0
M  V30 4306 O 417.455 1.25328 -3.33424 0
M  V30 4307 O 416.314 2.15604 -5.02173 0
M  V30 4308 H 413.408 0.358631 -0.745193 0
M  V30 4309 H 415.954 -0.00926156 -1.69697 0
M  V30 4310 H 414.726 0.310921 -3.90063 0
M  V30 4311 H 414.349 1.96711 -3.45529 0
M  V30 4312 N 415.346 1.54954 0.287554 0
M  V30 4313 C 416.592 1.75132 1.02257 0
M  V30 4314 C 416.925 0.542858 1.86458 0
M  V30 4315 O 416.2 -0.459856 1.88986 0
M  V30 4316 C 416.483 3.04812 1.91733 0
M  V30 4317 C 416.336 4.35985 1.10622 0
M  V30 4318 C 417.655 3.30438 2.90687 0
M  V30 4319 H 414.774 0.637194 0.370341 0
M  V30 4320 H 417.416 1.87678 0.296111 0
M  V30 4321 H 415.566 2.94247 2.53675 0
M  V30 4322 H 417.238 4.58487 0.508636 0
M  V30 4323 H 415.481 4.31865 0.409271 0
M  V30 4324 H 416.152 5.23017 1.76513 0
M  V30 4325 H 418.628 3.40701 2.38877 0
M  V30 4326 H 417.504 4.22467 3.50447 0
M  V30 4327 H 417.765 2.49377 3.65053 0
M  V30 4328 N 416.824 -0.551391 1.4764 0
M  V30 4329 C 418.101 -1.31229 1.45046 0
M  V30 4330 C 418.481 -2.10563 0.150527 0
M  V30 4331 O 417.829 -2.11374 -0.867956 0
M  V30 4332 C 418.039 -2.21189 2.69956 0
M  V30 4333 C 419.387 -2.82021 3.1741 0
M  V30 4334 O 420.411 -2.31488 2.70724 0
M  V30 4335 O 419.27 -3.73885 3.98588 0
M  V30 4336 H 416.364 -0.591193 0.578291 0
M  V30 4337 H 418.91 -0.569813 1.59847 0
M  V30 4338 H 417.682 -1.62207 3.56096 0
M  V30 4339 H 417.305 -3.02722 2.57769 0
M  V30 4340 N 418.302 -1.35869 -0.798587 0
M  V30 4341 C 419.548 -1.2978 -1.55836 0
M  V30 4342 C 419.881 0.125322 -1.93795 0
M  V30 4343 O 419.156 1.07658 -1.61987 0
M  V30 4344 C 419.439 -2.21188 -2.84162 0
M  V30 4345 C 419.292 -3.72155 -2.52628 0
M  V30 4346 C 420.611 -2.11545 -3.85923 0
M  V30 4347 H 417.73 -0.472769 -0.565383 0
M  V30 4348 H 420.372 -1.66341 -0.918192 0
M  V30 4349 H 418.522 -1.90139 -3.38791 0
M  V30 4350 H 420.194 -4.13682 -2.04121 0
M  V30 4351 H 418.437 -3.92042 -1.85704 0
M  V30 4352 H 419.108 -4.31511 -3.44242 0
M  V30 4353 H 421.584 -2.38855 -3.40716 0
M  V30 4354 H 420.46 -2.77688 -4.73477 0
M  V30 4355 H 420.721 -1.09987 -4.282 0
M  V30 4356 N 419.78 1.02168 -1.19998 0
M  V30 4357 C 421.029 1.75091 -1.0013 0
M  V30 4358 C 421.342 1.89923 0.467835 0
M  V30 4359 O 422.548 2.59888 0.785515 0
M  V30 4360 C 421.004 3.14892 -1.74273 0
M  V30 4361 C 420.612 3.0809 -3.25245 0
M  V30 4362 C 422.356 3.9206 -1.62755 0
M  V30 4363 C 420.263 4.42867 -3.91948 0
M  V30 4364 H 419.193 0.656394 -0.37103 0
M  V30 4365 H 421.844 1.14284 -1.43567 0
M  V30 4366 H 420.226 3.7621 -1.2362 0
M  V30 4367 H 421.4 2.5611 -3.83072 0
M  V30 4368 H 419.715 2.44416 -3.3712 0
M  V30 4369 H 422.312 4.91764 -2.09934 0
M  V30 4370 H 422.655 4.12199 -0.582894 0
M  V30 4371 H 423.188 3.37359 -2.10793 0
M  V30 4372 H 419.927 4.27931 -4.96543 0
M  V30 4373 H 419.447 4.94874 -3.3891 0
M  V30 4374 H 421.126 5.11728 -3.95909 0
M  V30 4375 N 421.258 1.00505 1.21394 0
M  V30 4376 C 422.535 0.603277 1.86064 0
M  V30 4377 C 422.915 -0.919095 1.90042 0
M  V30 4378 O 422.263 -1.80607 1.39977 0
M  V30 4379 C 422.473 1.23772 3.26315 0
M  V30 4380 C 423.821 1.34586 4.02705 0
M  V30 4381 O 424.845 1.19304 3.35626 0
M  V30 4382 O 423.704 1.59169 5.22807 0
M  V30 4383 H 420.798 0.206634 0.800769 0
M  V30 4384 H 423.344 1.1017 1.29076 0
M  V30 4385 H 422.116 2.27848 3.18121 0
M  V30 4386 H 421.739 0.725648 3.90922 0
M  V30 4387 N 422.737 -1.36956 0.779787 0
M  V30 4388 C 423.962 -2.04283 0.358224 0
M  V30 4389 C 424.387 -1.58422 -1.01411 0
M  V30 4390 O 423.745 -0.748179 -1.65142 0
M  V30 4391 C 423.793 -3.58152 0.419479 0
M  V30 4392 O 422.897 -4.08342 -0.577142 0
M  V30 4393 H 422.238 -0.645967 0.153698 0
M  V30 4394 H 424.768 -1.75108 1.05822 0
M  V30 4395 H 424.778 -4.07041 0.279636 0
M  V30 4396 H 423.453 -3.90886 1.42061 0
M  V30 4397 H 422.03 -3.70751 -0.399755 0
M  V30 4398 N 424.215 -0.530993 -1.48385 0
M  V30 4399 C 425.147 0.268353 -2.27624 0
M  V30 4400 C 426.16 0.903525 -1.35426 0
M  V30 4401 O 427.349 0.781796 -1.60469 0
M  V30 4402 C 424.449 1.39535 -3.08842 0
M  V30 4403 C 423.622 0.861913 -4.28824 0
M  V30 4404 C 422.681 1.87016 -4.91845 0
M  V30 4405 O 421.707 1.4267 -5.5103 0
M  V30 4406 N 422.909 3.20238 -4.84178 0
M  V30 4407 H 425.674 -0.41123 -2.96865 0
M  V30 4408 H 423.235 -0.365387 -1.57723 0
M  V30 4409 H 425.227 2.06803 -3.47871 0
M  V30 4410 H 423.797 1.97859 -2.42014 0
M  V30 4411 H 423.017 0.0132126 -3.94198 0
M  V30 4412 H 424.305 0.484415 -5.06489 0
M  V30 4413 H 423.703 3.58932 -4.37246 0
M  V30 4414 H 422.26 3.83136 -5.27305 0
M  V30 4415 N 425.693 1.55336 -0.266172 0
M  V30 4416 C 426.918 2.04258 0.359661 0
M  V30 4417 C 427.343 1.14359 1.49344 0
M  V30 4418 O 426.701 0.140369 1.80756 0
M  V30 4419 C 426.749 3.50997 0.826635 0
M  V30 4420 O 425.853 3.64204 1.93466 0
M  V30 4421 H 425.194 0.659668 0.075727 0
M  V30 4422 H 427.724 2.00694 -0.39786 0
M  V30 4423 H 427.734 3.9219 1.12477 0
M  V30 4424 H 426.409 4.159 -0.00293032 0
M  V30 4425 H 424.986 3.34913 1.63974 0
M  V30 4426 N 427.171 -0.0066808 1.57599 0
M  V30 4427 C 428.134 -0.985035 2.06953 0
M  V30 4428 C 429.134 -1.27663 0.977687 0
M  V30 4429 O 430.324 -1.22293 1.24057 0
M  V30 4430 C 427.456 -2.3118 2.50536 0
M  V30 4431 H 428.649 -0.558255 2.94658 0
M  V30 4432 H 426.202 -0.254011 1.54222 0
M  V30 4433 H 426.937 -2.78561 1.66054 0
M  V30 4434 H 426.722 -2.11338 3.3027 0
M  V30 4435 H 428.212 -3.01377 2.8907 0
M  V30 4436 N 428.649 -1.55105 -0.279332 0
M  V30 4437 C 429.874 -1.7976 -1.03446 0
M  V30 4438 C 430.299 -0.565952 -1.79384 0
M  V30 4439 O 429.657 0.484259 -1.74713 0
M  V30 4440 C 429.705 -3.0179 -1.97371 0
M  V30 4441 O 428.809 -2.76432 -3.06038 0
M  V30 4442 H 428.15 -0.594334 -0.29608 0
M  V30 4443 H 430.68 -2.02235 -0.310165 0
M  V30 4444 H 430.69 -3.30351 -2.39441 0
M  V30 4445 H 429.365 -3.91085 -1.4151 0
M  V30 4446 H 427.942 -2.58949 -2.68328 0
M  V30 4447 N 430.127 0.543554 -1.4793 0
M  V30 4448 C 431.074 1.64942 -1.6144 0
M  V30 4449 C 432.044 1.59692 -0.456903 0
M  V30 4450 O 433.229 1.78321 -0.678688 0
M  V30 4451 C 430.369 3.03238 -1.64744 0
M  V30 4452 C 429.482 3.18823 -2.91506 0
M  V30 4453 C 428.617 4.47599 -2.86057 0
M  V30 4454 C 427.656 4.56664 -4.07584 0
M  V30 4455 N 426.793 5.76811 -4.00292 0
M  V30 4456 H 431.633 1.52733 -2.55884 0
M  V30 4457 H 429.17 0.7438 -1.2691 0
M  V30 4458 H 431.128 3.83339 -1.64641 0
M  V30 4459 H 429.758 3.1425 -0.738017 0
M  V30 4460 H 428.81 2.32064 -3.01414 0
M  V30 4461 H 430.122 3.21384 -3.81463 0
M  V30 4462 H 429.276 5.35975 -2.84281 0
M  V30 4463 H 428.015 4.47538 -1.93807 0
M  V30 4464 H 427.02 3.66697 -4.09651 0
M  V30 4465 H 428.245 4.58474 -5.00978 0
M  V30 4466 H 426.191 5.77673 -3.10853 0
M  V30 4467 H 426.108 5.80808 -4.8394 0
M  V30 4468 H 427.376 6.67512 -4.02553 0
M  V30 4469 N 431.605 1.3629 0.791371 0
M  V30 4470 C 432.535 1.33137 1.91825 0
M  V30 4471 C 433.516 0.203168 1.68882 0
M  V30 4472 O 434.701 0.400509 1.90025 0
M  V30 4473 C 431.831 1.11793 3.28816 0
M  V30 4474 C 430.785 2.21417 3.66277 0
M  V30 4475 C 430.111 1.85218 5.01596 0
M  V30 4476 C 431.411 3.63489 3.75064 0
M  V30 4477 H 433.105 2.2743 1.9472 0
M  V30 4478 H 430.651 1.09479 0.935437 0
M  V30 4479 H 432.604 1.08222 4.07266 0
M  V30 4480 H 431.328 0.139501 3.26302 0
M  V30 4481 H 429.987 2.2411 2.90121 0
M  V30 4482 H 429.635 0.859544 4.95602 0
M  V30 4483 H 429.335 2.58611 5.27631 0
M  V30 4484 H 430.859 1.832 5.82469 0
M  V30 4485 H 432.273 3.63034 4.43711 0
M  V30 4486 H 430.67 4.35771 4.12582 0
M  V30 4487 H 431.74 3.98536 2.76219 0
M  V30 4488 N 433.083 -1.0153 1.20538 0
M  V30 4489 C 434.332 -1.74558 1.01057 0
M  V30 4490 C 434.645 -1.90168 -0.457756 0
M  V30 4491 O 435.851 -2.60301 -0.771722 0
M  V30 4492 C 434.307 -3.13963 1.75941 0
M  V30 4493 C 433.915 -3.06361 3.26875 0
M  V30 4494 C 435.659 -3.91191 1.64832 0
M  V30 4495 C 433.566 -4.40782 3.94291 0
M  V30 4496 H 432.496 -0.654417 0.374505 0
M  V30 4497 H 435.147 -1.13521 1.44171 0
M  V30 4498 H 433.529 -3.75549 1.25614 0
M  V30 4499 H 434.703 -2.54074 3.84425 0
M  V30 4500 H 433.018 -2.42625 3.38411 0
M  V30 4501 H 435.615 -4.90644 2.12539 0
M  V30 4502 H 435.958 -4.11884 0.604745 0
M  V30 4503 H 436.491 -3.36236 2.12579 0
M  V30 4504 H 433.23 -4.25292 4.98805 0
M  V30 4505 H 432.75 -4.9307 3.41529 0
M  V30 4506 H 434.429 -5.09621 3.98617 0
M  V30 4507 N 434.561 -1.01147 -1.20859 0
M  V30 4508 C 435.972 -0.730205 -1.71828 0
M  V30 4509 C 436.323 0.751662 -1.8123 0
M  V30 4510 O 435.448 1.58686 -1.47132 0
M  V30 4511 C 436.043 -1.31885 -3.12077 0
M  V30 4512 C 434.602 -1.08656 -3.60376 0
M  V30 4513 C 433.749 -1.42769 -2.37723 0
M  V30 4514 H 436.7 -1.18158 -1.05945 0
M  V30 4515 H 436.721 -0.706793 -3.73878 0
M  V30 4516 H 436.233 -2.39737 -3.05201 0
M  V30 4517 H 434.334 -0.0254814 -3.72591 0
M  V30 4518 H 434.447 -1.76301 -4.45483 0
M  V30 4519 H 432.811 -0.846603 -2.40218 0
M  V30 4520 H 433.594 -2.51666 -2.33493 0
M  V30 4521 N 436.039 1.36541 -0.78704 0
M  V30 4522 C 437.002 2.28413 -0.189778 0
M  V30 4523 C 438.002 1.48719 0.611499 0
M  V30 4524 O 439.192 1.68737 0.432842 0
M  V30 4525 C 436.324 3.32824 0.737638 0
M  V30 4526 H 437.517 2.82743 -0.999831 0
M  V30 4527 H 435.07 1.46065 -0.556298 0
M  V30 4528 H 435.805 2.83646 1.57212 0
M  V30 4529 H 435.59 3.91752 0.165044 0
M  V30 4530 H 437.08 4.0144 1.15047 0
M  V30 4531 N 437.518 0.538854 1.48102 0
M  V30 4532 C 438.481 -0.208395 2.28251 0
M  V30 4533 C 439.481 -0.859656 1.35892 0
M  V30 4534 O 440.671 -0.71834 1.58699 0
M  V30 4535 C 437.803 -1.30252 3.15035 0
M  V30 4536 H 438.996 0.495407 2.9578 0
M  V30 4537 H 436.549 0.295112 1.53489 0
M  V30 4538 H 437.284 -2.0393 2.52157 0
M  V30 4539 H 437.069 -0.840551 3.82985 0
M  V30 4540 H 438.559 -1.82787 3.75471 0
M  V30 4541 N 438.996 -1.55193 0.274407 0
M  V30 4542 C 440.242 -1.99877 -0.343086 0
M  V30 4543 C 440.575 -1.16256 -1.55558 0
M  V30 4544 O 439.85 -0.232462 -1.93106 0
M  V30 4545 C 440.133 -3.52706 -0.725965 0
M  V30 4546 C 439.986 -4.47081 0.493818 0
M  V30 4547 C 441.305 -4.11422 -1.56268 0
M  V30 4548 H 438.424 -0.726625 -0.123229 0
M  V30 4549 H 441.066 -1.86136 0.38121 0
M  V30 4550 H 439.216 -3.64546 -1.34307 0
M  V30 4551 H 440.888 -4.47186 1.13237 0
M  V30 4552 H 439.131 -4.1877 1.13201 0
M  V30 4553 H 439.802 -5.51699 0.18217 0
M  V30 4554 H 442.278 -4.02855 -1.04151 0
M  V30 4555 H 441.154 -5.18568 -1.79939 0
M  V30 4556 H 441.415 -3.61607 -2.54348 0
M  V30 4557 N 440.474 -0.00167713 -1.576 0
M  V30 4558 C 441.384 1.00548 -2.1196 0
M  V30 4559 C 442.4 1.3758 -1.06526 0
M  V30 4560 O 443.576 1.46278 -1.38436 0
M  V30 4561 C 440.641 2.27809 -2.6135 0
M  V30 4562 C 439.702 1.97074 -3.81393 0
M  V30 4563 C 438.935 3.18267 -4.28417 0
M  V30 4564 O 439.158 4.30009 -3.74765 0
M  V30 4565 O 438.092 3.02167 -5.20556 0
M  V30 4566 H 441.918 0.573373 -2.98238 0
M  V30 4567 H 439.503 0.217255 -1.47812 0
M  V30 4568 H 441.385 3.02568 -2.93309 0
M  V30 4569 H 440.06 2.70254 -1.78169 0
M  V30 4570 H 438.967 1.19785 -3.54404 0
M  V30 4571 H 440.3 1.59464 -4.65652 0
M  V30 4572 N 441.952 1.55251 0.271103 0
M  V30 4573 C 443.2 1.75599 1.00047 0
M  V30 4574 C 443.521 0.561188 1.8675 0
M  V30 4575 O 442.791 -0.423846 1.9126 0
M  V30 4576 H 441.371 0.647562 0.372387 0
M  V30 4577 H 444.033 1.92656 0.294876 0
M  V30 4578 H 443.129 2.65766 1.6363 0
M  V30 4579 N 443.43 -0.535701 1.48216 0
M  V30 4580 C 444.678 -1.28928 1.55634 0
M  V30 4581 C 444.999 -1.93645 0.229514 0
M  V30 4582 O 444.269 -1.81038 -0.74846 0
M  V30 4583 H 442.849 -0.47884 0.573342 0
M  V30 4584 H 445.511 -0.623853 1.84646 0
M  V30 4585 H 444.607 -2.07157 2.33436 0
M  V30 4586 N 444.908 -1.36708 -0.784132 0
M  V30 4587 C 445.838 -1.34153 -1.91116 0
M  V30 4588 C 446.819 -0.212121 -1.68772 0
M  V30 4589 O 448.004 -0.410581 -1.8981 0
M  V30 4590 C 445.134 -1.13535 -3.28218 0
M  V30 4591 C 444.088 -2.23356 -3.65097 0
M  V30 4592 C 443.414 -1.87875 -5.00607 0
M  V30 4593 C 444.714 -3.65473 -3.73131 0
M  V30 4594 H 446.408 -2.28459 -1.93512 0
M  V30 4595 H 443.954 -1.09973 -0.929618 0
M  V30 4596 H 445.907 -1.10381 -4.06687 0
M  V30 4597 H 444.631 -0.156804 -3.26223 0
M  V30 4598 H 443.29 -2.25645 -2.88929 0
M  V30 4599 H 442.938 -0.885814 -4.95139 0
M  V30 4600 H 442.638 -2.61406 -5.26252 0
M  V30 4601 H 444.162 -1.86286 -5.81489 0
M  V30 4602 H 445.576 -3.65382 -4.41779 0
M  V30 4603 H 443.973 -4.37953 -4.10265 0
M  V30 4604 H 445.043 -3.99995 -2.74102 0
M  V30 4605 N 446.386 1.0089 -1.21074 0
M  V30 4606 C 447.336 2.0799 -0.934034 0
M  V30 4607 C 448.32 1.60529 0.10919 0
M  V30 4608 O 449.512 1.76722 -0.0992198 0
M  V30 4609 C 446.641 3.39693 -0.496334 0
M  V30 4610 C 445.727 3.93833 -1.57341 0
M  V30 4611 N 446.118 4.21388 -2.7976 0
M  V30 4612 C 444.416 4.22067 -1.44137 0
M  V30 4613 C 445.117 4.65156 -3.49292 0
M  V30 4614 N 444.093 4.67895 -2.76722 0
M  V30 4615 H 447.895 2.27213 -1.86417 0
M  V30 4616 H 445.409 1.18927 -1.10589 0
M  V30 4617 H 447.406 4.15962 -0.279471 0
M  V30 4618 H 446.066 3.21879 0.427084 0
M  V30 4619 H 447.077 4.10061 -3.1634 0
M  V30 4620 H 443.754 4.1341 -0.582947 0
M  V30 4621 H 445.144 4.95231 -4.54088 0
M  V30 4622 N 447.864 1.01787 1.20321 0
M  V30 4623 C 448.796 0.547357 2.22568 0
M  V30 4624 C 449.809 -0.370922 1.58518 0
M  V30 4625 O 450.998 -0.169067 1.77698 0
M  V30 4626 C 448.098 -0.223031 3.38165 0
M  V30 4627 C 447.271 0.697472 4.31803 0
M  V30 4628 C 446.33 -0.025562 5.26194 0
M  V30 4629 O 445.356 0.597367 5.66057 0
M  V30 4630 N 446.558 -1.29999 5.65757 0
M  V30 4631 H 449.323 1.42668 2.63564 0
M  V30 4632 H 446.884 0.895552 1.34876 0
M  V30 4633 H 448.876 -0.716002 3.98316 0
M  V30 4634 H 447.446 -1.00366 2.9605 0
M  V30 4635 H 446.666 1.37073 3.69601 0
M  V30 4636 H 447.954 1.32347 4.91286 0
M  V30 4637 H 447.352 -1.827 5.35385 0
M  V30 4638 H 445.909 -1.73766 6.28211 0
M  V30 4639 N 449.342 -1.36122 0.79427 0
M  V30 4640 C 450.591 -1.98361 0.365464 0
M  V30 4641 C 450.904 -1.6374 -1.06997 0
M  V30 4642 O 452.11 -2.19251 -1.60129 0
M  V30 4643 C 450.566 -3.54821 0.602496 0
M  V30 4644 C 450.174 -3.98362 2.04967 0
M  V30 4645 C 451.918 -4.2383 0.238437 0
M  V30 4646 C 449.825 -5.47619 2.2331 0
M  V30 4647 H 448.755 -0.742193 0.13291 0
M  V30 4648 H 451.406 -1.55354 0.976589 0
M  V30 4649 H 449.788 -3.95922 -0.078409 0
M  V30 4650 H 450.962 -3.68447 2.76737 0
M  V30 4651 H 449.277 -3.42206 2.37243 0
M  V30 4652 H 451.874 -5.33529 0.353705 0
M  V30 4653 H 452.217 -4.08264 -0.814006 0
M  V30 4654 H 452.75 -3.88108 0.872769 0
M  V30 4655 H 449.489 -5.68138 3.26955 0
M  V30 4656 H 449.009 -5.79145 1.5605 0
M  V30 4657 H 450.688 -6.13911 2.0426 0
M  V30 4658 N 450.82 -0.546701 -1.47814 0
M  V30 4659 C 451.73 0.21026 -2.33656 0
M  V30 4660 C 452.746 0.922413 -1.47538 0
M  V30 4661 O 453.922 0.893652 -1.80488 0
M  V30 4662 C 450.987 1.23348 -3.24016 0
M  V30 4663 C 450.048 0.529883 -4.26017 0
M  V30 4664 C 449.281 1.50435 -5.12059 0
M  V30 4665 O 449.504 2.73837 -5.00369 0
M  V30 4666 O 448.438 1.03459 -5.92942 0
M  V30 4667 H 452.264 -0.493605 -2.99662 0
M  V30 4668 H 449.849 -0.307427 -1.46203 0
M  V30 4669 H 451.731 1.82438 -3.79861 0
M  V30 4670 H 450.406 1.91945 -2.60651 0
M  V30 4671 H 449.313 -0.101948 -3.73961 0
M  V30 4672 H 450.646 -0.11445 -4.92067 0
M  V30 4673 N 452.299 1.55045 -0.282633 0
M  V30 4674 C 453.527 2.04168 0.33512 0
M  V30 4675 C 453.942 1.16071 1.48906 0
M  V30 4676 O 453.299 0.182391 1.81586 0
M  V30 4677 C 453.35 3.52332 0.808957 0
M  V30 4678 O 453.071 4.37078 -0.299038 0
M  V30 4679 C 454.572 4.17375 1.49375 0
M  V30 4680 H 451.792 0.666744 0.0754543 0
M  V30 4681 H 454.336 2.00205 -0.416918 0
M  V30 4682 H 452.491 3.56715 1.51106 0
M  V30 4683 H 452.905 5.24458 0.0665514 0
M  V30 4684 H 454.379 5.22627 1.77664 0
M  V30 4685 H 454.856 3.65999 2.42778 0
M  V30 4686 H 455.462 4.17016 0.835305 0
M  V30 4687 N 453.777 0.010035 1.57597 0
M  V30 4688 C 454.74 -0.963029 2.07986 0
M  V30 4689 C 455.74 -1.26619 0.991173 0
M  V30 4690 O 456.93 -1.2097 1.25347 0
M  V30 4691 C 454.062 -2.2851 2.52974 0
M  V30 4692 H 455.255 -0.526971 2.95234 0
M  V30 4693 H 452.808 -0.237639 1.54483 0
M  V30 4694 H 453.543 -2.76784 1.69 0
M  V30 4695 H 453.328 -2.07824 3.32493 0
M  V30 4696 H 454.818 -2.98294 2.9225 0
M  V30 4697 N 455.255 -1.55392 -0.262866 0
M  V30 4698 C 456.48 -1.80847 -1.01533 0
M  V30 4699 C 456.905 -0.584946 -1.78774 0
M  V30 4700 O 456.263 0.465701 -1.75217 0
M  V30 4701 C 456.311 -3.03866 -1.94159 0
M  V30 4702 O 455.415 -2.79662 -3.03089 0
M  V30 4703 H 454.756 -0.597441 -0.289759 0
M  V30 4704 H 457.286 -2.02553 -0.288698 0
M  V30 4705 H 457.296 -3.32872 -2.35924 0
M  V30 4706 H 455.971 -3.92564 -1.37354 0
M  V30 4707 H 454.548 -2.61781 -2.65566 0
M  V30 4708 N 456.733 0.527833 -1.48498 0
M  V30 4709 C 457.981 1.28101 -1.56316 0
M  V30 4710 C 458.302 1.9352 -0.239781 0
M  V30 4711 O 457.572 1.81433 0.738849 0
M  V30 4712 H 456.152 0.475793 -0.575873 0
M  V30 4713 H 458.814 0.614052 -1.84974 0
M  V30 4714 H 457.91 2.05916 -2.34532 0
M  V30 4715 N 458.211 1.37122 0.776871 0
M  V30 4716 C 459.174 1.32301 1.8716 0
M  V30 4717 C 460.174 0.228099 1.59174 0
M  V30 4718 O 461.364 0.483642 1.67352 0
M  V30 4719 C 458.496 1.054 3.24197 0
M  V30 4720 H 459.689 2.29673 1.92848 0
M  V30 4721 H 457.242 1.22077 0.97606 0
M  V30 4722 H 457.977 0.0853872 3.24188 0
M  V30 4723 H 457.762 1.84648 3.45901 0
M  V30 4724 H 459.252 1.04664 4.04271 0
M  V30 4725 N 459.689 -1.00246 1.21608 0
M  V30 4726 C 460.935 -1.74319 1.03638 0
M  V30 4727 C 461.268 -1.89408 -0.428749 0
M  V30 4728 O 460.543 -1.43026 -1.3181 0
M  V30 4729 C 460.826 -3.15431 1.73711 0
M  V30 4730 C 460.679 -3.08049 3.27759 0
M  V30 4731 C 461.998 -4.14407 1.48173 0
M  V30 4732 H 459.117 -0.632741 0.377899 0
M  V30 4733 H 461.759 -1.16853 1.49818 0
M  V30 4734 H 459.909 -3.64493 1.34452 0
M  V30 4735 H 461.581 -2.66681 3.76403 0
M  V30 4736 H 459.824 -2.45088 3.57931 0
M  V30 4737 H 460.495 -4.07862 3.71958 0
M  V30 4738 H 462.971 -3.74061 1.82258 0
M  V30 4739 H 461.847 -5.11279 1.99713 0
M  V30 4740 H 462.108 -4.40174 0.412273 0
M  V30 4741 N 461.167 -1.02423 -1.1978 0
M  V30 4742 C 462.097 -0.62157 -2.25075 0
M  V30 4743 C 463.078 0.367148 -1.6609 0
M  V30 4744 O 464.263 0.250892 -1.92573 0
M  V30 4745 C 461.393 0.0331826 -3.47284 0
M  V30 4746 C 460.347 -0.877323 -4.18912 0
M  V30 4747 C 459.673 -0.0879296 -5.34628 0
M  V30 4748 C 460.973 -2.18892 -4.74219 0
M  V30 4749 H 462.667 -1.50179 -2.59011 0
M  V30 4750 H 460.213 -0.723547 -1.24502 0
M  V30 4751 H 462.166 0.326488 -4.20133 0
M  V30 4752 H 460.89 0.948164 -3.12534 0
M  V30 4753 H 459.549 -1.15475 -3.47938 0
M  V30 4754 H 459.197 0.828941 -4.96123 0
M  V30 4755 H 458.897 -0.694359 -5.83483 0
M  V30 4756 H 460.421 0.198743 -6.10276 0
M  V30 4757 H 461.835 -1.95746 -5.38847 0
M  V30 4758 H 460.232 -2.74686 -5.33542 0
M  V30 4759 H 461.302 -2.84674 -3.92541 0
M  V30 4760 N 462.645 1.35699 -0.801477 0
M  V30 4761 C 463.592 2.29876 -0.206294 0
M  V30 4762 C 464.562 1.52565 0.656752 0
M  V30 4763 O 465.747 1.81024 0.602906 0
M  V30 4764 C 462.887 3.39052 0.643272 0
M  V30 4765 C 462 4.31335 -0.239644 0
M  V30 4766 C 461.135 5.27599 0.61744 0
M  V30 4767 C 460.174 6.11521 -0.26619 0
M  V30 4768 N 459.311 6.99938 0.550571 0
M  V30 4769 H 464.151 2.80187 -1.01484 0
M  V30 4770 H 461.688 1.37902 -0.511997 0
M  V30 4771 H 463.646 4.0101 1.15094 0
M  V30 4772 H 462.276 2.9003 1.41713 0
M  V30 4773 H 461.328 3.70426 -0.865381 0
M  V30 4774 H 462.64 4.90243 -0.919985 0
M  V30 4775 H 461.794 5.94906 1.19045 0
M  V30 4776 H 460.533 4.69176 1.33137 0
M  V30 4777 H 459.538 5.43166 -0.851507 0
M  V30 4778 H 460.763 6.72022 -0.9779 0
M  V30 4779 H 458.709 6.44008 1.24856 0
M  V30 4780 H 458.626 7.55966 -0.071832 0
M  V30 4781 H 459.894 7.71599 1.10702 0
M  V30 4782 N 464.123 0.554532 1.47522 0
M  V30 4783 C 465.086 -0.184174 2.28459 0
M  V30 4784 C 466.086 -0.845195 1.36796 0
M  V30 4785 O 467.276 -0.701467 1.59452 0
M  V30 4786 C 464.408 -1.26903 3.16399 0
M  V30 4787 H 465.601 0.526751 2.95238 0
M  V30 4788 H 463.154 0.311375 1.53167 0
M  V30 4789 H 463.889 -2.01244 2.54306 0
M  V30 4790 H 463.674 -0.799883 3.83854 0
M  V30 4791 H 465.164 -1.78794 3.77389 0
M  V30 4792 N 465.601 -1.54893 0.290851 0
M  V30 4793 C 467.017 -1.59476 -0.0628432 0
M  V30 4794 C 467.217 -1.30795 -1.5328 0
M  V30 4795 O 466.273 -1.07644 -2.28406 0
M  V30 4796 C 467.586 -2.98928 0.325962 0
M  V30 4797 C 469.134 -3.11799 0.273882 0
M  V30 4798 C 469.609 -4.53544 0.637359 0
M  V30 4799 N 471.1 -4.59433 0.589507 0
M  V30 4800 C 471.835 -5.67164 0.84335 0
M  V30 4801 N 471.331 -6.82975 1.16263 0
M  V30 4802 N 473.124 -5.56786 0.771091 0
M  V30 4803 H 465.275 -1.71798 1.24896 0
M  V30 4804 H 467.538 -0.801879 0.505663 0
M  V30 4805 H 467.244 -3.24805 1.34887 0
M  V30 4806 H 467.118 -3.75793 -0.325441 0
M  V30 4807 H 469.505 -2.85677 -0.739765 0
M  V30 4808 H 469.586 -2.37112 0.959766 0
M  V30 4809 H 469.23 -4.80394 1.64877 0
M  V30 4810 H 469.16 -5.26553 -0.0704866 0
M  V30 4811 H 471.651 -3.76245 0.353252 0
M  V30 4812 H 471.964 -7.61048 1.34257 0
M  V30 4813 H 470.309 -6.84552 1.20057 0
M  V30 4814 H 473.5 -4.65187 0.521383 0
M  V30 4815 H 473.673 -6.40664 0.972295 0
M  V30 4816 N 467.08 -0.0183926 -1.57589 0
M  V30 4817 C 468.305 0.676634 -1.96052 0
M  V30 4818 C 468.73 1.6548 -0.894307 0
M  V30 4819 O 468.088 1.80712 0.145849 0
M  V30 4820 C 468.136 1.36872 -3.33614 0
M  V30 4821 O 467.24 2.48372 -3.29219 0
M  V30 4822 H 466.581 0.1786 -0.63953 0
M  V30 4823 H 469.111 -0.077056 -2.04455 0
M  V30 4824 H 469.121 1.72797 -3.69601 0
M  V30 4825 H 467.796 0.651636 -4.10763 0
M  V30 4826 H 466.373 2.14639 -3.04934 0
M  V30 4827 N 468.558 1.5553 0.254621 0
M  V30 4828 C 469.807 1.76202 0.981612 0
M  V30 4829 C 470.12 0.580883 1.86776 0
M  V30 4830 O 471.326 0.670448 2.63092 0
M  V30 4831 C 469.782 3.11921 1.79537 0
M  V30 4832 C 469.39 4.37659 0.956991 0
M  V30 4833 C 471.134 3.41936 2.51555 0
M  V30 4834 C 469.041 5.64411 1.76619 0
M  V30 4835 H 467.971 0.656841 0.370237 0
M  V30 4836 H 470.622 1.81969 0.236556 0
M  V30 4837 H 469.004 3.00241 2.58208 0
M  V30 4838 H 470.178 4.60307 0.21315 0
M  V30 4839 H 468.493 4.14922 0.350497 0
M  V30 4840 H 471.09 4.33849 3.12536 0
M  V30 4841 H 471.433 2.62905 3.22779 0
M  V30 4842 H 471.966 3.54797 1.799 0
M  V30 4843 H 468.705 6.46241 1.09783 0
M  V30 4844 H 468.225 5.45877 2.48551 0
M  V30 4845 H 469.904 6.03386 2.33527 0
M  V30 4846 N 470.036 -0.519951 1.48776 0
M  V30 4847 C 471.285 -1.27175 1.56555 0
M  V30 4848 C 471.598 -1.9401 0.248869 0
M  V30 4849 O 472.804 -2.70725 0.205004 0
M  V30 4850 C 471.26 -2.30811 2.76142 0
M  V30 4851 C 470.868 -1.7 4.14493 0
M  V30 4852 C 472.612 -3.06937 2.9324 0
M  V30 4853 C 470.519 -2.71635 5.25327 0
M  V30 4854 H 469.449 -0.478329 0.582853 0
M  V30 4855 H 472.1 -0.547916 1.75129 0
M  V30 4856 H 470.482 -3.06274 2.51023 0
M  V30 4857 H 471.656 -1.00658 4.49672 0
M  V30 4858 H 469.971 -1.06331 4.02595 0
M  V30 4859 H 472.568 -3.82905 3.73213 0
M  V30 4860 H 472.911 -3.63409 2.03075 0
M  V30 4861 H 473.444 -2.38589 3.18308 0
M  V30 4862 H 470.183 -2.1997 6.1749 0
M  V30 4863 H 469.703 -3.39275 4.94624 0
M  V30 4864 H 471.382 -3.34429 5.53865 0
M  V30 4865 N 471.514 -1.37532 -0.769588 0
M  V30 4866 C 472.76 -1.33057 -1.53048 0
M  V30 4867 C 473.093 0.0841865 -1.94017 0
M  V30 4868 O 472.368 1.04198 -1.64235 0
M  V30 4869 C 472.651 -2.27166 -2.79406 0
M  V30 4870 C 472.504 -3.77429 -2.44677 0
M  V30 4871 C 473.823 -2.19683 -3.81349 0
M  V30 4872 H 470.942 -0.484655 -0.555228 0
M  V30 4873 H 473.584 -1.68251 -0.882702 0
M  V30 4874 H 471.734 -1.97283 -3.34682 0
M  V30 4875 H 473.406 -4.17918 -1.953 0
M  V30 4876 H 471.649 -3.95892 -1.77346 0
M  V30 4877 H 472.32 -4.38716 -3.35011 0
M  V30 4878 H 474.796 -2.46029 -3.35573 0
M  V30 4879 H 473.672 -2.87668 -4.67481 0
M  V30 4880 H 473.933 -1.19045 -4.25771 0
M  V30 4881 N 472.992 0.995999 -1.22138 0
M  V30 4882 C 473.955 2.06711 -0.990109 0
M  V30 4883 C 474.955 1.60744 0.0422978 0
M  V30 4884 O 476.145 1.73095 -0.195895 0
M  V30 4885 C 473.277 3.37288 -0.49491 0
M  V30 4886 H 474.47 2.28661 -1.94047 0
M  V30 4887 H 472.023 1.16711 -1.03963 0
M  V30 4888 H 472.758 3.21022 0.459948 0
M  V30 4889 H 472.543 3.71986 -1.23971 0
M  V30 4890 H 474.033 4.16103 -0.353253 0
M  V30 4891 N 474.47 1.03057 1.19235 0
M  V30 4892 C 475.698 0.747697 1.92917 0
M  V30 4893 C 476.113 -0.69372 1.75593 0
M  V30 4894 O 475.47 -1.47191 1.07894 0
M  V30 4895 C 475.521 1.09159 3.44625 0
M  V30 4896 O 475.242 2.47641 3.61394 0
M  V30 4897 C 476.743 0.831763 4.35427 0
M  V30 4898 H 473.963 0.273453 0.612751 0
M  V30 4899 H 476.507 1.37552 1.51327 0
M  V30 4900 H 474.662 0.508919 3.84043 0
M  V30 4901 H 475.076 2.60499 4.55237 0
M  V30 4902 H 476.55 1.12233 5.4047 0
M  V30 4903 H 477.027 -0.233769 4.38577 0
M  V30 4904 H 477.633 1.39725 4.01693 0
M  V30 4905 N 475.948 -1.35272 0.808662 0
M  V30 4906 C 477.196 -1.98316 0.389233 0
M  V30 4907 C 477.517 -1.64465 -1.04767 0
M  V30 4908 O 476.787 -0.928175 -1.72516 0
M  V30 4909 H 475.367 -0.733585 0.140935 0
M  V30 4910 H 478.029 -1.6515 1.03496 0
M  V30 4911 H 477.125 -3.08123 0.496631 0
M  V30 4912 N 477.426 -0.562348 -1.47226 0
M  V30 4913 C 478.389 0.172056 -2.28553 0
M  V30 4914 C 479.389 0.837928 -1.37242 0
M  V30 4915 O 480.579 0.693001 -1.59822 0
M  V30 4916 C 477.711 1.25223 -3.17068 0
M  V30 4917 H 478.904 -0.542401 -2.94954 0
M  V30 4918 H 476.457 -0.319493 -1.53 0
M  V30 4919 H 477.192 1.99892 -2.55369 0
M  V30 4920 H 476.977 0.779515 -3.84273 0
M  V30 4921 H 478.467 1.76791 -3.78332 0
M  V30 4922 N 478.904 1.54736 -0.299062 0
M  V30 4923 C 479.851 2.23448 0.577899 0
M  V30 4924 C 480.821 1.21637 1.13109 0
M  V30 4925 O 482.006 1.50252 1.17597 0
M  V30 4926 C 479.146 2.9774 1.74484 0
M  V30 4927 C 478.259 4.1432 1.22323 0
M  V30 4928 C 477.394 4.76199 2.35388 0
M  V30 4929 C 476.433 5.84927 1.80351 0
M  V30 4930 N 475.57 6.4077 2.86982 0
M  V30 4931 H 480.41 2.97996 -0.0146545 0
M  V30 4932 H 477.947 1.47088 -0.0190013 0
M  V30 4933 H 479.905 3.39045 2.43114 0
M  V30 4934 H 478.535 2.25572 2.30905 0
M  V30 4935 H 477.587 3.7797 0.429249 0
M  V30 4936 H 478.899 4.92659 0.780309 0
M  V30 4937 H 478.053 5.20346 3.11969 0
M  V30 4938 H 476.792 3.97188 2.83006 0
M  V30 4939 H 475.797 5.40207 1.02259 0
M  V30 4940 H 477.022 6.65821 1.3364 0
M  V30 4941 H 474.968 5.64643 3.33938 0
M  V30 4942 H 474.885 7.1445 2.4718 0
M  V30 4943 H 476.153 6.89574 3.63466 0
M  V30 4944 N 480.382 0.0267497 1.57577 0
M  V30 4945 C 481.628 -0.647596 1.92815 0
M  V30 4946 C 481.983 -1.69872 0.903396 0
M  V30 4947 O 481.276 -1.91429 -0.0808881 0
M  V30 4948 C 481.47 -1.30914 3.3256 0
M  V30 4949 C 481.299 -0.323621 4.48534 0
M  V30 4950 C 480.069 0.0756607 5.05243 0
M  V30 4951 C 482.267 0.42112 5.12573 0
M  V30 4952 N 480.249 1.0566 6.04739 0
M  V30 4953 C 481.62 1.25589 6.07147 0
M  V30 4954 C 483.675 0.482077 4.95561 0
M  V30 4955 C 482.378 2.1461 6.86538 0
M  V30 4956 C 484.404 1.35962 5.75559 0
M  V30 4957 C 483.766 2.18217 6.69747 0
M  V30 4958 H 479.865 -0.209357 0.753454 0
M  V30 4959 H 482.449 0.0933695 1.94476 0
M  V30 4960 H 480.62 -2.02026 3.31723 0
M  V30 4961 H 482.352 -1.94033 3.55153 0
M  V30 4962 H 479.107 -0.298294 4.7266 0
M  V30 4963 H 479.531 1.54324 6.59176 0
M  V30 4964 H 484.173 -0.139609 4.22569 0
M  V30 4965 H 481.891 2.77835 7.58837 0
M  V30 4966 H 485.477 1.41105 5.6443 0
M  V30 4967 H 484.357 2.85022 7.3057 0
M  V30 4968 N 481.861 -1.55662 -0.24637 0
M  V30 4969 C 483.277 -1.48098 -0.594907 0
M  V30 4970 C 483.477 -0.717044 -1.8831 0
M  V30 4971 O 482.533 -0.246618 -2.51293 0
M  V30 4972 C 483.846 -2.92507 -0.697146 0
M  V30 4973 C 485.394 -3.02881 -0.789436 0
M  V30 4974 C 485.869 -4.48598 -0.923232 0
M  V30 4975 N 487.36 -4.52538 -0.988088 0
M  V30 4976 C 488.095 -5.62536 -1.11089 0
M  V30 4977 N 487.591 -6.82342 -1.19919 0
M  V30 4978 N 489.384 -5.50334 -1.14408 0
M  V30 4979 H 481.535 -2.0377 0.599278 0
M  V30 4980 H 483.798 -0.925145 0.20691 0
M  V30 4981 H 483.504 -3.51242 0.179396 0
M  V30 4982 H 483.378 -3.43024 -1.5689 0
M  V30 4983 H 485.765 -2.44226 -1.65643 0
M  V30 4984 H 485.846 -2.55574 0.107482 0
M  V30 4985 H 485.49 -5.07864 -0.0607927 0
M  V30 4986 H 485.42 -4.93587 -1.8352 0
M  V30 4987 H 487.911 -3.66248 -0.931167 0
M  V30 4988 H 488.224 -7.61924 -1.29197 0
M  V30 4989 H 486.569 -6.85102 -1.16876 0
M  V30 4990 H 489.76 -4.5567 -1.07158 0
M  V30 4991 H 489.933 -6.36096 -1.23634 0
M  V30 4992 N 483.339 0.512053 -1.4905 0
M  V30 4993 C 484.287 1.63568 -1.65373 0
M  V30 4994 C 485.281 1.61228 -0.519806 0
M  V30 4995 O 486.487 1.65869 -0.699101 0
M  V30 4996 H 482.862 0.542019 -0.521267 0
M  V30 4997 H 484.833 1.4695 -2.59708 0
M  V30 4998 C 483.582 3.01761 -1.7273 0
M  V30 4999 H 482.905 3.04263 -2.59353 0
M  V30 5000 H 484.345 3.79948 -1.8819 0
M  V30 5001 C 482.804 3.33609 -0.46973 0
M  V30 5002 O 483.334 3.99607 0.409492 0
M  V30 5003 N 481.54 2.88651 -0.336003 0
M  V30 5004 H 481.087 2.35119 -1.05247 0
M  V30 5005 H 481.045 3.10328 0.504363 0
M  V30 5006 N 484.817 1.37938 0.762283 0
M  V30 5007 C 485.75 1.2884 1.88349 0
M  V30 5008 C 486.728 0.167084 1.61739 0
M  V30 5009 O 487.912 0.34292 1.85355 0
M  V30 5010 C 485.039 0.994257 3.23778 0
M  V30 5011 C 484.085 2.13376 3.69287 0
M  V30 5012 S 484.918 3.75439 3.81845 0
M  V30 5013 C 486.074 3.48195 5.20107 0
M  V30 5014 H 486.307 2.23736 1.95779 0
M  V30 5015 H 483.84 1.23672 0.924368 0
M  V30 5016 H 485.798 0.83138 4.01993 0
M  V30 5017 H 484.459 0.0626251 3.14038 0
M  V30 5018 H 483.652 1.88319 4.67495 0
M  V30 5019 H 483.254 2.25726 2.98201 0
M  V30 5020 H 485.546 3.0377 6.05583 0
M  V30 5021 H 486.489 4.45765 5.50181 0
M  V30 5022 H 486.897 2.82905 4.88493 0
M  V30 5023 N 486.295 -0.989507 1.22664 0
M  V30 5024 C 487.243 -2.10148 0.997035 0
M  V30 5025 C 488.237 -1.6929 -0.0609783 0
M  V30 5026 O 489.443 -1.79766 0.0917523 0
M  V30 5027 H 485.818 -0.687256 0.305259 0
M  V30 5028 H 487.789 -2.26685 1.94053 0
M  V30 5029 C 486.538 -3.4257 0.595085 0
M  V30 5030 H 485.861 -3.74453 1.40089 0
M  V30 5031 H 487.301 -4.21344 0.473869 0
M  V30 5032 C 485.76 -3.29638 -0.695725 0
M  V30 5033 O 486.29 -3.61709 -1.74727 0
M  V30 5034 N 484.496 -2.82814 -0.668173 0
M  V30 5035 H 484.043 -2.56914 0.18787 0
M  V30 5036 H 484.001 -2.74544 -1.5321 0
M  V30 5037 N 487.773 -1.03688 -1.18687 0
M  V30 5038 C 489.019 -0.739123 -1.88851 0
M  V30 5039 C 489.352 0.731042 -1.79915 0
M  V30 5040 O 488.627 1.53313 -1.19688 0
M  V30 5041 C 488.91 -1.20106 -3.3948 0
M  V30 5042 C 488.763 -2.73304 -3.57246 0
M  V30 5043 C 490.082 -0.788134 -4.32986 0
M  V30 5044 H 487.201 -0.269978 -0.68577 0
M  V30 5045 H 489.843 -1.28822 -1.3966 0
M  V30 5046 H 487.993 -0.733915 -3.81505 0
M  V30 5047 H 489.665 -3.28027 -3.24339 0
M  V30 5048 H 487.908 -3.13313 -3.00029 0
M  V30 5049 H 488.579 -3.00684 -4.62918 0
M  V30 5050 H 491.055 -1.19005 -3.98719 0
M  V30 5051 H 489.931 -1.13915 -5.36949 0
M  V30 5052 H 490.192 0.308988 -4.41019 0
M  V30 5053 N 489.251 1.34841 -0.815825 0
M  V30 5054 C 490.662 1.80937 -0.46029 0
M  V30 5055 C 491.013 1.67685 1.01863 0
M  V30 5056 O 490.138 1.21277 1.79223 0
M  V30 5057 C 490.733 3.28509 -0.828708 0
M  V30 5058 C 489.292 3.72712 -0.525644 0
M  V30 5059 C 488.439 2.56676 -1.04941 0
M  V30 5060 H 491.39 1.22688 -1.00664 0
M  V30 5061 H 491.411 3.80279 -0.129757 0
M  V30 5062 H 490.923 3.38122 -1.90513 0
M  V30 5063 H 489.024 3.68642 0.541666 0
M  V30 5064 H 489.137 4.67119 -1.06474 0
M  V30 5065 H 487.501 2.50302 -0.471286 0
M  V30 5066 H 488.284 2.69063 -2.13214 0
M  V30 5067 N 490.729 0.570148 1.46925 0
M  V30 5068 C 491.977 0.0508523 2.02036 0
M  V30 5069 C 492.298 -1.30885 1.44548 0
M  V30 5070 O 491.568 -1.85647 0.625453 0
M  V30 5071 H 490.148 0.0158088 0.746833 0
M  V30 5072 H 492.81 0.743086 1.80178 0
M  V30 5073 H 491.906 -0.027575 3.12088 0
M  V30 5074 N 492.207 -1.54576 0.307264 0
M  V30 5075 C 493.117 -2.27435 -0.57536 0
M  V30 5076 C 494.133 -1.31183 -1.14311 0
M  V30 5077 O 495.309 -1.64175 -1.16656 0
M  V30 5078 C 492.374 -3.00566 -1.72803 0
M  V30 5079 C 491.435 -4.12369 -1.19373 0
M  V30 5080 C 490.668 -4.82003 -2.29147 0
M  V30 5081 O 490.891 -4.51038 -3.49171 0
M  V30 5082 O 489.825 -5.69271 -1.95485 0
M  V30 5083 H 493.651 -3.03696 0.0158558 0
M  V30 5084 H 491.236 -1.49219 0.0735064 0
M  V30 5085 H 493.118 -3.46416 -2.39946 0
M  V30 5086 H 491.793 -2.27195 -2.30574 0
M  V30 5087 H 490.7 -3.70905 -0.487851 0
M  V30 5088 H 492.033 -4.87736 -0.661376 0
M  V30 5089 N 493.685 -0.035106 -1.57561 0
M  V30 5090 C 494.962 0.681212 -1.83354 0
M  V30 5091 C 495.342 1.89986 -0.920252 0
M  V30 5092 O 494.69 2.28489 0.0226815 0
M  V30 5093 C 494.9 1.05376 -3.32712 0
M  V30 5094 C 496.248 1.44286 -3.99333 0
M  V30 5095 O 497.272 1.14656 -3.37242 0
M  V30 5096 O 496.131 1.99518 -5.08778 0
M  V30 5097 H 493.225 0.334741 -0.756226 0
M  V30 5098 H 495.771 -0.0632448 -1.69582 0
M  V30 5099 H 494.543 0.186668 -3.90854 0
M  V30 5100 H 494.166 1.85619 -3.51613 0
M  V30 5101 N 495.163 1.55791 0.238111 0
M  V30 5102 C 496.095 1.87513 1.31802 0
M  V30 5103 C 497.108 0.762053 1.43863 0
M  V30 5104 O 498.297 1.04024 1.45056 0
M  V30 5105 C 495.397 2.05402 2.69561 0
M  V30 5106 C 494.57 3.3632 2.79656 0
M  V30 5107 C 493.629 3.43844 3.98319 0
M  V30 5108 O 492.655 4.16994 3.87433 0
M  V30 5109 N 493.857 2.73777 5.11885 0
M  V30 5110 H 496.622 2.80734 1.04922 0
M  V30 5111 H 494.183 1.56135 0.428196 0
M  V30 5112 H 496.175 2.07769 3.47296 0
M  V30 5113 H 494.745 1.18884 2.89111 0
M  V30 5114 H 493.965 3.46195 1.88528 0
M  V30 5115 H 495.253 4.22594 2.83358 0
M  V30 5116 H 494.651 2.14094 5.23622 0
M  V30 5117 H 493.208 2.81825 5.87723 0
M  V30 5118 N 496.642 -0.504142 1.49319 0
M  V30 5119 C 497.872 -1.28071 1.62116 0
M  V30 5120 C 498.28 -1.86955 0.290566 0
M  V30 5121 O 497.623 -1.68415 -0.733616 0
M  V30 5122 C 497.685 -2.4521 2.62893 0
M  V30 5123 C 497.349 -2.07218 4.0732 0
M  V30 5124 C 498.346 -1.61375 4.94221 0
M  V30 5125 C 496.031 -2.16949 4.53033 0
M  V30 5126 C 498.025 -1.25763 6.2487 0
M  V30 5127 C 495.712 -1.80949 5.83696 0
M  V30 5128 C 496.71 -1.3543 6.69438 0
M  V30 5129 O 496.398 -0.99915 7.97667 0
M  V30 5130 H 496.13 -0.394763 0.54876 0
M  V30 5131 H 498.684 -0.612118 1.96067 0
M  V30 5132 H 496.914 -3.15134 2.24115 0
M  V30 5133 H 498.603 -3.0724 2.65252 0
M  V30 5134 H 499.369 -1.53306 4.60133 0
M  V30 5135 H 495.248 -2.5133 3.86463 0
M  V30 5136 H 498.792 -0.901631 6.91749 0
M  V30 5137 H 494.689 -1.88667 6.17313 0
M  V30 5138 H 495.457 -1.13089 8.1065 0
M  V30 5139 N 498.12 -1.38341 -0.754957 0
M  V30 5140 C 499.536 -1.19508 -1.05783 0
M  V30 5141 C 499.736 -0.0428005 -2.01455 0
M  V30 5142 O 498.792 0.611861 -2.44975 0
M  V30 5143 C 500.105 -2.52091 -1.63923 0
M  V30 5144 C 501.653 -2.58762 -1.76101 0
M  V30 5145 C 502.128 -3.91517 -2.37652 0
M  V30 5146 N 503.619 -3.93049 -2.45085 0
M  V30 5147 C 504.354 -4.9253 -2.93602 0
M  V30 5148 N 503.85 -6.02408 -3.42165 0
M  V30 5149 N 505.643 -4.79921 -2.92629 0
M  V30 5150 H 497.794 -2.1206 -0.120056 0
M  V30 5151 H 500.057 -0.94089 -0.11589 0
M  V30 5152 H 499.763 -3.36858 -1.01093 0
M  V30 5153 H 499.637 -2.70388 -2.63003 0
M  V30 5154 H 502.024 -1.74391 -2.38058 0
M  V30 5155 H 502.105 -2.44333 -0.757294 0
M  V30 5156 H 501.749 -4.76309 -1.76329 0
M  V30 5157 H 501.679 -4.03256 -3.38662 0
M  V30 5158 H 504.17 -3.13685 -2.10736 0
M  V30 5159 H 504.483 -6.74248 -3.77637 0
M  V30 5160 H 502.828 -6.0603 -3.40225 0
M  V30 5161 H 506.019 -3.93194 -2.54001 0
M  V30 5162 H 506.192 -5.57601 -3.30128 0
M  V30 5163 N 499.598 0.982988 -1.23187 0
M  V30 5164 C 500.826 1.75921 -1.08901 0
M  V30 5165 C 501.241 1.85341 0.359719 0
M  V30 5166 O 500.598 1.33072 1.24892 0
M  V30 5167 C 500.649 3.18742 -1.70545 0
M  V30 5168 O 500.37 3.09814 -3.09753 0
M  V30 5169 C 501.871 4.1277 -1.61667 0
M  V30 5170 H 499.091 0.552166 -0.381252 0
M  V30 5171 H 501.635 1.23516 -1.62985 0
M  V30 5172 H 499.79 3.68182 -1.20501 0
M  V30 5173 H 500.204 3.99703 -3.39614 0
M  V30 5174 H 501.678 5.10697 -2.09506 0
M  V30 5175 H 502.155 4.3542 -0.575009 0
M  V30 5176 H 502.761 3.69232 -2.11064 0
M  V30 5177 N 501.076 1.04316 1.18135 0
M  V30 5178 C 502.023 0.636398 2.21853 0
M  V30 5179 C 502.993 -0.357039 1.62217 0
M  V30 5180 O 504.178 -0.250453 1.89149 0
M  V30 5181 C 501.318 0.00812779 3.45099 0
M  V30 5182 C 500.431 1.04933 4.19062 0
M  V30 5183 C 499.566 0.389313 5.29771 0
M  V30 5184 C 498.605 1.41544 5.9551 0
M  V30 5185 N 497.742 0.78021 6.97751 0
M  V30 5186 H 502.582 1.52536 2.56002 0
M  V30 5187 H 500.119 0.76304 1.25762 0
M  V30 5188 H 502.077 -0.373497 4.15525 0
M  V30 5189 H 500.707 -0.844336 3.11562 0
M  V30 5190 H 499.759 1.54888 3.47439 0
M  V30 5191 H 501.071 1.82862 4.64072 0
M  V30 5192 H 500.225 -0.0463805 6.06682 0
M  V30 5193 H 498.964 -0.422038 4.8587 0
M  V30 5194 H 497.969 1.86124 5.17337 0
M  V30 5195 H 499.194 2.22854 6.41493 0
M  V30 5196 H 497.14 -0.0107899 6.55999 0
M  V30 5197 H 497.057 1.49716 7.41027 0
M  V30 5198 H 498.325 0.368996 7.78626 0
M  V30 5199 N 502.554 -1.34406 0.822964 0
M  V30 5200 C 503.802 -1.97892 0.410245 0
M  V30 5201 C 504.123 -1.65567 -1.03017 0
M  V30 5202 O 503.393 -0.94642 -1.71522 0
M  V30 5203 H 501.973 -0.732049 0.148707 0
M  V30 5204 H 504.635 -1.64043 1.05242 0
M  V30 5205 H 503.731 -3.07579 0.529284 0
M  V30 5206 N 504.032 -0.577932 -1.46621 0
M  V30 5207 C 505.278 -0.0617793 -2.02706 0
M  V30 5208 C 505.611 1.29294 -1.44903 0
M  V30 5209 O 504.886 1.8461 -0.61232 0
M  V30 5210 C 505.169 0.00911824 -3.60099 0
M  V30 5211 C 505.022 -1.37416 -4.28295 0
M  V30 5212 C 506.341 0.712159 -4.343 0
M  V30 5213 H 503.46 -0.0239246 -0.736612 0
M  V30 5214 H 506.102 -0.744211 -1.74818 0
M  V30 5215 H 504.252 0.590292 -3.83989 0
M  V30 5216 H 505.924 -2.00013 -4.15683 0
M  V30 5217 H 504.167 -1.94319 -3.87843 0
M  V30 5218 H 504.838 -1.27707 -5.37024 0
M  V30 5219 H 507.314 0.218486 -4.15526 0
M  V30 5220 H 506.19 0.730782 -5.44014 0
M  V30 5221 H 506.451 1.77251 -4.05012 0
M  V30 5222 N 505.51 1.54411 -0.315457 0
M  V30 5223 C 506.738 2.04833 0.291738 0
M  V30 5224 C 507.153 1.19203 1.46411 0
M  V30 5225 O 506.51 0.220867 1.81159 0
M  V30 5226 C 506.561 3.53969 0.73404 0
M  V30 5227 O 506.282 4.36346 -0.391682 0
M  V30 5228 C 507.783 4.2045 1.40489 0
M  V30 5229 H 505.003 0.668195 0.0612947 0
M  V30 5230 H 507.547 1.99276 -0.45929 0
M  V30 5231 H 505.702 3.5984 1.43506 0
M  V30 5232 H 506.116 5.24481 -0.0447088 0
M  V30 5233 H 507.59 5.26278 1.66539 0
M  V30 5234 H 508.067 3.71067 2.3496 0
M  V30 5235 H 508.673 4.18694 0.746662 0
M  V30 5236 N 506.988 0.0434614 1.5754 0
M  V30 5237 C 508.218 -0.640905 1.96408 0
M  V30 5238 C 508.626 -1.65365 0.919297 0
M  V30 5239 O 507.969 -1.83395 -0.105795 0
M  V30 5240 C 508.031 -1.39141 3.31482 0
M  V30 5241 C 507.695 -0.535375 4.53853 0
M  V30 5242 C 508.692 0.195335 5.19533 0
M  V30 5243 C 506.377 -0.468564 5.0011 0
M  V30 5244 C 508.371 0.981377 6.298 0
M  V30 5245 C 506.058 0.321171 6.10255 0
M  V30 5246 C 507.056 1.04484 6.74961 0
M  V30 5247 O 506.744 1.8216 7.8299 0
M  V30 5248 H 506.476 -0.180584 0.651433 0
M  V30 5249 H 509.03 0.103848 2.05137 0
M  V30 5250 H 507.26 -2.18162 3.19284 0
M  V30 5251 H 508.949 -1.96526 3.55151 0
M  V30 5252 H 509.715 0.15314 4.84758 0
M  V30 5253 H 505.594 -1.02142 4.49542 0
M  V30 5254 H 509.138 1.54674 6.80237 0
M  V30 5255 H 505.035 0.365032 6.44467 0
M  V30 5256 H 505.803 1.74289 7.99728 0
M  V30 5257 N 508.466 -1.55915 -0.229846 0
M  V30 5258 C 509.706 -1.80314 -0.962614 0
M  V30 5259 C 510.07 -0.61568 -1.81861 0
M  V30 5260 O 511.271 -0.738795 -2.58448 0
M  V30 5261 C 509.542 -3.0956 -1.78627 0
M  V30 5262 S 511.101 -3.55243 -2.57581 0
M  V30 5263 H 507.919 -0.633142 -0.323499 0
M  V30 5264 H 510.521 -1.94155 -0.228919 0
M  V30 5265 H 509.225 -3.94033 -1.14742 0
M  V30 5266 H 508.756 -2.98503 -2.56241 0
M  V30 5267 H 510.771 -3.17924 -3.80971 0
M  V30 5268 N 509.944 0.496216 -1.49584 0
M  V30 5269 C 511.355 1.07765 -1.52459 0
M  V30 5270 C 511.706 1.93679 -0.31353 0
M  V30 5271 O 510.831 2.08588 0.576186 0
M  V30 5272 C 511.426 1.96111 -2.76271 0
M  V30 5273 C 509.985 2.49409 -2.81908 0
M  V30 5274 C 509.132 1.27142 -2.46435 0
M  V30 5275 H 512.083 0.279914 -1.56212 0
M  V30 5276 H 512.104 2.80862 -2.56704 0
M  V30 5277 H 511.616 1.33555 -3.64396 0
M  V30 5278 H 509.717 3.1559 -1.98074 0
M  V30 5279 H 509.83 2.86234 -3.84196 0
M  V30 5280 H 508.194 1.59818 -1.98319 0
M  V30 5281 H 508.977 0.662866 -3.3684 0
M  V30 5282 N 511.423 1.38739 0.74761 0
M  V30 5283 C 512.373 1.32948 1.85226 0
M  V30 5284 C 513.357 0.212642 1.59489 0
M  V30 5285 O 514.549 0.449121 1.71207 0
M  V30 5286 C 511.678 1.16279 3.23008 0
M  V30 5287 C 510.764 2.32611 3.54617 0
M  V30 5288 N 511.155 3.58065 3.57244 0
M  V30 5289 C 509.453 2.25293 3.84914 0
M  V30 5290 C 510.154 4.34919 3.8629 0
M  V30 5291 N 509.13 3.64348 4.03425 0
M  V30 5292 H 512.932 2.27927 1.85544 0
M  V30 5293 H 510.446 1.32056 0.945253 0
M  V30 5294 H 512.443 1.10214 4.02068 0
M  V30 5295 H 511.103 0.222394 3.23937 0
M  V30 5296 H 512.114 3.91656 3.3886 0
M  V30 5297 H 508.791 1.39446 3.93524 0
M  V30 5298 H 510.181 5.43605 3.94896 0
M  V30 5299 N 512.901 -0.976442 1.23707 0
M  V30 5300 C 514.141 -1.73331 1.08332 0
M  V30 5301 C 514.505 -1.88346 -0.372781 0
M  V30 5302 O 515.706 -2.60877 -0.647813 0
M  V30 5303 C 513.977 -3.09159 1.7932 0
M  V30 5304 S 515.536 -4.00376 1.79567 0
M  V30 5305 H 512.354 -0.596045 0.387622 0
M  V30 5306 H 514.956 -1.16625 1.56904 0
M  V30 5307 H 513.66 -2.95884 2.84395 0
M  V30 5308 H 513.191 -3.70932 1.31046 0
M  V30 5309 H 515.206 -4.88742 0.857094 0
M  V30 5310 N 514.379 -1.04941 -1.1758 0
M  V30 5311 C 515.656 -0.671918 -1.83697 0
M  V30 5312 C 516.036 0.847929 -1.93322 0
M  V30 5313 O 515.384 1.75287 -1.46583 0
M  V30 5314 C 515.594 -1.35797 -3.21497 0
M  V30 5315 C 516.942 -1.4944 -3.97433 0
M  V30 5316 O 517.966 -1.31678 -3.30967 0
M  V30 5317 O 516.825 -1.78463 -5.1654 0
M  V30 5318 H 513.919 -0.236212 -0.792548 0
M  V30 5319 H 516.465 -1.14884 -1.24899 0
M  V30 5320 H 515.237 -2.39498 -3.09446 0
M  V30 5321 H 514.86 -0.870236 -3.8796 0
M  V30 5322 N 515.857 1.33968 -0.830081 0
M  V30 5323 C 517.105 1.97672 -0.420734 0
M  V30 5324 C 517.426 1.66111 1.02138 0
M  V30 5325 O 516.696 0.955503 1.71017 0
M  V30 5326 H 515.276 0.73125 -0.152587 0
M  V30 5327 H 517.938 1.63483 -1.0611 0
M  V30 5328 H 517.034 3.07294 -0.545588 0
M  V30 5329 N 517.335 0.585699 1.46312 0
M  V30 5330 C 518.746 0.159938 1.86014 0
M  V30 5331 C 519.097 -1.27775 1.48889 0
M  V30 5332 O 518.222 -1.96559 0.90519 0
M  V30 5333 C 518.817 0.283485 3.37612 0
M  V30 5334 C 517.376 -0.0874256 3.76298 0
M  V30 5335 C 516.523 0.618055 2.70325 0
M  V30 5336 H 519.474 0.793737 1.37425 0
M  V30 5337 H 519.495 -0.490348 3.77327 0
M  V30 5338 H 519.007 1.32995 3.64601 0
M  V30 5339 H 517.108 -1.13391 3.54927 0
M  V30 5340 H 517.221 0.290975 4.78216 0
M  V30 5341 H 515.585 0.057993 2.54634 0
M  V30 5342 H 516.368 1.66623 3.00153 0
M  V30 5343 N 518.813 -1.54241 0.323641 0
M  V30 5344 C 519.743 -2.27289 -0.534993 0
M  V30 5345 C 520.724 -1.28087 -1.11927 0
M  V30 5346 O 521.909 -1.56899 -1.14439 0
M  V30 5347 C 519.039 -3.03075 -1.69596 0
M  V30 5348 C 517.993 -4.09614 -1.24098 0
M  V30 5349 C 517.319 -4.73242 -2.4889 0
M  V30 5350 C 518.619 -5.21087 -0.355789 0
M  V30 5351 H 520.313 -2.99308 0.0743257 0
M  V30 5352 H 517.859 -1.43952 0.0371874 0
M  V30 5353 H 519.812 -3.52907 -2.30293 0
M  V30 5354 H 518.536 -2.28673 -2.33187 0
M  V30 5355 H 517.195 -3.60666 -0.656945 0
M  V30 5356 H 516.843 -3.95455 -3.10845 0
M  V30 5357 H 516.543 -5.45209 -2.19138 0
M  V30 5358 H 518.067 -5.25848 -3.10348 0
M  V30 5359 H 519.481 -5.66675 -0.869042 0
M  V30 5360 H 517.878 -5.9991 -0.151045 0
M  V30 5361 H 518.948 -4.81005 0.613339 0
M  V30 5362 N 520.291 -0.0518155 -1.57515 0
M  V30 5363 C 521.538 0.621823 -1.92716 0
M  V30 5364 C 521.866 1.70813 -0.930229 0
M  V30 5365 O 521.121 1.95616 0.0573708 0
M  V30 5366 C 521.42 1.25607 -3.34601 0
M  V30 5367 C 521.086 0.297901 -4.49915 0
M  V30 5368 C 519.748 0.034243 -4.81188 0
M  V30 5369 C 522.1 -0.358738 -5.19964 0
M  V30 5370 C 519.428 -0.893479 -5.79857 0
M  V30 5371 C 521.78 -1.27466 -6.19625 0
M  V30 5372 C 520.444 -1.54698 -6.49326 0
M  V30 5373 H 519.714 0.227541 -0.705199 0
M  V30 5374 H 522.361 -0.118432 -1.91133 0
M  V30 5375 H 520.666 2.07161 -3.32553 0
M  V30 5376 H 522.363 1.78424 -3.59118 0
M  V30 5377 H 518.953 0.513581 -4.25512 0
M  V30 5378 H 523.137 -0.168133 -4.96015 0
M  V30 5379 H 518.393 -1.11193 -6.01204 0
M  V30 5380 H 522.567 -1.78953 -6.73015 0
M  V30 5381 H 520.194 -2.26748 -7.25596 0
M  V30 5382 N 521.769 1.56035 0.221574 0
M  V30 5383 C 522.716 1.92413 1.27459 0
M  V30 5384 C 523.686 0.781323 1.46576 0
M  V30 5385 O 524.871 1.03721 1.60145 0
M  V30 5386 C 522.011 2.24617 2.61995 0
M  V30 5387 C 521.124 3.51831 2.50677 0
M  V30 5388 C 520.259 3.73482 3.77736 0
M  V30 5389 C 519.298 4.94211 3.6114 0
M  V30 5390 N 518.435 5.12252 4.80148 0
M  V30 5391 H 523.275 2.82203 0.957355 0
M  V30 5392 H 520.812 1.39676 0.461415 0
M  V30 5393 H 522.77 2.41298 3.40339 0
M  V30 5394 H 521.4 1.38 2.91815 0
M  V30 5395 H 520.452 3.43343 1.63767 0
M  V30 5396 H 521.764 4.40328 2.34334 0
M  V30 5397 H 520.918 3.9026 4.64523 0
M  V30 5398 H 519.657 2.83266 3.97003 0
M  V30 5399 H 518.662 4.77384 2.72736 0
M  V30 5400 H 519.887 5.85912 3.43343 0
M  V30 5401 H 517.833 4.24978 4.99729 0
M  V30 5402 H 517.75 5.94881 4.66532 0
M  V30 5403 H 519.018 5.33465 5.68362 0
M  V30 5404 N 523.247 -0.488276 1.49845 0
M  V30 5405 C 524.495 -1.23911 1.59657 0
M  V30 5406 C 524.816 -1.92816 0.291005 0
M  V30 5407 O 524.086 -1.83328 -0.690485 0
M  V30 5408 H 522.666 -0.460357 0.588286 0
M  V30 5409 H 525.328 -0.564794 1.86537 0
M  V30 5410 H 524.424 -1.99625 2.39909 0
M  V30 5411 N 524.725 -1.39134 -0.740242 0
M  V30 5412 C 525.672 -1.37434 -1.8542 0
M  V30 5413 C 526.642 -0.234822 -1.64432 0
M  V30 5414 O 527.827 -0.429125 -1.85912 0
M  V30 5415 C 524.967 -1.21844 -3.22875 0
M  V30 5416 C 524.08 -2.45296 -3.55603 0
M  V30 5417 C 523.215 -2.22334 -4.82432 0
M  V30 5418 C 522.254 -3.41488 -5.07988 0
M  V30 5419 N 521.391 -3.17877 -6.26018 0
M  V30 5420 H 526.231 -2.3266 -1.86207 0
M  V30 5421 H 523.768 -1.15578 -0.909946 0
M  V30 5422 H 525.726 -1.10818 -4.02213 0
M  V30 5423 H 524.356 -0.3025 -3.21379 0
M  V30 5424 H 523.408 -2.66945 -2.71006 0
M  V30 5425 H 524.72 -3.34063 -3.7041 0
M  V30 5426 H 523.874 -2.0852 -5.69741 0
M  V30 5427 H 522.613 -1.30954 -4.6979 0
M  V30 5428 H 521.618 -3.55807 -4.19144 0
M  V30 5429 H 522.843 -4.33763 -5.22519 0
M  V30 5430 H 520.789 -2.29156 -6.14673 0
M  V30 5431 H 520.706 -4.00198 -6.41387 0
M  V30 5432 H 521.974 -3.07746 -7.16179 0
M  V30 5433 N 526.204 0.969867 -1.24223 0
M  V30 5434 C 527.62 1.23809 -1.00716 0
M  V30 5435 C 527.82 1.99469 0.285358 0
M  V30 5436 O 526.876 2.31764 1.00207 0
M  V30 5437 C 528.189 2.02734 -2.2208 0
M  V30 5438 C 529.737 2.15834 -2.26681 0
M  V30 5439 C 530.212 2.98154 -3.47661 0
M  V30 5440 N 531.703 3.05737 -3.47964 0
M  V30 5441 C 532.438 3.69785 -4.38231 0
M  V30 5442 N 531.934 4.35569 -5.3875 0
M  V30 5443 N 533.727 3.66775 -4.25949 0
M  V30 5444 H 525.878 0.463294 -2.07286 0
M  V30 5445 H 528.141 0.267348 -0.909521 0
M  V30 5446 H 527.847 1.54524 -3.15935 0
M  V30 5447 H 527.721 3.0347 -2.24021 0
M  V30 5448 H 530.108 2.63248 -1.33359 0
M  V30 5449 H 530.189 1.14453 -2.28767 0
M  V30 5450 H 529.833 2.51435 -4.41297 0
M  V30 5451 H 529.763 3.99729 -3.42818 0
M  V30 5452 H 532.254 2.58941 -2.75242 0
M  V30 5453 H 532.567 4.82251 -6.03866 0
M  V30 5454 H 530.912 4.34244 -5.42639 0
M  V30 5455 H 534.103 3.14558 -3.46657 0
M  V30 5456 H 534.276 4.16407 -4.96497 0
M  V30 5457 N 527.682 1.05563 1.17022 0
M  V30 5458 C 528.928 0.769074 1.87652 0
M  V30 5459 C 529.261 -0.702326 1.81055 0
M  V30 5460 O 528.536 -1.5139 1.22112 0
M  V30 5461 C 528.819 1.25492 3.37526 0
M  V30 5462 C 528.672 2.78953 3.52853 0
M  V30 5463 C 529.991 0.856919 4.31677 0
M  V30 5464 H 527.11 0.280854 0.681388 0
M  V30 5465 H 529.752 1.31027 1.37593 0
M  V30 5466 H 527.902 0.794516 3.80289 0
M  V30 5467 H 529.574 3.33146 3.19079 0
M  V30 5468 H 527.817 3.18046 2.95007 0
M  V30 5469 H 528.488 3.08011 4.58076 0
M  V30 5470 H 530.964 1.25334 3.96775 0
M  V30 5471 H 529.84 1.22443 5.35069 0
M  V30 5472 H 530.101 -0.238787 4.41455 0
M  V30 5473 N 529.16 -1.33526 0.837174 0
M  V30 5474 C 530.123 -2.27551 0.274421 0
M  V30 5475 C 531.123 -1.50886 -0.555881 0
M  V30 5476 O 532.313 -1.70227 -0.369918 0
M  V30 5477 C 529.445 -3.35332 -0.613605 0
M  V30 5478 H 530.638 -2.78837 1.10408 0
M  V30 5479 H 528.191 -1.439 0.610126 0
M  V30 5480 H 528.926 -2.89285 -1.46577 0
M  V30 5481 H 528.711 -3.92095 -0.0195341 0
M  V30 5482 H 530.201 -4.05433 -1.00068 0
M  V30 5483 N 530.638 -0.59345 -1.46 0
M  V30 5484 C 531.884 -0.0832754 -2.02629 0
M  V30 5485 C 532.217 1.27749 -1.46266 0
M  V30 5486 O 531.492 1.8395 -0.631866 0
M  V30 5487 C 531.775 -0.0290756 -3.60088 0
M  V30 5488 C 531.628 -1.41951 -4.26814 0
M  V30 5489 C 532.947 0.666055 -4.35031 0
M  V30 5490 H 530.066 -0.031736 -0.736316 0
M  V30 5491 H 532.708 -0.762711 -1.74019 0
M  V30 5492 H 530.858 0.549532 -3.84594 0
M  V30 5493 H 532.53 -2.04411 -4.13538 0
M  V30 5494 H 530.773 -1.98422 -3.8576 0
M  V30 5495 H 531.444 -1.33395 -5.3564 0
M  V30 5496 H 533.92 0.174401 -4.15734 0
M  V30 5497 H 532.796 0.673041 -5.44758 0
M  V30 5498 H 533.057 1.72946 -4.06869 0
M  V30 5499 N 532.116 1.54067 -0.331816 0
M  V30 5500 C 533.365 1.99895 0.269209 0
M  V30 5501 C 533.678 1.22371 1.52593 0
M  V30 5502 O 534.884 1.58618 2.20347 0
M  V30 5503 C 533.34 3.55972 0.530244 0
M  V30 5504 C 532.948 4.4234 -0.709901 0
M  V30 5505 C 534.692 4.10247 1.09077 0
M  V30 5506 C 532.599 5.89905 -0.420312 0
M  V30 5507 H 531.529 0.746741 0.104371 0
M  V30 5508 H 534.18 1.78014 -0.445324 0
M  V30 5509 H 532.562 3.73873 1.30518 0
M  V30 5510 H 533.736 4.36215 -1.48504 0
M  V30 5511 H 532.051 3.98997 -1.19123 0
M  V30 5512 H 534.648 5.18095 1.32219 0
M  V30 5513 H 534.991 3.62739 2.0427 0
M  V30 5514 H 535.524 3.96011 0.376824 0
M  V30 5515 H 532.263 6.41623 -1.34164 0
M  V30 5516 H 531.783 5.98962 0.316962 0
M  V30 5517 H 533.462 6.46991 -0.0331956 0
M  V30 5518 N 533.594 0.0601682 1.57485 0
M  V30 5519 C 534.842 -0.610386 1.92662 0
M  V30 5520 C 535.163 -1.70849 0.939981 0
M  V30 5521 O 534.433 -1.95895 -0.0137455 0
M  V30 5522 H 533.013 -0.228457 0.711208 0
M  V30 5523 H 535.675 0.115288 1.94559 0
M  V30 5524 H 534.771 -1.0432 2.94149 0
M  V30 5525 N 535.072 -1.5615 -0.213296 0
M  V30 5526 C 536.32 -1.79191 -0.934612 0
M  V30 5527 C 536.641 -0.630112 -1.84539 0
M  V30 5528 O 535.911 0.35257 -1.92701 0
M  V30 5529 H 534.491 -0.660937 -0.348097 0
M  V30 5530 H 537.153 -1.93618 -0.22317 0
M  V30 5531 H 536.249 -2.71656 -1.53654 0
M  V30 5532 N 536.55 0.480323 -1.50102 0
M  V30 5533 C 537.798 1.23063 -1.60312 0
M  V30 5534 C 538.119 1.92659 -0.301226 0
M  V30 5535 O 537.389 1.83691 0.680753 0
M  V30 5536 H 535.969 0.457231 -0.590719 0
M  V30 5537 H 538.631 0.554893 -1.86834 0
M  V30 5538 H 537.727 1.9835 -2.40964 0
M  V30 5539 N 538.028 1.39524 0.732853 0
M  V30 5540 C 538.976 1.38563 1.86824 0
M  V30 5541 C 539.97 0.268467 1.67259 0
M  V30 5542 O 541.176 0.438613 1.74574 0
M  V30 5543 H 537.551 0.432737 0.615014 0
M  V30 5544 H 539.522 2.34328 1.84751 0
M  V30 5545 C 538.271 1.2481 3.24527 0
M  V30 5546 H 537.594 2.10044 3.40179 0
M  V30 5547 H 539.034 1.28194 4.04156 0
M  V30 5548 C 537.493 -0.0432825 3.36872 0
M  V30 5549 O 538.023 -1.01268 3.88726 0
M  V30 5550 N 536.229 -0.107055 2.90403 0
M  V30 5551 H 535.776 0.682512 2.48394 0
M  V30 5552 H 535.734 -0.970618 2.99042 0
M  V30 5553 N 539.506 -0.963266 1.24736 0
M  V30 5554 C 540.731 -1.74699 1.11781 0
M  V30 5555 C 541.156 -1.85267 -0.325258 0
M  V30 5556 O 540.514 -1.32681 -1.23553 0
M  V30 5557 C 540.562 -3.14322 1.76731 0
M  V30 5558 O 539.666 -3.99043 1.04109 0
M  V30 5559 H 539.007 -0.53684 0.390767 0
M  V30 5560 H 541.537 -1.20801 1.65131 0
M  V30 5561 H 541.547 -3.64824 1.82668 0
M  V30 5562 H 540.222 -3.05946 2.81726 0
M  V30 5563 H 538.799 -3.5752 1.05991 0
M  V30 5564 N 540.985 -1.06182 -1.16461 0
M  V30 5565 C 542.233 -0.776326 -1.86595 0
M  V30 5566 C 542.554 0.69921 -1.82033 0
M  V30 5567 O 541.824 1.50579 -1.2531 0
M  V30 5568 H 540.404 -0.284184 -0.690832 0
M  V30 5569 H 543.066 -1.34308 -1.41235 0
M  V30 5570 H 542.162 -1.10022 -2.92064 0
M  V30 5571 N 542.463 1.3308 -0.844243 0
M  V30 5572 C 543.709 1.97898 -0.443206 0
M  V30 5573 C 544.042 1.66699 0.99625 0
M  V30 5574 O 543.317 0.949704 1.69738 0
M  V30 5575 C 543.6 3.53801 -0.670606 0
M  V30 5576 C 543.453 3.94667 -2.15772 0
M  V30 5577 C 544.772 4.39936 -0.120226 0
M  V30 5578 H 541.891 0.718861 -0.162504 0
M  V30 5579 H 544.533 1.57633 -1.06075 0
M  V30 5580 H 542.683 3.88229 -0.14496 0
M  V30 5581 H 544.355 3.70469 -2.74865 0
M  V30 5582 H 542.598 3.44203 -2.6402 0
M  V30 5583 H 543.269 5.03275 -2.26757 0
M  V30 5584 H 545.745 4.12183 -0.5696 0
M  V30 5585 H 544.621 5.4803 -0.308984 0
M  V30 5586 H 544.882 4.31184 0.976347 0
M  V30 5587 N 543.941 0.601185 1.45683 0
M  V30 5588 C 544.851 -0.123395 2.34275 0
M  V30 5589 C 545.867 -0.86702 1.5086 0
M  V30 5590 O 547.043 -0.826049 1.8368 0
M  V30 5591 C 544.108 -1.11237 3.2837 0
M  V30 5592 C 543.169 -0.371405 4.2769 0
M  V30 5593 C 542.402 -1.31327 5.1729 0
M  V30 5594 O 542.625 -2.55078 5.10188 0
M  V30 5595 O 541.559 -0.813811 5.96373 0
M  V30 5596 H 545.385 0.604483 2.97623 0
M  V30 5597 H 542.97 0.361477 1.44961 0
M  V30 5598 H 544.852 -1.68214 3.8637 0
M  V30 5599 H 543.527 -1.82139 2.67595 0
M  V30 5600 H 542.434 0.24067 3.73325 0
M  V30 5601 H 543.767 0.296998 4.91303 0
M  V30 5602 N 545.419 -1.53889 0.339982 0
M  V30 5603 C 546.382 -2.23547 -0.50592 0
M  V30 5604 C 547.382 -1.23445 -1.03044 0
M  V30 5605 O 548.572 -1.47909 -0.920253 0
M  V30 5606 C 545.704 -2.95234 -1.7044 0
M  V30 5607 H 546.897 -2.99722 0.103247 0
M  V30 5608 H 544.45 -1.56033 0.0912804 0
M  V30 5609 H 545.185 -2.23236 -2.35236 0
M  V30 5610 H 544.97 -3.68654 -1.33553 0
M  V30 5611 H 546.46 -3.48258 -2.30447 0
M  V30 5612 N 546.897 -0.0685191 -1.57451 0
M  V30 5613 C 547.86 0.885173 -2.11417 0
M  V30 5614 C 548.86 1.22853 -1.03748 0
M  V30 5615 O 550.05 1.16235 -1.2975 0
M  V30 5616 C 547.182 2.18964 -2.61281 0
M  V30 5617 H 548.375 0.417034 -2.96986 0
M  V30 5618 H 545.928 0.18014 -1.55258 0
M  V30 5619 H 546.663 2.70321 -1.79156 0
M  V30 5620 H 546.448 1.9534 -3.39977 0
M  V30 5621 H 547.938 2.87242 -3.0312 0
M  V30 5622 N 548.375 1.56261 0.205012 0
M  V30 5623 C 549.624 1.79236 0.925058 0
M  V30 5624 C 549.937 0.640011 1.84833 0
M  V30 5625 O 551.143 0.753809 2.60826 0
M  V30 5626 C 549.599 3.17475 1.69522 0
M  V30 5627 C 549.207 4.40482 0.817269 0
M  V30 5628 C 550.951 3.49766 2.4055 0
M  V30 5629 C 548.858 5.69744 1.58573 0
M  V30 5630 H 547.788 0.668287 0.349153 0
M  V30 5631 H 550.439 1.82629 0.178544 0
M  V30 5632 H 548.821 3.08304 2.48526 0
M  V30 5633 H 549.995 4.60752 0.0665988 0
M  V30 5634 H 548.31 4.15827 0.218316 0
M  V30 5635 H 550.907 4.43573 2.98575 0
M  V30 5636 H 551.25 2.73041 3.14252 0
M  V30 5637 H 551.783 3.60341 1.68522 0
M  V30 5638 H 548.522 6.49407 0.891679 0
M  V30 5639 H 548.042 5.53509 2.31059 0
M  V30 5640 H 549.721 6.1051 2.14212 0
M  V30 5641 N 549.853 -0.472356 1.50355 0
M  V30 5642 C 551.13 -1.23356 1.51798 0
M  V30 5643 C 551.51 -2.09469 0.26193 0
M  V30 5644 O 550.858 -2.15677 -0.754691 0
M  V30 5645 C 551.068 -2.06568 2.81302 0
M  V30 5646 C 552.416 -2.648 3.31913 0
M  V30 5647 O 553.44 -2.16812 2.82614 0
M  V30 5648 O 552.299 -3.52231 4.17846 0
M  V30 5649 H 549.393 -0.559707 0.608816 0
M  V30 5650 H 551.939 -0.48428 1.62643 0
M  V30 5651 H 550.711 -1.43103 3.64194 0
M  V30 5652 H 550.334 -2.88633 2.73454 0
M  V30 5653 N 551.331 -1.39911 -0.725443 0
M  V30 5654 C 552.261 -1.42138 -1.85254 0
M  V30 5655 C 553.242 -0.283513 -1.67721 0
M  V30 5656 O 554.427 -0.490717 -1.87898 0
M  V30 5657 C 551.557 -1.27354 -3.23107 0
M  V30 5658 C 550.511 -2.3864 -3.55296 0
M  V30 5659 C 549.837 -2.08939 -4.92188 0
M  V30 5660 C 551.137 -3.8097 -3.57295 0
M  V30 5661 H 552.831 -2.36461 -1.83648 0
M  V30 5662 H 550.377 -1.13817 -0.882138 0
M  V30 5663 H 552.33 -1.2753 -4.01639 0
M  V30 5664 H 551.054 -0.295025 -3.25265 0
M  V30 5665 H 549.713 -2.37696 -2.79099 0
M  V30 5666 H 549.361 -1.09502 -4.90936 0
M  V30 5667 H 549.061 -2.83491 -5.14691 0
M  V30 5668 H 550.585 -2.10781 -5.73065 0
M  V30 5669 H 551.999 -3.8379 -4.25885 0
M  V30 5670 H 550.396 -4.5496 -3.9132 0
M  V30 5671 H 551.466 -4.11261 -2.5689 0
M  V30 5672 N 552.809 0.956637 -1.25245 0
M  V30 5673 C 553.772 2.03457 -1.05537 0
M  V30 5674 C 554.772 1.60798 -0.00886317 0
M  V30 5675 O 555.962 1.72384 -0.250865 0
M  V30 5676 C 553.094 3.35543 -0.601965 0
M  V30 5677 H 554.287 2.22372 -2.01223 0
M  V30 5678 H 551.84 1.13344 -1.07623 0
M  V30 5679 H 552.575 3.22323 0.357584 0
M  V30 5680 H 552.36 3.67854 -1.35743 0
M  V30 5681 H 553.85 4.14769 -0.485454 0
M  V30 5682 N 554.287 1.06798 1.15896 0
M  V30 5683 C 555.535 0.786211 1.8618 0
M  V30 5684 C 555.856 -0.689547 1.82401 0
M  V30 5685 O 555.126 -1.49913 1.26107 0
M  V30 5686 H 553.706 0.287843 0.689315 0
M  V30 5687 H 556.368 1.35055 1.40521 0
M  V30 5688 H 555.464 1.1157 2.91477 0
M  V30 5689 N 555.766 -1.3263 0.851289 0
M  V30 5690 C 557.015 -1.96633 0.449267 0
M  V30 5691 C 557.328 -1.68131 -0.999562 0
M  V30 5692 O 558.534 -2.25845 -1.50685 0
M  V30 5693 C 556.99 -3.51946 0.752446 0
M  V30 5694 C 556.598 -3.89311 2.21678 0
M  V30 5695 C 558.342 -4.22437 0.417983 0
M  V30 5696 C 556.249 -5.37655 2.46336 0
M  V30 5697 H 555.179 -0.735888 0.164269 0
M  V30 5698 H 557.83 -1.51073 1.0416 0
M  V30 5699 H 556.212 -3.95899 0.0895858 0
M  V30 5700 H 557.386 -3.56378 2.92115 0
M  V30 5701 H 555.701 -3.31836 2.51543 0
M  V30 5702 H 558.298 -5.31549 0.579674 0
M  V30 5703 H 558.641 -4.11349 -0.640115 0
M  V30 5704 H 559.174 -3.84057 1.03659 0
M  V30 5705 H 555.913 -5.5376 3.50757 0
M  V30 5706 H 555.433 -5.72005 1.80473 0
M  V30 5707 H 557.112 -6.04695 2.30115 0
M  V30 5708 N 557.244 -0.608902 -1.45362 0
M  V30 5709 C 558.49 -0.104762 -2.02529 0
M  V30 5710 C 558.823 1.26191 -1.47613 0
M  V30 5711 O 558.098 1.8327 -0.65134 0
M  V30 5712 C 558.381 -0.0672661 -3.60037 0
M  V30 5713 C 558.234 -1.4647 -4.25284 0
M  V30 5714 C 559.553 0.619877 -4.35713 0
M  V30 5715 H 556.672 -0.0395438 -0.735938 0
M  V30 5716 H 559.314 -0.781126 -1.73201 0
M  V30 5717 H 557.464 0.50871 -3.85155 0
M  V30 5718 H 559.136 -2.08785 -4.11347 0
M  V30 5719 H 557.379 -2.02502 -3.83634 0
M  V30 5720 H 558.05 -1.39069 -5.34195 0
M  V30 5721 H 560.526 0.130297 -4.15896 0
M  V30 5722 H 559.402 0.615224 -5.45441 0
M  V30 5723 H 559.663 1.68621 -4.0868 0
M  V30 5724 N 558.722 1.53707 -0.348139 0
M  V30 5725 C 559.632 2.28881 0.514857 0
M  V30 5726 C 560.648 1.34168 1.10793 0
M  V30 5727 O 561.824 1.6721 1.12262 0
M  V30 5728 C 558.889 3.05042 1.64774 0
M  V30 5729 C 557.95 4.15389 1.08398 0
M  V30 5730 C 557.183 4.87909 2.16287 0
M  V30 5731 O 557.406 4.60137 3.3709 0
M  V30 5732 O 556.34 5.74254 1.80323 0
M  V30 5733 H 560.166 3.03547 -0.0963699 0
M  V30 5734 H 557.751 1.48972 -0.113043 0
M  V30 5735 H 559.633 3.52656 2.30677 0
M  V30 5736 H 558.308 2.33228 2.24469 0
M  V30 5737 H 557.215 3.72068 0.389341 0
M  V30 5738 H 558.548 4.89318 0.531829 0
M  V30 5739 N 560.2 0.0768682 1.57412 0
M  V30 5740 C 561.15 -0.898795 2.09537 0
M  V30 5741 C 562.134 -1.25556 1.0062 0
M  V30 5742 O 563.326 -1.23369 1.26921 0
M  V30 5743 C 560.455 -2.16453 2.66464 0
M  V30 5744 C 559.541 -1.83401 3.82393 0
M  V30 5745 N 559.932 -1.20823 4.91157 0
M  V30 5746 C 558.23 -2.13121 3.91785 0
M  V30 5747 C 558.931 -1.05976 5.71965 0
M  V30 5748 N 557.907 -1.57113 5.204 0
M  V30 5749 H 561.709 -0.410718 2.91016 0
M  V30 5750 H 559.223 -0.126878 1.61904 0
M  V30 5751 H 561.22 -2.87274 3.02125 0
M  V30 5752 H 559.88 -2.65844 1.86433 0
M  V30 5753 H 560.891 -0.877249 5.10416 0
M  V30 5754 H 557.568 -2.64854 3.22736 0
M  V30 5755 H 558.958 -0.571809 6.69462 0
M  V30 5756 N 561.678 -1.56367 -0.196722 0
M  V30 5757 C 562.924 -1.80796 -0.918725 0
M  V30 5758 C 563.257 -0.650645 -1.82976 0
M  V30 5759 O 562.532 0.348889 -1.91345 0
M  V30 5760 C 562.815 -3.15472 -1.73636 0
M  V30 5761 C 562.668 -4.41693 -0.85015 0
M  V30 5762 C 563.987 -3.46824 -2.70927 0
M  V30 5763 H 561.106 -0.657702 -0.332561 0
M  V30 5764 H 563.748 -1.89086 -0.186186 0
M  V30 5765 H 561.898 -3.08536 -2.36088 0
M  V30 5766 H 563.57 -4.60673 -0.240459 0
M  V30 5767 H 561.813 -4.33517 -0.156785 0
M  V30 5768 H 562.484 -5.32419 -1.45719 0
M  V30 5769 H 564.96 -3.54049 -2.18607 0
M  V30 5770 H 563.836 -4.4218 -3.25219 0
M  V30 5771 H 564.097 -2.70236 -3.49893 0
M  V30 5772 N 563.156 0.464375 -1.50603 0
M  V30 5773 C 564.384 1.23907 -1.65695 0
M  V30 5774 C 564.799 1.85658 -0.343027 0
M  V30 5775 O 564.156 1.69529 0.675739 0
M  V30 5776 C 564.207 2.3429 -2.75301 0
M  V30 5777 O 563.928 1.7507 -4.01599 0
M  V30 5778 C 565.429 3.25051 -3.01424 0
M  V30 5779 H 562.649 0.374485 -0.556778 0
M  V30 5780 H 565.193 0.55353 -1.96866 0
M  V30 5781 H 563.348 2.98607 -2.46804 0
M  V30 5782 H 563.762 2.47812 -4.62266 0
M  V30 5783 H 565.236 3.98699 -3.81763 0
M  V30 5784 H 565.713 3.84227 -2.12758 0
M  V30 5785 H 566.319 2.66463 -3.31477 0
M  V30 5786 N 564.634 1.40294 0.718013 0
M  V30 5787 C 565.564 1.43118 1.84498 0
M  V30 5788 C 566.545 0.292403 1.67568 0
M  V30 5789 O 567.73 0.500675 1.87635 0
M  V30 5790 C 564.86 1.29065 3.22427 0
M  V30 5791 C 563.814 2.40521 3.54025 0
M  V30 5792 C 563.14 2.11546 4.91073 0
M  V30 5793 C 564.44 3.82859 3.55269 0
M  V30 5794 H 566.134 2.37432 1.82391 0
M  V30 5795 H 563.68 1.14283 0.87609 0
M  V30 5796 H 565.633 1.29658 4.00957 0
M  V30 5797 H 564.357 0.312271 3.25104 0
M  V30 5798 H 563.016 2.39173 2.77834 0
M  V30 5799 H 562.664 1.12104 4.90348 0
M  V30 5800 H 562.364 2.86216 5.1318 0
M  V30 5801 H 563.888 2.13817 5.71939 0
M  V30 5802 H 565.302 3.86044 4.23843 0
M  V30 5803 H 563.699 4.57029 3.88902 0
M  V30 5804 H 564.769 4.12617 2.54706 0
M  V30 5805 N 566.112 -0.949982 1.2575 0
M  V30 5806 C 567.042 -2.06483 1.09028 0
M  V30 5807 C 568.023 -1.701 -0.00201532 0
M  V30 5808 O 569.208 -1.93469 0.168383 0
M  V30 5809 C 566.338 -3.39899 0.71316 0
M  V30 5810 C 565.292 -3.90309 1.75621 0
M  V30 5811 C 564.618 -5.20274 1.23365 0
M  V30 5812 C 565.918 -4.16169 3.15596 0
M  V30 5813 H 567.612 -2.20731 2.02283 0
M  V30 5814 H 565.158 -1.06066 0.973964 0
M  V30 5815 H 567.111 -4.17346 0.58309 0
M  V30 5816 H 565.835 -3.25602 -0.255091 0
M  V30 5817 H 564.494 -3.15035 1.8748 0
M  V30 5818 H 564.142 -5.02351 0.255491 0
M  V30 5819 H 563.842 -5.54971 1.93082 0
M  V30 5820 H 565.366 -6.00314 1.11607 0
M  V30 5821 H 566.78 -4.84259 3.06864 0
M  V30 5822 H 565.177 -4.62131 3.82825 0
M  V30 5823 H 566.247 -3.22273 3.6231 0
M  V30 5824 N 567.59 -1.07411 -1.15328 0
M  V30 5825 C 568.5 -0.706438 -2.23711 0
M  V30 5826 C 569.516 0.282586 -1.7169 0
M  V30 5827 O 570.692 0.129066 -2.00986 0
M  V30 5828 C 567.757 -0.11048 -3.46524 0
M  V30 5829 C 566.818 -1.15282 -4.13532 0
M  V30 5830 C 566.051 -0.585205 -5.30482 0
M  V30 5831 O 566.274 0.598549 -5.67251 0
M  V30 5832 O 565.208 -1.33039 -5.87013 0
M  V30 5833 H 569.034 -1.61031 -2.57493 0
M  V30 5834 H 566.619 -0.847113 -1.23062 0
M  V30 5835 H 568.501 0.21957 -4.20828 0
M  V30 5836 H 567.176 0.766703 -3.14489 0
M  V30 5837 H 566.083 -1.53523 -3.41147 0
M  V30 5838 H 567.416 -2.00192 -4.49649 0
M  V30 5839 N 569.068 1.32177 -0.85831 0
M  V30 5840 C 570.315 1.97125 -0.463484 0
M  V30 5841 C 570.643 1.67907 0.981705 0
M  V30 5842 O 569.898 0.961717 1.70439 0
M  V30 5843 C 570.197 3.51372 -0.653658 0
M  V30 5844 C 569.863 4.00584 -2.06987 0
M  V30 5845 C 568.525 4.13733 -2.4572 0
M  V30 5846 C 570.877 4.26624 -2.99402 0
M  V30 5847 C 568.205 4.50268 -3.76132 0
M  V30 5848 C 570.557 4.64618 -4.29316 0
M  V30 5849 C 569.221 4.75975 -4.67979 0
M  V30 5850 H 568.491 0.72133 -0.169601 0
M  V30 5851 H 571.138 1.57517 -1.08907 0
M  V30 5852 H 569.443 3.91761 0.0551328 0
M  V30 5853 H 571.14 3.99655 -0.328163 0
M  V30 5854 H 567.73 3.90837 -1.75911 0
M  V30 5855 H 571.914 4.1597 -2.70708 0
M  V30 5856 H 567.17 4.57256 -4.05865 0
M  V30 5857 H 571.344 4.83722 -5.00985 0
M  V30 5858 H 568.971 5.04041 -5.69076 0
M  V30 5859 N 570.547 0.616602 1.45037 0
M  V30 5860 C 571.51 -0.0871112 2.29034 0
M  V30 5861 C 572.51 -0.786414 1.40258 0
M  V30 5862 O 573.7 -0.633207 1.62284 0
M  V30 5863 C 570.832 -1.13369 3.21497 0
M  V30 5864 H 572.025 0.651497 2.92738 0
M  V30 5865 H 569.578 0.376058 1.51709 0
M  V30 5866 H 570.313 -1.90277 2.62612 0
M  V30 5867 H 570.098 -0.636358 3.86902 0
M  V30 5868 H 571.588 -1.62627 3.84633 0
M  V30 5869 N 572.025 -1.5352 0.356285 0
M  V30 5870 C 573.436 -1.86282 -0.12492 0
M  V30 5871 C 573.787 -1.27717 -1.48939 0
M  V30 5872 O 572.912 -0.595614 -2.08042 0
M  V30 5873 C 573.507 -3.37995 -0.23345 0
M  V30 5874 C 572.066 -3.70588 -0.658899 0
M  V30 5875 C 571.213 -2.76581 0.199596 0
M  V30 5876 H 574.164 -1.47901 0.575423 0
M  V30 5877 H 574.185 -3.65475 -1.0587 0
M  V30 5878 H 573.697 -3.8059 0.759776 0
M  V30 5879 H 571.798 -3.33544 -1.66069 0
M  V30 5880 H 571.911 -4.77076 -0.439957 0
M  V30 5881 H 570.275 -2.52552 -0.330076 0
M  V30 5882 H 571.058 -3.22008 1.19019 0
M  V30 5883 N 573.503 -0.0852151 -1.57369 0
M  V30 5884 C 574.413 0.891712 -2.16992 0
M  V30 5885 C 575.429 1.3174 -1.13669 0
M  V30 5886 O 576.605 1.38735 -1.45995 0
M  V30 5887 C 573.67 2.13635 -2.73059 0
M  V30 5888 C 572.731 1.7658 -3.91303 0
M  V30 5889 C 571.964 2.95111 -4.44686 0
M  V30 5890 O 572.187 4.09539 -3.97032 0
M  V30 5891 O 571.121 2.74149 -5.35841 0
M  V30 5892 H 574.947 0.414477 -3.00858 0
M  V30 5893 H 572.532 0.138598 -1.48756 0
M  V30 5894 H 574.414 2.86595 -3.08935 0
M  V30 5895 H 573.089 2.6043 -1.92244 0
M  V30 5896 H 571.996 1.00831 -3.60255 0
M  V30 5897 H 573.329 1.34557 -4.7345 0
M  V30 5898 N 574.981 1.5647 0.188427 0
M  V30 5899 C 575.914 1.90146 1.26173 0
M  V30 5900 C 576.892 0.762294 1.43624 0
M  V30 5901 O 578.076 1.01395 1.58907 0
M  V30 5902 C 575.203 2.13748 2.62735 0
M  V30 5903 C 574.249 3.36448 2.62116 0
M  V30 5904 S 575.082 4.91364 2.12889 0
M  V30 5905 C 576.238 5.18041 3.51261 0
M  V30 5906 H 576.471 2.80886 0.974192 0
M  V30 5907 H 574.004 1.49335 0.392226 0
M  V30 5908 H 575.962 2.28028 3.41341 0
M  V30 5909 H 574.623 1.23747 2.88696 0
M  V30 5910 H 573.816 3.50109 3.62546 0
M  V30 5911 H 573.418 3.21196 1.91596 0
M  V30 5912 H 575.71 5.0897 4.47164 0
M  V30 5913 H 576.653 6.19764 3.42489 0
M  V30 5914 H 577.061 4.45657 3.46482 0
M  V30 5915 N 576.459 -0.456382 1.50847 0
M  V30 5916 C 577.406 -1.55249 1.70782 0
M  V30 5917 C 578.376 -1.56757 0.549231 0
M  V30 5918 O 579.561 -1.74061 0.7815 0
M  V30 5919 C 576.701 -2.93118 1.82143 0
M  V30 5920 C 575.814 -3.01285 3.09598 0
M  V30 5921 C 574.949 -4.30159 3.11667 0
M  V30 5922 C 573.988 -4.32124 4.33515 0
M  V30 5923 N 573.125 -5.52492 4.3324 0
M  V30 5924 H 577.965 -1.37555 2.64353 0
M  V30 5925 H 575.502 -0.668543 1.3103 0
M  V30 5926 H 577.46 -3.73088 1.86711 0
M  V30 5927 H 576.09 -3.09413 0.919978 0
M  V30 5928 H 575.142 -2.14096 3.14431 0
M  V30 5929 H 576.454 -2.98597 3.99551 0
M  V30 5930 H 575.608 -5.18489 3.15046 0
M  V30 5931 H 574.347 -4.35477 2.1957 0
M  V30 5932 H 573.352 -3.42189 4.30333 0
M  V30 5933 H 574.577 -4.28485 5.26856 0
M  V30 5934 H 572.523 -5.58567 3.44004 0
M  V30 5935 H 572.44 -5.51605 5.16979 0
M  V30 5936 H 573.708 -6.42906 4.40786 0
M  V30 5937 N 577.937 -1.40673 -0.710563 0
M  V30 5938 C 578.9 -1.4108 -1.80635 0
M  V30 5939 C 579.9 -0.303783 -1.57904 0
M  V30 5940 O 581.09 -0.562937 -1.64853 0
M  V30 5941 C 578.222 -1.20748 -3.18799 0
M  V30 5942 H 579.415 -2.38612 -1.81671 0
M  V30 5943 H 576.968 -1.26595 -0.916704 0
M  V30 5944 H 577.703 -0.239964 -3.23411 0
M  V30 5945 H 577.488 -2.00941 -3.36698 0
M  V30 5946 H 578.978 -1.23833 -3.98817 0
M  V30 5947 N 579.415 0.9433 -1.26252 0
M  V30 5948 C 580.692 1.66639 -1.02424 0
M  V30 5949 C 581.072 2.06335 0.446006 0
M  V30 5950 O 580.42 1.78551 1.42589 0
M  V30 5951 C 580.63 2.88019 -1.97094 0
M  V30 5952 C 581.978 3.59718 -2.25584 0
M  V30 5953 O 583.002 2.9812 -1.94943 0
M  V30 5954 O 581.861 4.7066 -2.77743 0
M  V30 5955 H 578.955 0.729643 -0.389294 0
M  V30 5956 H 581.501 0.995218 -1.37454 0
M  V30 5957 H 580.273 2.5556 -2.96319 0
M  V30 5958 H 579.896 3.62863 -1.62532 0
M  V30 5959 N 580.893 1.08022 1.14757 0
M  V30 5960 C 581.825 0.664566 2.19354 0
M  V30 5961 C 582.838 -0.286374 1.60261 0
M  V30 5962 O 584.027 -0.0746362 1.78344 0
M  V30 5963 C 581.127 -0.0434634 3.38872 0
M  V30 5964 C 580.3 0.925381 4.27499 0
M  V30 5965 C 579.359 0.253398 5.2559 0
M  V30 5966 O 578.385 0.896581 5.62094 0
M  V30 5967 N 579.587 -0.998263 5.71852 0
M  V30 5968 H 582.352 1.56438 2.55631 0
M  V30 5969 H 579.913 0.965788 1.29939 0
M  V30 5970 H 581.905 -0.503857 4.01551 0
M  V30 5971 H 580.475 -0.845321 3.00954 0
M  V30 5972 H 579.695 1.56472 3.61815 0
M  V30 5973 H 580.983 1.58203 4.8358 0
M  V30 5974 H 580.381 -1.54063 5.44317 0
M  V30 5975 H 578.938 -1.40222 6.36538 0
M  V30 5976 N 582.371 -1.3172 0.865308 0
M  V30 5977 C 583.617 -1.97168 0.474633 0
M  V30 5978 C 583.95 -1.68263 -0.969604 0
M  V30 5979 O 583.225 -0.976588 -1.68205 0
M  V30 5980 C 583.508 -3.52689 0.726808 0
M  V30 5981 C 583.361 -3.91185 2.22024 0
M  V30 5982 C 584.68 -4.39689 0.190201 0
M  V30 5983 H 581.799 -0.716185 0.17392 0
M  V30 5984 H 584.441 -1.55925 1.08569 0
M  V30 5985 H 582.591 -3.8795 0.206705 0
M  V30 5986 H 584.263 -3.66049 2.80724 0
M  V30 5987 H 582.506 -3.3996 2.69462 0
M  V30 5988 H 583.177 -4.99604 2.34735 0
M  V30 5989 H 585.653 -4.11225 0.635103 0
M  V30 5990 H 584.529 -5.47469 0.396132 0
M  V30 5991 H 584.79 -4.32683 -0.907625 0
M  V30 5992 N 583.85 -0.624285 -1.44708 0
M  V30 5993 C 584.779 0.0717025 -2.3339 0
M  V30 5994 C 585.76 0.841814 -1.47809 0
M  V30 5995 O 586.946 0.809056 -1.76544 0
M  V30 5996 C 584.076 1.05852 -3.30776 0
M  V30 5997 C 583.029 0.400503 -4.26122 0
M  V30 5998 C 582.356 1.49674 -5.13324 0
M  V30 5999 C 583.656 -0.688924 -5.17737 0
M  V30 6000 H 585.35 -0.668819 -2.91834 0
M  V30 6001 H 582.896 -0.32308 -1.40329 0
M  V30 6002 H 584.849 1.5541 -3.91696 0
M  V30 6003 H 583.572 1.82984 -2.70526 0
M  V30 6004 H 582.231 -0.0743687 -3.66525 0
M  V30 6005 H 581.88 2.25877 -4.49431 0
M  V30 6006 H 581.58 1.06188 -5.77926 0
M  V30 6007 H 583.104 1.99427 -5.77115 0
M  V30 6008 H 584.518 -0.276724 -5.72632 0
M  V30 6009 H 582.915 -1.04652 -5.90904 0
M  V30 6010 H 583.985 -1.55884 -4.5916 0
M  V30 6011 N 585.328 1.53329 -0.364422 0
M  V30 6012 C 586.26 2.23286 0.517293 0
M  V30 6013 C 587.273 1.24657 1.04711 0
M  V30 6014 O 588.462 1.50887 0.95369 0
M  V30 6015 C 585.562 2.91604 1.72685 0
M  V30 6016 C 584.735 4.1673 1.32873 0
M  V30 6017 C 583.794 4.68269 2.40022 0
M  V30 6018 O 582.82 5.31976 2.02461 0
M  V30 6019 N 584.022 4.45983 3.7159 0
M  V30 6020 H 586.787 2.99588 -0.0819391 0
M  V30 6021 H 584.348 1.60787 -0.189544 0
M  V30 6022 H 586.34 3.22992 2.4384 0
M  V30 6023 H 584.91 2.18763 2.23297 0
M  V30 6024 H 584.13 3.91657 0.447069 0
M  V30 6025 H 585.418 4.98078 1.03902 0
M  V30 6026 H 584.816 3.95077 4.04883 0
M  V30 6027 H 583.373 4.81924 4.38854 0
M  V30 6028 N 586.806 0.0935595 1.57322 0
M  V30 6029 C 588.083 -0.612692 1.85756 0
M  V30 6030 C 588.463 -1.86439 0.99013 0
M  V30 6031 O 587.811 -2.28416 0.0621362 0
M  V30 6032 C 588.021 -0.929547 3.36393 0
M  V30 6033 C 589.369 -1.29366 4.04413 0
M  V30 6034 O 590.393 -1.02061 3.41265 0
M  V30 6035 O 589.252 -1.80498 5.15832 0
M  V30 6036 H 586.346 -0.306444 0.768128 0
M  V30 6037 H 588.892 0.126141 1.69231 0
M  V30 6038 H 587.664 -0.0414766 3.91278 0
M  V30 6039 H 587.287 -1.72441 3.5826 0
M  V30 6040 N 588.284 -1.56567 -0.180126 0
M  V30 6041 C 589.231 -1.95725 -1.22313 0
M  V30 6042 C 590.201 -0.819911 -1.44453 0
M  V30 6043 O 591.386 -1.07931 -1.57339 0
M  V30 6044 C 588.526 -2.31484 -2.55947 0
M  V30 6045 C 587.639 -3.58354 -2.4126 0
M  V30 6046 C 586.774 -3.83366 -3.67701 0
M  V30 6047 C 585.813 -5.03612 -3.47909 0
M  V30 6048 N 584.95 -5.24802 -4.66398 0
M  V30 6049 H 589.79 -2.84642 -0.882198 0
M  V30 6050 H 587.327 -1.4085 -0.42422 0
M  V30 6051 H 589.285 -2.50237 -3.33822 0
M  V30 6052 H 587.915 -1.45689 -2.88053 0
M  V30 6053 H 586.967 -3.47565 -1.54606 0
M  V30 6054 H 588.279 -4.46386 -2.22577 0
M  V30 6055 H 587.433 -4.02439 -4.54013 0
M  V30 6056 H 586.172 -2.93692 -3.89353 0
M  V30 6057 H 585.177 -4.84447 -2.59983 0
M  V30 6058 H 586.402 -5.94809 -3.27688 0
M  V30 6059 H 584.348 -4.38079 -4.88286 0
M  V30 6060 H 584.265 -6.07041 -4.50596 0
M  V30 6061 H 585.533 -5.48346 -5.54019 0
M  V30 6062 N 589.762 0.448376 -1.51087 0
M  V30 6063 C 590.692 1.55102 -1.74544 0
M  V30 6064 C 591.673 1.59357 -0.594932 0
M  V30 6065 O 592.858 1.75261 -0.836491 0
M  V30 6066 C 589.988 2.93268 -1.86041 0
M  V30 6067 C 588.942 3.03877 -3.01402 0
M  V30 6068 C 588.268 4.43914 -2.98068 0
M  V30 6069 C 589.568 2.7898 -4.41551 0
M  V30 6070 H 591.262 1.35724 -2.66869 0
M  V30 6071 H 588.808 0.651498 -1.28419 0
M  V30 6072 H 590.761 3.70356 -2.01034 0
M  V30 6073 H 589.485 3.13853 -0.903548 0
M  V30 6074 H 588.144 2.29227 -2.86096 0
M  V30 6075 H 587.792 4.6145 -2.00182 0
M  V30 6076 H 587.492 4.51944 -3.75527 0
M  V30 6077 H 589.016 5.22991 -3.1514 0
M  V30 6078 H 590.43 3.45805 -4.57265 0
M  V30 6079 H 588.827 2.98431 -5.20633 0
M  V30 6080 H 589.897 1.74663 -4.5235 0
M  V30 6081 N 591.24 1.41047 0.703093 0
M  V30 6082 C 592.656 1.23351 1.01275 0
M  V30 6083 C 592.856 0.11754 2.01157 0
M  V30 6084 O 591.912 -0.520518 2.47077 0
M  V30 6085 C 593.225 2.58001 1.54454 0
M  V30 6086 C 594.773 2.65119 1.66376 0
M  V30 6087 C 595.248 4.00067 2.22958 0
M  V30 6088 N 596.739 4.01875 2.30328 0
M  V30 6089 C 597.474 5.03087 2.75119 0
M  V30 6090 N 596.97 6.14692 3.19571 0
M  V30 6091 N 598.763 4.90451 2.74616 0
M  V30 6092 H 590.914 2.1236 0.0412686 0
M  V30 6093 H 593.177 0.944543 0.08089 0
M  V30 6094 H 592.883 3.40378 0.88521 0
M  V30 6095 H 592.757 2.79962 2.52786 0
M  V30 6096 H 595.144 1.83106 2.31422 0
M  V30 6097 H 595.225 2.46975 0.666089 0
M  V30 6098 H 594.869 4.82526 1.58529 0
M  V30 6099 H 594.799 4.15547 3.23462 0
M  V30 6100 H 597.29 3.21291 1.98949 0
M  V30 6101 H 597.603 6.87799 3.52352 0
M  V30 6102 H 595.948 6.18239 3.17498 0
M  V30 6103 H 599.139 4.0235 2.39233 0
M  V30 6104 H 599.312 5.6947 3.09206 0
M  V30 6105 N 592.718 -0.936591 1.26751 0
M  V30 6106 C 593.943 -1.72288 1.15462 0
M  V30 6107 C 594.368 -1.85915 -0.285887 0
M  V30 6108 O 593.726 -1.35272 -1.20711 0
M  V30 6109 C 593.774 -3.10503 1.83359 0
M  V30 6110 O 592.878 -3.96745 1.1255 0
M  V30 6111 H 592.219 -0.52843 0.402067 0
M  V30 6112 H 594.749 -1.17271 1.67656 0
M  V30 6113 H 594.759 -3.60867 1.90365 0
M  V30 6114 H 593.434 -2.99901 2.88153 0
M  V30 6115 H 592.011 -3.55191 1.13551 0
M  V30 6116 N 594.196 -1.08629 -1.14182 0
M  V30 6117 C 595.126 -0.740003 -2.21464 0
M  V30 6118 C 596.107 0.278591 -1.67803 0
M  V30 6119 O 597.292 0.148461 -1.93632 0
M  V30 6120 C 594.422 -0.150952 -3.46972 0
M  V30 6121 C 593.376 -1.09815 -4.13672 0
M  V30 6122 C 592.702 -0.3712 -5.3341 0
M  V30 6123 C 594.002 -2.43722 -4.61949 0
M  V30 6124 H 595.696 -1.63697 -2.50686 0
M  V30 6125 H 593.242 -0.788526 -1.20492 0
M  V30 6126 H 595.195 0.103325 -4.21273 0
M  V30 6127 H 593.919 0.781164 -3.1712 0
M  V30 6128 H 592.578 -1.33756 -3.41328 0
M  V30 6129 H 592.226 0.564792 -4.99819 0
M  V30 6130 H 591.926 -1.00267 -5.78982 0
M  V30 6131 H 593.45 -0.12503 -6.10472 0
M  V30 6132 H 594.864 -2.24034 -5.27714 0
M  V30 6133 H 593.261 -3.02582 -5.18232 0
M  V30 6134 H 594.331 -3.05082 -3.76899 0
M  V30 6135 N 595.674 1.31259 -0.872281 0
M  V30 6136 C 596.621 2.28459 -0.327857 0
M  V30 6137 C 597.591 1.55831 0.574957 0
M  V30 6138 O 598.776 1.83965 0.506101 0
M  V30 6139 C 595.916 3.41985 0.462644 0
M  V30 6140 C 595.029 4.29458 -0.467949 0
M  V30 6141 C 594.164 5.30131 0.336903 0
M  V30 6142 C 593.203 6.0925 -0.58997 0
M  V30 6143 N 592.34 7.01872 0.178775 0
M  V30 6144 H 597.18 2.74414 -1.16193 0
M  V30 6145 H 594.717 1.34994 -0.584376 0
M  V30 6146 H 596.675 4.06547 0.936759 0
M  V30 6147 H 595.305 2.97134 1.2614 0
M  V30 6148 H 594.357 3.65318 -1.06052 0
M  V30 6149 H 595.669 4.84677 -1.17856 0
M  V30 6150 H 594.823 6.0038 0.873427 0
M  V30 6151 H 593.562 4.75573 1.08079 0
M  V30 6152 H 592.567 5.37889 -1.13823 0
M  V30 6153 H 593.792 6.65894 -1.33275 0
M  V30 6154 H 591.738 6.49721 0.905435 0
M  V30 6155 H 591.655 7.54522 -0.472452 0
M  V30 6156 H 592.923 7.76382 0.696454 0
M  V30 6157 N 597.152 0.631951 1.44375 0
M  V30 6158 C 598.1 -0.0846693 2.32446 0
M  V30 6159 C 599.094 -0.834957 1.47393 0
M  V30 6160 O 600.3 -0.747764 1.63733 0
M  V30 6161 H 596.675 -0.0461508 0.750583 0
M  V30 6162 H 598.646 0.67619 2.90638 0
M  V30 6163 C 597.395 -1.05211 3.314 0
M  V30 6164 H 596.718 -0.484203 3.96857 0
M  V30 6165 H 598.158 -1.523 3.95703 0
M  V30 6166 C 596.617 -2.13776 2.60387 0
M  V30 6167 O 597.147 -3.21869 2.4034 0
M  V30 6168 N 595.353 -1.89733 2.20113 0
M  V30 6169 H 594.9 -1.01833 2.36618 0
M  V30 6170 H 594.858 -2.62572 1.72926 0
M  V30 6171 N 598.631 -1.53133 0.372548 0
M  V30 6172 C 599.877 -2.01654 -0.215277 0
M  V30 6173 C 600.21 -1.25914 -1.47849 0
M  V30 6174 O 599.485 -0.3548 -1.91237 0
M  V30 6175 C 599.768 -3.56609 -0.500187 0
M  V30 6176 C 599.621 -4.43036 0.777145 0
M  V30 6177 C 600.94 -4.20528 -1.29786 0
M  V30 6178 H 598.059 -0.732991 -0.0767686 0
M  V30 6179 H 600.701 -1.83335 0.498814 0
M  V30 6180 H 598.851 -3.7235 -1.10852 0
M  V30 6181 H 600.523 -4.39079 1.41447 0
M  V30 6182 H 598.766 -4.10723 1.39604 0
M  V30 6183 H 599.437 -5.49424 0.532662 0
M  V30 6184 H 601.913 -4.08663 -0.783198 0
M  V30 6185 H 600.789 -5.28962 -1.46596 0
M  V30 6186 H 601.05 -3.77051 -2.30836 0
M  V30 6187 N 600.109 -0.101901 -1.5727 0
M  V30 6188 C 601.386 0.602832 -1.86079 0
M  V30 6189 C 601.766 1.85912 -1 0
M  V30 6190 O 601.114 2.28379 -0.0742488 0
M  V30 6191 C 601.324 0.911694 -3.36881 0
M  V30 6192 C 602.672 1.2722 -4.05093 0
M  V30 6193 O 603.696 1.0025 -3.41802 0
M  V30 6194 O 602.555 1.7776 -5.16782 0
M  V30 6195 H 599.649 0.302366 -0.769743 0
M  V30 6196 H 602.195 -0.135113 -1.69161 0
M  V30 6197 H 600.967 0.0207256 -3.91295 0
M  V30 6198 H 600.59 1.70538 -3.59169 0
M  V30 6199 N 601.587 1.56661 0.17182 0
M  V30 6200 C 602.836 1.81158 0.886831 0
M  V30 6201 C 603.149 0.679072 1.83434 0
M  V30 6202 O 604.355 0.808964 2.59168 0
M  V30 6203 C 602.811 3.20999 1.6275 0
M  V30 6204 C 602.419 4.42117 0.723652 0
M  V30 6205 C 604.163 3.5479 2.33076 0
M  V30 6206 C 602.07 5.7298 1.46452 0
M  V30 6207 H 601 0.675543 0.334899 0
M  V30 6208 H 603.651 1.82967 0.139765 0
M  V30 6209 H 602.033 3.13506 2.4193 0
M  V30 6210 H 603.207 4.60789 -0.0311485 0
M  V30 6211 H 601.522 4.16197 0.130063 0
M  V30 6212 H 604.119 4.49806 2.89099 0
M  V30 6213 H 604.462 2.79646 3.08389 0
M  V30 6214 H 604.995 3.63834 1.6084 0
M  V30 6215 H 601.734 6.51152 0.753729 0
M  V30 6216 H 601.254 5.58285 2.19266 0
M  V30 6217 H 602.933 6.14916 2.01214 0
M  V30 6218 N 603.065 -0.440357 1.51323 0
M  V30 6219 C 604.314 -1.18697 1.63076 0
M  V30 6220 C 604.627 -1.92418 0.35136 0
M  V30 6221 O 605.833 -2.69258 0.348221 0
M  V30 6222 C 604.289 -2.15849 2.87988 0
M  V30 6223 C 603.897 -1.47789 4.22921 0
M  V30 6224 C 605.641 -2.90962 3.09098 0
M  V30 6225 C 603.548 -2.43407 5.38987 0
M  V30 6226 H 602.478 -0.44676 0.607389 0
M  V30 6227 H 605.129 -0.454313 1.77787 0
M  V30 6228 H 603.511 -2.92537 2.66905 0
M  V30 6229 H 604.685 -0.7668 4.54375 0
M  V30 6230 H 603 -0.848404 4.07665 0
M  V30 6231 H 605.597 -3.62584 3.92985 0
M  V30 6232 H 605.94 -3.52133 2.22053 0
M  V30 6233 H 606.473 -2.21381 3.30507 0
M  V30 6234 H 603.212 -1.86929 6.28282 0
M  V30 6235 H 602.732 -3.12579 5.11913 0
M  V30 6236 H 604.411 -3.046 5.70813 0
M  V30 6237 N 604.543 -1.41418 -0.695603 0
M  V30 6238 C 605.473 -1.46035 -1.82197 0
M  V30 6239 C 606.454 -0.319025 -1.67082 0
M  V30 6240 O 607.639 -0.530462 -1.86815 0
M  V30 6241 C 604.769 -1.34179 -3.20333 0
M  V30 6242 C 603.723 -2.46123 -3.50154 0
M  V30 6243 C 603.049 -2.19332 -4.87645 0
M  V30 6244 C 604.349 -3.88463 -3.49133 0
M  V30 6245 H 606.043 -2.40303 -1.78591 0
M  V30 6246 H 603.589 -1.15663 -0.857797 0
M  V30 6247 H 605.542 -1.36021 -3.98844 0
M  V30 6248 H 604.266 -0.363952 -3.24566 0
M  V30 6249 H 602.925 -2.43563 -2.73994 0
M  V30 6250 H 602.573 -1.19891 -4.88503 0
M  V30 6251 H 602.273 -2.94344 -5.08562 0
M  V30 6252 H 603.797 -2.22889 -5.68465 0
M  V30 6253 H 605.211 -3.92738 -4.17648 0
M  V30 6254 H 603.608 -4.63158 -3.81582 0
M  V30 6255 H 604.678 -4.16617 -2.48109 0
M  V30 6256 N 606.021 0.929856 -1.27246 0
M  V30 6257 C 606.969 2.05151 -1.09616 0
M  V30 6258 C 607.963 1.69388 -0.0198617 0
M  V30 6259 O 609.169 1.79124 -0.177417 0
M  V30 6260 H 605.544 0.671909 -0.337701 0
M  V30 6261 H 607.515 2.17168 -2.04648 0
M  V30 6262 C 606.264 3.3934 -0.757851 0
M  V30 6263 H 605.587 3.67343 -1.57795 0
M  V30 6264 H 607.027 4.18603 -0.674358 0
M  V30 6265 C 605.486 3.32582 0.537658 0
M  V30 6266 O 606.016 3.69633 1.57271 0
M  V30 6267 N 604.222 2.8568 0.532478 0
M  V30 6268 H 603.769 2.55725 -0.310233 0
M  V30 6269 H 603.727 2.81541 1.39936 0
M  V30 6270 N 607.499 1.09233 1.13605 0
M  V30 6271 C 608.462 0.733553 2.17144 0
M  V30 6272 C 609.462 -0.235873 1.59061 0
M  V30 6273 O 610.652 -0.0143167 1.74194 0
M  V30 6274 C 607.784 0.084471 3.40795 0
M  V30 6275 H 608.977 1.65049 2.50397 0
M  V30 6276 H 606.53 0.891264 1.28399 0
M  V30 6277 H 607.265 -0.843795 3.1313 0
M  V30 6278 H 607.05 0.781985 3.84223 0
M  V30 6279 H 608.54 -0.151216 4.17326 0
M  V30 6280 N 608.977 -1.30795 0.87923 0
M  V30 6281 C 609.909 -2.27241 0.299025 0
M  V30 6282 C 610.922 -1.53472 -0.543166 0
M  V30 6283 O 612.111 -1.74756 -0.363651 0
M  V30 6284 C 609.211 -3.33655 -0.593931 0
M  V30 6285 C 608.384 -4.36857 0.2179 0
M  V30 6286 C 607.443 -5.22715 -0.604646 0
M  V30 6287 O 606.469 -5.69192 -0.0293838 0
M  V30 6288 N 607.671 -5.48008 -1.91488 0
M  V30 6289 H 610.436 -2.77667 1.12788 0
M  V30 6290 H 607.997 -1.43914 0.741637 0
M  V30 6291 H 609.989 -3.88013 -1.15012 0
M  V30 6292 H 608.559 -2.83202 -1.32346 0
M  V30 6293 H 607.779 -3.82444 0.955536 0
M  V30 6294 H 609.067 -5.02869 0.774614 0
M  V30 6295 H 608.465 -5.1202 -2.40525 0
M  V30 6296 H 607.022 -6.05264 -2.41864 0
M  V30 6297 N 610.455 -0.639598 -1.44038 0
M  V30 6298 C 611.683 -0.154811 -2.0632 0
M  V30 6299 C 612.098 1.17406 -1.47856 0
M  V30 6300 O 611.455 1.72193 -0.604638 0
M  V30 6301 C 611.506 -0.0429958 -3.61474 0
M  V30 6302 O 611.227 -1.31932 -4.17763 0
M  V30 6303 C 612.728 0.469486 -4.40807 0
M  V30 6304 H 609.948 -0.0835862 -0.665773 0
M  V30 6305 H 612.492 -0.876397 -1.84769 0
M  V30 6306 H 610.647 0.629075 -3.82258 0
M  V30 6307 H 611.061 -1.16965 -5.11292 0
M  V30 6308 H 612.535 0.496712 -5.49761 0
M  V30 6309 H 613.012 1.49819 -4.12857 0
M  V30 6310 H 613.618 -0.169624 -4.24962 0
M  V30 6311 N 611.933 1.52934 -0.380664 0
M  V30 6312 C 613.161 2.05886 0.204599 0
M  V30 6313 C 613.576 1.25305 1.41223 0
M  V30 6314 O 612.933 0.297504 1.80059 0
M  V30 6315 C 612.984 3.56764 0.583249 0
M  V30 6316 O 612.705 4.34292 -0.576398 0
M  V30 6317 C 614.206 4.2603 1.2253 0
M  V30 6318 H 611.426 0.670193 0.0328991 0
M  V30 6319 H 613.97 1.97148 -0.543397 0
M  V30 6320 H 612.125 3.65603 1.28115 0
M  V30 6321 H 612.539 5.23819 -0.267119 0
M  V30 6322 H 614.013 5.32868 1.44068 0
M  V30 6323 H 614.49 3.80698 2.19011 0
M  V30 6324 H 615.096 4.21485 0.568407 0
M  V30 6325 N 613.412 0.11024 1.57214 0
M  V30 6326 C 614.322 -0.857077 2.18383 0
M  V30 6327 C 615.338 -1.29915 1.1575 0
M  V30 6328 O 616.514 -1.36394 1.48184 0
M  V30 6329 C 613.579 -2.09264 2.76423 0
M  V30 6330 C 612.64 -1.70333 3.94063 0
M  V30 6331 C 611.873 -2.87999 4.49324 0
M  V30 6332 O 612.096 -4.0317 4.03497 0
M  V30 6333 O 611.03 -2.6559 5.40135 0
M  V30 6334 H 614.856 -0.366561 3.0148 0
M  V30 6335 H 612.441 -0.114914 1.48957 0
M  V30 6336 H 614.323 -2.81644 3.13456 0
M  V30 6337 H 612.998 -2.57339 1.96363 0
M  V30 6338 H 611.905 -0.950864 3.61814 0
M  V30 6339 H 613.238 -1.27007 4.75531 0
M  V30 6340 N 614.89 -1.56749 -0.16351 0
M  V30 6341 C 616.136 -1.82704 -0.880168 0
M  V30 6342 C 616.469 -0.689311 -1.81555 0
M  V30 6343 O 615.744 0.308224 -1.92042 0
M  V30 6344 C 616.027 -3.19084 -1.66905 0
M  V30 6345 C 615.88 -4.43397 -0.756269 0
M  V30 6346 C 617.199 -3.52493 -2.63509 0
M  V30 6347 H 614.318 -0.664608 -0.318535 0
M  V30 6348 H 616.96 -1.89438 -0.146036 0
M  V30 6349 H 615.11 -3.13475 -2.2949 0
M  V30 6350 H 616.782 -4.61079 -0.14269 0
M  V30 6351 H 615.025 -4.33752 -0.0647944 0
M  V30 6352 H 615.696 -5.3539 -1.34393 0
M  V30 6353 H 618.172 -3.58606 -2.11047 0
M  V30 6354 H 617.048 -4.48979 -3.15767 0
M  V30 6355 H 617.309 -2.77597 -3.44082 0
M  V30 6356 N 616.368 0.432326 -1.51554 0
M  V30 6357 C 617.315 1.52512 -1.7323 0
M  V30 6358 C 618.285 1.55863 -0.5741 0
M  V30 6359 O 619.47 1.72796 -0.809093 0
M  V30 6360 C 616.61 2.90183 -1.86783 0
M  V30 6361 C 615.723 2.96322 -3.14352 0
M  V30 6362 C 614.858 4.25147 -3.18471 0
M  V30 6363 C 613.897 4.25172 -4.40335 0
M  V30 6364 N 613.034 5.45529 -4.41975 0
M  V30 6365 H 617.874 1.33332 -2.66508 0
M  V30 6366 H 615.411 0.647613 -1.32077 0
M  V30 6367 H 617.369 3.70071 -1.92623 0
M  V30 6368 H 615.999 3.0791 -0.969087 0
M  V30 6369 H 615.051 2.09066 -3.17798 0
M  V30 6370 H 616.363 2.92203 -4.04251 0
M  V30 6371 H 615.517 5.13411 -3.23255 0
M  V30 6372 H 614.256 4.31929 -2.2647 0
M  V30 6373 H 613.261 3.353 -4.35723 0
M  V30 6374 H 614.486 4.20049 -5.33606 0
M  V30 6375 H 612.432 5.53024 -3.52847 0
M  V30 6376 H 612.349 5.43311 -5.25689 0
M  V30 6377 H 613.617 6.35812 -4.50958 0
M  V30 6378 N 617.846 1.41785 0.688094 0
M  V30 6379 C 619.094 1.41264 1.4453 0
M  V30 6380 C 619.415 0.0252946 1.94984 0
M  V30 6381 O 618.685 -0.934081 1.72197 0
M  V30 6382 H 617.265 0.519998 0.536294 0
M  V30 6383 H 619.927 1.7709 0.813941 0
M  V30 6384 H 619.023 2.10439 2.30482 0
M  V30 6385 N 619.324 -0.923095 1.27737 0
M  V30 6386 C 620.601 -1.64989 1.05062 0
M  V30 6387 C 620.981 -2.07018 -0.413124 0
M  V30 6388 O 620.329 -1.80797 -1.39731 0
M  V30 6389 C 620.539 -2.84847 2.01652 0
M  V30 6390 C 621.887 -3.56083 2.31279 0
M  V30 6391 O 622.911 -2.94981 1.99662 0
M  V30 6392 O 621.77 -4.66182 2.85196 0
M  V30 6393 H 618.864 -0.723357 0.400853 0
M  V30 6394 H 621.41 -0.973224 1.3902 0
M  V30 6395 H 620.182 -2.50814 3.00347 0
M  V30 6396 H 619.805 -3.60231 1.68284 0
M  V30 6397 N 620.802 -1.09834 -1.13024 0
M  V30 6398 C 622.05 -0.835297 -1.8403 0
M  V30 6399 C 622.371 0.640944 -1.84165 0
M  V30 6400 O 621.641 1.46517 -1.30037 0
M  V30 6401 H 620.221 -0.306018 -0.681441 0
M  V30 6402 H 622.883 -1.38734 -1.36891 0
M  V30 6403 H 621.979 -1.19258 -2.88416 0
M  V30 6404 N 622.28 1.30327 -0.886154 0
M  V30 6405 C 623.505 2.0079 -0.519425 0
M  V30 6406 C 623.93 1.65979 0.885013 0
M  V30 6407 O 623.288 0.877043 1.58675 0
M  V30 6408 C 623.336 3.53686 -0.702758 0
M  V30 6409 O 622.44 4.11637 0.250828 0
M  V30 6410 H 621.781 0.63171 -0.204544 0
M  V30 6411 H 624.311 1.66145 -1.19402 0
M  V30 6412 H 624.321 4.03531 -0.602207 0
M  V30 6413 H 622.996 3.78361 -1.72673 0
M  V30 6414 H 621.573 3.72755 0.103873 0
M  V30 6415 N 623.758 0.647228 1.43697 0
M  V30 6416 C 624.705 -0.0480092 2.3075 0
M  V30 6417 C 625.675 -0.820705 1.44408 0
M  V30 6418 O 626.86 -0.798515 1.73287 0
M  V30 6419 C 624 -1.01259 3.2991 0
M  V30 6420 C 623.113 -0.236629 4.31351 0
M  V30 6421 C 622.248 -1.19447 5.17596 0
M  V30 6422 C 621.287 -0.408595 6.10735 0
M  V30 6423 N 620.424 -1.31772 6.89623 0
M  V30 6424 H 625.264 0.700238 2.89656 0
M  V30 6425 H 622.801 0.357082 1.427 0
M  V30 6426 H 624.759 -1.58538 3.85903 0
M  V30 6427 H 623.389 -1.72778 2.72667 0
M  V30 6428 H 622.441 0.452353 3.77701 0
M  V30 6429 H 623.753 0.374731 4.9739 0
M  V30 6430 H 622.907 -1.83809 5.78186 0
M  V30 6431 H 621.646 -1.83975 4.51669 0
M  V30 6432 H 620.651 0.24841 5.49239 0
M  V30 6433 H 621.876 0.232188 6.78703 0
M  V30 6434 H 619.822 -1.94991 6.2635 0
M  V30 6435 H 619.739 -0.760779 7.52162 0
M  V30 6436 H 621.007 -1.94967 7.54724 0
M  V30 6437 N 625.236 -1.5273 0.388769 0
M  V30 6438 C 626.482 -2.01871 -0.193877 0
M  V30 6439 C 626.815 -1.27475 -1.46505 0
M  V30 6440 O 626.09 -0.375063 -1.90849 0
M  V30 6441 C 626.373 -3.5712 -0.462336 0
M  V30 6442 C 626.226 -4.42186 0.824091 0
M  V30 6443 C 627.545 -4.21881 -1.25319 0
M  V30 6444 H 624.664 -0.733764 -0.0689899 0
M  V30 6445 H 627.306 -1.82796 0.518231 0
M  V30 6446 H 625.456 -3.73504 -1.06896 0
M  V30 6447 H 627.128 -4.37554 1.46096 0
M  V30 6448 H 625.371 -4.09219 1.43952 0
M  V30 6449 H 626.042 -5.48828 0.590905 0
M  V30 6450 H 628.518 -4.0947 -0.73981 0
M  V30 6451 H 627.394 -5.30487 -1.40977 0
M  V30 6452 H 627.655 -3.79478 -2.26824 0
M  V30 6453 N 626.714 -0.118576 -1.57153 0
M  V30 6454 C 627.96 0.540326 -1.95469 0
M  V30 6455 C 628.293 1.66356 -1.00196 0
M  V30 6456 O 627.568 1.94461 -0.039104 0
M  V30 6457 C 627.851 1.07342 -3.43729 0
M  V30 6458 C 627.704 -0.0463732 -4.49776 0
M  V30 6459 C 629.023 1.96442 -3.93826 0
M  V30 6460 H 626.142 0.19494 -0.710751 0
M  V30 6461 H 628.784 -0.19405 -1.89006 0
M  V30 6462 H 626.934 1.69925 -3.49368 0
M  V30 6463 H 628.606 -0.681648 -4.56236 0
M  V30 6464 H 626.849 -0.709574 -4.27957 0
M  V30 6465 H 627.52 0.367856 -5.50773 0
M  V30 6466 H 629.996 1.43731 -3.90488 0
M  V30 6467 H 628.872 2.3066 -4.98084 0
M  V30 6468 H 629.133 2.89077 -3.34495 0
M  V30 6469 N 628.193 1.56834 0.155195 0
M  V30 6470 C 629.441 1.82536 0.867462 0
M  V30 6471 C 629.762 0.698168 1.82073 0
M  V30 6472 O 629.032 -0.280807 1.93877 0
M  V30 6473 H 627.612 0.673401 0.323327 0
M  V30 6474 H 630.274 1.94313 0.151156 0
M  V30 6475 H 629.37 2.77171 1.43466 0
M  V30 6476 N 629.671 -0.424282 1.51781 0
M  V30 6477 C 630.601 -1.52305 1.7699 0
M  V30 6478 C 631.582 -1.5839 0.620209 0
M  V30 6479 O 632.767 -1.73908 0.864268 0
M  V30 6480 C 629.897 -2.90271 1.90683 0
M  V30 6481 C 628.851 -2.99043 3.06198 0
M  V30 6482 C 628.177 -4.39116 3.05092 0
M  V30 6483 C 629.477 -2.7192 4.45934 0
M  V30 6484 H 631.171 -1.31461 2.68995 0
M  V30 6485 H 628.717 -0.630985 1.29439 0
M  V30 6486 H 630.67 -3.6711 2.06901 0
M  V30 6487 H 629.394 -3.12376 0.953365 0
M  V30 6488 H 628.053 -2.24646 2.89706 0
M  V30 6489 H 627.701 -4.58207 2.07498 0
M  V30 6490 H 627.401 -4.45912 3.82669 0
M  V30 6491 H 628.925 -5.17911 3.2342 0
M  V30 6492 H 630.339 -3.38487 4.62709 0
M  V30 6493 H 628.736 -2.90111 5.25315 0
M  V30 6494 H 629.806 -1.67445 4.55072 0
M  V30 6495 N 631.149 -1.42148 -0.680565 0
M  V30 6496 C 632.059 -1.47565 -1.82378 0
M  V30 6497 C 633.075 -0.36489 -1.70131 0
M  V30 6498 O 634.251 -0.614916 -1.91783 0
M  V30 6499 C 631.316 -1.37013 -3.18478 0
M  V30 6500 C 630.377 -2.58532 -3.42724 0
M  V30 6501 C 629.61 -2.48473 -4.72331 0
M  V30 6502 O 629.833 -1.51745 -5.49845 0
M  V30 6503 O 628.767 -3.38503 -4.97694 0
M  V30 6504 H 632.593 -2.44045 -1.80764 0
M  V30 6505 H 630.178 -1.23849 -0.835569 0
M  V30 6506 H 632.06 -1.33468 -3.99705 0
M  V30 6507 H 630.735 -0.436552 -3.20743 0
M  V30 6508 H 629.642 -2.67652 -2.61368 0
M  V30 6509 H 630.975 -3.50769 -3.45286 0
M  V30 6510 N 632.627 0.916307 -1.28225 0
M  V30 6511 C 633.857 1.69654 -1.17902 0
M  V30 6512 C 634.265 1.87331 0.265268 0
M  V30 6513 O 633.608 1.39828 1.19137 0
M  V30 6514 C 633.67 3.11024 -1.80289 0
M  V30 6515 C 633.334 3.16643 -3.29525 0
M  V30 6516 C 634.331 2.98032 -4.25997 0
M  V30 6517 C 632.016 3.39238 -3.70436 0
M  V30 6518 C 634.01 3.01924 -5.61356 0
M  V30 6519 C 631.697 3.42762 -5.05922 0
M  V30 6520 C 632.695 3.24125 -6.01192 0
M  V30 6521 O 632.383 3.27406 -7.34208 0
M  V30 6522 H 632.115 0.537197 -0.41036 0
M  V30 6523 H 634.669 1.15547 -1.69817 0
M  V30 6524 H 632.899 3.66662 -1.22865 0
M  V30 6525 H 634.588 3.71063 -1.6452 0
M  V30 6526 H 635.354 2.80405 -3.95725 0
M  V30 6527 H 631.233 3.52791 -2.96749 0
M  V30 6528 H 634.777 2.87295 -6.35694 0
M  V30 6529 H 630.674 3.59916 -5.35846 0
M  V30 6530 H 631.442 3.43784 -7.42802 0
M  V30 6531 N 634.105 1.10431 1.1244 0
M  V30 6532 C 635.521 0.836096 1.35947 0
M  V30 6533 C 635.721 -0.544475 1.94004 0
M  V30 6534 O 634.777 -1.29735 2.16622 0
M  V30 6535 C 636.09 1.93575 2.30107 0
M  V30 6536 C 637.638 1.9642 2.43697 0
M  V30 6537 C 638.113 3.05559 3.41171 0
M  V30 6538 N 639.604 3.04865 3.48728 0
M  V30 6539 C 640.339 3.85954 4.24061 0
M  V30 6540 N 639.835 4.76977 5.02458 0
M  V30 6541 N 641.628 3.74172 4.19466 0
M  V30 6542 H 633.779 1.9942 0.731124 0
M  V30 6543 H 636.042 0.866607 0.384312 0
M  V30 6544 H 635.748 2.92943 1.94621 0
M  V30 6545 H 635.622 1.8229 3.30227 0
M  V30 6546 H 638.009 0.97685 2.78463 0
M  V30 6547 H 638.09 2.11782 1.43465 0
M  V30 6548 H 637.734 4.04513 3.07135 0
M  V30 6549 H 637.664 2.87438 4.41234 0
M  V30 6550 H 640.155 2.38908 2.92799 0
M  V30 6551 H 640.468 5.35409 5.57277 0
M  V30 6552 H 638.813 4.81006 5.01655 0
M  V30 6553 H 642.004 3.02412 3.57302 0
M  V30 6554 H 642.177 4.37602 4.77921 0
M  V30 6555 N 635.583 -1.29855 0.893053 0
M  V30 6556 C 636.86 -1.90694 0.435336 0
M  V30 6557 C 637.24 -1.8111 -1.08454 0
M  V30 6558 O 636.588 -1.23352 -1.92345 0
M  V30 6559 C 636.798 -3.36033 0.942472 0
M  V30 6560 C 638.146 -4.13083 0.982226 0
M  V30 6561 O 639.17 -3.4491 0.889686 0
M  V30 6562 O 638.029 -5.34896 1.12022 0
M  V30 6563 H 635.123 -0.815978 0.134567 0
M  V30 6564 H 637.669 -1.38367 0.982484 0
M  V30 6565 H 636.441 -3.37132 1.9864 0
M  V30 6566 H 636.064 -3.95828 0.374952 0
M  V30 6567 N 637.061 -0.65484 -1.43351 0
M  V30 6568 C 638.477 -0.32255 -1.56307 0
M  V30 6569 C 638.677 1.17324 -1.63821 0
M  V30 6570 O 637.733 1.95813 -1.59417 0
M  V30 6571 C 639.046 -1.03533 -2.82314 0
M  V30 6572 C 640.594 -1.01574 -2.9606 0
M  V30 6573 C 641.069 -1.70945 -4.24902 0
M  V30 6574 N 642.56 -1.67716 -4.3177 0
M  V30 6575 C 643.295 -2.18265 -5.30234 0
M  V30 6576 N 642.791 -2.7711 -6.34966 0
M  V30 6577 N 644.584 -2.08756 -5.21898 0
M  V30 6578 H 636.735 -1.62549 -1.36717 0
M  V30 6579 H 638.998 -0.683676 -0.656727 0
M  V30 6580 H 638.704 -2.09045 -2.8283 0
M  V30 6581 H 638.578 -0.587913 -3.7259 0
M  V30 6582 H 640.965 0.0309834 -2.95084 0
M  V30 6583 H 641.046 -1.50186 -2.07069 0
M  V30 6584 H 640.69 -2.75574 -4.26639 0
M  V30 6585 H 640.62 -1.19797 -5.12793 0
M  V30 6586 H 643.111 -1.24777 -3.56706 0
M  V30 6587 H 643.424 -3.13353 -7.06421 0
M  V30 6588 H 641.769 -2.81171 -6.35585 0
M  V30 6589 H 644.96 -1.62488 -4.38994 0
M  V30 6590 H 645.133 -2.48459 -5.98475 0
M  V30 6591 N 638.539 1.52521 -0.396863 0
M  V30 6592 C 639.785 2.01971 0.183169 0
M  V30 6593 C 640.118 1.2825 1.45827 0
M  V30 6594 O 639.393 0.385179 1.90648 0
M  V30 6595 C 639.676 3.5736 0.443391 0
M  V30 6596 C 639.529 4.41743 -0.84753 0
M  V30 6597 C 640.848 4.22539 1.2308 0
M  V30 6598 H 637.967 0.734119 0.0650976 0
M  V30 6599 H 640.609 1.82519 -0.527918 0
M  V30 6600 H 638.759 3.74066 1.04914 0
M  V30 6601 H 640.431 4.36773 -1.48414 0
M  V30 6602 H 638.674 4.0845 -1.4612 0
M  V30 6603 H 639.345 5.48507 -0.620003 0
M  V30 6604 H 641.821 4.09857 0.718084 0
M  V30 6605 H 640.697 5.31227 1.38162 0
M  V30 6606 H 640.958 3.80675 2.24808 0
M  V30 6607 N 640.017 0.126909 1.57088 0
M  V30 6608 C 641.242 -0.53997 2.00248 0
M  V30 6609 C 641.667 -1.58927 1.00618 0
M  V30 6610 O 641.025 -1.81288 -0.0210131 0
M  V30 6611 C 641.073 -1.13565 3.4225 0
M  V30 6612 O 640.177 -2.25103 3.45547 0
M  V30 6613 H 639.518 -0.13412 0.650314 0
M  V30 6614 H 642.048 0.217718 2.03438 0
M  V30 6615 H 642.058 -1.46925 3.80627 0
M  V30 6616 H 640.733 -0.367122 4.14277 0
M  V30 6617 H 639.31 -1.93123 3.18995 0
M  V30 6618 N 641.495 -1.56914 -0.146875 0
M  V30 6619 C 642.743 -1.82994 -0.85777 0
M  V30 6620 C 643.064 -0.707814 -1.817 0
M  V30 6621 O 642.334 0.270521 -1.94023 0
M  V30 6622 H 640.914 -0.675106 -0.319751 0
M  V30 6623 H 643.576 -1.9439 -0.140849 0
M  V30 6624 H 642.672 -2.77928 -1.41994 0
M  V30 6625 N 642.974 0.416227 -1.52004 0
M  V30 6626 C 644.251 1.17637 -1.56272 0
M  V30 6627 C 644.631 2.08352 -0.339493 0
M  V30 6628 O 643.979 2.1833 0.674124 0
M  V30 6629 C 644.189 1.95986 -2.88774 0
M  V30 6630 C 645.537 2.52299 -3.41512 0
M  V30 6631 O 646.561 2.06174 -2.90467 0
M  V30 6632 O 645.42 3.3648 -4.30631 0
M  V30 6633 H 642.514 0.536726 -0.629169 0
M  V30 6634 H 645.06 0.423583 -1.64329 0
M  V30 6635 H 643.832 1.29487 -3.69254 0
M  V30 6636 H 643.455 2.78285 -2.83978 0
M  V30 6637 N 644.452 1.42507 0.673017 0
M  V30 6638 C 645.701 1.42364 1.42883 0
M  V30 6639 C 646.014 0.0441598 1.9555 0
M  V30 6640 O 647.22 -0.0798679 2.71382 0
M  V30 6641 C 645.676 2.5043 2.58482 0
M  V30 6642 C 645.284 3.94392 2.12506 0
M  V30 6643 C 647.028 2.59455 3.35981 0
M  V30 6644 C 644.935 4.93964 3.25198 0
M  V30 6645 H 643.865 0.52951 0.536782 0
M  V30 6646 H 646.516 1.68422 0.728448 0
M  V30 6647 H 644.898 2.1754 3.30896 0
M  V30 6648 H 646.072 4.36645 1.47233 0
M  V30 6649 H 644.387 3.89233 1.4794 0
M  V30 6650 H 646.984 3.31025 4.19912 0
M  V30 6651 H 647.327 1.63869 3.82691 0
M  V30 6652 H 647.86 2.91549 2.70637 0
M  V30 6653 H 644.599 5.91034 2.83477 0
M  V30 6654 H 644.119 4.56341 3.89247 0
M  V30 6655 H 645.798 5.15763 3.90637 0
M  V30 6656 N 645.93 -0.909495 1.28709 0
M  V30 6657 C 646.88 -1.9991 1.09636 0
M  V30 6658 C 647.864 -1.60889 0.01872 0
M  V30 6659 O 649.056 -1.75374 0.239338 0
M  V30 6660 C 646.185 -3.34675 0.764702 0
M  V30 6661 C 645.271 -3.80085 1.8814 0
M  V30 6662 N 645.662 -3.97824 3.12361 0
M  V30 6663 C 643.96 -4.09278 1.77221 0
M  V30 6664 C 644.661 -4.35928 3.85151 0
M  V30 6665 N 643.637 -4.44426 3.13028 0
M  V30 6666 H 647.439 -2.11681 2.03883 0
M  V30 6667 H 644.953 -1.09763 1.1969 0
M  V30 6668 H 646.95 -4.12426 0.609132 0
M  V30 6669 H 645.61 -3.24255 -0.169952 0
M  V30 6670 H 646.621 -3.83626 3.47925 0
M  V30 6671 H 643.298 -4.0747 0.909621 0
M  V30 6672 H 644.688 -4.57581 4.92006 0
M  V30 6673 N 647.408 -1.11026 -1.11852 0
M  V30 6674 C 648.356 -0.759643 -2.19846 0
M  V30 6675 C 649.35 0.246964 -1.6759 0
M  V30 6676 O 650.556 0.106693 -1.79684 0
M  V30 6677 H 646.931 -0.22775 -0.716683 0
M  V30 6678 H 648.902 -1.6792 -2.46669 0
M  V30 6679 C 647.651 -0.214364 -3.47039 0
M  V30 6680 H 646.974 -0.980175 -3.87599 0
M  V30 6681 H 648.414 -0.00717047 -4.23999 0
M  V30 6682 C 646.873 1.05436 -3.19976 0
M  V30 6683 O 647.403 2.13483 -3.40276 0
M  V30 6684 N 645.609 0.975436 -2.7374 0
M  V30 6685 H 645.156 0.0960853 -2.57421 0
M  V30 6686 H 645.114 1.82501 -2.5601 0
M  V30 6687 N 648.886 1.2938 -0.899927 0
M  V30 6688 C 650.135 1.9483 -0.521937 0
M  V30 6689 C 650.448 1.71725 0.936473 0
M  V30 6690 O 651.654 2.31282 1.42199 0
M  V30 6691 C 650.11 3.48911 -0.88255 0
M  V30 6692 C 649.718 3.80815 -2.35974 0
M  V30 6693 C 651.462 4.20595 -0.57448 0
M  V30 6694 C 649.369 5.28142 -2.66121 0
M  V30 6695 H 648.299 0.729285 -0.191468 0
M  V30 6696 H 650.95 1.47103 -1.09695 0
M  V30 6697 H 649.332 3.95293 -0.236459 0
M  V30 6698 H 650.506 3.45291 -3.05141 0
M  V30 6699 H 648.821 3.22271 -2.63686 0
M  V30 6700 H 651.418 5.29031 -0.776556 0
M  V30 6701 H 651.761 4.13442 0.487005 0
M  V30 6702 H 652.294 3.79945 -1.17842 0
M  V30 6703 H 649.033 5.4036 -3.71068 0
M  V30 6704 H 648.553 5.64913 -2.01578 0
M  V30 6705 H 650.232 5.95738 -2.52399 0
M  V30 6706 N 650.364 0.662433 1.43002 0
M  V30 6707 C 651.274 -0.0239199 2.34588 0
M  V30 6708 C 652.29 -0.802255 1.54402 0
M  V30 6709 O 653.466 -0.747401 1.87018 0
M  V30 6710 C 650.531 -0.972098 3.32793 0
M  V30 6711 C 649.592 -0.189673 4.28881 0
M  V30 6712 C 648.825 -1.09269 5.22395 0
M  V30 6713 O 649.048 -2.33209 5.20547 0
M  V30 6714 O 647.982 -0.560136 5.99288 0
M  V30 6715 H 651.808 0.730171 2.94792 0
M  V30 6716 H 649.393 0.422635 1.43297 0
M  V30 6717 H 651.275 -1.51676 3.93157 0
M  V30 6718 H 649.95 -1.70626 2.75079 0
M  V30 6719 H 648.857 0.398794 3.71968 0
M  V30 6720 H 650.19 0.50511 4.89601 0
M  V30 6721 N 651.842 -1.52309 0.404946 0
M  V30 6722 C 652.772 -2.29805 -0.41376 0
M  V30 6723 C 653.753 -1.3384 -1.0498 0
M  V30 6724 O 654.938 -1.62745 -1.05961 0
M  V30 6725 C 652.068 -3.11639 -1.53292 0
M  V30 6726 C 651.022 -4.15616 -1.02211 0
M  V30 6727 C 650.348 -4.8577 -2.23455 0
M  V30 6728 C 651.648 -5.2224 -0.0790725 0
M  V30 6729 H 653.342 -2.98493 0.232878 0
M  V30 6730 H 650.888 -1.43552 0.113441 0
M  V30 6731 H 652.841 -3.64618 -2.11262 0
M  V30 6732 H 651.565 -2.40712 -2.20738 0
M  V30 6733 H 650.224 -3.63641 -0.46484 0
M  V30 6734 H 649.872 -4.11376 -2.89445 0
M  V30 6735 H 649.572 -5.56058 -1.89929 0
M  V30 6736 H 651.096 -5.4156 -2.82038 0
M  V30 6737 H 652.51 -5.70485 -0.567438 0
M  V30 6738 H 650.907 -5.99867 0.167167 0
M  V30 6739 H 651.977 -4.77078 0.867447 0
M  V30 6740 N 653.32 -0.135238 -1.57019 0
M  V30 6741 C 654.283 0.794707 -2.14981 0
M  V30 6742 C 655.283 1.18342 -1.08866 0
M  V30 6743 O 656.473 1.10627 -1.34563 0
M  V30 6744 C 653.605 2.07685 -2.70333 0
M  V30 6745 H 654.798 0.290696 -2.98488 0
M  V30 6746 H 652.351 0.114128 -1.55883 0
M  V30 6747 H 653.086 2.6248 -1.9046 0
M  V30 6748 H 652.871 1.80745 -3.47957 0
M  V30 6749 H 654.361 2.74127 -3.1503 0
M  V30 6750 N 654.798 1.5699 0.138552 0
M  V30 6751 C 656.046 1.83446 0.848053 0
M  V30 6752 C 656.367 0.71744 1.81322 0
M  V30 6753 O 655.637 -0.260228 1.94164 0
M  V30 6754 H 654.217 0.676792 0.316166 0
M  V30 6755 H 656.879 1.94462 0.130538 0
M  V30 6756 H 655.975 2.78677 1.40518 0
M  V30 6757 N 656.276 -0.40816 1.52223 0
M  V30 6758 C 657.525 -1.15212 1.65557 0
M  V30 6759 C 657.838 -1.9163 0.392096 0
M  V30 6760 O 659.044 -2.68458 0.405256 0
M  V30 6761 C 657.5 -2.09691 2.92502 0
M  V30 6762 C 657.108 -1.38785 4.25961 0
M  V30 6763 C 658.852 -2.8434 3.152 0
M  V30 6764 C 656.759 -2.31919 5.44029 0
M  V30 6765 H 655.689 -0.433776 0.616729 0
M  V30 6766 H 658.34 -0.4165 1.78711 0
M  V30 6767 H 656.722 -2.8681 2.7305 0
M  V30 6768 H 657.896 -0.670248 4.55899 0
M  V30 6769 H 656.211 -0.761741 4.09373 0
M  V30 6770 H 658.808 -3.54166 4.00587 0
M  V30 6771 H 659.151 -3.47344 2.29473 0
M  V30 6772 H 659.684 -2.14321 3.35129 0
M  V30 6773 H 656.423 -1.7356 6.32105 0
M  V30 6774 H 655.943 -3.0165 5.18428 0
M  V30 6775 H 657.622 -2.92424 5.77146 0
M  V30 6776 N 657.755 -1.42862 -0.66545 0
M  V30 6777 C 659.002 -1.4383 -1.42546 0
M  V30 6778 C 659.33 -0.0581114 -1.94413 0
M  V30 6779 O 658.585 0.935002 -1.71919 0
M  V30 6780 C 658.884 -2.4175 -2.63233 0
M  V30 6781 C 658.55 -3.87915 -2.29854 0
M  V30 6782 C 657.212 -4.27726 -2.20463 0
M  V30 6783 C 659.564 -4.80074 -2.02924 0
M  V30 6784 C 656.892 -5.57666 -1.82279 0
M  V30 6785 C 659.244 -6.10366 -1.66242 0
M  V30 6786 C 657.908 -6.49167 -1.55367 0
M  V30 6787 H 657.178 -0.52631 -0.521612 0
M  V30 6788 H 659.825 -1.75863 -0.757914 0
M  V30 6789 H 658.13 -2.03077 -3.35063 0
M  V30 6790 H 659.827 -2.39759 -3.21429 0
M  V30 6791 H 656.417 -3.564 -2.3807 0
M  V30 6792 H 660.601 -4.50097 -2.09108 0
M  V30 6793 H 655.857 -5.8658 -1.72436 0
M  V30 6794 H 660.031 -6.81258 -1.44432 0
M  V30 6795 H 657.658 -7.49761 -1.2555 0
M  V30 6796 N 659.233 0.902656 -1.29189 0
M  V30 6797 C 660.479 1.65532 -1.17163 0
M  V30 6798 C 660.812 1.92216 0.276879 0
M  V30 6799 O 660.087 1.53048 1.20027 0
M  V30 6800 C 660.37 3.00629 -1.98228 0
M  V30 6801 C 660.223 2.81029 -3.51202 0
M  V30 6802 C 661.542 4.01321 -1.80635 0
M  V30 6803 H 658.661 0.60071 -0.426985 0
M  V30 6804 H 661.303 1.04578 -1.5863 0
M  V30 6805 H 659.453 3.52656 -1.62991 0
M  V30 6806 H 661.125 2.35927 -3.96404 0
M  V30 6807 H 659.368 2.1587 -3.76275 0
M  V30 6808 H 660.039 3.77014 -4.03192 0
M  V30 6809 H 662.515 3.58394 -2.11406 0
M  V30 6810 H 661.391 4.93792 -2.3971 0
M  V30 6811 H 661.652 4.35505 -0.760754 0
M  V30 6812 N 660.711 1.11618 1.11262 0
M  V30 6813 C 661.643 0.734015 2.17129 0
M  V30 6814 C 662.656 -0.235243 1.61091 0
M  V30 6815 O 663.845 -0.0178597 1.78491 0
M  V30 6816 C 660.945 0.0643682 3.38839 0
M  V30 6817 C 660.118 1.06092 4.24339 0
M  V30 6818 C 659.177 0.420482 5.24517 0
M  V30 6819 O 658.203 1.07495 5.58957 0
M  V30 6820 N 659.405 -0.815828 5.74739 0
M  V30 6821 H 662.17 1.64492 2.50524 0
M  V30 6822 H 659.731 1.00664 1.26801 0
M  V30 6823 H 661.723 -0.375851 4.02951 0
M  V30 6824 H 660.293 -0.749147 3.03491 0
M  V30 6825 H 659.513 1.67903 3.56654 0
M  V30 6826 H 660.801 1.73507 4.78302 0
M  V30 6827 H 660.199 -1.36668 5.48943 0
M  V30 6828 H 658.756 -1.199 6.40677 0
M  V30 6829 N 662.189 -1.289 0.906776 0
M  V30 6830 C 663.438 -1.9455 0.532262 0
M  V30 6831 C 663.751 -1.72219 -0.927353 0
M  V30 6832 O 664.957 -2.32033 -1.40971 0
M  V30 6833 C 663.413 -3.48438 0.901041 0
M  V30 6834 C 663.021 -3.79558 2.37991 0
M  V30 6835 C 664.765 -4.20284 0.596777 0
M  V30 6836 C 662.672 -5.26723 2.68918 0
M  V30 6837 H 661.602 -0.728259 0.195333 0
M  V30 6838 H 664.253 -1.46519 1.10474 0
M  V30 6839 H 662.635 -3.95162 0.257419 0
M  V30 6840 H 663.809 -3.43668 3.06967 0
M  V30 6841 H 662.124 -3.20868 2.65391 0
M  V30 6842 H 664.721 -5.28612 0.8046 0
M  V30 6843 H 665.064 -4.13694 -0.465072 0
M  V30 6844 H 665.597 -3.79315 1.19855 0
M  V30 6845 H 662.336 -5.38384 3.73928 0
M  V30 6846 H 661.856 -5.63836 2.04571 0
M  V30 6847 H 663.535 -5.94391 2.55555 0
M  V30 6848 N 663.667 -0.670007 -1.42649 0
M  V30 6849 C 664.915 -0.18991 -2.01206 0
M  V30 6850 C 665.236 1.20617 -1.53221 0
M  V30 6851 O 664.506 1.80898 -0.751856 0
M  V30 6852 H 663.086 -0.0672189 -0.743969 0
M  V30 6853 H 665.748 -0.865442 -1.74631 0
M  V30 6854 H 664.844 -0.187481 -3.11536 0
M  V30 6855 N 665.145 1.52092 -0.413018 0
M  V30 6856 C 666.075 2.30021 0.401567 0
M  V30 6857 C 667.056 1.34395 1.04269 0
M  V30 6858 O 668.241 1.63304 1.05097 0
M  V30 6859 C 665.371 3.12447 1.51638 0
M  V30 6860 C 664.325 4.16153 1.00005 0
M  V30 6861 C 663.651 4.86948 2.20875 0
M  V30 6862 C 664.951 5.22275 0.0513757 0
M  V30 6863 H 666.645 2.98365 -0.248704 0
M  V30 6864 H 664.191 1.4349 -0.121052 0
M  V30 6865 H 666.144 3.65733 2.09326 0
M  V30 6866 H 664.868 2.41879 2.19458 0
M  V30 6867 H 663.527 3.63882 0.445549 0
M  V30 6868 H 663.175 4.12905 2.8726 0
M  V30 6869 H 662.875 5.57057 1.86978 0
M  V30 6870 H 664.399 5.43048 2.79162 0
M  V30 6871 H 665.813 5.70778 0.537176 0
M  V30 6872 H 664.21 5.9977 -0.198977 0
M  V30 6873 H 665.28 4.76611 -0.892736 0
M  V30 6874 N 666.623 0.143563 1.56945 0
M  V30 6875 C 667.553 -0.7936 2.196 0
M  V30 6876 C 668.534 -1.25955 1.14321 0
M  V30 6877 O 669.719 -1.31773 1.42651 0
M  V30 6878 C 666.849 -2.03424 2.81489 0
M  V30 6879 C 665.803 -1.70519 3.92565 0
M  V30 6880 C 665.129 -3.01817 4.41373 0
M  V30 6881 C 666.429 -0.95449 5.13504 0
M  V30 6882 H 668.123 -0.271423 2.98167 0
M  V30 6883 H 665.669 -0.12911 1.4342 0
M  V30 6884 H 667.622 -2.69463 3.23987 0
M  V30 6885 H 666.346 -2.58008 2.00248 0
M  V30 6886 H 665.005 -1.06859 3.5068 0
M  V30 6887 H 664.653 -3.54386 3.56959 0
M  V30 6888 H 664.353 -2.80565 5.16292 0
M  V30 6889 H 665.877 -3.68934 4.86539 0
M  V30 6890 H 667.291 -1.5169 5.52868 0
M  V30 6891 H 665.688 -0.842035 5.94163 0
M  V30 6892 H 666.758 0.0544033 4.84869 0
M  V30 6893 N 668.101 -1.57061 -0.130224 0
M  V30 6894 C 669.512 -1.73539 -0.68856 0
M  V30 6895 C 669.863 -0.760554 -1.80859 0
M  V30 6896 O 668.988 0.0690796 -2.1629 0
M  V30 6897 C 669.583 -3.14666 -1.25581 0
M  V30 6898 C 668.142 -3.32689 -1.76055 0
M  V30 6899 C 667.289 -2.69436 -0.655712 0
M  V30 6900 H 670.24 -1.58412 0.0956002 0
M  V30 6901 H 670.261 -3.15595 -2.12556 0
M  V30 6902 H 669.773 -3.85593 -0.440412 0
M  V30 6903 H 667.874 -2.66786 -2.60108 0
M  V30 6904 H 667.987 -4.4077 -1.87772 0
M  V30 6905 H 666.351 -2.30362 -1.08654 0
M  V30 6906 H 667.134 -3.42979 0.14852 0
M  V30 6907 N 669.579 0.400081 -1.52437 0
M  V30 6908 C 670.527 1.50851 -1.7705 0
M  V30 6909 C 671.521 1.56928 -0.637969 0
M  V30 6910 O 672.727 1.60226 -0.820212 0
M  V30 6911 H 669.102 0.50186 -0.560036 0
M  V30 6912 H 671.073 1.27281 -2.69893 0
M  V30 6913 C 669.822 2.88117 -1.94638 0
M  V30 6914 H 669.145 2.84187 -2.81208 0
M  V30 6915 H 670.585 3.64942 -2.15855 0
M  V30 6916 C 669.044 3.29206 -0.715899 0
M  V30 6917 O 669.574 4.01544 0.111944 0
M  V30 6918 N 667.78 2.85363 -0.549191 0
M  V30 6919 H 667.327 2.26664 -1.22397 0
M  V30 6920 H 667.285 3.13214 0.27278 0
M  V30 6921 N 671.057 1.43213 0.657864 0
M  V30 6922 C 672.285 1.48015 1.44566 0
M  V30 6923 C 672.7 0.0965951 1.88553 0
M  V30 6924 O 672.057 -0.892221 1.59203 0
M  V30 6925 C 672.108 2.42199 2.68369 0
M  V30 6926 O 671.829 3.75173 2.26223 0
M  V30 6927 C 673.33 2.56195 3.61772 0
M  V30 6928 H 670.55 0.502861 0.444266 0
M  V30 6929 H 673.094 1.87907 0.806917 0
M  V30 6930 H 671.249 2.05514 3.28394 0
M  V30 6931 H 671.663 4.25776 3.06293 0
M  V30 6932 H 673.137 3.26182 4.4532 0
M  V30 6933 H 673.614 1.60534 4.0881 0
M  V30 6934 H 674.22 2.93671 3.07632 0
M  V30 6935 N 672.536 -0.895792 1.29666 0
M  V30 6936 C 673.484 -2.02173 1.15017 0
M  V30 6937 C 674.478 -1.69276 0.0647651 0
M  V30 6938 O 675.684 -1.7859 0.224846 0
M  V30 6939 H 672.059 -0.662719 0.355397 0
M  V30 6940 H 674.03 -2.11666 2.10334 0
M  V30 6941 C 672.779 -3.37212 0.847555 0
M  V30 6942 H 672.102 -3.6303 1.67479 0
M  V30 6943 H 673.542 -4.16668 0.785106 0
M  V30 6944 C 672.001 -3.33891 -0.44929 0
M  V30 6945 O 672.531 -3.73673 -1.47415 0
M  V30 6946 N 670.737 -2.86991 -0.456547 0
M  V30 6947 H 670.284 -2.54813 0.377925 0
M  V30 6948 H 670.242 -2.85152 -1.32423 0
M  V30 6949 N 674.014 -1.12206 -1.10668 0
M  V30 6950 C 675.26 -0.887096 -1.83036 0
M  V30 6951 C 675.615 0.580887 -1.83422 0
M  V30 6952 O 674.908 1.42379 -1.28213 0
M  V30 6953 C 675.102 -1.39276 -3.29146 0
M  V30 6954 C 674.931 -2.90837 -3.42992 0
M  V30 6955 C 673.701 -3.59047 -3.55546 0
M  V30 6956 C 675.899 -3.8885 -3.36601 0
M  V30 6957 N 673.881 -4.98747 -3.57945 0
M  V30 6958 C 675.252 -5.14666 -3.45716 0
M  V30 6959 C 677.307 -3.81296 -3.20184 0
M  V30 6960 C 676.01 -6.33814 -3.40106 0
M  V30 6961 C 678.036 -4.99965 -3.15895 0
M  V30 6962 C 677.398 -6.24637 -3.25589 0
M  V30 6963 H 673.497 -0.377857 -0.684652 0
M  V30 6964 H 676.081 -1.42791 -1.32358 0
M  V30 6965 H 674.252 -0.879026 -3.78322 0
M  V30 6966 H 675.984 -1.10011 -3.89461 0
M  V30 6967 H 672.739 -3.09533 -3.5845 0
M  V30 6968 H 673.163 -5.71606 -3.62762 0
M  V30 6969 H 677.805 -2.85806 -3.11569 0
M  V30 6970 H 675.523 -7.29574 -3.47487 0
M  V30 6971 H 679.109 -4.95847 -3.04347 0
M  V30 6972 H 677.989 -7.14921 -3.22269 0
M  V30 6973 N 675.492 1.28418 -0.913599 0
M  V30 6974 C 676.422 2.29713 -0.418847 0
M  V30 6975 C 677.403 1.62165 0.513469 0
M  V30 6976 O 678.588 1.89576 0.421235 0
M  V30 6977 C 675.718 3.45612 0.342042 0
M  V30 6978 C 674.672 4.25056 -0.501123 0
M  V30 6979 C 673.998 5.3329 0.388097 0
M  V30 6980 C 675.298 4.91814 -1.75831 0
M  V30 6981 H 676.992 2.71346 -1.26538 0
M  V30 6982 H 674.538 1.30446 -0.609903 0
M  V30 6983 H 676.491 4.15562 0.699 0
M  V30 6984 H 675.215 3.02858 1.22248 0
M  V30 6985 H 673.874 3.56833 -0.840598 0
M  V30 6986 H 673.522 4.8678 1.26707 0
M  V30 6987 H 673.222 5.87347 -0.172459 0
M  V30 6988 H 674.746 6.06088 0.74094 0
M  V30 6989 H 676.16 5.54126 -1.47026 0
M  V30 6990 H 674.557 5.55866 -2.26126 0
M  V30 6991 H 675.627 4.16313 -2.4862 0
M  V30 6992 N 676.97 0.677563 1.42291 0
M  V30 6993 C 677.88 0.000962654 2.346 0
M  V30 6994 C 678.896 -0.785833 1.55244 0
M  V30 6995 O 680.072 -0.727523 1.87801 0
M  V30 6996 C 677.137 -0.936746 3.33805 0
M  V30 6997 C 676.198 -0.144173 4.29058 0
M  V30 6998 C 675.431 -1.03722 5.23524 0
M  V30 6999 O 675.654 -2.27675 5.22992 0
M  V30 7000 O 674.588 -0.496542 5.99848 0
M  V30 7001 H 678.414 0.761397 2.94001 0
M  V30 7002 H 675.999 0.43781 1.42841 0
M  V30 7003 H 677.881 -1.47497 3.94744 0
M  V30 7004 H 676.556 -1.67698 2.76874 0
M  V30 7005 H 675.463 0.438224 3.71524 0
M  V30 7006 H 676.796 0.55701 4.89038 0
M  V30 7007 N 678.448 -1.51871 0.421078 0
M  V30 7008 C 679.696 -2.01539 -0.150492 0
M  V30 7009 C 680.017 -1.30803 -1.44623 0
M  V30 7010 O 679.287 -0.437568 -1.90951 0
M  V30 7011 H 677.867 -0.744698 -0.0586041 0
M  V30 7012 H 680.529 -1.8668 0.560059 0
M  V30 7013 H 679.625 -3.10264 -0.338068 0
M  V30 7014 N 679.926 -0.151884 -1.56866 0
M  V30 7015 C 680.889 0.771861 -2.15812 0
M  V30 7016 C 681.889 1.17181 -1.10115 0
M  V30 7017 O 683.079 1.09194 -1.35729 0
M  V30 7018 C 680.211 2.04806 -2.7252 0
M  V30 7019 H 681.404 0.259021 -2.98779 0
M  V30 7020 H 678.957 0.097588 -1.55995 0
M  V30 7021 H 679.692 2.60445 -1.93233 0
M  V30 7022 H 679.477 1.77044 -3.49854 0
M  V30 7023 H 680.967 2.70771 -3.1792 0
M  V30 7024 N 681.404 1.57128 0.121893 0
M  V30 7025 C 682.65 1.84974 0.831418 0
M  V30 7026 C 682.983 0.737204 1.79663 0
M  V30 7027 O 682.258 -0.257199 1.92792 0
M  V30 7028 C 682.541 3.23397 1.58386 0
M  V30 7029 C 682.394 4.45246 0.638445 0
M  V30 7030 C 683.713 3.59355 2.54071 0
M  V30 7031 H 680.832 0.67282 0.300803 0
M  V30 7032 H 683.474 1.89759 0.0957587 0
M  V30 7033 H 681.624 3.19449 2.21098 0
M  V30 7034 H 683.296 4.61295 0.0203925 0
M  V30 7035 H 681.539 4.33771 -0.05023 0
M  V30 7036 H 682.21 5.38765 1.20151 0
M  V30 7037 H 684.686 3.64075 2.01465 0
M  V30 7038 H 683.562 4.57193 3.03752 0
M  V30 7039 H 683.823 2.86622 3.36601 0
M  V30 7040 N 682.882 -0.391992 1.52647 0
M  V30 7041 C 683.792 -1.503 1.80131 0
M  V30 7042 C 684.808 -1.59825 0.687882 0
M  V30 7043 O 685.984 -1.76218 0.975149 0
M  V30 7044 C 683.049 -2.85863 1.96171 0
M  V30 7045 C 682.11 -2.86084 3.20085 0
M  V30 7046 C 681.343 -4.15181 3.35351 0
M  V30 7047 O 681.566 -5.09981 2.55491 0
M  V30 7048 O 680.5 -4.22603 4.28591 0
M  V30 7049 H 684.326 -1.30007 2.74466 0
M  V30 7050 H 681.911 -0.579539 1.37701 0
M  V30 7051 H 683.793 -3.66236 2.08445 0
M  V30 7052 H 682.468 -3.06189 1.05025 0
M  V30 7053 H 681.375 -2.04504 3.13256 0
M  V30 7054 H 682.708 -2.7071 4.11068 0
M  V30 7055 N 684.36 -1.4356 -0.65026 0
M  V30 7056 C 685.776 -1.27025 -0.966269 0
M  V30 7057 C 685.976 -0.192117 -2.00582 0
M  V30 7058 O 685.032 0.428459 -2.48838 0
M  V30 7059 C 686.345 -2.63556 -1.44772 0
M  V30 7060 C 687.893 -2.71111 -1.56421 0
M  V30 7061 C 688.368 -4.08067 -2.07956 0
M  V30 7062 N 689.859 -4.10146 -2.15254 0
M  V30 7063 C 690.594 -5.12952 -2.56258 0
M  V30 7064 N 690.09 -6.26129 -2.96537 0
M  V30 7065 N 691.883 -5.00306 -2.56224 0
M  V30 7066 H 684.034 -2.12367 0.0375758 0
M  V30 7067 H 686.297 -0.946894 -0.0457782 0
M  V30 7068 H 686.003 -3.43429 -0.758271 0
M  V30 7069 H 685.877 -2.89152 -2.42221 0
M  V30 7070 H 688.264 -1.91569 -2.24467 0
M  V30 7071 H 688.345 -2.49277 -0.573967 0
M  V30 7072 H 687.989 -4.88077 -1.40511 0
M  V30 7073 H 687.919 -4.27266 -3.07817 0
M  V30 7074 H 690.41 -3.28453 -1.86887 0
M  V30 7075 H 690.723 -7.00403 -3.26582 0
M  V30 7076 H 689.068 -6.29597 -2.94334 0
M  V30 7077 H 692.259 -4.10952 -2.24135 0
M  V30 7078 H 692.432 -5.80553 -2.87857 0
M  V30 7079 N 685.838 0.888903 -1.30139 0
M  V30 7080 C 686.786 2.0156 -1.16088 0
M  V30 7081 C 687.78 1.69239 -0.0737413 0
M  V30 7082 O 688.986 1.78468 -0.234313 0
M  V30 7083 H 685.361 0.660825 -0.358907 0
M  V30 7084 H 687.332 2.10547 -2.11453 0
M  V30 7085 C 686.081 3.36758 -0.865426 0
M  V30 7086 H 685.404 3.62137 -1.69402 0
M  V30 7087 H 686.844 4.16246 -0.807192 0
M  V30 7088 C 685.303 3.34124 0.431577 0
M  V30 7089 O 685.833 3.7445 1.45431 0
M  V30 7090 N 684.039 2.87229 0.441321 0
M  V30 7091 H 683.586 2.54609 -0.391433 0
M  V30 7092 H 683.544 2.8585 1.30909 0
M  V30 7093 N 687.317 1.12792 1.10072 0
M  V30 7094 C 688.733 0.864745 1.34143 0
M  V30 7095 C 688.933 -0.503201 1.95116 0
M  V30 7096 O 687.989 -1.25111 2.19325 0
M  V30 7097 C 689.302 1.98413 2.25949 0
M  V30 7098 C 690.85 2.01545 2.39476 0
M  V30 7099 C 691.325 3.12727 3.34613 0
M  V30 7100 N 692.816 3.12194 3.42183 0
M  V30 7101 C 693.551 3.94862 4.15779 0
M  V30 7102 N 693.047 4.87528 4.92228 0
M  V30 7103 N 694.84 3.82985 4.11435 0
M  V30 7104 H 686.991 2.00926 0.68866 0
M  V30 7105 H 689.254 0.874564 0.365844 0
M  V30 7106 H 688.96 2.97005 1.88364 0
M  V30 7107 H 688.834 1.89254 3.26287 0
M  V30 7108 H 691.221 1.0357 2.76328 0
M  V30 7109 H 691.302 2.14777 1.3894 0
M  V30 7110 H 690.946 4.10936 2.98486 0
M  V30 7111 H 690.876 2.96732 4.35037 0
M  V30 7112 H 693.367 2.45065 2.87666 0
M  V30 7113 H 693.68 5.47109 5.45794 0
M  V30 7114 H 692.025 4.91539 4.9134 0
M  V30 7115 H 695.216 3.09923 3.50807 0
M  V30 7116 H 695.389 4.47641 4.68531 0
M  V30 7117 N 688.795 -1.27931 0.920396 0
M  V30 7118 C 689.728 -2.2537 0.358285 0
M  V30 7119 C 690.706 -1.53328 -0.541242 0
M  V30 7120 O 691.89 -1.82196 -0.483399 0
M  V30 7121 C 689.017 -3.35178 -0.487193 0
M  V30 7122 C 688.063 -4.25079 0.347881 0
M  V30 7123 S 688.896 -5.05792 1.75883 0
M  V30 7124 C 690.052 -6.19089 0.920832 0
M  V30 7125 H 690.285 -2.72701 1.18413 0
M  V30 7126 H 687.818 -1.36474 0.722088 0
M  V30 7127 H 689.776 -3.98895 -0.96916 0
M  V30 7128 H 688.437 -2.865 -1.28749 0
M  V30 7129 H 687.63 -5.03113 -0.298912 0
M  V30 7130 H 687.232 -3.66119 0.763748 0
M  V30 7131 H 689.524 -6.77326 0.15349 0
M  V30 7132 H 690.467 -6.8803 1.67394 0
M  V30 7133 H 690.875 -5.62573 0.466069 0
M  V30 7134 N 690.273 -0.685099 -1.4193 0
M  V30 7135 C 691.521 -0.21124 -2.00993 0
M  V30 7136 C 691.842 1.18985 -1.54491 0
M  V30 7137 O 691.112 1.8009 -0.771 0
M  V30 7138 H 689.692 -0.0751059 -0.743215 0
M  V30 7139 H 692.354 -0.883915 -1.73704 0
M  V30 7140 H 691.45 -0.220513 -3.1132 0
M  V30 7141 N 691.751 1.51645 -0.429126 0
M  V30 7142 C 692.661 2.31288 0.392809 0
M  V30 7143 C 693.677 1.39852 1.03525 0
M  V30 7144 O 694.853 1.72926 1.03241 0
M  V30 7145 C 691.918 3.13347 1.48372 0
M  V30 7146 C 690.979 4.20551 0.862268 0
M  V30 7147 C 690.212 4.98688 1.9012 0
M  V30 7148 O 690.435 4.77359 3.12225 0
M  V30 7149 O 689.369 5.83005 1.4963 0
M  V30 7150 H 693.195 3.02609 -0.257138 0
M  V30 7151 H 690.78 1.48163 -0.191851 0
M  V30 7152 H 692.662 3.64387 2.1166 0
M  V30 7153 H 691.337 2.44799 2.1179 0
M  V30 7154 H 690.244 3.73609 0.191568 0
M  V30 7155 H 691.577 4.91449 0.271704 0
M  V30 7156 N 693.229 0.160201 1.56784 0
M  V30 7157 C 694.478 -0.487619 1.95717 0
M  V30 7158 C 694.791 -1.65136 1.0483 0
M  V30 7159 O 695.997 -2.36468 1.33398 0
M  V30 7160 C 694.453 -0.91888 3.47972 0
M  V30 7161 C 694.061 0.218655 4.47466 0
M  V30 7162 C 695.805 -1.53575 3.95746 0
M  V30 7163 C 693.712 -0.231614 5.90946 0
M  V30 7164 H 692.642 -0.185939 0.730714 0
M  V30 7165 H 695.293 0.246657 1.81835 0
M  V30 7166 H 693.675 -1.70881 3.57234 0
M  V30 7167 H 694.849 0.995825 4.49911 0
M  V30 7168 H 693.164 0.744767 4.09685 0
M  V30 7169 H 695.761 -1.88448 5.00391 0
M  V30 7170 H 696.104 -2.42959 3.38048 0
M  V30 7171 H 696.637 -0.810467 3.89456 0
M  V30 7172 H 693.376 0.62718 6.52493 0
M  V30 7173 H 692.896 -0.974379 5.91833 0
M  V30 7174 H 694.575 -0.67922 6.43425 0
M  V30 7175 N 694.707 -1.5719 -0.113559 0
M  V30 7176 C 695.956 -1.84325 -0.818984 0
M  V30 7177 C 696.269 -0.746685 -1.80787 0
M  V30 7178 O 697.475 -0.904596 -2.55987 0
M  V30 7179 C 695.931 -3.26818 -1.50724 0
M  V30 7180 C 695.539 -4.44498 -0.559065 0
M  V30 7181 C 697.283 -3.63196 -2.19748 0
M  V30 7182 C 695.19 -5.7802 -1.25086 0
M  V30 7183 H 694.12 -0.687507 -0.309596 0
M  V30 7184 H 696.771 -1.8336 -0.0717621 0
M  V30 7185 H 695.153 -3.22269 -2.30128 0
M  V30 7186 H 696.327 -4.60356 0.202146 0
M  V30 7187 H 694.642 -4.16393 0.024495 0
M  V30 7188 H 697.239 -4.60226 -2.72206 0
M  V30 7189 H 697.582 -2.90899 -2.97798 0
M  V30 7190 H 698.115 -3.69553 -1.47226 0
M  V30 7191 H 694.854 -6.53501 -0.511539 0
M  V30 7192 H 694.374 -5.66038 -1.98395 0
M  V30 7193 H 696.053 -6.2196 -1.78253 0
M  V30 7194 N 696.185 0.383891 -1.52853 0
M  V30 7195 C 697.434 1.12563 -1.67369 0
M  V30 7196 C 697.747 1.90982 -0.422533 0
M  V30 7197 O 698.953 2.6778 -0.447914 0
M  V30 7198 C 697.409 2.05011 -2.95801 0
M  V30 7199 C 697.017 1.31991 -4.28115 0
M  V30 7200 C 698.761 2.79289 -3.19684 0
M  V30 7201 C 696.668 2.23235 -5.4765 0
M  V30 7202 H 695.598 0.42391 -0.623552 0
M  V30 7203 H 698.249 0.388016 -1.79351 0
M  V30 7204 H 696.631 2.82429 -2.77578 0
M  V30 7205 H 697.805 0.597633 -4.56908 0
M  V30 7206 H 696.12 0.696517 -4.10533 0
M  V30 7207 H 698.717 3.47749 -4.06171 0
M  V30 7208 H 699.06 3.43649 -2.3497 0
M  V30 7209 H 699.593 2.08962 -3.38496 0
M  V30 7210 H 696.332 1.63482 -6.34786 0
M  V30 7211 H 695.852 2.93364 -5.23161 0
M  V30 7212 H 697.531 2.83205 -5.81725 0
M  V30 7213 N 697.663 1.43903 0.642637 0
M  V30 7214 C 698.94 1.36556 1.40043 0
M  V30 7215 C 699.32 0.0185588 2.11092 0
M  V30 7216 O 698.668 -0.998438 2.05532 0
M  V30 7217 C 698.878 2.55596 2.37638 0
M  V30 7218 C 700.226 2.99153 3.01318 0
M  V30 7219 O 701.25 2.55719 2.47965 0
M  V30 7220 O 700.109 3.74427 3.98078 0
M  V30 7221 H 697.203 0.540189 0.626198 0
M  V30 7222 H 699.749 1.55971 0.668657 0
M  V30 7223 H 698.521 3.45256 1.84158 0
M  V30 7224 H 698.144 2.38334 3.18249 0
M  V30 7225 N 699.141 -0.881989 1.30609 0
M  V30 7226 C 700.104 -1.96957 1.1722 0
M  V30 7227 C 701.104 -1.60472 0.102598 0
M  V30 7228 O 702.294 -1.70628 0.350943 0
M  V30 7229 C 699.426 -3.31463 0.796572 0
M  V30 7230 H 700.619 -2.10262 2.13846 0
M  V30 7231 H 698.172 -1.06877 1.14048 0
M  V30 7232 H 698.907 -3.23859 -0.169053 0
M  V30 7233 H 698.692 -3.59314 1.56959 0
M  V30 7234 H 700.182 -4.11233 0.72645 0
M  V30 7235 N 700.619 -1.13374 -1.09472 0
M  V30 7236 C 701.566 -0.810682 -2.16094 0
M  V30 7237 C 702.536 0.227003 -1.64541 0
M  V30 7238 O 703.721 0.0993538 -1.90541 0
M  V30 7239 C 700.861 -0.282336 -3.43943 0
M  V30 7240 C 699.974 -1.37902 -4.09398 0
M  V30 7241 C 699.109 -0.809066 -5.25002 0
M  V30 7242 C 698.148 -1.88419 -5.82379 0
M  V30 7243 N 697.285 -1.33221 -6.89345 0
M  V30 7244 H 702.125 -1.72397 -2.43071 0
M  V30 7245 H 699.662 -0.860564 -1.19301 0
M  V30 7246 H 701.62 0.0421189 -4.17179 0
M  V30 7247 H 700.25 0.594083 -3.17286 0
M  V30 7248 H 699.302 -1.82008 -3.34032 0
M  V30 7249 H 700.614 -2.19161 -4.48074 0
M  V30 7250 H 699.768 -0.435867 -6.05132 0
M  V30 7251 H 698.507 0.0346058 -4.87688 0
M  V30 7252 H 697.512 -2.26646 -5.00911 0
M  V30 7253 H 698.737 -2.73125 -6.21755 0
M  V30 7254 H 696.683 -0.510535 -6.5401 0
M  V30 7255 H 696.6 -2.08129 -7.26786 0
M  V30 7256 H 697.868 -0.986565 -7.73232 0
M  V30 7257 N 702.098 1.27442 -0.927168 0
M  V30 7258 C 703.338 1.96157 -0.574608 0
M  V30 7259 C 703.702 1.71265 0.867897 0
M  V30 7260 O 704.903 2.33664 1.3287 0
M  V30 7261 C 703.174 3.46115 -0.891009 0
M  V30 7262 S 704.733 4.34006 -0.646885 0
M  V30 7263 H 701.551 0.678619 -0.212125 0
M  V30 7264 H 704.153 1.54688 -1.19549 0
M  V30 7265 H 702.857 3.6173 -1.93854 0
M  V30 7266 H 702.388 3.92545 -0.259301 0
M  V30 7267 H 704.403 4.93719 0.495568 0
M  V30 7268 N 703.576 0.692616 1.41565 0
M  V30 7269 C 704.486 0.0258451 2.34586 0
M  V30 7270 C 705.502 -0.769324 1.56069 0
M  V30 7271 O 706.678 -0.707563 1.88562 0
M  V30 7272 C 703.743 -0.901289 3.3478 0
M  V30 7273 C 702.804 -0.0986579 4.29187 0
M  V30 7274 C 702.037 -0.981634 5.24595 0
M  V30 7275 O 702.26 -2.22115 5.25377 0
M  V30 7276 O 701.194 -0.432892 6.00341 0
M  V30 7277 H 705.02 0.792537 2.93177 0
M  V30 7278 H 702.605 0.452935 1.42369 0
M  V30 7279 H 704.487 -1.43302 3.96286 0
M  V30 7280 H 703.162 -1.64752 2.78637 0
M  V30 7281 H 702.069 0.477604 3.71039 0
M  V30 7282 H 703.402 0.608848 4.8842 0
M  V30 7283 N 705.054 -1.51416 0.437162 0
M  V30 7284 C 706.282 -2.06503 -0.128045 0
M  V30 7285 C 706.697 -1.30461 -1.36475 0
M  V30 7286 O 706.054 -0.364127 -1.78831 0
M  V30 7287 C 706.105 -3.58683 -0.450437 0
M  V30 7288 O 705.826 -4.31853 0.737186 0
M  V30 7289 C 707.327 -4.30284 -1.06633 0
M  V30 7290 H 704.547 -0.670952 -0.00800269 0
M  V30 7291 H 707.091 -1.94996 0.616193 0
M  V30 7292 H 705.246 -3.70106 -1.14457 0
M  V30 7293 H 705.66 -5.22467 0.461347 0
M  V30 7294 H 707.134 -5.37848 -1.24191 0
M  V30 7295 H 707.611 -3.88564 -2.0473 0
M  V30 7296 H 708.217 -4.23304 -0.411585 0
M  V30 7297 N 706.532 -0.168513 -1.56696 0
M  V30 7298 C 707.48 0.779791 -2.19139 0
M  V30 7299 C 708.474 1.23957 -1.1546 0
M  V30 7300 O 709.68 1.20555 -1.33666 0
M  V30 7301 H 706.055 0.269739 -0.701958 0
M  V30 7302 H 708.026 0.229156 -2.97519 0
M  V30 7303 C 706.775 2.00003 -2.84419 0
M  V30 7304 H 706.098 1.65527 -3.63924 0
M  V30 7305 H 707.538 2.64251 -3.31583 0
M  V30 7306 C 705.997 2.82187 -1.84044 0
M  V30 7307 O 706.527 3.79247 -1.32418 0
M  V30 7308 N 704.733 2.47145 -1.52864 0
M  V30 7309 H 704.28 1.68277 -1.9504 0
M  V30 7310 H 704.238 3.02422 -0.859569 0
M  V30 7311 N 708.01 1.57248 0.105221 0
M  V30 7312 C 709.256 1.85845 0.811753 0
M  V30 7313 C 709.589 0.756219 1.78871 0
M  V30 7314 O 708.864 -0.236736 1.93054 0
M  V30 7315 C 709.147 3.25059 1.54947 0
M  V30 7316 C 709 4.45898 0.591185 0
M  V30 7317 C 710.319 3.6203 2.50245 0
M  V30 7318 H 707.438 0.675973 0.293649 0
M  V30 7319 H 710.08 1.89849 0.0756269 0
M  V30 7320 H 708.23 3.21776 2.17698 0
M  V30 7321 H 709.902 4.61291 -0.0285352 0
M  V30 7322 H 708.145 4.33693 -0.0962343 0
M  V30 7323 H 708.816 5.40009 1.1443 0
M  V30 7324 H 711.292 3.66192 1.97593 0
M  V30 7325 H 710.168 4.60389 2.98886 0
M  V30 7326 H 710.429 2.90176 3.33542 0
M  V30 7327 N 709.488 -0.375779 1.53054 0
M  V30 7328 C 710.435 -1.45978 1.78771 0
M  V30 7329 C 711.405 -1.53625 0.631552 0
M  V30 7330 O 712.59 -1.69674 0.872667 0
M  V30 7331 C 709.73 -2.8305 1.97425 0
M  V30 7332 C 708.843 -2.84451 3.25134 0
M  V30 7333 C 707.978 -4.13034 3.34031 0
M  V30 7334 C 707.017 -4.08536 4.55812 0
M  V30 7335 N 706.154 -5.2875 4.61918 0
M  V30 7336 H 710.994 -1.23349 2.71273 0
M  V30 7337 H 708.531 -0.598147 1.3439 0
M  V30 7338 H 710.489 -3.62666 2.06225 0
M  V30 7339 H 709.119 -3.04101 1.0827 0
M  V30 7340 H 708.171 -1.97127 3.25338 0
M  V30 7341 H 709.483 -2.76998 4.14818 0
M  V30 7342 H 708.637 -5.0106 3.42087 0
M  V30 7343 H 707.376 -4.23226 2.42345 0
M  V30 7344 H 706.381 -3.18897 4.47867 0
M  V30 7345 H 707.606 -3.99955 5.48828 0
M  V30 7346 H 705.552 -5.39547 3.73129 0
M  V30 7347 H 705.469 -5.23426 5.45492 0
M  V30 7348 H 706.737 -6.18637 4.74245 0
M  V30 7349 N 710.966 -1.44241 -0.634997 0
M  V30 7350 C 712.214 -1.46531 -1.39187 0
M  V30 7351 C 712.535 -0.0976441 -1.94755 0
M  V30 7352 O 711.805 0.869528 -1.75545 0
M  V30 7353 H 710.385 -0.539544 -0.516625 0
M  V30 7354 H 713.047 -1.79989 -0.747655 0
M  V30 7355 H 712.143 -2.18848 -2.22513 0
M  V30 7356 N 712.444 0.87505 -1.31075 0
M  V30 7357 C 713.69 1.63009 -1.20647 0
M  V30 7358 C 714.023 1.9276 0.236045 0
M  V30 7359 O 713.298 1.55559 1.16754 0
M  V30 7360 C 713.581 2.96357 -2.0456 0
M  V30 7361 C 713.434 2.73516 -3.57084 0
M  V30 7362 C 714.753 3.974 -1.89107 0
M  V30 7363 H 711.872 0.591518 -0.439631 0
M  V30 7364 H 714.514 1.0119 -1.60812 0
M  V30 7365 H 712.664 3.49119 -1.70435 0
M  V30 7366 H 714.336 2.27465 -4.01319 0
M  V30 7367 H 712.579 2.0784 -3.80769 0
M  V30 7368 H 713.25 3.68377 -4.11099 0
M  V30 7369 H 715.726 3.5383 -2.18961 0
M  V30 7370 H 714.602 4.88596 -2.5013 0
M  V30 7371 H 714.863 4.33794 -0.85296 0
M  V30 7372 N 713.922 1.13953 1.08869 0
M  V30 7373 C 715.169 0.90481 1.81161 0
M  V30 7374 C 715.497 -0.568824 1.85996 0
M  V30 7375 O 714.752 -1.43723 1.32823 0
M  V30 7376 C 715.051 1.44495 3.26888 0
M  V30 7377 C 714.717 2.93641 3.42178 0
M  V30 7378 C 713.379 3.34361 3.46059 0
M  V30 7379 C 715.731 3.89568 3.46246 0
M  V30 7380 C 713.059 4.69681 3.51592 0
M  V30 7381 C 715.411 5.2474 3.53314 0
M  V30 7382 C 714.075 5.64979 3.55465 0
M  V30 7383 H 713.345 0.331094 0.662916 0
M  V30 7384 H 715.992 1.42242 1.28217 0
M  V30 7385 H 714.297 0.848169 3.82509 0
M  V30 7386 H 715.994 1.23934 3.81368 0
M  V30 7387 H 712.584 2.61156 3.39846 0
M  V30 7388 H 716.768 3.59192 3.42483 0
M  V30 7389 H 712.024 5.00224 3.51547 0
M  V30 7390 H 716.198 5.98882 3.55406 0
M  V30 7391 H 713.825 6.69821 3.59505 0
M  V30 7392 N 715.4 -1.26948 0.933913 0
M  V30 7393 C 716.363 -2.24889 0.442457 0
M  V30 7394 C 717.363 -1.54594 -0.442426 0
M  V30 7395 O 718.553 -1.72502 -0.242629 0
M  V30 7396 C 715.685 -3.3896 -0.363173 0
M  V30 7397 H 716.878 -2.69879 1.30787 0
M  V30 7398 H 714.431 -1.38978 0.715187 0
M  V30 7399 H 715.166 -2.99361 -1.24714 0
M  V30 7400 H 714.951 -3.9116 0.271366 0
M  V30 7401 H 716.441 -4.11739 -0.697186 0
M  V30 7402 N 716.879 -0.700114 -1.41195 0
M  V30 7403 C 717.842 -0.0465706 -2.29153 0
M  V30 7404 C 718.842 0.703302 -1.44604 0
M  V30 7405 O 720.032 0.537513 -1.657 0
M  V30 7406 C 717.164 0.944324 -3.2756 0
M  V30 7407 H 718.357 -0.821064 -2.88442 0
M  V30 7408 H 715.91 -0.463869 -1.49258 0
M  V30 7409 H 716.645 1.74642 -2.73259 0
M  V30 7410 H 716.43 0.409701 -3.89954 0
M  V30 7411 H 717.92 1.39925 -3.9346 0
M  V30 7412 N 718.357 1.51182 -0.445186 0
M  V30 7413 C 719.605 2.01753 0.11841 0
M  V30 7414 C 719.926 1.33087 1.42523 0
M  V30 7415 O 719.196 0.467891 1.9023 0
M  V30 7416 H 717.776 0.745536 0.0467492 0
M  V30 7417 H 720.438 1.85765 -0.589688 0
M  V30 7418 H 719.534 3.10762 0.288665 0
M  V30 7419 N 719.835 0.176821 1.56605 0
M  V30 7420 C 721.112 -0.513365 1.88743 0
M  V30 7421 C 721.492 -1.80929 1.08757 0
M  V30 7422 O 720.84 -2.27765 0.183127 0
M  V30 7423 C 721.05 -0.749925 3.40848 0
M  V30 7424 C 722.398 -1.07747 4.10701 0
M  V30 7425 O 723.422 -0.838277 3.46196 0
M  V30 7426 O 722.281 -1.52901 5.24675 0
M  V30 7427 H 719.375 -0.265296 0.783292 0
M  V30 7428 H 721.921 0.215669 1.68324 0
M  V30 7429 H 720.693 0.16599 3.90948 0
M  V30 7430 H 720.316 -1.53208 3.66897 0
M  V30 7431 N 721.313 -1.57302 -0.09688 0
M  V30 7432 C 722.553 -1.87823 -0.806334 0
M  V30 7433 C 722.917 -0.767593 -1.75989 0
M  V30 7434 O 724.118 -0.955173 -2.51257 0
M  V30 7435 C 722.389 -3.23585 -1.51749 0
M  V30 7436 S 723.948 -3.75795 -2.26547 0
M  V30 7437 H 720.766 -0.658281 -0.268676 0
M  V30 7438 H 723.368 -1.95397 -0.0635476 0
M  V30 7439 H 722.072 -4.0234 -0.809348 0
M  V30 7440 H 721.603 -3.19145 -2.30021 0
M  V30 7441 H 723.618 -3.49068 -3.52656 0
M  V30 7442 N 722.791 0.367657 -1.53252 0
M  V30 7443 C 724.019 1.13119 -1.73239 0
M  V30 7444 C 724.434 1.831 -0.460404 0
M  V30 7445 O 723.791 1.73483 0.566557 0
M  V30 7446 C 723.842 2.16308 -2.89643 0
M  V30 7447 O 723.563 1.49175 -4.1192 0
M  V30 7448 C 725.064 3.05224 -3.21486 0
M  V30 7449 H 722.284 0.338318 -0.579467 0
M  V30 7450 H 724.828 0.42721 -1.99988 0
M  V30 7451 H 722.983 2.82307 -2.65295 0
M  V30 7452 H 723.397 2.17912 -4.7709 0
M  V30 7453 H 724.871 3.73613 -4.06346 0
M  V30 7454 H 725.348 3.69919 -2.36763 0
M  V30 7455 H 725.954 2.44843 -3.47753 0
M  V30 7456 N 724.269 1.44576 0.627338 0
M  V30 7457 C 725.497 1.51048 1.41394 0
M  V30 7458 C 725.912 0.136568 1.88305 0
M  V30 7459 O 725.269 -0.858251 1.6106 0
M  V30 7460 C 725.32 2.47837 2.63172 0
M  V30 7461 O 725.041 3.79887 2.18215 0
M  V30 7462 C 726.542 2.63811 3.56257 0
M  V30 7463 H 723.762 0.512171 0.4335 0
M  V30 7464 H 726.306 1.89576 0.766878 0
M  V30 7465 H 724.461 2.12433 3.23961 0
M  V30 7466 H 724.875 4.32177 2.97192 0
M  V30 7467 H 726.349 3.35554 4.38301 0
M  V30 7468 H 726.826 1.69169 4.05313 0
M  V30 7469 H 727.432 3.0013 3.01333 0
M  V30 7470 N 725.747 -0.868086 1.31537 0
M  V30 7471 C 726.993 -1.62367 1.2151 0
M  V30 7472 C 727.326 -1.92883 -0.225819 0
M  V30 7473 O 726.601 -1.56176 -1.15927 0
M  V30 7474 C 726.884 -2.95268 2.06129 0
M  V30 7475 C 726.737 -2.71619 3.58529 0
M  V30 7476 C 728.056 -3.96391 1.91212 0
M  V30 7477 H 725.175 -0.589178 0.442762 0
M  V30 7478 H 727.817 -1.00336 1.61347 0
M  V30 7479 H 725.967 -3.4821 1.72284 0
M  V30 7480 H 727.639 -2.25334 4.0252 0
M  V30 7481 H 725.882 -2.05817 3.81866 0
M  V30 7482 H 726.553 -3.66192 4.13047 0
M  V30 7483 H 729.029 -3.52663 2.20834 0
M  V30 7484 H 727.905 -4.87263 2.52718 0
M  V30 7485 H 728.166 -4.33335 0.875953 0
M  V30 7486 N 727.225 -1.14528 -1.08264 0
M  V30 7487 C 728.636 -0.925261 -1.6216 0
M  V30 7488 C 728.987 0.535587 -1.88748 0
M  V30 7489 O 728.112 1.4048 -1.64604 0
M  V30 7490 C 728.707 -1.67316 -2.94603 0
M  V30 7491 C 727.266 -1.49868 -3.45278 0
M  V30 7492 C 726.413 -1.69471 -2.19487 0
M  V30 7493 H 729.364 -1.29687 -0.914707 0
M  V30 7494 H 729.385 -1.13721 -3.63109 0
M  V30 7495 H 728.897 -2.73635 -2.75219 0
M  V30 7496 H 726.998 -0.459032 -3.69762 0
M  V30 7497 H 727.111 -2.2696 -4.21931 0
M  V30 7498 H 725.475 -1.12048 -2.2873 0
M  V30 7499 H 726.258 -2.77136 -2.0261 0
M  V30 7500 N 728.703 1.26451 -0.940633 0
M  V30 7501 C 729.933 1.97581 -0.603766 0
M  V30 7502 C 730.341 1.70246 0.825395 0
M  V30 7503 O 729.684 0.967001 1.56188 0
M  V30 7504 C 729.746 3.51256 -0.765463 0
M  V30 7505 C 729.41 4.0224 -2.16915 0
M  V30 7506 C 730.407 4.1402 -3.14457 0
M  V30 7507 C 728.092 4.36263 -2.48958 0
M  V30 7508 C 730.086 4.59117 -4.42143 0
M  V30 7509 C 727.773 4.81048 -3.76877 0
M  V30 7510 C 728.771 4.92436 -4.73282 0
M  V30 7511 O 728.459 5.36234 -5.98923 0
M  V30 7512 H 728.191 0.636948 -0.226436 0
M  V30 7513 H 730.745 1.61941 -1.2635 0
M  V30 7514 H 728.975 3.86669 -0.0485956 0
M  V30 7515 H 730.664 4.03597 -0.431738 0
M  V30 7516 H 731.43 3.87981 -2.91026 0
M  V30 7517 H 727.309 4.26634 -1.74656 0
M  V30 7518 H 730.853 4.6792 -5.17394 0
M  V30 7519 H 726.75 5.06531 -4.00121 0
M  V30 7520 H 727.518 5.54456 -6.02097 0
M  V30 7521 N 730.181 0.707592 1.40822 0
M  V30 7522 C 731.128 0.0499029 2.30746 0
M  V30 7523 C 732.098 -0.758718 1.47759 0
M  V30 7524 O 733.283 -0.724299 1.76518 0
M  V30 7525 C 730.423 -0.871756 3.33908 0
M  V30 7526 C 729.536 -0.0534655 4.31967 0
M  V30 7527 C 728.671 -0.973869 5.22197 0
M  V30 7528 C 727.71 -0.149194 6.11918 0
M  V30 7529 N 726.847 -1.02404 6.94592 0
M  V30 7530 H 731.687 0.822461 2.86426 0
M  V30 7531 H 729.224 0.417285 1.41057 0
M  V30 7532 H 731.182 -1.42028 3.9228 0
M  V30 7533 H 729.812 -1.61058 2.7975 0
M  V30 7534 H 728.864 0.612142 3.75442 0
M  V30 7535 H 730.176 0.585354 4.95353 0
M  V30 7536 H 729.33 -1.59121 5.85462 0
M  V30 7537 H 728.069 -1.64652 4.59065 0
M  V30 7538 H 727.074 0.481137 5.47691 0
M  V30 7539 H 728.299 0.519841 6.77107 0
M  V30 7540 H 726.245 -1.6825 6.34057 0
M  V30 7541 H 726.162 -0.441076 7.54712 0
M  V30 7542 H 727.43 -1.62782 7.62314 0
M  V30 7543 N 731.66 -1.50943 0.453197 0
M  V30 7544 C 732.592 -2.25922 -0.38623 0
M  V30 7545 C 733.605 -1.3055 -0.972652 0
M  V30 7546 O 734.794 -1.56191 -0.864097 0
M  V30 7547 C 731.894 -3.01176 -1.5539 0
M  V30 7548 C 731.067 -4.23768 -1.0835 0
M  V30 7549 C 730.126 -4.81466 -2.12313 0
M  V30 7550 O 729.152 -5.42875 -1.71101 0
M  V30 7551 N 730.354 -4.66889 -3.44956 0
M  V30 7552 H 733.119 -2.98601 0.256468 0
M  V30 7553 H 730.68 -1.59408 0.282965 0
M  V30 7554 H 732.672 -3.36659 -2.24594 0
M  V30 7555 H 731.242 -2.31409 -2.10163 0
M  V30 7556 H 730.462 -3.93597 -0.217961 0
M  V30 7557 H 731.75 -5.03289 -0.746857 0
M  V30 7558 H 731.148 -4.18011 -3.81161 0
M  V30 7559 H 729.705 -5.06691 -4.1001 0
M  V30 7560 N 733.138 -0.185124 -1.56509 0
M  V30 7561 C 734.387 0.456421 -1.96468 0
M  V30 7562 C 734.7 1.63448 -1.07444 0
M  V30 7563 O 735.906 2.34316 -1.37143 0
M  V30 7564 C 734.362 0.863404 -3.4939 0
M  V30 7565 C 733.97 -0.289815 -4.47062 0
M  V30 7566 C 735.714 1.47259 -3.98139 0
M  V30 7567 C 733.621 0.137571 -5.9124 0
M  V30 7568 H 732.551 0.17429 -0.733579 0
M  V30 7569 H 735.202 -0.275554 -1.81419 0
M  V30 7570 H 733.584 1.65176 -3.59907 0
M  V30 7571 H 734.758 -1.06728 -4.4827 0
M  V30 7572 H 733.073 -0.809851 -4.08449 0
M  V30 7573 H 735.67 1.80463 -5.03326 0
M  V30 7574 H 736.013 2.3755 -3.41871 0
M  V30 7575 H 736.546 0.748405 -3.90696 0
M  V30 7576 H 733.285 -0.730907 -6.51412 0
M  V30 7577 H 732.805 0.8801 -5.93308 0
M  V30 7578 H 734.484 0.576771 -6.44424 0
M  V30 7579 N 734.616 1.57351 0.0885366 0
M  V30 7580 C 735.865 1.85604 0.789556 0
M  V30 7581 C 736.178 0.775352 1.79576 0
M  V30 7582 O 737.384 0.945206 2.54515 0
M  V30 7583 C 735.84 3.29175 1.45506 0
M  V30 7584 C 735.448 4.45331 0.488278 0
M  V30 7585 C 737.192 3.66646 2.13942 0
M  V30 7586 C 735.099 5.79937 1.15874 0
M  V30 7587 H 734.029 0.692346 0.298619 0
M  V30 7588 H 736.68 1.83451 0.0425821 0
M  V30 7589 H 735.062 3.25889 2.24972 0
M  V30 7590 H 736.236 4.59977 -0.275359 0
M  V30 7591 H 734.551 4.16301 -0.0907363 0
M  V30 7592 H 737.148 4.64498 2.6485 0
M  V30 7593 H 737.491 2.956 2.93132 0
M  V30 7594 H 738.024 3.71848 1.41328 0
M  V30 7595 H 734.763 6.54232 0.407508 0
M  V30 7596 H 734.283 5.69123 1.89364 0
M  V30 7597 H 735.962 6.24718 1.68336 0
M  V30 7598 N 736.094 -0.359525 1.53444 0
M  V30 7599 C 737.343 -1.09886 1.69139 0
M  V30 7600 C 737.656 -1.90285 0.452863 0
M  V30 7601 O 738.862 -2.67033 0.490459 0
M  V30 7602 C 737.318 -2.0028 2.99025 0
M  V30 7603 C 736.926 -1.25164 4.30161 0
M  V30 7604 C 738.67 -2.74168 3.24086 0
M  V30 7605 C 736.577 -2.14494 5.51132 0
M  V30 7606 H 735.507 -0.413936 0.630217 0
M  V30 7607 H 738.158 -0.359434 1.79945 0
M  V30 7608 H 736.54 -2.77978 2.82036 0
M  V30 7609 H 737.714 -0.524867 4.57801 0
M  V30 7610 H 736.029 -0.631116 4.11589 0
M  V30 7611 H 738.626 -3.41243 4.11652 0
M  V30 7612 H 738.969 -3.39868 2.40407 0
M  V30 7613 H 739.502 -2.0355 3.41778 0
M  V30 7614 H 736.241 -1.53362 6.37307 0
M  V30 7615 H 735.761 -2.85004 5.27762 0
M  V30 7616 H 737.44 -2.73914 5.86157 0
M  V30 7617 N 737.572 -1.44907 -0.619662 0
M  V30 7618 C 738.535 -1.52282 -1.71297 0
M  V30 7619 C 739.535 -0.40359 -1.55653 0
M  V30 7620 O 740.725 -0.666638 -1.6094 0
M  V30 7621 C 737.857 -1.40778 -3.10474 0
M  V30 7622 H 739.05 -2.49683 -1.66128 0
M  V30 7623 H 736.603 -1.32168 -0.834339 0
M  V30 7624 H 737.338 -0.445156 -3.2123 0
M  V30 7625 H 737.123 -2.21947 -3.23237 0
M  V30 7626 H 738.613 -1.48946 -3.90135 0
M  V30 7627 N 739.05 0.861098 -1.31996 0
M  V30 7628 C 740.278 1.6474 -1.25173 0
M  V30 7629 C 740.693 1.87926 0.181425 0
M  V30 7630 O 740.05 1.4437 1.1164 0
M  V30 7631 C 740.101 3.01036 -2.0015 0
M  V30 7632 O 739.822 2.7888 -3.37872 0
M  V30 7633 C 741.323 3.95481 -2.00273 0
M  V30 7634 H 738.543 0.513314 -0.432146 0
M  V30 7635 H 741.087 1.07419 -1.74016 0
M  V30 7636 H 739.242 3.55021 -1.55046 0
M  V30 7637 H 739.656 3.65514 -3.76165 0
M  V30 7638 H 741.13 4.88403 -2.57229 0
M  V30 7639 H 741.607 4.27957 -0.987407 0
M  V30 7640 H 742.213 3.47433 -2.45296 0
M  V30 7641 N 740.528 1.15101 1.07655 0
M  V30 7642 C 741.776 0.922149 1.79836 0
M  V30 7643 C 742.097 -0.552346 1.87014 0
M  V30 7644 O 741.367 -1.40145 1.3688 0
M  V30 7645 H 739.947 0.338182 0.666064 0
M  V30 7646 H 742.609 1.45107 1.30115 0
M  V30 7647 H 741.705 1.32883 2.82398 0
M  V30 7648 N 742.006 -1.2595 0.947325 0
M  V30 7649 C 742.916 -2.29883 0.468079 0
M  V30 7650 C 743.932 -1.67783 -0.460975 0
M  V30 7651 O 745.108 -1.98526 -0.339006 0
M  V30 7652 C 742.173 -3.45773 -0.253315 0
M  V30 7653 C 741.234 -4.23337 0.713054 0
M  V30 7654 C 740.467 -5.33694 0.025993 0
M  V30 7655 O 740.69 -5.57853 -1.18978 0
M  V30 7656 O 739.624 -5.97724 0.70782 0
M  V30 7657 H 743.45 -2.72952 1.33156 0
M  V30 7658 H 741.035 -1.31263 0.713468 0
M  V30 7659 H 742.917 -4.16209 -0.659423 0
M  V30 7660 H 741.592 -3.04721 -1.09209 0
M  V30 7661 H 740.499 -3.55359 1.16923 0
M  V30 7662 H 741.832 -4.68154 1.51963 0
M  V30 7663 N 743.484 -0.715051 -1.40445 0
M  V30 7664 C 744.732 -0.253826 -2.005 0
M  V30 7665 C 745.053 1.15681 -1.5698 0
M  V30 7666 O 744.323 1.78414 -0.809027 0
M  V30 7667 H 742.903 -0.0908537 -0.741454 0
M  V30 7668 H 745.565 -0.920561 -1.7179 0
M  V30 7669 H 744.661 -0.286499 -3.10782 0
M  V30 7670 N 744.962 1.50701 -0.461195 0
M  V30 7671 C 745.925 2.2686 0.326679 0
M  V30 7672 C 746.925 1.31243 0.929085 0
M  V30 7673 O 748.115 1.54754 0.799807 0
M  V30 7674 C 745.247 3.07844 1.46441 0
M  V30 7675 H 746.44 2.97954 -0.341095 0
M  V30 7676 H 743.993 1.54814 -0.214984 0
M  V30 7677 H 744.728 2.41223 2.16753 0
M  V30 7678 H 744.513 3.78101 1.03836 0
M  V30 7679 H 746.003 3.65469 2.02044 0
M  V30 7680 N 746.441 0.193421 1.56409 0
M  V30 7681 C 747.388 -0.728124 2.19014 0
M  V30 7682 C 748.358 -1.21098 1.13686 0
M  V30 7683 O 749.543 -1.27517 1.4193 0
M  V30 7684 C 746.683 -1.94277 2.8522 0
M  V30 7685 C 745.796 -1.50143 4.05069 0
M  V30 7686 C 744.931 -2.67145 4.59137 0
M  V30 7687 C 743.97 -2.19609 5.71348 0
M  V30 7688 N 743.107 -3.29782 6.19829 0
M  V30 7689 H 747.947 -0.187499 2.9741 0
M  V30 7690 H 745.484 -0.0808064 1.46878 0
M  V30 7691 H 747.442 -2.65551 3.21774 0
M  V30 7692 H 746.072 -2.45673 2.09391 0
M  V30 7693 H 745.124 -0.684624 3.74189 0
M  V30 7694 H 746.436 -1.11266 4.86232 0
M  V30 7695 H 745.59 -3.46544 4.97988 0
M  V30 7696 H 744.329 -3.09295 3.77078 0
M  V30 7697 H 743.334 -1.38664 5.32027 0
M  V30 7698 H 744.559 -1.78492 6.55223 0
M  V30 7699 H 742.505 -3.71466 5.40693 0
M  V30 7700 H 742.422 -2.95069 6.96039 0
M  V30 7701 H 743.69 -4.094 6.63334 0
M  V30 7702 N 747.919 -1.57396 -0.0801906 0
M  V30 7703 C 748.882 -2.02133 -1.0805 0
M  V30 7704 C 749.882 -0.91707 -1.32085 0
M  V30 7705 O 751.072 -1.18217 -1.27947 0
M  V30 7706 C 748.204 -2.39479 -2.42616 0
M  V30 7707 H 749.397 -2.91733 -0.6951 0
M  V30 7708 H 746.95 -1.52869 -0.325677 0
M  V30 7709 H 747.685 -1.52879 -2.86004 0
M  V30 7710 H 747.47 -3.20052 -2.26515 0
M  V30 7711 H 748.96 -2.74697 -3.14534 0
M  V30 7712 N 749.397 0.351382 -1.53633 0
M  V30 7713 C 750.622 1.11718 -1.74739 0
M  V30 7714 C 751.047 1.81829 -0.481657 0
M  V30 7715 O 750.405 1.72264 0.565233 0
M  V30 7716 C 750.453 2.11234 -2.92254 0
M  V30 7717 O 749.557 3.186 -2.61855 0
M  V30 7718 H 748.898 0.323482 -0.579875 0
M  V30 7719 H 751.428 0.404167 -2.00568 0
M  V30 7720 H 751.438 2.54591 -3.18822 0
M  V30 7721 H 750.113 1.59599 -3.84058 0
M  V30 7722 H 748.69 2.80115 -2.4615 0
M  V30 7723 N 750.875 1.45233 0.611969 0
M  V30 7724 C 751.805 1.5641 1.73373 0
M  V30 7725 C 752.786 0.415896 1.64937 0
M  V30 7726 O 753.971 0.638478 1.83404 0
M  V30 7727 C 751.101 1.52627 3.11965 0
M  V30 7728 C 750.055 2.66119 3.35208 0
M  V30 7729 C 749.381 2.4739 4.74028 0
M  V30 7730 C 750.681 4.08157 3.25891 0
M  V30 7731 H 752.375 2.50307 1.64277 0
M  V30 7732 H 749.921 1.20467 0.788904 0
M  V30 7733 H 751.874 1.59043 3.90235 0
M  V30 7734 H 750.598 0.552564 3.21892 0
M  V30 7735 H 749.257 2.59123 2.59327 0
M  V30 7736 H 748.905 1.48168 4.80682 0
M  V30 7737 H 748.605 3.23494 4.90536 0
M  V30 7738 H 750.129 2.55653 5.54503 0
M  V30 7739 H 751.543 4.1642 3.9404 0
M  V30 7740 H 749.94 4.84617 3.5393 0
M  V30 7741 H 751.01 4.30374 2.23397 0
M  V30 7742 N 752.353 -0.854086 1.3245 0
M  V30 7743 C 753.578 -1.64597 1.26185 0
M  V30 7744 C 754.003 -1.87357 -0.167074 0
M  V30 7745 O 753.361 -1.42675 -1.11864 0
M  V30 7746 C 753.409 -2.98213 2.02734 0
M  V30 7747 O 752.513 -3.88784 1.37554 0
M  V30 7748 H 751.854 -0.50179 0.434859 0
M  V30 7749 H 754.384 -1.06372 1.74775 0
M  V30 7750 H 754.394 -3.4803 2.1293 0
M  V30 7751 H 753.069 -2.80969 3.06642 0
M  V30 7752 H 751.646 -3.4725 1.3591 0
M  V30 7753 N 753.831 -1.1567 -1.07043 0
M  V30 7754 C 754.794 -0.858906 -2.12498 0
M  V30 7755 C 755.794 0.142735 -1.60165 0
M  V30 7756 O 756.984 -0.0872678 -1.73981 0
M  V30 7757 C 754.116 -0.283021 -3.39723 0
M  V30 7758 H 755.309 -1.79368 -2.40348 0
M  V30 7759 H 752.862 -0.964608 -1.22984 0
M  V30 7760 H 753.597 0.659796 -3.17517 0
M  V30 7761 H 753.382 -1.00467 -3.7901 0
M  V30 7762 H 754.872 -0.0923543 -4.17498 0
M  V30 7763 N 755.309 1.25446 -0.953992 0
M  V30 7764 C 756.556 1.93143 -0.608429 0
M  V30 7765 C 756.884 1.74727 0.854451 0
M  V30 7766 O 756.139 1.0855 1.62836 0
M  V30 7767 C 756.438 3.45555 -0.912496 0
M  V30 7768 C 756.104 3.84126 -2.36131 0
M  V30 7769 C 754.766 3.94367 -2.75732 0
M  V30 7770 C 757.118 4.0324 -3.30223 0
M  V30 7771 C 754.446 4.21127 -4.08496 0
M  V30 7772 C 756.798 4.31493 -4.62598 0
M  V30 7773 C 755.462 4.3995 -5.01996 0
M  V30 7774 H 754.732 0.706762 -0.22264 0
M  V30 7775 H 757.379 1.49005 -1.20291 0
M  V30 7776 H 755.684 3.91091 -0.235618 0
M  V30 7777 H 757.381 3.9612 -0.623714 0
M  V30 7778 H 753.971 3.76711 -2.04418 0
M  V30 7779 H 758.155 3.94744 -3.00817 0
M  V30 7780 H 753.411 4.2589 -4.38665 0
M  V30 7781 H 757.585 4.45227 -5.35486 0
M  V30 7782 H 755.212 4.60439 -6.04896 0
M  V30 7783 N 756.787 0.722489 1.40064 0
M  V30 7784 C 758.064 0.191829 1.94657 0
M  V30 7785 C 758.444 -1.30389 1.66018 0
M  V30 7786 O 757.792 -2.06342 0.981588 0
M  V30 7787 C 758.002 0.511978 3.45224 0
M  V30 7788 C 759.35 0.454426 4.22161 0
M  V30 7789 O 760.374 0.448438 3.53366 0
M  V30 7790 O 759.233 0.437986 5.44742 0
M  V30 7791 H 756.327 0.0307821 0.826427 0
M  V30 7792 H 758.873 0.800493 1.49634 0
M  V30 7793 H 757.645 1.54622 3.59455 0
M  V30 7794 H 757.268 -0.126296 3.97399 0
M  V30 7795 N 758.265 -1.50454 0.469181 0
M  V30 7796 C 759.495 -2.06429 -0.0840913 0
M  V30 7797 C 759.903 -1.3334 -1.34227 0
M  V30 7798 O 759.246 -0.395656 -1.79389 0
M  V30 7799 C 759.308 -3.56797 -0.440049 0
M  V30 7800 C 758.972 -4.51359 0.715838 0
M  V30 7801 C 759.969 -4.94754 1.59732 0
M  V30 7802 C 757.654 -4.94069 0.905621 0
M  V30 7803 C 759.648 -5.79564 2.653 0
M  V30 7804 C 757.335 -5.78662 1.96453 0
M  V30 7805 C 758.333 -6.21311 2.83658 0
M  V30 7806 O 758.021 -7.04218 3.87727 0
M  V30 7807 H 757.753 -0.675994 0.00289751 0
M  V30 7808 H 760.307 -1.94629 0.656417 0
M  V30 7809 H 758.537 -3.66492 -1.23372 0
M  V30 7810 H 760.226 -3.95145 -0.928181 0
M  V30 7811 H 760.992 -4.62428 1.46237 0
M  V30 7812 H 756.871 -4.60394 0.236326 0
M  V30 7813 H 760.415 -6.12774 3.33398 0
M  V30 7814 H 756.312 -6.10401 2.09955 0
M  V30 7815 H 757.08 -7.22464 3.84692 0
M  V30 7816 N 759.743 -0.201713 -1.56304 0
M  V30 7817 C 760.673 0.71155 -2.22394 0
M  V30 7818 C 761.654 1.21625 -1.18917 0
M  V30 7819 O 762.839 1.26388 -1.47444 0
M  V30 7820 C 759.969 1.92837 -2.88845 0
M  V30 7821 C 758.923 1.55831 -3.98623 0
M  V30 7822 C 758.249 2.85228 -4.52271 0
M  V30 7823 C 759.549 0.763249 -5.16693 0
M  V30 7824 H 761.243 0.160573 -2.98969 0
M  V30 7825 H 758.789 0.0757916 -1.438 0
M  V30 7826 H 760.742 2.57253 -3.33764 0
M  V30 7827 H 759.466 2.50398 -2.09686 0
M  V30 7828 H 758.125 0.9377 -3.54405 0
M  V30 7829 H 757.773 3.40893 -3.69866 0
M  V30 7830 H 757.473 2.6121 -5.26349 0
M  V30 7831 H 758.997 3.50622 -4.99897 0
M  V30 7832 H 760.411 1.31066 -5.58117 0
M  V30 7833 H 758.808 0.620935 -5.96879 0
M  V30 7834 H 759.878 -0.234322 -4.84334 0
M  V30 7835 N 761.222 1.57436 0.0718424 0
M  V30 7836 C 762.471 1.86431 0.769826 0
M  V30 7837 C 762.784 0.794355 1.78744 0
M  V30 7838 O 763.99 0.972148 2.53499 0
M  V30 7839 C 762.446 3.307 1.42006 0
M  V30 7840 C 762.054 4.45824 0.441017 0
M  V30 7841 C 763.798 3.68894 2.10041 0
M  V30 7842 C 761.705 5.81134 1.09717 0
M  V30 7843 H 760.635 0.695474 0.291259 0
M  V30 7844 H 763.286 1.83485 0.0231224 0
M  V30 7845 H 761.668 3.28257 2.21502 0
M  V30 7846 H 762.842 4.59659 -0.32413 0
M  V30 7847 H 761.157 4.16181 -0.134886 0
M  V30 7848 H 763.754 4.67281 2.59908 0
M  V30 7849 H 764.097 2.98692 2.89981 0
M  V30 7850 H 764.63 3.73326 1.37376 0
M  V30 7851 H 761.369 6.54628 0.338095 0
M  V30 7852 H 760.889 5.711 1.83317 0
M  V30 7853 H 762.568 6.26468 1.617 0
M  V30 7854 N 762.7 -0.34323 1.53817 0
M  V30 7855 C 764.116 -0.686355 1.44088 0
M  V30 7856 C 764.316 -1.92426 0.597882 0
M  V30 7857 O 763.372 -2.52343 0.0889918 0
M  V30 7858 C 764.685 -0.878698 2.87575 0
M  V30 7859 C 766.233 -0.977296 2.97352 0
M  V30 7860 C 766.708 -1.20195 4.41947 0
M  V30 7861 N 768.199 -1.26915 4.45474 0
M  V30 7862 C 768.934 -1.46049 5.54488 0
M  V30 7863 N 768.43 -1.62354 6.73508 0
M  V30 7864 N 770.223 -1.48599 5.42102 0
M  V30 7865 H 762.374 0.470679 2.07119 0
M  V30 7866 H 764.637 0.148652 0.936273 0
M  V30 7867 H 764.343 -0.040602 3.51677 0
M  V30 7868 H 764.217 -1.78034 3.32541 0
M  V30 7869 H 766.604 -1.80591 2.3339 0
M  V30 7870 H 766.685 -0.0525498 2.55746 0
M  V30 7871 H 766.329 -0.378262 5.06489 0
M  V30 7872 H 766.259 -2.14027 4.81145 0
M  V30 7873 H 768.75 -1.15837 3.59708 0
M  V30 7874 H 769.063 -1.76591 7.52353 0
M  V30 7875 H 767.408 -1.5949 6.76453 0
M  V30 7876 H 770.599 -1.35443 4.48077 0
M  V30 7877 H 770.772 -1.6317 6.2712 0
M  V30 7878 N 764.178 -1.45556 -0.604258 0
M  V30 7879 C 765.406 -1.53278 -1.38973 0
M  V30 7880 C 765.821 -0.166509 -1.88064 0
M  V30 7881 O 765.178 0.832519 -1.62405 0
M  V30 7882 C 765.229 -2.51992 -2.59195 0
M  V30 7883 O 764.95 -3.8331 -2.12143 0
M  V30 7884 C 766.451 -2.69445 -3.52015 0
M  V30 7885 H 763.671 -0.519003 -0.425297 0
M  V30 7886 H 766.215 -1.90773 -0.736621 0
M  V30 7887 H 764.37 -2.17561 -3.2054 0
M  V30 7888 H 764.784 -4.3685 -2.90279 0
M  V30 7889 H 766.258 -3.42485 -4.32907 0
M  V30 7890 H 766.735 -1.75596 -4.0257 0
M  V30 7891 H 767.341 -3.04886 -2.9652 0
M  V30 7892 N 765.656 0.84705 -1.32902 0
M  V30 7893 C 766.603 1.95624 -1.22473 0
M  V30 7894 C 767.573 1.65767 -0.105178 0
M  V30 7895 O 768.758 1.88704 -0.282042 0
M  V30 7896 C 765.898 3.31434 -0.961542 0
M  V30 7897 C 765.011 3.73741 -2.1666 0
M  V30 7898 C 764.146 4.98379 -1.83825 0
M  V30 7899 C 763.185 5.33199 -3.00609 0
M  V30 7900 N 762.322 6.49014 -2.67816 0
M  V30 7901 H 767.162 2.03875 -2.17345 0
M  V30 7902 H 764.699 0.997764 -1.08088 0
M  V30 7903 H 766.657 4.09663 -0.789411 0
M  V30 7904 H 765.287 3.22762 -0.0495938 0
M  V30 7905 H 764.339 2.91102 -2.44875 0
M  V30 7906 H 765.651 3.95462 -3.03993 0
M  V30 7907 H 764.805 5.84336 -1.63208 0
M  V30 7908 H 763.544 4.78611 -0.937172 0
M  V30 7909 H 762.549 4.4575 -3.21849 0
M  V30 7910 H 763.774 5.5492 -3.9146 0
M  V30 7911 H 761.72 6.30748 -1.80258 0
M  V30 7912 H 761.637 6.7079 -3.48679 0
M  V30 7913 H 762.905 7.38103 -2.50647 0
M  V30 7914 N 767.134 1.16236 1.06428 0
M  V30 7915 C 768.362 0.967184 1.82902 0
M  V30 7916 C 768.777 -0.484601 1.82475 0
M  V30 7917 O 768.134 -1.33631 1.24294 0
M  V30 7918 C 768.185 1.48534 3.29576 0
M  V30 7919 O 767.906 2.88026 3.3011 0
M  V30 7920 C 769.407 1.33298 4.22784 0
M  V30 7921 H 766.627 0.342923 0.576754 0
M  V30 7922 H 769.171 1.54232 1.34286 0
M  V30 7923 H 767.326 0.952513 3.75508 0
M  V30 7924 H 767.74 3.11721 4.21818 0
M  V30 7925 H 769.214 1.74385 5.23731 0
M  V30 7926 H 769.691 0.278356 4.38317 0
M  V30 7927 H 770.297 1.85535 3.82697 0
M  V30 7928 N 768.612 -1.24939 0.960631 0
M  V30 7929 C 769.575 -2.239 0.49006 0
M  V30 7930 C 770.575 -1.55497 -0.409535 0
M  V30 7931 O 771.765 -1.72978 -0.205984 0
M  V30 7932 C 768.897 -3.39654 -0.291193 0
M  V30 7933 H 770.09 -2.67044 1.36482 0
M  V30 7934 H 767.643 -1.37429 0.744505 0
M  V30 7935 H 768.378 -3.01939 -1.18336 0
M  V30 7936 H 768.163 -3.90496 0.354276 0
M  V30 7937 H 769.653 -4.13125 -0.609693 0
M  V30 7938 O 770.129 -0.867795 -1.36204 0
M  V30 7939 H 770.82 -0.466586 -1.87996 0
M  V30 END ATOM
M  V30 BEGIN BOND
M  V30 END BOND
M  V30 END CTAB
M  END
$$$$
