drugbank_target|P35590 Tyrosine-protein kinase receptor Tie-1 (DB12010)
 OpenBabel12092121143D

  0  0  0     0  0            999 V3000
M  V30 BEGIN CTAB
M  V30 COUNTS 17461 17679 0 0 0
M  V30 BEGIN ATOM
M  V30 1 H -0.908 1.98254 -0.117106 0
M  V30 2 N 0 1.576 0 0
M  V30 3 C 0.933 2.03868 1.02534 0
M  V30 4 C 1.911 0.928543 1.3348 0
M  V30 5 O 3.095 1.19667 1.45644 0
M  V30 6 C 0.222 2.43627 2.35294 0
M  V30 7 C -0.732 3.65373 2.2001 0
M  V30 8 S 0.101 5.13292 1.52614 0
M  V30 9 C 1.257 5.56322 2.86805 0
M  V30 10 H 1.49 2.90518 0.631377 0
M  V30 11 H -0.977 1.52953 0.210867 0
M  V30 12 H 0.981 2.67203 3.11629 0
M  V30 13 H -0.358 1.57376 2.7183 0
M  V30 14 H -1.165 3.90944 3.18086 0
M  V30 15 H -1.563 3.418 1.51819 0
M  V30 16 H 0.729 5.58782 3.83104 0
M  V30 17 H 1.672 6.56266 2.65933 0
M  V30 18 H 2.08 4.83886 2.90714 0
M  V30 19 N 1.4781 -0.272755 1.55222 0
M  V30 20 C 2.7241 -1.00581 1.761 0
M  V30 21 C 3.0571 -1.85932 0.560625 0
M  V30 22 O 2.3321 -1.89416 -0.441801 0
M  V30 23 C 2.6151 -1.88816 3.06628 0
M  V30 24 C 2.4681 -1.06457 4.37021 0
M  V30 25 C 3.7871 -2.8752 3.33197 0
M  V30 26 H 0.9061 -0.364244 0.640699 0
M  V30 27 H 3.5481 -0.278189 1.87952 0
M  V30 28 H 1.6981 -2.50856 2.96654 0
M  V30 29 H 3.3701 -0.464863 4.58952 0
M  V30 30 H 1.6131 -0.368043 4.32236 0
M  V30 31 H 2.2841 -1.71514 5.24678 0
M  V30 32 H 4.7601 -2.35615 3.42965 0
M  V30 33 H 3.6361 -3.46399 4.25792 0
M  V30 34 H 3.8971 -3.62657 2.52849 0
M  V30 35 N 2.9562 -1.48159 -0.537278 0
M  V30 36 C 4.2022 -1.57015 -1.29297 0
M  V30 37 C 4.5572 -0.237791 -1.90925 0
M  V30 38 O 3.8502 0.758621 -1.75942 0
M  V30 39 C 4.0442 -2.63956 -2.40961 0
M  V30 40 C 3.8732 -4.07461 -1.90278 0
M  V30 41 C 2.6432 -4.74685 -1.73213 0
M  V30 42 C 4.8412 -4.93858 -1.43556 0
M  V30 43 N 2.8232 -6.02633 -1.17078 0
M  V30 44 C 4.1942 -6.11993 -0.993204 0
M  V30 45 C 6.2492 -4.80141 -1.31792 0
M  V30 46 C 4.9522 -7.17923 -0.444872 0
M  V30 47 C 6.9782 -5.86186 -0.783585 0
M  V30 48 C 6.3402 -7.03524 -0.351261 0
M  V30 49 H 2.4392 -0.629154 -0.464423 0
M  V30 50 H 5.0232 -1.85006 -0.606705 0
M  V30 51 H 3.1942 -2.378 -3.07093 0
M  V30 52 H 4.9262 -2.62539 -3.07986 0
M  V30 53 H 1.6812 -4.30902 -1.9652 0
M  V30 54 H 2.1052 -6.7085 -0.910421 0
M  V30 55 H 6.7472 -3.89772 -1.63823 0
M  V30 56 H 4.4652 -8.08022 -0.11222 0
M  V30 57 H 8.0512 -5.77624 -0.695835 0
M  V30 58 H 6.9312 -7.8418 0.055777 0
M  V30 59 N 4.4343 0.785586 -1.36625 0
M  V30 60 C 5.8503 1.08419 -1.17122 0
M  V30 61 C 6.0503 2.015 0.00208491 0
M  V30 62 O 5.1063 2.43551 0.666278 0
M  V30 63 C 6.4193 1.69498 -2.48377 0
M  V30 64 C 7.9673 1.81821 -2.54775 0
M  V30 65 C 8.4423 2.46315 -3.86126 0
M  V30 66 N 9.9333 2.53779 -3.87492 0
M  V30 67 C 10.6683 3.045 -4.85868 0
M  V30 68 N 10.1643 3.55499 -5.94637 0
M  V30 69 N 11.9573 3.03247 -4.73284 0
M  V30 70 H 4.1083 0.167264 -2.1174 0
M  V30 71 H 6.3713 0.13682 -0.938075 0
M  V30 72 H 6.0773 1.08571 -3.34522 0
M  V30 73 H 5.9513 2.6896 -2.64462 0
M  V30 74 H 8.3383 2.41884 -1.69045 0
M  V30 75 H 8.4193 0.811532 -2.42586 0
M  V30 76 H 8.0633 1.86895 -4.72263 0
M  V30 77 H 7.9933 3.47561 -3.95612 0
M  V30 78 H 10.4843 2.17672 -3.08913 0
M  V30 79 H 10.7973 3.92562 -6.65669 0
M  V30 80 H 9.1423 3.5364 -5.98301 0
M  V30 81 H 12.3333 2.62696 -3.87438 0
M  V30 82 H 12.5063 3.42467 -5.50109 0
M  V30 83 N 5.9124 1.20967 1.01018 0
M  V30 84 C 7.1584 1.02526 1.74975 0
M  V30 85 C 7.4914 -0.4408 1.89131 0
M  V30 86 O 6.7664 -1.32718 1.42184 0
M  V30 87 C 7.0494 1.71699 3.1653 0
M  V30 88 C 6.9024 3.25791 3.10129 0
M  V30 89 C 8.2214 1.45531 4.15342 0
M  V30 90 H 5.3404 0.373863 0.635134 0
M  V30 91 H 7.9824 1.49071 1.17805 0
M  V30 92 H 6.1324 1.32128 3.65341 0
M  V30 93 H 7.8044 3.74697 2.69072 0
M  V30 94 H 6.0474 3.56363 2.47362 0
M  V30 95 H 6.7184 3.69353 4.10222 0
M  V30 96 H 9.1944 1.79872 3.75213 0
M  V30 97 H 8.0704 1.96453 5.1254 0
M  V30 98 H 8.3314 0.384237 4.40427 0
M  V30 99 N 7.3905 -1.2043 1.01659 0
M  V30 100 C 8.8015 -1.71517 0.737482 0
M  V30 101 C 9.1525 -1.81547 -0.743973 0
M  V30 102 O 8.2775 -1.47803 -1.58061 0
M  V30 103 C 8.8725 -3.11515 1.33206 0
M  V30 104 C 7.4315 -3.59912 1.10183 0
M  V30 105 C 6.5785 -2.37116 1.43776 0
M  V30 106 H 9.5295 -1.05444 1.18606 0
M  V30 107 H 9.5505 -3.73575 0.722636 0
M  V30 108 H 9.0625 -3.04182 2.41028 0
M  V30 109 H 7.1635 -3.72577 0.0412756 0
M  V30 110 H 7.2765 -4.44731 1.78188 0
M  V30 111 H 5.6405 -2.39857 0.856778 0
M  V30 112 H 6.4235 -2.32424 2.52654 0
M  V30 113 N 8.8686 -0.792821 -1.36206 0
M  V30 114 C 10.2796 -0.429513 -1.81692 0
M  V30 115 C 10.6306 1.04695 -1.65932 0
M  V30 116 O 9.7556 1.81256 -1.18218 0
M  V30 117 C 10.3506 -0.772831 -3.29868 0
M  V30 118 C 8.9096 -0.462307 -3.7355 0
M  V30 119 C 8.0566 -1.00569 -2.5842 0
M  V30 120 H 11.0076 -0.985672 -1.24379 0
M  V30 121 H 11.0286 -0.0651928 -3.80444 0
M  V30 122 H 10.5406 -1.84747 -3.41307 0
M  V30 123 H 8.6416 0.604158 -3.67669 0
M  V30 124 H 8.7546 -0.985299 -4.68859 0
M  V30 125 H 7.1186 -0.428734 -2.51066 0
M  V30 126 H 7.9016 -2.08616 -2.72643 0
M  V30 127 N 10.3467 1.47872 -0.545128 0
M  V30 128 C 11.5937 2.02493 -0.0165858 0
M  V30 129 C 11.9217 1.42073 1.32836 0
M  V30 130 O 11.1767 0.561459 1.87473 0
M  V30 131 C 11.4757 3.57131 0.13867 0
M  V30 132 C 11.1417 4.36411 -1.13384 0
M  V30 133 C 9.8037 4.57792 -1.48256 0
M  V30 134 C 12.1557 4.82223 -1.97764 0
M  V30 135 C 9.4837 5.22233 -2.67376 0
M  V30 136 C 11.8357 5.47977 -3.16076 0
M  V30 137 C 10.4997 5.67593 -3.51275 0
M  V30 138 H 9.7697 0.740975 -0.00606918 0
M  V30 139 H 12.4167 1.77683 -0.714207 0
M  V30 140 H 10.7217 3.80865 0.919172 0
M  V30 141 H 12.4187 3.97031 0.562782 0
M  V30 142 H 9.0087 4.2004 -0.852297 0
M  V30 143 H 13.1927 4.65493 -1.72132 0
M  V30 144 H 8.4487 5.35616 -2.94831 0
M  V30 145 H 12.6227 5.8244 -3.81755 0
M  V30 146 H 10.2497 6.17298 -4.43675 0
M  V30 147 N 11.8248 0.280983 1.55075 0
M  V30 148 C 12.7548 -0.597469 2.25727 0
M  V30 149 C 13.7358 -1.15417 1.24952 0
M  V30 150 O 14.9208 -1.18722 1.53684 0
M  V30 151 C 12.0508 -1.7789 2.98283 0
M  V30 152 C 11.0048 -1.35347 4.06036 0
M  V30 153 C 10.3308 -2.61846 4.66198 0
M  V30 154 C 11.6308 -0.499354 5.19907 0
M  V30 155 H 13.3248 -0.00824265 2.99399 0
M  V30 156 H 10.8708 -0.0025244 1.44 0
M  V30 157 H 12.8238 -2.39937 3.46422 0
M  V30 158 H 11.5478 -2.39405 2.22155 0
M  V30 159 H 10.2068 -0.756156 3.58717 0
M  V30 160 H 9.8548 -3.21632 3.86732 0
M  V30 161 H 9.5548 -2.3409 5.38958 0
M  V30 162 H 11.0788 -3.24732 5.1709 0
M  V30 163 H 12.4928 -1.02498 5.64063 0
M  V30 164 H 10.8898 -0.316424 5.99265 0
M  V30 165 H 11.9598 0.480459 4.82514 0
M  V30 166 N 13.3029 -1.57598 0.00835791 0
M  V30 167 C 14.2329 -2.1198 -0.979113 0
M  V30 168 C 15.2139 -1.03091 -1.35301 0
M  V30 169 O 16.3989 -1.30818 -1.43528 0
M  V30 170 C 13.5289 -2.62995 -2.26828 0
M  V30 171 C 12.4829 -3.76485 -2.03576 0
M  V30 172 C 11.8089 -4.13846 -3.38579 0
M  V30 173 C 13.1089 -5.0342 -1.39161 0
M  V30 174 H 14.8029 -2.94738 -0.526281 0
M  V30 175 H 12.3489 -1.41783 -0.251704 0
M  V30 176 H 14.3019 -2.99669 -2.96271 0
M  V30 177 H 13.0259 -1.7737 -2.7424 0
M  V30 178 H 11.6849 -3.40217 -1.36557 0
M  V30 179 H 11.3329 -3.25232 -3.83709 0
M  V30 180 H 11.0329 -4.90312 -3.23834 0
M  V30 181 H 12.5569 -4.53086 -4.09323 0
M  V30 182 H 13.9709 -5.37812 -1.98573 0
M  V30 183 H 12.3679 -5.84746 -1.34878 0
M  V30 184 H 13.4379 -4.83548 -0.361868 0
M  V30 185 N 14.781 0.264519 -1.55364 0
M  V30 186 C 16.192 0.834936 -1.6699 0
M  V30 187 C 16.543 1.86718 -0.602552 0
M  V30 188 O 15.668 2.14899 0.254425 0
M  V30 189 C 16.263 1.5212 -3.02729 0
M  V30 190 C 14.822 2.03954 -3.16354 0
M  V30 191 C 13.969 0.884498 -2.62815 0
M  V30 192 H 16.92 0.0406869 -1.58648 0
M  V30 193 H 16.941 2.38853 -2.96191 0
M  V30 194 H 16.453 0.769668 -3.80392 0
M  V30 195 H 14.554 2.82041 -2.43482 0
M  V30 196 H 14.667 2.24902 -4.23032 0
M  V30 197 H 13.031 1.2802 -2.20188 0
M  V30 198 H 13.814 0.14634 -3.42988 0
M  V30 199 N 16.2591 1.48442 0.529413 0
M  V30 200 C 17.5081 1.55742 1.28169 0
M  V30 201 C 17.8211 0.236511 1.94165 0
M  V30 202 O 19.0271 0.187761 2.7085 0
M  V30 203 C 17.4831 2.74667 2.32564 0
M  V30 204 C 17.0911 4.13402 1.72636 0
M  V30 205 C 18.8351 2.9128 3.08798 0
M  V30 206 C 16.7421 5.23587 2.74975 0
M  V30 207 H 15.6721 0.579796 0.48203 0
M  V30 208 H 18.3231 1.74776 0.559056 0
M  V30 209 H 16.7051 2.49067 3.07866 0
M  V30 210 H 17.8791 4.49022 1.03519 0
M  V30 211 H 16.1941 4.0191 1.08892 0
M  V30 212 H 18.7911 3.70767 3.85274 0
M  V30 213 H 19.1341 2.00757 3.64695 0
M  V30 214 H 19.6671 3.16782 2.40611 0
M  V30 215 H 16.4061 6.16076 2.23897 0
M  V30 216 H 15.9261 4.92454 3.42417 0
M  V30 217 H 17.6051 5.51724 3.37949 0
M  V30 218 N 17.7372 -0.778329 1.37039 0
M  V30 219 C 18.6672 -1.90546 1.34962 0
M  V30 220 C 19.6482 -1.68681 0.219274 0
M  V30 221 O 20.8332 -1.89634 0.418624 0
M  V30 222 C 17.9632 -3.27734 1.14925 0
M  V30 223 C 16.9172 -3.64147 2.24902 0
M  V30 224 C 16.2432 -4.99806 1.89996 0
M  V30 225 C 17.5432 -3.71579 3.67051 0
M  V30 226 H 19.2372 -1.92541 2.29277 0
M  V30 227 H 16.7832 -0.924948 1.10366 0
M  V30 228 H 18.7362 -4.06215 1.12104 0
M  V30 229 H 17.4602 -3.26154 0.170631 0
M  V30 230 H 16.1192 -2.8797 2.26868 0
M  V30 231 H 15.7672 -4.94759 0.906796 0
M  V30 232 H 15.4672 -5.25139 2.63634 0
M  V30 233 H 16.9912 -5.80694 1.88749 0
M  V30 234 H 18.4052 -4.40227 3.67251 0
M  V30 235 H 16.8022 -4.08405 4.39688 0
M  V30 236 H 17.8722 -2.72404 4.01154 0
M  V30 237 N 19.2153 -1.21501 -1.00376 0
M  V30 238 C 20.4623 -1.03299 -1.74171 0
M  V30 239 C 20.7903 0.433326 -1.89612 0
M  V30 240 O 20.0453 1.33779 -1.42834 0
M  V30 241 C 20.3443 -1.67673 -3.15627 0
M  V30 242 C 20.0103 -3.17533 -3.2013 0
M  V30 243 C 18.6723 -3.58427 -3.21067 0
M  V30 244 C 21.0243 -4.13504 -3.17275 0
M  V30 245 C 18.3523 -4.93794 -3.16835 0
M  V30 246 C 20.7043 -5.48834 -3.14585 0
M  V30 247 C 19.3683 -5.89123 -3.13831 0
M  V30 248 H 18.6383 -0.377999 -0.637336 0
M  V30 249 H 21.2853 -1.51111 -1.17634 0
M  V30 250 H 19.5903 -1.12158 -3.75404 0
M  V30 251 H 21.2873 -1.51091 -3.71446 0
M  V30 252 H 17.8773 -2.84965 -3.20145 0
M  V30 253 H 22.0613 -3.82936 -3.15711 0
M  V30 254 H 17.3173 -5.24255 -3.1459 0
M  V30 255 H 21.4913 -6.22934 -3.1133 0
M  V30 256 H 19.1183 -6.93984 -3.10307 0
M  V30 257 N 20.6934 1.19889 -1.02296 0
M  V30 258 C 21.6234 2.25141 -0.619174 0
M  V30 259 C 22.6044 1.66051 0.368915 0
M  V30 260 O 23.7894 1.92546 0.252941 0
M  V30 261 C 20.9194 3.4728 0.0368783 0
M  V30 262 C 19.8734 4.19005 -0.872865 0
M  V30 263 C 19.1994 5.34637 -0.0822402 0
M  V30 264 C 20.4994 4.74452 -2.18387 0
M  V30 265 H 22.1934 2.59171 -1.49903 0
M  V30 266 H 19.7394 1.24579 -0.722222 0
M  V30 267 H 21.6924 4.20098 0.330958 0
M  V30 268 H 20.4164 3.12433 0.95149 0
M  V30 269 H 19.0754 3.48061 -1.15105 0
M  V30 270 H 18.7234 4.96034 0.83422 0
M  V30 271 H 18.4234 5.83557 -0.688149 0
M  V30 272 H 19.9474 6.10255 0.205238 0
M  V30 273 H 21.3614 5.39055 -1.95172 0
M  V30 274 H 19.7584 5.33834 -2.74119 0
M  V30 275 H 20.8284 3.92844 -2.84257 0
M  V30 276 N 22.1715 0.800033 1.35784 0
M  V30 277 C 23.1345 0.211565 2.28221 0
M  V30 278 C 24.1345 -0.59728 1.49296 0
M  V30 279 O 25.3245 -0.416721 1.69142 0
M  V30 280 C 22.4565 -0.705846 3.33513 0
M  V30 281 H 23.6495 1.02677 2.81776 0
M  V30 282 H 21.2025 0.570211 1.45528 0
M  V30 283 H 21.9375 -1.54498 2.85133 0
M  V30 284 H 21.7225 -0.127655 3.91892 0
M  V30 285 H 23.2125 -1.11211 4.02519 0
M  V30 286 N 23.6496 -1.47581 0.552962 0
M  V30 287 C 24.8746 -2.07378 0.0300593 0
M  V30 288 C 25.2996 -1.40355 -1.25229 0
M  V30 289 O 24.6576 -0.477099 -1.7491 0
M  V30 290 C 24.7056 -3.60274 -0.153231 0
M  V30 291 O 23.8096 -3.94041 -1.21678 0
M  V30 292 H 23.1506 -0.662158 0.0494182 0
M  V30 293 H 25.6806 -1.89662 0.767434 0
M  V30 294 H 25.6906 -4.0633 -0.368761 0
M  V30 295 H 24.3656 -4.08455 0.783397 0
M  V30 296 H 22.9426 -3.59735 -0.982079 0
M  V30 297 N 25.1277 -0.289203 -1.54924 0
M  V30 298 C 26.0777 0.606939 -2.19773 0
M  V30 299 C 27.0617 1.10783 -1.16687 0
M  V30 300 O 28.2537 1.05057 -1.4245 0
M  V30 301 C 25.3827 1.78398 -2.93307 0
M  V30 302 C 24.4687 1.29961 -4.03697 0
M  V30 303 N 24.8597 0.532377 -5.0299 0
M  V30 304 C 23.1577 1.58136 -4.17024 0
M  V30 305 C 23.8587 0.275912 -5.81045 0
M  V30 306 N 22.8347 0.852365 -5.36876 0
M  V30 307 H 26.6367 0.0130779 -2.93897 0
M  V30 308 H 24.1507 -0.09341 -1.62131 0
M  V30 309 H 26.1477 2.43741 -3.38225 0
M  V30 310 H 24.8077 2.38166 -2.20697 0
M  V30 311 H 25.8187 0.17838 -5.17593 0
M  V30 312 H 22.4957 2.18738 -3.55612 0
M  V30 313 H 23.8857 -0.339502 -6.71042 0
M  V30 314 N 26.6058 1.57591 -0.0167156 0
M  V30 315 C 27.8518 1.91567 0.665582 0
M  V30 316 C 28.1848 0.892298 1.72487 0
M  V30 317 O 27.4598 -0.0867127 1.94307 0
M  V30 318 C 27.7428 3.36069 1.29342 0
M  V30 319 C 27.5958 4.49135 0.244541 0
M  V30 320 C 28.9148 3.803 2.21495 0
M  V30 321 H 26.0338 0.69666 0.240488 0
M  V30 322 H 28.6758 1.89866 -0.0714356 0
M  V30 323 H 26.8258 3.3765 1.92158 0
M  V30 324 H 28.4978 4.59689 -0.385228 0
M  V30 325 H 26.7408 4.3165 -0.431379 0
M  V30 326 H 27.4118 5.47242 0.723207 0
M  V30 327 H 29.8878 3.80377 1.68678 0
M  V30 328 H 28.7638 4.82127 2.62382 0
M  V30 329 H 29.0248 3.15104 3.101 0
M  V30 330 N 28.0839 -0.256276 1.55502 0
M  V30 331 C 29.3319 -0.983672 1.76545 0
M  V30 332 C 29.6529 -1.86206 0.578982 0
M  V30 333 O 28.9229 -1.91656 -0.405577 0
M  V30 334 H 27.5029 -0.366191 0.651086 0
M  V30 335 H 30.1649 -0.276479 1.92929 0
M  V30 336 H 29.2609 -1.61087 2.67315 0
M  V30 337 N 29.562 -1.4872 -0.521534 0
M  V30 338 C 30.525 -1.63379 -1.60748 0
M  V30 339 C 31.525 -0.50661 -1.52611 0
M  V30 340 O 32.715 -0.772601 -1.5613 0
M  V30 341 C 29.847 -1.61192 -3.00383 0
M  V30 342 H 31.04 -2.60217 -1.49087 0
M  V30 343 H 28.593 -1.37444 -0.744235 0
M  V30 344 H 29.328 -0.65863 -3.17541 0
M  V30 345 H 29.113 -2.43032 -3.07698 0
M  V30 346 H 30.603 -1.7466 -3.7932 0
M  V30 347 N 31.0401 0.771051 -1.3745 0
M  V30 348 C 32.0031 1.86598 -1.33093 0
M  V30 349 C 33.0031 1.59076 -0.234845 0
M  V30 350 O 34.1931 1.67145 -0.490732 0
M  V30 351 C 31.3251 3.23747 -1.06773 0
M  V30 352 H 32.5181 1.91873 -2.30488 0
M  V30 353 H 30.0711 0.970876 -1.2249 0
M  V30 354 H 30.8061 3.24148 -0.099129 0
M  V30 355 H 30.5911 3.45115 -1.86112 0
M  V30 356 H 32.0811 4.03824 -1.06377 0
M  V30 357 N 32.5182 1.22032 0.997298 0
M  V30 358 C 33.7642 1.04376 1.73878 0
M  V30 359 C 34.0972 -0.420716 1.89588 0
M  V30 360 O 33.3722 -1.31202 1.43583 0
M  V30 361 C 33.6552 1.75047 3.14691 0
M  V30 362 C 33.5082 3.29062 3.06656 0
M  V30 363 C 34.8272 1.49928 4.13775 0
M  V30 364 H 31.9462 0.380578 0.631133 0
M  V30 365 H 34.5882 1.50312 1.16217 0
M  V30 366 H 32.7382 1.35996 3.63919 0
M  V30 367 H 34.4102 3.7753 2.65083 0
M  V30 368 H 32.6532 3.58967 2.43568 0
M  V30 369 H 33.3242 3.73683 4.06282 0
M  V30 370 H 35.8002 1.83842 3.73285 0
M  V30 371 H 34.6762 2.01878 5.10428 0
M  V30 372 H 34.9372 0.430929 4.39995 0
M  V30 373 N 33.9963 -1.19345 1.0293 0
M  V30 374 C 35.2733 -1.84811 0.640642 0
M  V30 375 C 35.6533 -1.91855 -0.88062 0
M  V30 376 O 35.0013 -1.43587 -1.7775 0
M  V30 377 C 35.2113 -3.23755 1.30321 0
M  V30 378 C 36.5593 -3.99912 1.42673 0
M  V30 379 O 37.5833 -3.33155 1.26041 0
M  V30 380 O 36.4423 -5.19494 1.6967 0
M  V30 381 H 33.5363 -0.796443 0.222726 0
M  V30 382 H 36.0823 -1.26831 1.12748 0
M  V30 383 H 34.8543 -3.13466 2.34211 0
M  V30 384 H 34.4773 -3.89381 0.804261 0
M  V30 385 N 35.4744 -0.807222 -1.35358 0
M  V30 386 C 36.4044 -0.232509 -2.3234 0
M  V30 387 C 37.3854 0.642386 -1.57504 0
M  V30 388 O 38.5704 0.572526 -1.85569 0
M  V30 389 C 35.7004 0.619238 -3.41735 0
M  V30 390 C 34.6544 -0.157215 -4.27711 0
M  V30 391 C 33.9804 0.816273 -5.28433 0
M  V30 392 C 35.2804 -1.35656 -5.04376 0
M  V30 393 H 36.9744 -1.04276 -2.80654 0
M  V30 394 H 34.5204 -0.50288 -1.34934 0
M  V30 395 H 36.4734 1.03137 -4.08584 0
M  V30 396 H 35.1974 1.46239 -2.92031 0
M  V30 397 H 33.8564 -0.550525 -3.62443 0
M  V30 398 H 33.5044 1.65494 -4.74996 0
M  V30 399 H 33.2044 0.301067 -5.86828 0
M  V30 400 H 34.7284 1.22659 -5.98153 0
M  V30 401 H 36.1424 -1.01927 -5.64166 0
M  V30 402 H 34.5394 -1.8063 -5.7227 0
M  V30 403 H 35.6094 -2.14288 -4.34981 0
M  V30 404 N 36.9525 1.47285 -0.560781 0
M  V30 405 C 38.1805 2.06855 -0.0430262 0
M  V30 406 C 38.5955 1.41291 1.25229 0
M  V30 407 O 37.9525 0.510648 1.7521 0
M  V30 408 C 38.0035 3.61178 0.152518 0
M  V30 409 O 37.7245 4.24285 -1.0915 0
M  V30 410 C 39.2255 4.37624 0.707145 0
M  V30 411 H 36.4455 0.669319 -0.0474652 0
M  V30 412 H 38.9895 1.89237 -0.77521 0
M  V30 413 H 37.1445 3.78298 0.834843 0
M  V30 414 H 37.5585 5.16868 -0.891482 0
M  V30 415 H 39.0325 5.46271 0.793244 0
M  V30 416 H 39.5095 4.04152 1.71923 0
M  V30 417 H 40.1155 4.25257 0.0604027 0
M  V30 418 N 38.4306 0.297415 1.54768 0
M  V30 419 C 39.3606 -0.573494 2.26348 0
M  V30 420 C 40.3416 -1.14085 1.26169 0
M  V30 421 O 41.5266 -1.17086 1.54934 0
M  V30 422 C 38.6566 -1.74716 3.00153 0
M  V30 423 C 37.6106 -1.31032 4.07449 0
M  V30 424 C 36.9366 -2.56887 4.68949 0
M  V30 425 C 38.2366 -0.444183 5.20408 0
M  V30 426 H 39.9306 0.0235131 2.99391 0
M  V30 427 H 37.4766 0.0127488 1.43994 0
M  V30 428 H 39.4296 -2.3625 3.48947 0
M  V30 429 H 38.1536 -2.37035 2.24682 0
M  V30 430 H 36.8126 -0.718066 3.59499 0
M  V30 431 H 36.4606 -3.17512 3.90122 0
M  V30 432 H 36.1606 -2.2836 5.41411 0
M  V30 433 H 37.6846 -3.19229 5.20505 0
M  V30 434 H 39.0986 -0.9651 5.65118 0
M  V30 435 H 37.4956 -0.252846 5.99567 0
M  V30 436 H 38.5656 0.531609 4.81977 0
M  V30 437 N 39.9087 -1.5758 0.0250728 0
M  V30 438 C 40.8387 -2.13007 -0.956575 0
M  V30 439 C 41.8197 -1.0452 -1.342 0
M  V30 440 O 43.0047 -1.32332 -1.42133 0
M  V30 441 C 40.1347 -2.65386 -2.24026 0
M  V30 442 C 39.0887 -3.78623 -1.99571 0
M  V30 443 C 38.4147 -4.17414 -3.3417 0
M  V30 444 C 39.7147 -5.04867 -1.33814 0
M  V30 445 H 41.4087 -2.9528 -0.494991 0
M  V30 446 H 38.9547 -1.42042 -0.236651 0
M  V30 447 H 40.9077 -3.02794 -2.93076 0
M  V30 448 H 39.6317 -1.80268 -2.72343 0
M  V30 449 H 38.2907 -3.41646 -1.32941 0
M  V30 450 H 37.9387 -3.29284 -3.80238 0
M  V30 451 H 37.6387 -4.93719 -3.18615 0
M  V30 452 H 39.1627 -4.57402 -4.04495 0
M  V30 453 H 40.5767 -5.39888 -1.92857 0
M  V30 454 H 38.9737 -5.86144 -1.28669 0
M  V30 455 H 40.0437 -4.83904 -0.310561 0
M  V30 456 N 41.3868 0.248026 -1.55636 0
M  V30 457 C 42.3498 1.29044 -1.89421 0
M  V30 458 C 43.3498 1.41134 -0.770581 0
M  V30 459 O 44.5398 1.39854 -1.03858 0
M  V30 460 C 41.6718 2.66831 -2.12165 0
M  V30 461 H 42.8648 1.00305 -2.82629 0
M  V30 462 H 40.4178 0.487265 -1.48511 0
M  V30 463 H 41.1528 3.00711 -1.21422 0
M  V30 464 H 40.9378 2.59438 -2.93997 0
M  V30 465 H 42.4278 3.42103 -2.3949 0
M  V30 466 N 42.8649 1.48995 0.513639 0
M  V30 467 C 43.8129 1.65199 1.63744 0
M  V30 468 C 44.8069 0.51809 1.61283 0
M  V30 469 O 46.0129 0.697335 1.65943 0
M  V30 470 H 42.3879 0.52069 0.542574 0
M  V30 471 H 44.3589 2.59552 1.47226 0
M  V30 472 C 43.1079 1.72409 3.01945 0
M  V30 473 H 42.4309 2.59029 3.04539 0
M  V30 474 H 43.8709 1.87785 3.80148 0
M  V30 475 C 42.3299 0.46618 3.33659 0
M  V30 476 O 42.8599 -0.413744 3.99564 0
M  V30 477 N 41.0659 0.332931 2.88687 0
M  V30 478 H 40.6129 1.04996 2.35231 0
M  V30 479 H 40.5709 -0.507665 3.10274 0
M  V30 480 N 44.343 -0.763751 1.37857 0
M  V30 481 C 45.273 -1.89103 1.36975 0
M  V30 482 C 46.254 -1.68439 0.237152 0
M  V30 483 O 47.439 -1.8918 0.438713 0
M  V30 484 C 44.569 -3.26496 1.18395 0
M  V30 485 C 43.523 -3.61741 2.28751 0
M  V30 486 C 42.849 -4.97762 1.95286 0
M  V30 487 C 44.149 -3.67665 3.70972 0
M  V30 488 H 45.843 -1.90099 2.31307 0
M  V30 489 H 43.389 -0.91319 1.11341 0
M  V30 490 H 45.342 -4.05003 1.16406 0
M  V30 491 H 44.066 -3.25955 0.205215 0
M  V30 492 H 42.725 -2.85547 2.29909 0
M  V30 493 H 42.373 -4.93769 0.959221 0
M  V30 494 H 42.073 -5.22313 2.69189 0
M  V30 495 H 43.597 -5.7866 1.94898 0
M  V30 496 H 45.011 -4.36307 3.719 0
M  V30 497 H 43.408 -4.03718 4.43995 0
M  V30 498 H 44.478 -2.68134 4.0402 0
M  V30 499 N 45.8211 -1.22559 -0.990812 0
M  V30 500 C 47.2371 -0.985996 -1.255 0
M  V30 501 C 47.4371 0.319173 -1.98956 0
M  V30 502 O 46.4931 1.04127 -2.3003 0
M  V30 503 C 47.8061 -2.18607 -2.06474 0
M  V30 504 C 49.3541 -2.22985 -2.19651 0
M  V30 505 C 49.8291 -3.4255 -3.04012 0
M  V30 506 N 51.3201 -3.42725 -3.11599 0
M  V30 507 C 52.0551 -4.31892 -3.7717 0
M  V30 508 N 51.5511 -5.31279 -4.44651 0
M  V30 509 N 53.3441 -4.19662 -3.73952 0
M  V30 510 H 45.4951 -2.06469 -0.49841 0
M  V30 511 H 47.7581 -0.904853 -0.282747 0
M  V30 512 H 47.4641 -3.13267 -1.59865 0
M  V30 513 H 47.3381 -2.18838 -3.07229 0
M  V30 514 H 49.7251 -1.28871 -2.65474 0
M  V30 515 H 49.8061 -2.26791 -1.18319 0
M  V30 516 H 49.4501 -4.36965 -2.58889 0
M  V30 517 H 49.3801 -3.35984 -4.0549 0
M  V30 518 H 51.8711 -2.70807 -2.63575 0
M  V30 519 H 52.1841 -5.95593 -4.92431 0
M  V30 520 H 50.5291 -5.3519 -4.43392 0
M  V30 521 H 53.7201 -3.41268 -3.20396 0
M  V30 522 H 53.8931 -4.89358 -4.24774 0
M  V30 523 N 47.2992 1.18797 -1.03562 0
M  V30 524 C 48.2292 2.24472 -0.643019 0
M  V30 525 C 49.2102 1.66433 0.351283 0
M  V30 526 O 50.3952 1.92803 0.232505 0
M  V30 527 C 47.5252 3.473 4.24935e-05 0
M  V30 528 C 46.4792 4.18055 -0.917257 0
M  V30 529 C 45.8052 5.34519 -0.138941 0
M  V30 530 C 47.1052 4.72109 -2.23407 0
M  V30 531 H 48.7992 2.57566 -1.52643 0
M  V30 532 H 46.3452 1.23806 -0.735394 0
M  V30 533 H 48.2982 4.20426 0.286383 0
M  V30 534 H 47.0222 3.13424 0.918299 0
M  V30 535 H 45.6812 3.46821 -1.1879 0
M  V30 536 H 45.3292 4.96891 0.781562 0
M  V30 537 H 45.0292 5.82794 -0.750005 0
M  V30 538 H 46.5532 6.10438 0.1405 0
M  V30 539 H 47.9672 5.36955 -2.00879 0
M  V30 540 H 46.3642 5.30897 -2.79765 0
M  V30 541 H 47.4342 3.89807 -2.88407 0
M  V30 542 N 48.7773 0.814389 1.34928 0
M  V30 543 C 50.0053 0.411136 2.02774 0
M  V30 544 C 50.4203 -0.980316 1.61354 0
M  V30 545 O 49.7773 -1.63299 0.814847 0
M  V30 546 C 49.8283 0.493865 3.58111 0
M  V30 547 O 49.5493 1.83047 3.98027 0
M  V30 548 C 51.0503 0.0844174 4.4322 0
M  V30 549 H 48.2703 0.166037 0.650133 0
M  V30 550 H 50.8143 1.10018 1.72384 0
M  V30 551 H 48.9693 -0.147006 3.87121 0
M  V30 552 H 49.3833 1.79872 4.92693 0
M  V30 553 H 50.8573 0.193404 5.51661 0
M  V30 554 H 51.3343 -0.97113 4.28329 0
M  V30 555 H 51.9403 0.69875 4.19521 0
M  V30 556 N 50.2554 -1.46986 0.568584 0
M  V30 557 C 51.5324 -1.95592 -0.0174074 0
M  V30 558 C 51.9124 -1.51124 -1.47393 0
M  V30 559 O 51.2604 -0.755329 -2.15655 0
M  V30 560 C 51.4704 -3.48719 0.139913 0
M  V30 561 C 52.8184 -4.246 0.000426376 0
M  V30 562 O 53.8424 -3.56135 0.0680316 0
M  V30 563 O 52.7014 -5.46302 -0.146988 0
M  V30 564 H 49.7954 -0.82498 -0.0577599 0
M  V30 565 H 52.3414 -1.57335 0.635909 0
M  V30 566 H 51.1134 -3.73927 1.15301 0
M  V30 567 H 50.7364 -3.93771 -0.550491 0
M  V30 568 N 51.7335 -0.305618 -1.54608 0
M  V30 569 C 53.1445 0.186098 -1.8577 0
M  V30 570 C 53.4955 1.53058 -1.22751 0
M  V30 571 O 52.6205 2.09888 -0.526893 0
M  V30 572 C 53.2155 0.344449 -3.37044 0
M  V30 573 C 51.7745 0.780384 -3.68221 0
M  V30 574 C 50.9215 -0.108554 -2.77087 0
M  V30 575 H 53.8725 -0.526485 -1.49712 0
M  V30 576 H 53.8935 1.17828 -3.61796 0
M  V30 577 H 53.4055 -0.634235 -3.82883 0
M  V30 578 H 51.5065 1.76945 -3.27904 0
M  V30 579 H 51.6195 0.596572 -4.75371 0
M  V30 580 H 49.9835 0.412931 -2.5133 0
M  V30 581 H 50.7665 -1.08368 -3.25747 0
M  V30 582 N 53.2116 1.57565 -0.0334293 0
M  V30 583 C 54.1436 2.0739 0.975811 0
M  V30 584 C 55.1566 0.998166 1.2861 0
M  V30 585 O 56.3456 1.27426 1.25 0
M  V30 586 C 53.4456 2.4871 2.30209 0
M  V30 587 C 52.6186 3.79413 2.17634 0
M  V30 588 C 51.6776 4.07237 3.33233 0
M  V30 589 O 50.7036 4.77425 3.09927 0
M  V30 590 N 51.9056 3.5775 4.5716 0
M  V30 591 H 54.6706 2.94598 0.55066 0
M  V30 592 H 52.2316 1.61173 0.15323 0
M  V30 593 H 54.2236 2.64413 3.06378 0
M  V30 594 H 52.7936 1.66845 2.64351 0
M  V30 595 H 52.0136 3.73465 1.26165 0
M  V30 596 H 53.3016 4.65038 2.0644 0
M  V30 597 H 52.6996 3.00976 4.78989 0
M  V30 598 H 51.2566 3.78724 5.30482 0
M  V30 599 N 54.6897 -0.239769 1.55765 0
M  V30 600 C 56.1057 -0.588624 1.48349 0
M  V30 601 C 56.3057 -1.88005 0.72502 0
M  V30 602 O 55.3617 -2.51186 0.257269 0
M  V30 603 C 56.6747 -0.68474 2.928 0
M  V30 604 C 58.2227 -0.77659 3.03213 0
M  V30 605 C 58.6977 -0.904207 4.48986 0
M  V30 606 N 60.1887 -0.968896 4.52953 0
M  V30 607 C 60.9237 -1.08703 5.63002 0
M  V30 608 N 60.4197 -1.17026 6.82845 0
M  V30 609 N 62.2127 -1.12074 5.50814 0
M  V30 610 H 54.3637 0.607911 2.03515 0
M  V30 611 H 56.6267 0.21083 0.924259 0
M  V30 612 H 56.3327 0.194284 3.51163 0
M  V30 613 H 56.2067 -1.55435 3.43686 0
M  V30 614 H 58.5937 -1.64606 2.44926 0
M  V30 615 H 58.6747 0.118315 2.55526 0
M  V30 616 H 58.3187 -0.0392633 5.07885 0
M  V30 617 H 58.2487 -1.81426 4.9436 0
M  V30 618 H 60.7397 -0.915633 3.6664 0
M  V30 619 H 61.0527 -1.25966 7.62465 0
M  V30 620 H 59.3977 -1.13971 6.85591 0
M  V30 621 H 62.5887 -1.05226 4.5612 0
M  V30 622 H 62.7617 -1.20936 6.36615 0
M  V30 623 N 56.1678 -1.49265 -0.50573 0
M  V30 624 C 57.4148 -1.58513 -1.26015 0
M  V30 625 C 57.7428 -0.26972 -1.92621 0
M  V30 626 O 56.9978 0.741997 -1.81088 0
M  V30 627 C 57.2968 -2.69008 -2.35308 0
M  V30 628 C 56.9628 -4.10662 -1.86192 0
M  V30 629 C 55.6248 -4.49212 -1.72516 0
M  V30 630 C 57.9768 -4.99336 -1.49375 0
M  V30 631 C 55.3048 -5.74214 -1.20394 0
M  V30 632 C 57.6568 -6.24852 -0.987072 0
M  V30 633 C 56.3208 -6.62236 -0.836669 0
M  V30 634 H 55.5908 -0.580041 -0.461122 0
M  V30 635 H 58.2378 -1.83078 -0.561665 0
M  V30 636 H 56.5428 -2.38396 -3.10926 0
M  V30 637 H 58.2398 -2.73373 -2.93374 0
M  V30 638 H 54.8298 -3.8023 -1.97795 0
M  V30 639 H 59.0138 -4.70212 -1.5879 0
M  V30 640 H 54.2698 -6.01883 -1.07458 0
M  V30 641 H 58.4438 -6.92944 -0.692983 0
M  V30 642 H 56.0708 -7.58979 -0.430607 0
M  V30 643 N 57.6459 0.756429 -1.3826 0
M  V30 644 C 58.8929 1.51547 -1.34312 0
M  V30 645 C 59.2209 1.94382 0.0677144 0
M  V30 646 O 58.4759 1.65514 1.04421 0
M  V30 647 C 58.7749 2.78313 -2.24224 0
M  V30 648 C 58.4409 2.54455 -3.72241 0
M  V30 649 C 57.1029 2.47657 -4.12576 0
M  V30 650 C 59.4549 2.3354 -4.65949 0
M  V30 651 C 56.7829 2.17956 -5.44713 0
M  V30 652 C 59.1349 2.05359 -5.9834 0
M  V30 653 C 57.7989 1.97016 -6.37762 0
M  V30 654 H 57.0689 0.55455 -0.491482 0
M  V30 655 H 59.7159 0.870039 -1.70595 0
M  V30 656 H 58.0209 3.47492 -1.80987 0
M  V30 657 H 59.7179 3.36259 -2.18474 0
M  V30 658 H 56.3079 2.60616 -3.40261 0
M  V30 659 H 60.4919 2.37772 -4.35635 0
M  V30 660 H 55.7479 2.10003 -5.74203 0
M  V30 661 H 59.9219 1.88179 -6.70494 0
M  V30 662 H 57.5489 1.73766 -7.40074 0
M  V30 663 N 59.124 1.23083 0.984299 0
M  V30 664 C 60.054 1.03292 2.09411 0
M  V30 665 C 61.035 -0.048923 1.7003 0
M  V30 666 O 62.22 0.114967 1.93859 0
M  V30 667 C 59.35 0.619155 3.41736 0
M  V30 668 C 58.304 1.64791 3.95004 0
M  V30 669 C 57.63 1.0897 5.23478 0
M  V30 670 C 58.93 3.03999 4.24714 0
M  V30 671 H 60.624 1.96119 2.26225 0
M  V30 672 H 58.17 0.944344 1.08711 0
M  V30 673 H 60.123 0.467777 4.18796 0
M  V30 674 H 58.847 -0.344786 3.24775 0
M  V30 675 H 57.506 1.78721 3.20085 0
M  V30 676 H 57.154 0.11686 5.02864 0
M  V30 677 H 56.854 1.77704 5.60085 0
M  V30 678 H 58.378 0.950093 6.03163 0
M  V30 679 H 59.792 2.93393 4.92538 0
M  V30 680 H 58.189 3.69936 4.72512 0
M  V30 681 H 59.259 3.53285 3.32142 0
M  V30 682 N 60.6021 -1.18246 1.0419 0
M  V30 683 C 61.8301 -1.92195 0.766072 0
M  V30 684 C 62.2451 -1.76247 -0.676933 0
M  V30 685 O 61.6021 -1.09293 -1.46155 0
M  V30 686 C 61.6531 -3.43568 1.12442 0
M  V30 687 O 61.3741 -3.59015 2.51078 0
M  V30 688 C 62.8751 -4.34613 0.873275 0
M  V30 689 H 60.0951 -0.610114 0.279288 0
M  V30 690 H 62.6391 -1.50007 1.38989 0
M  V30 691 H 60.7941 -3.8354 0.545542 0
M  V30 692 H 61.2081 -4.5273 2.64831 0
M  V30 693 H 62.6821 -5.39374 1.17385 0
M  V30 694 H 63.1591 -4.38781 -0.191909 0
M  V30 695 H 63.7651 -4.00341 1.43551 0
M  V30 696 N 62.0802 -0.821533 -1.34494 0
M  V30 697 C 63.3202 -0.414785 -2.00147 0
M  V30 698 C 63.6842 1.00299 -1.6372 0
M  V30 699 O 64.8852 1.51255 -2.22206 0
M  V30 700 C 63.1562 -0.609403 -3.52166 0
M  V30 701 S 64.7152 -0.295297 -4.37805 0
M  V30 702 H 61.5332 -0.15679 -0.693497 0
M  V30 703 H 64.1352 -1.06705 -1.63812 0
M  V30 704 H 62.8392 -1.64096 -3.76166 0
M  V30 705 H 62.3702 0.0576414 -3.93358 0
M  V30 706 H 64.3852 0.891531 -4.88125 0
M  V30 707 N 63.5583 1.46682 -0.576371 0
M  V30 708 C 64.8043 2.02712 -0.0596221 0
M  V30 709 C 65.1373 1.44765 1.29448 0
M  V30 710 O 64.4123 0.610355 1.84675 0
M  V30 711 C 64.6953 3.60098 0.0129503 0
M  V30 712 C 64.5483 4.28441 -1.3696 0
M  V30 713 C 65.8673 4.34224 0.71678 0
M  V30 714 H 62.9863 0.736637 -0.0231407 0
M  V30 715 H 65.6283 1.74898 -0.742351 0
M  V30 716 H 63.7783 3.83926 0.594378 0
M  V30 717 H 65.4503 4.15896 -1.9957 0
M  V30 718 H 63.6933 3.8805 -1.93907 0
M  V30 719 H 64.3643 5.3716 -1.27135 0
M  V30 720 H 66.8403 4.15503 0.222908 0
M  V30 721 H 65.7163 5.43936 0.73657 0
M  V30 722 H 65.9773 4.04823 1.77682 0
M  V30 723 N 65.0364 0.313813 1.54444 0
M  V30 724 C 66.2614 -0.296681 2.05267 0
M  V30 725 C 66.6864 -1.45757 1.18897 0
M  V30 726 O 66.0444 -1.80239 0.195886 0
M  V30 727 C 66.0924 -0.71831 3.53373 0
M  V30 728 O 65.1964 -1.82175 3.69981 0
M  V30 729 H 64.5374 -0.0554061 0.661684 0
M  V30 730 H 67.0674 0.459387 1.99376 0
M  V30 731 H 67.0774 -1.00364 3.95463 0
M  V30 732 H 65.7524 0.130821 4.15694 0
M  V30 733 H 64.3294 -1.53598 3.39797 0
M  V30 734 N 66.5145 -1.57545 0.0417849 0
M  V30 735 C 67.7625 -1.91937 -0.632829 0
M  V30 736 C 68.0835 -0.919978 -1.71934 0
M  V30 737 O 67.3535 0.0366064 -1.95866 0
M  V30 738 H 65.9335 -0.708493 -0.236742 0
M  V30 739 H 68.5955 -1.9468 0.0925745 0
M  V30 740 H 67.6915 -2.92912 -1.07746 0
M  V30 741 N 67.9926 0.231505 -1.5589 0
M  V30 742 C 68.9026 1.308 -1.94752 0
M  V30 743 C 69.9186 1.51826 -0.849989 0
M  V30 744 O 71.0946 1.6515 -1.15271 0
M  V30 745 C 68.1596 2.63968 -2.24771 0
M  V30 746 C 67.2206 2.51331 -3.48039 0
M  V30 747 C 66.4536 3.78148 -3.76616 0
M  V30 748 O 66.6766 4.80722 -3.07022 0
M  V30 749 O 65.6106 3.75857 -4.70123 0
M  V30 750 H 69.4366 1.0083 -2.86474 0
M  V30 751 H 67.0216 0.433547 -1.42971 0
M  V30 752 H 68.9036 3.42633 -2.45318 0
M  V30 753 H 67.5786 2.9364 -1.36225 0
M  V30 754 H 66.4856 1.709 -3.32782 0
M  V30 755 H 67.8186 2.26601 -4.36936 0
M  V30 756 N 69.4707 1.49531 0.497807 0
M  V30 757 C 70.4337 1.65916 1.58128 0
M  V30 758 C 71.4337 0.530825 1.51786 0
M  V30 759 O 72.6237 0.797342 1.54881 0
M  V30 760 C 69.7557 1.65951 2.9778 0
M  V30 761 H 70.9487 2.62556 1.44929 0
M  V30 762 H 68.5017 1.38611 0.722275 0
M  V30 763 H 69.2367 0.709065 3.16453 0
M  V30 764 H 69.0217 2.47897 3.03792 0
M  V30 765 H 70.5117 1.80673 3.76493 0
M  V30 766 N 70.9488 -0.749086 1.3866 0
M  V30 767 C 72.1968 -1.50535 1.34847 0
M  V30 768 C 72.5178 -1.94909 -0.0595016 0
M  V30 769 O 71.7878 -1.67973 -1.00806 0
M  V30 770 H 70.3678 -0.558395 0.49619 0
M  V30 771 H 73.0298 -0.890165 1.73384 0
M  V30 772 H 72.1258 -2.39413 2.00219 0
M  V30 773 N 72.4269 -1.23603 -0.977757 0
M  V30 774 C 73.3899 -1.02069 -2.05218 0
M  V30 775 C 74.3899 0.0184305 -1.60789 0
M  V30 776 O 75.5799 -0.221569 -1.72785 0
M  V30 777 C 72.7119 -0.544926 -3.36517 0
M  V30 778 H 73.9049 -1.9742 -2.25755 0
M  V30 779 H 71.4579 -1.05684 -1.15155 0
M  V30 780 H 72.1929 0.412241 -3.21669 0
M  V30 781 H 71.9779 -1.2948 -3.70105 0
M  V30 782 H 73.4679 -0.414985 -4.15533 0
M  V30 783 N 73.905 1.17692 -1.04816 0
M  V30 784 C 75.153 1.87488 -0.754497 0
M  V30 785 C 75.474 1.81205 0.720407 0
M  V30 786 O 74.744 1.23544 1.52032 0
M  V30 787 H 73.324 0.694101 -0.276102 0
M  V30 788 H 75.986 1.42793 -1.32651 0
M  V30 789 H 75.082 2.93328 -1.06606 0
M  V30 790 N 75.3831 0.828654 1.34056 0
M  V30 791 C 76.7991 0.515135 1.51058 0
M  V30 792 C 76.9991 -0.959581 1.77184 0
M  V30 793 O 76.0551 -1.74382 1.82612 0
M  V30 794 C 77.3681 1.37963 2.67183 0
M  V30 795 C 78.9161 1.37735 2.81066 0
M  V30 796 C 79.3911 2.22645 4.00241 0
M  V30 797 N 80.8821 2.203 4.07458 0
M  V30 798 C 81.6171 2.82744 4.98842 0
M  V30 799 N 81.1131 3.54201 5.9541 0
M  V30 800 N 82.9061 2.72268 4.91759 0
M  V30 801 H 75.0571 1.78343 1.15358 0
M  V30 802 H 77.3201 0.760304 0.566252 0
M  V30 803 H 77.0261 2.42714 2.54525 0
M  V30 804 H 76.9001 1.0484 3.62338 0
M  V30 805 H 79.2871 0.337593 2.93163 0
M  V30 806 H 79.3681 1.74859 1.86703 0
M  V30 807 H 79.0121 3.26674 3.88905 0
M  V30 808 H 78.9421 1.82869 4.93829 0
M  V30 809 H 81.4331 1.68327 3.38341 0
M  V30 810 H 81.7461 3.9908 6.61782 0
M  V30 811 H 80.0911 3.58308 5.95517 0
M  V30 812 H 83.2821 2.16014 4.15278 0
M  V30 813 H 83.4551 3.21219 5.62781 0
M  V30 814 N 76.8612 -1.46375 0.584142 0
M  V30 815 C 78.1092 -2.01978 0.0701287 0
M  V30 816 C 78.4302 -1.4579 -1.295 0
M  V30 817 O 77.7002 -0.64314 -1.85042 0
M  V30 818 H 76.2802 -0.746648 0.0229345 0
M  V30 819 H 78.9422 -1.79461 0.760245 0
M  V30 820 H 78.0382 -3.121 0.0022064 0
M  V30 821 N 78.3393 -0.321999 -1.54275 0
M  V30 822 C 79.5643 0.285791 -2.05422 0
M  V30 823 C 79.9893 1.45124 -1.19669 0
M  V30 824 O 79.3473 1.80132 -0.205441 0
M  V30 825 C 79.3953 0.69956 -3.53749 0
M  V30 826 O 78.4993 1.8021 -3.70942 0
M  V30 827 H 77.8403 0.0518962 -0.661969 0
M  V30 828 H 80.3703 -0.469954 -1.9913 0
M  V30 829 H 80.3803 0.982649 -3.9599 0
M  V30 830 H 79.0553 -0.152864 -4.15619 0
M  V30 831 H 77.6323 1.51794 -3.40607 0
M  V30 832 N 79.8174 1.5752 -0.0501392 0
M  V30 833 C 81.0944 1.83996 0.663685 0
M  V30 834 C 81.4744 0.938339 1.89099 0
M  V30 835 O 80.8224 -0.00087759 2.285 0
M  V30 836 C 81.0324 3.33702 1.02196 0
M  V30 837 C 82.3804 4.00691 1.40469 0
M  V30 838 O 83.4044 3.38321 1.11433 0
M  V30 839 O 82.2634 5.10658 1.94654 0
M  V30 840 H 79.3574 0.759385 0.32751 0
M  V30 841 H 81.9034 1.69514 -0.0794238 0
M  V30 842 H 80.6754 3.91015 0.149364 0
M  V30 843 H 80.2984 3.53368 1.82255 0
M  V30 844 N 81.2955 -0.223234 1.56011 0
M  V30 845 C 82.2585 -1.26014 1.9145 0
M  V30 846 C 83.2585 -1.3989 0.792937 0
M  V30 847 O 84.4485 -1.38184 1.0607 0
M  V30 848 C 81.5805 -2.63422 2.16383 0
M  V30 849 H 82.7735 -0.95796 2.84189 0
M  V30 850 H 80.3265 -0.463576 1.49267 0
M  V30 851 H 81.0615 -2.98741 1.2619 0
M  V30 852 H 80.8465 -2.54728 2.98088 0
M  V30 853 H 82.3365 -3.38249 2.44903 0
M  V30 854 N 82.7736 -1.49793 -0.48987 0
M  V30 855 C 84.0196 -1.61049 -1.24236 0
M  V30 856 C 84.3746 -0.298412 -1.90072 0
M  V30 857 O 83.6676 0.702262 -1.78266 0
M  V30 858 C 83.8616 -2.71488 -2.32441 0
M  V30 859 C 83.6906 -4.13308 -1.77218 0
M  V30 860 C 82.4606 -4.79955 -1.58023 0
M  V30 861 C 84.6586 -4.98176 -1.27772 0
M  V30 862 N 82.6406 -6.06052 -0.978465 0
M  V30 863 C 84.0116 -6.14843 -0.798 0
M  V30 864 C 86.0666 -4.84091 -1.16449 0
M  V30 865 C 84.7696 -7.18975 -0.216245 0
M  V30 866 C 86.7956 -5.88382 -0.596698 0
M  V30 867 C 86.1576 -7.04285 -0.127262 0
M  V30 868 H 82.2566 -0.643611 -0.444172 0
M  V30 869 H 84.8406 -1.86842 -0.54754 0
M  V30 870 H 83.0116 -2.47449 -2.99372 0
M  V30 871 H 84.7436 -2.72205 -2.99477 0
M  V30 872 H 81.4986 -4.36936 -1.82712 0
M  V30 873 H 81.9226 -6.73407 -0.696534 0
M  V30 874 H 86.5646 -3.94786 -1.5134 0
M  V30 875 H 84.2826 -8.0797 0.144903 0
M  V30 876 H 87.8686 -5.79545 -0.511716 0
M  V30 877 H 86.7486 -7.83606 0.30523 0
M  V30 878 N 84.2517 0.741722 -1.39055 0
M  V30 879 C 85.4997 1.49818 -1.35643 0
M  V30 880 C 85.8207 1.94938 0.0491642 0
M  V30 881 O 85.0907 1.68505 0.999141 0
M  V30 882 H 83.6707 0.555755 -0.499144 0
M  V30 883 H 86.3327 0.880957 -1.73854 0
M  V30 884 H 85.4287 2.38348 -2.01486 0
M  V30 885 N 85.7298 1.2412 0.971189 0
M  V30 886 C 87.1408 1.07236 1.52831 0
M  V30 887 C 87.4918 -0.357352 1.92918 0
M  V30 888 O 86.6168 -1.24528 1.76979 0
M  V30 889 C 87.2118 1.94043 2.77728 0
M  V30 890 C 85.7708 1.81394 3.29808 0
M  V30 891 C 84.9178 1.89189 2.02738 0
M  V30 892 H 87.8688 1.37648 0.789864 0
M  V30 893 H 87.8898 1.47066 3.5093 0
M  V30 894 H 87.4018 2.98093 2.4852 0
M  V30 895 H 85.5028 0.801634 3.63874 0
M  V30 896 H 85.6158 2.65294 3.98944 0
M  V30 897 H 83.9798 1.32877 2.17292 0
M  V30 898 H 84.7628 2.94812 1.759 0
M  V30 899 N 87.2079 -1.17134 1.05439 0
M  V30 900 C 88.6189 -1.69084 0.791676 0
M  V30 901 C 88.9699 -1.83822 -0.685839 0
M  V30 902 O 88.0949 -1.52757 -1.53278 0
M  V30 903 C 88.6899 -3.07119 1.4305 0
M  V30 904 C 87.2489 -3.56225 1.21577 0
M  V30 905 C 86.3959 -2.32421 1.51247 0
M  V30 906 H 89.3469 -1.01617 1.219 0
M  V30 907 H 89.3679 -3.71087 0.84112 0
M  V30 908 H 88.8799 -2.9636 2.50584 0
M  V30 909 H 86.9809 -3.72257 0.159787 0
M  V30 910 H 87.0939 -4.38837 1.92246 0
M  V30 911 H 85.4579 -2.3701 0.932653 0
M  V30 912 H 86.2409 -2.24268 2.5992 0
M  V30 913 N 88.686 -0.835752 -1.33615 0
M  V30 914 C 89.616 -0.281739 -2.31794 0
M  V30 915 C 90.597 0.608833 -1.58831 0
M  V30 916 O 91.782 0.533035 -1.86741 0
M  V30 917 C 88.912 0.546612 -3.42971 0
M  V30 918 C 87.866 -0.247904 -4.27281 0
M  V30 919 C 87.192 0.704001 -5.30045 0
M  V30 920 C 88.492 -1.46324 -5.01385 0
M  V30 921 H 90.186 -1.10206 -2.78379 0
M  V30 922 H 87.732 -0.531388 -1.33837 0
M  V30 923 H 89.685 0.944467 -4.1068 0
M  V30 924 H 88.409 1.40011 -2.95067 0
M  V30 925 H 87.068 -0.627281 -3.61194 0
M  V30 926 H 86.716 1.55381 -4.78399 0
M  V30 927 H 86.416 0.176524 -5.87335 0
M  V30 928 H 87.94 1.09944 -6.0062 0
M  V30 929 H 89.354 -1.13871 -5.61877 0
M  V30 930 H 87.751 -1.92728 -5.6831 0
M  V30 931 H 88.821 -2.23467 -4.30338 0
M  V30 932 N 90.1641 1.46063 -0.591896 0
M  V30 933 C 91.0941 2.33172 0.123673 0
M  V30 934 C 92.0751 1.45897 0.87453 0
M  V30 935 O 93.2601 1.74698 0.848181 0
M  V30 936 C 90.3901 3.28336 1.13194 0
M  V30 937 C 89.3441 4.25124 0.495324 0
M  V30 938 C 88.6701 5.09863 1.61071 0
M  V30 939 C 89.9701 5.19143 -0.573425 0
M  V30 940 H 91.6641 2.93252 -0.603646 0
M  V30 941 H 89.2101 1.41014 -0.291741 0
M  V30 942 H 91.1631 3.88137 1.64097 0
M  V30 943 H 89.8871 2.66383 1.88965 0
M  V30 944 H 88.5461 3.66599 0.00729452 0
M  V30 945 H 88.1941 4.44288 2.35832 0
M  V30 946 H 87.8941 5.75417 1.19035 0
M  V30 947 H 89.4181 5.72529 2.12233 0
M  V30 948 H 90.8321 5.73106 -0.1491 0
M  V30 949 H 89.2291 5.93089 -0.914636 0
M  V30 950 H 90.2991 4.62519 -1.45617 0
M  V30 951 N 91.6422 0.330177 1.54103 0
M  V30 952 C 92.5722 -0.525353 2.27513 0
M  V30 953 C 93.5532 -1.11383 1.2856 0
M  V30 954 O 94.7382 -1.13773 1.57383 0
M  V30 955 C 91.8682 -1.6831 3.03791 0
M  V30 956 C 90.8222 -1.2236 4.10137 0
M  V30 957 C 90.1482 -2.46882 4.74293 0
M  V30 958 C 91.4482 -0.333697 5.21233 0
M  V30 959 H 93.1422 0.087013 2.99274 0
M  V30 960 H 90.6882 0.0432893 1.43935 0
M  V30 961 H 92.6412 -2.28795 3.5388 0
M  V30 962 H 91.3652 -2.32216 2.29659 0
M  V30 963 H 90.0242 -0.64165 3.60941 0
M  V30 964 H 89.6722 -3.09165 3.96769 0
M  V30 965 H 89.3722 -2.16825 5.46133 0
M  V30 966 H 90.8962 -3.08117 5.27159 0
M  V30 967 H 92.3102 -0.845013 5.67038 0
M  V30 968 H 90.7072 -0.125612 5.99969 0
M  V30 969 H 91.7772 0.633724 4.80741 0
M  V30 970 N 93.1203 -1.57491 0.0584922 0
M  V30 971 C 94.0303 -2.15448 -0.928414 0
M  V30 972 C 95.0463 -1.11416 -1.3365 0
M  V30 973 O 96.2223 -1.4362 -1.41193 0
M  V30 974 C 93.2873 -2.69393 -2.18239 0
M  V30 975 C 92.3483 -3.88249 -1.83196 0
M  V30 976 C 91.5813 -4.39613 -3.02616 0
M  V30 977 O 91.8043 -3.90023 -4.16219 0
M  V30 978 O 90.7383 -5.31111 -2.83204 0
M  V30 979 H 94.5643 -3.00112 -0.465483 0
M  V30 980 H 92.1493 -1.48499 -0.163826 0
M  V30 981 H 94.0313 -3.04026 -2.91798 0
M  V30 982 H 92.7063 -1.87796 -2.63656 0
M  V30 983 H 91.6133 -3.58492 -1.06931 0
M  V30 984 H 92.9463 -4.71098 -1.42573 0
M  V30 985 N 94.5984 0.214957 -1.56127 0
M  V30 986 C 95.5454 1.26642 -1.92952 0
M  V30 987 C 96.5154 1.46244 -0.78753 0
M  V30 988 O 97.7004 1.59704 -1.04399 0
M  V30 989 C 94.8404 2.6104 -2.25726 0
M  V30 990 C 93.9534 2.49183 -3.52891 0
M  V30 991 C 93.0884 3.76149 -3.7508 0
M  V30 992 C 92.1274 3.59041 -4.95738 0
M  V30 993 N 91.2644 4.77972 -5.14283 0
M  V30 994 H 96.1044 0.945384 -2.82607 0
M  V30 995 H 93.6414 0.455489 -1.3987 0
M  V30 996 H 95.5994 3.39313 -2.42739 0
M  V30 997 H 94.2294 2.91227 -1.39236 0
M  V30 998 H 93.2814 1.6231 -3.44034 0
M  V30 999 H 94.5934 2.32466 -4.41318 0
M  V30 1000 H 93.7474 4.62865 -3.92226 0
M  V30 1001 H 92.4864 3.95799 -2.84947 0
M  V30 1002 H 91.4914 2.7071 -4.78535 0
M  V30 1003 H 92.7164 3.40856 -5.87362 0
M  V30 1004 H 90.6624 4.97923 -4.27093 0
M  V30 1005 H 90.5794 4.64006 -5.96853 0
M  V30 1006 H 91.8474 5.66096 -5.35869 0
M  V30 1007 N 96.0765 1.50051 0.48192 0
M  V30 1008 C 97.3535 1.51009 1.2432 0
M  V30 1009 C 97.7335 0.248587 2.09631 0
M  V30 1010 O 97.0815 -0.768409 2.15192 0
M  V30 1011 C 97.2915 2.79981 2.08355 0
M  V30 1012 C 98.6395 3.3022 2.66908 0
M  V30 1013 O 99.6635 2.81228 2.18607 0
M  V30 1014 O 98.5225 4.15595 3.54884 0
M  V30 1015 H 95.6165 0.605239 0.563573 0
M  V30 1016 H 98.1625 1.62332 0.494627 0
M  V30 1017 H 96.9345 3.63275 1.45419 0
M  V30 1018 H 96.5575 2.7161 2.90368 0
M  V30 1019 N 97.5546 -0.734337 1.39446 0
M  V30 1020 C 98.8316 -1.48579 1.27215 0
M  V30 1021 C 99.2116 -2.1077 -0.117968 0
M  V30 1022 O 98.5596 -1.98646 -1.12924 0
M  V30 1023 C 98.7696 -2.53667 2.39696 0
M  V30 1024 C 100.118 -3.20031 2.79044 0
M  V30 1025 O 101.142 -2.6398 2.39151 0
M  V30 1026 O 100.001 -4.21455 3.47905 0
M  V30 1027 H 97.0946 -0.659816 0.49857 0
M  V30 1028 H 99.6406 -0.768106 1.51322 0
M  V30 1029 H 98.4126 -2.06096 3.32626 0
M  V30 1030 H 98.0356 -3.32994 2.17258 0
M  V30 1031 N 99.0327 -1.24633 -0.964593 0
M  V30 1032 C 100.449 -1.01239 -1.2338 0
M  V30 1033 C 100.649 0.2769 -1.99588 0
M  V30 1034 O 99.7047 0.992241 -2.32187 0
M  V30 1035 C 101.018 -2.22937 -2.01791 0
M  V30 1036 C 102.566 -2.27594 -2.14872 0
M  V30 1037 C 103.041 -3.48921 -2.96678 0
M  V30 1038 N 104.532 -3.49257 -3.04259 0
M  V30 1039 C 105.267 -4.39795 -3.67924 0
M  V30 1040 N 104.763 -5.40591 -4.33281 0
M  V30 1041 N 106.556 -4.275 -3.64966 0
M  V30 1042 H 98.7067 -2.0748 -0.454502 0
M  V30 1043 H 100.97 -0.910647 -0.26349 0
M  V30 1044 H 100.676 -3.16587 -1.53184 0
M  V30 1045 H 100.55 -2.25306 -3.02518 0
M  V30 1046 H 102.937 -1.34473 -2.6268 0
M  V30 1047 H 103.018 -2.2925 -1.13482 0
M  V30 1048 H 102.662 -4.42359 -2.49562 0
M  V30 1049 H 102.592 -3.4451 -3.98272 0
M  V30 1050 H 105.083 -2.76337 -2.57771 0
M  V30 1051 H 105.396 -6.05904 -4.79687 0
M  V30 1052 H 103.741 -5.44475 -4.3194 0
M  V30 1053 H 106.932 -3.47987 -3.13086 0
M  V30 1054 H 107.105 -4.98258 -4.14298 0
M  V30 1055 N 100.511 1.16574 -1.06058 0
M  V30 1056 C 101.76 1.86385 -0.770944 0
M  V30 1057 C 102.073 1.82448 0.705129 0
M  V30 1058 O 103.279 2.47815 1.10905 0
M  V30 1059 C 101.735 3.34466 -1.32893 0
M  V30 1060 C 101.343 3.46883 -2.83507 0
M  V30 1061 C 103.087 4.09548 -1.11672 0
M  V30 1062 C 100.994 4.89036 -3.32562 0
M  V30 1063 H 99.9238 0.698181 -0.284709 0
M  V30 1064 H 102.575 1.31583 -1.27899 0
M  V30 1065 H 100.957 3.88859 -0.748662 0
M  V30 1066 H 102.131 3.02663 -3.47465 0
M  V30 1067 H 100.446 2.85232 -3.03368 0
M  V30 1068 H 103.043 5.14434 -1.45814 0
M  V30 1069 H 103.386 4.16264 -0.0549535 0
M  V30 1070 H 103.919 3.61387 -1.66265 0
M  V30 1071 H 100.658 4.87499 -4.38207 0
M  V30 1072 H 100.178 5.3389 -2.73351 0
M  V30 1073 H 101.857 5.57843 -3.2775 0
M  V30 1074 N 101.989 0.842826 1.3317 0
M  V30 1075 C 103.235 0.441099 1.97945 0
M  V30 1076 C 103.568 -0.998024 1.66593 0
M  V30 1077 O 102.843 -1.69839 0.947898 0
M  V30 1078 C 103.126 0.666841 3.53872 0
M  V30 1079 C 102.979 2.15352 3.94897 0
M  V30 1080 C 104.298 0.115544 4.39948 0
M  V30 1081 H 101.417 0.161739 0.719034 0
M  V30 1082 H 104.059 1.05907 1.57746 0
M  V30 1083 H 102.209 0.140828 3.88245 0
M  V30 1084 H 103.881 2.7447 3.70761 0
M  V30 1085 H 102.124 2.63653 3.44484 0
M  V30 1086 H 102.795 2.26221 5.03516 0
M  V30 1087 H 105.271 0.565213 4.12243 0
M  V30 1088 H 104.147 0.303152 5.48062 0
M  V30 1089 H 104.408 -0.980935 4.3108 0
M  V30 1090 N 103.467 -1.45747 0.599634 0
M  V30 1091 C 104.883 -1.57424 0.26264 0
M  V30 1092 C 105.083 -1.59222 -1.23493 0
M  V30 1093 O 104.139 -1.51825 -2.01756 0
M  V30 1094 C 105.452 -2.86061 0.926795 0
M  V30 1095 C 107 -2.99722 0.901967 0
M  V30 1096 C 107.475 -4.31119 1.54598 0
M  V30 1097 N 108.966 -4.37858 1.5111 0
M  V30 1098 C 109.701 -5.3818 1.97863 0
M  V30 1099 N 109.197 -6.45083 2.52666 0
M  V30 1100 N 110.99 -5.29487 1.88679 0
M  V30 1101 H 103.141 -1.42823 1.57211 0
M  V30 1102 H 105.404 -0.68235 0.658105 0
M  V30 1103 H 105.11 -2.90605 1.98095 0
M  V30 1104 H 104.984 -3.74563 0.445238 0
M  V30 1105 H 107.371 -2.9475 -0.143617 0
M  V30 1106 H 107.452 -2.12652 1.42171 0
M  V30 1107 H 107.096 -4.36849 2.59085 0
M  V30 1108 H 107.026 -5.16992 1.00132 0
M  V30 1109 H 109.517 -3.61209 1.11068 0
M  V30 1110 H 109.83 -7.17869 2.86155 0
M  V30 1111 H 108.175 -6.45856 2.56701 0
M  V30 1112 H 111.366 -4.44877 1.4561 0
M  V30 1113 H 111.539 -6.07524 2.25429 0
M  V30 1114 N 104.945 -0.338344 -1.53925 0
M  V30 1115 C 106.173 0.261298 -2.05243 0
M  V30 1116 C 106.588 1.44625 -1.21363 0
M  V30 1117 O 105.945 1.80811 -0.247736 0
M  V30 1118 C 105.996 0.681412 -3.5502 0
M  V30 1119 O 105.717 -0.456414 -4.35716 0
M  V30 1120 C 107.218 1.34232 -4.22489 0
M  V30 1121 H 104.438 0.0513685 -0.669031 0
M  V30 1122 H 106.982 -0.488822 -1.98572 0
M  V30 1123 H 105.137 1.38148 -3.61931 0
M  V30 1124 H 105.551 -0.122564 -5.24357 0
M  V30 1125 H 107.025 1.58708 -5.28693 0
M  V30 1126 H 107.502 2.29426 -3.74514 0
M  V30 1127 H 108.108 0.684424 -4.19757 0
M  V30 1128 N 106.423 1.57458 -0.0668435 0
M  V30 1129 C 107.834 1.80776 0.466558 0
M  V30 1130 C 108.185 0.980361 1.69951 0
M  V30 1131 O 107.31 0.201441 2.1546 0
M  V30 1132 C 107.905 3.27881 0.85321 0
M  V30 1133 C 106.464 3.52062 1.3315 0
M  V30 1134 C 105.611 2.75513 0.314264 0
M  V30 1135 H 108.562 1.5598 -0.292588 0
M  V30 1136 H 108.583 3.39659 1.715 0
M  V30 1137 H 108.095 3.88075 -0.0443439 0
M  V30 1138 H 106.196 2.97167 2.24772 0
M  V30 1139 H 106.309 4.60762 1.31285 0
M  V30 1140 H 104.673 2.42123 0.790492 0
M  V30 1141 H 105.456 3.38442 -0.575477 0
M  V30 1142 N 107.901 -0.206675 1.56239 0
M  V30 1143 C 109.312 -0.772383 1.69974 0
M  V30 1144 C 109.663 -1.84353 0.671436 0
M  V30 1145 O 108.788 -2.15695 -0.174491 0
M  V30 1146 C 109.383 -1.40779 3.08167 0
M  V30 1147 C 107.942 -1.92072 3.23706 0
M  V30 1148 C 107.089 -0.786347 2.65917 0
M  V30 1149 H 110.04 0.0182223 1.5869 0
M  V30 1150 H 110.061 -2.27696 3.04852 0
M  V30 1151 H 109.573 -0.627958 3.82986 0
M  V30 1152 H 107.674 -2.7281 2.53782 0
M  V30 1153 H 107.787 -2.09046 4.31087 0
M  V30 1154 H 106.151 -1.1976 2.24788 0
M  V30 1155 H 106.934 -0.0189416 3.43295 0
M  V30 1156 N 109.379 -1.50304 -0.473955 0
M  V30 1157 C 110.627 -1.60832 -1.22382 0
M  V30 1158 C 110.948 -0.30939 -1.9253 0
M  V30 1159 O 110.218 0.67296 -1.83978 0
M  V30 1160 H 108.798 -0.592652 -0.454723 0
M  V30 1161 H 111.46 -1.87068 -0.546968 0
M  V30 1162 H 110.556 -2.41803 -1.97327 0
M  V30 1163 N 110.857 0.726932 -1.39834 0
M  V30 1164 C 112.268 1.30558 -1.3346 0
M  V30 1165 C 112.619 1.962 -0.00273003 0
M  V30 1166 O 111.744 1.96826 0.899371 0
M  V30 1167 C 112.339 2.37404 -2.41713 0
M  V30 1168 C 110.898 2.90921 -2.38835 0
M  V30 1169 C 110.045 1.64578 -2.2318 0
M  V30 1170 H 112.996 0.523862 -1.49804 0
M  V30 1171 H 113.017 3.17984 -2.08966 0
M  V30 1172 H 112.529 1.89599 -3.38635 0
M  V30 1173 H 110.63 3.42985 -1.45575 0
M  V30 1174 H 110.743 3.43487 -3.33997 0
M  V30 1175 H 109.107 1.89219 -1.70494 0
M  V30 1176 H 109.89 1.18814 -3.22084 0
M  V30 1177 N 112.336 1.25143 0.95797 0
M  V30 1178 C 113.747 1.08851 1.51685 0
M  V30 1179 C 114.098 -0.33687 1.93286 0
M  V30 1180 O 113.223 -1.22644 1.7829 0
M  V30 1181 C 113.818 1.96978 2.75654 0
M  V30 1182 C 112.377 1.84881 3.27866 0
M  V30 1183 C 111.524 1.91329 2.0072 0
M  V30 1184 H 114.475 1.38478 0.77522 0
M  V30 1185 H 114.496 1.5078 3.4935 0
M  V30 1186 H 114.008 3.00712 2.45345 0
M  V30 1187 H 112.109 0.840182 3.63004 0
M  V30 1188 H 112.222 2.6951 3.96107 0
M  V30 1189 H 110.586 1.35174 2.15871 0
M  V30 1190 H 111.369 2.96661 1.72764 0
M  V30 1191 N 113.814 -1.1601 1.06675 0
M  V30 1192 C 114.744 -2.22688 0.702307 0
M  V30 1193 C 115.725 -1.67306 -0.307032 0
M  V30 1194 O 116.91 -1.93352 -0.181305 0
M  V30 1195 C 114.04 -3.47178 0.092038 0
M  V30 1196 C 112.994 -4.15477 1.02777 0
M  V30 1197 C 112.32 -5.33963 0.28061 0
M  V30 1198 C 113.62 -4.66019 2.35846 0
M  V30 1199 H 115.314 -2.53429 1.59419 0
M  V30 1200 H 112.86 -1.21813 0.767961 0
M  V30 1201 H 114.813 -4.21037 -0.174814 0
M  V30 1202 H 113.537 -3.15749 -0.834877 0
M  V30 1203 H 112.196 -3.43549 1.27944 0
M  V30 1204 H 111.844 -4.98788 -0.649545 0
M  V30 1205 H 111.544 -5.806 0.904258 0
M  V30 1206 H 113.068 -6.10596 0.021396 0
M  V30 1207 H 114.482 -5.3144 2.15045 0
M  V30 1208 H 112.879 -5.23293 2.93743 0
M  V30 1209 H 113.949 -3.82023 2.98641 0
M  V30 1210 N 115.292 -0.849877 -1.32721 0
M  V30 1211 C 116.708 -0.539102 -1.50219 0
M  V30 1212 C 116.908 0.931271 -1.78689 0
M  V30 1213 O 115.964 1.71455 -1.85363 0
M  V30 1214 C 117.277 -1.42196 -2.64954 0
M  V30 1215 C 118.825 -1.42189 -2.78839 0
M  V30 1216 C 119.3 -2.28985 -3.96648 0
M  V30 1217 N 120.791 -2.26754 -4.03902 0
M  V30 1218 C 121.526 -2.90644 -4.94281 0
M  V30 1219 N 121.022 -3.63629 -5.897 0
M  V30 1220 N 122.815 -2.80057 -4.87365 0
M  V30 1221 H 114.966 -1.80156 -1.12506 0
M  V30 1222 H 117.229 -0.769217 -0.554085 0
M  V30 1223 H 116.935 -2.46733 -2.50631 0
M  V30 1224 H 116.809 -1.10591 -3.60624 0
M  V30 1225 H 119.196 -0.38419 -2.92588 0
M  V30 1226 H 119.277 -1.77807 -1.83898 0
M  V30 1227 H 118.921 -3.32819 -3.83658 0
M  V30 1228 H 118.851 -1.90702 -4.90857 0
M  V30 1229 H 121.342 -1.73688 -3.3562 0
M  V30 1230 H 121.655 -4.09558 -6.55349 0
M  V30 1231 H 120 -3.67737 -5.89741 0
M  V30 1232 H 123.191 -2.22593 -4.11789 0
M  V30 1233 H 123.364 -3.30132 -5.57599 0
M  V30 1234 N 116.77 1.45427 -0.607355 0
M  V30 1235 C 117.7 2.3329 0.0989352 0
M  V30 1236 C 118.681 1.46816 0.859007 0
M  V30 1237 O 119.866 1.75588 0.829604 0
M  V30 1238 C 116.996 3.29518 1.09705 0
M  V30 1239 C 115.95 4.25626 0.450206 0
M  V30 1240 C 115.276 5.11542 1.55655 0
M  V30 1241 C 116.576 5.18505 -0.628455 0
M  V30 1242 H 118.27 2.92595 -0.634716 0
M  V30 1243 H 115.816 1.40696 -0.306681 0
M  V30 1244 H 117.769 3.89855 1.59971 0
M  V30 1245 H 116.493 2.68372 1.86129 0
M  V30 1246 H 115.152 3.66586 -0.0315886 0
M  V30 1247 H 114.8 4.46765 2.31107 0
M  V30 1248 H 114.5 5.76647 1.12925 0
M  V30 1249 H 116.024 5.74748 2.06148 0
M  V30 1250 H 117.438 5.72916 -0.209877 0
M  V30 1251 H 115.835 5.92085 -0.977489 0
M  V30 1252 H 116.905 4.60948 -1.50514 0
M  V30 1253 N 118.248 0.346503 1.53744 0
M  V30 1254 C 119.211 -0.496439 2.23759 0
M  V30 1255 C 120.211 -1.0252 1.2388 0
M  V30 1256 O 121.401 -0.913974 1.48297 0
M  V30 1257 C 118.533 -1.69187 2.95954 0
M  V30 1258 H 119.726 0.115952 2.99676 0
M  V30 1259 H 117.279 0.0978939 1.55993 0
M  V30 1260 H 118.014 -2.34288 2.24231 0
M  V30 1261 H 117.799 -1.31989 3.69217 0
M  V30 1262 H 119.289 -2.28969 3.49232 0
M  V30 1263 N 119.726 -1.57421 0.075193 0
M  V30 1264 C 121.142 -1.57099 -0.281444 0
M  V30 1265 C 121.342 -1.08486 -1.69803 0
M  V30 1266 O 120.398 -0.752279 -2.41033 0
M  V30 1267 C 121.711 -3.00571 -0.0880041 0
M  V30 1268 C 123.259 -3.12605 -0.157281 0
M  V30 1269 C 123.734 -4.57999 0.0079207 0
M  V30 1270 N 125.225 -4.63176 -0.0475725 0
M  V30 1271 C 125.96 -5.73373 0.0557876 0
M  V30 1272 N 125.456 -6.92473 0.21286 0
M  V30 1273 N 127.249 -5.621 -0.00152098 0
M  V30 1274 H 119.4 -1.87335 1.00098 0
M  V30 1275 H 121.663 -0.86377 0.390646 0
M  V30 1276 H 121.369 -3.40262 0.889629 0
M  V30 1277 H 121.243 -3.67754 -0.838875 0
M  V30 1278 H 123.63 -2.72798 -1.1254 0
M  V30 1279 H 123.711 -2.48053 0.62475 0
M  V30 1280 H 123.355 -4.98496 0.972824 0
M  V30 1281 H 123.285 -5.20586 -0.793556 0
M  V30 1282 H 125.776 -3.7753 -0.167244 0
M  V30 1283 H 126.089 -7.72279 0.283781 0
M  V30 1284 H 124.434 -6.94556 0.248267 0
M  V30 1285 H 127.625 -4.67938 -0.122958 0
M  V30 1286 H 127.798 -6.47948 0.0824844 0
M  V30 1287 N 121.204 0.198386 -1.56346 0
M  V30 1288 C 122.152 1.26538 -1.95169 0
M  V30 1289 C 123.146 1.47295 -0.836685 0
M  V30 1290 O 124.352 1.48195 -1.02167 0
M  V30 1291 H 120.727 0.424744 -0.620561 0
M  V30 1292 H 122.698 0.910904 -2.84157 0
M  V30 1293 C 121.447 2.6035 -2.30463 0
M  V30 1294 H 120.77 2.45192 -3.15786 0
M  V30 1295 H 122.21 3.33762 -2.61494 0
M  V30 1296 C 120.669 3.17096 -1.13806 0
M  V30 1297 O 121.199 3.99588 -0.41135 0
M  V30 1298 N 119.405 2.75795 -0.915736 0
M  V30 1299 H 118.952 2.08816 -1.50843 0
M  V30 1300 H 118.91 3.14101 -0.136979 0
M  V30 1301 N 122.682 1.50554 0.465978 0
M  V30 1302 C 123.93 1.61479 1.21528 0
M  V30 1303 C 124.251 0.319596 1.92363 0
M  V30 1304 O 123.521 -0.663194 1.84333 0
M  V30 1305 H 122.101 0.595055 0.451573 0
M  V30 1306 H 124.763 1.87355 0.53704 0
M  V30 1307 H 123.859 2.42846 1.96042 0
M  V30 1308 N 124.16 -0.719506 1.40217 0
M  V30 1309 C 125.385 -1.51371 1.4178 0
M  V30 1310 C 125.81 -1.88091 0.0182355 0
M  V30 1311 O 125.168 -1.52997 -0.972707 0
M  V30 1312 C 125.216 -2.768 2.31115 0
M  V30 1313 O 124.32 -3.73349 1.7517 0
M  V30 1314 H 123.661 -0.456529 0.482159 0
M  V30 1315 H 126.191 -0.88644 1.844 0
M  V30 1316 H 126.201 -3.25371 2.46167 0
M  V30 1317 H 124.876 -2.49407 3.3282 0
M  V30 1318 H 123.453 -3.32179 1.69444 0
M  V30 1319 N 125.638 -1.25649 -0.95132 0
M  V30 1320 C 126.588 -1.03004 -2.03406 0
M  V30 1321 C 127.572 0.034187 -1.60864 0
M  V30 1322 O 128.764 -0.181549 -1.76066 0
M  V30 1323 C 125.893 -0.654255 -3.37008 0
M  V30 1324 C 124.979 -1.75542 -3.86065 0
M  V30 1325 N 125.37 -2.99113 -4.07879 0
M  V30 1326 C 123.668 -1.63669 -4.14884 0
M  V30 1327 C 124.369 -3.70611 -4.48356 0
M  V30 1328 N 123.345 -2.98247 -4.54477 0
M  V30 1329 H 127.147 -1.96813 -2.1827 0
M  V30 1330 H 124.661 -1.16017 -1.13639 0
M  V30 1331 H 126.658 -0.473206 -4.14206 0
M  V30 1332 H 125.318 0.276468 -3.23521 0
M  V30 1333 H 126.329 -3.35124 -3.94857 0
M  V30 1334 H 123.006 -0.775161 -4.10241 0
M  V30 1335 H 124.396 -4.76695 -4.73509 0
M  V30 1336 N 127.117 1.15442 -1.07289 0
M  V30 1337 C 128.049 2.19773 -0.650585 0
M  V30 1338 C 129.062 1.60076 0.296572 0
M  V30 1339 O 130.251 1.78293 0.0859905 0
M  V30 1340 C 127.351 3.38838 0.0650398 0
M  V30 1341 C 126.524 4.2808 -0.898141 0
M  V30 1342 C 125.583 5.2574 -0.219926 0
M  V30 1343 O 124.609 5.62654 -0.860773 0
M  V30 1344 N 125.811 5.71205 1.03466 0
M  V30 1345 H 128.576 2.56622 -1.54808 0
M  V30 1346 H 126.137 1.30551 -0.957494 0
M  V30 1347 H 128.129 4.01222 0.529415 0
M  V30 1348 H 126.699 3.00409 0.864466 0
M  V30 1349 H 125.919 3.62804 -1.54165 0
M  V30 1350 H 127.207 4.84577 -1.5512 0
M  V30 1351 H 126.605 5.43325 1.57526 0
M  V30 1352 H 125.162 6.35633 1.44272 0
M  V30 1353 N 128.595 0.856903 1.32268 0
M  V30 1354 C 129.841 0.462069 1.97466 0
M  V30 1355 C 130.174 -0.980298 1.67642 0
M  V30 1356 O 129.449 -1.68824 0.965858 0
M  V30 1357 C 129.732 0.704336 3.53145 0
M  V30 1358 C 129.585 2.19529 3.9259 0
M  V30 1359 C 130.904 0.1622 4.39801 0
M  V30 1360 H 128.023 0.169357 0.717278 0
M  V30 1361 H 130.665 1.07574 1.56614 0
M  V30 1362 H 128.815 0.181999 3.88073 0
M  V30 1363 H 130.487 2.78387 3.67829 0
M  V30 1364 H 128.73 2.67292 3.41668 0
M  V30 1365 H 129.401 2.31549 5.01088 0
M  V30 1366 H 131.877 0.608905 4.11621 0
M  V30 1367 H 130.753 0.361265 5.4771 0
M  V30 1368 H 131.014 -0.935158 4.32096 0
M  V30 1369 N 130.073 -1.45103 0.615059 0
M  V30 1370 C 131.301 -2.06553 0.11977 0
M  V30 1371 C 131.716 -1.45842 -1.19898 0
M  V30 1372 O 131.073 -0.575325 -1.73194 0
M  V30 1373 C 131.124 -3.61495 -0.018364 0
M  V30 1374 O 130.845 -4.19942 1.24822 0
M  V30 1375 C 132.346 -4.39947 -0.544237 0
M  V30 1376 H 129.566 -0.667096 0.0722739 0
M  V30 1377 H 132.11 -1.8623 0.84491 0
M  V30 1378 H 130.265 -3.81135 -0.693865 0
M  V30 1379 H 130.679 -5.13204 1.0827 0
M  V30 1380 H 132.153 -5.48838 -0.589953 0
M  V30 1381 H 132.63 -4.10255 -1.56805 0
M  V30 1382 H 133.236 -4.25188 0.0974703 0
M  V30 1383 N 131.551 -0.354651 -1.53558 0
M  V30 1384 C 132.481 0.489091 -2.2832 0
M  V30 1385 C 133.462 1.09324 -1.30316 0
M  V30 1386 O 134.647 1.11255 -1.59173 0
M  V30 1387 C 131.777 1.63456 -3.0643 0
M  V30 1388 C 130.731 1.1582 -4.12031 0
M  V30 1389 C 130.057 2.39305 -4.7816 0
M  V30 1390 C 131.357 0.250731 -5.21698 0
M  V30 1391 H 133.051 -0.134614 -2.99097 0
M  V30 1392 H 130.597 -0.0661826 -1.43848 0
M  V30 1393 H 132.55 2.23136 -3.57475 0
M  V30 1394 H 131.274 2.28533 -2.33325 0
M  V30 1395 H 129.933 0.584146 -3.61916 0
M  V30 1396 H 129.581 3.02814 -4.01637 0
M  V30 1397 H 129.281 2.08109 -5.49513 0
M  V30 1398 H 130.805 2.99691 -5.31994 0
M  V30 1399 H 132.219 0.754695 -5.68311 0
M  V30 1400 H 130.616 0.0301468 -6.00092 0
M  V30 1401 H 131.686 -0.710125 -4.79672 0
M  V30 1402 N 133.029 1.57378 -0.0835403 0
M  V30 1403 C 134.445 1.57246 0.273109 0
M  V30 1404 C 134.645 1.09385 1.69225 0
M  V30 1405 O 133.701 0.765051 2.40631 0
M  V30 1406 C 135.014 3.00614 0.0720628 0
M  V30 1407 C 136.562 3.12684 0.1407 0
M  V30 1408 C 137.037 4.57989 -0.0322094 0
M  V30 1409 N 138.528 4.63194 0.0230085 0
M  V30 1410 C 139.263 5.73335 -0.0861941 0
M  V30 1411 N 138.759 6.9235 -0.24958 0
M  V30 1412 N 140.552 5.62093 -0.0282886 0
M  V30 1413 H 132.703 1.86801 -1.0109 0
M  V30 1414 H 134.966 0.861687 -0.395222 0
M  V30 1415 H 134.672 3.39786 -0.907662 0
M  V30 1416 H 134.546 3.68193 0.81936 0
M  V30 1417 H 136.933 2.73391 1.11092 0
M  V30 1418 H 137.014 2.47719 -0.637896 0
M  V30 1419 H 136.658 4.97973 -0.999247 0
M  V30 1420 H 136.588 5.21 0.765937 0
M  V30 1421 H 139.079 3.77613 0.14722 0
M  V30 1422 H 139.392 7.72117 -0.324733 0
M  V30 1423 H 137.737 6.94415 -0.285097 0
M  V30 1424 H 140.928 4.67997 0.0981408 0
M  V30 1425 H 141.101 6.47895 -0.116845 0
M  V30 1426 N 134.507 -0.190092 1.56449 0
M  V30 1427 C 135.755 -0.907908 1.80559 0
M  V30 1428 C 136.076 -1.83583 0.657438 0
M  V30 1429 O 135.346 -1.93203 -0.323924 0
M  V30 1430 H 133.926 -0.338247 0.666032 0
M  V30 1431 H 136.588 -0.194403 1.93928 0
M  V30 1432 H 135.684 -1.49604 2.73907 0
M  V30 1433 N 135.985 -1.50799 -0.457987 0
M  V30 1434 C 137.232 -1.62442 -1.20908 0
M  V30 1435 C 137.56 -0.330865 -1.91665 0
M  V30 1436 O 136.815 0.68401 -1.83357 0
M  V30 1437 C 137.114 -2.76358 -2.2663 0
M  V30 1438 C 136.78 -4.16378 -1.73033 0
M  V30 1439 C 135.442 -4.54473 -1.58138 0
M  V30 1440 C 137.794 -5.03836 -1.33413 0
M  V30 1441 C 135.122 -5.77754 -1.02065 0
M  V30 1442 C 137.474 -6.27676 -0.78778 0
M  V30 1443 C 136.138 -6.64562 -0.625561 0
M  V30 1444 H 135.408 -0.594417 -0.442435 0
M  V30 1445 H 138.055 -1.84772 -0.503136 0
M  V30 1446 H 136.36 -2.48167 -3.03184 0
M  V30 1447 H 138.057 -2.82568 -2.84528 0
M  V30 1448 H 134.647 -3.86331 -1.85598 0
M  V30 1449 H 138.831 -4.75026 -1.4375 0
M  V30 1450 H 134.087 -6.04997 -0.882547 0
M  V30 1451 H 138.261 -6.94797 -0.472177 0
M  V30 1452 H 135.888 -7.59965 -0.188926 0
M  V30 1453 N 137.463 0.71206 -1.40597 0
M  V30 1454 C 138.688 1.50617 -1.42581 0
M  V30 1455 C 139.113 1.88079 -0.0282102 0
M  V30 1456 O 138.471 1.53511 0.964579 0
M  V30 1457 C 138.519 2.7557 -2.3258 0
M  V30 1458 O 137.623 3.72414 -1.77148 0
M  V30 1459 H 136.964 0.453966 -0.484573 0
M  V30 1460 H 139.494 0.876649 -1.84868 0
M  V30 1461 H 139.504 3.2406 -2.47889 0
M  V30 1462 H 138.179 2.47639 -3.34138 0
M  V30 1463 H 136.756 3.31276 -1.71204 0
M  V30 1464 N 138.941 1.26152 0.944643 0
M  V30 1465 C 139.888 1.07408 2.04285 0
M  V30 1466 C 140.858 -0.0198413 1.66088 0
M  V30 1467 O 142.043 0.139264 1.90291 0
M  V30 1468 C 139.183 0.70945 3.37729 0
M  V30 1469 C 138.296 1.87926 3.88983 0
M  V30 1470 C 137.431 1.45807 5.10797 0
M  V30 1471 C 136.47 2.5964 5.54305 0
M  V30 1472 N 135.607 2.18226 6.67324 0
M  V30 1473 H 140.447 2.01389 2.1965 0
M  V30 1474 H 137.984 1.00275 1.07626 0
M  V30 1475 H 139.942 0.478948 4.14442 0
M  V30 1476 H 138.572 -0.193389 3.2222 0
M  V30 1477 H 137.624 2.22279 3.08701 0
M  V30 1478 H 138.936 2.73377 4.17213 0
M  V30 1479 H 138.09 1.18781 5.94959 0
M  V30 1480 H 136.829 0.574414 4.84305 0
M  V30 1481 H 135.834 2.87399 4.68702 0
M  V30 1482 H 137.059 3.48599 5.828 0
M  V30 1483 H 135.005 1.3229 6.42523 0
M  V30 1484 H 134.922 2.97221 6.95123 0
M  V30 1485 H 136.19 1.94403 7.54869 0
M  V30 1486 N 140.419 -1.14872 1.07899 0
M  V30 1487 C 141.83 -1.67367 0.827363 0
M  V30 1488 C 142.181 -1.85236 -0.646693 0
M  V30 1489 O 141.306 -1.55974 -1.50004 0
M  V30 1490 C 141.901 -3.04016 1.49532 0
M  V30 1491 C 140.46 -3.53566 1.29106 0
M  V30 1492 C 139.607 -2.29161 1.56143 0
M  V30 1493 H 142.558 -0.990083 1.24028 0
M  V30 1494 H 142.579 -3.69219 0.919643 0
M  V30 1495 H 142.091 -2.90978 2.56814 0
M  V30 1496 H 140.192 -3.71835 0.238713 0
M  V30 1497 H 140.305 -4.34661 2.01511 0
M  V30 1498 H 138.669 -2.34978 0.982717 0
M  V30 1499 H 139.452 -2.18705 2.64619 0
M  V30 1500 N 141.898 -0.863906 -1.31812 0
M  V30 1501 C 143.123 -0.48527 -2.01643 0
M  V30 1502 C 143.548 0.913058 -1.64453 0
M  V30 1503 O 142.906 1.6014 -0.849985 0
M  V30 1504 C 142.954 -0.642625 -3.54828 0
M  V30 1505 O 142.058 0.320659 -4.11151 0
M  V30 1506 H 141.399 -0.193793 -0.635091 0
M  V30 1507 H 143.929 -1.16565 -1.68148 0
M  V30 1508 H 143.939 -0.533628 -4.04495 0
M  V30 1509 H 142.614 -1.66227 -3.81237 0
M  V30 1510 H 141.191 0.167126 -3.72525 0
M  V30 1511 N 143.376 1.44774 -0.622745 0
M  V30 1512 C 144.653 1.95522 -0.0551974 0
M  V30 1513 C 145.033 1.5649 1.41683 0
M  V30 1514 O 144.381 0.834848 2.12703 0
M  V30 1515 C 144.591 3.4796 -0.269242 0
M  V30 1516 C 145.939 4.24306 -0.158014 0
M  V30 1517 O 146.963 3.55637 -0.200162 0
M  V30 1518 O 145.822 5.46471 -0.0558693 0
M  V30 1519 H 142.916 0.826556 0.0271015 0
M  V30 1520 H 145.462 1.54866 -0.693864 0
M  V30 1521 H 144.234 3.6939 -1.29099 0
M  V30 1522 H 143.857 3.95543 0.403966 0
M  V30 1523 N 144.854 0.36279 1.53368 0
M  V30 1524 C 145.784 -0.476976 2.28576 0
M  V30 1525 C 146.765 -1.08631 1.30894 0
M  V30 1526 O 147.95 -1.10409 1.59761 0
M  V30 1527 C 145.08 -1.61828 3.07293 0
M  V30 1528 C 144.034 -1.13633 4.1264 0
M  V30 1529 C 143.36 -2.36766 4.79423 0
M  V30 1530 C 144.66 -0.223061 5.21823 0
M  V30 1531 H 146.354 0.150474 2.99022 0
M  V30 1532 H 143.9 0.0738103 1.43811 0
M  V30 1533 H 145.853 -2.21237 3.58653 0
M  V30 1534 H 144.577 -2.27292 2.34533 0
M  V30 1535 H 143.236 -0.564945 3.62221 0
M  V30 1536 H 142.884 -3.0068 4.03238 0
M  V30 1537 H 142.584 -2.05192 5.50609 0
M  V30 1538 H 144.108 -2.96865 5.33576 0
M  V30 1539 H 145.522 -0.724545 5.68703 0
M  V30 1540 H 143.919 0.001678 6.001 0
M  V30 1541 H 144.989 0.735553 4.79289 0
M  V30 1542 N 146.332 -1.57332 0.0918853 0
M  V30 1543 C 147.578 -1.94524 -0.573425 0
M  V30 1544 C 147.911 -0.973578 -1.68033 0
M  V30 1545 O 147.186 -0.00609226 -1.94499 0
M  V30 1546 C 147.469 -3.41858 -1.13161 0
M  V30 1547 C 147.322 -4.4979 -0.0299747 0
M  V30 1548 C 148.641 -3.90435 -2.03098 0
M  V30 1549 H 145.76 -0.70734 -0.206975 0
M  V30 1550 H 148.402 -1.89309 0.161942 0
M  V30 1551 H 146.552 -3.46433 -1.7583 0
M  V30 1552 H 148.224 -4.57327 0.604112 0
M  V30 1553 H 146.467 -4.291 0.636833 0
M  V30 1554 H 147.138 -5.50069 -0.461287 0
M  V30 1555 H 149.614 -3.87992 -1.50338 0
M  V30 1556 H 148.49 -4.94097 -2.39081 0
M  V30 1557 H 148.751 -3.29541 -2.94712 0
M  V30 1558 N 147.81 0.181792 -1.56548 0
M  V30 1559 C 149.058 0.89832 -1.81038 0
M  V30 1560 C 149.379 1.83232 -0.667164 0
M  V30 1561 O 148.649 1.93372 0.313673 0
M  V30 1562 H 147.229 0.33471 -0.667816 0
M  V30 1563 H 149.891 0.184116 -1.94028 0
M  V30 1564 H 148.987 1.4815 -2.74696 0
M  V30 1565 N 149.288 1.51039 0.449983 0
M  V30 1566 C 150.534 1.63322 1.20223 0
M  V30 1567 C 150.867 0.34241 1.91158 0
M  V30 1568 O 150.142 -0.657344 1.83055 0
M  V30 1569 C 150.425 2.82801 2.22925 0
M  V30 1570 C 150.278 4.21823 1.56157 0
M  V30 1571 C 151.597 2.97807 3.24035 0
M  V30 1572 H 148.716 0.594407 0.435718 0
M  V30 1573 H 151.358 1.83489 0.493136 0
M  V30 1574 H 149.508 2.65738 2.834 0
M  V30 1575 H 151.18 4.50526 0.991162 0
M  V30 1576 H 149.423 4.25105 0.864172 0
M  V30 1577 H 150.094 5.01391 2.30891 0
M  V30 1578 H 152.57 3.13497 2.73603 0
M  V30 1579 H 151.446 3.82992 3.93202 0
M  V30 1580 H 151.707 2.09328 3.89402 0
M  V30 1581 N 150.766 -0.704594 1.40972 0
M  V30 1582 C 152.013 -1.46458 1.39844 0
M  V30 1583 C 152.341 -1.94499 0.00447594 0
M  V30 1584 O 151.596 -1.69275 -0.982057 0
M  V30 1585 C 151.895 -2.698 2.34399 0
M  V30 1586 C 151.561 -2.40464 3.81429 0
M  V30 1587 C 150.223 -2.32174 4.21484 0
M  V30 1588 C 152.575 -2.16086 4.74296 0
M  V30 1589 C 149.903 -1.97589 5.52427 0
M  V30 1590 C 152.255 -1.83011 6.05549 0
M  V30 1591 C 150.919 -1.7321 6.44635 0
M  V30 1592 H 150.189 -0.535927 0.511725 0
M  V30 1593 H 152.836 -0.806124 1.73706 0
M  V30 1594 H 151.141 -3.40536 1.93759 0
M  V30 1595 H 152.838 -3.27919 2.30804 0
M  V30 1596 H 149.428 -2.47808 3.49699 0
M  V30 1597 H 153.612 -2.2144 4.4416 0
M  V30 1598 H 148.868 -1.88547 5.81601 0
M  V30 1599 H 153.042 -1.63164 6.77016 0
M  V30 1600 H 150.669 -1.46179 7.46013 0
M  V30 1601 N 152.244 -1.26651 -0.937939 0
M  V30 1602 C 153.469 -1.15279 -1.72411 0
M  V30 1603 C 153.894 0.287866 -1.85884 0
M  V30 1604 O 153.252 1.20855 -1.35143 0
M  V30 1605 C 153.3 -1.83028 -3.10698 0
M  V30 1606 O 152.404 -1.12128 -3.96864 0
M  V30 1607 H 151.745 -0.401504 -0.528858 0
M  V30 1608 H 154.275 -1.67531 -1.1745 0
M  V30 1609 H 154.285 -1.89981 -3.6107 0
M  V30 1610 H 152.96 -2.87833 -3.00208 0
M  V30 1611 H 151.537 -1.13173 -3.55312 0
M  V30 1612 N 153.722 1.14298 -1.08507 0
M  V30 1613 C 154.962 1.87016 -0.824894 0
M  V30 1614 C 155.326 1.81099 0.637735 0
M  V30 1615 O 156.527 2.48963 1.01345 0
M  V30 1616 C 154.798 3.31584 -1.33368 0
M  V30 1617 S 156.357 4.21903 -1.20596 0
M  V30 1618 H 153.175 0.645259 -0.2986 0
M  V30 1619 H 155.777 1.37822 -1.38656 0
M  V30 1620 H 154.481 3.33439 -2.39262 0
M  V30 1621 H 154.012 3.85836 -0.767734 0
M  V30 1622 H 156.027 4.95971 -0.150891 0
M  V30 1623 N 155.201 0.870884 1.31352 0
M  V30 1624 C 156.447 0.482987 1.96965 0
M  V30 1625 C 156.78 -0.962462 1.68672 0
M  V30 1626 O 156.055 -1.6779 0.98371 0
M  V30 1627 C 156.338 0.741752 3.52378 0
M  V30 1628 C 156.191 2.2368 3.9024 0
M  V30 1629 C 157.51 0.208838 4.39604 0
M  V30 1630 H 154.629 0.176955 0.715441 0
M  V30 1631 H 157.271 1.09229 1.55464 0
M  V30 1632 H 155.421 0.223149 3.87859 0
M  V30 1633 H 157.093 2.82273 3.64856 0
M  V30 1634 H 155.336 2.70901 3.38814 0
M  V30 1635 H 156.007 2.3685 4.98604 0
M  V30 1636 H 158.483 0.652529 4.10952 0
M  V30 1637 H 157.359 0.419336 5.47296 0
M  V30 1638 H 157.62 -0.889275 4.33064 0
M  V30 1639 N 156.679 -1.44442 0.630414 0
M  V30 1640 C 157.927 -2.01653 0.134351 0
M  V30 1641 C 158.248 -1.49836 -1.24796 0
M  V30 1642 O 157.518 -0.701684 -1.82902 0
M  V30 1643 H 156.098 -0.74554 0.0466769 0
M  V30 1644 H 158.76 -1.76952 0.816955 0
M  V30 1645 H 157.856 -3.11935 0.101498 0
M  V30 1646 N 158.157 -0.370918 -1.53173 0
M  V30 1647 C 159.405 0.216673 -2.00935 0
M  V30 1648 C 159.726 1.48845 -1.25977 0
M  V30 1649 O 158.996 1.92286 -0.374551 0
M  V30 1650 H 157.576 0.0830565 -0.742368 0
M  V30 1651 H 160.238 -0.49838 -1.8842 0
M  V30 1652 H 159.334 0.439893 -3.08984 0
M  V30 1653 N 159.635 1.57281 -0.100228 0
M  V30 1654 C 160.598 2.13158 0.842398 0
M  V30 1655 C 161.598 1.06202 1.20738 0
M  V30 1656 O 162.788 1.32066 1.13597 0
M  V30 1657 C 159.92 2.65639 2.13655 0
M  V30 1658 H 161.113 2.97766 0.357114 0
M  V30 1659 H 158.666 1.5559 0.148823 0
M  V30 1660 H 159.401 1.84566 2.66657 0
M  V30 1661 H 159.186 3.43844 1.88451 0
M  V30 1662 H 160.676 3.08846 2.81077 0
M  V30 1663 N 161.113 -0.173488 1.56642 0
M  V30 1664 C 162.361 -0.888706 1.81512 0
M  V30 1665 C 162.682 -1.82875 0.676872 0
M  V30 1666 O 161.952 -1.93536 -0.303414 0
M  V30 1667 H 160.532 -0.331164 0.669582 0
M  V30 1668 H 163.194 -0.173823 1.94123 0
M  V30 1669 H 162.29 -1.46691 2.75478 0
M  V30 1670 N 162.591 -1.51276 -0.441967 0
M  V30 1671 C 163.554 -1.7167 -1.51862 0
M  V30 1672 C 164.554 -0.586793 -1.49711 0
M  V30 1673 O 165.744 -0.854276 -1.51815 0
M  V30 1674 C 162.876 -1.76889 -2.91416 0
M  V30 1675 H 164.069 -2.67754 -1.35084 0
M  V30 1676 H 161.622 -1.41196 -0.670333 0
M  V30 1677 H 162.357 -0.826026 -3.13604 0
M  V30 1678 H 162.142 -2.59001 -2.94382 0
M  V30 1679 H 163.632 -1.94522 -3.69528 0
M  V30 1680 N 164.069 0.697108 -1.41344 0
M  V30 1681 C 165.485 1.00751 -1.2378 0
M  V30 1682 C 165.685 2.01105 -0.126066 0
M  V30 1683 O 164.741 2.47295 0.51004 0
M  V30 1684 C 166.054 1.53359 -2.58653 0
M  V30 1685 C 167.602 1.6525 -2.65822 0
M  V30 1686 C 168.077 2.2126 -4.01009 0
M  V30 1687 N 169.568 2.28622 -4.02847 0
M  V30 1688 C 170.303 2.72984 -5.04249 0
M  V30 1689 N 169.799 3.16962 -6.16041 0
M  V30 1690 N 171.592 2.72534 -4.91611 0
M  V30 1691 H 163.743 0.0322662 -2.12375 0
M  V30 1692 H 166.006 0.0768853 -0.944877 0
M  V30 1693 H 165.712 0.870773 -3.4075 0
M  V30 1694 H 165.586 2.51597 -2.81032 0
M  V30 1695 H 167.973 2.30644 -1.84086 0
M  V30 1696 H 168.054 0.655614 -2.47256 0
M  V30 1697 H 167.698 1.56482 -4.83193 0
M  V30 1698 H 167.628 3.21698 -4.16915 0
M  V30 1699 H 170.119 1.97585 -3.22131 0
M  V30 1700 H 170.432 3.49434 -6.89287 0
M  V30 1701 H 168.777 3.14875 -6.1958 0
M  V30 1702 H 171.968 2.37525 -4.0336 0
M  V30 1703 H 172.141 3.06789 -5.70775 0
M  V30 1704 N 165.547 1.27147 0.931209 0
M  V30 1705 C 166.963 1.04475 1.20653 0
M  V30 1706 C 167.163 -0.223885 2.00252 0
M  V30 1707 O 166.219 -0.930332 2.34736 0
M  V30 1708 C 167.532 2.28209 1.95809 0
M  V30 1709 C 169.08 2.33211 2.08762 0
M  V30 1710 C 169.555 3.56665 2.87323 0
M  V30 1711 N 171.046 3.57201 2.94892 0
M  V30 1712 C 171.781 4.49395 3.56134 0
M  V30 1713 N 171.277 5.51889 4.18796 0
M  V30 1714 N 173.07 4.37026 3.53504 0
M  V30 1715 H 165.221 2.08612 0.399333 0
M  V30 1716 H 167.484 0.917312 0.239253 0
M  V30 1717 H 167.19 3.20538 1.44736 0
M  V30 1718 H 167.064 2.33247 2.96438 0
M  V30 1719 H 169.451 1.41391 2.59023 0
M  V30 1720 H 169.532 2.32178 1.07364 0
M  V30 1721 H 169.176 4.4882 2.37746 0
M  V30 1722 H 169.106 3.54948 3.88998 0
M  V30 1723 H 171.597 2.83074 2.50354 0
M  V30 1724 H 171.91 6.18409 4.63454 0
M  V30 1725 H 170.255 5.55735 4.17353 0
M  V30 1726 H 173.446 3.56166 3.03749 0
M  V30 1727 H 173.619 5.09067 4.00942 0
M  V30 1728 N 167.025 -1.13721 1.09112 0
M  V30 1729 C 168.253 -1.88773 0.846899 0
M  V30 1730 C 168.668 -1.7896 -0.601572 0
M  V30 1731 O 168.025 -1.15394 -1.41388 0
M  V30 1732 C 168.076 -3.3849 1.26913 0
M  V30 1733 O 167.797 -3.48043 2.66079 0
M  V30 1734 C 169.298 -4.30518 1.05682 0
M  V30 1735 H 166.518 -0.59772 0.304914 0
M  V30 1736 H 169.062 -1.43977 1.45227 0
M  V30 1737 H 167.217 -3.80881 0.707723 0
M  V30 1738 H 167.631 -4.4109 2.83795 0
M  V30 1739 H 169.105 -5.3391 1.40156 0
M  V30 1740 H 169.582 -4.392 -0.00563416 0
M  V30 1741 H 170.188 -3.93893 1.60402 0
M  V30 1742 N 168.503 -0.877838 -1.30888 0
M  V30 1743 C 169.919 -0.570844 -1.49042 0
M  V30 1744 C 170.119 0.893159 -1.80624 0
M  V30 1745 O 169.175 1.67485 -1.88958 0
M  V30 1746 C 170.488 -1.47784 -2.61878 0
M  V30 1747 C 172.036 -1.48071 -2.75761 0
M  V30 1748 C 172.511 -2.37347 -3.91702 0
M  V30 1749 N 174.002 -2.35271 -3.99001 0
M  V30 1750 C 174.737 -3.01063 -4.88004 0
M  V30 1751 N 174.233 -3.76055 -5.81854 0
M  V30 1752 N 176.026 -2.90332 -4.81315 0
M  V30 1753 H 168.177 -1.82502 -1.0866 0
M  V30 1754 H 170.44 -0.780797 -0.537644 0
M  V30 1755 H 170.146 -2.51993 -2.45341 0
M  V30 1756 H 170.02 -1.18215 -3.58197 0
M  V30 1757 H 172.407 -0.446166 -2.91708 0
M  V30 1758 H 172.488 -1.81668 -1.80085 0
M  V30 1759 H 172.132 -3.40883 -3.76512 0
M  V30 1760 H 172.062 -2.01071 -4.86701 0
M  V30 1761 H 174.553 -1.80768 -3.3186 0
M  V30 1762 H 174.866 -4.23366 -6.46514 0
M  V30 1763 H 173.211 -3.80163 -5.81808 0
M  V30 1764 H 176.402 -2.31278 -4.06974 0
M  V30 1765 H 176.575 -3.41885 -5.50471 0
M  V30 1766 N 169.982 1.44106 -0.638065 0
M  V30 1767 C 171.228 2.02277 -0.145546 0
M  V30 1768 C 171.561 1.50125 1.23191 0
M  V30 1769 O 170.836 0.688133 1.8192 0
M  V30 1770 C 171.119 3.59829 -0.139791 0
M  V30 1771 C 170.972 4.22247 -1.55008 0
M  V30 1772 C 172.291 4.36873 0.531966 0
M  V30 1773 H 169.41 0.734992 -0.0543632 0
M  V30 1774 H 172.052 1.71592 -0.815863 0
M  V30 1775 H 170.202 3.86102 0.431007 0
M  V30 1776 H 171.874 4.07057 -2.1703 0
M  V30 1777 H 170.117 3.79476 -2.10191 0
M  V30 1778 H 170.788 5.31284 -1.49804 0
M  V30 1779 H 173.264 4.16074 0.0464781 0
M  V30 1780 H 172.14 5.4657 0.505206 0
M  V30 1781 H 172.401 4.11995 1.60352 0
M  V30 1782 N 171.46 0.379036 1.52974 0
M  V30 1783 C 172.709 -0.207612 2.00629 0
M  V30 1784 C 173.022 -1.48758 1.27006 0
M  V30 1785 O 174.228 -2.15365 1.65318 0
M  V30 1786 C 172.684 -0.42053 3.57435 0
M  V30 1787 C 172.292 0.845587 4.39948 0
M  V30 1788 C 174.036 -0.964102 4.13407 0
M  V30 1789 C 171.943 0.601513 5.88333 0
M  V30 1790 H 170.873 -0.0813591 0.749598 0
M  V30 1791 H 173.524 0.499853 1.76561 0
M  V30 1792 H 171.906 -1.18959 3.7771 0
M  V30 1793 H 173.08 1.61848 4.31442 0
M  V30 1794 H 171.395 1.31336 3.95145 0
M  V30 1795 H 173.992 -1.16225 5.21916 0
M  V30 1796 H 174.335 -1.93019 3.68849 0
M  V30 1797 H 174.868 -0.25487 3.96983 0
M  V30 1798 H 171.607 1.53831 6.37194 0
M  V30 1799 H 171.127 -0.132628 5.99653 0
M  V30 1800 H 172.806 0.232134 6.46583 0
M  V30 1801 N 172.938 -1.57226 0.108567 0
M  V30 1802 C 174.168 -1.9889 -0.559142 0
M  V30 1803 C 174.576 -0.986889 -1.61422 0
M  V30 1804 O 173.919 0.0298705 -1.83676 0
M  V30 1805 C 173.981 -3.36952 -1.25315 0
M  V30 1806 C 173.645 -4.55679 -0.347248 0
M  V30 1807 C 174.642 -5.18281 0.409996 0
M  V30 1808 C 172.327 -5.0162 -0.261367 0
M  V30 1809 C 174.321 -6.25203 1.24096 0
M  V30 1810 C 172.008 -6.08405 0.573238 0
M  V30 1811 C 173.006 -6.70063 1.32304 0
M  V30 1812 O 172.694 -7.74788 2.14381 0
M  V30 1813 H 172.426 -0.658343 -0.153492 0
M  V30 1814 H 174.98 -2.04532 0.188584 0
M  V30 1815 H 173.21 -3.28032 -2.04773 0
M  V30 1816 H 174.899 -3.62974 -1.81673 0
M  V30 1817 H 175.665 -4.8371 0.353457 0
M  V30 1818 H 171.544 -4.53381 -0.834656 0
M  V30 1819 H 175.088 -6.73259 1.82669 0
M  V30 1820 H 170.985 -6.42406 0.631208 0
M  V30 1821 H 171.753 -7.91837 2.07209 0
M  V30 1822 N 174.416 0.165178 -1.56732 0
M  V30 1823 C 175.662 0.882112 -1.82611 0
M  V30 1824 C 175.995 1.81628 -0.687378 0
M  V30 1825 O 175.27 1.92009 0.310267 0
M  V30 1826 C 175.553 1.67245 -3.18906 0
M  V30 1827 C 175.406 0.760987 -4.43316 0
M  V30 1828 C 176.725 2.63884 -3.52212 0
M  V30 1829 H 173.844 0.319242 -0.664269 0
M  V30 1830 H 176.486 0.148052 -1.89422 0
M  V30 1831 H 174.636 2.29824 -3.1323 0
M  V30 1832 H 176.308 0.147596 -4.61064 0
M  V30 1833 H 174.551 0.0694102 -4.33744 0
M  V30 1834 H 175.222 1.34962 -5.35247 0
M  V30 1835 H 177.698 2.11429 -3.58381 0
M  V30 1836 H 176.574 3.16245 -4.48643 0
M  V30 1837 H 176.835 3.44377 -2.77231 0
M  V30 1838 N 175.894 1.51508 0.433938 0
M  V30 1839 C 176.844 1.69451 1.52546 0
M  V30 1840 C 177.828 0.548474 1.51263 0
M  V30 1841 O 179.02 0.804529 1.57659 0
M  V30 1842 C 176.149 1.82604 2.90707 0
M  V30 1843 C 175.235 3.03002 2.96733 0
M  V30 1844 N 175.626 4.26121 2.72496 0
M  V30 1845 C 173.924 3.02327 3.27894 0
M  V30 1846 C 174.625 5.07407 2.84452 0
M  V30 1847 N 173.601 4.42126 3.16269 0
M  V30 1848 H 177.403 2.62305 1.32564 0
M  V30 1849 H 174.917 1.49202 0.641297 0
M  V30 1850 H 176.914 1.93569 3.69238 0
M  V30 1851 H 175.574 0.909339 3.11707 0
M  V30 1852 H 176.585 4.55009 2.4736 0
M  V30 1853 H 173.262 2.20301 3.54646 0
M  V30 1854 H 174.652 6.15422 2.69639 0
M  V30 1855 N 177.372 -0.689602 1.41712 0
M  V30 1856 C 178.32 -1.82475 1.44242 0
M  V30 1857 C 179.314 -1.66354 0.319774 0
M  V30 1858 O 180.52 -1.73143 0.492089 0
M  V30 1859 H 176.895 -0.601416 0.451445 0
M  V30 1860 H 178.866 -1.77458 2.39899 0
M  V30 1861 C 177.615 -3.20535 1.3473 0
M  V30 1862 H 176.938 -3.33559 2.20405 0
M  V30 1863 H 178.378 -4.00023 1.40562 0
M  V30 1864 C 176.837 -3.36846 0.0603281 0
M  V30 1865 O 177.367 -3.91656 -0.892663 0
M  V30 1866 N 175.573 -2.90595 -0.0177039 0
M  V30 1867 H 175.12 -2.46178 0.758572 0
M  V30 1868 H 175.078 -3.01886 -0.878201 0
M  V30 1869 N 178.85 -1.27639 -0.924453 0
M  V30 1870 C 180.075 -1.17101 -1.71179 0
M  V30 1871 C 180.5 0.268134 -1.86179 0
M  V30 1872 O 179.858 1.19415 -1.36418 0
M  V30 1873 C 179.906 -1.86313 -3.08739 0
M  V30 1874 O 179.01 -1.16331 -3.95652 0
M  V30 1875 H 178.351 -0.407091 -0.524569 0
M  V30 1876 H 180.881 -1.68767 -1.15666 0
M  V30 1877 H 180.891 -1.938 -3.59034 0
M  V30 1878 H 179.566 -2.91001 -2.97138 0
M  V30 1879 H 178.143 -1.16935 -3.54091 0
M  V30 1880 N 180.328 1.1314 -1.09713 0
M  V30 1881 C 181.739 1.66029 -0.853885 0
M  V30 1882 C 182.09 1.86241 0.617142 0
M  V30 1883 O 181.215 1.5834 1.47503 0
M  V30 1884 C 181.81 3.01599 -1.5435 0
M  V30 1885 C 180.369 3.51467 -1.34714 0
M  V30 1886 C 179.516 2.26648 -1.59769 0
M  V30 1887 H 182.467 0.970226 -1.25588 0
M  V30 1888 H 182.488 3.67709 -0.978267 0
M  V30 1889 H 182 2.86856 -2.6141 0
M  V30 1890 H 180.101 3.71408 -0.297838 0
M  V30 1891 H 180.214 4.314 -2.08401 0
M  V30 1892 H 178.578 2.33385 -1.01998 0
M  V30 1893 H 179.361 2.14467 -2.68065 0
M  V30 1894 N 181.806 0.884767 1.30421 0
M  V30 1895 C 183.054 0.502112 1.95763 0
M  V30 1896 C 183.375 -0.951815 1.70192 0
M  V30 1897 O 182.645 -1.6692 1.0254 0
M  V30 1898 H 181.225 0.182694 0.724315 0
M  V30 1899 H 183.887 1.1278 1.58955 0
M  V30 1900 H 182.983 0.672188 3.04775 0
M  V30 1901 N 183.284 -1.43765 0.645699 0
M  V30 1902 C 184.247 -2.29163 -0.0409488 0
M  V30 1903 C 185.247 -1.41813 -0.757996 0
M  V30 1904 O 186.437 -1.63527 -0.600382 0
M  V30 1905 C 183.569 -3.23716 -1.06869 0
M  V30 1906 H 184.762 -2.91366 0.710345 0
M  V30 1907 H 182.315 -1.5092 0.406547 0
M  V30 1908 H 183.05 -2.66393 -1.84947 0
M  V30 1909 H 182.835 -3.88105 -0.558277 0
M  V30 1910 H 184.325 -3.87831 -1.54845 0
M  V30 1911 N 184.763 -0.387143 -1.52771 0
M  V30 1912 C 185.713 0.465942 -2.23188 0
M  V30 1913 C 186.697 1.03138 -1.23496 0
M  V30 1914 O 187.889 0.957845 -1.48843 0
M  V30 1915 C 185.018 1.59384 -3.04059 0
M  V30 1916 C 184.104 1.04024 -4.11144 0
M  V30 1917 N 184.495 0.211416 -5.05358 0
M  V30 1918 C 182.793 1.31295 -4.26237 0
M  V30 1919 C 183.494 -0.0941698 -5.81624 0
M  V30 1920 N 182.47 0.509207 -5.4121 0
M  V30 1921 H 186.272 -0.173856 -2.93385 0
M  V30 1922 H 183.786 -0.19633 -1.61209 0
M  V30 1923 H 185.783 2.21738 -3.53041 0
M  V30 1924 H 184.443 2.23648 -2.35397 0
M  V30 1925 H 185.454 -0.151151 -5.17679 0
M  V30 1926 H 182.131 1.95679 -3.68803 0
M  V30 1927 H 183.521 -0.765572 -6.67524 0
M  V30 1928 N 186.241 1.57166 -0.116904 0
M  V30 1929 C 187.171 2.18222 0.830759 0
M  V30 1930 C 188.152 1.12167 1.27877 0
M  V30 1931 O 189.337 1.40394 1.34176 0
M  V30 1932 C 186.467 2.77996 2.08172 0
M  V30 1933 C 185.421 3.89614 1.77157 0
M  V30 1934 C 184.747 4.36187 3.09265 0
M  V30 1935 C 186.047 5.1181 1.04151 0
M  V30 1936 H 187.741 2.97664 0.321992 0
M  V30 1937 H 185.287 1.4318 0.153434 0
M  V30 1938 H 187.24 3.19366 2.74924 0
M  V30 1939 H 185.964 1.9584 2.6137 0
M  V30 1940 H 184.623 3.48816 1.12796 0
M  V30 1941 H 184.271 3.50893 3.60393 0
M  V30 1942 H 183.971 5.11455 2.89288 0
M  V30 1943 H 185.495 4.80207 3.77139 0
M  V30 1944 H 186.909 5.50214 1.61052 0
M  V30 1945 H 185.306 5.92648 0.942762 0
M  V30 1946 H 186.376 4.84892 0.0279022 0
M  V30 1947 N 187.719 -0.156864 1.56817 0
M  V30 1948 C 188.649 -1.19589 2.00551 0
M  V30 1949 C 189.63 -1.4536 0.883426 0
M  V30 1950 O 190.815 -1.56449 1.15054 0
M  V30 1951 C 187.945 -2.53143 2.37773 0
M  V30 1952 C 186.899 -2.41913 3.53075 0
M  V30 1953 C 186.225 -3.80088 3.76081 0
M  V30 1954 C 187.525 -1.91157 4.86062 0
M  V30 1955 H 189.219 -0.832293 2.87599 0
M  V30 1956 H 186.765 -0.398918 1.38364 0
M  V30 1957 H 188.718 -3.26047 2.66967 0
M  V30 1958 H 187.442 -2.91319 1.4765 0
M  V30 1959 H 186.101 -1.71462 3.24031 0
M  V30 1960 H 185.749 -4.15683 2.83225 0
M  V30 1961 H 185.449 -3.73439 4.53671 0
M  V30 1962 H 186.973 -4.54556 4.0769 0
M  V30 1963 H 188.387 -2.53846 5.14038 0
M  V30 1964 H 186.784 -1.95422 5.67389 0
M  V30 1965 H 187.854 -0.866673 4.77092 0
M  V30 1966 N 189.197 -1.51736 -0.425897 0
M  V30 1967 C 190.608 -1.5732 -1.00536 0
M  V30 1968 C 190.959 -0.403537 -1.92005 0
M  V30 1969 O 190.084 0.478256 -2.11049 0
M  V30 1970 C 190.679 -2.85119 -1.8301 0
M  V30 1971 C 189.238 -2.93236 -2.35987 0
M  V30 1972 C 188.385 -2.52098 -1.15508 0
M  V30 1973 H 191.336 -1.57348 -0.206739 0
M  V30 1974 H 191.357 -2.69526 -2.68581 0
M  V30 1975 H 190.869 -3.7023 -1.16411 0
M  V30 1976 H 188.97 -2.12581 -3.06007 0
M  V30 1977 H 189.083 -3.9713 -2.68001 0
M  V30 1978 H 187.447 -2.05558 -1.50393 0
M  V30 1979 H 188.23 -3.39565 -0.505014 0
M  V30 1980 N 190.675 0.682077 -1.42076 0
M  V30 1981 C 191.952 1.43755 -1.32642 0
M  V30 1982 C 192.332 2.11063 0.0396611 0
M  V30 1983 O 191.68 2.02701 1.05474 0
M  V30 1984 C 191.89 2.44596 -2.48946 0
M  V30 1985 C 193.238 3.09454 -2.9073 0
M  V30 1986 O 194.262 2.54922 -2.48783 0
M  V30 1987 O 193.121 4.08253 -3.63307 0
M  V30 1988 H 190.215 0.640857 -0.522715 0
M  V30 1989 H 192.761 0.711415 -1.54068 0
M  V30 1990 H 191.533 1.93609 -3.40046 0
M  V30 1991 H 191.156 3.24701 -2.29467 0
M  V30 1992 N 192.153 1.28127 0.917671 0
M  V30 1993 C 193.1 1.11717 2.0196 0
M  V30 1994 C 194.07 0.0153929 1.66093 0
M  V30 1995 O 195.255 0.179596 1.89953 0
M  V30 1996 C 192.395 0.780927 3.36148 0
M  V30 1997 C 191.508 1.96135 3.84909 0
M  V30 1998 C 190.643 1.56609 5.0759 0
M  V30 1999 C 189.682 2.71339 5.48673 0
M  V30 2000 N 188.819 2.32332 6.62545 0
M  V30 2001 H 193.659 2.06003 2.15329 0
M  V30 2002 H 191.196 1.02535 1.05475 0
M  V30 2003 H 193.154 0.56675 4.13333 0
M  V30 2004 H 191.784 -0.124998 3.22558 0
M  V30 2005 H 190.836 2.28777 3.03916 0
M  V30 2006 H 192.148 2.82165 4.1132 0
M  V30 2007 H 191.302 1.31374 5.92305 0
M  V30 2008 H 190.041 0.677014 4.82978 0
M  V30 2009 H 189.046 2.97276 4.62501 0
M  V30 2010 H 190.271 3.60882 5.75274 0
M  V30 2011 H 188.217 1.45889 6.39572 0
M  V30 2012 H 188.134 3.11899 6.88662 0
M  V30 2013 H 189.402 2.10371 7.50576 0
M  V30 2014 N 193.631 -1.12557 1.10312 0
M  V30 2015 C 194.877 -1.84311 0.846011 0
M  V30 2016 C 195.21 -1.83805 -0.626859 0
M  V30 2017 O 194.485 -1.28268 -1.46211 0
M  V30 2018 C 194.768 -3.32048 1.39341 0
M  V30 2019 C 194.621 -3.41016 2.93305 0
M  V30 2020 C 195.94 -4.27764 1.03468 0
M  V30 2021 H 193.059 -0.669192 0.30879 0
M  V30 2022 H 195.701 -1.32057 1.36605 0
M  V30 2023 H 193.851 -3.76678 0.951087 0
M  V30 2024 H 195.523 -3.05031 3.46055 0
M  V30 2025 H 193.766 -2.81603 3.29973 0
M  V30 2026 H 194.437 -4.44948 3.26689 0
M  V30 2027 H 196.913 -3.91253 1.41633 0
M  V30 2028 H 195.789 -5.29549 1.44463 0
M  V30 2029 H 196.05 -4.42064 -0.0560404 0
M  V30 2030 N 195.109 -0.891671 -1.2995 0
M  V30 2031 C 196.337 -0.52866 -2.00032 0
M  V30 2032 C 196.752 0.884574 -1.66795 0
M  V30 2033 O 196.109 1.5827 -0.908669 0
M  V30 2034 C 196.16 -0.701814 -3.54622 0
M  V30 2035 O 195.881 -2.05942 -3.86678 0
M  V30 2036 C 197.382 -0.342683 -4.41973 0
M  V30 2037 H 194.602 -0.203659 -0.639347 0
M  V30 2038 H 197.146 -1.19881 -1.65677 0
M  V30 2039 H 195.301 -0.0789468 -3.8732 0
M  V30 2040 H 195.715 -2.08291 -4.81368 0
M  V30 2041 H 197.189 -0.514709 -5.49595 0
M  V30 2042 H 197.666 0.71975 -4.33262 0
M  V30 2043 H 198.272 -0.942154 -4.14733 0
M  V30 2044 N 196.587 1.43421 -0.653314 0
M  V30 2045 C 197.537 2.2792 0.060558 0
M  V30 2046 C 198.521 1.39906 0.794677 0
M  V30 2047 O 199.713 1.63536 0.677128 0
M  V30 2048 C 196.842 3.27603 1.0262 0
M  V30 2049 C 195.928 4.23104 0.290551 0
M  V30 2050 N 196.319 5.01031 -0.692967 0
M  V30 2051 C 194.617 4.42816 0.531984 0
M  V30 2052 C 195.318 5.70626 -1.12963 0
M  V30 2053 N 194.294 5.41617 -0.463867 0
M  V30 2054 H 198.096 2.85585 -0.694143 0
M  V30 2055 H 195.61 1.55126 -0.480602 0
M  V30 2056 H 197.607 3.86918 1.55242 0
M  V30 2057 H 196.267 2.71499 1.78096 0
M  V30 2058 H 197.278 5.0669 -1.07169 0
M  V30 2059 H 193.955 3.97782 1.26791 0
M  V30 2060 H 195.345 6.4318 -1.94343 0
M  V30 2061 N 198.065 0.39524 1.52563 0
M  V30 2062 C 199.293 -0.184943 2.06072 0
M  V30 2063 C 199.708 -1.40021 1.26647 0
M  V30 2064 O 199.065 -1.79767 0.314672 0
M  V30 2065 C 199.116 -0.549179 3.57304 0
M  V30 2066 O 198.837 0.617813 4.33722 0
M  V30 2067 C 200.338 -1.18459 4.2718 0
M  V30 2068 H 197.558 -0.0265025 0.670476 0
M  V30 2069 H 200.102 0.562184 1.96621 0
M  V30 2070 H 198.257 -1.2462 3.66809 0
M  V30 2071 H 198.671 0.317091 5.23541 0
M  V30 2072 H 200.145 -1.38976 5.34219 0
M  V30 2073 H 200.622 -2.15368 3.82771 0
M  V30 2074 H 201.228 -0.528163 4.22008 0
M  V30 2075 N 199.544 -1.57102 0.125237 0
M  V30 2076 C 200.79 -1.95697 -0.532035 0
M  V30 2077 C 201.123 -1.009 -1.6593 0
M  V30 2078 O 200.398 -0.047347 -1.94442 0
M  V30 2079 C 200.681 -3.44181 -1.05884 0
M  V30 2080 C 200.534 -4.49752 0.0654392 0
M  V30 2081 C 201.853 -3.94655 -1.9477 0
M  V30 2082 H 198.972 -0.711571 -0.191925 0
M  V30 2083 H 201.614 -1.88923 0.20206 0
M  V30 2084 H 199.764 -3.50085 -1.68442 0
M  V30 2085 H 201.436 -4.55943 0.700982 0
M  V30 2086 H 199.679 -4.27653 0.727709 0
M  V30 2087 H 200.35 -5.50924 -0.344505 0
M  V30 2088 H 202.826 -3.91094 -1.42074 0
M  V30 2089 H 201.702 -4.99057 -2.28546 0
M  V30 2090 H 201.963 -3.35718 -2.87656 0
M  V30 2091 N 201.022 0.148545 -1.56898 0
M  V30 2092 C 201.97 1.20265 -1.99096 0
M  V30 2093 C 202.964 1.44559 -0.883123 0
M  V30 2094 O 204.17 1.4487 -1.0683 0
M  V30 2095 H 200.545 0.404786 -0.63376 0
M  V30 2096 H 202.516 0.82004 -2.86911 0
M  V30 2097 C 201.265 2.52886 -2.3863 0
M  V30 2098 H 200.588 2.35021 -3.23427 0
M  V30 2099 H 202.028 3.25274 -2.7198 0
M  V30 2100 C 200.487 3.13315 -1.23837 0
M  V30 2101 O 201.017 3.98077 -0.538268 0
M  V30 2102 N 199.223 2.72742 -1.00301 0
M  V30 2103 H 198.77 2.03912 -1.5741 0
M  V30 2104 H 198.728 3.13507 -0.236838 0
M  V30 2105 N 202.5 1.5196 0.417844 0
M  V30 2106 C 203.447 1.74678 1.50852 0
M  V30 2107 C 204.417 0.588947 1.55308 0
M  V30 2108 O 205.602 0.825544 1.72016 0
M  V30 2109 C 202.742 1.89544 2.88387 0
M  V30 2110 C 201.855 3.17166 2.93309 0
M  V30 2111 C 200.99 3.22513 4.22088 0
M  V30 2112 C 200.029 4.44372 4.20951 0
M  V30 2113 N 199.166 4.47161 5.41287 0
M  V30 2114 H 204.006 2.67768 1.30783 0
M  V30 2115 H 201.543 1.32689 0.63498 0
M  V30 2116 H 203.501 1.96146 3.68216 0
M  V30 2117 H 202.131 0.998424 3.06971 0
M  V30 2118 H 201.183 3.19778 2.06024 0
M  V30 2119 H 202.495 4.07021 2.88332 0
M  V30 2120 H 201.649 3.28139 5.10303 0
M  V30 2121 H 200.388 2.30581 4.29748 0
M  V30 2122 H 199.393 4.38902 3.31127 0
M  V30 2123 H 200.618 5.3759 4.14938 0
M  V30 2124 H 198.564 3.58108 5.49632 0
M  V30 2125 H 198.481 5.3085 5.3827 0
M  V30 2126 H 199.749 4.57005 6.3148 0
M  V30 2127 N 203.978 -0.674533 1.42435 0
M  V30 2128 C 205.226 -1.43175 1.42637 0
M  V30 2129 C 205.547 -1.94951 0.0438992 0
M  V30 2130 O 204.817 -1.7308 -0.917607 0
M  V30 2131 H 203.397 -0.531307 0.525092 0
M  V30 2132 H 206.059 -0.797006 1.77859 0
M  V30 2133 H 205.155 -2.28463 2.12629 0
M  V30 2134 N 205.456 -1.28612 -0.910864 0
M  V30 2135 C 206.733 -1.06632 -1.63979 0
M  V30 2136 C 207.113 0.393351 -2.07403 0
M  V30 2137 O 206.461 1.37999 -1.82122 0
M  V30 2138 C 206.671 -2.0436 -2.8291 0
M  V30 2139 C 208.019 -2.34666 -3.5386 0
M  V30 2140 O 209.043 -2.02467 -2.93062 0
M  V30 2141 O 207.902 -2.89631 -4.63439 0
M  V30 2142 H 204.996 -0.407737 -0.7195 0
M  V30 2143 H 207.542 -1.39942 -0.959914 0
M  V30 2144 H 206.314 -3.02727 -2.47936 0
M  V30 2145 H 205.937 -1.71714 -3.58609 0
M  V30 2146 N 206.934 1.1197 -1.10907 0
M  V30 2147 C 208.162 1.87402 -0.876824 0
M  V30 2148 C 208.577 1.79894 0.573025 0
M  V30 2149 O 207.934 1.17629 1.39534 0
M  V30 2150 C 207.985 3.36428 -1.32282 0
M  V30 2151 O 207.706 3.43765 -2.71582 0
M  V30 2152 C 209.207 4.28783 -1.12518 0
M  V30 2153 H 206.427 0.592793 -0.314384 0
M  V30 2154 H 208.971 1.41649 -1.47499 0
M  V30 2155 H 207.126 3.79706 -0.768229 0
M  V30 2156 H 207.54 4.3652 -2.90776 0
M  V30 2157 H 209.014 5.31613 -1.48633 0
M  V30 2158 H 209.491 4.39153 -0.0642394 0
M  V30 2159 H 210.097 3.91291 -1.66648 0
M  V30 2160 N 208.412 0.89855 1.29475 0
M  V30 2161 C 209.375 0.380272 2.26023 0
M  V30 2162 C 210.375 -0.484891 1.53315 0
M  V30 2163 O 211.565 -0.290108 1.71767 0
M  V30 2164 C 208.697 -0.45651 3.3783 0
M  V30 2165 H 209.89 1.23295 2.73383 0
M  V30 2166 H 207.443 0.676589 1.40897 0
M  V30 2167 H 208.178 -1.32922 2.95808 0
M  V30 2168 H 207.963 0.163393 3.91759 0
M  V30 2169 H 209.453 -0.810466 4.0966 0
M  V30 2170 N 209.89 -1.43072 0.660911 0
M  V30 2171 C 211.136 -2.0202 0.177708 0
M  V30 2172 C 211.469 -1.52066 -1.20787 0
M  V30 2173 O 210.744 -0.716987 -1.80802 0
M  V30 2174 C 211.027 -3.59561 0.197019 0
M  V30 2175 C 210.88 -4.19727 1.61706 0
M  V30 2176 C 212.199 -4.37664 -0.462396 0
M  V30 2177 H 209.318 -0.734034 0.0660494 0
M  V30 2178 H 211.96 -1.70272 0.843058 0
M  V30 2179 H 210.11 -3.86739 -0.369527 0
M  V30 2180 H 211.782 -4.03553 2.23479 0
M  V30 2181 H 210.025 -3.76084 2.16201 0
M  V30 2182 H 210.696 -5.28834 1.58237 0
M  V30 2183 H 213.172 -4.16095 0.0197215 0
M  V30 2184 H 212.048 -5.47305 -0.418188 0
M  V30 2185 H 212.309 -4.14493 -1.53778 0
M  V30 2186 N 211.368 -0.403325 -1.52352 0
M  V30 2187 C 212.298 0.416205 -2.29761 0
M  V30 2188 C 213.279 1.05123 -1.33728 0
M  V30 2189 O 214.464 1.06134 -1.62632 0
M  V30 2190 C 211.594 1.53624 -3.11475 0
M  V30 2191 C 210.548 1.02653 -4.15507 0
M  V30 2192 C 209.874 2.23971 -4.85532 0
M  V30 2193 C 211.174 0.08463 -5.22231 0
M  V30 2194 H 212.868 -0.229701 -2.98518 0
M  V30 2195 H 210.414 -0.111913 -1.43564 0
M  V30 2196 H 212.367 2.1165 -3.64393 0
M  V30 2197 H 211.091 2.20994 -2.40477 0
M  V30 2198 H 209.75 0.46871 -3.63591 0
M  V30 2199 H 209.398 2.89883 -4.11068 0
M  V30 2200 H 209.098 1.90521 -5.55856 0
M  V30 2201 H 210.622 2.82614 -5.41259 0
M  V30 2202 H 212.036 0.573509 -5.70424 0
M  V30 2203 H 210.433 -0.160783 -5.99885 0
M  V30 2204 H 211.503 -0.86237 -4.7717 0
M  V30 2205 N 212.846 1.57033 -0.133567 0
M  V30 2206 C 214.071 2.00475 0.531477 0
M  V30 2207 C 214.496 1.01291 1.58499 0
M  V30 2208 O 213.854 -0.0133279 1.81295 0
M  V30 2209 C 213.902 3.42729 1.12113 0
M  V30 2210 O 213.006 3.46498 2.23636 0
M  V30 2211 H 212.347 0.650876 0.131362 0
M  V30 2212 H 214.877 2.03344 -0.22634 0
M  V30 2213 H 214.887 3.81246 1.4531 0
M  V30 2214 H 213.562 4.14428 0.349557 0
M  V30 2215 H 212.139 3.19811 1.91769 0
M  V30 2216 N 214.325 -0.140222 1.56975 0
M  V30 2217 C 215.288 -1.15689 1.97861 0
M  V30 2218 C 216.288 -1.3549 0.865974 0
M  V30 2219 O 217.478 -1.32367 1.13246 0
M  V30 2220 C 214.61 -2.51582 2.30042 0
M  V30 2221 H 215.803 -0.805971 2.88867 0
M  V30 2222 H 213.356 -0.383801 1.51515 0
M  V30 2223 H 214.091 -2.91632 1.41849 0
M  V30 2224 H 213.876 -2.38569 3.11171 0
M  V30 2225 H 215.366 -3.24792 2.62488 0
M  V30 2226 N 215.803 -1.52179 -0.40978 0
M  V30 2227 C 217.219 -1.40968 -0.74835 0
M  V30 2228 C 217.419 -0.513657 -1.94843 0
M  V30 2229 O 216.475 0.0208026 -2.52491 0
M  V30 2230 C 217.788 -2.83483 -1.0029 0
M  V30 2231 C 219.336 -2.92821 -1.10565 0
M  V30 2232 C 219.811 -4.36303 -1.39296 0
M  V30 2233 N 221.302 -4.39535 -1.46162 0
M  V30 2234 C 222.037 -5.47614 -1.70018 0
M  V30 2235 N 221.533 -6.65812 -1.91483 0
M  V30 2236 N 223.326 -5.35129 -1.72027 0
M  V30 2237 H 215.477 -2.0897 0.380186 0
M  V30 2238 H 217.74 -0.94185 0.107805 0
M  V30 2239 H 217.446 -3.51168 -0.193461 0
M  V30 2240 H 217.32 -3.24487 -1.92323 0
M  V30 2241 H 219.707 -2.25318 -1.90568 0
M  V30 2242 H 219.788 -2.55276 -0.16369 0
M  V30 2243 H 219.432 -5.04366 -0.598109 0
M  V30 2244 H 219.362 -4.71385 -2.34743 0
M  V30 2245 H 221.853 -3.54332 -1.31367 0
M  V30 2246 H 222.166 -7.43964 -2.09134 0
M  V30 2247 H 220.511 -6.68879 -1.88749 0
M  V30 2248 H 223.702 -4.41764 -1.54796 0
M  V30 2249 H 223.875 -6.19433 -1.9028 0
M  V30 2250 N 217.281 0.66697 -1.42791 0
M  V30 2251 C 218.527 1.4291 -1.43891 0
M  V30 2252 C 218.86 1.94114 -0.0578972 0
M  V30 2253 O 218.135 1.71414 0.91911 0
M  V30 2254 C 218.418 2.62049 -2.46987 0
M  V30 2255 C 218.271 2.16426 -3.94309 0
M  V30 2256 C 219.59 3.64266 -2.46978 0
M  V30 2257 H 216.709 0.518306 -0.523954 0
M  V30 2258 H 219.351 0.757321 -1.74255 0
M  V30 2259 H 217.501 3.19361 -2.21225 0
M  V30 2260 H 219.173 1.64221 -4.31079 0
M  V30 2261 H 217.416 1.47925 -4.078 0
M  V30 2262 H 218.087 3.02038 -4.62036 0
M  V30 2263 H 220.563 3.16686 -2.69906 0
M  V30 2264 H 219.439 4.45196 -3.21079 0
M  V30 2265 H 219.7 4.15927 -1.49857 0
M  V30 2266 N 218.759 1.29093 0.90403 0
M  V30 2267 C 219.709 1.10482 1.99443 0
M  V30 2268 C 220.693 0.0255401 1.6088 0
M  V30 2269 O 221.885 0.24677 1.75271 0
M  V30 2270 C 219.014 0.778882 3.34348 0
M  V30 2271 C 218.1 1.89749 3.79284 0
M  V30 2272 N 218.491 3.14045 3.96497 0
M  V30 2273 C 216.789 1.78955 4.08523 0
M  V30 2274 C 217.49 3.86996 4.34292 0
M  V30 2275 N 216.466 3.14909 4.43095 0
M  V30 2276 H 220.268 2.04778 2.10815 0
M  V30 2277 H 217.782 1.20155 1.09255 0
M  V30 2278 H 219.779 0.62661 4.12164 0
M  V30 2279 H 218.439 -0.156205 3.24324 0
M  V30 2280 H 219.45 3.49548 3.82148 0
M  V30 2281 H 216.127 0.926886 4.07081 0
M  V30 2282 H 217.517 4.93941 4.55491 0
M  V30 2283 N 220.237 -1.11381 1.11499 0
M  V30 2284 C 221.184 -2.17439 0.773887 0
M  V30 2285 C 222.154 -1.64132 -0.254899 0
M  V30 2286 O 223.339 -1.90345 -0.13168 0
M  V30 2287 C 220.479 -3.44373 0.223917 0
M  V30 2288 C 219.592 -4.1168 1.30934 0
M  V30 2289 C 218.727 -5.263 0.71984 0
M  V30 2290 C 217.766 -5.85493 1.78507 0
M  V30 2291 N 216.903 -6.91507 1.21502 0
M  V30 2292 H 221.743 -2.45962 1.68246 0
M  V30 2293 H 219.28 -1.20744 0.840191 0
M  V30 2294 H 221.238 -4.17047 -0.112921 0
M  V30 2295 H 219.868 -3.16232 -0.647851 0
M  V30 2296 H 218.92 -3.37073 1.76312 0
M  V30 2297 H 220.232 -4.51729 2.11524 0
M  V30 2298 H 219.386 -6.05785 0.333094 0
M  V30 2299 H 218.125 -4.87559 -0.117377 0
M  V30 2300 H 217.13 -5.04686 2.18111 0
M  V30 2301 H 218.355 -6.26301 2.62533 0
M  V30 2302 H 216.301 -6.54783 0.399455 0
M  V30 2303 H 216.218 -7.30214 1.95763 0
M  V30 2304 H 217.486 -7.74795 0.855181 0
M  V30 2305 N 221.715 -0.905404 -1.28997 0
M  V30 2306 C 222.625 -0.392246 -2.31298 0
M  V30 2307 C 223.641 0.515889 -1.66176 0
M  V30 2308 O 224.817 0.404093 -1.97304 0
M  V30 2309 C 221.882 0.36686 -3.44754 0
M  V30 2310 C 220.943 -0.573485 -4.25452 0
M  V30 2311 C 220.176 0.149488 -5.33491 0
M  V30 2312 O 220.399 1.37255 -5.5364 0
M  V30 2313 O 219.333 -0.510919 -5.99728 0
M  V30 2314 H 223.159 -1.2411 -2.77183 0
M  V30 2315 H 220.744 -0.669926 -1.33538 0
M  V30 2316 H 222.626 0.795907 -4.13816 0
M  V30 2317 H 221.301 1.19169 -3.00966 0
M  V30 2318 H 220.208 -1.05176 -3.59011 0
M  V30 2319 H 221.541 -1.36489 -4.72897 0
M  V30 2320 N 223.193 1.4272 -0.668489 0
M  V30 2321 C 224.14 2.30796 0.0137489 0
M  V30 2322 C 225.11 1.4561 0.799177 0
M  V30 2323 O 226.295 1.74453 0.772702 0
M  V30 2324 C 223.435 3.31377 0.963507 0
M  V30 2325 C 222.548 4.31655 0.172569 0
M  V30 2326 C 221.683 5.19312 1.1175 0
M  V30 2327 C 220.722 6.11274 0.317886 0
M  V30 2328 N 219.859 6.91504 1.2152 0
M  V30 2329 H 224.699 2.88585 -0.743161 0
M  V30 2330 H 222.236 1.42154 -0.378226 0
M  V30 2331 H 224.194 3.88214 1.52792 0
M  V30 2332 H 222.824 2.75202 1.68712 0
M  V30 2333 H 221.876 3.76988 -0.508374 0
M  V30 2334 H 223.188 4.96779 -0.448527 0
M  V30 2335 H 222.342 5.80851 1.75206 0
M  V30 2336 H 221.081 4.5435 1.77249 0
M  V30 2337 H 220.086 5.48809 -0.329918 0
M  V30 2338 H 221.311 6.78283 -0.332917 0
M  V30 2339 H 219.257 6.29176 1.85671 0
M  V30 2340 H 219.174 7.53209 0.649036 0
M  V30 2341 H 220.442 7.57535 1.83742 0
M  V30 2342 N 224.671 0.411399 1.52136 0
M  V30 2343 C 225.603 -0.448386 2.24771 0
M  V30 2344 C 226.616 -1.00828 1.27818 0
M  V30 2345 O 227.805 -0.906841 1.53749 0
M  V30 2346 C 224.905 -1.63636 2.96777 0
M  V30 2347 C 224.078 -1.19995 4.20618 0
M  V30 2348 C 223.137 -2.25509 4.75428 0
M  V30 2349 O 222.163 -1.86007 5.3795 0
M  V30 2350 N 223.365 -3.577 4.57199 0
M  V30 2351 H 226.13 0.174025 2.99194 0
M  V30 2352 H 223.691 0.238897 1.60128 0
M  V30 2353 H 225.683 -2.33793 3.30338 0
M  V30 2354 H 224.253 -2.16465 2.25526 0
M  V30 2355 H 223.473 -0.326421 3.92846 0
M  V30 2356 H 224.761 -0.885365 5.01038 0
M  V30 2357 H 224.159 -3.92543 4.07341 0
M  V30 2358 H 222.716 -4.23827 4.95191 0
M  V30 2359 N 226.149 -1.5696 0.141893 0
M  V30 2360 C 227.377 -2.00322 -0.517579 0
M  V30 2361 C 227.792 -1.02193 -1.58752 0
M  V30 2362 O 227.149 -0.0181619 -1.82491 0
M  V30 2363 C 227.2 -3.43618 -1.12289 0
M  V30 2364 O 226.921 -4.37995 -0.0956929 0
M  V30 2365 C 228.422 -4.02231 -1.86347 0
M  V30 2366 H 225.642 -0.657243 -0.135177 0
M  V30 2367 H 228.186 -2.03146 0.234973 0
M  V30 2368 H 226.341 -3.41662 -1.82609 0
M  V30 2369 H 226.755 -5.21729 -0.538469 0
M  V30 2370 H 228.229 -5.04509 -2.23997 0
M  V30 2371 H 228.706 -3.42655 -2.74744 0
M  V30 2372 H 229.312 -4.07802 -1.20737 0
M  V30 2373 N 227.627 0.131896 -1.57047 0
M  V30 2374 C 228.904 0.871495 -1.75112 0
M  V30 2375 C 229.284 1.9866 -0.713949 0
M  V30 2376 O 228.632 2.26965 0.264447 0
M  V30 2377 C 228.842 1.40007 -3.19686 0
M  V30 2378 C 230.19 1.85752 -3.81813 0
M  V30 2379 O 231.214 1.49715 -3.23209 0
M  V30 2380 O 230.073 2.5226 -4.84796 0
M  V30 2381 H 227.167 0.412919 -0.716538 0
M  V30 2382 H 229.713 0.116641 -1.69299 0
M  V30 2383 H 228.485 0.599404 -3.86682 0
M  V30 2384 H 228.108 2.218 -3.29986 0
M  V30 2385 N 229.106 1.52395 0.401703 0
M  V30 2386 C 230.352 1.67065 1.14966 0
M  V30 2387 C 230.685 0.403052 1.89971 0
M  V30 2388 O 229.96 -0.598774 1.85054 0
M  V30 2389 C 230.243 2.8975 2.13815 0
M  V30 2390 C 230.096 4.26578 1.42658 0
M  V30 2391 C 231.415 3.07965 3.14397 0
M  V30 2392 H 228.534 0.607968 0.416587 0
M  V30 2393 H 231.176 1.84965 0.434511 0
M  V30 2394 H 229.326 2.74619 2.74803 0
M  V30 2395 H 230.998 4.53451 0.847329 0
M  V30 2396 H 229.241 4.27639 0.72849 0
M  V30 2397 H 229.912 5.08483 2.14823 0
M  V30 2398 H 232.388 3.22043 2.63491 0
M  V30 2399 H 231.264 3.95308 3.80819 0
M  V30 2400 H 231.525 2.21611 3.82545 0
M  V30 2401 N 230.584 -0.659388 1.43143 0
M  V30 2402 C 231.833 -1.41518 1.43721 0
M  V30 2403 C 232.146 -1.95499 0.0628176 0
M  V30 2404 O 233.352 -2.71446 -0.0539683 0
M  V30 2405 C 231.808 -2.5608 2.52885 0
M  V30 2406 C 231.416 -2.08733 3.96402 0
M  V30 2407 C 233.16 -3.3349 2.62649 0
M  V30 2408 C 231.067 -3.20469 4.97045 0
M  V30 2409 H 229.997 -0.531705 0.534608 0
M  V30 2410 H 232.648 -0.712343 1.69109 0
M  V30 2411 H 231.03 -3.28805 2.20688 0
M  V30 2412 H 232.204 -1.43059 4.3803 0
M  V30 2413 H 230.519 -1.44219 3.90627 0
M  V30 2414 H 233.116 -4.16734 3.35017 0
M  V30 2415 H 233.459 -3.8111 1.67513 0
M  V30 2416 H 233.992 -2.67842 2.94118 0
M  V30 2417 H 230.731 -2.77824 5.93712 0
M  V30 2418 H 230.251 -3.84874 4.60034 0
M  V30 2419 H 231.93 -3.85698 5.19467 0
M  V30 2420 N 232.062 -1.29571 -0.897171 0
M  V30 2421 C 233.308 -1.18873 -1.65048 0
M  V30 2422 C 233.663 0.256707 -1.9068 0
M  V30 2423 O 232.956 1.18202 -1.50794 0
M  V30 2424 C 233.15 -1.9382 -3.00281 0
M  V30 2425 C 232.979 -3.45503 -2.8785 0
M  V30 2426 C 231.749 -4.14856 -2.88483 0
M  V30 2427 C 233.947 -4.40956 -2.64693 0
M  V30 2428 N 231.929 -5.52886 -2.66815 0
M  V30 2429 C 233.3 -5.66464 -2.5203 0
M  V30 2430 C 235.355 -4.3069 -2.49821 0
M  V30 2431 C 234.058 -6.82871 -2.26008 0
M  V30 2432 C 236.084 -5.46852 -2.25182 0
M  V30 2433 C 235.446 -6.71333 -2.13286 0
M  V30 2434 H 231.545 -0.489998 -0.609447 0
M  V30 2435 H 234.129 -1.63431 -1.05822 0
M  V30 2436 H 232.3 -1.51671 -3.57562 0
M  V30 2437 H 234.032 -1.75366 -3.64731 0
M  V30 2438 H 230.787 -3.66579 -2.99861 0
M  V30 2439 H 231.211 -6.25487 -2.59027 0
M  V30 2440 H 235.853 -3.35141 -2.5776 0
M  V30 2441 H 233.571 -7.78473 -2.16806 0
M  V30 2442 H 237.157 -5.40809 -2.14515 0
M  V30 2443 H 236.037 -7.59701 -1.94485 0
M  V30 2444 N 233.54 1.10788 -1.12088 0
M  V30 2445 C 234.487 2.17025 -0.785407 0
M  V30 2446 C 235.457 1.64265 0.246191 0
M  V30 2447 O 236.642 1.90412 0.121584 0
M  V30 2448 C 233.782 3.44249 -0.242177 0
M  V30 2449 C 232.895 4.1098 -1.33115 0
M  V30 2450 C 232.03 5.25911 -0.747741 0
M  V30 2451 C 231.069 5.84538 -1.81609 0
M  V30 2452 N 230.206 6.90853 -1.25167 0
M  V30 2453 H 235.046 2.45066 -1.69548 0
M  V30 2454 H 232.583 1.20297 -0.846582 0
M  V30 2455 H 234.541 4.17101 0.0908026 0
M  V30 2456 H 233.171 3.16571 0.631072 0
M  V30 2457 H 232.223 3.36133 -1.78097 0
M  V30 2458 H 233.535 4.50601 -2.13917 0
M  V30 2459 H 232.689 6.056 -0.365216 0
M  V30 2460 H 231.428 4.87614 0.0915188 0
M  V30 2461 H 230.433 5.03522 -2.20785 0
M  V30 2462 H 231.658 6.249 -2.6585 0
M  V30 2463 H 229.604 6.54562 -0.434174 0
M  V30 2464 H 229.521 7.29166 -1.99633 0
M  V30 2465 H 230.789 7.7433 -0.896259 0
M  V30 2466 N 235.018 0.912232 1.28515 0
M  V30 2467 C 236.243 0.559774 1.99703 0
M  V30 2468 C 236.668 -0.851393 1.67729 0
M  V30 2469 O 236.026 -1.56875 0.908834 0
M  V30 2470 C 236.074 0.773874 3.52198 0
M  V30 2471 O 235.178 -0.167842 4.12058 0
M  V30 2472 H 234.519 0.21723 0.627461 0
M  V30 2473 H 237.049 1.22725 1.63706 0
M  V30 2474 H 237.059 0.683386 4.02236 0
M  V30 2475 H 235.734 1.80261 3.74805 0
M  V30 2476 H 234.311 -0.0287509 3.72889 0
M  V30 2477 N 236.496 -1.42363 0.676048 0
M  V30 2478 C 237.444 -2.32596 -0.0131507 0
M  V30 2479 C 238.438 -1.49891 -0.789238 0
M  V30 2480 O 239.644 -1.65955 -0.697061 0
M  V30 2481 H 236.019 -0.751647 -0.0230481 0
M  V30 2482 H 237.99 -2.88421 0.765243 0
M  V30 2483 C 236.739 -3.34479 -0.949702 0
M  V30 2484 H 236.062 -3.98158 -0.361938 0
M  V30 2485 H 237.502 -4.00199 -1.4006 0
M  V30 2486 C 235.961 -2.66838 -2.05667 0
M  V30 2487 O 236.491 -2.50124 -3.14326 0
M  V30 2488 N 234.697 -2.25843 -1.82875 0
M  V30 2489 H 234.244 -2.39637 -0.945085 0
M  V30 2490 H 234.202 -1.80918 -2.5713 0
M  V30 2491 N 237.974 -0.419461 -1.51915 0
M  V30 2492 C 239.222 0.152637 -2.01523 0
M  V30 2493 C 239.543 1.44762 -1.30649 0
M  V30 2494 O 238.813 1.90997 -0.435535 0
M  V30 2495 H 237.393 0.0593966 -0.744635 0
M  V30 2496 H 240.055 -0.558073 -1.86739 0
M  V30 2497 H 239.151 0.341369 -3.10227 0
M  V30 2498 N 239.452 1.56882 -0.150215 0
M  V30 2499 C 240.677 2.01027 0.510184 0
M  V30 2500 C 241.102 1.02966 1.57415 0
M  V30 2501 O 240.46 0.00590158 1.81299 0
M  V30 2502 C 240.508 3.43899 1.08472 0
M  V30 2503 O 239.612 3.4885 2.19948 0
M  V30 2504 H 238.953 0.652233 0.124451 0
M  V30 2505 H 241.483 2.03093 -0.247894 0
M  V30 2506 H 241.493 3.82766 1.41259 0
M  V30 2507 H 240.168 4.14776 0.305582 0
M  V30 2508 H 238.745 3.21827 1.88366 0
M  V30 2509 N 240.93 -0.123565 1.57115 0
M  V30 2510 C 242.16 -0.845233 1.88519 0
M  V30 2511 C 242.568 -1.74168 0.739064 0
M  V30 2512 O 241.911 -1.81244 -0.299355 0
M  V30 2513 C 241.973 -1.73452 3.14888 0
M  V30 2514 C 241.637 -1.01285 4.45635 0
M  V30 2515 C 242.634 -0.355774 5.18681 0
M  V30 2516 C 240.319 -0.99538 4.92339 0
M  V30 2517 C 242.313 0.309114 6.3665 0
M  V30 2518 C 240 -0.32669 6.10226 0
M  V30 2519 C 240.998 0.324406 6.82229 0
M  V30 2520 O 240.686 0.982437 7.97874 0
M  V30 2521 H 240.418 -0.248534 0.628655 0
M  V30 2522 H 242.972 -0.113907 2.05084 0
M  V30 2523 H 241.202 -2.50737 2.94394 0
M  V30 2524 H 242.891 -2.33021 3.32349 0
M  V30 2525 H 243.657 -0.360918 4.83655 0
M  V30 2526 H 239.536 -1.49159 4.36202 0
M  V30 2527 H 243.08 0.8179 6.92789 0
M  V30 2528 H 238.977 -0.319294 6.4471 0
M  V30 2529 H 239.745 0.886454 8.13686 0
M  V30 2530 N 242.408 -1.52605 -0.393616 0
M  V30 2531 C 243.655 -1.67424 -1.1391 0
M  V30 2532 C 243.983 -0.411859 -1.90089 0
M  V30 2533 O 243.238 0.605626 -1.86093 0
M  V30 2534 C 243.537 -2.85721 -2.14705 0
M  V30 2535 C 243.203 -4.23342 -1.55218 0
M  V30 2536 C 241.865 -4.60771 -1.3872 0
M  V30 2537 C 244.217 -5.09041 -1.11924 0
M  V30 2538 C 241.545 -5.81563 -0.774689 0
M  V30 2539 C 243.897 -6.30452 -0.520853 0
M  V30 2540 C 242.561 -6.66617 -0.343134 0
M  V30 2541 H 241.831 -0.612648 -0.416826 0
M  V30 2542 H 244.478 -1.8674 -0.424315 0
M  V30 2543 H 242.783 -2.60803 -2.92385 0
M  V30 2544 H 244.48 -2.94382 -2.72288 0
M  V30 2545 H 241.07 -3.93855 -1.69045 0
M  V30 2546 H 245.254 -4.80695 -1.23473 0
M  V30 2547 H 240.51 -6.08196 -0.625154 0
M  V30 2548 H 244.684 -6.96175 -0.177065 0
M  V30 2549 H 242.311 -7.60083 0.133571 0
M  V30 2550 N 243.887 0.651787 -1.4349 0
M  V30 2551 C 245.117 1.43728 -1.48411 0
M  V30 2552 C 245.525 1.8893 -0.10103 0
M  V30 2553 O 244.868 1.60182 0.899307 0
M  V30 2554 C 244.93 2.70411 -2.36893 0
M  V30 2555 C 244.594 2.4714 -3.8441 0
M  V30 2556 C 245.591 2.10271 -4.75481 0
M  V30 2557 C 243.276 2.6142 -4.28912 0
M  V30 2558 C 245.27 1.87982 -6.0905 0
M  V30 2559 C 242.957 2.38746 -5.62533 0
M  V30 2560 C 243.955 2.02083 -6.5242 0
M  V30 2561 O 243.643 1.79647 -7.8357 0
M  V30 2562 H 243.375 0.447962 -0.506267 0
M  V30 2563 H 245.929 0.80624 -1.88915 0
M  V30 2564 H 244.159 3.36079 -1.91278 0
M  V30 2565 H 245.848 3.32364 -2.33 0
M  V30 2566 H 246.614 1.98814 -4.42378 0
M  V30 2567 H 242.493 2.88931 -3.59222 0
M  V30 2568 H 246.037 1.5929 -6.7917 0
M  V30 2569 H 241.934 2.49806 -5.95203 0
M  V30 2570 H 242.702 1.9406 -7.95162 0
M  V30 2571 N 245.365 1.30045 0.890287 0
M  V30 2572 C 246.593 1.21472 1.67487 0
M  V30 2573 C 247.008 -0.223241 1.87476 0
M  V30 2574 O 246.365 -1.14828 1.41847 0
M  V30 2575 C 246.416 1.93394 3.05419 0
M  V30 2576 O 246.137 3.31576 2.86337 0
M  V30 2577 C 247.638 1.91414 3.99844 0
M  V30 2578 H 244.858 0.420604 0.522813 0
M  V30 2579 H 247.402 1.7158 1.11268 0
M  V30 2580 H 245.557 1.47099 3.58386 0
M  V30 2581 H 245.971 3.67929 3.73802 0
M  V30 2582 H 247.445 2.46285 4.94012 0
M  V30 2583 H 247.922 0.891833 4.3005 0
M  V30 2584 H 248.528 2.37496 3.52811 0
M  V30 2585 N 246.843 -1.10192 1.12674 0
M  V30 2586 C 247.773 -2.18652 0.819362 0
M  V30 2587 C 248.754 -1.68698 -0.217915 0
M  V30 2588 O 249.939 -1.94041 -0.0785581 0
M  V30 2589 C 247.069 -3.46202 0.27594 0
M  V30 2590 C 246.023 -4.09444 1.24656 0
M  V30 2591 C 245.349 -5.31725 0.563258 0
M  V30 2592 C 246.649 -4.52863 2.60217 0
M  V30 2593 H 248.343 -2.44622 1.72628 0
M  V30 2594 H 245.889 -1.17571 0.831451 0
M  V30 2595 H 247.842 -4.21372 0.0486149 0
M  V30 2596 H 246.566 -3.1973 -0.666331 0
M  V30 2597 H 245.225 -3.36284 1.45974 0
M  V30 2598 H 244.873 -5.0153 -0.384235 0
M  V30 2599 H 244.573 -5.74991 1.21075 0
M  V30 2600 H 246.097 -6.09624 0.34503 0
M  V30 2601 H 247.511 -5.19294 2.42913 0
M  V30 2602 H 245.908 -5.06986 3.21068 0
M  V30 2603 H 246.978 -3.65656 3.18471 0
M  V30 2604 N 248.321 -0.919034 -1.28029 0
M  V30 2605 C 249.598 -0.473668 -1.89778 0
M  V30 2606 C 249.978 1.04783 -1.83259 0
M  V30 2607 O 249.326 1.8982 -1.27202 0
M  V30 2608 C 249.536 -1.00998 -3.34066 0
M  V30 2609 C 250.884 -1.06525 -4.1102 0
M  V30 2610 O 251.908 -0.958996 -3.43048 0
M  V30 2611 O 250.767 -1.22776 -5.3253 0
M  V30 2612 H 247.861 -0.15098 -0.813101 0
M  V30 2613 H 250.407 -1.01016 -1.36359 0
M  V30 2614 H 249.179 -2.05392 -3.33061 0
M  V30 2615 H 248.802 -0.454626 -3.94992 0
M  V30 2616 N 249.799 1.42003 -0.683588 0
M  V30 2617 C 251.045 2.02223 -0.218536 0
M  V30 2618 C 251.4 1.53126 1.16492 0
M  V30 2619 O 250.693 0.727459 1.77253 0
M  V30 2620 C 250.887 3.56827 -0.202357 0
M  V30 2621 C 250.716 4.20928 -1.5827 0
M  V30 2622 C 249.486 4.5573 -2.18262 0
M  V30 2623 C 251.684 4.47933 -2.52706 0
M  V30 2624 N 249.666 5.05056 -3.48986 0
M  V30 2625 C 251.037 4.98906 -3.68094 0
M  V30 2626 C 253.092 4.29931 -2.51125 0
M  V30 2627 C 251.795 5.33768 -4.82166 0
M  V30 2628 C 253.821 4.65875 -3.643 0
M  V30 2629 C 253.183 5.17008 -4.78417 0
M  V30 2630 H 249.282 0.771931 -0.125088 0
M  V30 2631 H 251.866 1.72729 -0.898479 0
M  V30 2632 H 250.037 3.85819 0.447029 0
M  V30 2633 H 251.769 4.03755 0.276399 0
M  V30 2634 H 248.524 4.41781 -1.70665 0
M  V30 2635 H 248.948 5.34139 -4.15962 0
M  V30 2636 H 253.59 3.89647 -1.6412 0
M  V30 2637 H 251.308 5.72981 -5.6984 0
M  V30 2638 H 254.894 4.53615 -3.64314 0
M  V30 2639 H 253.774 5.44301 -5.64541 0
M  V30 2640 N 251.277 0.427512 1.51691 0
M  V30 2641 C 252.227 -0.406604 2.24345 0
M  V30 2642 C 253.211 -0.998276 1.26187 0
M  V30 2643 O 254.403 -0.918045 1.51331 0
M  V30 2644 C 251.532 -1.51266 3.08177 0
M  V30 2645 C 250.618 -0.930868 4.13758 0
M  V30 2646 N 251.009 -0.0773552 5.05741 0
M  V30 2647 C 249.307 -1.19948 4.29568 0
M  V30 2648 C 250.008 0.248344 5.8117 0
M  V30 2649 N 248.984 -0.365535 5.4237 0
M  V30 2650 H 252.786 0.251581 2.92821 0
M  V30 2651 H 250.3 0.239003 1.60632 0
M  V30 2652 H 252.297 -2.123 3.58796 0
M  V30 2653 H 250.957 -2.17328 2.41244 0
M  V30 2654 H 251.968 0.288351 5.17097 0
M  V30 2655 H 248.645 -1.85832 3.73862 0
M  V30 2656 H 250.035 0.942286 6.6526 0
M  V30 2657 N 252.755 -1.56801 0.158532 0
M  V30 2658 C 253.665 -2.20916 -0.789518 0
M  V30 2659 C 254.681 -1.1969 -1.26294 0
M  V30 2660 O 255.857 -1.52308 -1.31773 0
M  V30 2661 C 252.922 -2.82727 -2.00665 0
M  V30 2662 C 251.983 -3.99114 -1.58134 0
M  V30 2663 C 251.216 -4.57968 -2.74045 0
M  V30 2664 O 251.439 -4.15704 -3.90572 0
M  V30 2665 O 250.373 -5.48047 -2.48855 0
M  V30 2666 H 254.199 -3.02464 -0.273681 0
M  V30 2667 H 251.784 -1.4924 -0.0690548 0
M  V30 2668 H 253.666 -3.21968 -2.71872 0
M  V30 2669 H 252.341 -2.04184 -2.51179 0
M  V30 2670 H 251.248 -3.64567 -0.839155 0
M  V30 2671 H 252.581 -4.79212 -1.12325 0
M  V30 2672 N 254.233 0.115231 -1.57178 0
M  V30 2673 C 255.196 1.12526 -1.99676 0
M  V30 2674 C 256.196 1.34095 -0.88742 0
M  V30 2675 O 257.386 1.30548 -1.15337 0
M  V30 2676 C 254.518 2.4789 -2.34015 0
M  V30 2677 H 255.711 0.759912 -2.90113 0
M  V30 2678 H 253.264 0.359648 -1.52106 0
M  V30 2679 H 253.999 2.89339 -1.4647 0
M  V30 2680 H 253.784 2.33588 -3.14927 0
M  V30 2681 H 255.274 3.20575 -2.67622 0
M  V30 2682 N 255.711 1.52812 0.385517 0
M  V30 2683 C 256.643 1.74096 1.49074 0
M  V30 2684 C 257.656 0.621462 1.50472 0
M  V30 2685 O 258.845 0.897245 1.54311 0
M  V30 2686 C 255.945 1.78774 2.87911 0
M  V30 2687 C 255.118 3.08134 3.10439 0
M  V30 2688 C 254.177 3.04313 4.29278 0
M  V30 2689 O 253.203 3.78168 4.25415 0
M  V30 2690 N 254.405 2.23741 5.35649 0
M  V30 2691 H 257.17 2.69455 1.31202 0
M  V30 2692 H 254.731 1.51343 0.575065 0
M  V30 2693 H 256.723 1.73721 3.65518 0
M  V30 2694 H 255.293 0.907869 2.99126 0
M  V30 2695 H 254.513 3.26649 2.20667 0
M  V30 2696 H 255.801 3.93662 3.22347 0
M  V30 2697 H 255.199 1.63211 5.41645 0
M  V30 2698 H 253.756 2.24524 6.11909 0
M  V30 2699 N 257.189 -0.644168 1.43834 0
M  V30 2700 C 258.466 -1.40188 1.36406 0
M  V30 2701 C 258.846 -2.11094 0.0163124 0
M  V30 2702 O 258.194 -2.05426 -1.00062 0
M  V30 2703 C 258.404 -2.3791 2.55343 0
M  V30 2704 C 259.752 -3.01637 2.98832 0
M  V30 2705 O 260.776 -2.48237 2.55455 0
M  V30 2706 O 259.635 -3.98477 3.74003 0
M  V30 2707 H 256.729 -0.626773 0.539523 0
M  V30 2708 H 259.275 -0.670317 1.559 0
M  V30 2709 H 258.047 -1.84525 3.4506 0
M  V30 2710 H 257.67 -3.18503 2.37995 0
M  V30 2711 N 258.668 -1.30515 -0.883378 0
M  V30 2712 C 259.916 -1.19194 -1.63209 0
M  V30 2713 C 260.237 0.253205 -1.93349 0
M  V30 2714 O 259.507 1.17025 -1.57105 0
M  V30 2715 H 258.087 -0.438148 -0.605009 0
M  V30 2716 H 260.749 -1.63663 -1.05832 0
M  V30 2717 H 259.845 -1.75396 -2.58153 0
M  V30 2718 N 260.146 1.09593 -1.13257 0
M  V30 2719 C 261.562 1.33775 -0.870423 0
M  V30 2720 C 261.762 1.95327 0.494926 0
M  V30 2721 O 260.818 2.19853 1.2418 0
M  V30 2722 C 262.131 2.25106 -1.99369 0
M  V30 2723 C 263.679 2.3862 -2.02558 0
M  V30 2724 C 264.154 3.33285 -3.14142 0
M  V30 2725 N 265.645 3.40857 -3.13641 0
M  V30 2726 C 266.38 4.14101 -3.96621 0
M  V30 2727 N 265.876 4.90157 -4.8961 0
M  V30 2728 N 267.669 4.09808 -3.84726 0
M  V30 2729 H 259.82 0.680136 -2.01216 0
M  V30 2730 H 262.083 0.362133 -0.876107 0
M  V30 2731 H 261.789 1.87103 -2.97801 0
M  V30 2732 H 261.663 3.25481 -1.90635 0
M  V30 2733 H 264.05 2.75887 -1.0474 0
M  V30 2734 H 264.131 1.38028 -2.15364 0
M  V30 2735 H 263.775 2.96741 -4.12198 0
M  V30 2736 H 263.705 4.33776 -2.98574 0
M  V30 2737 H 266.196 2.86624 -2.46282 0
M  V30 2738 H 266.509 5.4347 -5.49418 0
M  V30 2739 H 264.854 4.89251 -4.93617 0
M  V30 2740 H 268.045 3.4949 -3.11408 0
M  V30 2741 H 268.218 4.66629 -4.49623 0
M  V30 2742 N 261.624 0.925811 1.2754 0
M  V30 2743 C 262.871 0.565255 1.94451 0
M  V30 2744 C 263.199 -0.89316 1.7278 0
M  V30 2745 O 262.454 -1.65213 1.04895 0
M  V30 2746 C 262.753 0.835296 3.47502 0
M  V30 2747 C 262.419 2.27515 3.89291 0
M  V30 2748 C 261.081 2.66879 4.00411 0
M  V30 2749 C 263.433 3.21158 4.10496 0
M  V30 2750 C 260.761 3.99014 4.30122 0
M  V30 2751 C 263.113 4.52871 4.4169 0
M  V30 2752 C 261.777 4.92072 4.51023 0
M  V30 2753 H 261.047 0.206841 0.711546 0
M  V30 2754 H 263.694 1.16942 1.51647 0
M  V30 2755 H 261.999 0.148442 3.91519 0
M  V30 2756 H 263.696 0.535322 3.97411 0
M  V30 2757 H 260.286 1.95976 3.81171 0
M  V30 2758 H 264.47 2.9195 4.01346 0
M  V30 2759 H 259.726 4.2907 4.35556 0
M  V30 2760 H 263.9 5.25436 4.57045 0
M  V30 2761 H 261.527 5.9449 4.738 0
M  V30 2762 N 263.102 -1.41638 0.69111 0
M  V30 2763 C 264.032 -2.3347 0.037248 0
M  V30 2764 C 265.013 -1.51575 -0.771947 0
M  V30 2765 O 266.198 -1.80126 -0.72582 0
M  V30 2766 C 263.328 -3.35354 -0.903064 0
M  V30 2767 C 262.282 -4.27526 -0.201288 0
M  V30 2768 C 261.608 -5.19747 -1.25565 0
M  V30 2769 C 262.908 -5.13959 0.929689 0
M  V30 2770 H 264.602 -2.88397 0.804227 0
M  V30 2771 H 262.148 -1.38669 0.388189 0
M  V30 2772 H 264.101 -3.98519 -1.36969 0
M  V30 2773 H 262.825 -2.78767 -1.70166 0
M  V30 2774 H 261.484 -3.65779 0.245265 0
M  V30 2775 H 261.132 -4.59479 -2.04666 0
M  V30 2776 H 260.832 -5.8225 -0.791128 0
M  V30 2777 H 262.356 -5.85789 -1.72288 0
M  V30 2778 H 263.77 -5.70718 0.543546 0
M  V30 2779 H 262.167 -5.85379 1.32103 0
M  V30 2780 H 263.237 -4.51389 1.77133 0
M  V30 2781 N 264.58 -0.43555 -1.51462 0
M  V30 2782 C 265.51 0.367376 -2.30592 0
M  V30 2783 C 266.491 1.02263 -1.35928 0
M  V30 2784 O 267.676 1.02661 -1.64847 0
M  V30 2785 C 264.806 1.46983 -3.14664 0
M  V30 2786 C 263.76 0.938161 -4.17591 0
M  V30 2787 C 263.086 2.13622 -4.90173 0
M  V30 2788 C 264.386 -0.0261621 -5.22293 0
M  V30 2789 H 266.08 -0.292969 -2.97963 0
M  V30 2790 H 263.626 -0.14234 -1.43295 0
M  V30 2791 H 265.579 2.03873 -3.688 0
M  V30 2792 H 264.303 2.15843 -2.4511 0
M  V30 2793 H 262.962 0.391481 -3.64504 0
M  V30 2794 H 262.61 2.81098 -4.17124 0
M  V30 2795 H 262.31 1.78688 -5.59772 0
M  V30 2796 H 263.834 2.7107 -5.47132 0
M  V30 2797 H 265.248 0.452384 -5.71512 0
M  V30 2798 H 263.645 -0.287992 -5.99409 0
M  V30 2799 H 264.715 -0.963391 -4.75233 0
M  V30 2800 N 266.058 1.56714 -0.166846 0
M  V30 2801 C 266.99 2.14914 0.796537 0
M  V30 2802 C 268.003 1.10357 1.19688 0
M  V30 2803 O 269.192 1.37561 1.13751 0
M  V30 2804 C 266.292 2.67326 2.08303 0
M  V30 2805 C 265.465 3.96493 1.84696 0
M  V30 2806 C 264.524 4.34014 2.97521 0
M  V30 2807 O 263.55 5.01973 2.6835 0
M  V30 2808 N 264.752 3.95208 4.25196 0
M  V30 2809 H 267.517 2.98205 0.299006 0
M  V30 2810 H 265.078 1.61892 0.0160839 0
M  V30 2811 H 267.07 2.89428 2.82867 0
M  V30 2812 H 265.64 1.88649 2.4926 0
M  V30 2813 H 264.86 3.82814 0.940602 0
M  V30 2814 H 266.148 4.8086 1.66285 0
M  V30 2815 H 265.546 3.40487 4.51758 0
M  V30 2816 H 264.103 4.2232 4.96477 0
M  V30 2817 N 267.536 -0.106894 1.57237 0
M  V30 2818 C 268.466 -1.13148 2.04254 0
M  V30 2819 C 269.447 -1.42476 0.929224 0
M  V30 2820 O 270.632 -1.52709 1.19973 0
M  V30 2821 C 267.762 -2.4545 2.45706 0
M  V30 2822 C 266.716 -2.30558 3.60592 0
M  V30 2823 C 266.042 -3.67931 3.87983 0
M  V30 2824 C 267.342 -1.75597 4.91897 0
M  V30 2825 H 269.036 -0.740374 2.90101 0
M  V30 2826 H 266.582 -0.354696 1.39563 0
M  V30 2827 H 268.535 -3.17389 2.77205 0
M  V30 2828 H 267.259 -2.86475 1.56843 0
M  V30 2829 H 265.918 -1.61067 3.29322 0
M  V30 2830 H 265.566 -4.06462 2.96306 0
M  V30 2831 H 265.266 -3.58817 4.65322 0
M  V30 2832 H 266.79 -4.41356 4.21945 0
M  V30 2833 H 268.204 -2.37364 5.21854 0
M  V30 2834 H 266.601 -1.77272 5.73319 0
M  V30 2835 H 267.671 -0.714451 4.79608 0
M  V30 2836 N 269.014 -1.53014 -0.377408 0
M  V30 2837 C 270.425 -1.60438 -0.954798 0
M  V30 2838 C 270.776 -0.464418 -1.90624 0
M  V30 2839 O 269.901 0.41087 -2.12464 0
M  V30 2840 C 270.496 -2.90797 -1.73847 0
M  V30 2841 C 269.055 -3.00595 -2.26538 0
M  V30 2842 C 268.202 -2.55645 -1.07429 0
M  V30 2843 H 271.153 -1.57926 -0.156575 0
M  V30 2844 H 271.174 -2.77935 -2.5987 0
M  V30 2845 H 270.686 -3.73746 -1.04574 0
M  V30 2846 H 268.787 -2.22208 -2.99089 0
M  V30 2847 H 268.9 -4.05456 -2.5523 0
M  V30 2848 H 267.264 -2.10239 -1.43777 0
M  V30 2849 H 268.047 -3.41 -0.396728 0
M  V30 2850 N 270.492 0.636531 -1.44174 0
M  V30 2851 C 271.44 1.76995 -1.50915 0
M  V30 2852 C 272.434 1.65053 -0.381295 0
M  V30 2853 O 273.64 1.71197 -0.55601 0
M  V30 2854 H 270.015 0.584247 -0.473455 0
M  V30 2855 H 271.986 1.68432 -2.4632 0
M  V30 2856 C 270.735 3.15314 -1.46534 0
M  V30 2857 H 270.058 3.25149 -2.32633 0
M  V30 2858 H 271.498 3.9453 -1.55312 0
M  V30 2859 C 269.957 3.3639 -0.185305 0
M  V30 2860 O 270.487 3.94699 0.746688 0
M  V30 2861 N 268.693 2.9046 -0.0901606 0
M  V30 2862 H 268.24 2.43193 -0.849416 0
M  V30 2863 H 268.198 3.04937 0.765553 0
M  V30 2864 N 271.97 1.30982 0.876444 0
M  V30 2865 C 273.216 1.20474 1.63138 0
M  V30 2866 C 273.549 -0.238096 1.92735 0
M  V30 2867 O 272.824 -1.1692 1.55435 0
M  V30 2868 C 273.107 2.04244 2.96574 0
M  V30 2869 C 272.96 3.56793 2.73896 0
M  V30 2870 C 274.279 1.88684 3.97601 0
M  V30 2871 H 271.398 0.439001 0.591985 0
M  V30 2872 H 274.04 1.60704 1.01361 0
M  V30 2873 H 272.19 1.70063 3.493 0
M  V30 2874 H 273.862 4.01077 2.27892 0
M  V30 2875 H 272.105 3.80548 2.08245 0
M  V30 2876 H 272.776 4.10706 3.68815 0
M  V30 2877 H 275.252 2.18584 3.54062 0
M  V30 2878 H 274.128 2.4961 4.88862 0
M  V30 2879 H 274.389 0.848343 4.33884 0
M  V30 2880 N 273.449 -1.08991 1.13837 0
M  V30 2881 C 274.381 -2.15606 0.777612 0
M  V30 2882 C 275.394 -1.61533 -0.202739 0
M  V30 2883 O 276.583 -1.78491 0.0181055 0
M  V30 2884 C 273.683 -3.3864 0.132623 0
M  V30 2885 C 272.856 -4.22115 1.1462 0
M  V30 2886 C 271.915 -5.23564 0.526074 0
M  V30 2887 O 270.941 -5.56678 1.18735 0
M  V30 2888 N 272.143 -5.76266 -0.699866 0
M  V30 2889 H 274.908 -2.47159 1.69506 0
M  V30 2890 H 272.469 -1.24747 1.03198 0
M  V30 2891 H 274.461 -4.03626 -0.29459 0
M  V30 2892 H 273.031 -3.04938 -0.687849 0
M  V30 2893 H 272.251 -3.53199 1.75055 0
M  V30 2894 H 273.539 -4.74709 1.83109 0
M  V30 2895 H 272.937 -5.51585 -1.25581 0
M  V30 2896 H 271.494 -6.42963 -1.06968 0
M  V30 2897 N 274.927 -0.932562 -1.27047 0
M  V30 2898 C 276.338 -0.619451 -1.76124 0
M  V30 2899 C 276.689 0.865397 -1.76083 0
M  V30 2900 O 275.814 1.67722 -1.36742 0
M  V30 2901 C 276.409 -1.11771 -3.19832 0
M  V30 2902 C 274.968 -0.855174 -3.66557 0
M  V30 2903 C 274.115 -1.27362 -2.46321 0
M  V30 2904 H 277.066 -1.11181 -1.13245 0
M  V30 2905 H 277.087 -0.46759 -3.77616 0
M  V30 2906 H 276.599 -2.19842 -3.1983 0
M  V30 2907 H 274.7 0.211524 -3.71999 0
M  V30 2908 H 274.813 -1.47613 -4.55793 0
M  V30 2909 H 273.177 -0.692119 -2.45116 0
M  V30 2910 H 273.96 -2.36307 -2.49025 0
M  V30 2911 N 276.405 1.4127 -0.698611 0
M  V30 2912 C 277.816 1.84187 -0.305289 0
M  V30 2913 C 278.167 1.58449 1.15708 0
M  V30 2914 O 277.292 1.05651 1.88856 0
M  V30 2915 C 277.887 3.3435 -0.547314 0
M  V30 2916 C 276.446 3.75826 -0.207878 0
M  V30 2917 C 275.593 2.64647 -0.828099 0
M  V30 2918 H 278.544 1.30778 -0.89904 0
M  V30 2919 H 278.565 3.8001 0.192998 0
M  V30 2920 H 278.077 3.53051 -1.61172 0
M  V30 2921 H 276.178 3.62725 0.852143 0
M  V30 2922 H 276.291 4.74462 -0.665021 0
M  V30 2923 H 274.655 2.53395 -0.257458 0
M  V30 2924 H 275.438 2.86165 -1.89643 0
M  V30 2925 N 277.883 0.443576 1.51229 0
M  V30 2926 C 279.108 -0.121648 2.07043 0
M  V30 2927 C 279.533 -1.35156 1.30823 0
M  V30 2928 O 278.891 -1.7793 0.347934 0
M  V30 2929 C 278.939 -0.41624 3.5819 0
M  V30 2930 O 278.043 -1.50163 3.8409 0
M  V30 2931 H 277.384 0.000871367 0.663999 0
M  V30 2932 H 279.914 0.626706 1.94765 0
M  V30 2933 H 279.924 -0.664867 4.02546 0
M  V30 2934 H 278.599 0.482653 4.1309 0
M  V30 2935 H 277.176 -1.24248 3.51592 0
M  V30 2936 N 279.361 -1.56624 0.175154 0
M  V30 2937 C 280.586 -2.01813 -0.478137 0
M  V30 2938 C 281.011 -1.05457 -1.55757 0
M  V30 2939 O 280.369 -0.0347439 -1.81267 0
M  V30 2940 C 280.417 -3.45581 -1.02987 0
M  V30 2941 O 279.521 -3.52305 -2.14371 0
M  V30 2942 H 278.862 -0.65413 -0.114059 0
M  V30 2943 H 281.392 -2.02673 0.280173 0
M  V30 2944 H 281.402 -3.84965 -1.35151 0
M  V30 2945 H 280.077 -4.1521 -0.239556 0
M  V30 2946 H 278.654 -3.24783 -1.83222 0
M  V30 2947 N 280.839 0.0985539 -1.57292 0
M  V30 2948 C 282.087 0.801092 -1.85545 0
M  V30 2949 C 282.408 1.79438 -0.763353 0
M  V30 2950 O 281.678 1.94763 0.21073 0
M  V30 2951 H 280.258 0.29884 -0.684619 0
M  V30 2952 H 282.92 0.0810064 -1.94732 0
M  V30 2953 H 282.016 1.3338 -2.82163 0
M  V30 2954 N 282.317 1.53212 0.369288 0
M  V30 2955 C 283.566 1.68436 1.10961 0
M  V30 2956 C 283.879 0.440738 1.9057 0
M  V30 2957 O 285.085 0.473446 2.6734 0
M  V30 2958 C 283.541 2.97744 2.0218 0
M  V30 2959 C 283.149 4.29355 1.279 0
M  V30 2960 C 284.893 3.22334 2.76226 0
M  V30 2961 C 282.8 5.49755 2.17999 0
M  V30 2962 H 281.73 0.627568 0.41794 0
M  V30 2963 H 284.381 1.79713 0.370884 0
M  V30 2964 H 282.763 2.8026 2.79768 0
M  V30 2965 H 283.937 4.57458 0.554007 0
M  V30 2966 H 282.252 4.11179 0.657311 0
M  V30 2967 H 284.849 4.09471 3.43857 0
M  V30 2968 H 285.192 2.38238 3.41392 0
M  V30 2969 H 285.725 3.40475 2.05723 0
M  V30 2970 H 282.464 6.36318 1.57417 0
M  V30 2971 H 281.984 5.25937 2.88359 0
M  V30 2972 H 283.663 5.84401 2.77641 0
M  V30 2973 N 283.795 -0.628877 1.44509 0
M  V30 2974 C 285.025 -1.41349 1.50678 0
M  V30 2975 C 285.433 -1.88745 0.131075 0
M  V30 2976 O 284.776 -1.61592 -0.87371 0
M  V30 2977 C 284.838 -2.66608 2.41165 0
M  V30 2978 C 284.502 -2.40993 3.88293 0
M  V30 2979 C 285.499 -2.0268 4.78766 0
M  V30 2980 C 283.184 -2.54563 4.33016 0
M  V30 2981 C 285.178 -1.78269 6.11963 0
M  V30 2982 C 282.865 -2.29766 5.6626 0
M  V30 2983 C 283.863 -1.91678 6.55552 0
M  V30 2984 O 283.551 -1.67158 7.86329 0
M  V30 2985 H 283.283 -0.439851 0.51333 0
M  V30 2986 H 285.837 -0.776084 1.90174 0
M  V30 2987 H 284.067 -3.32994 1.96601 0
M  V30 2988 H 285.756 -3.28615 2.38259 0
M  V30 2989 H 286.522 -1.91751 4.45485 0
M  V30 2990 H 282.401 -2.83179 3.63773 0
M  V30 2991 H 285.945 -1.48465 6.81619 0
M  V30 2992 H 281.842 -2.40306 5.99102 0
M  V30 2993 H 282.61 -1.81386 7.98149 0
M  V30 2994 N 285.273 -1.31445 -0.869486 0
M  V30 2995 C 286.498 -1.24256 -1.66058 0
M  V30 2996 C 286.923 0.188928 -1.87149 0
M  V30 2997 O 286.281 1.13522 -1.4136 0
M  V30 2998 C 286.329 -1.9924 -3.00559 0
M  V30 2999 O 285.433 -1.33007 -3.90362 0
M  V30 3000 H 284.774 -0.428973 -0.506831 0
M  V30 3001 H 287.304 -1.73521 -1.08404 0
M  V30 3002 H 287.314 -2.08854 -3.50491 0
M  V30 3003 H 285.989 -3.03342 -2.84528 0
M  V30 3004 H 284.566 -1.31848 -3.48813 0
M  V30 3005 N 286.751 1.08385 -1.14413 0
M  V30 3006 C 287.714 2.13486 -0.834048 0
M  V30 3007 C 288.714 1.59988 0.161418 0
M  V30 3008 O 289.904 1.74071 -0.0669575 0
M  V30 3009 C 287.036 3.4003 -0.243354 0
M  V30 3010 H 288.229 2.42425 -1.7655 0
M  V30 3011 H 285.782 1.24101 -0.950189 0
M  V30 3012 H 286.517 3.16726 0.696807 0
M  V30 3013 H 286.302 3.80157 -0.960367 0
M  V30 3014 H 287.792 4.17577 -0.0436242 0
M  V30 3015 N 288.23 0.939286 1.26551 0
M  V30 3016 C 289.458 0.602536 1.97932 0
M  V30 3017 C 289.873 -0.82206 1.69964 0
M  V30 3018 O 289.23 -1.54789 0.966784 0
M  V30 3019 C 289.281 0.832946 3.51773 0
M  V30 3020 O 289.002 2.20151 3.78768 0
M  V30 3021 C 290.503 0.506483 4.40397 0
M  V30 3022 H 287.723 0.227248 0.631347 0
M  V30 3023 H 290.267 1.25948 1.61113 0
M  V30 3024 H 288.422 0.222644 3.8676 0
M  V30 3025 H 288.836 2.26013 4.73306 0
M  V30 3026 H 290.31 0.718333 5.47306 0
M  V30 3027 H 290.787 -0.558451 4.35635 0
M  V30 3028 H 291.393 1.09543 4.10951 0
M  V30 3029 N 289.708 -1.40897 0.706093 0
M  V30 3030 C 290.938 -2.05075 0.250523 0
M  V30 3031 C 291.346 -1.53275 -1.10921 0
M  V30 3032 O 290.689 -0.680281 -1.7064 0
M  V30 3033 C 290.751 -3.59219 0.142178 0
M  V30 3034 C 290.415 -4.33864 1.43566 0
M  V30 3035 C 291.412 -4.62448 2.37566 0
M  V30 3036 C 289.097 -4.72946 1.69195 0
M  V30 3037 C 291.091 -5.29088 3.5545 0
M  V30 3038 C 288.778 -5.3932 2.87362 0
M  V30 3039 C 289.776 -5.6732 3.80312 0
M  V30 3040 O 289.464 -6.32325 4.96408 0
M  V30 3041 H 289.196 -0.666645 0.112074 0
M  V30 3042 H 291.75 -1.81467 0.962239 0
M  V30 3043 H 289.98 -3.81609 -0.6254 0
M  V30 3044 H 291.669 -4.0495 -0.277584 0
M  V30 3045 H 292.435 -4.32727 2.19027 0
M  V30 3046 H 288.314 -4.50527 0.977042 0
M  V30 3047 H 291.858 -5.50859 4.28018 0
M  V30 3048 H 287.755 -5.68461 3.05814 0
M  V30 3049 H 288.523 -6.50821 4.9636 0
M  V30 3050 N 291.186 -0.45159 -1.50991 0
M  V30 3051 C 292.116 0.342898 -2.30969 0
M  V30 3052 C 293.097 1.00815 -1.37005 0
M  V30 3053 O 294.282 1.00907 -1.65926 0
M  V30 3054 C 291.412 1.43637 -3.16205 0
M  V30 3055 C 290.366 0.893818 -4.18563 0
M  V30 3056 C 289.692 2.08411 -4.92411 0
M  V30 3057 C 290.992 -0.0815568 -5.22236 0
M  V30 3058 H 292.686 -0.324556 -2.97636 0
M  V30 3059 H 290.232 -0.157531 -1.43136 0
M  V30 3060 H 292.185 1.9995 -3.70942 0
M  V30 3061 H 290.909 2.13232 -2.47386 0
M  V30 3062 H 289.568 0.352798 -3.64898 0
M  V30 3063 H 289.216 2.76658 -4.20082 0
M  V30 3064 H 288.916 1.72741 -5.61636 0
M  V30 3065 H 290.44 2.65251 -5.49976 0
M  V30 3066 H 291.854 0.391742 -5.7196 0
M  V30 3067 H 290.251 -0.351551 -5.99069 0
M  V30 3068 H 291.321 -1.01374 -4.74185 0
M  V30 3069 N 292.664 1.56529 -0.183458 0
M  V30 3070 C 293.574 2.22144 0.754272 0
M  V30 3071 C 294.59 1.21684 1.24374 0
M  V30 3072 O 295.766 1.54385 1.29333 0
M  V30 3073 C 292.831 2.85884 1.96141 0
M  V30 3074 C 291.892 4.01579 1.51765 0
M  V30 3075 C 291.125 4.6227 2.66725 0
M  V30 3076 O 291.348 4.21865 3.83909 0
M  V30 3077 O 290.282 5.51936 2.40104 0
M  V30 3078 H 294.108 3.02861 0.225527 0
M  V30 3079 H 291.693 1.49331 0.0453032 0
M  V30 3080 H 293.575 3.26253 2.66715 0
M  V30 3081 H 292.25 2.08154 2.47899 0
M  V30 3082 H 291.157 3.65856 0.781049 0
M  V30 3083 H 292.49 4.80938 1.04686 0
M  V30 3084 N 294.142 -0.090211 1.57342 0
M  V30 3085 C 295.105 -1.09335 2.01441 0
M  V30 3086 C 296.105 -1.32666 0.908641 0
M  V30 3087 O 297.295 -1.28697 1.174 0
M  V30 3088 C 294.427 -2.44136 2.3793 0
M  V30 3089 H 295.62 -0.713662 2.91285 0
M  V30 3090 H 293.173 -0.335404 1.52659 0
M  V30 3091 H 293.908 -2.86972 1.51055 0
M  V30 3092 H 293.693 -2.28548 3.18603 0
M  V30 3093 H 295.183 -3.16277 2.72688 0
M  V30 3094 N 295.62 -1.53406 -0.361157 0
M  V30 3095 C 296.845 -1.74024 -1.12829 0
M  V30 3096 C 297.27 -0.470069 -1.82132 0
M  V30 3097 O 296.628 0.57619 -1.719 0
M  V30 3098 C 296.676 -2.90903 -2.13091 0
M  V30 3099 O 295.78 -2.59821 -3.20261 0
M  V30 3100 H 295.121 -0.577804 -0.327168 0
M  V30 3101 H 297.651 -2.00307 -0.41693 0
M  V30 3102 H 297.661 -3.17194 -2.56616 0
M  V30 3103 H 296.336 -3.83034 -1.62042 0
M  V30 3104 H 294.913 -2.44362 -2.81677 0
M  V30 3105 N 297.098 0.621204 -1.44841 0
M  V30 3106 C 298.509 1.20298 -1.42777 0
M  V30 3107 C 298.86 1.95639 -0.148259 0
M  V30 3108 O 297.985 2.02955 0.750892 0
M  V30 3109 C 298.58 2.1882 -2.58657 0
M  V30 3110 C 297.139 2.72403 -2.59756 0
M  V30 3111 C 296.286 1.4757 -2.34773 0
M  V30 3112 H 299.237 0.411297 -1.53278 0
M  V30 3113 H 299.258 3.01607 -2.31977 0
M  V30 3114 H 298.77 1.63957 -3.51766 0
M  V30 3115 H 296.871 3.31242 -1.70615 0
M  V30 3116 H 296.984 3.17765 -3.58556 0
M  V30 3117 H 295.348 1.76051 -1.8406 0
M  V30 3118 H 296.131 0.945954 -3.3001 0
M  V30 3119 N 298.576 1.31904 0.862503 0
M  V30 3120 C 299.506 1.22782 1.98612 0
M  V30 3121 C 300.487 0.113362 1.69722 0
M  V30 3122 O 301.672 0.299218 1.91881 0
M  V30 3123 C 298.802 0.942058 3.34279 0
M  V30 3124 C 297.756 2.0169 3.77499 0
M  V30 3125 C 297.082 1.58369 5.10709 0
M  V30 3126 C 298.382 3.43096 3.93805 0
M  V30 3127 H 300.076 2.16788 2.06502 0
M  V30 3128 H 297.622 1.04366 0.992154 0
M  V30 3129 H 299.575 0.864818 4.1243 0
M  V30 3130 H 298.299 -0.0336603 3.26583 0
M  V30 3131 H 296.958 2.08416 3.01593 0
M  V30 3132 H 296.606 0.595628 4.99461 0
M  V30 3133 H 296.306 2.30279 5.40597 0
M  V30 3134 H 297.83 1.52067 5.91361 0
M  V30 3135 H 299.244 3.39003 4.62331 0
M  V30 3136 H 297.641 4.13288 4.35101 0
M  V30 3137 H 298.711 3.83334 2.96957 0
M  V30 3138 N 300.054 -1.07777 1.14986 0
M  V30 3139 C 301.302 -1.79934 0.920235 0
M  V30 3140 C 301.623 -1.86955 -0.554336 0
M  V30 3141 O 300.893 -1.36731 -1.40291 0
M  V30 3142 H 299.473 -0.666424 0.337473 0
M  V30 3143 H 302.135 -1.3027 1.44968 0
M  V30 3144 H 301.231 -2.82539 1.32583 0
M  V30 3145 N 301.532 -0.945985 -1.26051 0
M  V30 3146 C 302.757 -0.612525 -1.98149 0
M  V30 3147 C 303.182 0.806623 -1.69927 0
M  V30 3148 O 302.54 1.54411 -0.950108 0
M  V30 3149 C 302.588 -0.866981 -3.50023 0
M  V30 3150 O 301.692 0.0585333 -4.12358 0
M  V30 3151 H 301.033 -0.23379 -0.621481 0
M  V30 3152 H 303.563 -1.27023 -1.60395 0
M  V30 3153 H 303.573 -0.789792 -4.00283 0
M  V30 3154 H 302.248 -1.90135 -3.69894 0
M  V30 3155 H 300.825 -0.0701241 -3.72834 0
M  V30 3156 N 303.011 1.40521 -0.713556 0
M  V30 3157 C 303.974 2.29098 -0.0684347 0
M  V30 3158 C 304.974 1.45268 0.689472 0
M  V30 3159 O 306.164 1.66205 0.521677 0
M  V30 3160 C 303.296 3.28446 0.913024 0
M  V30 3161 H 304.489 2.87645 -0.84855 0
M  V30 3162 H 302.042 1.48809 -0.47809 0
M  V30 3163 H 302.777 2.74913 1.72027 0
M  V30 3164 H 302.562 3.90327 0.372472 0
M  V30 3165 H 304.052 3.94777 1.36165 0
M  V30 3166 N 304.489 0.459591 1.5075 0
M  V30 3167 C 305.736 -0.0993495 2.02256 0
M  V30 3168 C 306.064 -1.40751 1.34237 0
M  V30 3169 O 305.319 -1.90379 0.453228 0
M  V30 3170 C 305.618 -0.342866 3.55752 0
M  V30 3171 C 305.284 0.88218 4.42186 0
M  V30 3172 C 303.946 1.21808 4.65528 0
M  V30 3173 C 306.298 1.69837 4.92752 0
M  V30 3174 C 303.626 2.37045 5.36681 0
M  V30 3175 C 305.978 2.84192 5.65171 0
M  V30 3176 C 304.642 3.1821 5.8677 0
M  V30 3177 H 303.912 -0.0363545 0.740108 0
M  V30 3178 H 306.559 0.611329 1.8148 0
M  V30 3179 H 304.864 -1.13567 3.7498 0
M  V30 3180 H 306.561 -0.789121 3.93159 0
M  V30 3181 H 303.151 0.610467 4.2423 0
M  V30 3182 H 307.335 1.45205 4.74583 0
M  V30 3183 H 302.591 2.63689 5.51614 0
M  V30 3184 H 306.765 3.4779 6.03337 0
M  V30 3185 H 304.392 4.07613 6.41682 0
M  V30 3186 N 305.967 -1.56429 0.191757 0
M  V30 3187 C 307.214 -1.97485 -0.447891 0
M  V30 3188 C 307.542 -1.07852 -1.61859 0
M  V30 3189 O 306.797 -0.116903 -1.95351 0
M  V30 3190 C 307.096 -3.44449 -0.953384 0
M  V30 3191 C 306.762 -4.50781 0.103586 0
M  V30 3192 C 305.424 -4.79584 0.394023 0
M  V30 3193 C 307.776 -5.1471 0.819946 0
M  V30 3194 C 305.104 -5.69607 1.40585 0
M  V30 3195 C 307.456 -6.05827 1.8209 0
M  V30 3196 C 306.12 -6.32987 2.11857 0
M  V30 3197 H 305.39 -0.722648 -0.163895 0
M  V30 3198 H 308.037 -1.89322 0.28802 0
M  V30 3199 H 306.342 -3.49666 -1.76751 0
M  V30 3200 H 308.039 -3.73569 -1.45765 0
M  V30 3201 H 304.629 -4.28394 -0.132951 0
M  V30 3202 H 308.813 -4.92552 0.608789 0
M  V30 3203 H 304.069 -5.88926 1.64243 0
M  V30 3204 H 308.243 -6.54424 2.38123 0
M  V30 3205 H 305.87 -7.02544 2.90407 0
M  V30 3206 N 307.445 0.0818655 -1.57387 0
M  V30 3207 C 308.861 0.436412 -1.53517 0
M  V30 3208 C 309.061 1.79758 -0.910459 0
M  V30 3209 O 308.117 2.47324 -0.508636 0
M  V30 3210 C 309.43 0.386734 -2.98203 0
M  V30 3211 C 310.978 0.467644 -3.09487 0
M  V30 3212 C 311.453 0.447978 -4.55804 0
M  V30 3213 N 312.944 0.508348 -4.60402 0
M  V30 3214 C 313.679 0.515184 -5.71081 0
M  V30 3215 N 313.175 0.477435 -6.91153 0
M  V30 3216 N 314.968 0.560988 -5.59294 0
M  V30 3217 H 307.119 -0.809546 -1.96367 0
M  V30 3218 H 309.382 -0.302733 -0.898363 0
M  V30 3219 H 309.088 -0.546539 -3.47427 0
M  V30 3220 H 308.962 1.20075 -3.57578 0
M  V30 3221 H 311.349 1.39134 -2.60242 0
M  V30 3222 H 311.43 -0.374753 -2.5304 0
M  V30 3223 H 311.074 -0.471826 -5.05704 0
M  V30 3224 H 311.004 1.30777 -5.10103 0
M  V30 3225 H 313.495 0.54218 -3.7399 0
M  V30 3226 H 313.808 0.486299 -7.71268 0
M  V30 3227 H 312.153 0.444278 -6.93579 0
M  V30 3228 H 315.344 0.5881 -4.64391 0
M  V30 3229 H 315.517 0.562846 -6.45551 0
M  V30 3230 N 308.923 1.53595 0.353017 0
M  V30 3231 C 309.853 1.83902 1.43883 0
M  V30 3232 C 310.834 0.693421 1.55324 0
M  V30 3233 O 312.019 0.944452 1.69687 0
M  V30 3234 C 309.149 2.04016 2.8106 0
M  V30 3235 C 308.103 3.19814 2.84434 0
M  V30 3236 C 307.429 3.25244 4.24406 0
M  V30 3237 C 308.729 4.58133 2.50822 0
M  V30 3238 H 310.423 2.74835 1.1877 0
M  V30 3239 H 307.969 1.32242 0.569917 0
M  V30 3240 H 309.922 2.238 3.57059 0
M  V30 3241 H 308.646 1.09804 3.07588 0
M  V30 3242 H 307.305 2.9987 2.10887 0
M  V30 3243 H 306.953 2.28646 4.48029 0
M  V30 3244 H 306.653 4.03054 4.27576 0
M  V30 3245 H 308.177 3.47228 5.0226 0
M  V30 3246 H 309.591 4.77995 3.16534 0
M  V30 3247 H 307.988 5.38276 2.6529 0
M  V30 3248 H 309.058 4.62387 1.46034 0
M  V30 3249 N 310.401 -0.613514 1.45168 0
M  V30 3250 C 311.65 -1.36874 1.4815 0
M  V30 3251 C 311.963 -1.952 0.124982 0
M  V30 3252 O 313.169 -2.71481 0.0324176 0
M  V30 3253 C 311.625 -2.47905 2.60904 0
M  V30 3254 C 311.233 -1.96016 4.02842 0
M  V30 3255 C 312.977 -3.24965 2.73126 0
M  V30 3256 C 310.884 -3.04494 5.06988 0
M  V30 3257 H 309.814 -0.514428 0.551253 0
M  V30 3258 H 312.465 -0.658182 1.7129 0
M  V30 3259 H 310.847 -3.21618 2.31037 0
M  V30 3260 H 312.021 -1.29051 4.4236 0
M  V30 3261 H 310.336 -1.31719 3.95018 0
M  V30 3262 H 312.933 -4.05865 3.48106 0
M  V30 3263 H 313.276 -3.75588 1.79553 0
M  V30 3264 H 313.809 -2.5835 3.0249 0
M  V30 3265 H 310.548 -2.58795 6.0225 0
M  V30 3266 H 310.068 -3.70044 4.72046 0
M  V30 3267 H 311.747 -3.68976 5.31475 0
M  V30 3268 N 311.879 -1.3236 -0.855495 0
M  V30 3269 C 313.125 -1.23054 -1.612 0
M  V30 3270 C 313.458 0.207404 -1.93089 0
M  V30 3271 O 312.733 1.14432 -1.57275 0
M  V30 3272 C 313.016 -2.08937 -2.93287 0
M  V30 3273 C 312.869 -3.61105 -2.68185 0
M  V30 3274 C 314.188 -1.94986 -3.94549 0
M  V30 3275 H 311.307 -0.448364 -0.584926 0
M  V30 3276 H 313.949 -1.62297 -0.987917 0
M  V30 3277 H 312.099 -1.75599 -3.46551 0
M  V30 3278 H 313.771 -4.04652 -2.21483 0
M  V30 3279 H 312.014 -3.83813 -2.02164 0
M  V30 3280 H 312.685 -4.16522 -3.62234 0
M  V30 3281 H 315.161 -2.24189 -3.5054 0
M  V30 3282 H 314.037 -2.57356 -4.84829 0
M  V30 3283 H 314.298 -0.917263 -4.3248 0
M  V30 3284 N 313.357 1.07166 -1.15556 0
M  V30 3285 C 314.773 1.31899 -0.898603 0
M  V30 3286 C 314.973 1.96333 0.453383 0
M  V30 3287 O 314.029 2.22438 1.19489 0
M  V30 3288 C 315.342 2.20826 -2.04099 0
M  V30 3289 C 316.89 2.34269 -2.07574 0
M  V30 3290 C 317.365 3.26546 -3.21141 0
M  V30 3291 N 318.856 3.34127 -3.20801 0
M  V30 3292 C 319.591 4.05595 -4.05315 0
M  V30 3293 N 319.087 4.79661 -4.99897 0
M  V30 3294 N 320.88 4.01555 -3.93332 0
M  V30 3295 H 313.031 0.637302 -2.02613 0
M  V30 3296 H 315.294 0.343468 -0.883591 0
M  V30 3297 H 315 1.80744 -3.01703 0
M  V30 3298 H 314.874 3.21364 -1.97496 0
M  V30 3299 H 317.261 2.73603 -1.10568 0
M  V30 3300 H 317.342 1.33429 -2.18244 0
M  V30 3301 H 316.986 2.87931 -4.184 0
M  V30 3302 H 316.916 4.27345 -3.07708 0
M  V30 3303 H 319.407 2.81336 -2.52306 0
M  V30 3304 H 319.72 5.31694 -5.60822 0
M  V30 3305 H 318.065 4.78671 -5.03884 0
M  V30 3306 H 321.256 3.42806 -3.18751 0
M  V30 3307 H 321.429 4.56987 -4.5942 0
M  V30 3308 N 314.835 0.952656 1.25548 0
M  V30 3309 C 316.083 0.605176 1.92826 0
M  V30 3310 C 316.404 -0.860261 1.74999 0
M  V30 3311 O 315.674 -1.6125 1.11244 0
M  V30 3312 H 314.254 0.220832 0.713612 0
M  V30 3313 H 316.916 1.21047 1.52754 0
M  V30 3314 H 316.012 0.832798 3.00784 0
M  V30 3315 N 316.313 -1.40141 0.720998 0
M  V30 3316 C 317.553 -2.02644 0.267335 0
M  V30 3317 C 317.917 -1.55948 -1.12001 0
M  V30 3318 O 319.118 -2.10552 -1.67097 0
M  V30 3319 C 317.389 -3.55679 0.350281 0
M  V30 3320 S 318.948 -4.38793 -0.0256004 0
M  V30 3321 H 315.766 -0.703105 0.105664 0
M  V30 3322 H 318.368 -1.71175 0.944416 0
M  V30 3323 H 317.072 -3.87157 1.36153 0
M  V30 3324 H 316.603 -3.91883 -0.345096 0
M  V30 3325 H 318.618 -4.803 -1.24604 0
M  V30 3326 N 317.792 -0.46758 -1.50504 0
M  V30 3327 C 319.04 0.0884469 -2.01906 0
M  V30 3328 C 319.361 1.40532 -1.35188 0
M  V30 3329 O 318.631 1.89515 -0.496079 0
M  V30 3330 H 317.211 0.0356765 -0.746148 0
M  V30 3331 H 319.873 -0.6172 -1.84869 0
M  V30 3332 H 318.969 0.2425 -3.11156 0
M  V30 3333 N 319.27 1.56325 -0.20005 0
M  V30 3334 C 320.233 2.18084 0.705132 0
M  V30 3335 C 321.233 1.13666 1.1374 0
M  V30 3336 O 322.423 1.39023 1.04968 0
M  V30 3337 C 319.555 2.78689 1.96329 0
M  V30 3338 H 320.748 2.99435 0.167023 0
M  V30 3339 H 318.301 1.56221 0.0495725 0
M  V30 3340 H 319.036 2.0115 2.5438 0
M  V30 3341 H 318.821 3.55133 1.66202 0
M  V30 3342 H 320.311 3.26096 2.60866 0
M  V30 3343 N 320.748 -0.0735177 1.57428 0
M  V30 3344 C 321.996 -0.771472 1.86796 0
M  V30 3345 C 322.317 -1.78201 0.791804 0
M  V30 3346 O 321.587 -1.95074 -0.179718 0
M  V30 3347 H 320.167 -0.28791 0.689287 0
M  V30 3348 H 322.829 -0.0500161 1.94836 0
M  V30 3349 H 321.925 -1.28874 2.8425 0
M  V30 3350 N 322.226 -1.5378 -0.344866 0
M  V30 3351 C 323.642 -1.44015 -0.687888 0
M  V30 3352 C 323.842 -0.595834 -1.92489 0
M  V30 3353 O 322.898 -0.0863064 -2.52352 0
M  V30 3354 C 324.211 -2.87481 -0.881758 0
M  V30 3355 C 325.759 -2.97247 -0.980459 0
M  V30 3356 C 326.234 -4.41819 -1.20665 0
M  V30 3357 N 327.725 -4.45339 -1.27389 0
M  V30 3358 C 328.46 -5.54333 -1.46639 0
M  V30 3359 N 327.956 -6.73335 -1.63071 0
M  V30 3360 N 329.749 -5.41944 -1.49176 0
M  V30 3361 H 321.9 -2.07169 0.468475 0
M  V30 3362 H 324.163 -0.93643 0.147655 0
M  V30 3363 H 323.869 -3.51672 -0.0443444 0
M  V30 3364 H 323.743 -3.32352 -1.78388 0
M  V30 3365 H 326.13 -2.33197 -1.8084 0
M  V30 3366 H 326.211 -2.5574 -0.0552713 0
M  V30 3367 H 325.855 -5.06449 -0.383652 0
M  V30 3368 H 325.785 -4.80917 -2.14539 0
M  V30 3369 H 328.276 -3.59585 -1.1622 0
M  V30 3370 H 328.589 -7.52165 -1.77391 0
M  V30 3371 H 326.934 -6.76282 -1.60209 0
M  V30 3372 H 330.125 -4.47932 -1.3592 0
M  V30 3373 H 330.298 -6.26946 -1.63837 0
M  V30 3374 N 323.704 0.605807 -1.45491 0
M  V30 3375 C 324.95 1.36481 -1.50813 0
M  V30 3376 C 325.305 1.91826 -0.148469 0
M  V30 3377 O 324.598 1.72211 0.839869 0
M  V30 3378 C 324.792 2.53012 -2.52428 0
M  V30 3379 C 324.621 2.09078 -3.98141 0
M  V30 3380 C 323.391 1.95167 -4.66088 0
M  V30 3381 C 325.589 1.66438 -4.86624 0
M  V30 3382 N 323.571 1.45062 -5.96515 0
M  V30 3383 C 324.942 1.27761 -6.06694 0
M  V30 3384 C 326.997 1.54046 -4.7347 0
M  V30 3385 C 325.7 0.779286 -7.15066 0
M  V30 3386 C 327.726 1.05618 -5.81892 0
M  V30 3387 C 327.088 0.67906 -7.01119 0
M  V30 3388 H 323.187 0.493267 -0.606805 0
M  V30 3389 H 325.771 0.692347 -1.81974 0
M  V30 3390 H 323.942 3.17851 -2.23215 0
M  V30 3391 H 325.674 3.19897 -2.47887 0
M  V30 3392 H 322.429 2.16407 -4.21266 0
M  V30 3393 H 322.853 1.22237 -6.65873 0
M  V30 3394 H 327.495 1.81827 -3.81705 0
M  V30 3395 H 325.213 0.489026 -8.06619 0
M  V30 3396 H 328.799 0.964529 -5.73749 0
M  V30 3397 H 327.679 0.310091 -7.83587 0
M  V30 3398 N 325.182 1.32811 0.848464 0
M  V30 3399 C 326.43 1.23479 1.59991 0
M  V30 3400 C 326.751 -0.201853 1.93952 0
M  V30 3401 O 326.021 -1.12818 1.60153 0
M  V30 3402 H 324.601 0.454034 0.593179 0
M  V30 3403 H 327.263 1.66412 1.01455 0
M  V30 3404 H 326.359 1.82178 2.53412 0
M  V30 3405 N 326.66 -1.06551 1.16123 0
M  V30 3406 C 328.071 -1.60768 0.949232 0
M  V30 3407 C 328.422 -1.89523 -0.507508 0
M  V30 3408 O 327.547 -1.66671 -1.38021 0
M  V30 3409 C 328.142 -2.92086 1.71671 0
M  V30 3410 C 326.701 -3.43015 1.54977 0
M  V30 3411 C 325.848 -2.16947 1.72711 0
M  V30 3412 H 328.799 -0.895354 1.31031 0
M  V30 3413 H 328.82 -3.6138 1.19099 0
M  V30 3414 H 328.332 -2.71127 2.7769 0
M  V30 3415 H 326.433 -3.69039 0.513873 0
M  V30 3416 H 326.546 -4.18516 2.33198 0
M  V30 3417 H 324.91 -2.27041 1.15431 0
M  V30 3418 H 325.693 -1.98473 2.80113 0
M  V30 3419 N 328.138 -0.959301 -1.25041 0
M  V30 3420 C 329.386 -0.615393 -1.92503 0
M  V30 3421 C 329.707 0.850969 -1.75452 0
M  V30 3422 O 328.977 1.60658 -1.12098 0
M  V30 3423 H 327.557 -0.224613 -0.712431 0
M  V30 3424 H 330.219 -1.21855 -1.5211 0
M  V30 3425 H 329.315 -0.848738 -3.00338 0
M  V30 3426 N 329.616 1.39756 -0.72842 0
M  V30 3427 C 330.856 2.025 -0.278078 0
M  V30 3428 C 331.22 1.5654 1.11173 0
M  V30 3429 O 332.421 2.11435 1.65978 0
M  V30 3430 C 330.692 3.55489 -0.369139 0
M  V30 3431 S 332.251 4.388 0.00232983 0
M  V30 3432 H 329.069 0.702534 -0.109391 0
M  V30 3433 H 331.671 1.70672 -0.95348 0
M  V30 3434 H 330.375 3.86429 -1.38204 0
M  V30 3435 H 329.906 3.92061 0.324308 0
M  V30 3436 H 331.921 4.80954 1.22055 0
M  V30 3437 N 331.094 0.475555 1.50254 0
M  V30 3438 C 332.322 -0.0754493 2.06762 0
M  V30 3439 C 332.737 -1.33111 1.33891 0
M  V30 3440 O 332.094 -1.77846 0.40952 0
M  V30 3441 C 332.145 -0.359008 3.59713 0
M  V30 3442 O 331.866 0.846851 4.29837 0
M  V30 3443 C 333.367 -0.956484 4.32858 0
M  V30 3444 H 330.587 0.00907525 0.670939 0
M  V30 3445 H 333.131 0.665618 1.93364 0
M  V30 3446 H 331.286 -1.05001 3.72899 0
M  V30 3447 H 331.7 0.594162 5.21124 0
M  V30 3448 H 333.174 -1.10463 5.40834 0
M  V30 3449 H 333.651 -1.94775 3.93649 0
M  V30 3450 H 334.257 -0.303723 4.24214 0
M  V30 3451 N 332.573 -1.56217 0.208337 0
M  V30 3452 C 333.52 -2.19699 -0.707192 0
M  V30 3453 C 334.49 -1.14836 -1.20008 0
M  V30 3454 O 335.675 -1.4314 -1.26157 0
M  V30 3455 C 332.815 -2.87061 -1.91546 0
M  V30 3456 C 331.928 -4.06483 -1.46271 0
M  V30 3457 C 331.063 -4.61665 -2.62752 0
M  V30 3458 C 330.102 -5.73417 -2.14147 0
M  V30 3459 N 329.239 -6.22948 -3.23853 0
M  V30 3460 H 334.079 -2.97575 -0.159111 0
M  V30 3461 H 331.616 -1.46948 -0.0667874 0
M  V30 3462 H 333.574 -3.24294 -2.62468 0
M  V30 3463 H 332.204 -2.11725 -2.43664 0
M  V30 3464 H 331.256 -3.74825 -0.648886 0
M  V30 3465 H 332.568 -4.87271 -1.06622 0
M  V30 3466 H 331.722 -5.01272 -3.41776 0
M  V30 3467 H 330.461 -3.80013 -3.05682 0
M  V30 3468 H 329.466 -5.33326 -1.33581 0
M  V30 3469 H 330.691 -6.56897 -1.72232 0
M  V30 3470 H 328.637 -5.44213 -3.6629 0
M  V30 3471 H 328.554 -6.98823 -2.88414 0
M  V30 3472 H 329.822 -6.6721 -4.03052 0
M  V30 3473 N 334.051 0.0651679 -1.57465 0
M  V30 3474 C 334.961 1.09448 -2.07505 0
M  V30 3475 C 335.977 1.41974 -1.00595 0
M  V30 3476 O 337.153 1.52018 -1.32107 0
M  V30 3477 C 334.218 2.38689 -2.51453 0
M  V30 3478 C 333.279 2.13073 -3.72691 0
M  V30 3479 C 332.512 3.36152 -4.14533 0
M  V30 3480 O 332.735 4.45517 -3.56189 0
M  V30 3481 O 331.669 3.23974 -5.07272 0
M  V30 3482 H 335.495 0.69935 -2.95538 0
M  V30 3483 H 333.08 0.279752 -1.46757 0
M  V30 3484 H 334.962 3.14736 -2.80212 0
M  V30 3485 H 333.637 2.77568 -1.66546 0
M  V30 3486 H 332.544 1.34709 -3.49005 0
M  V30 3487 H 333.877 1.79071 -4.5847 0
M  V30 3488 N 335.529 1.53961 0.336706 0
M  V30 3489 C 336.769 1.73254 1.08454 0
M  V30 3490 C 337.133 0.488937 1.8567 0
M  V30 3491 O 338.334 0.559001 2.62923 0
M  V30 3492 C 336.605 2.96519 1.99528 0
M  V30 3493 S 338.164 3.36655 2.81441 0
M  V30 3494 H 334.982 0.609353 0.366347 0
M  V30 3495 H 337.584 1.92117 0.362124 0
M  V30 3496 H 336.288 3.85193 1.41614 0
M  V30 3497 H 335.819 2.80142 2.76196 0
M  V30 3498 H 337.834 2.90925 4.01967 0
M  V30 3499 N 337.007 -0.598083 1.45811 0
M  V30 3500 C 338.418 -1.18011 1.44673 0
M  V30 3501 C 338.769 -1.95378 0.179364 0
M  V30 3502 O 337.894 -2.04124 -0.718509 0
M  V30 3503 C 338.489 -2.14677 2.62105 0
M  V30 3504 C 337.048 -2.68236 2.64057 0
M  V30 3505 C 336.195 -1.43816 2.37091 0
M  V30 3506 H 339.146 -0.38686 1.53913 0
M  V30 3507 H 339.167 -2.97878 2.36746 0
M  V30 3508 H 338.679 -1.5834 3.5433 0
M  V30 3509 H 336.78 -3.28486 1.75864 0
M  V30 3510 H 336.893 -3.12021 3.63566 0
M  V30 3511 H 335.257 -1.731 1.86838 0
M  V30 3512 H 336.04 -0.893333 3.31473 0
M  V30 3513 N 338.485 -1.33259 -0.841409 0
M  V30 3514 C 339.733 -1.24326 -1.59334 0
M  V30 3515 C 340.054 0.191564 -1.94057 0
M  V30 3516 O 339.324 1.11967 -1.60749 0
M  V30 3517 H 337.904 -0.457174 -0.590763 0
M  V30 3518 H 340.566 -1.66947 -1.00571 0
M  V30 3519 H 339.662 -1.8352 -2.52442 0
M  V30 3520 N 339.963 1.05934 -1.16686 0
M  V30 3521 C 341.203 1.80382 -0.961345 0
M  V30 3522 C 341.567 1.85331 0.501643 0
M  V30 3523 O 342.768 2.55795 0.825986 0
M  V30 3524 C 341.039 3.20777 -1.57596 0
M  V30 3525 S 342.598 4.11795 -1.51559 0
M  V30 3526 H 339.416 0.621332 -0.345641 0
M  V30 3527 H 342.018 1.27157 -1.48497 0
M  V30 3528 H 340.722 3.14773 -2.63337 0
M  V30 3529 H 340.253 3.79078 -1.05182 0
M  V30 3530 H 342.268 4.93485 -0.518374 0
M  V30 3531 N 341.441 0.965919 1.2453 0
M  V30 3532 C 342.371 0.513476 2.27784 0
M  V30 3533 C 343.352 -0.445974 1.6415 0
M  V30 3534 O 344.537 -0.342485 1.91156 0
M  V30 3535 C 341.667 -0.198839 3.4673 0
M  V30 3536 C 340.621 0.676456 4.2262 0
M  V30 3537 C 339.947 -0.167248 5.34438 0
M  V30 3538 C 341.247 1.96017 4.84123 0
M  V30 3539 H 342.941 1.3765 2.65881 0
M  V30 3540 H 340.487 0.663321 1.27813 0
M  V30 3541 H 342.44 -0.526567 4.18097 0
M  V30 3542 H 341.164 -1.0962 3.07654 0
M  V30 3543 H 339.823 0.98743 3.53052 0
M  V30 3544 H 339.471 -1.0647 4.91603 0
M  V30 3545 H 339.171 0.415181 5.86131 0
M  V30 3546 H 340.695 -0.489688 6.08633 0
M  V30 3547 H 342.109 1.69814 5.47573 0
M  V30 3548 H 340.506 2.48918 5.4604 0
M  V30 3549 H 341.576 2.65622 4.05676 0
M  V30 3550 N 342.919 -1.39368 0.735821 0
M  V30 3551 C 343.869 -2.27885 0.0724287 0
M  V30 3552 C 344.853 -1.44301 -0.711756 0
M  V30 3553 O 346.045 -1.67206 -0.58063 0
M  V30 3554 C 343.174 -3.33029 -0.833454 0
M  V30 3555 C 342.26 -4.24078 -0.0433749 0
M  V30 3556 N 342.651 -4.96138 0.983903 0
M  V30 3557 C 340.949 -4.45164 -0.272905 0
M  V30 3558 C 341.65 -5.63069 1.4604 0
M  V30 3559 N 340.626 -5.37991 0.778857 0
M  V30 3560 H 344.428 -2.81052 0.859467 0
M  V30 3561 H 341.942 -1.5206 0.570227 0
M  V30 3562 H 343.939 -3.95311 -1.32419 0
M  V30 3563 H 342.599 -2.81421 -1.61964 0
M  V30 3564 H 343.61 -4.9958 1.36528 0
M  V30 3565 H 340.287 -4.04497 -1.03383 0
M  V30 3566 H 341.677 -6.30755 2.31511 0
M  V30 3567 N 344.397 -0.483516 -1.5 0
M  V30 3568 C 345.645 0.067027 -2.01989 0
M  V30 3569 C 345.966 1.3909 -1.36671 0
M  V30 3570 O 345.236 1.88978 -0.516152 0
M  V30 3571 H 343.816 0.0277606 -0.746484 0
M  V30 3572 H 346.478 -0.636773 -1.84204 0
M  V30 3573 H 345.574 0.209484 -3.11396 0
M  V30 3574 N 345.875 1.56104 -0.216619 0
M  V30 3575 C 347.123 1.97781 0.415593 0
M  V30 3576 C 347.444 1.10536 1.60645 0
M  V30 3577 O 346.714 0.181303 1.95059 0
M  V30 3578 H 345.294 0.730415 0.156534 0
M  V30 3579 H 347.956 1.92445 -0.308366 0
M  V30 3580 H 347.052 3.03072 0.74525 0
M  V30 3581 N 347.353 -0.0568162 1.57498 0
M  V30 3582 C 348.599 -0.75422 1.88253 0
M  V30 3583 C 348.932 -1.76461 0.810865 0
M  V30 3584 O 348.207 -1.93691 -0.177259 0
M  V30 3585 C 348.49 -1.44878 3.2967 0
M  V30 3586 C 348.343 -0.453789 4.47505 0
M  V30 3587 C 349.662 -2.38994 3.69554 0
M  V30 3588 H 346.781 -0.272724 0.684683 0
M  V30 3589 H 349.423 -0.0172113 1.89992 0
M  V30 3590 H 347.573 -2.077 3.28318 0
M  V30 3591 H 349.245 0.170371 4.60985 0
M  V30 3592 H 347.488 0.229552 4.33192 0
M  V30 3593 H 348.159 -0.977699 5.43273 0
M  V30 3594 H 350.635 -1.86239 3.72095 0
M  V30 3595 H 349.511 -2.84587 4.69363 0
M  V30 3596 H 349.772 -3.24461 3.00296 0
M  V30 3597 N 348.832 -1.54138 -0.328536 0
M  V30 3598 C 350.072 -1.73827 -1.07534 0
M  V30 3599 C 350.436 -0.498777 -1.85408 0
M  V30 3600 O 351.637 -0.572937 -2.62623 0
M  V30 3601 C 349.908 -2.97573 -1.97952 0
M  V30 3602 S 351.467 -3.38143 -2.79652 0
M  V30 3603 H 348.285 -0.611287 -0.36311 0
M  V30 3604 H 350.887 -1.92306 -0.351931 0
M  V30 3605 H 349.591 -3.85939 -1.39569 0
M  V30 3606 H 349.122 -2.81603 -2.74706 0
M  V30 3607 H 351.137 -2.93052 -4.00418 0
M  V30 3608 N 350.31 0.590341 -1.46126 0
M  V30 3609 C 351.26 1.69466 -1.5253 0
M  V30 3610 C 352.244 1.56179 -0.386917 0
M  V30 3611 O 353.436 1.65223 -0.634858 0
M  V30 3612 C 350.565 3.08245 -1.5113 0
M  V30 3613 C 349.651 3.26856 -2.70233 0
M  V30 3614 N 350.042 3.15657 -3.95214 0
M  V30 3615 C 348.34 3.57775 -2.66296 0
M  V30 3616 C 349.041 3.36066 -4.74799 0
M  V30 3617 N 348.017 3.60865 -4.06543 0
M  V30 3618 H 351.819 1.59326 -2.46966 0
M  V30 3619 H 349.333 0.79414 -1.41659 0
M  V30 3620 H 351.33 3.87492 -1.53804 0
M  V30 3621 H 349.99 3.19521 -0.577636 0
M  V30 3622 H 351.001 2.93686 -4.26578 0
M  V30 3623 H 347.678 3.75782 -1.81918 0
M  V30 3624 H 349.068 3.32655 -5.83772 0
M  V30 3625 N 351.788 1.33704 0.83433 0
M  V30 3626 C 353.065 1.16011 1.57483 0
M  V30 3627 C 353.445 -0.27176 2.09343 0
M  V30 3628 O 352.793 -1.27146 1.89858 0
M  V30 3629 C 353.003 2.20507 2.70514 0
M  V30 3630 C 354.351 2.54898 3.39577 0
M  V30 3631 O 355.375 2.19209 2.80759 0
M  V30 3632 O 354.234 3.16158 4.45765 0
M  V30 3633 H 351.328 0.448992 0.694503 0
M  V30 3634 H 353.874 1.453 0.876691 0
M  V30 3635 H 352.646 3.16667 2.29865 0
M  V30 3636 H 352.269 1.92329 3.47987 0
M  V30 3637 N 353.266 -1.05314 1.17247 0
M  V30 3638 C 354.216 -2.11313 0.856196 0
M  V30 3639 C 355.2 -1.60013 -0.168694 0
M  V30 3640 O 356.392 -1.76968 0.0335624 0
M  V30 3641 C 353.521 -3.41301 0.369917 0
M  V30 3642 C 352.607 -3.99401 1.42616 0
M  V30 3643 N 352.998 -4.31481 2.63928 0
M  V30 3644 C 351.296 -4.27126 1.28373 0
M  V30 3645 C 351.997 -4.77799 3.31787 0
M  V30 3646 N 350.973 -4.77843 2.59166 0
M  V30 3647 H 354.775 -2.33976 1.77856 0
M  V30 3648 H 352.289 -1.2295 1.06099 0
M  V30 3649 H 354.286 -4.16713 0.124897 0
M  V30 3650 H 352.946 -3.20072 -0.546253 0
M  V30 3651 H 353.957 -4.21519 3.00902 0
M  V30 3652 H 350.634 -4.15289 0.429111 0
M  V30 3653 H 352.024 -5.11743 4.35395 0
M  V30 3654 N 354.744 -0.972509 -1.24016 0
M  V30 3655 C 356.021 -0.553733 -1.87598 0
M  V30 3656 C 356.401 0.969158 -1.87538 0
M  V30 3657 O 355.749 1.84255 -1.35139 0
M  V30 3658 C 355.959 -1.15076 -3.29482 0
M  V30 3659 C 357.307 -1.23862 -4.06132 0
M  V30 3660 O 358.331 -1.10363 -3.38672 0
M  V30 3661 O 357.19 -1.45252 -5.26844 0
M  V30 3662 H 354.284 -0.185331 -0.805966 0
M  V30 3663 H 356.83 -1.06709 -1.31952 0
M  V30 3664 H 355.602 -2.19333 -3.2405 0
M  V30 3665 H 355.225 -0.621746 -3.92709 0
M  V30 3666 N 356.222 1.38976 -0.743202 0
M  V30 3667 C 357.47 1.99948 -0.29417 0
M  V30 3668 C 357.791 1.59279 1.12495 0
M  V30 3669 O 357.061 0.844808 1.76748 0
M  V30 3670 H 355.641 0.739473 -0.105774 0
M  V30 3671 H 358.303 1.699 -0.954986 0
M  V30 3672 H 357.399 3.10142 -0.349056 0
M  V30 3673 N 357.7 0.491464 1.49741 0
M  V30 3674 C 358.61 -0.296835 2.32715 0
M  V30 3675 C 359.626 -0.976536 1.44013 0
M  V30 3676 O 360.802 -0.960023 1.77047 0
M  V30 3677 C 357.867 -1.35288 3.19215 0
M  V30 3678 C 356.928 -0.687632 4.23757 0
M  V30 3679 C 356.161 -1.69336 5.06123 0
M  V30 3680 O 356.384 -2.92219 4.89861 0
M  V30 3681 O 355.318 -1.25394 5.88693 0
M  V30 3682 H 359.144 0.382048 3.01287 0
M  V30 3683 H 356.729 0.252953 1.47243 0
M  V30 3684 H 358.611 -1.96411 3.72828 0
M  V30 3685 H 357.286 -2.01487 2.53347 0
M  V30 3686 H 356.193 -0.0369159 3.74082 0
M  V30 3687 H 357.526 -0.0682566 4.92153 0
M  V30 3688 N 359.178 -1.55987 0.224894 0
M  V30 3689 C 360.418 -2.00293 -0.407706 0
M  V30 3690 C 360.782 -1.1093 -1.56711 0
M  V30 3691 O 361.983 -1.44597 -2.26595 0
M  V30 3692 C 360.254 -3.47675 -0.82805 0
M  V30 3693 S 361.813 -4.14 -1.45429 0
M  V30 3694 H 358.631 -0.699152 -0.129256 0
M  V30 3695 H 361.233 -1.92609 0.334967 0
M  V30 3696 H 359.937 -4.10392 0.0253964 0
M  V30 3697 H 359.468 -3.59239 -1.60345 0
M  V30 3698 H 361.483 -4.13465 -2.74337 0
M  V30 3699 N 360.656 0.0484629 -1.57525 0
M  V30 3700 C 361.902 0.744226 -1.88651 0
M  V30 3701 C 362.235 1.76029 -0.820212 0
M  V30 3702 O 361.51 1.93782 0.166985 0
M  V30 3703 C 361.793 1.43128 -3.30434 0
M  V30 3704 C 361.646 0.43005 -4.47739 0
M  V30 3705 C 362.965 2.37031 -3.70816 0
M  V30 3706 H 360.084 0.269089 -0.68612 0
M  V30 3707 H 362.726 0.00713532 -1.89999 0
M  V30 3708 H 360.876 2.05956 -3.29415 0
M  V30 3709 H 362.548 -0.194816 -4.60888 0
M  V30 3710 H 360.791 -0.252522 -4.33064 0
M  V30 3711 H 361.462 0.948874 -5.43783 0
M  V30 3712 H 363.938 1.84263 -3.73077 0
M  V30 3713 H 362.814 2.82094 -4.70865 0
M  V30 3714 H 363.075 3.22864 -3.02012 0
M  V30 3715 N 362.134 1.5431 0.320358 0
M  V30 3716 C 363.374 1.74395 1.0661 0
M  V30 3717 C 363.738 0.508602 1.85141 0
M  V30 3718 O 364.939 0.586856 2.62316 0
M  V30 3719 C 363.21 2.98619 1.96371 0
M  V30 3720 S 364.769 3.39621 2.77854 0
M  V30 3721 H 361.587 0.613204 0.359863 0
M  V30 3722 H 364.189 1.9249 0.341727 0
M  V30 3723 H 362.893 3.86673 1.3752 0
M  V30 3724 H 362.424 2.83055 2.73209 0
M  V30 3725 H 364.439 2.95172 3.98858 0
M  V30 3726 N 363.613 -0.582584 1.46437 0
M  V30 3727 C 365.024 -1.1647 1.45916 0
M  V30 3728 C 365.375 -1.95177 0.200077 0
M  V30 3729 O 364.5 -2.04874 -0.696819 0
M  V30 3730 C 365.095 -2.11885 2.64367 0
M  V30 3731 C 363.654 -2.65421 2.66887 0
M  V30 3732 C 362.801 -1.41294 2.38603 0
M  V30 3733 H 365.752 -0.370514 1.54314 0
M  V30 3734 H 365.773 -2.9535 2.39892 0
M  V30 3735 H 365.285 -1.54573 3.5599 0
M  V30 3736 H 363.386 -3.26602 1.79338 0
M  V30 3737 H 363.499 -3.08147 3.66854 0
M  V30 3738 H 361.863 -1.71109 1.88663 0
M  V30 3739 H 362.646 -0.858125 3.32402 0
M  V30 3740 N 365.091 -1.34144 -0.827227 0
M  V30 3741 C 366.502 -1.23557 -1.39966 0
M  V30 3742 C 366.853 0.140731 -1.95695 0
M  V30 3743 O 365.978 1.04087 -1.89723 0
M  V30 3744 C 366.573 -2.23708 -2.54441 0
M  V30 3745 C 365.132 -2.16924 -3.07605 0
M  V30 3746 C 364.279 -2.10549 -1.80456 0
M  V30 3747 H 367.23 -1.45573 -0.631991 0
M  V30 3748 H 367.251 -1.85157 -3.32411 0
M  V30 3749 H 366.763 -3.23866 -2.13851 0
M  V30 3750 H 364.864 -1.20107 -3.52711 0
M  V30 3751 H 364.977 -3.07988 -3.66988 0
M  V30 3752 H 363.341 -1.56203 -2.01178 0
M  V30 3753 H 364.124 -3.12535 -1.42046 0
M  V30 3754 N 366.569 1.04691 -1.17803 0
M  V30 3755 C 367.817 1.7743 -0.967617 0
M  V30 3756 C 368.138 1.88359 0.504574 0
M  V30 3757 O 367.408 1.40402 1.36617 0
M  V30 3758 H 365.988 0.657242 -0.355024 0
M  V30 3759 H 368.65 1.2638 -1.48371 0
M  V30 3760 H 367.746 2.78924 -1.40027 0
M  V30 3761 N 368.047 0.979072 1.23499 0
M  V30 3762 C 369.294 0.647219 1.91878 0
M  V30 3763 C 369.622 -0.819074 1.76413 0
M  V30 3764 O 368.877 -1.60616 1.11808 0
M  V30 3765 C 369.176 0.981932 3.43646 0
M  V30 3766 C 368.842 2.43822 3.79291 0
M  V30 3767 C 367.504 2.83622 3.88731 0
M  V30 3768 C 369.856 3.3828 3.96505 0
M  V30 3769 C 367.184 4.16897 4.12812 0
M  V30 3770 C 369.536 4.71197 4.22085 0
M  V30 3771 C 368.2 5.10758 4.29747 0
M  V30 3772 H 367.47 0.236834 0.702133 0
M  V30 3773 H 370.117 1.23268 1.46551 0
M  V30 3774 H 368.422 0.314365 3.90537 0
M  V30 3775 H 370.119 0.703395 3.94783 0
M  V30 3776 H 366.709 2.11966 3.72516 0
M  V30 3777 H 370.893 3.0871 3.88603 0
M  V30 3778 H 366.149 4.47157 4.16966 0
M  V30 3779 H 370.323 5.44348 4.34348 0
M  V30 3780 H 367.95 6.1405 4.48159 0
M  V30 3781 N 369.525 -1.3858 0.750561 0
M  V30 3782 C 370.753 -2.04471 0.316098 0
M  V30 3783 C 371.168 -1.56606 -1.05452 0
M  V30 3784 O 370.525 -0.737784 -1.66922 0
M  V30 3785 C 370.576 -3.60025 0.326275 0
M  V30 3786 O 370.297 -4.06133 1.6428 0
M  V30 3787 C 371.798 -4.43131 -0.122429 0
M  V30 3788 H 369.018 -0.65717 0.135528 0
M  V30 3789 H 371.562 -1.77329 1.01857 0
M  V30 3790 H 369.717 -3.86014 -0.327431 0
M  V30 3791 H 370.131 -5.00547 1.56693 0
M  V30 3792 H 371.605 -5.51963 -0.0641473 0
M  V30 3793 H 372.082 -4.23333 -1.16988 0
M  V30 3794 H 372.688 -4.22323 0.50229 0
M  V30 3795 N 371.003 -0.499398 -1.49478 0
M  V30 3796 C 372.251 0.0455996 -2.02049 0
M  V30 3797 C 372.572 1.37633 -1.38138 0
M  V30 3798 O 371.842 1.8842 -0.536166 0
M  V30 3799 H 370.422 0.0198416 -0.746736 0
M  V30 3800 H 373.084 -0.656274 -1.83519 0
M  V30 3801 H 372.18 0.176445 -3.11601 0
M  V30 3802 N 372.481 1.55866 -0.233164 0
M  V30 3803 C 373.709 2.02998 0.399905 0
M  V30 3804 C 374.124 1.11274 1.52524 0
M  V30 3805 O 373.481 0.124528 1.82075 0
M  V30 3806 C 373.532 3.4958 0.920639 0
M  V30 3807 O 373.253 4.37808 -0.159834 0
M  V30 3808 C 374.754 4.12411 1.62578 0
M  V30 3809 H 371.974 0.664006 0.0966281 0
M  V30 3810 H 374.518 2.0143 -0.353013 0
M  V30 3811 H 372.673 3.51727 1.62379 0
M  V30 3812 H 373.087 5.23981 0.23337 0
M  V30 3813 H 374.561 5.16711 1.94201 0
M  V30 3814 H 375.038 3.5809 2.54299 0
M  V30 3815 H 375.644 4.14148 0.967553 0
M  V30 3816 N 373.959 -0.0401083 1.57549 0
M  V30 3817 C 375.375 -0.395556 1.54621 0
M  V30 3818 C 375.575 -1.77281 0.957799 0
M  V30 3819 O 374.631 -2.45888 0.574031 0
M  V30 3820 C 375.944 -0.307535 2.99123 0
M  V30 3821 C 377.492 -0.385425 3.10618 0
M  V30 3822 C 377.967 -0.326973 4.56831 0
M  V30 3823 N 379.458 -0.386102 4.61588 0
M  V30 3824 C 380.193 -0.363591 5.72246 0
M  V30 3825 N 379.689 -0.29402 6.92176 0
M  V30 3826 N 381.482 -0.412503 5.60584 0
M  V30 3827 H 373.633 0.861325 1.94152 0
M  V30 3828 H 375.896 0.326445 0.890021 0
M  V30 3829 H 375.602 0.638461 3.45856 0
M  V30 3830 H 375.476 -1.10552 3.60636 0
M  V30 3831 H 377.863 -1.32185 2.63839 0
M  V30 3832 H 377.944 0.44171 2.51957 0
M  V30 3833 H 377.588 0.605738 5.04275 0
M  V30 3834 H 377.518 -1.17207 5.13391 0
M  V30 3835 H 380.009 -0.442832 3.75296 0
M  V30 3836 H 380.322 -0.28164 7.72287 0
M  V30 3837 H 378.667 -0.260232 6.94513 0
M  V30 3838 H 381.858 -0.464769 4.65787 0
M  V30 3839 H 382.031 -0.391492 6.46816 0
M  V30 3840 N 375.437 -1.54477 -0.31217 0
M  V30 3841 C 376.677 -1.74958 -1.05684 0
M  V30 3842 C 377.041 -0.518414 -1.84869 0
M  V30 3843 O 378.242 -0.600759 -2.62001 0
M  V30 3844 C 376.513 -2.99656 -1.94785 0
M  V30 3845 S 378.072 -3.4109 -2.76049 0
M  V30 3846 H 374.89 -0.615104 -0.356606 0
M  V30 3847 H 377.492 -1.92669 -0.331514 0
M  V30 3848 H 376.196 -3.87397 -1.35468 0
M  V30 3849 H 375.727 -2.845 -2.71704 0
M  V30 3850 H 377.742 -2.97283 -3.97287 0
M  V30 3851 N 376.915 0.57481 -1.46744 0
M  V30 3852 C 377.825 1.711 -1.60505 0
M  V30 3853 C 378.841 1.67008 -0.488307 0
M  V30 3854 O 380.017 1.86774 -0.753495 0
M  V30 3855 C 377.082 3.07608 -1.59932 0
M  V30 3856 C 376.143 3.22904 -2.82898 0
M  V30 3857 C 375.376 4.529 -2.82343 0
M  V30 3858 O 375.599 5.37278 -1.91542 0
M  V30 3859 O 374.533 4.71611 -3.73987 0
M  V30 3860 H 378.359 1.62436 -2.56609 0
M  V30 3861 H 375.944 0.742779 -1.29627 0
M  V30 3862 H 377.826 3.88877 -1.62336 0
M  V30 3863 H 376.501 3.16692 -0.669898 0
M  V30 3864 H 375.408 2.41099 -2.86046 0
M  V30 3865 H 376.741 3.18715 -3.75076 0
M  V30 3866 N 378.394 1.34581 0.820102 0
M  V30 3867 C 379.326 1.22236 1.93884 0
M  V30 3868 C 380.339 0.148776 1.62119 0
M  V30 3869 O 381.528 0.400877 1.7394 0
M  V30 3870 C 378.628 0.856542 3.27897 0
M  V30 3871 C 377.801 2.02569 3.87666 0
M  V30 3872 C 376.86 1.63782 5.00062 0
M  V30 3873 O 375.886 2.35477 5.18208 0
M  V30 3874 N 377.088 0.553611 5.77854 0
M  V30 3875 H 379.853 2.18615 2.05006 0
M  V30 3876 H 377.414 1.27573 0.99683 0
M  V30 3877 H 379.406 0.578806 4.0054 0
M  V30 3878 H 377.976 -0.0171518 3.12595 0
M  V30 3879 H 377.196 2.468 3.07382 0
M  V30 3880 H 378.484 2.80752 4.24329 0
M  V30 3881 H 377.882 -0.0423528 5.65684 0
M  V30 3882 H 376.439 0.335614 6.50935 0
M  V30 3883 N 379.872 -1.04064 1.18357 0
M  V30 3884 C 380.835 -2.10243 0.912707 0
M  V30 3885 C 381.835 -1.60477 -0.101928 0
M  V30 3886 O 383.025 -1.73703 0.131517 0
M  V30 3887 C 380.157 -3.38893 0.369387 0
M  V30 3888 H 381.35 -2.35706 1.85426 0
M  V30 3889 H 378.903 -1.20489 0.995594 0
M  V30 3890 H 379.638 -3.19094 -0.578776 0
M  V30 3891 H 379.423 -3.76331 1.1008 0
M  V30 3892 H 380.913 -4.17128 0.198575 0
M  V30 3893 N 381.35 -0.985608 -1.22978 0
M  V30 3894 C 382.59 -0.665487 -1.93263 0
M  V30 3895 C 382.954 0.78706 -1.75127 0
M  V30 3896 O 384.155 1.21826 -2.39608 0
M  V30 3897 C 382.426 -1.0515 -3.41582 0
M  V30 3898 S 383.985 -0.848637 -4.30516 0
M  V30 3899 H 380.803 -0.24355 -0.667985 0
M  V30 3900 H 383.405 -1.26635 -1.48942 0
M  V30 3901 H 382.109 -2.10517 -3.52293 0
M  V30 3902 H 381.64 -0.442134 -3.90908 0
M  V30 3903 H 383.655 0.264717 -4.95493 0
M  V30 3904 N 382.828 1.3818 -0.7579 0
M  V30 3905 C 384.244 1.5353 -0.435972 0
M  V30 3906 C 384.444 1.71961 1.05032 0
M  V30 3907 O 383.5 1.73307 1.83633 0
M  V30 3908 C 384.813 2.73989 -1.23898 0
M  V30 3909 C 386.361 2.87841 -1.22949 0
M  V30 3910 C 386.836 4.11266 -2.01554 0
M  V30 3911 N 388.327 4.18352 -1.98837 0
M  V30 3912 C 389.062 5.12856 -2.5645 0
M  V30 3913 N 388.558 6.13005 -3.22794 0
M  V30 3914 N 390.351 5.05238 -2.46356 0
M  V30 3915 H 382.502 1.24467 -1.7211 0
M  V30 3916 H 384.765 0.604982 -0.729864 0
M  V30 3917 H 384.471 2.66789 -2.29165 0
M  V30 3918 H 384.345 3.67294 -0.858764 0
M  V30 3919 H 386.732 2.9452 -0.184854 0
M  V30 3920 H 386.813 1.95534 -1.64924 0
M  V30 3921 H 386.457 4.05349 -3.06031 0
M  V30 3922 H 386.387 5.02661 -1.5697 0
M  V30 3923 H 388.878 3.46628 -1.50524 0
M  V30 3924 H 389.191 6.81619 -3.64165 0
M  V30 3925 H 387.536 6.13325 -3.2689 0
M  V30 3926 H 390.727 4.25938 -1.9415 0
M  V30 3927 H 390.9 5.78707 -2.91552 0
M  V30 3928 N 384.306 0.507319 1.49211 0
M  V30 3929 C 385.216 -0.272136 2.33016 0
M  V30 3930 C 386.232 -0.961206 1.45041 0
M  V30 3931 O 387.408 -0.941191 1.78055 0
M  V30 3932 C 384.473 -1.31895 3.20631 0
M  V30 3933 C 383.534 -0.642648 4.24463 0
M  V30 3934 C 382.767 -1.63959 5.07891 0
M  V30 3935 O 382.99 -2.87007 4.92933 0
M  V30 3936 O 381.924 -1.19143 5.8999 0
M  V30 3937 H 385.75 0.413982 3.00865 0
M  V30 3938 H 383.335 0.268556 1.46966 0
M  V30 3939 H 385.217 -1.92446 3.7489 0
M  V30 3940 H 383.892 -1.98788 2.5547 0
M  V30 3941 H 382.799 0.00276252 3.741 0
M  V30 3942 H 384.132 -0.0160534 4.92197 0
M  V30 3943 N 385.784 -1.5574 0.241426 0
M  V30 3944 C 387.032 -1.98417 -0.384075 0
M  V30 3945 C 387.353 -1.13078 -1.58866 0
M  V30 3946 O 386.623 -0.212312 -1.94746 0
M  V30 3947 H 385.203 -0.732813 -0.144894 0
M  V30 3948 H 387.865 -1.9193 0.338943 0
M  V30 3949 H 386.961 -3.04219 -0.696939 0
M  V30 3950 N 387.262 0.0317525 -1.57568 0
M  V30 3951 C 388.678 0.38735 -1.54828 0
M  V30 3952 C 388.878 1.7677 -0.967187 0
M  V30 3953 O 387.934 2.45581 -0.587063 0
M  V30 3954 C 389.247 0.291667 -2.99282 0
M  V30 3955 C 390.795 0.368946 -3.10818 0
M  V30 3956 C 391.27 0.302741 -4.56998 0
M  V30 3957 N 392.761 0.361617 -4.61786 0
M  V30 3958 C 393.496 0.333238 -5.72431 0
M  V30 3959 N 392.992 0.257308 -6.92322 0
M  V30 3960 N 394.785 0.382769 -5.60795 0
M  V30 3961 H 386.936 -0.871609 -1.93692 0
M  V30 3962 H 389.199 -0.331161 -0.888277 0
M  V30 3963 H 388.905 -0.656794 -3.45513 0
M  V30 3964 H 388.779 1.08638 -3.61217 0
M  V30 3965 H 391.166 1.30784 -2.64536 0
M  V30 3966 H 391.247 -0.455066 -2.5172 0
M  V30 3967 H 390.891 -0.632473 -5.03947 0
M  V30 3968 H 390.821 1.14482 -5.14005 0
M  V30 3969 H 393.312 0.422923 -3.75526 0
M  V30 3970 H 393.625 0.24068 -7.72425 0
M  V30 3971 H 391.97 0.223396 -6.94641 0
M  V30 3972 H 395.161 0.44006 -4.66027 0
M  V30 3973 H 395.334 0.357184 -6.47015 0
M  V30 3974 N 388.74 1.54641 0.303973 0
M  V30 3975 C 389.987 1.7378 1.03955 0
M  V30 3976 C 390.315 0.521986 1.87365 0
M  V30 3977 O 389.57 -0.496099 1.89308 0
M  V30 3978 C 389.869 2.97753 1.97681 0
M  V30 3979 C 389.535 4.31671 1.30271 0
M  V30 3980 C 388.197 4.68075 1.11619 0
M  V30 3981 C 390.549 5.147 0.82055 0
M  V30 3982 C 387.877 5.8509 0.434304 0
M  V30 3983 C 390.229 6.32416 0.152395 0
M  V30 3984 C 388.893 6.67484 -0.0461067 0
M  V30 3985 H 388.163 0.635908 0.380398 0
M  V30 3986 H 390.81 1.88896 0.314718 0
M  V30 3987 H 389.115 2.77406 2.76682 0
M  V30 3988 H 390.812 3.09756 2.54661 0
M  V30 3989 H 387.402 4.03041 1.45795 0
M  V30 3990 H 391.586 4.87077 0.952374 0
M  V30 3991 H 386.842 6.10806 0.269495 0
M  V30 3992 H 391.016 6.96023 -0.229126 0
M  V30 3993 H 388.643 7.58011 -0.576494 0
M  V30 3994 N 390.218 -0.567019 1.47046 0
M  V30 3995 C 391.466 -1.322 1.52864 0
M  V30 3996 C 391.787 -1.94088 0.188388 0
M  V30 3997 O 391.057 -1.7941 -0.786693 0
M  V30 3998 H 389.637 -0.490894 0.563056 0
M  V30 3999 H 392.299 -0.662879 1.83281 0
M  V30 4000 H 391.395 -2.12062 2.2899 0
M  V30 4001 N 391.696 -1.35014 -0.812953 0
M  V30 4002 C 392.628 -1.23262 -1.93233 0
M  V30 4003 C 393.641 -0.157371 -1.62038 0
M  V30 4004 O 394.83 -0.410096 -1.73725 0
M  V30 4005 C 391.93 -0.87392 -3.27438 0
M  V30 4006 C 391.103 -2.04622 -3.86586 0
M  V30 4007 C 390.162 -1.66432 -4.99186 0
M  V30 4008 O 389.188 -2.38222 -5.16951 0
M  V30 4009 N 390.39 -0.584248 -5.77552 0
M  V30 4010 H 393.155 -2.19699 -2.03844 0
M  V30 4011 H 390.716 -1.281 -0.99005 0
M  V30 4012 H 392.708 -0.600039 -4.00227 0
M  V30 4013 H 391.278 0.00057392 -3.126 0
M  V30 4014 H 390.498 -2.48427 -3.06068 0
M  V30 4015 H 391.786 -2.82999 -4.22835 0
M  V30 4016 H 391.184 0.0123526 -5.65699 0
M  V30 4017 H 389.741 -0.37013 -6.50748 0
M  V30 4018 N 393.175 1.03435 -1.18907 0
M  V30 4019 C 394.4 1.80919 -1.01406 0
M  V30 4020 C 394.825 1.83055 0.432721 0
M  V30 4021 O 394.183 1.25252 1.31079 0
M  V30 4022 C 394.231 3.24091 -1.58105 0
M  V30 4023 O 393.335 4.04434 -0.806669 0
M  V30 4024 H 392.676 0.558709 -0.358803 0
M  V30 4025 H 395.206 1.30223 -1.57807 0
M  V30 4026 H 395.216 3.74853 -1.61087 0
M  V30 4027 H 393.891 3.21851 -2.6341 0
M  V30 4028 H 392.468 3.63091 -0.849666 0
M  V30 4029 N 394.653 0.992116 1.22453 0
M  V30 4030 C 395.893 0.675727 1.92907 0
M  V30 4031 C 396.257 -0.777762 1.75542 0
M  V30 4032 O 397.458 -1.20553 2.40251 0
M  V30 4033 C 395.729 1.0696 3.4102 0
M  V30 4034 S 397.288 0.871456 4.30059 0
M  V30 4035 H 394.106 0.247089 0.666684 0
M  V30 4036 H 396.708 1.27423 1.48269 0
M  V30 4037 H 395.412 2.12383 3.51172 0
M  V30 4038 H 394.943 0.462858 3.90668 0
M  V30 4039 H 396.958 -0.238436 4.95627 0
M  V30 4040 N 396.131 -1.37776 0.765217 0
M  V30 4041 C 397.063 -2.28958 0.105361 0
M  V30 4042 C 398.076 -1.48316 -0.67128 0
M  V30 4043 O 399.265 -1.71046 -0.51045 0
M  V30 4044 C 396.365 -3.27421 -0.874569 0
M  V30 4045 C 395.538 -4.37132 -0.153123 0
M  V30 4046 C 394.597 -5.1571 -1.04547 0
M  V30 4047 O 393.623 -5.66896 -0.511672 0
M  V30 4048 N 394.825 -5.29808 -2.37243 0
M  V30 4049 H 397.59 -2.86227 0.888495 0
M  V30 4050 H 395.151 -1.49682 0.617 0
M  V30 4051 H 397.143 -3.7687 -1.47483 0
M  V30 4052 H 395.713 -2.70967 -1.55871 0
M  V30 4053 H 394.933 -3.89166 0.627975 0
M  V30 4054 H 396.221 -5.07625 0.345643 0
M  V30 4055 H 395.619 -4.89793 -2.83054 0
M  V30 4056 H 394.176 -5.82589 -2.9229 0
M  V30 4057 N 397.609 -0.515225 -1.4894 0
M  V30 4058 C 398.519 0.259774 -2.33157 0
M  V30 4059 C 399.535 0.953501 -1.45548 0
M  V30 4060 O 400.711 0.931735 -1.78552 0
M  V30 4061 C 397.776 1.30193 -3.21326 0
M  V30 4062 C 396.837 0.620129 -4.24797 0
M  V30 4063 C 396.07 1.61263 -5.08753 0
M  V30 4064 O 396.293 2.84389 -4.94448 0
M  V30 4065 O 395.227 1.16013 -5.90614 0
M  V30 4066 H 399.053 -0.429932 -3.00641 0
M  V30 4067 H 396.638 -0.276346 -1.46822 0
M  V30 4068 H 398.52 1.90455 -3.75905 0
M  V30 4069 H 397.195 1.97431 -2.56521 0
M  V30 4070 H 396.102 -0.0226019 -3.74093 0
M  V30 4071 H 397.435 -0.0100493 -4.92199 0
M  V30 4072 N 399.087 1.5561 -0.249682 0
M  V30 4073 C 400.019 2.18834 0.681496 0
M  V30 4074 C 401.032 1.16546 1.1367 0
M  V30 4075 O 402.221 1.43397 1.06299 0
M  V30 4076 C 399.321 2.77992 1.9384 0
M  V30 4077 C 398.494 4.05725 1.63419 0
M  V30 4078 C 397.553 4.49174 2.74096 0
M  V30 4079 O 396.579 5.15492 2.41364 0
M  V30 4080 N 397.781 4.17191 4.03649 0
M  V30 4081 H 400.546 2.9937 0.140514 0
M  V30 4082 H 398.107 1.6175 -0.0697541 0
M  V30 4083 H 400.099 3.04015 2.67127 0
M  V30 4084 H 398.669 2.01596 2.38909 0
M  V30 4085 H 397.889 3.87261 0.736358 0
M  V30 4086 H 399.177 4.88999 1.40562 0
M  V30 4087 H 398.575 3.63955 4.33074 0
M  V30 4088 H 397.132 4.48043 4.73393 0
M  V30 4089 N 400.565 -0.0233959 1.57583 0
M  V30 4090 C 401.805 -0.71784 1.9138 0
M  V30 4091 C 402.169 -1.72216 0.848853 0
M  V30 4092 O 403.37 -2.46527 1.07134 0
M  V30 4093 C 401.641 -1.36489 3.30311 0
M  V30 4094 S 403.2 -2.0877 3.85954 0
M  V30 4095 H 400.018 -0.237676 0.670098 0
M  V30 4096 H 402.62 0.0276709 1.9548 0
M  V30 4097 H 401.324 -0.620782 4.05678 0
M  V30 4098 H 400.855 -2.14883 3.29528 0
M  V30 4099 H 402.87 -3.35988 3.65139 0
M  V30 4100 N 402.043 -1.548 -0.295768 0
M  V30 4101 C 403.454 -1.65274 -0.868411 0
M  V30 4102 C 403.805 -0.56481 -1.87894 0
M  V30 4103 O 402.93 0.29767 -2.14343 0
M  V30 4104 C 403.525 -2.99603 -1.58188 0
M  V30 4105 C 402.084 -3.12181 -2.10286 0
M  V30 4106 C 401.231 -2.6098 -0.93727 0
M  V30 4107 H 404.182 -1.58534 -0.0726422 0
M  V30 4108 H 404.203 -2.91319 -2.44772 0
M  V30 4109 H 403.715 -3.78764 -0.846151 0
M  V30 4110 H 401.816 -2.3775 -2.8689 0
M  V30 4111 H 401.929 -4.18415 -2.33379 0
M  V30 4112 H 400.293 -2.17564 -1.32431 0
M  V30 4113 H 401.076 -3.42623 -0.215414 0
M  V30 4114 N 403.521 0.559213 -1.47345 0
M  V30 4115 C 404.769 1.31388 -1.53563 0
M  V30 4116 C 405.09 1.93985 -0.198678 0
M  V30 4117 O 404.36 1.79825 0.777167 0
M  V30 4118 H 402.94 0.487901 -0.565652 0
M  V30 4119 H 405.602 0.65315 -1.8363 0
M  V30 4120 H 404.698 2.10844 -2.30111 0
M  V30 4121 N 404.999 1.35443 0.805782 0
M  V30 4122 C 406.248 1.28097 1.55801 0
M  V30 4123 C 406.561 -0.142428 1.95081 0
M  V30 4124 O 407.767 -0.33817 2.69386 0
M  V30 4125 C 406.223 2.24653 2.81174 0
M  V30 4126 C 405.831 3.72342 2.49129 0
M  V30 4127 C 407.575 2.2625 3.59181 0
M  V30 4128 C 405.482 4.60719 3.70799 0
M  V30 4129 H 404.412 0.475937 0.584808 0
M  V30 4130 H 407.063 1.60712 0.885661 0
M  V30 4131 H 405.445 1.85011 3.50124 0
M  V30 4132 H 406.619 4.20624 1.88181 0
M  V30 4133 H 404.934 3.73361 1.84366 0
M  V30 4134 H 407.531 2.89495 4.49552 0
M  V30 4135 H 407.874 1.26647 3.96568 0
M  V30 4136 H 408.407 2.64426 2.97193 0
M  V30 4137 H 405.146 5.61324 3.3852 0
M  V30 4138 H 404.666 4.17163 4.3097 0
M  V30 4139 H 406.345 4.76182 4.38018 0
M  V30 4140 N 406.477 -1.02803 1.19454 0
M  V30 4141 C 407.702 -1.80378 1.02364 0
M  V30 4142 C 408.127 -1.83282 -0.423007 0
M  V30 4143 O 407.485 -1.25945 -1.30413 0
M  V30 4144 C 407.533 -3.23248 1.59821 0
M  V30 4145 O 406.637 -4.04 0.828105 0
M  V30 4146 H 405.978 -0.556799 0.361761 0
M  V30 4147 H 408.508 -1.29385 1.58495 0
M  V30 4148 H 408.518 -3.73994 1.63073 0
M  V30 4149 H 407.193 -3.2045 2.65113 0
M  V30 4150 H 405.77 -3.62635 0.86891 0
M  V30 4151 N 407.956 -0.998596 -1.21925 0
M  V30 4152 C 409.204 -0.676325 -1.90448 0
M  V30 4153 C 409.525 0.794719 -1.78071 0
M  V30 4154 O 408.795 1.5701 -1.17152 0
M  V30 4155 H 407.375 -0.247165 -0.704925 0
M  V30 4156 H 410.037 -1.26633 -1.48156 0
M  V30 4157 H 409.133 -0.943858 -2.97486 0
M  V30 4158 N 409.434 1.37368 -0.772513 0
M  V30 4159 C 410.674 2.01512 -0.342361 0
M  V30 4160 C 411.038 1.59997 1.06136 0
M  V30 4161 O 412.239 2.16609 1.59167 0
M  V30 4162 C 410.51 3.54134 -0.482048 0
M  V30 4163 S 412.069 4.38585 -0.137272 0
M  V30 4164 H 408.887 0.698699 -0.131686 0
M  V30 4165 H 411.489 1.67552 -1.0073 0
M  V30 4166 H 410.193 3.81837 -1.50428 0
M  V30 4167 H 409.724 3.92894 0.199413 0
M  V30 4168 H 411.739 4.84594 1.06692 0
M  V30 4169 N 410.912 0.523116 1.48665 0
M  V30 4170 C 412.328 0.180511 1.58576 0
M  V30 4171 C 412.528 -1.31597 1.52592 0
M  V30 4172 O 411.584 -2.0937 1.4114 0
M  V30 4173 C 412.897 0.776949 2.90489 0
M  V30 4174 C 414.445 0.745058 3.04003 0
M  V30 4175 C 414.92 1.31995 4.38567 0
M  V30 4176 N 416.411 1.28162 4.45117 0
M  V30 4177 C 417.146 1.6964 5.47731 0
M  V30 4178 N 416.642 2.18816 6.57337 0
M  V30 4179 N 418.435 1.6092 5.38573 0
M  V30 4180 H 410.586 1.4958 1.50797 0
M  V30 4181 H 412.849 0.621772 0.715614 0
M  V30 4182 H 412.555 1.82732 3.00503 0
M  V30 4183 H 412.429 0.25007 3.7637 0
M  V30 4184 H 414.816 -0.296532 2.93606 0
M  V30 4185 H 414.897 1.30933 2.1975 0
M  V30 4186 H 414.541 2.36043 4.49718 0
M  V30 4187 H 414.471 0.731418 5.21496 0
M  V30 4188 H 416.962 0.92155 3.66491 0
M  V30 4189 H 417.275 2.48478 7.31764 0
M  V30 4190 H 415.62 2.22805 6.58318 0
M  V30 4191 H 418.811 1.22304 4.5184 0
M  V30 4192 H 418.984 1.93567 6.18414 0
M  V30 4193 N 412.39 -1.55475 0.257931 0
M  V30 4194 C 413.638 -1.98813 -0.363009 0
M  V30 4195 C 413.959 -1.14757 -1.57657 0
M  V30 4196 O 413.229 -0.232956 -1.9451 0
M  V30 4197 H 411.809 -0.734308 -0.137113 0
M  V30 4198 H 414.471 -1.9156 0.359281 0
M  V30 4199 H 413.567 -3.04941 -0.664634 0
M  V30 4200 N 413.868 0.0150385 -1.57593 0
M  V30 4201 C 414.798 1.01047 -2.10503 0
M  V30 4202 C 415.779 1.36816 -1.01071 0
M  V30 4203 O 416.964 1.45455 -1.28672 0
M  V30 4204 C 414.094 2.30708 -2.59598 0
M  V30 4205 C 413.048 2.09142 -3.73421 0
M  V30 4206 C 412.374 3.44685 -4.08774 0
M  V30 4207 C 413.674 1.46619 -5.01298 0
M  V30 4208 H 415.368 0.569978 -2.93925 0
M  V30 4209 H 412.914 0.272724 -1.41394 0
M  V30 4210 H 414.867 3.00687 -2.95238 0
M  V30 4211 H 413.591 2.76843 -1.73279 0
M  V30 4212 H 412.25 1.41592 -3.38153 0
M  V30 4213 H 411.898 3.88495 -3.195 0
M  V30 4214 H 411.598 3.31077 -4.8545 0
M  V30 4215 H 413.122 4.16004 -4.4696 0
M  V30 4216 H 414.536 2.06535 -5.34805 0
M  V30 4217 H 412.933 1.43544 -5.82679 0
M  V30 4218 H 414.003 0.433611 -4.82957 0
M  V30 4219 N 415.346 1.54954 0.287554 0
M  V30 4220 C 416.574 1.78881 1.03967 0
M  V30 4221 C 416.989 0.554894 1.80462 0
M  V30 4222 O 416.346 -0.475676 1.76192 0
M  V30 4223 C 416.397 3.00488 2.0097 0
M  V30 4224 O 416.118 4.19113 1.27577 0
M  V30 4225 C 417.619 3.36907 2.88112 0
M  V30 4226 H 414.839 0.596259 0.307761 0
M  V30 4227 H 417.383 2.01937 0.322749 0
M  V30 4228 H 415.538 2.79601 2.68145 0
M  V30 4229 H 415.952 4.87765 1.92835 0
M  V30 4230 H 417.426 4.25205 3.52001 0
M  V30 4231 H 417.903 2.55659 3.57121 0
M  V30 4232 H 418.509 3.60001 2.26449 0
M  V30 4233 N 416.824 -0.551391 1.4764 0
M  V30 4234 C 418.071 -1.3083 1.54563 0
M  V30 4235 C 418.399 -1.93359 0.210361 0
M  V30 4236 O 417.654 -1.78721 -0.797332 0
M  V30 4237 C 417.953 -2.43469 2.61644 0
M  V30 4238 C 417.619 -1.98732 4.04742 0
M  V30 4239 C 416.281 -1.86248 4.43695 0
M  V30 4240 C 418.633 -1.64659 4.94507 0
M  V30 4241 C 415.961 -1.37995 5.70241 0
M  V30 4242 C 418.313 -1.17875 6.21521 0
M  V30 4243 C 416.977 -1.03992 6.5935 0
M  V30 4244 H 416.247 -0.478741 0.565587 0
M  V30 4245 H 418.894 -0.617697 1.81264 0
M  V30 4246 H 417.199 -3.18109 2.28722 0
M  V30 4247 H 418.896 -3.01642 2.64222 0
M  V30 4248 H 415.486 -2.09393 3.73968 0
M  V30 4249 H 419.67 -1.73174 4.65107 0
M  V30 4250 H 414.926 -1.25915 5.98294 0
M  V30 4251 H 419.1 -0.905739 6.90485 0
M  V30 4252 H 416.727 -0.663794 7.57296 0
M  V30 4253 N 418.302 -1.35869 -0.798587 0
M  V30 4254 C 419.542 -1.30961 -1.56935 0
M  V30 4255 C 419.906 0.112404 -1.91671 0
M  V30 4256 O 421.107 0.285937 -2.67275 0
M  V30 4257 C 419.378 -2.19811 -2.81811 0
M  V30 4258 S 420.937 -2.32498 -3.72143 0
M  V30 4259 H 417.755 -0.465297 -0.537606 0
M  V30 4260 H 420.357 -1.71344 -0.941346 0
M  V30 4261 H 419.061 -3.22095 -2.54329 0
M  V30 4262 H 418.592 -1.80415 -3.49591 0
M  V30 4263 H 420.607 -1.5157 -4.72484 0
M  V30 4264 N 419.78 1.02168 -1.19998 0
M  V30 4265 C 420.71 2.12488 -0.96804 0
M  V30 4266 C 421.691 1.69799 0.101185 0
M  V30 4267 O 422.876 1.94121 -0.0552993 0
M  V30 4268 C 420.006 3.43479 -0.513776 0
M  V30 4269 C 418.96 3.99884 -1.52566 0
M  V30 4270 C 418.286 5.26582 -0.928214 0
M  V30 4271 C 419.586 4.33861 -2.90795 0
M  V30 4272 H 421.28 2.32149 -1.89069 0
M  V30 4273 H 418.826 1.11564 -0.910468 0
M  V30 4274 H 420.779 4.20036 -0.338774 0
M  V30 4275 H 419.503 3.23561 0.444493 0
M  V30 4276 H 418.162 3.25429 -1.68794 0
M  V30 4277 H 417.81 5.02986 0.0378289 0
M  V30 4278 H 417.51 5.65284 -1.60397 0
M  V30 4279 H 419.034 6.05799 -0.764167 0
M  V30 4280 H 420.448 5.01327 -2.78109 0
M  V30 4281 H 418.845 4.83664 -3.55231 0
M  V30 4282 H 419.915 3.42848 -3.42904 0
M  V30 4283 N 421.258 1.00505 1.21394 0
M  V30 4284 C 422.669 0.721082 1.72213 0
M  V30 4285 C 423.02 -0.761263 1.80829 0
M  V30 4286 O 422.145 -1.59464 1.46288 0
M  V30 4287 C 422.74 1.30228 3.12772 0
M  V30 4288 C 421.299 1.06743 3.60947 0
M  V30 4289 C 420.446 1.41507 2.38477 0
M  V30 4290 H 423.397 1.17594 1.06571 0
M  V30 4291 H 423.418 0.686955 3.74247 0
M  V30 4292 H 422.93 2.38115 3.06468 0
M  V30 4293 H 421.031 0.00572162 3.726 0
M  V30 4294 H 421.144 1.73936 4.46411 0
M  V30 4295 H 419.508 0.833852 2.40664 0
M  V30 4296 H 420.291 2.50424 2.34824 0
M  V30 4297 N 422.737 -1.36956 0.779787 0
M  V30 4298 C 424.014 -1.93697 0.272156 0
M  V30 4299 C 424.394 -1.71267 -1.23413 0
M  V30 4300 O 423.742 -1.06607 -2.02107 0
M  V30 4301 C 423.952 -3.42812 0.654291 0
M  V30 4302 C 425.3 -4.19921 0.628602 0
M  V30 4303 O 426.324 -3.51209 0.594172 0
M  V30 4304 O 425.183 -5.42465 0.662864 0
M  V30 4305 H 422.277 -0.824447 0.0649286 0
M  V30 4306 H 424.823 -1.46196 0.861682 0
M  V30 4307 H 423.595 -3.52754 1.69353 0
M  V30 4308 H 423.218 -3.97582 0.0381369 0
M  V30 4309 N 424.215 -0.530993 -1.48385 0
M  V30 4310 C 425.626 -0.0907905 -1.86479 0
M  V30 4311 C 425.977 1.33213 -1.44044 0
M  V30 4312 O 425.102 1.99783 -0.831615 0
M  V30 4313 C 425.697 -0.157987 -3.38431 0
M  V30 4314 C 424.256 0.227026 -3.75715 0
M  V30 4315 C 423.403 -0.5173 -2.72432 0
M  V30 4316 H 426.354 -0.742186 -1.40276 0
M  V30 4317 H 426.375 0.630053 -3.75247 0
M  V30 4318 H 425.887 -1.19372 -3.69286 0
M  V30 4319 H 423.988 1.26486 -3.50474 0
M  V30 4320 H 424.101 -0.113288 -4.78966 0
M  V30 4321 H 422.465 0.0365527 -2.54674 0
M  V30 4322 H 423.248 -1.55368 -3.0613 0
M  V30 4323 N 425.693 1.55336 -0.266172 0
M  V30 4324 C 426.923 2.03506 0.356239 0
M  V30 4325 C 427.331 1.14426 1.50676 0
M  V30 4326 O 426.674 0.155043 1.83045 0
M  V30 4327 C 426.736 3.47848 0.90785 0
M  V30 4328 C 426.4 4.56861 -0.112888 0
M  V30 4329 C 427.397 5.11528 -0.929264 0
M  V30 4330 C 425.082 5.01704 -0.244546 0
M  V30 4331 C 427.076 6.09549 -1.86357 0
M  V30 4332 C 424.763 5.99553 -1.18234 0
M  V30 4333 C 425.761 6.53356 -1.99036 0
M  V30 4334 O 425.449 7.49293 -2.91231 0
M  V30 4335 H 425.181 0.670444 0.08649 0
M  V30 4336 H 427.735 2.01598 -0.39337 0
M  V30 4337 H 425.965 3.46967 1.70737 0
M  V30 4338 H 427.654 3.79407 1.44239 0
M  V30 4339 H 428.42 4.77701 -0.838237 0
M  V30 4340 H 424.299 4.59477 0.374359 0
M  V30 4341 H 427.843 6.51469 -2.49467 0
M  V30 4342 H 423.74 6.32799 -1.27421 0
M  V30 4343 H 424.508 7.66978 -2.8581 0
M  V30 4344 N 427.171 -0.0066808 1.57599 0
M  V30 4345 C 428.419 -0.691552 1.899 0
M  V30 4346 C 428.74 -1.74682 0.866672 0
M  V30 4347 O 428.01 -1.95661 -0.0968189 0
M  V30 4348 H 426.59 -0.258416 0.700878 0
M  V30 4349 H 429.252 0.0326655 1.94873 0
M  V30 4350 H 428.348 -1.16702 2.8946 0
M  V30 4351 N 428.649 -1.55105 -0.279332 0
M  V30 4352 C 429.889 -1.7716 -1.01949 0
M  V30 4353 C 430.253 -0.557511 -1.83728 0
M  V30 4354 O 431.454 -0.656198 -2.60667 0
M  V30 4355 C 429.725 -3.0372 -1.88385 0
M  V30 4356 S 431.284 -3.46868 -2.68752 0
M  V30 4357 H 428.102 -0.62253 -0.343478 0
M  V30 4358 H 430.704 -1.93329 -0.290572 0
M  V30 4359 H 429.408 -3.90184 -1.2722 0
M  V30 4360 H 428.939 -2.902 -2.65608 0
M  V30 4361 H 430.954 -3.05643 -3.90892 0
M  V30 4362 N 430.127 0.543554 -1.4793 0
M  V30 4363 C 431.352 1.32995 -1.59145 0
M  V30 4364 C 431.777 1.86472 -0.246956 0
M  V30 4365 O 431.135 1.63696 0.779324 0
M  V30 4366 C 431.183 2.46623 -2.63077 0
M  V30 4367 O 430.287 3.49261 -2.19295 0
M  V30 4368 H 429.628 0.394472 -0.534124 0
M  V30 4369 H 432.158 0.655489 -1.93816 0
M  V30 4370 H 432.168 2.93001 -2.83926 0
M  V30 4371 H 430.843 2.07059 -3.60693 0
M  V30 4372 H 429.42 3.09094 -2.08603 0
M  V30 4373 N 431.605 1.3629 0.791371 0
M  V30 4374 C 432.845 1.31792 1.56238 0
M  V30 4375 C 433.209 -0.102237 1.91728 0
M  V30 4376 O 434.41 -0.271759 2.67423 0
M  V30 4377 C 432.681 2.21303 2.80642 0
M  V30 4378 S 434.24 2.34468 3.70904 0
M  V30 4379 H 431.058 0.468141 0.535131 0
M  V30 4380 H 433.66 1.71841 0.932246 0
M  V30 4381 H 432.364 3.23439 2.52617 0
M  V30 4382 H 431.895 1.82266 3.4863 0
M  V30 4383 H 433.91 1.54074 4.71673 0
M  V30 4384 N 433.083 -1.0153 1.20538 0
M  V30 4385 C 434.331 -1.74803 1.01432 0
M  V30 4386 C 434.652 -1.8963 -0.454456 0
M  V30 4387 O 433.922 -1.43975 -1.32846 0
M  V30 4388 H 432.502 -0.647598 0.372324 0
M  V30 4389 H 435.164 -1.22402 1.5167 0
M  V30 4390 H 434.26 -2.75114 1.47373 0
M  V30 4391 N 434.561 -1.01147 -1.20859 0
M  V30 4392 C 435.786 -0.716698 -1.94623 0
M  V30 4393 C 436.211 0.715415 -1.73964 0
M  V30 4394 O 435.569 1.49157 -1.03062 0
M  V30 4395 C 435.617 -1.0513 -3.44935 0
M  V30 4396 O 434.721 -0.160131 -4.12089 0
M  V30 4397 H 434.062 -0.266404 -0.608214 0
M  V30 4398 H 436.592 -1.35346 -1.53436 0
M  V30 4399 H 436.602 -1.00086 -3.95533 0
M  V30 4400 H 435.277 -2.09475 -3.59295 0
M  V30 4401 H 433.854 -0.267657 -3.71938 0
M  V30 4402 N 436.039 1.36541 -0.78704 0
M  V30 4403 C 437.287 1.98911 -0.357633 0
M  V30 4404 C 437.608 1.62778 1.07371 0
M  V30 4405 O 436.878 0.900612 1.73971 0
M  V30 4406 H 435.458 0.735734 -0.129246 0
M  V30 4407 H 438.12 1.66776 -1.00855 0
M  V30 4408 H 437.216 3.08874 -0.447549 0
M  V30 4409 N 437.518 0.538854 1.48102 0
M  V30 4410 C 438.764 0.0161732 2.03394 0
M  V30 4411 C 439.119 -1.31154 1.40771 0
M  V30 4412 O 438.412 -1.83613 0.547421 0
M  V30 4413 C 438.606 -0.153808 3.57069 0
M  V30 4414 C 438.435 1.15588 4.34591 0
M  V30 4415 C 437.205 1.71818 4.75191 0
M  V30 4416 C 439.403 2.06867 4.70861 0
M  V30 4417 N 437.385 2.96983 5.37284 0
M  V30 4418 C 438.756 3.16609 5.33066 0
M  V30 4419 C 440.811 2.07085 4.52791 0
M  V30 4420 C 439.514 4.26645 5.79109 0
M  V30 4421 C 441.54 3.16121 4.99821 0
M  V30 4422 C 440.902 4.24582 5.62058 0
M  V30 4423 H 437.001 0.0476346 0.780548 0
M  V30 4424 H 439.585 0.722094 1.80815 0
M  V30 4425 H 437.756 -0.828825 3.79454 0
M  V30 4426 H 439.488 -0.676896 3.98999 0
M  V30 4427 H 436.243 1.25845 4.56574 0
M  V30 4428 H 436.667 3.60732 5.72889 0
M  V30 4429 H 441.309 1.24522 4.04047 0
M  V30 4430 H 439.027 5.0998 6.26854 0
M  V30 4431 H 442.613 3.17355 4.87624 0
M  V30 4432 H 441.493 5.07562 5.97788 0
M  V30 4433 N 438.996 -1.55193 0.274407 0
M  V30 4434 C 440.412 -1.59401 -0.0797543 0
M  V30 4435 C 440.612 -1.29162 -1.54659 0
M  V30 4436 O 439.668 -1.05215 -2.29534 0
M  V30 4437 C 440.981 -2.99257 0.294238 0
M  V30 4438 C 442.529 -3.12072 0.240796 0
M  V30 4439 C 443.004 -4.54194 0.589218 0
M  V30 4440 N 444.495 -4.60033 0.540744 0
M  V30 4441 C 445.23 -5.68027 0.783147 0
M  V30 4442 N 444.726 -6.8417 1.09013 0
M  V30 4443 N 446.519 -5.57572 0.711993 0
M  V30 4444 H 438.67 -1.73113 1.23067 0
M  V30 4445 H 440.933 -0.807197 0.497129 0
M  V30 4446 H 440.639 -3.26217 1.31435 0
M  V30 4447 H 440.513 -3.75427 -0.365281 0
M  V30 4448 H 442.9 -2.84877 -0.770024 0
M  V30 4449 H 442.981 -2.38117 0.934563 0
M  V30 4450 H 442.625 -4.82115 1.59772 0
M  V30 4451 H 442.555 -5.26448 -0.126331 0
M  V30 4452 H 445.046 -3.76599 0.313327 0
M  V30 4453 H 445.359 -7.6243 1.26178 0
M  V30 4454 H 443.704 -6.85787 1.12789 0
M  V30 4455 H 446.895 -4.65714 0.472014 0
M  V30 4456 H 447.068 -6.41659 0.90429 0
M  V30 4457 N 440.474 -0.00167713 -1.576 0
M  V30 4458 C 441.722 0.681471 -1.90264 0
M  V30 4459 C 442.043 1.7422 -0.875924 0
M  V30 4460 O 441.313 1.95709 0.0864412 0
M  V30 4461 H 439.893 0.254696 -0.702239 0
M  V30 4462 H 442.555 -0.0429996 -1.94853 0
M  V30 4463 H 441.651 1.15166 -2.90075 0
M  V30 4464 N 441.952 1.55251 0.271103 0
M  V30 4465 C 443.177 1.80306 1.02491 0
M  V30 4466 C 443.602 0.575457 1.79081 0
M  V30 4467 O 442.96 -0.474987 1.74967 0
M  V30 4468 C 443.008 3.02832 1.95768 0
M  V30 4469 O 442.112 2.78051 3.04568 0
M  V30 4470 H 441.453 0.595896 0.292923 0
M  V30 4471 H 443.983 2.02397 0.299436 0
M  V30 4472 H 443.993 3.31616 2.37686 0
M  V30 4473 H 442.668 3.9183 1.39434 0
M  V30 4474 H 441.245 2.60369 2.66951 0
M  V30 4475 N 443.43 -0.535701 1.48216 0
M  V30 4476 C 444.362 -1.65662 1.58394 0
M  V30 4477 C 445.375 -1.5591 0.468607 0
M  V30 4478 O 446.564 -1.62475 0.7392 0
M  V30 4479 C 443.664 -3.04276 1.4923 0
M  V30 4480 C 442.837 -3.39567 2.75705 0
M  V30 4481 C 441.896 -4.57436 2.60075 0
M  V30 4482 O 440.922 -4.60942 3.33948 0
M  V30 4483 N 442.124 -5.55259 1.69315 0
M  V30 4484 H 444.889 -1.5737 2.55058 0
M  V30 4485 H 442.45 -0.722845 1.44867 0
M  V30 4486 H 444.442 -3.80994 1.36477 0
M  V30 4487 H 443.012 -3.06677 0.605632 0
M  V30 4488 H 442.232 -2.52083 3.03064 0
M  V30 4489 H 443.52 -3.59929 3.59623 0
M  V30 4490 H 442.918 -5.552 1.08489 0
M  V30 4491 H 441.475 -6.31218 1.62504 0
M  V30 4492 N 444.908 -1.36708 -0.784132 0
M  V30 4493 C 446.148 -1.32618 -1.55537 0
M  V30 4494 C 446.512 0.0920681 -1.91779 0
M  V30 4495 O 447.713 0.257573 -2.67563 0
M  V30 4496 C 445.984 -2.22788 -2.79464 0
M  V30 4497 S 447.543 -2.36432 -3.69656 0
M  V30 4498 H 444.361 -0.470973 -0.53264 0
M  V30 4499 H 446.963 -1.72333 -0.92312 0
M  V30 4500 H 445.667 -3.24774 -2.50899 0
M  V30 4501 H 445.198 -1.84112 -3.47658 0
M  V30 4502 H 447.213 -1.56573 -4.7085 0
M  V30 4503 N 446.386 1.0089 -1.21074 0
M  V30 4504 C 447.318 2.09737 -0.924291 0
M  V30 4505 C 448.331 1.62546 0.0909809 0
M  V30 4506 O 449.52 1.77942 -0.141021 0
M  V30 4507 C 446.62 3.36922 -0.36559 0
M  V30 4508 C 445.793 4.13216 -1.43426 0
M  V30 4509 C 444.852 5.18696 -0.885496 0
M  V30 4510 O 443.878 5.47176 -1.56801 0
M  V30 4511 N 445.08 5.79718 0.301227 0
M  V30 4512 H 447.845 2.34895 -1.8613 0
M  V30 4513 H 445.406 1.17341 -1.11546 0
M  V30 4514 H 447.398 4.04697 0.0158407 0
M  V30 4515 H 445.968 3.08952 0.476149 0
M  V30 4516 H 445.188 3.40301 -1.9897 0
M  V30 4517 H 446.476 4.60967 -2.15376 0
M  V30 4518 H 445.874 5.58926 0.872849 0
M  V30 4519 H 444.431 6.48804 0.624211 0
M  V30 4520 N 447.864 1.01787 1.20321 0
M  V30 4521 C 448.774 0.598898 2.26827 0
M  V30 4522 C 449.79 -0.36418 1.70146 0
M  V30 4523 O 450.966 -0.224812 2.00141 0
M  V30 4524 C 448.031 -0.0549769 3.46656 0
M  V30 4525 C 447.092 0.954205 4.18561 0
M  V30 4526 C 446.325 0.331439 5.3267 0
M  V30 4527 O 446.548 -0.86851 5.63749 0
M  V30 4528 O 445.482 1.0488 5.92692 0
M  V30 4529 H 449.308 1.48562 2.64883 0
M  V30 4530 H 446.893 0.787434 1.26964 0
M  V30 4531 H 448.775 -0.420102 4.19301 0
M  V30 4532 H 447.45 -0.915876 3.10473 0
M  V30 4533 H 446.357 1.37072 3.48083 0
M  V30 4534 H 447.69 1.78511 4.58688 0
M  V30 4535 N 449.342 -1.36122 0.79427 0
M  V30 4536 C 450.305 -2.28309 0.201889 0
M  V30 4537 C 451.305 -1.49041 -0.603603 0
M  V30 4538 O 452.495 -1.68964 -0.423888 0
M  V30 4539 C 449.627 -3.3321 -0.719978 0
M  V30 4540 H 450.82 -2.82208 1.01481 0
M  V30 4541 H 448.373 -1.45768 0.564037 0
M  V30 4542 H 449.108 -2.84475 -1.55706 0
M  V30 4543 H 448.893 -3.91835 -0.144266 0
M  V30 4544 H 450.383 -4.02044 -1.12916 0
M  V30 4545 N 450.82 -0.546701 -1.47814 0
M  V30 4546 C 452.06 -0.0209604 -2.04389 0
M  V30 4547 C 452.424 1.29993 -1.413 0
M  V30 4548 O 453.625 1.91273 -1.8886 0
M  V30 4549 C 451.896 0.0812844 -3.57308 0
M  V30 4550 S 453.455 0.55467 -4.3528 0
M  V30 4551 H 450.273 -0.0200865 -0.710716 0
M  V30 4552 H 452.875 -0.731055 -1.81317 0
M  V30 4553 H 451.579 -0.884616 -4.00753 0
M  V30 4554 H 451.11 0.815253 -3.8486 0
M  V30 4555 H 453.125 1.81627 -4.61764 0
M  V30 4556 N 452.299 1.55045 -0.282633 0
M  V30 4557 C 453.262 2.21515 0.588539 0
M  V30 4558 C 454.262 1.19535 1.07554 0
M  V30 4559 O 455.452 1.44391 0.974514 0
M  V30 4560 C 452.584 2.88704 1.8128 0
M  V30 4561 H 453.777 2.99899 0.00806397 0
M  V30 4562 H 451.33 1.56265 -0.0333067 0
M  V30 4563 H 452.065 2.14352 2.43359 0
M  V30 4564 H 451.85 3.63443 1.47144 0
M  V30 4565 H 453.34 3.39465 2.43214 0
M  V30 4566 N 453.777 0.010035 1.57597 0
M  V30 4567 C 455.188 -0.531426 1.78977 0
M  V30 4568 C 455.539 -1.73375 0.918454 0
M  V30 4569 O 454.664 -2.16047 0.123635 0
M  V30 4570 C 455.259 -0.97086 3.24592 0
M  V30 4571 C 453.818 -1.45756 3.47033 0
M  V30 4572 C 452.965 -0.413384 2.74201 0
M  V30 4573 H 455.916 0.236166 1.56933 0
M  V30 4574 H 455.937 -1.83633 3.33255 0
M  V30 4575 H 455.449 -0.0955893 3.87982 0
M  V30 4576 H 453.55 -2.35339 2.88871 0
M  V30 4577 H 453.663 -1.4781 4.55729 0
M  V30 4578 H 452.027 -0.877266 2.39115 0
M  V30 4579 H 452.81 0.453092 3.40297 0
M  V30 4580 N 455.255 -1.55392 -0.262866 0
M  V30 4581 C 456.503 -1.76127 -0.991147 0
M  V30 4582 C 456.824 -0.571083 -1.8645 0
M  V30 4583 O 456.094 0.413698 -1.91482 0
M  V30 4584 H 454.674 -0.649528 -0.368948 0
M  V30 4585 H 457.336 -1.9281 -0.284655 0
M  V30 4586 H 456.432 -2.6663 -1.62219 0
M  V30 4587 N 456.733 0.527833 -1.48498 0
M  V30 4588 C 457.683 1.62844 -1.5958 0
M  V30 4589 C 458.667 1.54397 -0.452809 0
M  V30 4590 O 459.859 1.62381 -0.704364 0
M  V30 4591 C 456.988 3.01557 -1.64067 0
M  V30 4592 C 456.074 3.151 -2.83853 0
M  V30 4593 N 456.465 2.9861 -4.08247 0
M  V30 4594 C 454.763 3.46158 -2.8123 0
M  V30 4595 C 455.464 3.15626 -4.88626 0
M  V30 4596 N 454.44 3.43298 -4.21483 0
M  V30 4597 H 458.242 1.48708 -2.53502 0
M  V30 4598 H 455.756 0.733343 -1.44899 0
M  V30 4599 H 457.753 3.8062 -1.70101 0
M  V30 4600 H 456.413 3.16783 -0.712636 0
M  V30 4601 H 457.424 2.75329 -4.3865 0
M  V30 4602 H 454.101 3.67728 -1.97692 0
M  V30 4603 H 455.491 3.07596 -5.97356 0
M  V30 4604 N 458.211 1.37122 0.776871 0
M  V30 4605 C 459.458 1.32047 1.53524 0
M  V30 4606 C 459.786 -0.0965631 1.9426 0
M  V30 4607 O 459.041 -1.06866 1.63945 0
M  V30 4608 C 459.34 2.20068 2.81611 0
M  V30 4609 C 459.006 3.68423 2.59953 0
M  V30 4610 C 457.668 4.08854 2.53755 0
M  V30 4611 C 460.02 4.62431 2.40431 0
M  V30 4612 C 457.348 5.41417 2.26018 0
M  V30 4613 C 459.7 5.95225 2.14219 0
M  V30 4614 C 458.364 6.34767 2.06462 0
M  V30 4615 H 457.634 0.483196 0.561785 0
M  V30 4616 H 460.281 1.69284 0.895268 0
M  V30 4617 H 458.586 1.75809 3.50141 0
M  V30 4618 H 460.283 2.13458 3.39465 0
M  V30 4619 H 456.873 3.36354 2.65638 0
M  V30 4620 H 461.057 4.32057 2.44213 0
M  V30 4621 H 456.313 5.71022 2.18504 0
M  V30 4622 H 460.487 6.67626 1.98112 0
M  V30 4623 H 458.114 7.37413 1.84733 0
M  V30 4624 N 459.689 -1.00246 1.21608 0
M  V30 4625 C 460.937 -1.73717 1.0328 0
M  V30 4626 C 461.258 -1.90102 -0.434318 0
M  V30 4627 O 460.528 -1.45376 -1.31311 0
M  V30 4628 H 459.108 -0.643613 0.379172 0
M  V30 4629 H 461.77 -1.20787 1.52959 0
M  V30 4630 H 460.866 -2.73535 1.50283 0
M  V30 4631 N 461.167 -1.02423 -1.1978 0
M  V30 4632 C 462.13 -0.605703 -2.21052 0
M  V30 4633 C 463.13 0.328209 -1.57415 0
M  V30 4634 O 464.32 0.115853 -1.73814 0
M  V30 4635 C 461.452 0.114366 -3.40708 0
M  V30 4636 H 462.645 -1.5017 -2.59594 0
M  V30 4637 H 460.198 -0.814888 -1.33376 0
M  V30 4638 H 460.933 1.02492 -3.07678 0
M  V30 4639 H 460.718 -0.556641 -3.88129 0
M  V30 4640 H 462.208 0.394272 -4.15735 0
M  V30 4641 N 462.645 1.35699 -0.801477 0
M  V30 4642 C 463.922 1.9324 -0.302937 0
M  V30 4643 C 464.302 1.73209 1.20672 0
M  V30 4644 O 463.65 1.09809 2.00385 0
M  V30 4645 C 463.86 3.41728 -0.708747 0
M  V30 4646 C 465.208 4.18868 -0.695328 0
M  V30 4647 O 466.232 3.5022 -0.649971 0
M  V30 4648 O 465.091 5.41342 -0.749081 0
M  V30 4649 H 462.185 0.82331 -0.0780367 0
M  V30 4650 H 464.731 1.44806 -0.884832 0
M  V30 4651 H 463.503 3.50015 -1.74944 0
M  V30 4652 H 463.126 3.97471 -0.101384 0
M  V30 4653 N 464.123 0.554532 1.47522 0
M  V30 4654 C 465.363 0.0317994 2.04375 0
M  V30 4655 C 465.727 -1.29242 1.41988 0
M  V30 4656 O 466.928 -1.90269 1.89872 0
M  V30 4657 C 465.199 -0.0623344 3.57346 0
M  V30 4658 S 466.758 -0.531578 4.35568 0
M  V30 4659 H 463.576 0.0238553 0.7106 0
M  V30 4660 H 466.178 0.74066 1.80927 0
M  V30 4661 H 464.882 0.905857 4.00278 0
M  V30 4662 H 464.413 -0.794831 3.85287 0
M  V30 4663 H 466.428 -1.79175 4.62721 0
M  V30 4664 N 465.601 -1.54893 0.290851 0
M  V30 4665 C 467.017 -1.59476 -0.0628432 0
M  V30 4666 C 467.217 -1.30795 -1.5328 0
M  V30 4667 O 466.273 -1.07644 -2.28406 0
M  V30 4668 C 467.586 -2.98928 0.325962 0
M  V30 4669 C 469.134 -3.11799 0.273882 0
M  V30 4670 C 469.609 -4.53544 0.637359 0
M  V30 4671 N 471.1 -4.59433 0.589507 0
M  V30 4672 C 471.835 -5.67164 0.84335 0
M  V30 4673 N 471.331 -6.82975 1.16263 0
M  V30 4674 N 473.124 -5.56786 0.771091 0
M  V30 4675 H 465.275 -1.71798 1.24896 0
M  V30 4676 H 467.538 -0.801879 0.505663 0
M  V30 4677 H 467.244 -3.24805 1.34887 0
M  V30 4678 H 467.118 -3.75793 -0.325441 0
M  V30 4679 H 469.505 -2.85677 -0.739765 0
M  V30 4680 H 469.586 -2.37112 0.959766 0
M  V30 4681 H 469.23 -4.80394 1.64877 0
M  V30 4682 H 469.16 -5.26553 -0.0704866 0
M  V30 4683 H 471.651 -3.76245 0.353252 0
M  V30 4684 H 471.964 -7.61048 1.34257 0
M  V30 4685 H 470.309 -6.84552 1.20057 0
M  V30 4686 H 473.5 -4.65187 0.521383 0
M  V30 4687 H 473.673 -6.40664 0.972295 0
M  V30 4688 N 467.08 -0.0183926 -1.57589 0
M  V30 4689 C 468.01 0.965596 -2.12599 0
M  V30 4690 C 468.991 1.34641 -1.0395 0
M  V30 4691 O 470.176 1.42693 -1.31729 0
M  V30 4692 C 467.306 2.25149 -2.64434 0
M  V30 4693 C 466.26 2.01175 -3.77773 0
M  V30 4694 C 465.586 3.35937 -4.15994 0
M  V30 4695 C 466.886 1.35953 -5.04296 0
M  V30 4696 H 468.58 0.507504 -2.95067 0
M  V30 4697 H 466.126 0.242671 -1.41941 0
M  V30 4698 H 468.079 2.94357 -3.01549 0
M  V30 4699 H 466.803 2.73105 -1.79112 0
M  V30 4700 H 465.462 1.34388 -3.4108 0
M  V30 4701 H 465.11 3.81631 -3.27669 0
M  V30 4702 H 464.81 3.20705 -4.92364 0
M  V30 4703 H 466.334 4.0643 -4.55683 0
M  V30 4704 H 467.748 1.95144 -5.39065 0
M  V30 4705 H 466.145 1.31152 -5.85593 0
M  V30 4706 H 467.215 0.331071 -4.83768 0
M  V30 4707 N 468.558 1.5553 0.254621 0
M  V30 4708 C 469.49 1.86104 1.33783 0
M  V30 4709 C 470.503 0.746752 1.44663 0
M  V30 4710 O 471.692 1.0248 1.46151 0
M  V30 4711 C 468.792 2.02532 2.71724 0
M  V30 4712 C 467.965 3.33335 2.83208 0
M  V30 4713 C 467.024 3.396 4.01943 0
M  V30 4714 O 466.05 4.12862 3.91834 0
M  V30 4715 N 467.252 2.68332 5.1476 0
M  V30 4716 H 470.017 2.79605 1.07893 0
M  V30 4717 H 467.578 1.55672 0.444732 0
M  V30 4718 H 469.57 2.04074 3.4948 0
M  V30 4719 H 468.14 1.15811 2.90356 0
M  V30 4720 H 467.36 3.44176 1.92189 0
M  V30 4721 H 468.648 4.19565 2.87824 0
M  V30 4722 H 468.046 2.08528 5.25864 0
M  V30 4723 H 466.603 2.75575 5.90679 0
M  V30 4724 N 470.036 -0.519951 1.48776 0
M  V30 4725 C 471.276 -1.2856 1.58908 0
M  V30 4726 C 471.64 -1.90212 0.261418 0
M  V30 4727 O 472.841 -2.67746 0.237791 0
M  V30 4728 C 471.112 -2.33836 2.70288 0
M  V30 4729 S 472.671 -3.19992 3.0025 0
M  V30 4730 H 469.489 -0.43717 0.560717 0
M  V30 4731 H 472.091 -0.591205 1.86346 0
M  V30 4732 H 470.795 -1.87041 3.653 0
M  V30 4733 H 470.326 -3.07969 2.44783 0
M  V30 4734 H 472.341 -4.34122 2.40317 0
M  V30 4735 N 471.514 -1.37532 -0.769588 0
M  V30 4736 C 472.446 -1.29347 -1.89214 0
M  V30 4737 C 473.459 -0.208842 -1.61455 0
M  V30 4738 O 474.648 -0.465158 -1.72333 0
M  V30 4739 C 471.748 -0.977649 -3.24492 0
M  V30 4740 C 470.921 -2.16817 -3.7988 0
M  V30 4741 C 469.98 -1.82229 -4.93639 0
M  V30 4742 O 469.006 -2.54548 -5.09111 0
M  V30 4743 N 470.208 -0.767696 -5.75401 0
M  V30 4744 H 472.973 -2.26073 -1.96751 0
M  V30 4745 H 470.534 -1.31185 -0.948795 0
M  V30 4746 H 472.526 -0.727065 -3.98115 0
M  V30 4747 H 471.096 -0.0988777 -3.12444 0
M  V30 4748 H 470.316 -2.58038 -2.9801 0
M  V30 4749 H 471.604 -2.96308 -4.13617 0
M  V30 4750 H 471.002 -0.167626 -5.65452 0
M  V30 4751 H 469.559 -0.576973 -6.49241 0
M  V30 4752 N 472.992 0.995999 -1.22138 0
M  V30 4753 C 474.232 1.75032 -1.05561 0
M  V30 4754 C 474.596 1.87729 0.402698 0
M  V30 4755 O 475.797 2.59813 0.689234 0
M  V30 4756 C 474.068 3.11973 -1.74379 0
M  V30 4757 S 475.627 4.03182 -1.73175 0
M  V30 4758 H 472.445 0.602137 -0.37809 0
M  V30 4759 H 475.047 1.19107 -1.55028 0
M  V30 4760 H 473.751 3.00371 -2.79652 0
M  V30 4761 H 473.282 3.7297 -1.25128 0
M  V30 4762 H 475.297 4.90043 -0.77923 0
M  V30 4763 N 474.47 1.03057 1.19235 0
M  V30 4764 C 475.402 0.570932 2.21975 0
M  V30 4765 C 476.415 -0.354088 1.58903 0
M  V30 4766 O 477.604 -0.150211 1.77867 0
M  V30 4767 C 474.704 -0.187152 3.38383 0
M  V30 4768 C 473.877 0.743231 4.31039 0
M  V30 4769 C 472.936 0.0302493 5.26191 0
M  V30 4770 O 471.962 0.657371 5.65391 0
M  V30 4771 N 473.164 -1.23991 5.67104 0
M  V30 4772 H 475.929 1.45456 2.62036 0
M  V30 4773 H 473.49 0.909807 1.33918 0
M  V30 4774 H 475.482 -0.673715 3.99053 0
M  V30 4775 H 474.052 -0.972205 2.97098 0
M  V30 4776 H 473.272 1.40985 3.68126 0
M  V30 4777 H 474.56 1.3755 4.89854 0
M  V30 4778 H 473.958 -1.77011 5.37293 0
M  V30 4779 H 472.515 -1.67093 6.30018 0
M  V30 4780 N 475.948 -1.35272 0.808662 0
M  V30 4781 C 476.896 -2.31663 0.208606 0
M  V30 4782 C 477.89 -1.56731 -0.642778 0
M  V30 4783 O 479.096 -1.71843 -0.53571 0
M  V30 4784 H 475.471 -0.750421 0.0486993 0
M  V30 4785 H 477.442 -2.79814 1.03666 0
M  V30 4786 C 476.191 -3.42008 -0.626573 0
M  V30 4787 H 475.514 -3.99795 0.0192103 0
M  V30 4788 H 476.954 -4.11727 -1.01278 0
M  V30 4789 C 475.413 -2.85226 -1.79298 0
M  V30 4790 O 475.943 -2.78945 -2.89055 0
M  V30 4791 N 474.149 -2.42245 -1.60516 0
M  V30 4792 H 473.696 -2.47554 -0.712375 0
M  V30 4793 H 473.654 -2.04603 -2.38715 0
M  V30 4794 N 477.426 -0.562348 -1.47226 0
M  V30 4795 C 478.674 -0.0401371 -2.0206 0
M  V30 4796 C 478.995 1.3165 -1.43852 0
M  V30 4797 O 478.265 1.85976 -0.615599 0
M  V30 4798 H 476.845 -0.0118479 -0.746906 0
M  V30 4799 H 479.507 -0.73352 -1.8057 0
M  V30 4800 H 478.603 0.0441254 -3.12069 0
M  V30 4801 N 478.904 1.54736 -0.299062 0
M  V30 4802 C 480.152 1.99706 0.31017 0
M  V30 4803 C 480.473 1.18896 1.54559 0
M  V30 4804 O 479.743 0.284445 1.93824 0
M  V30 4805 H 478.323 0.737686 0.117596 0
M  V30 4806 H 480.985 1.9054 -0.409943 0
M  V30 4807 H 480.081 3.06596 0.58355 0
M  V30 4808 N 480.382 0.0267497 1.57577 0
M  V30 4809 C 481.61 -0.662661 1.96001 0
M  V30 4810 C 482.025 -1.65799 0.903117 0
M  V30 4811 O 481.382 -1.82135 -0.115317 0
M  V30 4812 C 481.433 -1.37112 3.34488 0
M  V30 4813 O 481.154 -0.415683 4.36123 0
M  V30 4814 C 482.655 -2.15257 3.8753 0
M  V30 4815 H 479.875 -0.18287 0.6456 0
M  V30 4816 H 482.419 0.0858116 2.0432 0
M  V30 4817 H 480.574 -2.07101 3.27395 0
M  V30 4818 H 480.988 -0.918496 5.16395 0
M  V30 4819 H 482.462 -2.60285 4.86781 0
M  V30 4820 H 482.939 -2.99063 3.21649 0
M  V30 4821 H 483.545 -1.50231 3.97883 0
M  V30 4822 N 481.861 -1.55662 -0.24637 0
M  V30 4823 C 483.101 -1.79283 -0.981685 0
M  V30 4824 C 483.465 -0.596356 -1.82504 0
M  V30 4825 O 484.666 -0.711342 -2.59217 0
M  V30 4826 C 482.937 -3.07648 -1.819 0
M  V30 4827 S 484.496 -3.52491 -2.61334 0
M  V30 4828 H 481.314 -0.629676 -0.330196 0
M  V30 4829 H 483.916 -1.93901 -0.249498 0
M  V30 4830 H 482.62 -3.92794 -1.18915 0
M  V30 4831 H 482.151 -2.95768 -2.59393 0
M  V30 4832 H 484.166 -3.13866 -3.84321 0
M  V30 4833 N 483.339 0.512053 -1.4905 0
M  V30 4834 C 484.616 1.27337 -1.48474 0
M  V30 4835 C 484.996 2.1009 -0.206301 0
M  V30 4836 O 484.344 2.136 0.811609 0
M  V30 4837 C 484.554 2.13954 -2.75726 0
M  V30 4838 C 485.902 2.73507 -3.24776 0
M  V30 4839 O 486.926 2.24229 -2.76767 0
M  V30 4840 O 485.785 3.63186 -4.08361 0
M  V30 4841 H 482.879 0.575652 -0.593762 0
M  V30 4842 H 485.425 0.527232 -1.61302 0
M  V30 4843 H 484.197 1.52709 -3.60272 0
M  V30 4844 H 483.82 2.95782 -2.65705 0
M  V30 4845 N 484.817 1.37938 0.762283 0
M  V30 4846 C 486.233 1.18945 1.06415 0
M  V30 4847 C 486.433 0.0321163 2.01474 0
M  V30 4848 O 485.489 -0.624844 2.44647 0
M  V30 4849 C 486.802 2.51218 1.65258 0
M  V30 4850 C 488.35 2.57824 1.7747 0
M  V30 4851 C 488.825 3.90251 2.39725 0
M  V30 4852 N 490.316 3.91744 2.47166 0
M  V30 4853 C 491.051 4.90966 2.96209 0
M  V30 4854 N 490.547 6.00585 3.45354 0
M  V30 4855 N 492.34 4.78363 2.9517 0
M  V30 4856 H 484.491 2.11994 0.131301 0
M  V30 4857 H 486.754 0.940262 0.120879 0
M  V30 4858 H 486.46 3.36317 1.02878 0
M  V30 4859 H 486.334 2.68989 2.64433 0
M  V30 4860 H 488.721 1.73126 2.3898 0
M  V30 4861 H 488.802 2.43928 0.770241 0
M  V30 4862 H 488.446 4.75368 1.78852 0
M  V30 4863 H 488.376 4.01454 3.40796 0
M  V30 4864 H 490.867 3.12563 2.12397 0
M  V30 4865 H 491.18 6.72236 3.81207 0
M  V30 4866 H 489.525 6.04217 3.43434 0
M  V30 4867 H 492.716 3.91841 2.56082 0
M  V30 4868 H 492.889 5.55843 3.33081 0
M  V30 4869 N 486.295 -0.989507 1.22664 0
M  V30 4870 C 487.542 -1.72953 1.05325 0
M  V30 4871 C 487.87 -1.90104 -0.411168 0
M  V30 4872 O 487.125 -1.44386 -1.32103 0
M  V30 4873 C 487.424 -3.13649 1.71345 0
M  V30 4874 C 487.09 -3.16403 3.21248 0
M  V30 4875 C 485.752 -3.16862 3.62149 0
M  V30 4876 C 488.104 -3.12428 4.17179 0
M  V30 4877 C 485.432 -3.11051 4.97458 0
M  V30 4878 C 487.784 -3.08159 5.52468 0
M  V30 4879 C 486.448 -3.06935 5.92746 0
M  V30 4880 H 485.718 -0.632881 0.385412 0
M  V30 4881 H 488.365 -1.15863 1.52473 0
M  V30 4882 H 486.67 -3.74069 1.16532 0
M  V30 4883 H 488.367 -3.69658 1.55416 0
M  V30 4884 H 484.957 -3.16798 2.88682 0
M  V30 4885 H 489.141 -3.11221 3.86595 0
M  V30 4886 H 484.397 -3.0845 5.27891 0
M  V30 4887 H 488.571 -3.04039 6.26525 0
M  V30 4888 H 486.198 -3.02186 6.97558 0
M  V30 4889 N 487.773 -1.03688 -1.18687 0
M  V30 4890 C 488.998 -0.757819 -1.93059 0
M  V30 4891 C 489.423 0.678353 -1.75442 0
M  V30 4892 O 488.781 1.46938 -1.06203 0
M  V30 4893 C 488.829 -1.12423 -3.42627 0
M  V30 4894 O 487.933 -0.247505 -4.11657 0
M  V30 4895 H 487.274 -0.279245 -0.602427 0
M  V30 4896 H 489.804 -1.3857 -1.5053 0
M  V30 4897 H 489.814 -1.08454 -3.93322 0
M  V30 4898 H 488.489 -2.17049 -3.54771 0
M  V30 4899 H 487.066 -0.34649 -3.71287 0
M  V30 4900 N 489.251 1.34841 -0.815825 0
M  V30 4901 C 490.499 1.98107 -0.399744 0
M  V30 4902 C 490.82 1.65019 1.03894 0
M  V30 4903 O 490.09 0.937311 1.72021 0
M  V30 4904 H 488.67 0.732827 -0.144823 0
M  V30 4905 H 491.332 1.64599 -1.0437 0
M  V30 4906 H 490.428 3.07856 -0.512965 0
M  V30 4907 N 490.729 0.570148 1.46925 0
M  V30 4908 C 491.969 0.0534743 2.0433 0
M  V30 4909 C 492.333 -1.27729 1.4335 0
M  V30 4910 O 493.534 -1.88244 1.91879 0
M  V30 4911 C 491.805 -0.0244296 3.57392 0
M  V30 4912 S 493.364 -0.485351 4.36108 0
M  V30 4913 H 490.182 0.0313908 0.710307 0
M  V30 4914 H 492.784 0.759808 1.80131 0
M  V30 4915 H 491.488 0.948261 3.99295 0
M  V30 4916 H 491.019 -0.753922 3.86108 0
M  V30 4917 H 493.034 -1.74258 4.64595 0
M  V30 4918 N 492.207 -1.54576 0.307264 0
M  V30 4919 C 493.453 -2.0056 -0.300612 0
M  V30 4920 C 493.786 -1.1953 -1.53057 0
M  V30 4921 O 493.061 -0.27337 -1.92569 0
M  V30 4922 C 493.344 -3.54167 -0.650987 0
M  V30 4923 C 493.197 -4.45933 0.588539 0
M  V30 4924 C 494.516 -4.14645 -1.47506 0
M  V30 4925 H 491.635 -0.729075 -0.107788 0
M  V30 4926 H 494.277 -1.85286 0.420606 0
M  V30 4927 H 492.427 -3.67313 -1.26544 0
M  V30 4928 H 494.099 -4.44683 1.22697 0
M  V30 4929 H 492.342 -4.16274 1.22058 0
M  V30 4930 H 493.013 -5.51189 0.299153 0
M  V30 4931 H 495.489 -4.04973 -0.955821 0
M  V30 4932 H 494.365 -5.22269 -1.68899 0
M  V30 4933 H 494.626 -3.66921 -2.4662 0
M  V30 4934 N 493.685 -0.035106 -1.57561 0
M  V30 4935 C 494.925 0.646316 -1.93913 0
M  V30 4936 C 495.289 1.68947 -0.912185 0
M  V30 4937 O 496.49 2.42381 -1.1621 0
M  V30 4938 C 494.761 1.24136 -3.35149 0
M  V30 4939 S 496.32 1.94302 -3.93436 0
M  V30 4940 H 493.138 0.212642 -0.678457 0
M  V30 4941 H 495.74 -0.100203 -1.95243 0
M  V30 4942 H 494.444 0.46979 -4.07702 0
M  V30 4943 H 493.975 2.02505 -3.37276 0
M  V30 4944 H 495.99 3.22205 -3.77357 0
M  V30 4945 N 495.163 1.55791 0.238111 0
M  V30 4946 C 496.574 1.68383 0.806472 0
M  V30 4947 C 496.925 0.634157 1.85669 0
M  V30 4948 O 496.05 -0.217913 2.153 0
M  V30 4949 C 496.645 3.05268 1.46959 0
M  V30 4950 C 495.204 3.1977 1.98555 0
M  V30 4951 C 494.351 2.64279 0.839763 0
M  V30 4952 H 497.302 1.58694 0.0137535 0
M  V30 4953 H 497.323 3.00203 2.33792 0
M  V30 4954 H 496.835 3.81643 0.704993 0
M  V30 4955 H 494.936 2.48234 2.77868 0
M  V30 4956 H 495.049 4.26788 2.17689 0
M  V30 4957 H 493.413 2.22329 1.24265 0
M  V30 4958 H 494.196 3.43187 0.0881032 0
M  V30 4959 N 496.642 -0.504142 1.49319 0
M  V30 4960 C 497.867 -1.28729 1.62615 0
M  V30 4961 C 498.292 -1.85752 0.296309 0
M  V30 4962 O 497.65 -1.65704 -0.735649 0
M  V30 4963 C 497.698 -2.39561 2.69524 0
M  V30 4964 O 496.802 -3.43324 2.28478 0
M  V30 4965 H 496.143 -0.380172 0.544395 0
M  V30 4966 H 498.673 -0.603872 1.95485 0
M  V30 4967 H 498.683 -2.8537 2.91595 0
M  V30 4968 H 497.358 -1.97423 3.66056 0
M  V30 4969 H 495.935 -3.03455 2.16725 0
M  V30 4970 N 498.12 -1.38341 -0.754957 0
M  V30 4971 C 499.368 -1.34208 -1.51105 0
M  V30 4972 C 499.689 0.0677634 -1.94882 0
M  V30 4973 O 498.959 1.01517 -1.67544 0
M  V30 4974 H 497.539 -0.493819 -0.560493 0
M  V30 4975 H 500.201 -1.73005 -0.897507 0
M  V30 4976 H 499.297 -1.99203 -2.4026 0
M  V30 4977 N 499.598 0.982988 -1.23187 0
M  V30 4978 C 500.844 1.7273 -1.07405 0
M  V30 4979 C 501.199 1.885 0.385447 0
M  V30 4980 O 500.492 1.4243 1.28157 0
M  V30 4981 C 500.686 3.12736 -1.73006 0
M  V30 4982 C 500.515 3.10621 -3.25184 0
M  V30 4983 C 499.285 3.15957 -3.94334 0
M  V30 4984 C 501.483 2.93992 -4.21987 0
M  V30 4985 N 499.465 3.03701 -5.33516 0
M  V30 4986 C 500.836 2.8987 -5.48065 0
M  V30 4987 C 502.891 2.78457 -4.12754 0
M  V30 4988 C 501.594 2.71804 -6.65969 0
M  V30 4989 C 503.62 2.61754 -5.30319 0
M  V30 4990 C 502.982 2.58328 -6.55321 0
M  V30 4991 H 499.081 0.641279 -0.447533 0
M  V30 4992 H 501.665 1.16664 -1.55877 0
M  V30 4993 H 499.836 3.67026 -1.2707 0
M  V30 4994 H 501.568 3.75786 -1.50224 0
M  V30 4995 H 498.323 3.24034 -3.45397 0
M  V30 4996 H 498.747 3.00855 -6.06478 0
M  V30 4997 H 503.389 2.79898 -3.16886 0
M  V30 4998 H 501.107 2.69108 -7.61975 0
M  V30 4999 H 504.693 2.50702 -5.25014 0
M  V30 5000 H 503.573 2.45564 -7.4476 0
M  V30 5001 N 501.076 1.04316 1.18135 0
M  V30 5002 C 502.026 0.606731 2.19779 0
M  V30 5003 C 503.01 -0.352144 1.56999 0
M  V30 5004 O 504.202 -0.170795 1.76174 0
M  V30 5005 C 501.331 -0.0262443 3.4329 0
M  V30 5006 C 500.417 0.955928 4.13186 0
M  V30 5007 N 500.808 2.12395 4.59045 0
M  V30 5008 C 499.106 0.782473 4.39082 0
M  V30 5009 C 499.807 2.74458 5.12882 0
M  V30 5010 N 498.783 2.02316 5.04548 0
M  V30 5011 H 502.585 1.49679 2.5293 0
M  V30 5012 H 500.099 0.912088 1.34368 0
M  V30 5013 H 502.096 -0.356617 4.15372 0
M  V30 5014 H 500.756 -0.911811 3.11635 0
M  V30 5015 H 501.767 2.50272 4.53414 0
M  V30 5016 H 498.444 -0.0527906 4.17467 0
M  V30 5017 H 499.834 3.73459 5.5855 0
M  V30 5018 N 502.554 -1.34406 0.822964 0
M  V30 5019 C 503.802 -1.97892 0.410245 0
M  V30 5020 C 504.123 -1.65567 -1.03017 0
M  V30 5021 O 503.393 -0.94642 -1.71522 0
M  V30 5022 H 501.973 -0.732049 0.148707 0
M  V30 5023 H 504.635 -1.64043 1.05242 0
M  V30 5024 H 503.731 -3.07579 0.529284 0
M  V30 5025 N 504.032 -0.577932 -1.46621 0
M  V30 5026 C 505.278 -0.0617793 -2.02706 0
M  V30 5027 C 505.611 1.29294 -1.44903 0
M  V30 5028 O 504.886 1.8461 -0.61232 0
M  V30 5029 C 505.169 0.00911824 -3.60099 0
M  V30 5030 C 505.022 -1.37416 -4.28295 0
M  V30 5031 C 506.341 0.712159 -4.343 0
M  V30 5032 H 503.46 -0.0239246 -0.736612 0
M  V30 5033 H 506.102 -0.744211 -1.74818 0
M  V30 5034 H 504.252 0.590292 -3.83989 0
M  V30 5035 H 505.924 -2.00013 -4.15683 0
M  V30 5036 H 504.167 -1.94319 -3.87843 0
M  V30 5037 H 504.838 -1.27707 -5.37024 0
M  V30 5038 H 507.314 0.218486 -4.15526 0
M  V30 5039 H 506.19 0.730782 -5.44014 0
M  V30 5040 H 506.451 1.77251 -4.05012 0
M  V30 5041 N 505.51 1.54411 -0.315457 0
M  V30 5042 C 506.46 2.20772 0.569549 0
M  V30 5043 C 507.444 1.18551 1.08787 0
M  V30 5044 O 508.636 1.44213 1.02624 0
M  V30 5045 C 505.765 2.96293 1.73394 0
M  V30 5046 C 504.851 4.05844 1.2309 0
M  V30 5047 N 505.242 5.03822 0.446927 0
M  V30 5048 C 503.54 4.19648 1.51035 0
M  V30 5049 C 504.241 5.8143 0.17725 0
M  V30 5050 N 503.217 5.38245 0.761118 0
M  V30 5051 H 507.019 2.93877 -0.0368076 0
M  V30 5052 H 504.533 1.61949 -0.120915 0
M  V30 5053 H 506.53 3.42313 2.37965 0
M  V30 5054 H 505.19 2.24708 2.34386 0
M  V30 5055 H 506.201 5.17821 0.0905027 0
M  V30 5056 H 502.878 3.59274 2.1267 0
M  V30 5057 H 504.268 6.70369 -0.45335 0
M  V30 5058 N 506.988 0.0434614 1.5754 0
M  V30 5059 C 508.228 -0.636023 1.94253 0
M  V30 5060 C 508.592 -1.68461 0.921132 0
M  V30 5061 O 509.793 -2.41762 1.17494 0
M  V30 5062 C 508.064 -1.22357 3.35803 0
M  V30 5063 S 509.623 -1.92213 3.94461 0
M  V30 5064 H 506.441 -0.209041 0.679575 0
M  V30 5065 H 509.043 0.110556 1.95187 0
M  V30 5066 H 507.747 -0.448162 4.07946 0
M  V30 5067 H 507.278 -2.00713 3.38346 0
M  V30 5068 H 509.293 -3.20199 3.79061 0
M  V30 5069 N 508.466 -1.55915 -0.229846 0
M  V30 5070 C 509.376 -1.94891 -1.30593 0
M  V30 5071 C 510.392 -0.851604 -1.51736 0
M  V30 5072 O 511.568 -1.15447 -1.65027 0
M  V30 5073 C 508.633 -2.25052 -2.63728 0
M  V30 5074 C 507.694 -3.48306 -2.5096 0
M  V30 5075 C 506.927 -3.77019 -3.77747 0
M  V30 5076 O 507.15 -3.07534 -4.80395 0
M  V30 5077 O 506.084 -4.70523 -3.75356 0
M  V30 5078 H 509.91 -2.86581 -1.00525 0
M  V30 5079 H 507.495 -1.43017 -0.432025 0
M  V30 5080 H 509.377 -2.45682 -3.42372 0
M  V30 5081 H 508.052 -1.36538 -2.93495 0
M  V30 5082 H 506.959 -3.32964 -1.70546 0
M  V30 5083 H 508.292 -4.37177 -2.26136 0
M  V30 5084 N 509.944 0.496216 -1.49584 0
M  V30 5085 C 510.891 1.59722 -1.66606 0
M  V30 5086 C 511.861 1.58158 -0.507477 0
M  V30 5087 O 513.046 1.76072 -0.735076 0
M  V30 5088 C 510.186 2.97844 -1.74308 0
M  V30 5089 C 509.299 3.09388 -3.01502 0
M  V30 5090 C 508.434 4.38271 -3.00153 0
M  V30 5091 C 507.473 4.43466 -4.21906 0
M  V30 5092 N 506.61 5.63784 -4.1844 0
M  V30 5093 H 511.45 1.44515 -2.60613 0
M  V30 5094 H 508.987 0.703048 -1.29212 0
M  V30 5095 H 510.945 3.77907 -1.76754 0
M  V30 5096 H 509.575 3.11743 -0.837619 0
M  V30 5097 H 508.627 2.22357 -3.08645 0
M  V30 5098 H 509.939 3.09085 -3.91494 0
M  V30 5099 H 509.093 5.2666 -3.01188 0
M  V30 5100 H 507.832 4.41146 -2.07947 0
M  V30 5101 H 506.837 3.53478 -4.21109 0
M  V30 5102 H 508.062 4.42303 -5.1531 0
M  V30 5103 H 506.008 5.67491 -3.29074 0
M  V30 5104 H 505.925 5.65118 -5.02173 0
M  V30 5105 H 507.193 6.54367 -4.23585 0
M  V30 5106 N 511.423 1.38739 0.74761 0
M  V30 5107 C 512.648 1.38702 1.54197 0
M  V30 5108 C 513.073 -0.019664 1.8809 0
M  V30 5109 O 512.431 -1.00333 1.51006 0
M  V30 5110 C 512.479 2.25492 2.814 0
M  V30 5111 O 511.583 1.67613 3.76802 0
M  V30 5112 H 510.924 0.472863 0.466151 0
M  V30 5113 H 513.454 1.82577 0.923413 0
M  V30 5114 H 513.464 2.39561 3.30264 0
M  V30 5115 H 512.139 3.27727 2.56062 0
M  V30 5116 H 510.716 1.62718 3.35526 0
M  V30 5117 N 512.901 -0.976442 1.23707 0
M  V30 5118 C 514.178 -1.69296 0.979699 0
M  V30 5119 C 514.558 -2.0508 -0.500555 0
M  V30 5120 O 513.906 -1.74708 -1.47273 0
M  V30 5121 C 514.116 -2.93143 1.89389 0
M  V30 5122 C 515.464 -3.65572 2.15968 0
M  V30 5123 O 516.488 -3.03184 1.86971 0
M  V30 5124 O 515.347 -4.77859 2.65167 0
M  V30 5125 H 512.441 -0.739708 0.369812 0
M  V30 5126 H 514.987 -1.03131 1.34767 0
M  V30 5127 H 513.759 -2.63327 2.89439 0
M  V30 5128 H 513.382 -3.67044 1.52854 0
M  V30 5129 N 514.379 -1.04941 -1.1758 0
M  V30 5130 C 515.795 -0.770282 -1.39781 0
M  V30 5131 C 515.995 0.636417 -1.91186 0
M  V30 5132 O 515.051 1.39923 -2.10185 0
M  V30 5133 C 516.364 -1.82376 -2.3908 0
M  V30 5134 C 517.912 -1.84569 -2.52791 0
M  V30 5135 C 518.387 -2.88933 -3.55361 0
M  V30 5136 N 519.878 -2.8788 -3.62877 0
M  V30 5137 C 520.613 -3.65282 -4.41992 0
M  V30 5138 N 520.109 -4.52461 -5.24643 0
M  V30 5139 N 521.902 -3.53732 -4.36841 0
M  V30 5140 H 514.053 -1.95705 -0.825438 0
M  V30 5141 H 516.316 -0.847284 -0.425222 0
M  V30 5142 H 516.022 -2.83323 -2.08376 0
M  V30 5143 H 515.896 -1.66327 -3.38549 0
M  V30 5144 H 518.283 -0.842879 -2.82807 0
M  V30 5145 H 518.364 -2.04696 -1.53406 0
M  V30 5146 H 518.008 -3.89398 -3.26085 0
M  V30 5147 H 517.938 -2.66059 -4.54445 0
M  V30 5148 H 520.429 -2.24666 -3.03864 0
M  V30 5149 H 520.742 -5.08211 -5.82187 0
M  V30 5150 H 519.087 -4.56524 -5.24033 0
M  V30 5151 H 522.278 -2.85021 -3.71323 0
M  V30 5152 H 522.451 -4.14302 -4.98255 0
M  V30 5153 N 515.857 1.33968 -0.830081 0
M  V30 5154 C 517.106 1.97323 -0.417928 0
M  V30 5155 C 517.419 1.6652 1.02618 0
M  V30 5156 O 518.625 2.2342 1.54259 0
M  V30 5157 C 517.081 3.53099 -0.696359 0
M  V30 5158 C 516.689 3.92788 -2.15457 0
M  V30 5159 C 518.433 4.23049 -0.350724 0
M  V30 5160 C 516.34 5.41506 -2.37751 0
M  V30 5161 H 515.27 0.738409 -0.152541 0
M  V30 5162 H 517.921 1.52711 -1.01744 0
M  V30 5163 H 516.303 3.95991 -0.0265904 0
M  V30 5164 H 517.477 3.6098 -2.86408 0
M  V30 5165 H 515.792 3.35795 -2.46232 0
M  V30 5166 H 518.389 5.32403 -0.495036 0
M  V30 5167 H 518.732 4.10279 0.705476 0
M  V30 5168 H 519.265 3.85657 -0.975362 0
M  V30 5169 H 516.004 5.5927 -3.41903 0
M  V30 5170 H 515.524 5.74804 -1.7135 0
M  V30 5171 H 517.203 6.0828 -2.20465 0
M  V30 5172 N 517.335 0.585699 1.46312 0
M  V30 5173 C 518.746 0.159938 1.86014 0
M  V30 5174 C 519.097 -1.27775 1.48889 0
M  V30 5175 O 518.222 -1.96559 0.90519 0
M  V30 5176 C 518.817 0.283485 3.37612 0
M  V30 5177 C 517.376 -0.0874256 3.76298 0
M  V30 5178 C 516.523 0.618055 2.70325 0
M  V30 5179 H 519.474 0.793737 1.37425 0
M  V30 5180 H 519.495 -0.490348 3.77327 0
M  V30 5181 H 519.007 1.32995 3.64601 0
M  V30 5182 H 517.108 -1.13391 3.54927 0
M  V30 5183 H 517.221 0.290975 4.78216 0
M  V30 5184 H 515.585 0.057993 2.54634 0
M  V30 5185 H 516.368 1.66623 3.00153 0
M  V30 5186 N 518.813 -1.54241 0.323641 0
M  V30 5187 C 519.745 -2.21836 -0.576311 0
M  V30 5188 C 520.758 -1.21837 -1.07979 0
M  V30 5189 O 521.947 -1.48306 -0.99336 0
M  V30 5190 C 519.047 -2.86923 -1.80356 0
M  V30 5191 C 518.22 -4.1306 -1.43875 0
M  V30 5192 C 517.279 -4.6174 -2.52353 0
M  V30 5193 O 516.305 -5.26421 -2.16494 0
M  V30 5194 N 517.507 -4.35974 -3.83284 0
M  V30 5195 H 520.272 -2.997 0.00247987 0
M  V30 5196 H 517.833 -1.61233 0.146848 0
M  V30 5197 H 519.825 -3.16414 -2.52318 0
M  V30 5198 H 518.395 -2.12765 -2.29019 0
M  V30 5199 H 517.615 -3.90334 -0.550752 0
M  V30 5200 H 518.903 -4.95148 -1.17071 0
M  V30 5201 H 518.301 -3.84203 -4.15216 0
M  V30 5202 H 516.858 -4.70119 -4.51477 0
M  V30 5203 N 520.291 -0.0518155 -1.57515 0
M  V30 5204 C 521.54 0.621286 -1.91893 0
M  V30 5205 C 521.853 1.71966 -0.932052 0
M  V30 5206 O 523.059 2.45096 -1.16791 0
M  V30 5207 C 521.515 1.15641 -3.40816 0
M  V30 5208 C 521.123 0.0901146 -4.47909 0
M  V30 5209 C 522.867 1.80472 -3.84227 0
M  V30 5210 C 520.774 0.638154 -5.87947 0
M  V30 5211 H 519.704 0.235835 -0.716169 0
M  V30 5212 H 522.355 -0.120809 -1.83102 0
M  V30 5213 H 520.737 1.95084 -3.44613 0
M  V30 5214 H 521.911 -0.683525 -4.55702 0
M  V30 5215 H 520.226 -0.460774 -4.13843 0
M  V30 5216 H 522.823 2.22471 -4.86221 0
M  V30 5217 H 523.166 2.65669 -3.20508 0
M  V30 5218 H 523.699 1.07683 -3.82948 0
M  V30 5219 H 520.438 -0.176202 -6.55263 0
M  V30 5220 H 519.958 1.37976 -5.83714 0
M  V30 5221 H 521.637 1.12085 -6.37217 0
M  V30 5222 N 521.769 1.56035 0.221574 0
M  V30 5223 C 522.699 1.95434 1.2778 0
M  V30 5224 C 523.68 0.822564 1.48889 0
M  V30 5225 O 524.865 1.08486 1.61072 0
M  V30 5226 C 521.995 2.27102 2.62759 0
M  V30 5227 C 520.949 3.4277 2.56306 0
M  V30 5228 C 520.275 3.60043 3.95314 0
M  V30 5229 C 521.575 4.77742 2.11093 0
M  V30 5230 H 523.269 2.83912 0.950504 0
M  V30 5231 H 520.815 1.36596 0.455791 0
M  V30 5232 H 522.768 2.53256 3.36807 0
M  V30 5233 H 521.492 1.35478 2.97176 0
M  V30 5234 H 520.151 3.16664 1.84715 0
M  V30 5235 H 519.799 2.65794 4.27039 0
M  V30 5236 H 519.499 4.37841 3.91879 0
M  V30 5237 H 521.023 3.88545 4.71025 0
M  V30 5238 H 522.437 5.03102 2.74885 0
M  V30 5239 H 520.834 5.58823 2.18716 0
M  V30 5240 H 521.904 4.731 1.06321 0
M  V30 5241 N 523.247 -0.488276 1.49845 0
M  V30 5242 C 524.195 -1.60917 1.67954 0
M  V30 5243 C 525.189 -1.6038 0.54539 0
M  V30 5244 O 526.395 -1.64736 0.7254 0
M  V30 5245 H 522.77 -0.533658 0.529824 0
M  V30 5246 H 524.741 -1.428 2.62013 0
M  V30 5247 C 523.49 -2.98975 1.77509 0
M  V30 5248 H 522.813 -3.00099 2.6416 0
M  V30 5249 H 524.253 -3.76906 1.9421 0
M  V30 5250 C 522.712 -3.3282 0.522745 0
M  V30 5251 O 523.242 -4.00208 -0.345866 0
M  V30 5252 N 521.448 -2.8808 0.381882 0
M  V30 5253 H 520.995 -2.33415 1.08974 0
M  V30 5254 H 520.953 -3.11091 -0.454929 0
M  V30 5255 N 524.725 -1.39134 -0.740242 0
M  V30 5256 C 525.658 -1.3182 -1.86276 0
M  V30 5257 C 526.636 -0.192794 -1.61453 0
M  V30 5258 O 527.82 -0.372365 -1.84786 0
M  V30 5259 C 524.947 -1.04564 -3.22155 0
M  V30 5260 C 523.993 -2.19224 -3.65846 0
M  V30 5261 S 524.826 -3.81466 -3.75824 0
M  V30 5262 C 525.982 -3.56425 -5.14502 0
M  V30 5263 H 526.215 -2.26822 -1.92195 0
M  V30 5264 H 523.748 -1.25127 -0.904576 0
M  V30 5265 H 525.706 -0.895228 -4.00619 0
M  V30 5266 H 524.367 -0.112578 -3.13898 0
M  V30 5267 H 523.56 -1.95732 -4.6444 0
M  V30 5268 H 523.162 -2.30441 -2.94572 0
M  V30 5269 H 525.454 -3.13366 -6.00673 0
M  V30 5270 H 526.397 -4.54462 -5.43019 0
M  V30 5271 H 526.805 -2.90641 -4.8393 0
M  V30 5272 N 526.204 0.969867 -1.24223 0
M  V30 5273 C 527.167 2.04564 -1.03373 0
M  V30 5274 C 528.167 1.60798 0.00819206 0
M  V30 5275 O 529.357 1.72641 -0.232567 0
M  V30 5276 C 526.489 3.36163 -0.566343 0
M  V30 5277 H 527.682 2.24494 -1.98853 0
M  V30 5278 H 525.235 1.1448 -1.06415 0
M  V30 5279 H 525.97 3.21925 0.391751 0
M  V30 5280 H 525.755 3.69273 -1.31834 0
M  V30 5281 H 527.245 4.1526 -0.441435 0
M  V30 5282 N 527.682 1.05563 1.17022 0
M  V30 5283 C 528.907 0.788437 1.91829 0
M  V30 5284 C 529.332 -0.650356 1.76499 0
M  V30 5285 O 528.69 -1.45229 1.08527 0
M  V30 5286 C 528.738 1.1786 3.40795 0
M  V30 5287 O 527.842 0.312965 4.11211 0
M  V30 5288 H 527.183 0.288794 0.597908 0
M  V30 5289 H 529.713 1.40948 1.48307 0
M  V30 5290 H 529.723 1.14697 3.91546 0
M  V30 5291 H 528.398 2.22666 3.51273 0
M  V30 5292 H 526.975 0.405515 3.70689 0
M  V30 5293 N 529.16 -1.33526 0.837174 0
M  V30 5294 C 530.07 -2.33023 0.271568 0
M  V30 5295 C 531.086 -1.63272 -0.601514 0
M  V30 5296 O 532.262 -1.94939 -0.506038 0
M  V30 5297 C 529.327 -3.42382 -0.545448 0
M  V30 5298 C 528.388 -4.27857 0.351709 0
M  V30 5299 C 527.621 -5.31994 -0.426409 0
M  V30 5300 O 527.844 -5.45763 -1.65828 0
M  V30 5301 O 526.778 -6.01572 0.1987 0
M  V30 5302 H 530.604 -2.83256 1.09545 0
M  V30 5303 H 528.189 -1.36837 0.599655 0
M  V30 5304 H 530.071 -4.09122 -1.00979 0
M  V30 5305 H 528.746 -2.94369 -1.34641 0
M  V30 5306 H 527.653 -3.6399 0.863853 0
M  V30 5307 H 528.986 -4.79349 1.1174 0
M  V30 5308 N 530.638 -0.59345 -1.46 0
M  V30 5309 C 531.568 0.121192 -2.33185 0
M  V30 5310 C 532.549 0.872977 -1.4599 0
M  V30 5311 O 533.734 0.846321 -1.74789 0
M  V30 5312 C 530.864 1.12844 -3.28456 0
M  V30 5313 C 529.818 0.4908 -4.25177 0
M  V30 5314 C 529.144 1.60529 -5.10034 0
M  V30 5315 C 530.444 -0.578949 -5.19081 0
M  V30 5316 H 532.138 -0.606767 -2.93187 0
M  V30 5317 H 529.684 -0.293242 -1.40983 0
M  V30 5318 H 531.637 1.63684 -3.88311 0
M  V30 5319 H 530.361 1.88681 -2.66584 0
M  V30 5320 H 529.02 0.00339328 -3.666 0
M  V30 5321 H 528.668 2.35359 -4.44539 0
M  V30 5322 H 528.368 1.18422 -5.75543 0
M  V30 5323 H 529.892 2.11623 -5.72755 0
M  V30 5324 H 531.306 -0.155199 -5.7309 0
M  V30 5325 H 529.703 -0.920947 -5.92991 0
M  V30 5326 H 530.773 -1.46109 -4.62364 0
M  V30 5327 N 532.116 1.54067 -0.331816 0
M  V30 5328 C 533.026 2.28322 0.539104 0
M  V30 5329 C 534.042 1.32985 1.1221 0
M  V30 5330 O 535.218 1.6601 1.1403 0
M  V30 5331 C 532.283 3.03277 1.68 0
M  V30 5332 C 531.344 4.14216 1.12798 0
M  V30 5333 C 530.577 4.85588 2.2145 0
M  V30 5334 O 530.8 4.56536 3.41952 0
M  V30 5335 O 529.734 5.72309 1.86404 0
M  V30 5336 H 533.56 3.03632 -0.0641692 0
M  V30 5337 H 531.145 1.49083 -0.0972365 0
M  V30 5338 H 533.027 3.50189 2.34405 0
M  V30 5339 H 531.702 2.30834 2.2693 0
M  V30 5340 H 530.609 3.71635 0.428782 0
M  V30 5341 H 531.942 4.88727 0.583698 0
M  V30 5342 N 533.594 0.0601682 1.57485 0
M  V30 5343 C 534.841 -0.611594 1.93043 0
M  V30 5344 C 535.169 -1.70317 0.939274 0
M  V30 5345 O 534.424 -1.95644 -0.046996 0
M  V30 5346 C 534.723 -1.23831 3.35262 0
M  V30 5347 C 534.389 -0.274037 4.50066 0
M  V30 5348 C 533.051 -0.00872394 4.81199 0
M  V30 5349 C 535.403 0.386308 5.19766 0
M  V30 5350 C 532.731 0.924218 5.79375 0
M  V30 5351 C 535.083 1.3075 6.1894 0
M  V30 5352 C 533.747 1.58139 6.48497 0
M  V30 5353 H 533.017 -0.223798 0.706396 0
M  V30 5354 H 535.664 0.128566 1.91068 0
M  V30 5355 H 533.969 -2.05394 3.33647 0
M  V30 5356 H 535.666 -1.76517 3.60059 0
M  V30 5357 H 532.256 -0.491008 4.25778 0
M  V30 5358 H 536.44 0.194436 4.95919 0
M  V30 5359 H 531.696 1.1438 6.00606 0
M  V30 5360 H 535.87 1.82519 6.72056 0
M  V30 5361 H 533.497 2.30593 7.24383 0
M  V30 5362 N 535.072 -1.5615 -0.213296 0
M  V30 5363 C 536.02 -1.93953 -1.28394 0
M  V30 5364 C 537.014 -0.822592 -1.48087 0
M  V30 5365 O 538.22 -1.00748 -1.49164 0
M  V30 5366 H 534.595 -0.61648 -0.430646 0
M  V30 5367 H 536.566 -2.83275 -0.937977 0
M  V30 5368 C 535.315 -2.27969 -2.62537 0
M  V30 5369 H 534.638 -3.13432 -2.48194 0
M  V30 5370 H 536.078 -2.58297 -3.36242 0
M  V30 5371 C 534.537 -1.10775 -3.18167 0
M  V30 5372 O 535.067 -0.373201 -3.99963 0
M  V30 5373 N 533.273 -0.889377 -2.76656 0
M  V30 5374 H 532.82 -1.48843 -2.10246 0
M  V30 5375 H 532.778 -0.107 -3.14218 0
M  V30 5376 N 536.55 0.480323 -1.50102 0
M  V30 5377 C 537.48 1.58769 -1.71215 0
M  V30 5378 C 538.461 1.60583 -0.560997 0
M  V30 5379 O 539.646 1.76996 -0.799127 0
M  V30 5380 C 536.776 2.97148 -1.79778 0
M  V30 5381 C 535.73 3.10201 -2.94888 0
M  V30 5382 C 535.056 4.50137 -2.88584 0
M  V30 5383 C 536.356 2.88283 -4.35534 0
M  V30 5384 H 538.05 1.41354 -2.6393 0
M  V30 5385 H 535.596 0.678591 -1.27008 0
M  V30 5386 H 537.549 3.74536 -1.93133 0
M  V30 5387 H 536.273 3.15699 -0.836772 0
M  V30 5388 H 534.932 2.35244 -2.81169 0
M  V30 5389 H 534.58 4.65593 -1.90349 0
M  V30 5390 H 534.28 4.59808 -3.65856 0
M  V30 5391 H 535.804 5.29558 -3.03976 0
M  V30 5392 H 537.218 3.55427 -4.49827 0
M  V30 5393 H 535.615 3.09408 -5.14186 0
M  V30 5394 H 536.685 1.84219 -4.48544 0
M  V30 5395 N 538.028 1.39524 0.732853 0
M  V30 5396 C 538.938 1.40695 1.87729 0
M  V30 5397 C 539.954 0.301496 1.71368 0
M  V30 5398 O 541.13 0.543313 1.93933 0
M  V30 5399 C 538.195 1.25098 3.23344 0
M  V30 5400 C 537.256 2.45634 3.52083 0
M  V30 5401 C 536.489 2.30772 4.81228 0
M  V30 5402 O 536.712 1.31233 5.55098 0
M  V30 5403 O 535.646 3.19799 5.09914 0
M  V30 5404 H 539.472 2.37168 1.89697 0
M  V30 5405 H 537.057 1.20663 0.880959 0
M  V30 5406 H 538.939 1.18541 4.04383 0
M  V30 5407 H 537.614 0.317209 3.22142 0
M  V30 5408 H 536.521 2.57767 2.71122 0
M  V30 5409 H 537.854 3.37712 3.58066 0
M  V30 5410 N 539.506 -0.963266 1.24736 0
M  V30 5411 C 540.734 -1.74166 1.11686 0
M  V30 5412 C 541.149 -1.8589 -0.330187 0
M  V30 5413 O 540.506 -1.35042 -1.2276 0
M  V30 5414 C 540.557 -3.15989 1.75595 0
M  V30 5415 O 540.278 -3.04847 3.14642 0
M  V30 5416 C 541.779 -4.10145 1.68213 0
M  V30 5417 H 538.999 -0.546031 0.389989 0
M  V30 5418 H 541.543 -1.20907 1.64929 0
M  V30 5419 H 539.698 -3.66219 1.26343 0
M  V30 5420 H 540.112 -3.9425 3.4593 0
M  V30 5421 H 541.586 -5.07299 2.17604 0
M  V30 5422 H 542.063 -4.3445 0.644208 0
M  V30 5423 H 542.669 -3.65827 2.16912 0
M  V30 5424 N 540.985 -1.06182 -1.16461 0
M  V30 5425 C 541.918 -0.615859 -2.19733 0
M  V30 5426 C 542.896 0.360766 -1.58547 0
M  V30 5427 O 544.08 0.270009 -1.86556 0
M  V30 5428 C 541.207 0.097312 -3.3856 0
M  V30 5429 C 540.253 -0.835889 -4.18229 0
M  V30 5430 S 541.086 -2.33052 -4.82128 0
M  V30 5431 C 542.242 -1.62881 -6.04335 0
M  V30 5432 H 542.475 -1.49079 -2.57221 0
M  V30 5433 H 540.008 -0.874692 -1.27234 0
M  V30 5434 H 541.966 0.502563 -4.07412 0
M  V30 5435 H 540.627 0.948418 -2.99439 0
M  V30 5436 H 539.82 -0.283426 -5.03202 0
M  V30 5437 H 539.422 -1.18097 -3.54865 0
M  V30 5438 H 541.714 -0.933764 -6.71034 0
M  V30 5439 H 542.657 -2.45641 -6.64128 0
M  V30 5440 H 543.065 -1.11189 -5.53441 0
M  V30 5441 N 542.463 1.3308 -0.844243 0
M  V30 5442 C 543.874 1.7992 -0.498566 0
M  V30 5443 C 544.225 1.69808 0.982834 0
M  V30 5444 O 543.35 1.25051 1.7661 0
M  V30 5445 C 543.945 3.26677 -0.898204 0
M  V30 5446 C 542.504 3.71513 -0.604583 0
M  V30 5447 C 541.651 2.54393 -1.10362 0
M  V30 5448 H 544.602 1.20526 -1.03244 0
M  V30 5449 H 544.623 3.79918 -0.21039 0
M  V30 5450 H 544.135 3.34004 -1.97643 0
M  V30 5451 H 542.236 3.69708 0.46335 0
M  V30 5452 H 542.349 4.64755 -1.16358 0
M  V30 5453 H 540.713 2.49246 -0.524273 0
M  V30 5454 H 541.496 2.6448 -2.18873 0
M  V30 5455 N 543.941 0.601185 1.45683 0
M  V30 5456 C 545.357 0.264315 1.57396 0
M  V30 5457 C 545.557 -1.23324 1.59353 0
M  V30 5458 O 544.613 -2.01594 1.52039 0
M  V30 5459 C 545.926 0.929839 2.85962 0
M  V30 5460 C 547.474 0.905156 2.99626 0
M  V30 5461 C 547.949 1.55057 4.30954 0
M  V30 5462 N 549.44 1.51576 4.37697 0
M  V30 5463 C 550.175 1.98436 5.37969 0
M  V30 5464 N 549.671 2.53352 6.44813 0
M  V30 5465 N 551.464 1.89242 5.29286 0
M  V30 5466 H 543.615 1.57363 1.42656 0
M  V30 5467 H 545.878 0.658831 0.681649 0
M  V30 5468 H 545.584 1.98404 2.90394 0
M  V30 5469 H 545.458 0.449224 3.74515 0
M  V30 5470 H 547.845 -0.14048 2.94765 0
M  V30 5471 H 547.926 1.42397 2.12501 0
M  V30 5472 H 547.57 2.5955 4.36573 0
M  V30 5473 H 547.5 1.00682 5.16886 0
M  V30 5474 H 549.991 1.11452 3.61091 0
M  V30 5475 H 550.304 2.86918 7.17564 0
M  V30 5476 H 548.649 2.57388 6.45582 0
M  V30 5477 H 551.84 1.46083 4.44722 0
M  V30 5478 H 552.013 2.26075 6.07284 0
M  V30 5479 N 545.419 -1.53889 0.339982 0
M  V30 5480 C 546.668 -2.00035 -0.258604 0
M  V30 5481 C 546.981 -1.23179 -1.51942 0
M  V30 5482 O 548.187 -1.59784 -2.19503 0
M  V30 5483 C 546.643 -3.56249 -0.511359 0
M  V30 5484 C 546.251 -4.41957 0.733349 0
M  V30 5485 C 547.995 -4.1082 -1.069 0
M  V30 5486 C 545.902 -5.89673 0.451591 0
M  V30 5487 H 544.832 -0.747284 -0.10041 0
M  V30 5488 H 547.483 -1.77776 0.454758 0
M  V30 5489 H 545.865 -3.7456 -1.28533 0
M  V30 5490 H 547.039 -4.35421 1.50815 0
M  V30 5491 H 545.354 -3.9836 1.21237 0
M  V30 5492 H 547.951 -5.18789 -1.2947 0
M  V30 5493 H 548.294 -3.63817 -2.02343 0
M  V30 5494 H 548.827 -3.96205 -0.355817 0
M  V30 5495 H 545.566 -6.40903 1.37565 0
M  V30 5496 H 545.086 -5.99122 -0.285193 0
M  V30 5497 H 546.765 -6.46965 0.0675067 0
M  V30 5498 N 546.897 -0.0685191 -1.57451 0
M  V30 5499 C 547.845 0.917577 -2.13736 0
M  V30 5500 C 548.839 1.31049 -1.07344 0
M  V30 5501 O 550.045 1.28811 -1.25728 0
M  V30 5502 H 546.42 0.313835 -0.683382 0
M  V30 5503 H 548.391 0.417903 -2.95459 0
M  V30 5504 C 547.14 2.17686 -2.71123 0
M  V30 5505 H 546.463 1.88336 -3.52661 0
M  V30 5506 H 547.903 2.84803 -3.14107 0
M  V30 5507 C 546.362 2.9332 -1.65726 0
M  V30 5508 O 546.892 3.86901 -1.08031 0
M  V30 5509 N 545.098 2.56367 -1.36837 0
M  V30 5510 H 544.645 1.80341 -1.83943 0
M  V30 5511 H 544.603 3.07276 -0.665501 0
M  V30 5512 N 548.375 1.56261 0.205012 0
M  V30 5513 C 549.615 1.81823 0.933806 0
M  V30 5514 C 549.979 0.644534 1.80858 0
M  V30 5515 O 551.18 0.779819 2.5724 0
M  V30 5516 C 549.451 3.12362 1.7368 0
M  V30 5517 S 551.01 3.59296 2.51897 0
M  V30 5518 H 547.828 0.638209 0.313386 0
M  V30 5519 H 550.43 1.94495 0.198001 0
M  V30 5520 H 549.134 3.95809 1.08459 0
M  V30 5521 H 548.665 3.02542 2.5146 0
M  V30 5522 H 550.68 3.23945 3.75864 0
M  V30 5523 N 549.853 -0.472356 1.50355 0
M  V30 5524 C 550.816 -1.5529 1.68576 0
M  V30 5525 C 551.816 -1.50863 0.556511 0
M  V30 5526 O 553.006 -1.53505 0.823516 0
M  V30 5527 C 550.138 -2.94921 1.70981 0
M  V30 5528 H 551.331 -1.40451 2.64978 0
M  V30 5529 H 548.884 -0.698645 1.39816 0
M  V30 5530 H 549.619 -3.15204 0.762675 0
M  V30 5531 H 549.404 -2.99541 2.53017 0
M  V30 5532 H 550.894 -3.73372 1.87037 0
M  V30 5533 N 551.331 -1.39911 -0.725443 0
M  V30 5534 C 552.294 -1.39156 -1.82121 0
M  V30 5535 C 553.294 -0.287018 -1.58218 0
M  V30 5536 O 554.484 -0.545421 -1.65441 0
M  V30 5537 C 551.616 -1.1736 -3.20062 0
M  V30 5538 H 552.809 -2.36672 -1.84191 0
M  V30 5539 H 550.362 -1.25615 -0.930079 0
M  V30 5540 H 551.097 -0.205648 -3.23647 0
M  V30 5541 H 550.882 -1.97358 -3.3881 0
M  V30 5542 H 552.372 -1.19596 -4.00108 0
M  V30 5543 N 552.809 0.956637 -1.25245 0
M  V30 5544 C 553.772 2.03457 -1.05537 0
M  V30 5545 C 554.772 1.60798 -0.00886317 0
M  V30 5546 O 555.962 1.72384 -0.250865 0
M  V30 5547 C 553.094 3.35543 -0.601965 0
M  V30 5548 H 554.287 2.22372 -2.01223 0
M  V30 5549 H 551.84 1.13344 -1.07623 0
M  V30 5550 H 552.575 3.22323 0.357584 0
M  V30 5551 H 552.36 3.67854 -1.35743 0
M  V30 5552 H 553.85 4.14769 -0.485454 0
M  V30 5553 N 554.287 1.06798 1.15896 0
M  V30 5554 C 555.535 0.786211 1.8618 0
M  V30 5555 C 555.856 -0.689547 1.82401 0
M  V30 5556 O 555.126 -1.49913 1.26107 0
M  V30 5557 H 553.706 0.287843 0.689315 0
M  V30 5558 H 556.368 1.35055 1.40521 0
M  V30 5559 H 555.464 1.1157 2.91477 0
M  V30 5560 N 555.766 -1.3263 0.851289 0
M  V30 5561 C 556.714 -2.30882 0.282202 0
M  V30 5562 C 557.708 -1.58697 -0.592589 0
M  V30 5563 O 558.914 -1.73461 -0.480768 0
M  V30 5564 H 555.289 -0.748492 0.0725487 0
M  V30 5565 H 557.26 -2.76374 1.12516 0
M  V30 5566 C 556.009 -3.43828 -0.517449 0
M  V30 5567 H 555.332 -3.99532 0.146392 0
M  V30 5568 H 556.772 -4.1474 -0.88128 0
M  V30 5569 C 555.231 -2.90786 -1.70133 0
M  V30 5570 O 555.761 -2.88 -2.80034 0
M  V30 5571 N 553.967 -2.4723 -1.52728 0
M  V30 5572 H 553.514 -2.49695 -0.633257 0
M  V30 5573 H 553.472 -2.12094 -2.32085 0
M  V30 5574 N 557.244 -0.608902 -1.45362 0
M  V30 5575 C 558.655 -0.189511 -1.85736 0
M  V30 5576 C 559.006 1.2539 -1.50903 0
M  V30 5577 O 558.131 1.95094 -0.936347 0
M  V30 5578 C 558.726 -0.33716 -3.37118 0
M  V30 5579 C 557.285 0.0275487 -3.7639 0
M  V30 5580 C 556.432 -0.660983 -2.69307 0
M  V30 5581 H 559.383 -0.815499 -1.36144 0
M  V30 5582 H 559.404 0.430257 -3.7806 0
M  V30 5583 H 558.916 -1.38779 -3.62439 0
M  V30 5584 H 557.017 1.0773 -3.56686 0
M  V30 5585 H 557.13 -0.367018 -4.77692 0
M  V30 5586 H 555.494 -0.0984958 -2.54509 0
M  V30 5587 H 556.277 -1.71377 -2.97464 0
M  V30 5588 N 558.722 1.53707 -0.348139 0
M  V30 5589 C 559.969 2.00988 0.246966 0
M  V30 5590 C 560.297 1.23586 1.50189 0
M  V30 5591 O 559.552 0.312817 1.93184 0
M  V30 5592 C 559.851 3.52292 0.602061 0
M  V30 5593 C 559.517 4.47453 -0.556509 0
M  V30 5594 C 558.179 4.73188 -0.874446 0
M  V30 5595 C 560.531 5.03851 -1.33354 0
M  V30 5596 C 557.859 5.52577 -1.9717 0
M  V30 5597 C 560.211 5.84437 -2.42108 0
M  V30 5598 C 558.875 6.08465 -2.74456 0
M  V30 5599 H 558.145 0.735469 0.0903712 0
M  V30 5600 H 560.792 1.85464 -0.477001 0
M  V30 5601 H 559.097 3.65672 1.40681 0
M  V30 5602 H 560.794 3.86337 1.07447 0
M  V30 5603 H 557.384 4.27558 -0.298652 0
M  V30 5604 H 561.568 4.8393 -1.10117 0
M  V30 5605 H 556.824 5.69418 -2.22651 0
M  V30 5606 H 560.998 6.27151 -3.02745 0
M  V30 5607 H 558.625 6.69768 -3.59604 0
M  V30 5608 N 560.2 0.0768682 1.57412 0
M  V30 5609 C 561.611 -0.455037 1.8107 0
M  V30 5610 C 561.962 -1.69323 0.991162 0
M  V30 5611 O 561.087 -2.15328 0.215156 0
M  V30 5612 C 561.682 -0.832316 3.28417 0
M  V30 5613 C 560.241 -1.30906 3.52903 0
M  V30 5614 C 559.388 -0.296714 2.75708 0
M  V30 5615 H 562.339 0.302514 1.5579 0
M  V30 5616 H 562.36 -1.69333 3.40744 0
M  V30 5617 H 561.872 0.0690532 3.88039 0
M  V30 5618 H 559.973 -2.22875 2.98592 0
M  V30 5619 H 560.086 -1.28348 4.61588 0
M  V30 5620 H 558.45 -0.775059 2.42621 0
M  V30 5621 H 559.233 0.597015 3.38069 0
M  V30 5622 N 561.678 -1.56367 -0.196722 0
M  V30 5623 C 562.924 -1.80796 -0.918725 0
M  V30 5624 C 563.257 -0.650645 -1.82976 0
M  V30 5625 O 562.532 0.348889 -1.91345 0
M  V30 5626 C 562.815 -3.15472 -1.73636 0
M  V30 5627 C 562.668 -4.41693 -0.85015 0
M  V30 5628 C 563.987 -3.46824 -2.70927 0
M  V30 5629 H 561.106 -0.657702 -0.332561 0
M  V30 5630 H 563.748 -1.89086 -0.186186 0
M  V30 5631 H 561.898 -3.08536 -2.36088 0
M  V30 5632 H 563.57 -4.60673 -0.240459 0
M  V30 5633 H 561.813 -4.33517 -0.156785 0
M  V30 5634 H 562.484 -5.32419 -1.45719 0
M  V30 5635 H 564.96 -3.54049 -2.18607 0
M  V30 5636 H 563.836 -4.4218 -3.25219 0
M  V30 5637 H 564.097 -2.70236 -3.49893 0
M  V30 5638 N 563.156 0.464375 -1.50603 0
M  V30 5639 C 564.572 0.798684 -1.38178 0
M  V30 5640 C 564.772 1.96568 -0.44308 0
M  V30 5641 O 563.828 2.52252 0.111814 0
M  V30 5642 C 565.141 1.10444 -2.79683 0
M  V30 5643 C 566.689 1.2105 -2.88645 0
M  V30 5644 C 567.164 1.54934 -4.30998 0
M  V30 5645 N 568.655 1.61913 -4.3398 0
M  V30 5646 C 569.39 1.8965 -5.41129 0
M  V30 5647 N 568.886 2.15361 -6.58477 0
M  V30 5648 N 570.679 1.91207 -5.28579 0
M  V30 5649 H 562.83 -0.304603 -2.10204 0
M  V30 5650 H 565.093 -0.0737804 -0.945125 0
M  V30 5651 H 564.799 0.319934 -3.50242 0
M  V30 5652 H 564.673 2.03896 -3.17342 0
M  V30 5653 H 567.06 1.98567 -2.18301 0
M  V30 5654 H 567.141 0.255613 -2.5452 0
M  V30 5655 H 566.785 0.779549 -5.01882 0
M  V30 5656 H 566.715 2.51584 -4.62615 0
M  V30 5657 H 569.206 1.44055 -3.49366 0
M  V30 5658 H 569.519 2.35818 -7.35941 0
M  V30 5659 H 567.864 2.1274 -6.6164 0
M  V30 5660 H 571.055 1.70622 -4.35897 0
M  V30 5661 H 571.228 2.12488 -6.12171 0
M  V30 5662 N 564.634 1.40294 0.718013 0
M  V30 5663 C 565.882 1.38167 1.47494 0
M  V30 5664 C 566.203 -0.01607 1.94993 0
M  V30 5665 O 565.473 -0.970396 1.70177 0
M  V30 5666 H 564.053 0.508505 0.547203 0
M  V30 5667 H 566.715 1.75324 0.851322 0
M  V30 5668 H 565.811 2.05503 2.34894 0
M  V30 5669 N 566.112 -0.949982 1.2575 0
M  V30 5670 C 567.337 -1.73503 1.13628 0
M  V30 5671 C 567.762 -1.85601 -0.30559 0
M  V30 5672 O 567.12 -1.33984 -1.22139 0
M  V30 5673 C 567.168 -3.1243 1.80055 0
M  V30 5674 O 566.272 -3.97916 1.08336 0
M  V30 5675 H 565.613 -0.532665 0.396439 0
M  V30 5676 H 568.143 -1.19043 1.66403 0
M  V30 5677 H 568.153 -3.62866 1.86527 0
M  V30 5678 H 566.828 -3.02941 2.84956 0
M  V30 5679 H 565.405 -3.56375 1.09777 0
M  V30 5680 N 567.59 -1.07411 -1.15328 0
M  V30 5681 C 568.839 -0.792643 -1.85473 0
M  V30 5682 C 569.152 0.683789 -1.83259 0
M  V30 5683 O 570.358 1.08005 -2.49093 0
M  V30 5684 C 568.814 -1.36787 -3.32892 0
M  V30 5685 C 568.422 -2.87536 -3.43551 0
M  V30 5686 C 570.166 -1.16444 -4.08217 0
M  V30 5687 C 568.073 -3.38247 -4.85122 0
M  V30 5688 H 567.003 -0.292838 -0.694811 0
M  V30 5689 H 569.654 -1.29426 -1.30082 0
M  V30 5690 H 568.036 -0.793993 -3.87958 0
M  V30 5691 H 569.21 -3.50973 -2.98588 0
M  V30 5692 H 567.525 -3.06676 -2.81672 0
M  V30 5693 H 570.122 -1.51808 -5.12697 0
M  V30 5694 H 570.465 -0.10353 -4.16171 0
M  V30 5695 H 570.998 -1.70472 -3.59422 0
M  V30 5696 H 567.737 -4.43866 -4.82351 0
M  V30 5697 H 567.257 -2.79564 -5.30664 0
M  V30 5698 H 568.936 -3.34238 -5.5398 0
M  V30 5699 N 569.068 1.32177 -0.85831 0
M  V30 5700 C 569.978 2.32561 -0.308606 0
M  V30 5701 C 570.994 1.64209 0.575462 0
M  V30 5702 O 572.17 1.95719 0.474961 0
M  V30 5703 C 569.235 3.43207 0.490909 0
M  V30 5704 C 568.296 4.27243 -0.419733 0
M  V30 5705 C 567.529 5.32605 0.341719 0
M  V30 5706 O 567.752 5.48332 1.57125 0
M  V30 5707 O 566.686 6.0118 -0.294379 0
M  V30 5708 H 570.512 2.81477 -1.14037 0
M  V30 5709 H 568.097 1.35866 -0.621349 0
M  V30 5710 H 569.979 4.10677 0.944574 0
M  V30 5711 H 568.654 2.96474 1.29941 0
M  V30 5712 H 567.561 3.62569 -0.921652 0
M  V30 5713 H 568.894 4.7751 -1.19352 0
M  V30 5714 N 570.547 0.616602 1.45037 0
M  V30 5715 C 571.477 -0.0840787 2.33349 0
M  V30 5716 C 572.458 -0.849641 1.4736 0
M  V30 5717 O 573.643 -0.818407 1.76113 0
M  V30 5718 C 570.773 -1.07604 3.3021 0
M  V30 5719 C 569.727 -0.423096 4.25904 0
M  V30 5720 C 569.053 -1.52394 5.12523 0
M  V30 5721 C 570.353 0.661457 5.18095 0
M  V30 5722 H 572.047 0.653333 2.92185 0
M  V30 5723 H 569.593 0.315634 1.40498 0
M  V30 5724 H 571.546 -1.57485 3.90866 0
M  V30 5725 H 570.27 -1.84416 2.69552 0
M  V30 5726 H 568.929 0.05493 3.66559 0
M  V30 5727 H 568.577 -2.28257 4.48227 0
M  V30 5728 H 568.277 -1.09251 5.77354 0
M  V30 5729 H 569.801 -2.02485 5.76049 0
M  V30 5730 H 571.215 0.246353 5.7277 0
M  V30 5731 H 569.612 1.01517 5.91451 0
M  V30 5732 H 570.682 1.53446 4.59981 0
M  V30 5733 N 572.025 -1.5352 0.356285 0
M  V30 5734 C 573.441 -1.59599 0.00485267 0
M  V30 5735 C 573.641 -1.37179 -1.47595 0
M  V30 5736 O 572.697 -1.17234 -2.23635 0
M  V30 5737 C 574.01 -2.97277 0.452454 0
M  V30 5738 C 575.558 -3.10357 0.405881 0
M  V30 5739 C 576.033 -4.50432 0.829148 0
M  V30 5740 N 577.524 -4.5652 0.783838 0
M  V30 5741 C 578.259 -5.63077 1.08315 0
M  V30 5742 N 577.755 -6.77429 1.45126 0
M  V30 5743 N 579.548 -5.53014 1.00655 0
M  V30 5744 H 571.699 -1.66346 1.32071 0
M  V30 5745 H 573.962 -0.77971 0.539218 0
M  V30 5746 H 573.668 -3.18792 1.48542 0
M  V30 5747 H 573.542 -3.76836 -0.165762 0
M  V30 5748 H 575.929 -2.88558 -0.617934 0
M  V30 5749 H 576.01 -2.32828 1.05947 0
M  V30 5750 H 575.654 -4.72968 1.85103 0
M  V30 5751 H 575.584 -5.26378 0.152906 0
M  V30 5752 H 578.075 -3.74408 0.512513 0
M  V30 5753 H 578.388 -7.54669 1.66415 0
M  V30 5754 H 576.733 -6.78844 1.48983 0
M  V30 5755 H 579.924 -4.62557 0.718215 0
M  V30 5756 H 580.097 -6.35964 1.24315 0
M  V30 5757 N 573.503 -0.0852151 -1.57369 0
M  V30 5758 C 574.45 0.877268 -2.13478 0
M  V30 5759 C 575.42 1.28642 -1.05073 0
M  V30 5760 O 576.605 1.36992 -1.32808 0
M  V30 5761 C 573.745 2.13464 -2.71159 0
M  V30 5762 C 572.858 1.77691 -3.93764 0
M  V30 5763 C 571.993 2.98139 -4.39643 0
M  V30 5764 C 571.032 2.58447 -5.54862 0
M  V30 5765 N 570.169 3.71698 -5.95639 0
M  V30 5766 H 575.009 0.391933 -2.95411 0
M  V30 5767 H 572.546 0.181796 -1.45972 0
M  V30 5768 H 574.504 2.87086 -3.02717 0
M  V30 5769 H 573.134 2.59514 -1.91969 0
M  V30 5770 H 572.186 0.940768 -3.68583 0
M  V30 5771 H 573.498 1.44497 -4.77412 0
M  V30 5772 H 572.652 3.80026 -4.72933 0
M  V30 5773 H 571.391 3.34536 -3.54876 0
M  V30 5774 H 570.396 1.74984 -5.21211 0
M  V30 5775 H 571.621 2.23205 -6.41371 0
M  V30 5776 H 569.567 4.07831 -5.13819 0
M  V30 5777 H 569.484 3.42317 -6.74059 0
M  V30 5778 H 570.752 4.54123 -6.33555 0
M  V30 5779 N 574.981 1.5647 0.188427 0
M  V30 5780 C 576.392 1.70864 0.752494 0
M  V30 5781 C 576.743 0.692905 1.83557 0
M  V30 5782 O 575.868 -0.149307 2.15884 0
M  V30 5783 C 576.463 3.09789 1.37173 0
M  V30 5784 C 575.022 3.25925 1.88281 0
M  V30 5785 C 574.169 2.66817 0.755259 0
M  V30 5786 H 577.12 1.58657 -0.0367408 0
M  V30 5787 H 577.141 3.07489 2.24122 0
M  V30 5788 H 576.653 3.83693 0.583219 0
M  V30 5789 H 574.754 2.56948 2.6983 0
M  V30 5790 H 574.867 4.33498 2.04001 0
M  V30 5791 H 573.231 2.2617 1.17128 0
M  V30 5792 H 574.014 3.43294 -0.0211237 0
M  V30 5793 N 576.459 -0.456382 1.50847 0
M  V30 5794 C 577.736 -1.21739 1.53098 0
M  V30 5795 C 578.116 -2.09179 0.284132 0
M  V30 5796 O 577.464 -2.16466 -0.731773 0
M  V30 5797 C 577.674 -2.03573 2.83477 0
M  V30 5798 C 579.022 -2.61264 3.34703 0
M  V30 5799 O 580.046 -2.13802 2.84898 0
M  V30 5800 O 578.905 -3.47779 4.21559 0
M  V30 5801 H 575.999 -0.553219 0.614718 0
M  V30 5802 H 578.545 -0.467003 1.63148 0
M  V30 5803 H 577.317 -1.39232 3.65691 0
M  V30 5804 H 576.94 -2.85716 2.76499 0
M  V30 5805 N 577.937 -1.40673 -0.710563 0
M  V30 5806 C 579.185 -1.38947 -1.46759 0
M  V30 5807 C 579.506 0.00572879 -1.94999 0
M  V30 5808 O 578.776 0.961358 -1.70689 0
M  V30 5809 H 577.356 -0.5114 -0.544499 0
M  V30 5810 H 580.018 -1.75773 -0.842012 0
M  V30 5811 H 579.114 -2.06745 -2.33801 0
M  V30 5812 N 579.415 0.9433 -1.26252 0
M  V30 5813 C 580.643 1.72367 -1.14443 0
M  V30 5814 C 581.058 1.86392 0.300572 0
M  V30 5815 O 580.415 1.36978 1.20596 0
M  V30 5816 C 580.466 3.13155 -1.806 0
M  V30 5817 O 580.187 2.99803 -3.19452 0
M  V30 5818 C 581.688 4.07417 -1.74717 0
M  V30 5819 H 578.908 0.539758 -0.398626 0
M  V30 5820 H 581.452 1.18268 -1.66832 0
M  V30 5821 H 579.607 3.64162 -1.32154 0
M  V30 5822 H 580.021 3.88697 -3.52158 0
M  V30 5823 H 581.495 5.03773 -2.25647 0
M  V30 5824 H 581.972 4.3337 -0.713244 0
M  V30 5825 H 582.578 3.6233 -2.22704 0
M  V30 5826 N 580.893 1.08022 1.14757 0
M  V30 5827 C 582.139 0.808705 1.85978 0
M  V30 5828 C 582.472 -0.663764 1.82504 0
M  V30 5829 O 581.747 -1.48765 1.25296 0
M  V30 5830 C 582.03 1.32623 3.34788 0
M  V30 5831 C 581.883 2.86375 3.46856 0
M  V30 5832 C 583.202 0.948291 4.29762 0
M  V30 5833 H 580.321 0.295244 0.675278 0
M  V30 5834 H 582.963 1.33917 1.34783 0
M  V30 5835 H 581.113 0.875002 3.78518 0
M  V30 5836 H 582.785 3.39839 3.11941 0
M  V30 5837 H 581.028 3.24232 2.88194 0
M  V30 5838 H 581.699 3.17658 4.51439 0
M  V30 5839 H 584.175 1.33722 3.94028 0
M  V30 5840 H 583.051 1.33765 5.32352 0
M  V30 5841 H 583.312 -0.145094 4.41862 0
M  V30 5842 N 582.371 -1.3172 0.865308 0
M  V30 5843 C 583.301 -2.31109 0.333302 0
M  V30 5844 C 584.282 -1.60148 -0.573301 0
M  V30 5845 O 585.467 -1.87882 -0.491305 0
M  V30 5846 C 582.597 -3.44104 -0.470078 0
M  V30 5847 C 581.551 -4.26623 0.343021 0
M  V30 5848 C 580.877 -5.31482 -0.585756 0
M  V30 5849 C 582.177 -4.98001 1.57456 0
M  V30 5850 H 583.871 -2.75855 1.1638 0
M  V30 5851 H 581.417 -1.3262 0.561069 0
M  V30 5852 H 583.37 -4.12682 -0.852752 0
M  V30 5853 H 582.094 -2.98112 -1.33404 0
M  V30 5854 H 580.753 -3.59707 0.707583 0
M  V30 5855 H 580.401 -4.81741 -1.44686 0
M  V30 5856 H 580.101 -5.87582 -0.0456494 0
M  V30 5857 H 581.625 -6.0292 -0.965375 0
M  V30 5858 H 583.039 -5.59201 1.26359 0
M  V30 5859 H 581.436 -5.63876 2.05339 0
M  V30 5860 H 582.506 -4.25253 2.32997 0
M  V30 5861 N 583.85 -0.624285 -1.44708 0
M  V30 5862 C 584.779 0.0717025 -2.3339 0
M  V30 5863 C 585.76 0.841814 -1.47809 0
M  V30 5864 O 586.946 0.809056 -1.76544 0
M  V30 5865 C 584.076 1.05852 -3.30776 0
M  V30 5866 C 583.029 0.400503 -4.26122 0
M  V30 5867 C 582.356 1.49674 -5.13324 0
M  V30 5868 C 583.656 -0.688924 -5.17737 0
M  V30 5869 H 585.35 -0.668819 -2.91834 0
M  V30 5870 H 582.896 -0.32308 -1.40329 0
M  V30 5871 H 584.849 1.5541 -3.91696 0
M  V30 5872 H 583.572 1.82984 -2.70526 0
M  V30 5873 H 582.231 -0.0743687 -3.66525 0
M  V30 5874 H 581.88 2.25877 -4.49431 0
M  V30 5875 H 581.58 1.06188 -5.77926 0
M  V30 5876 H 583.104 1.99427 -5.77115 0
M  V30 5877 H 584.518 -0.276724 -5.72632 0
M  V30 5878 H 582.915 -1.04652 -5.90904 0
M  V30 5879 H 583.985 -1.55884 -4.5916 0
M  V30 5880 N 585.328 1.53329 -0.364422 0
M  V30 5881 C 586.553 2.06132 0.229033 0
M  V30 5882 C 586.978 1.23625 1.41769 0
M  V30 5883 O 586.336 0.255038 1.79497 0
M  V30 5884 C 586.384 3.55544 0.60174 0
M  V30 5885 O 585.488 3.75771 1.69912 0
M  V30 5886 H 584.829 0.663148 0.0336213 0
M  V30 5887 H 587.359 1.97758 -0.524689 0
M  V30 5888 H 587.369 3.98549 0.873073 0
M  V30 5889 H 586.044 4.15039 -0.267421 0
M  V30 5890 H 584.621 3.44663 1.42343 0
M  V30 5891 N 586.806 0.0935595 1.57322 0
M  V30 5892 C 588.034 -0.578934 1.98635 0
M  V30 5893 C 588.449 -1.61819 0.972626 0
M  V30 5894 O 587.806 -1.82461 -0.0379638 0
M  V30 5895 C 587.857 -1.22802 3.40003 0
M  V30 5896 O 587.578 -0.230334 4.37494 0
M  V30 5897 C 589.079 -1.98627 3.96311 0
M  V30 5898 H 586.299 -0.155324 0.652775 0
M  V30 5899 H 588.843 0.172393 2.03772 0
M  V30 5900 H 586.998 -1.93029 3.35885 0
M  V30 5901 H 587.412 -0.698649 5.19826 0
M  V30 5902 H 588.886 -2.39405 4.97382 0
M  V30 5903 H 589.363 -2.85151 3.34044 0
M  V30 5904 H 589.969 -1.3322 4.03897 0
M  V30 5905 N 588.284 -1.56567 -0.180126 0
M  V30 5906 C 589.231 -1.95725 -1.22313 0
M  V30 5907 C 590.201 -0.819911 -1.44453 0
M  V30 5908 O 591.386 -1.07931 -1.57339 0
M  V30 5909 C 588.526 -2.31484 -2.55947 0
M  V30 5910 C 587.639 -3.58354 -2.4126 0
M  V30 5911 C 586.774 -3.83366 -3.67701 0
M  V30 5912 C 585.813 -5.03612 -3.47909 0
M  V30 5913 N 584.95 -5.24802 -4.66398 0
M  V30 5914 H 589.79 -2.84642 -0.882198 0
M  V30 5915 H 587.327 -1.4085 -0.42422 0
M  V30 5916 H 589.285 -2.50237 -3.33822 0
M  V30 5917 H 587.915 -1.45689 -2.88053 0
M  V30 5918 H 586.967 -3.47565 -1.54606 0
M  V30 5919 H 588.279 -4.46386 -2.22577 0
M  V30 5920 H 587.433 -4.02439 -4.54013 0
M  V30 5921 H 586.172 -2.93692 -3.89353 0
M  V30 5922 H 585.177 -4.84447 -2.59983 0
M  V30 5923 H 586.402 -5.94809 -3.27688 0
M  V30 5924 H 584.348 -4.38079 -4.88286 0
M  V30 5925 H 584.265 -6.07041 -4.50596 0
M  V30 5926 H 585.533 -5.48346 -5.54019 0
M  V30 5927 N 589.762 0.448376 -1.51087 0
M  V30 5928 C 590.725 1.52588 -1.71025 0
M  V30 5929 C 591.725 1.49958 -0.580442 0
M  V30 5930 O 592.915 1.52176 -0.847833 0
M  V30 5931 C 590.047 2.92163 -1.75652 0
M  V30 5932 H 591.24 1.36218 -2.67179 0
M  V30 5933 H 588.793 0.676313 -1.4091 0
M  V30 5934 H 589.528 3.13951 -0.812724 0
M  V30 5935 H 589.313 2.95478 -2.57751 0
M  V30 5936 H 590.803 3.70349 -1.92953 0
M  V30 5937 N 591.24 1.41047 0.703093 0
M  V30 5938 C 592.489 1.39301 1.4587 0
M  V30 5939 C 592.802 0.00267077 1.956 0
M  V30 5940 O 594.008 -0.137414 2.71152 0
M  V30 5941 C 592.464 2.44891 2.63735 0
M  V30 5942 C 592.072 3.89796 2.20824 0
M  V30 5943 C 593.816 2.5227 3.41409 0
M  V30 5944 C 591.723 4.86955 3.35602 0
M  V30 5945 H 590.653 0.518005 0.547893 0
M  V30 5946 H 593.304 1.66839 0.764009 0
M  V30 5947 H 591.686 2.10472 3.35436 0
M  V30 5948 H 592.86 4.33424 1.56461 0
M  V30 5949 H 591.175 3.86008 1.56163 0
M  V30 5950 H 593.772 3.22044 4.26839 0
M  V30 5951 H 594.115 1.55714 3.86081 0
M  V30 5952 H 594.648 2.85742 2.7676 0
M  V30 5953 H 591.387 5.84888 2.9595 0
M  V30 5954 H 590.907 4.47982 3.98839 0
M  V30 5955 H 592.586 5.07361 4.01489 0
M  V30 5956 N 592.718 -0.936591 1.26751 0
M  V30 5957 C 593.964 -1.6858 1.12733 0
M  V30 5958 C 594.297 -1.91414 -0.327745 0
M  V30 5959 O 593.572 -1.49812 -1.24043 0
M  V30 5960 C 593.855 -3.05779 1.90187 0
M  V30 5961 C 593.708 -2.90242 3.43627 0
M  V30 5962 C 595.027 -4.0597 1.69931 0
M  V30 5963 H 592.146 -0.61182 0.410908 0
M  V30 5964 H 594.788 -1.08747 1.55801 0
M  V30 5965 H 592.938 -3.56853 1.53584 0
M  V30 5966 H 594.61 -2.46354 3.9001 0
M  V30 5967 H 592.853 -2.2577 3.70419 0
M  V30 5968 H 593.524 -3.87572 3.93055 0
M  V30 5969 H 596 -3.63874 2.0183 0
M  V30 5970 H 594.876 -4.99974 2.26534 0
M  V30 5971 H 595.137 -4.37369 0.64502 0
M  V30 5972 N 594.196 -1.08629 -1.14182 0
M  V30 5973 C 595.106 -0.730126 -2.22949 0
M  V30 5974 C 596.122 0.26436 -1.7198 0
M  V30 5975 O 597.298 0.107742 -2.01112 0
M  V30 5976 C 594.363 -0.147227 -3.46387 0
M  V30 5977 C 593.424 -1.19662 -4.12286 0
M  V30 5978 C 592.657 -0.641437 -5.29831 0
M  V30 5979 O 592.88 0.538351 -5.67854 0
M  V30 5980 O 591.814 -1.39257 -5.85569 0
M  V30 5981 H 595.64 -1.63753 -2.55771 0
M  V30 5982 H 593.225 -0.860118 -1.22157 0
M  V30 5983 H 595.107 0.174923 -4.21037 0
M  V30 5984 H 593.782 0.733304 -3.15285 0
M  V30 5985 H 592.689 -1.57133 -3.395 0
M  V30 5986 H 594.022 -2.0495 -4.475 0
M  V30 5987 N 595.674 1.31259 -0.872281 0
M  V30 5988 C 597.085 1.78822 -0.536617 0
M  V30 5989 C 597.436 1.71855 0.946594 0
M  V30 5990 O 596.561 1.28769 1.73918 0
M  V30 5991 C 597.156 3.24698 -0.967294 0
M  V30 5992 C 595.715 3.70147 -0.683251 0
M  V30 5993 C 594.862 2.51994 -1.15733 0
M  V30 5994 H 597.813 1.18308 -1.05777 0
M  V30 5995 H 597.834 3.79386 -0.290929 0
M  V30 5996 H 597.346 3.29737 -2.04683 0
M  V30 5997 H 595.447 3.70607 0.384825 0
M  V30 5998 H 595.56 4.62183 -1.2619 0
M  V30 5999 H 593.924 2.48078 -0.577024 0
M  V30 6000 H 594.707 2.59778 -2.24434 0
M  V30 6001 N 597.152 0.631951 1.44375 0
M  V30 6002 C 598.062 -0.073674 2.34484 0
M  V30 6003 C 599.078 -0.834825 1.52665 0
M  V30 6004 O 600.254 -0.786902 1.85391 0
M  V30 6005 C 597.319 -1.04247 3.30656 0
M  V30 6006 C 596.38 -0.280602 4.28382 0
M  V30 6007 C 595.613 -1.20325 5.19959 0
M  V30 6008 O 595.836 -2.44199 5.15484 0
M  V30 6009 O 594.77 -0.687128 5.97965 0
M  V30 6010 H 598.596 0.667477 2.96274 0
M  V30 6011 H 596.181 0.392144 1.44162 0
M  V30 6012 H 598.063 -1.59981 3.89851 0
M  V30 6013 H 596.738 -1.76422 2.71398 0
M  V30 6014 H 595.645 0.319804 3.72731 0
M  V30 6015 H 596.978 0.401144 4.90563 0
M  V30 6016 N 598.631 -1.53133 0.372548 0
M  V30 6017 C 599.578 -2.25951 -0.470631 0
M  V30 6018 C 600.548 -1.26895 -1.07176 0
M  V30 6019 O 601.733 -1.55691 -1.10294 0
M  V30 6020 C 598.873 -3.05726 -1.6008 0
M  V30 6021 C 597.986 -4.19684 -1.02416 0
M  V30 6022 C 597.121 -4.86888 -2.124 0
M  V30 6023 C 596.16 -5.92866 -1.52238 0
M  V30 6024 N 595.297 -6.53732 -2.56084 0
M  V30 6025 H 600.137 -2.97587 0.156816 0
M  V30 6026 H 597.674 -1.4683 0.0891571 0
M  V30 6027 H 599.632 -3.50258 -2.26661 0
M  V30 6028 H 598.262 -2.36331 -2.1988 0
M  V30 6029 H 597.314 -3.79588 -0.248426 0
M  V30 6030 H 598.626 -4.95821 -0.544366 0
M  V30 6031 H 597.78 -5.34638 -2.86787 0
M  V30 6032 H 596.519 -4.10239 -2.63734 0
M  V30 6033 H 595.524 -5.4447 -0.763685 0
M  V30 6034 H 596.749 -6.71439 -1.0172 0
M  V30 6035 H 594.695 -5.79932 -3.06618 0
M  V30 6036 H 594.612 -7.25429 -2.12811 0
M  V30 6037 H 595.88 -7.0613 -3.30152 0
M  V30 6038 N 600.109 -0.101901 -1.5727 0
M  V30 6039 C 601.337 0.568392 -1.98939 0
M  V30 6040 C 601.752 1.61301 -0.981194 0
M  V30 6041 O 601.109 1.82478 0.0282869 0
M  V30 6042 C 601.16 1.20997 -3.40649 0
M  V30 6043 O 600.881 0.207129 -4.3761 0
M  V30 6044 C 602.382 1.96523 -3.97358 0
M  V30 6045 H 599.602 0.15186 -0.65359 0
M  V30 6046 H 602.146 -0.183198 -2.03678 0
M  V30 6047 H 600.301 1.91245 -3.36904 0
M  V30 6048 H 600.715 0.671071 -5.20189 0
M  V30 6049 H 602.189 2.36764 -4.98645 0
M  V30 6050 H 602.666 2.83376 -3.35552 0
M  V30 6051 H 603.272 1.31076 -4.04598 0
M  V30 6052 N 601.587 1.56661 0.17182 0
M  V30 6053 C 602.815 1.861 0.904115 0
M  V30 6054 C 603.23 0.687227 1.75848 0
M  V30 6055 O 602.587 -0.343671 1.79235 0
M  V30 6056 C 602.638 3.14568 1.78127 0
M  V30 6057 O 602.359 4.27422 0.961366 0
M  V30 6058 C 603.86 3.5735 2.62327 0
M  V30 6059 H 601.08 0.617445 0.262684 0
M  V30 6060 H 603.624 2.03775 0.172068 0
M  V30 6061 H 601.779 2.98721 2.46666 0
M  V30 6062 H 602.193 5.00725 1.56123 0
M  V30 6063 H 603.667 4.50144 3.1949 0
M  V30 6064 H 604.144 2.81445 3.37173 0
M  V30 6065 H 604.75 3.75807 1.99121 0
M  V30 6066 N 603.065 -0.440357 1.51323 0
M  V30 6067 C 604.028 -1.51679 1.71832 0
M  V30 6068 C 605.028 -1.49648 0.588386 0
M  V30 6069 O 606.218 -1.51724 0.855891 0
M  V30 6070 C 603.35 -2.91228 1.77199 0
M  V30 6071 H 604.543 -1.34799 2.67898 0
M  V30 6072 H 602.096 -0.66883 1.41267 0
M  V30 6073 H 602.831 -3.13516 0.829363 0
M  V30 6074 H 602.616 -2.94107 2.59314 0
M  V30 6075 H 604.106 -3.69321 1.94915 0
M  V30 6076 N 604.543 -1.41418 -0.695603 0
M  V30 6077 C 605.453 -1.45622 -1.83933 0
M  V30 6078 C 606.469 -0.346825 -1.70508 0
M  V30 6079 O 607.645 -0.59454 -1.92424 0
M  V30 6080 C 604.71 -1.33627 -3.19914 0
M  V30 6081 C 603.771 -2.54882 -3.45447 0
M  V30 6082 C 603.004 -2.43449 -4.7494 0
M  V30 6083 O 603.227 -1.45905 -5.51424 0
M  V30 6084 O 602.161 -3.33206 -5.01256 0
M  V30 6085 H 605.987 -2.42114 -1.83342 0
M  V30 6086 H 603.572 -1.22956 -0.848658 0
M  V30 6087 H 605.454 -1.29221 -4.01098 0
M  V30 6088 H 604.129 -0.402508 -3.21188 0
M  V30 6089 H 603.036 -2.64865 -2.64192 0
M  V30 6090 H 604.369 -3.47087 -3.48987 0
M  V30 6091 N 606.021 0.929856 -1.27246 0
M  V30 6092 C 607.268 1.67731 -1.13457 0
M  V30 6093 C 607.596 1.9185 0.319998 0
M  V30 6094 O 606.851 1.50524 1.25064 0
M  V30 6095 C 607.15 3.05116 -1.86115 0
M  V30 6096 C 606.816 3.00715 -3.35978 0
M  V30 6097 C 605.478 2.99222 -3.76855 0
M  V30 6098 C 607.83 2.92168 -4.3161 0
M  V30 6099 C 605.158 2.86962 -5.11732 0
M  V30 6100 C 607.51 2.81449 -5.66542 0
M  V30 6101 C 606.174 2.78305 -6.06715 0
M  V30 6102 H 605.444 0.613772 -0.415168 0
M  V30 6103 H 608.091 1.08456 -1.57827 0
M  V30 6104 H 606.396 3.68083 -1.34246 0
M  V30 6105 H 608.093 3.61822 -1.72876 0
M  V30 6106 H 604.683 3.02664 -3.03468 0
M  V30 6107 H 608.867 2.92421 -4.01003 0
M  V30 6108 H 604.123 2.82913 -5.42006 0
M  V30 6109 H 608.297 2.738 -6.40317 0
M  V30 6110 H 605.924 2.68561 -7.11181 0
M  V30 6111 N 607.499 1.09233 1.13605 0
M  V30 6112 C 608.409 0.741939 2.22559 0
M  V30 6113 C 609.425 -0.255236 1.72118 0
M  V30 6114 O 610.601 -0.0970747 2.01166 0
M  V30 6115 C 607.666 0.165595 3.46304 0
M  V30 6116 C 606.727 1.21846 4.11645 0
M  V30 6117 C 605.96 0.669526 5.29484 0
M  V30 6118 O 606.183 -0.508228 5.68131 0
M  V30 6119 O 605.117 1.42361 5.84822 0
M  V30 6120 H 608.943 1.65107 2.54899 0
M  V30 6121 H 606.528 0.866584 1.21699 0
M  V30 6122 H 608.41 -0.152592 4.21124 0
M  V30 6123 H 607.085 -0.716573 3.15669 0
M  V30 6124 H 605.992 1.58931 3.38662 0
M  V30 6125 H 607.325 2.07321 4.46407 0
M  V30 6126 N 608.977 -1.30795 0.87923 0
M  V30 6127 C 610.223 -1.96653 0.495519 0
M  V30 6128 C 610.556 -1.69282 -0.951703 0
M  V30 6129 O 609.831 -0.994374 -1.6716 0
M  V30 6130 C 610.114 -3.51898 0.764174 0
M  V30 6131 C 609.967 -3.88808 2.2616 0
M  V30 6132 C 611.286 -4.39462 0.236825 0
M  V30 6133 H 608.405 -0.7143 0.181507 0
M  V30 6134 H 611.047 -1.54765 1.10217 0
M  V30 6135 H 609.197 -3.87709 0.247841 0
M  V30 6136 H 610.869 -3.63051 2.8459 0
M  V30 6137 H 609.112 -3.37082 2.73053 0
M  V30 6138 H 609.783 -4.97086 2.4002 0
M  V30 6139 H 612.259 -4.10528 0.678683 0
M  V30 6140 H 611.135 -5.47018 0.454176 0
M  V30 6141 H 611.396 -4.33621 -0.861683 0
M  V30 6142 N 610.455 -0.639598 -1.44038 0
M  V30 6143 C 611.866 -0.228866 -1.85292 0
M  V30 6144 C 612.217 1.22161 -1.53529 0
M  V30 6145 O 611.342 1.93064 -0.977518 0
M  V30 6146 C 611.937 -0.408592 -3.36327 0
M  V30 6147 C 610.496 -0.0522953 -3.76364 0
M  V30 6148 C 609.643 -0.717959 -2.67844 0
M  V30 6149 H 612.594 -0.844194 -1.34384 0
M  V30 6150 H 612.615 0.349968 -3.78887 0
M  V30 6151 H 612.127 -1.46435 -3.59414 0
M  V30 6152 H 610.228 1.0014 -3.58891 0
M  V30 6153 H 610.341 -0.468261 -4.76806 0
M  V30 6154 H 608.705 -0.152459 -2.54243 0
M  V30 6155 H 609.488 -1.77648 -2.93762 0
M  V30 6156 N 611.933 1.52934 -0.380664 0
M  V30 6157 C 613.349 1.59571 -0.0302429 0
M  V30 6158 C 613.549 1.39509 1.45394 0
M  V30 6159 O 612.605 1.20777 2.21741 0
M  V30 6160 C 613.918 2.96519 -0.499691 0
M  V30 6161 C 615.466 3.09672 -0.455204 0
M  V30 6162 C 615.941 4.49056 -0.900703 0
M  V30 6163 N 617.432 4.55215 -0.856367 0
M  V30 6164 C 618.167 5.61282 -1.17259 0
M  V30 6165 N 617.663 6.75035 -1.55885 0
M  V30 6166 N 619.456 5.51343 -1.0944 0
M  V30 6167 H 611.607 1.64224 -1.347 0
M  V30 6168 H 613.87 0.771033 -0.551554 0
M  V30 6169 H 613.576 3.16388 -1.53595 0
M  V30 6170 H 613.45 3.77052 0.105789 0
M  V30 6171 H 615.837 2.89504 0.571949 0
M  V30 6172 H 615.918 2.31113 -1.09638 0
M  V30 6173 H 615.562 4.69964 -1.92604 0
M  V30 6174 H 615.492 5.26068 -0.236629 0
M  V30 6175 H 617.983 3.73546 -0.572013 0
M  V30 6176 H 618.296 7.51926 -1.784 0
M  V30 6177 H 616.641 6.76388 -1.59764 0
M  V30 6178 H 619.832 4.61356 -0.791713 0
M  V30 6179 H 620.005 6.33905 -1.34417 0
M  V30 6180 N 613.412 0.11024 1.57214 0
M  V30 6181 C 614.342 -0.840002 2.17867 0
M  V30 6182 C 615.323 -1.28352 1.11624 0
M  V30 6183 O 616.508 -1.3477 1.39824 0
M  V30 6184 C 613.638 -2.09349 2.77111 0
M  V30 6185 C 612.592 -1.78807 3.8886 0
M  V30 6186 C 611.918 -3.11112 4.34872 0
M  V30 6187 C 613.218 -1.0632 5.11364 0
M  V30 6188 H 614.912 -0.334608 2.97524 0
M  V30 6189 H 612.458 -0.159502 1.43114 0
M  V30 6190 H 614.411 -2.76275 3.18198 0
M  V30 6191 H 613.135 -2.62198 1.9473 0
M  V30 6192 H 611.794 -1.14273 3.48335 0
M  V30 6193 H 611.442 -3.61877 3.49362 0
M  V30 6194 H 611.142 -2.91453 5.10224 0
M  V30 6195 H 612.666 -3.79171 4.78604 0
M  V30 6196 H 614.08 -1.63383 5.49526 0
M  V30 6197 H 612.477 -0.967876 5.92243 0
M  V30 6198 H 613.547 -0.0484569 4.84876 0
M  V30 6199 N 614.89 -1.56749 -0.16351 0
M  V30 6200 C 616.136 -1.82704 -0.880168 0
M  V30 6201 C 616.469 -0.689311 -1.81555 0
M  V30 6202 O 615.744 0.308224 -1.92042 0
M  V30 6203 C 616.027 -3.19084 -1.66905 0
M  V30 6204 C 615.88 -4.43397 -0.756269 0
M  V30 6205 C 617.199 -3.52493 -2.63509 0
M  V30 6206 H 614.318 -0.664608 -0.318535 0
M  V30 6207 H 616.96 -1.89438 -0.146036 0
M  V30 6208 H 615.11 -3.13475 -2.2949 0
M  V30 6209 H 616.782 -4.61079 -0.14269 0
M  V30 6210 H 615.025 -4.33752 -0.0647944 0
M  V30 6211 H 615.696 -5.3539 -1.34393 0
M  V30 6212 H 618.172 -3.58606 -2.11047 0
M  V30 6213 H 617.048 -4.48979 -3.15767 0
M  V30 6214 H 617.309 -2.77597 -3.44082 0
M  V30 6215 N 616.368 0.432326 -1.51554 0
M  V30 6216 C 617.298 1.53242 -1.76179 0
M  V30 6217 C 618.279 1.58717 -0.611801 0
M  V30 6218 O 619.464 1.74364 -0.855033 0
M  V30 6219 C 616.594 2.91278 -1.89141 0
M  V30 6220 C 615.548 3.00663 -3.04608 0
M  V30 6221 C 614.874 4.40728 -3.02759 0
M  V30 6222 C 616.174 2.74281 -4.44485 0
M  V30 6223 H 617.868 1.32886 -2.68294 0
M  V30 6224 H 615.414 0.637841 -1.29103 0
M  V30 6225 H 617.367 3.68203 -2.04951 0
M  V30 6226 H 616.091 3.12877 -0.936785 0
M  V30 6227 H 614.75 2.26179 -2.88511 0
M  V30 6228 H 614.398 4.59301 -2.05065 0
M  V30 6229 H 614.098 4.47936 -3.80299 0
M  V30 6230 H 615.622 5.19619 -3.20669 0
M  V30 6231 H 617.036 3.40936 -4.60907 0
M  V30 6232 H 615.433 2.92893 -5.23769 0
M  V30 6233 H 616.503 1.69856 -4.54177 0
M  V30 6234 N 617.846 1.41785 0.688094 0
M  V30 6235 C 618.809 1.43936 1.78368 0
M  V30 6236 C 619.809 0.328866 1.57401 0
M  V30 6237 O 620.999 0.589093 1.63937 0
M  V30 6238 C 618.131 1.25804 3.16838 0
M  V30 6239 H 619.324 2.41472 1.77852 0
M  V30 6240 H 616.877 1.28037 0.896448 0
M  V30 6241 H 617.612 0.291386 3.22988 0
M  V30 6242 H 617.397 2.06272 3.33458 0
M  V30 6243 H 618.887 1.30162 3.96797 0
M  V30 6244 N 619.324 -0.923095 1.27737 0
M  V30 6245 C 620.601 -1.64989 1.05062 0
M  V30 6246 C 620.981 -2.07018 -0.413124 0
M  V30 6247 O 620.329 -1.80797 -1.39731 0
M  V30 6248 C 620.539 -2.84847 2.01652 0
M  V30 6249 C 621.887 -3.56083 2.31279 0
M  V30 6250 O 622.911 -2.94981 1.99662 0
M  V30 6251 O 621.77 -4.66182 2.85196 0
M  V30 6252 H 618.864 -0.723357 0.400853 0
M  V30 6253 H 621.41 -0.973224 1.3902 0
M  V30 6254 H 620.182 -2.50814 3.00347 0
M  V30 6255 H 619.805 -3.60231 1.68284 0
M  V30 6256 N 620.802 -1.09834 -1.13024 0
M  V30 6257 C 622.027 -0.85909 -1.88771 0
M  V30 6258 C 622.452 0.584402 -1.78791 0
M  V30 6259 O 621.81 1.41101 -1.13842 0
M  V30 6260 C 621.858 -1.30427 -3.36186 0
M  V30 6261 O 620.962 -0.465368 -4.09766 0
M  V30 6262 H 620.303 -0.310786 -0.586778 0
M  V30 6263 H 622.833 -1.46355 -1.42973 0
M  V30 6264 H 622.843 -1.2915 -3.8702 0
M  V30 6265 H 621.518 -2.3555 -3.42767 0
M  V30 6266 H 620.095 -0.542814 -3.68928 0
M  V30 6267 N 622.28 1.30327 -0.886154 0
M  V30 6268 C 623.528 1.9571 -0.504195 0
M  V30 6269 C 623.849 1.70294 0.950003 0
M  V30 6270 O 623.119 1.02718 1.66811 0
M  V30 6271 H 621.699 0.72412 -0.183465 0
M  V30 6272 H 624.361 1.58835 -1.12949 0
M  V30 6273 H 623.457 3.04704 -0.675431 0
M  V30 6274 N 623.758 0.647228 1.43697 0
M  V30 6275 C 625.005 0.158188 2.01881 0
M  V30 6276 C 625.333 -1.22573 1.51017 0
M  V30 6277 O 624.588 -1.83086 0.69122 0
M  V30 6278 C 624.887 0.111481 3.57226 0
M  V30 6279 C 624.553 1.43633 4.27411 0
M  V30 6280 C 623.215 1.79915 4.463 0
M  V30 6281 C 625.567 2.31011 4.67208 0
M  V30 6282 C 622.895 3.03251 5.02251 0
M  V30 6283 C 625.247 3.53633 5.24525 0
M  V30 6284 C 623.911 3.90118 5.41631 0
M  V30 6285 H 623.181 0.0578851 0.738736 0
M  V30 6286 H 625.828 0.836746 1.72252 0
M  V30 6287 H 624.133 -0.650507 3.86362 0
M  V30 6288 H 625.83 -0.283682 3.99995 0
M  V30 6289 H 622.42 1.14403 4.1305 0
M  V30 6290 H 626.604 2.04272 4.52313 0
M  V30 6291 H 621.86 3.31575 5.13681 0
M  V30 6292 H 626.034 4.21561 5.5431 0
M  V30 6293 H 623.661 4.85768 5.84751 0
M  V30 6294 N 625.236 -1.5273 0.388769 0
M  V30 6295 C 626.482 -2.02545 -0.186351 0
M  V30 6296 C 626.837 -1.27017 -1.44514 0
M  V30 6297 O 626.13 -0.361948 -1.8815 0
M  V30 6298 C 626.324 -3.53765 -0.508445 0
M  V30 6299 C 626.153 -4.43938 0.71758 0
M  V30 6300 C 624.923 -4.89933 1.23668 0
M  V30 6301 C 627.121 -4.89113 1.58974 0
M  V30 6302 N 625.103 -5.64176 2.42031 0
M  V30 6303 C 626.474 -5.61931 2.61979 0
M  V30 6304 C 628.529 -4.71155 1.60989 0
M  V30 6305 C 627.232 -6.18698 3.66886 0
M  V30 6306 C 629.258 -5.28804 2.64803 0
M  V30 6307 C 628.62 -6.01527 3.6653 0
M  V30 6308 H 624.719 -0.781413 -0.0302921 0
M  V30 6309 H 627.303 -1.87104 0.538539 0
M  V30 6310 H 625.474 -3.6932 -1.20239 0
M  V30 6311 H 627.206 -3.9028 -1.07067 0
M  V30 6312 H 623.961 -4.66833 0.797763 0
M  V30 6313 H 624.385 -6.05949 3.01919 0
M  V30 6314 H 629.027 -4.14435 0.836881 0
M  V30 6315 H 626.745 -6.74501 4.45055 0
M  V30 6316 H 630.331 -5.1679 2.67245 0
M  V30 6317 H 629.211 -6.45339 4.45542 0
M  V30 6318 N 626.714 -0.118576 -1.57153 0
M  V30 6319 C 627.624 0.845484 -2.18835 0
M  V30 6320 C 628.64 1.29299 -1.16438 0
M  V30 6321 O 629.816 1.35607 -1.48905 0
M  V30 6322 C 626.881 2.07795 -2.77529 0
M  V30 6323 C 625.942 1.6824 -3.9496 0
M  V30 6324 C 625.175 2.85612 -4.50845 0
M  V30 6325 O 625.398 4.01025 -4.05629 0
M  V30 6326 O 624.332 2.62721 -5.41536 0
M  V30 6327 H 628.158 0.350568 -3.0167 0
M  V30 6328 H 625.743 0.107013 -1.49016 0
M  V30 6329 H 627.625 2.79978 -3.14945 0
M  V30 6330 H 626.3 2.56294 -1.97725 0
M  V30 6331 H 625.207 0.931663 -3.62313 0
M  V30 6332 H 626.54 1.24484 -4.76198 0
M  V30 6333 N 628.193 1.56834 0.155195 0
M  V30 6334 C 629.433 1.84701 0.875488 0
M  V30 6335 C 629.797 0.701747 1.78716 0
M  V30 6336 O 630.998 0.861263 2.54629 0
M  V30 6337 C 629.269 3.1773 1.63654 0
M  V30 6338 S 630.828 3.67128 2.40338 0
M  V30 6339 H 627.646 0.647856 0.292923 0
M  V30 6340 H 630.248 1.95026 0.136024 0
M  V30 6341 H 628.952 3.99059 0.958117 0
M  V30 6342 H 628.483 3.10388 2.41708 0
M  V30 6343 H 630.498 3.35739 3.65368 0
M  V30 6344 N 629.671 -0.424282 1.51781 0
M  V30 6345 C 631.087 -0.761768 1.40247 0
M  V30 6346 C 631.287 -1.95324 0.495041 0
M  V30 6347 O 630.343 -2.5246 -0.0448949 0
M  V30 6348 C 631.656 -1.0299 2.82513 0
M  V30 6349 C 633.204 -1.13354 2.91753 0
M  V30 6350 C 633.679 -1.43453 4.34954 0
M  V30 6351 N 635.17 -1.5035 4.3812 0
M  V30 6352 C 635.905 -1.75236 5.45967 0
M  V30 6353 N 635.401 -1.97827 6.63955 0
M  V30 6354 N 637.194 -1.77126 5.33463 0
M  V30 6355 H 629.345 0.360228 2.09323 0
M  V30 6356 H 631.608 0.0988128 0.942836 0
M  V30 6357 H 631.314 -0.226961 3.50967 0
M  V30 6358 H 631.188 -1.95411 3.22637 0
M  V30 6359 H 633.575 -1.92709 2.23489 0
M  V30 6360 H 633.656 -0.188041 2.55108 0
M  V30 6361 H 633.3 -0.646209 5.03772 0
M  V30 6362 H 633.23 -2.3923 4.69123 0
M  V30 6363 H 635.721 -1.34742 3.53062 0
M  V30 6364 H 636.034 -2.16223 7.41935 0
M  V30 6365 H 634.379 -1.95123 6.67047 0
M  V30 6366 H 637.57 -1.59005 4.40267 0
M  V30 6367 H 637.743 -1.96182 6.17589 0
M  V30 6368 N 631.149 -1.42148 -0.680565 0
M  V30 6369 C 632.395 -1.42521 -1.44277 0
M  V30 6370 C 632.728 -0.0393718 -1.9416 0
M  V30 6371 O 632.003 0.935425 -1.70529 0
M  V30 6372 C 632.286 -2.44475 -2.64394 0
M  V30 6373 C 632.139 -3.92226 -2.20179 0
M  V30 6374 C 633.458 -2.43491 -3.66606 0
M  V30 6375 H 630.577 -0.518985 -0.523282 0
M  V30 6376 H 633.219 -1.73524 -0.773914 0
M  V30 6377 H 631.369 -2.18168 -3.21458 0
M  V30 6378 H 633.041 -4.29493 -1.68327 0
M  V30 6379 H 631.284 -4.0637 -1.5181 0
M  V30 6380 H 631.955 -4.59133 -3.06433 0
M  V30 6381 H 634.431 -2.66872 -3.19247 0
M  V30 6382 H 633.307 -3.16816 -4.4824 0
M  V30 6383 H 633.568 -1.45881 -4.17338 0
M  V30 6384 N 632.627 0.916307 -1.28225 0
M  V30 6385 C 633.852 1.7043 -1.18188 0
M  V30 6386 C 634.277 1.86346 0.256274 0
M  V30 6387 O 633.635 1.37175 1.18544 0
M  V30 6388 C 633.683 3.07546 -1.88275 0
M  V30 6389 O 632.787 3.94904 -1.18848 0
M  V30 6390 H 632.128 0.521967 -0.410423 0
M  V30 6391 H 634.658 1.14589 -1.69501 0
M  V30 6392 H 634.668 3.57793 -1.96082 0
M  V30 6393 H 633.343 2.95279 -2.92887 0
M  V30 6394 H 631.92 3.53339 -1.19187 0
M  V30 6395 N 634.105 1.10431 1.1244 0
M  V30 6396 C 635.333 0.868872 1.87772 0
M  V30 6397 C 635.748 -0.580645 1.7965 0
M  V30 6398 O 635.105 -1.40031 1.17036 0
M  V30 6399 C 635.156 1.30855 3.36986 0
M  V30 6400 O 634.877 2.70123 3.44914 0
M  V30 6401 C 636.378 1.107 4.29256 0
M  V30 6402 H 633.598 0.311868 0.59412 0
M  V30 6403 H 636.142 1.46897 1.42273 0
M  V30 6404 H 634.297 0.752126 3.80029 0
M  V30 6405 H 634.711 2.88923 4.37748 0
M  V30 6406 H 636.185 1.46378 5.32238 0
M  V30 6407 H 636.662 0.0456228 4.39176 0
M  V30 6408 H 637.268 1.64988 3.91994 0
M  V30 6409 N 635.583 -1.29855 0.893053 0
M  V30 6410 C 636.808 -2.00512 0.530066 0
M  V30 6411 C 637.233 -1.66446 -0.876199 0
M  V30 6412 O 636.591 -0.885446 -1.58207 0
M  V30 6413 C 636.639 -3.53308 0.721505 0
M  V30 6414 O 635.743 -4.11764 -0.228994 0
M  V30 6415 H 635.084 -0.630617 0.207891 0
M  V30 6416 H 637.614 -1.6551 1.20282 0
M  V30 6417 H 637.624 -4.03206 0.623599 0
M  V30 6418 H 636.299 -3.77439 1.74678 0
M  V30 6419 H 634.876 -3.72805 -0.0841034 0
M  V30 6420 N 637.061 -0.65484 -1.43351 0
M  V30 6421 C 638.309 -0.168559 -2.01396 0
M  V30 6422 C 638.63 1.22235 -1.51933 0
M  V30 6423 O 637.9 1.81685 -0.732627 0
M  V30 6424 H 636.48 -0.0593244 -0.744641 0
M  V30 6425 H 639.142 -0.846871 -1.75539 0
M  V30 6426 H 638.238 -0.154428 -3.11718 0
M  V30 6427 N 638.539 1.52521 -0.396863 0
M  V30 6428 C 639.787 2.01274 0.182536 0
M  V30 6429 C 640.108 1.28485 1.46685 0
M  V30 6430 O 639.378 0.407134 1.91623 0
M  V30 6431 H 637.958 0.743671 0.0704442 0
M  V30 6432 H 640.62 1.87547 -0.530289 0
M  V30 6433 H 639.716 3.09687 0.387385 0
M  V30 6434 N 640.017 0.126909 1.57088 0
M  V30 6435 C 640.949 -0.850973 2.12817 0
M  V30 6436 C 641.962 -1.22457 1.07276 0
M  V30 6437 O 643.151 -1.17215 1.34622 0
M  V30 6438 C 640.251 -2.15039 2.61938 0
M  V30 6439 C 639.424 -1.94726 3.91664 0
M  V30 6440 C 638.483 -3.0847 4.26301 0
M  V30 6441 O 637.509 -2.81038 4.94981 0
M  V30 6442 N 638.711 -4.35116 3.84259 0
M  V30 6443 H 641.476 -0.3748 2.97347 0
M  V30 6444 H 639.037 -0.0572793 1.61799 0
M  V30 6445 H 641.029 -2.90141 2.82135 0
M  V30 6446 H 639.599 -2.5398 1.82244 0
M  V30 6447 H 638.819 -1.03772 3.80296 0
M  V30 6448 H 640.107 -1.78469 4.76473 0
M  V30 6449 H 639.505 -4.60276 3.2888 0
M  V30 6450 H 638.062 -5.07064 4.09548 0
M  V30 6451 N 641.495 -1.56914 -0.146875 0
M  V30 6452 C 642.772 -1.74273 -0.888165 0
M  V30 6453 C 643.152 -0.69496 -1.99333 0
M  V30 6454 O 642.5 0.286093 -2.26702 0
M  V30 6455 C 642.71 -3.18336 -1.43051 0
M  V30 6456 C 644.058 -3.80024 -1.89387 0
M  V30 6457 O 645.082 -3.21765 -1.52792 0
M  V30 6458 O 643.941 -4.82367 -2.56874 0
M  V30 6459 H 641.035 -0.712565 -0.419738 0
M  V30 6460 H 643.581 -1.6918 -0.132791 0
M  V30 6461 H 642.353 -3.86092 -0.636274 0
M  V30 6462 H 641.976 -3.27854 -2.24938 0
M  V30 6463 N 642.974 0.416227 -1.52004 0
M  V30 6464 C 644.199 1.19029 -1.69843 0
M  V30 6465 C 644.624 1.83708 -0.404103 0
M  V30 6466 O 643.982 1.69711 0.637787 0
M  V30 6467 C 644.03 2.23439 -2.83032 0
M  V30 6468 O 643.134 3.29419 -2.48106 0
M  V30 6469 H 642.475 0.347785 -0.565634 0
M  V30 6470 H 645.005 0.488871 -1.98674 0
M  V30 6471 H 645.015 2.67884 -3.07737 0
M  V30 6472 H 643.69 1.75745 -3.76944 0
M  V30 6473 H 642.267 2.90303 -2.34048 0
M  V30 6474 N 644.452 1.42507 0.673017 0
M  V30 6475 C 645.868 1.25472 0.986355 0
M  V30 6476 C 646.068 0.160181 2.00862 0
M  V30 6477 O 645.124 -0.467993 2.48125 0
M  V30 6478 C 646.437 2.61219 1.48947 0
M  V30 6479 C 647.985 2.68589 1.60715 0
M  V30 6480 C 648.46 4.04707 2.14422 0
M  V30 6481 N 649.951 4.0667 2.21752 0
M  V30 6482 C 650.686 5.0881 2.64386 0
M  V30 6483 N 650.182 6.21332 3.0646 0
M  V30 6484 N 651.975 4.96166 2.64151 0
M  V30 6485 H 644.126 2.124 -0.00378532 0
M  V30 6486 H 646.389 0.946046 0.0608367 0
M  V30 6487 H 646.095 3.42179 0.812812 0
M  V30 6488 H 645.969 2.85261 2.46791 0
M  V30 6489 H 648.356 1.87974 2.27486 0
M  V30 6490 H 648.437 2.48333 0.613552 0
M  V30 6491 H 648.081 4.8578 1.48258 0
M  V30 6492 H 648.011 4.22315 3.14575 0
M  V30 6493 H 650.502 3.25438 1.92089 0
M  V30 6494 H 650.815 6.95118 3.37684 0
M  V30 6495 H 649.16 6.24835 3.04313 0
M  V30 6496 H 652.351 4.07334 2.30644 0
M  V30 6497 H 652.524 5.759 2.97057 0
M  V30 6498 N 645.93 -0.909495 1.28709 0
M  V30 6499 C 647.346 -1.18862 1.06508 0
M  V30 6500 C 647.546 -2.00604 -0.189864 0
M  V30 6501 O 646.602 -2.36281 -0.890355 0
M  V30 6502 C 647.915 -1.91908 2.31499 0
M  V30 6503 C 649.463 -2.04773 2.36721 0
M  V30 6504 C 649.938 -2.81228 3.6149 0
M  V30 6505 N 651.429 -2.88787 3.62155 0
M  V30 6506 C 652.164 -3.48455 4.55375 0
M  V30 6507 N 651.66 -4.09369 5.58918 0
M  V30 6508 N 653.453 -3.46035 4.42963 0
M  V30 6509 H 645.604 -0.363867 2.0926 0
M  V30 6510 H 647.867 -0.223649 0.921241 0
M  V30 6511 H 647.573 -1.39275 3.22948 0
M  V30 6512 H 647.447 -2.92436 2.38245 0
M  V30 6513 H 649.834 -2.56585 1.45767 0
M  V30 6514 H 649.915 -1.03408 2.33967 0
M  V30 6515 H 649.559 -2.30094 4.5279 0
M  V30 6516 H 649.489 -3.82917 3.61499 0
M  V30 6517 H 651.98 -2.45514 2.87283 0
M  V30 6518 H 652.293 -4.52891 6.26187 0
M  V30 6519 H 650.638 -4.0786 5.62739 0
M  V30 6520 H 653.829 -2.9766 3.6127 0
M  V30 6521 H 654.002 -3.92244 5.15799 0
M  V30 6522 N 647.408 -1.11026 -1.11852 0
M  V30 6523 C 648.655 -0.85646 -1.83497 0
M  V30 6524 C 648.983 0.617938 -1.84423 0
M  V30 6525 O 648.238 1.47194 -1.28966 0
M  V30 6526 C 648.537 -1.35777 -3.30604 0
M  V30 6527 C 648.203 -2.84465 -3.49843 0
M  V30 6528 C 646.865 -3.25068 -3.54802 0
M  V30 6529 C 649.217 -3.80251 -3.56453 0
M  V30 6530 C 646.545 -4.60194 -3.63921 0
M  V30 6531 C 648.897 -5.15188 -3.67102 0
M  V30 6532 C 647.561 -5.55356 -3.70319 0
M  V30 6533 H 646.831 -0.313401 -0.671462 0
M  V30 6534 H 649.478 -1.38792 -1.31943 0
M  V30 6535 H 647.783 -0.746455 -3.84624 0
M  V30 6536 H 649.48 -1.13779 -3.8452 0
M  V30 6537 H 646.07 -2.52054 -3.46651 0
M  V30 6538 H 650.254 -3.49986 -3.51886 0
M  V30 6539 H 645.51 -4.90728 -3.64686 0
M  V30 6540 H 649.684 -5.89248 -3.71159 0
M  V30 6541 H 647.311 -6.60054 -3.77138 0
M  V30 6542 N 648.886 1.2938 -0.899927 0
M  V30 6543 C 649.833 2.27713 -0.376243 0
M  V30 6544 C 650.803 1.57016 0.541774 0
M  V30 6545 O 651.988 1.84997 0.466966 0
M  V30 6546 C 649.128 3.42889 0.39 0
M  V30 6547 C 648.241 4.28369 -0.558938 0
M  V30 6548 C 647.376 5.30726 0.224379 0
M  V30 6549 C 646.415 6.07862 -0.719068 0
M  V30 6550 N 645.552 7.02094 0.0298569 0
M  V30 6551 H 650.392 2.71888 -1.21988 0
M  V30 6552 H 647.929 1.33724 -0.612879 0
M  V30 6553 H 649.887 4.08443 0.850314 0
M  V30 6554 H 648.517 2.99743 1.19809 0
M  V30 6555 H 647.569 3.62986 -1.13777 0
M  V30 6556 H 648.881 4.82068 -1.2811 0
M  V30 6557 H 648.035 6.02098 0.745881 0
M  V30 6558 H 646.774 4.77759 0.979674 0
M  V30 6559 H 645.779 5.35353 -1.25207 0
M  V30 6560 H 647.004 6.62917 -1.4737 0
M  V30 6561 H 644.95 6.51496 0.767415 0
M  V30 6562 H 644.867 7.5335 -0.632391 0
M  V30 6563 H 646.135 7.77685 0.531615 0
M  V30 6564 N 650.364 0.662433 1.43002 0
M  V30 6565 C 651.61 0.179857 2.02001 0
M  V30 6566 C 651.943 -1.20625 1.52195 0
M  V30 6567 O 651.218 -1.80726 0.718911 0
M  V30 6568 C 651.501 0.200845 3.59539 0
M  V30 6569 C 651.354 1.62153 4.19555 0
M  V30 6570 C 652.673 -0.457738 4.37713 0
M  V30 6571 H 649.792 0.0668305 0.733964 0
M  V30 6572 H 652.434 0.84487 1.70182 0
M  V30 6573 H 650.584 -0.365411 3.86778 0
M  V30 6574 H 652.256 2.23908 4.03315 0
M  V30 6575 H 650.499 2.16601 3.75854 0
M  V30 6576 H 651.17 1.58799 5.28665 0
M  V30 6577 H 653.646 0.0241495 4.16093 0
M  V30 6578 H 652.522 -0.412363 5.47349 0
M  V30 6579 H 652.783 -1.53336 4.14657 0
M  V30 6580 N 651.842 -1.52309 0.404946 0
M  V30 6581 C 652.79 -2.28452 -0.437321 0
M  V30 6582 C 653.784 -1.32975 -1.04948 0
M  V30 6583 O 654.99 -1.50451 -0.988159 0
M  V30 6584 H 651.365 -0.734824 -0.159805 0
M  V30 6585 H 653.336 -2.97542 0.22615 0
M  V30 6586 C 652.085 -3.11536 -1.54404 0
M  V30 6587 H 651.408 -3.84871 -1.08233 0
M  V30 6588 H 652.848 -3.67926 -2.10729 0
M  V30 6589 C 651.307 -2.24833 -2.50902 0
M  V30 6590 O 651.837 -1.88574 -3.54687 0
M  V30 6591 N 650.043 -1.88685 -2.21012 0
M  V30 6592 H 649.59 -2.18371 -1.36646 0
M  V30 6593 H 649.548 -1.30966 -2.85824 0
M  V30 6594 N 653.32 -0.135238 -1.57019 0
M  V30 6595 C 654.566 0.519563 -1.96032 0
M  V30 6596 C 654.899 1.65284 -1.01955 0
M  V30 6597 O 654.174 1.94408 -0.059727 0
M  V30 6598 C 654.457 1.0369 -3.44848 0
M  V30 6599 C 654.31 -0.0940754 -4.49702 0
M  V30 6600 C 655.629 1.92254 -3.95887 0
M  V30 6601 H 652.748 0.18739 -0.712779 0
M  V30 6602 H 655.39 -0.214086 -1.8879 0
M  V30 6603 H 653.54 1.66209 -3.5115 0
M  V30 6604 H 655.212 -0.73 -4.55487 0
M  V30 6605 H 653.455 -0.754924 -4.27181 0
M  V30 6606 H 654.126 0.309419 -5.51132 0
M  V30 6607 H 656.602 1.39581 -3.9199 0
M  V30 6608 H 655.478 2.25364 -5.00502 0
M  V30 6609 H 655.739 2.85513 -3.37543 0
M  V30 6610 N 654.798 1.5699 0.138552 0
M  V30 6611 C 655.745 1.98899 1.17081 0
M  V30 6612 C 656.715 0.857922 1.42228 0
M  V30 6613 O 657.9 1.12065 1.54422 0
M  V30 6614 C 655.04 2.38189 2.4972 0
M  V30 6615 C 654.153 3.64624 2.31674 0
M  V30 6616 C 653.288 3.9298 3.57407 0
M  V30 6617 C 652.327 5.1266 3.34435 0
M  V30 6618 N 651.464 5.36983 4.5232 0
M  V30 6619 H 656.304 2.86881 0.80642 0
M  V30 6620 H 653.841 1.41925 0.386727 0
M  V30 6621 H 655.799 2.59 3.2707 0
M  V30 6622 H 654.429 1.53275 2.84089 0
M  V30 6623 H 653.481 3.51542 1.45337 0
M  V30 6624 H 654.793 4.52131 2.10664 0
M  V30 6625 H 653.947 4.14335 4.43183 0
M  V30 6626 H 652.686 3.03912 3.8143 0
M  V30 6627 H 651.691 4.9117 2.47048 0
M  V30 6628 H 652.916 6.03288 3.11802 0
M  V30 6629 H 650.862 4.50871 4.76499 0
M  V30 6630 H 650.779 6.18775 4.34343 0
M  V30 6631 H 652.047 5.62842 5.39285 0
M  V30 6632 N 656.276 -0.40816 1.52223 0
M  V30 6633 C 657.522 -1.15673 1.66576 0
M  V30 6634 C 657.855 -1.90141 0.394996 0
M  V30 6635 O 657.13 -1.84798 -0.606613 0
M  V30 6636 C 657.413 -2.15042 2.88841 0
M  V30 6637 C 657.266 -1.44465 4.25969 0
M  V30 6638 C 658.585 -3.15699 3.0663 0
M  V30 6639 H 655.704 -0.41916 0.606196 0
M  V30 6640 H 658.346 -0.442348 1.84779 0
M  V30 6641 H 656.496 -2.75964 2.73452 0
M  V30 6642 H 658.168 -0.866544 4.53088 0
M  V30 6643 H 656.411 -0.746612 4.27327 0
M  V30 6644 H 657.082 -2.16976 5.07568 0
M  V30 6645 H 659.558 -2.64854 3.20923 0
M  V30 6646 H 658.434 -3.82491 3.9369 0
M  V30 6647 H 658.695 -3.83481 2.19987 0
M  V30 6648 N 657.755 -1.42862 -0.66545 0
M  V30 6649 C 659.166 -1.3901 -1.24632 0
M  V30 6650 C 659.517 -0.0880285 -1.96002 0
M  V30 6651 O 658.642 0.812947 -2.0055 0
M  V30 6652 C 659.237 -2.51806 -2.2667 0
M  V30 6653 C 657.796 -2.51257 -2.80262 0
M  V30 6654 C 656.943 -2.30124 -1.5472 0
M  V30 6655 H 659.894 -1.5194 -0.458237 0
M  V30 6656 H 659.915 -2.22593 -3.08598 0
M  V30 6657 H 659.427 -3.46558 -1.74697 0
M  V30 6658 H 657.528 -1.60349 -3.36332 0
M  V30 6659 H 657.641 -3.48614 -3.28641 0
M  V30 6660 H 656.005 -1.7856 -1.81627 0
M  V30 6661 H 656.788 -3.26945 -1.04699 0
M  V30 6662 N 659.233 0.902656 -1.29189 0
M  V30 6663 C 660.644 1.46809 -1.15343 0
M  V30 6664 C 660.995 1.94568 0.252517 0
M  V30 6665 O 660.12 1.83454 1.14777 0
M  V30 6666 C 660.715 2.66829 -2.08776 0
M  V30 6667 C 659.274 3.19518 -1.98961 0
M  V30 6668 C 658.421 1.92212 -1.99874 0
M  V30 6669 H 661.372 0.714282 -1.41717 0
M  V30 6670 H 661.393 3.42465 -1.65826 0
M  V30 6671 H 660.905 2.32039 -3.11094 0
M  V30 6672 H 659.006 3.59008 -0.99721 0
M  V30 6673 H 659.119 3.84016 -2.86477 0
M  V30 6674 H 657.483 2.0979 -1.44431 0
M  V30 6675 H 658.266 1.59702 -3.03891 0
M  V30 6676 N 660.711 1.11618 1.11262 0
M  V30 6677 C 661.957 0.867463 1.83311 0
M  V30 6678 C 662.29 -0.605366 1.84524 0
M  V30 6679 O 661.565 -1.44704 1.29965 0
M  V30 6680 C 661.848 1.43207 3.30399 0
M  V30 6681 C 661.701 2.97265 3.3757 0
M  V30 6682 C 663.02 1.08454 4.26528 0
M  V30 6683 H 660.139 0.316578 0.665543 0
M  V30 6684 H 662.781 1.38137 1.30454 0
M  V30 6685 H 660.931 0.994982 3.75543 0
M  V30 6686 H 662.603 3.49591 3.00971 0
M  V30 6687 H 660.846 3.33237 2.77733 0
M  V30 6688 H 661.517 3.31859 4.41105 0
M  V30 6689 H 663.993 1.4619 3.89574 0
M  V30 6690 H 662.869 1.50633 5.27826 0
M  V30 6691 H 663.13 -0.00444568 4.421 0
M  V30 6692 N 662.189 -1.289 0.906776 0
M  V30 6693 C 663.6 -1.77336 0.58384 0
M  V30 6694 C 663.951 -1.74304 -0.900697 0
M  V30 6695 O 663.076 -1.33335 -1.70443 0
M  V30 6696 C 663.671 -3.22019 1.05304 0
M  V30 6697 C 662.23 -3.68205 0.781148 0
M  V30 6698 C 661.377 -2.48837 1.22373 0
M  V30 6699 H 664.328 -1.15462 1.08877 0
M  V30 6700 H 664.349 -3.78481 0.391414 0
M  V30 6701 H 663.861 -3.24194 2.13353 0
M  V30 6702 H 661.962 -3.71497 -0.28643 0
M  V30 6703 H 662.075 -4.58675 1.384 0
M  V30 6704 H 660.439 -2.46461 0.642594 0
M  V30 6705 H 661.222 -2.53736 2.31242 0
M  V30 6706 N 663.667 -0.670007 -1.42649 0
M  V30 6707 C 664.597 -0.00258501 -2.335 0
M  V30 6708 C 665.578 0.794364 -1.50412 0
M  V30 6709 O 666.763 0.75248 -1.79029 0
M  V30 6710 C 663.893 0.952748 -3.33976 0
M  V30 6711 C 662.847 0.264733 -4.2718 0
M  V30 6712 C 662.173 1.33267 -5.17826 0
M  V30 6713 C 663.473 -0.853289 -5.15283 0
M  V30 6714 H 665.167 -0.761326 -2.89559 0
M  V30 6715 H 662.713 -0.367561 -1.3923 0
M  V30 6716 H 664.666 1.4287 -3.96442 0
M  V30 6717 H 663.39 1.74285 -2.7621 0
M  V30 6718 H 662.049 -0.190938 -3.66102 0
M  V30 6719 H 661.697 2.11464 -4.5639 0
M  V30 6720 H 661.397 0.877476 -5.81011 0
M  V30 6721 H 662.921 1.80965 -5.83167 0
M  V30 6722 H 664.335 -0.458763 -5.71462 0
M  V30 6723 H 662.732 -1.23398 -5.87276 0
M  V30 6724 H 663.802 -1.70412 -4.53969 0
M  V30 6725 N 665.145 1.52092 -0.413018 0
M  V30 6726 C 666.108 2.25706 0.398687 0
M  V30 6727 C 667.108 1.28221 0.970368 0
M  V30 6728 O 668.298 1.52131 0.848635 0
M  V30 6729 C 665.43 3.03029 1.5616 0
M  V30 6730 H 666.623 2.98888 -0.246131 0
M  V30 6731 H 664.176 1.5542 -0.165622 0
M  V30 6732 H 664.911 2.34205 2.24317 0
M  V30 6733 H 664.696 3.74606 1.15812 0
M  V30 6734 H 666.186 3.58857 2.13569 0
M  V30 6735 N 666.623 0.143563 1.56945 0
M  V30 6736 C 667.586 -0.783295 2.154 0
M  V30 6737 C 668.586 -1.17763 1.09492 0
M  V30 6738 O 669.776 -1.09912 1.35148 0
M  V30 6739 C 666.908 -2.06248 2.7143 0
M  V30 6740 H 668.101 -0.274863 2.98638 0
M  V30 6741 H 665.654 -0.105859 1.55941 0
M  V30 6742 H 666.389 -2.61466 1.91849 0
M  V30 6743 H 666.174 -1.78897 3.4891 0
M  V30 6744 H 667.664 -2.72453 3.16479 0
M  V30 6745 N 668.101 -1.57061 -0.130224 0
M  V30 6746 C 669.512 -1.73539 -0.68856 0
M  V30 6747 C 669.863 -0.760554 -1.80859 0
M  V30 6748 O 668.988 0.0690796 -2.1629 0
M  V30 6749 C 669.583 -3.14666 -1.25581 0
M  V30 6750 C 668.142 -3.32689 -1.76055 0
M  V30 6751 C 667.289 -2.69436 -0.655712 0
M  V30 6752 H 670.24 -1.58412 0.0956002 0
M  V30 6753 H 670.261 -3.15595 -2.12556 0
M  V30 6754 H 669.773 -3.85593 -0.440412 0
M  V30 6755 H 667.874 -2.66786 -2.60108 0
M  V30 6756 H 667.987 -4.4077 -1.87772 0
M  V30 6757 H 666.351 -2.30362 -1.08654 0
M  V30 6758 H 667.134 -3.42979 0.14852 0
M  V30 6759 N 669.579 0.400081 -1.52437 0
M  V30 6760 C 670.995 0.739359 -1.41441 0
M  V30 6761 C 671.195 1.94512 -0.526053 0
M  V30 6762 O 670.251 2.525 0.00472502 0
M  V30 6763 C 671.564 0.984824 -2.84116 0
M  V30 6764 C 673.112 1.08698 -2.93519 0
M  V30 6765 C 673.587 1.36515 -4.37181 0
M  V30 6766 N 675.078 1.43361 -4.40457 0
M  V30 6767 C 675.813 1.66528 -5.48686 0
M  V30 6768 N 675.309 1.87239 -6.67018 0
M  V30 6769 N 677.102 1.68617 -5.36213 0
M  V30 6770 H 669.253 -0.393484 -2.08723 0
M  V30 6771 H 671.516 -0.1138 -0.941145 0
M  V30 6772 H 671.222 0.171096 -3.51284 0
M  V30 6773 H 671.096 1.90253 -3.25705 0
M  V30 6774 H 673.483 1.89129 -2.26526 0
M  V30 6775 H 673.564 0.147432 -2.55375 0
M  V30 6776 H 673.208 0.565982 -5.04737 0
M  V30 6777 H 673.138 2.31737 -4.7287 0
M  V30 6778 H 675.629 1.29108 -3.55161 0
M  V30 6779 H 675.942 2.04392 -7.45281 0
M  V30 6780 H 674.287 1.84486 -6.70067 0
M  V30 6781 H 677.478 1.5198 -4.42741 0
M  V30 6782 H 677.651 1.86332 -6.20632 0
M  V30 6783 N 671.057 1.43213 0.657864 0
M  V30 6784 C 671.987 1.50815 1.78262 0
M  V30 6785 C 672.968 0.363211 1.66177 0
M  V30 6786 O 674.153 0.579806 1.85343 0
M  V30 6787 C 671.283 1.42625 3.16663 0
M  V30 6788 C 670.237 2.5532 3.43505 0
M  V30 6789 C 669.563 2.32184 4.81658 0
M  V30 6790 C 670.863 3.97583 3.38711 0
M  V30 6791 H 672.557 2.44954 1.72157 0
M  V30 6792 H 670.103 1.17896 0.82683 0
M  V30 6793 H 672.056 1.46548 3.95097 0
M  V30 6794 H 670.78 0.449877 3.23487 0
M  V30 6795 H 669.439 2.50742 2.6744 0
M  V30 6796 H 669.087 1.32801 4.85153 0
M  V30 6797 H 668.787 3.07724 5.00579 0
M  V30 6798 H 670.311 2.37883 5.62356 0
M  V30 6799 H 671.725 4.03673 4.07089 0
M  V30 6800 H 670.122 4.73112 3.69168 0
M  V30 6801 H 671.192 4.23049 2.36976 0
M  V30 6802 N 672.536 -0.895792 1.29666 0
M  V30 6803 C 673.466 -2.01673 1.17688 0
M  V30 6804 C 674.447 -1.69955 0.0701317 0
M  V30 6805 O 675.632 -1.9258 0.250289 0
M  V30 6806 C 672.762 -3.36568 0.856681 0
M  V30 6807 C 671.716 -3.82509 1.92017 0
M  V30 6808 C 671.042 -5.14574 1.4532 0
M  V30 6809 C 672.342 -4.02409 3.32963 0
M  V30 6810 H 674.036 -2.11953 2.11463 0
M  V30 6811 H 671.582 -1.01839 1.01807 0
M  V30 6812 H 673.535 -4.14498 0.759577 0
M  V30 6813 H 672.259 -3.26391 -0.116763 0
M  V30 6814 H 670.918 -3.068 2.00673 0
M  V30 6815 H 670.566 -5.00815 0.468325 0
M  V30 6816 H 670.266 -5.46283 2.16447 0
M  V30 6817 H 671.79 -5.9504 1.36968 0
M  V30 6818 H 673.204 -4.70808 3.27127 0
M  V30 6819 H 671.601 -4.45478 4.02082 0
M  V30 6820 H 672.671 -3.06616 3.75652 0
M  V30 6821 N 674.014 -1.12206 -1.10668 0
M  V30 6822 C 675.242 -0.898635 -1.86366 0
M  V30 6823 C 675.657 0.551991 -1.80551 0
M  V30 6824 O 675.014 1.38152 -1.19249 0
M  V30 6825 C 675.065 -1.36199 -3.34861 0
M  V30 6826 O 674.786 -2.75576 -3.40573 0
M  V30 6827 C 676.287 -1.17515 -4.2744 0
M  V30 6828 H 673.507 -0.321281 -0.589084 0
M  V30 6829 H 676.051 -1.49142 -1.39918 0
M  V30 6830 H 674.206 -0.81249 -3.78784 0
M  V30 6831 H 674.62 -2.95851 -4.33096 0
M  V30 6832 H 676.094 -1.54827 -5.29842 0
M  V30 6833 H 676.571 -0.115486 -4.39048 0
M  V30 6834 H 677.177 -1.71203 -3.89319 0
M  V30 6835 N 675.492 1.28418 -0.913599 0
M  V30 6836 C 676.439 2.27301 -0.400373 0
M  V30 6837 C 677.409 1.57582 0.52509 0
M  V30 6838 O 678.594 1.85482 0.447318 0
M  V30 6839 C 675.734 3.43284 0.35361 0
M  V30 6840 C 674.847 4.27752 -0.604341 0
M  V30 6841 C 673.982 5.30934 0.168075 0
M  V30 6842 C 673.021 6.07065 -0.783499 0
M  V30 6843 N 672.158 7.02086 -0.0446112 0
M  V30 6844 H 676.998 2.70579 -1.24865 0
M  V30 6845 H 674.535 1.33067 -0.627028 0
M  V30 6846 H 676.493 4.09322 0.806945 0
M  V30 6847 H 675.123 3.00997 1.16623 0
M  V30 6848 H 674.175 3.61759 -1.17621 0
M  V30 6849 H 675.487 4.80682 -1.33216 0
M  V30 6850 H 674.641 6.02855 0.681979 0
M  V30 6851 H 673.38 4.78771 0.928947 0
M  V30 6852 H 672.385 5.33995 -1.30878 0
M  V30 6853 H 673.61 6.61317 -1.54392 0
M  V30 6854 H 671.556 6.52273 0.698272 0
M  V30 6855 H 671.473 7.52637 -0.712258 0
M  V30 6856 H 672.741 7.78205 0.449102 0
M  V30 6857 N 676.97 0.677563 1.42291 0
M  V30 6858 C 677.902 -0.0380218 2.29168 0
M  V30 6859 C 678.915 -0.762714 1.43828 0
M  V30 6860 O 680.104 -0.616413 1.67519 0
M  V30 6861 C 677.204 -1.07761 3.21311 0
M  V30 6862 C 676.377 -0.42618 4.35319 0
M  V30 6863 C 675.436 -1.36592 5.08162 0
M  V30 6864 O 674.462 -0.865174 5.62586 0
M  V30 6865 N 675.664 -2.69909 5.13935 0
M  V30 6866 H 678.429 0.707766 2.91223 0
M  V30 6867 H 675.99 0.52219 1.53247 0
M  V30 6868 H 677.982 -1.70761 3.6691 0
M  V30 6869 H 676.552 -1.72511 2.60689 0
M  V30 6870 H 675.772 0.383385 3.92331 0
M  V30 6871 H 677.06 0.0275277 5.08793 0
M  V30 6872 H 676.458 -3.13129 4.71134 0
M  V30 6873 H 675.015 -3.2815 5.6317 0
M  V30 6874 N 678.448 -1.51871 0.421078 0
M  V30 6875 C 679.673 -2.0684 -0.152371 0
M  V30 6876 C 680.098 -1.28802 -1.37083 0
M  V30 6877 O 679.456 -0.321482 -1.78427 0
M  V30 6878 C 679.504 -3.57532 -0.469368 0
M  V30 6879 O 678.608 -3.81818 -1.55848 0
M  V30 6880 H 677.949 -0.663939 -0.00898586 0
M  V30 6881 H 680.479 -1.95674 0.597724 0
M  V30 6882 H 680.489 -4.01515 -0.724553 0
M  V30 6883 H 679.164 -4.13761 0.421276 0
M  V30 6884 H 677.741 -3.49709 -1.29453 0
M  V30 6885 N 679.926 -0.151884 -1.56866 0
M  V30 6886 C 681.342 0.204486 -1.58285 0
M  V30 6887 C 681.542 1.6431 -1.16639 0
M  V30 6888 O 680.598 2.37077 -0.868946 0
M  V30 6889 C 681.911 -0.0587019 -3.00643 0
M  V30 6890 C 683.459 0.00462303 -3.13 0
M  V30 6891 C 683.934 -0.231297 -4.57416 0
M  V30 6892 N 685.425 -0.178394 -4.62856 0
M  V30 6893 C 686.16 -0.335379 -5.72418 0
M  V30 6894 N 685.656 -0.550355 -6.90611 0
M  V30 6895 N 687.449 -0.272641 -5.61438 0
M  V30 6896 H 679.6 -1.09116 -1.82229 0
M  V30 6897 H 681.863 -0.432311 -0.843689 0
M  V30 6898 H 681.569 -1.05453 -3.35518 0
M  V30 6899 H 681.443 0.658508 -3.71407 0
M  V30 6900 H 683.83 0.991009 -2.77962 0
M  V30 6901 H 683.911 -0.744992 -2.44711 0
M  V30 6902 H 683.555 -1.2148 -4.93158 0
M  V30 6903 H 683.485 0.5387 -5.23837 0
M  V30 6904 H 685.976 -0.0170923 -3.77896 0
M  V30 6905 H 686.289 -0.660116 -7.69976 0
M  V30 6906 H 684.634 -0.586736 -6.92519 0
M  V30 6907 H 687.825 -0.105421 -4.67981 0
M  V30 6908 H 687.998 -0.398418 -6.46774 0
M  V30 6909 N 681.404 1.57128 0.121893 0
M  V30 6910 C 682.336 1.96773 1.17529 0
M  V30 6911 C 683.349 0.866668 1.37814 0
M  V30 6912 O 684.538 1.14497 1.3694 0
M  V30 6913 C 681.638 2.24832 2.53582 0
M  V30 6914 C 680.811 3.56138 2.53939 0
M  V30 6915 C 679.87 3.72443 3.71716 0
M  V30 6916 O 678.896 4.44584 3.55434 0
M  V30 6917 N 680.098 3.10993 4.90167 0
M  V30 6918 H 682.863 2.87743 0.838086 0
M  V30 6919 H 680.424 1.58881 0.311199 0
M  V30 6920 H 682.416 2.32958 3.30927 0
M  V30 6921 H 680.986 1.40002 2.79496 0
M  V30 6922 H 680.206 3.59226 1.62329 0
M  V30 6923 H 681.494 4.42448 2.51231 0
M  V30 6924 H 680.892 2.52345 5.06299 0
M  V30 6925 H 679.449 3.24644 5.65198 0
M  V30 6926 N 682.882 -0.391992 1.52647 0
M  V30 6927 C 683.812 -1.48517 1.8018 0
M  V30 6928 C 684.793 -1.57039 0.653667 0
M  V30 6929 O 685.978 -1.72036 0.900962 0
M  V30 6930 C 683.108 -2.86161 1.96797 0
M  V30 6931 C 682.062 -2.92481 3.12472 0
M  V30 6932 C 681.388 -4.32546 3.14338 0
M  V30 6933 C 682.688 -2.624 4.51601 0
M  V30 6934 H 684.382 -1.25726 2.71723 0
M  V30 6935 H 681.928 -0.603387 1.30749 0
M  V30 6936 H 683.881 -3.62639 2.14641 0
M  V30 6937 H 682.605 -3.10283 1.01941 0
M  V30 6938 H 681.264 -2.18451 2.94406 0
M  V30 6939 H 680.912 -4.53703 2.1717 0
M  V30 6940 H 680.612 -4.37695 3.92042 0
M  V30 6941 H 682.136 -5.10934 3.34333 0
M  V30 6942 H 683.55 -3.28596 4.69785 0
M  V30 6943 H 681.947 -2.78903 5.3135 0
M  V30 6944 H 683.017 -1.57754 4.58521 0
M  V30 6945 N 684.36 -1.4356 -0.65026 0
M  V30 6946 C 685.606 -1.45549 -1.41221 0
M  V30 6947 C 685.939 -0.0805472 -1.94033 0
M  V30 6948 O 685.214 0.899043 -1.72475 0
M  V30 6949 C 685.497 -2.50028 -2.59148 0
M  V30 6950 C 685.35 -3.96808 -2.1181 0
M  V30 6951 C 686.669 -2.51212 -3.61359 0
M  V30 6952 H 683.788 -0.529967 -0.512156 0
M  V30 6953 H 686.43 -1.75127 -0.736933 0
M  V30 6954 H 684.58 -2.24937 -3.16758 0
M  V30 6955 H 686.252 -4.32966 -1.59178 0
M  V30 6956 H 684.495 -4.09498 -1.43156 0
M  V30 6957 H 685.166 -4.6553 -2.96625 0
M  V30 6958 H 687.642 -2.73583 -3.13515 0
M  V30 6959 H 686.518 -3.26252 -4.41419 0
M  V30 6960 H 686.779 -1.54701 -4.1415 0
M  V30 6961 N 685.838 0.888903 -1.30139 0
M  V30 6962 C 687.084 1.6428 -1.18912 0
M  V30 6963 C 687.417 1.92499 0.256477 0
M  V30 6964 O 686.692 1.54312 1.18397 0
M  V30 6965 C 686.975 2.9851 -2.01405 0
M  V30 6966 C 686.828 2.77288 -3.54163 0
M  V30 6967 C 688.147 3.99383 -1.84882 0
M  V30 6968 H 685.266 0.596148 -0.433333 0
M  V30 6969 H 687.908 1.0289 -1.5973 0
M  V30 6970 H 686.058 3.50907 -1.66722 0
M  V30 6971 H 687.73 2.31709 -3.98884 0
M  V30 6972 H 685.973 2.11867 -3.78543 0
M  V30 6973 H 686.644 3.72717 -4.07168 0
M  V30 6974 H 689.12 3.56132 -2.15196 0
M  V30 6975 H 687.996 4.91222 -2.44934 0
M  V30 6976 H 688.257 4.34674 -0.806902 0
M  V30 6977 N 687.317 1.12792 1.10072 0
M  V30 6978 C 688.542 0.908838 1.86427 0
M  V30 6979 C 688.967 -0.536793 1.80278 0
M  V30 6980 O 688.325 -1.38033 1.17543 0
M  V30 6981 C 688.373 1.39295 3.3261 0
M  V30 6982 O 687.477 0.573846 4.08388 0
M  V30 6983 H 686.818 0.326234 0.578331 0
M  V30 6984 H 689.348 1.50094 1.39043 0
M  V30 6985 H 689.358 1.39366 3.83459 0
M  V30 6986 H 688.033 2.44555 3.36401 0
M  V30 6987 H 686.61 0.640438 3.67359 0
M  V30 6988 N 688.795 -1.27931 0.920396 0
M  V30 6989 C 690.206 -1.76707 0.602616 0
M  V30 6990 C 690.557 -1.75249 -0.882159 0
M  V30 6991 O 689.682 -1.35135 -1.69019 0
M  V30 6992 C 690.277 -3.20884 1.08714 0
M  V30 6993 C 688.836 -3.67356 0.820157 0
M  V30 6994 C 687.983 -2.47525 1.25006 0
M  V30 6995 H 690.934 -1.14301 1.10095 0
M  V30 6996 H 690.955 -3.78045 0.431535 0
M  V30 6997 H 690.467 -3.21913 2.1678 0
M  V30 6998 H 688.568 -3.7178 -0.247012 0
M  V30 6999 H 688.681 -4.57181 1.43257 0
M  V30 7000 H 687.045 -2.45765 0.668698 0
M  V30 7001 H 687.828 -2.51269 2.3392 0
M  V30 7002 N 690.273 -0.685099 -1.4193 0
M  V30 7003 C 691.203 -0.0273506 -2.33484 0
M  V30 7004 C 692.184 0.778366 -1.51246 0
M  V30 7005 O 693.369 0.733449 -1.79817 0
M  V30 7006 C 690.499 0.917272 -3.34968 0
M  V30 7007 C 689.453 0.21941 -4.27437 0
M  V30 7008 C 688.779 1.27768 -5.1921 0
M  V30 7009 C 690.079 -0.907894 -5.14349 0
M  V30 7010 H 691.773 -0.791994 -2.88735 0
M  V30 7011 H 689.319 -0.382308 -1.38832 0
M  V30 7012 H 691.272 1.38657 -3.97935 0
M  V30 7013 H 689.996 1.71346 -2.78043 0
M  V30 7014 H 688.655 -0.229757 -3.65879 0
M  V30 7015 H 688.303 2.06612 -4.58607 0
M  V30 7016 H 688.003 0.815803 -5.81909 0
M  V30 7017 H 689.527 1.7477 -5.85054 0
M  V30 7018 H 690.941 -0.519348 -5.70943 0
M  V30 7019 H 689.338 -1.2962 -5.85934 0
M  V30 7020 H 690.408 -1.75218 -4.52136 0
M  V30 7021 N 691.751 1.51645 -0.429126 0
M  V30 7022 C 692.997 2.02314 0.140286 0
M  V30 7023 C 693.33 1.31314 1.43074 0
M  V30 7024 O 692.605 0.425531 1.89788 0
M  V30 7025 C 692.888 3.5822 0.36749 0
M  V30 7026 C 692.741 4.39846 -0.941039 0
M  V30 7027 C 694.06 4.25055 1.14089 0
M  V30 7028 H 691.179 0.735335 0.0495112 0
M  V30 7029 H 693.821 1.81358 -0.566514 0
M  V30 7030 H 691.971 3.76207 0.969556 0
M  V30 7031 H 693.643 4.33527 -1.57646 0
M  V30 7032 H 691.886 4.05259 -1.54751 0
M  V30 7033 H 692.557 5.47069 -0.73621 0
M  V30 7034 H 695.033 4.11288 0.630986 0
M  V30 7035 H 693.909 5.34038 1.26863 0
M  V30 7036 H 694.17 3.85358 2.16683 0
M  V30 7037 N 693.229 0.160201 1.56784 0
M  V30 7038 C 694.454 -0.497373 2.01348 0
M  V30 7039 C 694.879 -1.56757 1.03966 0
M  V30 7040 O 694.237 -1.81292 0.0174455 0
M  V30 7041 C 694.285 -1.0628 3.44582 0
M  V30 7042 O 693.389 -2.17723 3.50244 0
M  V30 7043 H 692.73 -0.120295 0.653012 0
M  V30 7044 H 695.26 0.260821 2.02931 0
M  V30 7045 H 695.27 -1.38819 3.83658 0
M  V30 7046 H 693.945 -0.279166 4.14962 0
M  V30 7047 H 692.522 -1.86313 3.2302 0
M  V30 7048 N 694.707 -1.5719 -0.113559 0
M  V30 7049 C 695.954 -1.85138 -0.820382 0
M  V30 7050 C 696.282 -0.74608 -1.79622 0
M  V30 7051 O 695.537 0.262077 -1.93937 0
M  V30 7052 C 695.836 -3.19593 -1.59984 0
M  V30 7053 C 695.502 -4.44315 -0.767809 0
M  V30 7054 C 694.164 -4.78179 -0.538379 0
M  V30 7055 C 696.516 -5.2086 -0.188203 0
M  V30 7056 C 693.844 -5.86028 0.28082 0
M  V30 7057 C 696.196 -6.29572 0.618217 0
M  V30 7058 C 694.86 -6.61964 0.857912 0
M  V30 7059 H 694.13 -0.677467 -0.300199 0
M  V30 7060 H 696.777 -1.91322 -0.0825443 0
M  V30 7061 H 695.082 -3.0901 -2.40874 0
M  V30 7062 H 696.779 -3.3844 -2.1508 0
M  V30 7063 H 693.369 -4.17786 -0.956724 0
M  V30 7064 H 697.553 -4.95045 -0.352658 0
M  V30 7065 H 692.809 -6.09547 0.475693 0
M  V30 7066 H 696.983 -6.88064 1.0743 0
M  V30 7067 H 694.61 -7.45365 1.49451 0
M  V30 7068 N 696.185 0.383891 -1.52853 0
M  V30 7069 C 697.41 1.154 -1.7233 0
M  V30 7070 C 697.835 1.82809 -0.44298 0
M  V30 7071 O 697.193 1.71026 0.601645 0
M  V30 7072 C 697.241 2.17386 -2.87708 0
M  V30 7073 O 696.345 3.24082 -2.55038 0
M  V30 7074 H 695.686 0.335709 -0.572883 0
M  V30 7075 H 698.216 0.44662 -1.99666 0
M  V30 7076 H 698.226 2.61296 -3.1335 0
M  V30 7077 H 696.901 1.6771 -3.80587 0
M  V30 7078 H 695.478 2.85273 -2.40153 0
M  V30 7079 N 697.663 1.43903 0.642637 0
M  V30 7080 C 698.911 1.45791 1.39962 0
M  V30 7081 C 699.232 0.0873144 1.94804 0
M  V30 7082 O 698.502 -0.878825 1.75081 0
M  V30 7083 H 697.082 0.536797 0.519479 0
M  V30 7084 H 699.744 1.7959 0.757189 0
M  V30 7085 H 698.84 2.17665 2.2367 0
M  V30 7086 N 699.141 -0.881989 1.30609 0
M  V30 7087 C 700.418 -1.61563 1.10258 0
M  V30 7088 C 700.798 -2.08228 -0.347053 0
M  V30 7089 O 700.146 -1.85151 -1.33908 0
M  V30 7090 C 700.356 -2.78287 2.10612 0
M  V30 7091 C 701.704 -3.48545 2.4249 0
M  V30 7092 O 702.728 -2.88479 2.08945 0
M  V30 7093 O 701.587 -4.56873 2.99883 0
M  V30 7094 H 698.681 -0.710238 0.423663 0
M  V30 7095 H 701.227 -0.928503 1.42045 0
M  V30 7096 H 699.999 -2.41131 3.08174 0
M  V30 7097 H 699.622 -3.54695 1.79659 0
M  V30 7098 N 700.619 -1.13374 -1.09472 0
M  V30 7099 C 701.867 -0.893422 -1.8128 0
M  V30 7100 C 702.188 0.582029 -1.86111 0
M  V30 7101 O 701.458 1.42305 -1.34633 0
M  V30 7102 H 700.038 -0.327543 -0.67136 0
M  V30 7103 H 702.7 -1.43018 -1.32408 0
M  V30 7104 H 701.796 -1.28374 -2.84476 0
M  V30 7105 N 702.098 1.27442 -0.927168 0
M  V30 7106 C 703.509 1.76385 -0.611979 0
M  V30 7107 C 703.86 1.75715 0.872853 0
M  V30 7108 O 702.985 1.3603 1.683 0
M  V30 7109 C 703.58 3.20303 -1.10414 0
M  V30 7110 C 702.139 3.66916 -0.839628 0
M  V30 7111 C 701.286 2.46859 -1.26317 0
M  V30 7112 H 704.237 1.13716 -1.107 0
M  V30 7113 H 704.258 3.77811 -0.451578 0
M  V30 7114 H 703.77 3.20759 -2.18484 0
M  V30 7115 H 701.871 3.71906 0.227292 0
M  V30 7116 H 701.984 4.56415 -1.45679 0
M  V30 7117 H 700.348 2.45407 -0.681723 0
M  V30 7118 H 701.131 2.50025 -2.3525 0
M  V30 7119 N 703.576 0.692616 1.41565 0
M  V30 7120 C 704.825 0.219452 2.00503 0
M  V30 7121 C 705.138 -1.18683 1.55479 0
M  V30 7122 O 706.344 -1.75731 2.06956 0
M  V30 7123 C 704.8 0.341451 3.58277 0
M  V30 7124 C 704.408 1.75291 4.12283 0
M  V30 7125 C 706.152 -0.0720899 4.24439 0
M  V30 7126 C 704.059 1.82673 5.62481 0
M  V30 7127 H 702.989 0.0782874 0.749925 0
M  V30 7128 H 705.64 0.860386 1.62079 0
M  V30 7129 H 704.022 -0.367683 3.94289 0
M  V30 7130 H 705.196 2.49057 3.87695 0
M  V30 7131 H 703.511 2.11587 3.58636 0
M  V30 7132 H 706.108 -0.0373385 5.34687 0
M  V30 7133 H 706.451 -1.11034 4.0122 0
M  V30 7134 H 706.984 0.586663 3.9345 0
M  V30 7135 H 703.723 2.84539 5.90523 0
M  V30 7136 H 703.243 1.13288 5.89004 0
M  V30 7137 H 704.922 1.58827 6.27203 0
M  V30 7138 N 705.054 -1.51416 0.437162 0
M  V30 7139 C 706.279 -2.0699 -0.130424 0
M  V30 7140 C 706.704 -1.30249 -1.35709 0
M  V30 7141 O 706.062 -0.340388 -1.78076 0
M  V30 7142 C 706.11 -3.5801 -0.43142 0
M  V30 7143 O 705.214 -3.8345 -1.5179 0
M  V30 7144 H 704.555 -0.663997 -0.00194339 0
M  V30 7145 H 707.085 -1.95029 0.618445 0
M  V30 7146 H 707.095 -4.02261 -0.681926 0
M  V30 7147 H 705.77 -4.13291 0.465137 0
M  V30 7148 H 704.347 -3.51062 -1.25737 0
M  V30 7149 N 706.532 -0.168513 -1.56696 0
M  V30 7150 C 707.76 0.483503 -2.01171 0
M  V30 7151 C 708.175 1.56994 -1.04872 0
M  V30 7152 O 707.532 1.82434 -0.0491337 0
M  V30 7153 C 707.583 1.0644 -3.45475 0
M  V30 7154 O 707.304 0.0213375 -4.38095 0
M  V30 7155 C 708.805 1.79493 -4.05336 0
M  V30 7156 H 706.025 0.124002 -0.659443 0
M  V30 7157 H 708.569 -0.269419 -2.02717 0
M  V30 7158 H 706.724 1.76784 -3.44712 0
M  V30 7159 H 707.138 0.449837 -5.22567 0
M  V30 7160 H 708.612 2.15401 -5.08238 0
M  V30 7161 H 709.089 2.68889 -3.47269 0
M  V30 7162 H 709.695 1.13798 -4.09793 0
M  V30 7163 N 708.01 1.57248 0.105221 0
M  V30 7164 C 709.256 1.85845 0.811753 0
M  V30 7165 C 709.589 0.756219 1.78871 0
M  V30 7166 O 708.864 -0.236736 1.93054 0
M  V30 7167 C 709.147 3.25059 1.54947 0
M  V30 7168 C 709 4.45898 0.591185 0
M  V30 7169 C 710.319 3.6203 2.50245 0
M  V30 7170 H 707.438 0.675973 0.293649 0
M  V30 7171 H 710.08 1.89849 0.0756269 0
M  V30 7172 H 708.23 3.21776 2.17698 0
M  V30 7173 H 709.902 4.61291 -0.0285352 0
M  V30 7174 H 708.145 4.33693 -0.0962343 0
M  V30 7175 H 708.816 5.40009 1.1443 0
M  V30 7176 H 711.292 3.66192 1.97593 0
M  V30 7177 H 710.168 4.60389 2.98886 0
M  V30 7178 H 710.429 2.90176 3.33542 0
M  V30 7179 N 709.488 -0.375779 1.53054 0
M  V30 7180 C 710.904 -0.716764 1.426 0
M  V30 7181 C 711.104 -1.93651 0.556931 0
M  V30 7182 O 710.16 -2.52475 0.0354461 0
M  V30 7183 C 711.473 -0.939499 2.85646 0
M  V30 7184 C 713.021 -1.04015 2.95212 0
M  V30 7185 C 713.496 -1.29543 4.39298 0
M  V30 7186 N 714.987 -1.36335 4.42682 0
M  V30 7187 C 715.722 -1.57778 5.51266 0
M  V30 7188 N 715.218 -1.76604 6.69913 0
M  V30 7189 N 717.011 -1.60065 5.38828 0
M  V30 7190 H 709.162 0.42664 2.08071 0
M  V30 7191 H 711.425 0.128758 0.939215 0
M  V30 7192 H 711.131 -0.115189 3.51511 0
M  V30 7193 H 711.005 -1.85048 3.2869 0
M  V30 7194 H 713.392 -1.85501 2.29507 0
M  V30 7195 H 713.473 -0.106785 2.55577 0
M  V30 7196 H 713.117 -0.485611 5.05573 0
M  V30 7197 H 713.047 -2.24184 4.76497 0
M  V30 7198 H 715.538 -1.23441 3.5717 0
M  V30 7199 H 715.851 -1.9251 7.48438 0
M  V30 7200 H 714.196 -1.73802 6.72917 0
M  V30 7201 H 717.387 -1.44917 4.45103 0
M  V30 7202 H 717.56 -1.76435 6.23518 0
M  V30 7203 N 710.966 -1.44241 -0.634997 0
M  V30 7204 C 711.896 -1.53632 -1.7584 0
M  V30 7205 C 712.877 -0.389603 -1.65578 0
M  V30 7206 O 714.062 -0.609219 -1.84397 0
M  V30 7207 C 711.192 -1.47644 -3.14354 0
M  V30 7208 C 710.146 -2.60752 -3.394 0
M  V30 7209 C 709.472 -2.39817 -4.77904 0
M  V30 7210 C 710.772 -4.02921 -3.32343 0
M  V30 7211 H 712.466 -2.47662 -1.68238 0
M  V30 7212 H 710.012 -1.19197 -0.807969 0
M  V30 7213 H 711.965 -1.52815 -3.92716 0
M  V30 7214 H 710.689 -0.501284 -3.2273 0
M  V30 7215 H 709.348 -2.54965 -2.63417 0
M  V30 7216 H 708.996 -1.40502 -4.82978 0
M  V30 7217 H 708.696 -3.15649 -4.9562 0
M  V30 7218 H 710.22 -2.46799 -5.585 0
M  V30 7219 H 711.634 -4.10098 -4.00615 0
M  V30 7220 H 710.031 -4.78925 -3.61595 0
M  V30 7221 H 711.101 -4.26766 -2.30215 0
M  V30 7222 N 712.444 0.87505 -1.31075 0
M  V30 7223 C 713.394 1.96933 -1.14898 0
M  V30 7224 C 714.378 1.60783 -0.0613703 0
M  V30 7225 O 715.57 1.74678 -0.285751 0
M  V30 7226 C 712.699 3.3253 -0.853166 0
M  V30 7227 C 711.785 3.74963 -1.98151 0
M  V30 7228 N 712.176 3.89403 -3.22799 0
M  V30 7229 C 710.474 4.04436 -1.8801 0
M  V30 7230 C 711.175 4.25563 -3.96574 0
M  V30 7231 N 710.151 4.3597 -3.24701 0
M  V30 7232 H 713.953 2.06201 -2.09424 0
M  V30 7233 H 711.467 1.06551 -1.22558 0
M  V30 7234 H 713.464 4.10666 -0.718266 0
M  V30 7235 H 712.124 3.24592 0.0839218 0
M  V30 7236 H 713.135 3.74266 -3.57974 0
M  V30 7237 H 709.812 4.04915 -1.01733 0
M  V30 7238 H 711.202 4.44375 -5.03965 0
M  V30 7239 N 713.922 1.13953 1.08869 0
M  V30 7240 C 715.152 0.926825 1.84644 0
M  V30 7241 C 715.56 -0.527941 1.81685 0
M  V30 7242 O 714.903 -1.37742 1.21543 0
M  V30 7243 C 714.965 1.34416 3.33426 0
M  V30 7244 C 714.629 2.81351 3.60126 0
M  V30 7245 C 715.626 3.79486 3.55368 0
M  V30 7246 C 713.311 3.1865 3.88288 0
M  V30 7247 C 715.305 5.1293 3.78393 0
M  V30 7248 C 712.992 4.5227 4.10968 0
M  V30 7249 C 713.99 5.4922 4.06013 0
M  V30 7250 O 713.678 6.80429 4.28102 0
M  V30 7251 H 713.41 0.33013 0.589907 0
M  V30 7252 H 715.964 1.51738 1.38436 0
M  V30 7253 H 714.194 0.696901 3.80368 0
M  V30 7254 H 715.883 1.10302 3.90626 0
M  V30 7255 H 716.649 3.52017 3.3363 0
M  V30 7256 H 712.528 2.43785 3.91267 0
M  V30 7257 H 716.072 5.88591 3.74442 0
M  V30 7258 H 711.969 4.79462 4.32188 0
M  V30 7259 H 712.737 6.86617 4.45533 0
M  V30 7260 N 715.4 -1.26948 0.933913 0
M  V30 7261 C 716.816 -1.46419 0.635103 0
M  V30 7262 C 717.016 -1.84336 -0.813785 0
M  V30 7263 O 716.072 -1.96061 -1.59111 0
M  V30 7264 C 717.385 -2.55206 1.5903 0
M  V30 7265 C 718.933 -2.69062 1.5992 0
M  V30 7266 C 719.408 -3.81013 2.54152 0
M  V30 7267 N 720.899 -3.88395 2.52395 0
M  V30 7268 C 721.634 -4.74454 3.21996 0
M  V30 7269 N 721.13 -5.64954 4.00997 0
M  V30 7270 N 722.923 -4.68237 3.10983 0
M  V30 7271 H 715.074 -1.00622 1.87053 0
M  V30 7272 H 717.337 -0.503189 0.803433 0
M  V30 7273 H 717.043 -2.34153 2.62422 0
M  V30 7274 H 716.917 -3.52719 1.33677 0
M  V30 7275 H 719.304 -2.89492 0.572569 0
M  V30 7276 H 719.385 -1.72016 1.89325 0
M  V30 7277 H 719.029 -3.61336 3.5693 0
M  V30 7278 H 718.959 -4.77499 2.22041 0
M  V30 7279 H 721.45 -3.23687 1.95025 0
M  V30 7280 H 721.763 -6.27496 4.51074 0
M  V30 7281 H 720.108 -5.6473 4.05099 0
M  V30 7282 H 723.299 -3.96535 2.48753 0
M  V30 7283 H 723.472 -5.35087 3.65494 0
M  V30 7284 N 716.879 -0.700114 -1.41195 0
M  V30 7285 C 718.29 -0.307249 -1.84154 0
M  V30 7286 C 718.641 1.15539 -1.58572 0
M  V30 7287 O 717.766 1.88744 -1.05852 0
M  V30 7288 C 718.361 -0.550872 -3.34292 0
M  V30 7289 C 716.92 -0.211877 -3.75803 0
M  V30 7290 C 716.067 -0.830915 -2.64558 0
M  V30 7291 H 719.018 -0.900431 -1.30683 0
M  V30 7292 H 719.039 0.188954 -3.80031 0
M  V30 7293 H 718.551 -1.61548 -3.5288 0
M  V30 7294 H 716.652 0.848283 -3.62815 0
M  V30 7295 H 716.765 -0.67007 -4.74391 0
M  V30 7296 H 715.129 -0.260155 -2.53368 0
M  V30 7297 H 715.912 -1.89948 -2.85963 0
M  V30 7298 N 718.357 1.51182 -0.445186 0
M  V30 7299 C 719.289 2.25714 0.398206 0
M  V30 7300 C 720.302 1.30032 0.979562 0
M  V30 7301 O 721.491 1.55731 0.872368 0
M  V30 7302 C 718.591 3.00348 1.56985 0
M  V30 7303 C 717.764 4.23187 1.10596 0
M  V30 7304 C 716.823 4.80334 2.14863 0
M  V30 7305 O 715.849 5.4196 1.73977 0
M  V30 7306 N 717.051 4.65053 3.47427 0
M  V30 7307 H 719.816 2.98732 -0.240629 0
M  V30 7308 H 717.377 1.59556 -0.274507 0
M  V30 7309 H 719.369 3.35464 2.26376 0
M  V30 7310 H 717.939 2.30291 2.11387 0
M  V30 7311 H 717.159 3.93476 0.238832 0
M  V30 7312 H 718.447 5.02886 0.773537 0
M  V30 7313 H 717.845 4.15984 3.83372 0
M  V30 7314 H 716.402 5.04509 4.12691 0
M  V30 7315 N 719.835 0.176821 1.56605 0
M  V30 7316 C 721.112 -0.513365 1.88743 0
M  V30 7317 C 721.492 -1.80929 1.08757 0
M  V30 7318 O 720.84 -2.27765 0.183127 0
M  V30 7319 C 721.05 -0.749925 3.40848 0
M  V30 7320 C 722.398 -1.07747 4.10701 0
M  V30 7321 O 723.422 -0.838277 3.46196 0
M  V30 7322 O 722.281 -1.52901 5.24675 0
M  V30 7323 H 719.375 -0.265296 0.783292 0
M  V30 7324 H 721.921 0.215669 1.68324 0
M  V30 7325 H 720.693 0.16599 3.90948 0
M  V30 7326 H 720.316 -1.53208 3.66897 0
M  V30 7327 N 721.313 -1.57302 -0.09688 0
M  V30 7328 C 722.538 -1.9058 -0.818169 0
M  V30 7329 C 722.963 -0.770921 -1.71576 0
M  V30 7330 O 722.321 0.277588 -1.79162 0
M  V30 7331 C 722.369 -3.22714 -1.60898 0
M  V30 7332 O 721.473 -3.10178 -2.71779 0
M  V30 7333 H 720.814 -0.624759 -0.224882 0
M  V30 7334 H 723.344 -2.04471 -0.07264 0
M  V30 7335 H 723.354 -3.55978 -1.99358 0
M  V30 7336 H 722.029 -4.04899 -0.950227 0
M  V30 7337 H 720.606 -2.88424 -2.3636 0
M  V30 7338 N 722.791 0.367657 -1.53252 0
M  V30 7339 C 724.019 1.13119 -1.73239 0
M  V30 7340 C 724.434 1.831 -0.460404 0
M  V30 7341 O 723.791 1.73483 0.566557 0
M  V30 7342 C 723.842 2.16308 -2.89643 0
M  V30 7343 O 723.563 1.49175 -4.1192 0
M  V30 7344 C 725.064 3.05224 -3.21486 0
M  V30 7345 H 722.284 0.338318 -0.579467 0
M  V30 7346 H 724.828 0.42721 -1.99988 0
M  V30 7347 H 722.983 2.82307 -2.65295 0
M  V30 7348 H 723.397 2.17912 -4.7709 0
M  V30 7349 H 724.871 3.73613 -4.06346 0
M  V30 7350 H 725.348 3.69919 -2.36763 0
M  V30 7351 H 725.954 2.44843 -3.47753 0
M  V30 7352 N 724.269 1.44576 0.627338 0
M  V30 7353 C 725.202 1.46206 1.75212 0
M  V30 7354 C 726.18 0.320483 1.5941 0
M  V30 7355 O 727.364 0.518028 1.81242 0
M  V30 7356 C 724.491 1.29834 3.12827 0
M  V30 7357 C 723.537 2.47603 3.47268 0
M  V30 7358 S 724.37 4.10125 3.44322 0
M  V30 7359 C 725.526 3.96183 4.84551 0
M  V30 7360 H 725.759 2.41378 1.73563 0
M  V30 7361 H 723.292 1.3192 0.802283 0
M  V30 7362 H 725.25 1.21075 3.92239 0
M  V30 7363 H 723.911 0.361662 3.12011 0
M  V30 7364 H 723.104 2.3202 4.47418 0
M  V30 7365 H 722.706 2.53121 2.75329 0
M  V30 7366 H 724.998 3.60107 5.73872 0
M  V30 7367 H 725.941 4.96176 5.05188 0
M  V30 7368 H 726.349 3.28177 4.59304 0
M  V30 7369 N 725.747 -0.868086 1.31537 0
M  V30 7370 C 727.024 -1.60384 1.11965 0
M  V30 7371 C 727.404 -2.08584 -0.324949 0
M  V30 7372 O 726.752 -1.86561 -1.31937 0
M  V30 7373 C 726.962 -2.76038 2.13551 0
M  V30 7374 C 728.31 -3.45954 2.46173 0
M  V30 7375 O 729.334 -2.86247 2.11993 0
M  V30 7376 O 728.193 -4.53666 3.04711 0
M  V30 7377 H 725.287 -0.705705 0.431172 0
M  V30 7378 H 727.833 -0.913385 1.43022 0
M  V30 7379 H 726.605 -2.37849 3.10714 0
M  V30 7380 H 726.228 -3.52769 1.83411 0
M  V30 7381 N 727.225 -1.14528 -1.08264 0
M  V30 7382 C 728.471 -0.925721 -1.81113 0
M  V30 7383 C 728.826 0.54185 -1.84612 0
M  V30 7384 O 728.119 1.39628 -1.31205 0
M  V30 7385 C 728.313 -1.46226 -3.26117 0
M  V30 7386 C 728.142 -2.98047 -3.36746 0
M  V30 7387 C 726.912 -3.66508 -3.4785 0
M  V30 7388 C 729.11 -3.95903 -3.28277 0
M  V30 7389 N 727.092 -5.06227 -3.47285 0
M  V30 7390 C 728.463 -5.21883 -3.34721 0
M  V30 7391 C 730.518 -3.88002 -3.12024 0
M  V30 7392 C 729.221 -6.40886 -3.26585 0
M  V30 7393 C 731.247 -5.06553 -3.05219 0
M  V30 7394 C 730.609 -6.31403 -3.12266 0
M  V30 7395 H 726.708 -0.392294 -0.676483 0
M  V30 7396 H 729.292 -1.45567 -1.293 0
M  V30 7397 H 727.463 -0.959076 -3.76373 0
M  V30 7398 H 729.195 -1.18247 -3.8704 0
M  V30 7399 H 725.95 -3.17067 -3.51804 0
M  V30 7400 H 726.374 -5.79172 -3.50555 0
M  V30 7401 H 731.016 -2.9235 -3.05436 0
M  V30 7402 H 728.734 -7.36781 -3.31934 0
M  V30 7403 H 732.32 -5.02191 -2.93761 0
M  V30 7404 H 731.2 -7.21596 -3.07032 0
M  V30 7405 N 728.703 1.26451 -0.940633 0
M  V30 7406 C 729.928 1.98407 -0.60412 0
M  V30 7407 C 730.353 1.69584 0.81382 0
M  V30 7408 O 729.711 0.943553 1.54812 0
M  V30 7409 C 729.759 3.50387 -0.852136 0
M  V30 7410 O 728.863 4.1233 0.076013 0
M  V30 7411 H 728.204 0.622466 -0.231153 0
M  V30 7412 H 730.734 1.60932 -1.26342 0
M  V30 7413 H 730.744 4.00614 -0.772816 0
M  V30 7414 H 729.419 3.70696 -1.88566 0
M  V30 7415 H 727.996 3.7286 -0.0543187 0
M  V30 7416 N 730.181 0.707592 1.40822 0
M  V30 7417 C 731.409 0.253073 2.05346 0
M  V30 7418 C 731.824 -1.10218 1.53289 0
M  V30 7419 O 731.181 -1.69112 0.686105 0
M  V30 7420 C 731.232 0.215411 3.60858 0
M  V30 7421 O 730.953 1.51714 4.10992 0
M  V30 7422 C 732.454 -0.258636 4.42545 0
M  V30 7423 H 729.674 0.115256 0.661027 0
M  V30 7424 H 732.218 0.963555 1.80377 0
M  V30 7425 H 730.373 -0.445978 3.84824 0
M  V30 7426 H 730.787 1.41226 5.05129 0
M  V30 7427 H 732.261 -0.233849 5.51504 0
M  V30 7428 H 732.738 -1.2995 4.19535 0
M  V30 7429 H 733.344 0.372186 4.23668 0
M  V30 7430 N 731.66 -1.50943 0.453197 0
M  V30 7431 C 732.909 -2.01402 -0.10951 0
M  V30 7432 C 733.222 -1.3411 -1.42386 0
M  V30 7433 O 734.428 -1.75626 -2.07045 0
M  V30 7434 C 732.884 -3.5906 -0.245693 0
M  V30 7435 C 732.492 -4.353 1.05916 0
M  V30 7436 C 734.236 -4.17617 -0.761318 0
M  V30 7437 C 732.143 -5.84699 0.887752 0
M  V30 7438 H 731.073 -0.752674 -0.0447013 0
M  V30 7439 H 733.724 -1.73913 0.585375 0
M  V30 7440 H 732.106 -3.83062 -1.00395 0
M  V30 7441 H 733.28 -4.23034 1.82698 0
M  V30 7442 H 731.595 -3.88269 1.50452 0
M  V30 7443 H 734.192 -5.26963 -0.906306 0
M  V30 7444 H 734.535 -3.77824 -1.74799 0
M  V30 7445 H 735.068 -3.97753 -0.0609416 0
M  V30 7446 H 731.807 -6.28933 1.84726 0
M  V30 7447 H 731.327 -5.99587 0.160006 0
M  V30 7448 H 733.006 -6.44682 0.547223 0
M  V30 7449 N 733.138 -0.185124 -1.56509 0
M  V30 7450 C 734.384 0.456934 -1.97585 0
M  V30 7451 C 734.717 1.61957 -1.07161 0
M  V30 7452 O 733.992 1.9412 -0.121546 0
M  V30 7453 C 734.275 0.926666 -3.47973 0
M  V30 7454 C 734.128 -0.237097 -4.49175 0
M  V30 7455 C 735.447 1.79561 -4.01803 0
M  V30 7456 H 732.566 0.164619 -0.71838 0
M  V30 7457 H 735.208 -0.274039 -1.88013 0
M  V30 7458 H 733.358 1.54954 -3.56261 0
M  V30 7459 H 735.03 -0.87454 -4.52934 0
M  V30 7460 H 733.273 -0.890446 -4.24563 0
M  V30 7461 H 733.944 0.133924 -5.51838 0
M  V30 7462 H 736.42 1.27039 -3.96232 0
M  V30 7463 H 735.296 2.09327 -5.07418 0
M  V30 7464 H 735.557 2.74629 -3.46455 0
M  V30 7465 N 734.616 1.57351 0.0885366 0
M  V30 7466 C 735.862 1.86696 0.791996 0
M  V30 7467 C 736.195 0.775148 1.78059 0
M  V30 7468 O 735.47 -0.216247 1.93294 0
M  V30 7469 C 735.753 3.26684 1.51491 0
M  V30 7470 C 735.606 4.465 0.543858 0
M  V30 7471 C 736.925 3.64664 2.46391 0
M  V30 7472 H 734.044 0.679049 0.286463 0
M  V30 7473 H 736.686 1.89919 0.0554866 0
M  V30 7474 H 734.836 3.24067 2.14273 0
M  V30 7475 H 736.508 4.61235 -0.0774597 0
M  V30 7476 H 734.751 4.33567 -0.142228 0
M  V30 7477 H 735.422 5.41192 1.08696 0
M  V30 7478 H 737.898 3.68267 1.93698 0
M  V30 7479 H 736.774 4.63534 2.93986 0
M  V30 7480 H 737.035 2.93698 3.30445 0
M  V30 7481 N 736.094 -0.359525 1.53444 0
M  V30 7482 C 737.371 -1.11756 1.6053 0
M  V30 7483 C 737.751 -2.06949 0.416587 0
M  V30 7484 O 737.099 -2.20681 -0.592628 0
M  V30 7485 C 737.309 -1.85133 2.95849 0
M  V30 7486 C 738.657 -2.3945 3.50641 0
M  V30 7487 O 739.681 -1.95251 2.97918 0
M  V30 7488 O 738.54 -3.20266 4.42823 0
M  V30 7489 H 735.634 -0.513005 0.648656 0
M  V30 7490 H 738.18 -0.362301 1.65787 0
M  V30 7491 H 736.952 -1.15694 3.73806 0
M  V30 7492 H 736.575 -2.67554 2.9411 0
M  V30 7493 N 737.572 -1.44907 -0.619662 0
M  V30 7494 C 738.983 -1.42905 -1.20146 0
M  V30 7495 C 739.334 -0.150341 -1.95623 0
M  V30 7496 O 738.459 0.748732 -2.03034 0
M  V30 7497 C 739.054 -2.58889 -2.18545 0
M  V30 7498 C 737.613 -2.60046 -2.72127 0
M  V30 7499 C 736.76 -2.3493 -1.4732 0
M  V30 7500 H 739.711 -1.53321 -0.409666 0
M  V30 7501 H 739.732 -2.32298 -3.0136 0
M  V30 7502 H 739.244 -3.51941 -1.63583 0
M  V30 7503 H 737.345 -1.70968 -3.3106 0
M  V30 7504 H 737.458 -3.58893 -3.17384 0
M  V30 7505 H 735.822 -1.84248 -1.75855 0
M  V30 7506 H 736.605 -3.3011 -0.942442 0
M  V30 7507 N 739.05 0.861098 -1.31996 0
M  V30 7508 C 740.275 1.65264 -1.2531 0
M  V30 7509 C 740.7 1.87265 0.177007 0
M  V30 7510 O 740.058 1.4208 1.12619 0
M  V30 7511 C 740.106 2.99284 -2.0115 0
M  V30 7512 O 739.21 3.89508 -1.3549 0
M  V30 7513 H 738.551 0.50409 -0.432192 0
M  V30 7514 H 741.081 1.07297 -1.74208 0
M  V30 7515 H 741.091 3.49154 -2.11081 0
M  V30 7516 H 739.766 2.82591 -3.05148 0
M  V30 7517 H 738.343 3.47966 -1.34066 0
M  V30 7518 N 740.528 1.15101 1.07655 0
M  V30 7519 C 741.438 0.858869 2.18313 0
M  V30 7520 C 742.454 -0.163641 1.73229 0
M  V30 7521 O 743.63 0.00969541 2.01398 0
M  V30 7522 C 740.695 0.34893 3.4494 0
M  V30 7523 C 739.756 1.43495 4.04608 0
M  V30 7524 C 738.989 0.949253 5.2519 0
M  V30 7525 O 739.212 -0.20636 5.70027 0
M  V30 7526 O 738.146 1.73161 5.76454 0
M  V30 7527 H 741.972 1.78386 2.45788 0
M  V30 7528 H 739.557 0.929876 1.16934 0
M  V30 7529 H 741.439 0.070851 4.2134 0
M  V30 7530 H 740.114 -0.548237 3.19024 0
M  V30 7531 H 739.021 1.7666 3.29761 0
M  V30 7532 H 740.354 2.30692 4.3479 0
M  V30 7533 N 742.006 -1.2595 0.947325 0
M  V30 7534 C 742.954 -2.28152 0.452687 0
M  V30 7535 C 743.948 -1.62655 -0.473239 0
M  V30 7536 O 745.154 -1.76549 -0.350774 0
M  V30 7537 H 741.529 -0.741049 0.12787 0
M  V30 7538 H 743.5 -2.67267 1.32707 0
M  V30 7539 C 742.249 -3.46719 -0.26098 0
M  V30 7540 H 741.572 -3.97345 0.442352 0
M  V30 7541 H 743.012 -4.20135 -0.571208 0
M  V30 7542 C 741.471 -3.02605 -1.48094 0
M  V30 7543 O 742.001 -3.07979 -2.57899 0
M  V30 7544 N 740.207 -2.57877 -1.33969 0
M  V30 7545 H 739.754 -2.53704 -0.446295 0
M  V30 7546 H 739.712 -2.28725 -2.15713 0
M  V30 7547 N 743.484 -0.715051 -1.40445 0
M  V30 7548 C 744.73 -0.254705 -2.01194 0
M  V30 7549 C 745.063 1.14894 -1.56567 0
M  V30 7550 O 744.338 1.77933 -0.785491 0
M  V30 7551 C 744.621 -0.334148 -3.58546 0
M  V30 7552 C 744.474 -1.77613 -4.13248 0
M  V30 7553 C 745.793 0.294968 -4.3911 0
M  V30 7554 H 742.912 -0.094025 -0.730978 0
M  V30 7555 H 745.554 -0.907449 -1.66929 0
M  V30 7556 H 743.704 0.221609 -3.87867 0
M  V30 7557 H 745.376 -2.38723 -3.94727 0
M  V30 7558 H 743.619 -2.30402 -3.67556 0
M  V30 7559 H 744.29 -1.78311 -5.22407 0
M  V30 7560 H 746.766 -0.178563 -4.15717 0
M  V30 7561 H 745.642 0.208934 -5.48502 0
M  V30 7562 H 745.903 1.37841 -4.20062 0
M  V30 7563 N 744.962 1.50701 -0.461195 0
M  V30 7564 C 746.19 2.06681 0.0951756 0
M  V30 7565 C 746.605 1.32615 1.34382 0
M  V30 7566 O 745.962 0.392531 1.78229 0
M  V30 7567 C 746.013 3.59354 0.393316 0
M  V30 7568 O 745.734 4.30626 -0.805797 0
M  V30 7569 C 747.235 4.31926 0.997744 0
M  V30 7570 H 744.455 0.670995 -0.00267259 0
M  V30 7571 H 746.999 1.93991 -0.647137 0
M  V30 7572 H 745.154 3.7188 1.08555 0
M  V30 7573 H 745.568 5.21667 -0.544409 0
M  V30 7574 H 747.042 5.39756 1.15619 0
M  V30 7575 H 747.519 3.91772 1.98523 0
M  V30 7576 H 748.125 4.23905 0.344188 0
M  V30 7577 N 746.441 0.193421 1.56409 0
M  V30 7578 C 747.371 -0.723334 2.22014 0
M  V30 7579 C 748.352 -1.22254 1.1827 0
M  V30 7580 O 749.537 -1.27168 1.46771 0
M  V30 7581 C 746.667 -1.94366 2.87818 0
M  V30 7582 C 745.621 -1.57943 3.97791 0
M  V30 7583 C 744.947 -2.87623 4.50752 0
M  V30 7584 C 746.247 -0.790639 5.16281 0
M  V30 7585 H 747.941 -0.176426 2.9888 0
M  V30 7586 H 745.487 -0.0834166 1.43758 0
M  V30 7587 H 747.44 -2.5902 3.32396 0
M  V30 7588 H 746.164 -2.51507 2.08355 0
M  V30 7589 H 744.823 -0.956482 3.53903 0
M  V30 7590 H 744.471 -3.4285 3.68053 0
M  V30 7591 H 744.171 -2.63998 5.24956 0
M  V30 7592 H 745.695 -3.53268 4.9803 0
M  V30 7593 H 747.109 -1.34024 5.57414 0
M  V30 7594 H 745.506 -0.65258 5.96541 0
M  V30 7595 H 746.576 0.208633 4.84451 0
M  V30 7596 N 747.919 -1.57396 -0.0801906 0
M  V30 7597 C 748.852 -1.98386 -1.12774 0
M  V30 7598 C 749.83 -0.859423 -1.38031 0
M  V30 7599 O 751.014 -1.12101 -1.51544 0
M  V30 7600 C 748.141 -2.3134 -2.47386 0
M  V30 7601 C 747.187 -3.53706 -2.38316 0
M  V30 7602 S 748.02 -5.04862 -1.78534 0
M  V30 7603 C 749.176 -5.41008 -3.1474 0
M  V30 7604 H 749.409 -2.86929 -0.778382 0
M  V30 7605 H 746.942 -1.51682 -0.28842 0
M  V30 7606 H 748.9 -2.51 -3.24822 0
M  V30 7607 H 747.561 -1.4334 -2.79486 0
M  V30 7608 H 746.754 -3.74253 -3.37566 0
M  V30 7609 H 746.356 -3.33632 -1.69014 0
M  V30 7610 H 748.648 -5.38565 -4.1104 0
M  V30 7611 H 749.591 -6.41885 -2.98981 0
M  V30 7612 H 749.999 -4.68467 -3.14958 0
M  V30 7613 N 749.397 0.351382 -1.53633 0
M  V30 7614 C 750.345 1.45142 -1.8176 0
M  V30 7615 C 751.339 1.54819 -0.687571 0
M  V30 7616 O 752.545 1.57536 -0.870772 0
M  V30 7617 H 748.92 0.483789 -0.575719 0
M  V30 7618 H 750.891 1.1863 -2.73806 0
M  V30 7619 C 749.64 2.81779 -2.03706 0
M  V30 7620 H 748.963 2.75097 -2.90107 0
M  V30 7621 H 750.403 3.5789 -2.27356 0
M  V30 7622 C 748.862 3.26762 -0.820271 0
M  V30 7623 O 749.392 4.01697 -0.0158603 0
M  V30 7624 N 747.598 2.83472 -0.639699 0
M  V30 7625 H 747.145 2.22655 -1.29547 0
M  V30 7626 H 747.103 3.13924 0.172995 0
M  V30 7627 N 750.875 1.45233 0.611969 0
M  V30 7628 C 751.805 1.5641 1.73373 0
M  V30 7629 C 752.786 0.415896 1.64937 0
M  V30 7630 O 753.971 0.638478 1.83404 0
M  V30 7631 C 751.101 1.52627 3.11965 0
M  V30 7632 C 750.055 2.66119 3.35208 0
M  V30 7633 C 749.381 2.4739 4.74028 0
M  V30 7634 C 750.681 4.08157 3.25891 0
M  V30 7635 H 752.375 2.50307 1.64277 0
M  V30 7636 H 749.921 1.20467 0.788904 0
M  V30 7637 H 751.874 1.59043 3.90235 0
M  V30 7638 H 750.598 0.552564 3.21892 0
M  V30 7639 H 749.257 2.59123 2.59327 0
M  V30 7640 H 748.905 1.48168 4.80682 0
M  V30 7641 H 748.605 3.23494 4.90536 0
M  V30 7642 H 750.129 2.55653 5.54503 0
M  V30 7643 H 751.543 4.1642 3.9404 0
M  V30 7644 H 749.94 4.84617 3.5393 0
M  V30 7645 H 751.01 4.30374 2.23397 0
M  V30 7646 N 752.353 -0.854086 1.3245 0
M  V30 7647 C 753.769 -1.14238 1.11453 0
M  V30 7648 C 753.969 -2.01228 -0.10461 0
M  V30 7649 O 753.025 -2.39845 -0.789339 0
M  V30 7650 C 754.338 -1.81916 2.39431 0
M  V30 7651 C 755.886 -1.94549 2.45193 0
M  V30 7652 C 756.361 -2.65642 3.73093 0
M  V30 7653 N 757.852 -2.73167 3.74078 0
M  V30 7654 C 758.587 -3.28828 4.69744 0
M  V30 7655 N 758.083 -3.85295 5.75778 0
M  V30 7656 N 759.876 -3.26936 4.57241 0
M  V30 7657 H 752.027 -0.274786 2.10615 0
M  V30 7658 H 754.29 -0.184375 0.929898 0
M  V30 7659 H 753.996 -1.25452 3.28565 0
M  V30 7660 H 753.87 -2.82068 2.50434 0
M  V30 7661 H 756.257 -2.50172 1.56518 0
M  V30 7662 H 756.338 -0.933914 2.38142 0
M  V30 7663 H 755.982 -2.10683 4.62142 0
M  V30 7664 H 755.912 -3.6724 3.77415 0
M  V30 7665 H 758.403 -2.33108 2.97438 0
M  V30 7666 H 758.716 -4.25925 6.44832 0
M  V30 7667 H 757.061 -3.83625 5.79531 0
M  V30 7668 H 760.252 -2.8207 3.7357 0
M  V30 7669 H 760.425 -3.70014 5.31971 0
M  V30 7670 N 753.831 -1.1567 -1.07043 0
M  V30 7671 C 755.242 -0.942408 -1.61169 0
M  V30 7672 C 755.593 0.515537 -1.89306 0
M  V30 7673 O 754.718 1.38726 -1.66084 0
M  V30 7674 C 755.313 -1.70431 -2.92812 0
M  V30 7675 C 753.872 -1.53521 -3.43669 0
M  V30 7676 C 753.019 -1.7179 -2.17678 0
M  V30 7677 H 755.97 -1.3065 -0.9009 0
M  V30 7678 H 755.991 -1.17566 -3.61882 0
M  V30 7679 H 755.503 -2.76538 -2.72302 0
M  V30 7680 H 753.604 -0.498224 -3.69254 0
M  V30 7681 H 753.717 -2.31422 -4.19501 0
M  V30 7682 H 752.081 -1.14468 -2.27529 0
M  V30 7683 H 752.864 -2.79269 -1.99659 0
M  V30 7684 N 755.309 1.25446 -0.953992 0
M  V30 7685 C 756.256 2.25912 -0.472485 0
M  V30 7686 C 757.226 1.59173 0.47469 0
M  V30 7687 O 758.411 1.86812 0.388082 0
M  V30 7688 C 755.551 3.44235 0.244218 0
M  V30 7689 C 754.664 4.25613 -0.740121 0
M  V30 7690 C 753.799 5.312 -0.000922267 0
M  V30 7691 C 752.838 6.04265 -0.976236 0
M  V30 7692 N 751.975 7.01589 -0.267952 0
M  V30 7693 H 756.815 2.66469 -1.3341 0
M  V30 7694 H 754.352 1.31005 -0.669045 0
M  V30 7695 H 756.31 4.11682 0.676314 0
M  V30 7696 H 754.94 3.04554 1.06988 0
M  V30 7697 H 753.992 3.57834 -1.2907 0
M  V30 7698 H 755.304 4.762 -1.48441 0
M  V30 7699 H 754.458 6.04719 0.48984 0
M  V30 7700 H 753.197 4.81484 0.776159 0
M  V30 7701 H 752.202 5.29561 -1.478 0
M  V30 7702 H 753.427 6.5607 -1.75354 0
M  V30 7703 H 751.373 6.54164 0.490403 0
M  V30 7704 H 751.29 7.4999 -0.951344 0
M  V30 7705 H 752.558 7.7924 0.201294 0
M  V30 7706 N 756.787 0.722489 1.40064 0
M  V30 7707 C 758.015 0.274838 2.05066 0
M  V30 7708 C 758.43 -1.08586 1.54449 0
M  V30 7709 O 757.787 -1.68375 0.704003 0
M  V30 7710 C 757.838 0.253673 3.60609 0
M  V30 7711 O 757.559 1.56064 4.0936 0
M  V30 7712 C 759.06 -0.211684 4.42794 0
M  V30 7713 H 756.28 0.12226 0.659768 0
M  V30 7714 H 758.824 0.982632 1.79345 0
M  V30 7715 H 756.979 -0.405137 3.85276 0
M  V30 7716 H 757.393 1.46576 5.03603 0
M  V30 7717 H 758.867 -0.175341 5.51721 0
M  V30 7718 H 759.344 -1.25493 4.2089 0
M  V30 7719 H 759.95 0.4171 4.2325 0
M  V30 7720 N 758.265 -1.50454 0.469181 0
M  V30 7721 C 759.513 -2.01916 -0.0862982 0
M  V30 7722 C 759.834 -1.35337 -1.40388 0
M  V30 7723 O 759.104 -0.498096 -1.89462 0
M  V30 7724 H 757.684 -0.746185 -0.0348825 0
M  V30 7725 H 760.346 -1.84804 0.619167 0
M  V30 7726 H 759.442 -3.11182 -0.239189 0
M  V30 7727 N 759.743 -0.201713 -1.56304 0
M  V30 7728 C 760.973 0.440084 -2.01858 0
M  V30 7729 C 761.381 1.55279 -1.08098 0
M  V30 7730 O 760.724 1.83529 -0.0792216 0
M  V30 7731 C 760.786 1.05091 -3.43797 0
M  V30 7732 C 760.45 0.0761208 -4.56937 0
M  V30 7733 C 761.447 -0.716951 -5.14933 0
M  V30 7734 C 759.132 -0.0368815 -5.02286 0
M  V30 7735 C 761.126 -1.60993 -6.16733 0
M  V30 7736 C 758.813 -0.933409 -6.03929 0
M  V30 7737 C 759.811 -1.71849 -6.61027 0
M  V30 7738 O 759.499 -2.59998 -7.60695 0
M  V30 7739 H 759.231 0.114139 -0.666294 0
M  V30 7740 H 761.785 -0.309672 -2.03052 0
M  V30 7741 H 760.015 1.84938 -3.3961 0
M  V30 7742 H 761.704 1.59804 -3.73118 0
M  V30 7743 H 762.47 -0.63999 -4.80759 0
M  V30 7744 H 758.349 0.564034 -4.57537 0
M  V30 7745 H 761.893 -2.22315 -6.61227 0
M  V30 7746 H 757.79 -1.01146 -6.37526 0
M  V30 7747 H 758.558 -2.53851 -7.7814 0
M  V30 7748 N 761.222 1.57436 0.0718424 0
M  V30 7749 C 762.447 1.91858 0.787745 0
M  V30 7750 C 762.872 0.798119 1.70328 0
M  V30 7751 O 762.23 -0.24905 1.79581 0
M  V30 7752 C 762.278 3.25232 1.55744 0
M  V30 7753 O 761.382 3.14462 2.6681 0
M  V30 7754 H 760.723 0.628258 0.214914 0
M  V30 7755 H 763.253 2.04561 0.0401012 0
M  V30 7756 H 763.263 3.59105 1.9367 0
M  V30 7757 H 761.938 4.0636 0.885691 0
M  V30 7758 H 760.515 2.92148 2.31741 0
M  V30 7759 N 762.7 -0.34323 1.53817 0
M  V30 7760 C 763.946 -1.08504 1.71332 0
M  V30 7761 C 764.279 -1.88294 0.475285 0
M  V30 7762 O 763.554 -1.87205 -0.527688 0
M  V30 7763 C 763.837 -2.02597 2.97702 0
M  V30 7764 C 763.69 -1.26268 4.31713 0
M  V30 7765 C 765.009 -3.0241 3.19744 0
M  V30 7766 H 762.128 -0.393072 0.623429 0
M  V30 7767 H 764.77 -0.363579 1.86489 0
M  V30 7768 H 762.92 -2.64118 2.8491 0
M  V30 7769 H 764.592 -0.673594 4.56356 0
M  V30 7770 H 762.835 -0.564696 4.30109 0
M  V30 7771 H 763.506 -1.95253 5.16314 0
M  V30 7772 H 765.982 -2.51004 3.31868 0
M  V30 7773 H 764.858 -3.65449 4.09558 0
M  V30 7774 H 765.119 -3.73806 2.36054 0
M  V30 7775 N 764.178 -1.45556 -0.604258 0
M  V30 7776 C 765.594 -1.30035 -0.925368 0
M  V30 7777 C 765.794 -0.255833 -1.99869 0
M  V30 7778 O 764.85 0.349076 -2.50075 0
M  V30 7779 C 766.163 -2.68028 -1.36314 0
M  V30 7780 C 767.711 -2.75951 -1.47717 0
M  V30 7781 C 768.186 -4.14476 -1.94868 0
M  V30 7782 N 769.677 -4.16787 -2.02097 0
M  V30 7783 C 770.412 -5.20845 -2.39809 0
M  V30 7784 N 769.908 -6.35246 -2.76467 0
M  V30 7785 N 771.701 -5.08204 -2.40177 0
M  V30 7786 H 763.852 -2.1214 0.10512 0
M  V30 7787 H 766.115 -0.947871 -0.0156303 0
M  V30 7788 H 765.821 -3.45667 -0.648628 0
M  V30 7789 H 765.695 -2.96711 -2.329 0
M  V30 7790 H 768.082 -1.98613 -2.18258 0
M  V30 7791 H 768.163 -2.50977 -0.494371 0
M  V30 7792 H 767.807 -4.923 -1.24912 0
M  V30 7793 H 767.737 -4.36843 -2.94068 0
M  V30 7794 H 770.228 -3.34233 -1.76343 0
M  V30 7795 H 770.541 -7.10438 -3.04134 0
M  V30 7796 H 768.886 -6.38642 -2.74155 0
M  V30 7797 H 772.077 -4.17874 -2.10947 0
M  V30 7798 H 772.25 -5.89417 -2.69242 0
M  V30 7799 N 765.656 0.84705 -1.32902 0
M  V30 7800 C 766.902 1.60414 -1.24078 0
M  V30 7801 C 767.235 1.93217 0.195105 0
M  V30 7802 O 766.51 1.58001 1.13428 0
M  V30 7803 C 766.793 2.91951 -2.108 0
M  V30 7804 C 766.646 2.6588 -3.62805 0
M  V30 7805 C 767.965 3.93299 -1.97494 0
M  V30 7806 H 765.084 0.58206 -0.452079 0
M  V30 7807 H 767.726 0.977562 -1.62922 0
M  V30 7808 H 765.876 3.45425 -1.77802 0
M  V30 7809 H 767.548 2.18902 -4.06054 0
M  V30 7810 H 765.791 1.99716 -3.85092 0
M  V30 7811 H 766.462 3.59574 -4.1882 0
M  V30 7812 H 768.938 3.49105 -2.26417 0
M  V30 7813 H 767.814 4.8318 -2.60438 0
M  V30 7814 H 768.075 4.31887 -0.944782 0
M  V30 7815 N 767.134 1.16236 1.06428 0
M  V30 7816 C 768.066 0.825446 2.1382 0
M  V30 7817 C 769.079 -0.166707 1.61944 0
M  V30 7818 O 770.268 0.0578606 1.78406 0
M  V30 7819 C 767.368 0.208023 3.38261 0
M  V30 7820 C 766.541 1.23994 4.19457 0
M  V30 7821 C 765.6 0.642569 5.22262 0
M  V30 7822 O 764.626 1.31106 5.53895 0
M  V30 7823 N 765.828 -0.571327 5.77682 0
M  V30 7824 H 768.593 1.7497 2.43322 0
M  V30 7825 H 766.154 1.05951 1.22417 0
M  V30 7826 H 768.146 -0.204608 4.04182 0
M  V30 7827 H 766.716 -0.619752 3.06395 0
M  V30 7828 H 765.936 1.82879 3.49212 0
M  V30 7829 H 767.224 1.93638 4.70512 0
M  V30 7830 H 766.622 -1.13263 5.54245 0
M  V30 7831 H 765.179 -0.926187 6.45186 0
M  V30 7832 N 768.612 -1.24939 0.960631 0
M  V30 7833 C 769.542 -2.28 0.503815 0
M  V30 7834 C 770.523 -1.63959 -0.452928 0
M  V30 7835 O 771.708 -1.91009 -0.350585 0
M  V30 7836 C 768.838 -3.46643 -0.213535 0
M  V30 7837 C 767.792 -4.22903 0.658535 0
M  V30 7838 C 767.118 -5.34363 -0.189902 0
M  V30 7839 C 768.418 -4.84949 1.93963 0
M  V30 7840 H 770.112 -2.66462 1.36521 0
M  V30 7841 H 767.658 -1.28093 0.657897 0
M  V30 7842 H 769.611 -4.1787 -0.544286 0
M  V30 7843 H 768.335 -3.07187 -1.10923 0
M  V30 7844 H 766.994 -3.53467 0.972455 0
M  V30 7845 H 766.642 -4.91147 -1.08553 0
M  V30 7846 H 766.342 -5.86302 0.390331 0
M  V30 7847 H 767.866 -6.0842 -0.515484 0
M  V30 7848 H 769.28 -5.48288 1.67491 0
M  V30 7849 H 767.677 -5.47091 2.46601 0
M  V30 7850 H 768.747 -4.06799 2.639 0
M  V30 7851 N 770.09 -0.729906 -1.39679 0
M  V30 7852 C 771.315 -0.284345 -2.05442 0
M  V30 7853 C 771.74 1.07056 -1.54663 0
M  V30 7854 O 771.098 1.67732 -0.688157 0
M  V30 7855 C 771.146 -0.290089 -3.59431 0
M  V30 7856 O 770.25 0.723978 -4.05995 0
M  V30 7857 H 769.591 -0.130311 -0.651088 0
M  V30 7858 H 772.121 -0.994403 -1.78809 0
M  V30 7859 H 772.131 -0.132712 -4.07784 0
M  V30 7860 H 770.806 -1.27877 -3.95753 0
M  V30 7861 H 769.383 0.533154 -3.69069 0
M  V30 7862 N 771.568 1.50203 -0.477153 0
M  V30 7863 C 772.984 1.59056 -0.131663 0
M  V30 7864 C 773.184 1.48473 1.36227 0
M  V30 7865 O 772.24 1.34635 2.13611 0
M  V30 7866 C 773.553 2.92741 -0.687254 0
M  V30 7867 C 775.101 3.0615 -0.651223 0
M  V30 7868 C 775.576 4.42419 -1.18446 0
M  V30 7869 N 777.067 4.48847 -1.14413 0
M  V30 7870 C 777.802 5.52689 -1.52717 0
M  V30 7871 N 777.298 6.63754 -1.98499 0
M  V30 7872 N 779.091 5.43267 -1.44282 0
M  V30 7873 H 771.242 1.55325 -1.44872 0
M  V30 7874 H 773.505 0.734395 -0.599473 0
M  V30 7875 H 773.211 3.0598 -1.73405 0
M  V30 7876 H 773.085 3.76961 -0.134215 0
M  V30 7877 H 775.472 2.92556 0.386677 0
M  V30 7878 H 775.553 2.23673 -1.24114 0
M  V30 7879 H 775.197 4.56763 -2.22103 0
M  V30 7880 H 775.127 5.23498 -0.570709 0
M  V30 7881 H 777.618 3.69152 -0.808416 0
M  V30 7882 H 777.931 7.39059 -2.25859 0
M  V30 7883 H 776.276 6.64858 -2.02456 0
M  V30 7884 H 779.467 4.55387 -1.08352 0
M  V30 7885 H 779.64 6.24074 -1.74459 0
M  V30 7886 N 773.046 0.209999 1.56195 0
M  V30 7887 C 774.457 -0.299943 1.84275 0
M  V30 7888 C 774.808 -1.60314 1.1311 0
M  V30 7889 O 773.933 -2.1273 0.396874 0
M  V30 7890 C 774.528 -0.550986 3.3429 0
M  V30 7891 C 773.087 -1.00526 3.62728 0
M  V30 7892 C 772.234 -0.0619828 2.77231 0
M  V30 7893 H 775.185 0.433458 1.52666 0
M  V30 7894 H 775.206 -1.39846 3.53869 0
M  V30 7895 H 774.718 0.397669 3.86057 0
M  V30 7896 H 772.819 -1.96768 3.16407 0
M  V30 7897 H 772.932 -0.887664 4.70805 0
M  V30 7898 H 771.296 -0.566648 2.48317 0
M  V30 7899 H 772.079 0.881383 3.31793 0
M  V30 7900 N 774.524 -1.57472 -0.0634922 0
M  V30 7901 C 775.772 -1.87283 -0.759563 0
M  V30 7902 C 776.093 -0.803135 -1.77693 0
M  V30 7903 O 775.363 0.167293 -1.95184 0
M  V30 7904 H 773.943 -0.691106 -0.283516 0
M  V30 7905 H 776.605 -1.94864 -0.0376091 0
M  V30 7906 H 775.701 -2.85064 -1.27062 0
M  V30 7907 N 776.003 0.335068 -1.53997 0
M  V30 7908 C 776.913 1.43511 -1.85585 0
M  V30 7909 C 777.929 1.57162 -0.746726 0
M  V30 7910 O 779.105 1.72477 -1.03988 0
M  V30 7911 C 776.17 2.78386 -2.06646 0
M  V30 7912 C 775.231 2.74007 -3.30483 0
M  V30 7913 C 774.464 4.02449 -3.50529 0
M  V30 7914 O 774.687 5.00147 -2.74242 0
M  V30 7915 O 773.621 4.06405 -4.4398 0
M  V30 7916 H 777.447 1.19731 -2.79102 0
M  V30 7917 H 775.032 0.528033 -1.39758 0
M  V30 7918 H 776.914 3.58247 -2.21894 0
M  V30 7919 H 775.589 3.0208 -1.16317 0
M  V30 7920 H 774.496 1.92736 -3.2063 0
M  V30 7921 H 775.829 2.55267 -4.20832 0
M  V30 7922 N 777.481 1.45874 0.596531 0
M  V30 7923 C 778.729 1.5017 1.35253 0
M  V30 7924 C 779.05 0.149246 1.94428 0
M  V30 7925 O 778.32 -0.82268 1.77789 0
M  V30 7926 H 776.9 0.553052 0.502138 0
M  V30 7927 H 779.562 1.81908 0.699671 0
M  V30 7928 H 778.658 2.24671 2.16632 0
M  V30 7929 N 778.959 -0.83999 1.33349 0
M  V30 7930 C 780.207 -1.59202 1.24496 0
M  V30 7931 C 780.528 -1.94077 -0.189499 0
M  V30 7932 O 779.798 -1.60868 -1.11796 0
M  V30 7933 H 778.378 -0.590276 0.457802 0
M  V30 7934 H 781.04 -1.00394 1.67054 0
M  V30 7935 H 780.136 -2.52247 1.83788 0
M  V30 7936 N 780.437 -1.16799 -1.0581 0
M  V30 7937 C 781.347 -0.893492 -2.16919 0
M  V30 7938 C 782.363 0.136061 -1.73467 0
M  V30 7939 O 783.539 -0.0417348 -2.01357 0
M  V30 7940 C 780.604 -0.403763 -3.44341 0
M  V30 7941 C 779.665 -1.49914 -4.02274 0
M  V30 7942 C 778.898 -1.03269 -5.23614 0
M  V30 7943 O 779.121 0.115647 -5.70283 0
M  V30 7944 O 778.055 -1.8231 -5.73626 0
M  V30 7945 H 781.881 -1.82274 -2.42919 0
M  V30 7946 H 779.466 -0.948361 -1.1544 0
M  V30 7947 H 781.348 -0.137874 -4.21174 0
M  V30 7948 H 780.023 0.497413 -3.19855 0
M  V30 7949 H 778.93 -1.81883 -3.26909 0
M  V30 7950 H 780.263 -2.3758 -4.31064 0
M  V30 7951 N 781.915 1.24427 -0.967243 0
M  V30 7952 C 783.163 1.92107 -0.627638 0
M  V30 7953 C 783.484 1.75991 0.83978 0
M  V30 7954 O 782.754 1.13118 1.59941 0
M  V30 7955 H 781.334 0.710986 -0.229145 0
M  V30 7956 H 783.996 1.51331 -1.22821 0
M  V30 7957 H 783.092 2.99791 -0.867844 0
M  V30 7958 N 783.393 0.737304 1.3929 0
M  V30 7959 C 784.356 0.10731 2.28949 0
M  V30 7960 C 785.356 -0.664716 1.46418 0
M  V30 7961 O 786.546 -0.493392 1.67067 0
M  V30 7962 C 783.678 -0.857145 3.29948 0
M  V30 7963 H 784.871 0.89725 2.86163 0
M  V30 7964 H 782.424 0.503279 1.47976 0
M  V30 7965 H 783.159 -1.67336 2.77794 0
M  V30 7966 H 782.944 -0.306167 3.90903 0
M  V30 7967 H 784.434 -1.29444 3.97031 0
M  V30 7968 N 784.871 -1.49948 0.485112 0
M  V30 7969 C 786.117 -2.0332 -0.0571625 0
M  V30 7970 C 786.472 -1.35951 -1.36144 0
M  V30 7971 O 785.765 -0.480871 -1.85467 0
M  V30 7972 C 785.959 -3.56282 -0.282434 0
M  V30 7973 C 785.788 -4.38476 0.998455 0
M  V30 7974 C 784.558 -4.81076 1.54576 0
M  V30 7975 C 786.756 -4.78013 1.89758 0
M  V30 7976 N 784.738 -5.47641 2.77421 0
M  V30 7977 C 786.109 -5.44133 2.97186 0
M  V30 7978 C 788.164 -4.59963 1.90627 0
M  V30 7979 C 786.867 -5.94113 4.0549 0
M  V30 7980 C 788.893 -5.10893 2.97897 0
M  V30 7981 C 788.255 -5.77 4.04043 0
M  V30 7982 H 784.354 -0.781758 0.0194642 0
M  V30 7983 H 786.938 -1.833 0.65644 0
M  V30 7984 H 785.109 -3.76219 -0.965083 0
M  V30 7985 H 786.841 -3.96299 -0.820298 0
M  V30 7986 H 783.596 -4.60814 1.09304 0
M  V30 7987 H 784.02 -5.85521 3.39844 0
M  V30 7988 H 788.662 -4.08274 1.09875 0
M  V30 7989 H 786.38 -6.44832 4.8705 0
M  V30 7990 H 789.966 -4.98748 2.9957 0
M  V30 7991 H 788.846 -6.15698 4.85681 0
M  V30 7992 N 786.349 -0.21828 -1.56081 0
M  V30 7993 C 787.597 0.413488 -1.97825 0
M  V30 7994 C 787.918 1.60527 -1.10707 0
M  V30 7995 O 787.188 1.9504 -0.183378 0
M  V30 7996 H 785.768 0.155757 -0.730581 0
M  V30 7997 H 788.43 -0.310413 -1.92412 0
M  V30 7998 H 787.526 0.742024 -3.03151 0
M  V30 7999 N 787.827 1.57504 0.0551401 0
M  V30 8000 C 789.238 1.76626 0.604979 0
M  V30 8001 C 789.589 0.845978 1.77024 0
M  V30 8002 O 788.714 0.0341936 2.16373 0
M  V30 8003 C 789.309 3.203 1.10425 0
M  V30 8004 C 787.868 3.4071 1.59981 0
M  V30 8005 C 787.015 2.72258 0.526414 0
M  V30 8006 H 789.966 1.57775 -0.171072 0
M  V30 8007 H 789.987 3.25377 1.97256 0
M  V30 8008 H 789.499 3.87255 0.255939 0
M  V30 8009 H 787.6 2.78892 2.47083 0
M  V30 8010 H 787.713 4.49227 1.66528 0
M  V30 8011 H 786.077 2.35283 0.97539 0
M  V30 8012 H 786.86 3.41879 -0.311991 0
M  V30 8013 N 789.305 -0.326896 1.54172 0
M  V30 8014 C 790.716 -0.901533 1.63491 0
M  V30 8015 C 791.067 -1.88994 0.52684 0
M  V30 8016 O 790.192 -2.137 -0.340794 0
M  V30 8017 C 790.787 -1.64192 2.96355 0
M  V30 8018 C 789.346 -2.16533 3.07881 0
M  V30 8019 C 788.493 -0.98966 2.59039 0
M  V30 8020 H 791.444 -0.104568 1.58355 0
M  V30 8021 H 791.465 -2.50592 2.86328 0
M  V30 8022 H 790.977 -0.922291 3.76982 0
M  V30 8023 H 789.078 -2.91622 2.31922 0
M  V30 8024 H 789.191 -2.41762 4.13628 0
M  V30 8025 H 787.555 -1.36787 2.14852 0
M  V30 8026 H 788.338 -0.284401 3.4212 0
M  V30 8027 N 790.784 -1.46188 -0.588786 0
M  V30 8028 C 792.012 -1.54743 -1.37339 0
M  V30 8029 C 792.427 -0.186446 -1.87877 0
M  V30 8030 O 791.784 0.815247 -1.63279 0
M  V30 8031 C 791.835 -2.54727 -2.56508 0
M  V30 8032 O 791.556 -3.85539 -2.08066 0
M  V30 8033 C 793.057 -2.73163 -3.49137 0
M  V30 8034 H 790.277 -0.523484 -0.419768 0
M  V30 8035 H 792.821 -1.91543 -0.716345 0
M  V30 8036 H 790.976 -2.20948 -3.18215 0
M  V30 8037 H 791.39 -4.39905 -2.85629 0
M  V30 8038 H 792.864 -3.47057 -4.2925 0
M  V30 8039 H 793.341 -1.79856 -4.00685 0
M  V30 8040 H 793.947 -3.08014 -2.9327 0
M  V30 8041 N 792.262 0.832906 -1.33792 0
M  V30 8042 C 793.192 1.95828 -1.27176 0
M  V30 8043 C 794.173 1.69427 -0.15114 0
M  V30 8044 O 795.358 1.91167 -0.341886 0
M  V30 8045 C 792.488 3.32098 -1.01629 0
M  V30 8046 C 791.442 3.72912 -2.10049 0
M  V30 8047 C 790.768 5.07054 -1.69706 0
M  V30 8048 C 792.068 3.86064 -3.51783 0
M  V30 8049 H 793.762 2.01622 -2.21334 0
M  V30 8050 H 791.308 0.96866 -1.0655 0
M  V30 8051 H 793.261 4.10402 -0.956474 0
M  V30 8052 H 791.985 3.26577 -0.0390956 0
M  V30 8053 H 790.644 2.96876 -2.15082 0
M  V30 8054 H 790.292 4.9801 -0.706737 0
M  V30 8055 H 789.992 5.35333 -2.42264 0
M  V30 8056 H 791.516 5.87827 -1.65202 0
M  V30 8057 H 792.93 4.54665 -3.49218 0
M  V30 8058 H 791.327 4.25787 -4.22878 0
M  V30 8059 H 792.397 2.88344 -3.89854 0
M  V30 8060 N 793.74 1.17359 1.05189 0
M  V30 8061 C 794.673 0.833768 2.12423 0
M  V30 8062 C 795.651 -0.19945 1.61372 0
M  V30 8063 O 796.835 -0.080979 1.88326 0
M  V30 8064 C 793.962 0.243745 3.37822 0
M  V30 8065 C 793.008 1.25235 4.07699 0
M  V30 8066 S 793.841 2.80368 4.56239 0
M  V30 8067 C 794.997 2.22846 5.84885 0
M  V30 8068 H 795.23 1.74197 2.40921 0
M  V30 8069 H 792.763 0.998242 1.1779 0
M  V30 8070 H 794.721 -0.0901915 4.10401 0
M  V30 8071 H 793.382 -0.642396 3.07461 0
M  V30 8072 H 792.575 0.788168 4.97799 0
M  V30 8073 H 792.177 1.53194 3.41185 0
M  V30 8074 H 794.469 1.60403 6.58238 0
M  V30 8075 H 795.412 3.112 6.3605 0
M  V30 8076 H 795.82 1.66296 5.39449 0
M  V30 8077 N 795.218 -1.23913 0.973828 0
M  V30 8078 C 796.446 -1.96195 0.656891 0
M  V30 8079 C 796.861 -1.72166 -0.774876 0
M  V30 8080 O 796.218 -1.0091 -1.52064 0
M  V30 8081 C 796.269 -3.49342 0.929638 0
M  V30 8082 O 795.99 -3.72553 2.30512 0
M  V30 8083 C 797.491 -4.38833 0.627739 0
M  V30 8084 H 794.711 -0.624841 0.244572 0
M  V30 8085 H 797.255 -1.57579 1.30343 0
M  V30 8086 H 795.41 -3.85999 0.329216 0
M  V30 8087 H 795.824 -4.66893 2.3898 0
M  V30 8088 H 797.298 -5.45117 0.868991 0
M  V30 8089 H 797.775 -4.37009 -0.438104 0
M  V30 8090 H 798.381 -4.07773 1.20834 0
M  V30 8091 N 796.696 -0.74468 -1.38897 0
M  V30 8092 C 797.924 -0.307428 -2.04603 0
M  V30 8093 C 798.339 1.06115 -1.56157 0
M  V30 8094 O 797.696 1.67233 -0.730701 0
M  V30 8095 C 797.747 -0.31101 -3.6016 0
M  V30 8096 O 797.468 -1.62557 -4.06825 0
M  V30 8097 C 798.969 0.141213 -4.43075 0
M  V30 8098 H 796.189 -0.132741 -0.657739 0
M  V30 8099 H 798.733 -1.01104 -1.77759 0
M  V30 8100 H 796.888 0.343792 -3.85872 0
M  V30 8101 H 797.302 -1.54569 -5.01207 0
M  V30 8102 H 798.776 0.0875449 -5.51931 0
M  V30 8103 H 799.253 1.18782 -4.22833 0
M  V30 8104 H 799.859 -0.484383 -4.22533 0
M  V30 8105 N 798.174 1.49689 -0.493057 0
M  V30 8106 C 799.451 1.9525 0.116907 0
M  V30 8107 C 799.831 1.43429 1.54892 0
M  V30 8108 O 799.179 0.644621 2.19219 0
M  V30 8109 C 799.389 3.4898 0.037705 0
M  V30 8110 C 800.737 4.24052 0.215621 0
M  V30 8111 O 801.761 3.5602 0.113266 0
M  V30 8112 O 800.62 5.44847 0.42477 0
M  V30 8113 H 797.714 0.820973 0.099662 0
M  V30 8114 H 800.26 1.60367 -0.555029 0
M  V30 8115 H 799.032 3.79309 -0.961251 0
M  V30 8116 H 798.655 3.9046 0.750137 0
M  V30 8117 N 799.652 0.226554 1.55963 0
M  V30 8118 C 800.892 -0.405574 2.00336 0
M  V30 8119 C 801.256 -1.56593 1.11097 0
M  V30 8120 O 802.457 -2.26441 1.44838 0
M  V30 8121 C 800.728 -0.82435 3.47763 0
M  V30 8122 S 802.287 -1.44988 4.14154 0
M  V30 8123 H 799.105 -0.128512 0.699289 0
M  V30 8124 H 801.707 0.337017 1.92573 0
M  V30 8125 H 800.411 0.0297636 4.10389 0
M  V30 8126 H 799.942 -1.59963 3.5941 0
M  V30 8127 H 801.957 -2.73897 4.13757 0
M  V30 8128 N 801.13 -1.57531 -0.0467866 0
M  V30 8129 C 802.541 -1.76945 -0.595603 0
M  V30 8130 C 802.892 -0.855354 -1.76573 0
M  V30 8131 O 802.017 -0.045668 -2.16352 0
M  V30 8132 C 802.612 -3.20881 -1.08725 0
M  V30 8133 C 801.171 -3.41553 -1.58172 0
M  V30 8134 C 800.318 -2.72533 -0.511968 0
M  V30 8135 H 803.269 -1.57682 0.179436 0
M  V30 8136 H 803.29 -3.26419 -1.95528 0
M  V30 8137 H 802.802 -3.87385 -0.235398 0
M  V30 8138 H 800.903 -2.80199 -2.456 0
M  V30 8139 H 801.016 -4.50104 -1.64143 0
M  V30 8140 H 799.38 -2.35797 -0.962899 0
M  V30 8141 H 800.163 -3.41709 0.330117 0
M  V30 8142 N 802.608 0.318715 -1.54344 0
M  V30 8143 C 803.518 1.41535 -1.87097 0
M  V30 8144 C 804.534 1.56361 -0.763353 0
M  V30 8145 O 805.71 1.71365 -1.05811 0
M  V30 8146 C 802.775 2.76178 -2.09587 0
M  V30 8147 C 801.836 2.70486 -3.3337 0
M  V30 8148 C 801.069 3.98708 -3.54778 0
M  V30 8149 O 801.292 4.9721 -2.79532 0
M  V30 8150 O 800.226 4.01674 -4.48266 0
M  V30 8151 H 804.052 1.16764 -2.80357 0
M  V30 8152 H 801.637 0.51318 -1.4031 0
M  V30 8153 H 803.519 3.55873 -2.25682 0
M  V30 8154 H 802.194 3.00829 -1.19514 0
M  V30 8155 H 801.101 1.89325 -3.22656 0
M  V30 8156 H 802.434 2.50789 -4.23516 0
M  V30 8157 N 804.086 1.46499 0.581025 0
M  V30 8158 C 805.497 1.4604 1.16315 0
M  V30 8159 C 805.848 0.202154 1.95156 0
M  V30 8160 O 804.973 -0.694638 2.04948 0
M  V30 8161 C 805.568 2.64593 2.11604 0
M  V30 8162 C 804.127 2.6717 2.65136 0
M  V30 8163 C 803.274 2.38753 1.4104 0
M  V30 8164 H 806.225 1.54354 0.368871 0
M  V30 8165 H 806.246 2.40207 2.95095 0
M  V30 8166 H 805.758 3.56154 1.54194 0
M  V30 8167 H 803.859 1.79685 3.26411 0
M  V30 8168 H 803.972 3.67182 3.07757 0
M  V30 8169 H 802.336 1.88845 1.70908 0
M  V30 8170 H 803.119 3.32493 0.854588 0
M  V30 8171 N 805.565 -0.825799 1.34232 0
M  V30 8172 C 806.495 -1.95151 1.28212 0
M  V30 8173 C 807.476 -1.69345 0.160123 0
M  V30 8174 O 808.661 -1.90983 0.352019 0
M  V30 8175 C 805.791 -3.31554 1.03388 0
M  V30 8176 C 804.745 -3.71793 2.12023 0
M  V30 8177 C 804.071 -5.06147 1.72392 0
M  V30 8178 C 805.371 -3.84193 3.53826 0
M  V30 8179 H 807.065 -2.00445 2.22401 0
M  V30 8180 H 804.611 -0.962996 1.07063 0
M  V30 8181 H 806.564 -4.09889 0.978225 0
M  V30 8182 H 805.288 -3.26551 0.0564142 0
M  V30 8183 H 803.947 -2.95731 2.16654 0
M  V30 8184 H 803.595 -4.97628 0.733137 0
M  V30 8185 H 803.295 -5.34041 2.451 0
M  V30 8186 H 804.819 -5.86943 1.68317 0
M  V30 8187 H 806.233 -4.52806 3.51624 0
M  V30 8188 H 804.63 -4.23538 4.2513 0
M  V30 8189 H 805.7 -2.86272 3.91377 0
M  V30 8190 N 807.043 -1.17915 -1.04565 0
M  V30 8191 C 807.973 -0.925033 -2.14395 0
M  V30 8192 C 808.954 0.135375 -1.6956 0
M  V30 8193 O 810.139 -0.0161774 -1.94193 0
M  V30 8194 C 807.269 -0.444469 -3.44444 0
M  V30 8195 C 806.223 -1.44478 -4.02877 0
M  V30 8196 C 805.549 -0.821933 -5.28345 0
M  V30 8197 C 806.849 -2.81995 -4.39632 0
M  V30 8198 H 808.543 -1.84354 -2.35911 0
M  V30 8199 H 806.089 -0.887806 -1.13375 0
M  V30 8200 H 808.042 -0.254078 -4.20633 0
M  V30 8201 H 806.766 0.509592 -3.226 0
M  V30 8202 H 805.425 -1.62203 -3.28764 0
M  V30 8203 H 805.073 0.139161 -5.02807 0
M  V30 8204 H 804.773 -1.48976 -5.68401 0
M  V30 8205 H 806.297 -0.641959 -6.07216 0
M  V30 8206 H 807.711 -2.67952 -5.06828 0
M  V30 8207 H 806.108 -3.45414 -4.90723 0
M  V30 8208 H 807.178 -3.35927 -3.49687 0
M  V30 8209 N 808.521 1.23394 -0.980386 0
M  V30 8210 C 809.453 2.24146 -0.478657 0
M  V30 8211 C 810.466 1.57303 0.419492 0
M  V30 8212 O 811.655 1.77094 0.223631 0
M  V30 8213 C 808.755 3.3732 0.326913 0
M  V30 8214 C 807.928 4.33744 -0.56436 0
M  V30 8215 C 806.987 5.25866 0.187358 0
M  V30 8216 O 806.013 5.67626 -0.423019 0
M  V30 8217 N 807.215 5.61492 1.47335 0
M  V30 8218 H 809.98 2.67826 -1.34496 0
M  V30 8219 H 807.541 1.37566 -0.853653 0
M  V30 8220 H 809.533 3.95926 0.838148 0
M  V30 8221 H 808.103 2.92823 1.09422 0
M  V30 8222 H 807.323 3.73641 -1.25642 0
M  V30 8223 H 808.611 4.95123 -1.17177 0
M  V30 8224 H 808.009 5.29514 1.99077 0
M  V30 8225 H 806.566 6.2257 1.93002 0
M  V30 8226 N 809.999 0.752036 1.385 0
M  V30 8227 C 811.41 0.375385 1.82887 0
M  V30 8228 C 811.761 -1.09575 1.62751 0
M  V30 8229 O 810.886 -1.84685 1.12785 0
M  V30 8230 C 811.481 0.674563 3.32017 0
M  V30 8231 C 810.04 0.351208 3.74758 0
M  V30 8232 C 809.187 0.928531 2.61292 0
M  V30 8233 H 812.138 0.948313 1.27251 0
M  V30 8234 H 812.159 -0.0477781 3.8047 0
M  V30 8235 H 811.671 1.74533 3.46641 0
M  V30 8236 H 809.772 -0.713042 3.65714 0
M  V30 8237 H 809.885 0.845675 4.71577 0
M  V30 8238 H 808.249 0.354012 2.52228 0
M  V30 8239 H 809.032 2.0043 2.78716 0
M  V30 8240 N 811.477 -1.49425 0.500989 0
M  V30 8241 C 812.723 -2.03369 -0.0355945 0
M  V30 8242 C 813.078 -1.37387 -1.34694 0
M  V30 8243 O 812.371 -0.500516 -1.84947 0
M  V30 8244 C 812.565 -3.56562 -0.24463 0
M  V30 8245 C 812.394 -4.37392 1.04491 0
M  V30 8246 C 811.164 -4.7941 1.59669 0
M  V30 8247 C 813.362 -4.75974 1.94817 0
M  V30 8248 N 811.344 -5.44668 2.83214 0
M  V30 8249 C 812.715 -5.4095 3.0294 0
M  V30 8250 C 814.77 -4.57915 1.95495 0
M  V30 8251 C 813.473 -5.89779 4.11768 0
M  V30 8252 C 815.499 -5.07705 3.03298 0
M  V30 8253 C 814.861 -5.72682 4.1014 0
M  V30 8254 H 810.96 -0.781507 0.0277547 0
M  V30 8255 H 813.544 -1.82594 0.675844 0
M  V30 8256 H 811.715 -3.77221 -0.925126 0
M  V30 8257 H 813.447 -3.97147 -0.778219 0
M  V30 8258 H 810.202 -4.59629 1.14185 0
M  V30 8259 H 810.626 -5.81884 3.46035 0
M  V30 8260 H 815.268 -4.07085 1.14199 0
M  V30 8261 H 812.986 -6.3963 4.93862 0
M  V30 8262 H 816.572 -4.95542 3.04843 0
M  V30 8263 H 815.452 -6.10512 4.92184 0
M  V30 8264 N 812.955 -0.234822 -1.55841 0
M  V30 8265 C 813.885 0.664217 -2.23854 0
M  V30 8266 C 814.866 1.19076 -1.2147 0
M  V30 8267 O 816.051 1.23232 -1.50091 0
M  V30 8268 C 813.181 1.86666 -2.9287 0
M  V30 8269 C 812.135 1.47341 -4.01839 0
M  V30 8270 C 811.461 2.75571 -4.58219 0
M  V30 8271 C 812.761 0.653479 -5.18196 0
M  V30 8272 H 814.455 0.0971213 -2.99242 0
M  V30 8273 H 812.001 0.0452724 -1.43929 0
M  V30 8274 H 813.954 2.50116 -3.39146 0
M  V30 8275 H 812.678 2.45894 -2.1495 0
M  V30 8276 H 811.337 0.862314 -3.56314 0
M  V30 8277 H 810.985 3.32971 -3.77014 0
M  V30 8278 H 810.685 2.49987 -5.31771 0
M  V30 8279 H 812.209 3.39939 -5.07221 0
M  V30 8280 H 813.623 1.19198 -5.60771 0
M  V30 8281 H 812.02 0.494188 -5.98062 0
M  V30 8282 H 813.09 -0.337004 -4.83728 0
M  V30 8283 N 814.433 1.57553 0.0384317 0
M  V30 8284 C 815.343 2.09333 1.0591 0
M  V30 8285 C 816.359 1.0299 1.40247 0
M  V30 8286 O 817.535 1.34669 1.49754 0
M  V30 8287 C 814.6 2.55468 2.34386 0
M  V30 8288 C 813.661 3.76254 2.06716 0
M  V30 8289 C 812.894 4.20179 3.29067 0
M  V30 8290 O 813.117 3.637 4.39407 0
M  V30 8291 O 812.051 5.12697 3.15317 0
M  V30 8292 H 815.877 2.96683 0.649087 0
M  V30 8293 H 813.462 1.47211 0.254802 0
M  V30 8294 H 815.344 2.85514 3.09935 0
M  V30 8295 H 814.019 1.71234 2.74701 0
M  V30 8296 H 812.926 3.51241 1.28766 0
M  V30 8297 H 814.259 4.61443 1.71263 0
M  V30 8298 N 815.911 -0.310526 1.54511 0
M  V30 8299 C 817.159 -1.04484 1.72996 0
M  V30 8300 C 817.48 -1.88118 0.513479 0
M  V30 8301 O 816.75 -1.90119 -0.472384 0
M  V30 8302 H 815.33 -0.388747 0.637875 0
M  V30 8303 H 817.992 -0.343811 1.91844 0
M  V30 8304 H 817.088 -1.70341 2.61515 0
M  V30 8305 N 817.389 -1.46805 -0.573248 0
M  V30 8306 C 818.635 -1.53816 -1.33088 0
M  V30 8307 C 818.99 -0.191162 -1.91448 0
M  V30 8308 O 818.283 0.801299 -1.7404 0
M  V30 8309 C 818.477 -2.58001 -2.47326 0
M  V30 8310 C 818.306 -4.027 -2.00157 0
M  V30 8311 C 817.076 -4.70319 -1.84737 0
M  V30 8312 C 819.274 -4.90211 -1.55557 0
M  V30 8313 N 817.256 -5.99598 -1.31739 0
M  V30 8314 C 818.627 -6.09389 -1.14215 0
M  V30 8315 C 820.682 -4.76784 -1.43461 0
M  V30 8316 C 819.385 -7.16625 -0.619809 0
M  V30 8317 C 821.411 -5.84101 -0.926297 0
M  V30 8318 C 820.773 -7.02458 -0.522715 0
M  V30 8319 H 816.872 -0.617642 -0.479627 0
M  V30 8320 H 819.456 -1.83471 -0.65164 0
M  V30 8321 H 817.627 -2.3024 -3.128 0
M  V30 8322 H 819.359 -2.54951 -3.14296 0
M  V30 8323 H 816.114 -4.25982 -2.06969 0
M  V30 8324 H 816.538 -6.68431 -1.07374 0
M  V30 8325 H 821.18 -3.85661 -1.73279 0
M  V30 8326 H 818.898 -8.07508 -0.309228 0
M  V30 8327 H 822.484 -5.75755 -0.836485 0
M  V30 8328 H 821.364 -7.84083 -0.135467 0
M  V30 8329 N 818.867 0.818669 -1.34668 0
M  V30 8330 C 819.817 1.91882 -1.23147 0
M  V30 8331 C 820.801 1.60378 -0.129509 0
M  V30 8332 O 821.993 1.73309 -0.359581 0
M  V30 8333 C 819.122 3.28612 -0.993436 0
M  V30 8334 C 818.208 3.66221 -2.13876 0
M  V30 8335 N 818.599 3.75361 -3.39024 0
M  V30 8336 C 816.897 3.96098 -2.04994 0
M  V30 8337 C 817.598 4.0836 -4.14266 0
M  V30 8338 N 816.574 4.21806 -3.429 0
M  V30 8339 H 820.376 1.97133 -2.17981 0
M  V30 8340 H 817.89 1.01257 -1.26967 0
M  V30 8341 H 819.887 4.0725 -0.891797 0
M  V30 8342 H 818.547 3.24655 -0.053824 0
M  V30 8343 H 819.558 3.58747 -3.73525 0
M  V30 8344 H 816.235 4.00236 -1.18816 0
M  V30 8345 H 817.625 4.226 -5.22359 0
M  V30 8346 N 820.346 1.18468 1.03938 0
M  V30 8347 C 821.592 0.982286 1.77423 0
M  V30 8348 C 821.925 -0.48679 1.88 0
M  V30 8349 O 821.2 -1.36146 1.38905 0
M  V30 8350 C 821.483 1.63929 3.20623 0
M  V30 8351 C 821.336 3.18132 3.17982 0
M  V30 8352 C 822.655 1.3536 4.18767 0
M  V30 8353 H 819.774 0.358264 0.644062 0
M  V30 8354 H 822.416 1.46154 1.21405 0
M  V30 8355 H 820.566 1.2318 3.68455 0
M  V30 8356 H 822.238 3.68024 2.78129 0
M  V30 8357 H 820.481 3.50225 2.55978 0
M  V30 8358 H 821.152 3.5924 4.19107 0
M  V30 8359 H 823.628 1.70669 3.79488 0
M  V30 8360 H 822.504 1.83896 5.17178 0
M  V30 8361 H 822.765 0.276722 4.41233 0
M  V30 8362 N 821.824 -1.22873 0.986916 0
M  V30 8363 C 822.734 -2.28277 0.540978 0
M  V30 8364 C 823.75 -1.69164 -0.407363 0
M  V30 8365 O 824.926 -1.99504 -0.275674 0
M  V30 8366 C 821.991 -3.46404 -0.143181 0
M  V30 8367 C 821.052 -4.20854 0.847375 0
M  V30 8368 C 820.285 -5.33341 0.19577 0
M  V30 8369 O 820.508 -5.61356 -1.0117 0
M  V30 8370 O 819.442 -5.95169 0.897623 0
M  V30 8371 H 823.268 -2.68578 1.41773 0
M  V30 8372 H 820.853 -1.28927 0.754867 0
M  V30 8373 H 822.735 -4.18096 -0.526676 0
M  V30 8374 H 821.41 -3.08041 -0.994593 0
M  V30 8375 H 820.317 -3.51459 1.28169 0
M  V30 8376 H 821.65 -4.63082 1.6678 0
M  V30 8377 N 823.302 -0.75937 -1.38099 0
M  V30 8378 C 824.55 -0.317485 -1.99591 0
M  V30 8379 C 824.871 1.10628 -1.60581 0
M  V30 8380 O 824.141 1.7575 -0.865378 0
M  V30 8381 H 822.721 -0.114397 -0.738189 0
M  V30 8382 H 825.383 -0.974749 -1.68774 0
M  V30 8383 H 824.479 -0.385227 -3.09713 0
M  V30 8384 N 824.78 1.49157 -0.508906 0
M  V30 8385 C 826.008 2.06879 0.0293734 0
M  V30 8386 C 826.423 1.36823 1.30095 0
M  V30 8387 O 825.78 0.449034 1.7689 0
M  V30 8388 C 825.831 3.60423 0.278791 0
M  V30 8389 O 825.552 4.27844 -0.942389 0
M  V30 8390 C 827.053 4.34881 0.859825 0
M  V30 8391 H 824.273 0.67057 -0.0240184 0
M  V30 8392 H 826.817 1.91834 -0.708526 0
M  V30 8393 H 824.972 3.75145 0.966689 0
M  V30 8394 H 825.386 5.19671 -0.710097 0
M  V30 8395 H 826.86 5.43161 0.983884 0
M  V30 8396 H 827.337 3.9789 1.85958 0
M  V30 8397 H 827.943 4.24785 0.209152 0
M  V30 8398 N 826.258 0.243083 1.55714 0
M  V30 8399 C 827.535 -0.432851 1.90751 0
M  V30 8400 C 827.915 -1.76153 1.16333 0
M  V30 8401 O 827.263 -2.26783 0.279565 0
M  V30 8402 C 827.473 -0.604685 3.43722 0
M  V30 8403 C 828.821 -0.90231 4.14902 0
M  V30 8404 O 829.845 -0.690689 3.49439 0
M  V30 8405 O 828.704 -1.3051 5.30688 0
M  V30 8406 H 825.798 -0.231835 0.79384 0
M  V30 8407 H 828.344 0.286867 1.67258 0
M  V30 8408 H 827.116 0.331655 3.89892 0
M  V30 8409 H 826.739 -1.37509 3.73065 0
M  V30 8410 N 827.736 -1.57571 -0.0300757 0
M  V30 8411 C 829.152 -1.54869 -0.385703 0
M  V30 8412 C 829.352 -0.969068 -1.76667 0
M  V30 8413 O 828.408 -0.589676 -2.45518 0
M  V30 8414 C 829.721 -2.99313 -0.288482 0
M  V30 8415 C 831.269 -3.10857 -0.365638 0
M  V30 8416 C 831.744 -4.5703 -0.297878 0
M  V30 8417 N 833.235 -4.61825 -0.356703 0
M  V30 8418 C 833.97 -5.72466 -0.327146 0
M  V30 8419 N 833.466 -6.92349 -0.249941 0
M  V30 8420 N 835.259 -5.60836 -0.376801 0
M  V30 8421 H 827.41 -1.936 0.87367 0
M  V30 8422 H 829.673 -0.887924 0.332106 0
M  V30 8423 H 829.379 -3.45443 0.66047 0
M  V30 8424 H 829.253 -3.61332 -1.08253 0
M  V30 8425 H 831.64 -2.64676 -1.30502 0
M  V30 8426 H 831.721 -2.51671 0.457744 0
M  V30 8427 H 831.365 -5.03879 0.637835 0
M  V30 8428 H 831.295 -5.14127 -1.13935 0
M  V30 8429 H 833.786 -3.75571 -0.418926 0
M  V30 8430 H 834.099 -7.7245 -0.23246 0
M  V30 8431 H 832.444 -6.94664 -0.216004 0
M  V30 8432 H 835.635 -4.66073 -0.435101 0
M  V30 8433 H 835.808 -6.47052 -0.350298 0
M  V30 8434 N 829.214 0.302327 -1.54673 0
M  V30 8435 C 830.144 1.37759 -1.88533 0
M  V30 8436 C 831.125 1.52961 -0.744113 0
M  V30 8437 O 832.31 1.6649 -0.999731 0
M  V30 8438 C 829.44 2.74201 -2.13146 0
M  V30 8439 C 828.394 2.73765 -3.28993 0
M  V30 8440 C 827.72 4.13483 -3.39022 0
M  V30 8441 C 829.02 2.35624 -4.66132 0
M  V30 8442 H 830.714 1.0967 -2.78591 0
M  V30 8443 H 828.26 0.52613 -1.34044 0
M  V30 8444 H 830.213 3.49508 -2.35419 0
M  V30 8445 H 828.937 3.03812 -1.19858 0
M  V30 8446 H 827.596 2.00914 -3.06642 0
M  V30 8447 H 827.244 4.40269 -2.43253 0
M  V30 8448 H 826.944 4.14093 -4.16894 0
M  V30 8449 H 828.468 4.90572 -3.63553 0
M  V30 8450 H 829.882 3.00647 -4.88143 0
M  V30 8451 H 828.279 2.47449 -5.46707 0
M  V30 8452 H 829.349 1.30753 -4.66939 0
M  V30 8453 N 830.692 1.47107 0.565454 0
M  V30 8454 C 832.108 1.32443 0.890566 0
M  V30 8455 C 832.308 0.308735 1.99121 0
M  V30 8456 O 831.364 -0.28265 2.50913 0
M  V30 8457 C 832.677 2.71548 1.2916 0
M  V30 8458 C 834.225 2.7977 1.40349 0
M  V30 8459 C 834.7 4.19497 1.83811 0
M  V30 8460 N 836.191 4.21998 1.90975 0
M  V30 8461 C 836.926 5.2702 2.25916 0
M  V30 8462 N 836.422 6.42353 2.59527 0
M  V30 8463 N 838.215 5.14393 2.26619 0
M  V30 8464 H 830.366 2.11786 -0.161328 0
M  V30 8465 H 832.629 0.947952 -0.00950631 0
M  V30 8466 H 832.335 3.47265 0.556753 0
M  V30 8467 H 832.209 3.02782 2.24951 0
M  V30 8468 H 834.596 2.0433 2.12916 0
M  V30 8469 H 834.677 2.522 0.427655 0
M  V30 8470 H 834.321 4.95439 1.11816 0
M  V30 8471 H 834.251 4.44486 2.82382 0
M  V30 8472 H 836.742 3.38791 1.6742 0
M  V30 8473 H 837.055 7.18252 2.85191 0
M  V30 8474 H 835.4 6.45687 2.57126 0
M  V30 8475 H 838.591 4.2332 1.99794 0
M  V30 8476 H 838.764 5.96349 2.5352 0
M  V30 8477 N 832.17 -0.811516 1.35101 0
M  V30 8478 C 833.416 -1.57068 1.28287 0
M  V30 8479 C 833.749 -1.93667 -0.143808 0
M  V30 8480 O 833.024 -1.60953 -1.09199 0
M  V30 8481 C 833.307 -2.86259 2.18466 0
M  V30 8482 C 833.16 -2.56168 3.69727 0
M  V30 8483 C 834.479 -3.87924 2.07852 0
M  V30 8484 H 831.598 -0.569869 0.467353 0
M  V30 8485 H 834.24 -0.934023 1.65457 0
M  V30 8486 H 832.39 -3.4059 1.86898 0
M  V30 8487 H 834.062 -2.08059 4.11715 0
M  V30 8488 H 832.305 -1.89436 3.90252 0
M  V30 8489 H 832.976 -3.48344 4.28206 0
M  V30 8490 H 835.452 -3.4298 2.35593 0
M  V30 8491 H 834.328 -4.76106 2.73157 0
M  V30 8492 H 834.589 -4.2923 1.05896 0
M  V30 8493 N 833.648 -1.19017 -1.03309 0
M  V30 8494 C 834.873 -1.01598 -1.80811 0
M  V30 8495 C 835.298 0.430773 -1.83101 0
M  V30 8496 O 834.656 1.30946 -1.25391 0
M  V30 8497 C 834.704 -1.5845 -3.23923 0
M  V30 8498 O 833.808 -0.810972 -4.04348 0
M  V30 8499 H 833.149 -0.359398 -0.558327 0
M  V30 8500 H 835.679 -1.57945 -1.30055 0
M  V30 8501 H 835.689 -1.61486 -3.74682 0
M  V30 8502 H 834.364 -2.63752 -3.21571 0
M  V30 8503 H 832.941 -0.85353 -3.63 0
M  V30 8504 N 835.127 1.22348 -0.993418 0
M  V30 8505 C 836.373 1.91689 -0.680217 0
M  V30 8506 C 836.728 1.75912 0.779269 0
M  V30 8507 O 836.021 1.11761 1.55628 0
M  V30 8508 C 836.215 3.42477 -1.02197 0
M  V30 8509 C 836.044 3.72923 -2.51313 0
M  V30 8510 C 834.814 3.9291 -3.17726 0
M  V30 8511 C 837.012 3.7736 -3.49434 0
M  V30 8512 N 834.994 4.10672 -4.56313 0
M  V30 8513 C 836.365 4.00269 -4.73481 0
M  V30 8514 C 838.42 3.60211 -3.43733 0
M  V30 8515 C 837.123 4.0781 -5.92523 0
M  V30 8516 C 839.149 3.69011 -4.62152 0
M  V30 8517 C 838.511 3.92371 -5.85 0
M  V30 8518 H 834.61 0.722086 -0.300193 0
M  V30 8519 H 837.194 1.47273 -1.27353 0
M  V30 8520 H 835.365 3.85699 -0.457223 0
M  V30 8521 H 837.097 3.99204 -0.664702 0
M  V30 8522 H 833.852 3.90345 -2.68193 0
M  V30 8523 H 834.276 4.2348 -5.28199 0
M  V30 8524 H 838.918 3.41137 -2.49771 0
M  V30 8525 H 836.636 4.25688 -6.86888 0
M  V30 8526 H 840.222 3.5708 -4.59331 0
M  V30 8527 H 839.102 3.9901 -6.75101 0
M  V30 8528 N 836.605 0.766683 1.37694 0
M  V30 8529 C 837.83 0.338715 2.04615 0
M  V30 8530 C 838.255 -1.02918 1.57447 0
M  V30 8531 O 837.613 -1.65849 0.732386 0
M  V30 8532 C 837.661 0.385284 3.58536 0
M  V30 8533 O 836.765 -0.616081 4.07772 0
M  V30 8534 H 836.106 0.147527 0.647404 0
M  V30 8535 H 838.636 1.04146 1.7611 0
M  V30 8536 H 838.646 0.240782 4.07289 0
M  V30 8537 H 837.321 1.38325 3.92223 0
M  V30 8538 H 835.898 -0.435115 3.70353 0
M  V30 8539 N 838.083 -1.48885 0.516809 0
M  V30 8540 C 839.013 -2.32241 -0.242157 0
M  V30 8541 C 839.994 -1.41258 -0.947633 0
M  V30 8542 O 841.179 -1.70156 -0.935973 0
M  V30 8543 C 838.309 -3.22151 -1.29754 0
M  V30 8544 C 837.263 -4.22053 -0.710995 0
M  V30 8545 C 836.589 -5.01007 -1.86806 0
M  V30 8546 C 837.889 -5.21388 0.30853 0
M  V30 8547 H 839.583 -2.95943 0.453651 0
M  V30 8548 H 837.129 -1.42316 0.219612 0
M  V30 8549 H 839.082 -3.79284 -1.83634 0
M  V30 8550 H 837.806 -2.56423 -2.02274 0
M  V30 8551 H 836.465 -3.66087 -0.193819 0
M  V30 8552 H 836.113 -4.31713 -2.58133 0
M  V30 8553 H 835.813 -5.68615 -1.48159 0
M  V30 8554 H 837.337 -5.60989 -2.4109 0
M  V30 8555 H 838.751 -5.73122 -0.142703 0
M  V30 8556 H 837.148 -5.96975 0.611673 0
M  V30 8557 H 838.218 -4.69329 1.21894 0
M  V30 8558 N 839.561 -0.251338 -1.55583 0
M  V30 8559 C 840.972 0.25098 -1.85005 0
M  V30 8560 C 841.323 1.57259 -1.17321 0
M  V30 8561 O 840.448 2.11603 -0.453136 0
M  V30 8562 C 841.043 0.462161 -3.35633 0
M  V30 8563 C 839.602 0.908737 -3.65266 0
M  V30 8564 C 838.749 -0.0115418 -2.77298 0
M  V30 8565 H 841.7 -0.473782 -1.51463 0
M  V30 8566 H 841.721 1.30415 -3.57452 0
M  V30 8567 H 841.233 -0.499886 -3.84867 0
M  V30 8568 H 839.334 1.8831 -3.21512 0
M  V30 8569 H 839.447 0.762526 -4.72993 0
M  V30 8570 H 837.811 0.500612 -2.49732 0
M  V30 8571 H 838.594 -0.969042 -3.29339 0
M  V30 8572 N 841.039 1.57585 0.0217189 0
M  V30 8573 C 841.969 2.10073 1.01939 0
M  V30 8574 C 842.95 1.0049 1.37243 0
M  V30 8575 O 844.135 1.28055 1.45999 0
M  V30 8576 C 841.265 2.58618 2.31806 0
M  V30 8577 C 840.219 3.72531 2.10724 0
M  V30 8578 C 839.545 4.07309 3.46415 0
M  V30 8579 C 840.845 5.00672 1.48743 0
M  V30 8580 H 842.539 2.9368 0.582432 0
M  V30 8581 H 840.085 1.41277 0.278715 0
M  V30 8582 H 842.038 2.9396 3.01936 0
M  V30 8583 H 840.762 1.72104 2.77575 0
M  V30 8584 H 839.421 3.37549 1.43025 0
M  V30 8585 H 839.069 3.17851 3.89846 0
M  V30 8586 H 838.769 4.84042 3.33132 0
M  V30 8587 H 840.293 4.45192 4.17895 0
M  V30 8588 H 841.707 5.33925 2.088 0
M  V30 8589 H 840.104 5.82065 1.46013 0
M  V30 8590 H 841.174 4.82769 0.45408 0
M  V30 8591 N 842.517 -0.29412 1.54831 0
M  V30 8592 C 843.763 -1.02999 1.74697 0
M  V30 8593 C 844.096 -1.86687 0.534949 0
M  V30 8594 O 843.371 -1.88789 -0.467863 0
M  V30 8595 C 843.654 -1.93024 3.03996 0
M  V30 8596 C 843.507 -1.1247 4.35512 0
M  V30 8597 C 844.826 -2.92085 3.29203 0
M  V30 8598 H 841.945 -0.373039 0.635618 0
M  V30 8599 H 844.587 -0.304065 1.87551 0
M  V30 8600 H 842.737 -2.5492 2.93169 0
M  V30 8601 H 844.409 -0.528067 4.58268 0
M  V30 8602 H 842.652 -0.427574 4.31688 0
M  V30 8603 H 843.323 -1.78728 5.22265 0
M  V30 8604 H 845.799 -2.40319 3.39685 0
M  V30 8605 H 844.675 -3.52234 4.20978 0
M  V30 8606 H 844.936 -3.66107 2.47827 0
M  V30 8607 N 843.995 -1.47404 -0.557645 0
M  V30 8608 C 845.406 -1.47872 -1.13977 0
M  V30 8609 C 845.757 -0.233176 -1.94809 0
M  V30 8610 O 844.882 0.661945 -2.06027 0
M  V30 8611 C 845.477 -2.67926 -2.07368 0
M  V30 8612 C 844.036 -2.71354 -2.60852 0
M  V30 8613 C 843.183 -2.40967 -1.37223 0
M  V30 8614 H 846.134 -1.54921 -0.344268 0
M  V30 8615 H 846.155 -2.44871 -2.91236 0
M  V30 8616 H 845.667 -3.58562 -1.48509 0
M  V30 8617 H 843.768 -1.84855 -3.23511 0
M  V30 8618 H 843.881 -3.72032 -3.01876 0
M  V30 8619 H 842.245 -1.91541 -1.67882 0
M  V30 8620 H 843.028 -3.33811 -0.801583 0
M  V30 8621 N 845.473 0.80434 -1.35529 0
M  V30 8622 C 846.721 1.55845 -1.28673 0
M  V30 8623 C 847.042 1.94511 0.137976 0
M  V30 8624 O 846.312 1.63775 1.07492 0
M  V30 8625 H 844.892 0.577931 -0.473291 0
M  V30 8626 H 847.554 0.959293 -1.69657 0
M  V30 8627 H 846.65 2.47285 -1.90411 0
M  V30 8628 N 846.951 1.19563 1.02676 0
M  V30 8629 C 848.362 1.00158 1.57561 0
M  V30 8630 C 848.713 -0.444922 1.91089 0
M  V30 8631 O 847.838 -1.32466 1.71119 0
M  V30 8632 C 848.433 1.81181 2.86284 0
M  V30 8633 C 846.992 1.66171 3.37734 0
M  V30 8634 C 846.139 1.7975 2.11152 0
M  V30 8635 H 849.09 1.33904 0.85179 0
M  V30 8636 H 849.111 1.30916 3.57269 0
M  V30 8637 H 848.623 2.86454 2.6185 0
M  V30 8638 H 846.724 0.634927 3.6715 0
M  V30 8639 H 846.837 2.46832 4.10622 0
M  V30 8640 H 845.201 1.22833 2.23123 0
M  V30 8641 H 845.984 2.86487 1.89157 0
M  V30 8642 N 848.429 -1.21819 0.999893 0
M  V30 8643 C 849.359 -2.26282 0.576096 0
M  V30 8644 C 850.34 -1.65317 -0.400537 0
M  V30 8645 O 851.525 -1.92028 -0.28964 0
M  V30 8646 C 848.655 -3.47147 -0.103145 0
M  V30 8647 C 847.609 -4.20594 0.792745 0
M  V30 8648 C 846.935 -5.34696 -0.0198026 0
M  V30 8649 C 848.235 -4.78533 2.09293 0
M  V30 8650 H 849.929 -2.61984 1.4493 0
M  V30 8651 H 847.475 -1.25935 0.698316 0
M  V30 8652 H 849.428 -4.1939 -0.411068 0
M  V30 8653 H 848.152 -3.1056 -1.01094 0
M  V30 8654 H 846.811 -3.50194 1.08442 0
M  V30 8655 H 846.459 -4.94352 -0.928729 0
M  V30 8656 H 846.159 -5.84764 0.576661 0
M  V30 8657 H 847.683 -6.09752 -0.321659 0
M  V30 8658 H 849.097 -5.42682 1.8485 0
M  V30 8659 H 847.494 -5.38968 2.63881 0
M  V30 8660 H 848.564 -3.98197 2.76708 0
M  V30 8661 N 849.908 -0.773975 -1.37286 0
M  V30 8662 C 851.154 -0.339809 -1.99933 0
M  V30 8663 C 851.487 1.0815 -1.61299 0
M  V30 8664 O 850.762 1.74442 -0.860252 0
M  V30 8665 C 851.045 -0.485919 -3.56806 0
M  V30 8666 C 850.898 -1.9498 -4.05343 0
M  V30 8667 C 852.217 0.108461 -4.39966 0
M  V30 8668 H 849.336 -0.124944 -0.726332 0
M  V30 8669 H 851.978 -0.977433 -1.6293 0
M  V30 8670 H 850.128 0.0569023 -3.88458 0
M  V30 8671 H 851.8 -2.5525 -3.84246 0
M  V30 8672 H 850.043 -2.45784 -3.57453 0
M  V30 8673 H 850.714 -2.00308 -5.14374 0
M  V30 8674 H 853.19 -0.354722 -4.14585 0
M  V30 8675 H 852.066 -0.0238926 -5.48895 0
M  V30 8676 H 852.327 1.19901 -4.25531 0
M  V30 8677 N 851.386 1.48609 -0.524698 0
M  V30 8678 C 852.634 2.02097 0.0112991 0
M  V30 8679 C 852.955 1.40455 1.35268 0
M  V30 8680 O 852.225 0.56807 1.87483 0
M  V30 8681 H 850.805 0.746966 0.00716426 0
M  V30 8682 H 853.467 1.82378 -0.687329 0
M  V30 8683 H 852.563 3.11855 0.123531 0
M  V30 8684 N 852.864 0.259585 1.55447 0
M  V30 8685 C 854.141 -0.412595 1.91199 0
M  V30 8686 C 854.521 -1.74909 1.18194 0
M  V30 8687 O 853.869 -2.26474 0.303603 0
M  V30 8688 C 854.079 -0.568195 3.44344 0
M  V30 8689 C 855.427 -0.858253 4.15836 0
M  V30 8690 O 856.451 -0.653588 3.50152 0
M  V30 8691 O 855.31 -1.24874 5.32042 0
M  V30 8692 H 852.404 -0.223403 0.796254 0
M  V30 8693 H 854.95 0.30459 1.66944 0
M  V30 8694 H 853.722 0.372989 3.89518 0
M  V30 8695 H 853.345 -1.33544 3.74502 0
M  V30 8696 N 854.342 -1.57594 -0.0133615 0
M  V30 8697 C 855.59 -1.89605 -0.699596 0
M  V30 8698 C 855.911 -0.85926 -1.75048 0
M  V30 8699 O 855.181 0.105112 -1.95618 0
M  V30 8700 H 853.761 -0.699776 -0.261385 0
M  V30 8701 H 856.423 -1.94885 0.0244044 0
M  V30 8702 H 855.519 -2.88962 -1.17928 0
M  V30 8703 N 855.82 0.285905 -1.54985 0
M  V30 8704 C 857.067 1.0192 -1.74982 0
M  V30 8705 C 857.395 1.86743 -0.543816 0
M  V30 8706 O 856.65 1.89874 0.473972 0
M  V30 8707 C 856.949 1.94193 -3.0004 0
M  V30 8708 C 856.615 1.25225 -4.33162 0
M  V30 8709 C 855.277 1.06149 -4.69346 0
M  V30 8710 C 857.629 0.760427 -5.15623 0
M  V30 8711 C 854.957 0.365991 -5.85557 0
M  V30 8712 C 857.309 0.0785787 -6.32551 0
M  V30 8713 C 855.973 -0.124002 -6.67385 0
M  V30 8714 H 855.243 0.372951 -0.640304 0
M  V30 8715 H 857.89 0.292652 -1.89251 0
M  V30 8716 H 856.195 2.73426 -2.80616 0
M  V30 8717 H 857.892 2.51029 -3.12707 0
M  V30 8718 H 854.482 1.41081 -4.04715 0
M  V30 8719 H 858.666 0.895466 -4.88155 0
M  V30 8720 H 853.922 0.198193 -6.11079 0
M  V30 8721 H 858.096 -0.310339 -6.95708 0
M  V30 8722 H 855.723 -0.664918 -7.57287 0
M  V30 8723 N 857.298 1.47698 0.54982 0
M  V30 8724 C 858.228 1.63622 1.66583 0
M  V30 8725 C 859.209 0.485477 1.63025 0
M  V30 8726 O 860.394 0.715692 1.80531 0
M  V30 8727 C 857.524 1.65721 3.05211 0
M  V30 8728 C 856.478 2.80097 3.2362 0
M  V30 8729 C 855.804 2.67272 4.63109 0
M  V30 8730 C 857.104 4.21612 3.08286 0
M  V30 8731 H 858.798 2.57049 1.53512 0
M  V30 8732 H 856.344 1.23705 0.737099 0
M  V30 8733 H 858.297 1.75451 3.83138 0
M  V30 8734 H 857.021 0.688593 3.19258 0
M  V30 8735 H 855.68 2.69889 2.48104 0
M  V30 8736 H 855.328 1.68422 4.73965 0
M  V30 8737 H 855.028 3.44008 4.76374 0
M  V30 8738 H 856.552 2.78942 5.43161 0
M  V30 8739 H 857.966 4.32758 3.76024 0
M  V30 8740 H 856.363 4.99193 3.33057 0
M  V30 8741 H 857.433 4.39462 2.04942 0
M  V30 8742 N 858.776 -0.797141 1.35954 0
M  V30 8743 C 859.706 -1.92387 1.32323 0
M  V30 8744 C 860.687 -1.68967 0.196007 0
M  V30 8745 O 861.872 -1.90193 0.39245 0
M  V30 8746 C 859.002 -3.29286 1.10398 0
M  V30 8747 C 857.956 -3.67212 2.19862 0
M  V30 8748 C 857.282 -5.02377 1.8309 0
M  V30 8749 C 858.582 -3.76602 3.61896 0
M  V30 8750 H 860.276 -1.95683 2.26602 0
M  V30 8751 H 857.822 -0.94007 1.09081 0
M  V30 8752 H 859.775 -4.07721 1.06495 0
M  V30 8753 H 858.499 -3.26358 0.125668 0
M  V30 8754 H 857.158 -2.91069 2.22878 0
M  V30 8755 H 856.806 -4.95961 0.838527 0
M  V30 8756 H 856.506 -5.28722 2.56372 0
M  V30 8757 H 858.03 -5.8324 1.80729 0
M  V30 8758 H 859.444 -4.45246 3.6115 0
M  V30 8759 H 857.841 -4.14425 4.34018 0
M  V30 8760 H 858.911 -2.77906 3.97361 0
M  V30 8761 N 860.254 -1.20106 -1.0204 0
M  V30 8762 C 861.67 -0.955099 -1.27867 0
M  V30 8763 C 861.87 0.367595 -1.98119 0
M  V30 8764 O 860.926 1.09705 -2.27423 0
M  V30 8765 C 862.239 -2.13507 -2.11744 0
M  V30 8766 C 863.787 -2.17563 -2.25023 0
M  V30 8767 C 864.262 -3.35035 -3.12275 0
M  V30 8768 N 865.753 -3.35024 -3.19864 0
M  V30 8769 C 866.488 -4.22566 -3.8759 0
M  V30 8770 N 865.984 -5.20278 -4.57474 0
M  V30 8771 N 867.777 -4.10418 -3.84075 0
M  V30 8772 H 859.928 -2.05193 -0.54861 0
M  V30 8773 H 862.191 -0.897689 -0.304728 0
M  V30 8774 H 861.897 -3.09275 -1.67456 0
M  V30 8775 H 861.771 -2.11281 -3.12474 0
M  V30 8776 H 864.158 -1.22359 -2.68537 0
M  V30 8777 H 864.239 -2.23838 -1.23815 0
M  V30 8778 H 863.883 -4.30522 -2.69468 0
M  V30 8779 H 863.813 -3.25996 -4.13563 0
M  V30 8780 H 866.304 -2.64299 -2.701 0
M  V30 8781 H 866.617 -5.83408 -5.06809 0
M  V30 8782 H 864.962 -5.24219 -4.56311 0
M  V30 8783 H 868.153 -3.33353 -3.28623 0
M  V30 8784 H 868.326 -4.78854 -4.36581 0
M  V30 8785 N 861.732 1.21287 -1.00634 0
M  V30 8786 C 862.662 2.25973 -0.588089 0
M  V30 8787 C 863.643 1.65527 0.391764 0
M  V30 8788 O 864.828 1.92179 0.279452 0
M  V30 8789 C 861.958 3.47197 0.0847336 0
M  V30 8790 C 860.912 4.20168 -0.815039 0
M  V30 8791 C 860.238 5.34699 -0.00855393 0
M  V30 8792 C 861.538 4.77416 -2.11828 0
M  V30 8793 H 863.232 2.61212 -1.46317 0
M  V30 8794 H 860.778 1.25563 -0.704985 0
M  V30 8795 H 862.731 4.19602 0.388821 0
M  V30 8796 H 861.455 3.11092 0.994456 0
M  V30 8797 H 860.114 3.49614 -1.10297 0
M  V30 8798 H 859.762 4.94837 0.902499 0
M  V30 8799 H 859.462 5.84449 -0.607664 0
M  V30 8800 H 860.986 6.09914 0.289317 0
M  V30 8801 H 862.4 5.41694 -1.87725 0
M  V30 8802 H 860.797 5.37561 -2.66736 0
M  V30 8803 H 861.867 3.96724 -2.78816 0
M  V30 8804 N 863.21 0.781244 1.36873 0
M  V30 8805 C 864.456 0.359455 2.00199 0
M  V30 8806 C 864.811 -1.05495 1.60899 0
M  V30 8807 O 864.104 -1.7173 0.849664 0
M  V30 8808 C 864.298 0.45146 3.54537 0
M  V30 8809 C 864.127 1.87326 4.08826 0
M  V30 8810 C 862.897 2.49606 4.39346 0
M  V30 8811 C 865.095 2.8342 4.29159 0
M  V30 8812 N 863.077 3.8346 4.79408 0
M  V30 8813 C 864.448 4.02091 4.71935 0
M  V30 8814 C 866.503 2.80583 4.11312 0
M  V30 8815 C 865.206 5.18322 4.98733 0
M  V30 8816 C 867.232 3.95995 4.39251 0
M  V30 8817 C 866.594 5.13409 4.82276 0
M  V30 8818 H 862.693 0.178778 0.76129 0
M  V30 8819 H 865.277 1.0171 1.66022 0
M  V30 8820 H 863.448 -0.176055 3.88001 0
M  V30 8821 H 865.18 0.00670219 4.04699 0
M  V30 8822 H 861.935 2.01149 4.28761 0
M  V30 8823 H 862.359 4.52306 5.03735 0
M  V30 8824 H 867.001 1.90974 3.77212 0
M  V30 8825 H 864.719 6.08524 5.31718 0
M  V30 8826 H 868.305 3.95152 4.2702 0
M  V30 8827 H 867.185 6.01232 5.03478 0
M  V30 8828 N 864.689 -1.48329 0.532571 0
M  V30 8829 C 865.966 -1.95492 -0.0650985 0
M  V30 8830 C 866.346 -1.47485 -1.51034 0
M  V30 8831 O 865.694 -0.702516 -2.17433 0
M  V30 8832 C 865.904 -3.48957 0.0548341 0
M  V30 8833 C 867.252 -4.24475 -0.103115 0
M  V30 8834 O 868.276 -3.56195 -0.0188343 0
M  V30 8835 O 867.135 -5.45781 -0.280164 0
M  V30 8836 H 864.229 -0.823327 -0.0778603 0
M  V30 8837 H 866.775 -1.58839 0.597353 0
M  V30 8838 H 865.547 -3.76628 1.06148 0
M  V30 8839 H 865.17 -3.92311 -0.64635 0
M  V30 8840 N 866.167 -0.267825 -1.55308 0
M  V30 8841 C 867.415 0.350343 -1.9904 0
M  V30 8842 C 867.736 1.56924 -1.15758 0
M  V30 8843 O 867.006 1.94358 -0.245336 0
M  V30 8844 H 865.586 0.132435 -0.735167 0
M  V30 8845 H 868.248 -0.371471 -1.91327 0
M  V30 8846 H 867.344 0.645203 -3.05358 0
M  V30 8847 N 867.645 1.57599 0.00500368 0
M  V30 8848 C 868.873 1.94626 0.702016 0
M  V30 8849 C 869.288 0.86953 1.67585 0
M  V30 8850 O 868.645 -0.15199 1.81866 0
M  V30 8851 C 868.696 3.31658 1.43824 0
M  V30 8852 O 868.417 4.35197 0.503467 0
M  V30 8853 C 869.918 3.83114 2.23021 0
M  V30 8854 H 867.138 0.641785 0.195841 0
M  V30 8855 H 869.682 2.04451 -0.0446287 0
M  V30 8856 H 867.837 3.23156 2.13655 0
M  V30 8857 H 868.251 5.1444 1.02235 0
M  V30 8858 H 869.725 4.81438 2.7004 0
M  V30 8859 H 870.202 3.15559 3.05482 0
M  V30 8860 H 870.808 3.94775 1.58216 0
M  V30 8861 N 869.123 -0.277682 1.55134 0
M  V30 8862 C 870.539 -0.624625 1.46869 0
M  V30 8863 C 870.739 -1.89717 0.678958 0
M  V30 8864 O 869.795 -2.51739 0.195939 0
M  V30 8865 C 871.108 -0.755937 2.91043 0
M  V30 8866 C 872.656 -0.850299 3.01229 0
M  V30 8867 C 873.131 -1.01343 4.46647 0
M  V30 8868 N 874.622 -1.07906 4.50456 0
M  V30 8869 C 875.357 -1.224 5.60184 0
M  V30 8870 N 874.853 -1.33642 6.79788 0
M  V30 8871 N 876.646 -1.25473 5.47917 0
M  V30 8872 H 868.797 0.558102 2.04937 0
M  V30 8873 H 871.06 0.188228 0.929125 0
M  V30 8874 H 870.766 0.108593 3.51532 0
M  V30 8875 H 870.64 -1.6377 3.39793 0
M  V30 8876 H 873.027 -1.7053 2.40839 0
M  V30 8877 H 873.108 0.0559681 2.55739 0
M  V30 8878 H 872.752 -0.163102 5.07638 0
M  V30 8879 H 872.682 -1.93427 4.89789 0
M  V30 8880 H 875.173 -1.00477 3.64298 0
M  V30 8881 H 875.486 -1.44522 7.59166 0
M  V30 8882 H 873.831 -1.30655 6.82608 0
M  V30 8883 H 877.022 -1.16317 4.53418 0
M  V30 8884 H 877.195 -1.36424 6.33476 0
M  V30 8885 N 870.601 -1.47988 -0.541979 0
M  V30 8886 C 871.849 -1.55086 -1.29587 0
M  V30 8887 C 872.17 -0.221304 -1.9374 0
M  V30 8888 O 871.44 0.756128 -1.80719 0
M  V30 8889 H 870.02 -0.571307 -0.481266 0
M  V30 8890 H 872.682 -1.8438 -0.631675 0
M  V30 8891 H 871.778 -2.32556 -2.08144 0
M  V30 8892 N 872.079 0.78992 -1.36375 0
M  V30 8893 C 873.011 1.91113 -1.26524 0
M  V30 8894 C 874.024 1.61747 -0.184851 0
M  V30 8895 O 875.213 1.73004 -0.439524 0
M  V30 8896 C 872.313 3.25908 -0.92937 0
M  V30 8897 C 871.486 3.83057 -2.11154 0
M  V30 8898 C 870.545 4.96289 -1.74881 0
M  V30 8899 O 869.571 5.12834 -2.46962 0
M  V30 8900 N 870.773 5.76478 -0.682193 0
M  V30 8901 H 873.538 2.00085 -2.23128 0
M  V30 8902 H 871.099 0.968165 -1.29762 0
M  V30 8903 H 873.091 3.99151 -0.667884 0
M  V30 8904 H 871.661 3.12556 -0.0524843 0
M  V30 8905 H 870.881 3.01808 -2.53586 0
M  V30 8906 H 872.169 4.1797 -2.90135 0
M  V30 8907 H 871.567 5.65638 -0.0836661 0
M  V30 8908 H 870.124 6.50026 -0.480529 0
M  V30 8909 N 873.557 1.20646 1.01402 0
M  V30 8910 C 874.467 0.973385 2.13453 0
M  V30 8911 C 875.483 -0.0715865 1.73853 0
M  V30 8912 O 876.659 0.116438 2.01063 0
M  V30 8913 C 873.724 0.531285 3.42605 0
M  V30 8914 C 872.785 1.64741 3.96433 0
M  V30 8915 C 872.018 1.22631 5.1942 0
M  V30 8916 O 872.241 0.0960891 5.70319 0
M  V30 8917 O 871.175 2.03474 5.66465 0
M  V30 8918 H 875.001 1.91164 2.35987 0
M  V30 8919 H 872.586 0.990553 1.11841 0
M  V30 8920 H 874.468 0.294095 4.20373 0
M  V30 8921 H 873.143 -0.378358 3.21481 0
M  V30 8922 H 872.05 1.93891 3.19933 0
M  V30 8923 H 873.383 2.53415 4.2195 0
M  V30 8924 N 875.035 -1.20752 1.01276 0
M  V30 8925 C 876.451 -1.42084 0.726934 0
M  V30 8926 C 876.651 -1.89138 -0.694907 0
M  V30 8927 O 875.707 -2.05783 -1.4632 0
M  V30 8928 C 877.02 -2.44575 1.74938 0
M  V30 8929 C 878.568 -2.58347 1.76708 0
M  V30 8930 C 879.043 -3.64078 2.77869 0
M  V30 8931 N 880.534 -3.71558 2.76585 0
M  V30 8932 C 881.269 -4.53016 3.51517 0
M  V30 8933 N 880.765 -5.38309 4.36114 0
M  V30 8934 N 882.558 -4.47512 3.40132 0
M  V30 8935 H 874.709 -0.885228 1.93074 0
M  V30 8936 H 876.972 -0.451075 0.833808 0
M  V30 8937 H 876.678 -2.1699 2.76782 0
M  V30 8938 H 876.552 -3.43503 1.55838 0
M  V30 8939 H 878.939 -2.85265 0.755516 0
M  V30 8940 H 879.02 -1.59628 1.99882 0
M  V30 8941 H 878.664 -3.37905 3.79187 0
M  V30 8942 H 878.594 -4.62412 2.51958 0
M  V30 8943 H 881.085 -3.10629 2.15216 0
M  V30 8944 H 881.398 -5.9754 4.90068 0
M  V30 8945 H 879.743 -5.37824 4.40194 0
M  V30 8946 H 882.934 -3.79912 2.73467 0
M  V30 8947 H 883.107 -5.10759 3.98784 0
M  V30 8948 N 876.513 -0.788492 -1.36457 0
M  V30 8949 C 877.929 -0.470063 -1.52521 0
M  V30 8950 C 878.129 1.01176 -1.74258 0
M  V30 8951 O 877.185 1.79726 -1.77355 0
M  V30 8952 C 878.498 -1.2997 -2.71161 0
M  V30 8953 C 880.046 -1.2933 -2.85031 0
M  V30 8954 C 880.521 -2.10665 -4.06674 0
M  V30 8955 N 882.012 -2.08107 -4.13819 0
M  V30 8956 C 882.747 -2.6781 -5.07016 0
M  V30 8957 N 882.243 -3.36369 -6.05663 0
M  V30 8958 N 884.036 -2.57549 -4.99625 0
M  V30 8959 H 876.187 -1.7484 -1.20602 0
M  V30 8960 H 878.45 -0.743159 -0.588574 0
M  V30 8961 H 878.156 -2.35051 -2.61618 0
M  V30 8962 H 878.03 -0.940367 -3.6529 0
M  V30 8963 H 880.417 -0.250414 -2.94036 0
M  V30 8964 H 880.498 -1.69239 -1.91812 0
M  V30 8965 H 880.142 -3.14984 -3.98431 0
M  V30 8966 H 880.072 -1.68128 -4.9904 0
M  V30 8967 H 882.563 -1.58208 -3.43189 0
M  V30 8968 H 882.876 -3.79258 -6.73338 0
M  V30 8969 H 881.221 -3.40471 -6.05891 0
M  V30 8970 H 884.412 -2.0359 -4.21508 0
M  V30 8971 H 884.585 -3.0437 -5.72069 0
M  V30 8972 N 877.991 1.48044 -0.54043 0
M  V30 8973 C 878.901 2.33565 0.220163 0
M  V30 8974 C 879.917 1.47146 0.928659 0
M  V30 8975 O 881.093 1.80107 0.901295 0
M  V30 8976 C 878.158 3.2349 1.2472 0
M  V30 8977 C 877.219 4.25789 0.547938 0
M  V30 8978 C 876.452 5.11417 1.52605 0
M  V30 8979 O 876.675 4.99204 2.75956 0
M  V30 8980 O 875.609 5.92498 1.05972 0
M  V30 8981 H 879.435 2.99868 -0.480898 0
M  V30 8982 H 877.02 1.46332 -0.301226 0
M  V30 8983 H 878.902 3.79084 1.84047 0
M  V30 8984 H 877.577 2.59835 1.93048 0
M  V30 8985 H 876.484 3.74001 -0.0860941 0
M  V30 8986 H 877.817 4.92111 -0.0935896 0
M  V30 8987 N 879.47 0.276058 1.55163 0
M  V30 8988 C 880.418 -0.626978 2.2399 0
M  V30 8989 C 881.412 -1.15708 1.23725 0
M  V30 8990 O 882.618 -1.1106 1.41653 0
M  V30 8991 H 878.993 -0.220742 0.718872 0
M  V30 8992 H 880.964 -0.0236569 2.98391 0
M  V30 8993 C 879.713 -1.79935 2.97521 0
M  V30 8994 H 879.036 -1.40064 3.74463 0
M  V30 8995 H 880.476 -2.40781 3.48999 0
M  V30 8996 C 878.935 -2.68838 2.03046 0
M  V30 8997 O 879.465 -3.69224 1.58229 0
M  V30 8998 N 877.671 -2.36028 1.69527 0
M  V30 8999 H 877.218 -1.54442 2.06169 0
M  V30 9000 H 877.176 -2.95782 1.06586 0
M  V30 9001 N 880.948 -1.576 0.00335426 0
M  V30 9002 C 882.194 -1.90996 -0.681799 0
M  V30 9003 C 882.527 -0.877643 -1.73237 0
M  V30 9004 O 881.802 0.103183 -1.94226 0
M  V30 9005 C 882.085 -3.34961 -1.32187 0
M  V30 9006 C 881.938 -4.48911 -0.28261 0
M  V30 9007 C 883.257 -3.78408 -2.24711 0
M  V30 9008 H 880.376 -0.694596 -0.246386 0
M  V30 9009 H 883.018 -1.89919 0.055336 0
M  V30 9010 H 881.168 -3.36008 -1.95014 0
M  V30 9011 H 882.84 -4.59999 0.346241 0
M  V30 9012 H 881.083 -4.32 0.394768 0
M  V30 9013 H 881.754 -5.46609 -0.769576 0
M  V30 9014 H 884.23 -3.78934 -1.71897 0
M  V30 9015 H 883.106 -4.79885 -2.66461 0
M  V30 9016 H 883.367 -3.12464 -3.1276 0
M  V30 9017 N 882.426 0.269451 -1.5528 0
M  V30 9018 C 883.651 1.02299 -1.80415 0
M  V30 9019 C 884.076 1.7902 -0.577363 0
M  V30 9020 O 883.434 1.75018 0.473125 0
M  V30 9021 C 883.482 1.95445 -3.0304 0
M  V30 9022 O 882.586 3.04271 -2.78375 0
M  V30 9023 H 881.927 0.292289 -0.596207 0
M  V30 9024 H 884.457 0.297282 -2.02429 0
M  V30 9025 H 884.467 2.37333 -3.31869 0
M  V30 9026 H 883.142 1.39017 -3.91978 0
M  V30 9027 H 881.719 2.66673 -2.60653 0
M  V30 9028 N 883.904 1.48273 0.534124 0
M  V30 9029 C 885.129 1.59988 1.31979 0
M  V30 9030 C 885.554 0.258824 1.86311 0
M  V30 9031 O 884.912 -0.768885 1.64188 0
M  V30 9032 C 884.96 2.64642 2.44943 0
M  V30 9033 O 884.064 2.21515 3.47858 0
M  V30 9034 H 883.405 0.536625 0.391063 0
M  V30 9035 H 885.935 1.94229 0.643135 0
M  V30 9036 H 885.945 2.85786 2.91187 0
M  V30 9037 H 884.62 3.62004 2.04758 0
M  V30 9038 H 883.197 2.10567 3.0776 0
M  V30 9039 N 885.382 -0.782676 1.36792 0
M  V30 9040 C 886.793 -1.35828 1.28092 0
M  V30 9041 C 887.144 -1.96052 -0.076315 0
M  V30 9042 O 886.269 -1.93042 -0.977935 0
M  V30 9043 C 886.864 -2.46949 2.31952 0
M  V30 9044 C 885.423 -3.00307 2.2692 0
M  V30 9045 C 884.57 -1.73436 2.16368 0
M  V30 9046 H 887.521 -0.583788 1.47572 0
M  V30 9047 H 887.542 -3.26144 1.95986 0
M  V30 9048 H 887.054 -2.03087 3.30722 0
M  V30 9049 H 885.155 -3.48571 1.31639 0
M  V30 9050 H 885.268 -3.56663 3.19887 0
M  V30 9051 H 883.632 -1.95934 1.62733 0
M  V30 9052 H 884.415 -1.31693 3.17036 0
M  V30 9053 N 886.86 -1.21182 -1.00761 0
M  V30 9054 C 887.792 -0.926523 -2.09638 0
M  V30 9055 C 888.805 0.0892511 -1.62555 0
M  V30 9056 O 889.994 -0.142915 -1.77927 0
M  V30 9057 C 887.094 -0.369175 -3.36883 0
M  V30 9058 C 886.267 -1.43866 -4.13063 0
M  V30 9059 C 885.326 -0.891015 -5.18601 0
M  V30 9060 O 884.352 -1.57384 -5.47009 0
M  V30 9061 N 885.554 0.295057 -5.7975 0
M  V30 9062 H 888.319 -1.8638 -2.34697 0
M  V30 9063 H 885.88 -1.11671 -1.17223 0
M  V30 9064 H 887.872 0.011534 -4.04698 0
M  V30 9065 H 886.442 0.472861 -3.09003 0
M  V30 9066 H 885.662 -1.99332 -3.40089 0
M  V30 9067 H 886.95 -2.15866 -4.60738 0
M  V30 9068 H 886.348 0.8669 -5.59018 0
M  V30 9069 H 884.905 0.617306 -6.4887 0
M  V30 9070 N 888.338 1.20213 -1.01915 0
M  V30 9071 C 889.301 2.21307 -0.596327 0
M  V30 9072 C 890.301 1.57274 0.334879 0
M  V30 9073 O 891.491 1.73764 0.12322 0
M  V30 9074 C 888.623 3.40657 0.128808 0
M  V30 9075 H 889.816 2.60228 -1.49068 0
M  V30 9076 H 887.369 1.33721 -0.809226 0
M  V30 9077 H 888.104 3.07241 1.03796 0
M  V30 9078 H 887.889 3.88361 -0.540183 0
M  V30 9079 H 889.379 4.15564 0.411892 0
M  V30 9080 N 889.816 0.795718 1.36037 0
M  V30 9081 C 891.232 0.478145 1.52269 0
M  V30 9082 C 891.432 -1.0025 1.74792 0
M  V30 9083 O 890.488 -1.78783 1.78305 0
M  V30 9084 C 891.801 1.31406 2.70468 0
M  V30 9085 C 893.349 1.3084 2.84341 0
M  V30 9086 C 893.824 2.12819 4.05551 0
M  V30 9087 N 895.315 2.10298 4.12709 0
M  V30 9088 C 896.05 2.70495 5.05589 0
M  V30 9089 N 895.546 3.39576 6.03871 0
M  V30 9090 N 897.339 2.60195 4.98252 0
M  V30 9091 H 889.49 1.75477 1.19673 0
M  V30 9092 H 891.753 0.74627 0.584624 0
M  V30 9093 H 891.459 2.36435 2.60368 0
M  V30 9094 H 891.333 0.959726 3.64786 0
M  V30 9095 H 893.72 0.266003 2.93899 0
M  V30 9096 H 893.801 1.70254 1.90912 0
M  V30 9097 H 893.445 3.17093 3.96755 0
M  V30 9098 H 893.375 1.70772 4.98141 0
M  V30 9099 H 895.866 1.60026 3.42345 0
M  V30 9100 H 896.179 3.82823 6.71317 0
M  V30 9101 H 894.524 3.43679 6.04077 0
M  V30 9102 H 897.715 2.05823 4.20422 0
M  V30 9103 H 897.888 3.074 5.70447 0
M  V30 9104 N 891.294 -1.47756 0.548274 0
M  V30 9105 C 892.522 -2.06884 0.0254873 0
M  V30 9106 C 892.937 -1.40225 -1.26422 0
M  V30 9107 O 892.294 -0.495776 -1.75637 0
M  V30 9108 C 892.345 -3.61036 -0.183134 0
M  V30 9109 O 892.066 -4.25195 1.05549 0
M  V30 9110 C 893.567 -4.37008 -0.744222 0
M  V30 9111 H 890.787 -0.669697 0.041789 0
M  V30 9112 H 893.331 -1.89888 0.759138 0
M  V30 9113 H 891.486 -3.77576 -0.866886 0
M  V30 9114 H 891.9 -5.17606 0.847629 0
M  V30 9115 H 893.374 -5.45579 -0.839529 0
M  V30 9116 H 893.851 -4.0268 -1.75344 0
M  V30 9117 H 894.457 -4.25191 -0.0964542 0
M  V30 9118 N 892.772 -0.284283 -1.55015 0
M  V30 9119 C 893.735 0.586182 -2.21577 0
M  V30 9120 C 894.735 1.07427 -1.1965 0
M  V30 9121 O 895.925 0.972977 -1.44495 0
M  V30 9122 C 893.057 1.80973 -2.88897 0
M  V30 9123 H 894.25 0.00487253 -2.999 0
M  V30 9124 H 891.803 -0.0349696 -1.56261 0
M  V30 9125 H 892.538 2.43131 -2.14611 0
M  V30 9126 H 892.323 1.46757 -3.636 0
M  V30 9127 H 893.813 2.42853 -3.39724 0
M  V30 9128 N 894.251 1.57596 -0.0117121 0
M  V30 9129 C 895.181 2.12188 0.9746 0
M  V30 9130 C 896.162 1.03379 1.35081 0
M  V30 9131 O 897.347 1.31123 1.4325 0
M  V30 9132 C 894.477 2.63477 2.26268 0
M  V30 9133 C 893.431 3.76917 2.02774 0
M  V30 9134 C 892.757 4.14566 3.37697 0
M  V30 9135 C 894.057 5.03715 1.38089 0
M  V30 9136 H 895.751 2.9485 0.520007 0
M  V30 9137 H 893.297 1.41836 0.248685 0
M  V30 9138 H 895.25 3.00299 2.95633 0
M  V30 9139 H 893.974 1.77953 2.73862 0
M  V30 9140 H 892.633 3.40507 1.35832 0
M  V30 9141 H 892.281 3.26048 3.83016 0
M  V30 9142 H 891.981 4.91 3.22789 0
M  V30 9143 H 893.505 4.53956 4.08358 0
M  V30 9144 H 894.919 5.38233 1.97428 0
M  V30 9145 H 893.316 5.85032 1.33634 0
M  V30 9146 H 894.386 4.83624 0.351575 0
M  V30 9147 N 895.729 -0.261212 1.5542 0
M  V30 9148 C 896.659 -1.32712 1.92119 0
M  V30 9149 C 897.64 -1.50934 0.784406 0
M  V30 9150 O 898.825 -1.63781 1.04352 0
M  V30 9151 C 895.955 -2.68453 2.20341 0
M  V30 9152 C 894.909 -2.64947 3.36136 0
M  V30 9153 C 894.235 -4.04349 3.49865 0
M  V30 9154 C 895.535 -2.23182 4.72215 0
M  V30 9155 H 897.229 -1.02245 2.81401 0
M  V30 9156 H 894.775 -0.490406 1.35392 0
M  V30 9157 H 896.728 -3.43144 2.44603 0
M  V30 9158 H 895.452 -3.00527 1.27871 0
M  V30 9159 H 894.111 -1.92714 3.11861 0
M  V30 9160 H 893.759 -4.33665 2.5484 0
M  V30 9161 H 893.459 -4.02895 4.27726 0
M  V30 9162 H 894.983 -4.80761 3.76432 0
M  V30 9163 H 896.397 -2.87599 4.95943 0
M  V30 9164 H 894.794 -2.32867 5.53076 0
M  V30 9165 H 895.864 -1.18327 4.70241 0
M  V30 9166 N 897.207 -1.48554 -0.526253 0
M  V30 9167 C 898.435 -1.60429 -1.30652 0
M  V30 9168 C 898.85 -0.265963 -1.86917 0
M  V30 9169 O 898.207 0.745262 -1.6659 0
M  V30 9170 C 898.258 -2.65377 -2.45473 0
M  V30 9171 O 897.979 -3.94017 -1.91527 0
M  V30 9172 C 899.48 -2.87726 -3.37237 0
M  V30 9173 H 896.7 -0.540817 -0.397187 0
M  V30 9174 H 899.244 -1.94409 -0.634461 0
M  V30 9175 H 897.399 -2.34246 -3.08557 0
M  V30 9176 H 897.813 -4.51623 -2.66715 0
M  V30 9177 H 899.287 -3.64951 -4.14144 0
M  V30 9178 H 899.764 -1.96688 -3.92696 0
M  V30 9179 H 900.37 -3.20176 -2.79942 0
M  V30 9180 N 898.685 0.775411 -1.37205 0
M  V30 9181 C 899.933 1.53081 -1.3195 0
M  V30 9182 C 900.254 1.9476 0.0966864 0
M  V30 9183 O 899.524 1.66019 1.03993 0
M  V30 9184 H 898.104 0.567762 -0.485444 0
M  V30 9185 H 900.766 0.92309 -1.71654 0
M  V30 9186 H 899.862 2.4319 -1.95614 0
M  V30 9187 N 900.163 1.21714 1.00117 0
M  V30 9188 C 901.093 1.00397 2.10815 0
M  V30 9189 C 902.074 -0.0723502 1.69946 0
M  V30 9190 O 903.259 0.0882398 1.93999 0
M  V30 9191 C 900.389 0.572001 3.42557 0
M  V30 9192 C 899.343 1.59331 3.97237 0
M  V30 9193 C 898.669 1.01746 5.2493 0
M  V30 9194 C 899.969 2.98117 4.28863 0
M  V30 9195 H 901.663 1.92983 2.28906 0
M  V30 9196 H 899.209 0.929273 1.10002 0
M  V30 9197 H 901.162 0.410018 4.19401 0
M  V30 9198 H 899.886 -0.38951 3.24269 0
M  V30 9199 H 898.545 1.74293 3.22518 0
M  V30 9200 H 898.193 0.0475491 5.02978 0
M  V30 9201 H 897.893 1.69969 5.62481 0
M  V30 9202 H 899.417 0.866881 6.04415 0
M  V30 9203 H 900.831 2.86578 4.96534 0
M  V30 9204 H 899.228 3.63389 4.77565 0
M  V30 9205 H 900.298 3.48674 3.36979 0
M  V30 9206 N 901.641 -1.19671 1.02551 0
M  V30 9207 C 902.869 -1.93233 0.739513 0
M  V30 9208 C 903.284 -1.75298 -0.701158 0
M  V30 9209 O 902.641 -1.07269 -1.47647 0
M  V30 9210 C 902.692 -3.45085 1.07697 0
M  V30 9211 O 902.413 -3.62441 2.46106 0
M  V30 9212 C 903.914 -4.35776 0.813298 0
M  V30 9213 H 901.134 -0.613905 0.270853 0
M  V30 9214 H 903.678 -1.51909 1.36909 0
M  V30 9215 H 901.833 -3.84255 0.492635 0
M  V30 9216 H 902.247 -4.56337 2.58567 0
M  V30 9217 H 903.721 -5.40941 1.09941 0
M  V30 9218 H 904.198 -4.38474 -0.252359 0
M  V30 9219 H 904.804 -4.02282 1.38021 0
M  V30 9220 N 903.119 -0.802921 -1.35613 0
M  V30 9221 C 904.53 -0.443004 -1.81368 0
M  V30 9222 C 904.881 1.03459 -1.66706 0
M  V30 9223 O 904.006 1.80372 -1.19561 0
M  V30 9224 C 904.601 -0.797324 -3.29284 0
M  V30 9225 C 903.16 -0.490055 -3.73196 0
M  V30 9226 C 902.307 -1.02487 -2.57666 0
M  V30 9227 H 905.258 -0.994888 -1.23643 0
M  V30 9228 H 905.279 -0.0934638 -3.80385 0
M  V30 9229 H 904.791 -1.87278 -3.39924 0
M  V30 9230 H 902.892 0.576818 -3.68108 0
M  V30 9231 H 903.005 -1.02012 -4.68114 0
M  V30 9232 H 901.369 -0.44738 -2.5074 0
M  V30 9233 H 902.152 -2.10636 -2.71085 0
M  V30 9234 N 904.597 1.47463 -0.556102 0
M  V30 9235 C 905.845 2.02075 -0.0315712 0
M  V30 9236 C 906.166 1.43292 1.32259 0
M  V30 9237 O 905.436 0.60771 1.86236 0
M  V30 9238 H 904.016 0.74695 -0.0086816 0
M  V30 9239 H 906.678 1.80879 -0.725859 0
M  V30 9240 H 905.774 3.12047 0.0573538 0
M  V30 9241 N 906.075 0.2925 1.54862 0
M  V30 9242 C 907.303 -0.322113 2.04377 0
M  V30 9243 C 907.718 -1.48164 1.17016 0
M  V30 9244 O 907.075 -1.81466 0.19395 0
M  V30 9245 C 907.126 -0.786506 3.5284 0
M  V30 9246 O 906.847 0.326863 4.36879 0
M  V30 9247 C 908.348 -1.46715 4.18318 0
M  V30 9248 H 905.568 -0.0712074 0.667211 0
M  V30 9249 H 908.112 0.429657 1.99935 0
M  V30 9250 H 906.267 -1.48832 3.5767 0
M  V30 9251 H 906.681 -0.0331558 5.2449 0
M  V30 9252 H 908.155 -1.74333 5.23748 0
M  V30 9253 H 908.632 -2.40443 3.67538 0
M  V30 9254 H 909.238 -0.808735 4.1754 0
M  V30 9255 N 907.553 -1.57587 0.0200696 0
M  V30 9256 C 908.503 -2.0616 -0.973751 0
M  V30 9257 C 909.487 -0.960282 -1.29102 0
M  V30 9258 O 910.679 -1.22391 -1.27865 0
M  V30 9259 C 907.808 -2.58487 -2.25919 0
M  V30 9260 C 906.894 -3.75533 -1.97068 0
M  V30 9261 N 907.285 -4.86482 -1.38451 0
M  V30 9262 C 905.583 -3.83847 -2.27107 0
M  V30 9263 C 906.284 -5.67773 -1.26527 0
M  V30 9264 N 905.26 -5.14398 -1.75772 0
M  V30 9265 H 909.062 -2.89346 -0.515365 0
M  V30 9266 H 906.576 -1.61341 -0.185163 0
M  V30 9267 H 908.573 -2.91572 -2.97979 0
M  V30 9268 H 907.233 -1.76728 -2.72392 0
M  V30 9269 H 908.244 -5.06922 -1.06069 0
M  V30 9270 H 904.921 -3.12978 -2.76316 0
M  V30 9271 H 906.311 -6.66966 -0.812785 0
M  V30 9272 N 909.032 0.252966 -1.55557 0
M  V30 9273 C 910.262 0.998115 -1.8089 0
M  V30 9274 C 910.67 1.79679 -0.592623 0
M  V30 9275 O 910.013 1.78151 0.448093 0
M  V30 9276 C 910.075 1.98878 -2.99479 0
M  V30 9277 C 909.739 1.37761 -4.35742 0
M  V30 9278 C 910.736 0.783142 -5.13968 0
M  V30 9279 C 908.421 1.39879 -4.8243 0
M  V30 9280 C 910.415 0.218004 -6.37027 0
M  V30 9281 C 908.102 0.829801 -6.0544 0
M  V30 9282 C 909.1 0.240426 -6.82577 0
M  V30 9283 O 908.788 -0.319797 -8.03264 0
M  V30 9284 H 908.52 0.29963 -0.605969 0
M  V30 9285 H 911.074 0.282978 -2.03441 0
M  V30 9286 H 909.304 2.74206 -2.72669 0
M  V30 9287 H 910.993 2.59686 -3.11959 0
M  V30 9288 H 911.759 0.759326 -4.79019 0
M  V30 9289 H 907.638 1.84692 -4.22386 0
M  V30 9290 H 911.182 -0.242654 -6.97178 0
M  V30 9291 H 907.079 0.850924 -6.39867 0
M  V30 9292 H 907.847 -0.211078 -8.18228 0
M  V30 9293 N 910.51 1.48831 0.518367 0
M  V30 9294 C 911.442 1.60317 1.63802 0
M  V30 9295 C 912.455 0.486771 1.55352 0
M  V30 9296 O 913.644 0.758111 1.61601 0
M  V30 9297 C 910.744 1.52771 3.02513 0
M  V30 9298 C 909.917 2.79649 3.36326 0
M  V30 9299 C 908.976 2.65396 4.54369 0
M  V30 9300 O 908.002 3.39304 4.57013 0
M  V30 9301 N 909.204 1.75784 5.53245 0
M  V30 9302 H 911.969 2.56878 1.54383 0
M  V30 9303 H 909.53 1.45701 0.705889 0
M  V30 9304 H 911.522 1.40914 3.79375 0
M  V30 9305 H 910.092 0.641381 3.05949 0
M  V30 9306 H 909.312 3.05985 2.48529 0
M  V30 9307 H 910.6 3.63799 3.55707 0
M  V30 9308 H 909.998 1.14961 5.53896 0
M  V30 9309 H 908.555 1.69859 6.29278 0
M  V30 9310 N 911.988 -0.768124 1.37614 0
M  V30 9311 C 912.918 -1.89537 1.36374 0
M  V30 9312 C 913.899 -1.68513 0.231803 0
M  V30 9313 O 915.084 -1.89318 0.432705 0
M  V30 9314 C 912.214 -3.26871 1.17358 0
M  V30 9315 C 911.168 -3.62466 2.27602 0
M  V30 9316 C 910.494 -4.9838 1.93705 0
M  V30 9317 C 911.794 -3.68841 3.69802 0
M  V30 9318 H 913.488 -1.90832 2.30702 0
M  V30 9319 H 911.034 -0.91672 1.11051 0
M  V30 9320 H 912.987 -4.05371 1.15119 0
M  V30 9321 H 911.711 -3.26018 0.194865 0
M  V30 9322 H 910.37 -2.86276 2.29002 0
M  V30 9323 H 910.018 -4.94071 0.943539 0
M  V30 9324 H 909.718 -5.23165 2.6753 0
M  V30 9325 H 911.242 -5.79276 1.93059 0
M  V30 9326 H 912.656 -4.37485 3.70513 0
M  V30 9327 H 911.053 -4.05126 4.42711 0
M  V30 9328 H 912.123 -2.69415 4.03167 0
M  V30 9329 N 913.466 -1.22244 -0.994698 0
M  V30 9330 C 914.743 -0.954459 -1.70732 0
M  V30 9331 C 915.123 0.530945 -2.04314 0
M  V30 9332 O 914.471 1.49851 -1.72502 0
M  V30 9333 C 914.681 -1.85016 -2.95922 0
M  V30 9334 C 916.029 -2.10517 -3.68738 0
M  V30 9335 O 917.053 -1.82449 -3.05926 0
M  V30 9336 O 915.912 -2.58044 -4.81742 0
M  V30 9337 H 913.006 -0.35879 -0.745116 0
M  V30 9338 H 915.552 -1.33221 -1.0512 0
M  V30 9339 H 914.324 -2.85498 -2.67594 0
M  V30 9340 H 913.947 -1.47388 -3.69273 0
M  V30 9341 N 914.944 1.19125 -1.03184 0
M  V30 9342 C 916.19 1.89163 -0.731111 0
M  V30 9343 C 916.523 1.79604 0.738662 0
M  V30 9344 O 915.798 1.19037 1.53819 0
M  V30 9345 C 916.081 3.39986 -1.18666 0
M  V30 9346 C 915.934 3.58401 -2.71788 0
M  V30 9347 C 917.253 4.33316 -0.769772 0
M  V30 9348 H 914.372 0.686908 -0.267069 0
M  V30 9349 H 917.014 1.40205 -1.28229 0
M  V30 9350 H 915.164 3.81813 -0.717736 0
M  V30 9351 H 916.836 3.25727 -3.26649 0
M  V30 9352 H 915.079 3.01355 -3.12038 0
M  V30 9353 H 915.75 4.64189 -2.98719 0
M  V30 9354 H 918.226 3.9922 -1.17314 0
M  V30 9355 H 917.102 5.37427 -1.11637 0
M  V30 9356 H 917.363 4.40884 0.327681 0
M  V30 9357 N 916.422 0.810101 1.35185 0
M  V30 9358 C 917.354 0.180581 2.28488 0
M  V30 9359 C 918.367 -0.622154 1.50443 0
M  V30 9360 O 919.556 -0.453938 1.72632 0
M  V30 9361 C 916.656 -0.766447 3.30119 0
M  V30 9362 C 915.829 -0.00932028 4.37399 0
M  V30 9363 C 914.888 -0.875354 5.18868 0
M  V30 9364 O 913.914 -0.325012 5.68271 0
M  V30 9365 N 915.116 -2.19695 5.37321 0
M  V30 9366 H 917.881 0.98212 2.83151 0
M  V30 9367 H 915.442 0.665879 1.47573 0
M  V30 9368 H 917.434 -1.35012 3.81515 0
M  V30 9369 H 916.004 -1.46878 2.75945 0
M  V30 9370 H 915.224 0.755585 3.86891 0
M  V30 9371 H 916.512 0.512352 5.06214 0
M  V30 9372 H 915.91 -2.66797 4.98834 0
M  V30 9373 H 914.467 -2.72978 5.91884 0
M  V30 9374 N 917.9 -1.47166 0.563914 0
M  V30 9375 C 918.83 -2.32894 -0.168148 0
M  V30 9376 C 919.811 -1.44202 -0.902214 0
M  V30 9377 O 920.996 -1.73048 -0.881365 0
M  V30 9378 C 918.126 -3.26116 -1.19439 0
M  V30 9379 C 917.08 -4.24101 -0.576363 0
M  V30 9380 C 916.406 -5.06696 -1.70772 0
M  V30 9381 C 917.706 -5.20142 0.47425 0
M  V30 9382 H 919.4 -2.9435 0.547573 0
M  V30 9383 H 916.946 -1.41545 0.264778 0
M  V30 9384 H 918.899 -3.84935 -1.71474 0
M  V30 9385 H 917.623 -2.62728 -1.94014 0
M  V30 9386 H 916.282 -3.66519 -0.0772534 0
M  V30 9387 H 915.93 -4.39707 -2.44268 0
M  V30 9388 H 915.63 -5.7304 -1.29994 0
M  V30 9389 H 917.154 -5.68375 -2.2312 0
M  V30 9390 H 918.568 -5.73286 0.0397035 0
M  V30 9391 H 916.965 -5.94726 0.801287 0
M  V30 9392 H 918.035 -4.65214 1.36764 0
M  V30 9393 N 919.378 -0.300708 -1.54705 0
M  V30 9394 C 920.608 0.310819 -2.04249 0
M  V30 9395 C 921.016 1.4809 -1.17754 0
M  V30 9396 O 920.359 1.82654 -0.195779 0
M  V30 9397 C 920.421 0.83014 -3.49784 0
M  V30 9398 C 920.085 -0.214628 -4.56496 0
M  V30 9399 C 921.082 -1.04298 -5.09331 0
M  V30 9400 C 918.767 -0.356242 -5.01035 0
M  V30 9401 C 920.761 -1.99889 -6.05246 0
M  V30 9402 C 918.448 -1.3156 -5.96771 0
M  V30 9403 C 919.446 -2.1354 -6.4876 0
M  V30 9404 O 919.134 -3.07849 -7.4262 0
M  V30 9405 H 918.866 0.0715341 -0.672204 0
M  V30 9406 H 921.42 -0.438179 -2.00672 0
M  V30 9407 H 919.65 1.62966 -3.50684 0
M  V30 9408 H 921.339 1.35752 -3.82526 0
M  V30 9409 H 922.105 -0.944439 -4.75716 0
M  V30 9410 H 917.984 0.271916 -4.60197 0
M  V30 9411 H 921.528 -2.63917 -6.45751 0
M  V30 9412 H 917.425 -1.41486 -6.29803 0
M  V30 9413 H 918.193 -3.02824 -7.60421 0
M  V30 9414 N 920.856 1.57574 -0.0284266 0
M  V30 9415 C 921.806 2.06674 0.962804 0
M  V30 9416 C 922.79 0.967115 1.28591 0
M  V30 9417 O 923.982 1.23068 1.27214 0
M  V30 9418 C 921.111 2.59682 2.24545 0
M  V30 9419 C 920.197 3.76573 1.95073 0
M  V30 9420 N 920.588 4.8721 1.35869 0
M  V30 9421 C 918.886 3.85046 2.25068 0
M  V30 9422 C 919.587 5.68436 1.23514 0
M  V30 9423 N 918.563 5.15323 1.73041 0
M  V30 9424 H 922.365 2.89615 0.500013 0
M  V30 9425 H 919.879 1.61437 0.176604 0
M  V30 9426 H 921.876 2.93148 2.96428 0
M  V30 9427 H 920.536 1.7817 2.71451 0
M  V30 9428 H 921.547 5.07477 1.03379 0
M  V30 9429 H 918.224 3.14439 2.74653 0
M  V30 9430 H 919.614 6.67387 0.777403 0
M  V30 9431 N 922.334 -0.244713 1.55689 0
M  V30 9432 C 923.574 -0.979776 1.79387 0
M  V30 9433 C 923.938 -1.8244 0.598298 0
M  V30 9434 O 925.139 -2.59141 0.7141 0
M  V30 9435 C 923.41 -1.81573 3.07841 0
M  V30 9436 S 924.969 -2.60959 3.52769 0
M  V30 9437 H 921.787 -0.329526 0.630027 0
M  V30 9438 H 924.389 -0.247435 1.93928 0
M  V30 9439 H 923.093 -1.18497 3.92921 0
M  V30 9440 H 922.624 -2.59078 2.96044 0
M  V30 9441 H 924.639 -3.83987 3.14275 0
M  V30 9442 N 923.813 -1.49104 -0.510467 0
M  V30 9443 C 925.041 -1.61806 -1.28944 0
M  V30 9444 C 925.456 -0.285774 -1.86625 0
M  V30 9445 O 924.813 0.727551 -1.67371 0
M  V30 9446 C 924.864 -2.67966 -2.42645 0
M  V30 9447 O 924.585 -3.96026 -1.87337 0
M  V30 9448 C 926.086 -2.91286 -3.34166 0
M  V30 9449 H 923.306 -0.544999 -0.391429 0
M  V30 9450 H 925.85 -1.95071 -0.613805 0
M  V30 9451 H 924.005 -2.37505 -3.06056 0
M  V30 9452 H 924.419 -4.54427 -2.61909 0
M  V30 9453 H 925.893 -3.69323 -4.1025 0
M  V30 9454 H 926.37 -2.00842 -3.90588 0
M  V30 9455 H 926.976 -3.23127 -2.76531 0
M  V30 9456 N 925.291 0.760815 -1.38019 0
M  V30 9457 C 926.221 1.88811 -1.37377 0
M  V30 9458 C 927.202 1.68388 -0.240737 0
M  V30 9459 O 928.387 1.89086 -0.442739 0
M  V30 9460 C 925.517 3.26244 -1.1909 0
M  V30 9461 C 924.471 3.61254 -2.29521 0
M  V30 9462 C 923.797 4.97346 -1.96345 0
M  V30 9463 C 925.097 3.66874 -3.71753 0
M  V30 9464 H 926.791 1.89606 -2.31711 0
M  V30 9465 H 924.337 0.910818 -1.11535 0
M  V30 9466 H 926.29 4.04755 -1.17267 0
M  V30 9467 H 925.014 3.2591 -0.212152 0
M  V30 9468 H 923.673 2.85057 -2.30517 0
M  V30 9469 H 923.321 4.93564 -0.969728 0
M  V30 9470 H 923.021 5.21739 -2.703 0
M  V30 9471 H 924.545 5.78244 -1.96129 0
M  V30 9472 H 925.959 4.35514 -3.72828 0
M  V30 9473 H 924.356 4.02772 -4.44853 0
M  V30 9474 H 925.426 2.67273 -4.0459 0
M  V30 9475 N 926.769 1.22769 0.988202 0
M  V30 9476 C 927.699 1.02627 2.09738 0
M  V30 9477 C 928.68 -0.0543211 1.70013 0
M  V30 9478 O 929.865 0.108811 1.93895 0
M  V30 9479 C 926.995 0.608302 3.41931 0
M  V30 9480 C 925.949 1.63536 3.95525 0
M  V30 9481 C 925.275 1.07308 5.23822 0
M  V30 9482 C 926.575 3.02649 4.25677 0
M  V30 9483 H 928.269 1.954 2.26847 0
M  V30 9484 H 925.815 0.940888 1.09011 0
M  V30 9485 H 927.768 0.454478 4.18942 0
M  V30 9486 H 926.492 -0.355095 3.24664 0
M  V30 9487 H 925.151 1.77704 3.20651 0
M  V30 9488 H 924.799 0.100894 5.02899 0
M  V30 9489 H 924.499 1.75925 5.60646 0
M  V30 9490 H 926.023 0.930938 6.03462 0
M  V30 9491 H 927.437 2.91828 4.93467 0
M  V30 9492 H 925.834 3.68434 4.73684 0
M  V30 9493 H 926.904 3.52228 3.33262 0
M  V30 9494 N 928.247 -1.18576 1.03814 0
M  V30 9495 C 929.495 -1.88121 0.738574 0
M  V30 9496 C 929.816 -1.80587 -0.735744 0
M  V30 9497 O 929.086 -1.22251 -1.53074 0
M  V30 9498 H 927.666 -0.696417 0.270208 0
M  V30 9499 H 930.328 -1.43912 1.31435 0
M  V30 9500 H 929.424 -2.94222 1.04115 0
M  V30 9501 N 929.725 -0.817259 -1.34754 0
M  V30 9502 C 931.136 -0.462215 -1.80888 0
M  V30 9503 C 931.487 1.01685 -1.67794 0
M  V30 9504 O 930.612 1.79094 -1.21468 0
M  V30 9505 C 931.207 -0.832204 -3.2842 0
M  V30 9506 C 929.766 -0.52961 -3.72655 0
M  V30 9507 C 928.913 -1.05214 -2.56564 0
M  V30 9508 H 931.864 -1.00795 -1.22581 0
M  V30 9509 H 931.885 -0.133804 -3.80265 0
M  V30 9510 H 931.397 -1.90873 -3.37919 0
M  V30 9511 H 929.498 0.537743 -3.68699 0
M  V30 9512 H 929.611 -1.06971 -4.67005 0
M  V30 9513 H 927.975 -0.473949 -2.50251 0
M  V30 9514 H 928.758 -2.135 -2.68836 0
M  V30 9515 N 931.203 1.46865 -0.571711 0
M  V30 9516 C 932.166 2.28658 0.157499 0
M  V30 9517 C 933.166 1.37773 0.829172 0
M  V30 9518 O 934.356 1.6026 0.682811 0
M  V30 9519 C 931.488 3.17859 1.23202 0
M  V30 9520 H 932.681 2.94603 -0.561171 0
M  V30 9521 H 930.234 1.52793 -0.329229 0
M  V30 9522 H 930.969 2.56637 1.98262 0
M  V30 9523 H 930.754 3.84762 0.755031 0
M  V30 9524 H 932.244 3.7945 1.74378 0
M  V30 9525 N 932.681 0.308908 1.54543 0
M  V30 9526 C 933.906 -0.303196 2.05172 0
M  V30 9527 C 934.331 -1.46133 1.18434 0
M  V30 9528 O 933.689 -1.803 0.190162 0
M  V30 9529 C 933.737 -0.729526 3.53143 0
M  V30 9530 O 932.841 -1.83348 3.69401 0
M  V30 9531 H 932.182 -0.0575066 0.661505 0
M  V30 9532 H 934.712 0.453055 1.99521 0
M  V30 9533 H 934.722 -1.01619 3.95143 0
M  V30 9534 H 933.397 0.117622 4.15734 0
M  V30 9535 H 931.974 -1.54676 3.39308 0
M  V30 9536 N 934.159 -1.57557 0.0367827 0
M  V30 9537 C 935.57 -1.79853 -0.500971 0
M  V30 9538 C 935.921 -0.947749 -1.71791 0
M  V30 9539 O 935.046 -0.160287 -2.15806 0
M  V30 9540 C 935.641 -3.26193 -0.915626 0
M  V30 9541 C 934.2 -3.49457 -1.39845 0
M  V30 9542 C 933.347 -2.74864 -0.366784 0
M  V30 9543 H 936.298 -1.56509 0.262768 0
M  V30 9544 H 936.319 -3.36324 -1.7795 0
M  V30 9545 H 935.831 -3.88089 -0.0297227 0
M  V30 9546 H 933.932 -2.92823 -2.30402 0
M  V30 9547 H 934.045 -4.58172 -1.40054 0
M  V30 9548 H 932.409 -2.4057 -0.836554 0
M  V30 9549 H 933.192 -3.39479 0.510785 0
M  V30 9550 N 935.637 0.236453 -1.55816 0
M  V30 9551 C 937.048 0.80468 -1.68469 0
M  V30 9552 C 937.399 1.85601 -0.636133 0
M  V30 9553 O 936.524 2.15323 0.215622 0
M  V30 9554 C 937.119 1.46634 -3.05424 0
M  V30 9555 C 935.678 1.98214 -3.19981 0
M  V30 9556 C 934.825 0.83695 -2.64368 0
M  V30 9557 H 937.776 0.0120647 -1.58695 0
M  V30 9558 H 937.797 2.33472 -3.00451 0
M  V30 9559 H 937.309 0.700931 -3.81718 0
M  V30 9560 H 935.41 2.77604 -2.4853 0
M  V30 9561 H 935.523 2.17235 -4.2702 0
M  V30 9562 H 933.887 1.24028 -2.22462 0
M  V30 9563 H 934.67 0.084451 -3.43196 0
M  V30 9564 N 937.115 1.49373 0.502552 0
M  V30 9565 C 938.078 1.65413 1.58654 0
M  V30 9566 C 939.078 0.526003 1.51953 0
M  V30 9567 O 940.268 0.792421 1.55133 0
M  V30 9568 C 937.4 1.65005 2.98306 0
M  V30 9569 H 938.593 2.62095 1.45762 0
M  V30 9570 H 936.146 1.38381 0.726672 0
M  V30 9571 H 936.881 0.699014 3.16677 0
M  V30 9572 H 936.666 2.46931 3.04578 0
M  V30 9573 H 938.156 1.79477 3.77065 0
M  V30 9574 N 938.594 -0.753485 1.38421 0
M  V30 9575 C 939.544 -1.85788 1.32162 0
M  V30 9576 C 940.528 -1.59577 0.20588 0
M  V30 9577 O 941.72 -1.71396 0.44186 0
M  V30 9578 C 938.849 -3.23498 1.14909 0
M  V30 9579 C 937.935 -3.556 2.31105 0
M  V30 9580 N 938.326 -3.58759 3.56547 0
M  V30 9581 C 936.624 -3.85866 2.23659 0
M  V30 9582 C 937.325 -3.8813 4.33278 0
M  V30 9583 N 936.301 -4.04966 3.62635 0
M  V30 9584 H 940.103 -1.86509 2.27138 0
M  V30 9585 H 937.617 -0.950843 1.31654 0
M  V30 9586 H 939.614 -4.02531 1.08509 0
M  V30 9587 H 938.274 -3.24029 0.20866 0
M  V30 9588 H 939.285 -3.40517 3.90216 0
M  V30 9589 H 935.962 -3.94112 1.37776 0
M  V30 9590 H 937.352 -3.97197 5.41926 0
M  V30 9591 N 940.072 -1.23292 -0.981677 0
M  V30 9592 C 941.318 -1.06582 -1.72535 0
M  V30 9593 C 941.651 0.396538 -1.90108 0
M  V30 9594 O 940.926 1.29363 -1.45243 0
M  V30 9595 C 941.209 -1.7904 -3.12437 0
M  V30 9596 C 941.062 -3.32941 -3.02441 0
M  V30 9597 C 942.381 -1.55185 -4.11832 0
M  V30 9598 H 939.5 -0.388585 -0.626236 0
M  V30 9599 H 942.142 -1.51779 -1.14293 0
M  V30 9600 H 940.292 -1.40619 -3.62158 0
M  V30 9601 H 941.964 -3.80875 -2.60254 0
M  V30 9602 H 940.207 -3.62039 -2.38977 0
M  V30 9603 H 940.878 -3.78827 -4.0149 0
M  V30 9604 H 943.354 -1.88581 -3.70913 0
M  V30 9605 H 942.23 -2.08362 -5.07815 0
M  V30 9606 H 942.491 -0.486925 -4.3941 0
M  V30 9607 N 941.55 1.18024 -1.04442 0
M  V30 9608 C 942.48 2.23988 -0.659683 0
M  V30 9609 C 943.461 1.6669 0.338904 0
M  V30 9610 O 944.646 1.92971 0.21817 0
M  V30 9611 C 941.776 3.4729 -0.0257672 0
M  V30 9612 C 940.73 4.17362 -0.948299 0
M  V30 9613 C 940.056 5.34401 -0.17866 0
M  V30 9614 C 941.356 4.70435 -2.26909 0
M  V30 9615 H 943.05 2.56425 -1.54553 0
M  V30 9616 H 940.596 1.23256 -0.744575 0
M  V30 9617 H 942.549 4.20627 0.255131 0
M  V30 9618 H 941.273 3.14098 0.894981 0
M  V30 9619 H 939.932 3.45928 -1.21364 0
M  V30 9620 H 939.58 4.97458 0.744614 0
M  V30 9621 H 939.28 5.8222 -0.793294 0
M  V30 9622 H 940.804 6.10526 0.0951315 0
M  V30 9623 H 942.218 5.35447 -2.04864 0
M  V30 9624 H 940.615 5.28803 -2.83703 0
M  V30 9625 H 941.685 3.87653 -2.91296 0
M  V30 9626 N 943.028 0.824394 1.34319 0
M  V30 9627 C 943.958 0.262077 2.32025 0
M  V30 9628 C 944.939 -0.622277 1.58309 0
M  V30 9629 O 946.124 -0.548848 1.86283 0
M  V30 9630 C 943.254 -0.57567 3.42496 0
M  V30 9631 C 942.208 0.21167 4.27476 0
M  V30 9632 C 941.534 -0.748913 5.29429 0
M  V30 9633 C 942.834 1.42068 5.02607 0
M  V30 9634 H 944.528 1.07842 2.79304 0
M  V30 9635 H 942.074 0.520022 1.34282 0
M  V30 9636 H 944.027 -0.979251 4.09864 0
M  V30 9637 H 942.751 -1.42508 2.93869 0
M  V30 9638 H 941.41 0.596636 3.61712 0
M  V30 9639 H 941.058 -1.59432 4.77064 0
M  V30 9640 H 940.758 -0.226313 5.87164 0
M  V30 9641 H 942.282 -1.15032 5.99667 0
M  V30 9642 H 943.696 1.09103 5.62823 0
M  V30 9643 H 942.093 1.87903 5.69923 0
M  V30 9644 H 943.163 2.1981 4.32217 0
M  V30 9645 N 944.506 -1.46559 0.579492 0
M  V30 9646 C 945.917 -1.8608 0.152052 0
M  V30 9647 C 946.268 -1.48346 -1.28405 0
M  V30 9648 O 945.393 -0.89685 -1.9694 0
M  V30 9649 C 945.988 -3.37729 0.269171 0
M  V30 9650 C 944.547 -3.76258 -0.103376 0
M  V30 9651 C 943.694 -2.70584 0.60659 0
M  V30 9652 H 946.645 -1.3776 0.787904 0
M  V30 9653 H 946.666 -3.77116 -0.506339 0
M  V30 9654 H 946.178 -3.65162 1.31448 0
M  V30 9655 H 944.279 -3.54443 -1.14895 0
M  V30 9656 H 944.392 -4.78335 0.270701 0
M  V30 9657 H 942.756 -2.54656 0.0471984 0
M  V30 9658 H 943.539 -3.00856 1.65349 0
M  V30 9659 N 945.984 -0.3171 -1.54377 0
M  V30 9660 C 947.395 0.172287 -1.85903 0
M  V30 9661 C 947.746 1.52141 -1.23885 0
M  V30 9662 O 946.871 2.0949 -0.542476 0
M  V30 9663 C 947.466 0.319392 -3.37291 0
M  V30 9664 C 946.025 0.752998 -3.68791 0
M  V30 9665 C 945.172 -0.129143 -2.76999 0
M  V30 9666 H 948.123 -0.537597 -1.49317 0
M  V30 9667 H 948.144 1.15137 -3.62662 0
M  V30 9668 H 947.656 -0.662671 -3.82401 0
M  V30 9669 H 945.757 1.74504 -3.2921 0
M  V30 9670 H 945.87 0.561228 -4.75801 0
M  V30 9671 H 944.234 0.394242 -2.5163 0
M  V30 9672 H 945.017 -1.10785 -3.24933 0
M  V30 9673 N 947.462 1.57535 -0.0451378 0
M  V30 9674 C 948.687 1.97172 0.64326 0
M  V30 9675 C 949.112 0.922266 1.63939 0
M  V30 9676 O 948.47 -0.115155 1.80934 0
M  V30 9677 C 948.518 3.35889 1.3119 0
M  V30 9678 O 947.622 3.33387 2.42748 0
M  V30 9679 H 946.963 0.642469 0.167719 0
M  V30 9680 H 949.493 2.04295 -0.111747 0
M  V30 9681 H 949.503 3.72481 1.66499 0
M  V30 9682 H 948.178 4.1181 0.581823 0
M  V30 9683 H 946.755 3.08533 2.09432 0
M  V30 9684 N 948.94 -0.228186 1.55939 0
M  V30 9685 C 950.188 -0.951668 1.78291 0
M  V30 9686 C 950.509 -1.85132 0.612474 0
M  V30 9687 O 949.779 -1.92356 -0.370942 0
M  V30 9688 H 948.359 -0.354388 0.657585 0
M  V30 9689 H 951.021 -0.241635 1.93396 0
M  V30 9690 H 950.117 -1.56239 2.70177 0
M  V30 9691 N 950.418 -1.49637 -0.494624 0
M  V30 9692 C 951.829 -1.52573 -1.07603 0
M  V30 9693 C 952.18 -0.315591 -1.93645 0
M  V30 9694 O 951.305 0.573966 -2.08649 0
M  V30 9695 C 951.9 -2.7648 -1.95817 0
M  V30 9696 C 950.459 -2.82173 -2.49109 0
M  V30 9697 C 949.606 -2.4657 -1.2688 0
M  V30 9698 H 952.557 -1.56242 -0.278251 0
M  V30 9699 H 952.578 -2.57003 -2.80588 0
M  V30 9700 H 952.09 -3.64538 -1.33167 0
M  V30 9701 H 950.191 -1.9841 -3.15379 0
M  V30 9702 H 950.304 -3.84501 -2.85825 0
M  V30 9703 H 948.668 -1.98489 -1.59607 0
M  V30 9704 H 949.451 -3.3691 -0.659281 0
M  V30 9705 N 951.896 0.746133 -1.38819 0
M  V30 9706 C 953.307 1.32384 -1.31648 0
M  V30 9707 C 953.658 1.96185 0.0243086 0
M  V30 9708 O 952.783 1.95567 0.92641 0
M  V30 9709 C 953.378 2.40712 -2.38418 0
M  V30 9710 C 951.937 2.94185 -2.34803 0
M  V30 9711 C 951.084 1.67639 -2.20891 0
M  V30 9712 H 954.035 0.544457 -1.49068 0
M  V30 9713 H 954.056 3.20833 -2.04564 0
M  V30 9714 H 953.568 1.94247 -3.3599 0
M  V30 9715 H 951.669 3.44959 -1.40834 0
M  V30 9716 H 951.782 3.48057 -3.29231 0
M  V30 9717 H 950.146 1.9155 -1.67871 0
M  V30 9718 H 950.929 1.23242 -3.20416 0
M  V30 9719 N 953.375 1.23811 0.975125 0
M  V30 9720 C 954.338 1.02505 2.05001 0
M  V30 9721 C 955.338 -0.0150084 1.60793 0
M  V30 9722 O 956.528 0.225246 1.72738 0
M  V30 9723 C 953.66 0.552087 3.364 0
M  V30 9724 H 954.853 1.979 2.25335 0
M  V30 9725 H 952.406 1.05929 1.1493 0
M  V30 9726 H 953.141 -0.405394 3.21756 0
M  V30 9727 H 952.926 1.30267 3.69828 0
M  V30 9728 H 954.416 0.423828 4.15444 0
M  V30 9729 N 954.853 -1.17469 1.05066 0
M  V30 9730 C 956.264 -1.69334 0.786304 0
M  V30 9731 C 956.615 -1.83604 -0.691671 0
M  V30 9732 O 955.74 -1.52269 -1.53763 0
M  V30 9733 C 956.335 -3.07572 1.42074 0
M  V30 9734 C 954.894 -3.56609 1.20446 0
M  V30 9735 C 954.041 -2.329 1.50508 0
M  V30 9736 H 956.992 -1.02003 1.21577 0
M  V30 9737 H 957.013 -3.71352 0.829334 0
M  V30 9738 H 956.525 -2.97154 2.49642 0
M  V30 9739 H 954.626 -3.72306 0.147968 0
M  V30 9740 H 954.739 -4.39446 1.90852 0
M  V30 9741 H 953.103 -2.37305 0.925124 0
M  V30 9742 H 953.886 -2.25093 2.59207 0
M  V30 9743 N 956.331 -0.831506 -1.3388 0
M  V30 9744 C 957.747 -0.518349 -1.50948 0
M  V30 9745 C 957.947 0.955807 -1.77388 0
M  V30 9746 O 957.003 1.73993 -1.82983 0
M  V30 9747 C 958.316 -1.38531 -2.66889 0
M  V30 9748 C 959.864 -1.38332 -2.80772 0
M  V30 9749 C 960.339 -2.23497 -3.99766 0
M  V30 9750 N 961.83 -2.21167 -4.06988 0
M  V30 9751 C 962.565 -2.83805 -4.98239 0
M  V30 9752 N 962.061 -3.55468 -5.94655 0
M  V30 9753 N 963.854 -2.73314 -4.91178 0
M  V30 9754 H 956.005 -1.78588 -1.14978 0
M  V30 9755 H 958.268 -0.761508 -0.564633 0
M  V30 9756 H 957.974 -2.43255 -2.54007 0
M  V30 9757 H 957.848 -1.05611 -3.62114 0
M  V30 9758 H 960.235 -0.343832 -2.9309 0
M  V30 9759 H 960.316 -1.75256 -1.86331 0
M  V30 9760 H 959.96 -3.27501 -3.88208 0
M  V30 9761 H 959.89 -1.83919 -4.93438 0
M  V30 9762 H 962.381 -1.69046 -3.37982 0
M  V30 9763 H 962.694 -4.00487 -6.60931 0
M  V30 9764 H 961.039 -3.59575 -5.94753 0
M  V30 9765 H 964.23 -2.16897 -4.14817 0
M  V30 9766 H 964.403 -3.22416 -5.62096 0
M  V30 9767 N 957.809 1.4625 -0.587256 0
M  V30 9768 C 958.759 2.27407 0.164393 0
M  V30 9769 C 959.743 1.36138 0.857628 0
M  V30 9770 O 960.935 1.60279 0.750973 0
M  V30 9771 C 958.064 3.22585 1.17447 0
M  V30 9772 C 957.15 4.21339 0.483121 0
M  V30 9773 N 957.541 5.03669 -0.46385 0
M  V30 9774 C 955.839 4.39931 0.73329 0
M  V30 9775 C 956.54 5.75182 -0.868334 0
M  V30 9776 N 955.516 5.43169 -0.216487 0
M  V30 9777 H 959.318 2.88453 -0.563237 0
M  V30 9778 H 956.832 1.57155 -0.409388 0
M  V30 9779 H 958.829 3.79439 1.72718 0
M  V30 9780 H 957.489 2.63098 1.90288 0
M  V30 9781 H 958.5 5.11049 -0.839602 0
M  V30 9782 H 955.177 3.91588 1.44792 0
M  V30 9783 H 956.567 6.51371 -1.64821 0
M  V30 9784 N 959.287 0.325282 1.54207 0
M  V30 9785 C 960.217 -0.532574 2.27345 0
M  V30 9786 C 961.198 -1.11791 1.28206 0
M  V30 9787 O 962.383 -1.14272 1.57021 0
M  V30 9788 C 959.513 -1.69274 3.03255 0
M  V30 9789 C 958.467 -1.23662 4.09746 0
M  V30 9790 C 957.793 -2.48386 4.73506 0
M  V30 9791 C 959.093 -0.350244 5.21124 0
M  V30 9792 H 960.787 0.0775108 2.993 0
M  V30 9793 H 958.333 0.0387193 1.43948 0
M  V30 9794 H 960.286 -2.29917 3.53152 0
M  V30 9795 H 959.01 -2.32944 2.28921 0
M  V30 9796 H 957.669 -0.653106 3.60735 0
M  V30 9797 H 957.317 -3.10424 3.95786 0
M  V30 9798 H 957.017 -2.18558 5.45441 0
M  V30 9799 H 958.541 -3.09789 5.26178 0
M  V30 9800 H 959.955 -0.863011 5.66767 0
M  V30 9801 H 958.352 -0.14466 5.99926 0
M  V30 9802 H 959.422 0.618457 4.8094 0
M  V30 9803 N 960.765 -1.57509 0.0534917 0
M  V30 9804 C 961.715 -2.08179 -0.929802 0
M  V30 9805 C 962.699 -0.987451 -1.27036 0
M  V30 9806 O 963.891 -1.25076 -1.2524 0
M  V30 9807 C 961.02 -2.63221 -2.20385 0
M  V30 9808 C 960.106 -3.79629 -1.89058 0
M  V30 9809 N 960.497 -4.8931 -1.28101 0
M  V30 9810 C 958.795 -3.88578 -2.18914 0
M  V30 9811 C 959.496 -5.70329 -1.14455 0
M  V30 9812 N 958.472 -5.18011 -1.64821 0
M  V30 9813 H 962.274 -2.90374 -0.453874 0
M  V30 9814 H 959.788 -1.61697 -0.150899 0
M  V30 9815 H 961.785 -2.97827 -2.91727 0
M  V30 9816 H 960.445 -1.82466 -2.68582 0
M  V30 9817 H 961.456 -5.09058 -0.952924 0
M  V30 9818 H 958.133 -3.18769 -2.69616 0
M  V30 9819 H 959.523 -6.6854 -0.671129 0
M  V30 9820 N 962.243 0.219913 -1.56058 0
M  V30 9821 C 963.206 1.25606 -1.91718 0
M  V30 9822 C 964.206 1.39721 -0.795912 0
M  V30 9823 O 965.396 1.37958 -1.06364 0
M  V30 9824 C 962.528 2.62961 -2.16943 0
M  V30 9825 H 963.721 0.951909 -2.84392 0
M  V30 9826 H 961.274 0.460398 -1.49365 0
M  V30 9827 H 962.009 2.98472 -1.26826 0
M  V30 9828 H 961.794 2.54093 -2.98629 0
M  V30 9829 H 963.284 3.37727 -2.45622 0
M  V30 9830 N 963.721 1.49897 0.486681 0
M  V30 9831 C 964.653 1.63755 1.60365 0
M  V30 9832 C 965.666 0.519614 1.54285 0
M  V30 9833 O 966.855 0.792219 1.59957 0
M  V30 9834 C 963.955 1.59153 2.99205 0
M  V30 9835 C 963.128 2.8672 3.30319 0
M  V30 9836 C 962.187 2.74974 4.48638 0
M  V30 9837 O 961.213 3.48922 4.49714 0
M  V30 9838 N 962.415 1.87479 5.49392 0
M  V30 9839 H 965.18 2.60094 1.48899 0
M  V30 9840 H 962.741 1.47166 0.674825 0
M  V30 9841 H 964.733 1.4893 3.76301 0
M  V30 9842 H 963.303 0.706133 3.0452 0
M  V30 9843 H 962.523 3.11188 2.41983 0
M  V30 9844 H 963.811 3.71262 3.47911 0
M  V30 9845 H 963.209 1.26684 5.51333 0
M  V30 9846 H 961.766 1.83169 6.25534 0
M  V30 9847 N 965.199 -0.738761 1.39212 0
M  V30 9848 C 966.162 -1.83441 1.37412 0
M  V30 9849 C 967.162 -1.58484 0.271908 0
M  V30 9850 O 968.352 -1.65954 0.529609 0
M  V30 9851 C 965.484 -3.21167 1.143 0
M  V30 9852 H 966.677 -1.86441 2.34904 0
M  V30 9853 H 964.23 -0.942023 1.24722 0
M  V30 9854 H 964.965 -3.23829 0.174756 0
M  V30 9855 H 964.75 -3.40678 1.94116 0
M  V30 9856 H 966.24 -4.01231 1.15773 0
M  V30 9857 N 966.677 -1.24326 -0.968545 0
M  V30 9858 C 967.607 -1.05951 -2.08079 0
M  V30 9859 C 968.588 0.0272666 -1.70078 0
M  V30 9860 O 969.773 -0.139644 -1.93697 0
M  V30 9861 C 966.903 -0.662623 -3.4092 0
M  V30 9862 C 965.857 -1.69807 -3.92873 0
M  V30 9863 C 965.183 -1.15628 -5.22048 0
M  V30 9864 C 966.483 -3.09383 -4.20808 0
M  V30 9865 H 968.177 -1.98984 -2.23709 0
M  V30 9866 H 965.723 -0.958112 -1.075 0
M  V30 9867 H 967.676 -0.521071 -4.18166 0
M  V30 9868 H 966.4 0.303399 -3.25188 0
M  V30 9869 H 965.059 -1.82783 -3.17783 0
M  V30 9870 H 964.707 -0.180888 -5.02675 0
M  V30 9871 H 964.407 -1.84822 -5.57776 0
M  V30 9872 H 965.931 -1.02683 -6.01904 0
M  V30 9873 H 967.345 -2.99642 -4.88761 0
M  V30 9874 H 965.742 -3.75923 -4.67763 0
M  V30 9875 H 966.812 -3.57486 -3.27616 0
M  V30 9876 N 968.156 1.1691 -1.05688 0
M  V30 9877 C 969.381 1.91745 -0.790478 0
M  V30 9878 C 969.806 1.76568 0.648478 0
M  V30 9879 O 969.164 1.08682 1.45114 0
M  V30 9880 C 969.212 3.4067 -1.18222 0
M  V30 9881 O 968.316 4.11177 -0.317341 0
M  V30 9882 H 967.657 0.5976 -0.28943 0
M  V30 9883 H 970.187 1.48157 -1.41105 0
M  V30 9884 H 970.197 3.91424 -1.15114 0
M  V30 9885 H 968.872 3.51036 -2.2304 0
M  V30 9886 H 967.449 3.70645 -0.409459 0
M  V30 9887 N 969.634 0.838594 1.33437 0
M  V30 9888 C 970.911 0.356112 1.92331 0
M  V30 9889 C 971.291 -1.1585 1.76471 0
M  V30 9890 O 970.639 -1.97281 1.15293 0
M  V30 9891 C 970.849 0.802715 3.39643 0
M  V30 9892 C 972.197 0.810575 4.16791 0
M  V30 9893 O 973.221 0.746304 3.48294 0
M  V30 9894 O 972.08 0.898082 5.3907 0
M  V30 9895 H 969.174 0.100711 0.820845 0
M  V30 9896 H 971.72 0.924428 1.42311 0
M  V30 9897 H 970.492 1.84529 3.45057 0
M  V30 9898 H 970.115 0.210956 3.9704 0
M  V30 9899 N 971.112 -1.45937 0.595003 0
M  V30 9900 C 972.337 -2.07207 0.0894416 0
M  V30 9901 C 972.762 -1.43884 -1.21157 0
M  V30 9902 O 972.12 -0.526998 -1.73472 0
M  V30 9903 C 972.168 -3.60565 -0.0499828 0
M  V30 9904 O 971.272 -3.97364 -1.10342 0
M  V30 9905 H 970.613 -0.660471 0.0683627 0
M  V30 9906 H 973.143 -1.87386 0.82144 0
M  V30 9907 H 973.153 -4.0722 -0.252234 0
M  V30 9908 H 971.828 -4.06044 0.90006 0
M  V30 9909 H 970.405 -3.62401 -0.878645 0
M  V30 9910 N 972.59 -0.333456 -1.54032 0
M  V30 9911 C 973.5 0.536674 -2.28379 0
M  V30 9912 C 974.516 1.12068 -1.33104 0
M  V30 9913 O 975.692 1.13853 -1.66131 0
M  V30 9914 C 972.757 1.67677 -3.03456 0
M  V30 9915 C 971.818 1.12357 -4.14336 0
M  V30 9916 C 971.051 2.20933 -4.85823 0
M  V30 9917 O 971.274 3.41466 -4.569 0
M  V30 9918 O 970.208 1.85795 -5.72507 0
M  V30 9919 H 974.034 -0.0674003 -3.03625 0
M  V30 9920 H 971.619 -0.098823 -1.49073 0
M  V30 9921 H 973.501 2.34032 -3.50438 0
M  V30 9922 H 972.176 2.26684 -2.31076 0
M  V30 9923 H 971.083 0.424827 -3.7168 0
M  V30 9924 H 972.416 0.578497 -4.88789 0
M  V30 9925 N 974.068 1.57479 -0.061844 0
M  V30 9926 C 975.317 1.92285 0.609055 0
M  V30 9927 C 975.63 0.942983 1.71369 0
M  V30 9928 O 976.836 1.18349 2.44348 0
M  V30 9929 C 975.292 3.41545 1.13468 0
M  V30 9930 C 974.9 4.47958 0.0615926 0
M  V30 9931 C 976.644 3.85368 1.78022 0
M  V30 9932 C 974.551 5.88341 0.600705 0
M  V30 9933 H 973.481 0.717656 0.23127 0
M  V30 9934 H 976.132 1.83021 -0.132466 0
M  V30 9935 H 974.514 3.45848 1.92886 0
M  V30 9936 H 975.688 4.55258 -0.712527 0
M  V30 9937 H 974.003 4.13541 -0.487116 0
M  V30 9938 H 976.6 4.87627 2.19371 0
M  V30 9939 H 976.943 3.22193 2.63623 0
M  V30 9940 H 977.476 3.83626 1.05242 0
M  V30 9941 H 974.215 6.55138 -0.217922 0
M  V30 9942 H 973.735 5.84581 1.34257 0
M  V30 9943 H 975.414 6.37918 1.08025 0
M  V30 9944 N 975.546 -0.211634 1.56173 0
M  V30 9945 C 976.478 -1.286 1.89723 0
M  V30 9946 C 977.491 -1.42549 0.786361 0
M  V30 9947 O 978.68 -1.4327 1.06471 0
M  V30 9948 C 975.78 -2.66036 2.09948 0
M  V30 9949 C 974.953 -2.73908 3.41018 0
M  V30 9950 C 974.012 -3.92425 3.50555 0
M  V30 9951 O 973.038 -3.803 4.2351 0
M  V30 9952 N 974.24 -5.07165 2.82426 0
M  V30 9953 H 977.005 -1.00142 2.82474 0
M  V30 9954 H 974.566 -0.401633 1.56839 0
M  V30 9955 H 976.558 -3.43719 2.13634 0
M  V30 9956 H 975.128 -2.87052 1.23774 0
M  V30 9957 H 974.348 -1.82625 3.49345 0
M  V30 9958 H 975.636 -2.76145 4.27342 0
M  V30 9959 H 975.034 -5.19913 2.2295 0
M  V30 9960 H 973.591 -5.82855 2.9176 0
M  V30 9961 N 977.024 -1.50153 -0.478725 0
M  V30 9962 C 977.954 -1.71384 -1.58587 0
M  V30 9963 C 978.935 -0.562705 -1.60523 0
M  V30 9964 O 980.12 -0.80101 -1.76911 0
M  V30 9965 C 977.25 -1.80094 -2.96957 0
M  V30 9966 C 976.204 -2.95218 -3.09888 0
M  V30 9967 C 975.53 -2.89063 -4.49829 0
M  V30 9968 C 976.83 -4.35841 -2.8782 0
M  V30 9969 H 978.524 -2.64081 -1.41073 0
M  V30 9970 H 976.07 -1.27081 -0.677239 0
M  V30 9971 H 978.023 -1.93531 -3.74331 0
M  V30 9972 H 976.747 -0.840131 -3.1561 0
M  V30 9973 H 975.406 -2.81419 -2.34944 0
M  V30 9974 H 975.054 -1.90844 -4.6539 0
M  V30 9975 H 974.754 -3.66345 -4.59418 0
M  V30 9976 H 976.278 -3.04539 -5.29234 0
M  V30 9977 H 977.692 -4.50205 -3.54948 0
M  V30 9978 H 976.089 -5.14515 -3.0886 0
M  V30 9979 H 977.159 -4.48739 -1.83742 0
M  V30 9980 N 978.502 0.731368 -1.39602 0
M  V30 9981 C 979.73 1.52059 -1.40305 0
M  V30 9982 C 980.145 1.888 0.00147921 0
M  V30 9983 O 979.502 1.54354 0.973715 0
M  V30 9984 C 979.553 2.80588 -2.27931 0
M  V30 9985 O 979.274 2.45406 -3.62915 0
M  V30 9986 C 980.775 3.74592 -2.37056 0
M  V30 9987 H 977.995 0.469787 -0.479104 0
M  V30 9988 H 980.539 0.903436 -1.83462 0
M  V30 9989 H 978.694 3.38626 -1.88178 0
M  V30 9990 H 979.108 3.27996 -4.09291 0
M  V30 9991 H 980.582 4.61662 -3.02609 0
M  V30 9992 H 981.059 4.16597 -1.39081 0
M  V30 9993 H 981.665 3.22471 -2.77295 0
M  V30 9994 N 979.98 1.24838 0.961938 0
M  V30 9995 C 981.226 1.10321 1.70883 0
M  V30 9996 C 981.581 -0.353397 1.89127 0
M  V30 9997 O 980.874 -1.25721 1.44584 0
M  V30 9998 C 981.068 1.78289 3.09754 0
M  V30 9999 C 980.897 3.30409 3.05057 0
M  V30 10000 C 979.667 3.9964 3.09218 0
M  V30 10001 C 981.865 4.26916 2.86787 0
M  V30 10002 N 979.847 5.38594 2.94601 0
M  V30 10003 C 981.218 5.52906 2.80526 0
M  V30 10004 C 983.273 4.17421 2.71412 0
M  V30 10005 C 981.976 6.70487 2.60461 0
M  V30 10006 C 984.002 5.34686 2.52715 0
M  V30 10007 C 983.364 6.59611 2.47168 0
M  V30 10008 H 979.463 0.458353 0.63359 0
M  V30 10009 H 982.047 1.57835 1.14001 0
M  V30 10010 H 980.218 1.33281 3.64816 0
M  V30 10011 H 981.95 1.5658 3.73182 0
M  V30 10012 H 978.705 3.50847 3.18125 0
M  V30 10013 H 979.129 6.11497 2.90517 0
M  V30 10014 H 983.771 3.21592 2.74479 0
M  V30 10015 H 981.489 7.66433 2.56136 0
M  V30 10016 H 985.075 5.29194 2.41754 0
M  V30 10017 H 983.955 7.48821 2.32888 0
M  V30 10018 N 981.458 -1.16348 1.06306 0
M  V30 10019 C 982.405 -2.20741 0.673962 0
M  V30 10020 C 983.375 -1.628 -0.329454 0
M  V30 10021 O 984.56 -1.89547 -0.218313 0
M  V30 10022 C 981.7 -3.45036 0.0667008 0
M  V30 10023 C 980.813 -4.17221 1.12031 0
M  V30 10024 C 979.948 -5.29034 0.479176 0
M  V30 10025 C 978.987 -5.93021 1.51631 0
M  V30 10026 N 978.124 -6.96327 0.898528 0
M  V30 10027 H 982.964 -2.53376 1.56859 0
M  V30 10028 H 980.501 -1.24449 0.784276 0
M  V30 10029 H 982.459 -4.16099 -0.302916 0
M  V30 10030 H 981.089 -3.1295 -0.791333 0
M  V30 10031 H 980.141 -3.4476 1.60763 0
M  V30 10032 H 981.453 -4.60902 1.90712 0
M  V30 10033 H 980.607 -6.06674 0.0565993 0
M  V30 10034 H 979.346 -4.86517 -0.33951 0
M  V30 10035 H 978.351 -5.14104 1.94878 0
M  V30 10036 H 979.576 -6.37618 2.3371 0
M  V30 10037 H 977.522 -6.55923 0.100555 0
M  V30 10038 H 977.439 -7.38379 1.62272 0
M  V30 10039 H 978.707 -7.77888 0.5011 0
M  V30 10040 N 982.937 -0.845659 -1.3299 0
M  V30 10041 C 983.887 -0.2557 -2.26562 0
M  V30 10042 C 984.871 0.593245 -1.49564 0
M  V30 10043 O 986.063 0.444101 -1.71338 0
M  V30 10044 C 983.192 0.562573 -3.38659 0
M  V30 10045 C 982.278 -0.298259 -4.2305 0
M  V30 10046 N 982.669 -1.38023 -4.86604 0
M  V30 10047 C 980.967 -0.0864539 -4.45916 0
M  V30 10048 C 981.668 -1.90907 -5.49481 0
M  V30 10049 N 980.644 -1.20955 -5.29973 0
M  V30 10050 H 984.446 -1.083 -2.73219 0
M  V30 10051 H 981.96 -0.690823 -1.46974 0
M  V30 10052 H 983.957 1.00157 -4.0469 0
M  V30 10053 H 982.617 1.38777 -2.93549 0
M  V30 10054 H 983.628 -1.76314 -4.86964 0
M  V30 10055 H 980.305 0.70475 -4.11509 0
M  V30 10056 H 981.695 -2.81552 -6.10064 0
M  V30 10057 N 984.415 1.45619 -0.602734 0
M  V30 10058 C 985.826 1.85814 -0.181636 0
M  V30 10059 C 986.177 1.5037 1.26029 0
M  V30 10060 O 985.302 0.928068 1.95489 0
M  V30 10061 C 985.897 3.37258 -0.322866 0
M  V30 10062 C 984.456 3.76375 0.043504 0
M  V30 10063 C 983.603 2.69585 -0.649561 0
M  V30 10064 H 986.554 1.36489 -0.809721 0
M  V30 10065 H 986.575 3.77874 0.446279 0
M  V30 10066 H 986.087 3.63024 -1.37241 0
M  V30 10067 H 984.188 3.56226 1.09241 0
M  V30 10068 H 984.301 4.77843 -0.346765 0
M  V30 10069 H 982.665 2.54549 -0.087706 0
M  V30 10070 H 983.448 2.98188 -1.70115 0
M  V30 10071 N 985.893 0.34162 1.53853 0
M  V30 10072 C 986.803 -0.524555 2.2866 0
M  V30 10073 C 987.819 -1.1136 1.33697 0
M  V30 10074 O 988.995 -1.1297 1.66732 0
M  V30 10075 C 986.06 -1.66065 3.04341 0
M  V30 10076 C 985.121 -1.10158 4.14926 0
M  V30 10077 C 984.354 -2.18353 4.86988 0
M  V30 10078 O 984.577 -3.39038 4.58704 0
M  V30 10079 O 983.511 -1.82756 5.73484 0
M  V30 10080 H 987.337 0.0835014 3.03585 0
M  V30 10081 H 984.922 0.106727 1.49018 0
M  V30 10082 H 986.804 -2.3217 3.51674 0
M  V30 10083 H 985.479 -2.25456 2.32275 0
M  V30 10084 H 984.386 -0.405109 3.719 0
M  V30 10085 H 985.719 -0.552567 4.89088 0
M  V30 10086 N 987.371 -1.57444 0.0701946 0
M  V30 10087 C 988.334 -2.11511 -0.882923 0
M  V30 10088 C 989.334 -1.03879 -1.22743 0
M  V30 10089 O 990.524 -1.29874 -1.16097 0
M  V30 10090 C 987.656 -2.61514 -2.18686 0
M  V30 10091 H 988.849 -2.9703 -0.413873 0
M  V30 10092 H 986.402 -1.55278 -0.178488 0
M  V30 10093 H 987.137 -1.79443 -2.70131 0
M  V30 10094 H 986.922 -3.40185 -1.94978 0
M  V30 10095 H 988.412 -3.03425 -2.86919 0
M  V30 10096 N 988.849 0.203349 -1.56283 0
M  V30 10097 C 989.779 1.2549 -1.96912 0
M  V30 10098 C 990.76 1.47919 -0.839884 0
M  V30 10099 O 991.945 1.59795 -1.10359 0
M  V30 10100 C 989.075 2.6009 -2.30153 0
M  V30 10101 C 988.029 2.52289 -3.45738 0
M  V30 10102 C 987.355 3.91086 -3.64632 0
M  V30 10103 C 988.655 2.05503 -4.80173 0
M  V30 10104 H 990.349 0.917306 -2.85002 0
M  V30 10105 H 987.895 0.439818 -1.37119 0
M  V30 10106 H 989.848 3.33829 -2.5717 0
M  V30 10107 H 988.572 2.95574 -1.38937 0
M  V30 10108 H 987.231 1.81006 -3.18798 0
M  V30 10109 H 986.879 4.23908 -2.7076 0
M  V30 10110 H 986.579 3.86742 -4.42385 0
M  V30 10111 H 988.103 4.66459 -3.94016 0
M  V30 10112 H 989.517 2.68995 -5.06275 0
M  V30 10113 H 987.914 2.1218 -5.61337 0
M  V30 10114 H 988.984 1.00793 -4.74309 0
M  V30 10115 N 990.327 1.50405 0.470755 0
M  V30 10116 C 991.738 1.54266 1.05162 0
M  V30 10117 C 992.089 0.346359 1.93119 0
M  V30 10118 O 991.214 -0.540699 2.09536 0
M  V30 10119 C 991.809 2.7956 1.91394 0
M  V30 10120 C 990.368 2.86101 2.44588 0
M  V30 10121 C 989.515 2.48557 1.22941 0
M  V30 10122 H 992.466 1.56665 0.253359 0
M  V30 10123 H 992.487 2.61434 2.76464 0
M  V30 10124 H 991.999 3.66611 1.27351 0
M  V30 10125 H 990.1 2.03403 3.12183 0
M  V30 10126 H 990.213 3.88999 2.79672 0
M  V30 10127 H 988.577 2.01003 1.56429 0
M  V30 10128 H 989.36 3.37916 0.605598 0
M  V30 10129 N 991.805 -0.723954 1.39988 0
M  V30 10130 C 993.053 -1.48078 1.3754 0
M  V30 10131 C 993.374 -1.94985 -0.0243358 0
M  V30 10132 O 992.644 -1.69764 -0.977602 0
M  V30 10133 H 991.224 -0.549354 0.506181 0
M  V30 10134 H 993.886 -0.858746 1.74962 0
M  V30 10135 H 992.982 -2.35763 2.04505 0
M  V30 10136 N 993.283 -1.25346 -0.955304 0
M  V30 10137 C 994.694 -1.09173 -1.51453 0
M  V30 10138 C 995.045 0.332755 -1.93358 0
M  V30 10139 O 994.17 1.22264 -1.78551 0
M  V30 10140 C 994.765 -1.97564 -2.75234 0
M  V30 10141 C 993.324 -1.85579 -3.27471 0
M  V30 10142 C 992.471 -1.91755 -2.00313 0
M  V30 10143 H 995.422 -1.38642 -0.772271 0
M  V30 10144 H 995.443 -1.51523 -3.49029 0
M  V30 10145 H 994.955 -3.01233 -2.44704 0
M  V30 10146 H 993.056 -0.847906 -3.62824 0
M  V30 10147 H 993.169 -2.70353 -3.95533 0
M  V30 10148 H 991.533 -1.35633 -2.15582 0
M  V30 10149 H 992.316 -2.97028 -1.72132 0
M  V30 10150 N 994.761 1.15782 -1.06922 0
M  V30 10151 C 996.01 1.85807 -0.784774 0
M  V30 10152 C 996.323 1.82967 0.691551 0
M  V30 10153 O 997.529 2.48632 1.0906 0
M  V30 10154 C 995.985 3.33469 -1.35375 0
M  V30 10155 C 995.593 3.44766 -2.86077 0
M  V30 10156 C 997.337 4.08707 -1.14713 0
M  V30 10157 C 995.244 4.86551 -3.36187 0
M  V30 10158 H 994.174 0.696046 -0.28989 0
M  V30 10159 H 996.825 1.30629 -1.28873 0
M  V30 10160 H 995.207 3.88292 -0.77754 0
M  V30 10161 H 996.381 3.00073 -3.49704 0
M  V30 10162 H 994.696 2.82969 -3.05479 0
M  V30 10163 H 997.293 5.13336 -1.49633 0
M  V30 10164 H 997.636 4.16211 -0.0858868 0
M  V30 10165 H 998.169 3.60142 -1.68946 0
M  V30 10166 H 994.908 4.84229 -4.41818 0
M  V30 10167 H 994.428 5.31844 -2.77312 0
M  V30 10168 H 996.107 5.55392 -3.31887 0
M  V30 10169 N 996.239 0.8527 1.3254 0
M  V30 10170 C 997.464 0.468157 2.02047 0
M  V30 10171 C 997.889 -0.926967 1.63673 0
M  V30 10172 O 997.247 -1.60855 0.836378 0
M  V30 10173 C 997.295 0.612519 3.5536 0
M  V30 10174 O 996.399 -0.355506 4.10865 0
M  V30 10175 H 995.74 0.188401 0.636711 0
M  V30 10176 H 998.27 1.15135 1.6913 0
M  V30 10177 H 998.28 0.499315 4.04933 0
M  V30 10178 H 996.955 1.62988 3.82632 0
M  V30 10179 H 995.532 -0.198703 3.7237 0
M  V30 10180 N 997.718 -1.45297 0.610449 0
M  V30 10181 C 998.665 -2.30553 -0.106718 0
M  V30 10182 C 999.635 -1.42272 -0.85719 0
M  V30 10183 O 1000.82 -1.71199 -0.842357 0
M  V30 10184 C 997.96 -3.27226 -1.09623 0
M  V30 10185 C 997.073 -4.3061 -0.346329 0
M  V30 10186 C 996.208 -5.14389 -1.32581 0
M  V30 10187 C 995.247 -6.09497 -0.563892 0
M  V30 10188 N 994.384 -6.86047 -1.4928 0
M  V30 10189 H 999.224 -2.91344 0.626296 0
M  V30 10190 H 996.761 -1.43563 0.32065 0
M  V30 10191 H 998.719 -3.81744 -1.68308 0
M  V30 10192 H 997.349 -2.68182 -1.79662 0
M  V30 10193 H 996.401 -3.7873 0.356084 0
M  V30 10194 H 997.713 -4.98183 0.248026 0
M  V30 10195 H 996.867 -5.73321 -1.98464 0
M  V30 10196 H 995.606 -4.4684 -1.9541 0
M  V30 10197 H 994.611 -5.49693 0.108551 0
M  V30 10198 H 995.836 -6.79074 0.0593872 0
M  V30 10199 H 993.782 -6.21185 -2.10868 0
M  V30 10200 H 993.699 -7.49983 -0.951953 0
M  V30 10201 H 994.967 -7.49518 -2.14112 0
M  V30 10202 N 999.196 -0.349774 -1.5367 0
M  V30 10203 C 1000.43 0.245682 -2.05134 0
M  V30 10204 C 1000.83 1.44269 -1.22406 0
M  V30 10205 O 1000.18 1.81938 -0.25379 0
M  V30 10206 C 1000.24 0.718439 -3.52248 0
M  V30 10207 C 999.903 -0.35975 -4.55582 0
M  V30 10208 C 1000.9 -1.20449 -5.05755 0
M  V30 10209 C 998.585 -0.515463 -4.99648 0
M  V30 10210 C 1000.58 -2.19043 -5.98581 0
M  V30 10211 C 998.266 -1.50479 -5.92283 0
M  V30 10212 C 999.264 -2.34072 -6.41638 0
M  V30 10213 O 998.952 -3.31319 -7.3245 0
M  V30 10214 H 998.684 0.0501122 -0.67414 0
M  V30 10215 H 1001.24 -0.5018 -1.99176 0
M  V30 10216 H 999.468 1.51727 -3.55691 0
M  V30 10217 H 1001.16 1.23513 -3.86651 0
M  V30 10218 H 1001.92 -1.09531 -4.7247 0
M  V30 10219 H 997.802 0.12537 -4.60829 0
M  V30 10220 H 1001.35 -2.84327 -6.37027 0
M  V30 10221 H 997.243 -1.61451 -6.24983 0
M  V30 10222 H 998.011 -3.26863 -7.50402 0
M  V30 10223 N 1000.67 1.57404 -0.0785433 0
M  V30 10224 C 1001.92 1.94031 0.589896 0
M  V30 10225 C 1002.25 0.959297 1.68852 0
M  V30 10226 O 1001.53 -0.0103978 1.94497 0
M  V30 10227 C 1001.81 3.40886 1.16055 0
M  V30 10228 C 1001.66 4.49748 0.0681072 0
M  V30 10229 C 1002.98 3.88699 2.06401 0
M  V30 10230 H 1000.1 0.70556 0.212965 0
M  V30 10231 H 1002.74 1.89439 -0.145886 0
M  V30 10232 H 1000.89 3.4493 1.78761 0
M  V30 10233 H 1002.57 4.57823 -0.565318 0
M  V30 10234 H 1000.81 4.29625 -0.600431 0
M  V30 10235 H 1001.48 5.49658 0.507906 0
M  V30 10236 H 1003.96 3.86703 1.53622 0
M  V30 10237 H 1002.83 4.92052 2.43261 0
M  V30 10238 H 1003.09 3.2703 2.97496 0
M  V30 10239 N 1002.15 -0.195058 1.56388 0
M  V30 10240 C 1003.4 -0.9168 1.80894 0
M  V30 10241 C 1003.73 -1.82907 0.652592 0
M  V30 10242 O 1003.01 -1.91382 -0.346853 0
M  V30 10243 C 1003.29 -1.733 3.15657 0
M  V30 10244 C 1003.14 -0.845449 4.41783 0
M  V30 10245 C 1004.46 -2.70557 3.47112 0
M  V30 10246 H 1001.58 -0.331861 0.658056 0
M  V30 10247 H 1004.22 -0.184174 1.89105 0
M  V30 10248 H 1002.37 -2.3576 3.08787 0
M  V30 10249 H 1004.04 -0.235557 4.60698 0
M  V30 10250 H 1002.29 -0.152172 4.33533 0
M  V30 10251 H 1002.96 -1.45152 5.32574 0
M  V30 10252 H 1005.43 -2.1823 3.54281 0
M  V30 10253 H 1004.31 -3.24749 4.42526 0
M  V30 10254 H 1004.57 -3.49605 2.70608 0
M  V30 10255 N 1003.63 -1.50653 -0.462772 0
M  V30 10256 C 1004.54 -1.72923 -1.58539 0
M  V30 10257 C 1005.56 -0.612577 -1.6286 0
M  V30 10258 O 1006.73 -0.891885 -1.80575 0
M  V30 10259 C 1003.8 -1.82623 -2.94703 0
M  V30 10260 C 1002.86 -3.06392 -3.00704 0
M  V30 10261 C 1002.09 -3.15618 -4.30373 0
M  V30 10262 O 1002.31 -2.31423 -5.21344 0
M  V30 10263 O 1001.25 -4.0841 -4.42136 0
M  V30 10264 H 1005.07 -2.68103 -1.42669 0
M  V30 10265 H 1002.66 -1.34848 -0.643144 0
M  V30 10266 H 1004.54 -1.91134 -3.7556 0
M  V30 10267 H 1003.22 -0.906275 -3.10754 0
M  V30 10268 H 1002.12 -3.03375 -2.18894 0
M  V30 10269 H 1003.46 -3.97992 -2.89591 0
M  V30 10270 N 1005.11 0.71652 -1.4037 0
M  V30 10271 C 1006.35 1.47857 -1.38803 0
M  V30 10272 C 1006.69 1.94197 0.0100536 0
M  V30 10273 O 1005.96 1.68093 0.978521 0
M  V30 10274 C 1006.25 2.7053 -2.37667 0
M  V30 10275 C 1006.1 2.3009 -3.86496 0
M  V30 10276 C 1007.42 3.72684 -2.34082 0
M  V30 10277 H 1004.54 0.53632 -0.505499 0
M  V30 10278 H 1007.18 0.817824 -1.71498 0
M  V30 10279 H 1005.33 3.26906 -2.09916 0
M  V30 10280 H 1007 1.79202 -4.2507 0
M  V30 10281 H 1005.24 1.62102 -4.02375 0
M  V30 10282 H 1005.91 3.18018 -4.51186 0
M  V30 10283 H 1008.39 3.25935 -2.58661 0
M  V30 10284 H 1007.27 4.56157 -3.05306 0
M  V30 10285 H 1007.53 4.20916 -1.35213 0
M  V30 10286 N 1006.59 1.25851 0.948643 0
M  V30 10287 C 1007.52 1.02549 2.04979 0
M  V30 10288 C 1008.53 -0.0115923 1.62796 0
M  V30 10289 O 1009.72 0.227643 1.77042 0
M  V30 10290 C 1006.82 0.529486 3.34738 0
M  V30 10291 C 1005.99 1.6341 4.05729 0
M  V30 10292 C 1005.05 1.13743 5.1376 0
M  V30 10293 O 1004.08 1.83303 5.38877 0
M  V30 10294 N 1005.28 -0.0181151 5.80497 0
M  V30 10295 H 1008.05 1.97365 2.25537 0
M  V30 10296 H 1005.61 1.17137 1.11761 0
M  V30 10297 H 1007.6 0.181566 4.04293 0
M  V30 10298 H 1006.17 -0.324893 3.10907 0
M  V30 10299 H 1005.39 2.15331 3.30191 0
M  V30 10300 H 1006.68 2.37603 4.49914 0
M  V30 10301 H 1006.07 -0.599198 5.62518 0
M  V30 10302 H 1004.63 -0.307019 6.51077 0
M  V30 10303 N 1008.06 -1.15214 1.07534 0
M  V30 10304 C 1009.31 -1.86319 0.800814 0
M  V30 10305 C 1009.64 -1.82221 -0.671494 0
M  V30 10306 O 1008.92 -1.24664 -1.49295 0
M  V30 10307 C 1009.2 -3.35347 1.31203 0
M  V30 10308 C 1009.05 -3.48067 2.84902 0
M  V30 10309 C 1010.37 -4.3016 0.930064 0
M  V30 10310 H 1007.49 -0.676523 0.292379 0
M  V30 10311 H 1010.13 -1.35349 1.33344 0
M  V30 10312 H 1008.28 -3.78886 0.858949 0
M  V30 10313 H 1009.96 -3.13379 3.38514 0
M  V30 10314 H 1008.2 -2.89566 3.23008 0
M  V30 10315 H 1008.87 -4.52782 3.15741 0
M  V30 10316 H 1011.35 -3.94591 1.3205 0
M  V30 10317 H 1010.22 -5.32914 1.31507 0
M  V30 10318 H 1010.48 -4.41796 -0.163824 0
M  V30 10319 N 1009.54 -0.859717 -1.32086 0
M  V30 10320 C 1010.51 -0.313005 -2.27053 0
M  V30 10321 C 1011.51 0.530191 -1.51808 0
M  V30 10322 O 1012.7 0.340972 -1.7083 0
M  V30 10323 C 1009.83 0.5566 -3.36325 0
M  V30 10324 H 1011.02 -1.15125 -2.76923 0
M  V30 10325 H 1008.57 -0.634463 -1.42843 0
M  V30 10326 H 1009.31 1.41645 -2.91731 0
M  V30 10327 H 1009.09 -0.0470197 -3.92072 0
M  V30 10328 H 1010.58 0.931725 -4.07073 0
M  V30 10329 N 1011.02 1.44971 -0.618145 0
M  V30 10330 C 1012.27 2.0176 -0.11725 0
M  V30 10331 C 1012.59 1.48773 1.26062 0
M  V30 10332 O 1011.86 0.686152 1.83491 0
M  V30 10333 H 1010.44 0.745909 -0.0403545 0
M  V30 10334 H 1013.1 1.77638 -0.801923 0
M  V30 10335 H 1012.2 3.1201 -0.0750477 0
M  V30 10336 N 1012.5 0.357919 1.53482 0
M  V30 10337 C 1013.75 -0.2337 2.00744 0
M  V30 10338 C 1014.07 -1.49908 1.2471 0
M  V30 10339 O 1013.34 -1.92597 0.358235 0
M  V30 10340 H 1011.92 -0.0893474 0.741637 0
M  V30 10341 H 1014.58 0.482388 1.88836 0
M  V30 10342 H 1013.68 -0.466073 3.086 0
M  V30 10343 N 1013.98 -1.5736 0.0868897 0
M  V30 10344 C 1014.94 -2.12436 -0.860439 0
M  V30 10345 C 1015.94 -1.05175 -1.21634 0
M  V30 10346 O 1017.13 -1.31098 -1.14713 0
M  V30 10347 C 1014.26 -2.63818 -2.159 0
M  V30 10348 H 1015.45 -2.97453 -0.382346 0
M  V30 10349 H 1013.01 -1.55458 -0.162009 0
M  V30 10350 H 1013.74 -1.82298 -2.68212 0
M  V30 10351 H 1013.53 -3.42234 -1.91359 0
M  V30 10352 H 1015.02 -3.06452 -2.83685 0
M  V30 10353 N 1015.45 0.186762 -1.56489 0
M  V30 10354 C 1016.7 0.904063 -1.80752 0
M  V30 10355 C 1017.02 1.83443 -0.661343 0
M  V30 10356 O 1016.29 1.93272 0.319811 0
M  V30 10357 H 1014.87 0.336828 -0.66675 0
M  V30 10358 H 1017.54 0.190275 -1.93969 0
M  V30 10359 H 1016.63 1.49021 -2.74225 0
M  V30 10360 N 1016.93 1.50896 0.454776 0
M  V30 10361 C 1018.21 1.53227 1.21576 0
M  V30 10362 C 1018.59 0.286358 2.09149 0
M  V30 10363 O 1017.94 -0.729469 2.16543 0
M  V30 10364 C 1018.15 2.83693 2.03271 0
M  V30 10365 C 1019.5 3.34981 2.60908 0
M  V30 10366 O 1020.52 2.85126 2.13499 0
M  V30 10367 O 1019.38 4.21929 3.4733 0
M  V30 10368 H 1016.47 0.615306 0.552564 0
M  V30 10369 H 1019.02 1.63197 0.465266 0
M  V30 10370 H 1017.79 3.65839 1.38843 0
M  V30 10371 H 1017.41 2.76803 2.85422 0
M  V30 10372 N 1018.41 -0.709066 1.40748 0
M  V30 10373 C 1019.82 -1.28847 1.35112 0
M  V30 10374 C 1020.17 -1.9618 0.0277149 0
M  V30 10375 O 1019.3 -1.97955 -0.874233 0
M  V30 10376 C 1019.89 -2.34306 2.44716 0
M  V30 10377 C 1018.45 -2.87856 2.4252 0
M  V30 10378 C 1017.6 -1.61723 2.25257 0
M  V30 10379 H 1020.55 -0.504742 1.50459 0
M  V30 10380 H 1020.57 -3.15297 2.12998 0
M  V30 10381 H 1020.08 -1.85271 3.41022 0
M  V30 10382 H 1018.18 -3.41103 1.49931 0
M  V30 10383 H 1018.3 -3.39205 3.38344 0
M  V30 10384 H 1016.66 -1.87032 1.7289 0
M  V30 10385 H 1017.44 -1.14703 3.23571 0
M  V30 10386 N 1019.89 -1.26353 -0.941956 0
M  V30 10387 C 1020.82 -1.10341 -2.05784 0
M  V30 10388 C 1021.8 -0.00881565 -1.70098 0
M  V30 10389 O 1022.99 -0.180699 -1.93357 0
M  V30 10390 C 1020.12 -0.734788 -3.39438 0
M  V30 10391 C 1019.07 -1.78103 -3.89183 0
M  V30 10392 C 1018.4 -1.26675 -5.19478 0
M  V30 10393 C 1019.7 -3.1824 -4.14151 0
M  V30 10394 H 1021.39 -2.03684 -2.19438 0
M  V30 10395 H 1018.94 -0.980698 -1.05443 0
M  V30 10396 H 1020.89 -0.609653 -4.16967 0
M  V30 10397 H 1019.61 0.234354 -3.25758 0
M  V30 10398 H 1018.27 -1.89482 -3.13835 0
M  V30 10399 H 1017.92 -0.287472 -5.02178 0
M  V30 10400 H 1017.62 -1.96612 -5.53731 0
M  V30 10401 H 1019.14 -1.15427 -5.99591 0
M  V30 10402 H 1020.56 -3.09942 -4.82296 0
M  V30 10403 H 1018.95 -3.8576 -4.59684 0
M  V30 10404 H 1020.02 -3.64354 -3.19959 0
M  V30 10405 N 1021.37 1.14642 -1.08144 0
M  V30 10406 C 1022.61 1.86115 -0.820533 0
M  V30 10407 C 1022.97 1.81208 0.646635 0
M  V30 10408 O 1022.26 1.22997 1.46909 0
M  V30 10409 C 1022.46 3.33953 -1.2732 0
M  V30 10410 C 1022.28 3.53254 -2.78283 0
M  V30 10411 C 1021.05 3.68259 -3.45996 0
M  V30 10412 C 1023.25 3.504 -3.76463 0
M  V30 10413 N 1021.23 3.75692 -4.85519 0
M  V30 10414 C 1022.61 3.64045 -5.01868 0
M  V30 10415 C 1024.66 3.33722 -3.69505 0
M  V30 10416 C 1023.36 3.62734 -6.21141 0
M  V30 10417 C 1025.39 3.33713 -4.88251 0
M  V30 10418 C 1024.75 3.47896 -6.12493 0
M  V30 10419 H 1020.85 0.697829 -0.352929 0
M  V30 10420 H 1023.43 1.3742 -1.37927 0
M  V30 10421 H 1021.61 3.81245 -0.742066 0
M  V30 10422 H 1023.34 3.93174 -0.958991 0
M  V30 10423 H 1020.09 3.69376 -2.96409 0
M  V30 10424 H 1020.52 3.83133 -5.58156 0
M  V30 10425 H 1025.16 3.2167 -2.74387 0
M  V30 10426 H 1022.88 3.73563 -7.16573 0
M  V30 10427 H 1026.46 3.22025 -4.84553 0
M  V30 10428 H 1025.34 3.47833 -7.02838 0
M  V30 10429 N 1022.85 0.866709 1.31628 0
M  V30 10430 C 1024.09 0.472185 1.96095 0
M  V30 10431 C 1024.41 -0.979873 1.69286 0
M  V30 10432 O 1025.61 -1.48039 2.27589 0
M  V30 10433 C 1024.07 0.793468 3.51044 0
M  V30 10434 C 1023.68 2.26206 3.86697 0
M  V30 10435 C 1025.42 0.467255 4.21921 0
M  V30 10436 C 1023.33 2.52593 5.34743 0
M  V30 10437 H 1022.26 0.172846 0.733921 0
M  V30 10438 H 1024.91 1.05916 1.49847 0
M  V30 10439 H 1023.29 0.135783 3.95767 0
M  V30 10440 H 1024.47 2.96254 3.52945 0
M  V30 10441 H 1022.78 2.55399 3.28877 0
M  V30 10442 H 1025.38 0.641669 5.30836 0
M  V30 10443 H 1025.72 -0.592065 4.12068 0
M  V30 10444 H 1026.25 1.08134 3.82821 0
M  V30 10445 H 1022.99 3.57196 5.49628 0
M  V30 10446 H 1022.51 1.87136 5.6986 0
M  V30 10447 H 1024.19 2.37156 6.01968 0
M  V30 10448 N 1024.32 -1.44642 0.625825 0
M  V30 10449 C 1025.6 -1.9551 0.0593587 0
M  V30 10450 C 1025.98 -1.56792 -1.41349 0
M  V30 10451 O 1025.33 -0.839373 -2.12525 0
M  V30 10452 C 1025.54 -3.47902 0.276647 0
M  V30 10453 C 1026.89 -4.24271 0.167044 0
M  V30 10454 O 1027.91 -3.55594 0.207731 0
M  V30 10455 O 1026.77 -5.46458 0.0675 0
M  V30 10456 H 1023.86 -0.826612 -0.0253422 0
M  V30 10457 H 1026.41 -1.54718 0.697159 0
M  V30 10458 H 1025.18 -3.69115 1.29885 0
M  V30 10459 H 1024.8 -3.95628 -0.395547 0
M  V30 10460 N 1025.8 -0.366053 -1.5329 0
M  V30 10461 C 1027.05 0.223824 -2.01561 0
M  V30 10462 C 1027.38 1.48382 -1.25286 0
M  V30 10463 O 1026.66 1.91385 -0.34669 0
M  V30 10464 C 1026.94 0.5153 -3.56394 0
M  V30 10465 C 1026.79 -0.758357 -4.43361 0
M  V30 10466 C 1028.11 1.31568 -4.19974 0
M  V30 10467 H 1025.23 0.0798751 -0.732659 0
M  V30 10468 H 1027.87 -0.491038 -1.83545 0
M  V30 10469 H 1026.02 1.12429 -3.71876 0
M  V30 10470 H 1027.69 -1.39584 -4.39675 0
M  V30 10471 H 1025.94 -1.37862 -4.11311 0
M  V30 10472 H 1026.61 -0.509366 -5.49645 0
M  V30 10473 H 1029.08 0.800514 -4.08327 0
M  V30 10474 H 1027.96 1.48837 -5.28336 0
M  V30 10475 H 1028.22 2.32432 -3.76069 0
M  V30 10476 N 1027.28 1.57312 -0.0952337 0
M  V30 10477 C 1028.56 1.85822 0.610715 0
M  V30 10478 C 1028.94 0.992114 1.86334 0
M  V30 10479 O 1028.28 0.0645669 2.28409 0
M  V30 10480 C 1028.49 3.36492 0.925967 0
M  V30 10481 C 1029.84 4.0455 1.28936 0
M  V30 10482 O 1030.87 3.41374 1.01698 0
M  V30 10483 O 1029.73 5.16024 1.79949 0
M  V30 10484 H 1026.82 0.768454 0.305626 0
M  V30 10485 H 1029.37 1.69217 -0.127941 0
M  V30 10486 H 1028.14 3.91282 0.0373127 0
M  V30 10487 H 1027.76 3.58443 1.7206 0
M  V30 10488 N 1028.76 -0.17846 1.56586 0
M  V30 10489 C 1030.17 -0.529957 1.50544 0
M  V30 10490 C 1030.37 -1.85015 0.798237 0
M  V30 10491 O 1029.43 -2.49983 0.355639 0
M  V30 10492 C 1030.74 -0.569314 2.95261 0
M  V30 10493 C 1032.29 -0.657008 3.06027 0
M  V30 10494 C 1032.77 -0.727323 4.52188 0
M  V30 10495 N 1034.26 -0.790406 4.56406 0
M  V30 10496 C 1034.99 -0.865265 5.66834 0
M  V30 10497 N 1034.49 -0.901398 6.86911 0
M  V30 10498 N 1036.28 -0.903736 5.54787 0
M  V30 10499 H 1028.43 0.687304 2.00972 0
M  V30 10500 H 1030.69 0.246936 0.915274 0
M  V30 10501 H 1030.4 0.331934 3.5013 0
M  V30 10502 H 1030.27 -1.41828 3.4952 0
M  V30 10503 H 1032.66 -1.54868 2.51197 0
M  V30 10504 H 1032.74 0.218495 2.54865 0
M  V30 10505 H 1032.39 0.160067 5.07648 0
M  V30 10506 H 1032.32 -1.61887 5.01099 0
M  V30 10507 H 1034.81 -0.771054 3.6995 0
M  V30 10508 H 1035.12 -0.959494 7.6682 0
M  V30 10509 H 1033.47 -0.869795 6.89536 0
M  V30 10510 H 1036.66 -0.872459 4.59898 0
M  V30 10511 H 1036.83 -0.958615 6.4087 0
M  V30 10512 N 1030.24 -1.51135 -0.446768 0
M  V30 10513 C 1031.65 -1.55919 -1.02694 0
M  V30 10514 C 1032 -0.377038 -1.92543 0
M  V30 10515 O 1031.12 0.507295 -2.1037 0
M  V30 10516 C 1031.72 -2.8257 -1.86922 0
M  V30 10517 C 1030.28 -2.89956 -2.40005 0
M  V30 10518 C 1029.42 -2.50482 -1.18971 0
M  V30 10519 H 1032.37 -1.57048 -0.228403 0
M  V30 10520 H 1032.4 -2.65799 -2.7227 0
M  V30 10521 H 1031.91 -3.6859 -1.21502 0
M  V30 10522 H 1030.01 -2.08343 -3.08907 0
M  V30 10523 H 1030.12 -3.93399 -2.73448 0
M  V30 10524 H 1028.49 -2.03466 -1.53211 0
M  V30 10525 H 1029.27 -3.38837 -0.551762 0
M  V30 10526 N 1031.71 0.701592 -1.41122 0
M  V30 10527 C 1032.62 1.84548 -1.44841 0
M  V30 10528 C 1033.64 1.70654 -0.339594 0
M  V30 10529 O 1034.82 1.92675 -0.586378 0
M  V30 10530 C 1031.88 3.20477 -1.3227 0
M  V30 10531 C 1030.94 3.46524 -2.53415 0
M  V30 10532 C 1030.17 4.75968 -2.41434 0
M  V30 10533 O 1030.4 5.52037 -1.43566 0
M  V30 10534 O 1029.33 5.02664 -3.31078 0
M  V30 10535 H 1033.16 1.84367 -2.41335 0
M  V30 10536 H 1030.74 0.853863 -1.22595 0
M  V30 10537 H 1032.62 4.01642 -1.2752 0
M  V30 10538 H 1031.3 3.21355 -0.388889 0
M  V30 10539 H 1030.21 2.65313 -2.63742 0
M  V30 10540 H 1031.54 3.50455 -3.45604 0
M  V30 10541 N 1033.19 1.2685 0.935242 0
M  V30 10542 C 1034.1 1.10716 2.06831 0
M  V30 10543 C 1035.12 0.0391222 1.73956 0
M  V30 10544 O 1036.29 0.244071 1.99916 0
M  V30 10545 C 1033.36 0.748093 3.38533 0
M  V30 10546 C 1032.42 1.89619 3.85153 0
M  V30 10547 C 1031.65 1.55416 5.1057 0
M  V30 10548 O 1031.88 0.458596 5.68553 0
M  V30 10549 O 1030.81 2.39087 5.52378 0
M  V30 10550 H 1034.64 2.05785 2.23352 0
M  V30 10551 H 1032.22 1.05967 1.05315 0
M  V30 10552 H 1034.1 0.560841 4.17651 0
M  V30 10553 H 1032.78 -0.173142 3.23237 0
M  V30 10554 H 1031.68 2.13845 3.06954 0
M  V30 10555 H 1033.02 2.79737 4.04979 0
M  V30 10556 N 1034.67 -1.14067 1.0875 0
M  V30 10557 C 1035.9 -1.89041 0.840902 0
M  V30 10558 C 1036.31 -1.78768 -0.60725 0
M  V30 10559 O 1035.67 -1.14945 -1.41753 0
M  V30 10560 C 1035.72 -3.38891 1.25838 0
M  V30 10561 O 1035.44 -3.48886 2.64972 0
M  V30 10562 C 1036.94 -4.30852 1.04315 0
M  V30 10563 H 1034.16 -0.598685 0.303014 0
M  V30 10564 H 1036.71 -1.44438 1.44769 0
M  V30 10565 H 1034.86 -3.81103 0.695627 0
M  V30 10566 H 1035.28 -4.41989 2.82393 0
M  V30 10567 H 1036.75 -5.34353 1.38461 0
M  V30 10568 H 1037.23 -4.39196 -0.0195784 0
M  V30 10569 H 1037.83 -3.944 1.59151 0
M  V30 10570 N 1036.15 -0.873678 -1.31166 0
M  V30 10571 C 1037.37 -0.500242 -2.01277 0
M  V30 10572 C 1037.8 0.900811 -1.65127 0
M  V30 10573 O 1037.16 1.59504 -0.861862 0
M  V30 10574 C 1037.2 -0.668976 -3.5434 0
M  V30 10575 O 1036.31 0.290096 -4.11378 0
M  V30 10576 H 1035.65 -0.198507 -0.633633 0
M  V30 10577 H 1038.18 -1.17811 -1.67277 0
M  V30 10578 H 1038.19 -0.563673 -4.04088 0
M  V30 10579 H 1036.86 -1.69055 -3.79991 0
M  V30 10580 H 1035.44 0.139437 -3.72639 0
M  V30 10581 N 1037.63 1.44308 -0.633487 0
M  V30 10582 C 1038.85 2.06384 -0.146063 0
M  V30 10583 C 1039.27 1.47357 1.18031 0
M  V30 10584 O 1038.63 0.597334 1.72448 0
M  V30 10585 C 1038.68 3.61489 -0.0276722 0
M  V30 10586 O 1038.4 4.18318 -1.3016 0
M  V30 10587 C 1039.9 4.40604 0.488168 0
M  V30 10588 H 1037.12 0.666122 -0.0807632 0
M  V30 10589 H 1039.66 1.85139 -0.868557 0
M  V30 10590 H 1037.82 3.81988 0.645273 0
M  V30 10591 H 1038.23 5.11783 -1.14797 0
M  V30 10592 H 1039.71 5.49545 0.520013 0
M  V30 10593 H 1040.18 4.12218 1.51568 0
M  V30 10594 H 1040.79 4.2503 -0.151608 0
M  V30 10595 N 1039.1 0.374177 1.53094 0
M  V30 10596 C 1040.35 -0.213981 2.00562 0
M  V30 10597 C 1040.67 -1.4916 1.26533 0
M  V30 10598 O 1041.87 -2.15889 1.64634 0
M  V30 10599 C 1040.33 -0.431876 3.57299 0
M  V30 10600 C 1039.94 0.831615 4.40214 0
M  V30 10601 C 1041.68 -0.977222 4.13099 0
M  V30 10602 C 1039.59 0.582831 5.88521 0
M  V30 10603 H 1038.52 -0.0837386 0.749336 0
M  V30 10604 H 1041.17 0.494245 1.76719 0
M  V30 10605 H 1039.55 -1.20158 3.7733 0
M  V30 10606 H 1040.72 1.60477 4.31953 0
M  V30 10607 H 1039.04 1.30081 3.9556 0
M  V30 10608 H 1041.64 -1.17881 5.21544 0
M  V30 10609 H 1041.98 -1.94189 3.68234 0
M  V30 10610 H 1042.51 -0.267473 3.969 0
M  V30 10611 H 1039.25 1.51807 6.37679 0
M  V30 10612 H 1038.77 -0.151666 5.99608 0
M  V30 10613 H 1040.45 0.211604 6.46654 0
M  V30 10614 N 1040.58 -1.57259 0.103575 0
M  V30 10615 C 1041.83 -1.93832 -0.55786 0
M  V30 10616 C 1042.14 -0.988087 -1.68808 0
M  V30 10617 O 1043.35 -1.24786 -2.41124 0
M  V30 10618 C 1041.81 -3.44433 -1.04373 0
M  V30 10619 C 1041.41 -4.47963 0.0571971 0
M  V30 10620 C 1043.16 -3.89953 -1.67742 0
M  V30 10621 C 1041.07 -5.89727 -0.444505 0
M  V30 10622 H 1040 -0.723536 -0.212161 0
M  V30 10623 H 1042.65 -1.82606 0.180944 0
M  V30 10624 H 1041.03 -3.50841 -1.83648 0
M  V30 10625 H 1042.2 -4.53209 0.83298 0
M  V30 10626 H 1040.52 -4.12104 0.596588 0
M  V30 10627 H 1043.11 -4.93272 -2.06365 0
M  V30 10628 H 1043.46 -3.2907 -2.54988 0
M  V30 10629 H 1043.99 -3.86281 -0.950342 0
M  V30 10630 H 1040.73 -6.5433 0.391543 0
M  V30 10631 H 1040.25 -5.87935 -1.18711 0
M  V30 10632 H 1041.93 -6.40558 -0.910739 0
M  V30 10633 N 1042.06 0.170153 -1.56679 0
M  V30 10634 C 1043.48 0.521966 -1.50823 0
M  V30 10635 C 1043.68 1.84589 -0.808037 0
M  V30 10636 O 1042.73 2.49791 -0.368891 0
M  V30 10637 C 1044.05 0.553648 -2.95559 0
M  V30 10638 C 1045.59 0.640769 -3.06371 0
M  V30 10639 C 1046.07 0.703332 -4.52567 0
M  V30 10640 N 1047.56 0.76619 -4.56819 0
M  V30 10641 C 1048.29 0.835192 -5.67285 0
M  V30 10642 N 1047.79 0.864957 -6.87379 0
M  V30 10643 N 1049.58 0.874302 -5.55259 0
M  V30 10644 H 1041.73 -0.697952 -2.00605 0
M  V30 10645 H 1044 -0.251787 -0.913952 0
M  V30 10646 H 1043.7 -0.350498 -3.49949 0
M  V30 10647 H 1043.58 1.39973 -3.50268 0
M  V30 10648 H 1045.96 1.53534 -2.52015 0
M  V30 10649 H 1046.05 -0.232008 -2.54746 0
M  V30 10650 H 1045.69 -0.186986 -5.07556 0
M  V30 10651 H 1045.62 1.59227 -5.0195 0
M  V30 10652 H 1048.11 0.751424 -3.70354 0
M  V30 10653 H 1048.42 0.918814 -7.67318 0
M  V30 10654 H 1046.77 0.833215 -6.89987 0
M  V30 10655 H 1049.96 0.848057 -4.60354 0
M  V30 10656 H 1050.13 0.924615 -6.4137 0
M  V30 10657 N 1043.54 1.5137 0.438746 0
M  V30 10658 C 1044.79 1.63645 1.18595 0
M  V30 10659 C 1045.11 0.354241 1.91755 0
M  V30 10660 O 1044.38 -0.629838 1.85499 0
M  V30 10661 H 1042.96 0.603103 0.440767 0
M  V30 10662 H 1045.62 1.88293 0.503159 0
M  V30 10663 H 1044.72 2.46342 1.9163 0
M  V30 10664 N 1045.02 -0.694098 1.41492 0
M  V30 10665 C 1045.95 -1.82042 1.46229 0
M  V30 10666 C 1046.93 -1.67047 0.320803 0
M  V30 10667 O 1048.11 -1.86758 0.53245 0
M  V30 10668 C 1045.24 -3.2019 1.34519 0
M  V30 10669 C 1044.2 -3.49892 2.46495 0
M  V30 10670 C 1043.52 -4.87411 2.1985 0
M  V30 10671 C 1044.82 -3.4872 3.88834 0
M  V30 10672 H 1046.52 -1.78335 2.40493 0
M  V30 10673 H 1044.06 -0.856566 1.15754 0
M  V30 10674 H 1046.02 -3.98699 1.36445 0
M  V30 10675 H 1044.74 -3.24527 0.367406 0
M  V30 10676 H 1043.4 -2.73734 2.43854 0
M  V30 10677 H 1043.05 -4.88375 1.20411 0
M  V30 10678 H 1042.75 -5.08248 2.94885 0
M  V30 10679 H 1044.27 -5.68228 2.23494 0
M  V30 10680 H 1045.68 -4.1723 3.93182 0
M  V30 10681 H 1044.08 -3.81089 4.63564 0
M  V30 10682 H 1045.15 -2.47665 4.16881 0
M  V30 10683 N 1046.49 -1.27344 -0.928501 0
M  V30 10684 C 1047.44 -1.09835 -2.05034 0
M  V30 10685 C 1048.44 -0.0216643 -1.69386 0
M  V30 10686 O 1049.64 -0.179323 -1.79105 0
M  V30 10687 H 1046.02 -0.338416 -0.671549 0
M  V30 10688 H 1047.99 -2.04879 -2.1695 0
M  V30 10689 C 1046.74 -0.761462 -3.3926 0
M  V30 10690 H 1046.06 -1.58186 -3.67175 0
M  V30 10691 H 1047.5 -0.678812 -4.18531 0
M  V30 10692 C 1045.96 0.534118 -3.32639 0
M  V30 10693 O 1046.49 1.56877 -3.69801 0
M  V30 10694 N 1044.7 0.529437 -2.85736 0
M  V30 10695 H 1044.24 -0.312954 -2.55692 0
M  V30 10696 H 1044.2 1.39637 -2.81689 0
M  V30 10697 N 1047.97 1.13488 -1.09353 0
M  V30 10698 C 1048.94 2.17066 -0.735863 0
M  V30 10699 C 1049.94 1.59086 0.234181 0
M  V30 10700 O 1051.13 1.74196 0.012463 0
M  V30 10701 C 1048.26 3.40786 -0.0880975 0
M  V30 10702 H 1049.45 2.50221 -1.65316 0
M  V30 10703 H 1047 1.28304 -0.89263 0
M  V30 10704 H 1047.74 3.1322 0.840462 0
M  V30 10705 H 1047.52 3.8414 -0.786073 0
M  V30 10706 H 1049.01 4.17342 0.146775 0
M  V30 10707 N 1049.45 0.880621 1.30701 0
M  V30 10708 C 1050.68 0.510909 2.01009 0
M  V30 10709 C 1051.1 -0.892041 1.65603 0
M  V30 10710 O 1050.46 -1.59045 0.870309 0
M  V30 10711 C 1050.51 0.687759 3.53981 0
M  V30 10712 O 1049.61 -0.268275 4.11526 0
M  V30 10713 H 1048.95 0.201864 0.632572 0
M  V30 10714 H 1051.48 1.18697 1.6665 0
M  V30 10715 H 1051.49 0.585095 4.03783 0
M  V30 10716 H 1050.17 1.71068 3.79089 0
M  V30 10717 H 1048.74 -0.119673 3.72708 0
M  V30 10718 N 1050.93 -1.4397 0.641131 0
M  V30 10719 C 1052.16 -2.06303 0.157006 0
M  V30 10720 C 1052.57 -1.47981 -1.17248 0
M  V30 10721 O 1051.93 -0.606471 -1.72128 0
M  V30 10722 C 1051.98 -3.6147 0.0468425 0
M  V30 10723 O 1051.7 -4.17622 1.32376 0
M  V30 10724 C 1053.2 -4.40857 -0.464795 0
M  V30 10725 H 1050.42 -0.665684 0.0842946 0
M  V30 10726 H 1052.97 -1.84675 0.878363 0
M  V30 10727 H 1051.12 -3.82325 -0.625006 0
M  V30 10728 H 1051.54 -5.11167 1.17509 0
M  V30 10729 H 1053.01 -5.49813 -0.490862 0
M  V30 10730 H 1053.49 -4.13016 -1.4938 0
M  V30 10731 H 1054.09 -4.24943 0.174146 0
M  V30 10732 N 1052.41 -0.382291 -1.52893 0
M  V30 10733 C 1053.82 -0.031941 -1.59568 0
M  V30 10734 C 1054.02 1.45245 -1.39664 0
M  V30 10735 O 1053.08 2.21612 -1.21013 0
M  V30 10736 C 1054.39 -0.502846 -2.96466 0
M  V30 10737 C 1055.94 -0.4585 -3.09624 0
M  V30 10738 C 1056.42 -0.905481 -4.4896 0
M  V30 10739 N 1057.91 -0.861211 -4.55124 0
M  V30 10740 C 1058.64 -1.17856 -5.61157 0
M  V30 10741 N 1058.14 -1.56603 -6.74868 0
M  V30 10742 N 1059.93 -1.10027 -5.51226 0
M  V30 10743 H 1052.08 -1.34875 -1.64081 0
M  V30 10744 H 1054.34 -0.552375 -0.770446 0
M  V30 10745 H 1054.05 -1.53931 -3.16225 0
M  V30 10746 H 1053.92 0.101777 -3.77063 0
M  V30 10747 H 1056.31 0.568868 -2.89565 0
M  V30 10748 H 1056.39 -1.09884 -2.30996 0
M  V30 10749 H 1056.04 -1.93105 -4.69759 0
M  V30 10750 H 1055.97 -0.242227 -5.26043 0
M  V30 10751 H 1058.46 -0.575988 -3.73485 0
M  V30 10752 H 1058.77 -1.792 -7.51736 0
M  V30 10753 H 1057.12 -1.60484 -6.76217 0
M  V30 10754 H 1060.31 -0.796623 -4.61272 0
M  V30 10755 H 1060.48 -1.35091 -6.33762 0
M  V30 10756 N 1053.89 1.57202 -0.111913 0
M  V30 10757 C 1055.12 1.99008 0.554907 0
M  V30 10758 C 1055.52 0.990323 1.61212 0
M  V30 10759 O 1054.87 -0.0259612 1.83682 0
M  V30 10760 C 1054.93 3.37218 1.24598 0
M  V30 10761 C 1054.59 4.55752 0.337549 0
M  V30 10762 C 1055.59 5.18192 -0.421026 0
M  V30 10763 C 1053.27 5.01674 0.25069 0
M  V30 10764 C 1055.27 6.24938 -1.25426 0
M  V30 10765 C 1052.96 6.08282 -0.586186 0
M  V30 10766 C 1053.95 6.6978 -1.3373 0
M  V30 10767 O 1053.64 7.7433 -2.16029 0
M  V30 10768 H 1053.37 0.658669 0.152091 0
M  V30 10769 H 1055.93 2.04492 -0.192937 0
M  V30 10770 H 1054.16 3.28467 2.04074 0
M  V30 10771 H 1055.85 3.63359 1.809 0
M  V30 10772 H 1056.61 4.83634 -0.363752 0
M  V30 10773 H 1052.49 4.53558 0.825005 0
M  V30 10774 H 1056.04 6.72869 -1.84102 0
M  V30 10775 H 1051.93 6.42271 -0.64488 0
M  V30 10776 H 1052.7 7.91395 -2.08894 0
M  V30 10777 N 1055.36 -0.161842 1.56767 0
M  V30 10778 C 1056.29 -1.20226 2.0017 0
M  V30 10779 C 1057.27 -1.4564 0.878807 0
M  V30 10780 O 1058.46 -1.56813 1.14557 0
M  V30 10781 C 1055.59 -2.53897 2.36968 0
M  V30 10782 C 1054.54 -2.43033 3.52305 0
M  V30 10783 C 1053.87 -3.81281 3.74872 0
M  V30 10784 C 1055.17 -1.927 4.85453 0
M  V30 10785 H 1056.86 -0.84142 2.87333 0
M  V30 10786 H 1054.41 -0.403309 1.38237 0
M  V30 10787 H 1056.36 -3.26893 2.6593 0
M  V30 10788 H 1055.09 -2.91787 1.46724 0
M  V30 10789 H 1053.75 -1.7249 3.23485 0
M  V30 10790 H 1053.39 -4.1658 2.81904 0
M  V30 10791 H 1053.09 -3.74877 4.52483 0
M  V30 10792 H 1054.62 -4.55848 4.06245 0
M  V30 10793 H 1056.03 -2.55477 5.13229 0
M  V30 10794 H 1054.43 -1.97222 5.66766 0
M  V30 10795 H 1055.5 -0.881816 4.76814 0
M  V30 10796 N 1056.84 -1.516 -0.430713 0
M  V30 10797 C 1058.09 -1.64596 -1.17959 0
M  V30 10798 C 1058.42 -0.365382 -1.91037 0
M  V30 10799 O 1057.67 0.650826 -1.84561 0
M  V30 10800 C 1057.97 -2.804 -2.21609 0
M  V30 10801 C 1057.64 -4.19431 -1.65495 0
M  V30 10802 C 1056.3 -4.57252 -1.49915 0
M  V30 10803 C 1058.65 -5.0616 -1.24304 0
M  V30 10804 C 1055.98 -5.79501 -0.916276 0
M  V30 10805 C 1058.33 -6.28995 -0.674437 0
M  V30 10806 C 1056.99 -6.65582 -0.505591 0
M  V30 10807 H 1056.26 -0.602301 -0.431642 0
M  V30 10808 H 1058.91 -1.8565 -0.469726 0
M  V30 10809 H 1057.22 -2.53595 -2.98658 0
M  V30 10810 H 1058.91 -2.87654 -2.79385 0
M  V30 10811 H 1055.5 -3.89615 -1.78599 0
M  V30 10812 H 1059.69 -4.77541 -1.35159 0
M  V30 10813 H 1054.94 -6.0649 -0.77328 0
M  V30 10814 H 1059.12 -6.95536 -0.346779 0
M  V30 10815 H 1056.74 -7.60182 -0.0518188 0
M  V30 10816 N 1058.32 0.686584 -1.41858 0
M  V30 10817 C 1059.74 0.998283 -1.24525 0
M  V30 10818 C 1059.94 2.01006 -0.141007 0
M  V30 10819 O 1058.99 2.47667 0.491648 0
M  V30 10820 C 1060.3 1.51432 -2.59786 0
M  V30 10821 C 1061.85 1.6327 -2.67043 0
M  V30 10822 C 1062.33 2.18274 -4.02642 0
M  V30 10823 N 1063.82 2.25622 -4.04535 0
M  V30 10824 C 1064.55 2.69229 -5.06264 0
M  V30 10825 N 1064.05 3.12375 -6.1838 0
M  V30 10826 N 1065.84 2.68873 -4.93623 0
M  V30 10827 H 1057.99 0.0164825 -2.12394 0
M  V30 10828 H 1060.26 0.0698613 -0.945422 0
M  V30 10829 H 1059.96 0.845426 -3.41388 0
M  V30 10830 H 1059.84 2.49502 -2.82894 0
M  V30 10831 H 1062.22 2.29269 -1.85794 0
M  V30 10832 H 1062.3 0.637221 -2.47736 0
M  V30 10833 H 1061.95 1.52887 -4.84343 0
M  V30 10834 H 1061.88 3.18591 -4.19294 0
M  V30 10835 H 1064.37 1.95186 -3.23591 0
M  V30 10836 H 1064.68 3.44301 -6.91864 0
M  V30 10837 H 1063.03 3.10262 -6.21902 0
M  V30 10838 H 1066.22 2.34521 -4.05114 0
M  V30 10839 H 1066.39 3.02539 -5.7304 0
M  V30 10840 N 1059.8 1.27835 0.921735 0
M  V30 10841 C 1060.73 1.05397 2.02402 0
M  V30 10842 C 1061.71 -0.0274904 1.62577 0
M  V30 10843 O 1062.89 0.11885 1.88125 0
M  V30 10844 C 1060.02 0.600016 3.33343 0
M  V30 10845 C 1059.07 1.67693 3.9215 0
M  V30 10846 S 1059.9 3.27093 4.23994 0
M  V30 10847 C 1061.05 2.83513 5.58006 0
M  V30 10848 H 1061.29 1.98723 2.21125 0
M  V30 10849 H 1058.82 1.11733 1.0656 0
M  V30 10850 H 1060.78 0.344793 4.09049 0
M  V30 10851 H 1059.44 -0.313288 3.12534 0
M  V30 10852 H 1058.63 1.31074 4.86658 0
M  V30 10853 H 1058.23 1.88454 3.2305 0
M  V30 10854 H 1060.53 2.29187 6.37557 0
M  V30 10855 H 1061.47 3.76788 5.9953 0
M  V30 10856 H 1061.88 2.22472 5.18813 0
M  V30 10857 N 1061.28 -1.12907 1.09954 0
M  V30 10858 C 1062.69 -1.363 0.830326 0
M  V30 10859 C 1062.89 -1.93772 -0.552694 0
M  V30 10860 O 1061.95 -2.1607 -1.30652 0
M  V30 10861 C 1063.26 -2.30925 1.92598 0
M  V30 10862 C 1064.81 -2.44528 1.95385 0
M  V30 10863 C 1065.28 -3.42464 3.0411 0
M  V30 10864 N 1066.77 -3.50018 3.03384 0
M  V30 10865 C 1067.51 -4.25693 3.84152 0
M  V30 10866 N 1067.01 -5.04476 4.74843 0
M  V30 10867 N 1068.8 -4.21049 3.7239 0
M  V30 10868 H 1060.95 -0.739571 1.99108 0
M  V30 10869 H 1063.21 -0.387983 0.86497 0
M  V30 10870 H 1062.92 -1.95861 2.92115 0
M  V30 10871 H 1062.79 -3.30997 1.80889 0
M  V30 10872 H 1065.18 -2.78875 0.965037 0
M  V30 10873 H 1065.26 -1.44361 2.11172 0
M  V30 10874 H 1064.9 -3.08847 4.03207 0
M  V30 10875 H 1064.83 -4.42448 2.85565 0
M  V30 10876 H 1067.33 -2.93809 2.37665 0
M  V30 10877 H 1067.64 -5.59541 5.33042 0
M  V30 10878 H 1065.98 -5.0369 4.78875 0
M  V30 10879 H 1069.17 -3.5858 3.00895 0
M  V30 10880 H 1069.35 -4.79771 4.35572 0
M  V30 10881 N 1062.75 -0.88754 -1.30232 0
M  V30 10882 C 1063.72 -0.361095 -2.26338 0
M  V30 10883 C 1064.72 0.497871 -1.52898 0
M  V30 10884 O 1065.91 0.30466 -1.71515 0
M  V30 10885 C 1063.04 0.485135 -3.3743 0
M  V30 10886 H 1064.23 -1.20973 -2.74419 0
M  V30 10887 H 1061.78 -0.664619 -1.41466 0
M  V30 10888 H 1062.52 1.35425 -2.9467 0
M  V30 10889 H 1062.3 -0.130173 -3.91884 0
M  V30 10890 H 1063.79 0.845169 -4.08958 0
M  V30 10891 N 1064.23 1.43628 -0.648757 0
M  V30 10892 C 1065.46 2.06732 -0.166284 0
M  V30 10893 C 1065.88 1.48281 1.15734 0
M  V30 10894 O 1065.24 0.591018 1.71396 0
M  V30 10895 C 1065.29 3.60502 -0.0838732 0
M  V30 10896 O 1064.39 4.01186 0.955185 0
M  V30 10897 H 1063.73 0.657479 -0.0928285 0
M  V30 10898 H 1066.26 1.84208 -0.890421 0
M  V30 10899 H 1066.27 4.07875 0.100923 0
M  V30 10900 H 1064.95 4.02424 -1.05014 0
M  V30 10901 H 1063.53 3.65412 0.743537 0
M  V30 10902 N 1065.71 0.390394 1.52688 0
M  V30 10903 C 1066.96 -0.192697 2.00777 0
M  V30 10904 C 1067.27 -1.4781 1.28108 0
M  V30 10905 O 1068.48 -2.1413 1.66914 0
M  V30 10906 C 1066.93 -0.393955 3.57737 0
M  V30 10907 C 1066.54 0.878259 4.39307 0
M  V30 10908 C 1068.29 -0.933352 4.14112 0
M  V30 10909 C 1066.19 0.645218 5.8787 0
M  V30 10910 H 1065.12 -0.0757862 0.750182 0
M  V30 10911 H 1067.77 0.512961 1.76184 0
M  V30 10912 H 1066.16 -1.16149 3.78583 0
M  V30 10913 H 1067.33 1.65049 4.30227 0
M  V30 10914 H 1065.65 1.34269 3.94158 0
M  V30 10915 H 1068.24 -1.12343 5.22765 0
M  V30 10916 H 1068.59 -1.90272 3.70273 0
M  V30 10917 H 1069.12 -0.225361 3.97161 0
M  V30 10918 H 1065.86 1.58562 6.36033 0
M  V30 10919 H 1065.38 -0.0880609 5.99735 0
M  V30 10920 H 1067.06 0.280178 6.46393 0
M  V30 10921 N 1067.19 -1.57141 0.120249 0
M  V30 10922 C 1068.12 -2.12454 -0.859987 0
M  V30 10923 C 1069.13 -1.06755 -1.22911 0
M  V30 10924 O 1070.32 -1.34124 -1.17784 0
M  V30 10925 C 1067.42 -2.61024 -2.16147 0
M  V30 10926 C 1066.6 -3.90835 -1.96385 0
M  V30 10927 C 1065.65 -4.2499 -3.10274 0
M  V30 10928 O 1064.68 -4.93786 -2.83133 0
M  V30 10929 N 1065.88 -3.82411 -4.36741 0
M  V30 10930 H 1068.65 -2.97186 -0.387402 0
M  V30 10931 H 1066.21 -1.61773 -0.0641376 0
M  V30 10932 H 1068.2 -2.80903 -2.91334 0
M  V30 10933 H 1066.77 -1.81166 -2.5475 0
M  V30 10934 H 1065.99 -3.79853 -1.05383 0
M  V30 10935 H 1067.28 -4.75712 -1.80487 0
M  V30 10936 H 1066.68 -3.26926 -4.61666 0
M  V30 10937 H 1065.23 -4.07395 -5.08795 0
M  V30 10938 N 1068.67 0.153526 -1.5685 0
M  V30 10939 C 1069.91 0.865519 -1.82629 0
M  V30 10940 C 1070.24 1.81999 -0.700105 0
M  V30 10941 O 1069.51 1.93907 0.278744 0
M  V30 10942 H 1068.09 0.32261 -0.673745 0
M  V30 10943 H 1070.75 0.149088 -1.94329 0
M  V30 10944 H 1069.84 1.43171 -2.77324 0
M  V30 10945 N 1070.14 1.51827 0.422667 0
M  V30 10946 C 1071.07 1.77152 1.52117 0
M  V30 10947 C 1072.06 0.621895 1.58324 0
M  V30 10948 O 1073.24 0.866118 1.73816 0
M  V30 10949 C 1070.37 1.90991 2.90068 0
M  V30 10950 C 1069.32 3.06516 2.98717 0
M  V30 10951 C 1068.65 3.05559 4.38791 0
M  V30 10952 C 1069.95 4.46223 2.71445 0
M  V30 10953 H 1071.64 2.69135 1.31175 0
M  V30 10954 H 1069.19 1.29507 0.629607 0
M  V30 10955 H 1071.14 2.07291 3.6689 0
M  V30 10956 H 1069.87 0.956688 3.12274 0
M  V30 10957 H 1068.53 2.89945 2.24338 0
M  V30 10958 H 1068.17 2.07985 4.57986 0
M  V30 10959 H 1067.87 3.83144 4.45505 0
M  V30 10960 H 1069.4 3.23971 5.17566 0
M  V30 10961 H 1070.81 4.63069 3.37994 0
M  V30 10962 H 1069.21 5.25623 2.89552 0
M  V30 10963 H 1070.28 4.5525 1.6696 0
M  V30 10964 N 1071.62 -0.679052 1.4222 0
M  V30 10965 C 1072.87 -1.43627 1.42182 0
M  V30 10966 C 1073.19 -1.94964 0.0377095 0
M  V30 10967 O 1072.46 -1.72788 -0.923098 0
M  V30 10968 H 1071.04 -0.532972 0.523402 0
M  V30 10969 H 1073.7 -0.802649 1.77605 0
M  V30 10970 H 1072.8 -2.29137 2.11902 0
M  V30 10971 N 1073.1 -1.28322 -0.914942 0
M  V30 10972 C 1074.38 -1.06111 -1.64316 0
M  V30 10973 C 1074.76 0.399934 -2.07277 0
M  V30 10974 O 1074.11 1.38577 -1.81683 0
M  V30 10975 C 1074.32 -2.03461 -2.83557 0
M  V30 10976 C 1075.66 -2.33541 -3.54604 0
M  V30 10977 O 1076.69 -2.01536 -2.93704 0
M  V30 10978 O 1075.55 -2.88158 -4.64357 0
M  V30 10979 H 1072.64 -0.405451 -0.72079 0
M  V30 10980 H 1075.19 -1.39636 -0.964352 0
M  V30 10981 H 1073.96 -3.01938 -2.48896 0
M  V30 10982 H 1073.58 -1.70574 -3.59152 0
M  V30 10983 N 1074.58 1.12322 -1.10551 0
M  V30 10984 C 1075.82 1.84333 -0.859826 0
M  V30 10985 C 1076.18 1.82539 0.608052 0
M  V30 10986 O 1075.47 1.26086 1.44267 0
M  V30 10987 C 1075.67 3.31177 -1.34375 0
M  V30 10988 C 1075.5 3.47272 -2.85714 0
M  V30 10989 C 1074.27 3.60837 -3.5373 0
M  V30 10990 C 1076.46 3.42336 -3.83811 0
M  V30 10991 N 1074.45 3.65309 -4.93378 0
M  V30 10992 C 1075.82 3.53318 -5.09477 0
M  V30 10993 C 1077.87 3.25809 -3.76501 0
M  V30 10994 C 1076.57 3.49477 -6.28695 0
M  V30 10995 C 1078.6 3.23282 -4.9522 0
M  V30 10996 C 1077.96 3.34826 -6.19735 0
M  V30 10997 H 1074.06 0.690186 -0.367651 0
M  V30 10998 H 1076.65 1.34463 -1.40811 0
M  V30 10999 H 1074.82 3.79585 -0.822767 0
M  V30 11000 H 1076.55 3.91051 -1.04217 0
M  V30 11001 H 1073.3 3.63005 -3.04178 0
M  V30 11002 H 1073.73 3.71207 -5.66157 0
M  V30 11003 H 1078.37 3.15777 -2.81149 0
M  V30 11004 H 1076.09 3.5828 -7.24335 0
M  V30 11005 H 1079.67 3.11674 -4.91274 0
M  V30 11006 H 1078.55 3.32847 -7.10058 0
M  V30 11007 N 1076.06 0.894434 1.2976 0
M  V30 11008 C 1077.28 0.5322 2.00455 0
M  V30 11009 C 1077.71 -0.874427 1.66539 0
M  V30 11010 O 1077.06 -1.58113 0.887129 0
M  V30 11011 C 1077.11 0.725264 3.53231 0
M  V30 11012 O 1076.22 -0.224612 4.11788 0
M  V30 11013 H 1075.56 0.208562 0.630395 0
M  V30 11014 H 1078.09 1.20458 1.65382 0
M  V30 11015 H 1078.1 0.627889 4.0314 0
M  V30 11016 H 1076.77 1.75079 3.77253 0
M  V30 11017 H 1075.35 -0.0801361 3.72814 0
M  V30 11018 N 1077.53 -1.43282 0.656365 0
M  V30 11019 C 1078.48 -2.32556 -0.0452037 0
M  V30 11020 C 1079.48 -1.48789 -0.80982 0
M  V30 11021 O 1080.68 -1.64979 -0.719865 0
M  V30 11022 H 1077.06 -0.751258 -0.0334043 0
M  V30 11023 H 1079.03 -2.89448 0.725423 0
M  V30 11024 C 1077.78 -3.33138 -0.995706 0
M  V30 11025 H 1077.1 -3.97622 -0.416774 0
M  V30 11026 H 1078.54 -3.98231 -1.45562 0
M  V30 11027 C 1077 -2.63978 -2.09325 0
M  V30 11028 O 1077.53 -2.45769 -3.17743 0
M  V30 11029 N 1075.74 -2.23301 -1.8597 0
M  V30 11030 H 1075.28 -2.38312 -0.97802 0
M  V30 11031 H 1075.24 -1.77358 -2.59599 0
M  V30 11032 N 1079.01 -0.398486 -1.52479 0
M  V30 11033 C 1080.24 0.180557 -2.06111 0
M  V30 11034 C 1080.66 1.39751 -1.26945 0
M  V30 11035 O 1080.01 1.79699 -0.318497 0
M  V30 11036 C 1080.06 0.541573 -3.5742 0
M  V30 11037 O 1079.79 -0.627043 -4.33589 0
M  V30 11038 C 1081.29 1.17549 -4.27431 0
M  V30 11039 H 1078.51 0.0250754 -0.670531 0
M  V30 11040 H 1081.05 -0.566368 -1.96501 0
M  V30 11041 H 1079.21 1.23839 -3.67073 0
M  V30 11042 H 1079.62 -0.328233 -5.23472 0
M  V30 11043 H 1081.09 1.37839 -5.34513 0
M  V30 11044 H 1081.57 2.14553 -3.83228 0
M  V30 11045 H 1082.18 0.51918 -4.22119 0
M  V30 11046 N 1080.49 1.57075 -0.12858 0
M  V30 11047 C 1081.74 1.9581 0.527868 0
M  V30 11048 C 1082.07 1.01253 1.65715 0
M  V30 11049 O 1081.35 0.0514853 1.94432 0
M  V30 11050 C 1081.63 3.44406 1.05151 0
M  V30 11051 C 1081.48 4.49737 -0.0750113 0
M  V30 11052 C 1082.8 3.95069 1.9393 0
M  V30 11053 H 1079.92 0.711978 0.19041 0
M  V30 11054 H 1082.56 1.88879 -0.206081 0
M  V30 11055 H 1080.71 3.50443 1.67697 0
M  V30 11056 H 1082.38 4.55793 -0.710685 0
M  V30 11057 H 1080.63 4.27497 -0.736809 0
M  V30 11058 H 1081.3 5.50996 0.332779 0
M  V30 11059 H 1083.77 3.91395 1.41241 0
M  V30 11060 H 1082.65 4.99542 2.27484 0
M  V30 11061 H 1082.91 3.36329 2.86941 0
M  V30 11062 N 1081.97 -0.145205 1.5693 0
M  V30 11063 C 1082.88 -1.19864 2.01667 0
M  V30 11064 C 1083.9 -1.46909 0.932402 0
M  V30 11065 O 1085.07 -1.58543 1.24201 0
M  V30 11066 C 1082.14 -2.51174 2.38982 0
M  V30 11067 C 1081.2 -2.3176 3.61366 0
M  V30 11068 C 1080.43 -3.56809 3.96892 0
M  V30 11069 O 1080.65 -4.63063 3.33059 0
M  V30 11070 O 1079.59 -3.49366 4.9013 0
M  V30 11071 H 1083.41 -0.848821 2.91597 0
M  V30 11072 H 1081 -0.354063 1.45144 0
M  V30 11073 H 1082.88 -3.28587 2.63835 0
M  V30 11074 H 1081.56 -2.85683 1.52207 0
M  V30 11075 H 1080.46 -1.52293 3.41698 0
M  V30 11076 H 1081.8 -2.02167 4.48764 0
M  V30 11077 N 1083.45 -1.52049 -0.414609 0
M  V30 11078 C 1084.36 -1.7788 -1.52958 0
M  V30 11079 C 1085.37 -0.66408 -1.60829 0
M  V30 11080 O 1086.55 -0.948882 -1.77646 0
M  V30 11081 C 1083.61 -1.91906 -2.88744 0
M  V30 11082 C 1082.68 -3.15803 -2.90804 0
M  V30 11083 C 1081.91 -3.29151 -4.20114 0
M  V30 11084 O 1082.13 -2.47892 -5.13718 0
M  V30 11085 O 1081.07 -4.2227 -4.28919 0
M  V30 11086 H 1084.89 -2.72506 -1.34067 0
M  V30 11087 H 1082.48 -1.36826 -0.599918 0
M  V30 11088 H 1084.36 -2.02986 -3.6929 0
M  V30 11089 H 1083.03 -1.00468 -3.07714 0
M  V30 11090 H 1081.94 -3.10185 -2.09131 0
M  V30 11091 H 1083.27 -4.07004 -2.76783 0
M  V30 11092 N 1084.93 0.6715 -1.42579 0
M  V30 11093 C 1086.15 1.46471 -1.46836 0
M  V30 11094 C 1086.58 1.87921 -0.0820658 0
M  V30 11095 O 1085.93 1.5621 0.920217 0
M  V30 11096 C 1085.98 2.68796 -2.40377 0
M  V30 11097 O 1085.09 3.67188 -1.87741 0
M  V30 11098 H 1084.43 0.439901 -0.497376 0
M  V30 11099 H 1086.96 0.823342 -1.87303 0
M  V30 11100 H 1086.97 3.16828 -2.57068 0
M  V30 11101 H 1085.64 2.37967 -3.41093 0
M  V30 11102 H 1084.22 3.26237 -1.80621 0
M  V30 11103 N 1086.4 1.28806 0.908124 0
M  V30 11104 C 1087.63 1.19153 1.69146 0
M  V30 11105 C 1088.05 -0.249056 1.8715 0
M  V30 11106 O 1087.4 -1.16772 1.40251 0
M  V30 11107 C 1087.45 1.89167 3.08055 0
M  V30 11108 O 1087.18 3.27599 2.90879 0
M  V30 11109 C 1088.68 1.85886 4.02444 0
M  V30 11110 H 1085.9 0.413359 0.528559 0
M  V30 11111 H 1088.44 1.7003 1.13622 0
M  V30 11112 H 1086.6 1.42146 3.60379 0
M  V30 11113 H 1087.01 3.62743 3.78837 0
M  V30 11114 H 1088.48 2.39454 4.97359 0
M  V30 11115 H 1088.96 0.832483 4.31238 0
M  V30 11116 H 1089.57 2.32612 3.5605 0
M  V30 11117 N 1087.88 -1.11734 1.11145 0
M  V30 11118 C 1088.81 -2.1976 0.789152 0
M  V30 11119 C 1089.79 -1.68382 -0.241143 0
M  V30 11120 O 1090.98 -1.93914 -0.105292 0
M  V30 11121 C 1088.11 -3.46549 0.228204 0
M  V30 11122 C 1087.06 -4.11123 1.19002 0
M  V30 11123 C 1086.39 -5.32451 0.489928 0
M  V30 11124 C 1087.69 -4.56406 2.53951 0
M  V30 11125 H 1089.38 -2.46978 1.69241 0
M  V30 11126 H 1086.93 -1.18705 0.81517 0
M  V30 11127 H 1088.88 -4.21399 -0.00945908 0
M  V30 11128 H 1087.6 -3.18782 -0.71033 0
M  V30 11129 H 1086.26 -3.38264 1.41326 0
M  V30 11130 H 1085.91 -5.00953 -0.453315 0
M  V30 11131 H 1085.61 -5.76605 1.1314 0
M  V30 11132 H 1087.14 -6.10042 0.260984 0
M  V30 11133 H 1088.55 -5.22592 2.35733 0
M  V30 11134 H 1086.95 -5.11363 3.14051 0
M  V30 11135 H 1088.02 -3.7001 3.13402 0
M  V30 11136 N 1089.36 -0.901303 -1.29284 0
M  V30 11137 C 1090.61 -0.527 -1.95108 0
M  V30 11138 C 1090.93 0.930065 -1.71391 0
M  V30 11139 O 1090.2 1.65601 -1.04658 0
M  V30 11140 H 1088.78 -0.191903 -0.721929 0
M  V30 11141 H 1091.44 -1.14795 -1.57506 0
M  V30 11142 H 1090.54 -0.710945 -3.03895 0
M  V30 11143 N 1090.84 1.42931 -0.663954 0
M  V30 11144 C 1091.79 2.32577 0.03287 0
M  V30 11145 C 1092.78 1.49217 0.801918 0
M  V30 11146 O 1093.99 1.65358 0.711106 0
M  V30 11147 H 1090.36 0.751424 0.0294198 0
M  V30 11148 H 1092.33 2.89059 -0.740763 0
M  V30 11149 C 1091.08 3.33661 0.978025 0
M  V30 11150 H 1090.4 3.97837 0.395681 0
M  V30 11151 H 1091.84 3.98997 1.43448 0
M  V30 11152 C 1090.3 2.65085 2.07922 0
M  V30 11153 O 1090.83 2.4745 3.16435 0
M  V30 11154 N 1089.04 2.24285 1.84783 0
M  V30 11155 H 1088.59 2.38827 0.965368 0
M  V30 11156 H 1088.54 1.78732 2.58655 0
M  V30 11157 N 1092.32 0.406567 1.52266 0
M  V30 11158 C 1093.56 -0.169717 2.01386 0
M  V30 11159 C 1093.88 -1.45864 1.29417 0
M  V30 11160 O 1093.15 -1.9136 0.419327 0
M  V30 11161 H 1091.73 -0.0657075 0.744105 0
M  V30 11162 H 1094.4 0.542221 1.87206 0
M  V30 11163 H 1093.49 -0.367659 3.09927 0
M  V30 11164 N 1093.79 -1.57004 0.136909 0
M  V30 11165 C 1094.72 -2.19262 -0.802902 0
M  V30 11166 C 1095.71 -1.13786 -1.26439 0
M  V30 11167 O 1096.89 -1.42091 -1.32377 0
M  V30 11168 C 1094.02 -2.80624 -2.04615 0
M  V30 11169 C 1092.97 -3.91839 -1.72181 0
M  V30 11170 C 1092.3 -4.4009 -3.03686 0
M  V30 11171 C 1093.6 -5.13095 -0.976249 0
M  V30 11172 H 1095.29 -2.98049 -0.28406 0
M  V30 11173 H 1092.84 -1.43364 -0.135189 0
M  V30 11174 H 1094.79 -3.22842 -2.70834 0
M  V30 11175 H 1093.52 -1.99153 -2.58855 0
M  V30 11176 H 1092.18 -3.50224 -1.08344 0
M  V30 11177 H 1091.82 -3.55454 -3.55896 0
M  V30 11178 H 1091.52 -5.15098 -2.82751 0
M  V30 11179 H 1093.05 -4.84971 -3.70993 0
M  V30 11180 H 1094.46 -5.5222 -1.54033 0
M  V30 11181 H 1092.86 -5.93801 -0.867214 0
M  V30 11182 H 1093.93 -4.84888 0.0338488 0
M  V30 11183 N 1095.27 0.136881 -1.57004 0
M  V30 11184 C 1096.2 1.19402 -1.95642 0
M  V30 11185 C 1097.22 1.38635 -0.853478 0
M  V30 11186 O 1098.41 1.38027 -1.13185 0
M  V30 11187 C 1095.51 2.55716 -2.22402 0
M  V30 11188 C 1094.68 2.57325 -3.53698 0
M  V30 11189 C 1093.74 3.75253 -3.68879 0
M  V30 11190 O 1092.76 3.5966 -4.41173 0
M  V30 11191 N 1093.97 4.93112 -3.06302 0
M  V30 11192 H 1096.73 0.865504 -2.8693 0
M  V30 11193 H 1094.29 0.326346 -1.58577 0
M  V30 11194 H 1096.28 3.33135 -2.29789 0
M  V30 11195 H 1094.85 2.80819 -1.37329 0
M  V30 11196 H 1094.07 1.65749 -3.5766 0
M  V30 11197 H 1095.36 2.55441 -4.40031 0
M  V30 11198 H 1094.76 5.08684 -2.47502 0
M  V30 11199 H 1093.32 5.68271 -3.19236 0
M  V30 11200 N 1096.75 1.52266 0.40654 0
M  V30 11201 C 1097.71 1.75168 1.47814 0
M  V30 11202 C 1098.71 0.621575 1.48301 0
M  V30 11203 O 1099.9 0.889476 1.4978 0
M  V30 11204 C 1097.04 1.83642 2.87208 0
M  V30 11205 H 1098.23 2.70834 1.28798 0
M  V30 11206 H 1095.78 1.42722 0.637196 0
M  V30 11207 H 1096.52 0.898994 3.1159 0
M  V30 11208 H 1096.3 2.65801 2.88257 0
M  V30 11209 H 1097.79 2.03093 3.64888 0
M  V30 11210 N 1098.23 -0.663929 1.42933 0
M  V30 11211 C 1099.14 -1.80643 1.49683 0
M  V30 11212 C 1100.15 -1.69694 0.38472 0
M  V30 11213 O 1101.33 -1.91052 0.637256 0
M  V30 11214 C 1098.4 -3.16858 1.4072 0
M  V30 11215 C 1097.46 -3.39684 2.62514 0
M  V30 11216 C 1096.69 -4.69399 2.53969 0
M  V30 11217 O 1096.91 -5.48037 1.58152 0
M  V30 11218 O 1095.85 -4.93709 3.44289 0
M  V30 11219 H 1099.67 -1.77903 2.46138 0
M  V30 11220 H 1097.26 -0.821059 1.24816 0
M  V30 11221 H 1099.14 -3.9812 1.38124 0
M  V30 11222 H 1097.81 -3.20211 0.473954 0
M  V30 11223 H 1096.72 -2.58227 2.70684 0
M  V30 11224 H 1098.05 -3.41169 3.54774 0
M  V30 11225 N 1099.71 -1.29285 -0.901281 0
M  V30 11226 C 1100.95 -1.16934 -1.64836 0
M  V30 11227 C 1101.28 0.279826 -1.92982 0
M  V30 11228 O 1100.55 1.19179 -1.55478 0
M  V30 11229 H 1099.13 -0.429768 -0.61099 0
M  V30 11230 H 1101.79 -1.62189 -1.08077 0
M  V30 11231 H 1100.88 -1.71821 -2.60545 0
M  V30 11232 N 1101.18 1.11143 -1.11736 0
M  V30 11233 C 1102.6 1.64462 -0.883693 0
M  V30 11234 C 1102.95 1.87324 0.583448 0
M  V30 11235 O 1102.07 1.60975 1.44623 0
M  V30 11236 C 1102.67 2.98765 -1.59764 0
M  V30 11237 C 1101.23 3.4898 -1.41032 0
M  V30 11238 C 1100.37 2.23729 -1.63831 0
M  V30 11239 H 1103.32 0.947415 -1.27317 0
M  V30 11240 H 1103.34 3.65885 -1.04443 0
M  V30 11241 H 1102.86 2.82094 -2.66542 0
M  V30 11242 H 1100.96 3.7081 -0.364781 0
M  V30 11243 H 1101.07 4.27571 -2.16148 0
M  V30 11244 H 1099.43 2.31507 -1.06191 0
M  V30 11245 H 1100.22 2.09597 -2.7189 0
M  V30 11246 N 1102.66 0.908147 1.28804 0
M  V30 11247 C 1103.91 0.539201 1.95501 0
M  V30 11248 C 1104.24 -0.913759 1.7136 0
M  V30 11249 O 1103.52 -1.64904 1.03136 0
M  V30 11250 C 1103.8 0.842372 3.50109 0
M  V30 11251 C 1103.65 2.34765 3.83673 0
M  V30 11252 C 1104.97 0.334658 4.38826 0
M  V30 11253 H 1102.09 0.197373 0.71008 0
M  V30 11254 H 1104.73 1.13637 1.52272 0
M  V30 11255 H 1102.88 0.334143 3.8706 0
M  V30 11256 H 1104.55 2.92607 3.56621 0
M  V30 11257 H 1102.8 2.80494 3.30916 0
M  V30 11258 H 1103.47 2.51034 4.91616 0
M  V30 11259 H 1105.94 0.769961 4.08914 0
M  V30 11260 H 1104.82 0.575914 5.4587 0
M  V30 11261 H 1105.08 -0.764878 4.35433 0
M  V30 11262 N 1104.14 -1.42577 0.671525 0
M  V30 11263 C 1105.07 -2.2915 -0.0477361 0
M  V30 11264 C 1106.09 -1.43503 -0.768805 0
M  V30 11265 O 1107.27 -1.67256 -0.623509 0
M  V30 11266 C 1104.37 -3.20851 -1.09122 0
M  V30 11267 C 1103.55 -4.35134 -0.44463 0
M  V30 11268 C 1102.61 -5.07579 -1.38745 0
M  V30 11269 O 1101.63 -5.62215 -0.889015 0
M  V30 11270 N 1102.83 -5.12786 -2.72086 0
M  V30 11271 H 1105.6 -2.9152 0.695415 0
M  V30 11272 H 1103.16 -1.53467 0.515689 0
M  V30 11273 H 1105.15 -3.66183 -1.72315 0
M  V30 11274 H 1103.72 -2.59956 -1.73614 0
M  V30 11275 H 1102.94 -3.9249 0.36675 0
M  V30 11276 H 1104.23 -5.088 0.00595927 0
M  V30 11277 H 1103.63 -4.69802 -3.15123 0
M  V30 11278 H 1102.19 -5.61774 -3.30535 0
M  V30 11279 N 1105.62 -0.414636 -1.52048 0
M  V30 11280 C 1106.53 0.414861 -2.30903 0
M  V30 11281 C 1107.54 1.04855 -1.38858 0
M  V30 11282 O 1108.72 1.04886 -1.71933 0
M  V30 11283 C 1105.79 1.51356 -3.11917 0
M  V30 11284 C 1104.85 0.902359 -4.19709 0
M  V30 11285 C 1104.08 1.9487 -4.96852 0
M  V30 11286 O 1104.3 3.16766 -4.74358 0
M  V30 11287 O 1103.24 1.55186 -5.8155 0
M  V30 11288 H 1107.06 -0.228251 -3.02841 0
M  V30 11289 H 1104.65 -0.177704 -1.48339 0
M  V30 11290 H 1106.53 2.15127 -3.62351 0
M  V30 11291 H 1105.2 2.14117 -2.42767 0
M  V30 11292 H 1104.11 0.22721 -3.73409 0
M  V30 11293 H 1105.44 0.318587 -4.91168 0
M  V30 11294 N 1107.1 1.56929 -0.145233 0
M  V30 11295 C 1108.32 2.00864 0.516564 0
M  V30 11296 C 1108.75 1.02466 1.57741 0
M  V30 11297 O 1108.1 0.000145439 1.813 0
M  V30 11298 C 1108.15 3.43552 1.09563 0
M  V30 11299 O 1107.26 3.4815 2.21055 0
M  V30 11300 H 1106.6 0.651835 0.126521 0
M  V30 11301 H 1109.13 2.0317 -0.241445 0
M  V30 11302 H 1109.14 3.82316 1.42473 0
M  V30 11303 H 1107.81 4.14677 0.318749 0
M  V30 11304 H 1106.39 3.21228 1.89387 0
M  V30 11305 N 1108.58 -0.128553 1.57075 0
M  V30 11306 C 1109.99 -0.481794 1.52154 0
M  V30 11307 C 1110.19 -1.82381 0.856694 0
M  V30 11308 O 1109.25 -2.48725 0.434989 0
M  V30 11309 C 1110.56 -0.475091 2.96923 0
M  V30 11310 C 1112.11 -0.559315 3.07962 0
M  V30 11311 C 1112.58 -0.583095 4.54273 0
M  V30 11312 N 1114.07 -0.644803 4.5869 0
M  V30 11313 C 1114.81 -0.684493 5.693 0
M  V30 11314 N 1114.31 -0.682407 6.89431 0
M  V30 11315 N 1116.1 -0.726777 5.57382 0
M  V30 11316 H 1108.25 0.750894 1.98684 0
M  V30 11317 H 1110.51 0.27593 0.906955 0
M  V30 11318 H 1110.22 0.443157 3.48897 0
M  V30 11319 H 1110.09 -1.30637 3.53856 0
M  V30 11320 H 1112.48 -1.46798 2.55997 0
M  V30 11321 H 1112.56 0.299468 2.54041 0
M  V30 11322 H 1112.2 0.32149 5.06881 0
M  V30 11323 H 1112.13 -1.45863 5.05996 0
M  V30 11324 H 1114.63 -0.652967 3.72216 0
M  V30 11325 H 1114.94 -0.715051 7.69485 0
M  V30 11326 H 1113.28 -0.649984 6.91954 0
M  V30 11327 H 1116.47 -0.725704 4.6244 0
M  V30 11328 H 1116.65 -0.754242 6.43596 0
M  V30 11329 N 1110.05 -1.5248 -0.398459 0
M  V30 11330 C 1111.02 -1.75949 -1.46883 0
M  V30 11331 C 1112.02 -0.629431 -1.47969 0
M  V30 11332 O 1113.21 -0.897407 -1.49306 0
M  V30 11333 C 1110.34 -1.85162 -2.8623 0
M  V30 11334 H 1111.53 -2.71513 -1.2736 0
M  V30 11335 H 1109.08 -1.43058 -0.629619 0
M  V30 11336 H 1109.82 -0.915505 -3.11109 0
M  V30 11337 H 1109.6 -2.67326 -2.86844 0
M  V30 11338 H 1111.09 -2.05025 -3.63805 0
M  V30 11339 N 1111.53 0.65634 -1.43283 0
M  V30 11340 C 1112.49 1.75117 -1.47874 0
M  V30 11341 C 1113.49 1.56629 -0.363846 0
M  V30 11342 O 1114.68 1.62584 -0.625464 0
M  V30 11343 C 1111.82 3.13957 -1.32831 0
M  V30 11344 H 1113.01 1.72429 -2.45374 0
M  V30 11345 H 1110.56 0.867704 -1.30002 0
M  V30 11346 H 1111.3 3.22259 -0.36326 0
M  V30 11347 H 1111.08 3.28781 -2.13649 0
M  V30 11348 H 1112.57 3.93799 -1.38969 0
M  V30 11349 N 1113.01 1.29761 0.894412 0
M  V30 11350 C 1113.92 1.1724 2.03204 0
M  V30 11351 C 1114.94 0.0944452 1.73743 0
M  V30 11352 O 1116.11 0.307549 1.99038 0
M  V30 11353 C 1113.18 0.855416 3.35981 0
M  V30 11354 C 1112.24 2.01777 3.78926 0
M  V30 11355 C 1111.47 1.71581 5.05367 0
M  V30 11356 O 1111.69 0.639245 5.66807 0
M  V30 11357 O 1110.63 2.56539 5.44492 0
M  V30 11358 H 1114.45 2.12787 2.16692 0
M  V30 11359 H 1112.04 1.09264 1.0189 0
M  V30 11360 H 1113.92 0.693429 4.15656 0
M  V30 11361 H 1112.6 -0.0702195 3.23624 0
M  V30 11362 H 1111.5 2.23502 2.99996 0
M  V30 11363 H 1112.84 2.92479 3.95875 0
M  V30 11364 N 1114.49 -1.10549 1.12324 0
M  V30 11365 C 1115.4 -2.20428 0.803032 0
M  V30 11366 C 1116.41 -1.72756 -0.207674 0
M  V30 11367 O 1117.59 -2.01357 -0.0415623 0
M  V30 11368 C 1114.65 -3.45716 0.261032 0
M  V30 11369 C 1113.72 -4.08129 1.33152 0
M  V30 11370 C 1112.95 -5.27436 0.815288 0
M  V30 11371 O 1113.17 -5.69317 -0.351361 0
M  V30 11372 O 1112.11 -5.80674 1.58434 0
M  V30 11373 H 1115.93 -2.50249 1.72073 0
M  V30 11374 H 1113.52 -1.19263 0.899815 0
M  V30 11375 H 1115.4 -4.21384 -0.0364007 0
M  V30 11376 H 1114.07 -3.17525 -0.629249 0
M  V30 11377 H 1112.98 -3.3415 1.6821 0
M  V30 11378 H 1114.31 -4.4052 2.19552 0
M  V30 11379 N 1115.97 -0.914965 -1.28321 0
M  V30 11380 C 1117.21 -0.547665 -1.94538 0
M  V30 11381 C 1117.53 0.911834 -1.72368 0
M  V30 11382 O 1116.8 1.64481 -1.06408 0
M  V30 11383 H 1115.38 -0.199549 -0.719853 0
M  V30 11384 H 1118.05 -1.16459 -1.5628 0
M  V30 11385 H 1117.14 -0.743138 -3.03124 0
M  V30 11386 N 1117.44 1.42219 -0.679077 0
M  V30 11387 C 1118.37 2.33493 -0.0174528 0
M  V30 11388 C 1119.35 1.50915 0.78477 0
M  V30 11389 O 1120.54 1.79504 0.741065 0
M  V30 11390 C 1117.67 3.34576 0.931463 0
M  V30 11391 C 1116.62 4.2734 0.237527 0
M  V30 11392 C 1115.95 5.18664 1.29967 0
M  V30 11393 C 1117.25 5.14729 -0.886082 0
M  V30 11394 H 1118.94 2.89068 -0.779748 0
M  V30 11395 H 1116.49 1.38993 -0.376419 0
M  V30 11396 H 1118.44 3.97343 1.40343 0
M  V30 11397 H 1117.17 2.77315 1.72523 0
M  V30 11398 H 1115.83 3.65973 -0.214245 0
M  V30 11399 H 1115.47 4.57727 2.08554 0
M  V30 11400 H 1115.17 5.81558 0.840463 0
M  V30 11401 H 1116.7 5.84308 1.77249 0
M  V30 11402 H 1118.11 5.71158 -0.495141 0
M  V30 11403 H 1116.51 5.86478 -1.27135 0
M  V30 11404 H 1117.58 4.52874 -1.733 0
M  V30 11405 N 1118.92 0.422693 1.51826 0
M  V30 11406 C 1120.2 -0.20786 1.94492 0
M  V30 11407 C 1120.58 -1.61414 1.36047 0
M  V30 11408 O 1119.93 -2.21987 0.541657 0
M  V30 11409 C 1120.14 -0.200457 3.48424 0
M  V30 11410 C 1121.48 -0.413199 4.22585 0
M  V30 11411 O 1122.51 -0.27922 3.55104 0
M  V30 11412 O 1121.37 -0.678469 5.42272 0
M  V30 11413 H 1118.46 -0.137851 0.81543 0
M  V30 11414 H 1121.01 0.479617 1.62781 0
M  V30 11415 H 1119.78 0.783263 3.83381 0
M  V30 11416 H 1119.4 -0.931464 3.86535 0
M  V30 11417 N 1120.4 -1.5685 0.153553 0
M  V30 11418 C 1121.33 -2.14231 -0.814729 0
M  V30 11419 C 1122.34 -1.09339 -1.20619 0
M  V30 11420 O 1123.53 -1.36592 -1.14913 0
M  V30 11421 C 1120.63 -2.6555 -2.10562 0
M  V30 11422 C 1119.81 -3.94912 -1.8805 0
M  V30 11423 C 1118.87 -4.31476 -3.0119 0
M  V30 11424 O 1117.89 -4.9968 -2.72596 0
M  V30 11425 N 1119.09 -3.91588 -4.28531 0
M  V30 11426 H 1121.86 -2.9794 -0.324277 0
M  V30 11427 H 1119.42 -1.61873 -0.0298087 0
M  V30 11428 H 1121.41 -2.87019 -2.85311 0
M  V30 11429 H 1119.98 -1.86529 -2.5085 0
M  V30 11430 H 1119.2 -3.82002 -0.973024 0
M  V30 11431 H 1120.49 -4.79433 -1.70356 0
M  V30 11432 H 1119.89 -3.36645 -4.54628 0
M  V30 11433 H 1118.44 -4.18095 -5.00039 0
M  V30 11434 N 1121.88 0.120221 -1.57141 0
M  V30 11435 C 1122.81 1.1732 -1.96898 0
M  V30 11436 C 1123.82 1.37722 -0.868134 0
M  V30 11437 O 1125.01 1.36818 -1.14643 0
M  V30 11438 C 1122.11 2.53343 -2.25102 0
M  V30 11439 C 1121.28 2.53559 -3.56408 0
M  V30 11440 C 1120.34 3.71319 -3.72838 0
M  V30 11441 O 1119.37 3.54961 -4.44962 0
M  V30 11442 N 1120.57 4.89836 -3.11514 0
M  V30 11443 H 1123.34 0.835023 -2.87832 0
M  V30 11444 H 1120.9 0.309508 -1.58914 0
M  V30 11445 H 1122.89 3.30679 -2.3331 0
M  V30 11446 H 1121.46 2.79347 -1.403 0
M  V30 11447 H 1120.68 1.61946 -3.59398 0
M  V30 11448 H 1121.97 2.5076 -4.42716 0
M  V30 11449 H 1121.37 5.0603 -2.52884 0
M  V30 11450 H 1119.92 5.64853 -3.25246 0
M  V30 11451 N 1123.36 1.52689 0.390367 0
M  V30 11452 C 1124.29 1.80338 1.48325 0
M  V30 11453 C 1125.27 0.655338 1.56969 0
M  V30 11454 O 1126.45 0.902792 1.7194 0
M  V30 11455 C 1123.58 1.97101 2.85952 0
M  V30 11456 C 1122.54 3.12783 2.92148 0
M  V30 11457 C 1121.86 3.14798 4.32211 0
M  V30 11458 C 1123.16 4.5188 2.61919 0
M  V30 11459 H 1124.86 2.71857 1.25437 0
M  V30 11460 H 1122.4 1.30813 0.601995 0
M  V30 11461 H 1124.36 2.15027 3.62411 0
M  V30 11462 H 1123.08 1.02271 3.10174 0
M  V30 11463 H 1121.74 2.94638 2.18137 0
M  V30 11464 H 1121.39 2.17653 4.53471 0
M  V30 11465 H 1121.09 3.92507 4.37278 0
M  V30 11466 H 1122.61 3.34877 5.10578 0
M  V30 11467 H 1124.02 4.70134 3.28096 0
M  V30 11468 H 1122.42 5.31647 2.78337 0
M  V30 11469 H 1123.49 4.58689 1.57266 0
M  V30 11470 N 1124.83 -0.648732 1.43629 0
M  V30 11471 C 1126.08 -1.40446 1.44768 0
M  V30 11472 C 1126.4 -1.95447 0.0773445 0
M  V30 11473 O 1127.6 -2.71479 -0.0337942 0
M  V30 11474 C 1126.06 -2.54194 2.54781 0
M  V30 11475 C 1125.67 -2.05781 3.97942 0
M  V30 11476 C 1127.41 -3.31529 2.65121 0
M  V30 11477 C 1125.32 -3.16767 4.99412 0
M  V30 11478 H 1124.25 -0.527717 0.538545 0
M  V30 11479 H 1126.9 -0.699756 1.69634 0
M  V30 11480 H 1125.28 -3.27156 2.23125 0
M  V30 11481 H 1126.45 -1.398 4.39081 0
M  V30 11482 H 1124.77 -1.41312 3.91688 0
M  V30 11483 H 1127.37 -4.14233 3.38105 0
M  V30 11484 H 1127.71 -3.79855 1.70341 0
M  V30 11485 H 1128.24 -2.65649 2.961 0
M  V30 11486 H 1124.98 -2.73404 5.9576 0
M  V30 11487 H 1124.5 -3.81445 4.62882 0
M  V30 11488 H 1126.18 -3.81827 5.22319 0
M  V30 11489 N 1126.31 -1.30234 -0.887518 0
M  V30 11490 C 1127.24 -1.18969 -2.00919 0
M  V30 11491 C 1128.22 -0.080952 -1.69907 0
M  V30 11492 O 1129.41 -0.262546 -1.92417 0
M  V30 11493 C 1126.54 -0.878094 -3.36016 0
M  V30 11494 C 1125.49 -1.94449 -3.81279 0
M  V30 11495 C 1124.82 -1.48594 -5.13638 0
M  V30 11496 C 1126.12 -3.35519 -4.00281 0
M  V30 11497 H 1127.81 -2.12808 -2.10602 0
M  V30 11498 H 1125.36 -1.02454 -1.01189 0
M  V30 11499 H 1127.31 -0.785954 -4.14006 0
M  V30 11500 H 1126.04 0.0959779 -3.26459 0
M  V30 11501 H 1124.69 -2.02622 -3.05516 0
M  V30 11502 H 1124.34 -0.500204 -5.00507 0
M  V30 11503 H 1124.04 -2.19921 -5.44893 0
M  V30 11504 H 1125.57 -1.40754 -5.94156 0
M  V30 11505 H 1126.98 -3.30119 -4.68716 0
M  V30 11506 H 1125.38 -4.0491 -4.42909 0
M  V30 11507 H 1126.45 -3.77597 -3.04218 0
M  V30 11508 N 1127.79 1.09952 -1.12909 0
M  V30 11509 C 1128.75 2.14615 -0.804548 0
M  V30 11510 C 1129.75 1.5975 0.18345 0
M  V30 11511 O 1130.94 1.74147 -0.0429623 0
M  V30 11512 C 1128.08 3.40333 -0.196471 0
M  V30 11513 H 1129.27 2.44835 -1.73193 0
M  V30 11514 H 1126.82 1.25399 -0.932997 0
M  V30 11515 H 1127.56 3.15735 0.740388 0
M  V30 11516 H 1127.34 3.81444 -0.907886 0
M  V30 11517 H 1128.83 4.17598 0.0139264 0
M  V30 11518 N 1129.27 0.921757 1.27833 0
M  V30 11519 C 1130.51 0.559906 1.94918 0
M  V30 11520 C 1130.85 -0.895532 1.72319 0
M  V30 11521 O 1130.12 -1.638 1.04879 0
M  V30 11522 C 1130.41 0.879458 3.49196 0
M  V30 11523 C 1130.26 2.38821 3.81162 0
M  V30 11524 C 1131.58 0.381183 4.38446 0
M  V30 11525 H 1128.7 0.204893 0.707946 0
M  V30 11526 H 1131.34 1.15246 1.51058 0
M  V30 11527 H 1129.49 0.375177 3.86684 0
M  V30 11528 H 1131.16 2.96373 3.53498 0
M  V30 11529 H 1129.4 2.83988 3.27923 0
M  V30 11530 H 1130.07 2.56234 4.88926 0
M  V30 11531 H 1132.55 0.813289 4.08075 0
M  V30 11532 H 1131.43 0.633778 5.45229 0
M  V30 11533 H 1131.69 -0.718651 4.3622 0
M  V30 11534 N 1130.75 -1.41857 0.686609 0
M  V30 11535 C 1131.99 -2.01666 0.214118 0
M  V30 11536 C 1132.33 -1.5422 -1.18025 0
M  V30 11537 O 1131.6 -0.749482 -1.7948 0
M  V30 11538 C 1131.88 -3.59147 0.261841 0
M  V30 11539 C 1131.74 -4.16742 1.69251 0
M  V30 11540 C 1133.06 -4.38427 -0.383378 0
M  V30 11541 H 1130.17 -0.732724 0.0792785 0
M  V30 11542 H 1132.82 -1.68724 0.873633 0
M  V30 11543 H 1130.97 -3.87342 -0.29971 0
M  V30 11544 H 1132.64 -3.99456 2.30722 0
M  V30 11545 H 1130.88 -3.72124 2.2295 0
M  V30 11546 H 1131.55 -5.25894 1.6775 0
M  V30 11547 H 1134.03 -4.15992 0.0947701 0
M  V30 11548 H 1132.9 -5.4797 -0.319401 0
M  V30 11549 H 1133.17 -4.172 -1.46276 0
M  V30 11550 N 1132.22 -0.430739 -1.51599 0
M  V30 11551 C 1133.47 0.137657 -2.01631 0
M  V30 11552 C 1133.79 1.43787 -1.31721 0
M  V30 11553 O 1133.06 1.90668 -0.449717 0
M  V30 11554 H 1131.64 0.0538611 -0.745056 0
M  V30 11555 H 1134.31 -0.571935 -1.86319 0
M  V30 11556 H 1133.4 0.318305 -3.10473 0
M  V30 11557 N 1133.7 1.56767 -0.161869 0
M  V30 11558 C 1134.93 2.01401 0.49523 0
M  V30 11559 C 1135.35 1.04133 1.56646 0
M  V30 11560 O 1134.71 0.0193747 1.8129 0
M  V30 11561 C 1134.76 3.44695 1.05913 0
M  V30 11562 O 1133.86 3.50475 2.1735 0
M  V30 11563 H 1133.2 0.65314 0.1196 0
M  V30 11564 H 1135.73 2.02903 -0.26298 0
M  V30 11565 H 1135.74 3.83805 1.3841 0
M  V30 11566 H 1134.42 4.14991 0.274749 0
M  V30 11567 H 1133 3.23218 1.85969 0
M  V30 11568 N 1135.18 -0.111886 1.57202 0
M  V30 11569 C 1136.43 -0.819623 1.85499 0
M  V30 11570 C 1136.76 -1.7919 0.748629 0
M  V30 11571 O 1136.03 -1.92952 -0.244918 0
M  V30 11572 C 1136.32 -1.56324 3.24399 0
M  V30 11573 C 1136.17 -0.610081 4.45643 0
M  V30 11574 C 1137.49 -2.51777 3.60966 0
M  V30 11575 H 1134.61 -0.296512 0.674722 0
M  V30 11576 H 1137.25 -0.0836741 1.89816 0
M  V30 11577 H 1135.4 -2.1906 3.2085 0
M  V30 11578 H 1137.07 0.00898038 4.61299 0
M  V30 11579 H 1135.32 0.0778488 4.3373 0
M  V30 11580 H 1135.99 -1.16718 5.39519 0
M  V30 11581 H 1138.46 -1.99143 3.65351 0
M  V30 11582 H 1137.34 -3.00835 4.59118 0
M  V30 11583 H 1137.6 -3.34769 2.8876 0
M  V30 11584 N 1136.66 -1.52894 -0.382264 0
M  V30 11585 C 1137.88 -1.72453 -1.15216 0
M  V30 11586 C 1138.31 -0.444925 -1.82762 0
M  V30 11587 O 1137.67 0.599825 -1.7109 0
M  V30 11588 C 1137.71 -2.87939 -2.17079 0
M  V30 11589 O 1136.82 -2.55383 -3.23811 0
M  V30 11590 H 1136.16 -0.57324 -0.335099 0
M  V30 11591 H 1138.69 -1.99713 -0.444495 0
M  V30 11592 H 1138.7 -3.13628 -2.60963 0
M  V30 11593 H 1137.37 -3.80765 -1.67305 0
M  V30 11594 H 1135.95 -2.40457 -2.85018 0
M  V30 11595 N 1138.14 0.641106 -1.43971 0
M  V30 11596 C 1139.1 1.73539 -1.49723 0
M  V30 11597 C 1140.1 1.56235 -0.380438 0
M  V30 11598 O 1141.29 1.61912 -0.642673 0
M  V30 11599 C 1138.42 3.1253 -1.36153 0
M  V30 11600 H 1139.62 1.69816 -2.47189 0
M  V30 11601 H 1137.17 0.853867 -1.30915 0
M  V30 11602 H 1137.9 3.21856 -0.39742 0
M  V30 11603 H 1137.69 3.26496 -2.17124 0
M  V30 11604 H 1139.18 3.92303 -1.43138 0
M  V30 11605 N 1139.62 1.30703 0.880598 0
M  V30 11606 C 1140.84 1.22714 1.6658 0
M  V30 11607 C 1141.26 -0.209303 1.87636 0
M  V30 11608 O 1140.62 -1.13771 1.42697 0
M  V30 11609 C 1140.67 1.95659 3.03974 0
M  V30 11610 O 1140.39 3.33695 2.83865 0
M  V30 11611 C 1141.89 1.9438 3.98411 0
M  V30 11612 H 1139.11 0.424478 0.519673 0
M  V30 11613 H 1141.65 1.72402 1.0999 0
M  V30 11614 H 1139.81 1.49758 3.57283 0
M  V30 11615 H 1140.22 3.70697 3.71058 0
M  V30 11616 H 1141.7 2.4995 4.92168 0
M  V30 11617 H 1142.17 0.923767 4.29375 0
M  V30 11618 H 1142.78 2.40112 3.51036 0
M  V30 11619 N 1141.09 -1.09351 1.1349 0
M  V30 11620 C 1142.33 -1.83156 0.907372 0
M  V30 11621 C 1142.7 -1.8376 -0.556441 0
M  V30 11622 O 1143.9 -2.5323 -0.90156 0
M  V30 11623 C 1142.17 -3.25315 1.48004 0
M  V30 11624 S 1143.73 -4.16113 1.39268 0
M  V30 11625 H 1140.55 -0.631319 0.327043 0
M  V30 11626 H 1143.15 -1.31509 1.44657 0
M  V30 11627 H 1141.85 -3.22452 2.53876 0
M  V30 11628 H 1141.38 -3.82034 0.938822 0
M  V30 11629 H 1143.4 -4.94806 0.371645 0
M  V30 11630 N 1142.57 -0.928524 -1.27343 0
M  V30 11631 C 1143.5 -0.445627 -2.29208 0
M  V30 11632 C 1144.48 0.494508 -1.62753 0
M  V30 11633 O 1145.67 0.399082 -1.90055 0
M  V30 11634 C 1142.8 0.301684 -3.45987 0
M  V30 11635 C 1141.75 -0.550695 -4.24442 0
M  V30 11636 C 1141.08 0.325833 -5.33706 0
M  V30 11637 C 1142.38 -1.81559 -4.89728 0
M  V30 11638 H 1144.07 -1.29696 -2.69851 0
M  V30 11639 H 1141.62 -0.625085 -1.29725 0
M  V30 11640 H 1143.57 0.650455 -4.1635 0
M  V30 11641 H 1142.29 1.18705 -3.04264 0
M  V30 11642 H 1140.95 -0.882185 -3.55827 0
M  V30 11643 H 1140.6 1.21018 -4.88225 0
M  V30 11644 H 1140.3 -0.240994 -5.87106 0
M  V30 11645 H 1141.83 0.670156 -6.06911 0
M  V30 11646 H 1143.24 -1.53483 -5.52373 0
M  V30 11647 H 1141.64 -2.32598 -5.53189 0
M  V30 11648 H 1142.71 -2.53461 -4.13383 0
M  V30 11649 N 1144.05 1.41491 -0.694123 0
M  V30 11650 C 1145.28 2.05579 -0.233466 0
M  V30 11651 C 1145.69 1.5223 1.11675 0
M  V30 11652 O 1145.05 0.669937 1.69759 0
M  V30 11653 C 1145.1 3.61047 -0.180967 0
M  V30 11654 O 1144.82 4.12421 -1.47785 0
M  V30 11655 C 1146.32 4.42278 0.300853 0
M  V30 11656 H 1143.54 0.662097 -0.108943 0
M  V30 11657 H 1146.09 1.81288 -0.946299 0
M  V30 11658 H 1144.24 3.84381 0.482678 0
M  V30 11659 H 1144.66 5.06454 -1.364 0
M  V30 11660 H 1146.13 5.51256 0.286464 0
M  V30 11661 H 1146.61 4.18276 1.33948 0
M  V30 11662 H 1147.21 4.24004 -0.331741 0
M  V30 11663 N 1145.53 0.438773 1.51369 0
M  V30 11664 C 1146.78 -0.128723 2.01289 0
M  V30 11665 C 1147.09 -1.43659 1.32745 0
M  V30 11666 O 1148.3 -2.08712 1.73642 0
M  V30 11667 C 1146.75 -0.279945 3.5881 0
M  V30 11668 C 1146.36 1.01758 4.3629 0
M  V30 11669 C 1148.1 -0.801133 4.16872 0
M  V30 11670 C 1146.01 0.831918 5.85519 0
M  V30 11671 H 1144.94 -0.0518814 0.752213 0
M  V30 11672 H 1147.59 0.568753 1.74463 0
M  V30 11673 H 1145.97 -1.04046 3.82087 0
M  V30 11674 H 1147.15 1.78653 4.24758 0
M  V30 11675 H 1145.46 1.46741 3.89687 0
M  V30 11676 H 1148.06 -0.956548 5.26074 0
M  V30 11677 H 1148.4 -1.78396 3.76139 0
M  V30 11678 H 1148.94 -0.0988934 3.97677 0
M  V30 11679 H 1145.67 1.78716 6.30667 0
M  V30 11680 H 1145.19 0.102785 5.99712 0
M  V30 11681 H 1146.87 0.485681 6.45174 0
M  V30 11682 N 1147.01 -1.56678 0.170181 0
M  V30 11683 C 1147.94 -2.20916 -0.756213 0
M  V30 11684 C 1148.92 -1.16442 -1.23997 0
M  V30 11685 O 1150.1 -1.44867 -1.29333 0
M  V30 11686 C 1147.23 -2.84901 -1.98617 0
M  V30 11687 C 1146.19 -3.95403 -1.63831 0
M  V30 11688 C 1145.51 -4.46432 -2.94282 0
M  V30 11689 C 1146.81 -5.15051 -0.867195 0
M  V30 11690 H 1148.51 -2.98585 -0.220776 0
M  V30 11691 H 1146.05 -1.43619 -0.104748 0
M  V30 11692 H 1148 -3.28514 -2.63926 0
M  V30 11693 H 1146.73 -2.04598 -2.54572 0
M  V30 11694 H 1145.39 -3.52444 -1.00891 0
M  V30 11695 H 1145.04 -3.62923 -3.48276 0
M  V30 11696 H 1144.74 -5.20979 -2.71762 0
M  V30 11697 H 1146.26 -4.92731 -3.60622 0
M  V30 11698 H 1147.67 -5.55363 -1.42285 0
M  V30 11699 H 1146.07 -5.95507 -0.741065 0
M  V30 11700 H 1147.14 -4.84707 0.136693 0
M  V30 11701 N 1148.48 0.103547 -1.57259 0
M  V30 11702 C 1149.45 1.11039 -2.00507 0
M  V30 11703 C 1150.45 1.33432 -0.897361 0
M  V30 11704 O 1151.64 1.29688 -1.16304 0
M  V30 11705 C 1148.77 2.46144 -2.35851 0
M  V30 11706 H 1149.96 0.738332 -2.90669 0
M  V30 11707 H 1147.51 0.348334 -1.52369 0
M  V30 11708 H 1148.25 2.88242 -1.48617 0
M  V30 11709 H 1148.03 2.31241 -3.16654 0
M  V30 11710 H 1149.52 3.18577 -2.69997 0
M  V30 11711 N 1149.96 1.53094 0.37415 0
M  V30 11712 C 1150.92 1.78264 1.44065 0
M  V30 11713 C 1151.92 0.652892 1.46949 0
M  V30 11714 O 1153.11 0.921046 1.47859 0
M  V30 11715 C 1150.25 1.89693 2.83248 0
M  V30 11716 H 1151.44 2.73505 1.23025 0
M  V30 11717 H 1148.99 1.44041 0.60678 0
M  V30 11718 H 1149.73 0.964884 3.09613 0
M  V30 11719 H 1149.51 2.71855 2.82554 0
M  V30 11720 H 1151 2.10787 3.60498 0
M  V30 11721 N 1151.44 -0.633461 1.44309 0
M  V30 11722 C 1152.37 -1.75676 1.53819 0
M  V30 11723 C 1153.35 -1.65537 0.391365 0
M  V30 11724 O 1154.54 -1.84332 0.611181 0
M  V30 11725 C 1151.67 -3.14197 1.47979 0
M  V30 11726 C 1150.62 -3.39122 2.61113 0
M  V30 11727 C 1149.95 -4.77648 2.40325 0
M  V30 11728 C 1151.25 -3.31914 4.03274 0
M  V30 11729 H 1152.94 -1.67974 2.47841 0
M  V30 11730 H 1150.49 -0.8067 1.19283 0
M  V30 11731 H 1152.44 -3.92553 1.53233 0
M  V30 11732 H 1151.16 -3.22677 0.504718 0
M  V30 11733 H 1149.82 -2.63145 2.55245 0
M  V30 11734 H 1149.47 -4.82829 1.41016 0
M  V30 11735 H 1149.17 -4.95284 3.16177 0
M  V30 11736 H 1150.69 -5.58237 2.47394 0
M  V30 11737 H 1152.11 -4.00178 4.10524 0
M  V30 11738 H 1150.5 -3.61085 4.7931 0
M  V30 11739 H 1151.57 -2.29761 4.2701 0
M  V30 11740 N 1152.92 -1.31168 -0.873655 0
M  V30 11741 C 1153.85 -1.21094 -1.99646 0
M  V30 11742 C 1154.83 -0.0989684 -1.69812 0
M  V30 11743 O 1156.01 -0.282939 -1.92128 0
M  V30 11744 C 1153.14 -0.913684 -3.35066 0
M  V30 11745 C 1152.1 -1.98482 -3.79195 0
M  V30 11746 C 1151.42 -1.54033 -5.12033 0
M  V30 11747 C 1152.72 -3.39745 -3.96699 0
M  V30 11748 H 1154.42 -2.1503 -2.08333 0
M  V30 11749 H 1151.96 -1.03521 -1.00097 0
M  V30 11750 H 1153.92 -0.829821 -4.13149 0
M  V30 11751 H 1152.64 0.0613471 -3.26542 0
M  V30 11752 H 1151.3 -2.05851 -3.03349 0
M  V30 11753 H 1150.95 -0.553261 -4.99948 0
M  V30 11754 H 1150.65 -2.25688 -5.4253 0
M  V30 11755 H 1152.17 -1.47047 -5.92629 0
M  V30 11756 H 1153.59 -3.35071 -4.65188 0
M  V30 11757 H 1151.98 -4.09585 -4.38589 0
M  V30 11758 H 1153.05 -3.80802 -3.00196 0
M  V30 11759 N 1154.4 1.08748 -1.14068 0
M  V30 11760 C 1155.62 1.84814 -0.930138 0
M  V30 11761 C 1156.04 1.81461 0.521267 0
M  V30 11762 O 1155.4 1.21577 1.36108 0
M  V30 11763 C 1155.45 3.32501 -1.41863 0
M  V30 11764 O 1155.17 3.35846 -2.81317 0
M  V30 11765 C 1156.67 4.25384 -1.24753 0
M  V30 11766 H 1153.89 0.583546 -0.331233 0
M  V30 11767 H 1156.43 1.37366 -1.51495 0
M  V30 11768 H 1154.59 3.7735 -0.876664 0
M  V30 11769 H 1155 4.28013 -3.03159 0
M  V30 11770 H 1156.48 5.27138 -1.63798 0
M  V30 11771 H 1156.95 4.38789 -0.18999 0
M  V30 11772 H 1157.56 3.86357 -1.77787 0
M  V30 11773 N 1155.87 0.935264 1.26849 0
M  V30 11774 C 1156.8 0.457776 2.28969 0
M  V30 11775 C 1157.79 -0.48587 1.63013 0
M  V30 11776 O 1158.97 -0.388998 1.90264 0
M  V30 11777 C 1156.1 -0.283332 3.46142 0
M  V30 11778 C 1155.05 0.573196 4.24144 0
M  V30 11779 C 1154.38 -0.297525 5.33872 0
M  V30 11780 C 1155.68 1.84153 4.88759 0
M  V30 11781 H 1157.37 1.31125 2.69159 0
M  V30 11782 H 1154.92 0.631956 1.29392 0
M  V30 11783 H 1156.87 -0.628366 4.16689 0
M  V30 11784 H 1155.6 -1.1709 3.04889 0
M  V30 11785 H 1154.26 0.901043 3.55354 0
M  V30 11786 H 1153.9 -1.18427 4.8886 0
M  V30 11787 H 1153.6 0.272126 5.8697 0
M  V30 11788 H 1155.13 -0.637961 6.07258 0
M  V30 11789 H 1156.54 1.5641 5.51551 0
M  V30 11790 H 1154.94 2.35528 5.51948 0
M  V30 11791 H 1156.01 2.5565 4.12033 0
M  V30 11792 N 1157.35 -1.41121 0.701616 0
M  V30 11793 C 1158.6 -2.01428 0.235495 0
M  V30 11794 C 1158.93 -1.55463 -1.16382 0
M  V30 11795 O 1158.21 -0.768477 -1.78675 0
M  V30 11796 C 1158.49 -3.58849 0.299919 0
M  V30 11797 C 1158.34 -4.14924 1.73661 0
M  V30 11798 C 1159.66 -4.38809 -0.336856 0
M  V30 11799 H 1156.78 -0.731842 0.0870456 0
M  V30 11800 H 1159.42 -1.67787 0.891479 0
M  V30 11801 H 1157.57 -3.87638 -0.258611 0
M  V30 11802 H 1159.24 -3.96987 2.34945 0
M  V30 11803 H 1157.49 -3.69738 2.26884 0
M  V30 11804 H 1158.16 -5.24085 1.73318 0
M  V30 11805 H 1160.63 -4.15868 0.138886 0
M  V30 11806 H 1159.51 -5.48278 -0.261264 0
M  V30 11807 H 1159.77 -4.18728 -1.41843 0
M  V30 11808 N 1158.83 -0.446794 -1.51134 0
M  V30 11809 C 1160.07 0.115546 -2.04073 0
M  V30 11810 C 1160.43 1.39137 -1.32306 0
M  V30 11811 O 1161.64 2.03455 -1.75668 0
M  V30 11812 C 1159.91 0.319657 -3.55968 0
M  V30 11813 S 1161.47 0.844045 -4.30606 0
M  V30 11814 H 1158.28 0.0274089 -0.710471 0
M  V30 11815 H 1160.89 -0.608368 -1.85793 0
M  V30 11816 H 1159.59 -0.615082 -4.05765 0
M  V30 11817 H 1159.12 1.07038 -3.78558 0
M  V30 11818 H 1161.14 2.12051 -4.48608 0
M  V30 11819 N 1160.31 1.56586 -0.178487 0
M  V30 11820 C 1161.56 1.96273 0.464745 0
M  V30 11821 C 1161.87 1.0675 1.63902 0
M  V30 11822 O 1163.08 1.36148 2.34896 0
M  V30 11823 C 1161.53 3.49021 0.878207 0
M  V30 11824 C 1161.14 4.4718 -0.270861 0
M  V30 11825 C 1162.88 3.97512 1.48946 0
M  V30 11826 C 1160.79 5.91176 0.162632 0
M  V30 11827 H 1159.72 0.732834 0.177398 0
M  V30 11828 H 1162.37 1.81534 -0.267861 0
M  V30 11829 H 1160.75 3.59203 1.667 0
M  V30 11830 H 1161.93 4.48718 -1.04826 0
M  V30 11831 H 1160.24 4.08788 -0.792529 0
M  V30 11832 H 1162.84 5.02556 1.82595 0
M  V30 11833 H 1163.18 3.40861 2.38997 0
M  V30 11834 H 1163.72 3.90376 0.76496 0
M  V30 11835 H 1160.46 6.51716 -0.703286 0
M  V30 11836 H 1159.98 5.9293 0.905243 0
M  V30 11837 H 1161.65 6.44174 0.604084 0
M  V30 11838 N 1161.79 -0.095206 1.57312 0
M  V30 11839 C 1163.2 -0.449411 1.53142 0
M  V30 11840 C 1163.4 -1.80523 0.895187 0
M  V30 11841 O 1162.46 -2.47746 0.487649 0
M  V30 11842 C 1163.77 -0.412002 2.97864 0
M  V30 11843 C 1165.32 -0.493866 3.09079 0
M  V30 11844 C 1165.79 -0.486606 4.55408 0
M  V30 11845 N 1167.29 -0.547363 4.59955 0
M  V30 11846 C 1168.02 -0.563582 5.70624 0
M  V30 11847 N 1167.52 -0.536015 6.90723 0
M  V30 11848 N 1169.31 -0.608385 5.58798 0
M  V30 11849 H 1161.46 0.792869 1.97047 0
M  V30 11850 H 1163.72 0.295106 0.900898 0
M  V30 11851 H 1163.43 0.517064 3.47878 0
M  V30 11852 H 1163.3 -1.23102 3.56547 0
M  V30 11853 H 1165.69 -1.41335 2.59053 0
M  V30 11854 H 1165.77 0.353286 2.53349 0
M  V30 11855 H 1165.42 0.428935 5.06086 0
M  V30 11856 H 1165.35 -1.35097 5.08976 0
M  V30 11857 H 1167.84 -0.573867 3.73517 0
M  V30 11858 H 1168.15 -0.551671 7.70828 0
M  V30 11859 H 1166.49 -0.503064 6.93177 0
M  V30 11860 H 1169.69 -0.627451 4.63876 0
M  V30 11861 H 1169.86 -0.617556 6.45051 0
M  V30 11862 N 1163.26 -1.53291 -0.366026 0
M  V30 11863 C 1164.68 -1.43053 -0.707669 0
M  V30 11864 C 1164.88 -0.56925 -1.93292 0
M  V30 11865 O 1163.94 -0.0515214 -2.52447 0
M  V30 11866 C 1165.25 -2.86239 -0.921292 0
M  V30 11867 C 1166.8 -2.95868 -1.02133 0
M  V30 11868 C 1167.27 -4.40114 -1.26743 0
M  V30 11869 N 1168.76 -4.43541 -1.33514 0
M  V30 11870 C 1169.5 -5.52259 -1.54264 0
M  V30 11871 N 1168.99 -6.71024 -1.72335 0
M  V30 11872 N 1170.79 -5.39836 -1.5663 0
M  V30 11873 H 1162.94 -2.07795 0.43988 0
M  V30 11874 H 1165.2 -0.938376 0.134736 0
M  V30 11875 H 1164.91 -3.51578 -0.0928042 0
M  V30 11876 H 1164.78 -3.29862 -1.82951 0
M  V30 11877 H 1167.17 -2.30683 -1.84036 0
M  V30 11878 H 1167.25 -2.5564 -0.0905097 0
M  V30 11879 H 1166.89 -5.05872 -0.453409 0
M  V30 11880 H 1166.82 -4.77914 -2.21146 0
M  V30 11881 H 1169.31 -3.57949 -1.21165 0
M  V30 11882 H 1169.63 -7.49649 -1.8774 0
M  V30 11883 H 1167.97 -6.7401 -1.69514 0
M  V30 11884 H 1171.16 -4.46017 -1.4208 0
M  V30 11885 H 1171.34 -6.24629 -1.72461 0
M  V30 11886 N 1164.74 0.6258 -1.44643 0
M  V30 11887 C 1165.97 1.41726 -1.51422 0
M  V30 11888 C 1166.39 1.87565 -0.14181 0
M  V30 11889 O 1165.75 1.59059 0.870054 0
M  V30 11890 C 1165.8 2.61012 -2.48807 0
M  V30 11891 O 1164.9 3.61029 -1.99328 0
M  V30 11892 H 1164.24 0.423855 -0.511119 0
M  V30 11893 H 1166.77 0.763336 -1.89827 0
M  V30 11894 H 1166.78 3.08489 -2.67018 0
M  V30 11895 H 1165.46 2.26995 -3.48491 0
M  V30 11896 H 1164.04 3.20325 -1.90909 0
M  V30 11897 N 1166.22 1.31629 0.866686 0
M  V30 11898 C 1167.46 1.22806 1.63395 0
M  V30 11899 C 1167.82 -0.209785 1.9085 0
M  V30 11900 O 1169.03 -0.421562 2.65474 0
M  V30 11901 C 1167.3 2.05187 2.92631 0
M  V30 11902 S 1168.86 2.13261 3.83491 0
M  V30 11903 H 1165.67 0.437339 0.560585 0
M  V30 11904 H 1168.28 1.66333 1.02731 0
M  V30 11905 H 1166.98 3.08736 2.70389 0
M  V30 11906 H 1166.51 1.62393 3.58318 0
M  V30 11907 H 1168.53 1.27333 4.79584 0
M  V30 11908 N 1167.7 -1.08142 1.14644 0
M  V30 11909 C 1168.63 -2.17139 0.858667 0
M  V30 11910 C 1169.61 -1.69064 -0.187452 0
M  V30 11911 O 1170.8 -1.94151 -0.0435458 0
M  V30 11912 C 1167.93 -3.45648 0.33834 0
M  V30 11913 C 1166.88 -4.07129 1.32021 0
M  V30 11914 C 1166.21 -5.30623 0.659075 0
M  V30 11915 C 1167.51 -4.48095 2.68343 0
M  V30 11916 H 1169.2 -2.41468 1.77012 0
M  V30 11917 H 1166.75 -1.16052 0.852523 0
M  V30 11918 H 1168.7 -4.21216 0.124611 0
M  V30 11919 H 1167.42 -3.2088 -0.608553 0
M  V30 11920 H 1166.08 -3.33596 1.52016 0
M  V30 11921 H 1165.73 -5.02142 -0.293711 0
M  V30 11922 H 1165.43 -5.72714 1.31427 0
M  V30 11923 H 1166.95 -6.08903 0.454933 0
M  V30 11924 H 1168.37 -5.14828 2.5224 0
M  V30 11925 H 1166.76 -5.01113 3.30161 0
M  V30 11926 H 1167.83 -3.59852 3.25015 0
M  V30 11927 N 1169.18 -0.941978 -1.26351 0
M  V30 11928 C 1170.13 -0.423053 -2.24041 0
M  V30 11929 C 1171.11 0.480668 -1.53553 0
M  V30 11930 O 1172.3 0.315783 -1.7416 0
M  V30 11931 C 1169.43 0.309814 -3.41899 0
M  V30 11932 C 1168.52 -0.611245 -4.19672 0
M  V30 11933 N 1168.91 -1.73738 -4.75025 0
M  V30 11934 C 1167.21 -0.416985 -4.44046 0
M  V30 11935 C 1167.91 -2.31141 -5.33806 0
M  V30 11936 N 1166.88 -1.59934 -5.1954 0
M  V30 11937 H 1170.69 -1.28268 -2.64433 0
M  V30 11938 H 1168.2 -0.797941 -1.41445 0
M  V30 11939 H 1170.2 0.698618 -4.11005 0
M  V30 11940 H 1168.86 1.1662 -3.03035 0
M  V30 11941 H 1169.87 -2.1195 -4.72544 0
M  V30 11942 H 1166.55 0.397561 -4.15603 0
M  V30 11943 H 1167.94 -3.26029 -5.87499 0
M  V30 11944 N 1170.66 1.40747 -0.709091 0
M  V30 11945 C 1172.07 1.54961 -0.381989 0
M  V30 11946 C 1172.27 1.68181 1.10985 0
M  V30 11947 O 1171.33 1.66776 1.89584 0
M  V30 11948 C 1172.64 2.78156 -1.14236 0
M  V30 11949 C 1174.19 2.91967 -1.12803 0
M  V30 11950 C 1174.66 4.18066 -1.87042 0
M  V30 11951 N 1176.15 4.25052 -1.84078 0
M  V30 11952 C 1176.89 5.21514 -2.38349 0
M  V30 11953 N 1176.39 6.23924 -3.01149 0
M  V30 11954 N 1178.18 5.13548 -2.28528 0
M  V30 11955 H 1170.33 1.30412 -1.6765 0
M  V30 11956 H 1172.59 0.630147 -0.70825 0
M  V30 11957 H 1172.3 2.74643 -2.19691 0
M  V30 11958 H 1172.17 3.70074 -0.729731 0
M  V30 11959 H 1174.56 2.94987 -0.0816956 0
M  V30 11960 H 1174.64 2.01185 -1.57982 0
M  V30 11961 H 1174.28 4.15808 -2.91662 0
M  V30 11962 H 1174.21 5.07845 -1.39287 0
M  V30 11963 H 1176.71 3.51682 -1.38305 0
M  V30 11964 H 1177.02 6.93942 -3.40094 0
M  V30 11965 H 1175.36 6.24387 -3.05231 0
M  V30 11966 H 1178.55 4.3247 -1.79129 0
M  V30 11967 H 1178.73 5.88553 -2.71126 0
M  V30 11968 N 1172.13 0.454803 1.50895 0
M  V30 11969 C 1173.55 0.108037 1.59234 0
M  V30 11970 C 1173.75 -1.38416 1.46435 0
M  V30 11971 O 1172.81 -2.15586 1.31449 0
M  V30 11972 C 1174.12 0.643721 2.93729 0
M  V30 11973 C 1175.67 0.605703 3.07083 0
M  V30 11974 C 1176.14 1.11865 4.44128 0
M  V30 11975 N 1177.63 1.07738 4.50496 0
M  V30 11976 C 1178.37 1.44495 5.54895 0
M  V30 11977 N 1177.86 1.88624 6.66628 0
M  V30 11978 N 1179.66 1.36201 5.45349 0
M  V30 11979 H 1171.81 1.4255 1.57459 0
M  V30 11980 H 1174.07 0.588504 0.743214 0
M  V30 11981 H 1173.78 1.68844 3.0852 0
M  V30 11982 H 1173.65 0.0782404 3.77119 0
M  V30 11983 H 1176.04 -0.430065 2.91949 0
M  V30 11984 H 1176.12 1.2078 2.2549 0
M  V30 11985 H 1175.76 2.15297 4.6001 0
M  V30 11986 H 1175.69 0.492933 5.24288 0
M  V30 11987 H 1178.18 0.753526 3.70311 0
M  V30 11988 H 1178.5 2.14863 7.4233 0
M  V30 11989 H 1176.84 1.92564 6.6779 0
M  V30 11990 H 1180.03 1.01579 4.56946 0
M  V30 11991 H 1180.21 1.65175 6.26595 0
M  V30 11992 N 1173.61 -1.56489 0.186789 0
M  V30 11993 C 1175.03 -1.58701 -0.169176 0
M  V30 11994 C 1175.23 -1.2027 -1.61671 0
M  V30 11995 O 1174.28 -0.92154 -2.35083 0
M  V30 11996 C 1175.6 -3.00437 0.125657 0
M  V30 11997 C 1177.14 -3.12932 0.0651 0
M  V30 11998 C 1177.62 -4.56787 0.333131 0
M  V30 11999 N 1179.11 -4.62344 0.281453 0
M  V30 12000 C 1179.85 -5.71529 0.462805 0
M  V30 12001 N 1179.34 -6.89213 0.704054 0
M  V30 12002 N 1181.13 -5.60692 0.397636 0
M  V30 12003 H 1173.29 -1.79754 1.13148 0
M  V30 12004 H 1175.55 -0.83385 0.450997 0
M  V30 12005 H 1175.25 -3.33086 1.12901 0
M  V30 12006 H 1175.13 -3.72782 -0.575612 0
M  V30 12007 H 1177.52 -2.80101 -0.928845 0
M  V30 12008 H 1177.6 -2.42991 0.799318 0
M  V30 12009 H 1177.24 -4.9033 1.32436 0
M  V30 12010 H 1177.17 -5.24907 -0.421879 0
M  V30 12011 H 1179.66 -3.77764 0.101266 0
M  V30 12012 H 1179.97 -7.68314 0.831468 0
M  V30 12013 H 1178.32 -6.9104 0.740851 0
M  V30 12014 H 1181.51 -4.6763 0.20964 0
M  V30 12015 H 1181.68 -6.45726 0.54239 0
M  V30 12016 N 1175.09 0.086862 -1.5736 0
M  V30 12017 C 1176.32 0.802167 -1.90717 0
M  V30 12018 C 1176.73 1.71875 -0.781304 0
M  V30 12019 O 1176.09 1.80831 0.246255 0
M  V30 12020 C 1176.14 1.60858 -3.23739 0
M  V30 12021 O 1175.86 0.728851 -4.31995 0
M  V30 12022 C 1177.36 2.42621 -3.71012 0
M  V30 12023 H 1174.58 0.228914 -0.630745 0
M  V30 12024 H 1177.13 0.061634 -2.04407 0
M  V30 12025 H 1175.28 2.30153 -3.11622 0
M  V30 12026 H 1175.7 1.2882 -5.08435 0
M  V30 12027 H 1177.17 2.94683 -4.66761 0
M  V30 12028 H 1177.65 3.21462 -2.99264 0
M  V30 12029 H 1178.25 1.78509 -3.86024 0
M  V30 12030 N 1176.57 1.53483 0.357892 0
M  V30 12031 C 1177.81 1.70037 1.09971 0
M  V30 12032 C 1178.14 0.456112 1.89076 0
M  V30 12033 O 1177.4 -0.562029 1.87456 0
M  V30 12034 C 1177.7 2.90654 2.07978 0
M  V30 12035 C 1177.36 4.26849 1.45295 0
M  V30 12036 C 1176.02 4.63884 1.27928 0
M  V30 12037 C 1178.38 5.11514 1.00013 0
M  V30 12038 C 1175.7 5.83213 0.638745 0
M  V30 12039 C 1178.06 6.31496 0.373568 0
M  V30 12040 C 1176.72 6.67237 0.187457 0
M  V30 12041 H 1175.99 0.622209 0.402414 0
M  V30 12042 H 1178.64 1.87679 0.380615 0
M  V30 12043 H 1176.94 2.67556 2.86219 0
M  V30 12044 H 1178.64 3.00656 2.65343 0
M  V30 12045 H 1175.23 3.97693 1.59807 0
M  V30 12046 H 1179.41 4.83446 1.12221 0
M  V30 12047 H 1174.67 6.09489 0.483035 0
M  V30 12048 H 1178.84 6.96398 0.0145346 0
M  V30 12049 H 1176.47 7.59564 -0.310933 0
M  V30 12050 N 1178.05 -0.61812 1.44973 0
M  V30 12051 C 1179.27 -1.40429 1.51945 0
M  V30 12052 C 1179.69 -1.88215 0.148556 0
M  V30 12053 O 1179.05 -1.61603 -0.847978 0
M  V30 12054 C 1179.1 -2.61588 2.49507 0
M  V30 12055 O 1178.82 -2.15791 3.81269 0
M  V30 12056 C 1180.32 -3.5457 2.66074 0
M  V30 12057 H 1177.54 -0.43023 0.514921 0
M  V30 12058 H 1180.08 -0.754791 1.90061 0
M  V30 12059 H 1178.24 -3.22602 2.14492 0
M  V30 12060 H 1178.65 -2.94434 4.34061 0
M  V30 12061 H 1180.13 -4.36155 3.38338 0
M  V30 12062 H 1180.6 -4.04227 1.71746 0
M  V30 12063 H 1181.21 -2.99416 3.02043 0
M  V30 12064 N 1179.52 -1.32087 -0.859693 0
M  V30 12065 C 1180.75 -1.25167 -1.64368 0
M  V30 12066 C 1181.16 0.183572 -1.88307 0
M  V30 12067 O 1180.5 1.12945 -1.44876 0
M  V30 12068 C 1180.57 -1.93641 -3.02892 0
M  V30 12069 C 1180.23 -3.4298 -3.02017 0
M  V30 12070 C 1181.23 -4.38551 -2.79229 0
M  V30 12071 C 1178.91 -3.84835 -3.22812 0
M  V30 12072 C 1180.91 -5.73952 -2.77232 0
M  V30 12073 C 1178.59 -5.20346 -3.20442 0
M  V30 12074 C 1179.59 -6.14716 -2.97681 0
M  V30 12075 O 1179.28 -7.47748 -2.95175 0
M  V30 12076 H 1179.01 -0.433327 -0.518848 0
M  V30 12077 H 1181.57 -1.7468 -1.08055 0
M  V30 12078 H 1179.8 -1.3869 -3.60974 0
M  V30 12079 H 1181.48 -1.80497 -3.63559 0
M  V30 12080 H 1182.25 -4.07542 -2.62935 0
M  V30 12081 H 1178.13 -3.11806 -3.39555 0
M  V30 12082 H 1181.67 -6.47584 -2.59385 0
M  V30 12083 H 1177.57 -5.50987 -3.36279 0
M  V30 12084 H 1178.34 -7.57046 -3.11165 0
M  V30 12085 N 1181 1.07532 -1.15215 0
M  V30 12086 C 1181.93 2.14598 -0.805006 0
M  V30 12087 C 1182.95 1.61778 0.182152 0
M  V30 12088 O 1184.14 1.78453 -0.040834 0
M  V30 12089 C 1181.24 3.38444 -0.175736 0
M  V30 12090 C 1180.41 4.20621 -1.19986 0
M  V30 12091 C 1179.47 5.22851 -0.592705 0
M  V30 12092 O 1178.49 5.55121 -1.25815 0
M  V30 12093 N 1179.7 5.7711 0.626425 0
M  V30 12094 H 1182.46 2.44981 -1.7264 0
M  V30 12095 H 1180.02 1.23423 -1.04778 0
M  V30 12096 H 1182.01 4.03969 0.243166 0
M  V30 12097 H 1180.58 3.0579 0.64896 0
M  V30 12098 H 1179.8 3.50941 -1.79539 0
M  V30 12099 H 1181.09 4.72339 -1.89139 0
M  V30 12100 H 1180.49 5.53139 1.18546 0
M  V30 12101 H 1179.05 6.44273 0.98771 0
M  V30 12102 N 1182.48 0.948665 1.2585 0
M  V30 12103 C 1183.71 0.616741 1.98018 0
M  V30 12104 C 1184.13 -0.803005 1.70098 0
M  V30 12105 O 1183.49 -1.54208 0.953392 0
M  V30 12106 C 1183.54 0.874429 3.49837 0
M  V30 12107 O 1182.64 -0.0497568 4.1237 0
M  V30 12108 H 1181.98 0.235112 0.620982 0
M  V30 12109 H 1184.51 1.27364 1.60124 0
M  V30 12110 H 1184.52 0.798309 4.00114 0
M  V30 12111 H 1183.2 1.90922 3.69488 0
M  V30 12112 H 1181.77 0.0780591 3.72818 0
M  V30 12113 N 1183.96 -1.40369 0.716545 0
M  V30 12114 C 1185.21 -2.00473 0.255959 0
M  V30 12115 C 1185.53 -1.57104 -1.15514 0
M  V30 12116 O 1184.8 -0.810925 -1.78328 0
M  V30 12117 H 1183.38 -0.741357 0.0916427 0
M  V30 12118 H 1186.04 -1.71692 0.922389 0
M  V30 12119 H 1185.14 -3.10752 0.289806 0
M  V30 12120 N 1185.44 -0.462799 -1.50652 0
M  V30 12121 C 1186.66 0.0952726 -2.07181 0
M  V30 12122 C 1187.09 1.33479 -1.32533 0
M  V30 12123 O 1186.44 1.77473 -0.370564 0
M  V30 12124 C 1186.49 0.370592 -3.58691 0
M  V30 12125 O 1185.6 1.4526 -3.85971 0
M  V30 12126 H 1184.94 -0.00932702 -0.663934 0
M  V30 12127 H 1187.47 -0.651458 -1.93951 0
M  V30 12128 H 1187.48 0.613551 -4.0336 0
M  V30 12129 H 1186.15 -0.535219 -4.12442 0
M  V30 12130 H 1184.73 1.1976 -3.53146 0
M  V30 12131 N 1186.91 1.56388 -0.195085 0
M  V30 12132 C 1188.16 1.97189 0.44281 0
M  V30 12133 C 1188.48 1.08312 1.62153 0
M  V30 12134 O 1187.75 0.154404 1.95291 0
M  V30 12135 H 1186.33 0.728188 0.166585 0
M  V30 12136 H 1189 1.92852 -0.281815 0
M  V30 12137 H 1188.09 3.02016 0.786945 0
M  V30 12138 N 1188.39 -0.0785156 1.57404 0
M  V30 12139 C 1189.3 -1.11203 2.0657 0
M  V30 12140 C 1190.32 -1.42822 0.993872 0
M  V30 12141 O 1191.49 -1.53133 1.30814 0
M  V30 12142 C 1188.56 -2.40812 2.4942 0
M  V30 12143 C 1187.62 -2.16225 3.70871 0
M  V30 12144 C 1186.85 -3.39654 4.11668 0
M  V30 12145 O 1187.08 -4.48521 3.524 0
M  V30 12146 O 1186.01 -3.28263 5.04507 0
M  V30 12147 H 1189.84 -0.724381 2.94935 0
M  V30 12148 H 1187.42 -0.292184 1.46515 0
M  V30 12149 H 1189.3 -3.17101 2.77534 0
M  V30 12150 H 1187.98 -2.7897 1.64187 0
M  V30 12151 H 1186.89 -1.37663 3.4785 0
M  V30 12152 H 1188.22 -1.82951 4.56935 0
M  V30 12153 N 1189.87 -1.5367 -0.349747 0
M  V30 12154 C 1190.78 -1.84207 -1.45275 0
M  V30 12155 C 1191.8 -0.731695 -1.57868 0
M  V30 12156 O 1192.97 -1.02337 -1.73462 0
M  V30 12157 C 1190.04 -2.0398 -2.80345 0
M  V30 12158 C 1189.1 -3.27853 -2.77148 0
M  V30 12159 C 1188.33 -3.46673 -4.05775 0
M  V30 12160 O 1188.55 -2.69457 -5.02741 0
M  V30 12161 O 1187.49 -4.40082 -4.10623 0
M  V30 12162 H 1191.31 -2.77947 -1.22389 0
M  V30 12163 H 1188.9 -1.39247 -0.541345 0
M  V30 12164 H 1190.78 -2.18466 -3.60348 0
M  V30 12165 H 1189.46 -1.13429 -3.03176 0
M  V30 12166 H 1188.36 -3.18776 -1.95787 0
M  V30 12167 H 1189.7 -4.18377 -2.59271 0
M  V30 12168 N 1191.35 0.610423 -1.45298 0
M  V30 12169 C 1192.58 1.39621 -1.52688 0
M  V30 12170 C 1192.99 1.88133 -0.158535 0
M  V30 12171 O 1192.35 1.62051 0.839396 0
M  V30 12172 C 1192.4 2.60261 -2.50891 0
M  V30 12173 O 1192.12 2.13766 -3.82408 0
M  V30 12174 C 1193.62 3.53154 -2.6795 0
M  V30 12175 H 1190.84 0.427493 -0.517195 0
M  V30 12176 H 1193.39 0.744701 -1.90459 0
M  V30 12177 H 1191.54 3.2146 -2.162 0
M  V30 12178 H 1191.95 2.92128 -4.35616 0
M  V30 12179 H 1193.43 4.34355 -3.40647 0
M  V30 12180 H 1193.91 4.03311 -1.73888 0
M  V30 12181 H 1194.51 2.9781 -3.03627 0
M  V30 12182 N 1192.83 1.32541 0.852676 0
M  V30 12183 C 1194.08 1.22567 1.60188 0
M  V30 12184 C 1194.39 -0.210594 1.94463 0
M  V30 12185 O 1195.59 -0.432214 2.68038 0
M  V30 12186 C 1194.05 2.14678 2.88862 0
M  V30 12187 C 1193.66 3.63398 2.62004 0
M  V30 12188 C 1195.4 2.13545 3.66877 0
M  V30 12189 C 1193.31 4.47464 3.86691 0
M  V30 12190 H 1192.24 0.455184 0.601102 0
M  V30 12191 H 1194.89 1.57515 0.941347 0
M  V30 12192 H 1193.27 1.72647 3.56383 0
M  V30 12193 H 1194.45 4.13783 2.02782 0
M  V30 12194 H 1192.76 3.66681 1.97316 0
M  V30 12195 H 1195.36 2.73589 4.59405 0
M  V30 12196 H 1195.7 1.12694 4.00756 0
M  V30 12197 H 1196.23 2.53866 3.06263 0
M  V30 12198 H 1192.97 5.49136 3.57952 0
M  V30 12199 H 1192.49 4.01829 4.45302 0
M  V30 12200 H 1194.17 4.60565 4.5441 0
M  V30 12201 N 1194.3 -1.0692 1.15784 0
M  V30 12202 C 1195.23 -2.16216 0.881649 0
M  V30 12203 C 1196.22 -1.69253 -0.16951 0
M  V30 12204 O 1197.4 -1.94186 -0.0229511 0
M  V30 12205 C 1194.53 -3.4527 0.374982 0
M  V30 12206 C 1193.48 -4.05706 1.36332 0
M  V30 12207 C 1192.81 -5.29894 0.715317 0
M  V30 12208 C 1194.11 -4.45224 2.7308 0
M  V30 12209 H 1195.8 -2.39577 1.79563 0
M  V30 12210 H 1193.35 -1.15141 0.864784 0
M  V30 12211 H 1195.3 -4.2106 0.169279 0
M  V30 12212 H 1194.03 -3.21508 -0.574485 0
M  V30 12213 H 1192.69 -3.31965 1.55546 0
M  V30 12214 H 1192.33 -5.02425 -0.240436 0
M  V30 12215 H 1192.03 -5.71287 1.37494 0
M  V30 12216 H 1193.56 -6.08386 0.519489 0
M  V30 12217 H 1194.97 -5.12124 2.57686 0
M  V30 12218 H 1193.37 -4.97583 3.35457 0
M  V30 12219 H 1194.44 -3.56384 3.28813 0
M  V30 12220 N 1195.78 -0.955326 -1.25345 0
M  V30 12221 C 1196.71 -0.4334 -2.25065 0
M  V30 12222 C 1197.73 0.451099 -1.56425 0
M  V30 12223 O 1198.92 0.259265 -1.76607 0
M  V30 12224 C 1196.02 0.394809 -3.36592 0
M  V30 12225 C 1195.19 -0.476856 -4.34793 0
M  V30 12226 C 1194.25 0.293269 -5.25382 0
M  V30 12227 O 1193.27 -0.30857 -5.68363 0
M  V30 12228 N 1194.48 1.58617 -5.58409 0
M  V30 12229 H 1197.24 -1.29073 -2.70482 0
M  V30 12230 H 1194.8 -0.825764 -1.39258 0
M  V30 12231 H 1196.79 0.917747 -3.94157 0
M  V30 12232 H 1195.36 1.153 -2.90559 0
M  V30 12233 H 1194.58 -1.18089 -3.76097 0
M  V30 12234 H 1195.87 -1.07178 -4.97384 0
M  V30 12235 H 1195.27 2.09705 -5.25395 0
M  V30 12236 H 1193.83 2.05506 -6.18555 0
M  V30 12237 N 1197.26 1.39987 -0.723979 0
M  V30 12238 C 1198.51 2.00731 -0.267115 0
M  V30 12239 C 1198.84 1.57424 1.14228 0
M  V30 12240 O 1198.09 0.789205 1.79081 0
M  V30 12241 C 1198.39 3.56101 -0.304472 0
M  V30 12242 C 1198.06 4.1902 -1.66533 0
M  V30 12243 C 1196.72 4.3592 -2.03783 0
M  V30 12244 C 1199.07 4.54034 -2.55935 0
M  V30 12245 C 1196.4 4.85119 -3.29964 0
M  V30 12246 C 1198.75 5.04637 -3.81477 0
M  V30 12247 C 1197.41 5.19745 -4.18833 0
M  V30 12248 H 1196.68 0.734525 -0.0977442 0
M  V30 12249 H 1199.33 1.67476 -0.928659 0
M  V30 12250 H 1197.64 3.89314 0.440647 0
M  V30 12251 H 1199.33 4.00944 0.0669875 0
M  V30 12252 H 1195.92 4.0626 -1.36569 0
M  V30 12253 H 1200.11 4.40606 -2.2843 0
M  V30 12254 H 1195.36 4.95001 -3.58865 0
M  V30 12255 H 1199.54 5.30705 -4.50916 0
M  V30 12256 H 1197.16 5.5763 -5.16675 0
M  V30 12257 N 1198.74 0.470782 1.50404 0
M  V30 12258 C 1199.96 -0.084284 2.07229 0
M  V30 12259 C 1200.39 -1.32774 1.33239 0
M  V30 12260 O 1199.75 -1.77274 0.379971 0
M  V30 12261 C 1199.8 -0.351565 3.58882 0
M  V30 12262 O 1198.9 -1.43211 3.86736 0
M  V30 12263 H 1198.24 0.0128479 0.663876 0
M  V30 12264 H 1200.77 0.661735 1.93603 0
M  V30 12265 H 1200.78 -0.592151 4.0368 0
M  V30 12266 H 1199.46 0.557084 4.12152 0
M  V30 12267 H 1198.03 -1.17886 3.53776 0
M  V30 12268 N 1200.22 -1.56282 0.203376 0
M  V30 12269 C 1201.44 -2.02643 -0.441658 0
M  V30 12270 C 1201.87 -1.0825 -1.5383 0
M  V30 12271 O 1201.23 -0.0674337 -1.81175 0
M  V30 12272 C 1201.27 -3.47382 -0.967369 0
M  V30 12273 O 1200.38 -3.56115 -2.07981 0
M  V30 12274 H 1199.72 -0.656081 -0.102242 0
M  V30 12275 H 1202.25 -2.02134 0.316684 0
M  V30 12276 H 1202.26 -3.8734 -1.28186 0
M  V30 12277 H 1200.93 -4.15574 -0.164625 0
M  V30 12278 H 1199.51 -3.28035 -1.77334 0
M  V30 12279 N 1201.7 0.070167 -1.57444 0
M  V30 12280 C 1202.94 0.767495 -1.8696 0
M  V30 12281 C 1203.26 1.78032 -0.795595 0
M  V30 12282 O 1202.53 1.95112 0.175566 0
M  V30 12283 H 1201.11 0.286443 -0.689898 0
M  V30 12284 H 1203.78 0.0458692 -1.94846 0
M  V30 12285 H 1202.87 1.28269 -2.84523 0
M  V30 12286 N 1203.17 1.53854 0.341593 0
M  V30 12287 C 1204.4 1.75134 1.10162 0
M  V30 12288 C 1204.82 0.491415 1.82292 0
M  V30 12289 O 1204.17 -0.53703 1.7442 0
M  V30 12290 C 1204.22 2.93273 2.1136 0
M  V30 12291 O 1203.95 4.14393 1.42162 0
M  V30 12292 C 1205.45 3.26621 2.99723 0
M  V30 12293 H 1202.67 0.585126 0.328434 0
M  V30 12294 H 1205.21 2.00684 0.393204 0
M  V30 12295 H 1203.37 2.70048 2.77764 0
M  V30 12296 H 1203.78 4.8072 2.09783 0
M  V30 12297 H 1205.25 4.12629 3.66662 0
M  V30 12298 H 1205.73 2.43008 3.65847 0
M  V30 12299 H 1206.34 3.51858 2.38906 0
M  V30 12300 N 1204.65 -0.602709 1.4562 0
M  V30 12301 C 1205.58 -1.72374 1.5751 0
M  V30 12302 C 1206.56 -1.64669 0.426389 0
M  V30 12303 O 1207.75 -1.82994 0.650143 0
M  V30 12304 C 1204.88 -3.10987 1.5461 0
M  V30 12305 C 1203.83 -3.33507 2.68248 0
M  V30 12306 C 1203.16 -4.72443 2.50403 0
M  V30 12307 C 1204.46 -3.23285 4.10224 0
M  V30 12308 H 1206.15 -1.62679 2.51348 0
M  V30 12309 H 1203.7 -0.781217 1.20967 0
M  V30 12310 H 1205.65 -3.89214 1.61525 0
M  V30 12311 H 1204.37 -3.21533 0.573049 0
M  V30 12312 H 1203.03 -2.57672 2.60769 0
M  V30 12313 H 1202.68 -4.79729 1.51226 0
M  V30 12314 H 1202.38 -4.88466 3.26611 0
M  V30 12315 H 1203.91 -5.52864 2.59179 0
M  V30 12316 H 1205.32 -3.91381 4.1892 0
M  V30 12317 H 1203.72 -3.50837 4.86861 0
M  V30 12318 H 1204.79 -2.20652 4.31788 0
M  V30 12319 N 1206.13 -1.32992 -0.845635 0
M  V30 12320 C 1207.36 -1.27087 -1.63268 0
M  V30 12321 C 1207.77 0.159481 -1.88125 0
M  V30 12322 O 1207.13 1.09948 -1.45663 0
M  V30 12323 C 1207.18 -2.03649 -2.98679 0
M  V30 12324 O 1206.9 -3.41104 -2.74918 0
M  V30 12325 C 1208.4 -2.04875 -3.93117 0
M  V30 12326 H 1205.62 -0.438107 -0.508236 0
M  V30 12327 H 1208.17 -1.75257 -1.05381 0
M  V30 12328 H 1206.32 -1.59178 -3.53187 0
M  V30 12329 H 1206.74 -3.80405 -3.61099 0
M  V30 12330 H 1208.21 -2.62911 -4.85368 0
M  V30 12331 H 1208.69 -1.03728 -4.26775 0
M  V30 12332 H 1209.29 -2.49334 -3.44547 0
M  V30 12333 N 1207.61 1.06304 -1.1635 0
M  V30 12334 C 1208.54 2.15745 -0.893103 0
M  V30 12335 C 1209.52 1.69341 0.160531 0
M  V30 12336 O 1210.7 1.94196 0.0126526 0
M  V30 12337 C 1207.83 3.45066 -0.393287 0
M  V30 12338 C 1206.79 4.04978 -1.38482 0
M  V30 12339 C 1206.11 5.29507 -0.743409 0
M  V30 12340 C 1207.41 4.4377 -2.75438 0
M  V30 12341 H 1209.11 2.38622 -1.80831 0
M  V30 12342 H 1206.65 1.14681 -0.870878 0
M  V30 12343 H 1208.61 4.20964 -0.191607 0
M  V30 12344 H 1207.33 3.21808 0.557426 0
M  V30 12345 H 1205.99 3.31136 -1.57304 0
M  V30 12346 H 1205.64 5.02545 0.213787 0
M  V30 12347 H 1205.34 5.7055 -1.40521 0
M  V30 12348 H 1206.86 6.08102 -0.551746 0
M  V30 12349 H 1208.28 5.1075 -2.60398 0
M  V30 12350 H 1206.67 4.95797 -3.38091 0
M  V30 12351 H 1207.74 3.54636 -3.30699 0
M  V30 12352 N 1209.09 0.96196 1.24836 0
M  V30 12353 C 1210.31 0.63814 1.96813 0
M  V30 12354 C 1210.73 -0.79127 1.71419 0
M  V30 12355 O 1210.09 -1.5302 0.994546 0
M  V30 12356 C 1210.14 0.89626 3.50213 0
M  V30 12357 O 1209.86 2.26947 3.74735 0
M  V30 12358 C 1211.36 0.585836 4.39412 0
M  V30 12359 H 1208.58 0.238598 0.627146 0
M  V30 12360 H 1211.12 1.28833 1.58815 0
M  V30 12361 H 1209.28 0.292368 3.86295 0
M  V30 12362 H 1209.69 2.34514 4.69152 0
M  V30 12363 H 1211.17 0.816935 5.45921 0
M  V30 12364 H 1211.64 -0.479784 4.36572 0
M  V30 12365 H 1212.25 1.16938 4.08908 0
M  V30 12366 N 1210.56 -1.39601 0.731392 0
M  V30 12367 C 1211.98 -1.54334 0.406594 0
M  V30 12368 C 1212.18 -1.69925 -1.08295 0
M  V30 12369 O 1211.24 -1.69771 -1.86906 0
M  V30 12370 C 1212.55 -2.76303 1.18647 0
M  V30 12371 C 1214.1 -2.90135 1.17433 0
M  V30 12372 C 1214.57 -4.15038 1.93669 0
M  V30 12373 N 1216.06 -4.2207 1.90817 0
M  V30 12374 C 1216.8 -5.17656 2.46616 0
M  V30 12375 N 1216.29 -6.19054 3.11037 0
M  V30 12376 N 1218.09 -5.09847 2.3667 0
M  V30 12377 H 1210.24 -1.27728 1.69703 0
M  V30 12378 H 1212.5 -0.6188 0.718186 0
M  V30 12379 H 1212.21 -2.71113 2.24032 0
M  V30 12380 H 1212.08 -3.68866 0.788514 0
M  V30 12381 H 1214.47 -2.9482 0.128615 0
M  V30 12382 H 1214.55 -1.98646 1.61163 0
M  V30 12383 H 1214.19 -4.11115 2.9824 0
M  V30 12384 H 1214.12 -5.05565 1.47349 0
M  V30 12385 H 1216.61 -3.49437 1.43882 0
M  V30 12386 H 1216.93 -6.88444 3.51091 0
M  V30 12387 H 1215.27 -6.19452 3.15126 0
M  V30 12388 H 1218.46 -4.29566 1.85987 0
M  V30 12389 H 1218.64 -5.84165 2.80455 0
M  V30 12390 N 1212.04 -0.478751 -1.50152 0
M  V30 12391 C 1213.46 -0.133356 -1.59042 0
M  V30 12392 C 1213.66 1.36069 -1.48618 0
M  V30 12393 O 1212.71 2.13468 -1.34862 0
M  V30 12394 C 1214.03 -0.690369 -2.92668 0
M  V30 12395 C 1215.58 -0.654481 -3.06081 0
M  V30 12396 C 1216.05 -1.18917 -4.42293 0
M  V30 12397 N 1217.54 -1.14891 -4.48725 0
M  V30 12398 C 1218.28 -1.53305 -5.52526 0
M  V30 12399 N 1217.77 -1.99205 -6.63543 0
M  V30 12400 N 1219.57 -1.4486 -5.43113 0
M  V30 12401 H 1211.72 -1.45037 -1.55171 0
M  V30 12402 H 1213.98 -0.600254 -0.733757 0
M  V30 12403 H 1213.69 -1.7373 -3.05795 0
M  V30 12404 H 1213.56 -0.138227 -3.76947 0
M  V30 12405 H 1215.95 0.383564 -2.92597 0
M  V30 12406 H 1216.03 -1.24352 -2.2354 0
M  V30 12407 H 1215.67 -2.22588 -4.56527 0
M  V30 12408 H 1215.6 -0.57628 -5.23437 0
M  V30 12409 H 1218.09 -0.812344 -3.69066 0
M  V30 12410 H 1218.41 -2.26645 -7.38818 0
M  V30 12411 H 1216.75 -2.03164 -6.64642 0
M  V30 12412 H 1219.94 -1.08836 -4.55272 0
M  V30 12413 H 1220.11 -1.75123 -6.23888 0
M  V30 12414 N 1213.52 1.56172 -0.211661 0
M  V30 12415 C 1214.93 1.84307 0.297982 0
M  V30 12416 C 1215.28 1.1328 1.60194 0
M  V30 12417 O 1214.41 0.399137 2.12687 0
M  V30 12418 C 1215 3.34348 0.547428 0
M  V30 12419 C 1213.56 3.62835 1.0014 0
M  V30 12420 C 1212.71 2.77237 0.0590326 0
M  V30 12421 H 1215.66 1.5262 -0.435083 0
M  V30 12422 H 1215.68 3.54018 1.39469 0
M  V30 12423 H 1215.19 3.86015 -0.401778 0
M  V30 12424 H 1213.29 3.16616 1.96431 0
M  V30 12425 H 1213.41 4.70899 0.882653 0
M  V30 12426 H 1211.77 2.48377 0.564005 0
M  V30 12427 H 1212.55 3.31699 -0.884913 0
M  V30 12428 N 1215 -0.0618163 1.57479 0
M  V30 12429 C 1215.95 -1.0724 2.04373 0
M  V30 12430 C 1216.92 -1.37875 0.926271 0
M  V30 12431 O 1218.1 -1.48772 1.19463 0
M  V30 12432 C 1215.24 -2.37805 2.50085 0
M  V30 12433 C 1214.35 -2.13614 3.7549 0
M  V30 12434 C 1213.49 -3.37814 4.09945 0
M  V30 12435 C 1212.53 -3.09032 5.28361 0
M  V30 12436 N 1211.66 -4.25591 5.58406 0
M  V30 12437 H 1216.5 -0.665536 2.90473 0
M  V30 12438 H 1214.04 -0.317043 1.43643 0
M  V30 12439 H 1216 -3.14048 2.74644 0
M  V30 12440 H 1214.63 -2.76275 1.66948 0
M  V30 12441 H 1213.68 -1.28017 3.58212 0
M  V30 12442 H 1214.99 -1.88361 4.61867 0
M  V30 12443 H 1214.15 -4.22447 4.35458 0
M  V30 12444 H 1212.89 -3.66153 3.22154 0
M  V30 12445 H 1211.89 -2.22797 5.02635 0
M  V30 12446 H 1213.12 -2.82006 6.17778 0
M  V30 12447 H 1211.06 -4.53941 4.73575 0
M  V30 12448 H 1210.98 -4.03646 6.39223 0
M  V30 12449 H 1212.25 -5.11191 5.88476 0
M  V30 12450 N 1216.48 -1.54033 -0.333429 0
M  V30 12451 C 1217.41 -1.85719 -1.4153 0
M  V30 12452 C 1218.39 -0.713144 -1.54429 0
M  V30 12453 O 1219.57 -0.965984 -1.68471 0
M  V30 12454 C 1216.7 -2.07578 -2.78439 0
M  V30 12455 C 1215.66 -3.23411 -2.80338 0
M  V30 12456 C 1214.98 -3.30622 -4.2023 0
M  V30 12457 C 1216.28 -4.6129 -2.44968 0
M  V30 12458 H 1217.98 -2.76325 -1.15261 0
M  V30 12459 H 1215.52 -1.32957 -0.55303 0
M  V30 12460 H 1217.48 -2.28329 -3.5418 0
M  V30 12461 H 1216.2 -1.13713 -3.06165 0
M  V30 12462 H 1214.86 -3.02531 -2.07052 0
M  V30 12463 H 1214.51 -2.34333 -4.45081 0
M  V30 12464 H 1214.21 -4.08466 -4.22409 0
M  V30 12465 H 1215.73 -3.53596 -4.97798 0
M  V30 12466 H 1217.14 -4.81987 -3.10421 0
M  V30 12467 H 1215.54 -5.41611 -2.58414 0
M  V30 12468 H 1216.61 -4.6421 -1.40134 0
M  V30 12469 N 1217.95 0.594978 -1.45938 0
M  V30 12470 C 1218.89 1.71909 -1.51591 0
M  V30 12471 C 1219.9 1.57671 -0.405416 0
M  V30 12472 O 1221.09 1.65321 -0.673144 0
M  V30 12473 C 1218.19 3.10041 -1.3685 0
M  V30 12474 C 1217.36 3.50399 -2.61801 0
M  V30 12475 C 1216.42 4.67542 -2.41435 0
M  V30 12476 O 1215.45 4.74022 -3.15106 0
M  V30 12477 N 1216.65 5.6163 -1.46808 0
M  V30 12478 H 1219.41 1.67518 -2.48511 0
M  V30 12479 H 1216.97 0.78062 -1.41838 0
M  V30 12480 H 1218.97 3.86183 -1.21017 0
M  V30 12481 H 1217.54 3.08868 -0.481589 0
M  V30 12482 H 1216.76 2.64088 -2.92662 0
M  V30 12483 H 1218.04 3.74125 -3.44831 0
M  V30 12484 H 1217.44 5.5912 -0.860333 0
M  V30 12485 H 1216 6.37252 -1.36942 0
M  V30 12486 N 1219.43 1.33438 0.838571 0
M  V30 12487 C 1220.84 1.22366 1.41009 0
M  V30 12488 C 1221.19 -0.157317 1.95568 0
M  V30 12489 O 1220.32 -1.05692 1.88834 0
M  V30 12490 C 1220.91 2.21542 2.56329 0
M  V30 12491 C 1219.47 2.14309 3.09433 0
M  V30 12492 C 1218.62 2.09012 1.82235 0
M  V30 12493 H 1221.57 1.45032 0.64431 0
M  V30 12494 H 1221.59 1.82332 3.33969 0
M  V30 12495 H 1221.1 3.22042 2.16589 0
M  V30 12496 H 1219.21 1.17113 3.53717 0
M  V30 12497 H 1219.32 3.04866 3.69586 0
M  V30 12498 H 1217.68 1.54492 2.02495 0
M  V30 12499 H 1218.47 3.11319 1.4469 0
M  V30 12500 N 1220.91 -1.05686 1.16912 0
M  V30 12501 C 1221.82 -2.16824 0.8958 0
M  V30 12502 C 1222.84 -1.73482 -0.134215 0
M  V30 12503 O 1224.01 -2.01352 0.0438776 0
M  V30 12504 C 1221.08 -3.44298 0.407427 0
M  V30 12505 C 1220.14 -4.02114 1.50342 0
M  V30 12506 C 1219.37 -5.23503 1.03826 0
M  V30 12507 O 1219.59 -5.70295 -0.109579 0
M  V30 12508 O 1218.53 -5.73432 1.8292 0
M  V30 12509 H 1222.35 -2.42725 1.82533 0
M  V30 12510 H 1219.94 -1.15339 0.949589 0
M  V30 12511 H 1221.82 -4.21159 0.142356 0
M  V30 12512 H 1220.5 -3.19908 -0.494009 0
M  V30 12513 H 1219.4 -3.26715 1.82231 0
M  V30 12514 H 1220.74 -4.30811 2.38039 0
M  V30 12515 N 1222.39 -0.968567 -1.24324 0
M  V30 12516 C 1223.8 -0.66964 -1.74278 0
M  V30 12517 C 1224.15 0.81461 -1.7849 0
M  V30 12518 O 1223.28 1.63736 -1.4149 0
M  V30 12519 C 1223.87 -1.20885 -3.165 0
M  V30 12520 C 1222.43 -0.959808 -3.63957 0
M  V30 12521 C 1221.58 -1.34365 -2.42573 0
M  V30 12522 H 1224.53 -1.14379 -1.10015 0
M  V30 12523 H 1224.55 -0.57555 -3.76122 0
M  V30 12524 H 1224.06 -2.28912 -3.13402 0
M  V30 12525 H 1222.16 0.104894 -3.72452 0
M  V30 12526 H 1222.27 -1.60606 -4.51378 0
M  V30 12527 H 1220.64 -0.762039 -2.43033 0
M  V30 12528 H 1221.42 -2.43343 -2.42155 0
M  V30 12529 N 1223.87 1.39211 -0.738786 0
M  V30 12530 C 1224.8 2.33209 -0.11647 0
M  V30 12531 C 1225.78 1.54108 0.720056 0
M  V30 12532 O 1226.96 1.82486 0.664264 0
M  V30 12533 C 1224.09 3.38226 0.78872 0
M  V30 12534 C 1223.05 4.27963 0.0560636 0
M  V30 12535 C 1222.37 5.2371 1.07852 0
M  V30 12536 C 1223.67 5.10508 -1.1036 0
M  V30 12537 H 1225.37 2.85501 -0.901649 0
M  V30 12538 H 1222.91 1.37272 -0.435032 0
M  V30 12539 H 1224.87 4.02938 1.23364 0
M  V30 12540 H 1223.59 2.84382 1.60606 0
M  V30 12541 H 1222.25 3.64735 -0.369274 0
M  V30 12542 H 1221.9 4.66161 1.88953 0
M  V30 12543 H 1221.6 5.846 0.593048 0
M  V30 12544 H 1223.12 5.91299 1.52307 0
M  V30 12545 H 1224.53 5.68544 -0.736943 0
M  V30 12546 H 1222.93 5.80558 -1.51895 0
M  V30 12547 H 1224 4.45117 -1.92352 0
M  V30 12548 N 1225.34 0.486708 1.49896 0
M  V30 12549 C 1226.57 -0.0622999 2.07306 0
M  V30 12550 C 1226.99 -1.31353 1.3464 0
M  V30 12551 O 1226.35 -1.76861 0.398752 0
M  V30 12552 C 1226.4 -0.313481 3.59235 0
M  V30 12553 O 1225.5 -1.39101 3.88233 0
M  V30 12554 H 1224.85 0.0198885 0.663702 0
M  V30 12555 H 1227.38 0.682232 1.92891 0
M  V30 12556 H 1227.39 -0.549302 4.04285 0
M  V30 12557 H 1226.06 0.600767 4.11538 0
M  V30 12558 H 1224.64 -1.14127 3.55006 0
M  V30 12559 N 1226.82 -1.56058 0.219941 0
M  V30 12560 C 1228.05 -2.02358 -0.416497 0
M  V30 12561 C 1228.46 -1.09903 -1.54007 0
M  V30 12562 O 1227.8 -0.100635 -1.83424 0
M  V30 12563 C 1227.87 -3.45 -1.01072 0
M  V30 12564 C 1227.53 -4.56994 -0.0227891 0
M  V30 12565 C 1228.53 -5.14061 0.776997 0
M  V30 12566 C 1226.21 -5.02209 0.0954981 0
M  V30 12567 C 1228.21 -6.14813 1.68179 0
M  V30 12568 C 1225.89 -6.02799 1.00383 0
M  V30 12569 C 1226.89 -6.58977 1.79552 0
M  V30 12570 O 1226.58 -7.57608 2.68858 0
M  V30 12571 H 1226.31 -0.667581 -0.106355 0
M  V30 12572 H 1228.87 -2.02677 0.333348 0
M  V30 12573 H 1227.1 -3.41745 -1.80962 0
M  V30 12574 H 1228.78 -3.74958 -1.55439 0
M  V30 12575 H 1229.55 -4.79979 0.696053 0
M  V30 12576 H 1225.43 -4.58164 -0.510599 0
M  V30 12577 H 1228.97 -6.58588 2.30017 0
M  V30 12578 H 1224.87 -6.36302 1.08579 0
M  V30 12579 H 1225.64 -7.75124 2.62915 0
M  V30 12580 N 1228.3 0.053464 -1.57509 0
M  V30 12581 C 1229.71 0.603099 -1.76691 0
M  V30 12582 C 1230.06 1.76934 -0.847861 0
M  V30 12583 O 1229.19 2.16369 -0.0364962 0
M  V30 12584 C 1229.78 1.10084 -3.20417 0
M  V30 12585 C 1228.34 1.59618 -3.4088 0
M  V30 12586 C 1227.49 0.523516 -2.72313 0
M  V30 12587 H 1230.44 -0.172751 -1.57757 0
M  V30 12588 H 1230.46 1.9691 -3.25587 0
M  V30 12589 H 1229.97 0.251818 -3.87282 0
M  V30 12590 H 1228.07 2.46786 -2.79155 0
M  V30 12591 H 1228.19 1.6605 -4.49404 0
M  V30 12592 H 1226.55 0.972886 -2.35387 0
M  V30 12593 H 1227.33 -0.315629 -3.41846 0
M  V30 12594 N 1229.78 1.54207 0.325255 0
M  V30 12595 C 1231.03 1.72587 1.06497 0
M  V30 12596 C 1231.36 0.497228 1.87727 0
M  V30 12597 O 1230.63 -0.505804 1.87808 0
M  V30 12598 C 1230.92 3.00046 1.99109 0
M  V30 12599 C 1230.77 4.33158 1.21221 0
M  V30 12600 C 1232.09 3.23251 2.98658 0
M  V30 12601 H 1229.21 0.627974 0.38577 0
M  V30 12602 H 1231.85 1.869 0.34179 0
M  V30 12603 H 1230 2.87973 2.60775 0
M  V30 12604 H 1231.67 4.57111 0.620289 0
M  V30 12605 H 1229.91 4.30739 0.514462 0
M  V30 12606 H 1230.59 5.18558 1.89214 0
M  V30 12607 H 1233.06 3.34774 2.47114 0
M  V30 12608 H 1231.94 4.13796 3.60645 0
M  V30 12609 H 1232.2 2.40401 3.71026 0
M  V30 12610 N 1231.26 -0.58723 1.46251 0
M  V30 12611 C 1232.19 -1.70694 1.5933 0
M  V30 12612 C 1233.17 -1.64208 0.443831 0
M  V30 12613 O 1234.35 -1.82294 0.669516 0
M  V30 12614 C 1231.48 -3.0933 1.579 0
M  V30 12615 C 1230.44 -3.30643 2.7177 0
M  V30 12616 C 1229.76 -4.69761 2.554 0
M  V30 12617 C 1231.06 -3.18916 4.1363 0
M  V30 12618 H 1232.76 -1.60004 2.53059 0
M  V30 12619 H 1230.3 -0.768343 1.21789 0
M  V30 12620 H 1232.26 -3.87479 1.65644 0
M  V30 12621 H 1230.98 -3.20907 0.60712 0
M  V30 12622 H 1229.64 -2.54892 2.63488 0
M  V30 12623 H 1229.29 -4.78098 1.56306 0
M  V30 12624 H 1228.99 -4.84974 3.31774 0
M  V30 12625 H 1230.51 -5.50084 2.65028 0
M  V30 12626 H 1231.93 -3.86915 4.23048 0
M  V30 12627 H 1230.32 -3.45653 4.90555 0
M  V30 12628 H 1231.39 -2.1606 4.34104 0
M  V30 12629 N 1232.74 -1.33881 -0.831482 0
M  V30 12630 C 1233.65 -1.26802 -1.97379 0
M  V30 12631 C 1234.66 -0.177233 -1.73095 0
M  V30 12632 O 1235.84 -0.402163 -1.97344 0
M  V30 12633 C 1232.9 -1.01474 -3.31517 0
M  V30 12634 C 1231.96 -2.19626 -3.68867 0
M  V30 12635 C 1231.2 -1.95497 -4.96605 0
M  V30 12636 O 1231.42 -0.908948 -5.63111 0
M  V30 12637 O 1230.35 -2.82226 -5.31632 0
M  V30 12638 H 1234.18 -2.22883 -2.06293 0
M  V30 12639 H 1231.76 -1.14001 -0.965613 0
M  V30 12640 H 1233.65 -0.890954 -4.11874 0
M  V30 12641 H 1232.32 -0.0842656 -3.2359 0
M  V30 12642 H 1231.23 -2.37561 -2.88991 0
M  V30 12643 H 1232.56 -3.11034 -3.81469 0
M  V30 12644 N 1234.21 1.05064 -1.1747 0
M  V30 12645 C 1235.46 1.78491 -0.975314 0
M  V30 12646 C 1235.81 1.86036 0.490734 0
M  V30 12647 O 1235.11 1.35005 1.35956 0
M  V30 12648 C 1235.3 3.21961 -1.55164 0
M  V30 12649 C 1235.13 3.28399 -3.0722 0
M  V30 12650 C 1233.9 3.37611 -3.75962 0
M  V30 12651 C 1236.1 3.17234 -4.04805 0
M  V30 12652 N 1234.08 3.33193 -5.15612 0
M  V30 12653 C 1235.45 3.20202 -5.30915 0
M  V30 12654 C 1237.51 3.01205 -3.96459 0
M  V30 12655 C 1236.21 3.08787 -6.49648 0
M  V30 12656 C 1238.24 2.91133 -5.14777 0
M  V30 12657 C 1237.6 2.94735 -6.39774 0
M  V30 12658 H 1233.7 0.665407 -0.4108 0
M  V30 12659 H 1236.28 1.25236 -1.49077 0
M  V30 12660 H 1234.45 3.73585 -1.0625 0
M  V30 12661 H 1236.18 3.83632 -1.28876 0
M  V30 12662 H 1232.94 3.42926 -3.26648 0
M  V30 12663 H 1233.36 3.3445 -5.88619 0
M  V30 12664 H 1238 2.97258 -3.00662 0
M  V30 12665 H 1235.72 3.11489 -7.45654 0
M  V30 12666 H 1239.31 2.798 -5.10101 0
M  V30 12667 H 1238.19 2.87016 -7.29789 0
M  V30 12668 N 1235.69 0.975146 1.23809 0
M  V30 12669 C 1236.6 0.51917 2.28783 0
M  V30 12670 C 1237.62 -0.423487 1.68768 0
M  V30 12671 O 1238.79 -0.294699 1.99232 0
M  V30 12672 C 1235.86 -0.176229 3.46252 0
M  V30 12673 C 1234.92 0.807177 4.21643 0
M  V30 12674 C 1234.15 0.144869 5.33503 0
M  V30 12675 O 1234.38 -1.06522 5.60365 0
M  V30 12676 O 1233.31 0.84079 5.95999 0
M  V30 12677 H 1237.14 1.39204 2.69919 0
M  V30 12678 H 1234.72 0.74253 1.29641 0
M  V30 12679 H 1236.6 -0.566547 4.17574 0
M  V30 12680 H 1235.28 -1.02394 3.07078 0
M  V30 12681 H 1234.18 1.2481 3.52666 0
M  V30 12682 H 1235.52 1.62354 4.64653 0
M  V30 12683 N 1237.17 -1.38817 0.746158 0
M  V30 12684 C 1238.45 -1.94303 0.224841 0
M  V30 12685 C 1238.83 -1.68207 -1.27552 0
M  V30 12686 O 1238.17 -1.01647 -2.04646 0
M  V30 12687 C 1238.38 -3.44306 0.5705 0
M  V30 12688 C 1239.73 -4.21329 0.526015 0
M  V30 12689 O 1240.76 -3.52554 0.508351 0
M  V30 12690 O 1239.62 -5.4392 0.530383 0
M  V30 12691 H 1236.71 -0.825785 0.0448047 0
M  V30 12692 H 1239.26 -1.48253 0.825775 0
M  V30 12693 H 1238.03 -3.56779 1.60701 0
M  V30 12694 H 1237.65 -3.97556 -0.0588271 0
M  V30 12695 N 1238.65 -0.49465 -1.49636 0
M  V30 12696 C 1239.9 0.0539277 -2.01628 0
M  V30 12697 C 1240.21 1.38634 -1.37986 0
M  V30 12698 O 1241.42 2.02123 -1.81269 0
M  V30 12699 C 1239.87 0.146582 -3.59601 0
M  V30 12700 C 1239.48 -1.1788 -4.32213 0
M  V30 12701 C 1241.22 0.645862 -4.19558 0
M  V30 12702 C 1239.13 -1.04866 -5.82028 0
M  V30 12703 H 1238.06 0.0239278 -0.75362 0
M  V30 12704 H 1240.71 -0.633112 -1.72232 0
M  V30 12705 H 1239.09 0.897931 -3.85685 0
M  V30 12706 H 1240.27 -1.94295 -4.17835 0
M  V30 12707 H 1238.58 -1.61102 -3.83973 0
M  V30 12708 H 1241.18 0.76064 -5.29262 0
M  V30 12709 H 1241.52 1.64313 -3.82501 0
M  V30 12710 H 1242.06 -0.04877 -3.9777 0
M  V30 12711 H 1238.79 -2.02 -6.23599 0
M  V30 12712 H 1238.31 -0.325293 -5.98917 0
M  V30 12713 H 1239.99 -0.724799 -6.42927 0
M  V30 12714 N 1240.13 1.55939 -0.228214 0
M  V30 12715 C 1241.35 2.0287 0.406348 0
M  V30 12716 C 1241.77 1.1079 1.52876 0
M  V30 12717 O 1241.13 0.118747 1.82113 0
M  V30 12718 C 1241.18 3.49286 0.931734 0
M  V30 12719 O 1240.9 4.37857 -0.145933 0
M  V30 12720 C 1242.4 4.11893 1.63887 0
M  V30 12721 H 1239.62 0.663696 0.0987358 0
M  V30 12722 H 1242.16 2.01541 -0.346616 0
M  V30 12723 H 1240.32 3.5121 1.63494 0
M  V30 12724 H 1240.73 5.23904 0.250005 0
M  V30 12725 H 1242.21 5.16091 1.95841 0
M  V30 12726 H 1242.68 3.57281 2.55435 0
M  V30 12727 H 1243.29 4.13839 0.980697 0
M  V30 12728 N 1241.6 -0.0451101 1.57535 0
M  V30 12729 C 1242.85 -0.739114 1.88529 0
M  V30 12730 C 1243.18 -1.76208 0.823468 0
M  V30 12731 O 1242.43 -1.94893 -0.177512 0
M  V30 12732 C 1242.73 -1.45938 3.26247 0
M  V30 12733 C 1242.4 -0.57391 4.47233 0
M  V30 12734 C 1241.06 -0.329974 4.80067 0
M  V30 12735 C 1243.41 0.0384272 5.21186 0
M  V30 12736 C 1240.74 0.535339 5.84253 0
M  V30 12737 C 1243.09 0.891349 6.26289 0
M  V30 12738 C 1241.76 1.1449 6.57608 0
M  V30 12739 H 1241.03 -0.270461 0.689878 0
M  V30 12740 H 1243.67 0.000714103 1.915 0
M  V30 12741 H 1241.98 -2.27212 3.1919 0
M  V30 12742 H 1243.68 -2.00162 3.47471 0
M  V30 12743 H 1240.27 -0.774181 4.2155 0
M  V30 12744 H 1244.45 -0.137096 4.96111 0
M  V30 12745 H 1239.71 0.740253 6.06902 0
M  V30 12746 H 1243.88 1.37243 6.82743 0
M  V30 12747 H 1241.51 1.81715 7.38162 0
M  V30 12748 N 1243.08 -1.54377 -0.317073 0
M  V30 12749 C 1243.99 -1.87247 -1.41335 0
M  V30 12750 C 1245.01 -0.765017 -1.5628 0
M  V30 12751 O 1246.18 -1.05994 -1.71252 0
M  V30 12752 C 1243.25 -2.0988 -2.75955 0
M  V30 12753 C 1242.31 -3.33658 -2.70131 0
M  V30 12754 C 1241.54 -3.55202 -3.9833 0
M  V30 12755 O 1241.77 -2.80061 -4.96913 0
M  V30 12756 O 1240.7 -4.48693 -4.01196 0
M  V30 12757 H 1244.53 -2.80481 -1.16465 0
M  V30 12758 H 1242.11 -1.40364 -0.511687 0
M  V30 12759 H 1243.99 -2.2606 -3.55633 0
M  V30 12760 H 1242.67 -1.19834 -3.00702 0
M  V30 12761 H 1241.58 -3.22857 -1.88981 0
M  V30 12762 H 1242.91 -4.23782 -2.50338 0
M  V30 12763 N 1244.56 0.579466 -1.4656 0
M  V30 12764 C 1245.84 1.33973 -1.42515 0
M  V30 12765 C 1246.22 2.10812 -0.110317 0
M  V30 12766 O 1245.57 2.09679 0.908135 0
M  V30 12767 C 1245.78 2.26301 -2.65686 0
M  V30 12768 C 1247.12 2.88027 -3.1197 0
M  V30 12769 O 1248.15 2.36612 -2.66257 0
M  V30 12770 O 1247.01 3.81423 -3.9138 0
M  V30 12771 H 1244.1 0.602121 -0.566903 0
M  V30 12772 H 1246.65 0.600214 -1.58731 0
M  V30 12773 H 1245.42 1.68973 -3.52936 0
M  V30 12774 H 1245.04 3.07586 -2.51945 0
M  V30 12775 N 1246.04 1.3432 0.824371 0
M  V30 12776 C 1246.97 1.2842 1.95014 0
M  V30 12777 C 1247.95 0.161925 1.69328 0
M  V30 12778 O 1249.13 0.354052 1.90945 0
M  V30 12779 C 1246.26 1.03741 3.31444 0
M  V30 12780 C 1245.22 2.12419 3.71567 0
M  V30 12781 C 1244.54 1.72931 5.05963 0
M  V30 12782 C 1245.84 3.54235 3.83817 0
M  V30 12783 H 1247.54 2.22614 2.00209 0
M  V30 12784 H 1245.08 1.07165 0.961856 0
M  V30 12785 H 1247.04 0.982586 4.09784 0
M  V30 12786 H 1245.76 0.0598892 3.26545 0
M  V30 12787 H 1244.42 2.16968 2.955 0
M  V30 12788 H 1244.07 0.738433 4.9755 0
M  V30 12789 H 1243.77 2.45668 5.3378 0
M  V30 12790 H 1245.29 1.68941 5.86763 0
M  V30 12791 H 1246.71 3.52106 4.52432 0
M  V30 12792 H 1245.1 4.25581 4.23085 0
M  V30 12793 H 1246.17 3.91682 2.85856 0
M  V30 12794 N 1247.52 -1.0444 1.18026 0
M  V30 12795 C 1248.77 -1.7697 0.9677 0
M  V30 12796 C 1249.08 -1.88995 -0.503994 0
M  V30 12797 O 1250.28 -2.58342 -0.834968 0
M  V30 12798 C 1248.74 -3.1816 1.68232 0
M  V30 12799 C 1248.35 -3.14241 3.19307 0
M  V30 12800 C 1250.09 -3.95095 1.55244 0
M  V30 12801 C 1248 -4.50266 3.83425 0
M  V30 12802 H 1246.93 -0.663355 0.358436 0
M  V30 12803 H 1249.58 -1.17003 1.4136 0
M  V30 12804 H 1247.96 -3.78501 1.16418 0
M  V30 12805 H 1249.14 -2.63373 3.78115 0
M  V30 12806 H 1247.45 -2.50805 3.32394 0
M  V30 12807 H 1250.05 -4.95681 2.00511 0
M  V30 12808 H 1250.39 -4.13236 0.504125 0
M  V30 12809 H 1250.92 -3.4132 2.04317 0
M  V30 12810 H 1247.66 -4.37329 4.88286 0
M  V30 12811 H 1247.18 -5.01251 3.29404 0
M  V30 12812 H 1248.86 -5.1919 3.86071 0
M  V30 12813 N 1248.99 -0.981699 -1.2329 0
M  V30 12814 C 1250.24 -0.650015 -1.91361 0
M  V30 12815 C 1250.56 0.819184 -1.76959 0
M  V30 12816 O 1249.83 1.5861 -1.14977 0
M  V30 12817 H 1248.41 -0.237427 -0.708264 0
M  V30 12818 H 1251.08 -1.24579 -1.49887 0
M  V30 12819 H 1250.17 -0.902772 -2.98758 0
M  V30 12820 N 1250.47 1.3842 -0.753509 0
M  V30 12821 C 1251.38 2.34252 -0.127811 0
M  V30 12822 C 1252.4 1.59266 0.700743 0
M  V30 12823 O 1253.57 1.9146 0.624914 0
M  V30 12824 C 1250.64 3.38382 0.754886 0
M  V30 12825 C 1249.7 4.2921 -0.0880312 0
M  V30 12826 C 1248.93 5.28367 0.75263 0
M  V30 12827 O 1249.16 5.34537 1.99064 0
M  V30 12828 O 1248.09 6.01656 0.171475 0
M  V30 12829 H 1251.92 2.89454 -0.91925 0
M  V30 12830 H 1249.5 1.40265 -0.514404 0
M  V30 12831 H 1251.38 4.02141 1.25938 0
M  V30 12832 H 1250.06 2.85536 1.52482 0
M  V30 12833 H 1248.97 3.68611 -0.638468 0
M  V30 12834 H 1250.3 4.85311 -0.82062 0
M  V30 12835 N 1251.95 0.502579 1.49372 0
M  V30 12836 C 1253.2 -0.0412993 2.02058 0
M  V30 12837 C 1253.52 -1.37338 1.38431 0
M  V30 12838 O 1252.79 -1.88305 0.540175 0
M  V30 12839 H 1251.37 -0.0182522 0.746777 0
M  V30 12840 H 1254.03 0.660179 1.83378 0
M  V30 12841 H 1253.13 -0.169812 3.11638 0
M  V30 12842 N 1253.43 -1.55816 0.23648 0
M  V30 12843 C 1254.38 -2.22322 -0.68378 0
M  V30 12844 C 1255.37 -1.2074 -1.1882 0
M  V30 12845 O 1256.58 -1.38781 -1.14629 0
M  V30 12846 H 1252.95 -0.713021 -0.238966 0
M  V30 12847 H 1254.92 -2.98234 -0.0995879 0
M  V30 12848 C 1253.67 -2.92845 -1.87449 0
M  V30 12849 H 1252.99 -3.70777 -1.49548 0
M  V30 12850 H 1254.43 -3.42758 -2.49585 0
M  V30 12851 C 1252.89 -1.96139 -2.73918 0
M  V30 12852 O 1253.42 -1.48781 -3.73132 0
M  V30 12853 N 1251.63 -1.63465 -2.40266 0
M  V30 12854 H 1251.18 -2.02171 -1.59639 0
M  V30 12855 H 1251.13 -0.990239 -2.98398 0
M  V30 12856 N 1254.91 0.036755 -1.57557 0
M  V30 12857 C 1256.15 0.729106 -1.88919 0
M  V30 12858 C 1256.48 1.75769 -0.832801 0
M  V30 12859 O 1255.74 1.94985 0.167173 0
M  V30 12860 C 1256.04 1.44206 -3.27016 0
M  V30 12861 C 1255.7 0.550184 -4.47531 0
M  V30 12862 C 1254.36 0.304511 -4.80236 0
M  V30 12863 C 1256.72 -0.0660664 -5.21158 0
M  V30 12864 C 1254.04 -0.566316 -5.8396 0
M  V30 12865 C 1256.4 -0.92455 -6.25807 0
M  V30 12866 C 1255.06 -1.17976 -6.56992 0
M  V30 12867 H 1254.33 0.266799 -0.691303 0
M  V30 12868 H 1256.98 -0.0108698 -1.91497 0
M  V30 12869 H 1255.28 2.25516 -3.2039 0
M  V30 12870 H 1256.98 1.98317 -3.48527 0
M  V30 12871 H 1253.57 0.751814 -4.21955 0
M  V30 12872 H 1257.75 0.110784 -4.96176 0
M  V30 12873 H 1253.01 -0.772428 -6.06501 0
M  V30 12874 H 1257.18 -1.40861 -6.82005 0
M  V30 12875 H 1254.81 -1.85627 -7.37188 0
M  V30 12876 N 1256.39 1.54543 0.308881 0
M  V30 12877 C 1257.63 1.73107 1.043 0
M  V30 12878 C 1257.95 0.515481 1.88063 0
M  V30 12879 O 1257.22 -0.47036 1.90169 0
M  V30 12880 H 1255.8 0.638289 0.388068 0
M  V30 12881 H 1258.47 1.9188 0.341769 0
M  V30 12882 H 1257.56 2.61697 1.70063 0
M  V30 12883 N 1257.86 -0.571685 1.46866 0
M  V30 12884 C 1258.8 -1.69475 1.54307 0
M  V30 12885 C 1259.81 -1.57006 0.430449 0
M  V30 12886 O 1261 -1.64229 0.69936 0
M  V30 12887 C 1258.1 -3.07824 1.41766 0
M  V30 12888 C 1257.27 -3.46189 2.67342 0
M  V30 12889 C 1256.33 -4.63642 2.48843 0
M  V30 12890 O 1255.36 -4.68949 3.22608 0
M  V30 12891 N 1256.56 -5.59223 1.55724 0
M  V30 12892 H 1259.32 -1.63543 2.51145 0
M  V30 12893 H 1256.88 -0.757957 1.43062 0
M  V30 12894 H 1258.88 -3.84208 1.27146 0
M  V30 12895 H 1257.45 -3.08063 0.530667 0
M  V30 12896 H 1256.67 -2.59399 2.96826 0
M  V30 12897 H 1257.95 -3.68591 3.50739 0
M  V30 12898 H 1257.35 -5.5768 0.949175 0
M  V30 12899 H 1255.91 -6.34993 1.47063 0
M  V30 12900 N 1259.34 -1.34755 -0.817236 0
M  V30 12901 C 1260.59 -1.2762 -1.5761 0
M  V30 12902 C 1260.92 0.152017 -1.93604 0
M  V30 12903 O 1260.2 1.09881 -1.60488 0
M  V30 12904 C 1260.48 -2.17251 -2.87183 0
M  V30 12905 C 1260.33 -3.68638 -2.57733 0
M  V30 12906 C 1261.65 -2.06206 -3.88802 0
M  V30 12907 H 1258.77 -0.464933 -0.571845 0
M  V30 12908 H 1261.41 -1.6506 -0.941028 0
M  V30 12909 H 1259.56 -1.85452 -3.41379 0
M  V30 12910 H 1261.23 -4.10829 -2.09802 0
M  V30 12911 H 1259.48 -3.89445 -1.91089 0
M  V30 12912 H 1260.15 -4.26726 -3.50156 0
M  V30 12913 H 1262.62 -2.34137 -3.43975 0
M  V30 12914 H 1261.5 -2.71136 -4.77259 0
M  V30 12915 H 1261.76 -1.04075 -4.29675 0
M  V30 12916 N 1260.82 1.03812 -1.18578 0
M  V30 12917 C 1262.07 1.76455 -0.977071 0
M  V30 12918 C 1262.38 1.8926 0.493964 0
M  V30 12919 O 1263.59 2.58781 0.821256 0
M  V30 12920 C 1262.04 3.17264 -1.69917 0
M  V30 12921 C 1261.65 3.12543 -3.20969 0
M  V30 12922 C 1263.4 3.94266 -1.57337 0
M  V30 12923 C 1261.3 4.48226 -3.85807 0
M  V30 12924 H 1260.23 0.661445 -0.361949 0
M  V30 12925 H 1262.88 1.16252 -1.41978 0
M  V30 12926 H 1261.27 3.77878 -1.18424 0
M  V30 12927 H 1262.44 2.61364 -3.79507 0
M  V30 12928 H 1260.75 2.49039 -3.33719 0
M  V30 12929 H 1263.35 4.9461 -2.03137 0
M  V30 12930 H 1263.69 4.12963 -0.526033 0
M  V30 12931 H 1264.23 3.40232 -2.06124 0
M  V30 12932 H 1260.97 4.34734 -4.90599 0
M  V30 12933 H 1260.49 4.99497 -3.32058 0
M  V30 12934 H 1262.17 5.17135 -3.88819 0
M  V30 12935 N 1262.3 0.988223 1.22768 0
M  V30 12936 C 1263.71 0.69816 1.4352 0
M  V30 12937 C 1263.91 -0.732872 1.877 0
M  V30 12938 O 1262.97 -1.50436 2.02793 0
M  V30 12939 C 1264.28 1.69975 2.4805 0
M  V30 12940 C 1265.83 1.71467 2.61855 0
M  V30 12941 C 1266.31 2.70477 3.69603 0
M  V30 12942 N 1267.8 2.69043 3.77055 0
M  V30 12943 C 1268.53 3.42319 4.60006 0
M  V30 12944 N 1268.03 4.2518 5.46986 0
M  V30 12945 N 1269.82 3.31047 4.54274 0
M  V30 12946 H 1261.97 1.91251 0.923948 0
M  V30 12947 H 1264.23 0.82455 0.467783 0
M  V30 12948 H 1263.94 2.72354 2.22523 0
M  V30 12949 H 1263.81 1.48885 3.46573 0
M  V30 12950 H 1266.2 0.697889 2.86729 0
M  V30 12951 H 1266.28 1.96625 1.63622 0
M  V30 12952 H 1265.93 3.72302 3.45476 0
M  V30 12953 H 1265.86 2.42591 4.67394 0
M  V30 12954 H 1268.35 2.08914 3.14902 0
M  V30 12955 H 1268.66 4.77929 6.07292 0
M  V30 12956 H 1267.01 4.29268 5.46584 0
M  V30 12957 H 1270.2 2.65758 3.85345 0
M  V30 12958 H 1270.37 3.88413 5.1869 0
M  V30 12959 N 1263.78 -1.38018 0.760839 0
M  V30 12960 C 1264.74 -2.28734 0.146154 0
M  V30 12961 C 1265.74 -1.47525 -0.639768 0
M  V30 12962 O 1266.93 -1.6788 -0.464964 0
M  V30 12963 C 1264.06 -3.31356 -0.801019 0
M  V30 12964 H 1265.25 -2.84599 0.945692 0
M  V30 12965 H 1262.81 -1.471 0.528323 0
M  V30 12966 H 1263.54 -2.80594 -1.62597 0
M  V30 12967 H 1263.33 -3.91366 -0.239775 0
M  V30 12968 H 1264.82 -3.99171 -1.22687 0
M  V30 12969 N 1265.25 -0.510493 -1.49103 0
M  V30 12970 C 1266.19 0.309697 -2.26089 0
M  V30 12971 C 1267.16 0.962061 -1.31084 0
M  V30 12972 O 1268.35 0.990296 -1.60391 0
M  V30 12973 C 1265.48 1.43693 -3.06708 0
M  V30 12974 C 1264.52 0.897978 -4.1694 0
M  V30 12975 S 1265.35 -0.218781 -5.35053 0
M  V30 12976 C 1266.51 0.911396 -6.19229 0
M  V30 12977 H 1266.74 -0.343702 -2.95307 0
M  V30 12978 H 1264.28 -0.295944 -1.51537 0
M  V30 12979 H 1266.23 2.08277 -3.53739 0
M  V30 12980 H 1264.9 2.06198 -2.36941 0
M  V30 12981 H 1264.09 1.74303 -4.729 0
M  V30 12982 H 1263.69 0.329192 -3.72548 0
M  V30 12983 H 1265.98 1.8145 -6.5275 0
M  V30 12984 H 1266.93 0.390201 -7.07024 0
M  V30 12985 H 1267.33 1.18301 -5.51965 0
M  V30 12986 N 1266.73 1.55688 -0.24474 0
M  V30 12987 C 1267.98 1.98067 0.381081 0
M  V30 12988 C 1268.29 1.13606 1.59227 0
M  V30 12989 O 1269.5 1.45988 2.2891 0
M  V30 12990 C 1267.96 3.52432 0.729385 0
M  V30 12991 C 1267.56 4.45629 -0.460282 0
M  V30 12992 C 1269.31 4.03471 1.31952 0
M  V30 12993 C 1267.21 5.91334 -0.088252 0
M  V30 12994 H 1266.14 0.739699 0.146157 0
M  V30 12995 H 1268.8 1.80235 -0.344615 0
M  V30 12996 H 1267.18 3.65951 1.51315 0
M  V30 12997 H 1268.35 4.43868 -1.23764 0
M  V30 12998 H 1266.67 4.05059 -0.965197 0
M  V30 12999 H 1269.26 5.09849 1.61116 0
M  V30 13000 H 1269.61 3.50691 2.24325 0
M  V30 13001 H 1270.14 3.93269 0.5987 0
M  V30 13002 H 1266.88 6.48147 -0.979069 0
M  V30 13003 H 1266.4 5.96235 0.652947 0
M  V30 13004 H 1268.08 6.46156 0.330324 0
M  V30 13005 N 1268.21 -0.0283989 1.57574 0
M  V30 13006 C 1269.16 -1.02881 2.06601 0
M  V30 13007 C 1270.13 -1.35879 0.955308 0
M  V30 13008 O 1271.31 -1.46205 1.22592 0
M  V30 13009 C 1268.45 -2.32447 2.55073 0
M  V30 13010 C 1267.56 -2.05602 3.79937 0
M  V30 13011 C 1266.7 -3.29043 4.17018 0
M  V30 13012 C 1265.74 -2.97755 5.34797 0
M  V30 13013 N 1264.88 -4.1365 5.67308 0
M  V30 13014 H 1269.72 -0.603772 2.91819 0
M  V30 13015 H 1267.25 -0.286503 1.44283 0
M  V30 13016 H 1269.21 -3.08152 2.81244 0
M  V30 13017 H 1267.84 -2.72672 1.72771 0
M  V30 13018 H 1266.89 -1.2039 3.60847 0
M  V30 13019 H 1268.2 -1.78522 4.65759 0
M  V30 13020 H 1267.36 -4.13115 4.4432 0
M  V30 13021 H 1266.1 -3.59237 3.29849 0
M  V30 13022 H 1265.1 -2.12085 5.07247 0
M  V30 13023 H 1266.33 -2.68839 6.23621 0
M  V30 13024 H 1264.27 -4.43794 4.83097 0
M  V30 13025 H 1264.19 -3.89996 6.47641 0
M  V30 13026 H 1265.46 -4.98594 5.99186 0
M  V30 13027 N 1269.69 -1.54705 -0.300681 0
M  V30 13028 C 1270.63 -1.85678 -1.37084 0
M  V30 13029 C 1271.6 -0.70573 -1.50362 0
M  V30 13030 O 1272.79 -0.954385 -1.65215 0
M  V30 13031 C 1269.93 -2.10995 -2.73084 0
M  V30 13032 C 1269.04 -3.38621 -2.68254 0
M  V30 13033 C 1268.18 -3.53779 -3.9625 0
M  V30 13034 C 1267.22 -4.75195 -3.85818 0
M  V30 13035 N 1266.35 -4.87157 -5.05591 0
M  V30 13036 H 1271.19 -2.76967 -1.09971 0
M  V30 13037 H 1268.73 -1.37147 -0.531887 0
M  V30 13038 H 1270.69 -2.23669 -3.52176 0
M  V30 13039 H 1269.32 -1.22973 -2.98458 0
M  V30 13040 H 1268.37 -3.34566 -1.81025 0
M  V30 13041 H 1269.68 -4.27834 -2.56436 0
M  V30 13042 H 1268.84 -3.66119 -4.83779 0
M  V30 13043 H 1267.58 -2.62699 -4.10902 0
M  V30 13044 H 1266.58 -4.62888 -2.96673 0
M  V30 13045 H 1267.81 -5.67683 -3.72711 0
M  V30 13046 H 1265.75 -3.99001 -5.20706 0
M  V30 13047 H 1265.67 -5.70372 -4.96197 0
M  V30 13048 H 1266.94 -5.03854 -5.9477 0
M  V30 13049 N 1271.17 0.563888 -1.47167 0
M  V30 13050 C 1272.44 1.32454 -1.43928 0
M  V30 13051 C 1272.82 2.10683 -0.13267 0
M  V30 13052 O 1272.17 2.1063 0.885845 0
M  V30 13053 C 1272.38 2.2347 -2.68071 0
M  V30 13054 C 1273.73 2.84702 -3.15008 0
M  V30 13055 O 1274.75 2.33775 -2.68752 0
M  V30 13056 O 1273.61 3.77251 -3.95404 0
M  V30 13057 H 1270.71 0.596074 -0.573258 0
M  V30 13058 H 1273.25 0.583345 -1.59359 0
M  V30 13059 H 1272.02 1.6522 -3.54708 0
M  V30 13060 H 1271.65 3.04897 -2.55193 0
M  V30 13061 N 1272.64 1.35187 0.810078 0
M  V30 13062 C 1273.89 1.28011 1.56389 0
M  V30 13063 C 1274.21 -0.14622 1.94451 0
M  V30 13064 O 1273.48 -1.08185 1.63318 0
M  V30 13065 H 1272.06 0.470837 0.579932 0
M  V30 13066 H 1274.73 1.69249 0.966476 0
M  V30 13067 H 1273.82 1.89362 2.4809 0
M  V30 13068 N 1274.12 -1.03182 1.19127 0
M  V30 13069 C 1275.05 -2.13301 0.94999 0
M  V30 13070 C 1276.03 -1.69707 -0.115577 0
M  V30 13071 O 1277.22 -1.94161 0.0388395 0
M  V30 13072 C 1274.35 -3.43902 0.484637 0
M  V30 13073 C 1273.3 -4.01164 1.4917 0
M  V30 13074 C 1272.63 -5.2735 0.883537 0
M  V30 13075 C 1273.93 -4.36311 2.87107 0
M  V30 13076 H 1275.62 -2.33743 1.87095 0
M  V30 13077 H 1273.17 -1.12332 0.900977 0
M  V30 13078 H 1275.12 -4.20308 0.30315 0
M  V30 13079 H 1273.85 -3.23173 -0.471909 0
M  V30 13080 H 1272.5 -3.26849 1.66028 0
M  V30 13081 H 1272.15 -5.02936 -0.0804712 0
M  V30 13082 H 1271.85 -5.66624 1.55599 0
M  V30 13083 H 1273.38 -6.06425 0.71278 0
M  V30 13084 H 1274.79 -5.03666 2.73848 0
M  V30 13085 H 1273.19 -4.86659 3.51117 0
M  V30 13086 H 1274.26 -3.45743 3.39985 0
M  V30 13087 N 1275.6 -0.99472 -1.22242 0
M  V30 13088 C 1276.55 -0.546504 -2.24236 0
M  V30 13089 C 1277.52 0.422101 -1.60647 0
M  V30 13090 O 1278.7 0.326452 -1.87987 0
M  V30 13091 C 1275.84 0.130909 -3.44852 0
M  V30 13092 C 1274.96 -0.879653 -4.22949 0
M  V30 13093 C 1274.09 -0.175569 -5.3091 0
M  V30 13094 C 1273.13 -1.17438 -6.00729 0
M  V30 13095 N 1272.27 -0.498474 -7.00328 0
M  V30 13096 H 1277.11 -1.42099 -2.61939 0
M  V30 13097 H 1274.64 -0.711755 -1.28734 0
M  V30 13098 H 1276.6 0.540596 -4.13683 0
M  V30 13099 H 1275.23 0.96917 -3.07907 0
M  V30 13100 H 1274.28 -1.40765 -3.53397 0
M  V30 13101 H 1275.6 -1.64017 -4.71062 0
M  V30 13102 H 1274.75 0.290756 -6.06003 0
M  V30 13103 H 1273.49 0.617438 -4.83776 0
M  V30 13104 H 1272.49 -1.65131 -5.24416 0
M  V30 13105 H 1273.72 -1.96829 -6.4995 0
M  V30 13106 H 1271.66 0.275063 -6.55423 0
M  V30 13107 H 1271.58 -1.19741 -7.46457 0
M  V30 13108 H 1272.85 -0.0550119 -7.79481 0
M  V30 13109 N 1277.08 1.37613 -0.768148 0
M  V30 13110 C 1278.01 2.27988 -0.098355 0
M  V30 13111 C 1278.99 1.46137 0.712939 0
M  V30 13112 O 1280.17 1.75477 0.68847 0
M  V30 13113 C 1277.3 3.27413 0.867086 0
M  V30 13114 C 1276.35 4.26269 0.140235 0
M  V30 13115 S 1277.18 5.2258 -1.16921 0
M  V30 13116 C 1278.34 6.25557 -0.207221 0
M  V30 13117 H 1278.57 2.84447 -0.864693 0
M  V30 13118 H 1276.1 1.43833 -0.561376 0
M  V30 13119 H 1278.06 3.85205 1.41872 0
M  V30 13120 H 1276.72 2.69908 1.6065 0
M  V30 13121 H 1275.91 4.964 0.871977 0
M  V30 13122 H 1275.52 3.72449 -0.340294 0
M  V30 13123 H 1277.81 6.74642 0.621654 0
M  V30 13124 H 1278.75 7.02653 -0.876595 0
M  V30 13125 H 1279.16 5.64213 0.179968 0
M  V30 13126 N 1278.56 0.518393 1.4883 0
M  V30 13127 C 1279.5 -0.264197 2.31095 0
M  V30 13128 C 1280.5 -0.946455 1.40494 0
M  V30 13129 O 1281.7 -0.872161 1.57459 0
M  V30 13130 H 1278.08 -0.104065 0.744765 0
M  V30 13131 H 1280.05 0.449375 2.94997 0
M  V30 13132 C 1278.8 -1.30527 3.2227 0
M  V30 13133 H 1278.12 -0.789695 3.91923 0
M  V30 13134 H 1279.56 -1.82449 3.82738 0
M  V30 13135 C 1278.02 -2.33274 2.43073 0
M  V30 13136 O 1278.55 -3.39493 2.14726 0
M  V30 13137 N 1276.76 -2.06189 2.04779 0
M  V30 13138 H 1276.3 -1.19829 2.28033 0
M  V30 13139 H 1276.26 -2.7516 1.521 0
M  V30 13140 N 1280.03 -1.55556 0.252993 0
M  V30 13141 C 1281 -2.20351 -0.630705 0
M  V30 13142 C 1282 -1.17461 -1.09816 0
M  V30 13143 O 1283.19 -1.42505 -1.00189 0
M  V30 13144 C 1280.32 -2.85192 -1.86757 0
M  V30 13145 H 1281.51 -2.99829 -0.0652939 0
M  V30 13146 H 1279.07 -1.563 0.00347982 0
M  V30 13147 H 1279.8 -2.09669 -2.47406 0
M  V30 13148 H 1279.59 -3.60569 -1.54053 0
M  V30 13149 H 1281.08 -3.34762 -2.49648 0
M  V30 13150 N 1281.51 0.0200419 -1.57587 0
M  V30 13151 C 1282.48 1.00255 -2.06111 0
M  V30 13152 C 1283.48 1.28488 -0.966829 0
M  V30 13153 O 1284.67 1.2334 -1.23015 0
M  V30 13154 C 1281.8 2.33296 -2.48567 0
M  V30 13155 H 1282.99 0.583216 -2.94174 0
M  V30 13156 H 1280.54 0.267077 -1.54001 0
M  V30 13157 H 1281.28 2.79959 -1.63687 0
M  V30 13158 H 1281.06 2.14131 -3.28467 0
M  V30 13159 H 1282.55 3.03817 -2.86505 0
M  V30 13160 N 1282.99 1.54862 0.292472 0
M  V30 13161 C 1284.24 1.73756 1.02429 0
M  V30 13162 C 1284.55 0.535164 1.88137 0
M  V30 13163 O 1285.76 0.606092 2.64648 0
M  V30 13164 C 1284.21 3.0745 1.8709 0
M  V30 13165 C 1283.82 4.35195 1.06343 0
M  V30 13166 C 1285.57 3.357 2.59819 0
M  V30 13167 C 1283.47 5.59936 1.9033 0
M  V30 13168 H 1282.4 0.647617 0.386145 0
M  V30 13169 H 1285.05 1.81338 0.28086 0
M  V30 13170 H 1283.44 2.93855 2.65453 0
M  V30 13171 H 1284.61 4.5965 0.325335 0
M  V30 13172 H 1282.93 4.13944 0.451574 0
M  V30 13173 H 1285.52 4.26099 3.23023 0
M  V30 13174 H 1285.87 2.54956 3.29094 0
M  V30 13175 H 1286.4 3.50304 1.88499 0
M  V30 13176 H 1283.14 6.43372 1.25509 0
M  V30 13177 H 1282.66 5.39654 2.61789 0
M  V30 13178 H 1284.34 5.97512 2.48171 0
M  V30 13179 N 1284.47 -0.556076 1.47464 0
M  V30 13180 C 1285.42 -1.66304 1.60036 0
M  V30 13181 C 1286.39 -1.60074 0.443348 0
M  V30 13182 O 1287.57 -1.7889 0.663545 0
M  V30 13183 C 1284.71 -3.04624 1.62167 0
M  V30 13184 C 1283.82 -3.21283 2.88793 0
M  V30 13185 C 1282.96 -4.50008 2.82252 0
M  V30 13186 C 1282 -4.60103 4.03698 0
M  V30 13187 N 1281.13 -5.80184 3.95387 0
M  V30 13188 H 1285.97 -1.54897 2.5458 0
M  V30 13189 H 1283.51 -0.754533 1.26274 0
M  V30 13190 H 1285.47 -3.84721 1.61386 0
M  V30 13191 H 1284.1 -3.14865 0.711348 0
M  V30 13192 H 1283.15 -2.34611 2.99436 0
M  V30 13193 H 1284.46 -3.24607 3.78724 0
M  V30 13194 H 1283.62 -5.38366 2.79726 0
M  V30 13195 H 1282.36 -4.49165 1.90005 0
M  V30 13196 H 1281.36 -3.70157 4.06527 0
M  V30 13197 H 1282.59 -4.62704 4.97073 0
M  V30 13198 H 1280.53 -5.80288 3.05944 0
M  V30 13199 H 1280.45 -5.8489 4.78998 0
M  V30 13200 H 1281.72 -6.709 3.96879 0
M  V30 13201 N 1285.95 -1.35615 -0.802897 0
M  V30 13202 C 1286.88 -1.23192 -1.92091 0
M  V30 13203 C 1287.86 -0.118995 -1.62164 0
M  V30 13204 O 1289.04 -0.287743 -1.86291 0
M  V30 13205 C 1286.17 -0.897699 -3.26587 0
M  V30 13206 C 1285.22 -2.02319 -3.75459 0
M  V30 13207 S 1286.05 -3.63938 -3.92822 0
M  V30 13208 C 1287.2 -3.32601 -5.30215 0
M  V30 13209 H 1287.44 -2.17825 -2.02335 0
M  V30 13210 H 1284.97 -1.20873 -0.960675 0
M  V30 13211 H 1286.93 -0.711674 -4.04284 0
M  V30 13212 H 1285.59 0.0306305 -3.14085 0
M  V30 13213 H 1284.78 -1.74357 -4.7288 0
M  V30 13214 H 1284.38 -2.16774 -3.04771 0
M  V30 13215 H 1286.68 -2.85658 -6.14334 0
M  V30 13216 H 1287.62 -4.29236 -5.63172 0
M  V30 13217 H 1288.03 -2.68279 -4.96676 0
M  V30 13218 N 1287.43 1.02549 -1.19673 0
M  V30 13219 C 1288.36 2.12794 -0.961289 0
M  V30 13220 C 1289.34 1.69766 0.106575 0
M  V30 13221 O 1290.52 1.94138 -0.0491358 0
M  V30 13222 C 1287.65 3.4364 -0.502868 0
M  V30 13223 C 1286.61 4.00367 -1.51296 0
M  V30 13224 C 1285.93 5.26874 -0.911491 0
M  V30 13225 C 1287.23 4.34782 -2.89416 0
M  V30 13226 H 1288.93 2.32748 -1.88331 0
M  V30 13227 H 1286.47 1.11852 -0.906922 0
M  V30 13228 H 1288.42 4.20141 -0.325436 0
M  V30 13229 H 1287.15 3.23418 0.454764 0
M  V30 13230 H 1285.81 3.25964 -1.67759 0
M  V30 13231 H 1285.46 5.02971 0.0537982 0
M  V30 13232 H 1285.16 5.65791 -1.58602 0
M  V30 13233 H 1286.68 6.06039 -0.74493 0
M  V30 13234 H 1288.09 5.02207 -2.76516 0
M  V30 13235 H 1286.49 4.8479 -3.53693 0
M  V30 13236 H 1287.56 3.43935 -3.41814 0
M  V30 13237 N 1288.9 1.00119 1.21713 0
M  V30 13238 C 1289.85 0.558388 2.23943 0
M  V30 13239 C 1290.82 -0.413576 1.60869 0
M  V30 13240 O 1292.01 -0.316478 1.88157 0
M  V30 13241 C 1289.15 -0.112618 3.44916 0
M  V30 13242 C 1288.26 0.902071 4.22477 0
M  V30 13243 C 1287.39 0.203722 5.30809 0
M  V30 13244 C 1286.43 1.20622 6.00097 0
M  V30 13245 N 1285.57 0.535607 7.00054 0
M  V30 13246 H 1290.41 1.43486 2.61182 0
M  V30 13247 H 1287.95 0.718572 1.28355 0
M  V30 13248 H 1289.9 -0.51865 4.13964 0
M  V30 13249 H 1288.53 -0.952827 3.08417 0
M  V30 13250 H 1287.59 1.42637 3.52645 0
M  V30 13251 H 1288.9 1.66513 4.70186 0
M  V30 13252 H 1288.05 -0.258614 6.06149 0
M  V30 13253 H 1286.79 -0.591773 4.84096 0
M  V30 13254 H 1285.8 1.6791 5.23532 0
M  V30 13255 H 1287.02 2.00273 6.48897 0
M  V30 13256 H 1284.97 -0.2403 6.5556 0
M  V30 13257 H 1284.88 1.23698 7.45812 0
M  V30 13258 H 1286.15 0.0963489 7.7944 0
M  V30 13259 N 1290.38 -1.37203 0.775435 0
M  V30 13260 C 1291.29 -2.34019 0.165062 0
M  V30 13261 C 1292.31 -1.6036 -0.675316 0
M  V30 13262 O 1293.48 -1.9243 -0.594375 0
M  V30 13263 C 1290.55 -3.3954 -0.700957 0
M  V30 13264 C 1289.61 -4.29015 0.156304 0
M  V30 13265 C 1288.84 -5.29497 -0.668476 0
M  V30 13266 O 1289.07 -5.37636 -1.90535 0
M  V30 13267 O 1288 -6.01852 -0.0757351 0
M  V30 13268 H 1291.83 -2.87955 0.965184 0
M  V30 13269 H 1289.41 -1.39429 0.536654 0
M  V30 13270 H 1291.29 -4.04094 -1.19524 0
M  V30 13271 H 1289.97 -2.87926 -1.4792 0
M  V30 13272 H 1288.87 -3.67549 0.69703 0
M  V30 13273 H 1290.21 -4.83944 0.897725 0
M  V30 13274 N 1291.86 -0.526279 -1.48553 0
M  V30 13275 C 1293.09 0.00522012 -2.06599 0
M  V30 13276 C 1293.5 1.29039 -1.38368 0
M  V30 13277 O 1292.84 1.77747 -0.463854 0
M  V30 13278 C 1292.9 0.303512 -3.58216 0
M  V30 13279 C 1292.57 -0.887635 -4.48297 0
M  V30 13280 C 1293.56 -1.78504 -4.88295 0
M  V30 13281 C 1291.25 -1.09359 -4.90251 0
M  V30 13282 C 1293.24 -2.87233 -5.69013 0
M  V30 13283 C 1290.93 -2.18402 -5.7074 0
M  V30 13284 C 1291.93 -3.07172 -6.10028 0
M  V30 13285 O 1291.62 -4.14329 -6.88902 0
M  V30 13286 H 1291.35 -0.0287033 -0.67539 0
M  V30 13287 H 1293.9 -0.730244 -1.91981 0
M  V30 13288 H 1292.13 1.0929 -3.70935 0
M  V30 13289 H 1293.82 0.776647 -3.98401 0
M  V30 13290 H 1294.59 -1.63785 -4.56508 0
M  V30 13291 H 1290.47 -0.411922 -4.59156 0
M  V30 13292 H 1294.01 -3.56549 -5.99599 0
M  V30 13293 H 1289.91 -2.33106 -6.0194 0
M  V30 13294 H 1290.67 -4.11993 -7.07251 0
M  V30 13295 N 1293.34 1.5542 -0.261239 0
M  V30 13296 C 1294.3 2.20683 0.619011 0
M  V30 13297 C 1295.3 1.18042 1.09192 0
M  V30 13298 O 1296.49 1.43035 0.99432 0
M  V30 13299 C 1293.62 2.86179 1.85242 0
M  V30 13300 H 1294.82 2.99859 0.0493924 0
M  V30 13301 H 1292.37 1.56296 -0.0117687 0
M  V30 13302 H 1293.1 2.10978 2.4629 0
M  V30 13303 H 1292.89 3.61381 1.52138 0
M  V30 13304 H 1294.38 3.36081 2.47869 0
M  V30 13305 N 1294.82 -0.0116844 1.57596 0
M  V30 13306 C 1296.04 -0.713924 1.94725 0
M  V30 13307 C 1296.47 -1.67157 0.862565 0
M  V30 13308 O 1295.82 -1.80401 -0.180308 0
M  V30 13309 C 1295.87 -1.43214 3.30941 0
M  V30 13310 O 1294.98 -2.5461 3.24419 0
M  V30 13311 H 1294.32 -0.190772 0.636005 0
M  V30 13312 H 1296.85 0.0380247 2.04565 0
M  V30 13313 H 1296.86 -1.79819 3.66237 0
M  V30 13314 H 1295.53 -0.729906 4.09445 0
M  V30 13315 H 1294.11 -2.20419 3.00782 0
M  V30 13316 N 1296.29 -1.55015 -0.284256 0
M  V30 13317 C 1297.2 -1.90203 -1.37332 0
M  V30 13318 C 1298.22 -0.797994 -1.54622 0
M  V30 13319 O 1299.4 -1.09602 -1.68965 0
M  V30 13320 C 1296.46 -2.15687 -2.71441 0
M  V30 13321 C 1295.52 -3.39313 -2.62993 0
M  V30 13322 C 1294.75 -3.63571 -3.90707 0
M  V30 13323 O 1294.98 -2.90538 -4.9086 0
M  V30 13324 O 1293.91 -4.57102 -3.91589 0
M  V30 13325 H 1297.74 -2.82888 -1.1049 0
M  V30 13326 H 1295.32 -1.41418 -0.481798 0
M  V30 13327 H 1297.2 -2.33553 -3.50758 0
M  V30 13328 H 1295.88 -1.26185 -2.98092 0
M  V30 13329 H 1294.79 -3.26793 -1.82091 0
M  V30 13330 H 1296.12 -4.28997 -2.41293 0
M  V30 13331 N 1297.77 0.548248 -1.47757 0
M  V30 13332 C 1298.72 1.67553 -1.61335 0
M  V30 13333 C 1299.71 1.62447 -0.480335 0
M  V30 13334 O 1300.92 1.67525 -0.658445 0
M  V30 13335 H 1297.29 0.55457 -0.507894 0
M  V30 13336 H 1299.27 1.53239 -2.56047 0
M  V30 13337 C 1298.01 3.05883 -1.6532 0
M  V30 13338 H 1297.34 3.10497 -2.51856 0
M  V30 13339 H 1298.78 3.84424 -1.78868 0
M  V30 13340 C 1297.24 3.34656 -0.388238 0
M  V30 13341 O 1297.77 3.9849 0.506816 0
M  V30 13342 N 1295.97 2.89384 -0.265514 0
M  V30 13343 H 1295.52 2.37615 -0.994819 0
M  V30 13344 H 1295.48 3.09006 0.579889 0
M  V30 13345 N 1299.25 1.36039 0.795694 0
M  V30 13346 C 1300.53 1.20474 1.54096 0
M  V30 13347 C 1300.91 -0.211691 2.10036 0
M  V30 13348 O 1300.25 -1.21656 1.93422 0
M  V30 13349 C 1300.46 2.28164 2.64087 0
M  V30 13350 C 1301.81 2.64519 3.32137 0
M  V30 13351 O 1302.84 2.2716 2.74366 0
M  V30 13352 O 1301.7 3.28796 4.36527 0
M  V30 13353 H 1298.79 0.468699 0.681359 0
M  V30 13354 H 1301.34 1.47752 0.834716 0
M  V30 13355 H 1300.11 3.23121 2.20701 0
M  V30 13356 H 1299.73 2.02217 3.42336 0
M  V30 13357 N 1300.73 -1.01913 1.20215 0
M  V30 13358 C 1301.68 -2.08774 0.916367 0
M  V30 13359 C 1302.66 -1.60431 -0.122796 0
M  V30 13360 O 1303.85 -1.76799 0.0842336 0
M  V30 13361 C 1300.98 -3.40102 0.467517 0
M  V30 13362 C 1300.07 -3.95153 1.53997 0
M  V30 13363 N 1300.46 -4.23745 2.76178 0
M  V30 13364 C 1298.76 -4.23274 1.40554 0
M  V30 13365 C 1299.46 -4.681 3.45336 0
M  V30 13366 N 1298.44 -4.70224 2.72745 0
M  V30 13367 H 1302.24 -2.28786 1.84484 0
M  V30 13368 H 1299.75 -1.19861 1.09577 0
M  V30 13369 H 1301.75 -4.16184 0.244195 0
M  V30 13370 H 1300.41 -3.21505 -0.454358 0
M  V30 13371 H 1301.42 -4.12728 3.12852 0
M  V30 13372 H 1298.1 -4.1389 0.547877 0
M  V30 13373 H 1299.49 -4.99063 4.49873 0
M  V30 13374 N 1302.21 -1.00763 -1.2118 0
M  V30 13375 C 1303.62 -0.720905 -1.42391 0
M  V30 13376 C 1303.82 0.702918 -1.88842 0
M  V30 13377 O 1302.88 1.47191 -2.05161 0
M  V30 13378 C 1304.19 -1.739 -2.45315 0
M  V30 13379 C 1305.74 -1.75611 -2.59094 0
M  V30 13380 C 1306.21 -2.76323 -3.65253 0
M  V30 13381 N 1307.71 -2.75007 -3.72727 0
M  V30 13382 C 1308.44 -3.49594 -4.54502 0
M  V30 13383 N 1307.94 -4.33828 -5.40153 0
M  V30 13384 N 1309.73 -3.38232 -4.4895 0
M  V30 13385 H 1301.88 -1.92697 -0.893404 0
M  V30 13386 H 1304.14 -0.831888 -0.454606 0
M  V30 13387 H 1303.85 -2.75859 -2.18162 0
M  V30 13388 H 1303.72 -1.5438 -3.44161 0
M  V30 13389 H 1306.11 -0.743416 -2.85582 0
M  V30 13390 H 1306.19 -1.99203 -1.60474 0
M  V30 13391 H 1305.84 -3.77751 -3.39509 0
M  V30 13392 H 1305.77 -2.49996 -4.63476 0
M  V30 13393 H 1308.26 -2.13897 -3.11539 0
M  V30 13394 H 1308.57 -4.8753 -5.99612 0
M  V30 13395 H 1306.91 -4.3791 -5.39685 0
M  V30 13396 H 1310.11 -2.71855 -3.81068 0
M  V30 13397 H 1310.28 -3.96615 -5.12445 0
M  V30 13398 N 1303.68 1.3679 -0.7827 0
M  V30 13399 C 1304.96 1.93639 -0.276278 0
M  V30 13400 C 1305.34 1.7153 1.23048 0
M  V30 13401 O 1304.69 1.07037 2.01879 0
M  V30 13402 C 1304.9 3.42672 -0.661586 0
M  V30 13403 C 1306.25 4.19786 -0.637538 0
M  V30 13404 O 1307.27 3.51082 -0.601645 0
M  V30 13405 O 1306.13 5.42323 -0.674408 0
M  V30 13406 H 1303.22 0.824307 -0.0666832 0
M  V30 13407 H 1305.77 1.46012 -0.864792 0
M  V30 13408 H 1304.54 3.52393 -1.70103 0
M  V30 13409 H 1304.17 3.97573 -0.0465987 0
M  V30 13410 N 1305.16 0.53415 1.48272 0
M  V30 13411 C 1306.41 0.00157259 2.025 0
M  V30 13412 C 1306.74 -1.33886 1.41085 0
M  V30 13413 O 1305.99 -1.87884 0.547544 0
M  V30 13414 C 1306.29 -0.165144 3.57018 0
M  V30 13415 C 1305.96 1.10146 4.3724 0
M  V30 13416 C 1304.62 1.44857 4.58879 0
M  V30 13417 C 1306.97 1.94183 4.83676 0
M  V30 13418 C 1304.3 2.63497 5.24201 0
M  V30 13419 C 1306.65 3.12005 5.50305 0
M  V30 13420 C 1305.32 3.47058 5.70182 0
M  V30 13421 H 1304.59 0.00057545 0.741 0
M  V30 13422 H 1307.23 0.701014 1.78208 0
M  V30 13423 H 1305.54 -0.947384 3.80173 0
M  V30 13424 H 1307.23 -0.592202 3.96603 0
M  V30 13425 H 1303.82 0.821132 4.20661 0
M  V30 13426 H 1308.01 1.68677 4.66757 0
M  V30 13427 H 1303.26 2.90852 5.37787 0
M  V30 13428 H 1307.44 3.77426 5.85254 0
M  V30 13429 H 1305.07 4.39086 6.2057 0
M  V30 13430 N 1306.64 -1.55279 0.269478 0
M  V30 13431 C 1307.6 -2.21008 -0.607299 0
M  V30 13432 C 1308.6 -1.18619 -1.08564 0
M  V30 13433 O 1309.79 -1.4356 -0.986721 0
M  V30 13434 C 1306.93 -2.87157 -1.83721 0
M  V30 13435 H 1308.12 -2.99881 -0.0334894 0
M  V30 13436 H 1305.67 -1.56287 0.0200573 0
M  V30 13437 H 1306.41 -2.12281 -2.45168 0
M  V30 13438 H 1306.19 -3.62183 -1.5022 0
M  V30 13439 H 1307.68 -3.37391 -2.46083 0
M  V30 13440 N 1308.12 0.00332656 -1.576 0
M  V30 13441 C 1309.37 0.687508 -1.90047 0
M  V30 13442 C 1309.69 1.74497 -0.870388 0
M  V30 13443 O 1308.96 1.95681 0.0926544 0
M  V30 13444 H 1307.54 0.256924 -0.701426 0
M  V30 13445 H 1310.2 -0.0368129 -1.94865 0
M  V30 13446 H 1309.3 1.16086 -2.89707 0
M  V30 13447 N 1309.6 1.55164 0.276031 0
M  V30 13448 C 1310.51 1.90928 1.36321 0
M  V30 13449 C 1311.52 0.806183 1.54197 0
M  V30 13450 O 1312.7 1.10497 1.68382 0
M  V30 13451 C 1309.76 2.17123 2.70293 0
M  V30 13452 C 1308.82 3.40703 2.6119 0
M  V30 13453 C 1308.06 3.65638 3.88773 0
M  V30 13454 O 1308.28 2.93137 4.89313 0
M  V30 13455 O 1307.21 4.59172 3.89159 0
M  V30 13456 H 1311.04 2.8347 1.08988 0
M  V30 13457 H 1308.63 1.41672 0.474292 0
M  V30 13458 H 1310.51 2.3541 3.49514 0
M  V30 13459 H 1309.18 1.27765 2.97419 0
M  V30 13460 H 1308.09 3.27754 1.80355 0
M  V30 13461 H 1309.42 4.30271 2.39014 0
M  V30 13462 N 1311.07 -0.540404 1.48045 0
M  V30 13463 C 1312 -1.65538 1.6468 0
M  V30 13464 C 1312.99 -1.62713 0.495847 0
M  V30 13465 O 1314.17 -1.80072 0.727172 0
M  V30 13466 C 1311.3 -3.0415 1.67661 0
M  V30 13467 C 1310.25 -3.2183 2.82152 0
M  V30 13468 C 1309.58 -4.61397 2.70216 0
M  V30 13469 C 1310.88 -3.05596 4.23567 0
M  V30 13470 H 1312.57 -1.51873 2.58021 0
M  V30 13471 H 1310.12 -0.729208 1.24171 0
M  V30 13472 H 1312.07 -3.82013 1.77887 0
M  V30 13473 H 1310.8 -3.18814 0.708907 0
M  V30 13474 H 1309.46 -2.4638 2.71463 0
M  V30 13475 H 1309.1 -4.72883 1.71437 0
M  V30 13476 H 1308.8 -4.74174 3.47035 0
M  V30 13477 H 1310.33 -5.41374 2.82395 0
M  V30 13478 H 1311.74 -3.73261 4.35143 0
M  V30 13479 H 1310.14 -3.29871 5.01303 0
M  V30 13480 H 1311.21 -2.0214 4.40758 0
M  V30 13481 N 1312.55 -1.36459 -0.788468 0
M  V30 13482 C 1313.46 -1.33017 -1.93245 0
M  V30 13483 C 1314.48 -0.232212 -1.72444 0
M  V30 13484 O 1315.65 -0.464743 -1.95965 0
M  V30 13485 C 1312.72 -1.1197 -3.28121 0
M  V30 13486 C 1311.78 -2.3125 -3.61693 0
M  V30 13487 C 1311.01 -2.11197 -4.90134 0
M  V30 13488 O 1311.24 -1.08764 -5.59934 0
M  V30 13489 O 1310.17 -2.98996 -5.22384 0
M  V30 13490 H 1314 -2.29333 -1.99098 0
M  V30 13491 H 1311.58 -1.17016 -0.928856 0
M  V30 13492 H 1313.46 -1.02154 -4.08831 0
M  V30 13493 H 1312.14 -0.187171 -3.23158 0
M  V30 13494 H 1311.05 -2.46635 -2.81286 0
M  V30 13495 H 1312.38 -3.23012 -3.71381 0
M  V30 13496 N 1314.03 1.01274 -1.20754 0
M  V30 13497 C 1315.28 1.75191 -1.02156 0
M  V30 13498 C 1315.61 1.89038 0.444791 0
M  V30 13499 O 1314.88 1.41903 1.33018 0
M  V30 13500 C 1315.17 3.16892 -1.71031 0
M  V30 13501 C 1315.02 3.10816 -3.25136 0
M  V30 13502 C 1316.34 4.15648 -1.44654 0
M  V30 13503 H 1313.46 0.635922 -0.372521 0
M  V30 13504 H 1316.1 1.18119 -1.48822 0
M  V30 13505 H 1314.25 3.6562 -1.31357 0
M  V30 13506 H 1315.92 2.69863 -3.74128 0
M  V30 13507 H 1314.17 2.48113 -3.5584 0
M  V30 13508 H 1314.84 4.11001 -3.68487 0
M  V30 13509 H 1317.31 3.75592 -1.7908 0
M  V30 13510 H 1316.19 5.12954 -1.95371 0
M  V30 13511 H 1316.45 4.40507 -0.37494 0
M  V30 13512 N 1315.51 1.01404 1.20644 0
M  V30 13513 C 1316.44 0.602465 2.25594 0
M  V30 13514 C 1317.42 -0.381216 1.65773 0
M  V30 13515 O 1318.61 -0.267209 1.92353 0
M  V30 13516 C 1315.74 -0.0626245 3.47244 0
M  V30 13517 C 1314.69 0.841776 4.1964 0
M  V30 13518 C 1314.02 0.0426002 5.34683 0
M  V30 13519 C 1315.32 2.14864 4.76058 0
M  V30 13520 H 1317.01 1.47977 2.60275 0
M  V30 13521 H 1314.56 0.712966 1.25111 0
M  V30 13522 H 1316.51 -0.362095 4.19841 0
M  V30 13523 H 1315.23 -0.974627 3.11719 0
M  V30 13524 H 1313.89 1.12521 3.48905 0
M  V30 13525 H 1313.54 -0.870973 4.95402 0
M  V30 13526 H 1313.24 0.644866 5.84051 0
M  V30 13527 H 1314.76 -0.250476 6.10086 0
M  V30 13528 H 1316.18 1.9117 5.40488 0
M  V30 13529 H 1314.57 2.70153 5.35852 0
M  V30 13530 H 1315.64 2.81336 3.9494 0
M  V30 13531 N 1316.99 -1.36373 0.789944 0
M  V30 13532 C 1318.23 -2.0106 0.367995 0
M  V30 13533 C 1318.59 -1.61336 -1.0409 0
M  V30 13534 O 1319.79 -2.18618 -1.56396 0
M  V30 13535 C 1318.06 -3.53492 0.527106 0
M  V30 13536 S 1319.62 -4.38375 0.193113 0
M  V30 13537 H 1316.44 -0.696965 0.140573 0
M  V30 13538 H 1319.04 -1.66256 1.02855 0
M  V30 13539 H 1317.75 -3.7989 1.55279 0
M  V30 13540 H 1317.28 -3.93116 -0.149364 0
M  V30 13541 H 1319.29 -4.85913 -1.00513 0
M  V30 13542 N 1318.47 -0.542005 -1.47987 0
M  V30 13543 C 1319.41 0.214151 -2.29804 0
M  V30 13544 C 1320.38 0.922625 -1.38119 0
M  V30 13545 O 1321.57 0.921301 -1.67083 0
M  V30 13546 C 1318.71 1.24768 -3.21756 0
M  V30 13547 C 1317.82 0.546824 -4.28525 0
M  V30 13548 C 1316.96 1.56432 -5.07644 0
M  V30 13549 C 1315.99 0.847598 -6.06203 0
M  V30 13550 N 1315.13 1.81121 -6.78336 0
M  V30 13551 H 1319.97 -0.489707 -2.93949 0
M  V30 13552 H 1317.51 -0.253331 -1.44902 0
M  V30 13553 H 1319.47 1.85933 -3.73477 0
M  V30 13554 H 1318.1 1.91976 -2.59509 0
M  V30 13555 H 1317.15 -0.179026 -3.79978 0
M  V30 13556 H 1318.46 -0.0153623 -4.98798 0
M  V30 13557 H 1317.61 2.24992 -5.63439 0
M  V30 13558 H 1316.35 2.16041 -4.37238 0
M  V30 13559 H 1315.36 0.147989 -5.49601 0
M  V30 13560 H 1316.58 0.257454 -6.78612 0
M  V30 13561 H 1314.53 2.39615 -6.10672 0
M  V30 13562 H 1314.45 1.30077 -7.44725 0
M  V30 13563 H 1315.71 2.48842 -7.38714 0
M  V30 13564 N 1319.94 1.55134 -0.277709 0
M  V30 13565 C 1320.87 2.256 0.602232 0
M  V30 13566 C 1321.85 1.24708 1.15681 0
M  V30 13567 O 1323.04 1.53433 1.19046 0
M  V30 13568 C 1320.17 2.97907 1.78519 0
M  V30 13569 C 1319.12 4.0575 1.36203 0
M  V30 13570 C 1318.45 4.65644 2.62829 0
M  V30 13571 C 1319.75 5.19801 0.510327 0
M  V30 13572 H 1321.44 2.99396 0.0145622 0
M  V30 13573 H 1318.99 1.43999 0.00556389 0
M  V30 13574 H 1320.94 3.45915 2.40668 0
M  V30 13575 H 1319.67 2.21649 2.39873 0
M  V30 13576 H 1318.33 3.58557 0.763726 0
M  V30 13577 H 1317.97 3.86053 3.22447 0
M  V30 13578 H 1317.67 5.38463 2.35227 0
M  V30 13579 H 1319.2 5.16403 3.25823 0
M  V30 13580 H 1320.61 5.63845 1.03689 0
M  V30 13581 H 1319.01 5.99197 0.329073 0
M  V30 13582 H 1320.08 4.82614 -0.470273 0
M  V30 13583 N 1321.42 0.00503138 1.57599 0
M  V30 13584 C 1322.67 -0.67742 1.90409 0
M  V30 13585 C 1322.99 -1.74033 0.87963 0
M  V30 13586 O 1322.26 -1.95727 -0.0822757 0
M  V30 13587 H 1320.84 -0.2532 0.702779 0
M  V30 13588 H 1323.5 0.0471466 1.94843 0
M  V30 13589 H 1322.6 -1.14548 2.90319 0
M  V30 13590 N 1322.9 -1.55308 -0.267798 0
M  V30 13591 C 1323.85 -1.84933 -1.33356 0
M  V30 13592 C 1324.83 -0.708605 -1.44456 0
M  V30 13593 O 1326.03 -0.970069 -1.4805 0
M  V30 13594 C 1323.15 -2.12927 -2.69289 0
M  V30 13595 C 1322.24 -3.33273 -2.62279 0
M  V30 13596 N 1322.63 -4.53055 -2.24889 0
M  V30 13597 C 1320.93 -3.35966 -2.93331 0
M  V30 13598 C 1321.63 -5.35156 -2.27998 0
M  V30 13599 N 1320.61 -4.73692 -2.66677 0
M  V30 13600 H 1324.41 -2.75086 -1.03465 0
M  V30 13601 H 1321.92 -1.55254 -0.476435 0
M  V30 13602 H 1323.92 -2.32309 -3.46177 0
M  V30 13603 H 1322.58 -1.24061 -3.00065 0
M  V30 13604 H 1323.59 -4.79059 -1.9678 0
M  V30 13605 H 1320.27 -2.57308 -3.28784 0
M  V30 13606 H 1321.66 -6.4094 -2.01608 0
M  V30 13607 N 1324.38 0.532545 -1.4833 0
M  V30 13608 C 1325.33 1.6335 -1.59062 0
M  V30 13609 C 1326.31 1.5454 -0.447905 0
M  V30 13610 O 1327.5 1.62604 -0.699205 0
M  V30 13611 C 1324.63 3.02077 -1.63109 0
M  V30 13612 C 1323.72 3.16 -2.82851 0
M  V30 13613 N 1324.11 2.99905 -4.07297 0
M  V30 13614 C 1322.41 3.47049 -2.8013 0
M  V30 13615 C 1323.11 3.17176 -4.87621 0
M  V30 13616 N 1322.08 3.44634 -4.20391 0
M  V30 13617 H 1325.89 1.49512 -2.53028 0
M  V30 13618 H 1323.4 0.73794 -1.44666 0
M  V30 13619 H 1325.4 3.81158 -1.68891 0
M  V30 13620 H 1324.06 3.17008 -0.702574 0
M  V30 13621 H 1325.07 2.76721 -4.37774 0
M  V30 13622 H 1321.75 3.68354 -1.96524 0
M  V30 13623 H 1323.14 3.09491 -5.96376 0
M  V30 13624 N 1325.86 1.36875 0.78122 0
M  V30 13625 C 1327.27 1.28236 1.35692 0
M  V30 13626 C 1327.62 -0.0742286 1.9606 0
M  V30 13627 O 1326.74 -0.97588 1.93146 0
M  V30 13628 C 1327.34 2.32215 2.46702 0
M  V30 13629 C 1325.9 2.2724 3.00065 0
M  V30 13630 C 1325.04 2.16553 1.73206 0
M  V30 13631 H 1327.99 1.47634 0.582217 0
M  V30 13632 H 1328.02 1.96333 3.25935 0
M  V30 13633 H 1327.53 3.30938 2.02735 0
M  V30 13634 H 1325.63 1.3201 3.48431 0
M  V30 13635 H 1325.74 3.20267 3.56323 0
M  V30 13636 H 1324.11 1.62941 1.95761 0
M  V30 13637 H 1324.89 3.17176 1.31356 0
M  V30 13638 N 1327.33 -1.00632 1.21289 0
M  V30 13639 C 1328.28 -2.11502 0.96798 0
M  V30 13640 C 1329.28 -1.6919 -0.0843024 0
M  V30 13641 O 1330.48 -1.79875 0.06697 0
M  V30 13642 H 1326.86 -0.691398 0.295759 0
M  V30 13643 H 1328.83 -2.29337 1.90911 0
M  V30 13644 C 1327.58 -3.43357 0.547818 0
M  V30 13645 H 1326.9 -3.76348 1.34915 0
M  V30 13646 H 1328.34 -4.21957 0.415759 0
M  V30 13647 C 1326.8 -3.28648 -0.741086 0
M  V30 13648 O 1327.33 -3.59267 -1.79695 0
M  V30 13649 N 1325.53 -2.81866 -0.707084 0
M  V30 13650 H 1325.08 -2.57149 0.152447 0
M  V30 13651 H 1325.04 -2.72406 -1.56979 0
M  V30 13652 N 1328.81 -1.02043 -1.20104 0
M  V30 13653 C 1330.06 -0.707271 -1.88893 0
M  V30 13654 C 1330.37 0.766617 -1.79951 0
M  V30 13655 O 1331.58 1.19248 -2.4391 0
M  V30 13656 C 1330.04 -1.2147 -3.38782 0
M  V30 13657 C 1329.64 -2.71576 -3.56301 0
M  V30 13658 C 1331.39 -0.977146 -4.13101 0
M  V30 13659 C 1329.29 -3.15781 -5.00037 0
M  V30 13660 H 1328.22 -0.26086 -0.707438 0
M  V30 13661 H 1330.88 -1.23361 -1.35846 0
M  V30 13662 H 1329.26 -0.616315 -3.91175 0
M  V30 13663 H 1330.43 -3.36997 -3.14276 0
M  V30 13664 H 1328.75 -2.93517 -2.95359 0
M  V30 13665 H 1331.34 -1.28278 -5.19085 0
M  V30 13666 H 1331.69 0.0862909 -4.16211 0
M  V30 13667 H 1332.22 -1.5391 -3.6682 0
M  V30 13668 H 1328.96 -4.21417 -5.02084 0
M  V30 13669 H 1328.48 -2.55083 -5.42856 0
M  V30 13670 H 1330.16 -3.08637 -5.6864 0
M  V30 13671 N 1330.29 1.35952 -0.797165 0
M  V30 13672 C 1331.54 1.98283 -0.369685 0
M  V30 13673 C 1331.85 1.63968 1.06649 0
M  V30 13674 O 1333.06 2.19591 1.59662 0
M  V30 13675 C 1331.51 3.54692 -0.610046 0
M  V30 13676 C 1331.12 3.97925 -2.05814 0
M  V30 13677 C 1332.87 4.23778 -0.247457 0
M  V30 13678 C 1330.77 5.47142 -2.24475 0
M  V30 13679 H 1329.7 0.741909 -0.134489 0
M  V30 13680 H 1332.35 1.55146 -0.979893 0
M  V30 13681 H 1330.74 3.95938 0.0699822 0
M  V30 13682 H 1331.91 3.67857 -2.77521 0
M  V30 13683 H 1330.23 3.417 -2.37971 0
M  V30 13684 H 1332.82 5.33452 -0.365059 0
M  V30 13685 H 1333.17 4.08436 0.805315 0
M  V30 13686 H 1333.7 3.87921 -0.881028 0
M  V30 13687 H 1330.44 5.67441 -3.28163 0
M  V30 13688 H 1329.96 5.78811 -1.57282 0
M  V30 13689 H 1331.64 6.13475 -2.05567 0
M  V30 13690 N 1331.77 0.549846 1.47697 0
M  V30 13691 C 1332.72 -0.215119 2.31603 0
M  V30 13692 C 1333.71 -0.916441 1.4247 0
M  V30 13693 O 1334.92 -0.838565 1.59274 0
M  V30 13694 H 1331.29 -0.0882441 0.746805 0
M  V30 13695 H 1333.26 0.511847 2.93977 0
M  V30 13696 C 1332.01 -1.23662 3.24966 0
M  V30 13697 H 1331.33 -0.706384 3.9351 0
M  V30 13698 H 1332.77 -1.7429 3.86522 0
M  V30 13699 C 1331.23 -2.28066 2.47967 0
M  V30 13700 O 1331.76 -3.34862 2.21879 0
M  V30 13701 N 1329.97 -2.01799 2.09106 0
M  V30 13702 H 1329.52 -1.14965 2.30523 0
M  V30 13703 H 1329.47 -2.71872 1.57902 0
M  V30 13704 N 1333.25 -1.54984 0.285932 0
M  V30 13705 C 1334.18 -2.25916 -0.590259 0
M  V30 13706 C 1335.16 -1.25319 -1.15018 0
M  V30 13707 O 1336.34 -1.54062 -1.18231 0
M  V30 13708 C 1333.47 -2.98849 -1.76936 0
M  V30 13709 C 1332.43 -4.06466 -1.3405 0
M  V30 13710 C 1331.75 -4.67032 -2.60356 0
M  V30 13711 C 1333.05 -5.20064 -0.482754 0
M  V30 13712 H 1334.75 -2.994 0.00131571 0
M  V30 13713 H 1332.29 -1.44 0.00207281 0
M  V30 13714 H 1334.25 -3.47186 -2.3883 0
M  V30 13715 H 1332.97 -2.22918 -2.38694 0
M  V30 13716 H 1331.63 -3.58957 -0.7447 0
M  V30 13717 H 1331.28 -3.87757 -3.20396 0
M  V30 13718 H 1330.98 -5.39703 -2.32368 0
M  V30 13719 H 1332.5 -5.18124 -3.23079 0
M  V30 13720 H 1333.91 -5.64387 -1.00697 0
M  V30 13721 H 1332.31 -5.99363 -0.297291 0
M  V30 13722 H 1333.38 -4.82358 0.495861 0
M  V30 13723 N 1334.72 -0.0133892 -1.57594 0
M  V30 13724 C 1335.65 0.972341 -2.12292 0
M  V30 13725 C 1336.64 1.34971 -1.03522 0
M  V30 13726 O 1337.82 1.4311 -1.31275 0
M  V30 13727 C 1334.95 2.25988 -2.63717 0
M  V30 13728 C 1333.9 2.02373 -3.77133 0
M  V30 13729 C 1333.23 3.37256 -4.14925 0
M  V30 13730 C 1334.53 1.37553 -5.03861 0
M  V30 13731 H 1336.22 0.516869 -2.94905 0
M  V30 13732 H 1333.77 0.247176 -1.41863 0
M  V30 13733 H 1335.72 2.95313 -3.00613 0
M  V30 13734 H 1334.45 2.73672 -1.78244 0
M  V30 13735 H 1333.11 1.3547 -3.40651 0
M  V30 13736 H 1332.75 3.82669 -3.26456 0
M  V30 13737 H 1332.45 3.22267 -4.91343 0
M  V30 13738 H 1333.98 4.07875 -4.5439 0
M  V30 13739 H 1335.39 1.96855 -5.38443 0
M  V30 13740 H 1333.79 1.33011 -5.85174 0
M  V30 13741 H 1334.86 0.346429 -4.83661 0
M  V30 13742 N 1336.2 1.55448 0.259558 0
M  V30 13743 C 1337.45 1.76337 0.987396 0
M  V30 13744 C 1337.77 0.57505 1.86328 0
M  V30 13745 O 1337.04 -0.409621 1.9157 0
M  V30 13746 H 1335.62 0.650312 0.367565 0
M  V30 13747 H 1338.28 1.9287 0.280551 0
M  V30 13748 H 1337.38 2.66975 1.61651 0
M  V30 13749 N 1337.68 -0.524672 1.4861 0
M  V30 13750 C 1338.64 -1.61092 1.63039 0
M  V30 13751 C 1339.64 -1.52718 0.503387 0
M  V30 13752 O 1340.83 -1.56293 0.769304 0
M  V30 13753 C 1337.97 -3.00722 1.60558 0
M  V30 13754 H 1339.16 -1.49636 2.59902 0
M  V30 13755 H 1336.71 -0.747135 1.37287 0
M  V30 13756 H 1337.45 -3.1768 0.651926 0
M  V30 13757 H 1337.23 -3.0821 2.42382 0
M  V30 13758 H 1338.72 -3.79688 1.73859 0
M  V30 13759 N 1339.16 -1.37287 -0.77395 0
M  V30 13760 C 1340.4 -1.33771 -1.54547 0
M  V30 13761 C 1340.76 0.0778134 -1.91842 0
M  V30 13762 O 1341.96 0.237682 -2.67747 0
M  V30 13763 C 1340.23 -2.24859 -2.77801 0
M  V30 13764 S 1341.79 -2.39172 -3.67889 0
M  V30 13765 H 1338.61 -0.474918 -0.529126 0
M  V30 13766 H 1341.21 -1.73015 -0.910287 0
M  V30 13767 H 1339.92 -3.2663 -2.48478 0
M  V30 13768 H 1339.45 -1.86691 -3.4628 0
M  V30 13769 H 1341.46 -1.60068 -4.69673 0
M  V30 13770 N 1340.64 0.999871 -1.21821 0
M  V30 13771 C 1341.58 2.08864 -0.98206 0
M  V30 13772 C 1342.55 1.65835 0.0937677 0
M  V30 13773 O 1343.74 1.90722 -0.0544038 0
M  V30 13774 C 1340.88 3.40553 -0.558382 0
M  V30 13775 C 1339.99 3.96964 -1.70422 0
M  V30 13776 C 1339.13 5.16782 -1.2292 0
M  V30 13777 C 1338.17 5.65315 -2.34703 0
M  V30 13778 N 1337.3 6.76379 -1.88299 0
M  V30 13779 H 1342.14 2.28399 -1.9141 0
M  V30 13780 H 1339.68 1.11984 -0.953837 0
M  V30 13781 H 1341.64 4.16163 -0.293955 0
M  V30 13782 H 1340.27 3.2104 0.336656 0
M  V30 13783 H 1339.32 3.18291 -2.08315 0
M  V30 13784 H 1340.63 4.2897 -2.54531 0
M  V30 13785 H 1339.79 5.99657 -0.92174 0
M  V30 13786 H 1338.52 4.86383 -0.358222 0
M  V30 13787 H 1337.53 4.81033 -2.66246 0
M  V30 13788 H 1338.75 5.97742 -3.22306 0
M  V30 13789 H 1336.7 6.47775 -1.03552 0
M  V30 13790 H 1336.62 7.07666 -2.65978 0
M  V30 13791 H 1337.89 7.62776 -1.60601 0
M  V30 13792 N 1342.11 1.02678 1.19562 0
M  V30 13793 C 1343.06 0.599259 2.24748 0
M  V30 13794 C 1344.06 -0.367079 1.65375 0
M  V30 13795 O 1345.26 -0.235887 1.78448 0
M  V30 13796 H 1341.64 0.175517 0.73123 0
M  V30 13797 H 1343.61 1.4971 2.58127 0
M  V30 13798 C 1342.36 -0.0362515 3.47681 0
M  V30 13799 H 1341.68 0.698343 3.93654 0
M  V30 13800 H 1343.12 -0.298361 4.22949 0
M  V30 13801 C 1341.58 -1.28218 3.11547 0
M  V30 13802 O 1342.11 -2.37446 3.24009 0
M  V30 13803 N 1340.32 -1.17014 2.66 0
M  V30 13804 H 1339.86 -0.28132 2.56059 0
M  V30 13805 H 1339.82 -2.00473 2.42194 0
M  V30 13806 N 1343.59 -1.35528 0.804364 0
M  V30 13807 C 1345.01 -1.51962 0.487831 0
M  V30 13808 C 1345.21 -1.75426 -0.991353 0
M  V30 13809 O 1344.26 -1.7944 -1.77644 0
M  V30 13810 C 1345.58 -2.69626 1.33126 0
M  V30 13811 C 1347.13 -2.83502 1.32648 0
M  V30 13812 C 1347.6 -4.04188 2.15397 0
M  V30 13813 N 1349.09 -4.11362 2.12922 0
M  V30 13814 C 1349.83 -5.03856 2.73709 0
M  V30 13815 N 1349.32 -6.01696 3.43415 0
M  V30 13816 N 1351.12 -4.96585 2.63363 0
M  V30 13817 H 1343.27 -1.18553 1.76235 0
M  V30 13818 H 1345.53 -0.57986 0.749977 0
M  V30 13819 H 1345.24 -2.58857 2.38088 0
M  V30 13820 H 1345.11 -3.64168 0.982934 0
M  V30 13821 H 1347.5 -2.93723 0.284712 0
M  V30 13822 H 1347.58 -1.89824 1.71466 0
M  V30 13823 H 1347.22 -3.94728 3.19613 0
M  V30 13824 H 1347.15 -4.97044 1.7394 0
M  V30 13825 H 1349.64 -3.41319 1.62203 0
M  V30 13826 H 1349.96 -6.68866 3.8709 0
M  V30 13827 H 1348.3 -6.01877 3.47519 0
M  V30 13828 H 1351.49 -4.19103 2.08496 0
M  V30 13829 H 1351.66 -5.68478 3.11026 0
M  V30 13830 N 1345.07 -0.557671 -1.47404 0
M  V30 13831 C 1346.32 -0.0337216 -2.02072 0
M  V30 13832 C 1346.64 1.32106 -1.43433 0
M  V30 13833 O 1345.91 1.86171 -0.609692 0
M  V30 13834 H 1344.49 -0.00947648 -0.74694 0
M  V30 13835 H 1347.15 -0.727784 -1.80802 0
M  V30 13836 H 1346.25 0.0540331 -3.12053 0
M  V30 13837 N 1346.55 1.54831 -0.294147 0
M  V30 13838 C 1347.78 2.04115 0.319474 0
M  V30 13839 C 1348.19 1.17125 1.48588 0
M  V30 13840 O 1347.53 0.188034 1.82735 0
M  V30 13841 C 1347.59 3.49429 0.84496 0
M  V30 13842 C 1347.26 4.56583 -0.195275 0
M  V30 13843 C 1348.25 5.09768 -1.02138 0
M  V30 13844 C 1345.94 5.01182 -0.335 0
M  V30 13845 C 1347.93 6.06088 -1.97321 0
M  V30 13846 C 1345.62 5.97323 -1.29029 0
M  V30 13847 C 1346.62 6.49659 -2.10788 0
M  V30 13848 O 1346.31 7.43918 -3.04698 0
M  V30 13849 H 1346.04 0.671895 0.074383 0
M  V30 13850 H 1348.59 2.00856 -0.429669 0
M  V30 13851 H 1346.82 3.4999 1.64451 0
M  V30 13852 H 1348.51 3.81947 1.37372 0
M  V30 13853 H 1349.28 4.76112 -0.924264 0
M  V30 13854 H 1345.16 4.60078 0.291422 0
M  V30 13855 H 1348.7 6.46863 -2.61177 0
M  V30 13856 H 1344.6 6.30397 -1.38815 0
M  V30 13857 H 1345.36 7.61698 -2.99598 0
M  V30 13858 N 1348.03 0.0217466 1.57585 0
M  V30 13859 C 1348.96 -0.961069 2.12804 0
M  V30 13860 C 1349.94 -1.3442 1.04237 0
M  V30 13861 O 1351.12 -1.42412 1.32032 0
M  V30 13862 C 1348.25 -2.24586 2.64912 0
M  V30 13863 C 1347.21 -2.0037 3.78201 0
M  V30 13864 C 1346.53 -3.35051 4.16708 0
M  V30 13865 C 1347.83 -1.34879 5.04584 0
M  V30 13866 H 1349.53 -0.501222 2.95175 0
M  V30 13867 H 1347.07 -0.239649 1.41992 0
M  V30 13868 H 1349.03 -2.93715 3.02175 0
M  V30 13869 H 1347.75 -2.72723 1.79693 0
M  V30 13870 H 1346.41 -1.33662 3.41365 0
M  V30 13871 H 1346.06 -3.80932 3.28481 0
M  V30 13872 H 1345.76 -3.19656 4.93045 0
M  V30 13873 H 1347.28 -4.05459 4.56547 0
M  V30 13874 H 1348.7 -1.93997 5.3948 0
M  V30 13875 H 1347.09 -1.29906 5.85871 0
M  V30 13876 H 1348.16 -0.320774 4.83838 0
M  V30 13877 N 1349.51 -1.55583 -0.251311 0
M  V30 13878 C 1350.74 -1.80996 -0.99619 0
M  V30 13879 C 1351.14 -0.594534 -1.79616 0
M  V30 13880 O 1350.49 0.446197 -1.78199 0
M  V30 13881 C 1350.55 -2.99691 -1.98559 0
M  V30 13882 C 1350.21 -4.35888 -1.37297 0
M  V30 13883 C 1351.21 -5.14051 -0.777672 0
M  V30 13884 C 1348.89 -4.82579 -1.39366 0
M  V30 13885 C 1350.89 -6.3705 -0.211225 0
M  V30 13886 C 1348.58 -6.05528 -0.823357 0
M  V30 13887 C 1349.57 -6.82602 -0.233163 0
M  V30 13888 O 1349.26 -8.03229 0.328345 0
M  V30 13889 H 1348.99 -0.606287 -0.298985 0
M  V30 13890 H 1351.55 -2.03471 -0.280813 0
M  V30 13891 H 1349.78 -2.7296 -2.73915 0
M  V30 13892 H 1351.47 -3.12235 -2.59354 0
M  V30 13893 H 1352.23 -4.791 -0.754228 0
M  V30 13894 H 1348.11 -4.22582 -1.84243 0
M  V30 13895 H 1351.66 -6.97152 0.250073 0
M  V30 13896 H 1347.55 -6.39957 -0.844114 0
M  V30 13897 H 1348.32 -8.18205 0.219785 0
M  V30 13898 N 1350.98 0.516783 -1.48886 0
M  V30 13899 C 1352.23 1.26841 -1.56825 0
M  V30 13900 C 1352.55 1.93957 -0.252998 0
M  V30 13901 O 1353.75 2.70681 -0.210765 0
M  V30 13902 C 1352.21 2.30223 -2.76633 0
M  V30 13903 C 1351.82 1.69117 -4.14853 0
M  V30 13904 C 1353.56 3.06313 -2.93893 0
M  V30 13905 C 1351.47 2.70516 -5.25904 0
M  V30 13906 H 1350.4 0.477087 -0.58387 0
M  V30 13907 H 1353.05 0.544187 -1.75245 0
M  V30 13908 H 1351.43 3.05739 -2.51674 0
M  V30 13909 H 1352.6 0.997003 -4.49885 0
M  V30 13910 H 1350.92 1.05473 -4.0282 0
M  V30 13911 H 1353.52 3.8211 -3.74027 0
M  V30 13912 H 1353.86 3.62976 -2.03848 0
M  V30 13913 H 1354.39 2.37911 -3.18815 0
M  V30 13914 H 1351.13 2.18655 -6.17956 0
M  V30 13915 H 1350.65 3.38221 -4.95345 0
M  V30 13916 H 1352.33 3.3325 -5.54575 0
M  V30 13917 N 1352.46 1.37696 0.766659 0
M  V30 13918 C 1353.42 1.33688 1.86172 0
M  V30 13919 C 1354.42 0.239922 1.59 0
M  V30 13920 O 1355.61 0.496066 1.66988 0
M  V30 13921 C 1352.75 1.07807 3.23405 0
M  V30 13922 H 1353.94 2.311 1.91136 0
M  V30 13923 H 1351.49 1.22799 0.966961 0
M  V30 13924 H 1352.23 0.109477 3.24115 0
M  V30 13925 H 1352.01 1.87213 3.4452 0
M  V30 13926 H 1353.5 1.07665 4.03482 0
M  V30 13927 N 1353.94 -0.993397 1.22349 0
M  V30 13928 C 1355.19 -1.72707 1.04189 0
M  V30 13929 C 1355.5 -1.90963 -0.423381 0
M  V30 13930 O 1356.71 -2.61651 -0.724645 0
M  V30 13931 C 1355.16 -3.10739 1.81575 0
M  V30 13932 C 1354.77 -3.00415 3.32347 0
M  V30 13933 C 1356.52 -3.88155 1.71861 0
M  V30 13934 C 1354.42 -4.33598 4.02177 0
M  V30 13935 H 1353.35 -0.647556 0.386248 0
M  V30 13936 H 1356 -1.10902 1.46195 0
M  V30 13937 H 1354.39 -3.73222 1.32367 0
M  V30 13938 H 1355.56 -2.47099 3.88946 0
M  V30 13939 H 1353.87 -2.36482 3.42732 0
M  V30 13940 H 1356.47 -4.8673 2.21354 0
M  V30 13941 H 1356.81 -4.10726 0.678939 0
M  V30 13942 H 1357.35 -3.32347 2.18609 0
M  V30 13943 H 1354.09 -4.16226 5.06395 0
M  V30 13944 H 1353.61 -4.86829 3.50367 0
M  V30 13945 H 1355.29 -5.02348 4.07744 0
M  V30 13946 N 1355.42 -1.03311 -1.19015 0
M  V30 13947 C 1356.33 -0.627735 -2.26046 0
M  V30 13948 C 1357.34 0.342483 -1.70596 0
M  V30 13949 O 1358.52 0.199307 -2.00411 0
M  V30 13950 C 1355.58 0.0108274 -3.46698 0
M  V30 13951 C 1354.65 -1.00743 -4.17312 0
M  V30 13952 C 1353.88 -0.399245 -5.32205 0
M  V30 13953 O 1354.1 0.796649 -5.64809 0
M  V30 13954 O 1353.04 -1.12419 -5.91308 0
M  V30 13955 H 1356.86 -1.51923 -2.6297 0
M  V30 13956 H 1354.45 -0.803538 -1.25951 0
M  V30 13957 H 1356.33 0.366672 -4.19802 0
M  V30 13958 H 1355 0.876265 -3.11614 0
M  V30 13959 H 1353.91 -1.41494 -3.4631 0
M  V30 13960 H 1355.24 -1.84338 -4.56377 0
M  V30 13961 N 1356.9 1.35099 -0.81154 0
M  V30 13962 C 1358.13 2.02566 -0.406265 0
M  V30 13963 C 1358.53 1.61291 0.989032 0
M  V30 13964 O 1357.88 0.808496 1.64952 0
M  V30 13965 C 1357.94 3.57087 -0.415847 0
M  V30 13966 C 1357.6 4.21645 -1.76251 0
M  V30 13967 C 1358.6 4.42974 -2.72159 0
M  V30 13968 C 1356.28 4.58658 -2.04787 0
M  V30 13969 C 1358.28 5.00425 -3.94783 0
M  V30 13970 C 1355.97 5.15822 -3.27674 0
M  V30 13971 C 1356.96 5.36648 -4.2249 0
M  V30 13972 O 1356.65 5.92606 -5.43207 0
M  V30 13973 H 1356.38 0.65615 -0.162612 0
M  V30 13974 H 1358.94 1.73596 -1.09789 0
M  V30 13975 H 1357.17 3.85269 0.332409 0
M  V30 13976 H 1358.86 4.05887 -0.0322011 0
M  V30 13977 H 1359.62 4.14753 -2.51405 0
M  V30 13978 H 1355.5 4.41759 -1.31795 0
M  V30 13979 H 1359.05 5.16596 -4.68801 0
M  V30 13980 H 1354.94 5.4347 -3.48296 0
M  V30 13981 H 1355.71 6.11052 -5.44571 0
M  V30 13982 N 1358.37 0.56548 1.47106 0
M  V30 13983 C 1359.34 -0.167191 2.28589 0
M  V30 13984 C 1360.34 -0.835005 1.3742 0
M  V30 13985 O 1361.53 -0.689598 1.59969 0
M  V30 13986 C 1358.66 -1.24548 3.17333 0
M  V30 13987 H 1359.85 0.548677 2.94838 0
M  V30 13988 H 1357.4 0.322749 1.52931 0
M  V30 13989 H 1358.14 -1.99348 2.55794 0
M  V30 13990 H 1357.92 -0.771335 3.84438 0
M  V30 13991 H 1359.41 -1.75985 3.78707 0
M  V30 13992 N 1359.85 -1.54672 0.302354 0
M  V30 13993 C 1361.26 -1.85731 -0.190019 0
M  V30 13994 C 1361.61 -1.22427 -1.53317 0
M  V30 13995 O 1360.74 -0.522461 -2.09998 0
M  V30 13996 C 1361.33 -3.36971 -0.351562 0
M  V30 13997 C 1359.89 -3.68056 -0.788155 0
M  V30 13998 C 1359.04 -2.7711 0.102705 0
M  V30 13999 H 1361.99 -1.49823 0.523324 0
M  V30 14000 H 1362.01 -3.61547 -1.18592 0
M  V30 14001 H 1361.52 -3.83016 0.626152 0
M  V30 14002 H 1359.63 -3.2753 -1.77637 0
M  V30 14003 H 1359.74 -4.75244 -0.606604 0
M  V30 14004 H 1358.1 -2.51243 -0.418235 0
M  V30 14005 H 1358.89 -3.25975 1.0768 0
M  V30 14006 N 1361.33 -0.0301034 -1.57571 0
M  V30 14007 C 1362.56 0.657533 -1.95857 0
M  V30 14008 C 1362.97 1.66138 -0.905244 0
M  V30 14009 O 1362.31 1.83299 0.12134 0
M  V30 14010 C 1362.37 1.41946 -3.3029 0
M  V30 14011 C 1362.04 0.573834 -4.53383 0
M  V30 14012 C 1363.03 -0.151282 -5.1968 0
M  V30 14013 C 1360.72 0.510947 -4.99695 0
M  V30 14014 C 1362.71 -0.927947 -6.30609 0
M  V30 14015 C 1360.4 -0.269422 -6.10506 0
M  V30 14016 C 1361.4 -0.987575 -6.75822 0
M  V30 14017 O 1361.09 -1.75515 -7.84506 0
M  V30 14018 H 1360.82 0.1861 -0.649879 0
M  V30 14019 H 1363.37 -0.0864526 -2.05218 0
M  V30 14020 H 1361.6 2.20861 -3.17423 0
M  V30 14021 H 1363.29 1.9953 -3.53472 0
M  V30 14022 H 1364.06 -0.112036 -4.84871 0
M  V30 14023 H 1359.94 1.05949 -4.4866 0
M  V30 14024 H 1363.48 -1.48901 -6.81524 0
M  V30 14025 H 1359.38 -0.310381 -6.44753 0
M  V30 14026 H 1360.15 -1.67503 -8.01177 0
M  V30 14027 N 1362.81 1.55714 0.243056 0
M  V30 14028 C 1364.06 1.77375 0.968638 0
M  V30 14029 C 1364.38 0.594781 1.85708 0
M  V30 14030 O 1363.65 -0.38928 1.91993 0
M  V30 14031 H 1362.23 0.654174 0.360646 0
M  V30 14032 H 1364.89 1.93157 0.260079 0
M  V30 14033 H 1363.99 2.68674 1.5881 0
M  V30 14034 N 1364.29 -0.50888 1.49158 0
M  V30 14035 C 1365.23 -1.63216 1.6572 0
M  V30 14036 C 1366.23 -1.61117 0.523236 0
M  V30 14037 O 1367.43 -1.6572 0.702629 0
M  V30 14038 H 1363.81 -0.540909 0.522419 0
M  V30 14039 H 1365.78 -1.46397 2.6002 0
M  V30 14040 C 1364.53 -3.01393 1.73372 0
M  V30 14041 H 1363.85 -3.03711 2.6 0
M  V30 14042 H 1365.29 -3.79547 1.88998 0
M  V30 14043 C 1363.75 -3.33509 0.47683 0
M  V30 14044 O 1364.28 -3.99694 -0.400986 0
M  V30 14045 N 1362.49 -2.88579 0.342145 0
M  V30 14046 H 1362.03 -2.34894 1.05747 0
M  V30 14047 H 1361.99 -3.10435 -0.497757 0
M  V30 14048 N 1365.76 -1.381 -0.759346 0
M  V30 14049 C 1366.69 -1.37578 -1.88665 0
M  V30 14050 C 1367.68 -0.242529 -1.68362 0
M  V30 14051 O 1368.86 -0.444751 -1.89039 0
M  V30 14052 C 1365.99 -1.19437 -3.26117 0
M  V30 14053 C 1364.94 -2.29905 -3.61009 0
M  V30 14054 C 1364.27 -1.96874 -4.97136 0
M  V30 14055 C 1365.57 -3.72143 -3.66479 0
M  V30 14056 H 1367.26 -2.31912 -1.89359 0
M  V30 14057 H 1364.81 -1.11632 -0.909631 0
M  V30 14058 H 1366.76 -1.17698 -4.0463 0
M  V30 14059 H 1365.49 -0.21562 -3.25887 0
M  V30 14060 H 1364.15 -2.3082 -2.84812 0
M  V30 14061 H 1363.79 -0.974979 -4.9346 0
M  V30 14062 H 1363.49 -2.70855 -5.21451 0
M  V30 14063 H 1365.02 -1.96744 -5.78035 0
M  V30 14064 H 1366.43 -3.73291 -4.35117 0
M  V30 14065 H 1364.83 -4.45282 -4.02299 0
M  V30 14066 H 1365.9 -4.04874 -2.66843 0
M  V30 14067 N 1367.24 0.986894 -1.22875 0
M  V30 14068 C 1368.17 2.09628 -1.0285 0
M  V30 14069 C 1369.15 1.70019 0.0525118 0
M  V30 14070 O 1370.34 1.93883 -0.110874 0
M  V30 14071 C 1367.47 3.41866 -0.61194 0
M  V30 14072 C 1366.42 3.95351 -1.63956 0
M  V30 14073 C 1365.75 5.23707 -1.07865 0
M  V30 14074 C 1367.05 4.25354 -3.03102 0
M  V30 14075 H 1368.74 2.26639 -1.95641 0
M  V30 14076 H 1366.29 1.0891 -0.942048 0
M  V30 14077 H 1368.24 4.18893 -0.458936 0
M  V30 14078 H 1366.97 3.24701 0.35164 0
M  V30 14079 H 1365.62 3.20462 -1.78045 0
M  V30 14080 H 1365.27 5.02888 -0.106246 0
M  V30 14081 H 1364.97 5.60459 -1.76522 0
M  V30 14082 H 1366.5 6.03362 -0.937359 0
M  V30 14083 H 1367.91 4.93156 -2.92353 0
M  V30 14084 H 1366.31 4.73292 -3.68938 0
M  V30 14085 H 1367.38 3.32887 -3.52583 0
M  V30 14086 N 1368.72 1.0394 1.18466 0
M  V30 14087 C 1370 0.65632 1.8426 0
M  V30 14088 C 1370.38 -0.864288 1.92596 0
M  V30 14089 O 1369.73 -1.76524 1.45092 0
M  V30 14090 C 1369.94 1.33067 3.22636 0
M  V30 14091 C 1371.28 1.46065 3.98686 0
M  V30 14092 O 1372.31 1.28867 3.32072 0
M  V30 14093 O 1371.17 1.74078 5.18034 0
M  V30 14094 H 1368.26 0.229484 0.794523 0
M  V30 14095 H 1370.81 1.13821 1.25868 0
M  V30 14096 H 1369.58 2.36866 3.11465 0
M  V30 14097 H 1369.2 0.837313 3.88683 0
M  V30 14098 N 1370.2 -1.34667 0.818693 0
M  V30 14099 C 1371.45 -1.98414 0.404759 0
M  V30 14100 C 1371.77 -1.64919 -1.03112 0
M  V30 14101 O 1371.03 -0.910695 -1.73219 0
M  V30 14102 C 1371.33 -3.53157 0.549059 0
M  V30 14103 C 1370.99 -4.06552 1.95003 0
M  V30 14104 C 1369.66 -4.20846 2.33329 0
M  V30 14105 C 1372.01 -4.35324 2.86604 0
M  V30 14106 C 1369.34 -4.61236 3.62599 0
M  V30 14107 C 1371.69 -4.77159 4.15334 0
M  V30 14108 C 1370.35 -4.89658 4.53642 0
M  V30 14109 H 1369.62 -0.726047 0.148112 0
M  V30 14110 H 1372.27 -1.60681 1.04182 0
M  V30 14111 H 1370.57 -3.91425 -0.17141 0
M  V30 14112 H 1372.27 -4.00453 0.209374 0
M  V30 14113 H 1368.86 -3.95887 1.64231 0
M  V30 14114 H 1373.04 -4.23823 2.58239 0
M  V30 14115 H 1368.3 -4.69104 3.92112 0
M  V30 14116 H 1372.47 -4.98381 4.86404 0
M  V30 14117 H 1370.1 -5.20713 5.53861 0
M  V30 14118 N 1371.68 -0.573274 -1.46804 0
M  V30 14119 C 1372.61 0.153316 -2.32996 0
M  V30 14120 C 1373.59 0.893013 -1.44773 0
M  V30 14121 O 1374.77 0.870329 -1.73606 0
M  V30 14122 C 1371.9 1.1736 -3.2687 0
M  V30 14123 C 1370.86 0.549347 -4.2446 0
M  V30 14124 C 1370.18 1.67542 -5.07773 0
M  V30 14125 C 1371.48 -0.50736 -5.1983 0
M  V30 14126 H 1373.18 -0.566305 -2.93995 0
M  V30 14127 H 1370.72 -0.273785 -1.41373 0
M  V30 14128 H 1372.68 1.6902 -3.86019 0
M  V30 14129 H 1371.4 1.92337 -2.63958 0
M  V30 14130 H 1370.06 0.0539142 -3.6656 0
M  V30 14131 H 1369.71 2.41463 -4.41253 0
M  V30 14132 H 1369.41 1.26343 -5.73856 0
M  V30 14133 H 1370.93 2.19496 -5.69784 0
M  V30 14134 H 1372.34 -0.0762061 -5.73249 0
M  V30 14135 H 1370.74 -0.839139 -5.94204 0
M  V30 14136 H 1371.81 -1.39723 -4.64333 0
M  V30 14137 N 1373.15 1.5451 -0.310553 0
M  V30 14138 C 1374.57 1.59543 0.0425296 0
M  V30 14139 C 1374.77 1.32737 1.51602 0
M  V30 14140 O 1373.83 1.10543 2.27016 0
M  V30 14141 C 1375.14 2.98489 -0.364002 0
M  V30 14142 C 1376.69 3.11425 -0.313566 0
M  V30 14143 C 1377.16 4.52695 -0.695064 0
M  V30 14144 N 1378.65 4.58645 -0.647966 0
M  V30 14145 C 1379.39 5.66044 -0.915508 0
M  V30 14146 N 1378.88 6.81439 -1.24951 0
M  V30 14147 N 1380.68 5.55759 -0.841933 0
M  V30 14148 H 1372.83 1.70194 -1.27074 0
M  V30 14149 H 1375.09 0.795374 -0.515833 0
M  V30 14150 H 1374.8 3.23061 -1.39012 0
M  V30 14151 H 1374.67 3.76177 0.27756 0
M  V30 14152 H 1377.06 2.86596 0.703326 0
M  V30 14153 H 1377.14 2.35871 -0.989883 0
M  V30 14154 H 1376.78 4.78255 -1.70981 0
M  V30 14155 H 1376.71 5.266 0.00342684 0
M  V30 14156 H 1379.2 3.75765 -0.401137 0
M  V30 14157 H 1379.52 7.59277 -1.43938 0
M  V30 14158 H 1377.86 6.82968 -1.28764 0
M  V30 14159 H 1381.05 4.64486 -0.58058 0
M  V30 14160 H 1381.23 6.39374 -1.0538 0
M  V30 14161 N 1374.63 0.0384594 1.57553 0
M  V30 14162 C 1375.58 -0.940256 2.10779 0
M  V30 14163 C 1376.55 -1.31705 1.01208 0
M  V30 14164 O 1377.74 -1.40874 1.28683 0
M  V30 14165 C 1374.88 -2.21419 2.64703 0
M  V30 14166 C 1373.99 -1.89302 3.88315 0
M  V30 14167 C 1373.12 -3.1106 4.30599 0
M  V30 14168 C 1372.16 -2.74805 5.46945 0
M  V30 14169 N 1371.3 -3.89217 5.84341 0
M  V30 14170 H 1376.14 -0.479458 2.94118 0
M  V30 14171 H 1373.68 -0.22505 1.45368 0
M  V30 14172 H 1375.63 -2.95946 2.94061 0
M  V30 14173 H 1374.26 -2.65099 1.84181 0
M  V30 14174 H 1373.32 -1.04977 3.65628 0
M  V30 14175 H 1374.63 -1.58607 4.72912 0
M  V30 14176 H 1373.78 -3.93898 4.61442 0
M  V30 14177 H 1372.52 -3.44924 3.44788 0
M  V30 14178 H 1371.53 -1.9038 5.15786 0
M  V30 14179 H 1372.75 -2.42147 6.34462 0
M  V30 14180 H 1370.7 -4.22905 5.01485 0
M  V30 14181 H 1370.61 -3.62177 6.63599 0
M  V30 14182 H 1371.88 -4.72732 6.19794 0
M  V30 14183 N 1376.11 -1.55841 -0.234795 0
M  V30 14184 C 1377.34 -1.82649 -0.982547 0
M  V30 14185 C 1377.76 -0.617097 -1.77689 0
M  V30 14186 O 1377.12 0.434022 -1.76028 0
M  V30 14187 C 1377.17 -3.07319 -1.88646 0
M  V30 14188 O 1376.27 -2.85084 -2.97995 0
M  V30 14189 H 1375.61 -0.60257 -0.278936 0
M  V30 14190 H 1378.14 -2.03041 -0.252117 0
M  V30 14191 H 1378.15 -3.37073 -2.29882 0
M  V30 14192 H 1376.83 -3.94978 -1.30251 0
M  V30 14193 H 1375.4 -2.66528 -2.60801 0
M  V30 14194 N 1377.59 0.500963 -1.49426 0
M  V30 14195 C 1379.01 0.832142 -1.36189 0
M  V30 14196 C 1379.21 1.9759 -0.395014 0
M  V30 14197 O 1378.26 2.51905 0.173294 0
M  V30 14198 C 1379.57 1.17232 -2.76907 0
M  V30 14199 C 1381.12 1.28052 -2.85607 0
M  V30 14200 C 1381.6 1.65399 -4.27092 0
M  V30 14201 N 1383.09 1.72448 -4.29902 0
M  V30 14202 C 1383.82 2.02789 -5.36343 0
M  V30 14203 N 1383.32 2.31354 -6.53029 0
M  V30 14204 N 1385.11 2.0404 -5.23759 0
M  V30 14205 H 1377.26 -0.253253 -2.10885 0
M  V30 14206 H 1379.53 -0.0507111 -0.946643 0
M  V30 14207 H 1379.23 0.405247 -3.49357 0
M  V30 14208 H 1379.11 2.11574 -3.12276 0
M  V30 14209 H 1381.49 2.03831 -2.13394 0
M  V30 14210 H 1381.57 0.317603 -2.53821 0
M  V30 14211 H 1381.22 0.901704 -4.99832 0
M  V30 14212 H 1381.15 2.6279 -4.56343 0
M  V30 14213 H 1383.64 1.52532 -3.45749 0
M  V30 14214 H 1383.95 2.53695 -7.29972 0
M  V30 14215 H 1382.3 2.28811 -6.56255 0
M  V30 14216 H 1385.49 1.812 -4.31606 0
M  V30 14217 H 1385.66 2.27353 -6.06807 0
M  V30 14218 N 1379.07 1.38501 0.752011 0
M  V30 14219 C 1380.31 1.34995 1.51341 0
M  V30 14220 C 1380.65 -0.0594724 1.94109 0
M  V30 14221 O 1379.92 -1.02098 1.65548 0
M  V30 14222 C 1380.2 2.30705 2.76491 0
M  V30 14223 C 1380.06 3.80515 2.39851 0
M  V30 14224 C 1381.38 2.24521 3.78521 0
M  V30 14225 H 1378.5 0.491687 0.549011 0
M  V30 14226 H 1381.14 1.69361 0.861205 0
M  V30 14227 H 1379.29 2.01529 3.32142 0
M  V30 14228 H 1380.96 4.20371 1.89962 0
M  V30 14229 H 1379.2 3.98119 1.7229 0
M  V30 14230 H 1379.87 4.42946 3.29397 0
M  V30 14231 H 1382.35 2.50282 3.32413 0
M  V30 14232 H 1381.23 2.93598 4.63779 0
M  V30 14233 H 1381.49 1.24457 4.2422 0
M  V30 14234 N 1380.55 -0.980364 1.23396 0
M  V30 14235 C 1381.48 -2.0908 1.0396 0
M  V30 14236 C 1382.46 -1.70044 -0.0434946 0
M  V30 14237 O 1383.64 -1.93822 0.121155 0
M  V30 14238 C 1380.77 -3.41537 0.630061 0
M  V30 14239 C 1379.73 -3.94476 1.66051 0
M  V30 14240 C 1379.05 -5.23128 1.10641 0
M  V30 14241 C 1380.35 -4.23741 3.05354 0
M  V30 14242 H 1382.05 -2.25598 1.9684 0
M  V30 14243 H 1379.59 -1.08409 0.94781 0
M  V30 14244 H 1381.54 -4.18644 0.481145 0
M  V30 14245 H 1380.27 -3.24883 -0.334416 0
M  V30 14246 H 1378.93 -3.19513 1.79742 0
M  V30 14247 H 1378.58 -5.02824 0.132913 0
M  V30 14248 H 1378.28 -5.59515 1.79492 0
M  V30 14249 H 1379.8 -6.02857 0.969344 0
M  V30 14250 H 1381.21 -4.91598 2.94964 0
M  V30 14251 H 1379.61 -4.71329 3.71442 0
M  V30 14252 H 1380.68 -3.31012 3.54343 0
M  V30 14253 N 1382.02 -1.04567 -1.17913 0
M  V30 14254 C 1382.93 -0.651674 -2.25367 0
M  V30 14255 C 1383.95 0.32437 -1.7095 0
M  V30 14256 O 1385.13 0.178039 -2.00612 0
M  V30 14257 C 1382.19 -0.0259452 -3.4669 0
M  V30 14258 C 1381.25 -1.05163 -4.1622 0
M  V30 14259 C 1380.48 -0.45567 -5.31751 0
M  V30 14260 O 1380.71 0.736698 -5.65623 0
M  V30 14261 O 1379.64 -1.18684 -5.90083 0
M  V30 14262 H 1383.47 -1.54704 -2.61344 0
M  V30 14263 H 1381.05 -0.816852 -1.25092 0
M  V30 14264 H 1382.93 0.322126 -4.20167 0
M  V30 14265 H 1381.61 0.843165 -3.12526 0
M  V30 14266 H 1380.52 -1.45159 -3.44789 0
M  V30 14267 H 1381.85 -1.89168 -4.54397 0
M  V30 14268 N 1383.5 1.34231 -0.825823 0
M  V30 14269 C 1384.73 2.02417 -0.428348 0
M  V30 14270 C 1385.14 1.62181 0.966573 0
M  V30 14271 O 1384.5 0.828691 1.62601 0
M  V30 14272 C 1384.55 3.57678 -0.524271 0
M  V30 14273 O 1384.27 3.96458 -1.86422 0
M  V30 14274 C 1385.77 4.43132 -0.122069 0
M  V30 14275 H 1382.99 0.648699 -0.171554 0
M  V30 14276 H 1385.54 1.71443 -1.11478 0
M  V30 14277 H 1383.69 3.87232 0.114112 0
M  V30 14278 H 1384.11 4.91147 -1.84051 0
M  V30 14279 H 1385.58 5.51477 -0.240264 0
M  V30 14280 H 1386.06 4.29139 0.934705 0
M  V30 14281 H 1386.66 4.18912 -0.734366 0
M  V30 14282 N 1384.98 0.581051 1.46498 0
M  V30 14283 C 1386.26 -0.000789846 1.956 0
M  V30 14284 C 1386.64 -1.46104 1.52371 0
M  V30 14285 O 1385.98 -2.15005 0.773623 0
M  V30 14286 C 1386.19 0.169534 3.48588 0
M  V30 14287 C 1387.54 0.036499 4.24584 0
M  V30 14288 O 1388.57 0.0982852 3.56064 0
M  V30 14289 O 1387.43 -0.100571 5.46407 0
M  V30 14290 H 1384.52 -0.050749 0.825441 0
M  V30 14291 H 1387.07 0.649252 1.56789 0
M  V30 14292 H 1385.84 1.18473 3.72934 0
M  V30 14293 H 1385.46 -0.517017 3.94224 0
M  V30 14294 N 1386.46 -1.54343 0.318742 0
M  V30 14295 C 1387.87 -1.85922 -0.170309 0
M  V30 14296 C 1388.22 -1.24047 -1.52009 0
M  V30 14297 O 1387.34 -0.544705 -2.09432 0
M  V30 14298 C 1387.94 -3.37325 -0.315802 0
M  V30 14299 C 1386.5 -3.68871 -0.749073 0
M  V30 14300 C 1385.65 -2.76985 0.13209 0
M  V30 14301 H 1388.6 -1.4926 0.539185 0
M  V30 14302 H 1388.62 -3.62784 -1.14751 0
M  V30 14303 H 1388.13 -3.8233 0.66674 0
M  V30 14304 H 1386.23 -3.29396 -1.74153 0
M  V30 14305 H 1386.34 -4.75861 -0.556164 0
M  V30 14306 H 1384.71 -2.51672 -0.391564 0
M  V30 14307 H 1385.49 -3.24815 1.11131 0
M  V30 14308 N 1387.94 -0.0468143 -1.5753 0
M  V30 14309 C 1388.9 0.914225 -2.10177 0
M  V30 14310 C 1389.9 1.24271 -1.02045 0
M  V30 14311 O 1391.09 1.18012 -1.28136 0
M  V30 14312 C 1388.22 2.22544 -2.58238 0
M  V30 14313 H 1389.41 0.457922 -2.96383 0
M  V30 14314 H 1386.97 0.20152 -1.54995 0
M  V30 14315 H 1387.7 2.72765 -1.75413 0
M  V30 14316 H 1387.49 2.00007 -3.37253 0
M  V30 14317 H 1388.98 2.91392 -2.99133 0
M  V30 14318 N 1389.41 1.55964 0.226527 0
M  V30 14319 C 1390.66 1.78745 0.95165 0
M  V30 14320 C 1390.99 0.614714 1.84531 0
M  V30 14321 O 1390.24 -0.401137 1.91545 0
M  V30 14322 C 1390.54 3.07235 1.82597 0
M  V30 14323 C 1390.21 4.37627 1.08596 0
M  V30 14324 C 1388.87 4.73057 0.881531 0
M  V30 14325 C 1391.22 5.1815 0.563019 0
M  V30 14326 C 1388.55 5.86528 0.142172 0
M  V30 14327 C 1390.9 6.3239 -0.162972 0
M  V30 14328 C 1389.57 6.66425 -0.378704 0
M  V30 14329 H 1388.84 0.654075 0.348233 0
M  V30 14330 H 1391.48 1.9023 0.220187 0
M  V30 14331 H 1389.79 2.9085 2.62514 0
M  V30 14332 H 1391.49 3.22063 2.38907 0
M  V30 14333 H 1388.08 4.09806 1.25527 0
M  V30 14334 H 1392.26 4.91218 0.708446 0
M  V30 14335 H 1387.52 6.1139 -0.0352481 0
M  V30 14336 H 1391.69 6.94016 -0.575719 0
M  V30 14337 H 1389.32 7.54196 -0.953549 0
M  V30 14338 N 1390.89 -0.493031 1.4969 0
M  V30 14339 C 1391.86 -1.57598 1.6642 0
M  V30 14340 C 1392.86 -1.51615 0.535668 0
M  V30 14341 O 1394.05 -1.54626 0.802283 0
M  V30 14342 C 1391.18 -2.97249 1.66901 0
M  V30 14343 H 1392.37 -1.4409 2.63017 0
M  V30 14344 H 1389.92 -0.717846 1.3884 0
M  V30 14345 H 1390.66 -3.16225 0.719164 0
M  V30 14346 H 1390.44 -3.02999 2.48865 0
M  V30 14347 H 1391.93 -3.75914 1.81874 0
M  V30 14348 N 1392.37 -1.38898 -0.744656 0
M  V30 14349 C 1393.79 -1.20291 -1.04892 0
M  V30 14350 C 1393.99 -0.0577705 -2.01417 0
M  V30 14351 O 1393.04 0.593638 -2.45422 0
M  V30 14352 C 1394.36 -2.53302 -1.62045 0
M  V30 14353 C 1395.9 -2.60063 -1.74173 0
M  V30 14354 C 1396.38 -3.93272 -2.34736 0
M  V30 14355 N 1397.87 -3.9486 -2.42157 0
M  V30 14356 C 1398.6 -4.94698 -2.89933 0
M  V30 14357 N 1398.1 -6.04934 -3.37678 0
M  V30 14358 N 1399.89 -4.82083 -2.89055 0
M  V30 14359 H 1392.04 -2.12144 -0.104294 0
M  V30 14360 H 1394.31 -0.941725 -0.108895 0
M  V30 14361 H 1394.01 -3.376 -0.985868 0
M  V30 14362 H 1393.89 -2.72335 -2.60986 0
M  V30 14363 H 1396.27 -1.76155 -2.36756 0
M  V30 14364 H 1396.36 -2.44889 -0.739115 0
M  V30 14365 H 1396 -4.77607 -1.72784 0
M  V30 14366 H 1395.93 -4.05762 -3.35656 0
M  V30 14367 H 1398.42 -3.15243 -2.08399 0
M  V30 14368 H 1398.73 -6.77036 -3.72616 0
M  V30 14369 H 1397.08 -6.08541 -3.35712 0
M  V30 14370 H 1400.27 -3.9507 -2.51072 0
M  V30 14371 H 1400.44 -5.60039 -3.25975 0
M  V30 14372 N 1393.85 0.973806 -1.23914 0
M  V30 14373 C 1394.76 2.10138 -1.04304 0
M  V30 14374 C 1395.77 1.73994 0.0143888 0
M  V30 14375 O 1396.95 2.00572 -0.182481 0
M  V30 14376 C 1394.02 3.40673 -0.643639 0
M  V30 14377 C 1393.08 3.90802 -1.77686 0
M  V30 14378 C 1392.31 5.15108 -1.39642 0
M  V30 14379 O 1392.53 5.69695 -0.283546 0
M  V30 14380 O 1391.47 5.59468 -2.21988 0
M  V30 14381 H 1395.29 2.29574 -1.9882 0
M  V30 14382 H 1392.88 1.08524 -1.02679 0
M  V30 14383 H 1394.76 4.19178 -0.432145 0
M  V30 14384 H 1393.43 3.22551 0.272458 0
M  V30 14385 H 1392.34 3.13385 -2.04305 0
M  V30 14386 H 1393.67 4.1339 -2.67151 0
M  V30 14387 N 1395.33 1.05191 1.17357 0
M  V30 14388 C 1396.28 0.623047 2.19322 0
M  V30 14389 C 1397.26 -0.340467 1.57257 0
M  V30 14390 O 1398.45 -0.157698 1.76296 0
M  V30 14391 C 1395.58 -0.000731889 3.433 0
M  V30 14392 C 1394.67 0.986608 4.12464 0
M  V30 14393 N 1395.06 2.158 4.57454 0
M  V30 14394 C 1393.36 0.815082 4.38489 0
M  V30 14395 C 1394.06 2.78262 5.10828 0
M  V30 14396 N 1393.03 2.0606 5.03031 0
M  V30 14397 H 1396.84 1.51555 2.5181 0
M  V30 14398 H 1394.35 0.922048 1.33686 0
M  V30 14399 H 1396.35 -0.325738 4.15625 0
M  V30 14400 H 1395.01 -0.888627 3.12304 0
M  V30 14401 H 1396.02 2.53634 4.51542 0
M  V30 14402 H 1392.69 -0.021765 4.17494 0
M  V30 14403 H 1394.08 3.77599 5.55759 0
M  V30 14404 N 1396.8 -1.33791 0.83293 0
M  V30 14405 C 1398.05 -1.97582 0.42494 0
M  V30 14406 C 1398.37 -1.66328 -1.01784 0
M  V30 14407 O 1397.64 -0.959141 -1.70814 0
M  V30 14408 H 1396.22 -0.730923 0.154143 0
M  V30 14409 H 1398.89 -1.63257 1.06458 0
M  V30 14410 H 1397.98 -3.07177 0.552127 0
M  V30 14411 N 1398.28 -0.588812 -1.46187 0
M  V30 14412 C 1399.51 -0.0825301 -2.06735 0
M  V30 14413 C 1399.93 1.22507 -1.43658 0
M  V30 14414 O 1399.28 1.74203 -0.544022 0
M  V30 14415 C 1399.33 0.083501 -3.61404 0
M  V30 14416 O 1399.05 -1.17235 -4.22123 0
M  V30 14417 C 1400.56 0.623425 -4.38894 0
M  V30 14418 H 1397.78 -0.0602413 -0.66829 0
M  V30 14419 H 1400.32 -0.811215 -1.87722 0
M  V30 14420 H 1398.47 0.762432 -3.79823 0
M  V30 14421 H 1398.89 -0.990047 -5.15071 0
M  V30 14422 H 1400.36 0.688755 -5.47686 0
M  V30 14423 H 1400.84 1.64172 -4.07362 0
M  V30 14424 H 1401.45 -0.0208373 -4.25295 0
M  V30 14425 N 1399.76 1.54172 -0.326923 0
M  V30 14426 C 1400.72 2.2311 0.524855 0
M  V30 14427 C 1401.72 1.22567 1.04087 0
M  V30 14428 O 1402.91 1.47123 0.932759 0
M  V30 14429 C 1400.05 2.93778 1.72937 0
M  V30 14430 H 1401.24 2.99799 -0.0778327 0
M  V30 14431 H 1398.79 1.56105 -0.0780484 0
M  V30 14432 H 1399.53 2.21234 2.3712 0
M  V30 14433 H 1399.31 3.67509 1.36674 0
M  V30 14434 H 1400.8 3.46292 2.33392 0
M  V30 14435 N 1401.24 0.0551678 1.57503 0
M  V30 14436 C 1402.46 -0.630692 1.97578 0
M  V30 14437 C 1402.89 -1.63348 0.932686 0
M  V30 14438 O 1402.25 -1.81004 -0.103632 0
M  V30 14439 C 1402.29 -1.29049 3.36718 0
M  V30 14440 O 1401.4 -2.40621 3.34926 0
M  V30 14441 H 1400.74 -0.163625 0.643524 0
M  V30 14442 H 1403.27 0.124753 2.04219 0
M  V30 14443 H 1403.28 -1.64124 3.73534 0
M  V30 14444 H 1401.95 -0.55559 4.12172 0
M  V30 14445 H 1400.53 -2.07463 3.0986 0
M  V30 14446 N 1402.72 -1.56081 -0.218252 0
M  V30 14447 C 1403.94 -1.83334 -0.958964 0
M  V30 14448 C 1404.36 -0.63472 -1.77811 0
M  V30 14449 O 1403.72 0.396729 -1.78136 0
M  V30 14450 C 1403.77 -3.09141 -1.87387 0
M  V30 14451 O 1403.49 -4.24379 -1.08783 0
M  V30 14452 C 1404.99 -3.49405 -2.7282 0
M  V30 14453 H 1402.21 -0.609375 -0.280898 0
M  V30 14454 H 1404.75 -2.03174 -0.232486 0
M  V30 14455 H 1402.91 -2.91267 -2.55426 0
M  V30 14456 H 1403.32 -4.9587 -1.70919 0
M  V30 14457 H 1404.8 -4.40461 -3.32713 0
M  V30 14458 H 1405.27 -2.71311 -3.45379 0
M  V30 14459 H 1405.88 -3.6973 -2.1019 0
M  V30 14460 N 1404.2 0.485086 -1.49949 0
M  V30 14461 C 1405.13 1.59312 -1.7071 0
M  V30 14462 C 1406.11 1.6076 -0.555896 0
M  V30 14463 O 1407.29 1.77249 -0.793504 0
M  V30 14464 C 1404.42 2.97718 -1.78834 0
M  V30 14465 C 1403.38 3.11136 -2.93902 0
M  V30 14466 C 1402.7 4.51051 -2.87154 0
M  V30 14467 C 1404 2.89665 -4.34617 0
M  V30 14468 H 1405.7 1.42192 -2.6348 0
M  V30 14469 H 1403.24 0.68262 -1.26792 0
M  V30 14470 H 1405.19 3.75148 -1.91943 0
M  V30 14471 H 1403.92 3.15963 -0.826744 0
M  V30 14472 H 1402.58 2.36135 -2.80421 0
M  V30 14473 H 1402.23 4.66195 -1.88869 0
M  V30 14474 H 1401.93 4.60967 -3.64394 0
M  V30 14475 H 1403.45 5.3052 -3.02293 0
M  V30 14476 H 1404.86 3.56853 -4.48697 0
M  V30 14477 H 1403.26 3.11039 -5.13201 0
M  V30 14478 H 1404.33 1.85642 -4.47956 0
M  V30 14479 N 1405.67 1.39291 0.737279 0
M  V30 14480 C 1406.9 1.39844 1.53162 0
M  V30 14481 C 1407.32 -0.00568546 1.88099 0
M  V30 14482 O 1406.68 -0.992085 1.51748 0
M  V30 14483 C 1406.73 2.27577 2.79716 0
M  V30 14484 O 1405.83 1.70408 3.75546 0
M  V30 14485 H 1405.17 0.476314 0.462624 0
M  V30 14486 H 1407.7 1.83258 0.909819 0
M  V30 14487 H 1407.71 2.42009 3.28475 0
M  V30 14488 H 1406.39 3.29621 2.53619 0
M  V30 14489 H 1404.97 1.65206 3.34307 0
M  V30 14490 N 1407.15 -0.967221 1.24429 0
M  V30 14491 C 1408.38 -1.75053 1.11226 0
M  V30 14492 C 1408.8 -1.85162 -0.331139 0
M  V30 14493 O 1408.16 -1.32288 -1.23974 0
M  V30 14494 C 1408.21 -3.14882 1.75733 0
M  V30 14495 O 1407.31 -3.99371 1.02842 0
M  V30 14496 H 1406.65 -0.538078 0.389061 0
M  V30 14497 H 1409.18 -1.21325 1.64746 0
M  V30 14498 H 1409.19 -3.65402 1.81509 0
M  V30 14499 H 1407.87 -3.06839 2.80754 0
M  V30 14500 H 1406.44 -3.57854 1.04856 0
M  V30 14501 N 1408.63 -1.05812 -1.16797 0
M  V30 14502 C 1410.05 -0.780649 -1.39205 0
M  V30 14503 C 1410.25 0.622191 -1.91653 0
M  V30 14504 O 1409.3 1.38357 -2.11219 0
M  V30 14505 C 1410.61 -1.84148 -2.37718 0
M  V30 14506 C 1412.16 -1.86442 -2.51413 0
M  V30 14507 C 1412.64 -2.91566 -3.53204 0
M  V30 14508 N 1414.13 -2.90568 -3.60727 0
M  V30 14509 C 1414.86 -3.68556 -4.39265 0
M  V30 14510 N 1414.36 -4.56348 -5.21266 0
M  V30 14511 N 1416.15 -3.56969 -4.342 0
M  V30 14512 H 1408.3 -1.96313 -0.810871 0
M  V30 14513 H 1410.57 -0.850421 -0.418913 0
M  V30 14514 H 1410.27 -2.84864 -2.06265 0
M  V30 14515 H 1410.15 -1.68838 -3.37303 0
M  V30 14516 H 1412.53 -0.863873 -2.82172 0
M  V30 14517 H 1412.61 -2.0583 -1.5188 0
M  V30 14518 H 1412.26 -3.91811 -3.23182 0
M  V30 14519 H 1412.19 -2.69429 -4.52455 0
M  V30 14520 H 1414.68 -2.26918 -3.02186 0
M  V30 14521 H 1414.99 -5.12523 -5.78394 0
M  V30 14522 H 1413.34 -4.60406 -5.20626 0
M  V30 14523 H 1416.53 -2.87772 -3.69195 0
M  V30 14524 H 1416.7 -4.17993 -4.95162 0
M  V30 14525 N 1410.11 1.33347 -0.840014 0
M  V30 14526 C 1411.04 2.28029 -0.231432 0
M  V30 14527 C 1412.05 1.51792 0.588488 0
M  V30 14528 O 1413.24 1.736 0.415371 0
M  V30 14529 C 1410.34 3.31745 0.692721 0
M  V30 14530 C 1409.51 4.37311 -0.0881144 0
M  V30 14531 C 1408.57 5.20689 0.759557 0
M  V30 14532 O 1407.6 5.68854 0.198347 0
M  V30 14533 N 1408.8 5.42082 2.07672 0
M  V30 14534 H 1411.57 2.80893 -1.04495 0
M  V30 14535 H 1409.13 1.46053 -0.698586 0
M  V30 14536 H 1411.12 3.84428 1.2648 0
M  V30 14537 H 1409.69 2.79148 1.40695 0
M  V30 14538 H 1408.91 3.85112 -0.841579 0
M  V30 14539 H 1410.2 5.04947 -0.624986 0
M  V30 14540 H 1409.6 5.04654 2.55619 0
M  V30 14541 H 1408.15 5.97817 2.59726 0
M  V30 14542 N 1411.59 0.596556 1.45873 0
M  V30 14543 C 1412.52 -0.116229 2.33211 0
M  V30 14544 C 1413.5 -0.869868 1.46176 0
M  V30 14545 O 1414.68 -0.842599 1.74968 0
M  V30 14546 C 1411.81 -1.12145 3.28696 0
M  V30 14547 C 1410.77 -0.481749 4.2528 0
M  V30 14548 C 1410.09 -1.59443 5.10374 0
M  V30 14549 C 1411.39 0.589996 5.18957 0
M  V30 14550 H 1413.09 0.613005 2.93057 0
M  V30 14551 H 1410.63 0.296242 1.4092 0
M  V30 14552 H 1412.58 -1.62857 3.88659 0
M  V30 14553 H 1411.31 -1.88114 2.66985 0
M  V30 14554 H 1409.97 0.0044092 3.666 0
M  V30 14555 H 1409.62 -2.34413 4.45039 0
M  V30 14556 H 1409.32 -1.17197 5.75794 0
M  V30 14557 H 1410.84 -2.10404 5.73204 0
M  V30 14558 H 1412.25 0.167395 5.73056 0
M  V30 14559 H 1410.65 0.933565 5.92794 0
M  V30 14560 H 1411.72 1.47093 4.62052 0
M  V30 14561 N 1413.06 -1.53996 0.335095 0
M  V30 14562 C 1413.99 -2.2768 -0.518087 0
M  V30 14563 C 1414.97 -1.28915 -1.10972 0
M  V30 14564 O 1416.16 -1.57745 -1.1327 0
M  V30 14565 C 1413.29 -3.04327 -1.67339 0
M  V30 14566 C 1412.24 -4.10525 -1.2105 0
M  V30 14567 C 1411.57 -4.75078 -2.45366 0
M  V30 14568 C 1412.87 -5.21337 -0.317055 0
M  V30 14569 H 1414.56 -2.99244 0.0965669 0
M  V30 14570 H 1412.11 -1.4392 0.0478842 0
M  V30 14571 H 1414.06 -3.54608 -2.27664 0
M  V30 14572 H 1412.79 -2.30399 -2.31481 0
M  V30 14573 H 1411.45 -3.61144 -0.630124 0
M  V30 14574 H 1411.09 -3.97754 -3.07897 0
M  V30 14575 H 1410.79 -5.46822 -2.1508 0
M  V30 14576 H 1412.32 -5.2814 -3.06432 0
M  V30 14577 H 1413.73 -5.67305 -0.826905 0
M  V30 14578 H 1412.13 -6.00006 -0.106458 0
M  V30 14579 H 1413.2 -4.80536 0.649068 0
M  V30 14580 N 1414.54 -0.0635198 -1.57472 0
M  V30 14581 C 1415.96 0.293084 -1.56886 0
M  V30 14582 C 1416.16 1.70603 -1.07224 0
M  V30 14583 O 1415.21 2.41584 -0.734388 0
M  V30 14584 C 1416.53 0.110286 -3.00498 0
M  V30 14585 C 1418.07 0.180453 -3.12479 0
M  V30 14586 C 1418.55 0.0260354 -4.57993 0
M  V30 14587 N 1420.04 0.0819109 -4.63128 0
M  V30 14588 C 1420.78 -0.0132764 -5.73398 0
M  V30 14589 N 1420.27 -0.161514 -6.92612 0
M  V30 14590 N 1422.06 0.0431948 -5.62083 0
M  V30 14591 H 1414.22 -0.98706 -1.88072 0
M  V30 14592 H 1416.48 -0.384232 -0.866643 0
M  V30 14593 H 1416.18 -0.864378 -3.40913 0
M  V30 14594 H 1416.06 0.866117 -3.67122 0
M  V30 14595 H 1418.45 1.1456 -2.71956 0
M  V30 14596 H 1418.53 -0.606342 -2.4851 0
M  V30 14597 H 1418.17 -0.935839 -4.99204 0
M  V30 14598 H 1418.1 0.832131 -5.19984 0
M  V30 14599 H 1420.59 0.195229 -3.77395 0
M  V30 14600 H 1420.9 -0.226517 -7.72468 0
M  V30 14601 H 1419.25 -0.196766 -6.94721 0
M  V30 14602 H 1422.44 0.157648 -4.67834 0
M  V30 14603 H 1422.61 -0.0344435 -6.47991 0
M  V30 14604 N 1416.02 1.56195 0.209972 0
M  V30 14605 C 1417.27 1.79745 0.932638 0
M  V30 14606 C 1417.59 0.634252 1.83868 0
M  V30 14607 O 1416.85 -0.380798 1.91959 0
M  V30 14608 C 1417.15 3.09154 1.79328 0
M  V30 14609 C 1416.81 4.38754 1.03949 0
M  V30 14610 C 1415.48 4.73965 0.831308 0
M  V30 14611 C 1417.83 5.18718 0.508031 0
M  V30 14612 C 1415.16 5.86646 0.0799547 0
M  V30 14613 C 1417.51 6.32182 -0.230037 0
M  V30 14614 C 1416.17 6.65986 -0.449366 0
M  V30 14615 H 1415.44 0.657732 0.341276 0
M  V30 14616 H 1418.09 1.90453 0.199998 0
M  V30 14617 H 1416.39 2.93618 2.59414 0
M  V30 14618 H 1418.09 3.24578 2.35478 0
M  V30 14619 H 1414.68 4.11114 1.21174 0
M  V30 14620 H 1418.87 4.91941 0.656306 0
M  V30 14621 H 1414.12 6.11318 -0.100092 0
M  V30 14622 H 1418.3 6.93367 -0.649296 0
M  V30 14623 H 1415.92 7.53142 -1.03349 0
M  V30 14624 N 1417.5 -0.477127 1.50204 0
M  V30 14625 C 1418.46 -1.55824 1.68082 0
M  V30 14626 C 1419.46 -1.51039 0.551719 0
M  V30 14627 O 1420.65 -1.53766 0.818638 0
M  V30 14628 C 1417.78 -2.95462 1.70044 0
M  V30 14629 H 1418.98 -1.41292 2.64531 0
M  V30 14630 H 1416.53 -0.70308 1.39594 0
M  V30 14631 H 1417.26 -3.15445 0.752663 0
M  V30 14632 H 1417.05 -3.00343 2.52065 0
M  V30 14633 H 1418.54 -3.73964 1.85851 0
M  V30 14634 N 1418.98 -1.3968 -0.729882 0
M  V30 14635 C 1420.2 -1.40654 -1.52418 0
M  V30 14636 C 1420.63 -0.00428997 -1.881 0
M  V30 14637 O 1419.98 0.984023 -1.52272 0
M  V30 14638 C 1420.03 -2.29057 -2.78506 0
M  V30 14639 O 1419.14 -1.72397 -3.74637 0
M  V30 14640 H 1418.48 -0.478761 -0.460091 0
M  V30 14641 H 1421.01 -1.83738 -0.900087 0
M  V30 14642 H 1421.02 -2.43748 -3.27187 0
M  V30 14643 H 1419.69 -3.30961 -2.51868 0
M  V30 14644 H 1418.27 -1.66977 -3.33426 0
M  V30 14645 N 1420.45 0.960609 -1.2494 0
M  V30 14646 C 1421.73 1.68035 -1.00118 0
M  V30 14647 C 1422.11 2.057 0.474399 0
M  V30 14648 O 1421.46 1.76569 1.45036 0
M  V30 14649 C 1421.67 2.90708 -1.93106 0
M  V30 14650 C 1423.02 3.62792 -2.20606 0
M  V30 14651 O 1424.04 3.00778 -1.90816 0
M  V30 14652 O 1422.9 4.74443 -2.71231 0
M  V30 14653 H 1419.99 0.734939 -0.379202 0
M  V30 14654 H 1422.54 1.01407 -1.36069 0
M  V30 14655 H 1421.31 2.59619 -2.92769 0
M  V30 14656 H 1420.94 3.65068 -1.57515 0
M  V30 14657 N 1421.93 1.0643 1.16234 0
M  V30 14658 C 1422.9 0.680383 2.18869 0
M  V30 14659 C 1423.9 -0.274591 1.58438 0
M  V30 14660 O 1425.09 -0.0567907 1.74107 0
M  V30 14661 C 1422.22 0.00134091 3.409 0
M  V30 14662 H 1423.41 1.58894 2.54347 0
M  V30 14663 H 1420.96 0.859688 1.30534 0
M  V30 14664 H 1421.7 -0.919903 3.1098 0
M  V30 14665 H 1421.48 0.688057 3.86016 0
M  V30 14666 H 1422.97 -0.252938 4.16833 0
M  V30 14667 N 1423.41 -1.329 0.847073 0
M  V30 14668 C 1424.37 -2.27341 0.291324 0
M  V30 14669 C 1425.37 -1.51295 -0.544653 0
M  V30 14670 O 1426.56 -1.70497 -0.357258 0
M  V30 14671 C 1423.7 -3.35779 -0.588668 0
M  V30 14672 H 1424.89 -2.78009 1.12477 0
M  V30 14673 H 1422.44 -1.43442 0.620803 0
M  V30 14674 H 1423.18 -2.90366 -1.44423 0
M  V30 14675 H 1422.96 -3.92099 0.00960515 0
M  V30 14676 H 1424.45 -4.06166 -0.970526 0
M  V30 14677 N 1424.89 -0.604284 -1.45555 0
M  V30 14678 C 1425.84 0.129013 -2.32242 0
M  V30 14679 C 1426.83 0.862933 -1.45773 0
M  V30 14680 O 1428.04 0.778874 -1.62276 0
M  V30 14681 H 1424.41 0.0604661 -0.749565 0
M  V30 14682 H 1426.38 -0.620603 -2.91875 0
M  V30 14683 C 1425.13 1.11516 -3.29332 0
M  V30 14684 H 1424.45 0.559849 -3.95861 0
M  V30 14685 H 1425.89 1.59824 -3.92724 0
M  V30 14686 C 1424.35 2.18706 -2.5626 0
M  V30 14687 O 1424.88 3.26397 -2.34154 0
M  V30 14688 N 1423.09 1.93899 -2.16452 0
M  V30 14689 H 1422.64 1.0633 -2.34631 0
M  V30 14690 H 1422.59 2.65824 -1.67884 0
M  V30 14691 N 1426.37 1.53816 -0.343257 0
M  V30 14692 C 1427.61 2.00512 0.252845 0
M  V30 14693 C 1427.94 1.23274 1.51091 0
M  V30 14694 O 1427.21 0.339841 1.9293 0
M  V30 14695 H 1425.79 0.740751 0.0964202 0
M  V30 14696 H 1428.45 1.89288 -0.464347 0
M  V30 14697 H 1427.54 3.08142 0.495499 0
M  V30 14698 N 1427.84 0.0718701 1.57436 0
M  V30 14699 C 1428.78 -0.931304 2.08331 0
M  V30 14700 C 1429.76 -1.29106 0.988448 0
M  V30 14701 O 1430.94 -1.40035 1.26184 0
M  V30 14702 C 1428.07 -2.23939 2.54104 0
M  V30 14703 C 1427.11 -2.03119 3.75026 0
M  V30 14704 S 1427.95 -1.29048 5.19718 0
M  V30 14705 C 1429.1 -2.61136 5.68822 0
M  V30 14706 H 1429.33 -0.498236 2.93095 0
M  V30 14707 H 1426.87 -0.140897 1.53756 0
M  V30 14708 H 1428.83 -2.9912 2.81136 0
M  V30 14709 H 1427.49 -2.64371 1.69608 0
M  V30 14710 H 1426.68 -2.99927 4.05043 0
M  V30 14711 H 1426.28 -1.36074 3.48367 0
M  V30 14712 H 1428.57 -3.57224 5.75671 0
M  V30 14713 H 1429.52 -2.35729 6.67711 0
M  V30 14714 H 1429.92 -2.68345 4.9664 0
M  V30 14715 N 1429.32 -1.56304 -0.201686 0
M  V30 14716 C 1430.25 -1.90538 -1.27389 0
M  V30 14717 C 1431.27 -0.795422 -1.42045 0
M  V30 14718 O 1432.46 -1.07381 -1.42589 0
M  V30 14719 C 1429.56 -2.11638 -2.64694 0
M  V30 14720 C 1428.73 -3.42755 -2.71731 0
M  V30 14721 C 1427.79 -3.53047 -3.90185 0
M  V30 14722 O 1426.81 -4.25923 -3.77595 0
M  V30 14723 N 1428.02 -2.85649 -5.05356 0
M  V30 14724 H 1430.78 -2.83106 -0.983411 0
M  V30 14725 H 1428.34 -1.57092 -0.391638 0
M  V30 14726 H 1430.33 -2.15818 -3.42352 0
M  V30 14727 H 1428.9 -1.256 -2.86258 0
M  V30 14728 H 1428.12 -3.50501 -1.80397 0
M  V30 14729 H 1429.41 -4.29092 -2.73418 0
M  V30 14730 H 1428.81 -2.26256 -5.18483 0
M  V30 14731 H 1427.37 -2.95465 -5.80985 0
M  V30 14732 N 1430.8 0.469154 -1.50455 0
M  V30 14733 C 1432.03 1.24252 -1.65061 0
M  V30 14734 C 1432.44 1.86226 -0.334121 0
M  V30 14735 O 1431.78 1.70082 0.694109 0
M  V30 14736 C 1431.84 2.39007 -2.68544 0
M  V30 14737 C 1431.51 1.97655 -4.12046 0
M  V30 14738 C 1432.5 1.49796 -4.97852 0
M  V30 14739 C 1430.19 2.06316 -4.57973 0
M  V30 14740 C 1432.18 1.11145 -6.27635 0
M  V30 14741 C 1429.87 1.67276 -5.8776 0
M  V30 14742 C 1430.87 1.19769 -6.72417 0
M  V30 14743 O 1430.56 0.812708 -7.99781 0
M  V30 14744 H 1430.29 0.381848 -0.557824 0
M  V30 14745 H 1432.84 0.566191 -1.97442 0
M  V30 14746 H 1431.07 3.09817 -2.31409 0
M  V30 14747 H 1432.76 3.00965 -2.7235 0
M  V30 14748 H 1433.53 1.42525 -4.63586 0
M  V30 14749 H 1429.41 2.42242 -3.92224 0
M  V30 14750 H 1432.95 0.739936 -6.93665 0
M  V30 14751 H 1428.85 1.74208 -6.21548 0
M  V30 14752 H 1429.62 0.941386 -8.13068 0
M  V30 14753 N 1432.28 1.40065 0.722464 0
M  V30 14754 C 1433.21 1.42532 1.84951 0
M  V30 14755 C 1434.19 0.287082 1.6766 0
M  V30 14756 O 1435.37 0.494715 1.87793 0
M  V30 14757 C 1432.5 1.28041 3.22836 0
M  V30 14758 C 1431.46 2.39396 3.54787 0
M  V30 14759 C 1430.78 2.09986 4.91742 0
M  V30 14760 C 1432.08 3.81729 3.56483 0
M  V30 14761 H 1433.78 2.36851 1.83144 0
M  V30 14762 H 1431.32 1.14005 0.879714 0
M  V30 14763 H 1433.28 1.28385 4.01367 0
M  V30 14764 H 1432 0.301947 3.25201 0
M  V30 14765 H 1430.66 2.3829 2.78592 0
M  V30 14766 H 1430.31 1.10547 4.90702 0
M  V30 14767 H 1430.01 2.84586 5.14086 0
M  V30 14768 H 1431.53 2.12 5.72615 0
M  V30 14769 H 1432.95 3.84696 4.25067 0
M  V30 14770 H 1431.34 4.55791 3.90351 0
M  V30 14771 H 1432.41 4.11807 2.56014 0
M  V30 14772 N 1433.76 -0.95397 1.25448 0
M  V30 14773 C 1434.98 -1.73863 1.13077 0
M  V30 14774 C 1435.41 -1.85503 -0.311481 0
M  V30 14775 O 1434.77 -1.33596 -1.22564 0
M  V30 14776 C 1434.81 -3.13 1.79062 0
M  V30 14777 O 1433.92 -3.98258 1.07072 0
M  V30 14778 H 1433.26 -0.533921 0.394746 0
M  V30 14779 H 1435.79 -1.19571 1.66024 0
M  V30 14780 H 1435.8 -3.63456 1.85374 0
M  V30 14781 H 1434.47 -3.03844 2.83992 0
M  V30 14782 H 1433.05 -3.56722 1.08645 0
M  V30 14783 N 1435.24 -1.07045 -1.15668 0
M  V30 14784 C 1436.15 -0.699332 -2.23934 0
M  V30 14785 C 1437.16 0.288036 -1.71599 0
M  V30 14786 O 1438.34 0.135447 -2.00944 0
M  V30 14787 C 1435.4 -0.0994775 -3.46557 0
M  V30 14788 C 1434.46 -1.13968 -4.13896 0
M  V30 14789 C 1433.7 -0.56836 -5.30665 0
M  V30 14790 O 1433.92 0.616556 -5.67058 0
M  V30 14791 O 1432.85 -1.31174 -5.87432 0
M  V30 14792 H 1436.68 -1.60212 -2.58003 0
M  V30 14793 H 1434.26 -0.843202 -1.23331 0
M  V30 14794 H 1436.15 0.23293 -4.20756 0
M  V30 14795 H 1434.82 0.776684 -3.14244 0
M  V30 14796 H 1433.73 -1.5244 -3.41633 0
M  V30 14797 H 1435.06 -1.98764 -4.50282 0
M  V30 14798 N 1436.71 1.32449 -0.85411 0
M  V30 14799 C 1437.66 2.2889 -0.296341 0
M  V30 14800 C 1438.63 1.55024 0.596378 0
M  V30 14801 O 1439.82 1.8325 0.531406 0
M  V30 14802 C 1436.96 3.41315 0.509729 0
M  V30 14803 C 1436.07 4.30062 -0.40872 0
M  V30 14804 C 1435.2 5.29616 0.409928 0
M  V30 14805 C 1434.24 6.10005 -0.505953 0
M  V30 14806 N 1433.38 7.01559 0.275483 0
M  V30 14807 H 1438.22 2.75989 -1.12401 0
M  V30 14808 H 1435.76 1.35787 -0.565717 0
M  V30 14809 H 1437.71 4.05218 0.992697 0
M  V30 14810 H 1436.34 2.95367 1.30223 0
M  V30 14811 H 1435.4 3.66745 -1.01007 0
M  V30 14812 H 1436.71 4.86255 -1.11165 0
M  V30 14813 H 1435.86 5.99119 0.956083 0
M  V30 14814 H 1434.6 4.74039 1.14623 0
M  V30 14815 H 1433.61 5.39406 -1.064 0
M  V30 14816 H 1434.83 6.67667 -1.24086 0
M  V30 14817 H 1432.78 6.48412 0.994887 0
M  V30 14818 H 1432.69 7.55102 -0.368426 0
M  V30 14819 H 1433.96 7.75349 0.803382 0
M  V30 14820 N 1438.19 0.611994 1.45232 0
M  V30 14821 C 1439.12 -0.142449 2.28757 0
M  V30 14822 C 1440.14 -0.827486 1.40202 0
M  V30 14823 O 1441.33 -0.692136 1.64535 0
M  V30 14824 C 1438.43 -1.22296 3.16065 0
M  V30 14825 C 1437.6 -0.624178 4.32924 0
M  V30 14826 C 1436.66 -1.59615 5.01408 0
M  V30 14827 O 1435.68 -1.12073 5.58058 0
M  V30 14828 N 1436.89 -2.93057 5.01097 0
M  V30 14829 H 1439.65 0.574276 2.94147 0
M  V30 14830 H 1437.21 0.451789 1.55469 0
M  V30 14831 H 1439.2 -1.87309 3.58744 0
M  V30 14832 H 1437.77 -1.84215 2.52554 0
M  V30 14833 H 1436.99 0.204141 3.93671 0
M  V30 14834 H 1438.28 -0.204435 5.08389 0
M  V30 14835 H 1437.68 -3.3428 4.5637 0
M  V30 14836 H 1436.24 -3.53481 5.47626 0
M  V30 14837 N 1439.67 -1.53632 0.351409 0
M  V30 14838 C 1440.92 -2.0104 -0.242687 0
M  V30 14839 C 1441.24 -1.23906 -1.49925 0
M  V30 14840 O 1440.5 -0.316927 -1.93117 0
M  V30 14841 C 1440.8 -3.5242 -0.594561 0
M  V30 14842 C 1440.46 -4.47333 0.566031 0
M  V30 14843 C 1439.13 -4.73001 0.884515 0
M  V30 14844 C 1441.48 -5.03566 1.34426 0
M  V30 14845 C 1438.81 -5.52156 1.98346 0
M  V30 14846 C 1441.16 -5.8392 2.43351 0
M  V30 14847 C 1439.82 -6.0788 2.7575 0
M  V30 14848 H 1439.09 -0.735659 -0.0888056 0
M  V30 14849 H 1441.74 -1.85362 0.480948 0
M  V30 14850 H 1440.04 -3.65971 -1.39902 0
M  V30 14851 H 1441.74 -3.86565 -1.06625 0
M  V30 14852 H 1438.33 -4.27494 0.307751 0
M  V30 14853 H 1442.52 -4.83694 1.11146 0
M  V30 14854 H 1437.77 -5.68942 2.23863 0
M  V30 14855 H 1441.95 -6.26505 3.04079 0
M  V30 14856 H 1439.57 -6.69001 3.61029 0
M  V30 14857 N 1441.15 -0.0802183 -1.57396 0
M  V30 14858 C 1442.4 0.586573 -1.92982 0
M  V30 14859 C 1442.71 1.70256 -0.962918 0
M  V30 14860 O 1443.92 2.4295 -1.21193 0
M  V30 14861 C 1442.37 1.09475 -3.42846 0
M  V30 14862 C 1441.98 0.0093098 -4.47999 0
M  V30 14863 C 1443.72 1.73512 -3.87419 0
M  V30 14864 C 1441.63 0.532002 -5.89002 0
M  V30 14865 H 1440.56 0.222878 -0.720306 0
M  V30 14866 H 1443.21 -0.153816 -1.82854 0
M  V30 14867 H 1441.59 1.88836 -3.48076 0
M  V30 14868 H 1442.77 -0.765609 -4.54395 0
M  V30 14869 H 1441.08 -0.535345 -4.12944 0
M  V30 14870 H 1443.68 2.13665 -4.90154 0
M  V30 14871 H 1444.02 2.59845 -3.25248 0
M  V30 14872 H 1444.56 1.00758 -3.84828 0
M  V30 14873 H 1441.29 -0.294364 -6.54839 0
M  V30 14874 H 1440.81 1.27425 -5.86108 0
M  V30 14875 H 1442.49 1.00573 -6.39135 0
M  V30 14876 N 1442.63 1.56409 0.193394 0
M  V30 14877 C 1443.58 1.91085 1.24381 0
M  V30 14878 C 1444.56 0.77672 1.40911 0
M  V30 14879 O 1445.75 1.0396 1.43253 0
M  V30 14880 C 1442.88 2.25533 2.58824 0
M  V30 14881 C 1441.97 3.45407 2.46079 0
M  V30 14882 N 1442.36 4.63268 2.03017 0
M  V30 14883 C 1440.66 3.49578 2.76967 0
M  V30 14884 C 1441.36 5.45425 2.02205 0
M  V30 14885 N 1440.33 4.85876 2.43773 0
M  V30 14886 H 1444.13 2.79709 0.902224 0
M  V30 14887 H 1441.65 1.57351 0.401818 0
M  V30 14888 H 1443.65 2.48561 3.34699 0
M  V30 14889 H 1442.31 1.38236 2.93804 0
M  V30 14890 H 1443.32 4.87902 1.737 0
M  V30 14891 H 1439.99 2.72702 3.16133 0
M  V30 14892 H 1441.38 6.49829 1.70798 0
M  V30 14893 N 1444.1 -0.461169 1.50702 0
M  V30 14894 C 1445.52 -0.795741 1.38348 0
M  V30 14895 C 1445.72 -1.96473 0.447263 0
M  V30 14896 O 1444.78 -2.52276 -0.106445 0
M  V30 14897 C 1446.09 -1.09849 2.79917 0
M  V30 14898 C 1447.64 -1.20435 2.88902 0
M  V30 14899 C 1448.11 -1.54017 4.31327 0
M  V30 14900 N 1449.6 -1.60989 4.34323 0
M  V30 14901 C 1450.34 -1.88498 5.41531 0
M  V30 14902 N 1449.83 -2.13959 6.58933 0
M  V30 14903 N 1451.63 -1.90082 5.28985 0
M  V30 14904 H 1443.78 0.309076 2.10139 0
M  V30 14905 H 1446.04 0.0757918 0.944965 0
M  V30 14906 H 1445.75 -0.312479 3.50309 0
M  V30 14907 H 1445.62 -2.03221 3.17775 0
M  V30 14908 H 1448.01 -1.98102 2.18723 0
M  V30 14909 H 1448.09 -0.250195 2.54573 0
M  V30 14910 H 1447.73 -0.768865 5.02047 0
M  V30 14911 H 1447.66 -2.50599 4.6315 0
M  V30 14912 H 1450.15 -1.43312 3.49672 0
M  V30 14913 H 1450.47 -2.34251 7.36442 0
M  V30 14914 H 1448.81 -2.11331 6.62091 0
M  V30 14915 H 1452 -1.69693 4.36259 0
M  V30 14916 H 1452.18 -2.11184 6.12622 0
M  V30 14917 N 1445.58 -1.40446 -0.715026 0
M  V30 14918 C 1446.86 -1.29253 -1.4681 0
M  V30 14919 C 1447.24 0.0888738 -2.10913 0
M  V30 14920 O 1446.59 1.10172 -2.00186 0
M  V30 14921 C 1446.8 -2.43173 -2.50335 0
M  V30 14922 C 1448.14 -2.83433 -3.1615 0
M  V30 14923 O 1449.17 -2.4277 -2.60655 0
M  V30 14924 O 1448.03 -3.53687 -4.16615 0
M  V30 14925 H 1445.12 -0.507627 -0.652873 0
M  V30 14926 H 1447.67 -1.52367 -0.747153 0
M  V30 14927 H 1446.44 -3.35438 -2.01486 0
M  V30 14928 H 1446.06 -2.21832 -3.29964 0
M  V30 14929 N 1447.06 0.947303 -1.25952 0
M  V30 14930 C 1447.99 2.0625 -1.09467 0
M  V30 14931 C 1448.97 1.701 -0.00160498 0
M  V30 14932 O 1450.16 1.93432 -0.172501 0
M  V30 14933 C 1447.29 3.39746 -0.720392 0
M  V30 14934 C 1446.24 3.89935 -1.76451 0
M  V30 14935 C 1445.57 5.2001 -1.24472 0
M  V30 14936 C 1446.87 4.15496 -3.16481 0
M  V30 14937 H 1448.56 2.203 -2.02752 0
M  V30 14938 H 1446.11 1.05858 -0.97622 0
M  V30 14939 H 1448.06 4.17221 -0.591972 0
M  V30 14940 H 1446.78 3.25656 0.248161 0
M  V30 14941 H 1445.44 3.14635 -1.8815 0
M  V30 14942 H 1445.09 5.02295 -0.266182 0
M  V30 14943 H 1444.79 5.54559 -1.94263 0
M  V30 14944 H 1446.31 6.00075 -1.12884 0
M  V30 14945 H 1447.73 4.83605 -3.07894 0
M  V30 14946 H 1446.12 4.61315 -3.83808 0
M  V30 14947 H 1447.19 3.21501 -3.62995 0
M  V30 14948 N 1448.54 1.07657 1.15099 0
M  V30 14949 C 1449.5 0.703558 2.18135 0
M  V30 14950 C 1450.5 -0.257771 1.5872 0
M  V30 14951 O 1451.69 -0.0383211 1.74158 0
M  V30 14952 C 1448.82 0.0374978 3.40879 0
M  V30 14953 H 1450.02 1.61583 2.52648 0
M  V30 14954 H 1447.57 0.873484 1.29615 0
M  V30 14955 H 1448.3 -0.886868 3.11938 0
M  V30 14956 H 1448.09 0.728961 3.85264 0
M  V30 14957 H 1449.58 -0.208714 4.17078 0
M  V30 14958 N 1450.02 -1.31994 0.861122 0
M  V30 14959 C 1450.98 -2.27019 0.315421 0
M  V30 14960 C 1451.98 -1.51864 -0.528575 0
M  V30 14961 O 1453.17 -1.70867 -0.339154 0
M  V30 14962 C 1450.3 -3.36384 -0.553021 0
M  V30 14963 H 1451.49 -2.768 1.1542 0
M  V30 14964 H 1449.05 -1.42776 0.635982 0
M  V30 14965 H 1449.78 -2.91882 -1.41335 0
M  V30 14966 H 1449.57 -3.92067 0.0511919 0
M  V30 14967 H 1451.06 -4.07172 -0.927392 0
M  V30 14968 N 1451.49 -0.619688 -1.44906 0
M  V30 14969 C 1452.91 -0.284338 -1.57047 0
M  V30 14970 C 1453.11 1.21284 -1.60911 0
M  V30 14971 O 1452.17 1.99642 -1.54594 0
M  V30 14972 C 1453.48 -0.966179 -2.84755 0
M  V30 14973 C 1455.03 -0.943239 -2.98449 0
M  V30 14974 C 1455.5 -1.60532 -4.28945 0
M  V30 14975 N 1456.99 -1.57138 -4.35732 0
M  V30 14976 C 1457.73 -2.05271 -5.35399 0
M  V30 14977 N 1457.22 -2.61543 -6.41535 0
M  V30 14978 N 1459.02 -1.95967 -5.26833 0
M  V30 14979 H 1451.17 -1.59167 -1.40641 0
M  V30 14980 H 1453.43 -0.667458 -0.673204 0
M  V30 14981 H 1453.14 -2.02086 -2.87844 0
M  V30 14982 H 1453.01 -0.49688 -3.73913 0
M  V30 14983 H 1455.4 0.102932 -2.9492 0
M  V30 14984 H 1455.48 -1.45092 -2.1067 0
M  V30 14985 H 1455.12 -2.65088 -4.33233 0
M  V30 14986 H 1455.05 -1.07256 -5.15561 0
M  V30 14987 H 1457.54 -1.16042 -3.59643 0
M  V30 14988 H 1457.86 -2.96033 -7.13852 0
M  V30 14989 H 1456.2 -2.65588 -6.42252 0
M  V30 14990 H 1459.39 -1.51734 -4.42825 0
M  V30 14991 H 1459.57 -2.33791 -6.04356 0
M  V30 14992 N 1452.97 1.53444 -0.359552 0
M  V30 14993 C 1453.92 2.27053 0.504949 0
M  V30 14994 C 1454.91 1.29801 1.08849 0
M  V30 14995 O 1456.12 1.47451 1.03239 0
M  V30 14996 H 1452.5 0.729756 0.181549 0
M  V30 14997 H 1454.47 2.98082 -0.137719 0
M  V30 14998 C 1453.22 3.06815 1.63585 0
M  V30 14999 H 1452.54 3.81488 1.19611 0
M  V30 15000 H 1453.98 3.61508 2.21558 0
M  V30 15001 C 1452.44 2.17286 2.57466 0
M  V30 15002 O 1452.97 1.77961 3.60129 0
M  V30 15003 N 1451.17 1.82041 2.26516 0
M  V30 15004 H 1450.72 2.14218 1.43068 0
M  V30 15005 H 1450.68 1.22423 2.89586 0
M  V30 15006 N 1454.45 0.0885642 1.57351 0
M  V30 15007 C 1455.7 -0.57753 1.94403 0
M  V30 15008 C 1456.03 -1.68238 0.970029 0
M  V30 15009 O 1455.3 -1.945 0.00198684 0
M  V30 15010 C 1455.59 -1.13882 3.41618 0
M  V30 15011 C 1455.44 -0.0394686 4.49783 0
M  V30 15012 C 1456.76 -2.03922 3.90005 0
M  V30 15013 H 1453.88 -0.208468 0.706902 0
M  V30 15014 H 1456.52 0.157945 1.89342 0
M  V30 15015 H 1454.67 -1.76561 3.46061 0
M  V30 15016 H 1456.34 0.594458 4.57454 0
M  V30 15017 H 1454.59 0.627775 4.29234 0
M  V30 15018 H 1455.26 -0.472897 5.49971 0
M  V30 15019 H 1457.73 -1.51156 3.87674 0
M  V30 15020 H 1456.61 -2.40123 4.93591 0
M  V30 15021 H 1456.87 -2.95407 3.28918 0
M  V30 15022 N 1455.93 -1.56509 -0.185096 0
M  V30 15023 C 1456.86 -1.98363 -1.23184 0
M  V30 15024 C 1457.84 -0.85709 -1.46929 0
M  V30 15025 O 1459.02 -1.12216 -1.58497 0
M  V30 15026 C 1456.15 -2.33172 -2.57387 0
M  V30 15027 C 1455.11 -3.48658 -2.48236 0
M  V30 15028 C 1454.43 -3.69171 -3.86804 0
M  V30 15029 C 1455.73 -4.82538 -1.99885 0
M  V30 15030 H 1457.43 -2.86053 -0.883982 0
M  V30 15031 H 1454.97 -1.37623 -0.423786 0
M  V30 15032 H 1456.93 -2.61048 -3.30805 0
M  V30 15033 H 1455.65 -1.42377 -2.93933 0
M  V30 15034 H 1454.31 -3.20889 -1.77273 0
M  V30 15035 H 1453.96 -2.75689 -4.20719 0
M  V30 15036 H 1453.66 -4.46868 -3.81553 0
M  V30 15037 H 1455.18 -3.99433 -4.61829 0
M  V30 15038 H 1456.6 -5.0938 -2.63068 0
M  V30 15039 H 1454.99 -5.63775 -2.05614 0
M  V30 15040 H 1456.06 -4.75453 -0.952503 0
M  V30 15041 N 1457.41 0.45317 -1.50944 0
M  V30 15042 C 1458.65 1.20568 -1.63068 0
M  V30 15043 C 1458.99 1.91229 -0.338375 0
M  V30 15044 O 1458.26 1.82916 0.661207 0
M  V30 15045 C 1458.54 2.23522 -2.8233 0
M  V30 15046 C 1458.4 1.57047 -4.21493 0
M  V30 15047 C 1459.72 3.24663 -2.97123 0
M  V30 15048 H 1456.83 0.436971 -0.593486 0
M  V30 15049 H 1459.48 0.497008 -1.83384 0
M  V30 15050 H 1457.63 2.83961 -2.65139 0
M  V30 15051 H 1459.3 1.00067 -4.50316 0
M  V30 15052 H 1457.54 0.873143 -4.24922 0
M  V30 15053 H 1458.21 2.31949 -5.00903 0
M  V30 15054 H 1460.69 2.74264 -3.12919 0
M  V30 15055 H 1459.56 3.9401 -3.82161 0
M  V30 15056 H 1459.83 3.89843 -2.08506 0
M  V30 15057 N 1458.88 1.40823 0.707568 0
M  V30 15058 C 1460.13 1.39259 1.46463 0
M  V30 15059 C 1460.45 -0.00157854 1.95 0
M  V30 15060 O 1459.72 -0.957723 1.70893 0
M  V30 15061 H 1458.3 0.512558 0.543409 0
M  V30 15062 H 1460.97 1.75952 0.838269 0
M  V30 15063 H 1460.06 2.07243 2.3336 0
M  V30 15064 N 1460.36 -0.94061 1.26453 0
M  V30 15065 C 1461.27 -2.07298 1.09839 0
M  V30 15066 C 1462.29 -1.73971 0.0317477 0
M  V30 15067 O 1463.46 -2.00017 0.235594 0
M  V30 15068 C 1460.53 -3.38847 0.733736 0
M  V30 15069 C 1459.59 -3.85954 1.87985 0
M  V30 15070 C 1458.82 -5.11224 1.5325 0
M  V30 15071 O 1459.05 -5.68743 0.434491 0
M  V30 15072 O 1457.98 -5.53386 2.36743 0
M  V30 15073 H 1461.81 -2.24222 2.04837 0
M  V30 15074 H 1459.39 -1.05763 1.0552 0
M  V30 15075 H 1461.27 -4.17885 0.543131 0
M  V30 15076 H 1459.95 -3.2316 -0.186843 0
M  V30 15077 H 1458.86 -3.07858 2.12542 0
M  V30 15078 H 1460.19 -4.06162 2.78017 0
M  V30 15079 N 1461.84 -1.08266 -1.14527 0
M  V30 15080 C 1462.79 -0.705807 -2.21633 0
M  V30 15081 C 1463.78 0.287758 -1.66938 0
M  V30 15082 O 1464.99 0.150479 -1.7937 0
M  V30 15083 H 1461.36 -0.210206 -0.722023 0
M  V30 15084 H 1463.33 -1.61855 -2.5069 0
M  V30 15085 C 1462.08 -0.129673 -3.47458 0
M  V30 15086 H 1461.41 -0.885365 -3.89873 0
M  V30 15087 H 1462.85 0.0962264 -4.23891 0
M  V30 15088 C 1461.31 1.13208 -3.1731 0
M  V30 15089 O 1461.84 2.21717 -3.34969 0
M  V30 15090 N 1460.04 1.0419 -2.7128 0
M  V30 15091 H 1459.59 0.15883 -2.5711 0
M  V30 15092 H 1459.55 1.88689 -2.51483 0
M  V30 15093 N 1463.32 1.31536 -0.86811 0
M  V30 15094 C 1464.25 2.31037 -0.33822 0
M  V30 15095 C 1465.23 1.60269 0.569892 0
M  V30 15096 O 1466.42 1.87987 0.487305 0
M  V30 15097 C 1463.55 3.44203 0.462753 0
M  V30 15098 C 1462.5 4.26549 -0.3521 0
M  V30 15099 C 1461.83 5.31605 0.574443 0
M  V30 15100 C 1463.13 4.97665 -1.58516 0
M  V30 15101 H 1464.82 2.75607 -1.16967 0
M  V30 15102 H 1462.37 1.325 -0.56389 0
M  V30 15103 H 1464.32 4.12862 0.843967 0
M  V30 15104 H 1463.04 2.98396 1.32769 0
M  V30 15105 H 1461.7 3.59555 -0.715237 0
M  V30 15106 H 1461.35 4.82048 1.43661 0
M  V30 15107 H 1461.05 5.87591 0.0331436 0
M  V30 15108 H 1462.57 6.03124 0.952541 0
M  V30 15109 H 1463.99 5.58931 -1.27549 0
M  V30 15110 H 1462.38 5.63437 -2.06539 0
M  V30 15111 H 1463.45 4.24756 -2.33902 0
M  V30 15112 N 1464.8 0.627364 1.44575 0
M  V30 15113 C 1465.76 -0.0700881 2.29093 0
M  V30 15114 C 1466.76 -0.775969 1.40838 0
M  V30 15115 O 1467.95 -0.621129 1.6275 0
M  V30 15116 C 1465.08 -1.10977 3.2233 0
M  V30 15117 H 1466.28 0.673234 2.92246 0
M  V30 15118 H 1463.83 0.387322 1.51425 0
M  V30 15119 H 1464.56 -1.8832 2.64019 0
M  V30 15120 H 1464.35 -0.607587 3.87364 0
M  V30 15121 H 1465.84 -1.59764 3.8583 0
M  V30 15122 N 1466.28 -1.53251 0.367684 0
M  V30 15123 C 1467.5 -2.0618 -0.224645 0
M  V30 15124 C 1467.93 -1.23927 -1.41505 0
M  V30 15125 O 1467.28 -0.258858 -1.79443 0
M  V30 15126 C 1467.33 -3.55671 -0.594171 0
M  V30 15127 O 1466.44 -3.76132 -1.69112 0
M  V30 15128 H 1465.78 -0.663218 -0.0322099 0
M  V30 15129 H 1468.31 -1.97646 0.528897 0
M  V30 15130 H 1468.32 -3.98734 -0.864589 0
M  V30 15131 H 1466.99 -4.14982 0.276254 0
M  V30 15132 H 1465.57 -3.44965 -1.41609 0
M  V30 15133 N 1467.75 -0.0969077 -1.57302 0
M  V30 15134 C 1468.7 0.861379 -2.14124 0
M  V30 15135 C 1469.67 1.27858 -1.06026 0
M  V30 15136 O 1470.86 1.36001 -1.33822 0
M  V30 15137 C 1468 2.11443 -2.72738 0
M  V30 15138 C 1467.11 1.7476 -3.95074 0
M  V30 15139 C 1466.24 2.94864 -4.41847 0
M  V30 15140 C 1465.28 2.54316 -5.56767 0
M  V30 15141 N 1464.42 3.67261 -5.98384 0
M  V30 15142 H 1469.26 0.369968 -2.95694 0
M  V30 15143 H 1466.8 0.170943 -1.46103 0
M  V30 15144 H 1468.75 2.84829 -3.04842 0
M  V30 15145 H 1467.38 2.5808 -1.93893 0
M  V30 15146 H 1466.44 0.91335 -3.69272 0
M  V30 15147 H 1467.75 1.40946 -4.78472 0
M  V30 15148 H 1466.9 3.76501 -4.75744 0
M  V30 15149 H 1465.64 3.31889 -3.57352 0
M  V30 15150 H 1464.65 1.71106 -5.22497 0
M  V30 15151 H 1465.87 2.18432 -6.43012 0
M  V30 15152 H 1463.82 4.04001 -5.16836 0
M  V30 15153 H 1463.73 3.37298 -6.76584 0
M  V30 15154 H 1465 4.49403 -6.36912 0
M  V30 15155 N 1469.23 1.56605 0.176793 0
M  V30 15156 C 1470.48 1.80875 0.892578 0
M  V30 15157 C 1470.79 0.673245 1.83648 0
M  V30 15158 O 1472 0.800732 2.59423 0
M  V30 15159 C 1470.46 3.20481 1.63768 0
M  V30 15160 C 1470.06 4.41885 0.737685 0
M  V30 15161 C 1471.81 3.54048 2.34202 0
M  V30 15162 C 1469.71 5.72512 1.48271 0
M  V30 15163 H 1468.64 0.674476 0.337042 0
M  V30 15164 H 1471.3 1.82922 0.145574 0
M  V30 15165 H 1469.68 3.12736 2.42924 0
M  V30 15166 H 1470.85 4.60797 -0.0165186 0
M  V30 15167 H 1469.17 4.16153 0.143277 0
M  V30 15168 H 1471.76 4.48886 2.90526 0
M  V30 15169 H 1472.11 2.78665 3.09276 0
M  V30 15170 H 1472.64 3.63322 1.61995 0
M  V30 15171 H 1469.38 6.5091 0.774399 0
M  V30 15172 H 1468.9 5.57586 2.21038 0
M  V30 15173 H 1470.58 6.14274 2.03165 0
M  V30 15174 N 1470.71 -0.445159 1.51182 0
M  V30 15175 C 1471.67 -1.52224 1.71349 0
M  V30 15176 C 1472.67 -1.49834 0.583632 0
M  V30 15177 O 1473.86 -1.51995 0.85107 0
M  V30 15178 C 1470.99 -2.91789 1.76273 0
M  V30 15179 H 1472.19 -1.35649 2.67468 0
M  V30 15180 H 1469.74 -0.673312 1.41054 0
M  V30 15181 H 1470.48 -3.13777 0.819405 0
M  V30 15182 H 1470.26 -2.94928 2.58379 0
M  V30 15183 H 1471.75 -3.69938 1.93741 0
M  V30 15184 N 1472.19 -1.41197 -0.700089 0
M  V30 15185 C 1473.46 -1.30803 -1.4543 0
M  V30 15186 C 1473.84 0.0664987 -2.10995 0
M  V30 15187 O 1473.19 1.08043 -2.01343 0
M  V30 15188 C 1473.4 -2.45815 -2.47742 0
M  V30 15189 C 1474.75 -2.86771 -3.13126 0
M  V30 15190 O 1475.77 -2.45521 -2.58065 0
M  V30 15191 O 1474.63 -3.58086 -4.1284 0
M  V30 15192 H 1471.73 -0.514523 -0.647453 0
M  V30 15193 H 1474.27 -1.53151 -0.73095 0
M  V30 15194 H 1473.05 -3.37557 -1.97917 0
M  V30 15195 H 1472.67 -2.25319 -3.27593 0
M  V30 15196 N 1473.67 0.933891 -1.2695 0
M  V30 15197 C 1474.91 1.68091 -1.12924 0
M  V30 15198 C 1475.24 1.91747 0.326088 0
M  V30 15199 O 1474.5 1.50126 1.25541 0
M  V30 15200 C 1474.79 3.05706 -1.85145 0
M  V30 15201 C 1474.46 3.01781 -3.35021 0
M  V30 15202 C 1473.12 3.00417 -3.75903 0
M  V30 15203 C 1475.47 2.93537 -4.3068 0
M  V30 15204 C 1472.8 2.88585 -5.10818 0
M  V30 15205 C 1475.15 2.83246 -5.65645 0
M  V30 15206 C 1473.82 2.80229 -6.05828 0
M  V30 15207 H 1473.09 0.615087 -0.413217 0
M  V30 15208 H 1475.74 1.08957 -1.57482 0
M  V30 15209 H 1474.04 3.68508 -1.33077 0
M  V30 15210 H 1475.74 3.62369 -1.71726 0
M  V30 15211 H 1472.33 3.03626 -3.02505 0
M  V30 15212 H 1476.51 2.93693 -4.00073 0
M  V30 15213 H 1471.77 2.84632 -5.41105 0
M  V30 15214 H 1475.94 2.75832 -6.39445 0
M  V30 15215 H 1473.57 2.70818 -7.10325 0
M  V30 15216 N 1475.14 1.08871 1.13951 0
M  V30 15217 C 1476.39 0.819665 1.84732 0
M  V30 15218 C 1476.71 -0.656535 1.83615 0
M  V30 15219 O 1475.98 -1.47614 1.28791 0
M  V30 15220 H 1474.56 0.30023 0.684011 0
M  V30 15221 H 1477.22 1.37568 1.38062 0
M  V30 15222 H 1476.32 1.16809 2.89417 0
M  V30 15223 N 1476.62 -1.31073 0.875073 0
M  V30 15224 C 1477.55 -2.30855 0.350468 0
M  V30 15225 C 1478.53 -1.60569 -0.561384 0
M  V30 15226 O 1479.72 -1.88242 -0.477329 0
M  V30 15227 C 1476.85 -3.44444 -0.444493 0
M  V30 15228 C 1475.8 -4.26357 0.374716 0
M  V30 15229 C 1475.13 -5.31903 -0.546243 0
M  V30 15230 C 1476.43 -4.96817 1.61153 0
M  V30 15231 H 1478.12 -2.74983 1.18427 0
M  V30 15232 H 1475.67 -1.32199 0.570909 0
M  V30 15233 H 1477.62 -4.13304 -0.82206 0
M  V30 15234 H 1476.34 -2.99096 -1.31185 0
M  V30 15235 H 1475 -3.59171 0.734295 0
M  V30 15236 H 1474.65 -4.82803 -1.41102 0
M  V30 15237 H 1474.35 -5.876 -0.00198173 0
M  V30 15238 H 1475.88 -6.03621 -0.920542 0
M  V30 15239 H 1477.29 -5.58247 1.30511 0
M  V30 15240 H 1475.69 -5.62334 2.09524 0
M  V30 15241 H 1476.76 -4.2351 2.36151 0
M  V30 15242 N 1478.1 -0.635022 -1.4424 0
M  V30 15243 C 1479.33 -0.146549 -2.06882 0
M  V30 15244 C 1479.75 1.17143 -1.4717 0
M  V30 15245 O 1479.11 1.71952 -0.574636 0
M  V30 15246 C 1479.16 -0.0494694 -3.60566 0
M  V30 15247 O 1478.26 0.993423 -4.00256 0
M  V30 15248 H 1477.6 -0.0865505 -0.658335 0
M  V30 15249 H 1480.13 -0.872803 -1.85049 0
M  V30 15250 H 1480.14 0.139839 -4.0776 0
M  V30 15251 H 1478.82 -1.01169 -4.03407 0
M  V30 15252 H 1477.39 0.778372 -3.64686 0
M  V30 15253 N 1479.58 1.53054 -0.375806 0
M  V30 15254 C 1480.99 1.5958 -0.0251765 0
M  V30 15255 C 1481.19 1.39047 1.45836 0
M  V30 15256 O 1480.25 1.20073 2.22123 0
M  V30 15257 C 1481.56 2.96676 -0.490274 0
M  V30 15258 C 1483.11 3.09815 -0.44537 0
M  V30 15259 C 1483.59 4.4934 -0.886442 0
M  V30 15260 N 1485.08 4.55484 -0.84191 0
M  V30 15261 C 1485.81 5.61652 -1.15476 0
M  V30 15262 N 1485.31 6.75526 -1.53741 0
M  V30 15263 N 1487.1 5.51688 -1.07689 0
M  V30 15264 H 1479.25 1.64651 -1.34178 0
M  V30 15265 H 1481.52 0.77278 -0.549104 0
M  V30 15266 H 1481.22 3.16874 -1.52589 0
M  V30 15267 H 1481.1 3.77016 0.11776 0
M  V30 15268 H 1483.48 2.89321 0.581138 0
M  V30 15269 H 1483.56 2.3146 -1.08903 0
M  V30 15270 H 1483.21 4.70573 -1.91111 0
M  V30 15271 H 1483.14 5.26141 -0.219925 0
M  V30 15272 H 1485.63 3.73725 -0.56015 0
M  V30 15273 H 1485.94 7.52489 -1.76012 0
M  V30 15274 H 1484.29 6.76892 -1.57616 0
M  V30 15275 H 1487.48 4.61605 -0.777062 0
M  V30 15276 H 1487.65 6.34329 -1.32403 0
M  V30 15277 N 1481.06 0.105248 1.57248 0
M  V30 15278 C 1482.3 -0.554956 1.94331 0
M  V30 15279 C 1482.63 -1.68087 0.988528 0
M  V30 15280 O 1481.9 -1.95854 0.042366 0
M  V30 15281 H 1480.48 -0.207994 0.717459 0
M  V30 15282 H 1483.14 0.170964 1.94149 0
M  V30 15283 H 1482.23 -0.95853 2.97016 0
M  V30 15284 N 1482.53 -1.56697 -0.168486 0
M  V30 15285 C 1483.44 -1.99866 -1.22845 0
M  V30 15286 C 1484.46 -0.910491 -1.48277 0
M  V30 15287 O 1485.64 -1.21834 -1.6037 0
M  V30 15288 C 1482.7 -2.35227 -2.54694 0
M  V30 15289 C 1481.76 -3.57886 -2.37099 0
M  V30 15290 C 1481 -3.91551 -3.62661 0
M  V30 15291 O 1481.22 -3.26148 -4.67957 0
M  V30 15292 O 1480.15 -4.8489 -3.56603 0
M  V30 15293 H 1483.98 -2.90305 -0.892015 0
M  V30 15294 H 1481.56 -1.44602 -0.375571 0
M  V30 15295 H 1483.45 -2.58928 -3.32467 0
M  V30 15296 H 1482.12 -1.4795 -2.87911 0
M  V30 15297 H 1481.03 -3.394 -1.57348 0
M  V30 15298 H 1482.36 -4.45714 -2.08806 0
M  V30 15299 N 1484.01 0.437135 -1.51416 0
M  V30 15300 C 1484.92 1.55581 -1.75589 0
M  V30 15301 C 1485.94 1.61797 -0.640132 0
M  V30 15302 O 1487.11 1.79035 -0.922406 0
M  V30 15303 C 1484.18 2.91561 -1.87598 0
M  V30 15304 C 1483.24 2.9546 -3.11451 0
M  V30 15305 C 1482.47 4.24954 -3.22878 0
M  V30 15306 O 1482.7 5.17341 -2.40238 0
M  V30 15307 O 1481.63 4.35141 -4.15856 0
M  V30 15308 H 1485.46 1.38098 -2.70486 0
M  V30 15309 H 1483.04 0.620163 -1.3592 0
M  V30 15310 H 1484.92 3.72262 -1.97481 0
M  V30 15311 H 1483.6 3.09171 -0.958889 0
M  V30 15312 H 1482.51 2.13713 -3.07046 0
M  V30 15313 H 1483.84 2.82794 -4.0285 0
M  V30 15314 N 1485.49 1.41566 0.692592 0
M  V30 15315 C 1486.74 1.41292 1.4548 0
M  V30 15316 C 1487.07 0.0229093 1.94186 0
M  V30 15317 O 1486.34 -0.949849 1.6973 0
M  V30 15318 C 1486.63 2.42225 2.66457 0
M  V30 15319 C 1486.48 3.90345 2.23496 0
M  V30 15320 C 1487.8 2.40374 3.68658 0
M  V30 15321 H 1484.92 0.51453 0.527663 0
M  V30 15322 H 1487.56 1.72862 0.788598 0
M  V30 15323 H 1485.71 2.15435 3.23296 0
M  V30 15324 H 1487.38 4.2805 1.71962 0
M  V30 15325 H 1485.63 4.05068 1.55249 0
M  V30 15326 H 1486.3 4.56518 3.10314 0
M  V30 15327 H 1488.77 2.64156 3.21498 0
M  V30 15328 H 1487.65 3.13004 4.5091 0
M  V30 15329 H 1487.91 1.42338 4.1856 0
M  V30 15330 N 1486.97 -0.927146 1.27443 0
M  V30 15331 C 1488.2 -1.70648 1.1646 0
M  V30 15332 C 1488.61 -1.871 -0.28114 0
M  V30 15333 O 1487.95 -1.38813 -1.20319 0
M  V30 15334 C 1488.01 -3.12542 1.77646 0
M  V30 15335 C 1487.68 -3.19425 3.26828 0
M  V30 15336 C 1488.67 -3.01633 4.23454 0
M  V30 15337 C 1486.36 -3.42366 3.67547 0
M  V30 15338 C 1488.35 -3.06672 5.58776 0
M  V30 15339 C 1486.04 -3.47039 5.02998 0
M  V30 15340 C 1487.04 -3.2921 5.98423 0
M  V30 15341 O 1486.72 -3.33619 7.31405 0
M  V30 15342 H 1486.46 -0.540657 0.40579 0
M  V30 15343 H 1489.01 -1.16983 1.68832 0
M  V30 15344 H 1487.24 -3.67691 1.19752 0
M  V30 15345 H 1488.93 -3.72445 1.61369 0
M  V30 15346 H 1489.7 -2.8375 3.93333 0
M  V30 15347 H 1485.57 -3.55294 2.93747 0
M  V30 15348 H 1489.12 -2.92674 6.33236 0
M  V30 15349 H 1485.02 -3.64446 5.32775 0
M  V30 15350 H 1485.78 -3.5007 7.3986 0
M  V30 15351 N 1488.45 -1.09474 -1.13372 0
M  V30 15352 C 1489.69 -0.832323 -1.84933 0
M  V30 15353 C 1490.03 0.640469 -1.83335 0
M  V30 15354 O 1489.3 1.47158 -1.2718 0
M  V30 15355 C 1489.58 -1.36876 -3.33072 0
M  V30 15356 C 1489.44 -2.90769 -3.43181 0
M  V30 15357 C 1490.76 -1.00294 -4.2852 0
M  V30 15358 H 1487.87 -0.30382 -0.671463 0
M  V30 15359 H 1490.52 -1.35622 -1.33066 0
M  V30 15360 H 1488.67 -0.923134 -3.77373 0
M  V30 15361 H 1490.34 -3.43784 -3.07588 0
M  V30 15362 H 1488.58 -3.27876 -2.84042 0
M  V30 15363 H 1489.25 -3.23381 -4.47358 0
M  V30 15364 H 1491.73 -1.38729 -3.92293 0
M  V30 15365 H 1490.6 -1.40533 -5.30605 0
M  V30 15366 H 1490.87 0.0888133 -4.42011 0
M  V30 15367 N 1489.92 1.30607 -0.882012 0
M  V30 15368 C 1490.87 2.2821 -0.344826 0
M  V30 15369 C 1491.84 1.56254 0.563361 0
M  V30 15370 O 1493.03 1.84336 0.492416 0
M  V30 15371 C 1490.17 3.42319 0.437216 0
M  V30 15372 C 1489.28 4.29098 -0.499851 0
M  V30 15373 C 1488.41 5.30366 0.297497 0
M  V30 15374 C 1487.45 6.08795 -0.63523 0
M  V30 15375 N 1486.59 7.01986 0.12661 0
M  V30 15376 H 1491.43 2.73543 -1.18229 0
M  V30 15377 H 1488.97 1.34556 -0.594392 0
M  V30 15378 H 1490.93 4.07232 0.906521 0
M  V30 15379 H 1489.56 2.98063 1.23928 0
M  V30 15380 H 1488.61 3.6452 -1.08764 0
M  V30 15381 H 1489.92 4.83787 -1.21454 0
M  V30 15382 H 1489.07 6.01013 0.828786 0
M  V30 15383 H 1487.81 4.76364 1.04542 0
M  V30 15384 H 1486.82 5.37028 -1.17817 0
M  V30 15385 H 1488.04 6.64885 -1.3822 0
M  V30 15386 H 1485.99 6.50376 0.857125 0
M  V30 15387 H 1485.91 7.5415 -0.528512 0
M  V30 15388 H 1487.17 7.76879 0.638738 0
M  V30 15389 N 1491.4 0.642663 1.43901 0
M  V30 15390 C 1492.35 -0.0553351 2.30734 0
M  V30 15391 C 1493.32 -0.825286 1.44147 0
M  V30 15392 O 1494.5 -0.804012 1.73033 0
M  V30 15393 C 1491.64 -1.02306 3.29587 0
M  V30 15394 C 1490.76 -0.250323 4.31274 0
M  V30 15395 C 1489.89 -1.2109 5.17214 0
M  V30 15396 C 1488.93 -0.427984 6.10602 0
M  V30 15397 N 1488.07 -1.33961 6.89202 0
M  V30 15398 H 1492.91 0.691038 2.89877 0
M  V30 15399 H 1490.45 0.352549 1.42813 0
M  V30 15400 H 1492.4 -1.59763 3.85398 0
M  V30 15401 H 1491.03 -1.73643 2.72117 0
M  V30 15402 H 1490.09 0.440359 3.77843 0
M  V30 15403 H 1491.4 0.358937 4.97507 0
M  V30 15404 H 1490.55 -1.85644 5.776 0
M  V30 15405 H 1489.29 -1.85408 4.51082 0
M  V30 15406 H 1488.3 0.230971 5.49315 0
M  V30 15407 H 1489.52 0.210639 6.78773 0
M  V30 15408 H 1487.47 -1.96978 6.25728 0
M  V30 15409 H 1487.38 -0.784655 7.51917 0
M  V30 15410 H 1488.65 -1.97363 7.54101 0
M  V30 15411 N 1492.88 -1.52852 0.383918 0
M  V30 15412 C 1494.11 -2.05929 -0.200216 0
M  V30 15413 C 1494.52 -1.25606 -1.40956 0
M  V30 15414 O 1493.88 -0.301336 -1.79995 0
M  V30 15415 C 1493.93 -3.56887 -0.575655 0
M  V30 15416 O 1493.65 -4.34168 0.58564 0
M  V30 15417 C 1495.15 -4.2629 -1.21623 0
M  V30 15418 H 1492.37 -0.670261 -0.0314727 0
M  V30 15419 H 1494.92 -1.97032 0.547591 0
M  V30 15420 H 1493.07 -3.65875 -1.27336 0
M  V30 15421 H 1493.49 -5.23761 0.278267 0
M  V30 15422 H 1494.96 -5.33174 -1.42933 0
M  V30 15423 H 1495.44 -3.81163 -2.182 0
M  V30 15424 H 1496.04 -4.21605 -0.559435 0
M  V30 15425 N 1494.36 -0.113586 -1.5719 0
M  V30 15426 C 1495.29 0.875741 -2.10727 0
M  V30 15427 C 1496.27 1.2644 -1.02233 0
M  V30 15428 O 1497.45 1.36641 -1.29852 0
M  V30 15429 C 1494.58 2.17123 -2.59952 0
M  V30 15430 C 1493.63 1.93105 -3.8028 0
M  V30 15431 S 1494.46 1.15223 -5.22957 0
M  V30 15432 C 1495.62 2.45963 -5.75546 0
M  V30 15433 H 1495.85 0.420351 -2.94313 0
M  V30 15434 H 1493.38 0.100081 -1.54075 0
M  V30 15435 H 1495.34 2.91561 -2.88968 0
M  V30 15436 H 1494 2.59781 -1.76558 0
M  V30 15437 H 1493.19 2.89082 -4.12853 0
M  V30 15438 H 1492.8 1.2679 -3.51853 0
M  V30 15439 H 1495.09 3.41835 -5.8494 0
M  V30 15440 H 1496.03 2.17943 -6.73726 0
M  V30 15441 H 1496.44 2.55083 -5.0358 0
M  V30 15442 N 1495.84 1.56784 0.160173 0
M  V30 15443 C 1497.09 1.8226 0.873253 0
M  V30 15444 C 1497.41 0.692384 1.82294 0
M  V30 15445 O 1496.68 -0.286961 1.93787 0
M  V30 15446 H 1495.26 0.672371 0.325463 0
M  V30 15447 H 1497.92 1.94264 0.157325 0
M  V30 15448 H 1497.01 2.76714 1.44345 0
M  V30 15449 N 1497.32 -0.429099 1.51646 0
M  V30 15450 C 1498.73 -0.766217 1.40005 0
M  V30 15451 C 1498.93 -1.95481 0.488837 0
M  V30 15452 O 1497.99 -2.52445 -0.0529101 0
M  V30 15453 C 1499.3 -1.03886 2.82185 0
M  V30 15454 C 1500.85 -1.1428 2.91392 0
M  V30 15455 C 1501.32 -1.44833 4.34497 0
M  V30 15456 N 1502.81 -1.5174 4.37641 0
M  V30 15457 C 1503.55 -1.76968 5.45408 0
M  V30 15458 N 1503.05 -1.99934 6.63324 0
M  V30 15459 N 1504.84 -1.78819 5.32898 0
M  V30 15460 H 1496.99 0.35358 2.09436 0
M  V30 15461 H 1499.25 0.0958189 0.943145 0
M  V30 15462 H 1498.96 -0.238103 3.50893 0
M  V30 15463 H 1498.83 -1.96434 3.22015 0
M  V30 15464 H 1501.22 -1.93418 2.22876 0
M  V30 15465 H 1501.3 -0.19614 2.55047 0
M  V30 15466 H 1500.94 -0.662201 5.03565 0
M  V30 15467 H 1500.87 -2.40718 4.68361 0
M  V30 15468 H 1503.37 -1.35862 3.52633 0
M  V30 15469 H 1503.68 -2.18578 7.41245 0
M  V30 15470 H 1502.02 -1.97239 6.66425 0
M  V30 15471 H 1505.21 -1.60402 4.3976 0
M  V30 15472 H 1505.39 -1.98142 6.16963 0
M  V30 15473 N 1498.79 -1.41931 -0.685074 0
M  V30 15474 C 1499.72 -1.47385 -1.81107 0
M  V30 15475 C 1500.7 -0.331433 -1.6684 0
M  V30 15476 O 1501.89 -0.544331 -1.86415 0
M  V30 15477 C 1499.02 -1.36555 -3.19327 0
M  V30 15478 C 1497.97 -2.48718 -3.48315 0
M  V30 15479 C 1497.3 -2.2295 -4.86002 0
M  V30 15480 C 1498.6 -3.91047 -3.46237 0
M  V30 15481 H 1500.29 -2.41624 -1.768 0
M  V30 15482 H 1497.84 -1.16297 -0.849178 0
M  V30 15483 H 1499.79 -1.38981 -3.97822 0
M  V30 15484 H 1498.52 -0.388063 -3.24286 0
M  V30 15485 H 1497.18 -2.45592 -2.72176 0
M  V30 15486 H 1496.82 -1.23518 -4.87598 0
M  V30 15487 H 1496.52 -2.98116 -5.0636 0
M  V30 15488 H 1498.05 -2.27108 -5.66793 0
M  V30 15489 H 1499.46 -3.95831 -4.14718 0
M  V30 15490 H 1497.86 -4.65981 -3.7813 0
M  V30 15491 H 1498.93 -4.1845 -2.45006 0
M  V30 15492 N 1500.27 0.920374 -1.27933 0
M  V30 15493 C 1501.68 1.48385 -1.13309 0
M  V30 15494 C 1502.03 1.94202 0.279307 0
M  V30 15495 O 1501.16 1.81855 1.17294 0
M  V30 15496 C 1501.75 2.69681 -2.05079 0
M  V30 15497 C 1500.31 3.22229 -1.94539 0
M  V30 15498 C 1499.46 1.94948 -1.97207 0
M  V30 15499 H 1502.41 0.733744 -1.40719 0
M  V30 15500 H 1502.43 3.44717 -1.6109 0
M  V30 15501 H 1501.94 2.36304 -3.07867 0
M  V30 15502 H 1500.04 3.60348 -0.94764 0
M  V30 15503 H 1500.16 3.87927 -2.81157 0
M  V30 15504 H 1498.52 2.1176 -1.41527 0
M  V30 15505 H 1499.3 1.63875 -3.01662 0
M  V30 15506 N 1501.75 1.10074 1.1279 0
M  V30 15507 C 1503 0.842118 1.84489 0
M  V30 15508 C 1503.33 -0.630737 1.83672 0
M  V30 15509 O 1502.6 -1.46481 1.27959 0
M  V30 15510 C 1502.89 1.3864 3.32342 0
M  V30 15511 C 1502.74 2.92585 3.41635 0
M  V30 15512 C 1504.06 1.02565 4.27982 0
M  V30 15513 H 1501.18 0.307376 0.669842 0
M  V30 15514 H 1503.82 1.36326 1.32345 0
M  V30 15515 H 1501.97 0.943134 3.76878 0
M  V30 15516 H 1503.64 3.4541 3.0576 0
M  V30 15517 H 1501.88 3.29378 2.82299 0
M  V30 15518 H 1502.56 3.25749 4.45636 0
M  V30 15519 H 1505.03 1.40807 3.91552 0
M  V30 15520 H 1503.91 1.43345 5.29852 0
M  V30 15521 H 1504.17 -0.0653712 4.42052 0
M  V30 15522 N 1503.23 -1.30138 0.888926 0
M  V30 15523 C 1504.64 -1.48552 0.583486 0
M  V30 15524 C 1504.84 -1.81376 -0.877781 0
M  V30 15525 O 1503.9 -1.90374 -1.65873 0
M  V30 15526 C 1505.21 -2.60613 1.50004 0
M  V30 15527 C 1506.76 -2.74493 1.50409 0
M  V30 15528 C 1507.24 -3.89672 2.40666 0
M  V30 15529 N 1508.73 -3.96988 2.38652 0
M  V30 15530 C 1509.46 -4.85429 3.05199 0
M  V30 15531 N 1508.96 -5.78638 3.80985 0
M  V30 15532 N 1510.75 -4.78831 2.9441 0
M  V30 15533 H 1502.9 -1.07105 1.83418 0
M  V30 15534 H 1505.16 -0.530991 0.785336 0
M  V30 15535 H 1504.87 -2.43191 2.54069 0
M  V30 15536 H 1504.74 -3.5718 1.21254 0
M  V30 15537 H 1507.13 -2.91318 0.470933 0
M  V30 15538 H 1507.21 -1.78535 1.83191 0
M  V30 15539 H 1506.86 -3.73603 3.44069 0
M  V30 15540 H 1506.79 -4.84975 2.05198 0
M  V30 15541 H 1509.28 -3.30313 1.83581 0
M  V30 15542 H 1509.59 -6.42894 4.28844 0
M  V30 15543 H 1507.94 -5.78558 3.85092 0
M  V30 15544 H 1511.13 -4.04995 2.34727 0
M  V30 15545 H 1511.3 -5.47547 3.46549 0
M  V30 15546 N 1504.71 -0.650285 -1.43559 0
M  V30 15547 C 1505.95 -0.171315 -2.02677 0
M  V30 15548 C 1506.31 1.20031 -1.50367 0
M  V30 15549 O 1505.6 1.78901 -0.685922 0
M  V30 15550 C 1505.79 -0.119084 -3.57202 0
M  V30 15551 C 1505.62 -1.4841 -4.24505 0
M  V30 15552 C 1504.39 -2.07575 -4.60696 0
M  V30 15553 C 1506.59 -2.42191 -4.53705 0
M  V30 15554 N 1504.57 -3.37112 -5.13058 0
M  V30 15555 C 1505.94 -3.56359 -5.07354 0
M  V30 15556 C 1508 -2.4103 -4.35671 0
M  V30 15557 C 1506.7 -4.69587 -5.44868 0
M  V30 15558 C 1508.73 -3.53336 -4.74244 0
M  V30 15559 C 1508.09 -4.66229 -5.28024 0
M  V30 15560 H 1504.19 -0.107051 -0.774638 0
M  V30 15561 H 1506.77 -0.857951 -1.74778 0
M  V30 15562 H 1504.94 0.536887 -3.84671 0
M  V30 15563 H 1506.68 0.370487 -4.03001 0
M  V30 15564 H 1503.43 -1.60315 -4.45641 0
M  V30 15565 H 1503.85 -4.03392 -5.43695 0
M  V30 15566 H 1508.5 -1.54988 -3.93368 0
M  V30 15567 H 1506.21 -5.56322 -5.86115 0
M  V30 15568 H 1509.8 -3.53636 -4.61988 0
M  V30 15569 H 1508.68 -5.51693 -5.57319 0
M  V30 15570 N 1506.18 1.52647 -0.392018 0
M  V30 15571 C 1507.12 2.22965 0.486007 0
M  V30 15572 C 1508.09 1.23138 1.06188 0
M  V30 15573 O 1509.28 1.52133 1.113 0
M  V30 15574 C 1506.41 2.94498 1.67298 0
M  V30 15575 C 1505.45 4.08616 1.22211 0
M  V30 15576 S 1506.28 5.35121 0.201397 0
M  V30 15577 C 1507.44 6.10177 1.39409 0
M  V30 15578 H 1507.67 2.97092 -0.111111 0
M  V30 15579 H 1505.21 1.53391 -0.176221 0
M  V30 15580 H 1507.16 3.3632 2.3537 0
M  V30 15581 H 1505.83 2.20045 2.24141 0
M  V30 15582 H 1505.02 4.57778 2.10844 0
M  V30 15583 H 1504.62 3.68821 0.620272 0
M  V30 15584 H 1506.91 6.36514 2.3207 0
M  V30 15585 H 1507.86 7.01788 0.943337 0
M  V30 15586 H 1508.26 5.4099 1.61213 0
M  V30 15587 N 1507.66 0.121921 1.57128 0
M  V30 15588 C 1508.63 -0.812905 2.143 0
M  V30 15589 C 1509.63 -1.19261 1.07858 0
M  V30 15590 O 1510.82 -1.11764 1.33621 0
M  V30 15591 C 1507.95 -2.09969 2.68562 0
M  V30 15592 H 1509.14 -0.315992 2.98231 0
M  V30 15593 H 1506.69 -0.12734 1.5578 0
M  V30 15594 H 1507.43 -2.64085 1.88228 0
M  V30 15595 H 1507.21 -1.83688 3.46412 0
M  V30 15596 H 1508.7 -2.76788 3.12695 0
M  V30 15597 N 1509.14 -1.56867 -0.151857 0
M  V30 15598 C 1510.39 -1.82273 -0.863689 0
M  V30 15599 C 1510.7 -0.702377 -1.82554 0
M  V30 15600 O 1511.91 -0.841903 -2.58117 0
M  V30 15601 C 1510.36 -3.23046 -1.58649 0
M  V30 15602 C 1509.97 -4.43003 -0.667292 0
M  V30 15603 C 1511.72 -3.57729 -2.28539 0
M  V30 15604 C 1509.62 -5.74798 -1.39144 0
M  V30 15605 H 1508.55 -0.679753 -0.326269 0
M  V30 15606 H 1511.2 -1.8313 -0.116454 0
M  V30 15607 H 1509.59 -3.16561 -2.37918 0
M  V30 15608 H 1510.76 -4.60712 0.0898254 0
M  V30 15609 H 1509.08 -4.16329 -0.0770521 0
M  V30 15610 H 1511.67 -4.53451 -2.83348 0
M  V30 15611 H 1512.02 -2.8355 -3.04803 0
M  V30 15612 H 1512.55 -3.65853 -1.56194 0
M  V30 15613 H 1509.29 -6.52059 -0.670747 0
M  V30 15614 H 1508.81 -5.61032 -2.12139 0
M  V30 15615 H 1510.49 -6.17429 -1.93367 0
M  V30 15616 N 1510.62 0.421051 -1.51871 0
M  V30 15617 C 1511.53 1.5371 -1.7723 0
M  V30 15618 C 1512.54 1.61109 -0.657256 0
M  V30 15619 O 1513.72 1.78047 -0.941343 0
M  V30 15620 C 1510.79 2.89555 -1.9068 0
M  V30 15621 C 1509.85 2.9214 -3.14567 0
M  V30 15622 C 1509.08 4.21505 -3.27367 0
M  V30 15623 O 1509.3 5.14764 -2.45712 0
M  V30 15624 O 1508.24 4.30706 -4.20448 0
M  V30 15625 H 1512.06 1.35221 -2.71935 0
M  V30 15626 H 1509.65 0.605712 -1.3657 0
M  V30 15627 H 1511.53 3.70147 -2.01418 0
M  V30 15628 H 1510.2 3.08137 -0.991627 0
M  V30 15629 H 1509.11 2.10444 -3.09296 0
M  V30 15630 H 1510.44 2.78505 -4.05827 0
M  V30 15631 N 1512.1 1.42293 0.677538 0
M  V30 15632 C 1513.32 1.46214 1.47092 0
M  V30 15633 C 1513.75 0.0740989 1.87954 0
M  V30 15634 O 1513.1 -0.926831 1.55819 0
M  V30 15635 C 1513.15 2.39236 2.69812 0
M  V30 15636 O 1512.26 1.86183 3.6798 0
M  V30 15637 H 1511.6 0.495507 0.442006 0
M  V30 15638 H 1514.13 1.86952 0.831274 0
M  V30 15639 H 1514.14 2.55723 3.17915 0
M  V30 15640 H 1512.81 3.40081 2.39411 0
M  V30 15641 H 1511.39 1.79237 3.26999 0
M  V30 15642 N 1513.57 -0.913576 1.28419 0
M  V30 15643 C 1514.5 -2.03275 1.14897 0
M  V30 15644 C 1515.49 -1.70036 0.0467034 0
M  V30 15645 O 1516.67 -1.92907 0.223725 0
M  V30 15646 C 1513.8 -3.37717 0.810217 0
M  V30 15647 C 1512.75 -3.85119 1.86728 0
M  V30 15648 C 1512.08 -5.16527 1.38215 0
M  V30 15649 C 1513.38 -4.06959 3.27386 0
M  V30 15650 H 1515.07 -2.14847 2.08522 0
M  V30 15651 H 1512.62 -1.03233 1.00394 0
M  V30 15652 H 1514.57 -4.15505 0.702382 0
M  V30 15653 H 1513.3 -3.26199 -0.161732 0
M  V30 15654 H 1511.96 -3.09536 1.96426 0
M  V30 15655 H 1511.6 -5.01413 0.399263 0
M  V30 15656 H 1511.3 -5.49213 2.08898 0
M  V30 15657 H 1512.83 -5.96871 1.28754 0
M  V30 15658 H 1514.24 -4.75272 3.20608 0
M  V30 15659 H 1512.64 -4.50977 3.95904 0
M  V30 15660 H 1513.71 -3.11764 3.71391 0
M  V30 15661 N 1515.05 -1.1067 -1.12204 0
M  V30 15662 C 1516 -0.752659 -2.20086 0
M  V30 15663 C 1516.99 0.252284 -1.67511 0
M  V30 15664 O 1518.2 0.112398 -1.79649 0
M  V30 15665 H 1514.58 -0.225473 -0.717402 0
M  V30 15666 H 1516.55 -1.67136 -2.472 0
M  V30 15667 C 1515.3 -0.203345 -3.47105 0
M  V30 15668 H 1514.62 -0.967864 -3.87908 0
M  V30 15669 H 1516.06 0.00629123 -4.24 0
M  V30 15670 C 1514.52 1.06452 -3.1964 0
M  V30 15671 O 1515.05 2.14562 -3.39597 0
M  V30 15672 N 1513.25 0.984122 -2.73429 0
M  V30 15673 H 1512.8 0.104258 -2.57389 0
M  V30 15674 H 1512.76 1.83312 -2.55429 0
M  V30 15675 N 1516.53 1.29665 -0.895815 0
M  V30 15676 C 1517.76 1.99572 -0.534267 0
M  V30 15677 C 1518.17 1.67254 0.884455 0
M  V30 15678 O 1517.51 0.911762 1.59476 0
M  V30 15679 C 1517.57 3.53719 -0.642099 0
M  V30 15680 C 1517.24 4.09583 -2.02709 0
M  V30 15681 C 1518.23 4.24769 -2.99779 0
M  V30 15682 C 1515.92 4.44706 -2.33542 0
M  V30 15683 C 1517.91 4.74305 -4.25809 0
M  V30 15684 C 1515.6 4.93939 -3.59815 0
M  V30 15685 C 1516.6 5.08693 -4.55763 0
M  V30 15686 O 1516.29 5.5686 -5.79795 0
M  V30 15687 H 1516.02 0.644481 -0.204012 0
M  V30 15688 H 1518.57 1.66262 -1.20607 0
M  V30 15689 H 1516.8 3.86603 0.0867197 0
M  V30 15690 H 1518.49 4.04861 -0.290265 0
M  V30 15691 H 1519.26 3.97925 -2.77273 0
M  V30 15692 H 1515.14 4.32483 -1.59622 0
M  V30 15693 H 1518.68 4.85736 -5.00706 0
M  V30 15694 H 1514.58 5.2022 -3.82154 0
M  V30 15695 H 1515.35 5.75182 -5.82329 0
M  V30 15696 N 1518.01 0.657889 1.43212 0
M  V30 15697 C 1519.23 0.179444 2.06622 0
M  V30 15698 C 1519.66 -1.14787 1.49015 0
M  V30 15699 O 1519.02 -1.71016 0.60192 0
M  V30 15700 C 1519.06 0.106826 3.60442 0
M  V30 15701 O 1518.17 -0.92962 4.01786 0
M  V30 15702 H 1517.51 0.0970131 0.656875 0
M  V30 15703 H 1520.04 0.902132 1.83638 0
M  V30 15704 H 1520.05 -0.07495 4.07931 0
M  V30 15705 H 1518.72 1.07574 4.01747 0
M  V30 15706 H 1517.3 -0.720255 3.65878 0
M  V30 15707 N 1519.49 -1.52437 0.400108 0
M  V30 15708 C 1520.73 -2.0201 -0.17887 0
M  V30 15709 C 1521.07 -1.2856 -1.45554 0
M  V30 15710 O 1520.34 -0.389236 -1.90565 0
M  V30 15711 C 1520.62 -3.57453 -0.435784 0
M  V30 15712 C 1520.48 -4.41562 0.85693 0
M  V30 15713 C 1521.8 -4.228 -1.2218 0
M  V30 15714 H 1518.91 -0.734256 -0.063535 0
M  V30 15715 H 1521.56 -1.82406 0.531801 0
M  V30 15716 H 1519.71 -3.74288 -1.04117 0
M  V30 15717 H 1521.38 -4.36456 1.49344 0
M  V30 15718 H 1519.62 -4.08138 1.46989 0
M  V30 15719 H 1520.29 -5.48374 0.631675 0
M  V30 15720 H 1522.77 -4.10009 -0.709359 0
M  V30 15721 H 1521.64 -5.3152 -1.37031 0
M  V30 15722 H 1521.91 -3.81153 -2.23998 0
M  V30 15723 N 1520.96 -0.130252 -1.57061 0
M  V30 15724 C 1522.19 0.531644 -1.99642 0
M  V30 15725 C 1522.6 1.60045 -1.00907 0
M  V30 15726 O 1521.95 1.83699 0.00452296 0
M  V30 15727 C 1522.01 1.20654 -3.38649 0
M  V30 15728 C 1521.67 0.284337 -4.56115 0
M  V30 15729 C 1522.67 -0.481472 -5.17666 0
M  V30 15730 C 1520.35 0.192125 -5.01932 0
M  V30 15731 C 1522.35 -1.32711 -6.23431 0
M  V30 15732 C 1520.03 -0.657135 -6.07557 0
M  V30 15733 C 1521.03 -1.41537 -6.68174 0
M  V30 15734 O 1520.72 -2.25051 -7.71756 0
M  V30 15735 H 1520.45 0.144394 -0.660399 0
M  V30 15736 H 1523.01 -0.216789 -2.04253 0
M  V30 15737 H 1521.24 2.00227 -3.30826 0
M  V30 15738 H 1522.93 1.76647 -3.65446 0
M  V30 15739 H 1523.69 -0.420169 -4.83177 0
M  V30 15740 H 1519.57 0.772017 -4.5449 0
M  V30 15741 H 1523.11 -1.91942 -6.70674 0
M  V30 15742 H 1519.01 -0.719791 -6.41474 0
M  V30 15743 H 1519.78 -2.18116 -7.88903 0
M  V30 15744 N 1522.44 1.56945 0.143535 0
M  V30 15745 C 1523.67 1.87701 0.870401 0
M  V30 15746 C 1524.09 0.718833 1.7458 0
M  V30 15747 O 1523.44 -0.311286 1.79826 0
M  V30 15748 C 1523.49 3.1773 1.72424 0
M  V30 15749 O 1523.22 4.29086 0.884115 0
M  V30 15750 C 1524.72 3.62024 2.55839 0
M  V30 15751 H 1521.94 0.622083 0.251504 0
M  V30 15752 H 1524.48 2.04052 0.135285 0
M  V30 15753 H 1522.64 3.03122 2.41238 0
M  V30 15754 H 1523.05 5.0346 1.47065 0
M  V30 15755 H 1524.52 4.55834 3.11319 0
M  V30 15756 H 1525 2.87481 3.32041 0
M  V30 15757 H 1525.61 3.79338 1.9231 0
M  V30 15758 N 1523.92 -0.412991 1.52093 0
M  V30 15759 C 1525.15 -1.18212 1.69805 0
M  V30 15760 C 1525.56 -1.84386 0.405844 0
M  V30 15761 O 1524.92 -1.71725 -0.617809 0
M  V30 15762 C 1524.97 -2.24811 2.83094 0
M  V30 15763 O 1524.69 -1.61338 4.0731 0
M  V30 15764 C 1526.19 -3.14633 3.12283 0
M  V30 15765 H 1523.41 -0.355371 0.569168 0
M  V30 15766 H 1525.96 -0.486392 1.98632 0
M  V30 15767 H 1524.11 -2.90058 2.56797 0
M  V30 15768 H 1524.53 -2.31979 4.7041 0
M  V30 15769 H 1526 -3.85511 3.95076 0
M  V30 15770 H 1526.48 -3.76785 2.25677 0
M  V30 15771 H 1527.08 -2.55059 3.40331 0
M  V30 15772 N 1525.4 -1.4265 -0.669982 0
M  V30 15773 C 1526.35 -1.46504 -1.7834 0
M  V30 15774 C 1527.32 -0.316478 -1.63057 0
M  V30 15775 O 1528.5 -0.521245 -1.83542 0
M  V30 15776 C 1525.64 -1.37784 -3.16401 0
M  V30 15777 C 1524.75 -2.62714 -3.42937 0
M  V30 15778 C 1523.89 -2.46101 -4.70752 0
M  V30 15779 C 1522.93 -3.66381 -4.90338 0
M  V30 15780 N 1522.07 -3.48681 -6.09398 0
M  V30 15781 H 1526.91 -2.41651 -1.74381 0
M  V30 15782 H 1524.44 -1.1997 -0.851215 0
M  V30 15783 H 1526.4 -1.30725 -3.9619 0
M  V30 15784 H 1525.03 -0.462291 -3.19473 0
M  V30 15785 H 1524.08 -2.8012 -2.57366 0
M  V30 15786 H 1525.39 -3.52108 -3.53301 0
M  V30 15787 H 1524.55 -2.36655 -5.58641 0
M  V30 15788 H 1523.29 -1.54204 -4.6268 0
M  V30 15789 H 1522.29 -3.76254 -4.00891 0
M  V30 15790 H 1523.52 -4.59265 -5.00253 0
M  V30 15791 H 1521.46 -2.59505 -6.02489 0
M  V30 15792 H 1521.38 -4.31666 -6.20645 0
M  V30 15793 H 1522.65 -3.43056 -6.99952 0
M  V30 15794 N 1526.88 0.906753 -1.28902 0
M  V30 15795 C 1528.1 1.69547 -1.19452 0
M  V30 15796 C 1528.53 1.86531 0.242418 0
M  V30 15797 O 1527.89 1.38052 1.17521 0
M  V30 15798 C 1527.93 3.06139 -1.90556 0
M  V30 15799 O 1527.04 3.9401 -1.21779 0
M  V30 15800 H 1526.38 0.518902 -0.41429 0
M  V30 15801 H 1528.91 1.13327 -1.70347 0
M  V30 15802 H 1528.92 3.56326 -1.98736 0
M  V30 15803 H 1527.59 2.93094 -2.95074 0
M  V30 15804 H 1526.17 3.52444 -1.2181 0
M  V30 15805 N 1528.36 1.11264 1.11616 0
M  V30 15806 C 1529.63 0.772174 1.79713 0
M  V30 15807 C 1530.01 -0.740055 1.97703 0
M  V30 15808 O 1529.36 -1.66939 1.56024 0
M  V30 15809 C 1529.57 1.53316 3.13521 0
M  V30 15810 C 1530.92 1.71124 3.88589 0
M  V30 15811 O 1531.94 1.49725 3.23204 0
M  V30 15812 O 1530.8 2.0667 5.05915 0
M  V30 15813 H 1527.9 0.279548 0.77832 0
M  V30 15814 H 1530.44 1.21596 1.18375 0
M  V30 15815 H 1529.21 2.56194 2.95771 0
M  V30 15816 H 1528.84 1.08281 3.82572 0
M  V30 15817 N 1529.83 -1.29188 0.902679 0
M  V30 15818 C 1531.08 -1.95727 0.530909 0
M  V30 15819 C 1531.41 -1.70971 -0.921014 0
M  V30 15820 O 1530.69 -1.02436 -1.65339 0
M  V30 15821 C 1530.97 -3.50463 0.827523 0
M  V30 15822 C 1530.82 -3.84665 2.33137 0
M  V30 15823 C 1532.14 -4.38964 0.316053 0
M  V30 15824 H 1529.26 -0.71091 0.194361 0
M  V30 15825 H 1531.9 -1.52752 1.1299 0
M  V30 15826 H 1530.05 -3.87199 0.317732 0
M  V30 15827 H 1531.73 -3.57859 2.91093 0
M  V30 15828 H 1529.97 -3.32102 2.79088 0
M  V30 15829 H 1530.64 -4.92676 2.48947 0
M  V30 15830 H 1533.12 -4.09237 0.75262 0
M  V30 15831 H 1531.99 -5.4611 0.552769 0
M  V30 15832 H 1532.25 -4.35105 -0.783329 0
M  V30 15833 N 1531.31 -0.665475 -1.42861 0
M  V30 15834 C 1532.56 -0.192802 -2.02484 0
M  V30 15835 C 1532.91 1.18429 -1.51632 0
M  V30 15836 O 1532.21 1.78164 -0.704859 0
M  V30 15837 C 1532.4 -0.156963 -3.57055 0
M  V30 15838 C 1532.23 -1.52904 -4.22907 0
M  V30 15839 C 1531 -2.12449 -4.58469 0
M  V30 15840 C 1533.2 -2.46989 -4.51111 0
M  V30 15841 N 1531.18 -3.42535 -5.09454 0
M  V30 15842 C 1532.55 -3.6172 -5.03546 0
M  V30 15843 C 1534.6 -2.45637 -4.3309 0
M  V30 15844 C 1533.31 -4.75339 -5.39856 0
M  V30 15845 C 1535.33 -3.58346 -4.7047 0
M  V30 15846 C 1534.7 -4.71803 -5.2305 0
M  V30 15847 H 1530.79 -0.115261 -0.773459 0
M  V30 15848 H 1533.38 -0.87644 -1.73858 0
M  V30 15849 H 1531.55 0.496057 -3.85219 0
M  V30 15850 H 1533.28 0.327722 -4.03371 0
M  V30 15851 H 1530.04 -1.65033 -4.43916 0
M  V30 15852 H 1530.46 -4.09135 -5.39386 0
M  V30 15853 H 1535.1 -1.59152 -3.91702 0
M  V30 15854 H 1532.82 -5.62508 -5.80182 0
M  V30 15855 H 1536.41 -3.58516 -4.58211 0
M  V30 15856 H 1535.29 -5.57573 -5.51436 0
M  V30 15857 N 1532.79 1.52222 -0.408187 0
M  V30 15858 C 1534.01 2.06703 0.169901 0
M  V30 15859 C 1534.44 1.27635 1.3817 0
M  V30 15860 O 1533.8 0.306343 1.78693 0
M  V30 15861 C 1533.85 3.57121 0.499663 0
M  V30 15862 O 1532.95 3.80483 1.5908 0
M  V30 15863 H 1532.29 0.663839 0.0146145 0
M  V30 15864 H 1534.82 1.96174 -0.581113 0
M  V30 15865 H 1534.83 4.00886 0.758567 0
M  V30 15866 H 1533.51 4.14103 -0.386182 0
M  V30 15867 H 1532.08 3.48599 1.32413 0
M  V30 15868 N 1534.27 0.138579 1.5699 0
M  V30 15869 C 1535.51 -0.514627 1.95852 0
M  V30 15870 C 1535.84 -1.65424 1.02299 0
M  V30 15871 O 1535.1 -1.95635 0.0505654 0
M  V30 15872 C 1535.4 -1.06969 3.41017 0
M  V30 15873 C 1535.06 -0.049396 4.50873 0
M  V30 15874 C 1533.72 0.231103 4.80645 0
M  V30 15875 C 1536.08 0.644865 5.17195 0
M  V30 15876 C 1533.4 1.21181 5.74049 0
M  V30 15877 C 1535.76 1.61434 6.11655 0
M  V30 15878 C 1534.42 1.90262 6.3981 0
M  V30 15879 H 1533.69 -0.188315 0.716672 0
M  V30 15880 H 1536.34 0.223629 1.9019 0
M  V30 15881 H 1534.64 -1.88511 3.43469 0
M  V30 15882 H 1536.34 -1.58354 3.68409 0
M  V30 15883 H 1532.93 -0.278202 4.27696 0
M  V30 15884 H 1537.11 0.441346 4.94334 0
M  V30 15885 H 1532.37 1.4417 5.94159 0
M  V30 15886 H 1536.54 2.15786 6.62125 0
M  V30 15887 H 1534.17 2.66407 7.11991 0
M  V30 15888 N 1535.75 -1.57019 -0.13521 0
M  V30 15889 C 1536.99 -1.83626 -0.844147 0
M  V30 15890 C 1537.31 -0.721298 -1.81169 0
M  V30 15891 O 1536.58 0.256095 -1.94219 0
M  V30 15892 H 1535.16 -0.677464 -0.314725 0
M  V30 15893 H 1537.83 -1.9449 -0.126399 0
M  V30 15894 H 1536.92 -2.78976 -1.39925 0
M  V30 15895 N 1537.22 0.404919 -1.52309 0
M  V30 15896 C 1538.47 1.15319 -1.66822 0
M  V30 15897 C 1538.8 1.90056 -0.399041 0
M  V30 15898 O 1538.08 1.84927 0.602679 0
M  V30 15899 C 1538.36 2.14426 -2.89298 0
M  V30 15900 C 1538.21 1.43558 -4.26276 0
M  V30 15901 C 1539.53 3.15046 -3.07301 0
M  V30 15902 H 1536.65 0.417869 -0.607087 0
M  V30 15903 H 1539.29 0.438414 -1.84873 0
M  V30 15904 H 1537.44 2.75382 -2.74039 0
M  V30 15905 H 1539.12 0.856899 -4.53271 0
M  V30 15906 H 1537.36 0.737515 -4.27485 0
M  V30 15907 H 1538.03 2.15895 -5.08029 0
M  V30 15908 H 1540.51 2.6417 -3.21486 0
M  V30 15909 H 1539.38 3.81652 -3.94503 0
M  V30 15910 H 1539.64 3.83012 -2.20803 0
M  V30 15911 N 1538.7 1.43003 0.662408 0
M  V30 15912 C 1539.63 1.50248 1.78739 0
M  V30 15913 C 1540.61 0.357934 1.66291 0
M  V30 15914 O 1541.8 0.573919 1.85526 0
M  V30 15915 C 1538.93 1.41618 3.17114 0
M  V30 15916 C 1537.88 2.54228 3.44314 0
M  V30 15917 C 1537.21 2.30653 4.82393 0
M  V30 15918 C 1538.51 3.96505 3.39972 0
M  V30 15919 H 1540.2 2.44406 1.72934 0
M  V30 15920 H 1537.75 1.17633 0.830569 0
M  V30 15921 H 1539.7 1.45293 3.9556 0
M  V30 15922 H 1538.43 0.439605 3.23628 0
M  V30 15923 H 1537.08 2.49891 2.68235 0
M  V30 15924 H 1536.73 1.3126 4.85572 0
M  V30 15925 H 1536.43 3.06134 5.01554 0
M  V30 15926 H 1537.96 2.36096 5.63108 0
M  V30 15927 H 1539.37 4.02378 4.08368 0
M  V30 15928 H 1537.77 4.71937 3.70668 0
M  V30 15929 H 1538.84 4.22295 2.38318 0
M  V30 15930 N 1540.18 -0.899904 1.29381 0
M  V30 15931 C 1541.11 -2.02045 1.17047 0
M  V30 15932 C 1542.09 -1.69977 0.0647354 0
M  V30 15933 O 1543.28 -1.92659 0.244173 0
M  V30 15934 C 1540.41 -3.36839 0.845991 0
M  V30 15935 C 1539.36 -3.83117 1.90802 0
M  V30 15936 C 1538.69 -5.15032 1.43686 0
M  V30 15937 C 1539.99 -4.03464 3.31684 0
M  V30 15938 H 1541.68 -2.12623 2.10789 0
M  V30 15939 H 1539.23 -1.02162 1.01484 0
M  V30 15940 H 1541.18 -4.14737 0.746413 0
M  V30 15941 H 1539.9 -3.26352 -0.127125 0
M  V30 15942 H 1538.56 -3.07435 1.99698 0
M  V30 15943 H 1538.21 -5.00961 0.452422 0
M  V30 15944 H 1537.91 -5.46967 2.14711 0
M  V30 15945 H 1539.43 -5.95472 1.35078 0
M  V30 15946 H 1540.85 -4.71845 3.25631 0
M  V30 15947 H 1539.25 -4.46752 4.00665 0
M  V30 15948 H 1540.32 -3.07807 3.74677 0
M  V30 15949 N 1541.66 -1.11854 -1.11024 0
M  V30 15950 C 1542.9 -0.88128 -1.83317 0
M  V30 15951 C 1543.26 0.586708 -1.83236 0
M  V30 15952 O 1542.55 1.42786 -1.27761 0
M  V30 15953 C 1542.75 -1.3823 -3.29586 0
M  V30 15954 C 1542.58 -2.89747 -3.43914 0
M  V30 15955 C 1541.35 -3.57917 -3.56684 0
M  V30 15956 C 1543.54 -3.8778 -3.37833 0
M  V30 15957 N 1541.53 -4.97608 -3.59526 0
M  V30 15958 C 1542.9 -5.13565 -3.47348 0
M  V30 15959 C 1544.95 -3.80278 -3.21393 0
M  V30 15960 C 1543.65 -6.32731 -3.42117 0
M  V30 15961 C 1545.68 -4.98959 -3.1748 0
M  V30 15962 C 1545.04 -6.236 -3.2757 0
M  V30 15963 H 1541.14 -0.375681 -0.685848 0
M  V30 15964 H 1543.73 -1.4237 -1.32811 0
M  V30 15965 H 1541.9 -0.86701 -3.78599 0
M  V30 15966 H 1543.63 -1.08774 -3.89808 0
M  V30 15967 H 1540.38 -3.08393 -3.59431 0
M  V30 15968 H 1540.81 -5.70451 -3.64575 0
M  V30 15969 H 1545.45 -2.84815 -3.12474 0
M  V30 15970 H 1543.17 -7.28467 -3.49802 0
M  V30 15971 H 1546.75 -4.94878 -3.05919 0
M  V30 15972 H 1545.63 -7.13894 -3.24537 0
M  V30 15973 N 1543.14 1.28707 -0.909517 0
M  V30 15974 C 1544.05 2.31171 -0.399628 0
M  V30 15975 C 1545.06 1.6634 0.510582 0
M  V30 15976 O 1546.24 1.97432 0.397792 0
M  V30 15977 C 1543.3 3.44869 0.355852 0
M  V30 15978 C 1542.36 4.25267 -0.587065 0
M  V30 15979 C 1541.6 5.33536 0.132456 0
M  V30 15980 O 1541.82 5.54075 1.35486 0
M  V30 15981 O 1540.75 5.99561 -0.530062 0
M  V30 15982 H 1544.58 2.76785 -1.24995 0
M  V30 15983 H 1542.17 1.33323 -0.674186 0
M  V30 15984 H 1544.05 4.14068 0.782692 0
M  V30 15985 H 1542.72 3.01345 1.18207 0
M  V30 15986 H 1541.63 3.58673 -1.06322 0
M  V30 15987 H 1542.96 4.72459 -1.37998 0
M  V30 15988 N 1544.61 0.673042 1.42506 0
M  V30 15989 C 1545.86 0.1918 2.00786 0
M  V30 15990 C 1546.18 -1.20814 1.53829 0
M  V30 15991 O 1547.38 -1.78566 2.04515 0
M  V30 15992 C 1545.84 0.292045 3.58713 0
M  V30 15993 C 1545.45 1.69593 4.14659 0
M  V30 15994 C 1547.19 -0.130575 4.24299 0
M  V30 15995 C 1545.1 1.74904 5.64945 0
M  V30 15996 H 1544.03 0.0679452 0.750932 0
M  V30 15997 H 1546.68 0.837968 1.63249 0
M  V30 15998 H 1545.06 -0.421985 3.93745 0
M  V30 15999 H 1546.23 2.4369 3.9109 0
M  V30 16000 H 1544.55 2.06625 3.61518 0
M  V30 16001 H 1547.15 -0.11102 5.34585 0
M  V30 16002 H 1547.49 -1.16552 3.99651 0
M  V30 16003 H 1548.02 0.532386 3.94221 0
M  V30 16004 H 1544.76 2.76374 5.94388 0
M  V30 16005 H 1544.28 1.0516 5.9051 0
M  V30 16006 H 1545.96 1.50168 6.29332 0
M  V30 16007 N 1546.09 -1.52004 0.416254 0
M  V30 16008 C 1547.34 -2.02188 -0.157434 0
M  V30 16009 C 1547.67 -1.30097 -1.44182 0
M  V30 16010 O 1546.95 -0.409426 -1.90142 0
M  V30 16011 C 1547.23 -3.57896 -0.397847 0
M  V30 16012 C 1547.08 -4.40628 0.903715 0
M  V30 16013 C 1548.4 -4.24072 -1.17689 0
M  V30 16014 H 1545.52 -0.734889 -0.0557437 0
M  V30 16015 H 1548.16 -1.81831 0.551118 0
M  V30 16016 H 1546.31 -3.75372 -1.00142 0
M  V30 16017 H 1547.98 -4.34848 1.53964 0
M  V30 16018 H 1546.23 -4.06556 1.5131 0
M  V30 16019 H 1546.9 -5.47673 0.689802 0
M  V30 16020 H 1549.37 -4.10738 -0.665832 0
M  V30 16021 H 1548.25 -5.32944 -1.31386 0
M  V30 16022 H 1548.51 -3.83507 -2.19942 0
M  V30 16023 N 1547.57 -0.146903 -1.56914 0
M  V30 16024 C 1548.8 0.514426 -2.00919 0
M  V30 16025 C 1549.22 1.57632 -1.02634 0
M  V30 16026 O 1548.58 1.813 -0.00207478 0
M  V30 16027 C 1548.63 1.09197 -3.43669 0
M  V30 16028 O 1547.73 2.20684 -3.48385 0
M  V30 16029 H 1547.07 0.125827 -0.651969 0
M  V30 16030 H 1549.6 -0.243607 -2.03145 0
M  V30 16031 H 1549.61 1.42066 -3.82467 0
M  V30 16032 H 1548.29 0.314336 -4.1471 0
M  V30 16033 H 1546.86 1.89045 -3.21429 0
M  V30 16034 N 1549.05 1.57088 0.126881 0
M  V30 16035 C 1549.98 2.02799 1.15737 0
M  V30 16036 C 1550.96 0.911031 1.43646 0
M  V30 16037 O 1552.14 1.18021 1.54223 0
M  V30 16038 C 1549.27 2.42565 2.48555 0
M  V30 16039 C 1548.23 3.57631 2.35125 0
M  V30 16040 C 1547.55 3.83272 3.72836 0
M  V30 16041 C 1548.85 4.89625 1.81838 0
M  V30 16042 H 1550.55 2.89136 0.777207 0
M  V30 16043 H 1548.09 1.39101 0.372416 0
M  V30 16044 H 1550.05 2.73146 3.20888 0
M  V30 16045 H 1548.77 1.53188 2.88446 0
M  V30 16046 H 1547.43 3.27247 1.65242 0
M  V30 16047 H 1547.08 2.91114 4.10197 0
M  V30 16048 H 1546.78 4.60721 3.64705 0
M  V30 16049 H 1548.3 4.16298 4.46686 0
M  V30 16050 H 1549.72 5.18793 2.43981 0
M  V30 16051 H 1548.11 5.71018 1.84548 0
M  V30 16052 H 1549.18 4.7866 0.775385 0
M  V30 16053 N 1550.53 -0.396836 1.52522 0
M  V30 16054 C 1551.77 -1.14037 1.66853 0
M  V30 16055 C 1552.1 -1.90706 0.406987 0
M  V30 16056 O 1551.37 -1.87165 -0.578443 0
M  V30 16057 H 1549.95 -0.423967 0.615029 0
M  V30 16058 H 1552.61 -0.451042 1.89609 0
M  V30 16059 H 1551.7 -1.84763 2.51533 0
M  V30 16060 N 1552.01 -1.43353 -0.654814 0
M  V30 16061 C 1553.25 -1.44599 -1.41193 0
M  V30 16062 C 1553.57 -0.0707955 -1.94871 0
M  V30 16063 O 1552.84 0.893637 -1.7433 0
M  V30 16064 H 1551.42 -0.532373 -0.524011 0
M  V30 16065 H 1554.09 -1.78942 -0.772388 0
M  V30 16066 H 1553.18 -2.15761 -2.25508 0
M  V30 16067 N 1553.48 0.89303 -1.29857 0
M  V30 16068 C 1554.71 1.67744 -1.21119 0
M  V30 16069 C 1555.13 1.87428 0.227198 0
M  V30 16070 O 1554.48 1.41605 1.15128 0
M  V30 16071 C 1554.53 3.05827 -1.92749 0
M  V30 16072 O 1554.26 2.87036 -3.30971 0
M  V30 16073 C 1555.76 4.00248 -1.9057 0
M  V30 16074 H 1552.98 0.523699 -0.4195 0
M  V30 16075 H 1555.52 1.1163 -1.71344 0
M  V30 16076 H 1553.68 3.58696 -1.46342 0
M  V30 16077 H 1554.09 3.74578 -3.6714 0
M  V30 16078 H 1555.56 4.9453 -2.45242 0
M  V30 16079 H 1556.04 4.30237 -0.882753 0
M  V30 16080 H 1556.65 3.53312 -2.36751 0
M  V30 16081 N 1554.96 1.12442 1.10429 0
M  V30 16082 C 1556.37 0.894147 1.63896 0
M  V30 16083 C 1556.72 -0.571509 1.87692 0
M  V30 16084 O 1555.85 -1.43595 1.61893 0
M  V30 16085 C 1556.44 1.61664 2.97742 0
M  V30 16086 C 1555 1.43251 3.48075 0
M  V30 16087 C 1554.15 1.65252 2.22682 0
M  V30 16088 H 1557.1 1.27918 0.939289 0
M  V30 16089 H 1557.12 1.06771 3.65213 0
M  V30 16090 H 1556.63 2.68333 2.80391 0
M  V30 16091 H 1554.73 0.388385 3.7057 0
M  V30 16092 H 1554.85 2.18866 4.26186 0
M  V30 16093 H 1553.21 1.07663 2.30827 0
M  V30 16094 H 1553.99 2.73219 2.07862 0
M  V30 16095 N 1556.44 -1.28223 0.91633 0
M  V30 16096 C 1557.67 -1.98697 0.56595 0
M  V30 16097 C 1558.08 -1.6864 -0.857734 0
M  V30 16098 O 1557.42 -0.937018 -1.58005 0
M  V30 16099 C 1557.48 -3.52653 0.698292 0
M  V30 16100 C 1557.15 -4.06306 2.092 0
M  V30 16101 C 1558.14 -4.19946 3.06499 0
M  V30 16102 C 1555.83 -4.40934 2.40587 0
M  V30 16103 C 1557.82 -4.67471 4.33301 0
M  V30 16104 C 1555.51 -4.88153 3.67628 0
M  V30 16105 C 1556.51 -5.01378 4.63798 0
M  V30 16106 O 1556.2 -5.47566 5.8858 0
M  V30 16107 H 1555.93 -0.641153 0.214239 0
M  V30 16108 H 1558.48 -1.64322 1.23237 0
M  V30 16109 H 1556.71 -3.86692 -0.0252036 0
M  V30 16110 H 1558.4 -4.04348 0.354638 0
M  V30 16111 H 1559.17 -3.93464 2.83569 0
M  V30 16112 H 1555.05 -4.29889 1.66482 0
M  V30 16113 H 1558.59 -4.77709 5.0837 0
M  V30 16114 H 1554.49 -5.14074 3.90382 0
M  V30 16115 H 1555.25 -5.65845 5.91406 0
M  V30 16116 N 1557.92 -0.68059 -1.42147 0
M  V30 16117 C 1559.16 -0.209222 -2.03326 0
M  V30 16118 C 1559.52 1.16419 -1.52678 0
M  V30 16119 O 1560.72 1.73055 -2.05683 0
M  V30 16120 C 1558.99 -0.248331 -3.56536 0
M  V30 16121 S 1560.55 0.151186 -4.38539 0
M  V30 16122 H 1557.37 -0.0854956 -0.705841 0
M  V30 16123 H 1559.97 -0.895033 -1.73809 0
M  V30 16124 H 1558.68 -1.25016 -3.90895 0
M  V30 16125 H 1558.21 0.457124 -3.90735 0
M  V30 16126 H 1560.22 1.38301 -4.76537 0
M  V30 16127 N 1559.4 1.51781 -0.424309 0
M  V30 16128 C 1560.64 2.0157 0.146203 0
M  V30 16129 C 1560.96 1.3111 1.44344 0
M  V30 16130 O 1560.23 0.441631 1.90857 0
M  V30 16131 H 1558.81 0.744821 0.057019 0
M  V30 16132 H 1561.48 1.8656 -0.564031 0
M  V30 16133 H 1560.57 3.10335 0.331464 0
M  V30 16134 N 1560.87 0.155222 1.56834 0
M  V30 16135 C 1561.81 -0.819563 2.12975 0
M  V30 16136 C 1562.78 -1.23685 1.05549 0
M  V30 16137 O 1563.97 -1.3315 1.33429 0
M  V30 16138 C 1561.1 -2.10155 2.65617 0
M  V30 16139 C 1560.14 -1.82954 3.85266 0
M  V30 16140 S 1560.97 -1.01317 5.25828 0
M  V30 16141 C 1562.13 -2.30617 5.81865 0
M  V30 16142 H 1562.36 -0.342172 2.95324 0
M  V30 16143 H 1559.9 -0.0591958 1.54286 0
M  V30 16144 H 1561.85 -2.83797 2.96597 0
M  V30 16145 H 1560.52 -2.55008 1.83383 0
M  V30 16146 H 1559.71 -2.78035 4.20372 0
M  V30 16147 H 1559.31 -1.17417 3.55091 0
M  V30 16148 H 1561.6 -3.26206 5.93798 0
M  V30 16149 H 1562.55 -2.00004 6.79267 0
M  V30 16150 H 1562.95 -2.41642 5.10166 0
M  V30 16151 N 1562.35 -1.57153 -0.118549 0
M  V30 16152 C 1563.58 -1.89062 -0.840429 0
M  V30 16153 C 1563.99 -0.746516 -1.73414 0
M  V30 16154 O 1563.35 0.282638 -1.80298 0
M  V30 16155 C 1563.4 -3.20433 -1.67347 0
M  V30 16156 O 1563.12 -4.30439 -0.815739 0
M  V30 16157 C 1564.62 -3.66048 -2.50047 0
M  V30 16158 H 1561.84 -0.626005 -0.241575 0
M  V30 16159 H 1564.39 -2.04241 -0.102804 0
M  V30 16160 H 1562.54 -3.06922 -2.36385 0
M  V30 16161 H 1562.96 -5.05736 -1.39037 0
M  V30 16162 H 1564.43 -4.60729 -3.04028 0
M  V30 16163 H 1564.91 -2.92727 -3.27426 0
M  V30 16164 H 1565.51 -3.82349 -1.86251 0
M  V30 16165 N 1563.83 0.388742 -1.5273 0
M  V30 16166 C 1565.07 1.14269 -1.69475 0
M  V30 16167 C 1565.43 1.87222 -0.425669 0
M  V30 16168 O 1566.63 2.64668 -0.469486 0
M  V30 16169 C 1564.91 2.09472 -2.8958 0
M  V30 16170 S 1566.46 2.927 -3.26913 0
M  V30 16171 H 1563.28 0.386807 -0.596574 0
M  V30 16172 H 1565.88 0.427089 -1.90778 0
M  V30 16173 H 1564.59 1.54599 -3.80167 0
M  V30 16174 H 1564.12 2.8554 -2.70611 0
M  V30 16175 H 1566.13 4.11605 -2.77121 0
M  V30 16176 N 1565.31 1.43698 0.647203 0
M  V30 16177 C 1566.27 1.48986 1.74172 0
M  V30 16178 C 1567.27 0.373812 1.56395 0
M  V30 16179 O 1568.46 0.635804 1.62183 0
M  V30 16180 C 1565.59 1.34827 3.13104 0
M  V30 16181 H 1566.79 2.46467 1.70863 0
M  V30 16182 H 1564.34 1.30552 0.859409 0
M  V30 16183 H 1565.07 0.383772 3.22021 0
M  V30 16184 H 1564.86 2.15738 3.27414 0
M  V30 16185 H 1566.35 1.41473 3.92906 0
M  V30 16186 N 1566.79 -0.886131 1.30328 0
M  V30 16187 C 1567.7 -2.02453 1.18532 0
M  V30 16188 C 1568.71 -1.7368 0.105506 0
M  V30 16189 O 1569.89 -1.98838 0.320217 0
M  V30 16190 C 1566.95 -3.3543 0.876792 0
M  V30 16191 C 1566.01 -3.77633 2.04185 0
M  V30 16192 C 1565.25 -5.04264 1.74795 0
M  V30 16193 O 1565.47 -5.66388 0.675323 0
M  V30 16194 O 1564.4 -5.42847 2.60001 0
M  V30 16195 H 1568.23 -2.15333 2.14162 0
M  V30 16196 H 1565.82 -1.01193 1.09911 0
M  V30 16197 H 1567.7 -4.15206 0.719882 0
M  V30 16198 H 1566.37 -3.23662 -0.0496117 0
M  V30 16199 H 1565.28 -2.98567 2.25408 0
M  V30 16200 H 1566.61 -3.94004 2.94994 0
M  V30 16201 N 1568.26 -1.13026 -1.09832 0
M  V30 16202 C 1569.19 -0.826338 -2.18389 0
M  V30 16203 C 1570.18 0.212529 -1.68767 0
M  V30 16204 O 1571.36 0.072363 -1.94065 0
M  V30 16205 C 1568.49 -0.286991 -3.46112 0
M  V30 16206 C 1567.44 -1.25963 -4.09044 0
M  V30 16207 C 1566.77 -0.580231 -5.31542 0
M  V30 16208 C 1568.07 -2.61661 -4.5203 0
M  V30 16209 H 1569.76 -1.73408 -2.4407 0
M  V30 16210 H 1567.31 -0.835201 -1.17305 0
M  V30 16211 H 1569.26 -0.062067 -4.21354 0
M  V30 16212 H 1567.99 0.656121 -3.19942 0
M  V30 16213 H 1566.65 -1.47047 -3.35816 0
M  V30 16214 H 1566.29 0.368222 -5.0165 0
M  V30 16215 H 1565.99 -1.2291 -5.74601 0
M  V30 16216 H 1567.52 -0.36449 -6.09511 0
M  V30 16217 H 1568.93 -2.44569 -5.18516 0
M  V30 16218 H 1567.33 -3.22685 -5.05959 0
M  V30 16219 H 1568.4 -3.19637 -3.64637 0
M  V30 16220 N 1569.74 1.27735 -0.923117 0
M  V30 16221 C 1570.97 1.98394 -0.57648 0
M  V30 16222 C 1571.38 1.69093 0.848778 0
M  V30 16223 O 1570.72 0.945385 1.57506 0
M  V30 16224 C 1570.79 3.52278 -0.716984 0
M  V30 16225 C 1570.45 4.05191 -2.11351 0
M  V30 16226 C 1571.45 4.18314 -3.08722 0
M  V30 16227 C 1569.13 4.39652 -2.42922 0
M  V30 16228 C 1571.13 4.65166 -4.35774 0
M  V30 16229 C 1568.81 4.86196 -3.70211 0
M  V30 16230 C 1569.81 4.98911 -4.66451 0
M  V30 16231 O 1569.5 5.44437 -5.91476 0
M  V30 16232 H 1569.23 0.640008 -0.217636 0
M  V30 16233 H 1571.78 1.63666 -1.24107 0
M  V30 16234 H 1570.01 3.867 0.00469601 0
M  V30 16235 H 1571.7 4.04154 -0.376077 0
M  V30 16236 H 1572.47 3.91955 -2.85651 0
M  V30 16237 H 1568.35 4.29 -1.6876 0
M  V30 16238 H 1571.89 4.75006 -5.10896 0
M  V30 16239 H 1567.79 5.11997 -3.93103 0
M  V30 16240 H 1568.56 5.62701 -5.94399 0
M  V30 16241 N 1571.22 0.688118 1.41784 0
M  V30 16242 C 1572.13 0.018397 2.34593 0
M  V30 16243 C 1573.15 -0.774275 1.55824 0
M  V30 16244 O 1574.32 -0.713546 1.88336 0
M  V30 16245 C 1571.39 -0.911914 3.34492 0
M  V30 16246 C 1570.45 -0.112284 4.29153 0
M  V30 16247 C 1569.68 -0.998285 5.2428 0
M  V30 16248 O 1569.9 -2.23782 5.24669 0
M  V30 16249 O 1568.84 -0.451951 6.00201 0
M  V30 16250 H 1572.66 0.783224 2.93427 0
M  V30 16251 H 1570.25 0.448413 1.42512 0
M  V30 16252 H 1572.13 -1.4456 3.95829 0
M  V30 16253 H 1570.81 -1.65636 2.78112 0
M  V30 16254 H 1569.71 0.465822 3.71189 0
M  V30 16255 H 1571.05 0.593338 4.88611 0
M  V30 16256 N 1572.7 -1.51554 0.432352 0
M  V30 16257 C 1573.65 -2.27623 -0.381602 0
M  V30 16258 C 1574.62 -1.31003 -1.02114 0
M  V30 16259 O 1575.8 -1.59899 -1.041 0
M  V30 16260 C 1572.94 -3.11772 -1.47959 0
M  V30 16261 C 1572.05 -4.2338 -0.858682 0
M  V30 16262 C 1571.19 -4.94847 -1.93131 0
M  V30 16263 C 1570.23 -5.98383 -1.28856 0
M  V30 16264 N 1569.36 -6.63278 -2.30233 0
M  V30 16265 H 1574.2 -2.96743 0.273472 0
M  V30 16266 H 1571.74 -1.46367 0.146706 0
M  V30 16267 H 1573.7 -3.58882 -2.12742 0
M  V30 16268 H 1572.33 -2.44778 -2.10437 0
M  V30 16269 H 1571.38 -3.8027 -0.0992797 0
M  V30 16270 H 1572.69 -4.97575 -0.349381 0
M  V30 16271 H 1571.85 -5.4548 -2.65587 0
M  V30 16272 H 1570.59 -4.20272 -2.47432 0
M  V30 16273 H 1569.59 -5.47048 -0.549441 0
M  V30 16274 H 1570.82 -6.74913 -0.752941 0
M  V30 16275 H 1568.76 -5.91518 -2.83624 0
M  V30 16276 H 1568.68 -7.33221 -1.84181 0
M  V30 16277 H 1569.95 -7.18542 -3.02188 0
M  V30 16278 N 1574.18 -0.163538 -1.56749 0
M  V30 16279 C 1575.11 0.765571 -2.20593 0
M  V30 16280 C 1576.09 1.24489 -1.15916 0
M  V30 16281 O 1577.27 1.29946 -1.44318 0
M  V30 16282 C 1574.4 1.99823 -2.84057 0
M  V30 16283 C 1573.36 1.65506 -3.94705 0
M  V30 16284 C 1572.68 2.96172 -4.45181 0
M  V30 16285 C 1573.98 0.88902 -5.14678 0
M  V30 16286 H 1575.68 0.233431 -2.98489 0
M  V30 16287 H 1573.22 0.110836 -1.43573 0
M  V30 16288 H 1575.18 2.65316 -3.27392 0
M  V30 16289 H 1573.9 2.55437 -2.03517 0
M  V30 16290 H 1572.56 1.02384 -3.52013 0
M  V30 16291 H 1572.21 3.49811 -3.61443 0
M  V30 16292 H 1571.91 2.73968 -5.19823 0
M  V30 16293 H 1573.43 3.62708 -4.91198 0
M  V30 16294 H 1574.84 1.44637 -5.54755 0
M  V30 16295 H 1573.24 0.766302 -5.95187 0
M  V30 16296 H 1574.31 -0.116145 -4.84761 0
M  V30 16297 N 1575.65 1.57214 0.110213 0
M  V30 16298 C 1577.07 1.74402 0.666405 0
M  V30 16299 C 1577.42 0.783524 1.79876 0
M  V30 16300 O 1576.54 -0.0415306 2.1636 0
M  V30 16301 C 1577.14 3.1624 1.21564 0
M  V30 16302 C 1575.7 3.34904 1.71804 0
M  V30 16303 C 1574.84 2.70249 0.621347 0
M  V30 16304 H 1577.79 1.58277 -0.115765 0
M  V30 16305 H 1577.81 3.18276 2.0852 0
M  V30 16306 H 1577.33 3.86123 0.391273 0
M  V30 16307 H 1575.43 2.70077 2.56689 0
M  V30 16308 H 1575.54 4.43126 1.82143 0
M  V30 16309 H 1573.9 2.31727 1.05711 0
M  V30 16310 H 1574.69 3.42762 -0.192185 0
M  V30 16311 N 1577.13 -0.380637 1.52934 0
M  V30 16312 C 1578.06 -1.48518 1.74571 0
M  V30 16313 C 1579.08 -1.50272 0.626263 0
M  V30 16314 O 1580.27 -1.54023 0.902167 0
M  V30 16315 C 1577.37 -2.87339 1.79693 0
M  V30 16316 C 1576.54 -3.09454 3.09123 0
M  V30 16317 C 1575.6 -4.28305 3.05682 0
M  V30 16318 O 1574.62 -4.24205 3.79524 0
M  V30 16319 N 1575.83 -5.34932 2.2545 0
M  V30 16320 H 1578.59 -1.30341 2.69873 0
M  V30 16321 H 1576.15 -0.57023 1.51526 0
M  V30 16322 H 1578.14 -3.64961 1.74887 0
M  V30 16323 H 1576.71 -2.98835 0.917414 0
M  V30 16324 H 1575.93 -2.19623 3.27352 0
M  V30 16325 H 1577.22 -3.21089 3.94689 0
M  V30 16326 H 1576.62 -5.41121 1.64939 0
M  V30 16327 H 1575.18 -6.11189 2.26476 0
M  V30 16328 N 1578.61 -1.44039 -0.639573 0
M  V30 16329 C 1579.86 -1.46088 -1.39652 0
M  V30 16330 C 1580.18 -0.0914602 -1.94785 0
M  V30 16331 O 1579.45 0.875097 -1.75268 0
M  V30 16332 H 1578.03 -0.537901 -0.518335 0
M  V30 16333 H 1580.69 -1.79751 -0.753365 0
M  V30 16334 H 1579.79 -2.1814 -2.23207 0
M  V30 16335 N 1580.09 0.879207 -1.30796 0
M  V30 16336 C 1581.32 1.66208 -1.22713 0
M  V30 16337 C 1581.73 1.88014 0.211506 0
M  V30 16338 O 1581.07 1.43183 1.15084 0
M  V30 16339 C 1581.13 3.05733 -1.89123 0
M  V30 16340 C 1580.8 3.07075 -3.38458 0
M  V30 16341 C 1581.79 2.85709 -4.34358 0
M  V30 16342 C 1579.48 3.28489 -3.8 0
M  V30 16343 C 1581.47 2.85722 -5.69773 0
M  V30 16344 C 1579.16 3.28131 -5.15532 0
M  V30 16345 C 1580.16 3.06773 -6.10229 0
M  V30 16346 O 1579.84 3.06243 -7.43283 0
M  V30 16347 H 1579.58 0.525224 -0.425577 0
M  V30 16348 H 1582.13 1.10636 -1.73057 0
M  V30 16349 H 1580.36 3.62993 -1.33316 0
M  V30 16350 H 1582.05 3.66199 -1.7508 0
M  V30 16351 H 1582.82 2.68956 -4.03593 0
M  V30 16352 H 1578.69 3.44147 -3.06731 0
M  V30 16353 H 1582.24 2.6897 -6.43662 0
M  V30 16354 H 1578.14 3.44422 -5.45934 0
M  V30 16355 H 1578.9 3.22369 -7.52343 0
M  V30 16356 N 1581.57 1.13606 1.09231 0
M  V30 16357 C 1582.98 0.87469 1.33497 0
M  V30 16358 C 1583.18 -0.488687 1.95484 0
M  V30 16359 O 1582.24 -1.23478 2.20249 0
M  V30 16360 C 1583.55 2.00086 2.24468 0
M  V30 16361 C 1585.1 2.03319 2.37972 0
M  V30 16362 C 1585.58 3.15205 3.3228 0
M  V30 16363 N 1587.07 3.14728 3.39854 0
M  V30 16364 C 1587.8 3.97941 4.12833 0
M  V30 16365 N 1587.3 4.91172 4.88591 0
M  V30 16366 N 1589.09 3.86032 4.08578 0
M  V30 16367 H 1581.24 2.01432 0.673709 0
M  V30 16368 H 1583.5 0.877259 0.359334 0
M  V30 16369 H 1583.21 2.98397 1.86151 0
M  V30 16370 H 1583.08 1.91673 3.24871 0
M  V30 16371 H 1585.47 1.0562 2.75551 0
M  V30 16372 H 1585.55 2.15804 1.3734 0
M  V30 16373 H 1585.2 4.13143 2.95423 0
M  V30 16374 H 1585.13 2.99957 4.3282 0
M  V30 16375 H 1587.62 2.47196 2.85837 0
M  V30 16376 H 1587.93 5.5115 5.41714 0
M  V30 16377 H 1586.28 4.95177 4.87673 0
M  V30 16378 H 1589.47 3.12522 3.48494 0
M  V30 16379 H 1589.64 4.51111 4.65191 0
M  V30 16380 N 1583.05 -1.27244 0.929878 0
M  V30 16381 C 1583.98 -2.25097 0.375024 0
M  V30 16382 C 1584.96 -1.53726 -0.529833 0
M  V30 16383 O 1586.14 -1.82551 -0.469846 0
M  V30 16384 C 1583.27 -3.35531 -0.462271 0
M  V30 16385 C 1582.31 -4.24809 0.379462 0
M  V30 16386 S 1583.15 -5.04471 1.79637 0
M  V30 16387 C 1584.3 -6.18388 0.966815 0
M  V30 16388 H 1584.54 -2.71813 1.20436 0
M  V30 16389 H 1582.07 -1.35934 0.732211 0
M  V30 16390 H 1584.03 -3.99605 -0.939489 0
M  V30 16391 H 1582.69 -2.87449 -1.26616 0
M  V30 16392 H 1581.88 -5.03321 -0.261515 0
M  V30 16393 H 1581.48 -3.65541 0.790935 0
M  V30 16394 H 1583.77 -6.77193 0.203821 0
M  V30 16395 H 1584.72 -6.86767 1.72502 0
M  V30 16396 H 1585.13 -5.62211 0.507864 0
M  V30 16397 N 1584.52 -0.695628 -1.41417 0
M  V30 16398 C 1585.43 -0.0308378 -2.3458 0
M  V30 16399 C 1586.45 0.766 -1.56232 0
M  V30 16400 O 1587.63 0.703548 -1.88712 0
M  V30 16401 C 1584.69 0.894162 -3.34971 0
M  V30 16402 C 1583.75 0.0895231 -4.29207 0
M  V30 16403 C 1582.98 0.970467 -5.24802 0
M  V30 16404 O 1583.21 2.20997 -5.25848 0
M  V30 16405 O 1582.14 0.420114 -6.00432 0
M  V30 16406 H 1585.97 -0.798775 -2.93007 0
M  V30 16407 H 1583.55 -0.455964 -1.42272 0
M  V30 16408 H 1585.43 1.42458 -3.9659 0
M  V30 16409 H 1584.11 1.64159 -2.78987 0
M  V30 16410 H 1583.02 -0.4855 -3.70936 0
M  V30 16411 H 1584.35 -0.619241 -4.88289 0
M  V30 16412 N 1586 1.51322 -0.440383 0
M  V30 16413 C 1586.93 2.25587 0.40537 0
M  V30 16414 C 1587.95 1.29721 0.983686 0
M  V30 16415 O 1589.14 1.55453 0.877308 0
M  V30 16416 C 1586.24 2.99848 1.57938 0
M  V30 16417 C 1585.41 4.22834 1.11939 0
M  V30 16418 C 1584.47 4.79649 2.16387 0
M  V30 16419 O 1583.49 5.41405 1.75697 0
M  V30 16420 N 1584.7 4.63948 3.48902 0
M  V30 16421 H 1587.46 2.98807 -0.231143 0
M  V30 16422 H 1585.02 1.59642 -0.26944 0
M  V30 16423 H 1587.01 3.34743 2.2744 0
M  V30 16424 H 1585.58 2.29619 2.12117 0
M  V30 16425 H 1584.8 3.93398 0.251323 0
M  V30 16426 H 1586.09 5.02637 0.7895 0
M  V30 16427 H 1585.49 4.14764 3.84691 0
M  V30 16428 H 1584.05 5.03196 4.14291 0
M  V30 16429 N 1587.48 0.171848 1.5666 0
M  V30 16430 C 1588.89 -0.34479 1.83489 0
M  V30 16431 C 1589.24 -1.63025 1.09167 0
M  V30 16432 O 1588.37 -2.13634 0.34488 0
M  V30 16433 C 1588.96 -0.63234 3.32847 0
M  V30 16434 C 1587.52 -1.09342 3.60169 0
M  V30 16435 C 1586.67 -0.129569 2.76997 0
M  V30 16436 H 1589.62 0.396101 1.53677 0
M  V30 16437 H 1589.64 -1.48434 3.50354 0
M  V30 16438 H 1589.15 0.303409 3.86912 0
M  V30 16439 H 1587.25 -2.04425 3.11514 0
M  V30 16440 H 1587.37 -1.00221 4.685 0
M  V30 16441 H 1585.73 -0.627033 2.46861 0
M  V30 16442 H 1586.51 0.800211 3.33844 0
M  V30 16443 N 1588.96 -1.5727 -0.101874 0
M  V30 16444 C 1590.37 -1.5295 -0.455899 0
M  V30 16445 C 1590.57 -0.887526 -1.80901 0
M  V30 16446 O 1589.63 -0.477143 -2.47951 0
M  V30 16447 C 1590.94 -2.97687 -0.424625 0
M  V30 16448 C 1592.49 -3.08867 -0.506963 0
M  V30 16449 C 1592.97 -4.55197 -0.505907 0
M  V30 16450 N 1594.46 -4.59718 -0.566856 0
M  V30 16451 C 1595.19 -5.7038 -0.587766 0
M  V30 16452 N 1594.69 -6.9049 -0.56529 0
M  V30 16453 N 1596.48 -5.58535 -0.632067 0
M  V30 16454 H 1588.63 -1.97381 0.784509 0
M  V30 16455 H 1590.89 -0.902141 0.291284 0
M  V30 16456 H 1590.6 -3.48094 0.502312 0
M  V30 16457 H 1590.47 -3.56022 -1.24612 0
M  V30 16458 H 1592.86 -2.58451 -1.42432 0
M  V30 16459 H 1592.94 -2.53496 0.342544 0
M  V30 16460 H 1592.59 -5.06263 0.407477 0
M  V30 16461 H 1592.52 -5.08399 -1.37253 0
M  V30 16462 H 1595.01 -3.73271 -0.589696 0
M  V30 16463 H 1595.32 -7.70588 -0.584342 0
M  V30 16464 H 1593.67 -6.92957 -0.532444 0
M  V30 16465 H 1596.86 -4.63606 -0.647109 0
M  V30 16466 H 1597.03 -6.44783 -0.644895 0
M  V30 16467 N 1590.44 0.372521 -1.53134 0
M  V30 16468 C 1591.38 1.47633 -1.79742 0
M  V30 16469 C 1592.38 1.55752 -0.66617 0
M  V30 16470 O 1593.58 1.58721 -0.848979 0
M  V30 16471 H 1589.96 0.491677 -0.568997 0
M  V30 16472 H 1591.93 1.22392 -2.72145 0
M  V30 16473 C 1590.68 2.84559 -1.99803 0
M  V30 16474 H 1590 2.79069 -2.86288 0
M  V30 16475 H 1591.44 3.60989 -2.22402 0
M  V30 16476 C 1589.9 3.27861 -0.775162 0
M  V30 16477 O 1590.43 4.01681 0.0394991 0
M  V30 16478 N 1588.64 2.84326 -0.600573 0
M  V30 16479 H 1588.18 2.2442 -1.26466 0
M  V30 16480 H 1588.14 3.13655 0.216241 0
M  V30 16481 N 1591.91 1.44376 0.631925 0
M  V30 16482 C 1593.15 1.48638 1.40307 0
M  V30 16483 C 1593.52 0.115559 1.91652 0
M  V30 16484 O 1594.72 0.0328551 2.6878 0
M  V30 16485 C 1592.99 2.51663 2.53773 0
M  V30 16486 S 1594.55 2.74966 3.41964 0
M  V30 16487 H 1591.37 0.525735 0.478669 0
M  V30 16488 H 1593.97 1.81294 0.731632 0
M  V30 16489 H 1592.67 3.49968 2.14361 0
M  V30 16490 H 1592.2 2.20577 3.25744 0
M  V30 16491 H 1594.22 2.06501 4.51189 0
M  V30 16492 N 1593.39 -0.872258 1.31261 0
M  V30 16493 C 1594.67 -1.60739 1.11456 0
M  V30 16494 C 1595.05 -2.0848 -0.331569 0
M  V30 16495 O 1594.4 -1.86141 -1.32528 0
M  V30 16496 C 1594.61 -2.76714 2.12674 0
M  V30 16497 C 1595.95 -3.46734 2.45074 0
M  V30 16498 O 1596.98 -2.86919 2.11083 0
M  V30 16499 O 1595.84 -4.54632 3.0327 0
M  V30 16500 H 1592.93 -0.70707 0.428929 0
M  V30 16501 H 1595.48 -0.917922 1.42732 0
M  V30 16502 H 1594.25 -2.38834 3.09958 0
M  V30 16503 H 1593.87 -3.5335 1.8229 0
M  V30 16504 N 1594.87 -1.14184 -1.08627 0
M  V30 16505 C 1596.15 -0.81955 -1.77603 0
M  V30 16506 C 1596.53 0.687377 -1.99595 0
M  V30 16507 O 1595.87 1.62744 -1.60396 0
M  V30 16508 C 1596.08 -1.61574 -3.09346 0
M  V30 16509 C 1597.43 -1.81367 -3.83916 0
M  V30 16510 O 1598.46 -1.58241 -3.19121 0
M  V30 16511 O 1597.32 -2.20011 -5.00257 0
M  V30 16512 H 1594.41 -0.300086 -0.770635 0
M  V30 16513 H 1596.96 -1.24691 -1.15109 0
M  V30 16514 H 1595.73 -2.63946 -2.88874 0
M  V30 16515 H 1595.35 -1.18386 -3.79566 0
M  V30 16516 N 1596.35 1.26749 -0.936613 0
M  V30 16517 C 1597.26 2.30272 -0.448573 0
M  V30 16518 C 1598.27 1.67386 0.475184 0
M  V30 16519 O 1599.45 1.98232 0.355825 0
M  V30 16520 C 1596.52 3.45546 0.28262 0
M  V30 16521 C 1595.58 4.23926 -0.677138 0
M  V30 16522 C 1594.81 5.33697 0.019255 0
M  V30 16523 O 1595.03 5.56825 1.23703 0
M  V30 16524 O 1593.97 5.98302 -0.657119 0
M  V30 16525 H 1597.79 2.74072 -1.30838 0
M  V30 16526 H 1595.38 1.31863 -0.702314 0
M  V30 16527 H 1597.26 4.15635 0.694686 0
M  V30 16528 H 1595.93 3.03784 1.11789 0
M  V30 16529 H 1594.84 3.56337 -1.13906 0
M  V30 16530 H 1596.17 4.69425 -1.47988 0
M  V30 16531 N 1597.83 0.703118 1.41046 0
M  V30 16532 C 1599.07 0.237638 2.01403 0
M  V30 16533 C 1599.41 -1.16217 1.55587 0
M  V30 16534 O 1598.68 -1.78593 0.770377 0
M  V30 16535 C 1598.96 0.303738 3.58817 0
M  V30 16536 C 1598.82 1.74103 4.14739 0
M  V30 16537 C 1600.14 -0.332186 4.38845 0
M  V30 16538 H 1597.25 0.0878243 0.731749 0
M  V30 16539 H 1599.9 0.893264 1.67693 0
M  V30 16540 H 1598.05 -0.254485 3.87666 0
M  V30 16541 H 1599.72 2.35368 3.96736 0
M  V30 16542 H 1597.96 2.27277 3.69496 0
M  V30 16543 H 1598.63 1.73876 5.239 0
M  V30 16544 H 1601.11 0.143312 4.15853 0
M  V30 16545 H 1599.98 -0.255429 5.48305 0
M  V30 16546 H 1600.25 -1.41397 4.18878 0
M  V30 16547 N 1599.3 -1.51086 0.448402 0
M  V30 16548 C 1600.53 -2.06293 -0.112531 0
M  V30 16549 C 1600.94 -1.31478 -1.36052 0
M  V30 16550 O 1600.29 -0.370897 -1.79917 0
M  V30 16551 C 1600.35 -3.56156 -0.489178 0
M  V30 16552 C 1600.01 -4.52302 0.653568 0
M  V30 16553 C 1601.01 -4.96909 1.52898 0
M  V30 16554 C 1598.69 -4.9527 0.837448 0
M  V30 16555 C 1600.69 -5.83165 2.57288 0
M  V30 16556 C 1598.37 -5.81314 1.8846 0
M  V30 16557 C 1599.37 -6.25161 2.75069 0
M  V30 16558 O 1599.06 -7.09495 3.77985 0
M  V30 16559 H 1598.79 -0.67597 -0.00641865 0
M  V30 16560 H 1601.35 -1.95515 0.629533 0
M  V30 16561 H 1599.58 -3.64757 -1.28411 0
M  V30 16562 H 1601.27 -3.93828 -0.982548 0
M  V30 16563 H 1602.03 -4.64399 1.3985 0
M  V30 16564 H 1597.91 -4.60676 0.172857 0
M  V30 16565 H 1601.45 -6.1731 3.24921 0
M  V30 16566 H 1597.35 -6.13236 2.01523 0
M  V30 16567 H 1598.12 -7.27697 3.74699 0
M  V30 16568 N 1600.78 -0.180154 -1.56567 0
M  V30 16569 C 1601.69 0.758959 -2.21984 0
M  V30 16570 C 1602.71 1.24631 -1.21422 0
M  V30 16571 O 1603.88 1.29659 -1.54112 0
M  V30 16572 C 1600.95 1.96744 -2.85469 0
M  V30 16573 C 1600.01 1.52612 -4.01258 0
M  V30 16574 C 1599.24 2.677 -4.61706 0
M  V30 16575 O 1599.47 3.84799 -4.21054 0
M  V30 16576 O 1598.4 2.41269 -5.51428 0
M  V30 16577 H 1602.23 0.231919 -3.02813 0
M  V30 16578 H 1599.81 0.0484552 -1.49321 0
M  V30 16579 H 1601.69 2.67404 -3.25689 0
M  V30 16580 H 1600.37 2.48337 -2.0763 0
M  V30 16581 H 1599.28 0.78877 -3.6569 0
M  V30 16582 H 1600.61 1.05701 -4.80716 0
M  V30 16583 N 1602.26 1.57322 0.0935319 0
M  V30 16584 C 1603.19 2.05208 1.11409 0
M  V30 16585 C 1604.17 0.941295 1.41681 0
M  V30 16586 O 1605.36 1.21266 1.51684 0
M  V30 16587 C 1602.49 2.47782 2.43354 0
M  V30 16588 C 1601.44 3.62538 2.27486 0
M  V30 16589 C 1600.77 3.91095 3.64622 0
M  V30 16590 C 1602.07 4.93371 1.71412 0
M  V30 16591 H 1603.76 2.9072 0.715702 0
M  V30 16592 H 1601.31 1.3986 0.342827 0
M  V30 16593 H 1603.26 2.79891 3.15022 0
M  V30 16594 H 1601.98 1.59272 2.85132 0
M  V30 16595 H 1600.64 3.30679 1.58263 0
M  V30 16596 H 1600.29 2.99749 4.0393 0
M  V30 16597 H 1599.99 4.68353 3.5485 0
M  V30 16598 H 1601.51 4.25679 4.37755 0
M  V30 16599 H 1602.93 5.23851 2.32922 0
M  V30 16600 H 1601.33 5.74804 1.72395 0
M  V30 16601 H 1602.4 4.80197 0.67368 0
M  V30 16602 N 1603.74 -0.364395 1.53329 0
M  V30 16603 C 1604.67 -1.46893 1.74636 0
M  V30 16604 C 1605.65 -1.51332 0.594757 0
M  V30 16605 O 1606.83 -1.69366 0.827489 0
M  V30 16606 C 1603.96 -2.85249 1.82622 0
M  V30 16607 C 1603.01 -2.98528 3.04603 0
M  V30 16608 S 1603.84 -2.6716 4.64097 0
M  V30 16609 C 1605 -4.07663 4.74933 0
M  V30 16610 H 1605.23 -1.28599 2.68048 0
M  V30 16611 H 1602.76 -0.558804 1.43933 0
M  V30 16612 H 1604.72 -3.64966 1.87909 0
M  V30 16613 H 1603.38 -3.00852 0.9026 0
M  V30 16614 H 1602.57 -3.99859 3.06804 0
M  V30 16615 H 1602.18 -2.26734 2.97435 0
M  V30 16616 H 1604.47 -5.01922 4.55061 0
M  V30 16617 H 1605.41 -4.10466 5.76995 0
M  V30 16618 H 1605.82 -3.94718 4.03557 0
M  V30 16619 N 1605.22 -1.44709 -0.62426 0
M  V30 16620 C 1606.63 -1.28747 -0.9432 0
M  V30 16621 C 1606.83 -0.228265 -2.00203 0
M  V30 16622 O 1605.89 0.383506 -2.49571 0
M  V30 16623 C 1607.2 -2.66124 -1.39995 0
M  V30 16624 C 1608.75 -2.73889 -1.51506 0
M  V30 16625 C 1609.22 -4.11751 -2.00562 0
M  V30 16626 N 1610.72 -4.13962 -2.07821 0
M  V30 16627 C 1611.45 -5.1749 -2.46964 0
M  V30 16628 N 1610.95 -6.31376 -2.85195 0
M  V30 16629 N 1612.74 -5.04846 -2.47158 0
M  V30 16630 H 1604.89 -2.12264 0.0758746 0
M  V30 16631 H 1607.15 -0.947566 -0.0286915 0
M  V30 16632 H 1606.86 -3.4474 -0.696203 0
M  V30 16633 H 1606.73 -2.93474 -2.36967 0
M  V30 16634 H 1609.12 -1.95587 -2.20975 0
M  V30 16635 H 1609.2 -2.50272 -0.528911 0
M  V30 16636 H 1608.85 -4.90532 -1.31685 0
M  V30 16637 H 1608.78 -4.32749 -3.0006 0
M  V30 16638 H 1611.27 -3.31771 -1.80933 0
M  V30 16639 H 1611.58 -7.06179 -3.13896 0
M  V30 16640 H 1609.92 -6.34804 -2.8293 0
M  V30 16641 H 1613.12 -4.14927 -2.16686 0
M  V30 16642 H 1613.29 -5.85651 -2.77339 0
M  V30 16643 N 1606.69 0.865285 -1.31722 0
M  V30 16644 C 1607.63 1.97919 -1.15588 0
M  V30 16645 C 1608.64 1.6253 -0.0936929 0
M  V30 16646 O 1609.83 1.752 -0.341639 0
M  V30 16647 C 1606.93 3.30614 -0.744814 0
M  V30 16648 C 1606.1 3.94314 -1.89301 0
M  V30 16649 C 1605.16 5.0533 -1.46724 0
M  V30 16650 O 1604.19 5.25898 -2.17762 0
M  V30 16651 N 1605.39 5.794 -0.357262 0
M  V30 16652 H 1608.15 2.12304 -2.11535 0
M  V30 16653 H 1605.71 1.03953 -1.24118 0
M  V30 16654 H 1607.71 4.02273 -0.442594 0
M  V30 16655 H 1606.28 3.12357 0.123186 0
M  V30 16656 H 1605.5 3.15577 -2.3623 0
M  V30 16657 H 1606.78 4.33609 -2.66196 0
M  V30 16658 H 1606.18 5.65215 0.23423 0
M  V30 16659 H 1604.74 6.51699 -0.114599 0
M  V30 16660 N 1608.17 1.14759 1.0802 0
M  V30 16661 C 1609.41 0.928685 1.82085 0
M  V30 16662 C 1609.78 -0.534958 1.84397 0
M  V30 16663 O 1610.98 -0.871945 2.54265 0
M  V30 16664 C 1609.25 1.51791 3.23565 0
M  V30 16665 S 1610.81 1.44114 4.14459 0
M  V30 16666 H 1607.63 0.334389 0.627459 0
M  V30 16667 H 1610.23 1.46182 1.29812 0
M  V30 16668 H 1608.93 2.57622 3.19467 0
M  V30 16669 H 1608.46 0.983343 3.80912 0
M  V30 16670 H 1610.48 0.429366 4.94339 0
M  V30 16671 N 1609.65 -1.26251 0.943322 0
M  V30 16672 C 1610.9 -1.94274 0.602439 0
M  V30 16673 C 1611.25 -1.7263 -0.849506 0
M  V30 16674 O 1610.54 -1.054 -1.60004 0
M  V30 16675 C 1610.74 -3.46316 0.883167 0
M  V30 16676 C 1610.57 -3.82745 2.36085 0
M  V30 16677 C 1609.34 -4.05391 3.01639 0
M  V30 16678 C 1611.54 -3.91131 3.33947 0
M  V30 16679 N 1609.52 -4.28722 4.39398 0
M  V30 16680 C 1610.89 -4.19019 4.56971 0
M  V30 16681 C 1612.94 -3.73767 3.28942 0
M  V30 16682 C 1611.65 -4.3135 5.75613 0
M  V30 16683 C 1613.67 -3.8733 4.46911 0
M  V30 16684 C 1613.03 -4.1562 5.68717 0
M  V30 16685 H 1609.13 -0.733594 0.270859 0
M  V30 16686 H 1611.72 -1.52284 1.21317 0
M  V30 16687 H 1609.89 -3.87228 0.301466 0
M  V30 16688 H 1611.62 -4.01558 0.503336 0
M  V30 16689 H 1608.38 -4.00833 2.5225 0
M  V30 16690 H 1608.8 -4.44416 5.10709 0
M  V30 16691 H 1613.44 -3.50922 2.35825 0
M  V30 16692 H 1611.16 -4.53015 6.69181 0
M  V30 16693 H 1614.75 -3.75296 4.44572 0
M  V30 16694 H 1613.63 -4.25883 6.58478 0
M  V30 16695 N 1611.13 -0.710588 -1.40671 0
M  V30 16696 C 1612.55 -0.383638 -1.54921 0
M  V30 16697 C 1612.75 1.10805 -1.68299 0
M  V30 16698 O 1611.8 1.89406 -1.66978 0
M  V30 16699 C 1613.11 -1.14532 -2.78034 0
M  V30 16700 C 1614.66 -1.13113 -2.91847 0
M  V30 16701 C 1615.14 -1.87487 -4.17867 0
M  V30 16702 N 1616.63 -1.8453 -4.24856 0
M  V30 16703 C 1617.36 -2.38904 -5.2126 0
M  V30 16704 N 1616.86 -3.01813 -6.23603 0
M  V30 16705 N 1618.65 -2.29075 -5.13304 0
M  V30 16706 H 1610.8 -1.67789 -1.30233 0
M  V30 16707 H 1613.07 -0.70892 -0.629393 0
M  V30 16708 H 1612.77 -2.19983 -2.74409 0
M  V30 16709 H 1612.65 -0.733669 -3.69996 0
M  V30 16710 H 1615.03 -0.0848347 -2.94978 0
M  V30 16711 H 1615.11 -1.58196 -2.01017 0
M  V30 16712 H 1614.76 -2.92104 -4.15497 0
M  V30 16713 H 1614.69 -1.39827 -5.07697 0
M  V30 16714 H 1617.18 -1.38679 -3.51535 0
M  V30 16715 H 1617.49 -3.40832 -6.9358 0
M  V30 16716 H 1615.84 -3.05896 -6.24062 0
M  V30 16717 H 1619.03 -1.79589 -4.32279 0
M  V30 16718 H 1619.2 -2.71752 -5.88264 0
M  V30 16719 N 1612.61 1.50847 -0.456408 0
M  V30 16720 C 1613.88 1.94907 0.164485 0
M  V30 16721 C 1614.26 1.39609 1.58343 0
M  V30 16722 O 1613.61 0.590971 2.20726 0
M  V30 16723 C 1613.82 3.48784 0.122794 0
M  V30 16724 C 1615.17 4.234 0.318964 0
M  V30 16725 O 1616.19 3.55638 0.20005 0
M  V30 16726 O 1615.05 5.43649 0.557507 0
M  V30 16727 H 1612.15 0.818298 0.119652 0
M  V30 16728 H 1614.69 1.61673 -0.515758 0
M  V30 16729 H 1613.47 3.81541 -0.868468 0
M  V30 16730 H 1613.09 3.88514 0.84513 0
M  V30 16731 N 1614.09 0.188454 1.56469 0
M  V30 16732 C 1615.5 -0.167487 1.58719 0
M  V30 16733 C 1615.7 -1.61543 1.20442 0
M  V30 16734 O 1614.76 -2.34985 0.924041 0
M  V30 16735 C 1616.07 0.128854 3.00424 0
M  V30 16736 C 1617.62 0.0684301 3.12925 0
M  V30 16737 C 1618.09 0.337991 4.56751 0
M  V30 16738 N 1619.58 0.286373 4.62314 0
M  V30 16739 C 1620.32 0.468886 5.7148 0
M  V30 16740 N 1619.82 0.711388 6.89138 0
M  V30 16741 N 1621.61 0.403602 5.60649 0
M  V30 16742 H 1613.76 1.13339 1.79633 0
M  V30 16743 H 1616.02 0.451885 0.833369 0
M  V30 16744 H 1615.73 1.13255 3.32966 0
M  V30 16745 H 1615.6 -0.571644 3.72843 0
M  V30 16746 H 1617.99 -0.925864 2.802 0
M  V30 16747 H 1618.07 0.801903 2.42906 0
M  V30 16748 H 1617.71 1.32957 4.90189 0
M  V30 16749 H 1617.64 -0.416293 5.24952 0
M  V30 16750 H 1620.14 0.105286 3.77753 0
M  V30 16751 H 1620.45 0.839643 7.68225 0
M  V30 16752 H 1618.79 0.748205 6.90961 0
M  V30 16753 H 1621.98 0.214616 4.67608 0
M  V30 16754 H 1622.16 0.549261 6.45668 0
M  V30 16755 N 1615.56 -1.5737 -0.0851874 0
M  V30 16756 C 1616.97 -1.7544 -0.638575 0
M  V30 16757 C 1617.33 -0.812041 -1.78607 0
M  V30 16758 O 1616.45 0.00710428 -2.16399 0
M  V30 16759 C 1617.05 -3.18134 -1.16517 0
M  V30 16760 C 1615.6 -3.37594 -1.66454 0
M  V30 16761 C 1614.75 -2.71203 -0.578274 0
M  V30 16762 H 1617.7 -1.58073 0.140931 0
M  V30 16763 H 1617.72 -3.21553 -2.0343 0
M  V30 16764 H 1617.24 -3.86696 -0.329794 0
M  V30 16765 H 1615.34 -2.74126 -2.5236 0
M  V30 16766 H 1615.45 -4.45968 -1.75071 0
M  V30 16767 H 1613.81 -2.33379 -1.02011 0
M  V30 16768 H 1614.6 -3.42413 0.246691 0
M  V30 16769 N 1617.04 0.356258 -1.53521 0
M  V30 16770 C 1618.27 1.11666 -1.73823 0
M  V30 16771 C 1618.68 1.83235 -0.471338 0
M  V30 16772 O 1618.02 1.74762 0.566035 0
M  V30 16773 C 1618.08 2.18429 -2.85533 0
M  V30 16774 C 1617.75 1.66545 -4.25572 0
M  V30 16775 C 1618.75 1.12454 -5.07592 0
M  V30 16776 C 1616.43 1.71776 -4.72015 0
M  V30 16777 C 1618.42 0.642826 -6.3415 0
M  V30 16778 C 1616.11 1.23217 -5.98549 0
M  V30 16779 C 1617.11 0.695609 -6.79449 0
M  V30 16780 O 1616.8 0.217211 -8.03606 0
M  V30 16781 H 1616.53 0.339418 -0.584612 0
M  V30 16782 H 1619.08 0.418173 -2.01098 0
M  V30 16783 H 1617.31 2.91798 -2.53753 0
M  V30 16784 H 1619 2.79934 -2.93925 0
M  V30 16785 H 1619.77 1.07745 -4.72881 0
M  V30 16786 H 1615.65 2.12481 -4.09112 0
M  V30 16787 H 1619.19 0.223354 -6.97242 0
M  V30 16788 H 1615.09 1.27623 -6.32758 0
M  V30 16789 H 1615.86 0.335679 -8.17811 0
M  V30 16790 N 1618.52 1.45038 0.616577 0
M  V30 16791 C 1619.43 1.55542 1.75624 0
M  V30 16792 C 1620.45 0.440304 1.68337 0
M  V30 16793 O 1621.62 0.699725 1.88854 0
M  V30 16794 C 1618.69 1.51062 3.1206 0
M  V30 16795 C 1617.75 2.7354 3.30869 0
M  V30 16796 C 1616.98 2.69264 4.60796 0
M  V30 16797 O 1617.2 1.76085 5.42541 0
M  V30 16798 O 1616.14 3.60335 4.82123 0
M  V30 16799 H 1619.96 2.51854 1.69715 0
M  V30 16800 H 1617.55 1.27448 0.779578 0
M  V30 16801 H 1619.43 1.51138 3.93364 0
M  V30 16802 H 1618.11 0.578976 3.1848 0
M  V30 16803 H 1617.01 2.79027 2.49188 0
M  V30 16804 H 1618.35 3.65799 3.2932 0
M  V30 16805 N 1620 -0.858287 1.32179 0
M  V30 16806 C 1621.41 -1.14591 1.1109 0
M  V30 16807 C 1621.61 -2.01194 -0.110998 0
M  V30 16808 O 1620.67 -2.39593 -0.79695 0
M  V30 16809 C 1621.98 -1.82675 2.38852 0
M  V30 16810 C 1623.53 -1.95326 2.44574 0
M  V30 16811 C 1624.01 -2.66826 3.72247 0
M  V30 16812 N 1625.5 -2.74353 3.73208 0
M  V30 16813 C 1626.23 -3.30317 4.68698 0
M  V30 16814 N 1625.73 -3.87121 5.74552 0
M  V30 16815 N 1627.52 -3.28386 4.562 0
M  V30 16816 H 1619.67 -0.281471 2.10527 0
M  V30 16817 H 1621.93 -0.187326 0.929308 0
M  V30 16818 H 1621.64 -1.26495 3.28165 0
M  V30 16819 H 1621.51 -2.82862 2.49537 0
M  V30 16820 H 1623.9 -2.50668 1.55723 0
M  V30 16821 H 1623.98 -0.94147 2.37844 0
M  V30 16822 H 1623.63 -2.12149 4.61471 0
M  V30 16823 H 1623.56 -3.68437 3.76247 0
M  V30 16824 H 1626.05 -2.34051 2.96696 0
M  V30 16825 H 1626.36 -4.2797 6.43476 0
M  V30 16826 H 1624.71 -3.85463 5.78311 0
M  V30 16827 H 1627.9 -2.83254 3.72672 0
M  V30 16828 H 1628.07 -3.71701 5.30794 0
M  V30 16829 N 1621.48 -1.1533 -1.07409 0
M  V30 16830 C 1622.89 -0.937287 -1.61468 0
M  V30 16831 C 1623.24 0.521545 -1.89141 0
M  V30 16832 O 1622.36 1.39253 -1.65643 0
M  V30 16833 C 1622.96 -1.69501 -2.93351 0
M  V30 16834 C 1621.52 -1.52429 -3.44154 0
M  V30 16835 C 1620.66 -1.71098 -2.18222 0
M  V30 16836 H 1623.61 -1.30364 -0.905044 0
M  V30 16837 H 1623.64 -1.16416 -3.62253 0
M  V30 16838 H 1623.15 -2.75672 -2.73178 0
M  V30 16839 H 1621.25 -0.486498 -3.6941 0
M  V30 16840 H 1621.36 -2.30089 -4.20233 0
M  V30 16841 H 1619.73 -1.13745 -2.27891 0
M  V30 16842 H 1620.51 -2.78634 -2.00545 0
M  V30 16843 N 1622.95 1.25748 -0.950004 0
M  V30 16844 C 1624.36 1.75253 -0.643694 0
M  V30 16845 C 1624.72 1.77261 0.841017 0
M  V30 16846 O 1623.84 1.39043 1.65819 0
M  V30 16847 C 1624.44 3.1826 -1.16173 0
M  V30 16848 C 1622.99 3.65342 -0.905672 0
M  V30 16849 C 1622.14 2.4454 -1.30749 0
M  V30 16850 H 1625.09 1.117 -1.12733 0
M  V30 16851 H 1625.11 3.76935 -0.519651 0
M  V30 16852 H 1624.63 3.16766 -2.24234 0
M  V30 16853 H 1622.73 3.72256 0.160174 0
M  V30 16854 H 1622.84 4.53713 -1.53888 0
M  V30 16855 H 1621.2 2.44138 -0.725876 0
M  V30 16856 H 1621.99 2.45741 -2.39721 0
M  V30 16857 N 1624.43 0.718038 1.40292 0
M  V30 16858 C 1625.68 0.258603 2.00842 0
M  V30 16859 C 1626.01 -1.14894 1.56938 0
M  V30 16860 O 1625.26 -1.79414 0.781606 0
M  V30 16861 C 1625.56 0.289374 3.56227 0
M  V30 16862 C 1625.23 1.64756 4.19722 0
M  V30 16863 C 1623.89 2.01934 4.36779 0
M  V30 16864 C 1626.24 2.54008 4.55115 0
M  V30 16865 C 1623.57 3.27905 4.86513 0
M  V30 16866 C 1625.92 3.79334 5.06249 0
M  V30 16867 C 1624.58 4.16626 5.21516 0
M  V30 16868 H 1623.85 0.0946296 0.734933 0
M  V30 16869 H 1626.5 0.921552 1.67868 0
M  V30 16870 H 1624.81 -0.457147 3.89124 0
M  V30 16871 H 1626.5 -0.0839832 4.00912 0
M  V30 16872 H 1623.09 1.34846 4.06835 0
M  V30 16873 H 1627.28 2.2656 4.4157 0
M  V30 16874 H 1622.53 3.56763 4.96518 0
M  V30 16875 H 1626.71 4.48663 5.32611 0
M  V30 16876 H 1624.33 5.14306 5.59815 0
M  V30 16877 N 1625.91 -1.50602 0.464402 0
M  V30 16878 C 1626.87 -2.26929 -0.32185 0
M  V30 16879 C 1627.87 -1.3144 -0.926289 0
M  V30 16880 O 1629.06 -1.54924 -0.796511 0
M  V30 16881 C 1626.2 -3.08155 -1.45785 0
M  V30 16882 H 1627.39 -2.97881 0.347436 0
M  V30 16883 H 1624.94 -1.54768 0.218278 0
M  V30 16884 H 1625.68 -2.41684 -2.16239 0
M  V30 16885 H 1625.46 -3.78321 -1.03031 0
M  V30 16886 H 1626.95 -3.65899 -2.01266 0
M  V30 16887 N 1627.39 -0.19675 -1.56367 0
M  V30 16888 C 1628.32 0.75534 -2.16396 0
M  V30 16889 C 1629.33 1.17558 -1.12623 0
M  V30 16890 O 1630.52 1.11102 -1.39709 0
M  V30 16891 C 1627.62 2.03159 -2.71256 0
M  V30 16892 C 1626.8 1.77088 -3.99948 0
M  V30 16893 C 1625.85 2.89176 -4.39618 0
M  V30 16894 O 1624.88 2.58712 -5.07007 0
M  V30 16895 N 1626.08 4.17569 -4.03257 0
M  V30 16896 H 1628.85 0.241991 -2.98721 0
M  V30 16897 H 1626.41 -0.0148423 -1.61893 0
M  V30 16898 H 1628.4 2.77287 -2.94778 0
M  V30 16899 H 1626.97 2.45611 -1.93375 0
M  V30 16900 H 1626.19 0.867309 -3.84541 0
M  V30 16901 H 1627.48 1.5707 -4.83949 0
M  V30 16902 H 1626.88 4.45171 -3.49054 0
M  V30 16903 H 1625.43 4.88319 -4.31726 0
M  V30 16904 N 1628.87 1.57413 0.0768405 0
M  V30 16905 C 1630.12 1.86186 0.775741 0
M  V30 16906 C 1630.43 0.788676 1.78995 0
M  V30 16907 O 1631.63 0.964095 2.53806 0
M  V30 16908 C 1630.09 3.30247 1.43055 0
M  V30 16909 C 1629.7 4.45682 0.45517 0
M  V30 16910 C 1631.44 3.68225 2.11211 0
M  V30 16911 C 1629.35 5.80782 1.11561 0
M  V30 16912 H 1628.28 0.694546 0.293466 0
M  V30 16913 H 1630.93 1.83477 0.0289478 0
M  V30 16914 H 1629.31 3.27552 2.22544 0
M  V30 16915 H 1630.49 4.59759 -0.309535 0
M  V30 16916 H 1628.8 4.16222 -0.121671 0
M  V30 16917 H 1631.4 4.66454 2.6139 0
M  V30 16918 H 1631.74 2.9777 2.90928 0
M  V30 16919 H 1632.27 3.72888 1.38561 0
M  V30 16920 H 1629.01 6.54517 0.358877 0
M  V30 16921 H 1628.53 5.70515 1.8513 0
M  V30 16922 H 1630.21 6.25951 1.63689 0
M  V30 16923 N 1630.34 -0.348112 1.53707 0
M  V30 16924 C 1631.31 -1.41018 1.80683 0
M  V30 16925 C 1632.31 -1.4582 0.67774 0
M  V30 16926 O 1633.5 -1.46275 0.94601 0
M  V30 16927 C 1630.63 -2.79988 1.94473 0
M  V30 16928 H 1631.82 -1.18365 2.75554 0
M  V30 16929 H 1629.38 -0.582244 1.4505 0
M  V30 16930 H 1630.11 -3.07931 1.0173 0
M  V30 16931 H 1629.9 -2.77899 2.76612 0
M  V30 16932 H 1631.39 -3.56868 2.16876 0
M  V30 16933 N 1631.82 -1.45363 -0.608876 0
M  V30 16934 C 1632.75 -1.56778 -1.7304 0
M  V30 16935 C 1633.73 -0.419405 -1.64848 0
M  V30 16936 O 1634.92 -0.64238 -1.83268 0
M  V30 16937 C 1632.05 -1.5329 -3.1164 0
M  V30 16938 C 1631 -2.66832 -3.34641 0
M  V30 16939 C 1630.33 -2.48398 -4.735 0
M  V30 16940 C 1631.63 -4.0885 -3.25021 0
M  V30 16941 H 1633.32 -2.50656 -1.63743 0
M  V30 16942 H 1630.87 -1.20635 -0.786338 0
M  V30 16943 H 1632.82 -1.59873 -3.89895 0
M  V30 16944 H 1631.55 -0.559414 -3.21773 0
M  V30 16945 H 1630.2 -2.59675 -2.58775 0
M  V30 16946 H 1629.85 -1.49191 -4.80366 0
M  V30 16947 H 1629.55 -3.24537 -4.89846 0
M  V30 16948 H 1631.08 -2.56833 -5.53958 0
M  V30 16949 H 1632.49 -4.17257 -3.93153 0
M  V30 16950 H 1630.89 -4.85369 -3.52897 0
M  V30 16951 H 1631.96 -4.30849 -2.2248 0
M  V30 16952 N 1633.3 0.851265 -1.32632 0
M  V30 16953 C 1634.23 1.96682 -1.17681 0
M  V30 16954 C 1635.25 1.62422 -0.110926 0
M  V30 16955 O 1636.43 1.74828 -0.360202 0
M  V30 16956 C 1633.53 3.29806 -0.779838 0
M  V30 16957 C 1632.71 3.92284 -1.93473 0
M  V30 16958 C 1631.77 5.03745 -1.52075 0
M  V30 16959 O 1630.79 5.23558 -2.23328 0
M  V30 16960 N 1631.99 5.78988 -0.418695 0
M  V30 16961 H 1634.76 2.10049 -2.13775 0
M  V30 16962 H 1632.32 1.02631 -1.25214 0
M  V30 16963 H 1634.31 4.0178 -0.485236 0
M  V30 16964 H 1632.88 3.1247 0.0900498 0
M  V30 16965 H 1632.1 3.13054 -2.39564 0
M  V30 16966 H 1633.39 4.30762 -2.7078 0
M  V30 16967 H 1632.79 5.65432 0.174269 0
M  V30 16968 H 1631.35 6.51541 -0.183714 0
M  V30 16969 N 1634.78 1.15898 1.06796 0
M  V30 16970 C 1635.71 0.88395 2.16122 0
M  V30 16971 C 1636.69 -0.167708 1.69271 0
M  V30 16972 O 1637.87 -0.0208846 1.94189 0
M  V30 16973 C 1635 0.378656 3.4523 0
M  V30 16974 C 1633.96 1.36764 4.05561 0
M  V30 16975 C 1633.28 0.720956 5.29817 0
M  V30 16976 C 1634.58 2.73554 4.44933 0
M  V30 16977 H 1636.28 1.79818 2.39386 0
M  V30 16978 H 1633.82 0.866008 1.15049 0
M  V30 16979 H 1635.78 0.17376 4.21042 0
M  V30 16980 H 1634.5 -0.571063 3.21569 0
M  V30 16981 H 1633.16 1.55899 3.318 0
M  V30 16982 H 1632.81 -0.235089 5.0245 0
M  V30 16983 H 1632.51 1.38101 5.71141 0
M  V30 16984 H 1634.03 0.525963 6.0833 0
M  V30 16985 H 1635.45 2.58231 5.11849 0
M  V30 16986 H 1633.84 3.35986 4.97226 0
M  V30 16987 H 1634.91 3.29192 3.56034 0
M  V30 16988 N 1636.26 -1.25243 0.956659 0
M  V30 16989 C 1637.5 -1.92632 0.611328 0
M  V30 16990 C 1637.83 -1.75272 -0.85467 0
M  V30 16991 O 1637.1 -1.11758 -1.60894 0
M  V30 16992 H 1635.68 -0.712904 0.223109 0
M  V30 16993 H 1638.34 -1.52366 1.21534 0
M  V30 16994 H 1637.43 -3.00516 0.842396 0
M  V30 16995 N 1637.73 -0.725468 -1.3991 0
M  V30 16996 C 1639.15 -0.400048 -1.54505 0
M  V30 16997 C 1639.35 1.09014 -1.69464 0
M  V30 16998 O 1638.41 1.87624 -1.68977 0
M  V30 16999 C 1639.72 -1.17474 -2.76804 0
M  V30 17000 C 1641.27 -1.16202 -2.9063 0
M  V30 17001 C 1641.74 -1.91908 -4.15855 0
M  V30 17002 N 1643.23 -1.89026 -4.22875 0
M  V30 17003 C 1643.97 -2.4442 -5.18697 0
M  V30 17004 N 1643.46 -3.0841 -6.20367 0
M  V30 17005 N 1645.26 -2.34506 -5.10846 0
M  V30 17006 H 1637.41 -1.6916 -1.28447 0
M  V30 17007 H 1639.67 -0.715556 -0.621839 0
M  V30 17008 H 1639.38 -2.22881 -2.72061 0
M  V30 17009 H 1639.25 -0.772871 -3.69197 0
M  V30 17010 H 1641.64 -0.116116 -2.94871 0
M  V30 17011 H 1641.72 -1.60319 -1.99327 0
M  V30 17012 H 1641.36 -2.96494 -4.12375 0
M  V30 17013 H 1641.29 -1.45204 -5.06185 0
M  V30 17014 H 1643.78 -1.42399 -3.50044 0
M  V30 17015 H 1644.1 -3.48169 -6.89926 0
M  V30 17016 H 1642.44 -3.12497 -6.20782 0
M  V30 17017 H 1645.63 -1.84164 -4.3035 0
M  V30 17018 H 1645.81 -2.77976 -5.85349 0
M  V30 17019 N 1639.21 1.50354 -0.472382 0
M  V30 17020 C 1640.15 2.25227 0.367135 0
M  V30 17021 C 1641.12 1.28594 0.99511 0
M  V30 17022 O 1642.31 1.57819 1.03079 0
M  V30 17023 C 1639.43 3.02952 1.51452 0
M  V30 17024 C 1638.48 4.14519 1.0038 0
M  V30 17025 S 1639.31 5.35436 -0.082542 0
M  V30 17026 C 1640.47 6.16709 1.06869 0
M  V30 17027 H 1640.7 2.96086 -0.268437 0
M  V30 17028 H 1638.24 1.52241 -0.257282 0
M  V30 17029 H 1640.19 3.48324 2.17212 0
M  V30 17030 H 1638.85 2.31617 2.12161 0
M  V30 17031 H 1638.05 4.68311 1.86282 0
M  V30 17032 H 1637.65 3.7159 0.423896 0
M  V30 17033 H 1639.94 6.4792 1.98004 0
M  V30 17034 H 1640.88 7.05802 0.570008 0
M  V30 17035 H 1641.29 5.48775 1.3231 0
M  V30 17036 N 1640.69 0.205039 1.56261 0
M  V30 17037 C 1641.62 -0.706815 2.22545 0
M  V30 17038 C 1642.6 -1.21372 1.19176 0
M  V30 17039 O 1643.79 -1.26074 1.47712 0
M  V30 17040 C 1640.92 -1.92221 2.89255 0
M  V30 17041 C 1639.87 -1.54982 3.98954 0
M  V30 17042 C 1639.2 -2.84265 4.52877 0
M  V30 17043 C 1640.5 -0.75225 5.16854 0
M  V30 17044 H 1642.19 -0.15421 2.99003 0
M  V30 17045 H 1639.74 -0.0727309 1.43816 0
M  V30 17046 H 1641.69 -2.56542 3.34311 0
M  V30 17047 H 1640.41 -2.49952 2.10218 0
M  V30 17048 H 1639.07 -0.930155 3.54604 0
M  V30 17049 H 1638.72 -3.40105 3.70591 0
M  V30 17050 H 1638.42 -2.60089 5.26904 0
M  V30 17051 H 1639.95 -3.49557 5.00642 0
M  V30 17052 H 1641.36 -1.29878 5.58395 0
M  V30 17053 H 1639.76 -0.60823 5.9701 0
M  V30 17054 H 1640.83 0.24463 4.84283 0
M  V30 17055 N 1642.17 -1.57451 -0.0684915 0
M  V30 17056 C 1643.08 -2.07274 -1.09885 0
M  V30 17057 C 1644.1 -1.00295 -1.42186 0
M  V30 17058 O 1645.27 -1.31786 -1.52297 0
M  V30 17059 C 1642.34 -2.50949 -2.39219 0
M  V30 17060 C 1641.4 -3.7224 -2.13859 0
M  V30 17061 C 1640.63 -4.13823 -3.37026 0
M  V30 17062 O 1640.85 -3.55248 -4.46268 0
M  V30 17063 O 1639.79 -5.06587 -3.25044 0
M  V30 17064 H 1643.61 -2.9539 -0.705587 0
M  V30 17065 H 1641.2 -1.46698 -0.282849 0
M  V30 17066 H 1643.08 -2.79547 -3.15327 0
M  V30 17067 H 1641.76 -1.6596 -2.77919 0
M  V30 17068 H 1640.66 -3.4872 -1.35445 0
M  V30 17069 H 1642 -4.58091 -1.80038 0
M  V30 17070 N 1643.65 0.339955 -1.5389 0
M  V30 17071 C 1644.61 1.40058 -1.81429 0
M  V30 17072 C 1645.61 1.45458 -0.685463 0
M  V30 17073 O 1646.8 1.45771 -0.953754 0
M  V30 17074 C 1643.93 2.78952 -1.95955 0
M  V30 17075 H 1645.13 1.16902 -2.76178 0
M  V30 17076 H 1642.68 0.574543 -1.45357 0
M  V30 17077 H 1643.41 3.07387 -1.03361 0
M  V30 17078 H 1643.2 2.76429 -2.78082 0
M  V30 17079 H 1644.69 3.55713 -2.18765 0
M  V30 17080 N 1645.13 1.45684 0.601159 0
M  V30 17081 C 1646.54 1.30232 0.922598 0
M  V30 17082 C 1646.74 0.260086 1.99814 0
M  V30 17083 O 1645.8 -0.343753 2.50149 0
M  V30 17084 C 1647.11 2.68318 1.35743 0
M  V30 17085 C 1648.66 2.76264 1.47129 0
M  V30 17086 C 1649.13 4.1489 1.93986 0
M  V30 17087 N 1650.62 4.17216 2.01209 0
M  V30 17088 C 1651.36 5.21354 2.387 0
M  V30 17089 N 1650.86 6.35833 2.75114 0
M  V30 17090 N 1652.65 5.08714 2.39095 0
M  V30 17091 H 1644.8 2.12117 -0.109634 0
M  V30 17092 H 1647.06 0.947902 0.0136129 0
M  V30 17093 H 1646.77 3.45804 0.64127 0
M  V30 17094 H 1646.64 2.97206 2.32268 0
M  V30 17095 H 1649.03 1.99077 2.17835 0
M  V30 17096 H 1649.11 2.51082 0.489028 0
M  V30 17097 H 1648.75 4.92565 1.23864 0
M  V30 17098 H 1648.68 4.37468 2.93137 0
M  V30 17099 H 1651.18 3.34607 1.75632 0
M  V30 17100 H 1651.49 7.11084 3.02622 0
M  V30 17101 H 1649.83 6.39224 2.72795 0
M  V30 17102 H 1653.02 4.18322 2.10057 0
M  V30 17103 H 1653.2 5.89989 2.67987 0
M  V30 17104 N 1646.6 -0.84422 1.33082 0
M  V30 17105 C 1647.55 -1.95363 1.2289 0
M  V30 17106 C 1648.52 -1.65744 0.108705 0
M  V30 17107 O 1649.71 -1.88643 0.286057 0
M  V30 17108 C 1646.85 -3.31228 0.968594 0
M  V30 17109 C 1645.96 -3.73279 2.17455 0
M  V30 17110 C 1645.09 -4.97987 1.84885 0
M  V30 17111 C 1644.13 -5.32558 3.01743 0
M  V30 17112 N 1643.27 -6.48442 2.69197 0
M  V30 17113 H 1648.11 -2.03412 2.17778 0
M  V30 17114 H 1645.65 -0.995461 1.083 0
M  V30 17115 H 1647.6 -4.09494 0.798129 0
M  V30 17116 H 1646.23 -3.22751 0.0564631 0
M  V30 17117 H 1645.29 -2.9058 2.45494 0
M  V30 17118 H 1646.6 -3.94814 3.04834 0
M  V30 17119 H 1645.75 -5.83987 1.64451 0
M  V30 17120 H 1644.49 -4.7841 0.947356 0
M  V30 17121 H 1643.5 -4.45064 3.22797 0
M  V30 17122 H 1644.72 -5.54085 3.9264 0
M  V30 17123 H 1642.67 -6.30363 1.816 0
M  V30 17124 H 1642.58 -6.70046 3.50106 0
M  V30 17125 H 1643.85 -7.37568 2.52217 0
M  V30 17126 N 1648.08 -1.16463 -1.0618 0
M  V30 17127 C 1649.04 -0.874674 -2.11854 0
M  V30 17128 C 1650.04 0.130829 -1.60267 0
M  V30 17129 O 1651.23 -0.100195 -1.73912 0
M  V30 17130 C 1648.37 -0.30826 -3.39503 0
M  V30 17131 H 1649.56 -1.81149 -2.39009 0
M  V30 17132 H 1647.11 -0.973721 -1.22264 0
M  V30 17133 H 1647.85 0.636181 -3.17999 0
M  V30 17134 H 1647.63 -1.03281 -3.78253 0
M  V30 17135 H 1649.12 -0.123378 -4.17418 0
M  V30 17136 N 1649.56 1.24734 -0.963288 0
M  V30 17137 C 1650.79 1.9646 -0.639305 0
M  V30 17138 C 1651.2 1.71708 0.794553 0
M  V30 17139 O 1650.54 0.995015 1.54419 0
M  V30 17140 C 1650.6 3.49818 -0.828696 0
M  V30 17141 C 1650.27 3.98262 -2.24135 0
M  V30 17142 C 1651.26 4.08281 -3.21874 0
M  V30 17143 C 1648.95 4.31701 -2.56786 0
M  V30 17144 C 1650.94 4.51067 -4.50352 0
M  V30 17145 C 1648.63 4.74172 -3.85492 0
M  V30 17146 C 1649.63 4.83819 -4.82087 0
M  V30 17147 O 1649.32 5.25344 -6.08497 0
M  V30 17148 H 1649.05 0.63276 -0.237888 0
M  V30 17149 H 1651.6 1.59635 -1.29251 0
M  V30 17150 H 1649.83 3.86519 -0.118332 0
M  V30 17151 H 1651.52 4.02753 -0.504465 0
M  V30 17152 H 1652.29 3.82668 -2.97976 0
M  V30 17153 H 1648.17 4.23414 -1.82323 0
M  V30 17154 H 1651.71 4.58512 -5.2575 0
M  V30 17155 H 1647.61 4.99231 -4.09192 0
M  V30 17156 H 1648.37 5.43506 -6.12 0
M  V30 17157 N 1651.04 0.732878 1.39523 0
M  V30 17158 C 1652.28 0.280305 2.00854 0
M  V30 17159 C 1652.62 -1.12891 1.58017 0
M  V30 17160 O 1651.89 -1.76919 0.808086 0
M  V30 17161 C 1652.17 0.37978 3.58092 0
M  V30 17162 C 1652.03 1.82861 4.10953 0
M  V30 17163 C 1653.35 -0.239026 4.3945 0
M  V30 17164 H 1650.47 0.103326 0.729721 0
M  V30 17165 H 1653.11 0.928634 1.6576 0
M  V30 17166 H 1651.26 -0.172198 3.88118 0
M  V30 17167 H 1652.93 2.4373 3.91655 0
M  V30 17168 H 1651.17 2.35064 3.64592 0
M  V30 17169 H 1651.84 1.84949 5.20094 0
M  V30 17170 H 1654.32 0.231488 4.15456 0
M  V30 17171 H 1653.2 -0.139068 5.48724 0
M  V30 17172 H 1653.46 -1.32481 4.21783 0
M  V30 17173 N 1652.52 -1.50101 0.480349 0
M  V30 17174 C 1653.46 -2.30347 -0.322924 0
M  V30 17175 C 1654.46 -1.3804 -0.981904 0
M  V30 17176 O 1655.66 -1.55188 -0.91195 0
M  V30 17177 H 1652.04 -0.741875 -0.122985 0
M  V30 17178 H 1654.01 -2.96045 0.374155 0
M  V30 17179 C 1652.76 -3.18844 -1.38686 0
M  V30 17180 H 1652.08 -3.89787 -0.889181 0
M  V30 17181 H 1653.52 -3.77971 -1.9213 0
M  V30 17182 C 1651.98 -2.37058 -2.39385 0
M  V30 17183 O 1652.51 -2.06016 -3.44848 0
M  V30 17184 N 1650.72 -1.99465 -2.11334 0
M  V30 17185 H 1650.26 -2.24909 -1.25593 0
M  V30 17186 H 1650.22 -1.45048 -2.78942 0
M  V30 17187 N 1653.99 -0.213323 -1.5615 0
M  V30 17188 C 1654.93 0.739954 -2.1587 0
M  V30 17189 C 1655.9 1.19683 -1.10067 0
M  V30 17190 O 1657.09 1.28106 -1.38279 0
M  V30 17191 C 1654.22 2.00152 -2.73234 0
M  V30 17192 C 1653.26 1.68529 -3.91791 0
M  V30 17193 S 1654.09 0.817317 -5.29226 0
M  V30 17194 C 1655.25 2.08863 -5.90023 0
M  V30 17195 H 1655.48 0.232328 -2.96391 0
M  V30 17196 H 1653.02 0.00189263 -1.544 0
M  V30 17197 H 1654.97 2.72594 -3.06925 0
M  V30 17198 H 1653.64 2.48027 -1.92722 0
M  V30 17199 H 1652.83 2.62241 -4.30402 0
M  V30 17200 H 1652.43 1.04157 -3.59204 0
M  V30 17201 H 1654.72 3.03943 -6.05495 0
M  V30 17202 H 1655.67 1.74656 -6.86222 0
M  V30 17203 H 1656.07 2.22541 -5.18783 0
M  V30 17204 N 1655.47 1.57485 0.0601405 0
M  V30 17205 C 1656.7 1.92438 0.773466 0
M  V30 17206 C 1657.12 0.810755 1.6973 0
M  V30 17207 O 1656.48 -0.235697 1.79761 0
M  V30 17208 C 1656.53 3.26381 1.53323 0
M  V30 17209 O 1655.63 3.16436 2.64465 0
M  V30 17210 H 1654.97 0.629838 0.210239 0
M  V30 17211 H 1657.5 2.04585 0.0248981 0
M  V30 17212 H 1657.51 3.60534 1.90996 0
M  V30 17213 H 1656.19 4.07007 0.855468 0
M  V30 17214 H 1654.77 2.93862 2.29564 0
M  V30 17215 N 1656.95 -0.331789 1.54068 0
M  V30 17216 C 1657.88 -1.41332 1.8587 0
M  V30 17217 C 1658.86 -1.54353 0.714787 0
M  V30 17218 O 1660.05 -1.68368 0.967777 0
M  V30 17219 C 1657.18 -2.78218 2.07875 0
M  V30 17220 C 1656.13 -2.79994 3.23709 0
M  V30 17221 C 1655.46 -4.19878 3.31069 0
M  V30 17222 C 1656.76 -2.44476 4.6155 0
M  V30 17223 H 1658.45 -1.14966 2.76447 0
M  V30 17224 H 1656 -0.551615 1.33016 0
M  V30 17225 H 1657.95 -3.53937 2.28706 0
M  V30 17226 H 1656.67 -3.06044 1.14038 0
M  V30 17227 H 1655.33 -2.0673 3.02751 0
M  V30 17228 H 1654.98 -4.44831 2.34807 0
M  V30 17229 H 1654.68 -4.21974 4.08915 0
M  V30 17230 H 1656.2 -4.97421 3.54125 0
M  V30 17231 H 1657.62 -3.09908 4.82317 0
M  V30 17232 H 1656.02 -2.57837 5.41886 0
M  V30 17233 H 1657.09 -1.3964 4.64358 0
M  V30 17234 N 1658.43 -1.46001 -0.593424 0
M  V30 17235 C 1659.68 -1.50755 -1.352 0
M  V30 17236 C 1660 -0.154929 -1.93882 0
M  V30 17237 O 1659.26 0.848161 -1.76365 0
M  V30 17238 C 1659.56 -2.54568 -2.50858 0
M  V30 17239 C 1659.22 -3.98888 -2.10236 0
M  V30 17240 C 1657.89 -4.38182 -1.98872 0
M  V30 17241 C 1660.24 -4.89591 -1.78746 0
M  V30 17242 C 1657.57 -5.66057 -1.5426 0
M  V30 17243 C 1659.92 -6.17892 -1.35617 0
M  V30 17244 C 1658.58 -6.56103 -1.22822 0
M  V30 17245 H 1657.85 -0.551652 -0.494734 0
M  V30 17246 H 1660.5 -1.79422 -0.669327 0
M  V30 17247 H 1658.8 -2.19523 -3.24526 0
M  V30 17248 H 1660.5 -2.5548 -3.09081 0
M  V30 17249 H 1657.09 -3.67822 -2.20012 0
M  V30 17250 H 1661.27 -4.59959 -1.86416 0
M  V30 17251 H 1656.53 -5.94444 -1.42988 0
M  V30 17252 H 1660.7 -6.87609 -1.10301 0
M  V30 17253 H 1658.33 -7.55086 -0.880285 0
M  V30 17254 N 1659.91 0.83715 -1.33527 0
M  V30 17255 C 1660.82 1.97915 -1.25964 0
M  V30 17256 C 1661.83 1.73169 -0.169894 0
M  V30 17257 O 1663.01 1.97513 -0.393793 0
M  V30 17258 C 1660.07 3.31945 -1.00068 0
M  V30 17259 C 1659.13 3.69795 -2.1806 0
M  V30 17260 C 1658.37 4.97429 -1.9339 0
M  V30 17261 O 1658.59 5.63492 -0.885069 0
M  V30 17262 O 1657.52 5.32823 -2.79969 0
M  V30 17263 H 1661.35 2.07236 -2.22007 0
M  V30 17264 H 1658.94 0.970437 -1.13591 0
M  V30 17265 H 1660.82 4.12248 -0.873487 0
M  V30 17266 H 1659.49 3.23623 -0.0705475 0
M  V30 17267 H 1658.4 2.89995 -2.36334 0
M  V30 17268 H 1659.73 3.82784 -3.09414 0
M  V30 17269 N 1661.38 1.17024 1.05561 0
M  V30 17270 C 1662.33 0.879696 2.15323 0
M  V30 17271 C 1663.33 -0.154191 1.68697 0
M  V30 17272 O 1664.53 -0.00746608 1.79998 0
M  V30 17273 H 1660.91 0.266916 0.703036 0
M  V30 17274 H 1662.88 1.81264 2.37035 0
M  V30 17275 C 1661.63 0.405371 3.45329 0
M  V30 17276 H 1660.95 1.19238 3.81605 0
M  V30 17277 H 1662.39 0.240923 4.23315 0
M  V30 17278 C 1660.85 -0.876349 3.25303 0
M  V30 17279 O 1661.38 -1.94397 3.51529 0
M  V30 17280 N 1659.59 -0.823031 2.78702 0
M  V30 17281 H 1659.13 0.0459847 2.57559 0
M  V30 17282 H 1659.09 -1.68108 2.65682 0
M  V30 17283 N 1662.86 -1.24221 0.969889 0
M  V30 17284 C 1664.11 -1.92353 0.632976 0
M  V30 17285 C 1664.44 -1.75801 -0.832131 0
M  V30 17286 O 1663.69 -1.10614 -1.6144 0
M  V30 17287 C 1663.99 -3.44365 0.956427 0
M  V30 17288 C 1663.66 -3.81088 2.41003 0
M  V30 17289 C 1662.32 -3.90823 2.80732 0
M  V30 17290 C 1664.67 -3.99002 3.35331 0
M  V30 17291 C 1662 -4.15891 4.13825 0
M  V30 17292 C 1664.35 -4.25567 4.68055 0
M  V30 17293 C 1663.02 -4.33522 5.07558 0
M  V30 17294 H 1662.29 -0.703869 0.231622 0
M  V30 17295 H 1664.93 -1.47461 1.22179 0
M  V30 17296 H 1663.24 -3.90759 0.285402 0
M  V30 17297 H 1664.93 -3.95293 0.674107 0
M  V30 17298 H 1661.52 -3.74077 2.09199 0
M  V30 17299 H 1665.71 -3.90881 3.0582 0
M  V30 17300 H 1660.96 -4.2027 4.44053 0
M  V30 17301 H 1665.14 -4.38372 5.41113 0
M  V30 17302 H 1662.77 -4.52699 6.10711 0
M  V30 17303 N 1664.34 -0.740267 -1.39132 0
M  V30 17304 C 1665.57 -0.30093 -2.047 0
M  V30 17305 C 1665.98 1.0661 -1.5582 0
M  V30 17306 O 1665.34 1.67465 -0.725388 0
M  V30 17307 C 1665.39 -0.299574 -3.60257 0
M  V30 17308 O 1665.11 -1.61265 -4.07339 0
M  V30 17309 C 1666.61 0.155279 -4.43028 0
M  V30 17310 H 1663.83 -0.130652 -0.658157 0
M  V30 17311 H 1666.38 -1.00539 -1.78079 0
M  V30 17312 H 1664.53 0.356041 -3.8576 0
M  V30 17313 H 1664.95 -1.52977 -5.01695 0
M  V30 17314 H 1666.42 0.105068 -5.519 0
M  V30 17315 H 1666.9 1.20123 -4.22454 0
M  V30 17316 H 1667.5 -0.470965 -4.22684 0
M  V30 17317 N 1665.82 1.49844 -0.488302 0
M  V30 17318 C 1667.05 2.06519 0.0577968 0
M  V30 17319 C 1667.46 1.35039 1.32519 0
M  V30 17320 O 1666.8 0.418468 1.7887 0
M  V30 17321 C 1666.86 3.57328 0.394577 0
M  V30 17322 C 1666.53 4.50411 -0.773259 0
M  V30 17323 C 1667.52 4.9268 -1.66019 0
M  V30 17324 C 1665.21 4.92875 -0.968465 0
M  V30 17325 C 1667.2 5.76139 -2.72659 0
M  V30 17326 C 1664.89 5.76113 -2.03806 0
M  V30 17327 C 1665.89 6.17648 -2.91548 0
M  V30 17328 O 1665.57 6.99224 -3.96663 0
M  V30 17329 H 1665.31 0.675902 -0.0115057 0
M  V30 17330 H 1667.86 1.93777 -0.681149 0
M  V30 17331 H 1666.09 3.68033 1.18695 0
M  V30 17332 H 1667.78 3.96295 0.877786 0
M  V30 17333 H 1668.55 4.60528 -1.52114 0
M  V30 17334 H 1664.42 4.60056 -0.294936 0
M  V30 17335 H 1667.97 6.08478 -3.41174 0
M  V30 17336 H 1663.87 6.07678 -2.17711 0
M  V30 17337 H 1664.63 7.17507 -3.93861 0
M  V30 17338 N 1667.3 0.221601 1.56034 0
M  V30 17339 C 1668.26 -0.674973 2.19036 0
M  V30 17340 C 1669.26 -1.1216 1.15225 0
M  V30 17341 O 1670.45 -1.0304 1.40458 0
M  V30 17342 C 1667.58 -1.92465 2.81372 0
M  V30 17343 H 1668.77 -0.125689 2.99637 0
M  V30 17344 H 1666.33 -0.0280114 1.56275 0
M  V30 17345 H 1667.06 -2.5158 2.04641 0
M  V30 17346 H 1666.85 -1.61286 3.57392 0
M  V30 17347 H 1668.34 -2.56342 3.29664 0
M  V30 17348 N 1668.77 -1.57515 -0.0517878 0
M  V30 17349 C 1670.02 -1.87843 -0.745624 0
M  V30 17350 C 1670.34 -0.816318 -1.77091 0
M  V30 17351 O 1669.61 0.152784 -1.95303 0
M  V30 17352 H 1668.19 -0.693194 -0.278372 0
M  V30 17353 H 1670.86 -1.94886 -0.0231267 0
M  V30 17354 H 1669.95 -2.86001 -1.2494 0
M  V30 17355 N 1670.25 0.323614 -1.54242 0
M  V30 17356 C 1671.5 1.05909 -1.71657 0
M  V30 17357 C 1671.82 1.89177 -0.497151 0
M  V30 17358 O 1673.02 2.65816 -0.552649 0
M  V30 17359 C 1671.48 1.93246 -3.03618 0
M  V30 17360 C 1671.09 1.1509 -4.32965 0
M  V30 17361 C 1672.83 2.6653 -3.30397 0
M  V30 17362 C 1670.74 2.01573 -5.55988 0
M  V30 17363 H 1669.67 0.399114 -0.639706 0
M  V30 17364 H 1672.32 0.317338 -1.80735 0
M  V30 17365 H 1670.7 2.71319 -2.88447 0
M  V30 17366 H 1671.87 0.417877 -4.58901 0
M  V30 17367 H 1670.19 0.534882 -4.1295 0
M  V30 17368 H 1672.79 3.31542 -4.19504 0
M  V30 17369 H 1673.13 3.34164 -2.48274 0
M  V30 17370 H 1673.66 1.95518 -3.46435 0
M  V30 17371 H 1670.4 1.38446 -6.40713 0
M  V30 17372 H 1669.92 2.72609 -5.3427 0
M  V30 17373 H 1671.6 2.60159 -5.9239 0
M  V30 17374 N 1671.73 1.46313 0.585673 0
M  V30 17375 C 1673.01 1.41946 1.34576 0
M  V30 17376 C 1673.39 0.101379 2.10856 0
M  V30 17377 O 1672.74 -0.917016 2.09292 0
M  V30 17378 C 1672.95 2.64724 2.27425 0
M  V30 17379 C 1674.29 3.10746 2.89347 0
M  V30 17380 O 1675.32 2.65252 2.37739 0
M  V30 17381 O 1674.18 3.8976 3.83079 0
M  V30 17382 H 1671.27 0.564346 0.604519 0
M  V30 17383 H 1673.82 1.58475 0.606937 0
M  V30 17384 H 1672.59 3.52217 1.70467 0
M  V30 17385 H 1672.21 2.50639 3.08652 0
M  V30 17386 N 1673.21 -0.830057 1.33969 0
M  V30 17387 C 1674.17 -1.92206 1.24858 0
M  V30 17388 C 1675.17 -1.59946 0.16549 0
M  V30 17389 O 1676.36 -1.6912 0.417629 0
M  V30 17390 C 1673.49 -3.28082 0.926029 0
M  V30 17391 H 1674.69 -2.01708 2.21932 0
M  V30 17392 H 1672.24 -1.02319 1.18154 0
M  V30 17393 H 1672.98 -3.24273 -0.0418364 0
M  V30 17394 H 1672.76 -3.52878 1.70938 0
M  V30 17395 H 1674.25 -4.08065 0.887263 0
M  V30 17396 N 1674.69 -1.17582 -1.04939 0
M  V30 17397 C 1675.92 -0.990398 -1.81656 0
M  V30 17398 C 1676.33 0.461324 -1.83077 0
M  V30 17399 O 1675.69 1.32037 -1.25986 0
M  V30 17400 C 1675.74 -1.52719 -3.27657 0
M  V30 17401 O 1675.46 -2.92206 -3.26415 0
M  V30 17402 C 1676.96 -1.38671 -4.21053 0
M  V30 17403 H 1674.18 -0.35024 -0.57234 0
M  V30 17404 H 1676.72 -1.5593 -1.32311 0
M  V30 17405 H 1674.88 -1.00026 -3.74264 0
M  V30 17406 H 1675.29 -3.17068 -4.17814 0
M  V30 17407 H 1676.77 -1.8104 -5.21468 0
M  V30 17408 H 1677.24 -0.334151 -4.37927 0
M  V30 17409 H 1677.85 -1.90393 -3.80303 0
M  V30 17410 N 1676.17 1.23705 -0.976463 0
M  V30 17411 C 1677.13 2.23257 -0.518533 0
M  V30 17412 C 1678.13 1.56006 0.3897 0
M  V30 17413 O 1679.32 1.73226 0.18394 0
M  V30 17414 C 1676.45 3.39997 0.247916 0
M  V30 17415 H 1677.64 2.65284 -1.39872 0
M  V30 17416 H 1675.2 1.3647 -0.761946 0
M  V30 17417 H 1675.93 3.03421 1.14482 0
M  V30 17418 H 1675.72 3.90013 -0.403975 0
M  V30 17419 H 1677.21 4.13868 0.557034 0
M  V30 17420 N 1677.64 0.747635 1.38738 0
M  V30 17421 C 1678.55 0.117879 2.34304 0
M  V30 17422 C 1679.57 -0.707488 1.58967 0
M  V30 17423 O 1680.75 -0.633025 1.91193 0
M  V30 17424 C 1677.81 -0.769223 3.38059 0
M  V30 17425 C 1676.87 0.0698358 4.29243 0
M  V30 17426 C 1676.1 -0.775021 5.28043 0
M  V30 17427 O 1676.33 -2.01328 5.33688 0
M  V30 17428 O 1675.26 -0.196978 6.01578 0
M  V30 17429 H 1679.09 0.906972 2.89841 0
M  V30 17430 H 1676.67 0.508453 1.40482 0
M  V30 17431 H 1678.55 -1.27641 4.01604 0
M  V30 17432 H 1677.23 -1.53691 2.84887 0
M  V30 17433 H 1676.14 0.622836 3.68879 0
M  V30 17434 H 1677.47 0.80004 4.85654 0
M  V30 17435 N 1679.12 -1.49583 0.496242 0
M  V30 17436 C 1680.03 -2.32808 -0.289404 0
M  V30 17437 C 1681.05 -1.44324 -0.971933 0
M  V30 17438 O 1682.22 -1.77352 -0.954366 0
M  V30 17439 C 1679.29 -3.19645 -1.34269 0
M  V30 17440 C 1678.35 -4.23975 -0.6741 0
M  V30 17441 C 1677.58 -5.06661 -1.6772 0
M  V30 17442 O 1677.81 -4.90792 -2.90654 0
M  V30 17443 O 1676.74 -5.89091 -1.23514 0
M  V30 17444 H 1680.57 -3.01164 0.391664 0
M  V30 17445 H 1678.15 -1.47162 0.257652 0
M  V30 17446 H 1680.03 -3.73453 -1.9522 0
M  V30 17447 H 1678.71 -2.53989 -2.00677 0
M  V30 17448 H 1677.61 -3.74092 -0.0249732 0
M  V30 17449 H 1678.95 -4.92172 -0.0525442 0
M  V30 17450 N 1680.6 -0.229873 -1.55915 0
M  V30 17451 C 1681.56 0.663347 -2.19391 0
M  V30 17452 C 1682.56 1.11548 -1.15818 0
M  V30 17453 O 1683.75 1.02294 -1.41002 0
M  V30 17454 C 1680.88 1.9097 -2.82389 0
M  V30 17455 H 1682.08 0.109797 -2.99699 0
M  V30 17456 H 1679.63 0.0197234 -1.56288 0
M  V30 17457 H 1680.37 2.50491 -2.05973 0
M  V30 17458 H 1680.15 1.59388 -3.58243 0
M  V30 17459 H 1681.64 2.5459 -3.31019 0
M  V30 17460 O 1682.12 1.61227 -0.093903 0
M  V30 17461 H 1682.81 1.86897 0.508856 0
M  V30 END ATOM
M  V30 BEGIN BOND
M  V30 END BOND
M  V30 END CTAB
M  END
$$$$
