drugbank_target|P35556 Fibrillin-2 (DB11093; DB11348; DB14481)
 OpenBabel12092121043D

  0  0  0     0  0            999 V3000
M  V30 BEGIN CTAB
M  V30 COUNTS 41913 42345 0 0 0
M  V30 BEGIN ATOM
M  V30 1 H -0.908 1.98254 -0.117106 0
M  V30 2 N 0 1.576 0 0
M  V30 3 C 0.933 2.03868 1.02534 0
M  V30 4 C 1.911 0.928543 1.3348 0
M  V30 5 O 3.095 1.19667 1.45644 0
M  V30 6 C 0.222 2.43627 2.35294 0
M  V30 7 C -0.732 3.65373 2.2001 0
M  V30 8 S 0.101 5.13292 1.52614 0
M  V30 9 C 1.257 5.56322 2.86805 0
M  V30 10 H 1.49 2.90518 0.631377 0
M  V30 11 H -0.977 1.52953 0.210867 0
M  V30 12 H 0.981 2.67203 3.11629 0
M  V30 13 H -0.358 1.57376 2.7183 0
M  V30 14 H -1.165 3.90944 3.18086 0
M  V30 15 H -1.563 3.418 1.51819 0
M  V30 16 H 0.729 5.58782 3.83104 0
M  V30 17 H 1.672 6.56266 2.65933 0
M  V30 18 H 2.08 4.83886 2.90714 0
M  V30 19 N 1.4781 -0.272755 1.55222 0
M  V30 20 C 2.7261 -1.00234 1.75492 0
M  V30 21 C 3.0471 -1.8681 0.5592 0
M  V30 22 O 2.3171 -1.91215 -0.425882 0
M  V30 23 H 0.8971 -0.373076 0.647166 0
M  V30 24 H 3.5591 -0.296926 1.92625 0
M  V30 25 H 2.6551 -1.63913 2.65592 0
M  V30 26 N 2.9562 -1.48159 -0.537278 0
M  V30 27 C 4.3722 -1.34118 -0.865129 0
M  V30 28 C 4.5722 -0.346678 -1.98495 0
M  V30 29 O 3.6282 0.234715 -2.51407 0
M  V30 30 C 4.9412 -2.73963 -1.23954 0
M  V30 31 C 6.4892 -2.82397 -1.34984 0
M  V30 32 C 6.9642 -4.22928 -1.75772 0
M  V30 33 N 8.4552 -4.25566 -1.82887 0
M  V30 34 C 9.1902 -5.31235 -2.15817 0
M  V30 35 N 8.6862 -6.47189 -2.47222 0
M  V30 36 N 10.4792 -5.18624 -2.16761 0
M  V30 37 H 2.6302 -2.1144 0.201715 0
M  V30 38 H 4.8932 -0.947598 0.0275949 0
M  V30 39 H 4.5992 -3.48264 -0.490381 0
M  V30 40 H 4.4732 -3.0702 -2.19132 0
M  V30 41 H 6.8602 -2.08356 -2.08978 0
M  V30 42 H 6.9412 -2.5297 -0.379448 0
M  V30 43 H 6.5852 -4.97482 -1.02341 0
M  V30 44 H 6.5152 -4.49794 -2.73848 0
M  V30 45 H 9.0062 -3.41924 -1.60924 0
M  V30 46 H 9.3192 -7.23564 -2.71433 0
M  V30 47 H 7.6642 -6.50476 -2.44757 0
M  V30 48 H 10.8552 -4.27056 -1.91679 0
M  V30 49 H 11.0282 -6.01078 -2.42093 0
M  V30 50 N 4.4343 0.785586 -1.36625 0
M  V30 51 C 5.8503 1.08419 -1.17122 0
M  V30 52 C 6.0503 2.015 0.00208491 0
M  V30 53 O 5.1063 2.43551 0.666278 0
M  V30 54 C 6.4193 1.69498 -2.48377 0
M  V30 55 C 7.9673 1.81821 -2.54775 0
M  V30 56 C 8.4423 2.46315 -3.86126 0
M  V30 57 N 9.9333 2.53779 -3.87492 0
M  V30 58 C 10.6683 3.045 -4.85868 0
M  V30 59 N 10.1643 3.55499 -5.94637 0
M  V30 60 N 11.9573 3.03247 -4.73284 0
M  V30 61 H 4.1083 0.167264 -2.1174 0
M  V30 62 H 6.3713 0.13682 -0.938075 0
M  V30 63 H 6.0773 1.08571 -3.34522 0
M  V30 64 H 5.9513 2.6896 -2.64462 0
M  V30 65 H 8.3383 2.41884 -1.69045 0
M  V30 66 H 8.4193 0.811532 -2.42586 0
M  V30 67 H 8.0633 1.86895 -4.72263 0
M  V30 68 H 7.9933 3.47561 -3.95612 0
M  V30 69 H 10.4843 2.17672 -3.08913 0
M  V30 70 H 10.7973 3.92562 -6.65669 0
M  V30 71 H 9.1423 3.5364 -5.98301 0
M  V30 72 H 12.3333 2.62696 -3.87438 0
M  V30 73 H 12.5063 3.42467 -5.50109 0
M  V30 74 N 5.9124 1.20967 1.01018 0
M  V30 75 C 7.3284 0.965905 1.27053 0
M  V30 76 C 7.5284 -0.350785 1.98423 0
M  V30 77 O 6.5844 -1.07773 2.28344 0
M  V30 78 C 7.8974 2.15294 2.09926 0
M  V30 79 C 9.4454 2.19463 2.23171 0
M  V30 80 C 9.9204 3.3767 3.09424 0
M  V30 81 N 11.4114 3.37724 3.17012 0
M  V30 82 C 12.1464 4.25837 3.83993 0
M  V30 83 N 11.6424 5.24138 4.53047 0
M  V30 84 N 13.4354 4.1366 3.80581 0
M  V30 85 H 5.5864 2.0565 0.531194 0
M  V30 86 H 7.8494 0.90024 0.297106 0
M  V30 87 H 7.5554 3.10684 1.64828 0
M  V30 88 H 7.4294 2.13923 3.10672 0
M  V30 89 H 9.8164 1.24632 2.6749 0
M  V30 90 H 9.8974 2.2488 1.21912 0
M  V30 91 H 9.5414 4.32791 2.65808 0
M  V30 92 H 9.4714 3.29491 4.10784 0
M  V30 93 H 11.9624 2.6658 2.6785 0
M  V30 94 H 12.2754 5.87684 5.01844 0
M  V30 95 H 10.6204 5.28068 4.5185 0
M  V30 96 H 13.8114 3.36127 3.25785 0
M  V30 97 H 13.9844 4.82538 4.32505 0
M  V30 98 N 7.3905 -1.2043 1.01659 0
M  V30 99 C 8.8065 -1.41852 0.731442 0
M  V30 100 C 9.0065 -1.89358 -0.688898 0
M  V30 101 O 8.0625 -2.06247 -1.45666 0
M  V30 102 C 9.3755 -2.44019 1.75714 0
M  V30 103 C 10.9235 -2.57785 1.77527 0
M  V30 104 C 11.3985 -3.63194 2.79023 0
M  V30 105 N 12.8895 -3.70678 2.77763 0
M  V30 106 C 13.6245 -4.51897 3.52954 0
M  V30 107 N 13.1205 -5.36921 4.37821 0
M  V30 108 N 14.9135 -4.4643 3.41551 0
M  V30 109 H 7.0645 -0.879093 1.93354 0
M  V30 110 H 9.3275 -0.448425 0.835236 0
M  V30 111 H 9.0335 -2.1611 2.77469 0
M  V30 112 H 8.9075 -3.43007 1.56927 0
M  V30 113 H 11.2945 -2.85023 0.764569 0
M  V30 114 H 11.3755 -1.58992 2.00387 0
M  V30 115 H 11.0195 -3.36699 3.80258 0
M  V30 116 H 10.9495 -4.61609 2.53425 0
M  V30 117 H 13.4405 -3.09944 2.16201 0
M  V30 118 H 13.7535 -5.95981 4.91962 0
M  V30 119 H 12.0985 -5.36424 4.41899 0
M  V30 120 H 15.2895 -3.79042 2.74672 0
M  V30 121 H 15.4625 -5.09491 4.00404 0
M  V30 122 N 8.8686 -0.792821 -1.36206 0
M  V30 123 C 9.7986 -0.207853 -2.32573 0
M  V30 124 C 10.7796 0.659055 -1.56813 0
M  V30 125 O 11.9646 0.592176 -1.84951 0
M  V30 126 C 9.0946 0.655449 -3.41059 0
M  V30 127 C 8.0486 -0.111842 -4.27854 0
M  V30 128 C 7.3746 0.872274 -5.27537 0
M  V30 129 C 8.6746 -1.30299 -5.05786 0
M  V30 130 H 10.3686 -1.01294 -2.81744 0
M  V30 131 H 7.9146 -0.48854 -1.3546 0
M  V30 132 H 9.8676 1.07464 -4.07467 0
M  V30 133 H 8.5916 1.49328 -2.90463 0
M  V30 134 H 7.2506 -0.512053 -3.63006 0
M  V30 135 H 6.8986 1.70523 -4.73214 0
M  V30 136 H 6.5986 0.363291 -5.86476 0
M  V30 137 H 8.1226 1.28996 -5.96818 0
M  V30 138 H 9.5366 -0.959379 -5.65216 0
M  V30 139 H 7.9336 -1.7455 -5.74154 0
M  V30 140 H 9.0036 -2.09663 -4.37229 0
M  V30 141 N 10.3467 1.47872 -0.545128 0
M  V30 142 C 11.5867 2.04391 -0.0187854 0
M  V30 143 C 11.9507 1.41162 1.30144 0
M  V30 144 O 13.1517 1.88656 1.91474 0
M  V30 145 C 11.4227 3.57299 0.0850867 0
M  V30 146 S 12.9817 4.35221 0.559302 0
M  V30 147 H 9.7997 0.710737 -0.0193301 0
M  V30 148 H 12.4017 1.81395 -0.729125 0
M  V30 149 H 11.1057 4.00847 -0.880351 0
M  V30 150 H 10.6367 3.84773 0.819348 0
M  V30 151 H 12.6517 4.61571 1.82118 0
M  V30 152 N 11.8248 0.280983 1.55075 0
M  V30 153 C 12.7548 -0.597469 2.25727 0
M  V30 154 C 13.7358 -1.15417 1.24952 0
M  V30 155 O 14.9208 -1.18722 1.53684 0
M  V30 156 C 12.0508 -1.7789 2.98283 0
M  V30 157 C 11.0048 -1.35347 4.06036 0
M  V30 158 C 10.3308 -2.61846 4.66198 0
M  V30 159 C 11.6308 -0.499354 5.19907 0
M  V30 160 H 13.3248 -0.00824265 2.99399 0
M  V30 161 H 10.8708 -0.0025244 1.44 0
M  V30 162 H 12.8238 -2.39937 3.46422 0
M  V30 163 H 11.5478 -2.39405 2.22155 0
M  V30 164 H 10.2068 -0.756156 3.58717 0
M  V30 165 H 9.8548 -3.21632 3.86732 0
M  V30 166 H 9.5548 -2.3409 5.38958 0
M  V30 167 H 11.0788 -3.24732 5.1709 0
M  V30 168 H 12.4928 -1.02498 5.64063 0
M  V30 169 H 10.8898 -0.316424 5.99265 0
M  V30 170 H 11.9598 0.480459 4.82514 0
M  V30 171 N 13.3029 -1.57598 0.00835791 0
M  V30 172 C 14.2349 -2.05811 -1.00868 0
M  V30 173 C 15.2479 -0.977579 -1.30182 0
M  V30 174 O 16.4369 -1.25421 -1.27011 0
M  V30 175 C 13.5369 -2.45016 -2.34137 0
M  V30 176 C 12.7099 -3.75903 -2.23643 0
M  V30 177 C 11.7689 -4.01884 -3.3967 0
M  V30 178 O 10.7949 -4.72433 -3.17483 0
M  V30 179 N 11.9969 -3.50432 -4.62793 0
M  V30 180 H 14.7619 -2.93684 -0.597458 0
M  V30 181 H 12.3229 -1.60909 -0.178852 0
M  V30 182 H 14.3149 -2.59506 -3.10546 0
M  V30 183 H 12.8849 -1.62618 -2.66972 0
M  V30 184 H 12.1049 -3.7141 -1.32091 0
M  V30 185 H 13.3929 -4.61695 -2.13812 0
M  V30 186 H 12.7909 -2.93317 -4.83716 0
M  V30 187 H 11.3479 -3.70236 -5.3644 0
M  V30 188 N 14.781 0.264519 -1.55364 0
M  V30 189 C 15.711 1.33121 -1.91836 0
M  V30 190 C 16.692 1.51101 -0.781192 0
M  V30 191 O 17.877 1.64003 -1.04003 0
M  V30 192 C 15.007 2.68921 -2.19769 0
M  V30 193 C 13.961 2.65661 -3.35571 0
M  V30 194 C 13.287 4.05093 -3.49004 0
M  V30 195 C 14.587 2.24187 -4.71739 0
M  V30 196 H 16.281 1.02844 -2.81182 0
M  V30 197 H 13.827 0.493286 -1.35287 0
M  V30 198 H 15.78 3.43663 -2.43872 0
M  V30 199 H 14.504 3.00799 -1.27231 0
M  V30 200 H 13.163 1.93377 -3.1145 0
M  V30 201 H 12.811 4.34206 -2.53917 0
M  V30 202 H 12.511 4.03804 -4.26868 0
M  V30 203 H 14.035 4.81561 -3.75408 0
M  V30 204 H 15.449 2.88654 -4.9533 0
M  V30 205 H 13.846 2.34044 -5.52579 0
M  V30 206 H 14.916 1.19327 -4.69988 0
M  V30 207 N 16.2591 1.48442 0.529413 0
M  V30 208 C 17.4891 1.59919 1.30804 0
M  V30 209 C 17.8971 0.258792 1.87422 0
M  V30 210 O 17.2401 -0.762096 1.67146 0
M  V30 211 C 17.3021 2.58693 2.49636 0
M  V30 212 C 16.9661 4.03745 2.14101 0
M  V30 213 C 17.9631 4.9141 1.6974 0
M  V30 214 C 15.6481 4.49285 2.24607 0
M  V30 215 C 17.6421 6.22645 1.36351 0
M  V30 216 C 15.3291 5.8054 1.9083 0
M  V30 217 C 16.3271 6.67043 1.46773 0
M  V30 218 O 16.0151 7.95856 1.1344 0
M  V30 219 H 15.7471 0.541981 0.404021 0
M  V30 220 H 18.3011 1.95 0.645309 0
M  V30 221 H 16.5311 2.18734 3.18892 0
M  V30 222 H 18.2201 2.59999 3.11698 0
M  V30 223 H 18.9861 4.57465 1.61094 0
M  V30 224 H 14.8651 3.82142 2.57854 0
M  V30 225 H 18.4091 6.90119 1.01891 0
M  V30 226 H 14.3061 6.14022 1.99117 0
M  V30 227 H 15.0741 8.08613 1.26832 0
M  V30 228 N 17.7372 -0.778329 1.37039 0
M  V30 229 C 18.9842 -1.53665 1.31884 0
M  V30 230 C 19.3122 -1.9425 -0.0986303 0
M  V30 231 O 18.5672 -1.63832 -1.07041 0
M  V30 232 C 18.8662 -2.81845 2.19768 0
M  V30 233 C 18.5322 -2.60345 3.68146 0
M  V30 234 C 17.1942 -2.5419 4.08584 0
M  V30 235 C 19.5462 -2.40923 4.62175 0
M  V30 236 C 16.8742 -2.26594 5.41177 0
M  V30 237 C 19.2262 -2.14852 5.94997 0
M  V30 238 C 17.8902 -2.07137 6.34547 0
M  V30 239 H 17.1602 -0.562299 0.482598 0
M  V30 240 H 19.8072 -0.897069 1.69189 0
M  V30 241 H 18.1122 -3.50328 1.75436 0
M  V30 242 H 19.8092 -3.39692 2.13097 0
M  V30 243 H 16.3992 -2.65996 3.36072 0
M  V30 244 H 20.5832 -2.44673 4.31797 0
M  V30 245 H 15.8392 -2.19111 5.70789 0
M  V30 246 H 20.0132 -1.98822 6.67415 0
M  V30 247 H 17.6402 -1.85518 7.37216 0
M  V30 248 N 19.2153 -1.21501 -1.00376 0
M  V30 249 C 20.1453 -0.999478 -2.11028 0
M  V30 250 C 21.1263 0.0759671 -1.6993 0
M  V30 251 O 22.3113 -0.0841106 -1.94018 0
M  V30 252 C 19.4413 -0.564709 -3.42678 0
M  V30 253 C 18.3953 -1.58486 -3.97576 0
M  V30 254 C 17.7213 -1.00628 -5.25146 0
M  V30 255 C 19.0213 -2.97204 -4.29496 0
M  V30 256 H 20.7153 -1.92495 -2.29317 0
M  V30 257 H 18.2613 -0.92693 -1.102 0
M  V30 258 H 20.2143 -0.401091 -4.19487 0
M  V30 259 H 18.9383 0.396411 -3.24185 0
M  V30 260 H 17.5973 -1.73606 -3.22888 0
M  V30 261 H 17.2453 -0.0368439 -5.02987 0
M  V30 262 H 16.9453 -1.68771 -5.62841 0
M  V30 263 H 18.4693 -0.854015 -6.04598 0
M  V30 264 H 19.8833 -2.8552 -4.97143 0
M  V30 265 H 18.2803 -3.62372 -4.78338 0
M  V30 266 H 19.3503 -3.47956 -3.3772 0
M  V30 267 N 20.6934 1.19889 -1.02296 0
M  V30 268 C 21.9394 1.89973 -0.726759 0
M  V30 269 C 22.2944 1.7776 0.73614 0
M  V30 270 O 21.5874 1.15523 1.52856 0
M  V30 271 C 21.7814 3.39883 -1.10518 0
M  V30 272 C 21.6104 3.66684 -2.60332 0
M  V30 273 C 20.3804 3.85045 -3.27213 0
M  V30 274 C 22.5784 3.68727 -3.58532 0
M  V30 275 N 20.5604 3.99422 -4.66192 0
M  V30 276 C 21.9314 3.88604 -4.83101 0
M  V30 277 C 23.9864 3.51722 -3.52414 0
M  V30 278 C 22.6894 3.9324 -6.02292 0
M  V30 279 C 24.7154 3.57632 -4.71013 0
M  V30 280 C 24.0774 3.77988 -5.94394 0
M  V30 281 H 20.1764 0.714551 -0.317712 0
M  V30 282 H 22.7604 1.44123 -1.30907 0
M  V30 283 H 20.9314 3.8447 -0.551142 0
M  V30 284 H 22.6634 3.97464 -0.761853 0
M  V30 285 H 19.4184 3.83689 -2.77632 0
M  V30 286 H 19.8424 4.10473 -5.38368 0
M  V30 287 H 24.4844 3.34945 -2.58015 0
M  V30 288 H 22.2024 4.08811 -6.97065 0
M  V30 289 H 25.7884 3.45773 -4.67902 0
M  V30 290 H 24.6684 3.82428 -6.8463 0
M  V30 291 N 22.1715 0.800033 1.35784 0
M  V30 292 C 23.1015 0.220184 2.3246 0
M  V30 293 C 24.0825 -0.65073 1.57161 0
M  V30 294 O 25.2675 -0.582359 1.85263 0
M  V30 295 C 22.3975 -0.637353 3.41402 0
M  V30 296 C 21.3515 0.134531 4.27789 0
M  V30 297 C 20.6775 -0.844285 5.27992 0
M  V30 298 C 21.9775 1.32979 5.05088 0
M  V30 299 H 23.6715 1.02787 2.81203 0
M  V30 300 H 21.2175 0.495717 1.35199 0
M  V30 301 H 23.1705 -1.05302 4.08031 0
M  V30 302 H 21.8945 -1.47785 2.91251 0
M  V30 303 H 20.5535 0.531296 3.6273 0
M  V30 304 H 20.2015 -1.68011 4.74111 0
M  V30 305 H 19.9015 -0.332184 5.8666 0
M  V30 306 H 21.4255 -1.2583 5.97494 0
M  V30 307 H 22.8395 0.98934 5.64699 0
M  V30 308 H 21.2365 1.77593 5.7322 0
M  V30 309 H 22.3065 2.11978 4.36111 0
M  V30 310 N 23.6496 -1.47581 0.552962 0
M  V30 311 C 24.8976 -2.02082 0.0272703 0
M  V30 312 C 25.2186 -1.4301 -1.32563 0
M  V30 313 O 24.4886 -0.603745 -1.86365 0
M  V30 314 H 23.0686 -0.746966 0.00709182 0
M  V30 315 H 25.7306 -1.81033 0.722008 0
M  V30 316 H 24.8266 -3.12034 -0.0639951 0
M  V30 317 N 25.1277 -0.289203 -1.54924 0
M  V30 318 C 26.3677 0.324536 -2.01807 0
M  V30 319 C 26.7317 1.5199 -1.17316 0
M  V30 320 O 27.9327 2.20422 -1.53843 0
M  V30 321 C 26.2037 0.683578 -3.50802 0
M  V30 322 S 27.7627 1.28185 -4.19659 0
M  V30 323 H 24.5807 0.100236 -0.703899 0
M  V30 324 H 27.1827 -0.414325 -1.91059 0
M  V30 325 H 25.8867 -0.195073 -4.09936 0
M  V30 326 H 25.4177 1.45354 -3.65562 0
M  V30 327 H 27.4327 2.57006 -4.24456 0
M  V30 328 N 26.6058 1.57591 -0.0167156 0
M  V30 329 C 27.8518 1.91567 0.665582 0
M  V30 330 C 28.1848 0.892298 1.72487 0
M  V30 331 O 27.4598 -0.0867127 1.94307 0
M  V30 332 C 27.7428 3.36069 1.29342 0
M  V30 333 C 27.5958 4.49135 0.244541 0
M  V30 334 C 28.9148 3.803 2.21495 0
M  V30 335 H 26.0338 0.69666 0.240488 0
M  V30 336 H 28.6758 1.89866 -0.0714356 0
M  V30 337 H 26.8258 3.3765 1.92158 0
M  V30 338 H 28.4978 4.59689 -0.385228 0
M  V30 339 H 26.7408 4.3165 -0.431379 0
M  V30 340 H 27.4118 5.47242 0.723207 0
M  V30 341 H 29.8878 3.80377 1.68678 0
M  V30 342 H 28.7638 4.82127 2.62382 0
M  V30 343 H 29.0248 3.15104 3.101 0
M  V30 344 N 28.0839 -0.256276 1.55502 0
M  V30 345 C 29.3299 -0.987079 1.77157 0
M  V30 346 C 29.6629 -1.85327 0.580315 0
M  V30 347 O 28.9379 -1.89874 -0.421686 0
M  V30 348 C 29.2209 -1.85553 3.08613 0
M  V30 349 C 29.0739 -1.01816 4.38125 0
M  V30 350 C 30.3929 -2.8397 3.36228 0
M  V30 351 H 27.5119 -0.357428 0.644526 0
M  V30 352 H 30.1539 -0.258239 1.88237 0
M  V30 353 H 28.3039 -2.47695 2.99298 0
M  V30 354 H 29.9759 -0.416159 4.59419 0
M  V30 355 H 28.2189 -0.322178 4.32602 0
M  V30 356 H 28.8899 -1.65939 5.26468 0
M  V30 357 H 31.3659 -2.31964 3.45445 0
M  V30 358 H 30.2419 -3.41864 4.29442 0
M  V30 359 H 30.5029 -3.59955 2.56681 0
M  V30 360 N 29.562 -1.4872 -0.521534 0
M  V30 361 C 30.492 -1.66771 -1.63431 0
M  V30 362 C 31.473 -0.516499 -1.62069 0
M  V30 363 O 32.658 -0.750013 -1.79132 0
M  V30 364 C 29.788 -1.71515 -3.01993 0
M  V30 365 C 28.742 -2.86222 -3.18216 0
M  V30 366 C 28.068 -2.76061 -4.57924 0
M  V30 367 C 29.368 -4.27419 -3.00184 0
M  V30 368 H 31.062 -2.59932 -1.48579 0
M  V30 369 H 28.608 -1.25089 -0.713358 0
M  V30 370 H 30.561 -1.82731 -3.7972 0
M  V30 371 H 29.285 -0.749393 -3.17886 0
M  V30 372 H 27.944 -2.74575 -2.42908 0
M  V30 373 H 27.592 -1.77437 -4.70665 0
M  V30 374 H 27.292 -3.53037 -4.69722 0
M  V30 375 H 28.816 -2.89256 -5.37739 0
M  V30 376 H 30.23 -4.39855 -3.67697 0
M  V30 377 H 28.627 -5.05458 -3.2347 0
M  V30 378 H 29.697 -4.43293 -1.96518 0
M  V30 379 N 31.0401 0.771051 -1.3745 0
M  V30 380 C 32.2861 1.53109 -1.339 0
M  V30 381 C 32.6411 1.9225 0.0758401 0
M  V30 382 O 31.9341 1.61264 1.03463 0
M  V30 383 C 32.1281 2.80676 -2.2126 0
M  V30 384 C 31.9571 2.54003 -3.71096 0
M  V30 385 C 30.7271 2.48097 -4.402 0
M  V30 386 C 32.9251 2.21953 -4.63941 0
M  V30 387 N 30.9071 2.13515 -5.75573 0
M  V30 388 C 32.2781 1.97516 -5.87697 0
M  V30 389 C 34.3331 2.08114 -4.5232 0
M  V30 390 C 33.0361 1.60638 -7.01133 0
M  V30 391 C 35.0621 1.72636 -5.65642 0
M  V30 392 C 34.4241 1.4906 -6.88448 0
M  V30 393 H 30.5231 0.56055 -0.54526 0
M  V30 394 H 33.1071 0.899472 -1.72678 0
M  V30 395 H 31.2781 3.41674 -1.84698 0
M  V30 396 H 33.0101 3.46578 -2.08963 0
M  V30 397 H 29.7651 2.63974 -3.93211 0
M  V30 398 H 30.1891 1.98919 -6.47117 0
M  V30 399 H 34.8311 2.25024 -3.57944 0
M  V30 400 H 32.5491 1.42467 -7.95443 0
M  V30 401 H 36.1351 1.62586 -5.58621 0
M  V30 402 H 35.0151 1.22014 -7.7465 0
M  V30 403 N 32.5182 1.22032 0.997298 0
M  V30 404 C 33.4812 0.987909 2.06816 0
M  V30 405 C 34.4812 -0.0440084 1.6074 0
M  V30 406 O 35.6712 0.194053 1.73116 0
M  V30 407 C 32.8032 0.49132 3.37341 0
M  V30 408 H 33.9962 1.93803 2.28868 0
M  V30 409 H 31.5492 1.03838 1.16822 0
M  V30 410 H 32.2842 -0.463364 3.20973 0
M  V30 411 H 32.0692 1.23575 3.72118 0
M  V30 412 H 33.5592 0.348824 4.16141 0
M  V30 413 N 33.9963 -1.19345 1.0293 0
M  V30 414 C 34.9283 -2.22036 0.56857 0
M  V30 415 C 35.9413 -1.58865 -0.355779 0
M  V30 416 O 37.1303 -1.77851 -0.152103 0
M  V30 417 C 34.2303 -3.38363 -0.190752 0
M  V30 418 C 33.4033 -4.31118 0.738643 0
M  V30 419 C 32.4623 -5.26194 0.0246497 0
M  V30 420 O 31.4883 -5.65461 0.651354 0
M  V30 421 N 32.6903 -5.66971 -1.24594 0
M  V30 422 H 35.4553 -2.6219 1.45177 0
M  V30 423 H 33.0163 -1.34015 0.908381 0
M  V30 424 H 35.0083 -3.98981 -0.677961 0
M  V30 425 H 33.5783 -2.96994 -0.975366 0
M  V30 426 H 32.7983 -3.68276 1.40593 0
M  V30 427 H 34.0863 -4.90001 1.37029 0
M  V30 428 H 33.4843 -5.37104 -1.77583 0
M  V30 429 H 32.0413 -6.2984 -1.67764 0
M  V30 430 N 35.4744 -0.807222 -1.35358 0
M  V30 431 C 36.7224 -0.387122 -1.98358 0
M  V30 432 C 37.0434 1.04942 -1.64354 0
M  V30 433 O 36.3134 1.72615 -0.926339 0
M  V30 434 H 34.8934 -0.140154 -0.733734 0
M  V30 435 H 37.5554 -1.0332 -1.6526 0
M  V30 436 H 36.6514 -0.493352 -3.08176 0
M  V30 437 N 36.9525 1.47285 -0.560781 0
M  V30 438 C 38.1805 2.06855 -0.0430262 0
M  V30 439 C 38.5955 1.41291 1.25229 0
M  V30 440 O 37.9525 0.510648 1.7521 0
M  V30 441 C 38.0035 3.61178 0.152518 0
M  V30 442 O 37.7245 4.24285 -1.0915 0
M  V30 443 C 39.2255 4.37624 0.707145 0
M  V30 444 H 36.4455 0.669319 -0.0474652 0
M  V30 445 H 38.9895 1.89237 -0.77521 0
M  V30 446 H 37.1445 3.78298 0.834843 0
M  V30 447 H 37.5585 5.16868 -0.891482 0
M  V30 448 H 39.0325 5.46271 0.793244 0
M  V30 449 H 39.5095 4.04152 1.71923 0
M  V30 450 H 40.1155 4.25257 0.0604027 0
M  V30 451 N 38.4306 0.297415 1.54768 0
M  V30 452 C 39.3936 -0.567375 2.22066 0
M  V30 453 C 40.3936 -1.06409 1.20556 0
M  V30 454 O 41.5836 -0.960691 1.45315 0
M  V30 455 C 38.7156 -1.78517 2.90421 0
M  V30 456 H 39.9086 0.0205534 2.99893 0
M  V30 457 H 37.4616 0.0482163 1.56226 0
M  V30 458 H 38.1966 -2.41303 2.16664 0
M  V30 459 H 37.9816 -1.43669 3.64831 0
M  V30 460 H 39.4716 -2.39964 3.41771 0
M  V30 461 N 39.9087 -1.5758 0.0250728 0
M  V30 462 C 41.1567 -1.91255 -0.653151 0
M  V30 463 C 41.4777 -0.901691 -1.729 0
M  V30 464 O 40.7477 0.0573785 -1.95816 0
M  V30 465 H 39.3277 -0.705942 -0.244243 0
M  V30 466 H 41.9897 -1.94767 0.0719209 0
M  V30 467 H 41.0857 -2.91752 -1.10847 0
M  V30 468 N 41.3868 0.248026 -1.55636 0
M  V30 469 C 42.3188 1.32993 -1.8667 0
M  V30 470 C 43.3318 1.44345 -0.752877 0
M  V30 471 O 44.5208 1.45715 -1.03098 0
M  V30 472 C 41.6208 2.70863 -2.03682 0
M  V30 473 C 40.7938 2.81792 -3.34532 0
M  V30 474 C 39.8528 4.005 -3.41301 0
M  V30 475 O 38.8788 3.9008 -4.14519 0
M  V30 476 N 40.0808 5.13618 -2.70512 0
M  V30 477 H 42.8458 1.06707 -2.8006 0
M  V30 478 H 40.4068 0.438129 -1.55859 0
M  V30 479 H 42.3988 3.48612 -2.05553 0
M  V30 480 H 40.9688 2.89862 -1.17041 0
M  V30 481 H 40.1888 1.90729 -3.44987 0
M  V30 482 H 41.4768 2.86043 -4.20781 0
M  V30 483 H 40.8748 5.24975 -2.10755 0
M  V30 484 H 39.4318 5.89505 -2.78077 0
M  V30 485 N 42.8649 1.48995 0.513639 0
M  V30 486 C 44.2759 1.5119 1.09537 0
M  V30 487 C 44.6269 0.290906 1.94031 0
M  V30 488 O 43.7519 -0.60049 2.07902 0
M  V30 489 C 44.3469 2.73964 1.99322 0
M  V30 490 C 42.9059 2.78978 2.52682 0
M  V30 491 C 42.0529 2.44934 1.30009 0
M  V30 492 H 45.0039 1.55875 0.298125 0
M  V30 493 H 45.0249 2.53409 2.83838 0
M  V30 494 H 44.5369 3.62813 1.37799 0
M  V30 495 H 42.6379 1.94378 3.1788 0
M  V30 496 H 42.7509 3.8083 2.90698 0
M  V30 497 H 41.1149 1.9644 1.62122 0
M  V30 498 H 41.8979 3.36043 0.702131 0
M  V30 499 N 44.343 -0.763751 1.37857 0
M  V30 500 C 45.275 -1.88664 1.30148 0
M  V30 501 C 46.288 -1.61365 0.215685 0
M  V30 502 O 47.477 -1.72134 0.472459 0
M  V30 503 C 44.577 -3.24075 0.991396 0
M  V30 504 C 43.75 -3.78958 2.18426 0
M  V30 505 C 42.809 -4.92862 1.8432 0
M  V30 506 O 41.835 -5.08027 2.56704 0
M  V30 507 N 43.037 -5.75071 0.792081 0
M  V30 508 H 45.802 -1.95791 2.26905 0
M  V30 509 H 43.363 -0.943226 1.31586 0
M  V30 510 H 45.355 -3.97804 0.743935 0
M  V30 511 H 43.925 -3.12399 0.112122 0
M  V30 512 H 43.145 -2.96913 2.59299 0
M  V30 513 H 44.433 -4.12357 2.98058 0
M  V30 514 H 43.831 -5.65375 0.191595 0
M  V30 515 H 42.388 -6.48991 0.60449 0
M  V30 516 N 45.8211 -1.22559 -0.990812 0
M  V30 517 C 47.2321 -1.04791 -1.54518 0
M  V30 518 C 47.5831 0.387998 -1.92325 0
M  V30 519 O 46.7081 1.27328 -1.74976 0
M  V30 520 C 47.3031 -1.896 -2.80779 0
M  V30 521 C 45.8621 -1.76124 -3.32652 0
M  V30 522 C 45.0091 -1.8594 -2.05722 0
M  V30 523 H 47.9601 -1.36374 -0.811662 0
M  V30 524 H 47.9811 -1.41464 -3.53225 0
M  V30 525 H 47.4931 -2.94101 -2.53231 0
M  V30 526 H 45.5941 -0.743643 -3.65104 0
M  V30 527 H 45.7071 -2.58913 -4.03114 0
M  V30 528 H 44.0711 -1.29403 -2.19379 0
M  V30 529 H 44.8541 -2.91976 -1.80568 0
M  V30 530 N 47.2992 1.18797 -1.03562 0
M  V30 531 C 48.7102 1.70322 -0.764676 0
M  V30 532 C 49.0612 1.82708 0.714996 0
M  V30 533 O 48.1862 1.50299 1.55689 0
M  V30 534 C 48.7812 3.09356 -1.38145 0
M  V30 535 C 47.3402 3.58114 -1.15895 0
M  V30 536 C 46.4872 2.34798 -1.4753 0
M  V30 537 H 49.4382 1.03543 -1.20268 0
M  V30 538 H 49.4592 3.72378 -0.781977 0
M  V30 539 H 48.9712 3.00309 -2.45837 0
M  V30 540 H 47.0722 3.72464 -0.100544 0
M  V30 541 H 47.1852 4.4184 -1.8524 0
M  V30 542 H 45.5492 2.38464 -0.894829 0
M  V30 543 H 46.3322 2.28375 -2.56319 0
M  V30 544 N 48.7773 0.814389 1.34928 0
M  V30 545 C 50.1883 0.458364 1.80986 0
M  V30 546 C 50.5393 -1.02042 1.67577 0
M  V30 547 O 49.6643 -1.79352 1.21086 0
M  V30 548 C 50.2593 0.825212 3.28597 0
M  V30 549 C 48.8183 0.521677 3.72767 0
M  V30 550 C 47.9653 1.04668 2.56788 0
M  V30 551 H 50.9163 1.00533 1.22795 0
M  V30 552 H 50.9373 0.12571 3.80292 0
M  V30 553 H 50.4493 1.90154 3.38324 0
M  V30 554 H 48.5503 -0.545589 3.68584 0
M  V30 555 H 48.6633 1.05977 4.67232 0
M  V30 556 H 47.0273 0.468622 2.50352 0
M  V30 557 H 47.8103 2.12927 2.6929 0
M  V30 558 N 50.2554 -1.46986 0.568584 0
M  V30 559 C 51.6664 -1.86188 0.138219 0
M  V30 560 C 52.0174 -1.47388 -1.29504 0
M  V30 561 O 51.1424 -0.88219 -1.97602 0
M  V30 562 C 51.7374 -3.3792 0.244065 0
M  V30 563 C 50.2964 -3.76171 -0.131335 0
M  V30 564 C 49.4434 -2.71027 0.586465 0
M  V30 565 H 52.3944 -1.38342 0.777645 0
M  V30 566 H 52.4154 -3.76729 -0.534351 0
M  V30 567 H 51.9274 -3.66128 1.28731 0
M  V30 568 H 50.0284 -3.5358 -1.17526 0
M  V30 569 H 50.1414 -4.78523 0.235146 0
M  V30 570 H 48.5054 -2.54684 0.0282722 0
M  V30 571 H 49.2884 -3.02077 1.63109 0
M  V30 572 N 51.7335 -0.305618 -1.54608 0
M  V30 573 C 52.6805 0.568421 -2.23691 0
M  V30 574 C 53.6505 1.12592 -1.22116 0
M  V30 575 O 54.8355 1.16959 -1.50749 0
M  V30 576 C 51.9755 1.7322 -2.98477 0
M  V30 577 C 51.0885 1.20566 -4.14835 0
M  V30 578 C 50.2235 2.33368 -4.77193 0
M  V30 579 C 49.2625 1.7787 -5.85686 0
M  V30 580 N 48.3995 2.84263 -6.4198 0
M  V30 581 H 53.2395 -0.0272867 -2.97988 0
M  V30 582 H 50.7765 -0.0252363 -1.47078 0
M  V30 583 H 52.7345 2.41675 -3.40072 0
M  V30 584 H 51.3645 2.29947 -2.26548 0
M  V30 585 H 50.4165 0.413223 -3.78149 0
M  V30 586 H 51.7285 0.759417 -4.92985 0
M  V30 587 H 50.8825 3.09761 -5.21664 0
M  V30 588 H 49.6215 2.8132 -3.98385 0
M  V30 589 H 48.6265 0.99968 -5.40635 0
M  V30 590 H 49.8515 1.30816 -6.66381 0
M  V30 591 H 47.7975 3.31541 -5.66053 0
M  V30 592 H 47.7145 2.44149 -7.15491 0
M  V30 593 H 48.9825 3.6054 -6.91109 0
M  V30 594 N 53.2116 1.57565 -0.0334293 0
M  V30 595 C 54.6226 1.79746 0.504798 0
M  V30 596 C 54.9736 0.944091 1.71992 0
M  V30 597 O 54.0986 0.155694 2.15839 0
M  V30 598 C 54.6936 3.25997 0.922567 0
M  V30 599 C 53.2526 3.49159 1.40588 0
M  V30 600 C 52.3996 2.74785 0.372633 0
M  V30 601 H 55.3506 1.56565 -0.259436 0
M  V30 602 H 55.3716 3.35945 1.78666 0
M  V30 603 H 54.8836 3.88081 0.0379825 0
M  V30 604 H 52.9846 2.92332 2.31025 0
M  V30 605 H 53.0976 4.57873 1.41028 0
M  V30 606 H 51.4616 2.40391 0.841672 0
M  V30 607 H 52.2446 3.39587 -0.503559 0
M  V30 608 N 54.6897 -0.239769 1.55765 0
M  V30 609 C 56.1007 -0.808263 1.68297 0
M  V30 610 C 56.4517 -1.85736 0.632181 0
M  V30 611 O 55.5767 -2.15277 -0.220204 0
M  V30 612 C 56.1717 -1.47284 3.05111 0
M  V30 613 C 54.7307 -1.98895 3.19559 0
M  V30 614 C 53.8777 -0.842575 2.64189 0
M  V30 615 H 56.8287 -0.0154422 1.58692 0
M  V30 616 H 56.8497 -2.34111 2.99954 0
M  V30 617 H 56.3617 -0.709053 3.81568 0
M  V30 618 H 54.4627 -2.78132 2.47938 0
M  V30 619 H 54.5757 -2.18143 4.26556 0
M  V30 620 H 52.9397 -1.24501 2.22197 0
M  V30 621 H 53.7227 -0.0917552 3.43177 0
M  V30 622 N 56.1678 -1.49265 -0.50573 0
M  V30 623 C 57.5838 -1.35923 -0.836486 0
M  V30 624 C 57.7838 -0.388704 -1.97715 0
M  V30 625 O 56.8398 0.181336 -2.51848 0
M  V30 626 C 58.1528 -2.76531 -1.18115 0
M  V30 627 C 59.7008 -2.85197 -1.28964 0
M  V30 628 C 60.1758 -4.26561 -1.66761 0
M  V30 629 N 61.6668 -4.2935 -1.73819 0
M  V30 630 C 62.4018 -5.35693 -2.045 0
M  V30 631 N 61.8978 -6.52287 -2.33438 0
M  V30 632 N 63.6908 -5.23105 -2.05711 0
M  V30 633 H 55.8418 -2.10965 0.246519 0
M  V30 634 H 58.1048 -0.9468 0.0476887 0
M  V30 635 H 57.8108 -3.49226 -0.416398 0
M  V30 636 H 57.6848 -3.11599 -2.1257 0
M  V30 637 H 60.0718 -2.12742 -2.04511 0
M  V30 638 H 60.1528 -2.53718 -0.325704 0
M  V30 639 H 59.7968 -4.99541 -0.917656 0
M  V30 640 H 59.7268 -4.55502 -2.64246 0
M  V30 641 H 62.2178 -3.4526 -1.53635 0
M  V30 642 H 62.5308 -7.29158 -2.56024 0
M  V30 643 H 60.8758 -6.55521 -2.30905 0
M  V30 644 H 64.0668 -4.31026 -1.82577 0
M  V30 645 H 64.2398 -6.06078 -2.29289 0
M  V30 646 N 57.6459 0.756429 -1.3826 0
M  V30 647 C 59.0569 1.33359 -1.30661 0
M  V30 648 C 59.4079 1.96161 0.0388875 0
M  V30 649 O 58.5329 1.94874 0.940918 0
M  V30 650 C 59.1279 2.42477 -2.36622 0
M  V30 651 C 57.6869 2.95922 -2.3261 0
M  V30 652 C 56.8339 1.69275 -2.19639 0
M  V30 653 H 59.7849 0.55552 -1.4866 0
M  V30 654 H 59.8059 3.22345 -2.02174 0
M  V30 655 H 59.3179 1.96739 -3.34538 0
M  V30 656 H 57.4189 3.45996 -1.38267 0
M  V30 657 H 57.5319 3.50494 -3.26636 0
M  V30 658 H 55.8959 1.92793 -1.66442 0
M  V30 659 H 56.6789 1.25619 -3.19491 0
M  V30 660 N 59.124 1.23083 0.984299 0
M  V30 661 C 60.056 0.96636 2.07832 0
M  V30 662 C 61.069 -0.0582135 1.62696 0
M  V30 663 O 62.258 0.176843 1.77622 0
M  V30 664 C 59.358 0.433397 3.36117 0
M  V30 665 C 58.531 1.51722 4.10243 0
M  V30 666 C 57.59 0.989821 5.16807 0
M  V30 667 O 56.616 1.67794 5.43906 0
M  V30 668 N 57.818 -0.184367 5.80207 0
M  V30 669 H 60.583 1.90824 2.31098 0
M  V30 670 H 58.144 1.13888 1.1507 0
M  V30 671 H 60.136 0.065699 4.04647 0
M  V30 672 H 58.706 -0.413806 3.09849 0
M  V30 673 H 57.926 2.05786 3.36223 0
M  V30 674 H 59.214 2.24619 4.56534 0
M  V30 675 H 58.612 -0.760062 5.60571 0
M  V30 676 H 57.169 -0.493366 6.4993 0
M  V30 677 N 60.6021 -1.18246 1.0419 0
M  V30 678 C 62.0131 -1.69914 0.773698 0
M  V30 679 C 62.3641 -1.83085 -0.705297 0
M  V30 680 O 61.4891 -1.51123 -1.5489 0
M  V30 681 C 62.0841 -3.08619 1.39784 0
M  V30 682 C 60.6431 -3.57494 1.17792 0
M  V30 683 C 59.7901 -2.34013 1.48773 0
M  V30 684 H 62.7411 -1.02904 1.20816 0
M  V30 685 H 62.7621 -3.71958 0.801714 0
M  V30 686 H 62.2741 -2.99001 2.47426 0
M  V30 687 H 60.3751 -3.72406 0.120295 0
M  V30 688 H 60.4881 -4.40852 1.87581 0
M  V30 689 H 58.8521 -2.37986 0.907463 0
M  V30 690 H 59.6351 -2.27013 2.57527 0
M  V30 691 N 62.0802 -0.821533 -1.34494 0
M  V30 692 C 63.4912 -0.467956 -1.8074 0
M  V30 693 C 63.8422 1.01151 -1.68116 0
M  V30 694 O 62.9672 1.78707 -1.22036 0
M  V30 695 C 63.5622 -0.842627 -3.28154 0
M  V30 696 C 62.1212 -0.541439 -3.72485 0
M  V30 697 C 61.2682 -1.06028 -2.56229 0
M  V30 698 H 64.2192 -1.01183 -1.22261 0
M  V30 699 H 64.2402 -0.145876 -3.8022 0
M  V30 700 H 63.7522 -1.91945 -3.37311 0
M  V30 701 H 61.8532 0.526034 -3.68868 0
M  V30 702 H 61.9662 -1.08453 -4.66663 0
M  V30 703 H 60.3302 -0.481892 -2.501 0
M  V30 704 H 61.1132 -2.14352 -2.68157 0
M  V30 705 N 63.5583 1.46682 -0.576371 0
M  V30 706 C 64.9693 1.86112 -0.148091 0
M  V30 707 C 65.3203 1.48073 1.2872 0
M  V30 708 O 64.4453 0.892656 1.97131 0
M  V30 709 C 65.0403 3.37786 -0.261982 0
M  V30 710 C 63.5993 3.76235 0.111384 0
M  V30 711 C 62.7463 2.70713 -0.60083 0
M  V30 712 H 65.6973 1.37927 -0.78497 0
M  V30 713 H 65.7183 3.77007 0.514364 0
M  V30 714 H 65.2303 3.6544 -1.30671 0
M  V30 715 H 63.3313 3.54198 1.15649 0
M  V30 716 H 63.4443 4.78391 -0.26052 0
M  V30 717 H 61.8083 2.54666 -0.0417783 0
M  V30 718 H 62.5913 3.01208 -1.64708 0
M  V30 719 N 65.0364 0.313813 1.54444 0
M  V30 720 C 65.9684 -0.590425 2.21465 0
M  V30 721 C 66.9814 -1.08753 1.21147 0
M  V30 722 O 68.1704 -1.00278 1.4767 0
M  V30 723 C 65.2704 -1.82179 2.85769 0
M  V30 724 C 64.4434 -1.46502 4.12136 0
M  V30 725 C 63.5024 -2.55288 4.60124 0
M  V30 726 O 62.5284 -2.19842 5.25032 0
M  V30 727 N 63.7304 -3.86053 4.33525 0
M  V30 728 H 66.4954 -0.0166033 2.99695 0
M  V30 729 H 64.0564 0.136578 1.61323 0
M  V30 730 H 66.0484 -2.54328 3.14801 0
M  V30 731 H 64.6184 -2.30369 2.11303 0
M  V30 732 H 63.8384 -0.575595 3.89975 0
M  V30 733 H 65.1264 -1.20221 4.94393 0
M  V30 734 H 64.5244 -4.17654 3.81552 0
M  V30 735 H 63.0814 -4.54461 4.67235 0
M  V30 736 N 66.5145 -1.57545 0.0417849 0
M  V30 737 C 67.4465 -2.07904 -0.964799 0
M  V30 738 C 68.4595 -1.00497 -1.28079 0
M  V30 739 O 69.6485 -1.28087 -1.24322 0
M  V30 740 C 66.7485 -2.49928 -2.28887 0
M  V30 741 C 65.9215 -3.80562 -2.15619 0
M  V30 742 C 64.9805 -4.08999 -3.31069 0
M  V30 743 O 64.0065 -4.79061 -3.0739 0
M  V30 744 N 65.2085 -3.6017 -4.55256 0
M  V30 745 H 67.9735 -2.94886 -0.535029 0
M  V30 746 H 65.5345 -1.61252 -0.144681 0
M  V30 747 H 67.5265 -2.66034 -3.04972 0
M  V30 748 H 66.0965 -1.68245 -2.63463 0
M  V30 749 H 65.3165 -3.74129 -1.24183 0
M  V30 750 H 66.6045 -4.66126 -2.03971 0
M  V30 751 H 66.0025 -3.03512 -4.77386 0
M  V30 752 H 64.5595 -3.81532 -5.28466 0
M  V30 753 N 67.9926 0.231505 -1.5589 0
M  V30 754 C 69.2386 0.95877 -1.78705 0
M  V30 755 C 69.5716 1.8438 -0.609725 0
M  V30 756 O 68.8466 1.90521 0.391426 0
M  V30 757 C 69.1296 1.8062 -3.11526 0
M  V30 758 C 68.9826 0.948328 -4.39689 0
M  V30 759 C 70.3016 2.78585 -3.40703 0
M  V30 760 H 67.4206 0.347129 -0.650131 0
M  V30 761 H 70.0626 0.228259 -1.88624 0
M  V30 762 H 68.2126 2.42902 -3.03201 0
M  V30 763 H 69.8846 0.343016 -4.60023 0
M  V30 764 H 68.1276 0.253314 -4.3306 0
M  V30 765 H 68.7986 1.57543 -5.29041 0
M  V30 766 H 71.2746 2.26439 -3.49091 0
M  V30 767 H 70.1506 3.34988 -4.34826 0
M  V30 768 H 70.4116 3.55825 -2.62375 0
M  V30 769 N 69.4707 1.49531 0.497807 0
M  V30 770 C 70.8867 1.36365 0.829266 0
M  V30 771 C 71.0867 0.399184 1.97506 0
M  V30 772 O 70.1427 -0.167977 2.51941 0
M  V30 773 C 71.4557 2.77153 1.16647 0
M  V30 774 C 73.0037 2.85877 1.27449 0
M  V30 775 C 73.4787 4.2744 1.64497 0
M  V30 776 N 74.9697 4.30265 1.7154 0
M  V30 777 C 75.7047 5.3677 2.01656 0
M  V30 778 N 75.2007 6.53516 2.29976 0
M  V30 779 N 76.9937 5.24189 2.02934 0
M  V30 780 H 69.1447 2.10831 -0.257703 0
M  V30 781 H 71.4077 0.946534 -0.0527091 0
M  V30 782 H 71.1137 3.49442 0.397872 0
M  V30 783 H 70.9877 3.12722 2.10915 0
M  V30 784 H 73.3747 2.13824 2.0338 0
M  V30 785 H 73.4557 2.53887 0.312244 0
M  V30 786 H 73.0997 5.00021 0.891151 0
M  V30 787 H 73.0297 4.56896 2.61827 0
M  V30 788 H 75.5207 3.4607 1.51802 0
M  V30 789 H 75.8337 7.30506 2.52153 0
M  V30 790 H 74.1787 6.56737 2.27425 0
M  V30 791 H 77.3697 4.31988 1.80289 0
M  V30 792 H 77.5427 6.07286 2.26071 0
M  V30 793 N 70.9488 -0.749086 1.3866 0
M  V30 794 C 72.1738 -1.54344 1.38538 0
M  V30 795 C 72.5988 -1.88088 -0.0216655 0
M  V30 796 O 71.9568 -1.50899 -1.00494 0
M  V30 797 C 72.0048 -2.8164 2.25192 0
M  V30 798 O 71.1088 -3.7698 1.67212 0
M  V30 799 H 70.4498 -0.466654 0.472367 0
M  V30 800 H 72.9798 -0.925355 1.82478 0
M  V30 801 H 72.9898 -3.30519 2.3921 0
M  V30 802 H 71.6648 -2.56411 3.27454 0
M  V30 803 H 70.2418 -3.35699 1.6236 0
M  V30 804 N 72.4269 -1.23603 -0.977757 0
M  V30 805 C 73.3899 -1.02069 -2.05218 0
M  V30 806 C 74.3899 0.0184305 -1.60789 0
M  V30 807 O 75.5799 -0.221569 -1.72785 0
M  V30 808 C 72.7119 -0.544926 -3.36517 0
M  V30 809 H 73.9049 -1.9742 -2.25755 0
M  V30 810 H 71.4579 -1.05684 -1.15155 0
M  V30 811 H 72.1929 0.412241 -3.21669 0
M  V30 812 H 71.9779 -1.2948 -3.70105 0
M  V30 813 H 73.4679 -0.414985 -4.15533 0
M  V30 814 N 73.905 1.17692 -1.04816 0
M  V30 815 C 75.133 1.91786 -0.776254 0
M  V30 816 C 75.548 1.76604 0.667577 0
M  V30 817 O 74.905 1.10067 1.45573 0
M  V30 818 C 74.956 3.42967 -1.14263 0
M  V30 819 O 74.677 3.57678 -2.52978 0
M  V30 820 C 76.178 4.34144 -0.896311 0
M  V30 821 H 73.398 0.608624 -0.282519 0
M  V30 822 H 75.942 1.49268 -1.39783 0
M  V30 823 H 74.097 3.83245 -0.565874 0
M  V30 824 H 74.511 4.51319 -2.67229 0
M  V30 825 H 75.985 5.38744 -1.20244 0
M  V30 826 H 76.462 4.38876 0.168636 0
M  V30 827 H 77.068 3.99574 -1.45672 0
M  V30 828 N 75.3831 0.828654 1.34056 0
M  V30 829 C 76.3461 0.259927 2.27721 0
M  V30 830 C 77.3461 -0.565478 1.50529 0
M  V30 831 O 78.5361 -0.38075 1.69988 0
M  V30 832 C 75.6681 -0.634944 3.34935 0
M  V30 833 H 76.8611 1.0863 2.79534 0
M  V30 834 H 74.4141 0.600951 1.44285 0
M  V30 835 H 75.1491 -1.48416 2.88346 0
M  V30 836 H 74.9341 -0.0444999 3.92075 0
M  V30 837 H 76.4241 -1.02648 4.04788 0
M  V30 838 N 76.8612 -1.46375 0.584142 0
M  V30 839 C 78.1092 -2.01978 0.0701287 0
M  V30 840 C 78.4302 -1.4579 -1.295 0
M  V30 841 O 77.7002 -0.64314 -1.85042 0
M  V30 842 H 76.2802 -0.746648 0.0229345 0
M  V30 843 H 78.9422 -1.79461 0.760245 0
M  V30 844 H 78.0382 -3.121 0.0022064 0
M  V30 845 N 78.3393 -0.321999 -1.54275 0
M  V30 846 C 79.5643 0.285791 -2.05422 0
M  V30 847 C 79.9893 1.45124 -1.19669 0
M  V30 848 O 79.3473 1.80132 -0.205441 0
M  V30 849 C 79.3953 0.69956 -3.53749 0
M  V30 850 O 78.4993 1.8021 -3.70942 0
M  V30 851 H 77.8403 0.0518962 -0.661969 0
M  V30 852 H 80.3703 -0.469954 -1.9913 0
M  V30 853 H 80.3803 0.982649 -3.9599 0
M  V30 854 H 79.0553 -0.152864 -4.15619 0
M  V30 855 H 77.6323 1.51794 -3.40607 0
M  V30 856 N 79.8174 1.5752 -0.0501392 0
M  V30 857 C 80.7274 2.14952 0.939827 0
M  V30 858 C 81.7434 1.10706 1.34239 0
M  V30 859 O 82.9194 1.42869 1.41952 0
M  V30 860 C 79.9844 2.68232 2.19665 0
M  V30 861 C 79.0454 3.87272 1.85253 0
M  V30 862 C 78.2784 4.38002 3.04943 0
M  V30 863 O 78.5014 3.87811 4.18281 0
M  V30 864 O 77.4354 5.29602 2.86017 0
M  V30 865 H 81.2614 2.9986 0.481392 0
M  V30 866 H 78.8464 1.4841 0.171699 0
M  V30 867 H 80.7284 3.02475 2.93406 0
M  V30 868 H 79.4034 1.86395 2.64648 0
M  V30 869 H 78.3104 3.5792 1.0883 0
M  V30 870 H 79.6434 4.70336 1.4507 0
M  V30 871 N 81.2955 -0.223234 1.56011 0
M  V30 872 C 82.5435 -0.946003 1.78592 0
M  V30 873 C 82.8645 -1.84936 0.618349 0
M  V30 874 O 82.1345 -1.92473 -0.364833 0
M  V30 875 H 80.7145 -0.352298 0.658707 0
M  V30 876 H 83.3765 -0.235494 1.93472 0
M  V30 877 H 82.4725 -1.55381 2.70672 0
M  V30 878 N 82.7736 -1.49793 -0.48987 0
M  V30 879 C 84.0216 -1.59525 -1.24081 0
M  V30 880 C 84.3426 -0.288953 -1.92847 0
M  V30 881 O 83.6126 0.692436 -1.83254 0
M  V30 882 H 82.1926 -0.587796 -0.460983 0
M  V30 883 H 84.8546 -1.86477 -0.566778 0
M  V30 884 H 83.9506 -2.39696 -1.99881 0
M  V30 885 N 84.2517 0.741722 -1.39055 0
M  V30 886 C 85.4987 1.50114 -1.35912 0
M  V30 887 C 85.8267 1.94443 0.0470937 0
M  V30 888 O 85.0817 1.66612 1.02659 0
M  V30 889 C 85.3807 2.7592 -2.27163 0
M  V30 890 C 85.0467 2.50493 -3.74919 0
M  V30 891 C 83.7087 2.43267 -4.1518 0
M  V30 892 C 86.0607 2.28585 -4.684 0
M  V30 893 C 83.3887 2.12166 -5.46994 0
M  V30 894 C 85.7407 1.99002 -6.00484 0
M  V30 895 C 84.4047 1.90241 -6.39816 0
M  V30 896 H 83.6747 0.549306 -0.497336 0
M  V30 897 H 86.3217 0.851896 -1.71508 0
M  V30 898 H 84.6267 3.45553 -1.84663 0
M  V30 899 H 86.3237 3.33923 -2.22028 0
M  V30 900 H 82.9137 2.56992 -3.43006 0
M  V30 901 H 87.0977 2.33139 -4.38132 0
M  V30 902 H 82.3537 2.03901 -5.76398 0
M  V30 903 H 86.5277 1.81057 -6.72452 0
M  V30 904 H 84.1547 1.65907 -7.41875 0
M  V30 905 N 85.7298 1.2412 0.971189 0
M  V30 906 C 86.6598 1.05508 2.08304 0
M  V30 907 C 87.6408 -0.0308864 1.70072 0
M  V30 908 O 88.8258 0.135521 1.93727 0
M  V30 909 C 85.9558 0.655365 3.4106 0
M  V30 910 C 84.9098 1.68971 3.93234 0
M  V30 911 C 84.2358 1.14516 5.22293 0
M  V30 912 C 85.5358 3.08487 4.21465 0
M  V30 913 H 87.2298 1.98507 2.24132 0
M  V30 914 H 84.7758 0.955821 1.07704 0
M  V30 915 H 86.7288 0.51217 4.18276 0
M  V30 916 H 85.4528 -0.31032 3.25122 0
M  V30 917 H 84.1118 1.82106 3.18171 0
M  V30 918 H 83.7598 0.170189 5.02712 0
M  V30 919 H 83.4598 1.83635 5.58168 0
M  V30 920 H 84.9838 1.01401 6.02121 0
M  V30 921 H 86.3978 2.98601 4.89398 0
M  V30 922 H 84.7948 3.74926 4.68562 0
M  V30 923 H 85.8648 3.56787 3.28376 0
M  V30 924 N 87.2079 -1.17134 1.05439 0
M  V30 925 C 88.1709 -2.19439 0.661764 0
M  V30 926 C 89.1709 -1.58199 -0.288042 0
M  V30 927 O 90.3609 -1.74053 -0.0715803 0
M  V30 928 C 87.4929 -3.40889 -0.0276209 0
M  V30 929 H 88.6859 -2.55688 1.56728 0
M  V30 930 H 86.2389 -1.31259 0.848567 0
M  V30 931 H 86.9739 -3.10187 -0.94629 0
M  V30 932 H 86.7589 -3.86586 0.655238 0
M  V30 933 H 88.2489 -4.16603 -0.288342 0
M  V30 934 N 88.686 -0.835752 -1.33615 0
M  V30 935 C 90.097 -0.487099 -1.80234 0
M  V30 936 C 90.448 0.993627 -1.69179 0
M  V30 937 O 89.573 1.77403 -1.23924 0
M  V30 938 C 90.168 -0.877385 -3.27242 0
M  V30 939 C 88.727 -0.580915 -3.7189 0
M  V30 940 C 87.874 -1.0874 -2.5509 0
M  V30 941 H 90.825 -1.02474 -1.2118 0
M  V30 942 H 90.846 -0.186195 -3.80044 0
M  V30 943 H 90.358 -1.95512 -3.35256 0
M  V30 944 H 88.459 0.486881 -3.69405 0
M  V30 945 H 88.572 -1.13396 -4.65487 0
M  V30 946 H 86.936 -0.508392 -2.49575 0
M  V30 947 H 87.719 -2.17184 -2.65868 0
M  V30 948 N 90.1641 1.46063 -0.591896 0
M  V30 949 C 91.0741 2.34192 0.13831 0
M  V30 950 C 92.0901 1.50305 0.876608 0
M  V30 951 O 93.2661 1.8315 0.837728 0
M  V30 952 C 90.3311 3.27656 1.13326 0
M  V30 953 C 89.3921 4.27445 0.39863 0
M  V30 954 C 88.6251 5.16443 1.34618 0
M  V30 955 O 88.8481 5.08553 2.58321 0
M  V30 956 O 87.7821 5.95843 0.851768 0
M  V30 957 H 91.6081 2.98002 -0.58552 0
M  V30 958 H 89.1931 1.45188 -0.352239 0
M  V30 959 H 91.0751 3.85291 1.70671 0
M  V30 960 H 89.7501 2.6643 1.83839 0
M  V30 961 H 88.6571 3.73471 -0.216895 0
M  V30 962 H 89.9901 4.91482 -0.265709 0
M  V30 963 N 91.6422 0.330177 1.54103 0
M  V30 964 C 92.8722 -0.271784 2.04805 0
M  V30 965 C 93.2802 -1.45816 1.20559 0
M  V30 966 O 92.6232 -1.82247 0.2306 0
M  V30 967 C 92.6852 -0.763238 3.51305 0
M  V30 968 C 92.3492 0.301705 4.56003 0
M  V30 969 C 93.3462 1.13999 5.07248 0
M  V30 970 C 91.0312 0.451793 5.00264 0
M  V30 971 C 93.0252 2.11402 6.01322 0
M  V30 972 C 90.7122 1.42924 5.94151 0
M  V30 973 C 91.7102 2.25882 6.44567 0
M  V30 974 O 91.3982 3.21965 7.3661 0
M  V30 975 H 91.1302 -0.058693 0.673447 0
M  V30 976 H 93.6842 0.476395 1.99799 0
M  V30 977 H 91.9142 -1.56244 3.5373 0
M  V30 978 H 93.6032 -1.28427 3.85047 0
M  V30 979 H 94.3692 1.03505 4.73827 0
M  V30 980 H 90.2482 -0.184044 4.60632 0
M  V30 981 H 93.7922 2.76192 6.40596 0
M  V30 982 H 89.6892 1.53479 6.26988 0
M  V30 983 H 90.4572 3.17281 7.54503 0
M  V30 984 N 93.1203 -1.57491 0.0584922 0
M  V30 985 C 94.5363 -1.56792 -0.298091 0
M  V30 986 C 94.7363 -1.06679 -1.70944 0
M  V30 987 O 93.7923 -0.726672 -2.41818 0
M  V30 988 C 95.1053 -3.00461 -0.119879 0
M  V30 989 C 96.6533 -3.1242 -0.190428 0
M  V30 990 C 97.1283 -4.57982 -0.0406567 0
M  V30 991 N 98.6193 -4.63099 -0.0966958 0
M  V30 992 C 99.3543 -5.734 -0.00502943 0
M  V30 993 N 98.8503 -6.9266 0.139402 0
M  V30 994 N 100.643 -5.62067 -0.0611391 0
M  V30 995 H 92.7943 -1.88386 0.98105 0
M  V30 996 H 95.0573 -0.867865 0.381463 0
M  V30 997 H 94.7633 -3.41187 0.85349 0
M  V30 998 H 94.6373 -3.66843 -0.877833 0
M  V30 999 H 97.0243 -2.71589 -1.15427 0
M  V30 1000 H 97.1053 -2.48702 0.598405 0
M  V30 1001 H 96.7493 -4.995 0.919897 0
M  V30 1002 H 96.6793 -5.19715 -0.848727 0
M  V30 1003 H 99.1703 -3.77331 -0.207277 0
M  V30 1004 H 99.4833 -7.72536 0.201855 0
M  V30 1005 H 97.8283 -6.94781 0.174586 0
M  V30 1006 H 101.019 -4.67782 -0.172583 0
M  V30 1007 H 101.192 -6.47999 0.0137562 0
M  V30 1008 N 94.5984 0.214957 -1.56127 0
M  V30 1009 C 95.5084 1.28727 -1.96129 0
M  V30 1010 C 96.5244 1.50916 -0.866044 0
M  V30 1011 O 97.7004 1.63918 -1.17016 0
M  V30 1012 C 94.7654 2.61569 -2.27558 0
M  V30 1013 C 93.8264 2.47625 -3.50685 0
M  V30 1014 C 93.0594 3.74132 -3.80606 0
M  V30 1015 O 93.2824 4.77438 -3.12104 0
M  V30 1016 O 92.2164 3.70849 -4.74083 0
M  V30 1017 H 96.0424 0.977855 -2.87527 0
M  V30 1018 H 93.6274 0.418358 -1.43423 0
M  V30 1019 H 95.5094 3.40012 -2.48938 0
M  V30 1020 H 94.1844 2.92178 -1.39332 0
M  V30 1021 H 93.0914 1.67361 -3.34576 0
M  V30 1022 H 94.4244 2.21954 -4.39315 0
M  V30 1023 N 96.0765 1.50051 0.48192 0
M  V30 1024 C 96.9865 1.7089 1.60728 0
M  V30 1025 C 98.0025 0.591788 1.63627 0
M  V30 1026 O 99.1785 0.868817 1.81696 0
M  V30 1027 C 96.2435 1.78855 2.97005 0
M  V30 1028 C 95.3045 3.02537 3.04581 0
M  V30 1029 C 94.5375 3.10112 4.34357 0
M  V30 1030 O 94.7605 2.24765 5.24249 0
M  V30 1031 O 93.6945 4.02747 4.47301 0
M  V30 1032 H 97.5205 2.66264 1.46072 0
M  V30 1033 H 95.1055 1.34018 0.660264 0
M  V30 1034 H 96.9875 1.86336 3.77964 0
M  V30 1035 H 95.6625 0.866628 3.11883 0
M  V30 1036 H 94.5695 3.00563 2.22739 0
M  V30 1037 H 95.9025 3.94272 2.94636 0
M  V30 1038 N 97.5546 -0.734337 1.39446 0
M  V30 1039 C 98.8026 -1.49096 1.36436 0
M  V30 1040 C 99.1236 -1.94961 -0.0388255 0
M  V30 1041 O 98.3936 -1.69033 -0.990191 0
M  V30 1042 H 96.9736 -0.5531 0.502085 0
M  V30 1043 H 99.6356 -0.871725 1.74319 0
M  V30 1044 H 98.7316 -2.37276 2.02747 0
M  V30 1045 N 99.0327 -1.24633 -0.964593 0
M  V30 1046 C 99.9957 -1.0424 -2.04124 0
M  V30 1047 C 100.996 0.00137563 -1.608 0
M  V30 1048 O 102.186 -0.239883 -1.7254 0
M  V30 1049 C 99.3177 -0.580588 -3.3592 0
M  V30 1050 H 100.511 -1.99803 -2.23649 0
M  V30 1051 H 98.0637 -1.06899 -1.14027 0
M  V30 1052 H 98.7987 0.3781 -3.22088 0
M  V30 1053 H 98.5837 -1.33398 -3.6871 0
M  V30 1054 H 100.074 -0.459034 -4.15069 0
M  V30 1055 N 100.511 1.16574 -1.06058 0
M  V30 1056 C 101.474 2.19085 -0.673392 0
M  V30 1057 C 102.474 1.5835 0.279648 0
M  V30 1058 O 103.664 1.74088 0.0623488 0
M  V30 1059 C 100.796 3.40899 0.00954234 0
M  V30 1060 H 101.989 2.54853 -1.58081 0
M  V30 1061 H 99.5418 1.30808 -0.855516 0
M  V30 1062 H 100.277 3.10684 0.929826 0
M  V30 1063 H 100.062 3.86233 -0.67573 0
M  V30 1064 H 101.552 4.1675 0.266245 0
M  V30 1065 N 101.989 0.842826 1.3317 0
M  V30 1066 C 103.235 0.441099 1.97945 0
M  V30 1067 C 103.568 -0.998024 1.66593 0
M  V30 1068 O 102.843 -1.69839 0.947898 0
M  V30 1069 C 103.126 0.666841 3.53872 0
M  V30 1070 C 102.979 2.15352 3.94897 0
M  V30 1071 C 104.298 0.115544 4.39948 0
M  V30 1072 H 101.417 0.161739 0.719034 0
M  V30 1073 H 104.059 1.05907 1.57746 0
M  V30 1074 H 102.209 0.140828 3.88245 0
M  V30 1075 H 103.881 2.7447 3.70761 0
M  V30 1076 H 102.124 2.63653 3.44484 0
M  V30 1077 H 102.795 2.26221 5.03516 0
M  V30 1078 H 105.271 0.565213 4.12243 0
M  V30 1079 H 104.147 0.303152 5.48062 0
M  V30 1080 H 104.408 -0.980935 4.3108 0
M  V30 1081 N 103.467 -1.45747 0.599634 0
M  V30 1082 C 104.43 -2.28917 -0.113835 0
M  V30 1083 C 105.43 -1.3933 -0.802729 0
M  V30 1084 O 106.62 -1.61534 -0.652103 0
M  V30 1085 C 103.752 -3.20152 -1.17114 0
M  V30 1086 H 104.945 -2.93478 0.617289 0
M  V30 1087 H 102.498 -1.52137 0.358327 0
M  V30 1088 H 103.233 -2.60374 -1.93329 0
M  V30 1089 H 103.018 -3.86133 -0.681468 0
M  V30 1090 H 104.508 -3.82708 -1.67105 0
M  V30 1091 N 104.945 -0.338344 -1.53925 0
M  V30 1092 C 106.17 0.263987 -2.05713 0
M  V30 1093 C 106.595 1.43847 -1.21201 0
M  V30 1094 O 105.953 1.79904 -0.224535 0
M  V30 1095 C 106.001 0.662 -3.54471 0
M  V30 1096 O 105.105 1.76265 -3.72833 0
M  V30 1097 H 104.446 0.0448722 -0.662482 0
M  V30 1098 H 106.976 -0.491048 -1.9862 0
M  V30 1099 H 106.986 0.940594 -3.9701 0
M  V30 1100 H 105.661 -0.196937 -4.15433 0
M  V30 1101 H 104.238 1.48173 -3.42198 0
M  V30 1102 N 106.423 1.57458 -0.0668435 0
M  V30 1103 C 107.839 1.56947 0.289772 0
M  V30 1104 C 108.039 1.07584 1.70376 0
M  V30 1105 O 107.095 0.739486 2.41429 0
M  V30 1106 C 108.408 3.0052 0.103943 0
M  V30 1107 C 109.956 3.12517 0.173857 0
M  V30 1108 C 110.431 4.57997 0.0163682 0
M  V30 1109 N 111.922 4.63144 0.0721352 0
M  V30 1110 C 112.657 5.73394 -0.0253794 0
M  V30 1111 N 112.153 6.92576 -0.176133 0
M  V30 1112 N 113.946 5.62091 0.0313305 0
M  V30 1113 H 106.097 1.87863 -0.991027 0
M  V30 1114 H 108.36 0.86583 -0.38606 0
M  V30 1115 H 108.066 3.40729 -0.871572 0
M  V30 1116 H 107.94 3.67304 0.858366 0
M  V30 1117 H 110.327 2.72197 1.13985 0
M  V30 1118 H 110.408 2.48381 -0.611586 0
M  V30 1119 H 110.052 4.99005 -0.946374 0
M  V30 1120 H 109.982 5.20158 0.821153 0
M  V30 1121 H 112.473 3.77436 0.187263 0
M  V30 1122 H 112.786 7.72418 -0.242821 0
M  V30 1123 H 111.131 6.94678 -0.211429 0
M  V30 1124 H 114.322 4.67867 0.147773 0
M  V30 1125 H 114.495 6.47982 -0.048121 0
M  V30 1126 N 107.901 -0.206675 1.56239 0
M  V30 1127 C 109.147 -0.930218 1.80208 0
M  V30 1128 C 109.48 -1.83387 0.638981 0
M  V30 1129 O 108.755 -1.91119 -0.361066 0
M  V30 1130 C 109.038 -1.75641 3.1436 0
M  V30 1131 C 108.891 -0.878257 4.41142 0
M  V30 1132 C 110.21 -2.73129 3.45092 0
M  V30 1133 H 107.329 -0.336742 0.655571 0
M  V30 1134 H 109.971 -0.198222 1.88963 0
M  V30 1135 H 108.121 -2.38048 3.07027 0
M  V30 1136 H 109.793 -0.269787 4.6051 0
M  V30 1137 H 108.036 -0.184385 4.33408 0
M  V30 1138 H 108.707 -1.49106 5.3148 0
M  V30 1139 H 111.183 -2.20856 3.52649 0
M  V30 1140 H 110.059 -3.28028 4.40101 0
M  V30 1141 H 110.32 -3.51606 2.68003 0
M  V30 1142 N 109.379 -1.50304 -0.473955 0
M  V30 1143 C 110.795 -1.37667 -0.807466 0
M  V30 1144 C 110.995 -0.430555 -1.96846 0
M  V30 1145 O 110.051 0.127874 -2.52176 0
M  V30 1146 C 111.364 -2.78974 -1.12223 0
M  V30 1147 C 112.912 -2.87868 -1.22885 0
M  V30 1148 C 113.387 -4.30003 -1.57676 0
M  V30 1149 N 114.878 -4.3294 -1.64673 0
M  V30 1150 C 115.613 -5.3991 -1.93091 0
M  V30 1151 N 115.109 -6.57092 -2.1955 0
M  V30 1152 N 116.902 -5.27351 -1.94569 0
M  V30 1153 H 109.053 -2.10394 0.291212 0
M  V30 1154 H 111.316 -0.945575 0.0677609 0
M  V30 1155 H 111.022 -3.50031 -0.342229 0
M  V30 1156 H 110.896 -3.16038 -2.05913 0
M  V30 1157 H 113.283 -2.17032 -1.99953 0
M  V30 1158 H 113.364 -2.54352 -0.271814 0
M  V30 1159 H 113.008 -5.01375 -0.81149 0
M  V30 1160 H 112.938 -4.61004 -2.54525 0
M  V30 1161 H 115.429 -3.48441 -1.46277 0
M  V30 1162 H 115.742 -7.34425 -2.405 0
M  V30 1163 H 114.087 -6.60272 -2.16948 0
M  V30 1164 H 117.278 -4.34801 -1.73394 0
M  V30 1165 H 117.451 -6.10805 -2.16381 0
M  V30 1166 N 110.857 0.726932 -1.39834 0
M  V30 1167 C 112.273 1.03354 -1.21615 0
M  V30 1168 C 112.473 2.01327 -0.08338 0
M  V30 1169 O 111.529 2.46158 0.56238 0
M  V30 1170 C 112.842 1.58811 -2.55342 0
M  V30 1171 C 114.39 1.70851 -2.62257 0
M  V30 1172 C 114.865 2.29716 -3.96225 0
M  V30 1173 N 116.356 2.37116 -3.97907 0
M  V30 1174 C 117.091 2.83619 -4.98345 0
M  V30 1175 N 116.587 3.29958 -6.09179 0
M  V30 1176 N 118.38 2.82901 -4.8572 0
M  V30 1177 H 110.531 0.0773069 -2.12259 0
M  V30 1178 H 112.794 0.0969102 -0.943034 0
M  V30 1179 H 112.5 0.942855 -3.38826 0
M  V30 1180 H 112.374 2.57502 -2.75632 0
M  V30 1181 H 114.761 2.34497 -1.79152 0
M  V30 1182 H 114.842 0.707913 -2.45809 0
M  V30 1183 H 114.486 1.66696 -4.79765 0
M  V30 1184 H 114.416 3.30469 -4.09997 0
M  V30 1185 H 116.907 2.04374 -3.17868 0
M  V30 1186 H 117.22 3.63976 -6.8172 0
M  V30 1187 H 115.565 3.27946 -6.12761 0
M  V30 1188 H 118.756 2.46027 -3.98231 0
M  V30 1189 H 118.929 3.18827 -5.6414 0
M  V30 1190 N 112.336 1.25143 0.95797 0
M  V30 1191 C 113.752 1.01892 1.22842 0
M  V30 1192 C 113.952 -0.266311 1.99732 0
M  V30 1193 O 113.008 -0.979913 2.3271 0
M  V30 1194 C 114.321 2.24004 2.00606 0
M  V30 1195 C 115.869 2.28731 2.13662 0
M  V30 1196 C 116.344 3.5049 2.94823 0
M  V30 1197 N 117.835 3.50866 3.02403 0
M  V30 1198 C 118.57 4.4174 3.65586 0
M  V30 1199 N 118.066 5.42882 4.30408 0
M  V30 1200 N 119.859 4.29429 3.62694 0
M  V30 1201 H 112.01 2.07718 0.443493 0
M  V30 1202 H 114.273 0.912031 0.258657 0
M  V30 1203 H 113.979 3.17395 1.51503 0
M  V30 1204 H 113.853 2.26907 3.01319 0
M  V30 1205 H 116.24 1.35865 2.61963 0
M  V30 1206 H 116.321 2.29848 1.12265 0
M  V30 1207 H 115.965 4.43676 2.47213 0
M  V30 1208 H 115.895 3.46617 3.96439 0
M  V30 1209 H 118.386 2.777 2.56302 0
M  V30 1210 H 118.699 6.0844 4.76467 0
M  V30 1211 H 117.044 5.46758 4.29047 0
M  V30 1212 H 120.235 3.49643 3.11236 0
M  V30 1213 H 120.408 5.00448 4.1165 0
M  V30 1214 N 113.814 -1.1601 1.06675 0
M  V30 1215 C 115.062 -1.86264 0.784229 0
M  V30 1216 C 115.383 -1.82328 -0.691488 0
M  V30 1217 O 114.653 -1.25947 -1.50047 0
M  V30 1218 H 113.233 -0.689621 0.28711 0
M  V30 1219 H 115.895 -1.40664 1.34906 0
M  V30 1220 H 114.991 -2.91595 1.11259 0
M  V30 1221 N 115.292 -0.849877 -1.32721 0
M  V30 1222 C 116.224 -0.248332 -2.27851 0
M  V30 1223 C 117.237 0.577218 -1.52224 0
M  V30 1224 O 118.426 0.402489 -1.73903 0
M  V30 1225 C 115.526 0.668107 -3.32249 0
M  V30 1226 C 114.699 -0.120534 -4.37234 0
M  V30 1227 C 113.758 0.720932 -5.21238 0
M  V30 1228 O 112.784 0.156166 -5.68986 0
M  V30 1229 N 113.986 2.03647 -5.43607 0
M  V30 1230 H 116.751 -1.06575 -2.80111 0
M  V30 1231 H 114.312 -0.709395 -1.45531 0
M  V30 1232 H 116.304 1.23627 -3.85355 0
M  V30 1233 H 114.874 1.38621 -2.80184 0
M  V30 1234 H 114.094 -0.870108 -3.84477 0
M  V30 1235 H 115.382 -0.662406 -5.0447 0
M  V30 1236 H 114.78 2.51871 -5.06535 0
M  V30 1237 H 113.337 2.55287 -5.99727 0
M  V30 1238 N 116.77 1.45427 -0.607355 0
M  V30 1239 C 117.702 2.2871 0.149752 0
M  V30 1240 C 118.715 1.39937 0.831958 0
M  V30 1241 O 119.904 1.64313 0.697385 0
M  V30 1242 C 117.004 3.15673 1.23304 0
M  V30 1243 C 116.177 4.32722 0.637996 0
M  V30 1244 C 115.236 5.00895 1.61215 0
M  V30 1245 O 114.262 5.57697 1.13854 0
M  V30 1246 N 115.464 5.00159 2.94655 0
M  V30 1247 H 118.229 2.94328 -0.564882 0
M  V30 1248 H 115.79 1.55612 -0.446823 0
M  V30 1249 H 117.782 3.58144 1.88454 0
M  V30 1250 H 116.352 2.51965 1.8502 0
M  V30 1251 H 115.572 3.93734 -0.191572 0
M  V30 1252 H 116.86 5.08321 0.220665 0
M  V30 1253 H 116.258 4.553 3.35735 0
M  V30 1254 H 114.815 5.46495 3.55228 0
M  V30 1255 N 118.248 0.346503 1.53744 0
M  V30 1256 C 119.525 -0.304532 1.93215 0
M  V30 1257 C 119.905 -1.67993 1.27834 0
M  V30 1258 O 119.253 -2.24411 0.430352 0
M  V30 1259 C 119.463 -0.373852 3.46992 0
M  V30 1260 C 120.811 -0.62329 4.2 0
M  V30 1261 O 121.835 -0.455847 3.53271 0
M  V30 1262 O 120.694 -0.947879 5.38217 0
M  V30 1263 H 117.788 -0.178318 0.807547 0
M  V30 1264 H 120.334 0.397895 1.64969 0
M  V30 1265 H 119.106 0.591224 3.86808 0
M  V30 1266 H 118.729 -1.12294 3.81413 0
M  V30 1267 N 119.726 -1.57421 0.075193 0
M  V30 1268 C 120.972 -1.93905 -0.594025 0
M  V30 1269 C 121.305 -0.955701 -1.69056 0
M  V30 1270 O 120.58 0.0145373 -1.94495 0
M  V30 1271 C 120.863 -3.40638 -1.1678 0
M  V30 1272 C 120.716 -4.49733 -0.0776792 0
M  V30 1273 C 122.035 -3.88259 -2.07228 0
M  V30 1274 H 119.154 -0.705105 -0.214466 0
M  V30 1275 H 121.796 -1.8947 0.141854 0
M  V30 1276 H 119.946 -3.44549 -1.79494 0
M  V30 1277 H 121.618 -4.57942 0.555573 0
M  V30 1278 H 119.861 -4.29751 0.591286 0
M  V30 1279 H 120.532 -5.49549 -0.519603 0
M  V30 1280 H 123.008 -3.86376 -1.54445 0
M  V30 1281 H 121.884 -4.91533 -2.44308 0
M  V30 1282 H 122.145 -3.26396 -2.98191 0
M  V30 1283 N 121.204 0.198386 -1.56346 0
M  V30 1284 C 122.134 1.24865 -1.9731 0
M  V30 1285 C 123.115 1.47651 -0.844576 0
M  V30 1286 O 124.3 1.59444 -1.10866 0
M  V30 1287 C 121.43 2.59358 -2.30977 0
M  V30 1288 C 120.384 2.5119 -3.46537 0
M  V30 1289 C 119.71 3.89926 -3.65871 0
M  V30 1290 C 121.01 2.03977 -4.80823 0
M  V30 1291 H 122.704 0.908252 -2.85291 0
M  V30 1292 H 120.25 0.435462 -1.37258 0
M  V30 1293 H 122.203 3.33011 -2.58228 0
M  V30 1294 H 120.927 2.95132 -1.39874 0
M  V30 1295 H 119.586 1.79993 -3.19371 0
M  V30 1296 H 119.234 4.23046 -2.72105 0
M  V30 1297 H 118.934 3.85336 -4.4361 0
M  V30 1298 H 120.458 4.65205 -3.95495 0
M  V30 1299 H 121.872 2.67386 -5.07127 0
M  V30 1300 H 120.269 2.10397 -5.62008 0
M  V30 1301 H 121.339 0.992861 -4.74626 0
M  V30 1302 N 122.682 1.50554 0.465978 0
M  V30 1303 C 124.098 1.38093 0.800154 0
M  V30 1304 C 124.298 0.440988 1.96615 0
M  V30 1305 O 123.354 -0.114499 2.5224 0
M  V30 1306 C 124.667 2.79565 1.10742 0
M  V30 1307 C 126.215 2.88516 1.21357 0
M  V30 1308 C 126.69 4.30833 1.55393 0
M  V30 1309 N 128.181 4.33807 1.62375 0
M  V30 1310 C 128.916 5.40927 1.90225 0
M  V30 1311 N 128.412 6.58247 2.16062 0
M  V30 1312 N 130.205 5.28376 1.9177 0
M  V30 1313 H 122.356 2.10237 -0.302366 0
M  V30 1314 H 124.619 0.945203 -0.0727746 0
M  V30 1315 H 124.325 3.50208 0.323661 0
M  V30 1316 H 124.199 3.17125 2.04234 0
M  V30 1317 H 126.586 2.1809 1.98799 0
M  V30 1318 H 126.667 2.54492 0.258321 0
M  V30 1319 H 126.311 5.01799 0.784889 0
M  V30 1320 H 126.241 4.62347 2.52076 0
M  V30 1321 H 128.732 3.49212 1.44427 0
M  V30 1322 H 129.045 7.3569 2.36601 0
M  V30 1323 H 127.39 6.61413 2.13444 0
M  V30 1324 H 130.581 4.35715 1.71085 0
M  V30 1325 H 130.754 6.11944 2.13139 0
M  V30 1326 N 124.16 -0.719506 1.40217 0
M  V30 1327 C 125.408 -1.47641 1.3801 0
M  V30 1328 C 125.729 -1.94992 -0.018145 0
M  V30 1329 O 124.999 -1.70073 -0.972207 0
M  V30 1330 H 123.579 -0.547744 0.507923 0
M  V30 1331 H 126.241 -0.853187 1.75233 0
M  V30 1332 H 125.337 -2.35112 2.05253 0
M  V30 1333 N 125.638 -1.25649 -0.95132 0
M  V30 1334 C 127.049 -1.09654 -1.51106 0
M  V30 1335 C 127.4 0.326615 -1.93462 0
M  V30 1336 O 126.525 1.21697 -1.78938 0
M  V30 1337 C 127.12 -1.98437 -2.74605 0
M  V30 1338 C 125.679 -1.86618 -3.2688 0
M  V30 1339 C 124.826 -1.9239 -1.99703 0
M  V30 1340 H 127.777 -1.38887 -0.767865 0
M  V30 1341 H 127.798 -1.5263 -3.48546 0
M  V30 1342 H 127.31 -3.02009 -2.43746 0
M  V30 1343 H 125.411 -0.859421 -3.62553 0
M  V30 1344 H 125.524 -2.71607 -3.94673 0
M  V30 1345 H 123.888 -1.36317 -2.15151 0
M  V30 1346 H 124.671 -2.97573 -1.71188 0
M  V30 1347 N 127.117 1.15442 -1.07289 0
M  V30 1348 C 128.065 2.22225 -0.686952 0
M  V30 1349 C 129.059 1.66688 0.30193 0
M  V30 1350 O 130.265 1.79236 0.165712 0
M  V30 1351 H 126.64 0.723783 -0.204064 0
M  V30 1352 H 128.611 2.52056 -1.5972 0
M  V30 1353 C 127.36 3.47556 -0.100149 0
M  V30 1354 H 126.683 3.90612 -0.852211 0
M  V30 1355 H 128.123 4.23794 0.132235 0
M  V30 1356 C 126.582 3.16337 1.159 0
M  V30 1357 O 127.112 3.33074 2.24555 0
M  V30 1358 N 125.318 2.70385 1.06491 0
M  V30 1359 H 124.865 2.56966 0.180668 0
M  V30 1360 H 124.823 2.49871 1.90819 0
M  V30 1361 N 128.595 0.856903 1.32268 0
M  V30 1362 C 129.841 0.462069 1.97466 0
M  V30 1363 C 130.174 -0.980298 1.67642 0
M  V30 1364 O 129.449 -1.68824 0.965858 0
M  V30 1365 C 129.732 0.704336 3.53145 0
M  V30 1366 C 129.585 2.19529 3.9259 0
M  V30 1367 C 130.904 0.1622 4.39801 0
M  V30 1368 H 128.023 0.169357 0.717278 0
M  V30 1369 H 130.665 1.07574 1.56614 0
M  V30 1370 H 128.815 0.181999 3.88073 0
M  V30 1371 H 130.487 2.78387 3.67829 0
M  V30 1372 H 128.73 2.67292 3.41668 0
M  V30 1373 H 129.401 2.31549 5.01088 0
M  V30 1374 H 131.877 0.608905 4.11621 0
M  V30 1375 H 130.753 0.361265 5.4771 0
M  V30 1376 H 131.014 -0.935158 4.32096 0
M  V30 1377 N 130.073 -1.45103 0.615059 0
M  V30 1378 C 131.313 -2.04069 0.116282 0
M  V30 1379 C 131.677 -1.4721 -1.2326 0
M  V30 1380 O 132.878 -1.97577 -1.82255 0
M  V30 1381 C 131.149 -3.57298 0.085482 0
M  V30 1382 S 132.708 -4.37394 -0.351015 0
M  V30 1383 H 129.526 -0.709006 0.0532183 0
M  V30 1384 H 132.128 -1.77709 0.81484 0
M  V30 1385 H 130.832 -3.9619 1.0706 0
M  V30 1386 H 130.363 -3.88244 -0.634835 0
M  V30 1387 H 132.378 -4.69734 -1.59889 0
M  V30 1388 N 131.551 -0.354651 -1.53558 0
M  V30 1389 C 132.799 0.237972 -2.00694 0
M  V30 1390 C 133.12 1.50173 -1.24391 0
M  V30 1391 O 132.39 1.92673 -0.354135 0
M  V30 1392 H 130.97 0.0909256 -0.741446 0
M  V30 1393 H 133.632 -0.478368 -1.88938 0
M  V30 1394 H 132.728 0.47264 -3.085 0
M  V30 1395 N 133.029 1.57378 -0.0835403 0
M  V30 1396 C 134.254 1.98682 0.594987 0
M  V30 1397 C 134.679 0.961969 1.61641 0
M  V30 1398 O 134.037 -0.0709989 1.81161 0
M  V30 1399 C 134.085 3.38988 1.2296 0
M  V30 1400 O 133.189 3.39208 2.34546 0
M  V30 1401 H 132.53 0.646368 0.152002 0
M  V30 1402 H 135.06 2.03961 -0.161533 0
M  V30 1403 H 135.07 3.76431 1.57366 0
M  V30 1404 H 133.745 4.13107 0.481228 0
M  V30 1405 H 132.322 3.13548 2.01846 0
M  V30 1406 N 134.507 -0.190092 1.56449 0
M  V30 1407 C 135.923 -0.54113 1.50146 0
M  V30 1408 C 136.123 -1.85603 0.784465 0
M  V30 1409 O 135.179 -2.5024 0.337051 0
M  V30 1410 C 136.492 -0.591241 2.9483 0
M  V30 1411 C 138.04 -0.679732 3.0553 0
M  V30 1412 C 138.515 -0.760908 4.51635 0
M  V30 1413 N 140.006 -0.824302 4.55806 0
M  V30 1414 C 140.741 -0.907365 5.66175 0
M  V30 1415 N 140.237 -0.952422 6.86222 0
M  V30 1416 N 142.03 -0.94494 5.541 0
M  V30 1417 H 134.181 0.67235 2.01478 0
M  V30 1418 H 136.444 0.240127 0.917084 0
M  V30 1419 H 136.15 0.305905 3.50367 0
M  V30 1420 H 136.024 -1.44422 3.48457 0
M  V30 1421 H 138.411 -1.56731 2.50039 0
M  V30 1422 H 138.492 0.199549 2.5502 0
M  V30 1423 H 138.136 0.122336 5.07753 0
M  V30 1424 H 138.066 -1.65606 4.99882 0
M  V30 1425 H 140.557 -0.798526 3.69367 0
M  V30 1426 H 140.87 -1.01645 7.66086 0
M  V30 1427 H 139.215 -0.921014 6.8887 0
M  V30 1428 H 142.406 -0.906612 4.59236 0
M  V30 1429 H 142.579 -1.00622 6.4014 0
M  V30 1430 N 135.985 -1.50799 -0.457987 0
M  V30 1431 C 137.232 -1.62442 -1.20908 0
M  V30 1432 C 137.56 -0.330865 -1.91665 0
M  V30 1433 O 136.815 0.68401 -1.83357 0
M  V30 1434 C 137.114 -2.76358 -2.2663 0
M  V30 1435 C 136.78 -4.16378 -1.73033 0
M  V30 1436 C 135.442 -4.54473 -1.58138 0
M  V30 1437 C 137.794 -5.03836 -1.33413 0
M  V30 1438 C 135.122 -5.77754 -1.02065 0
M  V30 1439 C 137.474 -6.27676 -0.78778 0
M  V30 1440 C 136.138 -6.64562 -0.625561 0
M  V30 1441 H 135.408 -0.594417 -0.442435 0
M  V30 1442 H 138.055 -1.84772 -0.503136 0
M  V30 1443 H 136.36 -2.48167 -3.03184 0
M  V30 1444 H 138.057 -2.82568 -2.84528 0
M  V30 1445 H 134.647 -3.86331 -1.85598 0
M  V30 1446 H 138.831 -4.75026 -1.4375 0
M  V30 1447 H 134.087 -6.04997 -0.882547 0
M  V30 1448 H 138.261 -6.94797 -0.472177 0
M  V30 1449 H 135.888 -7.59965 -0.188926 0
M  V30 1450 N 137.463 0.71206 -1.40597 0
M  V30 1451 C 138.413 1.81783 -1.37619 0
M  V30 1452 C 139.397 1.58896 -0.253162 0
M  V30 1453 O 140.589 1.70009 -0.492547 0
M  V30 1454 C 137.718 3.19944 -1.24462 0
M  V30 1455 C 136.804 3.48582 -2.4156 0
M  V30 1456 N 137.195 3.48016 -3.67041 0
M  V30 1457 C 135.493 3.79056 -2.35016 0
M  V30 1458 C 136.194 3.75096 -4.44609 0
M  V30 1459 N 135.17 3.94022 -3.74497 0
M  V30 1460 H 138.972 1.79683 -2.32575 0
M  V30 1461 H 136.486 0.91134 -1.34419 0
M  V30 1462 H 138.483 3.99133 -1.20411 0
M  V30 1463 H 137.143 3.23267 -0.304762 0
M  V30 1464 H 138.154 3.28782 -4.00153 0
M  V30 1465 H 134.831 3.89848 -1.49415 0
M  V30 1466 H 136.221 3.80934 -5.53479 0
M  V30 1467 N 138.941 1.26152 0.944643 0
M  V30 1468 C 140.166 1.14363 1.7302 0
M  V30 1469 C 140.591 -0.29772 1.85729 0
M  V30 1470 O 139.949 -1.2157 1.34501 0
M  V30 1471 C 139.997 1.81378 3.11664 0
M  V30 1472 O 139.101 1.10022 3.97453 0
M  V30 1473 H 138.442 0.398694 0.53098 0
M  V30 1474 H 140.972 1.66906 1.18337 0
M  V30 1475 H 140.982 1.88064 3.62072 0
M  V30 1476 H 139.657 2.86237 3.0173 0
M  V30 1477 H 138.234 1.11287 3.55907 0
M  V30 1478 N 140.419 -1.14872 1.07899 0
M  V30 1479 C 141.649 -1.89386 0.825631 0
M  V30 1480 C 142.057 -1.78565 -0.625406 0
M  V30 1481 O 141.4 -1.13918 -1.44113 0
M  V30 1482 C 141.462 -3.40206 1.16191 0
M  V30 1483 C 141.126 -3.74812 2.61467 0
M  V30 1484 C 142.123 -3.75367 3.59716 0
M  V30 1485 C 139.808 -4.0495 2.97189 0
M  V30 1486 C 141.802 -4.05574 4.9172 0
M  V30 1487 C 139.489 -4.34821 4.29388 0
M  V30 1488 C 140.487 -4.35116 5.26463 0
M  V30 1489 O 140.175 -4.64267 6.56286 0
M  V30 1490 H 139.907 -0.606894 0.297751 0
M  V30 1491 H 142.461 -1.46438 1.44031 0
M  V30 1492 H 140.691 -3.8358 0.490214 0
M  V30 1493 H 142.38 -3.96018 0.890193 0
M  V30 1494 H 143.146 -3.52176 3.33462 0
M  V30 1495 H 139.025 -4.03876 2.22273 0
M  V30 1496 H 142.569 -4.05719 5.67484 0
M  V30 1497 H 138.466 -4.5748 4.55392 0
M  V30 1498 H 139.234 -4.82007 6.61522 0
M  V30 1499 N 141.898 -0.863906 -1.31812 0
M  V30 1500 C 143.138 -0.47825 -1.98726 0
M  V30 1501 C 143.502 0.950397 -1.66828 0
M  V30 1502 O 144.703 1.44109 -2.26905 0
M  V30 1503 C 142.974 -0.721134 -3.50049 0
M  V30 1504 S 144.533 -0.434432 -4.36644 0
M  V30 1505 H 141.351 -0.178773 -0.688158 0
M  V30 1506 H 143.953 -1.11862 -1.60334 0
M  V30 1507 H 142.657 -1.75981 -3.70755 0
M  V30 1508 H 142.188 -0.0675315 -3.93342 0
M  V30 1509 H 144.203 0.735786 -4.90714 0
M  V30 1510 N 143.376 1.44774 -0.622745 0
M  V30 1511 C 144.616 2.04004 -0.127102 0
M  V30 1512 C 144.98 1.47862 1.22478 0
M  V30 1513 O 146.181 1.98541 1.81204 0
M  V30 1514 C 144.452 3.57247 -0.104429 0
M  V30 1515 S 146.011 4.37574 0.327814 0
M  V30 1516 H 142.829 0.708713 -0.0569776 0
M  V30 1517 H 145.431 1.77275 -0.824253 0
M  V30 1518 H 144.135 3.95616 -1.09159 0
M  V30 1519 H 143.666 3.88575 0.614236 0
M  V30 1520 H 145.681 4.70575 1.57395 0
M  V30 1521 N 144.854 0.36279 1.53368 0
M  V30 1522 C 146.265 -0.117022 1.86333 0
M  V30 1523 C 146.616 -1.48397 1.28347 0
M  V30 1524 O 145.741 -2.07787 0.604428 0
M  V30 1525 C 146.336 -0.21912 3.38091 0
M  V30 1526 C 144.895 -0.643184 3.70864 0
M  V30 1527 C 144.042 0.211318 2.76494 0
M  V30 1528 H 146.993 0.581687 1.47655 0
M  V30 1529 H 147.014 -1.04319 3.6592 0
M  V30 1530 H 146.526 0.775902 3.80265 0
M  V30 1531 H 144.627 -1.64654 3.34245 0
M  V30 1532 H 144.74 -0.41973 4.77258 0
M  V30 1533 H 143.104 -0.319367 2.5269 0
M  V30 1534 H 143.887 1.20383 3.21501 0
M  V30 1535 N 146.332 -1.57332 0.0918853 0
M  V30 1536 C 147.58 -1.93853 -0.571446 0
M  V30 1537 C 147.901 -0.974212 -1.6892 0
M  V30 1538 O 147.171 -0.0257254 -1.95883 0
M  V30 1539 H 145.751 -0.715666 -0.214082 0
M  V30 1540 H 148.413 -1.94287 0.154464 0
M  V30 1541 H 147.509 -2.96191 -0.983729 0
M  V30 1542 N 147.81 0.181792 -1.56548 0
M  V30 1543 C 149.056 0.896803 -1.82562 0
M  V30 1544 C 149.411 1.80324 -0.670908 0
M  V30 1545 O 148.704 1.8868 0.333235 0
M  V30 1546 C 148.898 1.73728 -3.12335 0
M  V30 1547 C 148.727 0.913714 -4.4032 0
M  V30 1548 C 147.497 0.592903 -5.01809 0
M  V30 1549 C 149.695 0.260164 -5.13642 0
M  V30 1550 N 147.677 -0.247901 -6.13399 0
M  V30 1551 C 149.048 -0.442256 -6.18421 0
M  V30 1552 C 151.103 0.177253 -4.97584 0
M  V30 1553 C 149.806 -1.21971 -7.08883 0
M  V30 1554 C 151.832 -0.586839 -5.88481 0
M  V30 1555 C 151.194 -1.27766 -6.92716 0
M  V30 1556 H 147.293 0.307122 -0.719166 0
M  V30 1557 H 149.877 0.164535 -1.94004 0
M  V30 1558 H 148.048 2.44105 -3.02105 0
M  V30 1559 H 149.78 2.39279 -3.26386 0
M  V30 1560 H 146.535 0.920502 -4.64568 0
M  V30 1561 H 146.959 -0.658304 -6.73792 0
M  V30 1562 H 151.601 0.696993 -4.17015 0
M  V30 1563 H 149.319 -1.75083 -7.88905 0
M  V30 1564 H 152.905 -0.652522 -5.78129 0
M  V30 1565 H 151.785 -1.85943 -7.61836 0
M  V30 1566 N 149.288 1.51039 0.449983 0
M  V30 1567 C 150.235 1.71439 1.54523 0
M  V30 1568 C 151.205 0.555871 1.56522 0
M  V30 1569 O 152.39 0.788871 1.73728 0
M  V30 1570 C 149.53 1.83384 2.92343 0
M  V30 1571 C 148.643 3.10873 2.9997 0
M  V30 1572 C 147.778 3.13488 4.28834 0
M  V30 1573 C 146.817 4.35343 4.30282 0
M  V30 1574 N 145.954 4.35579 5.5065 0
M  V30 1575 H 150.794 2.64934 1.36433 0
M  V30 1576 H 148.331 1.31312 0.662982 0
M  V30 1577 H 150.289 1.88291 3.72293 0
M  V30 1578 H 148.919 0.933086 3.0902 0
M  V30 1579 H 147.971 3.15336 2.12761 0
M  V30 1580 H 149.283 4.00814 2.96901 0
M  V30 1581 H 148.437 3.17241 5.17149 0
M  V30 1582 H 147.176 2.21414 4.34543 0
M  V30 1583 H 146.181 4.3178 3.40362 0
M  V30 1584 H 147.406 5.28668 4.26248 0
M  V30 1585 H 145.352 3.46369 5.57104 0
M  V30 1586 H 145.269 5.19313 5.49409 0
M  V30 1587 H 146.537 4.43507 6.41032 0
M  V30 1588 N 150.766 -0.704594 1.40972 0
M  V30 1589 C 151.994 -1.49354 1.43182 0
M  V30 1590 C 152.409 -1.88768 0.0345508 0
M  V30 1591 O 151.766 -1.56184 -0.944081 0
M  V30 1592 C 151.817 -2.76187 2.33244 0
M  V30 1593 O 151.538 -2.38436 3.67532 0
M  V30 1594 C 153.039 -3.7 2.44162 0
M  V30 1595 H 150.259 -0.460559 0.487982 0
M  V30 1596 H 152.803 -0.868261 1.85153 0
M  V30 1597 H 150.958 -3.34974 1.94606 0
M  V30 1598 H 151.372 -3.20126 4.15475 0
M  V30 1599 H 152.846 -4.55803 3.11364 0
M  V30 1600 H 153.323 -4.13867 1.47006 0
M  V30 1601 H 153.929 -3.17121 2.83398 0
M  V30 1602 N 152.244 -1.26651 -0.937939 0
M  V30 1603 C 153.174 -1.10993 -2.05433 0
M  V30 1604 C 154.155 -0.0142161 -1.70094 0
M  V30 1605 O 155.34 -0.186837 -1.93299 0
M  V30 1606 C 152.47 -0.745561 -3.39203 0
M  V30 1607 C 151.424 -1.79337 -3.88616 0
M  V30 1608 C 150.75 -1.28324 -5.19073 0
M  V30 1609 C 152.05 -3.19553 -4.13138 0
M  V30 1610 H 153.744 -2.0438 -2.1879 0
M  V30 1611 H 151.29 -0.984041 -1.05131 0
M  V30 1612 H 153.243 -0.622888 -4.16771 0
M  V30 1613 H 151.967 0.22401 -3.25831 0
M  V30 1614 H 150.626 -1.90477 -3.13231 0
M  V30 1615 H 150.274 -0.303414 -5.02084 0
M  V30 1616 H 149.974 -1.98369 -5.53103 0
M  V30 1617 H 151.498 -1.1733 -5.99221 0
M  V30 1618 H 152.912 -3.11471 -4.81309 0
M  V30 1619 H 151.309 -3.87218 -4.58457 0
M  V30 1620 H 152.379 -3.65368 -3.18801 0
M  V30 1621 N 153.722 1.14298 -1.08507 0
M  V30 1622 C 155.133 1.66926 -0.836227 0
M  V30 1623 C 155.484 1.85576 0.63686 0
M  V30 1624 O 154.609 1.56767 1.49175 0
M  V30 1625 C 155.204 3.03219 -1.51142 0
M  V30 1626 C 153.763 3.52876 -1.30979 0
M  V30 1627 C 152.91 2.2833 -1.57356 0
M  V30 1628 H 155.861 0.983491 -1.24552 0
M  V30 1629 H 155.882 3.68726 -0.939211 0
M  V30 1630 H 155.394 2.89612 -2.58353 0
M  V30 1631 H 153.495 3.71703 -0.258429 0
M  V30 1632 H 153.608 4.33586 -2.03814 0
M  V30 1633 H 151.972 2.34454 -0.995164 0
M  V30 1634 H 152.755 2.17298 -2.65775 0
M  V30 1635 N 155.201 0.870884 1.31352 0
M  V30 1636 C 156.449 0.48132 1.96285 0
M  V30 1637 C 156.77 -0.969813 1.69173 0
M  V30 1638 O 156.04 -1.67998 1.00764 0
M  V30 1639 H 154.62 0.175002 0.726212 0
M  V30 1640 H 157.282 1.11087 1.60143 0
M  V30 1641 H 156.378 0.639825 3.05471 0
M  V30 1642 N 156.679 -1.44442 0.630414 0
M  V30 1643 C 157.927 -2.01653 0.134351 0
M  V30 1644 C 158.248 -1.49836 -1.24796 0
M  V30 1645 O 157.518 -0.701684 -1.82902 0
M  V30 1646 H 156.098 -0.74554 0.0466769 0
M  V30 1647 H 158.76 -1.76952 0.816955 0
M  V30 1648 H 157.856 -3.11935 0.101498 0
M  V30 1649 N 158.157 -0.370918 -1.53173 0
M  V30 1650 C 159.105 0.488101 -2.27421 0
M  V30 1651 C 160.099 1.07884 -1.30604 0
M  V30 1652 O 161.305 1.02143 -1.48212 0
M  V30 1653 H 157.68 0.176134 -0.731082 0
M  V30 1654 H 159.651 -0.159815 -2.97972 0
M  V30 1655 C 158.4 1.61306 -3.08019 0
M  V30 1656 H 157.723 1.1678 -3.82364 0
M  V30 1657 H 159.163 2.18872 -3.63141 0
M  V30 1658 C 157.622 2.55848 -2.19188 0
M  V30 1659 O 158.152 3.58799 -1.80626 0
M  V30 1660 N 156.358 2.2516 -1.83715 0
M  V30 1661 H 155.905 1.41476 -2.15273 0
M  V30 1662 H 155.863 2.8867 -1.24567 0
M  V30 1663 N 159.635 1.57281 -0.100228 0
M  V30 1664 C 160.567 2.11342 0.886972 0
M  V30 1665 C 161.58 1.05182 1.24261 0
M  V30 1666 O 162.769 1.32613 1.19483 0
M  V30 1667 C 159.869 2.5825 2.19454 0
M  V30 1668 C 159.042 3.88302 2.01346 0
M  V30 1669 C 158.101 4.21004 3.15661 0
M  V30 1670 O 157.127 4.9014 2.89398 0
M  V30 1671 N 158.329 3.76818 4.41575 0
M  V30 1672 H 161.094 2.96668 0.425216 0
M  V30 1673 H 158.655 1.61678 0.0847334 0
M  V30 1674 H 160.647 2.7717 2.94888 0
M  V30 1675 H 159.217 1.77907 2.57037 0
M  V30 1676 H 158.437 3.7848 1.10212 0
M  V30 1677 H 159.725 4.73375 1.8653 0
M  V30 1678 H 159.123 3.2102 4.65792 0
M  V30 1679 H 157.68 4.00882 5.13942 0
M  V30 1680 N 161.113 -0.173488 1.56642 0
M  V30 1681 C 162.353 -0.896984 1.83667 0
M  V30 1682 C 162.717 -1.79523 0.680842 0
M  V30 1683 O 163.918 -2.55616 0.831488 0
M  V30 1684 C 162.189 -1.67351 3.15798 0
M  V30 1685 S 163.748 -2.44607 3.64298 0
M  V30 1686 H 160.566 -0.300464 0.644393 0
M  V30 1687 H 163.168 -0.158775 1.94854 0
M  V30 1688 H 161.872 -1.00462 3.97914 0
M  V30 1689 H 161.403 -2.45313 3.07546 0
M  V30 1690 H 163.418 -3.69261 3.31452 0
M  V30 1691 N 162.591 -1.51276 -0.441967 0
M  V30 1692 C 163.84 -1.6295 -1.18871 0
M  V30 1693 C 164.153 -0.349312 -1.92456 0
M  V30 1694 O 165.359 -0.345355 -2.69295 0
M  V30 1695 C 163.815 -2.87759 -2.16155 0
M  V30 1696 C 163.423 -4.22764 -1.48239 0
M  V30 1697 C 165.167 -3.08788 -2.91291 0
M  V30 1698 C 163.074 -5.38728 -2.4398 0
M  V30 1699 H 162.004 -0.606913 -0.447406 0
M  V30 1700 H 164.655 -1.77739 -0.456205 0
M  V30 1701 H 163.037 -2.66593 -2.92821 0
M  V30 1702 H 164.211 -4.54293 -0.771635 0
M  V30 1703 H 162.526 -4.07575 -0.852741 0
M  V30 1704 H 165.123 -3.92599 -3.63002 0
M  V30 1705 H 165.466 -2.21679 -3.5237 0
M  V30 1706 H 165.999 -3.30272 -2.21733 0
M  V30 1707 H 162.738 -6.28082 -1.87598 0
M  V30 1708 H 162.258 -5.1158 -3.13123 0
M  V30 1709 H 163.937 -5.70489 -3.05207 0
M  V30 1710 N 164.069 0.697108 -1.41344 0
M  V30 1711 C 165.315 1.4593 -1.40827 0
M  V30 1712 C 165.648 1.94193 -0.0167098 0
M  V30 1713 O 164.923 1.69425 0.955263 0
M  V30 1714 C 165.206 2.67229 -2.41373 0
M  V30 1715 C 165.059 2.24741 -3.8963 0
M  V30 1716 C 166.378 3.69423 -2.39196 0
M  V30 1717 H 163.497 0.529303 -0.512842 0
M  V30 1718 H 166.139 0.794112 -1.72609 0
M  V30 1719 H 164.289 3.23982 -2.14401 0
M  V30 1720 H 165.961 1.73327 -4.27499 0
M  V30 1721 H 164.204 1.56542 -4.0457 0
M  V30 1722 H 164.875 3.1177 -4.55525 0
M  V30 1723 H 167.351 3.2234 -2.63128 0
M  V30 1724 H 166.227 4.51907 -3.11563 0
M  V30 1725 H 166.488 4.19012 -1.41001 0
M  V30 1726 N 165.547 1.27147 0.931209 0
M  V30 1727 C 166.958 1.12044 1.49342 0
M  V30 1728 C 167.309 -0.295795 1.93957 0
M  V30 1729 O 166.434 -1.18835 1.80852 0
M  V30 1730 C 167.029 2.02781 2.71414 0
M  V30 1731 C 165.588 1.91794 3.2387 0
M  V30 1732 C 164.735 1.95543 1.96617 0
M  V30 1733 H 167.686 1.40091 0.745672 0
M  V30 1734 H 167.707 1.58156 3.46074 0
M  V30 1735 H 167.219 3.05848 2.38911 0
M  V30 1736 H 165.32 0.916992 3.6114 0
M  V30 1737 H 165.433 2.77852 3.90302 0
M  V30 1738 H 163.797 1.39722 2.12955 0
M  V30 1739 H 164.58 3.00259 1.66432 0
M  V30 1740 N 167.025 -1.13721 1.09112 0
M  V30 1741 C 168.274 -1.84275 0.82009 0
M  V30 1742 C 168.587 -1.84253 -0.656509 0
M  V30 1743 O 169.793 -2.50668 -1.04296 0
M  V30 1744 C 168.249 -3.30825 1.41714 0
M  V30 1745 C 167.857 -3.39244 2.92605 0
M  V30 1746 C 169.601 -4.06443 1.22492 0
M  V30 1747 C 167.508 -4.80047 3.45411 0
M  V30 1748 H 166.438 -0.690387 0.30312 0
M  V30 1749 H 169.089 -1.28146 1.31343 0
M  V30 1750 H 167.471 -3.86737 0.851498 0
M  V30 1751 H 168.645 -2.93344 3.55367 0
M  V30 1752 H 166.96 -2.77088 3.10823 0
M  V30 1753 H 169.557 -5.10387 1.59402 0
M  V30 1754 H 169.9 -4.15972 0.165299 0
M  V30 1755 H 170.433 -3.56852 1.75788 0
M  V30 1756 H 167.172 -4.75709 4.50978 0
M  V30 1757 H 166.692 -5.26455 2.87411 0
M  V30 1758 H 168.371 -5.48957 3.42425 0
M  V30 1759 N 168.503 -0.877838 -1.30888 0
M  V30 1760 C 169.743 -0.499301 -1.98208 0
M  V30 1761 C 170.107 0.932649 -1.67826 0
M  V30 1762 O 171.308 1.41694 -2.28421 0
M  V30 1763 C 169.579 -0.758221 -3.49265 0
M  V30 1764 S 171.138 -0.480719 -4.36159 0
M  V30 1765 H 167.956 -0.186062 -0.686223 0
M  V30 1766 H 170.558 -1.13556 -1.59139 0
M  V30 1767 H 169.262 -1.79903 -3.68867 0
M  V30 1768 H 168.793 -0.109247 -3.93248 0
M  V30 1769 H 170.808 0.683698 -4.91467 0
M  V30 1770 N 169.982 1.44106 -0.638065 0
M  V30 1771 C 171.398 1.56672 -0.304286 0
M  V30 1772 C 171.598 1.6244 1.19228 0
M  V30 1773 O 170.654 1.57121 1.9766 0
M  V30 1774 C 171.967 2.83503 -1.00231 0
M  V30 1775 C 173.515 2.97226 -0.981116 0
M  V30 1776 C 173.99 4.26868 -1.65974 0
M  V30 1777 N 175.481 4.33698 -1.62666 0
M  V30 1778 C 176.216 5.32745 -2.12063 0
M  V30 1779 N 175.712 6.38157 -2.6968 0
M  V30 1780 N 177.505 5.24299 -2.02651 0
M  V30 1781 H 169.656 1.38605 -1.60942 0
M  V30 1782 H 171.919 0.664661 -0.675965 0
M  V30 1783 H 171.625 2.85251 -2.0573 0
M  V30 1784 H 171.499 3.73251 -0.54439 0
M  V30 1785 H 173.886 2.95027 0.0654188 0
M  V30 1786 H 173.967 2.08808 -1.47759 0
M  V30 1787 H 173.611 4.29826 -2.70576 0
M  V30 1788 H 173.541 5.14156 -1.13804 0
M  V30 1789 H 176.032 3.58138 -1.20606 0
M  V30 1790 H 176.345 7.10029 -3.05087 0
M  V30 1791 H 174.69 6.38823 -2.73734 0
M  V30 1792 H 177.881 4.4086 -1.57353 0
M  V30 1793 H 178.054 6.01334 -2.41457 0
M  V30 1794 N 171.46 0.379036 1.52974 0
M  V30 1795 C 172.408 -0.476033 2.27677 0
M  V30 1796 C 173.402 -1.0719 1.31174 0
M  V30 1797 O 174.608 -1.01355 1.48752 0
M  V30 1798 H 170.983 -0.172255 0.732006 0
M  V30 1799 H 172.954 0.175615 2.97883 0
M  V30 1800 C 171.703 -1.5967 3.0887 0
M  V30 1801 H 171.026 -1.1475 3.82978 0
M  V30 1802 H 172.466 -2.16943 3.64296 0
M  V30 1803 C 170.925 -2.54682 2.20542 0
M  V30 1804 O 171.455 -3.57836 1.82527 0
M  V30 1805 N 169.661 -2.24183 1.84907 0
M  V30 1806 H 169.208 -1.40333 2.1602 0
M  V30 1807 H 169.166 -2.88006 1.26096 0
M  V30 1808 N 172.938 -1.57226 0.108567 0
M  V30 1809 C 174.163 -1.99604 -0.563303 0
M  V30 1810 C 174.588 -0.987563 -1.6009 0
M  V30 1811 O 173.946 0.0421687 -1.81251 0
M  V30 1812 C 173.994 -3.40902 -1.17552 0
M  V30 1813 O 173.098 -3.42896 -2.2912 0
M  V30 1814 H 172.439 -0.648704 -0.1417 0
M  V30 1815 H 174.969 -2.03679 0.193961 0
M  V30 1816 H 174.979 -3.78886 -1.51357 0
M  V30 1817 H 173.654 -4.1382 -0.415445 0
M  V30 1818 H 172.231 -3.1672 -1.96832 0
M  V30 1819 N 174.416 0.165178 -1.56732 0
M  V30 1820 C 175.656 0.887231 -1.8414 0
M  V30 1821 C 176.02 1.79159 -0.690353 0
M  V30 1822 O 177.221 2.55172 -0.845032 0
M  V30 1823 C 175.492 1.65674 -3.16681 0
M  V30 1824 S 177.051 2.42671 -3.6559 0
M  V30 1825 H 173.869 0.297042 -0.645978 0
M  V30 1826 H 176.471 0.148439 -1.94936 0
M  V30 1827 H 175.175 0.983507 -3.98441 0
M  V30 1828 H 174.706 2.43679 -3.08843 0
M  V30 1829 H 176.721 3.67499 -3.33406 0
M  V30 1830 N 175.894 1.51508 0.433938 0
M  V30 1831 C 177.142 1.6402 1.18075 0
M  V30 1832 C 177.463 0.360328 1.91642 0
M  V30 1833 O 176.733 -0.623945 1.85698 0
M  V30 1834 H 175.313 0.6045 0.43885 0
M  V30 1835 H 177.975 1.88452 0.497178 0
M  V30 1836 H 177.071 2.46949 1.90847 0
M  V30 1837 N 177.372 -0.689602 1.41712 0
M  V30 1838 C 178.649 -1.44457 1.31877 0
M  V30 1839 C 179.029 -2.11039 -0.0508537 0
M  V30 1840 O 178.377 -2.02138 -1.06547 0
M  V30 1841 C 178.587 -2.45913 2.47645 0
M  V30 1842 C 179.935 -3.10991 2.89084 0
M  V30 1843 O 180.959 -2.56238 2.47428 0
M  V30 1844 O 179.818 -4.10174 3.61137 0
M  V30 1845 H 176.912 -0.64362 0.519309 0
M  V30 1846 H 179.458 -0.719576 1.53689 0
M  V30 1847 H 178.23 -1.95409 3.39015 0
M  V30 1848 H 177.853 -3.25913 2.27742 0
M  V30 1849 N 178.85 -1.27639 -0.924453 0
M  V30 1850 C 180.098 -1.13941 -1.66918 0
M  V30 1851 C 180.419 0.314589 -1.92446 0
M  V30 1852 O 179.689 1.21964 -1.53303 0
M  V30 1853 H 178.269 -0.418678 -0.618642 0
M  V30 1854 H 180.931 -1.60213 -1.10985 0
M  V30 1855 H 180.027 -1.67094 -2.63602 0
M  V30 1856 N 180.328 1.1314 -1.09713 0
M  V30 1857 C 181.575 1.84484 -0.834987 0
M  V30 1858 C 181.903 1.83689 0.639418 0
M  V30 1859 O 181.158 1.2724 1.4869 0
M  V30 1860 C 181.457 3.32167 -1.3191 0
M  V30 1861 C 181.123 3.53139 -2.80363 0
M  V30 1862 C 179.785 3.58571 -3.20905 0
M  V30 1863 C 182.137 3.60866 -3.76065 0
M  V30 1864 C 179.465 3.69267 -4.55916 0
M  V30 1865 C 181.817 3.73089 -5.10869 0
M  V30 1866 C 180.481 3.76775 -5.50996 0
M  V30 1867 H 179.751 0.675073 -0.305544 0
M  V30 1868 H 182.398 1.33554 -1.37243 0
M  V30 1869 H 180.703 3.85469 -0.701517 0
M  V30 1870 H 182.4 3.85821 -1.09284 0
M  V30 1871 H 178.99 3.49569 -2.47991 0
M  V30 1872 H 183.174 3.55946 -3.45855 0
M  V30 1873 H 178.43 3.70388 -4.86438 0
M  V30 1874 H 182.604 3.78011 -5.84877 0
M  V30 1875 H 180.231 3.84815 -6.55608 0
M  V30 1876 N 181.806 0.884767 1.30421 0
M  V30 1877 C 183.046 0.509806 1.9794 0
M  V30 1878 C 183.41 -0.923736 1.68319 0
M  V30 1879 O 184.611 -1.40481 2.29169 0
M  V30 1880 C 182.882 0.776732 3.48858 0
M  V30 1881 S 184.441 0.503843 4.35898 0
M  V30 1882 H 181.259 0.189699 0.685227 0
M  V30 1883 H 183.861 1.14399 1.58535 0
M  V30 1884 H 182.565 1.81857 3.67908 0
M  V30 1885 H 182.096 0.1301 3.93185 0
M  V30 1886 H 184.111 -0.657625 4.91823 0
M  V30 1887 N 183.284 -1.43765 0.645699 0
M  V30 1888 C 184.509 -2.06767 0.161883 0
M  V30 1889 C 184.934 -1.48034 -1.16049 0
M  V30 1890 O 184.292 -0.587369 -1.71522 0
M  V30 1891 C 184.34 -3.60519 0.0762003 0
M  V30 1892 O 183.444 -4.00982 -0.963721 0
M  V30 1893 H 182.785 -0.657675 0.091429 0
M  V30 1894 H 185.315 -1.84397 0.886499 0
M  V30 1895 H 185.325 -4.07853 -0.109604 0
M  V30 1896 H 184 -4.02646 1.04157 0
M  V30 1897 H 182.577 -3.65253 -0.751312 0
M  V30 1898 N 184.763 -0.387143 -1.52771 0
M  V30 1899 C 186.179 -0.037007 -1.59557 0
M  V30 1900 C 186.379 1.44801 -1.40124 0
M  V30 1901 O 185.435 2.21227 -1.21716 0
M  V30 1902 C 186.748 -0.512256 -2.96305 0
M  V30 1903 C 188.296 -0.468328 -3.09476 0
M  V30 1904 C 188.771 -0.919731 -4.4867 0
M  V30 1905 N 190.262 -0.875656 -4.54848 0
M  V30 1906 C 190.997 -1.19637 -5.6078 0
M  V30 1907 N 190.493 -1.58745 -6.74368 0
M  V30 1908 N 192.286 -1.11776 -5.50874 0
M  V30 1909 H 184.437 -1.35395 -1.63652 0
M  V30 1910 H 186.7 -0.554818 -0.768688 0
M  V30 1911 H 186.406 -1.54935 -3.15734 0
M  V30 1912 H 186.28 0.089805 -3.77093 0
M  V30 1913 H 188.667 0.559671 -2.89744 0
M  V30 1914 H 188.748 -1.10616 -2.30646 0
M  V30 1915 H 188.392 -1.94595 -4.69143 0
M  V30 1916 H 188.322 -0.258927 -5.25963 0
M  V30 1917 H 190.813 -0.587843 -3.733 0
M  V30 1918 H 191.126 -1.81586 -7.51163 0
M  V30 1919 H 189.471 -1.6263 -6.75705 0
M  V30 1920 H 192.662 -0.811264 -4.61016 0
M  V30 1921 H 192.835 -1.37103 -6.3333 0
M  V30 1922 N 186.241 1.57166 -0.116904 0
M  V30 1923 C 187.652 1.82169 0.408809 0
M  V30 1924 C 188.003 1.03393 1.66746 0
M  V30 1925 O 187.128 0.269886 2.1471 0
M  V30 1926 C 187.723 3.30429 0.748466 0
M  V30 1927 C 186.282 3.5612 1.21882 0
M  V30 1928 C 185.429 2.76374 0.226452 0
M  V30 1929 H 188.38 1.5497 -0.342063 0
M  V30 1930 H 188.401 3.44943 1.60607 0
M  V30 1931 H 187.913 3.87737 -0.167784 0
M  V30 1932 H 186.014 3.04168 2.15204 0
M  V30 1933 H 186.127 4.64705 1.16559 0
M  V30 1934 H 184.491 2.44515 0.713063 0
M  V30 1935 H 185.274 3.3644 -0.682859 0
M  V30 1936 N 187.719 -0.156864 1.56817 0
M  V30 1937 C 188.667 -1.21319 1.98455 0
M  V30 1938 C 189.661 -1.45025 0.875444 0
M  V30 1939 O 190.867 -1.45435 1.0606 0
M  V30 1940 H 187.242 -0.408142 0.631605 0
M  V30 1941 H 189.213 -0.835244 2.86472 0
M  V30 1942 C 187.962 -2.54148 2.37285 0
M  V30 1943 H 187.285 -2.36733 3.22176 0
M  V30 1944 H 188.725 -3.26712 2.70251 0
M  V30 1945 C 187.184 -3.13967 1.22173 0
M  V30 1946 O 187.714 -3.98357 0.517149 0
M  V30 1947 N 185.92 -2.7327 0.988536 0
M  V30 1948 H 185.467 -2.04744 1.56326 0
M  V30 1949 H 185.425 -3.13628 0.220209 0
M  V30 1950 N 189.197 -1.51736 -0.425897 0
M  V30 1951 C 190.13 -1.68574 -1.53812 0
M  V30 1952 C 191.108 -0.53328 -1.53606 0
M  V30 1953 O 192.292 -0.758555 -1.72564 0
M  V30 1954 C 189.419 -1.70977 -2.92377 0
M  V30 1955 C 188.465 -2.92324 -3.10563 0
M  V30 1956 S 189.298 -4.52952 -2.85648 0
M  V30 1957 C 190.454 -4.58117 -4.26474 0
M  V30 1958 H 190.687 -2.62647 -1.39298 0
M  V30 1959 H 188.22 -1.41564 -0.616361 0
M  V30 1960 H 190.178 -1.73047 -3.72243 0
M  V30 1961 H 188.839 -0.78061 -3.04245 0
M  V30 1962 H 188.032 -2.90439 -4.11899 0
M  V30 1963 H 187.634 -2.88055 -2.38538 0
M  V30 1964 H 189.926 -4.34462 -5.19855 0
M  V30 1965 H 190.869 -5.59983 -4.33388 0
M  V30 1966 H 191.277 -3.8732 -4.10662 0
M  V30 1967 N 190.675 0.682077 -1.42076 0
M  V30 1968 C 191.915 1.45424 -1.43636 0
M  V30 1969 C 192.279 1.91939 -0.0484001 0
M  V30 1970 O 193.48 2.6873 0.0612514 0
M  V30 1971 C 191.751 2.62427 -2.42625 0
M  V30 1972 S 193.31 3.51379 -2.62827 0
M  V30 1973 H 190.128 0.496779 -0.508657 0
M  V30 1974 H 192.73 0.794645 -1.78621 0
M  V30 1975 H 191.434 2.26481 -3.42249 0
M  V30 1976 H 190.965 3.33266 -2.09039 0
M  V30 1977 H 192.98 4.58141 -1.9058 0
M  V30 1978 N 192.153 1.28127 0.917671 0
M  V30 1979 C 193.381 1.17892 1.70026 0
M  V30 1980 C 193.796 -0.262958 1.8696 0
M  V30 1981 O 193.153 -1.17811 1.3938 0
M  V30 1982 C 193.204 1.86872 3.09453 0
M  V30 1983 O 192.925 3.25428 2.93306 0
M  V30 1984 C 194.426 1.8289 4.03815 0
M  V30 1985 H 191.646 0.40942 0.531617 0
M  V30 1986 H 194.19 1.69181 1.14883 0
M  V30 1987 H 192.345 1.39464 3.61426 0
M  V30 1988 H 192.759 3.59918 3.81523 0
M  V30 1989 H 194.233 2.35751 4.99125 0
M  V30 1990 H 194.71 0.800412 4.31845 0
M  V30 1991 H 195.316 2.29959 3.57769 0
M  V30 1992 N 193.631 -1.12557 1.10312 0
M  V30 1993 C 194.871 -1.8568 0.854543 0
M  V30 1994 C 195.235 -1.82091 -0.608843 0
M  V30 1995 O 196.436 -2.50544 -0.973717 0
M  V30 1996 C 194.707 -3.2942 1.38626 0
M  V30 1997 S 196.266 -4.19931 1.27293 0
M  V30 1998 H 193.084 -0.640427 0.308827 0
M  V30 1999 H 195.686 -1.35599 1.40831 0
M  V30 2000 H 194.39 -3.2959 2.44537 0
M  V30 2001 H 193.921 -3.84566 0.82902 0
M  V30 2002 H 195.936 -4.95668 0.229776 0
M  V30 2003 N 195.109 -0.891671 -1.2995 0
M  V30 2004 C 196.334 -0.527932 -2.00568 0
M  V30 2005 C 196.759 0.877969 -1.66353 0
M  V30 2006 O 196.117 1.58301 -0.883762 0
M  V30 2007 C 196.165 -0.717745 -3.53385 0
M  V30 2008 O 195.269 0.233376 -4.11739 0
M  V30 2009 H 194.61 -0.20722 -0.630837 0
M  V30 2010 H 197.14 -1.20105 -1.65638 0
M  V30 2011 H 197.15 -0.619307 -4.03272 0
M  V30 2012 H 195.825 -1.74276 -3.77625 0
M  V30 2013 H 194.402 0.0880706 -3.72796 0
M  V30 2014 N 196.587 1.43421 -0.653314 0
M  V30 2015 C 197.812 2.06678 -0.172846 0
M  V30 2016 C 198.237 1.48648 1.15262 0
M  V30 2017 O 197.595 0.596457 1.71208 0
M  V30 2018 C 197.643 3.60474 -0.0953184 0
M  V30 2019 O 196.747 4.01487 0.942442 0
M  V30 2020 H 196.088 0.657181 -0.0949155 0
M  V30 2021 H 198.618 1.83925 -0.896265 0
M  V30 2022 H 198.628 4.07905 0.0879728 0
M  V30 2023 H 197.303 4.02088 -1.06291 0
M  V30 2024 H 195.88 3.65646 0.731932 0
M  V30 2025 N 198.065 0.39524 1.52563 0
M  V30 2026 C 199.313 -0.184678 2.01254 0
M  V30 2027 C 199.634 -1.46822 1.28329 0
M  V30 2028 O 198.904 -1.91666 0.405094 0
M  V30 2029 H 197.484 -0.0712355 0.743596 0
M  V30 2030 H 200.146 0.528293 1.87603 0
M  V30 2031 H 199.242 -0.390681 3.09645 0
M  V30 2032 N 199.544 -1.57102 0.125237 0
M  V30 2033 C 200.476 -2.12726 -0.853237 0
M  V30 2034 C 201.489 -1.07145 -1.22571 0
M  V30 2035 O 202.678 -1.34497 -1.17358 0
M  V30 2036 C 199.778 -2.61709 -2.15317 0
M  V30 2037 C 198.951 -3.91456 -1.95143 0
M  V30 2038 C 198.01 -4.25973 -3.08923 0
M  V30 2039 O 197.036 -4.94682 -2.81564 0
M  V30 2040 N 198.238 -3.83795 -4.35524 0
M  V30 2041 H 201.003 -2.97307 -0.377964 0
M  V30 2042 H 198.564 -1.61792 -0.0590011 0
M  V30 2043 H 200.556 -2.81826 -2.90441 0
M  V30 2044 H 199.126 -1.81974 -2.54174 0
M  V30 2045 H 198.346 -3.80185 -1.04177 0
M  V30 2046 H 199.634 -4.76283 -1.78976 0
M  V30 2047 H 199.032 -3.2839 -4.60626 0
M  V30 2048 H 197.589 -4.09008 -5.07499 0
M  V30 2049 N 201.022 0.148545 -1.56898 0
M  V30 2050 C 202.271 0.85984 -1.82454 0
M  V30 2051 C 202.584 1.82406 -0.706229 0
M  V30 2052 O 203.79 2.57938 -0.847349 0
M  V30 2053 C 202.246 1.57967 -3.2338 0
M  V30 2054 C 201.854 0.65794 -4.43142 0
M  V30 2055 C 203.598 2.27784 -3.58211 0
M  V30 2056 C 201.505 1.3793 -5.75091 0
M  V30 2057 H 200.435 0.324834 -0.68044 0
M  V30 2058 H 203.086 0.112588 -1.83154 0
M  V30 2059 H 201.468 2.37249 -3.17063 0
M  V30 2060 H 202.642 -0.0995497 -4.60692 0
M  V30 2061 H 200.957 0.0682643 -4.16344 0
M  V30 2062 H 203.554 2.8239 -4.54048 0
M  V30 2063 H 203.897 3.04204 -2.84193 0
M  V30 2064 H 204.43 1.55421 -3.66182 0
M  V30 2065 H 201.169 0.656982 -6.52199 0
M  V30 2066 H 200.689 2.10954 -5.61479 0
M  V30 2067 H 202.368 1.92063 -6.17835 0
M  V30 2068 N 202.5 1.5196 0.417844 0
M  V30 2069 C 203.725 1.69717 1.1921 0
M  V30 2070 C 204.15 0.402148 1.83751 0
M  V30 2071 O 203.508 -0.639593 1.69643 0
M  V30 2072 C 203.556 2.82794 2.2374 0
M  V30 2073 O 202.66 2.47756 3.29683 0
M  V30 2074 H 202.001 0.565263 0.348387 0
M  V30 2075 H 204.531 1.98621 0.490985 0
M  V30 2076 H 204.541 3.07452 2.68212 0
M  V30 2077 H 203.216 3.76756 1.76146 0
M  V30 2078 H 201.793 2.33739 2.90552 0
M  V30 2079 N 203.978 -0.674533 1.42435 0
M  V30 2080 C 205.203 -1.46784 1.46524 0
M  V30 2081 C 205.628 -1.87938 0.078066 0
M  V30 2082 O 204.986 -1.56014 -0.92354 0
M  V30 2083 C 205.034 -2.69307 2.39805 0
M  V30 2084 O 204.138 -3.67587 1.86959 0
M  V30 2085 H 203.479 -0.440959 0.496439 0
M  V30 2086 H 206.009 -0.827326 1.87127 0
M  V30 2087 H 206.019 -3.17374 2.56393 0
M  V30 2088 H 204.694 -2.38692 3.40586 0
M  V30 2089 H 203.271 -3.2662 1.79927 0
M  V30 2090 N 205.456 -1.28612 -0.910864 0
M  V30 2091 C 206.684 -1.18792 -1.69399 0
M  V30 2092 C 207.099 0.253039 -1.87097 0
M  V30 2093 O 206.456 1.17071 -1.40003 0
M  V30 2094 C 206.507 -1.88511 -3.08457 0
M  V30 2095 O 206.228 -3.26979 -2.91576 0
M  V30 2096 C 207.729 -1.85029 -4.02839 0
M  V30 2097 H 204.949 -0.412233 -0.529438 0
M  V30 2098 H 207.493 -1.69788 -1.13984 0
M  V30 2099 H 205.648 -1.41379 -3.60681 0
M  V30 2100 H 206.062 -3.61936 -3.79608 0
M  V30 2101 H 207.536 -2.38395 -4.97867 0
M  V30 2102 H 208.013 -0.823303 -4.31414 0
M  V30 2103 H 208.619 -2.31853 -3.56545 0
M  V30 2104 N 206.934 1.1197 -1.10907 0
M  V30 2105 C 208.174 1.85224 -0.864378 0
M  V30 2106 C 208.538 1.82411 0.599178 0
M  V30 2107 O 209.739 2.51057 0.960416 0
M  V30 2108 C 208.01 3.2868 -1.40371 0
M  V30 2109 S 209.569 4.1925 -1.29518 0
M  V30 2110 H 206.387 0.63878 -0.312219 0
M  V30 2111 H 208.989 1.3485 -1.41548 0
M  V30 2112 H 207.693 3.28289 -2.46281 0
M  V30 2113 H 207.224 3.84121 -0.849402 0
M  V30 2114 H 209.239 4.95539 -0.256059 0
M  V30 2115 N 208.412 0.89855 1.29475 0
M  V30 2116 C 209.66 0.522847 1.9522 0
M  V30 2117 C 209.981 -0.93371 1.71192 0
M  V30 2118 O 209.251 -1.65823 1.04305 0
M  V30 2119 H 207.831 0.190366 0.722336 0
M  V30 2120 H 210.493 1.14459 1.5775 0
M  V30 2121 H 209.589 0.704476 3.04045 0
M  V30 2122 N 209.89 -1.43072 0.660911 0
M  V30 2123 C 211.115 -2.06584 0.183805 0
M  V30 2124 C 211.54 -1.49257 -1.14472 0
M  V30 2125 O 210.898 -0.605528 -1.70889 0
M  V30 2126 C 210.946 -3.60418 0.114434 0
M  V30 2127 O 210.05 -4.01981 -0.921137 0
M  V30 2128 H 209.391 -0.656669 0.0983994 0
M  V30 2129 H 211.921 -1.83447 0.906006 0
M  V30 2130 H 211.931 -4.07946 -0.0663394 0
M  V30 2131 H 210.606 -4.01519 1.08422 0
M  V30 2132 H 209.183 -3.66029 -0.71253 0
M  V30 2133 N 211.368 -0.403325 -1.52352 0
M  V30 2134 C 212.315 0.425011 -2.26853 0
M  V30 2135 C 213.285 1.04598 -1.29029 0
M  V30 2136 O 214.47 1.07135 -1.57882 0
M  V30 2137 C 211.61 1.53888 -3.08889 0
M  V30 2138 C 210.723 0.939396 -4.21663 0
M  V30 2139 C 209.858 2.02547 -4.91068 0
M  V30 2140 C 208.897 1.40263 -5.95813 0
M  V30 2141 N 208.034 2.4286 -6.58759 0
M  V30 2142 H 212.874 -0.21674 -2.97211 0
M  V30 2143 H 210.411 -0.118722 -1.4662 0
M  V30 2144 H 212.369 2.19558 -3.54753 0
M  V30 2145 H 210.999 2.15074 -2.40714 0
M  V30 2146 H 210.051 0.171898 -3.80011 0
M  V30 2147 H 211.363 0.44436 -4.96817 0
M  V30 2148 H 210.517 2.75958 -5.40308 0
M  V30 2149 H 209.256 2.55415 -4.15469 0
M  V30 2150 H 208.261 0.653833 -5.45898 0
M  V30 2151 H 209.486 0.881719 -6.73352 0
M  V30 2152 H 207.432 2.94871 -5.85992 0
M  V30 2153 H 207.349 1.98152 -7.2957 0
M  V30 2154 H 208.617 3.15858 -7.12639 0
M  V30 2155 N 212.846 1.57033 -0.133567 0
M  V30 2156 C 214.071 2.00475 0.531477 0
M  V30 2157 C 214.496 1.01291 1.58499 0
M  V30 2158 O 213.854 -0.0133279 1.81295 0
M  V30 2159 C 213.902 3.42729 1.12113 0
M  V30 2160 O 213.006 3.46498 2.23636 0
M  V30 2161 H 212.347 0.650876 0.131362 0
M  V30 2162 H 214.877 2.03344 -0.22634 0
M  V30 2163 H 214.887 3.81246 1.4531 0
M  V30 2164 H 213.562 4.14428 0.349557 0
M  V30 2165 H 212.139 3.19811 1.91769 0
M  V30 2166 N 214.325 -0.140222 1.56975 0
M  V30 2167 C 215.574 -0.850152 1.82908 0
M  V30 2168 C 215.887 -1.82028 0.715892 0
M  V30 2169 O 217.093 -2.57485 0.861016 0
M  V30 2170 C 215.549 -1.5625 3.24213 0
M  V30 2171 C 215.157 -0.63443 4.43485 0
M  V30 2172 C 216.901 -2.25881 3.59413 0
M  V30 2173 C 214.808 -1.34879 5.75814 0
M  V30 2174 H 213.738 -0.321221 0.682153 0
M  V30 2175 H 216.389 -0.102874 1.83211 0
M  V30 2176 H 214.771 -2.35565 3.18316 0
M  V30 2177 H 215.945 0.12398 4.60633 0
M  V30 2178 H 214.26 -0.0461836 4.16374 0
M  V30 2179 H 216.857 -2.79978 4.5554 0
M  V30 2180 H 217.2 -3.02693 2.85802 0
M  V30 2181 H 217.733 -1.53477 3.67001 0
M  V30 2182 H 214.472 -0.622385 6.52539 0
M  V30 2183 H 213.992 -2.07974 5.6259 0
M  V30 2184 H 215.671 -1.88784 6.18845 0
M  V30 2185 N 215.803 -1.52179 -0.40978 0
M  V30 2186 C 216.735 -1.71703 -1.51825 0
M  V30 2187 C 217.748 -0.597445 -1.51441 0
M  V30 2188 O 218.937 -0.872582 -1.55719 0
M  V30 2189 C 216.037 -1.74171 -2.90719 0
M  V30 2190 C 215.21 -3.03156 -3.15302 0
M  V30 2191 C 214.269 -2.97445 -4.34065 0
M  V30 2192 O 213.295 -3.71352 -4.31377 0
M  V30 2193 N 214.497 -2.15191 -5.39141 0
M  V30 2194 H 217.262 -2.67334 -1.35472 0
M  V30 2195 H 214.823 -1.50409 -0.599069 0
M  V30 2196 H 216.815 -1.67884 -3.68235 0
M  V30 2197 H 215.385 -0.860166 -3.00533 0
M  V30 2198 H 214.605 -3.23097 -2.25836 0
M  V30 2199 H 215.893 -3.88484 -3.28569 0
M  V30 2200 H 215.291 -1.54573 -5.44173 0
M  V30 2201 H 213.848 -2.1476 -6.15403 0
M  V30 2202 N 217.281 0.66697 -1.42791 0
M  V30 2203 C 218.213 1.7925 -1.42836 0
M  V30 2204 C 219.226 1.59496 -0.326333 0
M  V30 2205 O 220.415 1.6847 -0.589916 0
M  V30 2206 C 217.515 3.16476 -1.21229 0
M  V30 2207 C 216.688 3.63011 -2.44013 0
M  V30 2208 C 215.747 4.78993 -2.17834 0
M  V30 2209 O 214.773 4.89137 -2.91091 0
M  V30 2210 N 215.975 5.68248 -1.18635 0
M  V30 2211 H 218.74 1.79695 -2.39854 0
M  V30 2212 H 216.301 0.850338 -1.37771 0
M  V30 2213 H 218.293 3.91734 -1.01621 0
M  V30 2214 H 216.863 3.10884 -0.32706 0
M  V30 2215 H 216.083 2.78346 -2.79137 0
M  V30 2216 H 217.371 3.90845 -3.25757 0
M  V30 2217 H 216.769 5.62712 -0.580615 0
M  V30 2218 H 215.326 6.43285 -1.05013 0
M  V30 2219 N 218.759 1.29093 0.90403 0
M  V30 2220 C 219.999 1.18076 1.66845 0
M  V30 2221 C 220.363 -0.26436 1.90171 0
M  V30 2222 O 221.564 -0.497423 2.64157 0
M  V30 2223 C 219.835 1.96722 2.98388 0
M  V30 2224 S 221.394 2.0219 3.89441 0
M  V30 2225 H 218.212 0.421104 0.572881 0
M  V30 2226 H 220.814 1.63322 1.07453 0
M  V30 2227 H 219.518 3.00866 2.7912 0
M  V30 2228 H 219.049 1.52064 3.62823 0
M  V30 2229 H 221.064 1.13545 4.83034 0
M  V30 2230 N 220.237 -1.11381 1.11499 0
M  V30 2231 C 221.462 -1.87475 0.887019 0
M  V30 2232 C 221.887 -1.79639 -0.557796 0
M  V30 2233 O 221.245 -1.15924 -1.39396 0
M  V30 2234 C 221.293 -3.34213 1.35403 0
M  V30 2235 O 220.397 -4.0903 0.526146 0
M  V30 2236 H 219.738 -0.582099 0.319463 0
M  V30 2237 H 222.268 -1.40785 1.48461 0
M  V30 2238 H 222.278 -3.8506 1.34881 0
M  V30 2239 H 220.953 -3.39232 2.40612 0
M  V30 2240 H 219.53 -3.68082 0.597522 0
M  V30 2241 N 221.715 -0.905404 -1.28997 0
M  V30 2242 C 222.961 -0.535039 -1.95615 0
M  V30 2243 C 223.294 0.917404 -1.71165 0
M  V30 2244 O 222.569 1.65123 -1.02785 0
M  V30 2245 C 222.852 -0.834918 -3.50287 0
M  V30 2246 C 222.705 -2.33948 -3.84172 0
M  V30 2247 C 224.024 -0.325318 -4.38896 0
M  V30 2248 H 221.143 -0.195861 -0.710498 0
M  V30 2249 H 223.785 -1.13313 -1.52513 0
M  V30 2250 H 221.935 -0.325904 -3.87131 0
M  V30 2251 H 223.607 -2.91847 -3.57243 0
M  V30 2252 H 221.85 -2.79789 -3.31513 0
M  V30 2253 H 222.521 -2.49987 -4.92149 0
M  V30 2254 H 224.997 -0.761256 -4.09077 0
M  V30 2255 H 223.873 -0.564295 -5.45992 0
M  V30 2256 H 224.134 0.774144 -4.35269 0
M  V30 2257 N 223.193 1.4272 -0.668489 0
M  V30 2258 C 224.609 1.55992 -0.33745 0
M  V30 2259 C 224.809 1.64933 1.15756 0
M  V30 2260 O 223.865 1.61278 1.94282 0
M  V30 2261 C 225.178 2.81314 -1.06222 0
M  V30 2262 C 226.726 2.95078 -1.04394 0
M  V30 2263 C 227.201 4.23252 -1.74991 0
M  V30 2264 N 228.692 4.3015 -1.71829 0
M  V30 2265 C 229.427 5.28127 -2.23315 0
M  V30 2266 N 228.923 6.32293 -2.83156 0
M  V30 2267 N 230.716 5.19882 -2.13726 0
M  V30 2268 H 222.867 1.3516 -1.63846 0
M  V30 2269 H 225.13 0.650174 -0.689912 0
M  V30 2270 H 224.836 2.80823 -2.11734 0
M  V30 2271 H 224.71 3.72012 -0.62344 0
M  V30 2272 H 227.097 2.951 0.0028244 0
M  V30 2273 H 227.178 2.05627 -1.52155 0
M  V30 2274 H 226.822 4.2399 -2.79633 0
M  V30 2275 H 226.752 5.11626 -1.24685 0
M  V30 2276 H 229.243 3.55499 -1.28175 0
M  V30 2277 H 229.556 7.03398 -3.20079 0
M  V30 2278 H 227.901 6.32873 -2.87223 0
M  V30 2279 H 231.092 4.37423 -1.66669 0
M  V30 2280 H 231.265 5.96077 -2.54158 0
M  V30 2281 N 224.671 0.411399 1.52136 0
M  V30 2282 C 225.911 -0.163143 2.03748 0
M  V30 2283 C 226.275 -1.42187 1.29022 0
M  V30 2284 O 227.476 -2.075 1.70872 0
M  V30 2285 C 225.747 -0.402651 3.55125 0
M  V30 2286 S 227.306 -0.944315 4.28519 0
M  V30 2287 H 224.124 -0.0439833 0.709638 0
M  V30 2288 H 226.726 0.56484 1.87163 0
M  V30 2289 H 225.43 0.520212 4.0709 0
M  V30 2290 H 224.961 -1.15844 3.75957 0
M  V30 2291 H 226.976 -2.22463 4.43536 0
M  V30 2292 N 226.149 -1.5696 0.141893 0
M  V30 2293 C 227.082 -2.12271 -0.837627 0
M  V30 2294 C 228.06 -1.04495 -1.24578 0
M  V30 2295 O 229.244 -1.32293 -1.34278 0
M  V30 2296 C 226.371 -2.63822 -2.12404 0
M  V30 2297 C 225.417 -3.83698 -1.86221 0
M  V30 2298 S 226.25 -5.24948 -1.05781 0
M  V30 2299 C 227.406 -5.79884 -2.35552 0
M  V30 2300 H 227.639 -2.95023 -0.367249 0
M  V30 2301 H 225.172 -1.54231 -0.0723014 0
M  V30 2302 H 227.13 -2.94175 -2.86307 0
M  V30 2303 H 225.791 -1.8121 -2.56557 0
M  V30 2304 H 224.984 -4.17995 -2.81596 0
M  V30 2305 H 224.586 -3.5408 -1.20429 0
M  V30 2306 H 226.878 -5.91005 -3.31239 0
M  V30 2307 H 227.821 -6.77544 -2.05767 0
M  V30 2308 H 228.229 -5.08095 -2.45967 0
M  V30 2309 N 227.627 0.131896 -1.57047 0
M  V30 2310 C 228.575 1.18146 -2.0036 0
M  V30 2311 C 229.569 1.43614 -0.898406 0
M  V30 2312 O 230.775 1.43729 -1.08361 0
M  V30 2313 H 227.15 0.398042 -0.638018 0
M  V30 2314 H 229.121 0.789564 -2.87765 0
M  V30 2315 C 227.87 2.50341 -2.41298 0
M  V30 2316 H 227.193 2.31578 -3.25902 0
M  V30 2317 H 228.633 3.22371 -2.75414 0
M  V30 2318 C 227.092 3.11984 -1.27153 0
M  V30 2319 O 227.622 3.97484 -0.580459 0
M  V30 2320 N 225.828 2.71662 -1.03189 0
M  V30 2321 H 225.375 2.02231 -1.59564 0
M  V30 2322 H 225.333 3.13238 -0.270077 0
M  V30 2323 N 229.106 1.52395 0.401703 0
M  V30 2324 C 230.354 1.66488 1.14569 0
M  V30 2325 C 230.675 0.400897 1.90835 0
M  V30 2326 O 229.945 -0.584415 1.8698 0
M  V30 2327 H 228.525 0.613672 0.425929 0
M  V30 2328 H 231.187 1.89464 0.457093 0
M  V30 2329 H 230.283 2.50942 1.85566 0
M  V30 2330 N 230.584 -0.659388 1.43143 0
M  V30 2331 C 231.832 -1.41654 1.44147 0
M  V30 2332 C 232.153 -1.94893 0.0645739 0
M  V30 2333 O 231.423 -1.74044 -0.899198 0
M  V30 2334 H 230.003 -0.525708 0.530697 0
M  V30 2335 H 232.665 -0.778097 1.78694 0
M  V30 2336 H 231.761 -2.26195 2.1504 0
M  V30 2337 N 232.062 -1.29571 -0.897171 0
M  V30 2338 C 233.29 -1.20583 -1.68129 0
M  V30 2339 C 233.705 0.233181 -1.87354 0
M  V30 2340 O 233.062 1.15579 -1.41236 0
M  V30 2341 C 233.113 -1.91772 -3.06441 0
M  V30 2342 O 232.834 -3.30053 -2.88091 0
M  V30 2343 C 234.335 -1.89291 -4.00854 0
M  V30 2344 H 231.555 -0.417826 -0.525036 0
M  V30 2345 H 234.099 -1.70987 -1.12177 0
M  V30 2346 H 232.254 -1.45196 -3.59161 0
M  V30 2347 H 232.668 -3.65942 -3.75748 0
M  V30 2348 H 234.142 -2.43662 -4.95311 0
M  V30 2349 H 234.619 -0.869014 -4.30517 0
M  V30 2350 H 235.225 -2.35622 -3.54066 0
M  V30 2351 N 233.54 1.10788 -1.12088 0
M  V30 2352 C 234.78 1.84297 -0.883974 0
M  V30 2353 C 235.144 1.83036 0.579797 0
M  V30 2354 O 236.345 2.52061 0.933734 0
M  V30 2355 C 234.616 3.27173 -1.43849 0
M  V30 2356 S 236.175 4.17853 -1.33957 0
M  V30 2357 H 232.993 0.635433 -0.318977 0
M  V30 2358 H 235.595 1.33341 -1.4297 0
M  V30 2359 H 234.299 3.25658 -2.49749 0
M  V30 2360 H 233.83 3.83198 -0.890096 0
M  V30 2361 H 235.845 4.95239 -0.308603 0
M  V30 2362 N 235.018 0.912232 1.28515 0
M  V30 2363 C 235.981 0.404223 2.25607 0
M  V30 2364 C 236.981 -0.468602 1.53821 0
M  V30 2365 O 238.171 -0.271873 1.72065 0
M  V30 2366 C 235.303 -0.420653 3.38295 0
M  V30 2367 H 236.496 1.26188 2.7206 0
M  V30 2368 H 234.049 0.691495 1.40171 0
M  V30 2369 H 234.784 -1.29777 2.97201 0
M  V30 2370 H 234.569 0.204935 3.91564 0
M  V30 2371 H 236.059 -0.766971 4.10496 0
M  V30 2372 N 236.496 -1.42363 0.676048 0
M  V30 2373 C 237.773 -1.95183 0.127726 0
M  V30 2374 C 238.153 -1.61641 -1.35777 0
M  V30 2375 O 237.501 -0.913216 -2.09458 0
M  V30 2376 C 237.711 -3.46721 0.398199 0
M  V30 2377 C 239.059 -4.23427 0.315383 0
M  V30 2378 O 240.083 -3.54649 0.332016 0
M  V30 2379 O 238.942 -5.45888 0.25865 0
M  V30 2380 H 236.036 -0.826992 0.00359427 0
M  V30 2381 H 238.582 -1.52184 0.750864 0
M  V30 2382 H 237.354 -3.64344 1.4272 0
M  V30 2383 H 236.977 -3.96769 -0.256885 0
M  V30 2384 N 237.974 -0.419461 -1.51915 0
M  V30 2385 C 239.251 0.211999 -1.94448 0
M  V30 2386 C 239.631 1.61703 -1.35703 0
M  V30 2387 O 238.979 2.22102 -0.536931 0
M  V30 2388 C 239.189 0.207872 -3.4838 0
M  V30 2389 C 240.537 0.422192 -4.22496 0
M  V30 2390 O 241.561 0.286778 -3.55044 0
M  V30 2391 O 240.42 0.690009 -5.42126 0
M  V30 2392 H 237.514 0.139586 -0.815135 0
M  V30 2393 H 240.06 -0.476151 -1.62883 0
M  V30 2394 H 238.832 -0.775102 -3.83546 0
M  V30 2395 H 238.455 0.939688 -3.86336 0
M  V30 2396 N 239.452 1.56882 -0.150215 0
M  V30 2397 C 240.402 2.13501 0.800071 0
M  V30 2398 C 241.386 1.06368 1.20726 0
M  V30 2399 O 242.578 1.32538 1.17314 0
M  V30 2400 C 239.707 2.76271 2.03787 0
M  V30 2401 C 238.793 3.90533 1.65364 0
M  V30 2402 N 239.184 4.96259 0.977794 0
M  V30 2403 C 237.482 4.013 1.94613 0
M  V30 2404 C 238.183 5.76286 0.791794 0
M  V30 2405 N 237.159 5.27163 1.32666 0
M  V30 2406 H 240.961 2.92615 0.274517 0
M  V30 2407 H 238.475 1.62319 0.0512144 0
M  V30 2408 H 240.472 3.15197 2.72867 0
M  V30 2409 H 239.132 1.98631 2.56857 0
M  V30 2410 H 240.143 5.13953 0.638193 0
M  V30 2411 H 236.82 3.3474 2.4951 0
M  V30 2412 H 238.21 6.71401 0.258894 0
M  V30 2413 N 240.93 -0.123565 1.57115 0
M  V30 2414 C 242.17 -0.838097 1.86428 0
M  V30 2415 C 242.534 -1.77266 0.737611 0
M  V30 2416 O 243.735 -2.52842 0.912389 0
M  V30 2417 C 242.006 -1.57219 3.20962 0
M  V30 2418 S 243.565 -2.32893 3.71896 0
M  V30 2419 H 240.383 -0.279811 0.653626 0
M  V30 2420 H 242.985 -0.0967034 1.95261 0
M  V30 2421 H 241.689 -0.877522 4.00909 0
M  V30 2422 H 241.22 -2.35405 3.15195 0
M  V30 2423 H 243.235 -3.5853 3.43032 0
M  V30 2424 N 242.408 -1.52605 -0.393616 0
M  V30 2425 C 243.34 -1.73303 -1.49995 0
M  V30 2426 C 244.353 -0.613473 -1.50799 0
M  V30 2427 O 245.542 -0.889049 -1.54784 0
M  V30 2428 C 242.642 -1.77245 -2.88855 0
M  V30 2429 C 241.815 -3.06483 -3.12069 0
M  V30 2430 C 240.874 -3.02033 -4.30886 0
M  V30 2431 O 239.9 -3.75907 -4.27414 0
M  V30 2432 N 241.102 -2.20897 -5.36828 0
M  V30 2433 H 243.867 -2.68756 -1.32629 0
M  V30 2434 H 241.428 -1.51036 -0.583083 0
M  V30 2435 H 243.42 -1.7178 -3.66434 0
M  V30 2436 H 241.99 -0.891993 -2.99603 0
M  V30 2437 H 241.21 -3.25474 -2.22396 0
M  V30 2438 H 242.498 -3.91947 -3.2443 0
M  V30 2439 H 241.896 -1.60336 -5.42502 0
M  V30 2440 H 240.453 -2.21275 -6.13091 0
M  V30 2441 N 243.887 0.651787 -1.4349 0
M  V30 2442 C 245.127 1.42345 -1.46688 0
M  V30 2443 C 245.491 1.91793 -0.0891023 0
M  V30 2444 O 246.692 2.688 0.00423594 0
M  V30 2445 C 244.963 2.57221 -2.48137 0
M  V30 2446 S 246.522 3.45725 -2.70221 0
M  V30 2447 H 243.34 0.485878 -0.51908 0
M  V30 2448 H 245.942 0.756578 -1.80267 0
M  V30 2449 H 244.646 2.1917 -3.46976 0
M  V30 2450 H 244.177 3.28757 -2.16061 0
M  V30 2451 H 246.192 4.53996 -2.00255 0
M  V30 2452 N 245.365 1.30045 0.890287 0
M  V30 2453 C 246.297 1.11786 2.00091 0
M  V30 2454 C 247.31 0.0626307 1.62679 0
M  V30 2455 O 248.499 0.308112 1.75821 0
M  V30 2456 C 245.599 0.681527 3.31977 0
M  V30 2457 C 244.772 1.81735 3.97858 0
M  V30 2458 C 243.831 1.37045 5.08041 0
M  V30 2459 O 242.857 2.07677 5.29961 0
M  V30 2460 N 244.059 0.246525 5.79976 0
M  V30 2461 H 246.824 2.07441 2.16306 0
M  V30 2462 H 244.385 1.2211 1.06305 0
M  V30 2463 H 246.377 0.365675 4.03045 0
M  V30 2464 H 244.947 -0.182828 3.12065 0
M  V30 2465 H 244.167 2.30159 3.20032 0
M  V30 2466 H 245.455 2.57865 4.38615 0
M  V30 2467 H 244.853 -0.34215 5.64664 0
M  V30 2468 H 243.41 -0.00990438 6.51799 0
M  V30 2469 N 246.843 -1.10192 1.12674 0
M  V30 2470 C 247.79 -2.16606 0.796906 0
M  V30 2471 C 248.76 -1.64394 -0.237476 0
M  V30 2472 O 249.945 -1.90474 -0.111484 0
M  V30 2473 C 247.085 -3.44116 0.26043 0
M  V30 2474 C 246.198 -4.10268 1.35293 0
M  V30 2475 C 245.333 -5.25507 0.775621 0
M  V30 2476 C 244.372 -5.83567 1.84706 0
M  V30 2477 N 243.509 -6.90179 1.28829 0
M  V30 2478 H 248.349 -2.44163 1.70846 0
M  V30 2479 H 245.886 -1.19846 0.85295 0
M  V30 2480 H 247.844 -4.17143 -0.0686814 0
M  V30 2481 H 246.474 -3.16901 -0.614274 0
M  V30 2482 H 245.526 -3.35184 1.79877 0
M  V30 2483 H 246.838 -4.4946 2.16303 0
M  V30 2484 H 245.992 -6.05398 0.397327 0
M  V30 2485 H 244.731 -4.87656 -0.0656581 0
M  V30 2486 H 243.736 -5.02344 2.23452 0
M  V30 2487 H 244.961 -6.23482 2.69161 0
M  V30 2488 H 242.907 -6.54322 0.468881 0
M  V30 2489 H 242.824 -7.28097 2.03497 0
M  V30 2490 H 244.092 -7.73844 0.937311 0
M  V30 2491 N 248.321 -0.919034 -1.28029 0
M  V30 2492 C 249.569 -0.553838 -1.94363 0
M  V30 2493 C 249.89 0.906357 -1.72656 0
M  V30 2494 O 249.16 1.64143 -1.0693 0
M  V30 2495 H 247.74 -0.201834 -0.719216 0
M  V30 2496 H 250.402 -1.16954 -1.55909 0
M  V30 2497 H 249.498 -0.752758 -3.02886 0
M  V30 2498 N 249.799 1.42003 -0.683588 0
M  V30 2499 C 251.029 2.05448 -0.217866 0
M  V30 2500 C 251.437 1.51491 1.13346 0
M  V30 2501 O 250.78 0.653048 1.717 0
M  V30 2502 C 250.842 3.59399 -0.0850118 0
M  V30 2503 C 250.506 4.36093 -1.36645 0
M  V30 2504 C 251.503 4.66169 -2.30179 0
M  V30 2505 C 249.188 4.75578 -1.61649 0
M  V30 2506 C 251.182 5.34676 -3.46988 0
M  V30 2507 C 248.869 5.43824 -2.78745 0
M  V30 2508 C 249.867 5.73299 -3.71238 0
M  V30 2509 O 249.555 6.40142 -4.86285 0
M  V30 2510 H 249.287 0.668344 -0.101454 0
M  V30 2511 H 251.841 1.82974 -0.933248 0
M  V30 2512 H 250.071 3.80566 0.686031 0
M  V30 2513 H 251.76 4.04457 0.341973 0
M  V30 2514 H 252.526 4.36156 -2.12115 0
M  V30 2515 H 248.405 4.52025 -0.905243 0
M  V30 2516 H 251.949 5.57599 -4.19201 0
M  V30 2517 H 247.846 5.73254 -2.96732 0
M  V30 2518 H 248.614 6.58636 -4.85944 0
M  V30 2519 N 251.277 0.427512 1.51691 0
M  V30 2520 C 252.526 -0.143679 2.01188 0
M  V30 2521 C 252.839 -1.44642 1.31674 0
M  V30 2522 O 254.045 -2.09997 1.72086 0
M  V30 2523 C 252.501 -0.306602 3.58592 0
M  V30 2524 C 252.109 0.985125 4.37035 0
M  V30 2525 C 253.853 -0.832091 4.16265 0
M  V30 2526 C 251.76 0.788382 5.86122 0
M  V30 2527 H 250.69 -0.0574701 0.751807 0
M  V30 2528 H 253.341 0.555772 1.74881 0
M  V30 2529 H 251.723 -1.06882 3.81303 0
M  V30 2530 H 252.897 1.75492 4.26074 0
M  V30 2531 H 251.212 1.4384 3.90767 0
M  V30 2532 H 253.809 -0.995617 5.25349 0
M  V30 2533 H 254.152 -1.81186 3.74803 0
M  V30 2534 H 254.685 -0.128444 3.97593 0
M  V30 2535 H 251.424 1.74025 6.31978 0
M  V30 2536 H 250.944 0.0582143 5.99772 0
M  V30 2537 H 252.623 0.437722 6.45518 0
M  V30 2538 N 252.755 -1.56801 0.158532 0
M  V30 2539 C 254.003 -1.96102 -0.488712 0
M  V30 2540 C 254.324 -1.04498 -1.64636 0
M  V30 2541 O 253.594 -0.108783 -1.95598 0
M  V30 2542 H 252.174 -0.724102 -0.183535 0
M  V30 2543 H 254.836 -1.93457 0.236728 0
M  V30 2544 H 253.932 -3.00097 -0.857219 0
M  V30 2545 N 254.233 0.115231 -1.57178 0
M  V30 2546 C 255.461 0.836437 -1.89239 0
M  V30 2547 C 255.876 1.73256 -0.750175 0
M  V30 2548 O 255.233 1.80357 0.278832 0
M  V30 2549 C 255.284 1.66671 -3.20785 0
M  V30 2550 O 255.005 0.806652 -4.3061 0
M  V30 2551 C 256.506 2.49274 -3.66575 0
M  V30 2552 H 253.726 0.240253 -0.626514 0
M  V30 2553 H 256.27 0.0984932 -2.04263 0
M  V30 2554 H 254.425 2.35737 -3.0742 0
M  V30 2555 H 254.839 1.37969 -5.06028 0
M  V30 2556 H 256.313 3.03055 -4.6137 0
M  V30 2557 H 256.79 3.26807 -2.93417 0
M  V30 2558 H 257.396 1.85443 -3.82741 0
M  V30 2559 N 255.711 1.52812 0.385517 0
M  V30 2560 C 256.941 1.71658 1.14966 0
M  V30 2561 C 257.349 0.436253 1.84102 0
M  V30 2562 O 256.692 -0.599313 1.73649 0
M  V30 2563 C 256.754 2.81309 2.23843 0
M  V30 2564 C 256.418 4.22313 1.74644 0
M  V30 2565 C 257.415 5.05352 1.22129 0
M  V30 2566 C 255.1 4.68648 1.80761 0
M  V30 2567 C 257.094 6.32807 0.763838 0
M  V30 2568 C 254.781 5.96086 1.34627 0
M  V30 2569 C 255.779 6.77996 0.825264 0
M  V30 2570 O 255.467 8.03045 0.370669 0
M  V30 2571 H 255.199 0.578022 0.350523 0
M  V30 2572 H 257.753 2.00263 0.456509 0
M  V30 2573 H 255.983 2.48133 2.96592 0
M  V30 2574 H 257.672 2.88524 2.85497 0
M  V30 2575 H 258.438 4.70736 1.16758 0
M  V30 2576 H 254.317 4.04979 2.20256 0
M  V30 2577 H 257.861 6.96689 0.356494 0
M  V30 2578 H 253.758 6.30205 1.39686 0
M  V30 2579 H 254.526 8.17021 0.491829 0
M  V30 2580 N 257.189 -0.644168 1.43834 0
M  V30 2581 C 258.429 -1.41565 1.47441 0
M  V30 2582 C 258.793 -1.91743 0.0992723 0
M  V30 2583 O 259.994 -2.68798 0.0100192 0
M  V30 2584 C 258.265 -2.55902 2.49498 0
M  V30 2585 S 259.824 -3.44287 2.72051 0
M  V30 2586 H 256.642 -0.483118 0.521649 0
M  V30 2587 H 259.244 -0.747008 1.80666 0
M  V30 2588 H 257.948 -2.17327 3.48134 0
M  V30 2589 H 257.479 -3.27607 2.17801 0
M  V30 2590 H 259.494 -4.52927 2.0266 0
M  V30 2591 N 258.668 -1.30515 -0.883378 0
M  V30 2592 C 259.916 -1.19194 -1.63209 0
M  V30 2593 C 260.237 0.253205 -1.93349 0
M  V30 2594 O 259.507 1.17025 -1.57105 0
M  V30 2595 H 258.087 -0.438148 -0.605009 0
M  V30 2596 H 260.749 -1.63663 -1.05832 0
M  V30 2597 H 259.845 -1.75396 -2.58153 0
M  V30 2598 N 260.146 1.09593 -1.13257 0
M  V30 2599 C 261.078 2.16015 -0.766167 0
M  V30 2600 C 262.091 1.61423 0.211303 0
M  V30 2601 O 263.28 1.78498 -0.00863946 0
M  V30 2602 C 260.38 3.38706 -0.114662 0
M  V30 2603 C 259.553 4.22717 -1.12379 0
M  V30 2604 C 258.612 5.23835 -0.498301 0
M  V30 2605 O 257.638 5.573 -1.15781 0
M  V30 2606 N 258.84 5.75886 0.730417 0
M  V30 2607 H 261.605 2.48055 -1.68193 0
M  V30 2608 H 259.166 1.25292 -1.02535 0
M  V30 2609 H 261.158 4.03464 0.315991 0
M  V30 2610 H 259.728 3.04569 0.704011 0
M  V30 2611 H 258.948 3.54122 -1.73179 0
M  V30 2612 H 260.236 4.75673 -1.80589 0
M  V30 2613 H 259.634 5.50911 1.28504 0
M  V30 2614 H 258.191 6.42387 1.10376 0
M  V30 2615 N 261.624 0.925811 1.2754 0
M  V30 2616 C 263.035 0.610102 1.7645 0
M  V30 2617 C 263.386 -0.874723 1.75622 0
M  V30 2618 O 262.511 -1.68444 1.35851 0
M  V30 2619 C 263.106 1.10073 3.20421 0
M  V30 2620 C 261.665 0.835723 3.67005 0
M  V30 2621 C 260.812 1.26054 2.46993 0
M  V30 2622 H 263.763 1.10579 1.13833 0
M  V30 2623 H 263.784 0.447557 3.77859 0
M  V30 2624 H 263.296 2.18143 3.20991 0
M  V30 2625 H 261.397 -0.231249 3.71882 0
M  V30 2626 H 261.51 1.45193 4.56569 0
M  V30 2627 H 259.874 0.679111 2.45479 0
M  V30 2628 H 260.657 2.34984 2.50275 0
M  V30 2629 N 263.102 -1.41638 0.69111 0
M  V30 2630 C 264.348 -2.01598 0.220519 0
M  V30 2631 C 264.681 -1.54594 -1.17535 0
M  V30 2632 O 263.956 -0.755177 -1.79241 0
M  V30 2633 C 264.239 -3.59062 0.273243 0
M  V30 2634 C 264.092 -4.16203 1.70573 0
M  V30 2635 C 265.411 -4.38546 -0.369457 0
M  V30 2636 H 262.53 -0.732468 0.0816045 0
M  V30 2637 H 265.172 -1.68445 0.878986 0
M  V30 2638 H 263.322 -3.87435 -0.287411 0
M  V30 2639 H 264.994 -3.98722 2.31989 0
M  V30 2640 H 263.237 -3.71414 2.2413 0
M  V30 2641 H 263.908 -5.25358 1.69419 0
M  V30 2642 H 266.384 -4.1596 0.107977 0
M  V30 2643 H 265.26 -5.48069 -0.302002 0
M  V30 2644 H 265.521 -4.17662 -1.44951 0
M  V30 2645 N 264.58 -0.43555 -1.51462 0
M  V30 2646 C 265.82 0.130708 -2.03982 0
M  V30 2647 C 266.184 1.40117 -1.31268 0
M  V30 2648 O 267.385 2.04755 -1.74152 0
M  V30 2649 C 265.656 0.346102 -3.5572 0
M  V30 2650 S 267.215 0.876022 -4.29967 0
M  V30 2651 H 264.033 0.0326881 -0.710248 0
M  V30 2652 H 266.635 -0.594544 -1.8624 0
M  V30 2653 H 265.339 -0.584911 -4.0621 0
M  V30 2654 H 264.87 1.09849 -3.77752 0
M  V30 2655 H 266.885 2.15379 -4.47019 0
M  V30 2656 N 266.058 1.56714 -0.166846 0
M  V30 2657 C 266.968 2.21331 0.777791 0
M  V30 2658 C 267.984 1.20358 1.25658 0
M  V30 2659 O 269.16 1.53005 1.30964 0
M  V30 2660 C 266.225 2.83787 1.99163 0
M  V30 2661 C 265.286 3.99947 1.56016 0
M  V30 2662 C 264.519 4.59415 2.71613 0
M  V30 2663 O 264.742 4.17769 3.88362 0
M  V30 2664 O 263.676 5.49359 2.45945 0
M  V30 2665 H 267.502 3.02605 0.257636 0
M  V30 2666 H 265.087 1.49275 0.0611393 0
M  V30 2667 H 266.969 3.23405 2.70161 0
M  V30 2668 H 265.644 2.05513 2.50092 0
M  V30 2669 H 264.551 3.65007 0.819809 0
M  V30 2670 H 265.884 4.79801 1.09782 0
M  V30 2671 N 267.536 -0.106894 1.57237 0
M  V30 2672 C 268.484 -1.14944 2.02215 0
M  V30 2673 C 269.478 -1.42167 0.92114 0
M  V30 2674 O 270.684 -1.41987 1.10634 0
M  V30 2675 H 267.059 -0.387841 0.64427 0
M  V30 2676 H 269.03 -0.743683 2.88984 0
M  V30 2677 C 267.779 -2.4647 2.4525 0
M  V30 2678 H 267.102 -2.26363 3.29545 0
M  V30 2679 H 268.542 -3.17948 2.80508 0
M  V30 2680 C 267.001 -3.09921 1.321 0
M  V30 2681 O 267.531 -3.9651 0.643622 0
M  V30 2682 N 265.737 -2.69986 1.07497 0
M  V30 2683 H 265.284 -1.99667 1.62761 0
M  V30 2684 H 265.242 -3.12769 0.319876 0
M  V30 2685 N 269.014 -1.53014 -0.377408 0
M  V30 2686 C 270.262 -1.6829 -1.11906 0
M  V30 2687 C 270.583 -0.431206 -1.90173 0
M  V30 2688 O 269.853 0.554595 -1.87886 0
M  V30 2689 H 268.433 -0.620371 -0.416112 0
M  V30 2690 H 271.095 -1.90167 -0.426893 0
M  V30 2691 H 270.191 -2.53862 -1.8155 0
M  V30 2692 N 270.492 0.636531 -1.44174 0
M  V30 2693 C 271.732 1.40781 -1.48189 0
M  V30 2694 C 272.096 1.91688 -0.10944 0
M  V30 2695 O 273.297 2.68789 -0.0242741 0
M  V30 2696 C 271.568 2.54575 -2.50851 0
M  V30 2697 S 273.127 3.4284 -2.73873 0
M  V30 2698 H 269.945 0.480345 -0.524204 0
M  V30 2699 H 272.547 0.737416 -1.81059 0
M  V30 2700 H 271.251 2.15478 -3.49281 0
M  V30 2701 H 270.782 3.26447 -2.19536 0
M  V30 2702 H 272.797 4.51846 -2.05059 0
M  V30 2703 N 271.97 1.30982 0.876444 0
M  V30 2704 C 272.902 1.13902 1.98894 0
M  V30 2705 C 273.915 0.0798815 1.62604 0
M  V30 2706 O 275.104 0.326743 1.75484 0
M  V30 2707 C 272.204 0.716699 3.31235 0
M  V30 2708 C 271.377 1.85945 3.95908 0
M  V30 2709 C 270.436 1.42426 5.06558 0
M  V30 2710 O 269.462 2.13287 5.27729 0
M  V30 2711 N 270.664 0.308025 5.79682 0
M  V30 2712 H 273.429 2.09724 2.14094 0
M  V30 2713 H 270.99 1.2323 1.05004 0
M  V30 2714 H 272.982 0.408403 4.02634 0
M  V30 2715 H 271.552 -0.149719 3.12241 0
M  V30 2716 H 270.772 2.33541 3.17573 0
M  V30 2717 H 272.06 2.62503 4.35855 0
M  V30 2718 H 271.458 -0.282241 5.64995 0
M  V30 2719 H 270.015 0.0592282 6.51773 0
M  V30 2720 N 273.449 -1.08991 1.13837 0
M  V30 2721 C 274.397 -2.17841 0.815347 0
M  V30 2722 C 275.391 -1.68164 -0.204233 0
M  V30 2723 O 276.597 -1.79897 -0.0609304 0
M  V30 2724 H 272.972 -0.710654 0.245915 0
M  V30 2725 H 274.943 -2.42315 1.74143 0
M  V30 2726 C 273.692 -3.46381 0.302614 0
M  V30 2727 H 273.015 -3.84979 1.0785 0
M  V30 2728 H 274.455 -4.23844 0.115074 0
M  V30 2729 C 272.914 -3.22556 -0.972591 0
M  V30 2730 O 273.444 -3.45599 -2.04754 0
M  V30 2731 N 271.65 -2.76134 -0.905455 0
M  V30 2732 H 271.197 -2.57582 -0.0305421 0
M  V30 2733 H 271.155 -2.60571 -1.75926 0
M  V30 2734 N 274.927 -0.932562 -1.27047 0
M  V30 2735 C 276.175 -0.574422 -1.93765 0
M  V30 2736 C 276.496 0.887993 -1.73608 0
M  V30 2737 O 275.766 1.62999 -1.08665 0
M  V30 2738 H 274.346 -0.209451 -0.717035 0
M  V30 2739 H 277.008 -1.18601 -1.5466 0
M  V30 2740 H 276.104 -0.784841 -3.02071 0
M  V30 2741 N 276.405 1.4127 -0.698611 0
M  V30 2742 C 277.653 2.00782 -0.230409 0
M  V30 2743 C 277.974 1.5562 1.17505 0
M  V30 2744 O 277.244 0.78815 1.79346 0
M  V30 2745 H 275.824 0.742464 -0.0821944 0
M  V30 2746 H 278.486 1.72852 -0.90045 0
M  V30 2747 H 277.582 3.11095 -0.25021 0
M  V30 2748 N 277.883 0.443576 1.51229 0
M  V30 2749 C 279.299 0.0962001 1.5931 0
M  V30 2750 C 279.499 -1.39501 1.45402 0
M  V30 2751 O 278.555 -2.16557 1.29843 0
M  V30 2752 C 279.868 0.621875 2.94199 0
M  V30 2753 C 281.416 0.582865 3.07525 0
M  V30 2754 C 281.891 1.08562 4.44948 0
M  V30 2755 N 283.382 1.04387 4.51284 0
M  V30 2756 C 284.117 1.40368 5.55954 0
M  V30 2757 N 283.613 1.83664 6.68011 0
M  V30 2758 N 285.406 1.32145 5.46346 0
M  V30 2759 H 277.557 1.41376 1.58514 0
M  V30 2760 H 279.82 0.582965 0.747567 0
M  V30 2761 H 279.526 1.66546 3.09767 0
M  V30 2762 H 279.4 0.0502125 3.77167 0
M  V30 2763 H 281.787 -0.451749 2.91622 0
M  V30 2764 H 281.868 1.191 2.26382 0
M  V30 2765 H 281.512 2.11873 4.61598 0
M  V30 2766 H 281.442 0.453956 5.2464 0
M  V30 2767 H 283.933 0.725986 3.70861 0
M  V30 2768 H 284.246 2.0934 7.43906 0
M  V30 2769 H 282.591 1.87596 6.69203 0
M  V30 2770 H 285.782 0.981808 4.57688 0
M  V30 2771 H 285.955 1.60514 6.27805 0
M  V30 2772 N 279.361 -1.56624 0.175154 0
M  V30 2773 C 280.601 -1.98894 -0.471221 0
M  V30 2774 C 280.965 -1.05889 -1.60161 0
M  V30 2775 O 282.166 -1.37315 -2.3108 0
M  V30 2776 C 280.437 -3.44865 -0.938241 0
M  V30 2777 S 281.996 -4.09164 -1.58526 0
M  V30 2778 H 278.814 -0.694686 -0.151434 0
M  V30 2779 H 281.416 -1.93577 0.27352 0
M  V30 2780 H 280.12 -4.10265 -0.10518 0
M  V30 2781 H 279.651 -3.53956 -1.71693 0
M  V30 2782 H 281.666 -4.04528 -2.87352 0
M  V30 2783 N 280.839 0.0985539 -1.57292 0
M  V30 2784 C 282.088 0.801358 -1.85098 0
M  V30 2785 C 282.401 1.80066 -0.763902 0
M  V30 2786 O 283.607 2.55112 -0.928981 0
M  V30 2787 C 282.063 1.47599 -3.28242 0
M  V30 2788 C 281.671 0.516624 -4.45011 0
M  V30 2789 C 283.415 2.16272 -3.65276 0
M  V30 2790 C 281.322 1.19564 -5.79188 0
M  V30 2791 H 280.252 0.303022 -0.69043 0
M  V30 2792 H 282.903 0.0542623 -1.8342 0
M  V30 2793 H 281.285 2.27042 -3.2445 0
M  V30 2794 H 282.459 -0.246065 -4.60143 0
M  V30 2795 H 280.774 -0.064227 -4.1635 0
M  V30 2796 H 283.371 2.67802 -4.62803 0
M  V30 2797 H 283.714 2.95009 -2.93727 0
M  V30 2798 H 284.247 1.43693 -3.70941 0
M  V30 2799 H 280.986 0.449157 -6.53959 0
M  V30 2800 H 280.506 1.92984 -5.67906 0
M  V30 2801 H 282.185 1.7231 -6.23633 0
M  V30 2802 N 282.317 1.53212 0.369288 0
M  V30 2803 C 283.565 1.68881 1.11012 0
M  V30 2804 C 283.886 0.441285 1.89941 0
M  V30 2805 O 283.156 -0.544623 1.88177 0
M  V30 2806 H 281.736 0.622569 0.412816 0
M  V30 2807 H 284.398 1.90391 0.416802 0
M  V30 2808 H 283.494 2.54822 1.80201 0
M  V30 2809 N 283.795 -0.628877 1.44509 0
M  V30 2810 C 285.206 -1.21054 1.42137 0
M  V30 2811 C 285.557 -1.95715 0.137881 0
M  V30 2812 O 284.682 -2.02554 -0.761645 0
M  V30 2813 C 285.277 -2.20189 2.57493 0
M  V30 2814 C 283.836 -2.73777 2.58308 0
M  V30 2815 C 282.983 -1.48813 2.33987 0
M  V30 2816 H 285.934 -0.41942 1.53057 0
M  V30 2817 H 285.955 -3.02833 2.30375 0
M  V30 2818 H 285.467 -1.6582 3.50892 0
M  V30 2819 H 283.568 -3.32142 1.68856 0
M  V30 2820 H 283.681 -3.19662 3.56865 0
M  V30 2821 H 282.045 -1.77024 1.83124 0
M  V30 2822 H 282.828 -0.963442 3.29504 0
M  V30 2823 N 285.273 -1.31445 -0.869486 0
M  V30 2824 C 286.221 -1.19067 -1.99814 0
M  V30 2825 C 287.215 -0.0988569 -1.69111 0
M  V30 2826 O 288.421 -0.260781 -1.78101 0
M  V30 2827 H 284.796 -0.368677 -0.655425 0
M  V30 2828 H 286.767 -2.14555 -2.07385 0
M  V30 2829 C 285.516 -0.915323 -3.35436 0
M  V30 2830 H 284.839 -1.74759 -3.59582 0
M  V30 2831 H 286.279 -0.868895 -4.15001 0
M  V30 2832 C 284.738 0.381928 -3.34728 0
M  V30 2833 O 285.268 1.39857 -3.76567 0
M  V30 2834 N 283.474 0.398633 -2.87853 0
M  V30 2835 H 283.021 -0.429186 -2.54 0
M  V30 2836 H 282.979 1.26651 -2.87762 0
M  V30 2837 N 286.751 1.08385 -1.14413 0
M  V30 2838 C 288.167 1.32844 -0.884563 0
M  V30 2839 C 288.367 1.95841 0.474181 0
M  V30 2840 O 287.423 2.21158 1.21842 0
M  V30 2841 C 288.736 2.22978 -2.01745 0
M  V30 2842 C 290.284 2.36458 -2.05077 0
M  V30 2843 C 290.759 3.29934 -3.1766 0
M  V30 2844 N 292.25 3.37511 -3.17239 0
M  V30 2845 C 292.985 4.09871 -4.0099 0
M  V30 2846 N 292.481 4.84936 -4.94781 0
M  V30 2847 N 294.274 4.05704 -3.89051 0
M  V30 2848 H 286.425 0.658756 -2.01926 0
M  V30 2849 H 288.688 0.352821 -0.879899 0
M  V30 2850 H 288.394 1.83934 -2.99769 0
M  V30 2851 H 288.268 3.23441 -1.94077 0
M  V30 2852 H 290.655 2.7476 -1.0766 0
M  V30 2853 H 290.736 1.35736 -2.16816 0
M  V30 2854 H 290.38 2.92352 -4.15322 0
M  V30 2855 H 290.31 4.30584 -3.03158 0
M  V30 2856 H 292.801 2.83996 -2.49308 0
M  V30 2857 H 293.114 5.37612 -5.55151 0
M  V30 2858 H 291.459 4.83988 -4.98779 0
M  V30 2859 H 294.65 3.46167 -3.15097 0
M  V30 2860 H 294.823 4.61834 -4.54547 0
M  V30 2861 N 288.23 0.939286 1.26551 0
M  V30 2862 C 289.47 0.5933 1.956 0
M  V30 2863 C 289.834 -0.851515 1.72085 0
M  V30 2864 O 291.035 -1.30634 2.34921 0
M  V30 2865 C 289.306 0.923996 3.45249 0
M  V30 2866 S 290.865 0.688269 4.33369 0
M  V30 2867 H 287.683 0.218591 0.676564 0
M  V30 2868 H 290.285 1.2102 1.5354 0
M  V30 2869 H 288.989 1.97297 3.59864 0
M  V30 2870 H 288.52 0.296746 3.92279 0
M  V30 2871 H 290.535 -0.448434 4.9417 0
M  V30 2872 N 289.708 -1.40897 0.706093 0
M  V30 2873 C 290.671 -2.29131 0.0562841 0
M  V30 2874 C 291.671 -1.44901 -0.697166 0
M  V30 2875 O 292.861 -1.65926 -0.530484 0
M  V30 2876 C 289.993 -3.27957 -0.93043 0
M  V30 2877 H 291.186 -2.88091 0.833284 0
M  V30 2878 H 288.739 -1.4906 0.470192 0
M  V30 2879 H 289.474 -2.73997 -1.73482 0
M  V30 2880 H 289.259 -3.90124 -0.393166 0
M  V30 2881 H 290.749 -3.94049 -1.38256 0
M  V30 2882 N 291.186 -0.45159 -1.50991 0
M  V30 2883 C 292.426 0.109066 -2.04109 0
M  V30 2884 C 292.79 1.38716 -1.32747 0
M  V30 2885 O 293.991 2.02896 -1.76314 0
M  V30 2886 C 292.262 0.308354 -3.56067 0
M  V30 2887 S 293.821 0.830369 -4.30872 0
M  V30 2888 H 290.639 0.0251531 -0.710555 0
M  V30 2889 H 293.241 -0.614264 -1.85599 0
M  V30 2890 H 291.945 -0.627962 -4.05567 0
M  V30 2891 H 291.476 1.05836 -3.78896 0
M  V30 2892 H 293.491 2.10626 -4.49279 0
M  V30 2893 N 292.664 1.56529 -0.183458 0
M  V30 2894 C 293.91 1.97537 0.459036 0
M  V30 2895 C 294.243 1.06989 1.62071 0
M  V30 2896 O 293.518 0.11948 1.94133 0
M  V30 2897 C 293.801 3.47874 0.930368 0
M  V30 2898 C 293.654 4.492 -0.232317 0
M  V30 2899 C 294.973 4.01612 1.79989 0
M  V30 2900 H 292.092 0.718204 0.165383 0
M  V30 2901 H 294.734 1.88042 -0.272038 0
M  V30 2902 H 292.884 3.56095 1.55333 0
M  V30 2903 H 294.556 4.53027 -0.86972 0
M  V30 2904 H 292.799 4.24657 -0.885928 0
M  V30 2905 H 293.47 5.51823 0.139796 0
M  V30 2906 H 295.946 3.96097 1.27461 0
M  V30 2907 H 294.822 5.07195 2.09867 0
M  V30 2908 H 295.083 3.46163 2.74998 0
M  V30 2909 N 294.142 -0.090211 1.57342 0
M  V30 2910 C 295.372 -0.805055 1.90269 0
M  V30 2911 C 295.78 -1.72561 0.775842 0
M  V30 2912 O 295.123 -1.81839 -0.260843 0
M  V30 2913 C 295.185 -1.66734 3.18497 0
M  V30 2914 C 294.849 -0.918092 4.47683 0
M  V30 2915 C 295.846 -0.245674 5.19319 0
M  V30 2916 C 293.531 -0.890724 4.94339 0
M  V30 2917 C 295.525 0.444088 6.35851 0
M  V30 2918 C 293.212 -0.197179 6.10782 0
M  V30 2919 C 294.21 0.469044 6.81388 0
M  V30 2920 O 293.898 1.15146 7.95611 0
M  V30 2921 H 293.63 -0.235143 0.633785 0
M  V30 2922 H 296.184 -0.0703805 2.05279 0
M  V30 2923 H 294.414 -2.44437 2.99646 0
M  V30 2924 H 296.103 -2.25919 3.37217 0
M  V30 2925 H 296.869 -0.258246 4.84312 0
M  V30 2926 H 292.748 -1.39873 4.39268 0
M  V30 2927 H 296.292 0.964667 6.90898 0
M  V30 2928 H 292.189 -0.18247 6.45242 0
M  V30 2929 H 292.957 1.05885 8.11622 0
M  V30 2930 N 295.62 -1.53406 -0.361157 0
M  V30 2931 C 296.868 -1.69467 -1.10115 0
M  V30 2932 C 297.189 -0.451352 -1.89705 0
M  V30 2933 O 296.459 0.534636 -1.88463 0
M  V30 2934 H 295.039 -0.624749 -0.409508 0
M  V30 2935 H 297.701 -1.90609 -0.406699 0
M  V30 2936 H 296.797 -2.55774 -1.78847 0
M  V30 2937 N 297.098 0.621204 -1.44841 0
M  V30 2938 C 298.345 1.38055 -1.48145 0
M  V30 2939 C 298.673 1.94143 -0.117867 0
M  V30 2940 O 297.928 1.74713 0.881694 0
M  V30 2941 C 298.227 2.55675 -2.4973 0
M  V30 2942 C 297.893 2.17817 -3.94799 0
M  V30 2943 C 296.555 2.07205 -4.34303 0
M  V30 2944 C 298.907 1.88065 -4.86087 0
M  V30 2945 C 296.235 1.65045 -5.63007 0
M  V30 2946 C 298.587 1.47394 -6.15189 0
M  V30 2947 C 297.251 1.35331 -6.53637 0
M  V30 2948 H 296.521 0.505181 -0.542101 0
M  V30 2949 H 299.168 0.703477 -1.78111 0
M  V30 2950 H 297.473 3.2866 -2.13284 0
M  V30 2951 H 299.17 3.13904 -2.4953 0
M  V30 2952 H 295.76 2.26998 -3.63552 0
M  V30 2953 H 299.944 1.95168 -4.56315 0
M  V30 2954 H 295.2 1.54317 -5.91605 0
M  V30 2955 H 299.374 1.23415 -6.85377 0
M  V30 2956 H 297.001 1.02435 -7.53267 0
M  V30 2957 N 298.576 1.31904 0.862503 0
M  V30 2958 C 299.804 1.24998 1.64873 0
M  V30 2959 C 300.219 -0.183425 1.87907 0
M  V30 2960 O 299.576 -1.11794 1.44251 0
M  V30 2961 C 299.627 1.99829 3.01248 0
M  V30 2962 O 299.348 3.37575 2.79239 0
M  V30 2963 C 300.849 1.99852 3.95694 0
M  V30 2964 H 298.069 0.431599 0.513773 0
M  V30 2965 H 300.613 1.73901 1.07604 0
M  V30 2966 H 298.768 1.54668 3.55185 0
M  V30 2967 H 299.182 3.75776 3.65914 0
M  V30 2968 H 300.656 2.56709 4.88676 0
M  V30 2969 H 301.133 0.982852 4.28062 0
M  V30 2970 H 301.739 2.44926 3.47694 0
M  V30 2971 N 300.054 -1.07777 1.14986 0
M  V30 2972 C 301.302 -1.79934 0.920235 0
M  V30 2973 C 301.623 -1.86955 -0.554336 0
M  V30 2974 O 300.893 -1.36731 -1.40291 0
M  V30 2975 H 299.473 -0.666424 0.337473 0
M  V30 2976 H 302.135 -1.3027 1.44968 0
M  V30 2977 H 301.231 -2.82539 1.32583 0
M  V30 2978 N 301.532 -0.945985 -1.26051 0
M  V30 2979 C 302.943 -0.638096 -1.75457 0
M  V30 2980 C 303.294 0.846672 -1.76991 0
M  V30 2981 O 302.419 1.66262 -1.38513 0
M  V30 2982 C 303.014 -1.15157 -3.18629 0
M  V30 2983 C 301.573 -0.894004 -3.65629 0
M  V30 2984 C 300.72 -1.29967 -2.44957 0
M  V30 2985 H 303.671 -1.12376 -1.1206 0
M  V30 2986 H 303.692 -0.507615 -3.77099 0
M  V30 2987 H 303.204 -2.23222 -3.1748 0
M  V30 2988 H 301.305 0.172057 -3.72203 0
M  V30 2989 H 301.418 -1.52439 -4.54202 0
M  V30 2990 H 299.782 -0.718078 -2.44368 0
M  V30 2991 H 300.565 -2.38935 -2.46505 0
M  V30 2992 N 303.011 1.40521 -0.713556 0
M  V30 2993 C 303.943 2.29191 -0.0203126 0
M  V30 2994 C 304.956 1.45723 0.725864 0
M  V30 2995 O 306.145 1.69033 0.573581 0
M  V30 2996 C 303.245 3.2395 0.995486 0
M  V30 2997 C 302.418 4.36262 0.315256 0
M  V30 2998 C 301.477 5.11474 1.23616 0
M  V30 2999 O 300.503 5.64606 0.721719 0
M  V30 3000 N 301.705 5.20638 2.56743 0
M  V30 3001 H 304.47 2.89327 -0.781652 0
M  V30 3002 H 302.031 1.51869 -0.561022 0
M  V30 3003 H 304.023 3.71137 1.61368 0
M  V30 3004 H 302.593 2.64995 1.6582 0
M  V30 3005 H 301.813 3.91228 -0.483106 0
M  V30 3006 H 303.101 5.08558 -0.157004 0
M  V30 3007 H 302.499 4.7895 3.01037 0
M  V30 3008 H 301.056 5.71339 3.13712 0
M  V30 3009 N 304.489 0.459591 1.5075 0
M  V30 3010 C 305.729 -0.09824 2.04164 0
M  V30 3011 C 306.093 -1.3801 1.33481 0
M  V30 3012 O 307.294 -2.01959 1.77387 0
M  V30 3013 C 305.565 -0.289467 3.56226 0
M  V30 3014 S 307.124 -0.807507 4.31306 0
M  V30 3015 H 303.942 -0.0213845 0.710678 0
M  V30 3016 H 306.544 0.624098 1.85271 0
M  V30 3017 H 305.248 0.649461 4.05229 0
M  V30 3018 H 304.779 -1.03825 3.79452 0
M  V30 3019 H 306.794 -2.0824 4.50389 0
M  V30 3020 N 305.967 -1.56429 0.191757 0
M  V30 3021 C 306.877 -2.22541 -0.742481 0
M  V30 3022 C 307.893 -1.22342 -1.23727 0
M  V30 3023 O 309.069 -1.55069 -1.28513 0
M  V30 3024 C 306.134 -2.8692 -1.94623 0
M  V30 3025 C 305.195 -4.02378 -1.49633 0
M  V30 3026 C 304.428 -4.63678 -2.6427 0
M  V30 3027 O 304.651 -4.23895 -3.81666 0
M  V30 3028 O 303.585 -5.53202 -2.37174 0
M  V30 3029 H 307.411 -3.02977 -0.209462 0
M  V30 3030 H 304.996 -1.49353 -0.0373832 0
M  V30 3031 H 306.878 -3.27663 -2.64982 0
M  V30 3032 H 305.553 -2.09466 -2.46791 0
M  V30 3033 H 304.46 -3.66265 -0.761636 0
M  V30 3034 H 305.793 -4.81487 -1.02134 0
M  V30 3035 N 307.445 0.0818655 -1.57387 0
M  V30 3036 C 308.861 0.436412 -1.53517 0
M  V30 3037 C 309.061 1.79758 -0.910459 0
M  V30 3038 O 308.117 2.47324 -0.508636 0
M  V30 3039 C 309.43 0.386734 -2.98203 0
M  V30 3040 C 310.978 0.467644 -3.09487 0
M  V30 3041 C 311.453 0.447978 -4.55804 0
M  V30 3042 N 312.944 0.508348 -4.60402 0
M  V30 3043 C 313.679 0.515184 -5.71081 0
M  V30 3044 N 313.175 0.477435 -6.91153 0
M  V30 3045 N 314.968 0.560988 -5.59294 0
M  V30 3046 H 307.119 -0.809546 -1.96367 0
M  V30 3047 H 309.382 -0.302733 -0.898363 0
M  V30 3048 H 309.088 -0.546539 -3.47427 0
M  V30 3049 H 308.962 1.20075 -3.57578 0
M  V30 3050 H 311.349 1.39134 -2.60242 0
M  V30 3051 H 311.43 -0.374753 -2.5304 0
M  V30 3052 H 311.074 -0.471826 -5.05704 0
M  V30 3053 H 311.004 1.30777 -5.10103 0
M  V30 3054 H 313.495 0.54218 -3.7399 0
M  V30 3055 H 313.808 0.486299 -7.71268 0
M  V30 3056 H 312.153 0.444278 -6.93579 0
M  V30 3057 H 315.344 0.5881 -4.64391 0
M  V30 3058 H 315.517 0.562846 -6.45551 0
M  V30 3059 N 308.923 1.53595 0.353017 0
M  V30 3060 C 310.2 1.61002 1.11075 0
M  V30 3061 C 310.58 0.425356 2.0677 0
M  V30 3062 O 309.928 -0.583267 2.2093 0
M  V30 3063 C 310.138 2.96631 1.83877 0
M  V30 3064 C 311.486 3.51653 2.37961 0
M  V30 3065 O 312.51 2.98743 1.93987 0
M  V30 3066 O 311.369 4.44177 3.18386 0
M  V30 3067 H 308.463 0.650825 0.510251 0
M  V30 3068 H 311.009 1.6594 0.35527 0
M  V30 3069 H 309.781 3.74293 1.14108 0
M  V30 3070 H 309.404 2.95242 2.66304 0
M  V30 3071 N 310.401 -0.613514 1.45168 0
M  V30 3072 C 311.631 -1.39743 1.52169 0
M  V30 3073 C 312.039 -1.88596 0.151086 0
M  V30 3074 O 311.382 -1.6251 -0.856521 0
M  V30 3075 C 311.444 -2.64035 2.43979 0
M  V30 3076 C 311.108 -2.36861 3.90827 0
M  V30 3077 C 312.105 -1.97591 4.80889 0
M  V30 3078 C 309.79 -2.49956 4.35692 0
M  V30 3079 C 311.784 -1.71768 6.1382 0
M  V30 3080 C 309.471 -2.23747 5.68665 0
M  V30 3081 C 310.469 -1.84714 6.57548 0
M  V30 3082 O 310.157 -1.58809 7.88058 0
M  V30 3083 H 309.889 -0.434382 0.517966 0
M  V30 3084 H 312.443 -0.75587 1.90986 0
M  V30 3085 H 310.673 -3.3089 2.00122 0
M  V30 3086 H 312.362 -3.26069 2.41731 0
M  V30 3087 H 313.128 -1.87015 4.47493 0
M  V30 3088 H 309.007 -2.79305 3.66756 0
M  V30 3089 H 312.551 -1.41227 6.83155 0
M  V30 3090 H 308.448 -2.33938 6.01617 0
M  V30 3091 H 309.216 -1.7291 8.00028 0
M  V30 3092 N 311.879 -1.3236 -0.855495 0
M  V30 3093 C 313.295 -1.11332 -1.14356 0
M  V30 3094 C 313.495 0.106751 -2.01217 0
M  V30 3095 O 312.551 0.791891 -2.39761 0
M  V30 3096 C 313.864 -2.39237 -1.82171 0
M  V30 3097 C 315.412 -2.44986 -1.9481 0
M  V30 3098 C 315.887 -3.7281 -2.66039 0
M  V30 3099 N 317.378 -3.73787 -2.73565 0
M  V30 3100 C 318.113 -4.69394 -3.29327 0
M  V30 3101 N 317.609 -5.75367 -3.85907 0
M  V30 3102 N 319.402 -4.56893 -3.27423 0
M  V30 3103 H 311.553 -2.10586 -0.277027 0
M  V30 3104 H 313.816 -0.929701 -0.185364 0
M  V30 3105 H 313.522 -3.28431 -1.25802 0
M  V30 3106 H 313.396 -2.50134 -2.82335 0
M  V30 3107 H 315.783 -1.56252 -2.50338 0
M  V30 3108 H 315.864 -2.38043 -0.936448 0
M  V30 3109 H 315.508 -4.61918 -2.11174 0
M  V30 3110 H 315.438 -3.77024 -3.67642 0
M  V30 3111 H 317.929 -2.97189 -2.33424 0
M  V30 3112 H 318.242 -6.44378 -4.26611 0
M  V30 3113 H 316.587 -5.79123 -3.84242 0
M  V30 3114 H 319.778 -3.73269 -2.82467 0
M  V30 3115 H 319.951 -5.31577 -3.7058 0
M  V30 3116 N 313.357 1.07166 -1.15556 0
M  V30 3117 C 314.585 1.83514 -0.955519 0
M  V30 3118 C 315 1.82163 0.49621 0
M  V30 3119 O 314.357 1.23441 1.34419 0
M  V30 3120 C 314.408 3.30515 -1.46432 0
M  V30 3121 O 314.129 3.31937 -2.85918 0
M  V30 3122 C 315.63 4.23625 -1.30603 0
M  V30 3123 H 312.85 0.578926 -0.339244 0
M  V30 3124 H 315.394 1.35265 -1.53374 0
M  V30 3125 H 313.549 3.76106 -0.928584 0
M  V30 3126 H 313.963 4.23794 -3.09029 0
M  V30 3127 H 315.437 5.24831 -1.71047 0
M  V30 3128 H 315.914 4.38485 -0.250441 0
M  V30 3129 H 316.52 3.83871 -1.83094 0
M  V30 3130 N 314.835 0.952656 1.25548 0
M  V30 3131 C 316.083 0.605176 1.92826 0
M  V30 3132 C 316.404 -0.860261 1.74999 0
M  V30 3133 O 315.674 -1.6125 1.11244 0
M  V30 3134 H 314.254 0.220832 0.713612 0
M  V30 3135 H 316.916 1.21047 1.52754 0
M  V30 3136 H 316.012 0.832798 3.00784 0
M  V30 3137 N 316.313 -1.40141 0.720998 0
M  V30 3138 C 317.724 -1.83678 0.334553 0
M  V30 3139 C 318.075 -1.6027 -1.13173 0
M  V30 3140 O 317.2 -1.08643 -1.87152 0
M  V30 3141 C 317.795 -3.33437 0.600437 0
M  V30 3142 C 316.354 -3.75447 0.267642 0
M  V30 3143 C 315.501 -2.63296 0.870097 0
M  V30 3144 H 318.452 -1.29331 0.919732 0
M  V30 3145 H 318.473 -3.80269 -0.132517 0
M  V30 3146 H 317.985 -3.50442 1.66768 0
M  V30 3147 H 316.086 -3.64035 -0.794329 0
M  V30 3148 H 316.199 -4.73344 0.74042 0
M  V30 3149 H 314.563 -2.52954 0.297739 0
M  V30 3150 H 315.346 -2.83112 1.94172 0
M  V30 3151 N 317.792 -0.46758 -1.50504 0
M  V30 3152 C 319.032 0.0874114 -2.04213 0
M  V30 3153 C 319.396 1.37301 -1.34211 0
M  V30 3154 O 320.597 2.01015 -1.78456 0
M  V30 3155 C 318.868 0.270571 -3.56374 0
M  V30 3156 S 320.427 0.784623 -4.31728 0
M  V30 3157 H 317.245 0.0176153 -0.710782 0
M  V30 3158 H 319.847 -0.633915 -1.84937 0
M  V30 3159 H 318.551 -0.670942 -4.04878 0
M  V30 3160 H 318.082 1.01811 -3.79997 0
M  V30 3161 H 320.097 2.05849 -4.51487 0
M  V30 3162 N 319.27 1.56325 -0.20005 0
M  V30 3163 C 320.517 1.97719 0.437411 0
M  V30 3164 C 320.845 1.08709 1.61284 0
M  V30 3165 O 320.1 0.127261 1.95286 0
M  V30 3166 C 320.399 3.4495 0.935103 0
M  V30 3167 C 320.065 4.5072 -0.12749 0
M  V30 3168 C 318.727 4.79368 -0.419451 0
M  V30 3169 C 321.079 5.14268 -0.847231 0
M  V30 3170 C 318.407 5.68854 -1.43604 0
M  V30 3171 C 320.759 6.04852 -1.85301 0
M  V30 3172 C 319.423 6.31855 -2.15211 0
M  V30 3173 H 318.693 0.723507 0.16006 0
M  V30 3174 H 321.34 1.89166 -0.298056 0
M  V30 3175 H 319.645 3.50599 1.74894 0
M  V30 3176 H 321.342 3.74337 1.43781 0
M  V30 3177 H 317.932 4.28458 0.11023 0
M  V30 3178 H 322.116 4.92222 -0.634901 0
M  V30 3179 H 317.372 5.88047 -1.67364 0
M  V30 3180 H 321.546 6.53152 -2.41591 0
M  V30 3181 H 319.173 7.00994 -2.94129 0
M  V30 3182 N 320.748 -0.0735177 1.57428 0
M  V30 3183 C 321.976 -0.785969 1.9139 0
M  V30 3184 C 322.391 -1.71207 0.795847 0
M  V30 3185 O 321.748 -1.81033 -0.230915 0
M  V30 3186 C 321.799 -1.58107 3.25091 0
M  V30 3187 O 321.52 -0.6922 4.32597 0
M  V30 3188 C 323.021 -2.39467 3.73055 0
M  V30 3189 H 320.241 -0.223558 0.632663 0
M  V30 3190 H 322.785 -0.044302 2.04452 0
M  V30 3191 H 320.94 -2.27503 3.13562 0
M  V30 3192 H 321.354 -1.24504 5.09508 0
M  V30 3193 H 322.828 -2.90716 4.69242 0
M  V30 3194 H 323.305 -3.18913 3.01979 0
M  V30 3195 H 323.911 -1.7523 3.87523 0
M  V30 3196 N 322.226 -1.5378 -0.344866 0
M  V30 3197 C 323.158 -1.77988 -1.44406 0
M  V30 3198 C 324.171 -0.661138 -1.48771 0
M  V30 3199 O 325.36 -0.937842 -1.51877 0
M  V30 3200 C 322.46 -1.86345 -2.8307 0
M  V30 3201 C 321.633 -3.16256 -3.0216 0
M  V30 3202 C 320.692 -3.15588 -4.21059 0
M  V30 3203 O 319.718 -3.89314 -4.15239 0
M  V30 3204 N 320.92 -2.37864 -5.29529 0
M  V30 3205 H 323.685 -2.72839 -1.24012 0
M  V30 3206 H 321.246 -1.52814 -0.534737 0
M  V30 3207 H 323.238 -1.83351 -3.60783 0
M  V30 3208 H 321.808 -0.986858 -2.96614 0
M  V30 3209 H 321.028 -3.32385 -2.11929 0
M  V30 3210 H 322.316 -4.0207 -3.11797 0
M  V30 3211 H 321.714 -1.77514 -5.37127 0
M  V30 3212 H 320.271 -2.40668 -6.05741 0
M  V30 3213 N 323.704 0.605807 -1.45491 0
M  V30 3214 C 324.95 1.36679 -1.49823 0
M  V30 3215 C 325.283 1.93693 -0.140175 0
M  V30 3216 O 324.558 1.75158 0.845581 0
M  V30 3217 C 324.841 2.51337 -2.57879 0
M  V30 3218 C 324.694 1.99508 -4.03134 0
M  V30 3219 C 326.013 3.53463 -2.62205 0
M  V30 3220 H 323.132 0.495617 -0.545466 0
M  V30 3221 H 325.774 0.682732 -1.7731 0
M  V30 3222 H 323.924 3.09691 -2.34571 0
M  V30 3223 H 325.596 1.45789 -4.37656 0
M  V30 3224 H 323.839 1.30496 -4.13707 0
M  V30 3225 H 324.51 2.82169 -4.74431 0
M  V30 3226 H 326.986 3.04953 -2.83095 0
M  V30 3227 H 325.862 4.31178 -3.39672 0
M  V30 3228 H 326.123 4.09197 -1.67363 0
M  V30 3229 N 325.182 1.32811 0.848464 0
M  V30 3230 C 326.13 1.22231 1.97895 0
M  V30 3231 C 327.124 0.125749 1.68933 0
M  V30 3232 O 328.33 0.289083 1.77663 0
M  V30 3233 H 324.705 0.379058 0.649476 0
M  V30 3234 H 326.676 2.17828 2.03945 0
M  V30 3235 C 325.425 0.968572 3.33937 0
M  V30 3236 H 324.748 1.80458 3.56756 0
M  V30 3237 H 326.188 0.934808 4.13567 0
M  V30 3238 C 324.647 -0.328628 3.35293 0
M  V30 3239 O 325.177 -1.33848 3.78745 0
M  V30 3240 N 323.383 -0.352788 2.88451 0
M  V30 3241 H 322.93 0.469541 2.53285 0
M  V30 3242 H 322.888 -1.22057 2.89741 0
M  V30 3243 N 326.66 -1.06551 1.16123 0
M  V30 3244 C 327.608 -2.16063 0.861371 0
M  V30 3245 C 328.602 -1.6856 -0.168517 0
M  V30 3246 O 329.808 -1.79986 -0.0227579 0
M  V30 3247 H 326.183 -0.705278 0.260934 0
M  V30 3248 H 328.154 -2.38567 1.79244 0
M  V30 3249 C 326.903 -3.45661 0.376018 0
M  V30 3250 H 326.226 -3.82604 1.15992 0
M  V30 3251 H 327.666 -4.23504 0.204951 0
M  V30 3252 C 326.125 -3.24546 -0.903954 0
M  V30 3253 O 326.655 -3.49865 -1.97377 0
M  V30 3254 N 324.861 -2.77992 -0.846679 0
M  V30 3255 H 324.408 -2.57589 0.0241017 0
M  V30 3256 H 324.366 -2.64244 -1.70359 0
M  V30 3257 N 328.138 -0.959301 -1.25041 0
M  V30 3258 C 329.07 -0.440543 -2.24926 0
M  V30 3259 C 330.083 0.446131 -1.56568 0
M  V30 3260 O 331.272 0.253657 -1.76689 0
M  V30 3261 C 328.372 0.38412 -3.36716 0
M  V30 3262 C 327.545 -0.490658 -4.34639 0
M  V30 3263 C 326.604 0.276587 -5.25473 0
M  V30 3264 O 325.63 -0.326614 -5.68262 0
M  V30 3265 N 326.832 1.56844 -5.5891 0
M  V30 3266 H 329.597 -1.29931 -2.70071 0
M  V30 3267 H 327.158 -0.830181 -1.38995 0
M  V30 3268 H 329.15 0.905228 -3.94446 0
M  V30 3269 H 327.72 1.14377 -2.90924 0
M  V30 3270 H 326.94 -1.19282 -3.7572 0
M  V30 3271 H 328.228 -1.08756 -4.97041 0
M  V30 3272 H 327.626 2.08036 -5.26059 0
M  V30 3273 H 326.183 2.03541 -6.19205 0
M  V30 3274 N 329.616 1.39756 -0.72842 0
M  V30 3275 C 330.549 2.28176 -0.0330172 0
M  V30 3276 C 331.527 1.44035 0.754501 0
M  V30 3277 O 332.711 1.73434 0.738445 0
M  V30 3278 C 329.838 3.24795 0.960504 0
M  V30 3279 C 328.884 4.25693 0.262264 0
M  V30 3280 S 329.717 5.25714 -1.01906 0
M  V30 3281 C 330.873 6.25894 -0.0279717 0
M  V30 3282 H 331.106 2.86807 -0.78287 0
M  V30 3283 H 328.639 1.45382 -0.519951 0
M  V30 3284 H 330.597 3.80983 1.52846 0
M  V30 3285 H 329.258 2.65196 1.68315 0
M  V30 3286 H 328.451 4.93699 1.01379 0
M  V30 3287 H 328.053 3.7327 -0.233482 0
M  V30 3288 H 330.345 6.72585 0.814621 0
M  V30 3289 H 331.288 7.04876 -0.67499 0
M  V30 3290 H 331.696 5.63466 0.341489 0
M  V30 3291 N 331.094 0.475555 1.50254 0
M  V30 3292 C 332.334 -0.0765802 2.04256 0
M  V30 3293 C 332.698 -1.36587 1.34937 0
M  V30 3294 O 333.899 -2.00066 1.79519 0
M  V30 3295 C 332.17 -0.251668 3.56513 0
M  V30 3296 S 333.729 -0.761716 4.32138 0
M  V30 3297 H 330.547 -0.0138456 0.710865 0
M  V30 3298 H 333.149 0.643714 1.84598 0
M  V30 3299 H 331.853 0.692404 4.04517 0
M  V30 3300 H 331.384 -0.997946 3.80532 0
M  V30 3301 H 333.399 -2.03451 4.52573 0
M  V30 3302 N 332.573 -1.56217 0.208337 0
M  V30 3303 C 333.505 -2.1695 -0.739276 0
M  V30 3304 C 334.518 -1.13492 -1.1672 0
M  V30 3305 O 335.707 -1.40529 -1.10063 0
M  V30 3306 C 332.807 -2.72755 -2.01142 0
M  V30 3307 C 331.98 -4.0125 -1.74118 0
M  V30 3308 C 331.039 -4.41749 -2.85909 0
M  V30 3309 O 330.065 -5.08912 -2.54946 0
M  V30 3310 N 331.267 -4.06342 -4.14568 0
M  V30 3311 H 334.032 -2.98893 -0.219837 0
M  V30 3312 H 331.593 -1.61878 0.0268445 0
M  V30 3313 H 333.585 -2.96826 -2.75094 0
M  V30 3314 H 332.155 -1.95191 -2.4417 0
M  V30 3315 H 331.375 -3.85173 -0.838775 0
M  V30 3316 H 332.663 -4.851 -1.53477 0
M  V30 3317 H 332.061 -3.52345 -4.42571 0
M  V30 3318 H 330.618 -4.35335 -4.85105 0
M  V30 3319 N 334.051 0.0651679 -1.57465 0
M  V30 3320 C 335.299 0.761555 -1.87202 0
M  V30 3321 C 335.62 1.77778 -0.801243 0
M  V30 3322 O 334.89 1.95166 0.16937 0
M  V30 3323 H 333.47 0.284251 -0.690804 0
M  V30 3324 H 336.132 0.0396827 -1.9486 0
M  V30 3325 H 335.228 1.27365 -2.84929 0
M  V30 3326 N 335.529 1.53961 0.336706 0
M  V30 3327 C 336.461 1.78751 1.4346 0
M  V30 3328 C 337.474 0.669019 1.48418 0
M  V30 3329 O 338.663 0.945884 1.51378 0
M  V30 3330 C 335.763 1.87844 2.82078 0
M  V30 3331 C 334.936 3.17854 3.00479 0
M  V30 3332 C 333.995 3.17816 4.19379 0
M  V30 3333 O 333.021 3.91511 4.13168 0
M  V30 3334 N 334.223 2.40669 5.2826 0
M  V30 3335 H 336.988 2.73493 1.22563 0
M  V30 3336 H 334.549 1.53096 0.526625 0
M  V30 3337 H 336.541 1.85261 3.59806 0
M  V30 3338 H 335.111 1.00257 2.96086 0
M  V30 3339 H 334.331 3.33504 2.10163 0
M  V30 3340 H 335.619 4.03718 3.0966 0
M  V30 3341 H 335.017 1.8036 5.36178 0
M  V30 3342 H 333.574 2.43877 6.04456 0
M  V30 3343 N 337.007 -0.598083 1.45811 0
M  V30 3344 C 337.937 -1.71873 1.58057 0
M  V30 3345 C 338.918 -1.64533 0.431615 0
M  V30 3346 O 340.103 -1.82787 0.65595 0
M  V30 3347 C 337.233 -3.10495 1.55597 0
M  V30 3348 C 336.187 -3.32654 2.69305 0
M  V30 3349 C 335.513 -4.71646 2.51902 0
M  V30 3350 C 336.813 -3.21981 4.11248 0
M  V30 3351 H 338.507 -1.61881 2.51863 0
M  V30 3352 H 336.053 -0.777372 1.21214 0
M  V30 3353 H 338.006 -3.88699 1.6276 0
M  V30 3354 H 336.73 -3.2135 0.583255 0
M  V30 3355 H 335.389 -2.56843 2.61586 0
M  V30 3356 H 335.037 -4.79246 1.52748 0
M  V30 3357 H 334.737 -4.87426 3.2816 0
M  V30 3358 H 336.261 -5.52038 2.60933 0
M  V30 3359 H 337.675 -3.90049 4.20161 0
M  V30 3360 H 336.072 -3.49289 4.87972 0
M  V30 3361 H 337.142 -2.1928 4.32486 0
M  V30 3362 N 338.485 -1.33259 -0.841409 0
M  V30 3363 C 339.713 -1.27605 -1.62864 0
M  V30 3364 C 340.128 0.153507 -1.88175 0
M  V30 3365 O 339.485 1.09485 -1.46011 0
M  V30 3366 C 339.536 -2.04596 -2.98031 0
M  V30 3367 O 339.257 -3.41975 -2.73834 0
M  V30 3368 C 340.758 -2.06122 -3.92465 0
M  V30 3369 H 337.978 -0.439718 -0.506842 0
M  V30 3370 H 340.522 -1.75591 -1.04824 0
M  V30 3371 H 338.677 -1.60299 -3.5268 0
M  V30 3372 H 339.091 -3.81549 -3.59889 0
M  V30 3373 H 340.565 -2.64451 -4.84531 0
M  V30 3374 H 341.042 -1.05083 -4.26444 0
M  V30 3375 H 341.648 -2.50427 -3.43753 0
M  V30 3376 N 339.963 1.05934 -1.16686 0
M  V30 3377 C 341.211 1.78447 -0.948744 0
M  V30 3378 C 341.532 1.87813 0.524523 0
M  V30 3379 O 340.802 1.38945 1.38098 0
M  V30 3380 H 339.382 0.660971 -0.348033 0
M  V30 3381 H 342.044 1.27947 -1.47022 0
M  V30 3382 H 341.14 2.80394 -1.37061 0
M  V30 3383 N 341.441 0.965919 1.2453 0
M  V30 3384 C 342.69 0.622437 1.91856 0
M  V30 3385 C 343.003 -0.846006 1.76358 0
M  V30 3386 O 344.209 -1.29993 2.38357 0
M  V30 3387 C 342.665 1.0626 3.43856 0
M  V30 3388 C 342.273 2.55437 3.68043 0
M  V30 3389 C 344.017 0.792183 4.17043 0
M  V30 3390 C 341.924 2.93196 5.13605 0
M  V30 3391 H 340.854 0.229092 0.718354 0
M  V30 3392 H 343.505 1.17189 1.41206 0
M  V30 3393 H 341.887 0.441476 3.93531 0
M  V30 3394 H 343.061 3.22665 3.28974 0
M  V30 3395 H 341.376 2.8007 3.08139 0
M  V30 3396 H 343.973 1.05031 5.24283 0
M  V30 3397 H 344.316 -0.271584 4.15413 0
M  V30 3398 H 344.849 1.37419 3.73311 0
M  V30 3399 H 341.588 3.98636 5.20355 0
M  V30 3400 H 341.108 2.30651 5.53679 0
M  V30 3401 H 342.787 2.83004 5.81823 0
M  V30 3402 N 342.919 -1.39368 0.735821 0
M  V30 3403 C 344.165 -2.00794 0.284544 0
M  V30 3404 C 344.498 -1.58255 -1.12557 0
M  V30 3405 O 343.773 -0.811819 -1.76748 0
M  V30 3406 C 344.056 -3.58011 0.387337 0
M  V30 3407 C 343.909 -4.10566 1.83728 0
M  V30 3408 C 345.228 -4.395 -0.22975 0
M  V30 3409 H 342.347 -0.729501 0.104866 0
M  V30 3410 H 344.989 -1.65564 0.93213 0
M  V30 3411 H 343.139 -3.88154 -0.164006 0
M  V30 3412 H 344.811 -3.91139 2.44556 0
M  V30 3413 H 343.054 -3.64095 2.35833 0
M  V30 3414 H 343.725 -5.19702 1.86047 0
M  V30 3415 H 346.201 -4.15406 0.240257 0
M  V30 3416 H 345.077 -5.48752 -0.127485 0
M  V30 3417 H 345.338 -4.22062 -1.3159 0
M  V30 3418 N 344.397 -0.483516 -1.5 0
M  V30 3419 C 345.637 0.0657469 -2.04294 0
M  V30 3420 C 346.001 1.35869 -1.35659 0
M  V30 3421 O 347.202 1.99111 -1.80578 0
M  V30 3422 C 345.473 0.232758 -3.56641 0
M  V30 3423 S 347.032 0.738788 -4.32536 0
M  V30 3424 H 343.85 0.0100755 -0.710929 0
M  V30 3425 H 346.452 -0.653494 -1.84254 0
M  V30 3426 H 345.156 -0.713847 -4.04144 0
M  V30 3427 H 344.687 0.977751 -3.81056 0
M  V30 3428 H 346.702 2.01048 -4.53645 0
M  V30 3429 N 345.875 1.56104 -0.216619 0
M  V30 3430 C 347.103 2.02563 0.421413 0
M  V30 3431 C 347.518 1.0965 1.53695 0
M  V30 3432 O 346.875 0.10521 1.82196 0
M  V30 3433 C 346.926 3.48584 0.957665 0
M  V30 3434 O 346.647 4.37953 -0.113389 0
M  V30 3435 C 348.148 4.10664 1.66943 0
M  V30 3436 H 345.368 0.662944 0.103665 0
M  V30 3437 H 347.912 2.01793 -0.331629 0
M  V30 3438 H 346.067 3.49985 1.661 0
M  V30 3439 H 346.481 5.23704 0.288932 0
M  V30 3440 H 347.955 5.14622 1.99671 0
M  V30 3441 H 348.432 3.55373 2.58083 0
M  V30 3442 H 349.038 4.13098 1.01142 0
M  V30 3443 N 347.353 -0.0568162 1.57498 0
M  V30 3444 C 348.3 -1.06591 2.04712 0
M  V30 3445 C 349.27 -1.3758 0.930644 0
M  V30 3446 O 350.455 -1.48392 1.19935 0
M  V30 3447 C 347.595 -2.3701 2.50839 0
M  V30 3448 C 346.708 -2.12421 3.76167 0
M  V30 3449 C 345.843 -3.36511 4.11015 0
M  V30 3450 C 344.882 -3.07353 5.2934 0
M  V30 3451 N 344.019 -4.23816 5.59754 0
M  V30 3452 H 348.859 -0.65631 2.90683 0
M  V30 3453 H 346.396 -0.312481 1.43743 0
M  V30 3454 H 348.354 -3.13175 2.7564 0
M  V30 3455 H 346.984 -2.75744 1.67825 0
M  V30 3456 H 346.036 -1.2688 3.58616 0
M  V30 3457 H 347.348 -1.86894 4.62463 0
M  V30 3458 H 346.502 -4.21062 4.36797 0
M  V30 3459 H 345.241 -3.65128 3.23315 0
M  V30 3460 H 344.246 -2.212 5.03339 0
M  V30 3461 H 345.471 -2.80043 6.1867 0
M  V30 3462 H 343.417 -4.52436 4.75014 0
M  V30 3463 H 343.334 -4.01614 6.40501 0
M  V30 3464 H 344.602 -5.0932 5.90096 0
M  V30 3465 N 348.832 -1.54138 -0.328536 0
M  V30 3466 C 350.06 -1.76062 -1.08673 0
M  V30 3467 C 350.475 -0.506852 -1.81869 0
M  V30 3468 O 349.832 0.522223 -1.74869 0
M  V30 3469 C 349.883 -2.95054 -2.08866 0
M  V30 3470 O 349.604 -4.15583 -1.38644 0
M  V30 3471 C 351.105 -3.2915 -2.96943 0
M  V30 3472 H 348.325 -0.587889 -0.323461 0
M  V30 3473 H 350.869 -2.0101 -0.376175 0
M  V30 3474 H 349.024 -2.72394 -2.75464 0
M  V30 3475 H 349.438 -4.82481 -2.05699 0
M  V30 3476 H 350.912 -4.15723 -3.63151 0
M  V30 3477 H 351.389 -2.461 -3.63774 0
M  V30 3478 H 351.995 -3.53871 -2.35914 0
M  V30 3479 N 350.31 0.590341 -1.46126 0
M  V30 3480 C 351.24 1.71032 -1.58966 0
M  V30 3481 C 352.221 1.64302 -0.440335 0
M  V30 3482 O 353.406 1.82436 -0.665634 0
M  V30 3483 C 350.536 3.09665 -1.57241 0
M  V30 3484 C 349.49 3.31221 -2.71066 0
M  V30 3485 C 348.816 4.70303 -2.54399 0
M  V30 3486 C 350.116 3.19796 -4.1295 0
M  V30 3487 H 351.81 1.60543 -2.52718 0
M  V30 3488 H 349.356 0.770933 -1.21625 0
M  V30 3489 H 351.309 3.87831 -1.64819 0
M  V30 3490 H 350.033 3.21036 -0.600289 0
M  V30 3491 H 348.692 2.55452 -2.62944 0
M  V30 3492 H 348.34 4.78429 -1.55288 0
M  V30 3493 H 348.04 4.85679 -3.30741 0
M  V30 3494 H 349.564 5.50647 -2.63857 0
M  V30 3495 H 350.978 3.87815 -4.22223 0
M  V30 3496 H 349.375 3.46696 -4.89818 0
M  V30 3497 H 350.445 2.16983 -4.33643 0
M  V30 3498 N 351.788 1.33704 0.83433 0
M  V30 3499 C 353.028 1.26754 1.60352 0
M  V30 3500 C 353.392 -0.163182 1.91305 0
M  V30 3501 O 354.593 -0.3567 2.66423 0
M  V30 3502 C 352.864 2.12262 2.8754 0
M  V30 3503 S 354.423 2.22549 3.78176 0
M  V30 3504 H 351.241 0.450879 0.549753 0
M  V30 3505 H 353.843 1.68788 0.986444 0
M  V30 3506 H 352.547 3.15238 2.62779 0
M  V30 3507 H 352.078 1.71082 3.54252 0
M  V30 3508 H 354.093 1.3899 4.76336 0
M  V30 3509 N 353.266 -1.05314 1.17247 0
M  V30 3510 C 354.506 -1.79869 0.970898 0
M  V30 3511 C 354.87 -1.85594 -0.491808 0
M  V30 3512 O 356.071 -2.56229 -0.812409 0
M  V30 3513 C 354.342 -3.19937 1.59295 0
M  V30 3514 S 355.901 -4.10986 1.53741 0
M  V30 3515 H 352.719 -0.61949 0.348931 0
M  V30 3516 H 355.321 -1.26368 1.49169 0
M  V30 3517 H 354.025 -3.13372 2.65003 0
M  V30 3518 H 353.556 -3.78515 1.07191 0
M  V30 3519 H 355.571 -4.93203 0.544537 0
M  V30 3520 N 354.744 -0.972509 -1.24016 0
M  V30 3521 C 355.707 -0.511403 -2.23422 0
M  V30 3522 C 356.707 0.394679 -1.55881 0
M  V30 3523 O 357.897 0.189469 -1.73167 0
M  V30 3524 C 355.029 0.258769 -3.39916 0
M  V30 3525 H 356.222 -1.39024 -2.6573 0
M  V30 3526 H 353.775 -0.757585 -1.36713 0
M  V30 3527 H 354.51 1.1545 -3.03054 0
M  V30 3528 H 354.295 -0.391522 -3.9014 0
M  V30 3529 H 355.785 0.570244 -4.13688 0
M  V30 3530 N 356.222 1.38976 -0.743202 0
M  V30 3531 C 357.45 2.04636 -0.30525 0
M  V30 3532 C 357.865 1.56044 1.06281 0
M  V30 3533 O 357.222 0.728921 1.67311 0
M  V30 3534 C 357.273 3.60193 -0.307177 0
M  V30 3535 O 356.994 4.06998 -1.62124 0
M  V30 3536 C 358.495 4.4306 0.145928 0
M  V30 3537 H 355.715 0.65788 -0.132041 0
M  V30 3538 H 358.259 1.77866 -1.00915 0
M  V30 3539 H 356.414 3.85835 0.347898 0
M  V30 3540 H 356.828 5.01371 -1.54036 0
M  V30 3541 H 358.302 5.51921 0.0934183 0
M  V30 3542 H 358.779 4.22706 1.19231 0
M  V30 3543 H 359.385 4.22584 -0.479886 0
M  V30 3544 N 357.7 0.491464 1.49741 0
M  V30 3545 C 358.949 -0.0582189 2.01616 0
M  V30 3546 C 359.262 -1.38927 1.3769 0
M  V30 3547 O 360.468 -2.02509 1.80838 0
M  V30 3548 C 358.924 -0.154235 3.59569 0
M  V30 3549 C 358.532 1.1696 4.32463 0
M  V30 3550 C 360.276 -0.65479 4.1942 0
M  V30 3551 C 358.183 1.03627 5.8225 0
M  V30 3552 H 357.113 -0.0255317 0.753568 0
M  V30 3553 H 359.764 0.629445 1.72367 0
M  V30 3554 H 358.146 -0.906138 3.85493 0
M  V30 3555 H 359.32 1.93405 4.18248 0
M  V30 3556 H 357.635 1.60285 3.84315 0
M  V30 3557 H 360.232 -0.771903 5.29099 0
M  V30 3558 H 360.575 -1.65127 3.8215 0
M  V30 3559 H 361.108 0.040304 3.9778 0
M  V30 3560 H 357.847 2.00672 6.24028 0
M  V30 3561 H 357.367 0.312546 5.98985 0
M  V30 3562 H 359.046 0.711114 6.4308 0
M  V30 3563 N 359.178 -1.55987 0.224894 0
M  V30 3564 C 360.426 -1.97998 -0.405099 0
M  V30 3565 C 360.747 -1.11387 -1.60056 0
M  V30 3566 O 360.017 -0.191645 -1.9496 0
M  V30 3567 H 358.597 -0.731235 -0.152658 0
M  V30 3568 H 361.259 -1.92279 0.318567 0
M  V30 3569 H 360.355 -3.03463 -0.729167 0
M  V30 3570 N 360.656 0.0484629 -1.57525 0
M  V30 3571 C 362.072 0.40375 -1.54409 0
M  V30 3572 C 362.272 1.77786 -0.948384 0
M  V30 3573 O 361.328 2.46189 -0.560983 0
M  V30 3574 C 362.641 0.323394 -2.98956 0
M  V30 3575 C 364.189 0.401892 -3.10409 0
M  V30 3576 C 364.664 0.351195 -4.56652 0
M  V30 3577 N 366.155 0.410576 -4.61377 0
M  V30 3578 C 366.89 0.393933 -5.72045 0
M  V30 3579 N 366.386 0.330724 -6.9201 0
M  V30 3580 N 368.179 0.442227 -5.60358 0
M  V30 3581 H 360.33 -0.851016 -1.94606 0
M  V30 3582 H 362.593 -0.321721 -0.89174 0
M  V30 3583 H 362.299 -0.62011 -3.4619 0
M  V30 3584 H 362.173 1.12463 -3.60044 0
M  V30 3585 H 364.56 1.33582 -2.63134 0
M  V30 3586 H 364.641 -0.428342 -2.52188 0
M  V30 3587 H 364.285 -0.578987 -5.04589 0
M  V30 3588 H 364.215 1.19928 -5.12762 0
M  V30 3589 H 366.706 0.462729 -3.75056 0
M  V30 3590 H 367.019 0.322592 -7.72126 0
M  V30 3591 H 365.364 0.29706 -6.94365 0
M  V30 3592 H 368.555 0.489464 -4.65534 0
M  V30 3593 H 368.728 0.425788 -6.466 0
M  V30 3594 N 362.134 1.5431 0.320358 0
M  V30 3595 C 363.097 1.83195 1.3774 0
M  V30 3596 C 364.097 0.703906 1.44575 0
M  V30 3597 O 365.287 0.972214 1.44546 0
M  V30 3598 C 362.419 1.99487 2.76438 0
M  V30 3599 H 363.612 2.77642 1.1338 0
M  V30 3600 H 361.165 1.46076 0.556012 0
M  V30 3601 H 361.9 1.07262 3.06048 0
M  V30 3602 H 361.685 2.81575 2.7287 0
M  V30 3603 H 363.175 2.23271 3.52902 0
M  V30 3604 N 363.613 -0.582584 1.46437 0
M  V30 3605 C 364.859 -1.34064 1.52965 0
M  V30 3606 C 365.214 -1.91566 0.178968 0
M  V30 3607 O 364.507 -1.73526 -0.812365 0
M  V30 3608 C 364.701 -2.48964 2.56421 0
M  V30 3609 C 364.53 -2.02717 4.01417 0
M  V30 3610 C 363.3 -1.87728 4.69134 0
M  V30 3611 C 365.498 -1.58675 4.8921 0
M  V30 3612 N 363.48 -1.35554 5.98747 0
M  V30 3613 C 364.851 -1.18093 6.08649 0
M  V30 3614 C 366.906 -1.46494 4.75861 0
M  V30 3615 C 365.609 -0.665427 7.16215 0
M  V30 3616 C 367.635 -0.96347 5.83499 0
M  V30 3617 C 366.997 -0.567432 7.02111 0
M  V30 3618 H 363.096 -0.483551 0.614575 0
M  V30 3619 H 365.68 -0.663309 1.83053 0
M  V30 3620 H 363.851 -3.1426 2.28244 0
M  V30 3621 H 365.583 -3.15913 2.52944 0
M  V30 3622 H 362.338 -2.09678 4.24655 0
M  V30 3623 H 362.762 -1.11628 6.67734 0
M  V30 3624 H 367.404 -1.75731 3.8455 0
M  V30 3625 H 365.122 -0.360639 8.07295 0
M  V30 3626 H 368.708 -0.873129 5.75211 0
M  V30 3627 H 367.588 -0.185389 7.83981 0
M  V30 3628 N 365.091 -1.34144 -0.827227 0
M  V30 3629 C 366.339 -1.26009 -1.58007 0
M  V30 3630 C 366.66 0.170971 -1.94249 0
M  V30 3631 O 365.93 1.10256 -1.61927 0
M  V30 3632 H 364.51 -0.463414 -0.585881 0
M  V30 3633 H 367.172 -1.68005 -0.987951 0
M  V30 3634 H 366.268 -1.86187 -2.50481 0
M  V30 3635 N 366.569 1.04691 -1.17803 0
M  V30 3636 C 367.519 2.10856 -0.867391 0
M  V30 3637 C 368.503 1.601 0.160206 0
M  V30 3638 O 369.695 1.76948 -0.042947 0
M  V30 3639 C 366.824 3.411 -0.388012 0
M  V30 3640 C 365.91 3.9864 -1.44732 0
M  V30 3641 N 366.301 4.30075 -2.66212 0
M  V30 3642 C 364.599 4.26439 -1.30637 0
M  V30 3643 C 365.3 4.76033 -3.34317 0
M  V30 3644 N 364.276 4.76462 -2.61696 0
M  V30 3645 H 368.078 2.33029 -1.79094 0
M  V30 3646 H 365.592 1.22386 -1.0675 0
M  V30 3647 H 367.589 4.16641 -0.146994 0
M  V30 3648 H 366.249 3.20357 0.529271 0
M  V30 3649 H 367.26 4.19917 -3.03134 0
M  V30 3650 H 363.937 4.15056 -0.451129 0
M  V30 3651 H 365.327 5.09427 -4.38103 0
M  V30 3652 N 368.047 0.979072 1.23499 0
M  V30 3653 C 369.458 0.684391 1.73704 0
M  V30 3654 C 369.809 -0.799448 1.79174 0
M  V30 3655 O 368.934 -1.62531 1.42873 0
M  V30 3656 C 369.529 1.23564 3.15464 0
M  V30 3657 C 368.088 0.99063 3.6313 0
M  V30 3658 C 367.235 1.36416 2.41425 0
M  V30 3659 H 370.186 1.15307 1.09041 0
M  V30 3660 H 370.207 0.607417 3.7562 0
M  V30 3661 H 369.719 2.31561 3.1145 0
M  V30 3662 H 367.82 -0.0733136 3.72528 0
M  V30 3663 H 367.933 1.64427 4.5 0
M  V30 3664 H 366.297 0.782616 2.42378 0
M  V30 3665 H 367.08 2.45387 2.40083 0
M  V30 3666 N 369.525 -1.3858 0.750561 0
M  V30 3667 C 370.765 -2.02032 0.310258 0
M  V30 3668 C 371.129 -1.58288 -1.08668 0
M  V30 3669 O 372.33 -2.14049 -1.62593 0
M  V30 3670 C 370.601 -3.54856 0.425647 0
M  V30 3671 S 372.16 -4.38748 0.0674797 0
M  V30 3672 H 368.978 -0.700705 0.120554 0
M  V30 3673 H 371.58 -1.69134 0.980512 0
M  V30 3674 H 370.284 -3.84182 1.44335 0
M  V30 3675 H 369.815 -3.92527 -0.261894 0
M  V30 3676 H 371.83 -4.82835 -1.14388 0
M  V30 3677 N 371.003 -0.499398 -1.49478 0
M  V30 3678 C 371.913 0.284489 -2.32869 0
M  V30 3679 C 372.929 0.968885 -1.44529 0
M  V30 3680 O 374.105 0.95062 -1.77553 0
M  V30 3681 C 371.17 1.33594 -3.19928 0
M  V30 3682 C 370.231 0.665149 -4.24116 0
M  V30 3683 C 369.464 1.6665 -5.07014 0
M  V30 3684 O 369.687 2.89618 -4.91404 0
M  V30 3685 O 368.621 1.22271 -5.8935 0
M  V30 3686 H 372.447 -0.39802 -3.01081 0
M  V30 3687 H 370.032 -0.260758 -1.47107 0
M  V30 3688 H 371.914 1.94431 -3.73864 0
M  V30 3689 H 370.589 2.0014 -2.54412 0
M  V30 3690 H 369.496 0.0170769 -3.74096 0
M  V30 3691 H 370.829 0.0421555 -4.92182 0
M  V30 3692 N 372.481 1.55866 -0.233164 0
M  V30 3693 C 373.414 2.16794 0.712442 0
M  V30 3694 C 374.392 1.1158 1.18273 0
M  V30 3695 O 375.576 1.39897 1.26337 0
M  V30 3696 C 372.703 2.75757 1.96661 0
M  V30 3697 C 371.749 3.93902 1.63533 0
M  V30 3698 S 372.582 5.30223 0.74995 0
M  V30 3699 C 373.738 5.92631 2.01343 0
M  V30 3700 H 373.971 2.96662 0.194617 0
M  V30 3701 H 371.504 1.5439 -0.0177425 0
M  V30 3702 H 373.462 3.10367 2.68668 0
M  V30 3703 H 372.123 1.9586 2.45556 0
M  V30 3704 H 371.316 4.33702 2.56747 0
M  V30 3705 H 370.918 3.60499 0.995804 0
M  V30 3706 H 373.21 6.09312 2.96219 0
M  V30 3707 H 374.153 6.88388 1.65915 0
M  V30 3708 H 374.561 5.21571 2.15925 0
M  V30 3709 N 373.959 -0.0401083 1.57549 0
M  V30 3710 C 375.199 -0.738098 1.90608 0
M  V30 3711 C 375.563 -1.73107 0.830539 0
M  V30 3712 O 376.764 -2.4765 1.04513 0
M  V30 3713 C 375.035 -1.39985 3.28845 0
M  V30 3714 S 376.594 -2.12852 3.83718 0
M  V30 3715 H 373.412 -0.24477 0.667539 0
M  V30 3716 H 376.014 0.00693599 1.95499 0
M  V30 3717 H 374.718 -0.663775 4.04997 0
M  V30 3718 H 374.249 -2.18366 3.2723 0
M  V30 3719 H 376.264 -3.39842 3.61555 0
M  V30 3720 N 375.437 -1.54477 -0.31217 0
M  V30 3721 C 376.848 -1.64344 -0.885891 0
M  V30 3722 C 377.199 -0.54485 -1.88483 0
M  V30 3723 O 376.324 0.320387 -2.14015 0
M  V30 3724 C 376.919 -2.97908 -1.61357 0
M  V30 3725 C 375.478 -3.09933 -2.13585 0
M  V30 3726 C 374.625 -2.59971 -0.964897 0
M  V30 3727 H 377.576 -1.58448 -0.0894528 0
M  V30 3728 H 377.597 -2.88706 -2.47848 0
M  V30 3729 H 377.109 -3.77845 -0.886277 0
M  V30 3730 H 375.21 -2.34694 -2.89395 0
M  V30 3731 H 375.323 -4.15916 -2.37804 0
M  V30 3732 H 373.687 -2.16147 -1.34731 0
M  V30 3733 H 374.47 -3.42376 -0.251742 0
M  V30 3734 N 376.915 0.57481 -1.46744 0
M  V30 3735 C 377.878 1.66533 -1.57478 0
M  V30 3736 C 378.878 1.54338 -0.451263 0
M  V30 3737 O 380.068 1.58814 -0.715813 0
M  V30 3738 C 377.2 3.05999 -1.50259 0
M  V30 3739 H 378.393 1.58372 -2.54673 0
M  V30 3740 H 375.946 0.793301 -1.34672 0
M  V30 3741 H 376.681 3.19709 -0.543725 0
M  V30 3742 H 376.466 3.16259 -2.31781 0
M  V30 3743 H 377.956 3.8537 -1.60872 0
M  V30 3744 N 378.394 1.34581 0.820102 0
M  V30 3745 C 379.326 1.22236 1.93884 0
M  V30 3746 C 380.339 0.148776 1.62119 0
M  V30 3747 O 381.528 0.400877 1.7394 0
M  V30 3748 C 378.628 0.856542 3.27897 0
M  V30 3749 C 377.801 2.02569 3.87666 0
M  V30 3750 C 376.86 1.63782 5.00062 0
M  V30 3751 O 375.886 2.35477 5.18208 0
M  V30 3752 N 377.088 0.553611 5.77854 0
M  V30 3753 H 379.853 2.18615 2.05006 0
M  V30 3754 H 377.414 1.27573 0.99683 0
M  V30 3755 H 379.406 0.578806 4.0054 0
M  V30 3756 H 377.976 -0.0171518 3.12595 0
M  V30 3757 H 377.196 2.468 3.07382 0
M  V30 3758 H 378.484 2.80752 4.24329 0
M  V30 3759 H 377.882 -0.0423528 5.65684 0
M  V30 3760 H 376.439 0.335614 6.50935 0
M  V30 3761 N 379.872 -1.04064 1.18357 0
M  V30 3762 C 381.283 -1.58719 0.98312 0
M  V30 3763 C 381.634 -1.90556 -0.467193 0
M  V30 3764 O 380.759 -1.69561 -1.34454 0
M  V30 3765 C 381.354 -2.88379 1.77828 0
M  V30 3766 C 379.913 -3.3965 1.62218 0
M  V30 3767 C 379.06 -2.13235 1.77274 0
M  V30 3768 H 382.011 -0.867359 1.32901 0
M  V30 3769 H 382.032 -3.58773 1.26737 0
M  V30 3770 H 381.544 -2.65176 2.83379 0
M  V30 3771 H 379.645 -3.67866 0.592036 0
M  V30 3772 H 379.758 -4.13475 2.42023 0
M  V30 3773 H 378.122 -2.24542 1.20221 0
M  V30 3774 H 378.905 -1.92487 2.8426 0
M  V30 3775 N 381.35 -0.985608 -1.22978 0
M  V30 3776 C 382.282 -0.488154 -2.23941 0
M  V30 3777 C 383.295 0.41282 -1.57479 0
M  V30 3778 O 384.484 0.216121 -1.77187 0
M  V30 3779 C 381.584 0.312611 -3.37455 0
M  V30 3780 C 380.757 -0.582741 -4.33501 0
M  V30 3781 C 379.816 0.165064 -5.25941 0
M  V30 3782 O 378.842 -0.447077 -5.67442 0
M  V30 3783 N 380.044 1.44953 -5.62111 0
M  V30 3784 H 382.809 -1.3563 -2.67254 0
M  V30 3785 H 380.37 -0.859477 -1.37203 0
M  V30 3786 H 382.362 0.821357 -3.96277 0
M  V30 3787 H 380.932 1.0818 -2.93285 0
M  V30 3788 H 380.152 -1.27225 -3.73105 0
M  V30 3789 H 381.44 -1.19275 -4.94622 0
M  V30 3790 H 380.838 1.9683 -5.30353 0
M  V30 3791 H 379.395 1.90361 -6.23383 0
M  V30 3792 N 382.828 1.3818 -0.7579 0
M  V30 3793 C 384.239 1.82726 -0.383134 0
M  V30 3794 C 384.59 1.63214 1.08884 0
M  V30 3795 O 383.715 1.13566 1.84205 0
M  V30 3796 C 384.31 3.31728 -0.688631 0
M  V30 3797 C 382.869 3.74606 -0.367091 0
M  V30 3798 C 382.016 2.60896 -0.939599 0
M  V30 3799 H 384.967 1.26847 -0.953699 0
M  V30 3800 H 384.988 3.80487 0.0316492 0
M  V30 3801 H 384.5 3.45898 -1.76001 0
M  V30 3802 H 382.601 3.66013 0.697532 0
M  V30 3803 H 382.714 4.71215 -0.865658 0
M  V30 3804 H 381.078 2.52075 -0.3647 0
M  V30 3805 H 381.861 2.77864 -2.0161 0
M  V30 3806 N 384.306 0.507319 1.49211 0
M  V30 3807 C 385.546 -0.0332372 2.04373 0
M  V30 3808 C 385.91 -1.33694 1.37804 0
M  V30 3809 O 387.111 -1.96213 1.83722 0
M  V30 3810 C 385.382 -0.17599 3.56966 0
M  V30 3811 S 386.941 -0.669882 4.33657 0
M  V30 3812 H 383.759 0.00123603 0.710999 0
M  V30 3813 H 386.361 0.682725 1.83191 0
M  V30 3814 H 385.065 0.778053 4.02957 0
M  V30 3815 H 384.596 -0.917005 3.82563 0
M  V30 3816 H 386.611 -1.93806 4.56786 0
M  V30 3817 N 385.784 -1.5574 0.241426 0
M  V30 3818 C 387.2 -1.59196 -0.113548 0
M  V30 3819 C 387.4 -1.25852 -1.57364 0
M  V30 3820 O 386.456 -1.00322 -2.31715 0
M  V30 3821 C 387.769 -2.99814 0.230695 0
M  V30 3822 C 389.317 -3.12513 0.174547 0
M  V30 3823 C 389.792 -4.55342 0.492744 0
M  V30 3824 N 391.283 -4.61076 0.443043 0
M  V30 3825 C 392.018 -5.6956 0.662484 0
M  V30 3826 N 391.514 -6.86328 0.944761 0
M  V30 3827 N 393.307 -5.58957 0.593564 0
M  V30 3828 H 385.458 -1.75685 1.19368 0
M  V30 3829 H 387.721 -0.81756 0.479896 0
M  V30 3830 H 387.427 -3.28932 1.24485 0
M  V30 3831 H 387.301 -3.74568 -0.444833 0
M  V30 3832 H 389.688 -2.83179 -0.830277 0
M  V30 3833 H 389.769 -2.40045 0.883845 0
M  V30 3834 H 389.413 -4.85396 1.4951 0
M  V30 3835 H 389.343 -5.26062 -0.23797 0
M  V30 3836 H 391.834 -3.77179 0.233374 0
M  V30 3837 H 392.147 -7.64935 1.09977 0
M  V30 3838 H 390.492 -6.88025 0.982175 0
M  V30 3839 H 393.683 -4.66611 0.373123 0
M  V30 3840 H 393.856 -6.43433 0.767981 0
M  V30 3841 N 387.262 0.0317525 -1.57568 0
M  V30 3842 C 388.678 0.38735 -1.54828 0
M  V30 3843 C 388.878 1.7677 -0.967187 0
M  V30 3844 O 387.934 2.45581 -0.587063 0
M  V30 3845 C 389.247 0.291667 -2.99282 0
M  V30 3846 C 390.795 0.368946 -3.10818 0
M  V30 3847 C 391.27 0.302741 -4.56998 0
M  V30 3848 N 392.761 0.361617 -4.61786 0
M  V30 3849 C 393.496 0.333238 -5.72431 0
M  V30 3850 N 392.992 0.257308 -6.92322 0
M  V30 3851 N 394.785 0.382769 -5.60795 0
M  V30 3852 H 386.936 -0.871609 -1.93692 0
M  V30 3853 H 389.199 -0.331161 -0.888277 0
M  V30 3854 H 388.905 -0.656794 -3.45513 0
M  V30 3855 H 388.779 1.08638 -3.61217 0
M  V30 3856 H 391.166 1.30784 -2.64536 0
M  V30 3857 H 391.247 -0.455066 -2.5172 0
M  V30 3858 H 390.891 -0.632473 -5.03947 0
M  V30 3859 H 390.821 1.14482 -5.14005 0
M  V30 3860 H 393.312 0.422923 -3.75526 0
M  V30 3861 H 393.625 0.24068 -7.72425 0
M  V30 3862 H 391.97 0.223396 -6.94641 0
M  V30 3863 H 395.161 0.44006 -4.66027 0
M  V30 3864 H 395.334 0.357184 -6.47015 0
M  V30 3865 N 388.74 1.54641 0.303973 0
M  V30 3866 C 389.988 1.73437 1.0375 0
M  V30 3867 C 390.309 0.521449 1.87899 0
M  V30 3868 O 389.579 -0.46432 1.90318 0
M  V30 3869 H 388.159 0.639518 0.386039 0
M  V30 3870 H 390.821 1.91988 0.335675 0
M  V30 3871 H 389.917 2.62235 1.69231 0
M  V30 3872 N 390.218 -0.567019 1.47046 0
M  V30 3873 C 391.465 -1.32462 1.53167 0
M  V30 3874 C 391.793 -1.93571 0.189841 0
M  V30 3875 O 391.048 -1.77865 -0.816243 0
M  V30 3876 C 391.347 -2.4623 2.59047 0
M  V30 3877 C 391.013 -2.03014 4.02612 0
M  V30 3878 C 389.675 -1.90944 4.41694 0
M  V30 3879 C 392.027 -1.69895 4.92732 0
M  V30 3880 C 389.355 -1.44035 5.68745 0
M  V30 3881 C 391.707 -1.2446 6.20236 0
M  V30 3882 C 390.371 -1.10979 6.5821 0
M  V30 3883 H 389.641 -0.484713 0.560477 0
M  V30 3884 H 392.288 -0.636888 1.80599 0
M  V30 3885 H 390.593 -3.20517 2.25335 0
M  V30 3886 H 392.29 -3.04427 2.61008 0
M  V30 3887 H 388.88 -2.13348 3.71726 0
M  V30 3888 H 393.064 -1.78098 4.63244 0
M  V30 3889 H 388.32 -1.32254 5.96925 0
M  V30 3890 H 392.494 -0.978924 6.89485 0
M  V30 3891 H 390.121 -0.744078 7.5655 0
M  V30 3892 N 391.696 -1.35014 -0.812953 0
M  V30 3893 C 392.945 -1.27269 -1.56479 0
M  V30 3894 C 393.258 0.152771 -1.95002 0
M  V30 3895 O 394.464 0.352451 -2.69203 0
M  V30 3896 C 392.92 -2.23159 -2.82362 0
M  V30 3897 C 392.528 -3.71016 -2.511 0
M  V30 3898 C 394.272 -2.24342 -3.60376 0
M  V30 3899 C 392.179 -4.58746 -3.73237 0
M  V30 3900 H 391.109 -0.472829 -0.587324 0
M  V30 3901 H 393.76 -1.6024 -0.894171 0
M  V30 3902 H 392.142 -1.83151 -3.51101 0
M  V30 3903 H 393.316 -4.1962 -1.90409 0
M  V30 3904 H 391.631 -3.72378 -1.86343 0
M  V30 3905 H 394.228 -2.87107 -4.51081 0
M  V30 3906 H 394.571 -1.24542 -3.97234 0
M  V30 3907 H 395.104 -2.62846 -2.98591 0
M  V30 3908 H 391.843 -5.59521 -3.41492 0
M  V30 3909 H 391.363 -4.14871 -4.33176 0
M  V30 3910 H 393.042 -4.73852 -4.40537 0
M  V30 3911 N 393.175 1.03435 -1.18907 0
M  V30 3912 C 394.586 1.58195 -0.991523 0
M  V30 3913 C 394.937 1.90801 0.457081 0
M  V30 3914 O 394.062 1.70272 1.33553 0
M  V30 3915 C 394.657 2.87432 -1.79355 0
M  V30 3916 C 393.216 3.38785 -1.64017 0
M  V30 3917 C 392.363 2.12292 -1.78402 0
M  V30 3918 H 395.314 0.860299 -1.33359 0
M  V30 3919 H 395.335 3.58096 -1.28638 0
M  V30 3920 H 394.847 2.63669 -2.84781 0
M  V30 3921 H 392.948 3.67547 -0.611536 0
M  V30 3922 H 393.061 4.12186 -2.44212 0
M  V30 3923 H 391.425 2.23901 -1.2141 0
M  V30 3924 H 392.208 1.90977 -2.85277 0
M  V30 3925 N 394.653 0.992116 1.22453 0
M  V30 3926 C 395.601 0.534644 2.26372 0
M  V30 3927 C 396.595 -0.414293 1.64256 0
M  V30 3928 O 397.801 -0.286899 1.77699 0
M  V30 3929 H 394.176 0.154502 0.735957 0
M  V30 3930 H 396.147 1.42256 2.62309 0
M  V30 3931 C 394.896 -0.135815 3.47435 0
M  V30 3932 H 394.219 0.585311 3.95492 0
M  V30 3933 H 395.659 -0.419374 4.21921 0
M  V30 3934 C 394.118 -1.37089 3.07747 0
M  V30 3935 O 394.648 -2.46629 3.17076 0
M  V30 3936 N 392.854 -1.24585 2.62539 0
M  V30 3937 H 392.401 -0.354542 2.55149 0
M  V30 3938 H 392.359 -2.07327 2.36353 0
M  V30 3939 N 396.131 -1.37776 0.765217 0
M  V30 3940 C 397.38 -1.99092 0.323307 0
M  V30 3941 C 397.693 -1.61434 -1.10446 0
M  V30 3942 O 398.899 -2.15805 -1.64743 0
M  V30 3943 C 397.355 -3.56019 0.527098 0
M  V30 3944 C 396.963 -4.0262 1.96471 0
M  V30 3945 C 398.707 -4.2424 0.148483 0
M  V30 3946 C 396.614 -5.52233 2.11644 0
M  V30 3947 H 395.544 -0.744846 0.117137 0
M  V30 3948 H 398.195 -1.57391 0.943417 0
M  V30 3949 H 396.577 -3.95667 -0.162372 0
M  V30 3950 H 397.751 -3.74234 2.68859 0
M  V30 3951 H 396.066 -3.47161 2.29931 0
M  V30 3952 H 398.663 -5.34159 0.240456 0
M  V30 3953 H 399.006 -4.06446 -0.900422 0
M  V30 3954 H 399.539 -3.89872 0.79025 0
M  V30 3955 H 396.278 -5.74945 3.1483 0
M  V30 3956 H 395.798 -5.82324 1.4373 0
M  V30 3957 H 397.477 -6.18106 1.91193 0
M  V30 3958 N 397.609 -0.515225 -1.4894 0
M  V30 3959 C 399.025 -0.172099 -1.58669 0
M  V30 3960 C 399.225 1.32405 -1.51892 0
M  V30 3961 O 398.281 2.10116 -1.40027 0
M  V30 3962 C 399.594 -0.761533 -2.90897 0
M  V30 3963 C 401.142 -0.728926 -3.04394 0
M  V30 3964 C 401.617 -1.29667 -4.39261 0
M  V30 3965 N 403.108 -1.25799 -4.4579 0
M  V30 3966 C 403.843 -1.66733 -5.48623 0
M  V30 3967 N 403.339 -2.15327 -6.58488 0
M  V30 3968 N 405.132 -1.58061 -5.39419 0
M  V30 3969 H 397.283 -1.48778 -1.51588 0
M  V30 3970 H 399.546 -0.617968 -0.718901 0
M  V30 3971 H 399.252 -1.81136 -3.01468 0
M  V30 3972 H 399.126 -0.230106 -3.76497 0
M  V30 3973 H 401.513 0.312098 -2.93445 0
M  V30 3974 H 401.594 -1.29766 -2.20442 0
M  V30 3975 H 401.238 -2.33655 -4.50963 0
M  V30 3976 H 401.168 -0.703752 -5.21876 0
M  V30 3977 H 403.659 -0.902102 -3.66975 0
M  V30 3978 H 403.972 -2.44594 -7.33071 0
M  V30 3979 H 402.317 -2.19311 -6.59491 0
M  V30 3980 H 405.508 -1.19906 -4.52482 0
M  V30 3981 H 405.681 -1.90284 -6.19432 0
M  V30 3982 N 399.087 1.5561 -0.249682 0
M  V30 3983 C 400.315 2.03411 0.378352 0
M  V30 3984 C 400.73 1.12886 1.51335 0
M  V30 3985 O 400.087 0.143833 1.81932 0
M  V30 3986 C 400.138 3.50537 0.88351 0
M  V30 3987 O 399.859 4.37614 -0.20626 0
M  V30 3988 C 401.36 4.14113 1.58195 0
M  V30 3989 H 398.58 0.664994 0.08958 0
M  V30 3990 H 401.124 2.01044 -0.374357 0
M  V30 3991 H 399.279 3.5343 1.58639 0
M  V30 3992 H 399.693 5.24199 0.177782 0
M  V30 3993 H 401.167 5.18741 1.8871 0
M  V30 3994 H 401.644 3.60767 2.50487 0
M  V30 3995 H 402.25 4.15151 0.923573 0
M  V30 3996 N 400.565 -0.0233959 1.57583 0
M  V30 3997 C 401.813 -0.711654 1.89156 0
M  V30 3998 C 402.134 -1.75591 0.848096 0
M  V30 3999 O 401.404 -1.95547 -0.117566 0
M  V30 4000 H 399.984 -0.265835 0.698098 0
M  V30 4001 H 402.646 0.0119948 1.94896 0
M  V30 4002 H 401.742 -1.19766 2.88206 0
M  V30 4003 N 402.043 -1.548 -0.295768 0
M  V30 4004 C 403.006 -1.85363 -1.34808 0
M  V30 4005 C 404.006 -0.726817 -1.43436 0
M  V30 4006 O 405.196 -0.995088 -1.42981 0
M  V30 4007 C 402.328 -2.03859 -2.73229 0
M  V30 4008 H 403.521 -2.7941 -1.08949 0
M  V30 4009 H 401.074 -1.46942 -0.532702 0
M  V30 4010 H 401.809 -1.12117 -3.04303 0
M  V30 4011 H 401.594 -2.8588 -2.68356 0
M  V30 4012 H 403.084 -2.28857 -3.49305 0
M  V30 4013 N 403.521 0.559213 -1.47345 0
M  V30 4014 C 404.761 1.32728 -1.55444 0
M  V30 4015 C 405.125 1.90838 -0.210895 0
M  V30 4016 O 406.326 2.68282 -0.166719 0
M  V30 4017 C 404.597 2.4092 -2.63993 0
M  V30 4018 S 406.156 3.2784 -2.91661 0
M  V30 4019 H 402.974 0.451883 -0.548929 0
M  V30 4020 H 405.576 0.640404 -1.84714 0
M  V30 4021 H 404.28 1.9666 -3.60212 0
M  V30 4022 H 403.811 3.14351 -2.36531 0
M  V30 4023 H 405.826 4.40341 -2.28722 0
M  V30 4024 N 404.999 1.35443 0.805782 0
M  V30 4025 C 405.931 1.24285 1.92577 0
M  V30 4026 C 406.944 0.165962 1.61952 0
M  V30 4027 O 408.133 0.419303 1.73505 0
M  V30 4028 C 405.233 0.891272 3.2697 0
M  V30 4029 C 404.406 2.06669 3.85495 0
M  V30 4030 C 403.465 1.69077 4.98297 0
M  V30 4031 O 402.491 2.4096 5.15681 0
M  V30 4032 N 403.693 0.614869 5.77234 0
M  V30 4033 H 406.458 2.20777 2.02676 0
M  V30 4034 H 404.019 1.28623 0.983243 0
M  V30 4035 H 406.011 0.621256 3.99903 0
M  V30 4036 H 404.581 0.016004 3.12596 0
M  V30 4037 H 403.801 2.50046 3.04747 0
M  V30 4038 H 405.089 2.85237 4.21328 0
M  V30 4039 H 404.487 0.017648 5.65697 0
M  V30 4040 H 403.044 0.404636 6.50543 0
M  V30 4041 N 406.477 -1.02803 1.19454 0
M  V30 4042 C 407.754 -1.73299 0.907013 0
M  V30 4043 C 408.134 -2.02772 -0.587086 0
M  V30 4044 O 407.482 -1.68304 -1.54551 0
M  V30 4045 C 407.692 -3.00912 1.76785 0
M  V30 4046 C 409.04 -3.74403 2.00268 0
M  V30 4047 O 410.064 -3.10841 1.73943 0
M  V30 4048 O 408.923 -4.88675 2.4466 0
M  V30 4049 H 406.017 -0.754727 0.338106 0
M  V30 4050 H 408.563 -1.08754 1.30271 0
M  V30 4051 H 407.335 -2.75366 2.7801 0
M  V30 4052 H 406.958 -3.73197 1.37149 0
M  V30 4053 N 407.956 -0.998596 -1.21925 0
M  V30 4054 C 409.202 -0.678667 -1.91107 0
M  V30 4055 C 409.535 0.78791 -1.77498 0
M  V30 4056 O 408.81 1.57043 -1.1475 0
M  V30 4057 C 409.093 -1.09245 -3.43129 0
M  V30 4058 C 408.946 -2.61801 -3.6576 0
M  V30 4059 C 410.265 -0.649984 -4.35274 0
M  V30 4060 H 407.384 -0.248025 -0.694012 0
M  V30 4061 H 410.026 -1.24314 -1.43688 0
M  V30 4062 H 408.176 -0.612171 -3.83647 0
M  V30 4063 H 409.848 -3.17543 -3.34611 0
M  V30 4064 H 408.091 -3.03609 -3.09845 0
M  V30 4065 H 408.762 -2.85804 -4.7225 0
M  V30 4066 H 411.238 -1.0626 -4.02303 0
M  V30 4067 H 410.114 -0.967743 -5.40302 0
M  V30 4068 H 410.375 0.449139 -4.39813 0
M  V30 4069 N 409.434 1.37368 -0.772513 0
M  V30 4070 C 410.711 1.93839 -0.26188 0
M  V30 4071 C 411.091 1.7061 1.24319 0
M  V30 4072 O 410.439 1.05534 2.02669 0
M  V30 4073 C 410.649 3.43154 -0.636102 0
M  V30 4074 C 411.997 4.20249 -0.606324 0
M  V30 4075 O 413.021 3.5152 -0.575538 0
M  V30 4076 O 411.88 5.42809 -0.634086 0
M  V30 4077 H 408.974 0.82478 -0.0605555 0
M  V30 4078 H 411.52 1.4665 -0.853917 0
M  V30 4079 H 410.292 3.53647 -1.6748 0
M  V30 4080 H 409.915 3.97596 -0.0170516 0
M  V30 4081 N 410.912 0.523116 1.48665 0
M  V30 4082 C 411.822 -0.247406 2.33292 0
M  V30 4083 C 412.838 -0.945769 1.46052 0
M  V30 4084 O 414.014 -0.922253 1.79043 0
M  V30 4085 C 411.079 -1.28487 3.22012 0
M  V30 4086 C 410.14 -0.597592 4.2512 0
M  V30 4087 C 409.373 -1.58563 5.09601 0
M  V30 4088 O 409.596 -2.81763 4.95949 0
M  V30 4089 O 408.53 -1.12879 5.91221 0
M  V30 4090 H 412.356 0.445869 3.00409 0
M  V30 4091 H 409.941 0.284128 1.46673 0
M  V30 4092 H 411.823 -1.88459 3.7691 0
M  V30 4093 H 410.498 -1.96068 2.57564 0
M  V30 4094 H 409.405 0.0424407 3.74076 0
M  V30 4095 H 410.738 0.0361517 4.92187 0
M  V30 4096 N 412.39 -1.55475 0.257931 0
M  V30 4097 C 413.63 -2.01112 -0.365129 0
M  V30 4098 C 413.994 -1.1423 -1.54323 0
M  V30 4099 O 415.195 -1.49371 -2.23477 0
M  V30 4100 C 413.466 -3.49353 -0.754117 0
M  V30 4101 S 415.025 -4.16992 -1.36614 0
M  V30 4102 H 411.843 -0.701737 -0.114397 0
M  V30 4103 H 414.445 -1.91855 0.375747 0
M  V30 4104 H 413.149 -4.10246 0.112441 0
M  V30 4105 H 412.68 -3.6256 -1.52689 0
M  V30 4106 H 414.695 -4.19191 -2.65505 0
M  V30 4107 N 413.868 0.0150385 -1.57593 0
M  V30 4108 C 414.8 1.03912 -2.04291 0
M  V30 4109 C 415.813 1.31618 -0.958146 0
M  V30 4110 O 417.002 1.28859 -1.23522 0
M  V30 4111 C 414.102 2.37749 -2.41514 0
M  V30 4112 C 413.275 2.29198 -3.72541 0
M  V30 4113 C 412.334 3.45598 -3.96797 0
M  V30 4114 O 411.36 3.24461 -4.67668 0
M  V30 4115 N 412.562 4.67945 -3.43523 0
M  V30 4116 H 415.327 0.64099 -2.92765 0
M  V30 4117 H 412.888 0.20272 -1.60626 0
M  V30 4118 H 414.88 3.14364 -2.54867 0
M  V30 4119 H 413.45 2.69357 -1.58637 0
M  V30 4120 H 412.67 1.3759 -3.69408 0
M  V30 4121 H 413.958 2.20642 -4.5847 0
M  V30 4122 H 413.356 4.88017 -2.86104 0
M  V30 4123 H 411.913 5.41878 -3.62232 0
M  V30 4124 N 415.346 1.54954 0.287554 0
M  V30 4125 C 416.309 1.86076 1.33823 0
M  V30 4126 C 417.309 0.734414 1.43049 0
M  V30 4127 O 418.499 1.00266 1.42452 0
M  V30 4128 C 415.631 2.05305 2.72144 0
M  V30 4129 H 416.824 2.79984 1.07465 0
M  V30 4130 H 414.377 1.47223 0.524902 0
M  V30 4131 H 415.112 1.1373 3.03704 0
M  V30 4132 H 414.897 2.873 2.66836 0
M  V30 4133 H 416.387 2.30706 3.48087 0
M  V30 4134 N 416.824 -0.551391 1.4764 0
M  V30 4135 C 418.073 -1.30467 1.53822 0
M  V30 4136 C 418.386 -1.94495 0.207661 0
M  V30 4137 O 419.592 -2.71099 0.147533 0
M  V30 4138 C 418.048 -2.36616 2.71184 0
M  V30 4139 C 417.656 -1.78754 4.10793 0
M  V30 4140 C 419.4 -3.13088 2.86663 0
M  V30 4141 C 417.307 -2.82717 5.19447 0
M  V30 4142 H 416.237 -0.490584 0.572576 0
M  V30 4143 H 418.888 -0.58494 1.73927 0
M  V30 4144 H 417.27 -3.11529 2.4447 0
M  V30 4145 H 418.444 -1.10173 4.47435 0
M  V30 4146 H 416.759 -1.14846 4.00249 0
M  V30 4147 H 419.356 -3.90736 3.65007 0
M  V30 4148 H 419.699 -3.67635 1.95321 0
M  V30 4149 H 420.232 -2.45288 3.13175 0
M  V30 4150 H 416.971 -2.33018 6.12685 0
M  V30 4151 H 416.491 -3.4969 4.87316 0
M  V30 4152 H 418.17 -3.46102 5.46646 0
M  V30 4153 N 418.302 -1.35869 -0.798587 0
M  V30 4154 C 419.713 -1.26498 -1.37314 0
M  V30 4155 C 420.064 0.0991899 -1.95949 0
M  V30 4156 O 419.189 1.0004 -1.91888 0
M  V30 4157 C 419.784 -2.29054 -2.49639 0
M  V30 4158 C 418.343 -2.234 -3.02935 0
M  V30 4159 C 417.49 -2.14329 -1.75949 0
M  V30 4160 H 420.441 -1.46881 -0.600971 0
M  V30 4161 H 420.462 -1.92166 -3.28409 0
M  V30 4162 H 419.974 -3.2833 -2.06933 0
M  V30 4163 H 418.075 -1.27562 -3.50084 0
M  V30 4164 H 418.188 -3.15703 -3.60372 0
M  V30 4165 H 416.552 -1.60435 -1.9782 0
M  V30 4166 H 417.335 -3.15477 -1.35384 0
M  V30 4167 N 419.78 1.02168 -1.19998 0
M  V30 4168 C 421.028 1.75338 -1.00504 0
M  V30 4169 C 421.349 1.89387 0.464506 0
M  V30 4170 O 420.619 1.43268 1.33608 0
M  V30 4171 H 419.199 0.649564 -0.368885 0
M  V30 4172 H 421.861 1.23205 -1.51018 0
M  V30 4173 H 420.957 2.75892 -1.45912 0
M  V30 4174 N 421.258 1.00505 1.21394 0
M  V30 4175 C 422.507 0.683159 1.89778 0
M  V30 4176 C 422.82 -0.789471 1.7896 0
M  V30 4177 O 424.026 -1.22344 2.42372 0
M  V30 4178 C 422.482 1.17146 3.40301 0
M  V30 4179 C 422.09 2.67017 3.5973 0
M  V30 4180 C 423.834 0.924461 4.14311 0
M  V30 4181 C 421.741 3.09387 5.04017 0
M  V30 4182 H 420.671 0.25183 0.710702 0
M  V30 4183 H 423.322 1.21622 1.37406 0
M  V30 4184 H 421.704 0.566451 3.91928 0
M  V30 4185 H 422.878 3.32968 3.18542 0
M  V30 4186 H 421.193 2.89732 2.99073 0
M  V30 4187 H 423.79 1.21658 5.20676 0
M  V30 4188 H 424.133 -0.139286 4.16067 0
M  V30 4189 H 424.666 1.49226 3.6875 0
M  V30 4190 H 421.405 4.14989 5.07409 0
M  V30 4191 H 420.925 2.48149 5.46061 0
M  V30 4192 H 422.604 3.01371 5.72525 0
M  V30 4193 N 422.737 -1.36956 0.779787 0
M  V30 4194 C 423.977 -2.01328 0.353043 0
M  V30 4195 C 424.341 -1.60558 -1.05286 0
M  V30 4196 O 425.542 -2.1745 -1.58016 0
M  V30 4197 C 423.813 -3.53874 0.500822 0
M  V30 4198 S 425.372 -4.38506 0.16053 0
M  V30 4199 H 422.19 -0.69799 0.13539 0
M  V30 4200 H 424.792 -1.67016 1.01617 0
M  V30 4201 H 423.496 -3.81034 1.52451 0
M  V30 4202 H 423.027 -3.92994 -0.178574 0
M  V30 4203 H 425.042 -4.85153 -1.04121 0
M  V30 4204 N 424.215 -0.530993 -1.48385 0
M  V30 4205 C 425.147 0.268353 -2.27624 0
M  V30 4206 C 426.16 0.903525 -1.35426 0
M  V30 4207 O 427.349 0.781796 -1.60469 0
M  V30 4208 C 424.449 1.39535 -3.08842 0
M  V30 4209 C 423.622 0.861913 -4.28824 0
M  V30 4210 C 422.681 1.87016 -4.91845 0
M  V30 4211 O 421.707 1.4267 -5.5103 0
M  V30 4212 N 422.909 3.20238 -4.84178 0
M  V30 4213 H 425.674 -0.41123 -2.96865 0
M  V30 4214 H 423.235 -0.365387 -1.57723 0
M  V30 4215 H 425.227 2.06803 -3.47871 0
M  V30 4216 H 423.797 1.97859 -2.42014 0
M  V30 4217 H 423.017 0.0132126 -3.94198 0
M  V30 4218 H 424.305 0.484415 -5.06489 0
M  V30 4219 H 423.703 3.58932 -4.37246 0
M  V30 4220 H 422.26 3.83136 -5.27305 0
M  V30 4221 N 425.693 1.55336 -0.266172 0
M  V30 4222 C 426.941 1.99003 0.35246 0
M  V30 4223 C 427.262 1.15591 1.57047 0
M  V30 4224 O 426.532 0.243268 1.94384 0
M  V30 4225 H 425.112 0.735025 0.133217 0
M  V30 4226 H 427.774 1.91367 -0.369434 0
M  V30 4227 H 426.87 3.05289 0.648453 0
M  V30 4228 N 427.171 -0.0066808 1.57599 0
M  V30 4229 C 428.419 -0.691552 1.899 0
M  V30 4230 C 428.74 -1.74682 0.866672 0
M  V30 4231 O 428.01 -1.95661 -0.0968189 0
M  V30 4232 H 426.59 -0.258416 0.700878 0
M  V30 4233 H 429.252 0.0326655 1.94873 0
M  V30 4234 H 428.348 -1.16702 2.8946 0
M  V30 4235 N 428.649 -1.55105 -0.279332 0
M  V30 4236 C 429.597 -1.88333 -1.36505 0
M  V30 4237 C 430.591 -0.759043 -1.51443 0
M  V30 4238 O 431.797 -0.943312 -1.53302 0
M  V30 4239 H 428.172 -0.59766 -0.456406 0
M  V30 4240 H 430.143 -2.79041 -1.05728 0
M  V30 4241 C 428.892 -2.16628 -2.7197 0
M  V30 4242 H 428.215 -3.02624 -2.61264 0
M  V30 4243 H 429.655 -2.43803 -3.46895 0
M  V30 4244 C 428.114 -0.971807 -3.22579 0
M  V30 4245 O 428.644 -0.203228 -4.01186 0
M  V30 4246 N 426.85 -0.771238 -2.80179 0
M  V30 4247 H 426.397 -1.39792 -2.1637 0
M  V30 4248 H 426.355 0.0263667 -3.14389 0
M  V30 4249 N 430.127 0.543554 -1.4793 0
M  V30 4250 C 431.367 1.31072 -1.56843 0
M  V30 4251 C 431.731 1.90604 -0.231124 0
M  V30 4252 O 432.932 2.68091 -0.195165 0
M  V30 4253 C 431.203 2.38106 -2.66533 0
M  V30 4254 S 432.762 3.24729 -2.95122 0
M  V30 4255 H 429.58 0.446035 -0.553691 0
M  V30 4256 H 432.182 0.620777 -1.85382 0
M  V30 4257 H 430.886 1.92828 -3.62278 0
M  V30 4258 H 430.417 3.11824 -2.39852 0
M  V30 4259 H 432.432 4.37891 -2.3338 0
M  V30 4260 N 431.605 1.3629 0.791371 0
M  V30 4261 C 432.854 1.29742 1.54434 0
M  V30 4262 C 433.167 -0.121729 1.95221 0
M  V30 4263 O 434.373 -0.309579 2.69729 0
M  V30 4264 C 432.829 2.27623 2.78776 0
M  V30 4265 C 432.437 3.74963 2.45166 0
M  V30 4266 C 434.181 2.30047 3.56761 0
M  V30 4267 C 432.088 4.64626 3.65891 0
M  V30 4268 H 431.018 0.482113 0.579727 0
M  V30 4269 H 433.669 1.61642 0.868565 0
M  V30 4270 H 432.051 1.88714 3.48142 0
M  V30 4271 H 433.225 4.22596 1.83709 0
M  V30 4272 H 431.54 3.75295 1.80396 0
M  V30 4273 H 434.137 2.94247 4.46456 0
M  V30 4274 H 434.48 1.30846 3.95203 0
M  V30 4275 H 435.013 2.67563 2.94372 0
M  V30 4276 H 431.752 5.64883 3.32547 0
M  V30 4277 H 431.272 4.2171 4.26521 0
M  V30 4278 H 432.951 4.80801 4.32943 0
M  V30 4279 N 433.083 -1.0153 1.20538 0
M  V30 4280 C 434.031 -2.12215 0.952235 0
M  V30 4281 C 435.025 -1.69123 -0.0968735 0
M  V30 4282 O 436.231 -1.7992 0.0536006 0
M  V30 4283 H 432.606 -0.693576 0.290613 0
M  V30 4284 H 434.577 -2.3075 1.89201 0
M  V30 4285 C 433.326 -3.43755 0.522287 0
M  V30 4286 H 432.649 -3.7734 1.32115 0
M  V30 4287 H 434.089 -4.22254 0.384389 0
M  V30 4288 C 432.548 -3.28088 -0.765489 0
M  V30 4289 O 433.078 -3.57921 -1.8236 0
M  V30 4290 N 431.284 -2.81333 -0.728011 0
M  V30 4291 H 430.831 -2.57255 0.133332 0
M  V30 4292 H 430.789 -2.71232 -1.58999 0
M  V30 4293 N 434.561 -1.01147 -1.20859 0
M  V30 4294 C 435.789 -0.716911 -1.94082 0
M  V30 4295 C 436.204 0.721568 -1.74467 0
M  V30 4296 O 435.561 1.48889 -1.05539 0
M  V30 4297 C 435.612 -1.03662 -3.46318 0
M  V30 4298 O 435.333 -2.4186 -3.65288 0
M  V30 4299 C 436.834 -0.762386 -4.36695 0
M  V30 4300 H 434.054 -0.26367 -0.617024 0
M  V30 4301 H 436.598 -1.35127 -1.53496 0
M  V30 4302 H 434.753 -0.447757 -3.84804 0
M  V30 4303 H 435.167 -2.53224 -4.59323 0
M  V30 4304 H 436.641 -1.03621 -5.42187 0
M  V30 4305 H 437.118 0.303514 -4.3815 0
M  V30 4306 H 437.724 -1.33316 -4.03865 0
M  V30 4307 N 436.039 1.36541 -0.78704 0
M  V30 4308 C 437.285 1.99599 -0.358872 0
M  V30 4309 C 437.618 1.62323 1.06606 0
M  V30 4310 O 436.893 0.876858 1.73613 0
M  V30 4311 C 437.176 3.56327 -0.519944 0
M  V30 4312 C 437.029 4.03464 -1.98839 0
M  V30 4313 C 438.348 4.4005 0.0664737 0
M  V30 4314 H 435.467 0.725107 -0.131869 0
M  V30 4315 H 438.109 1.6199 -0.992936 0
M  V30 4316 H 436.259 3.88495 0.0198321 0
M  V30 4317 H 437.931 3.81793 -2.58905 0
M  V30 4318 H 436.174 3.55092 -2.49183 0
M  V30 4319 H 436.845 5.12439 -2.05207 0
M  V30 4320 H 439.321 4.14228 -0.394267 0
M  V30 4321 H 438.197 5.48847 -0.0762682 0
M  V30 4322 H 438.458 4.26655 1.15835 0
M  V30 4323 N 437.518 0.538854 1.48102 0
M  V30 4324 C 438.766 0.00798599 2.02098 0
M  V30 4325 C 439.087 -1.33922 1.41739 0
M  V30 4326 O 438.357 -1.86932 0.585934 0
M  V30 4327 H 436.937 -3.62179e-05 0.747 0
M  V30 4328 H 439.599 0.7047 1.81714 0
M  V30 4329 H 438.695 -0.0937672 3.11959 0
M  V30 4330 N 438.996 -1.55193 0.274407 0
M  V30 4331 C 440.221 -2.04446 -0.348824 0
M  V30 4332 C 440.646 -1.15149 -1.48735 0
M  V30 4333 O 440.004 -0.149952 -1.80679 0
M  V30 4334 C 440.052 -3.51431 -0.808009 0
M  V30 4335 O 439.156 -3.65225 -1.91531 0
M  V30 4336 H 438.497 -0.66006 -0.0722276 0
M  V30 4337 H 441.027 -2.00481 0.408498 0
M  V30 4338 H 441.037 -3.92781 -1.10395 0
M  V30 4339 H 439.712 -4.15892 0.0249865 0
M  V30 4340 H 438.289 -3.35778 -1.62196 0
M  V30 4341 N 440.474 -0.00167713 -1.576 0
M  V30 4342 C 441.721 0.68282 -1.90641 0
M  V30 4343 C 442.049 1.73686 -0.875415 0
M  V30 4344 O 441.304 1.95334 0.119575 0
M  V30 4345 C 441.603 1.36189 -3.30435 0
M  V30 4346 C 441.269 0.440887 -4.48739 0
M  V30 4347 C 439.931 0.187312 -4.80835 0
M  V30 4348 C 442.283 -0.193134 -5.20842 0
M  V30 4349 C 439.611 -0.70855 -5.82406 0
M  V30 4350 C 441.963 -1.07688 -6.23367 0
M  V30 4351 C 440.627 -1.33962 -6.53919 0
M  V30 4352 H 439.897 0.249862 -0.697603 0
M  V30 4353 H 442.544 -0.0575642 -1.91413 0
M  V30 4354 H 440.849 2.17636 -3.25794 0
M  V30 4355 H 442.546 1.89759 -3.5326 0
M  V30 4356 H 439.136 0.648694 -4.23663 0
M  V30 4357 H 443.32 -0.0102445 -4.96299 0
M  V30 4358 H 438.576 -0.920097 -6.04437 0
M  V30 4359 H 442.75 -1.57451 -6.78367 0
M  V30 4360 H 440.377 -2.03549 -7.32442 0
M  V30 4361 N 441.952 1.55251 0.271103 0
M  V30 4362 C 442.862 1.9136 1.35714 0
M  V30 4363 C 443.878 0.811075 1.5394 0
M  V30 4364 O 445.054 1.11031 1.6803 0
M  V30 4365 C 442.119 2.1798 2.69603 0
M  V30 4366 C 441.18 3.4153 2.60107 0
M  V30 4367 C 440.413 3.66871 3.8761 0
M  V30 4368 O 440.636 2.94689 4.8838 0
M  V30 4369 O 439.57 4.60405 3.87699 0
M  V30 4370 H 443.396 2.83815 1.08088 0
M  V30 4371 H 440.981 1.41821 0.469792 0
M  V30 4372 H 442.863 2.36518 3.48765 0
M  V30 4373 H 441.538 1.28708 2.97012 0
M  V30 4374 H 440.445 3.28325 1.79314 0
M  V30 4375 H 441.778 4.31027 2.37647 0
M  V30 4376 N 443.43 -0.535701 1.48216 0
M  V30 4377 C 444.67 -1.30238 1.57536 0
M  V30 4378 C 445.034 -1.90479 0.241229 0
M  V30 4379 O 446.235 -2.67983 0.20938 0
M  V30 4380 C 444.506 -2.3669 2.67792 0
M  V30 4381 S 446.065 -3.23159 2.9684 0
M  V30 4382 H 442.883 -0.443093 0.556048 0
M  V30 4383 H 445.485 -0.610937 1.85709 0
M  V30 4384 H 444.189 -1.90905 3.63296 0
M  V30 4385 H 443.72 -3.10548 2.41502 0
M  V30 4386 H 445.735 -4.36647 2.35699 0
M  V30 4387 N 444.908 -1.36708 -0.784132 0
M  V30 4388 C 446.324 -1.17237 -1.08294 0
M  V30 4389 C 446.524 -5.93947e-05 -2.015 0
M  V30 4390 O 445.58 0.663686 -2.43622 0
M  V30 4391 C 446.893 -2.48557 -1.69233 0
M  V30 4392 C 448.441 -2.54968 -1.8155 0
M  V30 4393 C 448.916 -3.86388 -2.45904 0
M  V30 4394 N 450.407 -3.87762 -2.53367 0
M  V30 4395 C 451.142 -4.86191 -3.03983 0
M  V30 4396 N 450.638 -5.95015 -3.54866 0
M  V30 4397 N 452.431 -4.73606 -3.02743 0
M  V30 4398 H 444.582 -2.11758 -0.16501 0
M  V30 4399 H 446.845 -0.93822 -0.135822 0
M  V30 4400 H 446.551 -3.34638 -1.08215 0
M  V30 4401 H 446.425 -2.64748 -2.68679 0
M  V30 4402 H 448.812 -1.69302 -2.41704 0
M  V30 4403 H 448.893 -2.42672 -0.80895 0
M  V30 4404 H 448.537 -4.72462 -1.86392 0
M  V30 4405 H 448.467 -3.95982 -3.4714 0
M  V30 4406 H 450.958 -3.09145 -2.17343 0
M  V30 4407 H 451.271 -6.66086 -3.91854 0
M  V30 4408 H 449.616 -5.98676 -3.53003 0
M  V30 4409 H 452.807 -3.87717 -2.62284 0
M  V30 4410 H 452.98 -5.50473 -3.41881 0
M  V30 4411 N 446.386 1.0089 -1.21074 0
M  V30 4412 C 447.626 1.76142 -1.03699 0
M  V30 4413 C 447.99 1.87292 0.422587 0
M  V30 4414 O 449.191 2.59068 0.716752 0
M  V30 4415 C 447.462 3.13805 -1.7106 0
M  V30 4416 S 449.021 4.04996 -1.68889 0
M  V30 4417 H 445.839 0.606113 -0.371683 0
M  V30 4418 H 448.441 1.20744 -1.53756 0
M  V30 4419 H 447.145 3.0332 -2.76451 0
M  V30 4420 H 446.676 3.74276 -1.21166 0
M  V30 4421 H 448.691 4.90842 -0.727211 0
M  V30 4422 N 447.864 1.01787 1.20321 0
M  V30 4423 C 449.275 0.739307 1.71438 0
M  V30 4424 C 449.626 -0.742041 1.81627 0
M  V30 4425 O 448.751 -1.57903 1.47971 0
M  V30 4426 C 449.346 1.33538 3.11373 0
M  V30 4427 C 447.905 1.10566 3.59795 0
M  V30 4428 C 447.052 1.44028 2.36962 0
M  V30 4429 H 450.003 1.18718 1.05317 0
M  V30 4430 H 450.024 0.726611 3.73498 0
M  V30 4431 H 449.536 2.41352 3.03926 0
M  V30 4432 H 447.637 0.0452405 3.72573 0
M  V30 4433 H 447.75 1.78661 4.44542 0
M  V30 4434 H 446.114 0.85933 2.39766 0
M  V30 4435 H 446.897 2.52901 2.32155 0
M  V30 4436 N 449.342 -1.36122 0.79427 0
M  V30 4437 C 450.305 -2.28309 0.201889 0
M  V30 4438 C 451.305 -1.49041 -0.603603 0
M  V30 4439 O 452.495 -1.68964 -0.423888 0
M  V30 4440 C 449.627 -3.3321 -0.719978 0
M  V30 4441 H 450.82 -2.82208 1.01481 0
M  V30 4442 H 448.373 -1.45768 0.564037 0
M  V30 4443 H 449.108 -2.84475 -1.55706 0
M  V30 4444 H 448.893 -3.91835 -0.144266 0
M  V30 4445 H 450.383 -4.02044 -1.12916 0
M  V30 4446 N 450.82 -0.546701 -1.47814 0
M  V30 4447 C 452.068 -0.0187037 -2.02091 0
M  V30 4448 C 452.389 1.33168 -1.42447 0
M  V30 4449 O 451.659 1.86619 -0.595839 0
M  V30 4450 H 450.239 -0.00392531 -0.74699 0
M  V30 4451 H 452.901 -0.714327 -1.81338 0
M  V30 4452 H 451.997 0.0772219 -3.12004 0
M  V30 4453 N 452.299 1.55045 -0.282633 0
M  V30 4454 C 453.249 2.19514 0.616249 0
M  V30 4455 C 454.233 1.16216 1.11277 0
M  V30 4456 O 455.425 1.42004 1.05659 0
M  V30 4457 C 452.554 2.92548 1.7964 0
M  V30 4458 C 451.64 4.03142 1.31671 0
M  V30 4459 N 452.031 5.0276 0.553695 0
M  V30 4460 C 450.329 4.1635 1.59903 0
M  V30 4461 C 451.03 5.80923 0.30054 0
M  V30 4462 N 450.006 5.3651 0.875116 0
M  V30 4463 H 453.808 2.93889 0.0255363 0
M  V30 4464 H 451.322 1.62169 -0.0865362 0
M  V30 4465 H 453.319 3.37188 2.45173 0
M  V30 4466 H 451.979 2.19685 2.39099 0
M  V30 4467 H 452.99 5.17512 0.20032 0
M  V30 4468 H 449.667 3.54682 2.20243 0
M  V30 4469 H 451.057 6.7118 -0.311053 0
M  V30 4470 N 453.777 0.010035 1.57597 0
M  V30 4471 C 454.724 -0.978122 2.09049 0
M  V30 4472 C 455.694 -1.33509 0.988159 0
M  V30 4473 O 456.879 -1.43172 1.26121 0
M  V30 4474 C 454.019 -2.26158 2.60666 0
M  V30 4475 C 453.132 -1.96275 3.84838 0
M  V30 4476 C 452.267 -3.18776 4.24918 0
M  V30 4477 C 451.306 -2.84625 5.41899 0
M  V30 4478 N 450.443 -3.99693 5.77226 0
M  V30 4479 H 455.283 -0.532431 2.93205 0
M  V30 4480 H 452.82 -0.251234 1.44939 0
M  V30 4481 H 454.778 -3.01202 2.88675 0
M  V30 4482 H 453.408 -2.68378 1.79369 0
M  V30 4483 H 452.46 -1.11555 3.63675 0
M  V30 4484 H 453.772 -1.67111 4.69974 0
M  V30 4485 H 452.926 -4.02157 4.54262 0
M  V30 4486 H 451.665 -3.51087 3.38511 0
M  V30 4487 H 450.67 -1.99653 5.12268 0
M  V30 4488 H 451.895 -2.53551 6.29991 0
M  V30 4489 H 449.841 -4.31882 4.93776 0
M  V30 4490 H 449.758 -3.74087 6.56959 0
M  V30 4491 H 451.026 -4.83834 6.11167 0
M  V30 4492 N 455.255 -1.55392 -0.262866 0
M  V30 4493 C 456.187 -1.85392 -1.34768 0
M  V30 4494 C 457.2 -0.739069 -1.45057 0
M  V30 4495 O 458.389 -1.01703 -1.46693 0
M  V30 4496 C 455.489 -2.01088 -2.72795 0
M  V30 4497 C 454.662 -3.31828 -2.84972 0
M  V30 4498 C 453.721 -3.37464 -4.03738 0
M  V30 4499 O 452.747 -4.10778 -3.94018 0
M  V30 4500 N 453.949 -2.65599 -5.16176 0
M  V30 4501 H 456.714 -2.79029 -1.09375 0
M  V30 4502 H 454.275 -1.55434 -0.452981 0
M  V30 4503 H 456.267 -2.02217 -3.50557 0
M  V30 4504 H 454.837 -1.1427 -2.90966 0
M  V30 4505 H 454.057 -3.43152 -1.94012 0
M  V30 4506 H 455.345 -4.18032 -2.90045 0
M  V30 4507 H 454.743 -2.05736 -5.26962 0
M  V30 4508 H 453.3 -2.72439 -5.92132 0
M  V30 4509 N 456.733 0.527833 -1.48498 0
M  V30 4510 C 457.958 1.313 -1.60546 0
M  V30 4511 C 458.383 1.86199 -0.26672 0
M  V30 4512 O 457.741 1.64513 0.761918 0
M  V30 4513 C 457.789 2.43818 -2.65678 0
M  V30 4514 O 456.893 3.46916 -2.22987 0
M  V30 4515 H 456.234 0.388784 -0.538277 0
M  V30 4516 H 458.764 0.634896 -1.945 0
M  V30 4517 H 458.774 2.89973 -2.87018 0
M  V30 4518 H 457.449 2.03222 -3.62869 0
M  V30 4519 H 456.026 3.06864 -2.11869 0
M  V30 4520 N 458.211 1.37122 0.776871 0
M  V30 4521 C 459.121 1.34651 1.9211 0
M  V30 4522 C 460.137 0.246824 1.7224 0
M  V30 4523 O 461.313 0.48134 1.95563 0
M  V30 4524 C 458.378 1.14748 3.2716 0
M  V30 4525 C 457.439 2.34308 3.5972 0
M  V30 4526 C 456.672 2.15345 4.88326 0
M  V30 4527 O 456.895 1.13507 5.58992 0
M  V30 4528 O 455.829 3.03414 5.1983 0
M  V30 4529 H 459.655 2.31013 1.97146 0
M  V30 4530 H 457.24 1.17799 0.918901 0
M  V30 4531 H 459.122 1.05616 4.0795 0
M  V30 4532 H 457.797 0.214562 3.22988 0
M  V30 4533 H 456.704 2.49011 2.79185 0
M  V30 4534 H 458.037 3.26149 3.68629 0
M  V30 4535 N 459.689 -1.00246 1.21608 0
M  V30 4536 C 460.917 -1.77631 1.06089 0
M  V30 4537 C 461.332 -1.84746 -0.38916 0
M  V30 4538 O 460.689 -1.31068 -1.26994 0
M  V30 4539 C 460.74 -3.21415 1.65453 0
M  V30 4540 O 460.461 -3.14703 3.04785 0
M  V30 4541 C 461.962 -4.15289 1.55079 0
M  V30 4542 H 459.182 -0.558162 0.37242 0
M  V30 4543 H 461.726 -1.26093 1.60999 0
M  V30 4544 H 459.881 -3.70053 1.14629 0
M  V30 4545 H 460.295 -4.05056 3.33212 0
M  V30 4546 H 461.769 -5.13965 2.01355 0
M  V30 4547 H 462.246 -4.36279 0.505665 0
M  V30 4548 H 462.852 -3.72543 2.05163 0
M  V30 4549 N 461.167 -1.02423 -1.1978 0
M  V30 4550 C 462.395 -0.737456 -1.93311 0
M  V30 4551 C 462.81 0.703023 -1.75223 0
M  V30 4552 O 462.167 1.47761 -1.07112 0
M  V30 4553 C 462.218 -1.0733 -3.45199 0
M  V30 4554 O 461.939 -2.4572 -3.62702 0
M  V30 4555 C 463.44 -0.80866 -4.35862 0
M  V30 4556 H 460.66 -0.2702 -0.614193 0
M  V30 4557 H 463.204 -1.36747 -1.52054 0
M  V30 4558 H 461.359 -0.488545 -3.84307 0
M  V30 4559 H 461.773 -2.58081 -4.56612 0
M  V30 4560 H 463.247 -1.09365 -5.41057 0
M  V30 4561 H 463.724 0.257025 -4.38447 0
M  V30 4562 H 464.33 -1.37592 -4.02428 0
M  V30 4563 N 462.645 1.35699 -0.801477 0
M  V30 4564 C 463.577 2.28598 -0.166028 0
M  V30 4565 C 464.59 1.50044 0.631721 0
M  V30 4566 O 465.779 1.72339 0.464921 0
M  V30 4567 C 462.879 3.29625 0.787451 0
M  V30 4568 C 462.052 4.37384 0.037171 0
M  V30 4569 C 461.111 5.183 0.908375 0
M  V30 4570 O 460.137 5.68053 0.361189 0
M  V30 4571 N 461.339 5.35912 2.23112 0
M  V30 4572 H 464.104 2.83771 -0.964071 0
M  V30 4573 H 461.665 1.47994 -0.656469 0
M  V30 4574 H 463.657 3.80648 1.37439 0
M  V30 4575 H 462.227 2.75004 1.48632 0
M  V30 4576 H 461.447 3.87364 -0.730935 0
M  V30 4577 H 462.735 5.0653 -0.480109 0
M  V30 4578 H 462.133 4.97125 2.69968 0
M  V30 4579 H 460.69 5.90133 2.76741 0
M  V30 4580 N 464.123 0.554532 1.47522 0
M  V30 4581 C 465.07 -0.19466 2.29978 0
M  V30 4582 C 466.04 -0.910882 1.38896 0
M  V30 4583 O 467.225 -0.907102 1.67858 0
M  V30 4584 C 464.365 -1.22035 3.22802 0
M  V30 4585 C 463.478 -0.510474 4.28973 0
M  V30 4586 C 462.613 -1.52123 5.08952 0
M  V30 4587 C 461.652 -0.796173 6.069 0
M  V30 4588 N 460.789 -1.75363 6.79847 0
M  V30 4589 H 465.629 0.51461 2.93523 0
M  V30 4590 H 463.166 0.265607 1.44682 0
M  V30 4591 H 465.124 -1.8276 3.7504 0
M  V30 4592 H 463.754 -1.89769 2.61127 0
M  V30 4593 H 462.806 0.211234 3.79813 0
M  V30 4594 H 464.118 0.0576503 4.98767 0
M  V30 4595 H 463.272 -2.20207 5.65326 0
M  V30 4596 H 462.011 -2.12327 4.39054 0
M  V30 4597 H 461.016 -0.101388 5.49707 0
M  V30 4598 H 462.241 -0.199911 6.78806 0
M  V30 4599 H 460.187 -2.3443 6.12682 0
M  V30 4600 H 460.104 -1.23759 7.45801 0
M  V30 4601 H 461.372 -2.4257 7.40797 0
M  V30 4602 N 465.601 -1.54893 0.290851 0
M  V30 4603 C 466.841 -2.01842 -0.322388 0
M  V30 4604 C 467.205 -1.17477 -1.51865 0
M  V30 4605 O 468.406 -1.54077 -2.20258 0
M  V30 4606 C 466.677 -3.50874 -0.679844 0
M  V30 4607 S 468.236 -4.19796 -1.27739 0
M  V30 4608 H 465.054 -0.704005 -0.0994866 0
M  V30 4609 H 467.656 -1.91015 0.416358 0
M  V30 4610 H 466.36 -4.09915 0.199435 0
M  V30 4611 H 465.891 -3.65717 -1.44964 0
M  V30 4612 H 467.906 -4.24729 -2.56554 0
M  V30 4613 N 467.08 -0.0183926 -1.57589 0
M  V30 4614 C 467.99 0.982943 -2.13015 0
M  V30 4615 C 469.006 1.36443 -1.07979 0
M  V30 4616 O 470.182 1.44802 -1.3998 0
M  V30 4617 C 467.247 2.25024 -2.63752 0
M  V30 4618 C 466.308 1.93018 -3.83461 0
M  V30 4619 C 465.541 3.13706 -4.31769 0
M  V30 4620 O 465.764 4.2601 -3.79305 0
M  V30 4621 O 464.698 2.96629 -5.23732 0
M  V30 4622 H 468.524 0.541709 -2.9883 0
M  V30 4623 H 466.109 0.201565 -1.48034 0
M  V30 4624 H 467.991 2.99441 -2.96502 0
M  V30 4625 H 466.666 2.68349 -1.81026 0
M  V30 4626 H 465.573 1.16019 -3.55655 0
M  V30 4627 H 466.906 1.54516 -4.67317 0
M  V30 4628 N 468.558 1.5553 0.254621 0
M  V30 4629 C 469.835 1.6774 1.00611 0
M  V30 4630 C 470.215 0.555993 2.03647 0
M  V30 4631 O 469.563 -0.441583 2.24193 0
M  V30 4632 C 469.773 3.07725 1.6464 0
M  V30 4633 C 471.121 3.66074 2.15116 0
M  V30 4634 O 472.145 3.10476 1.74595 0
M  V30 4635 O 471.004 4.63526 2.89493 0
M  V30 4636 H 468.098 0.681958 0.467828 0
M  V30 4637 H 470.644 1.67863 0.24902 0
M  V30 4638 H 469.416 3.80792 0.900734 0
M  V30 4639 H 469.039 3.1158 2.46989 0
M  V30 4640 N 470.036 -0.519951 1.48776 0
M  V30 4641 C 471.285 -1.27175 1.56555 0
M  V30 4642 C 471.598 -1.9401 0.248869 0
M  V30 4643 O 472.804 -2.70725 0.205004 0
M  V30 4644 C 471.26 -2.30811 2.76142 0
M  V30 4645 C 470.868 -1.7 4.14493 0
M  V30 4646 C 472.612 -3.06937 2.9324 0
M  V30 4647 C 470.519 -2.71635 5.25327 0
M  V30 4648 H 469.449 -0.478329 0.582853 0
M  V30 4649 H 472.1 -0.547916 1.75129 0
M  V30 4650 H 470.482 -3.06274 2.51023 0
M  V30 4651 H 471.656 -1.00658 4.49672 0
M  V30 4652 H 469.971 -1.06331 4.02595 0
M  V30 4653 H 472.568 -3.82905 3.73213 0
M  V30 4654 H 472.911 -3.63409 2.03075 0
M  V30 4655 H 473.444 -2.38589 3.18308 0
M  V30 4656 H 470.183 -2.1997 6.1749 0
M  V30 4657 H 469.703 -3.39275 4.94624 0
M  V30 4658 H 471.382 -3.34429 5.53865 0
M  V30 4659 N 471.514 -1.37532 -0.769588 0
M  V30 4660 C 472.791 -1.23392 -1.51768 0
M  V30 4661 C 473.171 0.17157 -2.10402 0
M  V30 4662 O 472.519 1.17943 -1.95708 0
M  V30 4663 C 472.729 -2.33163 -2.59685 0
M  V30 4664 C 474.077 -2.70809 -3.27028 0
M  V30 4665 O 475.101 -2.32355 -2.69981 0
M  V30 4666 O 473.96 -3.37066 -4.30173 0
M  V30 4667 H 471.054 -0.481617 -0.67229 0
M  V30 4668 H 473.6 -1.49318 -0.806368 0
M  V30 4669 H 472.372 -3.27273 -2.14494 0
M  V30 4670 H 471.995 -2.08713 -3.38415 0
M  V30 4671 N 472.992 0.995999 -1.22138 0
M  V30 4672 C 473.902 2.11985 -1.00496 0
M  V30 4673 C 474.918 1.7394 0.0457701 0
M  V30 4674 O 476.094 2.00868 -0.146273 0
M  V30 4675 C 473.159 3.41779 -0.582086 0
M  V30 4676 C 472.22 3.93943 -1.70608 0
M  V30 4677 C 471.453 5.17542 -1.30328 0
M  V30 4678 O 471.676 5.70114 -0.180743 0
M  V30 4679 O 470.61 5.63382 -2.11861 0
M  V30 4680 H 474.436 2.33123 -1.94647 0
M  V30 4681 H 472.021 1.10358 -1.00705 0
M  V30 4682 H 473.903 4.1989 -0.356467 0
M  V30 4683 H 472.578 3.22007 0.330592 0
M  V30 4684 H 471.485 3.17019 -1.98619 0
M  V30 4685 H 472.818 4.18141 -2.59651 0
M  V30 4686 N 474.47 1.03057 1.19235 0
M  V30 4687 C 475.71 0.736757 1.9066 0
M  V30 4688 C 476.074 -0.721521 1.77927 0
M  V30 4689 O 477.275 -1.12849 2.43964 0
M  V30 4690 C 475.546 1.17755 3.37444 0
M  V30 4691 S 477.105 1.00783 4.27069 0
M  V30 4692 H 473.923 0.268174 0.658486 0
M  V30 4693 H 476.525 1.32076 1.4414 0
M  V30 4694 H 475.229 2.23448 3.44237 0
M  V30 4695 H 474.76 0.586912 3.88997 0
M  V30 4696 H 476.775 -0.0806356 4.96134 0
M  V30 4697 N 475.948 -1.35272 0.808662 0
M  V30 4698 C 477.173 -2.03477 0.401475 0
M  V30 4699 C 477.598 -1.60537 -0.980279 0
M  V30 4700 O 476.956 -0.78304 -1.63518 0
M  V30 4701 C 477.004 -3.57181 0.495354 0
M  V30 4702 O 476.108 -4.09474 -0.490397 0
M  V30 4703 H 475.449 -0.642561 0.167366 0
M  V30 4704 H 477.979 -1.72824 1.09512 0
M  V30 4705 H 477.989 -4.06356 0.365912 0
M  V30 4706 H 476.664 -3.87784 1.5032 0
M  V30 4707 H 475.241 -3.71516 -0.321023 0
M  V30 4708 N 477.426 -0.562348 -1.47226 0
M  V30 4709 C 478.675 -0.038041 -2.01664 0
M  V30 4710 C 478.988 1.32199 -1.44162 0
M  V30 4711 O 480.194 1.9365 -1.90294 0
M  V30 4712 C 478.65 -0.0174958 -3.59896 0
M  V30 4713 C 478.258 -1.3746 -4.2639 0
M  V30 4714 C 480.002 0.453934 -4.22066 0
M  V30 4715 C 477.909 -1.31289 -5.76643 0
M  V30 4716 H 476.839 -0.0104511 -0.753928 0
M  V30 4717 H 479.49 -0.710966 -1.69167 0
M  V30 4718 H 477.872 0.721182 -3.89378 0
M  V30 4719 H 479.046 -2.1314 -4.08544 0
M  V30 4720 H 477.361 -1.78438 -3.7623 0
M  V30 4721 H 479.958 0.518584 -5.32179 0
M  V30 4722 H 480.301 1.46706 -3.89594 0
M  V30 4723 H 480.834 -0.230044 -3.97134 0
M  V30 4724 H 477.573 -2.30217 -6.13743 0
M  V30 4725 H 477.093 -0.597973 -5.96812 0
M  V30 4726 H 478.772 -1.01713 -6.38955 0
M  V30 4727 N 478.904 1.54736 -0.299062 0
M  V30 4728 C 480.153 1.99279 0.311549 0
M  V30 4729 C 480.466 1.19107 1.55154 0
M  V30 4730 O 481.672 1.53908 2.23662 0
M  V30 4731 C 480.128 3.54768 0.605632 0
M  V30 4732 C 479.736 4.43746 -0.615914 0
M  V30 4733 C 481.48 4.07841 1.17754 0
M  V30 4734 C 479.387 5.90663 -0.29509 0
M  V30 4735 H 478.317 0.744359 0.120187 0
M  V30 4736 H 480.968 1.78919 -0.407464 0
M  V30 4737 H 479.35 3.71021 1.38419 0
M  V30 4738 H 480.524 4.39267 -1.39218 0
M  V30 4739 H 478.839 4.01434 -1.10633 0
M  V30 4740 H 481.436 5.15174 1.43179 0
M  V30 4741 H 481.779 3.58324 2.11918 0
M  V30 4742 H 482.312 3.95123 0.460739 0
M  V30 4743 H 479.051 6.44325 -1.20524 0
M  V30 4744 H 478.571 5.98155 0.44394 0
M  V30 4745 H 480.25 6.46916 0.104048 0
M  V30 4746 N 480.382 0.0267497 1.57577 0
M  V30 4747 C 481.793 -0.512413 1.79531 0
M  V30 4748 C 482.144 -1.72391 0.936791 0
M  V30 4749 O 481.269 -2.15903 0.146543 0
M  V30 4750 C 481.864 -0.936378 3.25603 0
M  V30 4751 C 480.423 -1.42067 3.4856 0
M  V30 4752 C 479.57 -0.384278 2.74624 0
M  V30 4753 H 482.521 0.252797 1.56674 0
M  V30 4754 H 482.542 -1.80088 3.35184 0
M  V30 4755 H 482.054 -0.0544332 3.88062 0
M  V30 4756 H 480.155 -2.32262 2.9135 0
M  V30 4757 H 480.268 -1.42968 4.57271 0
M  V30 4758 H 478.632 -0.851855 2.40032 0
M  V30 4759 H 479.415 0.489159 3.39797 0
M  V30 4760 N 481.861 -1.55662 -0.24637 0
M  V30 4761 C 483.109 -1.77168 -0.972411 0
M  V30 4762 C 483.43 -0.590827 -1.85834 0
M  V30 4763 O 482.7 0.393365 -1.9191 0
M  V30 4764 H 481.28 -0.653405 -0.362038 0
M  V30 4765 H 483.942 -1.93101 -0.264189 0
M  V30 4766 H 483.038 -2.68335 -1.59382 0
M  V30 4767 N 483.339 0.512053 -1.4905 0
M  V30 4768 C 484.588 1.26343 -1.57227 0
M  V30 4769 C 484.901 1.93876 -0.259155 0
M  V30 4770 O 486.107 2.70612 -0.219358 0
M  V30 4771 C 484.563 2.29343 -2.77362 0
M  V30 4772 C 484.171 1.67799 -4.15388 0
M  V30 4773 C 485.915 3.05378 -2.94864 0
M  V30 4774 C 483.822 2.68845 -5.2676 0
M  V30 4775 H 482.752 0.475231 -0.585382 0
M  V30 4776 H 485.403 0.53862 -1.75417 0
M  V30 4777 H 483.785 3.04938 -2.52643 0
M  V30 4778 H 484.959 0.982715 -4.50199 0
M  V30 4779 H 483.274 1.04194 -4.03153 0
M  V30 4780 H 485.871 3.80921 -3.75238 0
M  V30 4781 H 486.214 3.62327 -2.05 0
M  V30 4782 H 486.747 2.36898 -3.19569 0
M  V30 4783 H 483.486 2.16692 -6.18647 0
M  V30 4784 H 483.006 3.36647 -4.96416 0
M  V30 4785 H 484.685 3.31487 -5.5563 0
M  V30 4786 N 484.817 1.37938 0.762283 0
M  V30 4787 C 486.057 1.35076 1.53407 0
M  V30 4788 C 486.421 -0.061546 1.91901 0
M  V30 4789 O 487.622 -0.214973 2.67939 0
M  V30 4790 C 485.893 2.27206 2.75884 0
M  V30 4791 S 487.452 2.42283 3.65848 0
M  V30 4792 H 484.27 0.479387 0.52508 0
M  V30 4793 H 486.872 1.7378 0.895586 0
M  V30 4794 H 485.576 3.28724 2.457 0
M  V30 4795 H 485.107 1.8962 3.44685 0
M  V30 4796 H 487.122 1.64044 4.68299 0
M  V30 4797 N 486.295 -0.989507 1.22664 0
M  V30 4798 C 487.205 -2.11449 1.01619 0
M  V30 4799 C 488.221 -1.73962 -0.036545 0
M  V30 4800 O 489.397 -2.00788 0.156924 0
M  V30 4801 C 486.462 -3.41465 0.600204 0
M  V30 4802 C 485.523 -3.93033 1.72695 0
M  V30 4803 C 484.756 -5.16844 1.33071 0
M  V30 4804 O 484.979 -5.7001 0.210975 0
M  V30 4805 O 483.913 -5.6225 2.14845 0
M  V30 4806 H 487.739 -2.32088 1.9588 0
M  V30 4807 H 485.324 -1.09823 1.01289 0
M  V30 4808 H 487.206 -4.19695 0.37873 0
M  V30 4809 H 485.881 -3.22178 -0.313511 0
M  V30 4810 H 484.788 -3.15961 2.00298 0
M  V30 4811 H 486.121 -4.16758 2.61865 0
M  V30 4812 N 487.773 -1.03688 -1.18687 0
M  V30 4813 C 489.001 -0.757918 -1.92518 0
M  V30 4814 C 489.416 0.684398 -1.75959 0
M  V30 4815 O 488.773 1.46617 -1.08673 0
M  V30 4816 C 488.824 -1.10985 -3.44042 0
M  V30 4817 O 488.545 -2.49554 -3.60076 0
M  V30 4818 C 490.046 -0.854844 -4.3498 0
M  V30 4819 H 487.266 -0.276699 -0.611293 0
M  V30 4820 H 489.81 -1.38352 -1.50595 0
M  V30 4821 H 487.965 -0.529279 -3.83767 0
M  V30 4822 H 488.379 -2.6291 -4.53849 0
M  V30 4823 H 489.853 -1.15098 -5.39867 0
M  V30 4824 H 490.33 0.210507 -4.38695 0
M  V30 4825 H 490.936 -1.41853 -4.00946 0
M  V30 4826 N 489.251 1.34841 -0.815825 0
M  V30 4827 C 490.499 1.98107 -0.399744 0
M  V30 4828 C 490.82 1.65019 1.03894 0
M  V30 4829 O 490.09 0.937311 1.72021 0
M  V30 4830 H 488.67 0.732827 -0.144823 0
M  V30 4831 H 491.332 1.64599 -1.0437 0
M  V30 4832 H 490.428 3.07856 -0.512965 0
M  V30 4833 N 490.729 0.570148 1.46925 0
M  V30 4834 C 491.639 -0.173061 2.33961 0
M  V30 4835 C 492.655 -0.898825 1.48987 0
M  V30 4836 O 493.831 -0.864825 1.81887 0
M  V30 4837 C 490.896 -1.18177 3.25937 0
M  V30 4838 C 489.957 -0.462041 4.26806 0
M  V30 4839 C 489.19 -1.4227 5.14388 0
M  V30 4840 O 489.413 -2.65842 5.04662 0
M  V30 4841 O 488.347 -0.940127 5.94513 0
M  V30 4842 H 492.173 0.541216 2.98839 0
M  V30 4843 H 489.758 0.330647 1.45695 0
M  V30 4844 H 491.64 -1.76372 3.82715 0
M  V30 4845 H 490.315 -1.87774 2.63671 0
M  V30 4846 H 489.222 0.161429 3.73752 0
M  V30 4847 H 490.555 0.192719 4.91823 0
M  V30 4848 N 492.207 -1.54576 0.307264 0
M  V30 4849 C 493.447 -2.02172 -0.300962 0
M  V30 4850 C 493.811 -1.19081 -1.50611 0
M  V30 4851 O 495.012 -1.56405 -2.18612 0
M  V30 4852 C 493.283 -3.51576 -0.642591 0
M  V30 4853 S 494.842 -4.21127 -1.23279 0
M  V30 4854 H 491.66 -0.705021 -0.0920141 0
M  V30 4855 H 494.262 -1.90563 0.436594 0
M  V30 4856 H 492.966 -4.09681 0.242901 0
M  V30 4857 H 492.497 -3.67234 -1.41077 0
M  V30 4858 H 494.512 -4.27426 -2.52034 0
M  V30 4859 N 493.685 -0.035106 -1.57561 0
M  V30 4860 C 494.91 0.655802 -1.96759 0
M  V30 4861 C 495.335 1.64523 -0.911809 0
M  V30 4862 O 494.693 1.80857 0.126673 0
M  V30 4863 C 494.741 1.33326 -3.35047 0
M  V30 4864 O 493.845 2.44866 -3.31835 0
M  V30 4865 H 493.186 0.171807 -0.641388 0
M  V30 4866 H 495.716 -0.0987369 -2.04362 0
M  V30 4867 H 495.726 1.68867 -3.71413 0
M  V30 4868 H 494.401 0.608033 -4.11431 0
M  V30 4869 H 492.978 2.11392 -3.07193 0
M  V30 4870 N 495.163 1.55791 0.238111 0
M  V30 4871 C 496.111 1.91885 1.31464 0
M  V30 4872 C 497.105 0.798929 1.49377 0
M  V30 4873 O 498.311 0.983626 1.50747 0
M  V30 4874 H 494.686 0.609551 0.440399 0
M  V30 4875 H 496.657 2.81747 0.982925 0
M  V30 4876 C 495.406 2.23763 2.6613 0
M  V30 4877 H 494.729 3.09444 2.53149 0
M  V30 4878 H 496.169 2.52915 3.40309 0
M  V30 4879 C 494.628 1.05699 3.1989 0
M  V30 4880 O 495.158 0.309524 4.00506 0
M  V30 4881 N 493.364 0.845251 2.78036 0
M  V30 4882 H 492.911 1.4548 2.12588 0
M  V30 4883 H 492.869 0.0569973 3.14348 0
M  V30 4884 N 496.642 -0.504142 1.49319 0
M  V30 4885 C 497.87 -1.28256 1.62351 0
M  V30 4886 C 498.285 -1.86502 0.293682 0
M  V30 4887 O 497.642 -1.67678 -0.720449 0
M  V30 4888 C 497.693 -2.41507 2.68992 0
M  V30 4889 O 497.414 -1.85656 3.96817 0
M  V30 4890 C 498.915 -3.32929 2.927 0
M  V30 4891 H 496.135 -0.389115 0.546654 0
M  V30 4892 H 498.679 -0.605531 1.95329 0
M  V30 4893 H 496.834 -3.05046 2.38801 0
M  V30 4894 H 497.248 -2.59981 4.55533 0
M  V30 4895 H 498.722 -4.0868 3.71058 0
M  V30 4896 H 499.199 -3.89733 2.02496 0
M  V30 4897 H 499.805 -2.75158 3.24296 0
M  V30 4898 N 498.12 -1.38341 -0.754957 0
M  V30 4899 C 499.366 -1.34672 -1.51628 0
M  V30 4900 C 499.699 0.0636036 -1.94096 0
M  V30 4901 O 498.974 1.0245 -1.6533 0
M  V30 4902 C 499.257 -2.30116 -2.76981 0
M  V30 4903 C 499.11 -3.80003 -2.4066 0
M  V30 4904 C 500.429 -2.23715 -3.78998 0
M  V30 4905 H 497.548 -0.490517 -0.550056 0
M  V30 4906 H 500.19 -1.69178 -0.864807 0
M  V30 4907 H 498.34 -2.00821 -3.3257 0
M  V30 4908 H 500.012 -4.19966 -1.90856 0
M  V30 4909 H 498.255 -3.97751 -1.73137 0
M  V30 4910 H 498.926 -4.42244 -3.30339 0
M  V30 4911 H 501.402 -2.49574 -3.32945 0
M  V30 4912 H 500.278 -2.9261 -4.64403 0
M  V30 4913 H 500.539 -1.23554 -4.24484 0
M  V30 4914 N 499.598 0.982988 -1.23187 0
M  V30 4915 C 500.846 1.72052 -1.06031 0
M  V30 4916 C 501.167 1.90769 0.404019 0
M  V30 4917 O 500.437 1.47446 1.28982 0
M  V30 4918 H 499.017 0.637499 -0.389363 0
M  V30 4919 H 501.679 1.18338 -1.54862 0
M  V30 4920 H 500.775 2.7111 -1.54615 0
M  V30 4921 N 501.076 1.04316 1.18135 0
M  V30 4922 C 502.301 0.768047 1.92655 0
M  V30 4923 C 502.726 -0.66904 1.758 0
M  V30 4924 O 502.084 -1.46372 1.06981 0
M  V30 4925 C 502.132 1.14239 3.42026 0
M  V30 4926 O 501.236 0.269333 4.1152 0
M  V30 4927 H 500.577 0.282436 0.600937 0
M  V30 4928 H 503.107 1.39367 1.49793 0
M  V30 4929 H 503.117 1.10538 3.92741 0
M  V30 4930 H 501.792 2.18928 3.53615 0
M  V30 4931 H 500.369 0.366175 3.71098 0
M  V30 4932 N 502.554 -1.34406 0.822964 0
M  V30 4933 C 503.784 -2.02214 0.423424 0
M  V30 4934 C 504.192 -1.62124 -0.975322 0
M  V30 4935 O 503.535 -0.822452 -1.6426 0
M  V30 4936 C 503.597 -3.56721 0.446107 0
M  V30 4937 C 503.261 -4.20136 1.79819 0
M  V30 4938 C 504.258 -4.4065 2.75904 0
M  V30 4939 C 501.943 -4.56906 2.08669 0
M  V30 4940 C 503.937 -4.9706 3.99012 0
M  V30 4941 C 501.624 -5.13026 3.32036 0
M  V30 4942 C 502.622 -5.33047 4.27024 0
M  V30 4943 O 502.31 -5.87979 5.48211 0
M  V30 4944 H 502.042 -0.654748 0.168169 0
M  V30 4945 H 504.596 -1.72659 1.11257 0
M  V30 4946 H 502.826 -3.85537 -0.299734 0
M  V30 4947 H 504.515 -4.05845 0.0666114 0
M  V30 4948 H 505.281 -4.12607 2.54912 0
M  V30 4949 H 501.16 -4.40626 1.35535 0
M  V30 4950 H 504.704 -5.12603 4.73164 0
M  V30 4951 H 500.601 -5.40498 3.52891 0
M  V30 4952 H 501.369 -6.06413 5.49732 0
M  V30 4953 N 504.032 -0.577932 -1.46621 0
M  V30 4954 C 505.279 -0.0616879 -2.02406 0
M  V30 4955 C 505.607 1.29638 -1.44997 0
M  V30 4956 O 504.862 1.86176 -0.60308 0
M  V30 4957 C 505.161 0.0590832 -3.57351 0
M  V30 4958 C 504.827 -1.23077 -4.33777 0
M  V30 4959 C 503.489 -1.58416 -4.54376 0
M  V30 4960 C 505.841 -2.08457 -4.77698 0
M  V30 4961 C 503.169 -2.78943 -5.16147 0
M  V30 4962 C 505.521 -3.28204 -5.408 0
M  V30 4963 C 504.185 -3.63832 -5.59627 0
M  V30 4964 H 503.455 -0.0225732 -0.740656 0
M  V30 4965 H 506.102 -0.753609 -1.76048 0
M  V30 4966 H 504.407 0.834104 -3.82818 0
M  V30 4967 H 506.104 0.474202 -3.98186 0
M  V30 4968 H 502.694 -0.945652 -4.18038 0
M  V30 4969 H 506.878 -1.82459 -4.61544 0
M  V30 4970 H 502.134 -3.06689 -5.28916 0
M  V30 4971 H 506.308 -3.94634 -5.73792 0
M  V30 4972 H 503.935 -4.57315 -6.07262 0
M  V30 4973 N 505.51 1.54411 -0.315457 0
M  V30 4974 C 506.75 2.02329 0.290236 0
M  V30 4975 C 507.114 1.19878 1.49977 0
M  V30 4976 O 508.315 1.57562 2.17779 0
M  V30 4977 C 506.586 3.51912 0.623937 0
M  V30 4978 S 508.145 4.21775 1.21044 0
M  V30 4979 H 504.963 0.705499 0.0882739 0
M  V30 4980 H 507.565 1.90328 -0.446694 0
M  V30 4981 H 506.269 4.09546 -0.264624 0
M  V30 4982 H 505.8 3.67977 1.39128 0
M  V30 4983 H 507.815 4.28757 2.49764 0
M  V30 4984 N 506.988 0.0434614 1.5754 0
M  V30 4985 C 508.234 -0.632971 1.92669 0
M  V30 4986 C 508.567 -1.70947 0.921446 0
M  V30 4987 O 507.842 -1.94426 -0.0537202 0
M  V30 4988 C 508.125 -1.23619 3.38216 0
M  V30 4989 C 507.978 -0.168274 4.49485 0
M  V30 4990 C 509.297 -2.15008 3.84005 0
M  V30 4991 H 506.416 -0.228629 0.700641 0
M  V30 4992 H 509.058 0.103651 1.89717 0
M  V30 4993 H 507.208 -1.864 3.40863 0
M  V30 4994 H 508.88 0.463196 4.58969 0
M  V30 4995 H 507.123 0.504581 4.30855 0
M  V30 4996 H 507.794 -0.630218 5.48391 0
M  V30 4997 H 510.27 -1.62198 3.83185 0
M  V30 4998 H 509.146 -2.54161 4.86511 0
M  V30 4999 H 509.407 -3.04707 3.20322 0
M  V30 5000 N 508.466 -1.55915 -0.229846 0
M  V30 5001 C 509.706 -1.80314 -0.962614 0
M  V30 5002 C 510.07 -0.61568 -1.81861 0
M  V30 5003 O 511.271 -0.738795 -2.58448 0
M  V30 5004 C 509.542 -3.0956 -1.78627 0
M  V30 5005 S 511.101 -3.55243 -2.57581 0
M  V30 5006 H 507.919 -0.633142 -0.323499 0
M  V30 5007 H 510.521 -1.94155 -0.228919 0
M  V30 5008 H 509.225 -3.94033 -1.14742 0
M  V30 5009 H 508.756 -2.98503 -2.56241 0
M  V30 5010 H 510.771 -3.17924 -3.80971 0
M  V30 5011 N 509.944 0.496216 -1.49584 0
M  V30 5012 C 511.355 1.07765 -1.52459 0
M  V30 5013 C 511.706 1.93679 -0.31353 0
M  V30 5014 O 510.831 2.08588 0.576186 0
M  V30 5015 C 511.426 1.96111 -2.76271 0
M  V30 5016 C 509.985 2.49409 -2.81908 0
M  V30 5017 C 509.132 1.27142 -2.46435 0
M  V30 5018 H 512.083 0.279914 -1.56212 0
M  V30 5019 H 512.104 2.80862 -2.56704 0
M  V30 5020 H 511.616 1.33555 -3.64396 0
M  V30 5021 H 509.717 3.1559 -1.98074 0
M  V30 5022 H 509.83 2.86234 -3.84196 0
M  V30 5023 H 508.194 1.59818 -1.98319 0
M  V30 5024 H 508.977 0.662866 -3.3684 0
M  V30 5025 N 511.423 1.38739 0.74761 0
M  V30 5026 C 512.839 1.20067 1.05148 0
M  V30 5027 C 513.039 0.0534835 2.01429 0
M  V30 5028 O 512.095 -0.59886 2.45296 0
M  V30 5029 C 513.408 2.52957 1.62584 0
M  V30 5030 C 514.956 2.59692 1.74726 0
M  V30 5031 C 515.431 3.92772 2.35573 0
M  V30 5032 N 516.922 3.94343 2.42997 0
M  V30 5033 C 517.657 4.9408 2.90985 0
M  V30 5034 N 517.153 6.04214 3.38965 0
M  V30 5035 N 518.946 4.81466 2.9008 0
M  V30 5036 H 511.097 2.12121 0.108808 0
M  V30 5037 H 513.36 0.941491 0.110899 0
M  V30 5038 H 513.066 3.37389 0.993051 0
M  V30 5039 H 512.94 2.71779 2.61565 0
M  V30 5040 H 515.327 1.75651 2.3713 0
M  V30 5041 H 515.408 2.44731 0.744326 0
M  V30 5042 H 515.052 4.77238 1.738 0
M  V30 5043 H 514.982 4.05046 3.36519 0
M  V30 5044 H 517.473 3.14799 2.0907 0
M  V30 5045 H 517.786 6.76241 3.74056 0
M  V30 5046 H 516.131 6.07825 3.37007 0
M  V30 5047 H 519.322 3.94535 2.51912 0
M  V30 5048 H 519.495 5.59344 3.27166 0
M  V30 5049 N 512.901 -0.976442 1.23707 0
M  V30 5050 C 514.149 -1.71487 1.06942 0
M  V30 5051 C 514.47 -1.9098 -0.393897 0
M  V30 5052 O 513.74 -1.48128 -1.28198 0
M  V30 5053 H 512.32 -0.635425 0.392739 0
M  V30 5054 H 514.982 -1.17515 1.55487 0
M  V30 5055 H 514.078 -2.70286 1.56051 0
M  V30 5056 N 514.379 -1.04941 -1.1758 0
M  V30 5057 C 515.609 -0.777166 -1.91425 0
M  V30 5058 C 516.017 0.670647 -1.76915 0
M  V30 5059 O 515.36 1.46965 -1.10213 0
M  V30 5060 C 515.422 -1.07495 -3.43052 0
M  V30 5061 C 515.086 -2.51844 -3.81345 0
M  V30 5062 C 516.083 -3.50047 -3.844 0
M  V30 5063 C 513.768 -2.86787 -4.12382 0
M  V30 5064 C 515.762 -4.81239 -4.17957 0
M  V30 5065 C 513.449 -4.18182 -4.45608 0
M  V30 5066 C 514.447 -5.15219 -4.48373 0
M  V30 5067 O 514.135 -6.44258 -4.80819 0
M  V30 5068 H 513.867 -0.282209 -0.614275 0
M  V30 5069 H 516.421 -1.40258 -1.50056 0
M  V30 5070 H 514.651 -0.392437 -3.84704 0
M  V30 5071 H 516.34 -0.78912 -3.98155 0
M  V30 5072 H 517.106 -3.24391 -3.60548 0
M  V30 5073 H 512.985 -2.11922 -4.09402 0
M  V30 5074 H 516.529 -5.56974 -4.2003 0
M  V30 5075 H 512.426 -4.43602 -4.68922 0
M  V30 5076 H 513.194 -6.49041 -4.98686 0
M  V30 5077 N 515.857 1.33968 -0.830081 0
M  V30 5078 C 517.103 1.98357 -0.422191 0
M  V30 5079 C 517.436 1.65633 1.01387 0
M  V30 5080 O 516.711 0.931648 1.70735 0
M  V30 5081 C 516.994 3.54492 -0.633043 0
M  V30 5082 C 516.847 3.96934 -2.11574 0
M  V30 5083 C 518.166 4.40039 -0.0735584 0
M  V30 5084 H 515.285 0.720544 -0.154871 0
M  V30 5085 H 517.927 1.58749 -1.04397 0
M  V30 5086 H 516.077 3.88361 -0.103775 0
M  V30 5087 H 517.749 3.73363 -2.7092 0
M  V30 5088 H 515.992 3.46984 -2.60354 0
M  V30 5089 H 516.663 5.05651 -2.21406 0
M  V30 5090 H 519.139 4.12764 -0.52585 0
M  V30 5091 H 518.015 5.48327 -0.250841 0
M  V30 5092 H 518.276 4.30124 1.02202 0
M  V30 5093 N 517.335 0.585699 1.46312 0
M  V30 5094 C 518.563 0.0781299 2.06752 0
M  V30 5095 C 518.978 -1.22812 1.43396 0
M  V30 5096 O 518.335 -1.74318 0.540314 0
M  V30 5097 C 518.386 -0.0911927 3.61385 0
M  V30 5098 O 518.107 1.16336 4.22371 0
M  V30 5099 C 519.608 -0.632765 4.38761 0
M  V30 5100 H 516.828 0.0588188 0.668417 0
M  V30 5101 H 519.372 0.807218 1.87894 0
M  V30 5102 H 517.527 -0.770514 3.7966 0
M  V30 5103 H 517.941 0.979082 5.15281 0
M  V30 5104 H 519.415 -0.70041 5.47538 0
M  V30 5105 H 519.892 -1.65039 4.07012 0
M  V30 5106 H 520.498 0.0117856 4.25298 0
M  V30 5107 N 518.813 -1.54241 0.323641 0
M  V30 5108 C 520.038 -2.05452 -0.283605 0
M  V30 5109 C 520.463 -1.19823 -1.44997 0
M  V30 5110 O 519.821 -0.207358 -1.8011 0
M  V30 5111 C 519.869 -3.53823 -0.695795 0
M  V30 5112 O 518.973 -3.71134 -1.79815 0
M  V30 5113 H 518.314 -0.662024 -0.0511917 0
M  V30 5114 H 520.844 -1.99079 0.472073 0
M  V30 5115 H 520.854 -3.96094 -0.978434 0
M  V30 5116 H 519.529 -4.15602 0.157287 0
M  V30 5117 H 518.106 -3.40768 -1.51431 0
M  V30 5118 N 520.291 -0.0518155 -1.57515 0
M  V30 5119 C 521.519 0.631395 -1.9703 0
M  V30 5120 C 521.934 1.64341 -0.92938 0
M  V30 5121 O 521.291 1.82296 0.0863266 0
M  V30 5122 C 521.342 1.31774 -3.36627 0
M  V30 5123 O 521.063 0.346247 -4.3673 0
M  V30 5124 C 522.564 2.09065 -3.90905 0
M  V30 5125 H 519.784 0.172576 -0.648428 0
M  V30 5126 H 522.328 -0.118306 -2.04158 0
M  V30 5127 H 520.483 2.01867 -3.30649 0
M  V30 5128 H 520.897 0.836226 -5.17791 0
M  V30 5129 H 522.371 2.52508 -4.9086 0
M  V30 5130 H 522.848 2.93908 -3.26366 0
M  V30 5131 H 523.454 1.43882 -4.00223 0
M  V30 5132 N 521.769 1.56035 0.221574 0
M  V30 5133 C 523.046 1.69837 0.970301 0
M  V30 5134 C 523.426 0.599065 2.02421 0
M  V30 5135 O 522.774 -0.393929 2.25079 0
M  V30 5136 C 522.984 3.11148 1.58076 0
M  V30 5137 C 524.332 3.70555 2.07302 0
M  V30 5138 O 525.356 3.14109 1.6797 0
M  V30 5139 O 524.215 4.69562 2.79596 0
M  V30 5140 H 521.309 0.691727 0.453257 0
M  V30 5141 H 523.855 1.68353 0.213358 0
M  V30 5142 H 522.627 3.82617 0.819759 0
M  V30 5143 H 522.25 3.16749 2.40324 0
M  V30 5144 N 523.247 -0.488276 1.49845 0
M  V30 5145 C 524.495 -1.23911 1.59657 0
M  V30 5146 C 524.816 -1.92816 0.291005 0
M  V30 5147 O 524.086 -1.83328 -0.690485 0
M  V30 5148 H 522.666 -0.460357 0.588286 0
M  V30 5149 H 525.328 -0.564794 1.86537 0
M  V30 5150 H 524.424 -1.99625 2.39909 0
M  V30 5151 N 524.725 -1.39134 -0.740242 0
M  V30 5152 C 525.95 -1.39518 -1.53459 0
M  V30 5153 C 526.375 0.00968883 -1.88098 0
M  V30 5154 O 525.733 0.995312 -1.51536 0
M  V30 5155 C 525.781 -2.26981 -2.802 0
M  V30 5156 O 524.885 -1.69609 -3.75908 0
M  V30 5157 H 524.226 -0.475328 -0.463637 0
M  V30 5158 H 526.756 -1.83064 -0.913717 0
M  V30 5159 H 526.766 -2.41309 -3.28989 0
M  V30 5160 H 525.441 -3.29081 -2.5432 0
M  V30 5161 H 524.018 -1.64495 -3.34658 0
M  V30 5162 N 526.204 0.969867 -1.24223 0
M  V30 5163 C 527.62 1.23809 -1.00716 0
M  V30 5164 C 527.82 1.99469 0.285358 0
M  V30 5165 O 526.876 2.31764 1.00207 0
M  V30 5166 C 528.189 2.02734 -2.2208 0
M  V30 5167 C 529.737 2.15834 -2.26681 0
M  V30 5168 C 530.212 2.98154 -3.47661 0
M  V30 5169 N 531.703 3.05737 -3.47964 0
M  V30 5170 C 532.438 3.69785 -4.38231 0
M  V30 5171 N 531.934 4.35569 -5.3875 0
M  V30 5172 N 533.727 3.66775 -4.25949 0
M  V30 5173 H 525.878 0.463294 -2.07286 0
M  V30 5174 H 528.141 0.267348 -0.909521 0
M  V30 5175 H 527.847 1.54524 -3.15935 0
M  V30 5176 H 527.721 3.0347 -2.24021 0
M  V30 5177 H 530.108 2.63248 -1.33359 0
M  V30 5178 H 530.189 1.14453 -2.28767 0
M  V30 5179 H 529.833 2.51435 -4.41297 0
M  V30 5180 H 529.763 3.99729 -3.42818 0
M  V30 5181 H 532.254 2.58941 -2.75242 0
M  V30 5182 H 532.567 4.82251 -6.03866 0
M  V30 5183 H 530.912 4.34244 -5.42639 0
M  V30 5184 H 534.103 3.14558 -3.46657 0
M  V30 5185 H 534.276 4.16407 -4.96497 0
M  V30 5186 N 527.682 1.05563 1.17022 0
M  V30 5187 C 528.922 0.777033 1.89054 0
M  V30 5188 C 529.286 -0.683617 1.79418 0
M  V30 5189 O 530.487 -1.07648 2.46303 0
M  V30 5190 C 528.758 1.24886 3.34871 0
M  V30 5191 S 530.317 1.0982 4.24835 0
M  V30 5192 H 527.135 0.282082 0.652649 0
M  V30 5193 H 529.737 1.35103 1.41306 0
M  V30 5194 H 528.441 2.30699 3.3942 0
M  V30 5195 H 527.972 0.669292 3.87665 0
M  V30 5196 H 529.987 0.02462 4.96194 0
M  V30 5197 N 529.16 -1.33526 0.837174 0
M  V30 5198 C 530.409 -1.97098 0.428387 0
M  V30 5199 C 530.722 -1.67062 -1.01734 0
M  V30 5200 O 531.928 -2.24235 -1.53072 0
M  V30 5201 C 530.384 -3.52725 0.715075 0
M  V30 5202 C 529.992 -3.9164 2.17537 0
M  V30 5203 C 531.736 -4.22857 0.373154 0
M  V30 5204 C 529.643 -5.40237 2.40619 0
M  V30 5205 H 528.573 -0.737589 0.156455 0
M  V30 5206 H 531.224 -1.52169 1.02552 0
M  V30 5207 H 529.606 -3.95971 0.0475904 0
M  V30 5208 H 530.78 -3.59456 2.88319 0
M  V30 5209 H 529.095 -3.34485 2.4801 0
M  V30 5210 H 531.692 -5.32133 0.523264 0
M  V30 5211 H 532.035 -4.10647 -0.683708 0
M  V30 5212 H 532.568 -3.85135 0.995801 0
M  V30 5213 H 529.307 -5.57449 3.44864 0
M  V30 5214 H 528.827 -5.73887 1.74396 0
M  V30 5215 H 530.506 -6.07102 2.23688 0
M  V30 5216 N 530.638 -0.59345 -1.46 0
M  V30 5217 C 531.915 -0.0157933 -1.95594 0
M  V30 5218 C 532.295 1.44807 -1.53604 0
M  V30 5219 O 531.643 2.14342 -0.791824 0
M  V30 5220 C 531.853 -0.199081 -3.48432 0
M  V30 5221 C 533.201 -0.0724943 -4.24538 0
M  V30 5222 O 534.225 -0.128469 -3.55968 0
M  V30 5223 O 533.084 0.0542426 -5.46473 0
M  V30 5224 H 530.178 0.043749 -0.825842 0
M  V30 5225 H 532.724 -0.662522 -1.56233 0
M  V30 5226 H 531.496 -1.21631 -3.71916 0
M  V30 5227 H 531.119 0.483576 -3.94648 0
M  V30 5228 N 532.116 1.54067 -0.331816 0
M  V30 5229 C 533.048 2.22139 0.564538 0
M  V30 5230 C 534.061 1.22408 1.07332 0
M  V30 5231 O 535.25 1.4883 0.985481 0
M  V30 5232 C 532.35 2.87876 1.78831 0
M  V30 5233 C 531.523 4.13817 1.41682 0
M  V30 5234 C 530.582 4.63072 2.49901 0
M  V30 5235 O 529.608 5.27562 2.13699 0
M  V30 5236 N 530.81 4.38001 3.80967 0
M  V30 5237 H 533.575 2.99694 -0.0183736 0
M  V30 5238 H 531.136 1.61153 -0.155396 0
M  V30 5239 H 533.128 3.17747 2.50637 0
M  V30 5240 H 531.698 2.13977 2.27887 0
M  V30 5241 H 530.918 3.9062 0.530044 0
M  V30 5242 H 532.206 4.95762 1.14443 0
M  V30 5243 H 531.604 3.864 4.13173 0
M  V30 5244 H 530.161 4.72507 4.48977 0
M  V30 5245 N 533.594 0.0601682 1.57485 0
M  V30 5246 C 535.01 -0.296422 1.56823 0
M  V30 5247 C 535.21 -1.70831 1.0686 0
M  V30 5248 O 534.266 -2.4174 0.729245 0
M  V30 5249 C 535.579 -0.116681 3.00474 0
M  V30 5250 C 537.127 -0.187103 3.1244 0
M  V30 5251 C 537.602 -0.035783 4.57986 0
M  V30 5252 N 539.093 -0.0917676 4.63109 0
M  V30 5253 C 539.828 0.00107251 5.734 0
M  V30 5254 N 539.324 0.146773 6.92645 0
M  V30 5255 N 541.117 -0.0551577 5.62073 0
M  V30 5256 H 533.268 0.983055 1.88281 0
M  V30 5257 H 535.531 0.382386 0.867459 0
M  V30 5258 H 535.237 0.85712 3.41096 0
M  V30 5259 H 535.111 -0.873929 3.66936 0
M  V30 5260 H 537.498 -1.15138 2.71712 0
M  V30 5261 H 537.579 0.601052 2.48638 0
M  V30 5262 H 537.223 0.925212 4.99402 0
M  V30 5263 H 537.153 -0.843196 5.19806 0
M  V30 5264 H 539.644 -0.203261 3.77353 0
M  V30 5265 H 539.957 0.210076 7.72514 0
M  V30 5266 H 538.302 0.181979 6.94762 0
M  V30 5267 H 541.493 -0.167605 4.678 0
M  V30 5268 H 541.666 0.020652 6.47997 0
M  V30 5269 N 535.072 -1.5615 -0.213296 0
M  V30 5270 C 536.3 -1.83638 -0.953139 0
M  V30 5271 C 536.715 -0.640362 -1.77609 0
M  V30 5272 O 536.072 0.391071 -1.78261 0
M  V30 5273 C 536.123 -3.09735 -1.86405 0
M  V30 5274 O 535.844 -4.24723 -1.07435 0
M  V30 5275 C 537.345 -3.5027 -2.71709 0
M  V30 5276 H 534.565 -0.610263 -0.278962 0
M  V30 5277 H 537.109 -2.03247 -0.226035 0
M  V30 5278 H 535.264 -2.92077 -2.545 0
M  V30 5279 H 535.678 -4.9641 -1.69343 0
M  V30 5280 H 537.152 -4.41515 -3.31313 0
M  V30 5281 H 537.629 -2.72406 -3.44516 0
M  V30 5282 H 538.235 -3.70396 -2.09015 0
M  V30 5283 N 536.55 0.480323 -1.50102 0
M  V30 5284 C 537.798 1.23063 -1.60312 0
M  V30 5285 C 538.119 1.92659 -0.301226 0
M  V30 5286 O 537.389 1.83691 0.680753 0
M  V30 5287 H 535.969 0.457231 -0.590719 0
M  V30 5288 H 538.631 0.554893 -1.86834 0
M  V30 5289 H 537.727 1.9835 -2.40964 0
M  V30 5290 N 538.028 1.39524 0.732853 0
M  V30 5291 C 538.961 1.32806 1.85574 0
M  V30 5292 C 539.939 0.201354 1.61348 0
M  V30 5293 O 541.123 0.38216 1.84585 0
M  V30 5294 C 538.25 1.06271 3.21596 0
M  V30 5295 C 537.296 2.21161 3.64678 0
M  V30 5296 S 538.129 3.83454 3.73796 0
M  V30 5297 C 539.285 3.59149 5.12604 0
M  V30 5298 H 539.518 2.27838 1.9099 0
M  V30 5299 H 537.051 1.25605 0.897927 0
M  V30 5300 H 539.009 0.916461 4.00139 0
M  V30 5301 H 537.67 0.129223 3.13834 0
M  V30 5302 H 536.863 1.98193 4.63396 0
M  V30 5303 H 536.465 2.32 2.93346 0
M  V30 5304 H 538.757 3.16547 5.99003 0
M  V30 5305 H 539.7 4.57335 5.40602 0
M  V30 5306 H 540.108 2.93203 4.82382 0
M  V30 5307 N 539.506 -0.963266 1.24736 0
M  V30 5308 C 540.746 -1.72172 1.10165 0
M  V30 5309 C 541.11 -1.88731 -0.352784 0
M  V30 5310 O 542.311 -2.61549 -0.620107 0
M  V30 5311 C 540.582 -3.0724 1.82589 0
M  V30 5312 S 542.141 -3.98449 1.83803 0
M  V30 5313 H 538.959 -0.591901 0.393922 0
M  V30 5314 H 541.561 -1.14955 1.58132 0
M  V30 5315 H 540.265 -2.92851 2.87518 0
M  V30 5316 H 539.796 -3.69521 1.34973 0
M  V30 5317 H 541.811 -4.87805 0.908883 0
M  V30 5318 N 540.985 -1.06182 -1.16461 0
M  V30 5319 C 542.232 -0.777863 -1.86964 0
M  V30 5320 C 542.56 0.695602 -1.81636 0
M  V30 5321 O 541.815 1.52532 -1.22607 0
M  V30 5322 C 542.114 -1.21633 -3.36066 0
M  V30 5323 C 541.78 -2.69371 -3.61594 0
M  V30 5324 C 540.442 -3.09727 -3.6827 0
M  V30 5325 C 542.794 -3.64791 -3.7226 0
M  V30 5326 C 540.122 -4.44345 -3.83112 0
M  V30 5327 C 542.474 -4.99155 -3.88623 0
M  V30 5328 C 541.138 -5.39149 -3.93541 0
M  V30 5329 H 540.408 -0.28464 -0.68415 0
M  V30 5330 H 543.055 -1.33071 -1.37711 0
M  V30 5331 H 541.36 -0.582651 -3.87443 0
M  V30 5332 H 543.057 -0.973682 -3.88999 0
M  V30 5333 H 539.647 -2.37124 -3.57029 0
M  V30 5334 H 543.831 -3.34746 -3.66413 0
M  V30 5335 H 539.087 -4.74819 -3.85172 0
M  V30 5336 H 543.261 -5.72976 -3.95817 0
M  V30 5337 H 540.888 -6.43464 -4.04794 0
M  V30 5338 N 542.463 1.3308 -0.844243 0
M  V30 5339 C 543.688 2.02341 -0.455282 0
M  V30 5340 C 544.113 1.6308 0.93737 0
M  V30 5341 O 543.471 0.826118 1.61385 0
M  V30 5342 C 543.519 3.55743 -0.58988 0
M  V30 5343 O 542.623 4.1063 0.38166 0
M  V30 5344 H 541.964 0.637898 -0.184343 0
M  V30 5345 H 544.494 1.6986 -1.14056 0
M  V30 5346 H 544.504 4.05243 -0.473522 0
M  V30 5347 H 543.179 3.83662 -1.60549 0
M  V30 5348 H 541.756 3.72236 0.22241 0
M  V30 5349 N 543.941 0.601185 1.45683 0
M  V30 5350 C 545.189 0.0936957 2.01883 0
M  V30 5351 C 545.51 -1.2779 1.47291 0
M  V30 5352 O 544.78 -1.84279 0.664691 0
M  V30 5353 H 543.36 0.0316466 0.746329 0
M  V30 5354 H 546.022 0.781137 1.78562 0
M  V30 5355 H 545.118 0.0386297 3.12076 0
M  V30 5356 N 545.419 -1.53889 0.339982 0
M  V30 5357 C 546.349 -2.27843 -0.510856 0
M  V30 5358 C 547.33 -1.29267 -1.10563 0
M  V30 5359 O 548.515 -1.58104 -1.12768 0
M  V30 5360 C 545.645 -3.04857 -1.66372 0
M  V30 5361 C 544.599 -4.10907 -1.19746 0
M  V30 5362 C 543.925 -4.75855 -2.43857 0
M  V30 5363 C 545.225 -5.21435 -0.300501 0
M  V30 5364 H 546.919 -2.99212 0.106067 0
M  V30 5365 H 544.465 -1.43904 0.0524533 0
M  V30 5366 H 546.418 -3.5533 -2.26537 0
M  V30 5367 H 545.142 -2.31133 -2.30749 0
M  V30 5368 H 543.801 -3.61342 -0.618654 0
M  V30 5369 H 543.449 -3.9873 -3.06633 0
M  V30 5370 H 543.149 -5.47502 -2.13343 0
M  V30 5371 H 544.673 -5.2911 -3.04754 0
M  V30 5372 H 546.087 -5.67565 -0.80889 0
M  V30 5373 H 544.484 -6.00036 -0.0874076 0
M  V30 5374 H 545.554 -4.80328 0.664321 0
M  V30 5375 N 546.897 -0.0685191 -1.57451 0
M  V30 5376 C 548.143 0.602239 -1.93652 0
M  V30 5377 C 548.476 1.6946 -0.948526 0
M  V30 5378 O 547.751 1.94487 0.022782 0
M  V30 5379 C 548.034 1.18223 -3.4014 0
M  V30 5380 C 547.887 0.0967431 -4.49696 0
M  V30 5381 C 549.206 2.08872 -3.87377 0
M  V30 5382 H 546.325 0.217453 -0.70419 0
M  V30 5383 H 548.967 -0.133821 -1.89528 0
M  V30 5384 H 547.117 1.80953 -3.43785 0
M  V30 5385 H 548.789 -0.536155 -4.58174 0
M  V30 5386 H 547.032 -0.573063 -4.29998 0
M  V30 5387 H 547.703 0.542894 -5.49324 0
M  V30 5388 H 550.179 1.56081 -3.85717 0
M  V30 5389 H 549.055 2.46389 -4.90493 0
M  V30 5390 H 549.316 2.99572 -3.25129 0
M  V30 5391 N 548.375 1.56261 0.205012 0
M  V30 5392 C 549.323 1.94631 1.27364 0
M  V30 5393 C 550.317 0.830434 1.47649 0
M  V30 5394 O 551.523 1.01538 1.48627 0
M  V30 5395 H 547.898 0.618755 0.427371 0
M  V30 5396 H 549.869 2.83768 0.922941 0
M  V30 5397 C 548.618 2.29358 2.61324 0
M  V30 5398 H 547.941 3.14744 2.46528 0
M  V30 5399 H 549.381 2.60076 3.34868 0
M  V30 5400 C 547.84 1.12461 3.17575 0
M  V30 5401 O 548.37 0.394407 3.99759 0
M  V30 5402 N 546.576 0.904036 2.7618 0
M  V30 5403 H 546.123 1.49956 2.09454 0
M  V30 5404 H 546.081 0.123662 3.14157 0
M  V30 5405 N 549.853 -0.472356 1.50355 0
M  V30 5406 C 551.101 -1.22211 1.60962 0
M  V30 5407 C 551.422 -1.92497 0.311439 0
M  V30 5408 O 550.692 -1.8405 -0.671002 0
M  V30 5409 H 549.272 -0.454092 0.593135 0
M  V30 5410 H 551.934 -0.544977 1.87126 0
M  V30 5411 H 551.03 -1.9707 2.42012 0
M  V30 5412 N 551.331 -1.39911 -0.725443 0
M  V30 5413 C 552.747 -1.21725 -1.03224 0
M  V30 5414 C 552.947 -0.0855224 -2.01318 0
M  V30 5415 O 552.003 0.55976 -2.46217 0
M  V30 5416 C 553.316 -2.55511 -1.58539 0
M  V30 5417 C 554.864 -2.62439 -1.70572 0
M  V30 5418 C 555.339 -3.9647 -2.29294 0
M  V30 5419 N 556.83 -3.98159 -2.36692 0
M  V30 5420 C 557.565 -4.98647 -2.83088 0
M  V30 5421 N 557.061 -6.0953 -3.2931 0
M  V30 5422 N 558.854 -4.8602 -2.82384 0
M  V30 5423 H 551.005 -2.12267 -0.075048 0
M  V30 5424 H 553.268 -0.943136 -0.0959066 0
M  V30 5425 H 552.974 -3.38926 -0.939249 0
M  V30 5426 H 552.848 -2.75905 -2.57208 0
M  V30 5427 H 555.235 -1.79401 -2.34306 0
M  V30 5428 H 555.316 -2.45885 -0.705297 0
M  V30 5429 H 554.96 -4.79942 -1.66186 0
M  V30 5430 H 554.89 -4.10349 -3.30032 0
M  V30 5431 H 557.381 -3.18085 -2.04035 0
M  V30 5432 H 557.694 -6.82106 -3.6325 0
M  V30 5433 H 556.039 -6.1311 -3.27294 0
M  V30 5434 H 559.23 -3.98493 -2.45603 0
M  V30 5435 H 559.403 -5.64478 -3.18226 0
M  V30 5436 N 552.809 0.956637 -1.25245 0
M  V30 5437 C 554.049 1.71585 -1.11076 0
M  V30 5438 C 554.413 1.88916 0.34277 0
M  V30 5439 O 555.614 2.61875 0.606227 0
M  V30 5440 C 553.885 3.06267 -1.84215 0
M  V30 5441 S 555.444 3.97469 -1.85914 0
M  V30 5442 H 552.262 0.589803 -0.397055 0
M  V30 5443 H 554.864 1.14114 -1.58739 0
M  V30 5444 H 553.568 2.91322 -2.89067 0
M  V30 5445 H 553.099 3.688 -1.36931 0
M  V30 5446 H 555.114 4.87316 -0.93474 0
M  V30 5447 N 554.287 1.06798 1.15896 0
M  V30 5448 C 555.25 0.687328 2.18651 0
M  V30 5449 C 556.25 -0.269559 1.58524 0
M  V30 5450 O 557.44 -0.0512627 1.74125 0
M  V30 5451 C 554.572 0.0121642 3.40898 0
M  V30 5452 H 555.765 1.59701 2.53842 0
M  V30 5453 H 553.318 0.863828 1.3026 0
M  V30 5454 H 554.053 -0.910025 3.1127 0
M  V30 5455 H 553.838 0.700309 3.85795 0
M  V30 5456 H 555.328 -0.239703 4.16911 0
M  V30 5457 N 555.766 -1.3263 0.851289 0
M  V30 5458 C 556.698 -2.27824 0.250757 0
M  V30 5459 C 557.711 -1.52285 -0.575598 0
M  V30 5460 O 558.9 -1.73946 -0.400638 0
M  V30 5461 C 556 -3.3232 -0.664571 0
M  V30 5462 C 555.173 -4.37221 0.125187 0
M  V30 5463 C 554.232 -5.21314 -0.715385 0
M  V30 5464 O 553.258 -5.69002 -0.150111 0
M  V30 5465 N 554.46 -5.43823 -2.03069 0
M  V30 5466 H 557.225 -2.79997 1.06873 0
M  V30 5467 H 554.786 -1.45455 0.710943 0
M  V30 5468 H 556.778 -3.85486 -1.23216 0
M  V30 5469 H 555.348 -2.80331 -1.38323 0
M  V30 5470 H 554.568 -3.84384 0.874199 0
M  V30 5471 H 555.856 -5.04399 0.667774 0
M  V30 5472 H 555.254 -5.06803 -2.51332 0
M  V30 5473 H 553.811 -5.99998 -2.54648 0
M  V30 5474 N 557.244 -0.608902 -1.45362 0
M  V30 5475 C 558.154 0.110969 -2.34337 0
M  V30 5476 C 559.17 0.859007 -1.51318 0
M  V30 5477 O 560.346 0.816296 -1.84116 0
M  V30 5478 C 557.411 1.09494 -3.28956 0
M  V30 5479 C 556.472 0.348718 -4.27881 0
M  V30 5480 C 555.705 1.28582 -5.17979 0
M  V30 5481 O 555.928 2.52369 -5.11533 0
M  V30 5482 O 554.862 0.782172 -5.96796 0
M  V30 5483 H 558.688 -0.620258 -2.97299 0
M  V30 5484 H 556.273 -0.36916 -1.44767 0
M  V30 5485 H 558.155 1.66163 -3.87257 0
M  V30 5486 H 556.83 1.80717 -2.68557 0
M  V30 5487 H 555.737 -0.260465 -3.73192 0
M  V30 5488 H 557.07 -0.323049 -4.91139 0
M  V30 5489 N 558.722 1.53707 -0.348139 0
M  V30 5490 C 559.652 2.28111 0.498766 0
M  V30 5491 C 560.633 1.29851 1.09876 0
M  V30 5492 O 561.818 1.587 1.11928 0
M  V30 5493 C 558.948 3.05735 1.64753 0
M  V30 5494 C 557.902 4.11537 1.17565 0
M  V30 5495 C 557.228 4.77142 2.4133 0
M  V30 5496 C 558.528 5.21587 0.272844 0
M  V30 5497 H 560.222 2.99152 -0.121934 0
M  V30 5498 H 557.768 1.43875 -0.0600842 0
M  V30 5499 H 559.721 3.56526 2.24649 0
M  V30 5500 H 558.445 2.32354 2.2952 0
M  V30 5501 H 557.104 3.61665 0.599483 0
M  V30 5502 H 556.752 4.0035 3.04514 0
M  V30 5503 H 556.452 5.48626 2.10436 0
M  V30 5504 H 557.976 5.30719 3.01943 0
M  V30 5505 H 559.39 5.67986 0.778779 0
M  V30 5506 H 557.787 6.00074 0.0555849 0
M  V30 5507 H 558.857 4.79969 -0.689785 0
M  V30 5508 N 560.2 0.0768682 1.57412 0
M  V30 5509 C 561.611 -0.455037 1.8107 0
M  V30 5510 C 561.962 -1.69323 0.991162 0
M  V30 5511 O 561.087 -2.15328 0.215156 0
M  V30 5512 C 561.682 -0.832316 3.28417 0
M  V30 5513 C 560.241 -1.30906 3.52903 0
M  V30 5514 C 559.388 -0.296714 2.75708 0
M  V30 5515 H 562.339 0.302514 1.5579 0
M  V30 5516 H 562.36 -1.69333 3.40744 0
M  V30 5517 H 561.872 0.0690532 3.88039 0
M  V30 5518 H 559.973 -2.22875 2.98592 0
M  V30 5519 H 560.086 -1.28348 4.61588 0
M  V30 5520 H 558.45 -0.775059 2.42621 0
M  V30 5521 H 559.233 0.597015 3.38069 0
M  V30 5522 N 561.678 -1.56367 -0.196722 0
M  V30 5523 C 562.926 -1.80172 -0.915554 0
M  V30 5524 C 563.247 -0.649649 -1.8386 0
M  V30 5525 O 562.517 0.332111 -1.93064 0
M  V30 5526 H 561.097 -0.664592 -0.341067 0
M  V30 5527 H 563.759 -1.93844 -0.202622 0
M  V30 5528 H 562.855 -2.7327 -1.50764 0
M  V30 5529 N 563.156 0.464375 -1.50603 0
M  V30 5530 C 564.572 0.798684 -1.38178 0
M  V30 5531 C 564.772 1.96568 -0.44308 0
M  V30 5532 O 563.828 2.52252 0.111814 0
M  V30 5533 C 565.141 1.10444 -2.79683 0
M  V30 5534 C 566.689 1.2105 -2.88645 0
M  V30 5535 C 567.164 1.54934 -4.30998 0
M  V30 5536 N 568.655 1.61913 -4.3398 0
M  V30 5537 C 569.39 1.8965 -5.41129 0
M  V30 5538 N 568.886 2.15361 -6.58477 0
M  V30 5539 N 570.679 1.91207 -5.28579 0
M  V30 5540 H 562.83 -0.304603 -2.10204 0
M  V30 5541 H 565.093 -0.0737804 -0.945125 0
M  V30 5542 H 564.799 0.319934 -3.50242 0
M  V30 5543 H 564.673 2.03896 -3.17342 0
M  V30 5544 H 567.06 1.98567 -2.18301 0
M  V30 5545 H 567.141 0.255613 -2.5452 0
M  V30 5546 H 566.785 0.779549 -5.01882 0
M  V30 5547 H 566.715 2.51584 -4.62615 0
M  V30 5548 H 569.206 1.44055 -3.49366 0
M  V30 5549 H 569.519 2.35818 -7.35941 0
M  V30 5550 H 567.864 2.1274 -6.6164 0
M  V30 5551 H 571.055 1.70622 -4.35897 0
M  V30 5552 H 571.228 2.12488 -6.12171 0
M  V30 5553 N 564.634 1.40294 0.718013 0
M  V30 5554 C 565.567 1.34767 1.84155 0
M  V30 5555 C 566.545 0.218455 1.61126 0
M  V30 5556 O 567.729 0.401716 1.8417 0
M  V30 5557 C 564.856 1.09676 3.20451 0
M  V30 5558 C 563.902 2.25016 3.62312 0
M  V30 5559 S 564.735 3.87397 3.69707 0
M  V30 5560 C 565.891 3.64565 5.08766 0
M  V30 5561 H 566.124 2.29851 1.88562 0
M  V30 5562 H 563.657 1.2655 0.884555 0
M  V30 5563 H 565.615 0.95885 3.99144 0
M  V30 5564 H 564.276 0.162502 3.13679 0
M  V30 5565 H 563.469 2.03097 4.61268 0
M  V30 5566 H 563.071 2.35098 2.90869 0
M  V30 5567 H 565.363 3.22882 5.95612 0
M  V30 5568 H 566.306 4.63043 5.35721 0
M  V30 5569 H 566.714 2.98303 4.79245 0
M  V30 5570 N 566.112 -0.949982 1.2575 0
M  V30 5571 C 567.34 -1.72972 1.13527 0
M  V30 5572 C 567.755 -1.8623 -0.310453 0
M  V30 5573 O 567.112 -1.36336 -1.2132 0
M  V30 5574 C 567.163 -3.14108 1.78936 0
M  V30 5575 O 566.884 -3.01493 3.17858 0
M  V30 5576 C 568.385 -4.08338 1.72554 0
M  V30 5577 H 565.605 -0.541864 0.395758 0
M  V30 5578 H 568.149 -1.19151 1.66202 0
M  V30 5579 H 566.304 -3.64858 1.30221 0
M  V30 5580 H 566.718 -3.90559 3.50092 0
M  V30 5581 H 568.192 -5.04963 2.22973 0
M  V30 5582 H 568.669 -4.33742 0.690251 0
M  V30 5583 H 569.275 -3.63506 2.2078 0
M  V30 5584 N 567.59 -1.07411 -1.15328 0
M  V30 5585 C 568.537 -0.694995 -2.20087 0
M  V30 5586 C 569.507 0.313904 -1.63107 0
M  V30 5587 O 570.692 0.200216 -1.89747 0
M  V30 5588 C 567.832 -0.0996218 -3.44956 0
M  V30 5589 C 566.945 -1.16007 -4.16133 0
M  V30 5590 C 566.08 -0.529636 -5.28553 0
M  V30 5591 C 565.119 -1.57283 -5.91548 0
M  V30 5592 N 564.256 -0.964932 -6.95438 0
M  V30 5593 H 569.096 -1.5927 -2.51867 0
M  V30 5594 H 566.633 -0.796115 -1.23695 0
M  V30 5595 H 568.591 0.263197 -4.16369 0
M  V30 5596 H 567.221 0.761435 -3.13691 0
M  V30 5597 H 566.273 -1.64045 -3.4321 0
M  V30 5598 H 567.585 -1.95101 -4.59061 0
M  V30 5599 H 566.739 -0.114487 -6.06592 0
M  V30 5600 H 565.478 0.29307 -4.86819 0
M  V30 5601 H 564.483 -1.99775 -5.12221 0
M  V30 5602 H 565.708 -2.39783 -6.35359 0
M  V30 5603 H 563.654 -0.16314 -6.55797 0
M  V30 5604 H 563.571 -1.69311 -7.36797 0
M  V30 5605 H 564.839 -0.575305 -7.77374 0
M  V30 5606 N 569.068 1.32177 -0.85831 0
M  V30 5607 C 570.001 2.26823 -0.25035 0
M  V30 5608 C 570.979 1.50571 0.61378 0
M  V30 5609 O 572.163 1.79682 0.569777 0
M  V30 5610 C 569.29 3.32472 0.646556 0
M  V30 5611 C 568.336 4.26255 -0.144675 0
M  V30 5612 S 569.169 5.13608 -1.5155 0
M  V30 5613 C 570.325 6.22778 -0.624408 0
M  V30 5614 H 570.558 2.7804 -1.05267 0
M  V30 5615 H 568.091 1.39764 -0.656152 0
M  V30 5616 H 570.049 3.93817 1.15837 0
M  V30 5617 H 568.71 2.80031 1.42272 0
M  V30 5618 H 567.903 5.01114 0.538613 0
M  V30 5619 H 567.505 3.69346 -0.588198 0
M  V30 5620 H 569.797 6.77287 0.169846 0
M  V30 5621 H 570.74 6.95233 -1.34376 0
M  V30 5622 H 571.148 5.64156 -0.197128 0
M  V30 5623 N 570.547 0.616602 1.45037 0
M  V30 5624 C 571.479 -0.135186 2.28801 0
M  V30 5625 C 572.492 -0.82303 1.40464 0
M  V30 5626 O 573.681 -0.686909 1.64754 0
M  V30 5627 C 570.781 -1.21292 3.16451 0
M  V30 5628 C 569.954 -0.61043 4.3312 0
M  V30 5629 C 569.013 -1.58022 5.01912 0
M  V30 5630 O 568.039 -1.10301 5.58411 0
M  V30 5631 N 569.241 -2.91464 5.02025 0
M  V30 5632 H 572.006 0.583612 2.93963 0
M  V30 5633 H 569.567 0.456723 1.55324 0
M  V30 5634 H 571.559 -1.86169 3.59337 0
M  V30 5635 H 570.129 -1.83412 2.53138 0
M  V30 5636 H 569.349 0.216638 3.93604 0
M  V30 5637 H 570.637 -0.188293 5.08451 0
M  V30 5638 H 570.035 -3.32829 4.57429 0
M  V30 5639 H 568.592 -3.51741 5.48745 0
M  V30 5640 N 572.025 -1.5352 0.356285 0
M  V30 5641 C 573.265 -2.03027 -0.23649 0
M  V30 5642 C 573.629 -1.23813 -1.46746 0
M  V30 5643 O 574.83 -1.63281 -2.13525 0
M  V30 5644 C 573.101 -3.53442 -0.530415 0
M  V30 5645 S 574.66 -4.24836 -1.09819 0
M  V30 5646 H 571.478 -0.707591 -0.0695378 0
M  V30 5647 H 574.08 -1.89077 0.496999 0
M  V30 5648 H 572.784 -4.087 0.373114 0
M  V30 5649 H 572.315 -3.71536 -1.29323 0
M  V30 5650 H 574.33 -4.35228 -2.38309 0
M  V30 5651 N 573.503 -0.0852151 -1.57369 0
M  V30 5652 C 574.743 0.584297 -1.95871 0
M  V30 5653 C 575.107 1.6596 -0.965473 0
M  V30 5654 O 576.308 2.38561 -1.23862 0
M  V30 5655 C 574.579 1.13411 -3.38929 0
M  V30 5656 S 576.138 1.81687 -3.99419 0
M  V30 5657 H 572.956 0.19095 -0.684879 0
M  V30 5658 H 575.558 -0.162267 -1.94825 0
M  V30 5659 H 574.262 0.339845 -4.0899 0
M  V30 5660 H 573.793 1.91672 -3.43548 0
M  V30 5661 H 575.808 3.10037 -3.87417 0
M  V30 5662 N 574.981 1.5647 0.188427 0
M  V30 5663 C 576.221 1.82803 0.914469 0
M  V30 5664 C 576.585 0.663681 1.80165 0
M  V30 5665 O 577.786 0.807059 2.56398 0
M  V30 5666 C 576.057 3.14187 1.70357 0
M  V30 5667 S 577.616 3.61947 2.48072 0
M  V30 5668 H 574.434 0.641497 0.306599 0
M  V30 5669 H 577.036 1.94694 0.177361 0
M  V30 5670 H 575.74 3.96937 1.04255 0
M  V30 5671 H 575.271 3.05192 2.48237 0
M  V30 5672 H 577.286 3.27913 3.72407 0
M  V30 5673 N 576.459 -0.456382 1.50847 0
M  V30 5674 C 577.369 -1.57805 1.73594 0
M  V30 5675 C 578.385 -1.62599 0.619476 0
M  V30 5676 O 579.561 -1.80195 0.899532 0
M  V30 5677 C 576.626 -2.93926 1.8387 0
M  V30 5678 C 575.687 -2.99402 3.07663 0
M  V30 5679 C 574.92 -4.29031 3.1744 0
M  V30 5680 O 575.143 -5.20358 2.33631 0
M  V30 5681 O 574.077 -4.40401 4.10281 0
M  V30 5682 H 577.903 -1.41531 2.68705 0
M  V30 5683 H 575.488 -0.637422 1.3512 0
M  V30 5684 H 577.37 -3.74747 1.92725 0
M  V30 5685 H 576.045 -3.10368 0.91944 0
M  V30 5686 H 574.952 -2.17606 3.043 0
M  V30 5687 H 576.285 -2.87901 3.99216 0
M  V30 5688 N 577.937 -1.40673 -0.710563 0
M  V30 5689 C 579.348 -1.34975 -1.28991 0
M  V30 5690 C 579.699 -0.0256272 -1.96183 0
M  V30 5691 O 578.824 0.876339 -1.97862 0
M  V30 5692 C 579.419 -2.44467 -2.34567 0
M  V30 5693 C 577.978 -2.42213 -2.88114 0
M  V30 5694 C 577.125 -2.25085 -1.61963 0
M  V30 5695 H 580.076 -1.50406 -0.506343 0
M  V30 5696 H 580.097 -2.12663 -3.15523 0
M  V30 5697 H 579.609 -3.40825 -1.85634 0
M  V30 5698 H 577.71 -1.49568 -3.41263 0
M  V30 5699 H 577.823 -3.37983 -3.39565 0
M  V30 5700 H 576.187 -1.72691 -1.87216 0
M  V30 5701 H 576.97 -3.23449 -1.15047 0
M  V30 5702 N 579.415 0.9433 -1.26252 0
M  V30 5703 C 580.663 1.68592 -1.11451 0
M  V30 5704 C 580.984 1.91957 0.343123 0
M  V30 5705 O 580.254 1.51475 1.24226 0
M  V30 5706 H 578.834 0.624789 -0.409448 0
M  V30 5707 H 581.496 1.13351 -1.58548 0
M  V30 5708 H 580.592 2.66054 -1.63162 0
M  V30 5709 N 580.893 1.08022 1.14757 0
M  V30 5710 C 582.309 0.807072 1.3769 0
M  V30 5711 C 582.509 -0.585504 1.92806 0
M  V30 5712 O 581.565 -1.34301 2.13821 0
M  V30 5713 C 582.878 1.88651 2.34161 0
M  V30 5714 C 584.426 1.91206 2.47809 0
M  V30 5715 C 584.901 2.98253 3.47576 0
M  V30 5716 N 586.392 2.974 3.55117 0
M  V30 5717 C 587.127 3.76872 4.32152 0
M  V30 5718 N 586.623 4.66212 5.12463 0
M  V30 5719 N 588.416 3.6519 4.27309 0
M  V30 5720 H 580.567 1.97824 0.77326 0
M  V30 5721 H 582.83 0.85826 0.402608 0
M  V30 5722 H 582.536 2.88749 2.00791 0
M  V30 5723 H 582.41 1.75244 3.3402 0
M  V30 5724 H 584.797 0.917564 2.80472 0
M  V30 5725 H 584.878 2.08691 1.47925 0
M  V30 5726 H 584.522 3.97907 3.15646 0
M  V30 5727 H 584.452 2.78014 4.47231 0
M  V30 5728 H 586.943 2.32643 2.97801 0
M  V30 5729 H 587.256 5.23468 5.68508 0
M  V30 5730 H 585.601 4.70257 5.11745 0
M  V30 5731 H 588.792 2.94765 3.63636 0
M  V30 5732 H 588.965 4.27366 4.87095 0
M  V30 5733 N 582.371 -1.3172 0.865308 0
M  V30 5734 C 583.611 -1.98675 0.480365 0
M  V30 5735 C 583.975 -1.66929 -0.948621 0
M  V30 5736 O 585.176 -2.27059 -1.43867 0
M  V30 5737 C 583.447 -3.49972 0.724858 0
M  V30 5738 S 585.006 -4.36598 0.439078 0
M  V30 5739 H 581.824 -0.687967 0.179506 0
M  V30 5740 H 584.426 -1.60215 1.12033 0
M  V30 5741 H 583.13 -3.70567 1.76375 0
M  V30 5742 H 582.661 -3.93335 0.0717173 0
M  V30 5743 H 584.676 -4.90792 -0.730564 0
M  V30 5744 N 583.85 -0.624285 -1.44708 0
M  V30 5745 C 585.096 -0.13473 -2.02953 0
M  V30 5746 C 585.451 1.22724 -1.48178 0
M  V30 5747 O 584.744 1.80109 -0.653542 0
M  V30 5748 C 584.938 -0.0546353 -3.57358 0
M  V30 5749 C 584.767 -1.40729 -4.27113 0
M  V30 5750 C 583.537 -1.99231 -4.64365 0
M  V30 5751 C 585.735 -2.33968 -4.58 0
M  V30 5752 N 583.716 -3.27803 -5.19055 0
M  V30 5753 C 585.088 -3.47149 -5.137 0
M  V30 5754 C 587.143 -2.33132 -4.39948 0
M  V30 5755 C 585.846 -4.59682 -5.53249 0
M  V30 5756 C 587.872 -3.44724 -4.8054 0
M  V30 5757 C 587.234 -4.56629 -5.36348 0
M  V30 5758 H 583.332 -0.0930617 -0.776443 0
M  V30 5759 H 585.917 -0.826286 -1.76297 0
M  V30 5760 H 584.088 0.606183 -3.8364 0
M  V30 5761 H 585.82 0.443116 -4.02267 0
M  V30 5762 H 582.575 -1.52251 -4.4846 0
M  V30 5763 H 582.999 -3.93519 -5.50883 0
M  V30 5764 H 587.641 -1.47868 -3.961 0
M  V30 5765 H 585.359 -5.4566 -5.96054 0
M  V30 5766 H 588.945 -3.45245 -4.68291 0
M  V30 5767 H 587.825 -5.41551 -5.67179 0
M  V30 5768 N 585.328 1.53329 -0.364422 0
M  V30 5769 C 586.576 2.00842 0.225189 0
M  V30 5770 C 586.897 1.25345 1.49378 0
M  V30 5771 O 586.167 0.366396 1.92443 0
M  V30 5772 H 584.747 0.742009 0.0862027 0
M  V30 5773 H 587.409 1.8863 -0.490389 0
M  V30 5774 H 586.505 3.08795 0.452987 0
M  V30 5775 N 586.806 0.0935595 1.57322 0
M  V30 5776 C 588.055 -0.570191 1.93473 0
M  V30 5777 C 588.368 -1.69434 0.977318 0
M  V30 5778 O 589.574 -2.41914 1.23248 0
M  V30 5779 C 588.03 -1.06564 3.43762 0
M  V30 5780 C 587.638 0.0286723 4.47991 0
M  V30 5781 C 589.382 -1.70221 3.88877 0
M  V30 5782 C 587.289 -0.482046 5.89432 0
M  V30 5783 H 586.219 -0.216764 0.72217 0
M  V30 5784 H 588.87 0.169313 1.82717 0
M  V30 5785 H 587.252 -1.85878 3.49664 0
M  V30 5786 H 588.426 0.804106 4.5373 0
M  V30 5787 H 586.741 0.570336 4.12476 0
M  V30 5788 H 589.338 -2.09502 4.91948 0
M  V30 5789 H 589.681 -2.57078 3.27439 0
M  V30 5790 H 590.214 -0.974919 3.85668 0
M  V30 5791 H 586.953 0.349871 6.54566 0
M  V30 5792 H 586.473 -1.22452 5.87167 0
M  V30 5793 H 588.152 -0.951508 6.39965 0
M  V30 5794 N 588.284 -1.56567 -0.180126 0
M  V30 5795 C 589.532 -1.81133 -0.896392 0
M  V30 5796 C 589.853 -0.669114 -1.83161 0
M  V30 5797 O 589.123 0.311616 -1.93406 0
M  V30 5798 H 587.703 -0.668172 -0.333999 0
M  V30 5799 H 590.365 -1.94048 -0.182051 0
M  V30 5800 H 589.461 -2.74854 -1.47857 0
M  V30 5801 N 589.762 0.448376 -1.51087 0
M  V30 5802 C 590.99 1.22143 -1.66999 0
M  V30 5803 C 591.405 1.85283 -0.362699 0
M  V30 5804 O 590.762 1.70236 0.65772 0
M  V30 5805 C 590.813 2.31357 -2.7777 0
M  V30 5806 O 590.534 1.70801 -4.03434 0
M  V30 5807 C 592.035 3.21836 -3.04855 0
M  V30 5808 H 589.255 0.368558 -0.560719 0
M  V30 5809 H 591.799 0.532618 -1.97442 0
M  V30 5810 H 589.954 2.95973 -2.49958 0
M  V30 5811 H 590.368 2.42895 -4.64868 0
M  V30 5812 H 591.842 3.94627 -3.85971 0
M  V30 5813 H 592.319 3.81949 -2.16821 0
M  V30 5814 H 592.925 2.62933 -3.34285 0
M  V30 5815 N 591.24 1.41047 0.703093 0
M  V30 5816 C 592.489 1.39301 1.4587 0
M  V30 5817 C 592.802 0.00267077 1.956 0
M  V30 5818 O 594.008 -0.137414 2.71152 0
M  V30 5819 C 592.464 2.44891 2.63735 0
M  V30 5820 C 592.072 3.89796 2.20824 0
M  V30 5821 C 593.816 2.5227 3.41409 0
M  V30 5822 C 591.723 4.86955 3.35602 0
M  V30 5823 H 590.653 0.518005 0.547893 0
M  V30 5824 H 593.304 1.66839 0.764009 0
M  V30 5825 H 591.686 2.10472 3.35436 0
M  V30 5826 H 592.86 4.33424 1.56461 0
M  V30 5827 H 591.175 3.86008 1.56163 0
M  V30 5828 H 593.772 3.22044 4.26839 0
M  V30 5829 H 594.115 1.55714 3.86081 0
M  V30 5830 H 594.648 2.85742 2.7676 0
M  V30 5831 H 591.387 5.84888 2.9595 0
M  V30 5832 H 590.907 4.47982 3.98839 0
M  V30 5833 H 592.586 5.07361 4.01489 0
M  V30 5834 N 592.718 -0.936591 1.26751 0
M  V30 5835 C 594.129 -1.49816 1.1141 0
M  V30 5836 C 594.48 -1.9383 -0.304015 0
M  V30 5837 O 593.605 -1.80346 -1.196 0
M  V30 5838 C 594.2 -2.72271 2.01629 0
M  V30 5839 C 592.759 -3.2468 1.9042 0
M  V30 5840 C 591.906 -1.97444 1.94708 0
M  V30 5841 H 594.857 -0.751604 1.39773 0
M  V30 5842 H 594.878 -3.46741 1.56688 0
M  V30 5843 H 594.39 -2.40205 3.04833 0
M  V30 5844 H 592.491 -3.61525 0.901674 0
M  V30 5845 H 592.604 -3.91476 2.76195 0
M  V30 5846 H 590.968 -2.13545 1.38818 0
M  V30 5847 H 591.751 -1.67703 2.9955 0
M  V30 5848 N 594.196 -1.08629 -1.14182 0
M  V30 5849 C 595.106 -0.730126 -2.22949 0
M  V30 5850 C 596.122 0.26436 -1.7198 0
M  V30 5851 O 597.298 0.107742 -2.01112 0
M  V30 5852 C 594.363 -0.147227 -3.46387 0
M  V30 5853 C 593.424 -1.19662 -4.12286 0
M  V30 5854 C 592.657 -0.641437 -5.29831 0
M  V30 5855 O 592.88 0.538351 -5.67854 0
M  V30 5856 O 591.814 -1.39257 -5.85569 0
M  V30 5857 H 595.64 -1.63753 -2.55771 0
M  V30 5858 H 593.225 -0.860118 -1.22157 0
M  V30 5859 H 595.107 0.174923 -4.21037 0
M  V30 5860 H 593.782 0.733304 -3.15285 0
M  V30 5861 H 592.689 -1.57133 -3.395 0
M  V30 5862 H 594.022 -2.0495 -4.475 0
M  V30 5863 N 595.674 1.31259 -0.872281 0
M  V30 5864 C 596.637 2.26744 -0.334656 0
M  V30 5865 C 597.637 1.52307 0.515681 0
M  V30 5866 O 598.827 1.71148 0.324656 0
M  V30 5867 C 595.959 3.36841 0.524482 0
M  V30 5868 H 597.152 2.75812 -1.17762 0
M  V30 5869 H 594.705 1.42232 -0.648064 0
M  V30 5870 H 595.44 2.93069 1.38855 0
M  V30 5871 H 595.225 3.92009 -0.0844299 0
M  V30 5872 H 596.715 4.07944 0.892838 0
M  V30 5873 N 597.152 0.631951 1.44375 0
M  V30 5874 C 598.392 0.14009 2.03919 0
M  V30 5875 C 598.756 -1.21534 1.48639 0
M  V30 5876 O 599.957 -1.79936 1.99691 0
M  V30 5877 C 598.228 0.127174 3.57174 0
M  V30 5878 S 599.787 -0.299946 4.37774 0
M  V30 5879 H 596.605 0.0614891 0.708336 0
M  V30 5880 H 599.207 0.835524 1.76746 0
M  V30 5881 H 597.911 1.11676 3.94913 0
M  V30 5882 H 597.442 -0.589482 3.88958 0
M  V30 5883 H 599.457 -1.54396 4.71568 0
M  V30 5884 N 598.631 -1.53133 0.372548 0
M  V30 5885 C 600.042 -1.86404 -0.105155 0
M  V30 5886 C 600.393 -1.29289 -1.47576 0
M  V30 5887 O 599.518 -0.617646 -2.07398 0
M  V30 5888 C 600.113 -3.38223 -0.197588 0
M  V30 5889 C 598.672 -3.71266 -0.619556 0
M  V30 5890 C 597.819 -2.76353 0.228919 0
M  V30 5891 H 600.77 -1.47282 0.591077 0
M  V30 5892 H 600.791 -3.66577 -1.01987 0
M  V30 5893 H 600.303 -3.79763 0.800099 0
M  V30 5894 H 598.404 -3.35287 -1.62522 0
M  V30 5895 H 598.517 -4.77515 -0.389332 0
M  V30 5896 H 596.881 -2.52888 -0.303271 0
M  V30 5897 H 597.664 -3.20728 1.22428 0
M  V30 5898 N 600.109 -0.101901 -1.5727 0
M  V30 5899 C 601.355 0.561027 -1.94885 0
M  V30 5900 C 601.688 1.6741 -0.984258 0
M  V30 5901 O 600.963 1.94491 -0.0184767 0
M  V30 5902 C 601.246 1.10982 -3.42571 0
M  V30 5903 C 601.099 0.00133418 -4.498 0
M  V30 5904 C 602.418 2.00608 -3.9172 0
M  V30 5905 H 599.537 0.202467 -0.708644 0
M  V30 5906 H 602.179 -0.173992 -1.89202 0
M  V30 5907 H 600.329 1.73621 -3.47546 0
M  V30 5908 H 602.001 -0.63322 -4.56933 0
M  V30 5909 H 600.244 -0.664143 -4.28686 0
M  V30 5910 H 600.915 0.426253 -5.50352 0
M  V30 5911 H 603.391 1.47864 -3.88941 0
M  V30 5912 H 602.267 2.3593 -4.95609 0
M  V30 5913 H 602.528 2.92608 -3.3141 0
M  V30 5914 N 601.587 1.56661 0.17182 0
M  V30 5915 C 603.003 1.50768 0.52357 0
M  V30 5916 C 603.203 0.806072 1.84675 0
M  V30 5917 O 602.259 0.366233 2.4983 0
M  V30 5918 C 603.572 2.955 0.556793 0
M  V30 5919 C 605.12 3.06303 0.644029 0
M  V30 5920 C 605.595 4.52492 0.708148 0
M  V30 5921 N 607.086 4.56737 0.771051 0
M  V30 5922 C 607.821 5.67196 0.841229 0
M  V30 5923 N 607.317 6.87287 0.872272 0
M  V30 5924 N 609.11 5.55165 0.88021 0
M  V30 5925 H 601.261 2.00679 -0.695817 0
M  V30 5926 H 603.524 0.914219 -0.250814 0
M  V30 5927 H 603.23 3.49986 -0.346774 0
M  V30 5928 H 603.104 3.50119 1.40346 0
M  V30 5929 H 605.491 2.51851 1.53802 0
M  V30 5930 H 605.572 2.5477 -0.229297 0
M  V30 5931 H 605.216 5.07575 -0.181585 0
M  V30 5932 H 605.146 5.01781 1.59761 0
M  V30 5933 H 607.637 3.70274 0.755364 0
M  V30 5934 H 607.95 7.6722 0.92698 0
M  V30 5935 H 606.295 6.89898 0.840557 0
M  V30 5936 H 609.486 4.60263 0.852956 0
M  V30 5937 H 609.659 6.41271 0.931439 0
M  V30 5938 N 603.065 -0.440357 1.51323 0
M  V30 5939 C 604.313 -1.18769 1.63518 0
M  V30 5940 C 604.634 -1.91793 0.352201 0
M  V30 5941 O 603.904 -1.85432 -0.631811 0
M  V30 5942 H 602.484 -0.441408 0.602634 0
M  V30 5943 H 605.146 -0.505162 1.8824 0
M  V30 5944 H 604.242 -1.91892 2.46138 0
M  V30 5945 N 604.543 -1.41418 -0.695603 0
M  V30 5946 C 605.768 -1.44329 -1.48942 0
M  V30 5947 C 606.193 -0.0501579 -1.88033 0
M  V30 5948 O 605.551 0.946598 -1.54626 0
M  V30 5949 C 605.599 -2.3578 -2.72837 0
M  V30 5950 O 604.703 -1.81482 -3.70322 0
M  V30 5951 H 604.044 -0.489838 -0.44828 0
M  V30 5952 H 606.574 -1.85878 -0.855014 0
M  V30 5953 H 606.584 -2.51654 -3.21145 0
M  V30 5954 H 605.259 -3.37005 -2.43722 0
M  V30 5955 H 603.836 -1.75058 -3.29255 0
M  V30 5956 N 606.021 0.929856 -1.27246 0
M  V30 5957 C 606.931 2.0636 -1.11592 0
M  V30 5958 C 607.947 1.73938 -0.046496 0
M  V30 5959 O 609.123 1.9981 -0.252544 0
M  V30 5960 C 606.188 3.38213 -0.762437 0
M  V30 5961 C 605.249 3.84346 -1.9125 0
M  V30 5962 C 604.482 5.09906 -1.57579 0
M  V30 5963 O 604.705 5.68354 -0.482694 0
M  V30 5964 O 603.639 5.51359 -2.41426 0
M  V30 5965 H 607.465 2.22478 -2.0673 0
M  V30 5966 H 605.05 1.04865 -1.06413 0
M  V30 5967 H 606.932 4.1741 -0.57854 0
M  V30 5968 H 605.607 3.23307 0.159439 0
M  V30 5969 H 604.514 3.06045 -2.15144 0
M  V30 5970 H 605.847 4.0379 -2.81451 0
M  V30 5971 N 607.499 1.09233 1.13605 0
M  V30 5972 C 608.409 0.741939 2.22559 0
M  V30 5973 C 609.425 -0.255236 1.72118 0
M  V30 5974 O 610.601 -0.0970747 2.01166 0
M  V30 5975 C 607.666 0.165595 3.46304 0
M  V30 5976 C 606.727 1.21846 4.11645 0
M  V30 5977 C 605.96 0.669526 5.29484 0
M  V30 5978 O 606.183 -0.508228 5.68131 0
M  V30 5979 O 605.117 1.42361 5.84822 0
M  V30 5980 H 608.943 1.65107 2.54899 0
M  V30 5981 H 606.528 0.866584 1.21699 0
M  V30 5982 H 608.41 -0.152592 4.21124 0
M  V30 5983 H 607.085 -0.716573 3.15669 0
M  V30 5984 H 605.992 1.58931 3.38662 0
M  V30 5985 H 607.325 2.07321 4.46407 0
M  V30 5986 N 608.977 -1.30795 0.87923 0
M  V30 5987 C 610.207 -2.00237 0.50881 0
M  V30 5988 C 610.615 -1.66115 -0.905682 0
M  V30 5989 O 609.958 -0.89138 -1.60624 0
M  V30 5990 C 610.02 -3.54508 0.597003 0
M  V30 5991 C 609.684 -4.12131 1.97477 0
M  V30 5992 C 610.681 -4.28552 2.94346 0
M  V30 5993 C 608.366 -4.47644 2.2786 0
M  V30 5994 C 610.36 -4.79689 4.19735 0
M  V30 5995 C 608.047 -4.98481 3.53496 0
M  V30 5996 C 609.045 -5.14456 4.49248 0
M  V30 5997 O 608.733 -5.64199 5.72656 0
M  V30 5998 H 608.465 -0.647026 0.195788 0
M  V30 5999 H 611.019 -1.67785 1.1848 0
M  V30 6000 H 609.249 -3.86461 -0.135945 0
M  V30 6001 H 610.938 -4.05198 0.238684 0
M  V30 6002 H 611.704 -4.01424 2.72183 0
M  V30 6003 H 607.583 -4.34481 1.54102 0
M  V30 6004 H 611.127 -4.92073 4.9448 0
M  V30 6005 H 607.024 -5.25044 3.75498 0
M  V30 6006 H 607.792 -5.82551 5.74957 0
M  V30 6007 N 610.455 -0.639598 -1.44038 0
M  V30 6008 C 611.871 -0.305953 -1.5664 0
M  V30 6009 C 612.071 1.19055 -1.62567 0
M  V30 6010 O 611.127 1.97492 -1.57331 0
M  V30 6011 C 612.44 -1.00533 -2.83397 0
M  V30 6012 C 613.988 -0.984278 -2.97121 0
M  V30 6013 C 614.463 -1.66428 -4.26691 0
M  V30 6014 N 615.954 -1.63127 -4.33525 0
M  V30 6015 C 616.689 -2.12629 -5.32519 0
M  V30 6016 N 616.185 -2.70359 -6.3787 0
M  V30 6017 N 617.978 -2.03208 -5.24083 0
M  V30 6018 H 610.129 -1.6109 -1.38434 0
M  V30 6019 H 612.392 -0.676672 -0.663942 0
M  V30 6020 H 612.098 -2.06034 -2.85032 0
M  V30 6021 H 611.972 -0.548362 -3.73193 0
M  V30 6022 H 614.359 0.0622792 -2.95034 0
M  V30 6023 H 614.44 -1.47981 -2.08651 0
M  V30 6024 H 614.084 -2.71034 -4.29538 0
M  V30 6025 H 614.014 -1.14351 -5.14034 0
M  V30 6026 H 616.505 -1.20987 -3.58009 0
M  V30 6027 H 616.818 -3.05842 -7.09704 0
M  V30 6028 H 615.163 -2.74414 -6.38531 0
M  V30 6029 H 618.354 -1.57823 -4.40692 0
M  V30 6030 H 618.527 -2.42097 -6.01077 0
M  V30 6031 N 611.933 1.52934 -0.380664 0
M  V30 6032 C 613.349 1.59571 -0.0302429 0
M  V30 6033 C 613.549 1.39509 1.45394 0
M  V30 6034 O 612.605 1.20777 2.21741 0
M  V30 6035 C 613.918 2.96519 -0.499691 0
M  V30 6036 C 615.466 3.09672 -0.455204 0
M  V30 6037 C 615.941 4.49056 -0.900703 0
M  V30 6038 N 617.432 4.55215 -0.856367 0
M  V30 6039 C 618.167 5.61282 -1.17259 0
M  V30 6040 N 617.663 6.75035 -1.55885 0
M  V30 6041 N 619.456 5.51343 -1.0944 0
M  V30 6042 H 611.607 1.64224 -1.347 0
M  V30 6043 H 613.87 0.771033 -0.551554 0
M  V30 6044 H 613.576 3.16388 -1.53595 0
M  V30 6045 H 613.45 3.77052 0.105789 0
M  V30 6046 H 615.837 2.89504 0.571949 0
M  V30 6047 H 615.918 2.31113 -1.09638 0
M  V30 6048 H 615.562 4.69964 -1.92604 0
M  V30 6049 H 615.492 5.26068 -0.236629 0
M  V30 6050 H 617.983 3.73546 -0.572013 0
M  V30 6051 H 618.296 7.51926 -1.784 0
M  V30 6052 H 616.641 6.76388 -1.59764 0
M  V30 6053 H 619.832 4.61356 -0.791713 0
M  V30 6054 H 620.005 6.33905 -1.34417 0
M  V30 6055 N 613.412 0.11024 1.57214 0
M  V30 6056 C 614.342 -0.840002 2.17867 0
M  V30 6057 C 615.323 -1.28352 1.11624 0
M  V30 6058 O 616.508 -1.3477 1.39824 0
M  V30 6059 C 613.638 -2.09349 2.77111 0
M  V30 6060 C 612.592 -1.78807 3.8886 0
M  V30 6061 C 611.918 -3.11112 4.34872 0
M  V30 6062 C 613.218 -1.0632 5.11364 0
M  V30 6063 H 614.912 -0.334608 2.97524 0
M  V30 6064 H 612.458 -0.159502 1.43114 0
M  V30 6065 H 614.411 -2.76275 3.18198 0
M  V30 6066 H 613.135 -2.62198 1.9473 0
M  V30 6067 H 611.794 -1.14273 3.48335 0
M  V30 6068 H 611.442 -3.61877 3.49362 0
M  V30 6069 H 611.142 -2.91453 5.10224 0
M  V30 6070 H 612.666 -3.79171 4.78604 0
M  V30 6071 H 614.08 -1.63383 5.49526 0
M  V30 6072 H 612.477 -0.967876 5.92243 0
M  V30 6073 H 613.547 -0.0484569 4.84876 0
M  V30 6074 N 614.89 -1.56749 -0.16351 0
M  V30 6075 C 616.13 -1.84234 -0.885271 0
M  V30 6076 C 616.494 -0.692259 -1.79086 0
M  V30 6077 O 617.695 -0.847747 -2.55082 0
M  V30 6078 C 615.966 -3.16857 -1.65337 0
M  V30 6079 S 617.525 -3.65848 -2.42282 0
M  V30 6080 H 614.343 -0.646293 -0.296354 0
M  V30 6081 H 616.945 -1.94951 -0.146365 0
M  V30 6082 H 615.649 -3.98546 -0.979266 0
M  V30 6083 H 615.18 -3.09102 -2.4335 0
M  V30 6084 H 617.195 -3.33796 -3.67143 0
M  V30 6085 N 616.368 0.432326 -1.51554 0
M  V30 6086 C 617.301 1.54525 -1.6792 0
M  V30 6087 C 618.279 1.53831 -0.526764 0
M  V30 6088 O 619.463 1.72884 -0.751233 0
M  V30 6089 C 616.59 2.931 -1.69736 0
M  V30 6090 C 615.636 3.11799 -2.91005 0
M  V30 6091 S 616.469 2.87565 -4.51737 0
M  V30 6092 C 617.625 4.28412 -4.56305 0
M  V30 6093 H 617.858 1.4041 -2.62054 0
M  V30 6094 H 615.391 0.622357 -1.41301 0
M  V30 6095 H 617.349 3.72974 -1.71467 0
M  V30 6096 H 616.01 3.04574 -0.767705 0
M  V30 6097 H 615.203 4.13127 -2.8869 0
M  V30 6098 H 614.805 2.39757 -2.87041 0
M  V30 6099 H 617.097 5.21692 -4.32254 0
M  V30 6100 H 618.04 4.35758 -5.58141 0
M  V30 6101 H 618.448 4.12301 -3.85576 0
M  V30 6102 N 617.846 1.41785 0.688094 0
M  V30 6103 C 619.123 1.32031 1.44316 0
M  V30 6104 C 619.503 -0.0486079 2.11044 0
M  V30 6105 O 618.851 -1.06332 2.02252 0
M  V30 6106 C 619.061 2.47906 2.45649 0
M  V30 6107 C 620.409 2.89415 3.10683 0
M  V30 6108 O 621.433 2.477 2.55975 0
M  V30 6109 O 620.292 3.61573 4.09789 0
M  V30 6110 H 617.386 0.519994 0.643067 0
M  V30 6111 H 619.932 1.53765 0.71794 0
M  V30 6112 H 618.704 3.39222 1.95048 0
M  V30 6113 H 618.327 2.28089 3.25671 0
M  V30 6114 N 619.324 -0.923095 1.27737 0
M  V30 6115 C 620.572 -1.66797 1.14119 0
M  V30 6116 C 620.893 -1.92479 -0.312541 0
M  V30 6117 O 620.163 -1.53432 -1.218 0
M  V30 6118 H 618.743 -0.618196 0.419336 0
M  V30 6119 H 621.405 -1.10815 1.60331 0
M  V30 6120 H 620.501 -2.63424 1.67374 0
M  V30 6121 N 620.802 -1.09834 -1.13024 0
M  V30 6122 C 621.732 -0.763451 -2.20666 0
M  V30 6123 C 622.713 0.260778 -1.68089 0
M  V30 6124 O 623.898 0.127915 -1.93778 0
M  V30 6125 C 621.028 -0.187744 -3.46792 0
M  V30 6126 C 619.982 -1.14196 -4.12484 0
M  V30 6127 C 619.308 -0.427755 -5.32986 0
M  V30 6128 C 620.608 -2.48607 -4.59338 0
M  V30 6129 H 622.302 -1.66347 -2.48936 0
M  V30 6130 H 619.848 -0.801261 -1.19649 0
M  V30 6131 H 621.801 0.0586375 -4.21359 0
M  V30 6132 H 620.525 0.747485 -3.17931 0
M  V30 6133 H 619.184 -1.37369 -3.3989 0
M  V30 6134 H 618.832 0.511747 -5.0039 0
M  V30 6135 H 618.532 -1.06403 -5.77886 0
M  V30 6136 H 620.056 -0.189772 -6.10305 0
M  V30 6137 H 621.47 -2.29618 -5.25308 0
M  V30 6138 H 619.867 -3.08062 -5.14993 0
M  V30 6139 H 620.937 -3.09062 -3.73642 0
M  V30 6140 N 622.28 1.30327 -0.886154 0
M  V30 6141 C 623.691 1.78243 -0.555554 0
M  V30 6142 C 624.042 1.72849 0.928314 0
M  V30 6143 O 623.167 1.30607 1.72542 0
M  V30 6144 C 623.762 3.23654 -1.00168 0
M  V30 6145 C 622.321 3.69401 -0.722471 0
M  V30 6146 C 621.468 2.50753 -1.18399 0
M  V30 6147 H 624.419 1.1718 -1.07026 0
M  V30 6148 H 624.44 3.79056 -0.331152 0
M  V30 6149 H 623.952 3.27548 -2.08169 0
M  V30 6150 H 622.053 3.70995 0.345496 0
M  V30 6151 H 622.166 4.60818 -1.31085 0
M  V30 6152 H 620.53 2.47452 -0.603303 0
M  V30 6153 H 621.313 2.57383 -2.27176 0
M  V30 6154 N 623.758 0.647228 1.43697 0
M  V30 6155 C 624.691 -0.097646 2.27991 0
M  V30 6156 C 625.669 -0.83571 1.3948 0
M  V30 6157 O 626.853 -0.836509 1.68922 0
M  V30 6158 C 623.98 -1.14484 3.18765 0
M  V30 6159 C 623.026 -0.505503 4.23494 0
M  V30 6160 S 623.859 0.716471 5.30685 0
M  V30 6161 C 625.015 -0.330339 6.25028 0
M  V30 6162 H 625.248 0.617417 2.90818 0
M  V30 6163 H 622.781 0.435881 1.4812 0
M  V30 6164 H 624.739 -1.74403 3.7161 0
M  V30 6165 H 623.4 -1.83219 2.55127 0
M  V30 6166 H 622.593 -1.29473 4.87086 0
M  V30 6167 H 622.195 0.0194377 3.73995 0
M  V30 6168 H 624.487 -1.19828 6.66819 0
M  V30 6169 H 625.43 0.270409 7.07583 0
M  V30 6170 H 625.838 -0.663459 5.60588 0
M  V30 6171 N 625.236 -1.5273 0.388769 0
M  V30 6172 C 626.484 -2.01174 -0.193208 0
M  V30 6173 C 626.805 -1.27705 -1.47365 0
M  V30 6174 O 626.075 -0.396966 -1.91836 0
M  V30 6175 H 624.655 -0.743287 -0.0743871 0
M  V30 6176 H 627.317 -1.87826 0.520336 0
M  V30 6177 H 626.413 -3.09477 -0.403803 0
M  V30 6178 N 626.714 -0.118576 -1.57153 0
M  V30 6179 C 627.962 0.538461 -1.94795 0
M  V30 6180 C 628.283 1.67243 -1.00274 0
M  V30 6181 O 627.553 1.95811 -0.0589692 0
M  V30 6182 H 626.133 0.201904 -0.719197 0
M  V30 6183 H 628.795 -0.187418 -1.93997 0
M  V30 6184 H 627.891 0.933315 -2.97818 0
M  V30 6185 N 628.193 1.56834 0.155195 0
M  V30 6186 C 629.442 1.82088 0.867567 0
M  V30 6187 C 629.755 0.69849 1.82703 0
M  V30 6188 O 630.961 0.836407 2.58295 0
M  V30 6189 C 629.417 3.22707 1.59336 0
M  V30 6190 C 629.025 4.42859 0.676719 0
M  V30 6191 C 630.769 3.57242 2.293 0
M  V30 6192 C 628.676 5.74501 1.40367 0
M  V30 6193 H 627.606 0.679057 0.327715 0
M  V30 6194 H 630.257 1.83105 0.120351 0
M  V30 6195 H 628.639 3.16054 2.38591 0
M  V30 6196 H 629.813 4.60731 -0.0800196 0
M  V30 6197 H 628.128 4.16311 0.0859129 0
M  V30 6198 H 630.725 4.52847 2.84312 0
M  V30 6199 H 631.068 2.82901 3.05406 0
M  V30 6200 H 631.601 3.6552 1.56972 0
M  V30 6201 H 628.34 6.51915 0.684623 0
M  V30 6202 H 627.86 5.60579 2.13332 0
M  V30 6203 H 629.539 6.17016 1.94681 0
M  V30 6204 N 629.671 -0.424282 1.51781 0
M  V30 6205 C 631.082 -1.00368 1.57427 0
M  V30 6206 C 631.433 -1.91962 0.40558 0
M  V30 6207 O 630.558 -2.111 -0.47601 0
M  V30 6208 C 631.153 -1.82707 2.85313 0
M  V30 6209 C 629.712 -2.35675 2.93487 0
M  V30 6210 C 628.859 -1.1524 2.5222 0
M  V30 6211 H 631.81 -0.205064 1.5737 0
M  V30 6212 H 631.831 -2.68294 2.69812 0
M  V30 6213 H 631.343 -1.16017 3.70353 0
M  V30 6214 H 629.444 -3.05781 2.12906 0
M  V30 6215 H 629.557 -2.67578 3.97415 0
M  V30 6216 H 627.921 -1.50174 2.05718 0
M  V30 6217 H 628.704 -0.5014 3.39619 0
M  V30 6218 N 631.149 -1.42148 -0.680565 0
M  V30 6219 C 632.397 -1.42029 -1.43779 0
M  V30 6220 C 632.718 -0.0356347 -1.94967 0
M  V30 6221 O 631.988 0.924936 -1.7269 0
M  V30 6222 H 630.568 -0.522835 -0.533529 0
M  V30 6223 H 633.23 -1.7752 -0.804538 0
M  V30 6224 H 632.326 -2.11658 -2.29363 0
M  V30 6225 N 632.627 0.916307 -1.28225 0
M  V30 6226 C 633.852 1.7043 -1.18188 0
M  V30 6227 C 634.277 1.86346 0.256274 0
M  V30 6228 O 633.635 1.37175 1.18544 0
M  V30 6229 C 633.683 3.07546 -1.88275 0
M  V30 6230 O 632.787 3.94904 -1.18848 0
M  V30 6231 H 632.128 0.521967 -0.410423 0
M  V30 6232 H 634.658 1.14589 -1.69501 0
M  V30 6233 H 634.668 3.57793 -1.96082 0
M  V30 6234 H 633.343 2.95279 -2.92887 0
M  V30 6235 H 631.92 3.53339 -1.19187 0
M  V30 6236 N 634.105 1.10431 1.1244 0
M  V30 6237 C 635.068 0.756542 2.16354 0
M  V30 6238 C 636.068 -0.21899 1.59302 0
M  V30 6239 O 637.258 0.00415969 1.742 0
M  V30 6240 C 634.39 0.120612 3.40687 0
M  V30 6241 H 635.583 1.67696 2.48632 0
M  V30 6242 H 633.136 0.904832 1.27446 0
M  V30 6243 H 633.871 -0.810536 3.14008 0
M  V30 6244 H 633.656 0.822693 3.83372 0
M  V30 6245 H 635.146 -0.106945 4.17463 0
M  V30 6246 N 635.583 -1.29855 0.893053 0
M  V30 6247 C 636.831 -1.9544 0.514566 0
M  V30 6248 C 637.152 -1.70795 -0.940959 0
M  V30 6249 O 636.422 -1.03601 -1.66264 0
M  V30 6250 H 635.002 -0.723137 0.187302 0
M  V30 6251 H 637.664 -1.58234 1.13789 0
M  V30 6252 H 636.76 -3.04341 0.691581 0
M  V30 6253 N 637.061 -0.65484 -1.43351 0
M  V30 6254 C 638.286 -0.175046 -2.0666 0
M  V30 6255 C 638.711 1.15104 -1.4877 0
M  V30 6256 O 638.069 1.71144 -0.598279 0
M  V30 6257 C 638.117 -0.0991544 -3.60464 0
M  V30 6258 O 637.221 0.938169 -4.01587 0
M  V30 6259 H 636.562 -0.0956148 -0.65708 0
M  V30 6260 H 639.092 -0.898222 -1.83829 0
M  V30 6261 H 639.102 0.083632 -4.07914 0
M  V30 6262 H 637.777 -1.06719 -4.01975 0
M  V30 6263 H 636.354 0.72804 -3.65724 0
M  V30 6264 N 638.539 1.52521 -0.396863 0
M  V30 6265 C 639.955 1.5953 -0.0471659 0
M  V30 6266 C 640.155 1.41044 1.43906 0
M  V30 6267 O 639.211 1.23122 2.20448 0
M  V30 6268 C 640.524 2.95972 -0.531113 0
M  V30 6269 C 642.072 3.09172 -0.488024 0
M  V30 6270 C 642.547 4.48075 -0.948281 0
M  V30 6271 N 644.038 4.54281 -0.9046 0
M  V30 6272 C 644.773 5.60007 -1.23205 0
M  V30 6273 N 644.269 6.73343 -1.63036 0
M  V30 6274 N 646.062 5.50151 -1.15282 0
M  V30 6275 H 638.213 1.62786 -1.36435 0
M  V30 6276 H 640.476 0.76514 -0.559701 0
M  V30 6277 H 640.182 3.14741 -1.56942 0
M  V30 6278 H 640.056 3.77143 0.0657922 0
M  V30 6279 H 642.443 2.90095 0.541211 0
M  V30 6280 H 642.524 2.29937 -1.12083 0
M  V30 6281 H 642.168 4.67894 -1.97578 0
M  V30 6282 H 642.098 5.25788 -0.292412 0
M  V30 6283 H 644.589 3.72918 -0.6116 0
M  V30 6284 H 644.902 7.49992 -1.86365 0
M  V30 6285 H 643.247 6.74655 -1.66929 0
M  V30 6286 H 646.438 4.6049 -0.840602 0
M  V30 6287 H 646.611 6.32444 -1.41133 0
M  V30 6288 N 640.017 0.126909 1.57088 0
M  V30 6289 C 641.428 -0.397201 1.82426 0
M  V30 6290 C 641.779 -1.66084 1.04453 0
M  V30 6291 O 640.904 -2.14534 0.283552 0
M  V30 6292 C 641.499 -0.727411 3.30899 0
M  V30 6293 C 640.058 -1.19612 3.56889 0
M  V30 6294 C 639.205 -0.20885 2.76512 0
M  V30 6295 H 642.156 0.351924 1.54749 0
M  V30 6296 H 642.177 -1.58407 3.45959 0
M  V30 6297 H 641.689 0.19247 3.87622 0
M  V30 6298 H 639.79 -2.13263 3.05532 0
M  V30 6299 H 639.903 -1.13598 4.65438 0
M  V30 6300 H 638.267 -0.697479 2.44964 0
M  V30 6301 H 639.05 0.704267 3.35998 0
M  V30 6302 N 641.495 -1.56914 -0.146875 0
M  V30 6303 C 642.743 -1.82994 -0.85777 0
M  V30 6304 C 643.064 -0.707814 -1.817 0
M  V30 6305 O 642.334 0.270521 -1.94023 0
M  V30 6306 H 640.914 -0.675106 -0.319751 0
M  V30 6307 H 643.576 -1.9439 -0.140849 0
M  V30 6308 H 642.672 -2.77928 -1.41994 0
M  V30 6309 N 642.974 0.416227 -1.52004 0
M  V30 6310 C 644.222 1.16153 -1.65387 0
M  V30 6311 C 644.543 1.91208 -0.382669 0
M  V30 6312 O 643.813 1.86413 0.602231 0
M  V30 6313 H 642.393 0.431765 -0.60958 0
M  V30 6314 H 645.055 0.475151 -1.89019 0
M  V30 6315 H 644.151 1.87952 -2.4916 0
M  V30 6316 N 644.452 1.42507 0.673017 0
M  V30 6317 C 645.68 1.46473 1.46128 0
M  V30 6318 C 646.095 0.0765912 1.88645 0
M  V30 6319 O 645.452 -0.909057 1.58248 0
M  V30 6320 C 645.503 2.39339 2.70923 0
M  V30 6321 O 645.224 3.72752 2.3019 0
M  V30 6322 C 646.725 2.52343 3.64469 0
M  V30 6323 H 643.945 0.49812 0.449575 0
M  V30 6324 H 646.489 1.87041 0.826802 0
M  V30 6325 H 644.644 2.02019 3.30556 0
M  V30 6326 H 645.058 4.22503 3.10791 0
M  V30 6327 H 646.532 3.2144 4.48754 0
M  V30 6328 H 647.009 1.56189 4.1049 0
M  V30 6329 H 647.615 2.90392 3.10729 0
M  V30 6330 N 645.93 -0.909495 1.28709 0
M  V30 6331 C 647.178 -1.65577 1.15882 0
M  V30 6332 C 647.499 -1.928 -0.292108 0
M  V30 6333 O 646.769 -1.54716 -1.20166 0
M  V30 6334 H 645.349 -0.613714 0.425869 0
M  V30 6335 H 648.011 -1.09108 1.61498 0
M  V30 6336 H 647.107 -2.61634 1.70159 0
M  V30 6337 N 647.408 -1.11026 -1.11852 0
M  V30 6338 C 648.656 -0.854769 -1.83134 0
M  V30 6339 C 648.977 0.621375 -1.84835 0
M  V30 6340 O 648.247 1.45129 -1.31584 0
M  V30 6341 H 646.827 -0.313229 -0.678157 0
M  V30 6342 H 649.489 -1.40178 -1.35411 0
M  V30 6343 H 648.585 -1.22311 -2.87135 0
M  V30 6344 N 648.886 1.2938 -0.899927 0
M  V30 6345 C 649.834 2.29675 -0.367698 0
M  V30 6346 C 650.828 1.60787 0.533282 0
M  V30 6347 O 652.034 1.75126 0.416058 0
M  V30 6348 H 648.409 0.745284 -0.100279 0
M  V30 6349 H 650.38 2.72008 -1.22696 0
M  V30 6350 C 649.129 3.45512 0.389483 0
M  V30 6351 H 648.452 3.98713 -0.294575 0
M  V30 6352 H 649.892 4.17725 0.726744 0
M  V30 6353 C 648.351 2.969 1.59223 0
M  V30 6354 O 648.881 2.98195 2.69152 0
M  V30 6355 N 647.087 2.52728 1.43447 0
M  V30 6356 H 646.634 2.51873 0.540148 0
M  V30 6357 H 646.592 2.20561 2.24054 0
M  V30 6358 N 650.364 0.662433 1.43002 0
M  V30 6359 C 651.612 0.179237 2.01304 0
M  V30 6360 C 651.933 -1.21428 1.52579 0
M  V30 6361 O 651.203 -1.81294 0.742252 0
M  V30 6362 H 649.783 0.0632725 0.744316 0
M  V30 6363 H 652.445 0.856169 1.75088 0
M  V30 6364 H 651.541 0.170957 3.11631 0
M  V30 6365 N 651.842 -1.52309 0.404946 0
M  V30 6366 C 653.089 -2.01767 -0.1722 0
M  V30 6367 C 653.417 -1.29075 -1.45498 0
M  V30 6368 O 652.672 -0.3843 -1.9189 0
M  V30 6369 C 652.971 -3.54284 -0.470895 0
M  V30 6370 C 652.637 -4.45079 0.722194 0
M  V30 6371 C 651.299 -4.69617 1.04946 0
M  V30 6372 C 653.651 -4.98555 1.51962 0
M  V30 6373 C 650.979 -5.44878 2.17543 0
M  V30 6374 C 653.331 -5.75049 2.63632 0
M  V30 6375 C 651.995 -5.9786 2.9685 0
M  V30 6376 H 651.265 -0.738316 -0.0630125 0
M  V30 6377 H 653.912 -1.83566 0.545506 0
M  V30 6378 H 652.217 -3.70642 -1.27012 0
M  V30 6379 H 653.914 -3.90058 -0.930346 0
M  V30 6380 H 650.504 -4.26155 0.457131 0
M  V30 6381 H 654.688 -4.79509 1.28002 0
M  V30 6382 H 649.944 -5.60762 2.43631 0
M  V30 6383 H 654.118 -6.15483 3.25813 0
M  V30 6384 H 651.745 -6.5596 3.84215 0
M  V30 6385 N 653.32 -0.135238 -1.57019 0
M  V30 6386 C 654.283 0.794707 -2.14981 0
M  V30 6387 C 655.283 1.18342 -1.08866 0
M  V30 6388 O 656.473 1.10627 -1.34563 0
M  V30 6389 C 653.605 2.07685 -2.70333 0
M  V30 6390 H 654.798 0.290696 -2.98488 0
M  V30 6391 H 652.351 0.114128 -1.55883 0
M  V30 6392 H 653.086 2.6248 -1.9046 0
M  V30 6393 H 652.871 1.80745 -3.47957 0
M  V30 6394 H 654.361 2.74127 -3.1503 0
M  V30 6395 N 654.798 1.5699 0.138552 0
M  V30 6396 C 656.209 1.73171 0.697754 0
M  V30 6397 C 656.56 0.750952 1.8126 0
M  V30 6398 O 655.685 -0.080549 2.1625 0
M  V30 6399 C 656.28 3.13996 1.27248 0
M  V30 6400 C 654.839 3.3175 1.77816 0
M  V30 6401 C 653.986 2.69084 0.669991 0
M  V30 6402 H 656.937 1.5846 -0.0871979 0
M  V30 6403 H 656.958 3.14463 2.14227 0
M  V30 6404 H 656.47 3.85354 0.460855 0
M  V30 6405 H 654.571 2.65403 2.61519 0
M  V30 6406 H 654.684 4.39768 1.90107 0
M  V30 6407 H 653.048 2.29782 1.09874 0
M  V30 6408 H 653.831 3.43053 -0.130329 0
M  V30 6409 N 656.276 -0.40816 1.52223 0
M  V30 6410 C 657.501 -1.18127 1.70472 0
M  V30 6411 C 657.926 -1.83491 0.41384 0
M  V30 6412 O 657.284 -1.70047 -0.628778 0
M  V30 6413 C 657.332 -2.21935 2.84213 0
M  V30 6414 O 656.436 -3.28099 2.4985 0
M  V30 6415 H 655.777 -0.344781 0.56747 0
M  V30 6416 H 658.307 -0.478328 1.9893 0
M  V30 6417 H 658.317 -2.66248 3.09153 0
M  V30 6418 H 656.992 -1.73744 3.7787 0
M  V30 6419 H 655.569 -2.89058 2.35584 0
M  V30 6420 N 657.755 -1.42862 -0.66545 0
M  V30 6421 C 659.003 -1.43546 -1.42264 0
M  V30 6422 C 659.324 -0.0563116 -1.94919 0
M  V30 6423 O 658.594 0.906568 -1.73661 0
M  V30 6424 H 657.174 -0.528464 -0.527953 0
M  V30 6425 H 659.836 -1.78363 -0.785665 0
M  V30 6426 H 658.932 -2.14079 -2.27105 0
M  V30 6427 N 659.233 0.902656 -1.29189 0
M  V30 6428 C 660.181 2.0278 -1.13943 0
M  V30 6429 C 661.175 1.69308 -0.055787 0
M  V30 6430 O 662.381 1.78707 -0.215371 0
M  V30 6431 H 658.756 0.664595 -0.351877 0
M  V30 6432 H 660.727 2.12778 -2.09208 0
M  V30 6433 C 659.476 3.37657 -0.82966 0
M  V30 6434 H 658.799 3.63913 -1.65551 0
M  V30 6435 H 660.239 4.17078 -0.762998 0
M  V30 6436 C 658.698 3.33648 0.466991 0
M  V30 6437 O 659.228 3.72886 1.49395 0
M  V30 6438 N 657.434 2.86745 0.471761 0
M  V30 6439 H 656.981 2.55009 -0.364406 0
M  V30 6440 H 656.939 2.84446 1.33933 0
M  V30 6441 N 660.711 1.11618 1.11262 0
M  V30 6442 C 661.959 0.864469 1.82678 0
M  V30 6443 C 662.28 -0.611564 1.85162 0
M  V30 6444 O 661.55 -1.44429 1.32352 0
M  V30 6445 H 660.13 0.316821 0.676486 0
M  V30 6446 H 662.792 1.40894 1.34666 0
M  V30 6447 H 661.888 1.23832 2.86482 0
M  V30 6448 N 662.189 -1.289 0.906776 0
M  V30 6449 C 663.137 -2.29477 0.379873 0
M  V30 6450 C 664.131 -1.61068 -0.524747 0
M  V30 6451 O 665.337 -1.75344 -0.406765 0
M  V30 6452 H 661.712 -0.744742 0.10423 0
M  V30 6453 H 663.683 -2.71353 1.24137 0
M  V30 6454 C 662.432 -3.45713 -0.371154 0
M  V30 6455 H 661.755 -3.98551 0.315716 0
M  V30 6456 H 663.195 -4.18105 -0.704581 0
M  V30 6457 C 661.654 -2.9774 -1.57646 0
M  V30 6458 O 662.184 -2.99618 -2.67567 0
M  V30 6459 N 660.39 -2.53485 -1.42105 0
M  V30 6460 H 659.937 -2.52156 -0.526783 0
M  V30 6461 H 659.895 -2.21747 -2.22881 0
M  V30 6462 N 663.667 -0.670007 -1.42649 0
M  V30 6463 C 664.915 -0.18991 -2.01206 0
M  V30 6464 C 665.236 1.20617 -1.53221 0
M  V30 6465 O 664.506 1.80898 -0.751856 0
M  V30 6466 H 663.086 -0.0672189 -0.743969 0
M  V30 6467 H 665.748 -0.865442 -1.74631 0
M  V30 6468 H 664.844 -0.187481 -3.11536 0
M  V30 6469 N 665.145 1.52092 -0.413018 0
M  V30 6470 C 666.375 2.05974 0.160648 0
M  V30 6471 C 666.783 1.28267 1.39084 0
M  V30 6472 O 666.126 0.328805 1.80733 0
M  V30 6473 C 666.188 3.54918 0.572169 0
M  V30 6474 C 665.852 4.53705 -0.547826 0
M  V30 6475 C 666.849 5.00342 -1.41259 0
M  V30 6476 C 664.534 4.97089 -0.721627 0
M  V30 6477 C 666.528 5.89011 -2.43607 0
M  V30 6478 C 664.215 5.85554 -1.74841 0
M  V30 6479 C 665.213 6.3141 -2.60403 0
M  V30 6480 O 664.901 7.18123 -3.61323 0
M  V30 6481 H 664.633 0.675636 0.0221936 0
M  V30 6482 H 667.187 1.96931 -0.58373 0
M  V30 6483 H 665.417 3.61661 1.36889 0
M  V30 6484 H 667.106 3.91428 1.0742 0
M  V30 6485 H 667.872 4.67537 -1.28974 0
M  V30 6486 H 663.751 4.60954 -0.0652911 0
M  V30 6487 H 667.295 6.24725 -3.10425 0
M  V30 6488 H 663.192 6.17773 -1.87156 0
M  V30 6489 H 663.96 7.36244 -3.57613 0
M  V30 6490 N 666.623 0.143563 1.56945 0
M  V30 6491 C 667.871 -0.507402 1.95627 0
M  V30 6492 C 668.192 -1.65626 1.02922 0
M  V30 6493 O 667.462 -1.95693 0.0901136 0
M  V30 6494 H 666.042 -0.190436 0.722318 0
M  V30 6495 H 668.704 0.218257 1.93674 0
M  V30 6496 H 667.8 -0.885816 2.99265 0
M  V30 6497 N 668.101 -1.57061 -0.130224 0
M  V30 6498 C 669.512 -1.73539 -0.68856 0
M  V30 6499 C 669.863 -0.760554 -1.80859 0
M  V30 6500 O 668.988 0.0690796 -2.1629 0
M  V30 6501 C 669.583 -3.14666 -1.25581 0
M  V30 6502 C 668.142 -3.32689 -1.76055 0
M  V30 6503 C 667.289 -2.69436 -0.655712 0
M  V30 6504 H 670.24 -1.58412 0.0956002 0
M  V30 6505 H 670.261 -3.15595 -2.12556 0
M  V30 6506 H 669.773 -3.85593 -0.440412 0
M  V30 6507 H 667.874 -2.66786 -2.60108 0
M  V30 6508 H 667.987 -4.4077 -1.87772 0
M  V30 6509 H 666.351 -2.30362 -1.08654 0
M  V30 6510 H 667.134 -3.42979 0.14852 0
M  V30 6511 N 669.579 0.400081 -1.52437 0
M  V30 6512 C 670.827 1.14392 -1.6661 0
M  V30 6513 C 671.148 1.90792 -0.402927 0
M  V30 6514 O 670.418 1.87042 0.582425 0
M  V30 6515 H 668.998 0.425275 -0.614125 0
M  V30 6516 H 671.66 0.455076 -1.89513 0
M  V30 6517 H 670.756 1.85298 -2.51139 0
M  V30 6518 N 671.057 1.43213 0.657864 0
M  V30 6519 C 672.305 1.44298 1.41501 0
M  V30 6520 C 672.626 0.0666478 1.94886 0
M  V30 6521 O 671.896 -0.897345 1.74139 0
M  V30 6522 H 670.476 0.531257 0.525143 0
M  V30 6523 H 673.138 1.78777 0.776195 0
M  V30 6524 H 672.234 2.1528 2.25966 0
M  V30 6525 N 672.536 -0.895792 1.29666 0
M  V30 6526 C 673.764 -1.68001 1.20761 0
M  V30 6527 C 674.179 -1.87379 -0.231187 0
M  V30 6528 O 673.536 -1.41359 -1.15429 0
M  V30 6529 C 673.587 -3.06236 1.92098 0
M  V30 6530 O 673.308 -2.8774 3.30359 0
M  V30 6531 C 674.809 -4.00652 1.89717 0
M  V30 6532 H 672.029 -0.524591 0.418384 0
M  V30 6533 H 674.573 -1.11995 1.71106 0
M  V30 6534 H 672.728 -3.59007 1.45578 0
M  V30 6535 H 673.142 -3.75359 3.66342 0
M  V30 6536 H 674.616 -4.95051 2.44189 0
M  V30 6537 H 675.093 -4.30424 0.873595 0
M  V30 6538 H 675.699 -3.53815 2.35998 0
M  V30 6539 N 674.014 -1.12206 -1.10668 0
M  V30 6540 C 675.262 -0.874144 -1.82217 0
M  V30 6541 C 675.583 0.601736 -1.85484 0
M  V30 6542 O 674.853 1.43725 -1.33116 0
M  V30 6543 H 673.433 -0.320404 -0.674797 0
M  V30 6544 H 676.095 -1.41606 -1.33917 0
M  V30 6545 H 675.191 -1.25349 -2.85822 0
M  V30 6546 N 675.492 1.28418 -0.913599 0
M  V30 6547 C 676.739 1.94981 -0.546674 0
M  V30 6548 C 677.067 1.7192 0.909606 0
M  V30 6549 O 676.322 1.03314 1.66207 0
M  V30 6550 C 676.621 3.48283 -0.802099 0
M  V30 6551 C 676.287 3.91444 -2.2379 0
M  V30 6552 C 674.949 4.02939 -2.63046 0
M  V30 6553 C 677.301 4.13542 -3.17227 0
M  V30 6554 C 674.629 4.3391 -3.94891 0
M  V30 6555 C 676.981 4.45992 -4.48636 0
M  V30 6556 C 675.645 4.55698 -4.87746 0
M  V30 6557 H 674.915 0.713487 -0.200042 0
M  V30 6558 H 677.562 1.52756 -1.15489 0
M  V30 6559 H 675.867 3.91643 -0.111076 0
M  V30 6560 H 677.564 3.97903 -0.497375 0
M  V30 6561 H 674.154 3.83024 -1.9233 0
M  V30 6562 H 678.338 4.04114 -2.88107 0
M  V30 6563 H 673.594 4.39631 -4.24894 0
M  V30 6564 H 677.768 4.62038 -5.21051 0
M  V30 6565 H 675.395 4.79451 -5.89942 0
M  V30 6566 N 676.97 0.677563 1.42291 0
M  V30 6567 C 678.219 0.198173 2.00724 0
M  V30 6568 C 678.532 -1.20325 1.54211 0
M  V30 6569 O 679.738 -1.77916 2.05081 0
M  V30 6570 C 678.194 0.303432 3.58619 0
M  V30 6571 C 677.802 1.70909 4.14119 0
M  V30 6572 C 679.546 -0.117103 4.24338 0
M  V30 6573 C 677.453 1.76696 5.64387 0
M  V30 6574 H 676.383 0.070329 0.750713 0
M  V30 6575 H 679.034 0.843147 1.62982 0
M  V30 6576 H 677.416 -0.409482 3.93877 0
M  V30 6577 H 678.59 2.44931 3.90315 0
M  V30 6578 H 676.905 2.07771 3.6086 0
M  V30 6579 H 679.502 -0.0940471 5.34617 0
M  V30 6580 H 679.845 -1.15283 4.00019 0
M  V30 6581 H 680.378 0.5449 3.9405 0
M  V30 6582 H 677.117 2.7826 5.93508 0
M  V30 6583 H 676.637 1.07034 5.90173 0
M  V30 6584 H 678.316 1.52166 6.28852 0
M  V30 6585 N 678.448 -1.51871 0.421078 0
M  V30 6586 C 679.859 -1.86644 -0.0457991 0
M  V30 6587 C 680.21 -1.33919 -1.43388 0
M  V30 6588 O 679.335 -0.683316 -2.05328 0
M  V30 6589 C 679.93 -3.38681 -0.0898844 0
M  V30 6590 C 678.489 -3.73049 -0.501127 0
M  V30 6591 C 677.636 -2.75485 0.316723 0
M  V30 6592 H 680.587 -1.45327 0.637635 0
M  V30 6593 H 680.608 -3.69636 -0.902734 0
M  V30 6594 H 680.12 -3.77025 0.920513 0
M  V30 6595 H 678.221 -3.40288 -1.51773 0
M  V30 6596 H 678.334 -4.78512 -0.237217 0
M  V30 6597 H 676.698 -2.53725 -0.222663 0
M  V30 6598 H 677.481 -3.16671 1.32569 0
M  V30 6599 N 679.926 -0.151884 -1.56866 0
M  V30 6600 C 681.175 0.497992 -1.95456 0
M  V30 6601 C 681.488 1.6569 -1.03953 0
M  V30 6602 O 682.694 2.37173 -1.32142 0
M  V30 6603 C 681.15 0.93732 -3.4748 0
M  V30 6604 C 680.758 -0.194921 -4.47576 0
M  V30 6605 C 682.502 1.55671 -3.94926 0
M  V30 6606 C 680.409 0.26295 -5.90815 0
M  V30 6607 H 679.339 0.189811 -0.729717 0
M  V30 6608 H 681.99 -0.237011 -1.81963 0
M  V30 6609 H 680.372 1.72773 -3.56322 0
M  V30 6610 H 681.546 -0.971951 -4.50433 0
M  V30 6611 H 679.861 -0.72303 -4.10075 0
M  V30 6612 H 682.458 1.91099 -4.99385 0
M  V30 6613 H 682.801 2.44748 -3.36755 0
M  V30 6614 H 683.334 0.831109 -3.89021 0
M  V30 6615 H 680.073 -0.592568 -6.52816 0
M  V30 6616 H 679.593 1.00575 -5.91308 0
M  V30 6617 H 681.272 0.713333 -6.43056 0
M  V30 6618 N 681.404 1.57128 0.121893 0
M  V30 6619 C 682.815 1.73902 0.679348 0
M  V30 6620 C 683.166 0.770135 1.80453 0
M  V30 6621 O 682.291 -0.0576083 2.16323 0
M  V30 6622 C 682.886 3.15328 1.2391 0
M  V30 6623 C 681.445 3.33618 1.74288 0
M  V30 6624 C 680.592 2.6978 0.641414 0
M  V30 6625 H 683.543 1.58359 -0.104 0
M  V30 6626 H 683.564 3.16718 2.10879 0
M  V30 6627 H 683.076 3.85821 0.419957 0
M  V30 6628 H 681.177 2.68162 2.58689 0
M  V30 6629 H 681.29 4.4176 1.85432 0
M  V30 6630 H 679.654 2.30935 1.0743 0
M  V30 6631 H 680.437 3.42895 -0.166707 0
M  V30 6632 N 682.882 -0.391992 1.52647 0
M  V30 6633 C 684.13 -1.13507 1.67214 0
M  V30 6634 C 684.451 -1.90575 0.41304 0
M  V30 6635 O 683.721 -1.87348 -0.572498 0
M  V30 6636 H 682.301 -0.422013 0.616372 0
M  V30 6637 H 684.963 -0.44502 1.89751 0
M  V30 6638 H 684.059 -1.83964 2.52118 0
M  V30 6639 N 684.36 -1.4356 -0.65026 0
M  V30 6640 C 685.608 -1.45046 -1.40734 0
M  V30 6641 C 685.929 -0.0769822 -1.94848 0
M  V30 6642 O 685.199 0.888098 -1.74613 0
M  V30 6643 H 683.779 -0.534034 -0.522318 0
M  V30 6644 H 686.441 -1.79186 -0.766703 0
M  V30 6645 H 685.537 -2.16476 -2.24822 0
M  V30 6646 N 685.838 0.888903 -1.30139 0
M  V30 6647 C 686.786 2.0156 -1.16088 0
M  V30 6648 C 687.78 1.69239 -0.0737413 0
M  V30 6649 O 688.986 1.78468 -0.234313 0
M  V30 6650 H 685.361 0.660825 -0.358907 0
M  V30 6651 H 687.332 2.10547 -2.11453 0
M  V30 6652 C 686.081 3.36758 -0.865426 0
M  V30 6653 H 685.404 3.62137 -1.69402 0
M  V30 6654 H 686.844 4.16246 -0.807192 0
M  V30 6655 C 685.303 3.34124 0.431577 0
M  V30 6656 O 685.833 3.7445 1.45431 0
M  V30 6657 N 684.039 2.87229 0.441321 0
M  V30 6658 H 683.586 2.54609 -0.391433 0
M  V30 6659 H 683.544 2.8585 1.30909 0
M  V30 6660 N 687.317 1.12792 1.10072 0
M  V30 6661 C 688.565 0.883796 1.81751 0
M  V30 6662 C 688.886 -0.591891 1.858 0
M  V30 6663 O 688.156 -1.43017 1.33876 0
M  V30 6664 H 686.736 0.323978 0.673088 0
M  V30 6665 H 689.398 1.42314 1.33164 0
M  V30 6666 H 688.494 1.26863 2.85153 0
M  V30 6667 N 688.795 -1.27931 0.920396 0
M  V30 6668 C 690.042 -1.94689 0.557007 0
M  V30 6669 C 690.37 -1.724 -0.900476 0
M  V30 6670 O 689.625 -1.04194 -1.65657 0
M  V30 6671 C 689.924 -3.47853 0.820558 0
M  V30 6672 C 689.59 -3.90252 2.25863 0
M  V30 6673 C 688.252 -4.01539 2.65179 0
M  V30 6674 C 690.604 -4.11853 3.19415 0
M  V30 6675 C 687.932 -4.3181 3.97187 0
M  V30 6676 C 690.284 -4.43606 4.50995 0
M  V30 6677 C 688.948 -4.53105 4.90155 0
M  V30 6678 H 688.218 -0.712416 0.203823 0
M  V30 6679 H 690.865 -1.52142 1.16298 0
M  V30 6680 H 689.17 -3.91578 0.131844 0
M  V30 6681 H 690.867 -3.97634 0.51847 0
M  V30 6682 H 687.457 -3.81999 1.94358 0
M  V30 6683 H 691.641 -4.0258 2.90246 0
M  V30 6684 H 686.897 -4.37371 4.2722 0
M  V30 6685 H 691.071 -4.59268 5.23494 0
M  V30 6686 H 688.698 -4.76315 5.92476 0
M  V30 6687 N 690.273 -0.685099 -1.4193 0
M  V30 6688 C 691.498 -0.218842 -2.06242 0
M  V30 6689 C 691.923 1.11923 -1.51178 0
M  V30 6690 O 691.281 1.69837 -0.634446 0
M  V30 6691 C 691.329 -0.175592 -3.60172 0
M  V30 6692 O 690.433 0.852776 -4.03487 0
M  V30 6693 H 689.774 -0.109531 -0.654904 0
M  V30 6694 H 692.304 -0.937013 -1.81882 0
M  V30 6695 H 692.314 -0.00291151 -4.08 0
M  V30 6696 H 690.989 -1.15222 -3.99621 0
M  V30 6697 H 689.566 0.650301 -3.67186 0
M  V30 6698 N 691.751 1.51645 -0.429126 0
M  V30 6699 C 693.162 1.86665 0.0359003 0
M  V30 6700 C 693.513 1.34677 1.42676 0
M  V30 6701 O 692.638 0.694195 2.04963 0
M  V30 6702 C 693.233 3.38724 0.0719221 0
M  V30 6703 C 691.792 3.7331 0.481336 0
M  V30 6704 C 690.939 2.75313 -0.331329 0
M  V30 6705 H 693.89 1.44987 -0.645333 0
M  V30 6706 H 693.911 3.7011 0.883118 0
M  V30 6707 H 693.423 3.76532 -0.940495 0
M  V30 6708 H 691.524 3.41088 1.49966 0
M  V30 6709 H 691.637 4.78631 0.211837 0
M  V30 6710 H 690.001 2.53839 0.209204 0
M  V30 6711 H 690.784 3.15963 -1.34247 0
M  V30 6712 N 693.229 0.160201 1.56784 0
M  V30 6713 C 694.477 -0.486625 1.96154 0
M  V30 6714 C 694.798 -1.64525 1.04673 0
M  V30 6715 O 694.068 -1.95586 0.110864 0
M  V30 6716 H 692.648 -0.182764 0.724297 0
M  V30 6717 H 695.31 0.238787 1.93432 0
M  V30 6718 H 694.406 -0.854025 3.00188 0
M  V30 6719 N 694.707 -1.5719 -0.113559 0
M  V30 6720 C 695.953 -1.85412 -0.821597 0
M  V30 6721 C 696.286 -0.746722 -1.7927 0
M  V30 6722 O 695.561 0.246971 -1.92926 0
M  V30 6723 C 695.844 -3.24233 -1.56669 0
M  V30 6724 C 695.697 -4.45578 -0.614823 0
M  V30 6725 C 697.016 -3.60697 -2.52161 0
M  V30 6726 H 694.135 -0.674406 -0.29723 0
M  V30 6727 H 696.777 -1.89807 -0.085694 0
M  V30 6728 H 694.927 -3.20617 -2.19401 0
M  V30 6729 H 696.599 -4.613 0.00407137 0
M  V30 6730 H 694.842 -4.33738 0.0732332 0
M  V30 6731 H 695.513 -5.39395 -1.17292 0
M  V30 6732 H 697.989 -3.65139 -1.99532 0
M  V30 6733 H 696.865 -4.58798 -3.01323 0
M  V30 6734 H 697.126 -2.88403 -3.35076 0
M  V30 6735 N 696.185 0.383891 -1.52853 0
M  V30 6736 C 697.433 1.12619 -1.67814 0
M  V30 6737 C 697.754 1.90354 -0.423141 0
M  V30 6738 O 697.024 1.87649 0.562554 0
M  V30 6739 H 695.604 0.418738 -0.618601 0
M  V30 6740 H 698.266 0.43495 -1.89985 0
M  V30 6741 H 697.362 1.82624 -2.5309 0
M  V30 6742 N 697.663 1.43903 0.642637 0
M  V30 6743 C 698.911 1.45791 1.39962 0
M  V30 6744 C 699.232 0.0873144 1.94804 0
M  V30 6745 O 698.502 -0.878825 1.75081 0
M  V30 6746 H 697.082 0.536797 0.519479 0
M  V30 6747 H 699.744 1.7959 0.757189 0
M  V30 6748 H 698.84 2.17665 2.2367 0
M  V30 6749 N 699.141 -0.881989 1.30609 0
M  V30 6750 C 700.104 -1.96957 1.1722 0
M  V30 6751 C 701.104 -1.60472 0.102598 0
M  V30 6752 O 702.294 -1.70628 0.350943 0
M  V30 6753 C 699.426 -3.31463 0.796572 0
M  V30 6754 H 700.619 -2.10262 2.13846 0
M  V30 6755 H 698.172 -1.06877 1.14048 0
M  V30 6756 H 698.907 -3.23859 -0.169053 0
M  V30 6757 H 698.692 -3.59314 1.56959 0
M  V30 6758 H 700.182 -4.11233 0.72645 0
M  V30 6759 N 700.619 -1.13374 -1.09472 0
M  V30 6760 C 701.867 -0.893422 -1.8128 0
M  V30 6761 C 702.188 0.582029 -1.86111 0
M  V30 6762 O 701.458 1.42305 -1.34633 0
M  V30 6763 H 700.038 -0.327543 -0.67136 0
M  V30 6764 H 702.7 -1.43018 -1.32408 0
M  V30 6765 H 701.796 -1.28374 -2.84476 0
M  V30 6766 N 702.098 1.27442 -0.927168 0
M  V30 6767 C 703.344 1.94679 -0.568164 0
M  V30 6768 C 703.677 1.72697 0.888219 0
M  V30 6769 O 702.952 1.05573 1.63354 0
M  V30 6770 C 703.235 3.4882 -0.894253 0
M  V30 6771 C 703.088 3.80146 -2.40435 0
M  V30 6772 C 704.407 4.38281 -0.399766 0
M  V30 6773 H 701.526 0.707071 -0.207892 0
M  V30 6774 H 704.168 1.50568 -1.15885 0
M  V30 6775 H 702.318 3.86522 -0.391566 0
M  V30 6776 H 703.99 3.52238 -2.97869 0
M  V30 6777 H 702.233 3.26716 -2.85375 0
M  V30 6778 H 702.904 4.87835 -2.58304 0
M  V30 6779 H 705.38 4.07726 -0.83058 0
M  V30 6780 H 704.256 5.44955 -0.656885 0
M  V30 6781 H 704.517 4.36521 0.700153 0
M  V30 6782 N 703.576 0.692616 1.41565 0
M  V30 6783 C 704.824 0.221896 2.00878 0
M  V30 6784 C 705.145 -1.18164 1.5512 0
M  V30 6785 O 704.415 -1.79679 0.78054 0
M  V30 6786 H 702.995 0.0790463 0.742806 0
M  V30 6787 H 705.657 0.893115 1.73232 0
M  V30 6788 H 704.753 0.23702 3.11199 0
M  V30 6789 N 705.054 -1.51416 0.437162 0
M  V30 6790 C 706.017 -2.26312 -0.362729 0
M  V30 6791 C 707.017 -1.29748 -0.949847 0
M  V30 6792 O 708.207 -1.53462 -0.824325 0
M  V30 6793 C 705.339 -3.05475 -1.5132 0
M  V30 6794 H 706.532 -2.98459 0.29365 0
M  V30 6795 H 704.085 -1.55137 0.190327 0
M  V30 6796 H 704.82 -2.37744 -2.20563 0
M  V30 6797 H 704.605 -3.76401 -1.09838 0
M  V30 6798 H 706.095 -3.62209 -2.07833 0
M  V30 6799 N 706.532 -0.168513 -1.56696 0
M  V30 6800 C 707.78 0.476216 -1.96409 0
M  V30 6801 C 708.101 1.63968 -1.05544 0
M  V30 6802 O 707.371 1.95525 -0.121235 0
M  V30 6803 H 705.951 0.178921 -0.725256 0
M  V30 6804 H 708.613 -0.249042 -1.93302 0
M  V30 6805 H 707.709 0.838094 -3.00637 0
M  V30 6806 N 708.01 1.57248 0.105221 0
M  V30 6807 C 709.258 1.85204 0.808951 0
M  V30 6808 C 709.579 0.75574 1.7976 0
M  V30 6809 O 708.849 -0.218984 1.94672 0
M  V30 6810 H 707.429 0.683346 0.301739 0
M  V30 6811 H 710.091 1.94695 0.0892605 0
M  V30 6812 H 709.187 2.81595 1.34575 0
M  V30 6813 N 709.488 -0.375779 1.53054 0
M  V30 6814 C 710.42 -1.47963 1.75042 0
M  V30 6815 C 711.433 -1.50073 0.631031 0
M  V30 6816 O 712.622 -1.53736 0.907052 0
M  V30 6817 C 709.722 -2.86767 1.80604 0
M  V30 6818 C 708.895 -3.08471 3.10104 0
M  V30 6819 C 707.954 -4.27332 3.07041 0
M  V30 6820 O 706.98 -4.22998 3.80869 0
M  V30 6821 N 708.182 -5.34214 2.27147 0
M  V30 6822 H 710.947 -1.29484 2.70285 0
M  V30 6823 H 708.508 -0.565416 1.51706 0
M  V30 6824 H 710.5 -3.64404 1.76045 0
M  V30 6825 H 709.07 -2.98542 0.926897 0
M  V30 6826 H 708.29 -2.18583 3.28048 0
M  V30 6827 H 709.578 -3.19834 3.95706 0
M  V30 6828 H 708.976 -5.40594 1.66656 0
M  V30 6829 H 707.533 -6.10467 2.28415 0
M  V30 6830 N 710.966 -1.44241 -0.634997 0
M  V30 6831 C 712.214 -1.46531 -1.39187 0
M  V30 6832 C 712.535 -0.0976441 -1.94755 0
M  V30 6833 O 711.805 0.869528 -1.75545 0
M  V30 6834 H 710.385 -0.539544 -0.516625 0
M  V30 6835 H 713.047 -1.79989 -0.747655 0
M  V30 6836 H 712.143 -2.18848 -2.22513 0
M  V30 6837 N 712.444 0.87505 -1.31075 0
M  V30 6838 C 713.855 1.4433 -1.18431 0
M  V30 6839 C 714.206 1.9506 0.211189 0
M  V30 6840 O 713.331 1.85847 1.10859 0
M  V30 6841 C 713.926 2.62341 -2.14389 0
M  V30 6842 C 712.485 3.15225 -2.05694 0
M  V30 6843 C 711.632 1.87929 -2.03907 0
M  V30 6844 H 714.583 0.684061 -1.432 0
M  V30 6845 H 714.604 3.3887 -1.73053 0
M  V30 6846 H 714.116 2.25388 -3.15946 0
M  V30 6847 H 712.217 3.56812 -1.07314 0
M  V30 6848 H 712.33 3.77853 -2.94558 0
M  V30 6849 H 710.694 2.06679 -1.48849 0
M  V30 6850 H 711.477 1.53221 -3.07211 0
M  V30 6851 N 713.922 1.13953 1.08869 0
M  V30 6852 C 715.171 0.899431 1.80536 0
M  V30 6853 C 715.484 -0.575781 1.86933 0
M  V30 6854 O 716.69 -0.932988 2.54966 0
M  V30 6855 C 715.146 1.55963 3.24351 0
M  V30 6856 C 714.754 3.07077 3.26202 0
M  V30 6857 C 716.498 1.40046 4.00733 0
M  V30 6858 C 714.405 3.65955 4.64576 0
M  V30 6859 H 713.335 0.332849 0.676556 0
M  V30 6860 H 715.986 1.3679 1.22314 0
M  V30 6861 H 714.368 1.01883 3.82669 0
M  V30 6862 H 715.542 3.67785 2.77617 0
M  V30 6863 H 713.857 3.22576 2.63312 0
M  V30 6864 H 716.454 1.81441 5.02974 0
M  V30 6865 H 716.797 0.345993 4.1486 0
M  V30 6866 H 717.33 1.91137 3.48872 0
M  V30 6867 H 714.069 4.71234 4.55652 0
M  V30 6868 H 713.589 3.10027 5.13462 0
M  V30 6869 H 715.268 3.65968 5.33551 0
M  V30 6870 N 715.4 -1.26948 0.933913 0
M  V30 6871 C 716.649 -1.93378 0.573409 0
M  V30 6872 C 716.962 -1.74148 -0.890614 0
M  V30 6873 O 718.168 -2.34971 -1.36017 0
M  V30 6874 C 716.624 -3.46449 0.974747 0
M  V30 6875 C 716.232 -3.74425 2.45988 0
M  V30 6876 C 717.976 -4.18924 0.685791 0
M  V30 6877 C 715.883 -5.209 2.8003 0
M  V30 6878 H 714.813 -0.723952 0.210736 0
M  V30 6879 H 717.464 -1.44143 1.13557 0
M  V30 6880 H 715.846 -3.94528 0.341181 0
M  V30 6881 H 717.02 -3.37079 3.14188 0
M  V30 6882 H 715.335 -3.15167 2.72138 0
M  V30 6883 H 717.932 -5.26786 0.916546 0
M  V30 6884 H 718.275 -4.14587 -0.377217 0
M  V30 6885 H 718.808 -3.76687 1.27874 0
M  V30 6886 H 715.547 -5.30332 3.85264 0
M  V30 6887 H 715.067 -5.59369 2.16485 0
M  V30 6888 H 716.746 -5.88837 2.68105 0
M  V30 6889 N 716.879 -0.700114 -1.41195 0
M  V30 6890 C 718.107 -0.242179 -2.05478 0
M  V30 6891 C 718.522 1.11029 -1.52702 0
M  V30 6892 O 717.879 1.69473 -0.677127 0
M  V30 6893 C 717.93 -0.196271 -3.60967 0
M  V30 6894 O 717.651 -1.49532 -4.11791 0
M  V30 6895 C 719.152 0.282102 -4.42401 0
M  V30 6896 H 716.372 -0.111749 -0.661629 0
M  V30 6897 H 718.916 -0.953975 -1.80885 0
M  V30 6898 H 717.071 0.46638 -3.84582 0
M  V30 6899 H 717.485 -1.38545 -5.05871 0
M  V30 6900 H 718.959 0.263093 -5.51373 0
M  V30 6901 H 719.436 1.32174 -4.1884 0
M  V30 6902 H 720.042 -0.349712 -4.2386 0
M  V30 6903 N 718.357 1.51182 -0.445186 0
M  V30 6904 C 719.605 2.01753 0.11841 0
M  V30 6905 C 719.926 1.33087 1.42523 0
M  V30 6906 O 719.196 0.467891 1.9023 0
M  V30 6907 H 717.776 0.745536 0.0467492 0
M  V30 6908 H 720.438 1.85765 -0.589688 0
M  V30 6909 H 719.534 3.10762 0.288665 0
M  V30 6910 N 719.835 0.176821 1.56605 0
M  V30 6911 C 720.765 -0.746841 2.21234 0
M  V30 6912 C 721.746 -1.23502 1.16967 0
M  V30 6913 O 722.931 -1.28718 1.45414 0
M  V30 6914 C 720.061 -1.97407 2.8574 0
M  V30 6915 C 719.015 -1.62153 3.96094 0
M  V30 6916 C 718.341 -2.92387 4.47676 0
M  V30 6917 C 719.641 -0.845353 5.15413 0
M  V30 6918 H 721.335 -0.208116 2.98676 0
M  V30 6919 H 718.881 -0.0986594 1.43662 0
M  V30 6920 H 720.834 -2.62531 3.2963 0
M  V30 6921 H 719.558 -2.53703 2.05676 0
M  V30 6922 H 718.217 -0.993964 3.52868 0
M  V30 6923 H 717.865 -3.46734 3.64396 0
M  V30 6924 H 717.565 -2.69551 5.22127 0
M  V30 6925 H 719.089 -3.5853 4.94255 0
M  V30 6926 H 720.503 -1.39929 5.55961 0
M  V30 6927 H 718.9 -0.715814 5.95815 0
M  V30 6928 H 719.97 0.157239 4.84645 0
M  V30 6929 N 721.313 -1.57302 -0.09688 0
M  V30 6930 C 722.541 -1.90202 -0.814295 0
M  V30 6931 C 722.956 -0.770344 -1.72369 0
M  V30 6932 O 722.313 0.257764 -1.8067 0
M  V30 6933 C 722.364 -3.22708 -1.62916 0
M  V30 6934 O 722.085 -4.31522 -0.756343 0
M  V30 6935 C 723.586 -3.69459 -2.44979 0
M  V30 6936 H 720.806 -0.629275 -0.232925 0
M  V30 6937 H 723.35 -2.04364 -0.0746482 0
M  V30 6938 H 721.505 -3.1015 -2.32133 0
M  V30 6939 H 721.919 -5.07604 -1.32054 0
M  V30 6940 H 723.393 -4.64875 -2.9765 0
M  V30 6941 H 723.87 -2.97211 -3.23361 0
M  V30 6942 H 724.476 -3.84879 -1.80964 0
M  V30 6943 N 722.791 0.367657 -1.53252 0
M  V30 6944 C 724.04 1.10782 -1.68554 0
M  V30 6945 C 724.353 1.90523 -0.442765 0
M  V30 6946 O 725.559 2.6729 -0.47629 0
M  V30 6947 C 724.015 2.01863 -2.97959 0
M  V30 6948 C 723.623 1.27443 -4.29491 0
M  V30 6949 C 725.367 2.75883 -3.22628 0
M  V30 6950 C 723.274 2.17414 -5.49987 0
M  V30 6951 H 722.204 0.417272 -0.628013 0
M  V30 6952 H 724.855 0.368971 -1.79752 0
M  V30 6953 H 723.237 2.7947 -2.80558 0
M  V30 6954 H 724.411 0.549138 -4.57516 0
M  V30 6955 H 722.726 0.652935 -4.11249 0
M  V30 6956 H 725.323 3.43421 -4.09837 0
M  V30 6957 H 725.666 3.41138 -2.38601 0
M  V30 6958 H 726.199 2.0536 -3.40693 0
M  V30 6959 H 722.938 1.5674 -6.36485 0
M  V30 6960 H 722.458 2.87799 -5.26243 0
M  V30 6961 H 724.137 2.77019 -5.84696 0
M  V30 6962 N 724.269 1.44576 0.627338 0
M  V30 6963 C 725.199 1.54562 1.75022 0
M  V30 6964 C 726.18 0.398378 1.65369 0
M  V30 6965 O 727.365 0.61899 1.84071 0
M  V30 6966 C 724.495 1.49309 3.13567 0
M  V30 6967 C 723.449 2.62549 3.38012 0
M  V30 6968 C 722.775 2.42348 4.76625 0
M  V30 6969 C 724.075 4.04678 3.30202 0
M  V30 6970 H 725.769 2.4855 1.66922 0
M  V30 6971 H 723.315 1.19624 0.801636 0
M  V30 6972 H 725.268 1.54895 3.919 0
M  V30 6973 H 723.992 0.518392 3.2246 0
M  V30 6974 H 722.651 2.56358 2.62061 0
M  V30 6975 H 722.299 1.43062 4.82226 0
M  V30 6976 H 721.999 3.18273 4.93939 0
M  V30 6977 H 723.523 2.49758 5.57183 0
M  V30 6978 H 724.937 4.12217 3.98435 0
M  V30 6979 H 723.334 4.80836 3.5905 0
M  V30 6980 H 724.404 4.2798 2.27949 0
M  V30 6981 N 725.747 -0.868086 1.31537 0
M  V30 6982 C 726.695 -1.99688 1.1928 0
M  V30 6983 C 727.689 -1.69101 0.100656 0
M  V30 6984 O 728.895 -1.78073 0.262677 0
M  V30 6985 H 725.27 -0.655032 0.369374 0
M  V30 6986 H 727.241 -2.07157 2.14776 0
M  V30 6987 C 725.99 -3.35338 0.918892 0
M  V30 6988 H 725.313 -3.59396 1.75142 0
M  V30 6989 H 726.753 -4.14909 0.873311 0
M  V30 6990 C 725.212 -3.34769 -0.378366 0
M  V30 6991 O 725.742 -3.76716 -1.39456 0
M  V30 6992 N 723.948 -2.87895 -0.39557 0
M  V30 6993 H 723.495 -2.53954 0.431889 0
M  V30 6994 H 723.453 -2.87897 -1.26344 0
M  V30 6995 N 727.225 -1.14528 -1.08264 0
M  V30 6996 C 728.157 -0.791325 -2.15106 0
M  V30 6997 C 729.17 0.192449 -1.61659 0
M  V30 6998 O 730.359 -0.0294704 -1.78476 0
M  V30 6999 C 727.459 -0.154183 -3.38549 0
M  V30 7000 C 726.632 -1.17305 -4.21377 0
M  V30 7001 C 725.691 -0.559401 -5.23218 0
M  V30 7002 O 724.717 -1.22277 -5.55911 0
M  V30 7003 N 725.919 0.663159 -5.767 0
M  V30 7004 H 728.684 -1.71076 -2.46075 0
M  V30 7005 H 726.245 -1.0399 -1.24087 0
M  V30 7006 H 728.237 0.268884 -4.03806 0
M  V30 7007 H 726.807 0.668418 -3.0537 0
M  V30 7008 H 726.027 -1.773 -3.52077 0
M  V30 7009 H 727.315 -1.86128 -4.73533 0
M  V30 7010 H 726.713 1.22066 -5.52373 0
M  V30 7011 H 725.27 1.02871 -6.43631 0
M  V30 7012 N 728.703 1.26451 -0.940633 0
M  V30 7013 C 729.931 1.97868 -0.604642 0
M  V30 7014 C 730.346 1.70051 0.820251 0
M  V30 7015 O 729.703 0.96843 1.54686 0
M  V30 7016 C 729.754 3.51684 -0.836689 0
M  V30 7017 O 729.475 3.78533 -2.20554 0
M  V30 7018 C 730.976 4.40343 -0.511169 0
M  V30 7019 H 728.196 0.631105 -0.227919 0
M  V30 7020 H 730.74 1.60979 -1.26119 0
M  V30 7021 H 728.895 3.86736 -0.226759 0
M  V30 7022 H 729.309 4.73065 -2.26517 0
M  V30 7023 H 730.783 5.47229 -0.724157 0
M  V30 7024 H 731.26 4.35694 0.553815 0
M  V30 7025 H 731.866 4.10834 -1.0998 0
M  V30 7026 N 730.181 0.707592 1.40822 0
M  V30 7027 C 731.43 0.240705 2.00259 0
M  V30 7028 C 731.743 -1.17027 1.56729 0
M  V30 7029 O 732.949 -1.73526 2.08809 0
M  V30 7030 C 731.405 0.379432 3.57894 0
M  V30 7031 C 731.013 1.79654 4.104 0
M  V30 7032 C 732.757 -0.0270684 4.24491 0
M  V30 7033 C 730.664 1.88628 5.60512 0
M  V30 7034 H 729.594 0.0862369 0.749052 0
M  V30 7035 H 732.245 0.877528 1.61157 0
M  V30 7036 H 730.627 -0.325842 3.94657 0
M  V30 7037 H 731.801 2.53155 3.85032 0
M  V30 7038 H 730.116 2.15379 3.56372 0
M  V30 7039 H 732.713 0.0193743 5.34696 0
M  V30 7040 H 733.056 -1.06772 4.02375 0
M  V30 7041 H 733.589 0.628361 3.92806 0
M  V30 7042 H 730.328 2.90787 5.87472 0
M  V30 7043 H 729.848 1.19528 5.8777 0
M  V30 7044 H 731.527 1.6547 6.25483 0
M  V30 7045 N 731.66 -1.50943 0.453197 0
M  V30 7046 C 732.937 -1.94872 -0.168633 0
M  V30 7047 C 733.317 -1.39272 -1.5864 0
M  V30 7048 O 732.665 -0.586272 -2.20851 0
M  V30 7049 C 732.875 -3.48757 -0.130217 0
M  V30 7050 C 734.223 -4.23331 -0.327975 0
M  V30 7051 O 735.247 -3.55594 -0.207619 0
M  V30 7052 O 734.106 -5.43529 -0.569077 0
M  V30 7053 H 731.2 -0.818042 -0.121394 0
M  V30 7054 H 733.746 -1.61782 0.512316 0
M  V30 7055 H 732.518 -3.81725 0.860346 0
M  V30 7056 H 732.141 -3.88333 -0.853397 0
M  V30 7057 N 733.138 -0.185124 -1.56509 0
M  V30 7058 C 734.387 0.456421 -1.96468 0
M  V30 7059 C 734.7 1.63448 -1.07444 0
M  V30 7060 O 735.906 2.34316 -1.37143 0
M  V30 7061 C 734.362 0.863404 -3.4939 0
M  V30 7062 C 733.97 -0.289815 -4.47062 0
M  V30 7063 C 735.714 1.47259 -3.98139 0
M  V30 7064 C 733.621 0.137571 -5.9124 0
M  V30 7065 H 732.551 0.17429 -0.733579 0
M  V30 7066 H 735.202 -0.275554 -1.81419 0
M  V30 7067 H 733.584 1.65176 -3.59907 0
M  V30 7068 H 734.758 -1.06728 -4.4827 0
M  V30 7069 H 733.073 -0.809851 -4.08449 0
M  V30 7070 H 735.67 1.80463 -5.03326 0
M  V30 7071 H 736.013 2.3755 -3.41871 0
M  V30 7072 H 736.546 0.748405 -3.90696 0
M  V30 7073 H 733.285 -0.730907 -6.51412 0
M  V30 7074 H 732.805 0.8801 -5.93308 0
M  V30 7075 H 734.484 0.576771 -6.44424 0
M  V30 7076 N 734.616 1.57351 0.0885366 0
M  V30 7077 C 735.856 1.88248 0.796362 0
M  V30 7078 C 736.22 0.776915 1.75579 0
M  V30 7079 O 737.421 0.968485 2.50747 0
M  V30 7080 C 735.692 3.24385 1.50031 0
M  V30 7081 S 737.251 3.76991 2.24551 0
M  V30 7082 H 734.069 0.659697 0.265181 0
M  V30 7083 H 736.671 1.95428 0.0531843 0
M  V30 7084 H 735.375 4.02764 0.788 0
M  V30 7085 H 734.906 3.20361 2.28325 0
M  V30 7086 H 736.921 3.50933 3.508 0
M  V30 7087 N 736.094 -0.359525 1.53444 0
M  V30 7088 C 737.041 -1.44073 1.8031 0
M  V30 7089 C 738.011 -1.52946 0.647811 0
M  V30 7090 O 739.196 -1.68739 0.890614 0
M  V30 7091 C 736.336 -2.80941 2.00416 0
M  V30 7092 C 735.449 -2.80986 3.28132 0
M  V30 7093 C 734.584 -4.09468 3.38393 0
M  V30 7094 C 733.623 -4.03679 4.60119 0
M  V30 7095 N 732.76 -5.23821 4.675 0
M  V30 7096 H 737.6 -1.20464 2.72566 0
M  V30 7097 H 735.137 -0.583859 1.35017 0
M  V30 7098 H 737.095 -3.60459 2.1006 0
M  V30 7099 H 735.725 -3.02936 1.11489 0
M  V30 7100 H 734.777 -1.93666 3.27411 0
M  V30 7101 H 736.089 -2.72583 4.17732 0
M  V30 7102 H 735.243 -4.97404 3.47382 0
M  V30 7103 H 733.982 -4.20632 2.4682 0
M  V30 7104 H 732.987 -3.14129 4.51224 0
M  V30 7105 H 734.212 -3.94112 5.5304 0
M  V30 7106 H 732.158 -5.35559 3.7883 0
M  V30 7107 H 732.075 -5.17611 5.51013 0
M  V30 7108 H 733.343 -6.13572 4.8078 0
M  V30 7109 N 737.572 -1.44907 -0.619662 0
M  V30 7110 C 738.522 -1.49085 -1.72504 0
M  V30 7111 C 739.506 -0.355372 -1.56926 0
M  V30 7112 O 740.698 -0.601441 -1.66468 0
M  V30 7113 C 737.827 -1.44889 -3.11227 0
M  V30 7114 C 736.913 -2.63593 -3.32234 0
M  V30 7115 N 737.304 -3.88775 -3.23555 0
M  V30 7116 C 735.602 -2.59033 -3.63067 0
M  V30 7117 C 736.303 -4.67932 -3.45564 0
M  V30 7118 N 735.279 -3.9919 -3.68983 0
M  V30 7119 H 739.081 -2.43706 -1.6427 0
M  V30 7120 H 736.595 -1.4003 -0.82252 0
M  V30 7121 H 738.592 -1.45966 -3.90512 0
M  V30 7122 H 737.252 -0.513143 -3.2062 0
M  V30 7123 H 738.263 -4.20574 -3.02221 0
M  V30 7124 H 734.94 -1.7431 -3.79371 0
M  V30 7125 H 736.33 -5.76952 -3.44349 0
M  V30 7126 N 739.05 0.861098 -1.31996 0
M  V30 7127 C 740 1.95703 -1.1698 0
M  V30 7128 C 740.984 1.60709 -0.0784201 0
M  V30 7129 O 742.176 1.74365 -0.304262 0
M  V30 7130 C 739.305 3.31606 -0.888388 0
M  V30 7131 C 738.391 3.7284 -2.02117 0
M  V30 7132 N 738.782 3.85957 -3.26911 0
M  V30 7133 C 737.08 4.02419 -1.92289 0
M  V30 7134 C 737.781 4.21333 -4.01065 0
M  V30 7135 N 736.757 4.32502 -3.29307 0
M  V30 7136 H 740.559 2.03968 -2.11599 0
M  V30 7137 H 738.073 1.05245 -1.23682 0
M  V30 7138 H 740.07 4.09881 -0.761782 0
M  V30 7139 H 738.73 3.24662 0.0494898 0
M  V30 7140 H 739.741 3.70449 -3.61923 0
M  V30 7141 H 736.418 4.03814 -1.06022 0
M  V30 7142 H 737.808 4.39005 -5.08649 0
M  V30 7143 N 740.528 1.15101 1.07655 0
M  V30 7144 C 741.491 0.847625 2.12951 0
M  V30 7145 C 742.491 -0.151227 1.60087 0
M  V30 7146 O 743.681 0.0780399 1.74025 0
M  V30 7147 C 740.813 0.265 3.39868 0
M  V30 7148 H 742.006 1.7809 2.41296 0
M  V30 7149 H 739.559 0.958072 1.23494 0
M  V30 7150 H 740.294 -0.676625 3.17163 0
M  V30 7151 H 740.079 0.984554 3.79538 0
M  V30 7152 H 741.569 0.0702121 4.17541 0
M  V30 7153 N 742.006 -1.2595 0.947325 0
M  V30 7154 C 742.954 -2.28152 0.452687 0
M  V30 7155 C 743.948 -1.62655 -0.473239 0
M  V30 7156 O 745.154 -1.76549 -0.350774 0
M  V30 7157 H 741.529 -0.741049 0.12787 0
M  V30 7158 H 743.5 -2.67267 1.32707 0
M  V30 7159 C 742.249 -3.46719 -0.26098 0
M  V30 7160 H 741.572 -3.97345 0.442352 0
M  V30 7161 H 743.012 -4.20135 -0.571208 0
M  V30 7162 C 741.471 -3.02605 -1.48094 0
M  V30 7163 O 742.001 -3.07979 -2.57899 0
M  V30 7164 N 740.207 -2.57877 -1.33969 0
M  V30 7165 H 739.754 -2.53704 -0.446295 0
M  V30 7166 H 739.712 -2.28725 -2.15713 0
M  V30 7167 N 743.484 -0.715051 -1.40445 0
M  V30 7168 C 744.414 -0.0768699 -2.33373 0
M  V30 7169 C 745.395 0.746109 -1.52863 0
M  V30 7170 O 746.58 0.695142 -1.81332 0
M  V30 7171 C 743.71 0.846014 -3.36838 0
M  V30 7172 C 742.664 0.128694 -4.27806 0
M  V30 7173 C 741.99 1.16726 -5.21804 0
M  V30 7174 C 743.29 -1.01679 -5.12307 0
M  V30 7175 H 744.984 -0.853061 -2.8699 0
M  V30 7176 H 742.53 -0.41167 -1.3799 0
M  V30 7177 H 744.483 1.30185 -4.00786 0
M  V30 7178 H 743.207 1.6541 -2.81615 0
M  V30 7179 H 741.866 -0.307314 -3.6531 0
M  V30 7180 H 741.514 1.96838 -4.62887 0
M  V30 7181 H 741.214 0.692188 -5.83509 0
M  V30 7182 H 742.738 1.62321 -5.88629 0
M  V30 7183 H 744.152 -0.640337 -5.69713 0
M  V30 7184 H 742.549 -1.4202 -5.83053 0
M  V30 7185 H 743.619 -1.84769 -4.48317 0
M  V30 7186 N 744.962 1.50701 -0.461195 0
M  V30 7187 C 746.202 2.04174 0.0960673 0
M  V30 7188 C 746.566 1.33628 1.37868 0
M  V30 7189 O 747.767 1.77602 2.0177 0
M  V30 7190 C 746.038 3.56256 0.285676 0
M  V30 7191 S 747.597 4.31392 0.802917 0
M  V30 7192 H 744.415 0.710701 0.0206282 0
M  V30 7193 H 747.017 1.85204 -0.62607 0
M  V30 7194 H 745.721 4.05159 -0.653773 0
M  V30 7195 H 745.252 3.79562 1.03421 0
M  V30 7196 H 747.267 4.50611 2.07761 0
M  V30 7197 N 746.441 0.193421 1.56409 0
M  V30 7198 C 747.371 -0.723334 2.22014 0
M  V30 7199 C 748.352 -1.22254 1.1827 0
M  V30 7200 O 749.537 -1.27168 1.46771 0
M  V30 7201 C 746.667 -1.94366 2.87818 0
M  V30 7202 C 745.621 -1.57943 3.97791 0
M  V30 7203 C 744.947 -2.87623 4.50752 0
M  V30 7204 C 746.247 -0.790639 5.16281 0
M  V30 7205 H 747.941 -0.176426 2.9888 0
M  V30 7206 H 745.487 -0.0834166 1.43758 0
M  V30 7207 H 747.44 -2.5902 3.32396 0
M  V30 7208 H 746.164 -2.51507 2.08355 0
M  V30 7209 H 744.823 -0.956482 3.53903 0
M  V30 7210 H 744.471 -3.4285 3.68053 0
M  V30 7211 H 744.171 -2.63998 5.24956 0
M  V30 7212 H 745.695 -3.53268 4.9803 0
M  V30 7213 H 747.109 -1.34024 5.57414 0
M  V30 7214 H 745.506 -0.65258 5.96541 0
M  V30 7215 H 746.576 0.208633 4.84451 0
M  V30 7216 N 747.919 -1.57396 -0.0801906 0
M  V30 7217 C 748.867 -2.04136 -1.11495 0
M  V30 7218 C 749.861 -0.945137 -1.40583 0
M  V30 7219 O 751.067 -1.13028 -1.40088 0
M  V30 7220 H 747.442 -0.65076 -0.37685 0
M  V30 7221 H 749.413 -2.90205 -0.694526 0
M  V30 7222 C 748.162 -2.49399 -2.42272 0
M  V30 7223 H 747.485 -3.33339 -2.20737 0
M  V30 7224 H 748.925 -2.85864 -3.13142 0
M  V30 7225 C 747.384 -1.37341 -3.07635 0
M  V30 7226 O 747.914 -0.710829 -3.95361 0
M  V30 7227 N 746.12 -1.12064 -2.68123 0
M  V30 7228 H 745.667 -1.66126 -1.96875 0
M  V30 7229 H 745.625 -0.372916 -3.12181 0
M  V30 7230 N 749.397 0.351382 -1.53633 0
M  V30 7231 C 750.645 1.09034 -1.70165 0
M  V30 7232 C 750.966 1.89413 -0.463422 0
M  V30 7233 O 750.236 1.888 0.522624 0
M  V30 7234 H 748.816 0.405522 -0.627344 0
M  V30 7235 H 751.478 0.394554 -1.90865 0
M  V30 7236 H 750.574 1.77215 -2.56907 0
M  V30 7237 N 750.875 1.45233 0.611969 0
M  V30 7238 C 752.291 1.29542 0.932251 0
M  V30 7239 C 752.491 0.24523 2.00002 0
M  V30 7240 O 751.547 -0.362333 2.49887 0
M  V30 7241 C 752.86 2.67301 1.37733 0
M  V30 7242 C 754.408 2.75163 1.49178 0
M  V30 7243 C 754.883 4.13437 1.97064 0
M  V30 7244 N 756.374 4.15709 2.04304 0
M  V30 7245 C 757.109 5.19566 2.42568 0
M  V30 7246 N 756.605 6.33771 2.79832 0
M  V30 7247 N 758.398 5.06923 2.42869 0
M  V30 7248 H 750.549 2.12192 -0.0938679 0
M  V30 7249 H 752.812 0.947775 0.0206569 0
M  V30 7250 H 752.518 3.45318 0.666951 0
M  V30 7251 H 752.392 2.95472 2.3447 0
M  V30 7252 H 754.779 1.97453 2.19309 0
M  V30 7253 H 754.86 2.50712 0.507674 0
M  V30 7254 H 754.504 4.91631 1.27521 0
M  V30 7255 H 754.434 4.35277 2.9638 0
M  V30 7256 H 756.925 3.33293 1.78113 0
M  V30 7257 H 757.238 7.08815 3.07898 0
M  V30 7258 H 755.583 6.37179 2.77538 0
M  V30 7259 H 758.774 4.1675 2.1316 0
M  V30 7260 H 758.947 5.87981 2.72364 0
M  V30 7261 N 752.353 -0.854086 1.3245 0
M  V30 7262 C 753.593 -1.62216 1.2436 0
M  V30 7263 C 753.957 -1.91042 -0.191564 0
M  V30 7264 O 755.158 -2.65864 -0.396211 0
M  V30 7265 C 753.429 -2.9066 2.0797 0
M  V30 7266 S 754.988 -3.81438 2.16911 0
M  V30 7267 H 751.806 -0.556386 0.442669 0
M  V30 7268 H 754.408 -1.01139 1.67305 0
M  V30 7269 H 753.112 -2.6743 3.11302 0
M  V30 7270 H 752.643 -3.56753 1.65805 0
M  V30 7271 H 754.658 -4.78347 1.31903 0
M  V30 7272 N 753.831 -1.1567 -1.07043 0
M  V30 7273 C 755.08 -0.928039 -1.79082 0
M  V30 7274 C 755.393 0.545968 -1.87826 0
M  V30 7275 O 756.599 0.892308 -2.56418 0
M  V30 7276 C 755.055 -1.61103 -3.21829 0
M  V30 7277 C 754.663 -3.12228 -3.21275 0
M  V30 7278 C 756.407 -1.46404 -3.98455 0
M  V30 7279 C 754.314 -3.733 -4.58695 0
M  V30 7280 H 753.244 -0.34357 -0.671175 0
M  V30 7281 H 755.895 -1.38718 -1.20123 0
M  V30 7282 H 754.277 -1.07958 -3.81 0
M  V30 7283 H 755.451 -3.72155 -2.71731 0
M  V30 7284 H 753.766 -3.26725 -2.58147 0
M  V30 7285 H 756.363 -1.8942 -5.00024 0
M  V30 7286 H 756.706 -0.41195 -4.14257 0
M  V30 7287 H 757.239 -1.96663 -3.45787 0
M  V30 7288 H 753.978 -4.78423 -4.48098 0
M  V30 7289 H 753.498 -3.18157 -5.08465 0
M  V30 7290 H 755.177 -3.7441 -5.27661 0
M  V30 7291 N 755.309 1.25446 -0.953992 0
M  V30 7292 C 756.72 1.75047 -0.649255 0
M  V30 7293 C 757.071 1.77527 0.835385 0
M  V30 7294 O 756.196 1.39569 1.65377 0
M  V30 7295 C 756.791 3.17889 -1.17183 0
M  V30 7296 C 755.35 3.65052 -0.917267 0
M  V30 7297 C 754.497 2.44124 -1.31525 0
M  V30 7298 H 757.448 1.11342 -1.13087 0
M  V30 7299 H 757.469 3.76768 -0.531616 0
M  V30 7300 H 756.981 3.16052 -2.25239 0
M  V30 7301 H 755.082 3.72305 0.148354 0
M  V30 7302 H 755.195 4.53222 -1.55328 0
M  V30 7303 H 753.559 2.43906 -0.733624 0
M  V30 7304 H 754.342 2.44979 -2.405 0
M  V30 7305 N 756.787 0.722489 1.40064 0
M  V30 7306 C 758.015 0.274838 2.05066 0
M  V30 7307 C 758.43 -1.08586 1.54449 0
M  V30 7308 O 757.787 -1.68375 0.704003 0
M  V30 7309 C 757.838 0.253673 3.60609 0
M  V30 7310 O 757.559 1.56064 4.0936 0
M  V30 7311 C 759.06 -0.211684 4.42794 0
M  V30 7312 H 756.28 0.12226 0.659768 0
M  V30 7313 H 758.824 0.982632 1.79345 0
M  V30 7314 H 756.979 -0.405137 3.85276 0
M  V30 7315 H 757.393 1.46576 5.03603 0
M  V30 7316 H 758.867 -0.175341 5.51721 0
M  V30 7317 H 759.344 -1.25493 4.2089 0
M  V30 7318 H 759.95 0.4171 4.2325 0
M  V30 7319 N 758.265 -1.50454 0.469181 0
M  V30 7320 C 759.511 -2.02615 -0.0865971 0
M  V30 7321 C 759.844 -1.35062 -1.39542 0
M  V30 7322 O 759.119 -0.475701 -1.88593 0
M  V30 7323 C 759.402 -3.59068 -0.272385 0
M  V30 7324 C 759.255 -4.37196 1.05733 0
M  V30 7325 C 760.574 -4.2793 -1.0278 0
M  V30 7326 H 757.693 -0.736389 -0.0299977 0
M  V30 7327 H 760.335 -1.79792 0.614399 0
M  V30 7328 H 758.485 -3.78646 -0.869471 0
M  V30 7329 H 760.157 -4.29195 1.69084 0
M  V30 7330 H 758.4 -4.01013 1.65442 0
M  V30 7331 H 759.071 -5.44924 0.880997 0
M  V30 7332 H 761.547 -4.12816 -0.521718 0
M  V30 7333 H 760.423 -5.37214 -1.12659 0
M  V30 7334 H 760.684 -3.90968 -2.0639 0
M  V30 7335 N 759.743 -0.201713 -1.56304 0
M  V30 7336 C 760.968 0.443815 -2.02596 0
M  V30 7337 C 761.393 1.53945 -1.08086 0
M  V30 7338 O 760.751 1.81182 -0.0655056 0
M  V30 7339 C 760.799 0.971066 -3.47279 0
M  V30 7340 O 759.903 2.0836 -3.55893 0
M  V30 7341 H 759.244 0.10294 -0.655972 0
M  V30 7342 H 761.774 -0.314533 -2.02168 0
M  V30 7343 H 761.784 1.28598 -3.87204 0
M  V30 7344 H 760.459 0.169048 -4.15556 0
M  V30 7345 H 759.036 1.77683 -3.27846 0
M  V30 7346 N 761.222 1.57436 0.0718424 0
M  V30 7347 C 762.447 1.91858 0.787745 0
M  V30 7348 C 762.872 0.798119 1.70328 0
M  V30 7349 O 762.23 -0.24905 1.79581 0
M  V30 7350 C 762.278 3.25232 1.55744 0
M  V30 7351 O 761.382 3.14462 2.6681 0
M  V30 7352 H 760.723 0.628258 0.214914 0
M  V30 7353 H 763.253 2.04561 0.0401012 0
M  V30 7354 H 763.263 3.59105 1.9367 0
M  V30 7355 H 761.938 4.0636 0.885691 0
M  V30 7356 H 760.515 2.92148 2.31741 0
M  V30 7357 N 762.7 -0.34323 1.53817 0
M  V30 7358 C 763.93 -1.10188 1.74763 0
M  V30 7359 C 764.338 -1.82829 0.486856 0
M  V30 7360 O 763.681 -1.75236 -0.551198 0
M  V30 7361 C 763.743 -2.16 2.87375 0
M  V30 7362 C 763.407 -1.62931 4.26969 0
M  V30 7363 C 764.404 -1.08147 5.08528 0
M  V30 7364 C 762.089 -1.67769 4.73454 0
M  V30 7365 C 764.083 -0.589039 6.34672 0
M  V30 7366 C 761.77 -1.18138 5.99572 0
M  V30 7367 C 762.768 -0.637979 6.80014 0
M  V30 7368 O 762.456 -0.149073 8.03762 0
M  V30 7369 H 762.188 -0.33445 0.587469 0
M  V30 7370 H 764.742 -0.401109 2.01445 0
M  V30 7371 H 762.972 -2.89637 2.56218 0
M  V30 7372 H 764.661 -2.77432 2.96287 0
M  V30 7373 H 765.427 -1.03732 4.73777 0
M  V30 7374 H 761.306 -2.09004 4.10899 0
M  V30 7375 H 764.85 -0.164233 6.97407 0
M  V30 7376 H 760.747 -1.22254 6.33817 0
M  V30 7377 H 761.515 -0.266332 8.18067 0
M  V30 7378 N 764.178 -1.45556 -0.604258 0
M  V30 7379 C 765.594 -1.30035 -0.925368 0
M  V30 7380 C 765.794 -0.255833 -1.99869 0
M  V30 7381 O 764.85 0.349076 -2.50075 0
M  V30 7382 C 766.163 -2.68028 -1.36314 0
M  V30 7383 C 767.711 -2.75951 -1.47717 0
M  V30 7384 C 768.186 -4.14476 -1.94868 0
M  V30 7385 N 769.677 -4.16787 -2.02097 0
M  V30 7386 C 770.412 -5.20845 -2.39809 0
M  V30 7387 N 769.908 -6.35246 -2.76467 0
M  V30 7388 N 771.701 -5.08204 -2.40177 0
M  V30 7389 H 763.852 -2.1214 0.10512 0
M  V30 7390 H 766.115 -0.947871 -0.0156303 0
M  V30 7391 H 765.821 -3.45667 -0.648628 0
M  V30 7392 H 765.695 -2.96711 -2.329 0
M  V30 7393 H 768.082 -1.98613 -2.18258 0
M  V30 7394 H 768.163 -2.50977 -0.494371 0
M  V30 7395 H 767.807 -4.923 -1.24912 0
M  V30 7396 H 767.737 -4.36843 -2.94068 0
M  V30 7397 H 770.228 -3.34233 -1.76343 0
M  V30 7398 H 770.541 -7.10438 -3.04134 0
M  V30 7399 H 768.886 -6.38642 -2.74155 0
M  V30 7400 H 772.077 -4.17874 -2.10947 0
M  V30 7401 H 772.25 -5.89417 -2.69242 0
M  V30 7402 N 765.656 0.84705 -1.32902 0
M  V30 7403 C 766.896 1.61554 -1.25218 0
M  V30 7404 C 767.26 1.91141 0.18143 0
M  V30 7405 O 768.461 2.6607 0.382106 0
M  V30 7406 C 766.732 2.89553 -2.09509 0
M  V30 7407 S 768.291 3.80283 -2.18931 0
M  V30 7408 H 765.109 0.554031 -0.445613 0
M  V30 7409 H 767.711 1.00251 -1.67839 0
M  V30 7410 H 766.415 2.65776 -3.12716 0
M  V30 7411 H 765.946 3.55868 -1.67694 0
M  V30 7412 H 767.961 4.77641 -1.34438 0
M  V30 7413 N 767.134 1.16236 1.06428 0
M  V30 7414 C 768.044 0.881976 2.1739 0
M  V30 7415 C 769.06 -0.145259 1.73393 0
M  V30 7416 O 770.236 0.0310558 2.01376 0
M  V30 7417 C 767.301 0.385496 3.4455 0
M  V30 7418 C 766.362 1.47779 4.03063 0
M  V30 7419 C 765.595 1.0049 5.24154 0
M  V30 7420 O 765.818 -0.145889 5.70213 0
M  V30 7421 O 764.752 1.79265 5.74585 0
M  V30 7422 H 768.578 1.80983 2.43883 0
M  V30 7423 H 766.163 0.942226 1.15942 0
M  V30 7424 H 768.045 0.115536 4.21242 0
M  V30 7425 H 766.72 -0.514369 3.19587 0
M  V30 7426 H 765.627 1.80147 3.27869 0
M  V30 7427 H 766.96 2.35291 4.32318 0
M  V30 7428 N 768.612 -1.24939 0.960631 0
M  V30 7429 C 769.852 -1.94565 0.626414 0
M  V30 7430 C 770.216 -1.73505 -0.822184 0
M  V30 7431 O 771.417 -2.37105 -1.26628 0
M  V30 7432 C 769.688 -3.43631 0.982462 0
M  V30 7433 S 771.247 -4.32138 0.761726 0
M  V30 7434 H 768.065 -0.672757 0.230043 0
M  V30 7435 H 770.667 -1.51464 1.23608 0
M  V30 7436 H 769.371 -3.56463 2.03377 0
M  V30 7437 H 768.902 -3.91719 0.363286 0
M  V30 7438 H 770.917 -4.94859 -0.364493 0
M  V30 7439 N 770.09 -0.729906 -1.39679 0
M  V30 7440 C 771.038 -0.0756589 -2.32477 0
M  V30 7441 C 772.032 0.731438 -1.52795 0
M  V30 7442 O 773.238 0.633195 -1.68495 0
M  V30 7443 H 769.613 -0.00566492 -0.751979 0
M  V30 7444 H 771.584 -0.874797 -2.85289 0
M  V30 7445 C 770.333 0.821313 -3.37861 0
M  V30 7446 H 769.656 0.209666 -3.9925 0
M  V30 7447 H 771.096 1.24679 -4.05254 0
M  V30 7448 C 769.555 1.9533 -2.74495 0
M  V30 7449 O 770.085 3.04548 -2.61942 0
M  V30 7450 N 768.291 1.74119 -2.3266 0
M  V30 7451 H 767.838 0.852908 -2.4307 0
M  V30 7452 H 767.796 2.50036 -1.90603 0
M  V30 7453 N 771.568 1.50203 -0.477153 0
M  V30 7454 C 772.501 2.25343 0.359983 0
M  V30 7455 C 773.479 1.28909 0.991022 0
M  V30 7456 O 774.663 1.58146 1.02578 0
M  V30 7457 C 771.79 3.03431 1.5049 0
M  V30 7458 C 770.836 4.14836 0.99063 0
M  V30 7459 S 771.669 5.35407 -0.0995413 0
M  V30 7460 C 772.825 6.17045 1.04911 0
M  V30 7461 H 773.058 2.95999 -0.277836 0
M  V30 7462 H 770.591 1.52159 -0.262115 0
M  V30 7463 H 772.549 3.49012 2.16105 0
M  V30 7464 H 771.21 2.32289 2.11425 0
M  V30 7465 H 770.403 4.689 1.84794 0
M  V30 7466 H 770.005 3.71723 0.412097 0
M  V30 7467 H 772.297 6.48546 1.95946 0
M  V30 7468 H 773.24 7.05979 0.547596 0
M  V30 7469 H 773.648 5.49193 1.30567 0
M  V30 7470 N 773.046 0.209999 1.56195 0
M  V30 7471 C 774.294 -0.423974 1.97603 0
M  V30 7472 C 774.615 -1.61112 1.09854 0
M  V30 7473 O 773.885 -1.95134 0.173032 0
M  V30 7474 H 772.465 -0.159629 0.729745 0
M  V30 7475 H 775.127 0.300205 1.92574 0
M  V30 7476 H 774.223 -0.75809 3.02753 0
M  V30 7477 N 774.524 -1.57472 -0.0634922 0
M  V30 7478 C 775.754 -1.91608 -0.772645 0
M  V30 7479 C 776.162 -0.805019 -1.71219 0
M  V30 7480 O 775.505 0.229941 -1.82255 0
M  V30 7481 C 775.567 -3.21281 -1.61304 0
M  V30 7482 C 775.231 -4.49177 -0.841973 0
M  V30 7483 C 776.228 -5.19661 -0.157494 0
M  V30 7484 C 773.913 -4.9578 -0.80669 0
M  V30 7485 C 775.907 -6.35006 0.551948 0
M  V30 7486 C 773.594 -6.11028 -0.0934812 0
M  V30 7487 C 774.592 -6.80493 0.58463 0
M  V30 7488 O 774.28 -7.93542 1.28633 0
M  V30 7489 H 774.012 -0.637685 -0.224352 0
M  V30 7490 H 776.566 -2.05369 -0.0355279 0
M  V30 7491 H 774.796 -3.03752 -2.39315 0
M  V30 7492 H 776.485 -3.41003 -2.20162 0
M  V30 7493 H 777.251 -4.84681 -0.176006 0
M  V30 7494 H 773.13 -4.41579 -1.32397 0
M  V30 7495 H 776.674 -6.89161 1.0818 0
M  V30 7496 H 772.571 -6.45459 -0.0729258 0
M  V30 7497 H 773.339 -8.09708 1.19646 0
M  V30 7498 N 776.003 0.335068 -1.53997 0
M  V30 7499 C 776.95 1.41187 -1.82579 0
M  V30 7500 C 777.92 1.51897 -0.672061 0
M  V30 7501 O 779.105 1.673 -0.917346 0
M  V30 7502 C 776.245 2.77717 -2.0486 0
M  V30 7503 C 775.358 2.7573 -3.32561 0
M  V30 7504 C 774.493 4.04032 -3.44864 0
M  V30 7505 C 773.532 3.96308 -4.66483 0
M  V30 7506 N 772.669 5.16317 -4.75774 0
M  V30 7507 H 777.509 1.16113 -2.74448 0
M  V30 7508 H 775.046 0.562305 -1.35928 0
M  V30 7509 H 777.004 3.57071 -2.15768 0
M  V30 7510 H 775.634 3.01124 -1.16294 0
M  V30 7511 H 774.686 1.88432 -3.3045 0
M  V30 7512 H 775.998 2.65902 -4.22016 0
M  V30 7513 H 775.152 4.91814 -3.55251 0
M  V30 7514 H 773.891 4.16652 -2.53481 0
M  V30 7515 H 772.896 3.06911 -4.56164 0
M  V30 7516 H 774.121 3.85263 -5.5924 0
M  V30 7517 H 772.067 5.29464 -3.87303 0
M  V30 7518 H 771.984 5.08779 -5.59178 0
M  V30 7519 H 773.252 6.05846 -4.9048 0
M  V30 7520 N 777.481 1.45874 0.596531 0
M  V30 7521 C 778.413 1.51408 1.7207 0
M  V30 7522 C 779.426 0.403738 1.57714 0
M  V30 7523 O 780.615 0.671384 1.65393 0
M  V30 7524 C 777.715 1.3652 3.10186 0
M  V30 7525 C 776.888 2.61428 3.50677 0
M  V30 7526 C 775.947 2.40937 4.67799 0
M  V30 7527 O 774.973 3.14602 4.74357 0
M  V30 7528 N 776.175 1.4621 5.61785 0
M  V30 7529 H 778.94 2.48333 1.67782 0
M  V30 7530 H 776.501 1.41755 0.782129 0
M  V30 7531 H 778.493 1.20606 3.86311 0
M  V30 7532 H 777.063 0.478302 3.08919 0
M  V30 7533 H 776.283 2.92381 2.644 0
M  V30 7534 H 777.571 3.44432 3.74491 0
M  V30 7535 H 776.969 0.854382 5.59211 0
M  V30 7536 H 775.526 1.36264 6.37397 0
M  V30 7537 N 778.959 -0.83999 1.33349 0
M  V30 7538 C 780.236 -1.57973 1.15342 0
M  V30 7539 C 780.616 -2.09226 -0.280632 0
M  V30 7540 O 779.964 -1.89317 -1.2795 0
M  V30 7541 C 780.174 -2.71446 2.19359 0
M  V30 7542 C 781.522 -3.40654 2.53456 0
M  V30 7543 O 782.546 -2.81686 2.18017 0
M  V30 7544 O 781.405 -4.47101 3.14266 0
M  V30 7545 H 778.499 -0.6964 0.446044 0
M  V30 7546 H 781.045 -0.882843 1.44927 0
M  V30 7547 H 779.817 -2.31205 3.1569 0
M  V30 7548 H 779.44 -3.488 1.90852 0
M  V30 7549 N 780.437 -1.16799 -1.0581 0
M  V30 7550 C 781.4 -0.881396 -2.11575 0
M  V30 7551 C 782.4 0.12574 -1.60308 0
M  V30 7552 O 783.59 -0.105716 -1.73879 0
M  V30 7553 C 780.722 -0.319037 -3.39404 0
M  V30 7554 H 781.915 -1.81907 -2.38432 0
M  V30 7555 H 779.468 -0.977597 -1.21954 0
M  V30 7556 H 780.203 0.626082 -3.18199 0
M  V30 7557 H 779.988 -1.04481 -3.77923 0
M  V30 7558 H 781.478 -0.13663 -4.17376 0
M  V30 7559 N 781.915 1.24427 -0.967243 0
M  V30 7560 C 782.863 2.27403 -0.488927 0
M  V30 7561 C 783.857 1.63388 0.447302 0
M  V30 7562 O 785.063 1.77085 0.322643 0
M  V30 7563 H 781.438 0.738921 -0.139643 0
M  V30 7564 H 783.409 2.65122 -1.36942 0
M  V30 7565 C 782.158 3.4709 0.205787 0
M  V30 7566 H 781.481 3.96591 -0.50551 0
M  V30 7567 H 782.921 4.2099 0.504296 0
M  V30 7568 C 781.38 3.04923 1.43261 0
M  V30 7569 O 781.91 3.12043 2.52967 0
M  V30 7570 N 780.116 2.59976 1.29849 0
M  V30 7571 H 779.663 2.54382 0.405876 0
M  V30 7572 H 779.621 2.32128 2.12047 0
M  V30 7573 N 783.393 0.737304 1.3929 0
M  V30 7574 C 784.641 0.285691 2.00071 0
M  V30 7575 C 784.962 -1.13169 1.58801 0
M  V30 7576 O 784.232 -1.77104 0.837308 0
M  V30 7577 H 782.812 0.102638 0.739915 0
M  V30 7578 H 785.474 0.947775 1.70303 0
M  V30 7579 H 784.57 0.335906 3.10287 0
M  V30 7580 N 784.871 -1.49948 0.485112 0
M  V30 7581 C 786.148 -1.95186 -0.12726 0
M  V30 7582 C 786.528 -1.42605 -1.5565 0
M  V30 7583 O 785.876 -0.632986 -2.19558 0
M  V30 7584 C 786.086 -3.48955 -0.0562117 0
M  V30 7585 C 787.434 -4.23932 -0.238106 0
M  V30 7586 O 788.458 -3.55955 -0.132145 0
M  V30 7587 O 787.317 -5.44614 -0.453658 0
M  V30 7588 H 784.411 -0.820433 -0.104014 0
M  V30 7589 H 786.957 -1.60659 0.546517 0
M  V30 7590 H 785.729 -3.79814 0.941122 0
M  V30 7591 H 785.352 -3.90056 -0.770834 0
M  V30 7592 N 786.349 -0.21828 -1.56081 0
M  V30 7593 C 787.589 0.416193 -2.00118 0
M  V30 7594 C 787.953 1.5718 -1.10265 0
M  V30 7595 O 789.154 2.27206 -1.43635 0
M  V30 7596 C 787.425 0.842781 -3.47321 0
M  V30 7597 S 788.984 1.47182 -4.1338 0
M  V30 7598 H 785.802 0.132219 -0.698598 0
M  V30 7599 H 788.404 -0.326799 -1.92749 0
M  V30 7600 H 787.108 -0.00799925 -4.10399 0
M  V30 7601 H 786.639 1.61867 -3.58556 0
M  V30 7602 H 788.654 2.76087 -4.12299 0
M  V30 7603 N 787.827 1.57504 0.0551401 0
M  V30 7604 C 789.076 1.87237 0.750009 0
M  V30 7605 C 789.389 0.813268 1.77891 0
M  V30 7606 O 790.595 0.99898 2.52453 0
M  V30 7607 C 789.051 3.32187 1.38491 0
M  V30 7608 C 788.659 4.46267 0.393707 0
M  V30 7609 C 790.403 3.71101 2.06117 0
M  V30 7610 C 788.31 5.82265 1.03547 0
M  V30 7611 H 787.24 0.698524 0.283866 0
M  V30 7612 H 789.891 1.835 0.00365997 0
M  V30 7613 H 788.273 3.30588 2.18008 0
M  V30 7614 H 789.447 4.59289 -0.372865 0
M  V30 7615 H 787.762 4.16015 -0.17902 0
M  V30 7616 H 790.359 4.70012 2.54937 0
M  V30 7617 H 790.702 3.01751 2.86796 0
M  V30 7618 H 791.235 3.74762 1.33409 0
M  V30 7619 H 787.974 6.54949 0.268644 0
M  V30 7620 H 787.494 5.73012 1.7725 0
M  V30 7621 H 789.173 6.28148 1.55047 0
M  V30 7622 N 789.305 -0.326896 1.54172 0
M  V30 7623 C 790.582 -1.08326 1.62864 0
M  V30 7624 C 790.962 -2.06018 0.46039 0
M  V30 7625 O 790.31 -2.21889 -0.545685 0
M  V30 7626 C 790.52 -1.78816 2.9971 0
M  V30 7627 C 791.868 -2.31958 3.55641 0
M  V30 7628 O 792.892 -1.88888 3.01993 0
M  V30 7629 O 791.751 -3.10801 4.49517 0
M  V30 7630 H 788.845 -0.499131 0.659392 0
M  V30 7631 H 791.391 -0.327054 1.66519 0
M  V30 7632 H 790.163 -1.07739 3.76176 0
M  V30 7633 H 789.786 -2.61255 2.99719 0
M  V30 7634 N 790.784 -1.46188 -0.588786 0
M  V30 7635 C 792.03 -1.51407 -1.34921 0
M  V30 7636 C 792.363 -0.162771 -1.93517 0
M  V30 7637 O 791.638 0.825082 -1.76132 0
M  V30 7638 C 791.921 -2.60795 -2.48311 0
M  V30 7639 C 791.774 -4.05435 -1.94789 0
M  V30 7640 C 793.093 -2.66313 -3.50379 0
M  V30 7641 H 790.212 -0.551213 -0.489217 0
M  V30 7642 H 792.854 -1.78095 -0.661993 0
M  V30 7643 H 791.004 -2.3817 -3.06932 0
M  V30 7644 H 792.676 -4.39328 -1.40672 0
M  V30 7645 H 790.919 -4.15202 -1.25659 0
M  V30 7646 H 791.59 -4.77691 -2.76613 0
M  V30 7647 H 794.066 -2.86634 -3.01629 0
M  V30 7648 H 792.942 -3.44681 -4.27184 0
M  V30 7649 H 793.203 -1.72127 -4.07216 0
M  V30 7650 N 792.262 0.832906 -1.33792 0
M  V30 7651 C 793.539 1.57359 -1.16178 0
M  V30 7652 C 793.919 2.09372 0.269532 0
M  V30 7653 O 793.267 1.89993 1.26944 0
M  V30 7654 C 793.477 2.70279 -2.20795 0
M  V30 7655 C 794.825 3.39305 -2.55259 0
M  V30 7656 O 795.849 2.80526 -2.19508 0
M  V30 7657 O 794.708 4.45428 -3.16632 0
M  V30 7658 H 791.802 0.694025 -0.449731 0
M  V30 7659 H 794.348 0.875144 -1.45394 0
M  V30 7660 H 793.12 2.29527 -3.16911 0
M  V30 7661 H 792.743 3.47782 -1.927 0
M  V30 7662 N 793.74 1.17359 1.05189 0
M  V30 7663 C 794.65 0.904984 2.16442 0
M  V30 7664 C 795.666 -0.12686 1.73537 0
M  V30 7665 O 796.842 0.0524127 2.01332 0
M  V30 7666 C 793.907 0.422019 3.44122 0
M  V30 7667 C 792.968 1.52045 4.01473 0
M  V30 7668 C 792.201 1.06044 5.23059 0
M  V30 7669 O 792.424 -0.0854023 5.70336 0
M  V30 7670 O 791.358 1.85349 5.72651 0
M  V30 7671 H 795.184 1.8356 2.41949 0
M  V30 7672 H 792.769 0.95447 1.14936 0
M  V30 7673 H 794.651 0.160208 4.21095 0
M  V30 7674 H 793.326 -0.480444 3.20115 0
M  V30 7675 H 792.233 1.83615 3.25939 0
M  V30 7676 H 793.566 2.39863 4.29798 0
M  V30 7677 N 795.218 -1.23913 0.973828 0
M  V30 7678 C 796.458 -1.93889 0.647015 0
M  V30 7679 C 796.822 -1.74368 -0.803735 0
M  V30 7680 O 798.023 -2.38435 -1.24106 0
M  V30 7681 C 796.294 -3.4257 1.01885 0
M  V30 7682 S 797.853 -4.31306 0.807517 0
M  V30 7683 H 794.671 -0.670279 0.237165 0
M  V30 7684 H 797.273 -1.50144 1.25208 0
M  V30 7685 H 795.977 -3.54286 2.07146 0
M  V30 7686 H 795.508 -3.91312 0.404812 0
M  V30 7687 H 797.523 -4.95218 -0.311986 0
M  V30 7688 N 796.696 -0.74468 -1.38897 0
M  V30 7689 C 797.924 -0.307428 -2.04603 0
M  V30 7690 C 798.339 1.06115 -1.56157 0
M  V30 7691 O 797.696 1.67233 -0.730701 0
M  V30 7692 C 797.747 -0.31101 -3.6016 0
M  V30 7693 O 797.468 -1.62557 -4.06825 0
M  V30 7694 C 798.969 0.141213 -4.43075 0
M  V30 7695 H 796.189 -0.132741 -0.657739 0
M  V30 7696 H 798.733 -1.01104 -1.77759 0
M  V30 7697 H 796.888 0.343792 -3.85872 0
M  V30 7698 H 797.302 -1.54569 -5.01207 0
M  V30 7699 H 798.776 0.0875449 -5.51931 0
M  V30 7700 H 799.253 1.18782 -4.22833 0
M  V30 7701 H 799.859 -0.484383 -4.22533 0
M  V30 7702 N 798.174 1.49689 -0.493057 0
M  V30 7703 C 799.399 2.07331 0.0535114 0
M  V30 7704 C 799.824 1.35196 1.30781 0
M  V30 7705 O 799.182 0.406246 1.7669 0
M  V30 7706 C 799.23 3.59364 0.29825 0
M  V30 7707 O 798.334 3.88819 1.37454 0
M  V30 7708 H 797.675 0.663612 -0.0227018 0
M  V30 7709 H 800.205 1.926 -0.690402 0
M  V30 7710 H 800.215 4.04515 0.532159 0
M  V30 7711 H 798.89 4.1128 -0.618207 0
M  V30 7712 H 797.467 3.55487 1.12621 0
M  V30 7713 N 799.652 0.226554 1.55963 0
M  V30 7714 C 800.6 -0.697922 2.21882 0
M  V30 7715 C 801.594 -1.19586 1.19981 0
M  V30 7716 O 802.8 -1.15511 1.38048 0
M  V30 7717 H 799.175 -0.243501 0.711485 0
M  V30 7718 H 801.146 -0.118576 2.98164 0
M  V30 7719 C 799.895 -1.89309 2.91646 0
M  V30 7720 H 799.218 -1.51906 3.69817 0
M  V30 7721 H 800.658 -2.51762 3.41162 0
M  V30 7722 C 799.117 -2.75162 1.94391 0
M  V30 7723 O 799.647 -3.74071 1.46402 0
M  V30 7724 N 797.853 -2.41302 1.61932 0
M  V30 7725 H 797.4 -1.60923 2.01151 0
M  V30 7726 H 797.358 -2.99023 0.971219 0
M  V30 7727 N 801.13 -1.57531 -0.0467866 0
M  V30 7728 C 802.541 -1.76945 -0.595603 0
M  V30 7729 C 802.892 -0.855354 -1.76573 0
M  V30 7730 O 802.017 -0.045668 -2.16352 0
M  V30 7731 C 802.612 -3.20881 -1.08725 0
M  V30 7732 C 801.171 -3.41553 -1.58172 0
M  V30 7733 C 800.318 -2.72533 -0.511968 0
M  V30 7734 H 803.269 -1.57682 0.179436 0
M  V30 7735 H 803.29 -3.26419 -1.95528 0
M  V30 7736 H 802.802 -3.87385 -0.235398 0
M  V30 7737 H 800.903 -2.80199 -2.456 0
M  V30 7738 H 801.016 -4.50104 -1.64143 0
M  V30 7739 H 799.38 -2.35797 -0.962899 0
M  V30 7740 H 800.163 -3.41709 0.330117 0
M  V30 7741 N 802.608 0.318715 -1.54344 0
M  V30 7742 C 803.848 1.06425 -1.74508 0
M  V30 7743 C 804.212 1.85087 -0.510572 0
M  V30 7744 O 805.413 2.62253 -0.589647 0
M  V30 7745 C 803.684 1.96054 -2.98827 0
M  V30 7746 S 805.243 2.77493 -3.39916 0
M  V30 7747 H 802.061 0.35921 -0.613587 0
M  V30 7748 H 804.663 0.339679 -1.92526 0
M  V30 7749 H 803.367 1.37109 -3.8682 0
M  V30 7750 H 802.898 2.72908 -2.83346 0
M  V30 7751 H 804.913 3.98544 -2.95596 0
M  V30 7752 N 804.086 1.46499 0.581025 0
M  V30 7753 C 805.314 1.5547 1.36517 0
M  V30 7754 C 805.729 0.196407 1.87776 0
M  V30 7755 O 805.086 -0.806577 1.63709 0
M  V30 7756 C 805.137 2.56084 2.55154 0
M  V30 7757 O 804.858 3.86637 2.06018 0
M  V30 7758 C 806.359 2.75011 3.47683 0
M  V30 7759 H 803.579 0.525703 0.416986 0
M  V30 7760 H 806.123 1.9192 0.706177 0
M  V30 7761 H 804.278 2.22633 3.17039 0
M  V30 7762 H 804.692 4.41413 2.83292 0
M  V30 7763 H 806.166 3.49329 4.27403 0
M  V30 7764 H 806.643 1.81978 3.99726 0
M  V30 7765 H 807.249 3.09565 2.91632 0
M  V30 7766 N 805.565 -0.825799 1.34232 0
M  V30 7767 C 806.513 -1.95792 1.25572 0
M  V30 7768 C 807.507 -1.68695 0.154404 0
M  V30 7769 O 808.713 -1.77147 0.319196 0
M  V30 7770 H 805.088 -0.642949 0.390027 0
M  V30 7771 H 807.059 -2.00219 2.21258 0
M  V30 7772 C 805.808 -3.32245 1.02511 0
M  V30 7773 H 805.131 -3.53642 1.86487 0
M  V30 7774 H 806.571 -4.1192 1.00487 0
M  V30 7775 C 805.03 -3.35803 -0.27167 0
M  V30 7776 O 805.56 -3.80962 -1.274 0
M  V30 7777 N 803.766 -2.89008 -0.303778 0
M  V30 7778 H 803.313 -2.52451 0.512464 0
M  V30 7779 H 803.271 -2.9177 -1.17121 0
M  V30 7780 N 807.043 -1.17915 -1.04565 0
M  V30 7781 C 808.291 -0.969505 -1.77327 0
M  V30 7782 C 808.612 0.502569 -1.88412 0
M  V30 7783 O 807.882 1.36467 -1.40547 0
M  V30 7784 H 806.462 -0.355723 -0.656864 0
M  V30 7785 H 809.124 -1.48506 -1.26223 0
M  V30 7786 H 808.22 -1.40324 -2.78775 0
M  V30 7787 N 808.521 1.23394 -0.980386 0
M  V30 7788 C 809.798 1.87242 -0.565667 0
M  V30 7789 C 810.178 1.88151 0.957197 0
M  V30 7790 O 809.526 1.36309 1.8339 0
M  V30 7791 C 809.736 3.28743 -1.17172 0
M  V30 7792 C 811.084 4.05335 -1.26446 0
M  V30 7793 O 812.108 3.37962 -1.12517 0
M  V30 7794 O 810.967 5.25908 -1.48604 0
M  V30 7795 H 808.061 0.80477 -0.190459 0
M  V30 7796 H 810.607 1.3127 -1.07547 0
M  V30 7797 H 809.379 3.22647 -2.21392 0
M  V30 7798 H 809.002 3.92305 -0.646739 0
M  V30 7799 N 809.999 0.752036 1.385 0
M  V30 7800 C 811.239 0.312408 2.01998 0
M  V30 7801 C 811.603 -1.085 1.58404 0
M  V30 7802 O 812.804 -1.62365 2.14222 0
M  V30 7803 C 811.075 0.429423 3.54811 0
M  V30 7804 S 812.634 0.0721487 4.38741 0
M  V30 7805 H 809.452 0.1213 0.700576 0
M  V30 7806 H 812.054 0.982312 1.69029 0
M  V30 7807 H 810.758 1.44743 3.84028 0
M  V30 7808 H 810.289 -0.257716 3.92555 0
M  V30 7809 H 812.304 -1.13875 4.82957 0
M  V30 7810 N 811.477 -1.49425 0.500989 0
M  V30 7811 C 812.723 -2.02753 -0.0436 0
M  V30 7812 C 813.056 -1.37991 -1.36646 0
M  V30 7813 O 812.331 -0.515597 -1.87542 0
M  V30 7814 C 812.614 -3.59565 -0.19616 0
M  V30 7815 C 812.467 -4.34855 1.14982 0
M  V30 7816 C 813.786 -4.30014 -0.936795 0
M  V30 7817 H 810.905 -0.73686 -0.0143711 0
M  V30 7818 H 813.547 -1.78448 0.652397 0
M  V30 7819 H 811.697 -3.80405 -0.788959 0
M  V30 7820 H 813.369 -4.25512 1.7815 0
M  V30 7821 H 811.612 -3.97414 1.73911 0
M  V30 7822 H 812.283 -5.42933 0.996385 0
M  V30 7823 H 814.759 -4.1383 -0.434036 0
M  V30 7824 H 813.635 -5.39483 -1.01238 0
M  V30 7825 H 813.896 -3.95257 -1.9805 0
M  V30 7826 N 812.955 -0.234822 -1.55841 0
M  V30 7827 C 813.903 0.686145 -2.22249 0
M  V30 7828 C 814.897 1.18948 -1.20614 0
M  V30 7829 O 816.103 1.14777 -1.38659 0
M  V30 7830 H 812.478 0.239724 -0.712767 0
M  V30 7831 H 814.449 0.102762 -2.98223 0
M  V30 7832 C 813.198 1.8776 -2.92646 0
M  V30 7833 H 812.521 1.49943 -3.70617 0
M  V30 7834 H 813.961 2.4995 -3.42493 0
M  V30 7835 C 812.42 2.74127 -1.95847 0
M  V30 7836 O 812.95 3.7329 -1.48384 0
M  V30 7837 N 811.156 2.4044 -1.63209 0
M  V30 7838 H 810.703 1.59854 -2.02001 0
M  V30 7839 H 810.661 2.98504 -0.987063 0
M  V30 7840 N 814.433 1.57553 0.0384317 0
M  V30 7841 C 815.661 1.93093 0.743141 0
M  V30 7842 C 816.076 0.833787 1.69391 0
M  V30 7843 O 815.433 -0.190532 1.81503 0
M  V30 7844 C 815.484 3.28533 1.50826 0
M  V30 7845 O 815.205 4.34032 0.595665 0
M  V30 7846 C 816.706 3.78297 2.31098 0
M  V30 7847 H 813.926 0.637486 0.20941 0
M  V30 7848 H 816.47 2.045 -0.00125154 0
M  V30 7849 H 814.625 3.18552 2.20462 0
M  V30 7850 H 815.039 5.12155 1.13124 0
M  V30 7851 H 816.513 4.75602 2.80191 0
M  V30 7852 H 816.99 3.09008 3.12107 0
M  V30 7853 H 817.596 3.91331 1.66555 0
M  V30 7854 N 815.911 -0.310526 1.54511 0
M  V30 7855 C 817.322 -0.884142 1.64438 0
M  V30 7856 C 817.673 -1.88425 0.546855 0
M  V30 7857 O 816.798 -2.14049 -0.31811 0
M  V30 7858 C 817.393 -1.6104 2.9808 0
M  V30 7859 C 815.952 -2.13255 3.1016 0
M  V30 7860 C 815.099 -0.96213 2.60074 0
M  V30 7861 H 818.05 -0.0877666 1.58457 0
M  V30 7862 H 818.071 -2.47541 2.8897 0
M  V30 7863 H 817.583 -0.882255 3.77939 0
M  V30 7864 H 815.684 -2.89145 2.35002 0
M  V30 7865 H 815.797 -2.37361 4.16169 0
M  V30 7866 H 814.161 -1.34501 2.16291 0
M  V30 7867 H 814.944 -0.248098 3.42402 0
M  V30 7868 N 817.389 -1.46805 -0.573248 0
M  V30 7869 C 818.637 -1.52302 -1.32847 0
M  V30 7870 C 818.958 -0.180159 -1.94166 0
M  V30 7871 O 818.228 0.794291 -1.79075 0
M  V30 7872 H 816.808 -0.56097 -0.493276 0
M  V30 7873 H 819.47 -1.82998 -0.670642 0
M  V30 7874 H 818.566 -2.28089 -2.13031 0
M  V30 7875 N 818.867 0.818669 -1.34668 0
M  V30 7876 C 820.092 1.61193 -1.30505 0
M  V30 7877 C 820.517 1.87734 0.117341 0
M  V30 7878 O 819.875 1.45591 1.08042 0
M  V30 7879 C 819.923 2.92733 -2.1057 0
M  V30 7880 O 819.027 3.85 -1.47813 0
M  V30 7881 H 818.368 0.490085 -0.44801 0
M  V30 7882 H 820.898 1.01701 -1.77534 0
M  V30 7883 H 820.908 3.42262 -2.22082 0
M  V30 7884 H 819.583 2.7274 -3.13984 0
M  V30 7885 H 818.16 3.43525 -1.45069 0
M  V30 7886 N 820.346 1.18468 1.03938 0
M  V30 7887 C 821.576 1.0043 1.80547 0
M  V30 7888 C 821.984 -0.450407 1.83761 0
M  V30 7889 O 821.327 -1.32463 1.27276 0
M  V30 7890 C 821.389 1.48437 3.27424 0
M  V30 7891 C 821.053 2.96372 3.47869 0
M  V30 7892 C 822.05 3.94217 3.38953 0
M  V30 7893 C 819.735 3.34831 3.74424 0
M  V30 7894 C 821.729 5.28517 3.56298 0
M  V30 7895 C 819.416 4.69294 3.91416 0
M  V30 7896 C 820.414 5.65946 3.82354 0
M  V30 7897 O 820.102 6.97974 3.98858 0
M  V30 7898 H 819.834 0.354853 0.575374 0
M  V30 7899 H 822.388 1.57473 1.31876 0
M  V30 7900 H 820.618 0.857601 3.7707 0
M  V30 7901 H 822.307 1.2677 3.85596 0
M  V30 7902 H 823.073 3.6585 3.184 0
M  V30 7903 H 818.952 2.60161 3.80575 0
M  V30 7904 H 822.496 6.03943 3.49141 0
M  V30 7905 H 818.393 4.97361 4.11463 0
M  V30 7906 H 819.161 7.04895 4.1601 0
M  V30 7907 N 821.824 -1.22873 0.986916 0
M  V30 7908 C 823.054 -1.95204 0.67668 0
M  V30 7909 C 823.462 -1.73193 -0.761641 0
M  V30 7910 O 822.805 -1.0243 -1.52492 0
M  V30 7911 C 822.867 -3.48173 0.895302 0
M  V30 7912 C 822.531 -3.93912 2.31695 0
M  V30 7913 C 823.528 -4.02064 3.29607 0
M  V30 7914 C 821.213 -4.26722 2.64978 0
M  V30 7915 C 823.207 -4.42391 4.58878 0
M  V30 7916 C 820.894 -4.66729 3.94471 0
M  V30 7917 C 821.892 -4.74531 4.91232 0
M  V30 7918 O 821.58 -5.13636 6.18412 0
M  V30 7919 H 821.312 -0.628105 0.24992 0
M  V30 7920 H 823.866 -1.5714 1.32274 0
M  V30 7921 H 822.096 -3.86223 0.192072 0
M  V30 7922 H 823.785 -4.01717 0.581233 0
M  V30 7923 H 824.551 -3.76912 3.05225 0
M  V30 7924 H 820.43 -4.19858 1.9037 0
M  V30 7925 H 823.974 -4.48395 5.34404 0
M  V30 7926 H 819.871 -4.91332 4.18645 0
M  V30 7927 H 820.639 -5.31728 6.2226 0
M  V30 7928 N 823.302 -0.75937 -1.38099 0
M  V30 7929 C 824.542 -0.323116 -2.0183 0
M  V30 7930 C 824.906 1.07658 -1.58977 0
M  V30 7931 O 826.107 1.61227 -2.1508 0
M  V30 7932 C 824.378 -0.448234 -3.54578 0
M  V30 7933 S 825.937 -0.0954152 -4.38696 0
M  V30 7934 H 822.755 -0.125013 -0.699923 0
M  V30 7935 H 825.357 -0.991262 -1.68506 0
M  V30 7936 H 824.061 -1.46778 -3.83255 0
M  V30 7937 H 823.592 0.236895 -3.92686 0
M  V30 7938 H 825.607 1.11312 -4.83554 0
M  V30 7939 N 824.78 1.49157 -0.508906 0
M  V30 7940 C 825.727 2.2927 0.265288 0
M  V30 7941 C 826.697 1.3603 0.953162 0
M  V30 7942 O 827.882 1.64989 0.958291 0
M  V30 7943 C 825.022 3.18897 1.31904 0
M  V30 7944 C 824.135 4.27201 0.642144 0
M  V30 7945 C 823.27 5.04033 1.67701 0
M  V30 7946 C 822.309 6.04165 0.982422 0
M  V30 7947 N 821.446 6.74133 1.96186 0
M  V30 7948 H 826.286 2.94967 -0.424107 0
M  V30 7949 H 823.823 1.45431 -0.220991 0
M  V30 7950 H 825.781 3.69242 1.94206 0
M  V30 7951 H 824.411 2.55168 1.97709 0
M  V30 7952 H 823.463 3.80283 -0.0943395 0
M  V30 7953 H 824.775 4.98708 0.0957507 0
M  V30 7954 H 823.929 5.58287 2.37487 0
M  V30 7955 H 822.668 4.32317 2.25728 0
M  V30 7956 H 821.673 5.49135 0.270378 0
M  V30 7957 H 822.898 6.7787 0.408554 0
M  V30 7958 H 820.844 6.05183 2.53159 0
M  V30 7959 H 820.761 7.41643 1.46634 0
M  V30 7960 H 822.029 7.32987 2.65236 0
M  V30 7961 N 826.258 0.243083 1.55714 0
M  V30 7962 C 827.498 -0.384303 2.00755 0
M  V30 7963 C 827.862 -1.55406 1.12752 0
M  V30 7964 O 829.063 -2.24892 1.47231 0
M  V30 7965 C 827.334 -0.787419 3.48618 0
M  V30 7966 S 828.893 -1.40587 4.15669 0
M  V30 7967 H 825.711 -0.121088 0.700613 0
M  V30 7968 H 828.313 0.357423 1.92205 0
M  V30 7969 H 827.017 0.0732892 4.10335 0
M  V30 7970 H 826.548 -1.56142 3.61086 0
M  V30 7971 H 828.563 -2.69493 4.16639 0
M  V30 7972 N 827.736 -1.57571 -0.0300757 0
M  V30 7973 C 828.686 -2.02958 -1.03885 0
M  V30 7974 C 829.67 -0.918723 -1.32092 0
M  V30 7975 O 830.862 -1.18262 -1.31694 0
M  V30 7976 C 827.991 -2.51169 -2.34028 0
M  V30 7977 C 827.077 -3.69073 -2.08915 0
M  V30 7978 N 827.468 -4.81831 -1.53858 0
M  V30 7979 C 825.766 -3.76427 -2.39204 0
M  V30 7980 C 826.467 -5.6346 -1.44526 0
M  V30 7981 N 825.443 -5.08545 -1.92048 0
M  V30 7982 H 829.245 -2.8756 -0.607157 0
M  V30 7983 H 826.759 -1.6067 -0.236399 0
M  V30 7984 H 828.756 -2.81944 -3.07104 0
M  V30 7985 H 827.416 -1.67972 -2.77876 0
M  V30 7986 H 828.427 -5.03291 -1.22142 0
M  V30 7987 H 825.104 -3.04029 -2.86134 0
M  V30 7988 H 826.494 -6.64042 -1.02456 0
M  V30 7989 N 829.214 0.302327 -1.54673 0
M  V30 7990 C 830.177 1.35592 -1.8479 0
M  V30 7991 C 831.177 1.43743 -0.72073 0
M  V30 7992 O 832.367 1.43402 -0.989017 0
M  V30 7993 C 829.499 2.74091 -2.02699 0
M  V30 7994 H 830.692 1.10132 -2.78946 0
M  V30 7995 H 828.245 0.538926 -1.46715 0
M  V30 7996 H 828.98 3.04775 -1.10826 0
M  V30 7997 H 828.765 2.69565 -2.8474 0
M  V30 7998 H 830.255 3.50272 -2.27374 0
M  V30 7999 N 830.692 1.47107 0.565454 0
M  V30 8000 C 831.94 1.53005 1.32038 0
M  V30 8001 C 832.261 0.190453 1.94068 0
M  V30 8002 O 831.531 -0.784783 1.79494 0
M  V30 8003 H 830.111 0.563578 0.490294 0
M  V30 8004 H 832.773 1.83351 0.660928 0
M  V30 8005 H 831.869 2.29215 2.11818 0
M  V30 8006 N 832.17 -0.811516 1.35101 0
M  V30 8007 C 833.417 -1.56835 1.28098 0
M  V30 8008 C 833.745 -1.93951 -0.14597 0
M  V30 8009 O 833 -1.61173 -1.11004 0
M  V30 8010 C 833.299 -2.87121 2.1283 0
M  V30 8011 C 832.965 -2.69245 3.61688 0
M  V30 8012 C 831.627 -2.64078 4.02264 0
M  V30 8013 C 833.979 -2.52122 4.56162 0
M  V30 8014 C 831.307 -2.39724 5.3549 0
M  V30 8015 C 833.659 -2.29298 5.89581 0
M  V30 8016 C 832.323 -2.2255 6.29307 0
M  V30 8017 H 831.593 -0.5739 0.468742 0
M  V30 8018 H 834.24 -0.93806 1.66951 0
M  V30 8019 H 832.545 -3.54502 1.66841 0
M  V30 8020 H 834.242 -3.44788 2.0475 0
M  V30 8021 H 830.832 -2.74112 3.29485 0
M  V30 8022 H 835.016 -2.5513 4.25702 0
M  V30 8023 H 830.272 -2.32965 5.65276 0
M  V30 8024 H 834.446 -2.15038 6.62368 0
M  V30 8025 H 832.073 -2.0344 7.32473 0
M  V30 8026 N 833.648 -1.19017 -1.03309 0
M  V30 8027 C 834.58 -0.881847 -2.11556 0
M  V30 8028 C 835.593 0.123711 -1.62329 0
M  V30 8029 O 836.782 -0.105141 -1.7819 0
M  V30 8030 C 833.882 -0.297634 -3.37591 0
M  V30 8031 C 833.055 -1.35072 -4.16022 0
M  V30 8032 C 832.114 -0.780812 -5.20375 0
M  V30 8033 O 831.14 -1.45745 -5.50224 0
M  V30 8034 N 832.342 0.417964 -5.78993 0
M  V30 8035 H 835.107 -1.81359 -2.38598 0
M  V30 8036 H 832.668 -1.0916 -1.19565 0
M  V30 8037 H 834.66 0.097374 -4.04583 0
M  V30 8038 H 833.23 0.538299 -3.0793 0
M  V30 8039 H 832.45 -1.92074 -3.4424 0
M  V30 8040 H 833.738 -2.06044 -4.65213 0
M  V30 8041 H 833.136 0.985281 -5.57054 0
M  V30 8042 H 831.693 0.754802 -6.47415 0
M  V30 8043 N 835.127 1.22348 -0.993418 0
M  V30 8044 C 836.543 1.43222 -0.704238 0
M  V30 8045 C 836.743 1.88009 0.724909 0
M  V30 8046 O 835.799 2.03429 1.49575 0
M  V30 8047 C 837.112 2.47328 -1.71025 0
M  V30 8048 C 838.66 2.61126 -1.72576 0
M  V30 8049 C 839.135 3.68453 -2.72041 0
M  V30 8050 N 840.626 3.75911 -2.70639 0
M  V30 8051 C 841.361 4.58551 -3.44266 0
M  V30 8052 N 840.857 5.45179 -4.27495 0
M  V30 8053 N 842.65 4.52866 -3.32969 0
M  V30 8054 H 834.801 0.915832 -1.91641 0
M  V30 8055 H 837.064 0.464283 -0.826526 0
M  V30 8056 H 836.77 2.21366 -2.73295 0
M  V30 8057 H 836.644 3.45939 -1.50353 0
M  V30 8058 H 839.031 2.86431 -0.710037 0
M  V30 8059 H 839.112 1.62787 -1.97317 0
M  V30 8060 H 838.756 3.43895 -3.73763 0
M  V30 8061 H 838.686 4.66362 -2.4457 0
M  V30 8062 H 841.177 3.14014 -2.10247 0
M  V30 8063 H 841.49 6.0526 -4.80499 0
M  V30 8064 H 839.835 5.44759 -4.31582 0
M  V30 8065 H 843.026 3.84215 -2.67389 0
M  V30 8066 H 843.199 5.17039 -3.90608 0
M  V30 8067 N 836.605 0.766683 1.37694 0
M  V30 8068 C 837.833 0.339939 2.04088 0
M  V30 8069 C 838.248 -1.03617 1.57826 0
M  V30 8070 O 837.605 -1.6605 0.757214 0
M  V30 8071 C 837.656 0.368269 3.59619 0
M  V30 8072 O 837.377 1.69009 4.04188 0
M  V30 8073 C 838.878 -0.0707053 4.43244 0
M  V30 8074 H 836.098 0.143189 0.655544 0
M  V30 8075 H 838.642 1.03919 1.76128 0
M  V30 8076 H 836.797 -0.282359 3.8637 0
M  V30 8077 H 837.211 1.62523 4.98685 0
M  V30 8078 H 838.685 0.000273538 5.52 0
M  V30 8079 H 839.162 -1.1204 4.24669 0
M  V30 8080 H 839.768 0.551543 4.21709 0
M  V30 8081 N 838.083 -1.48885 0.516809 0
M  V30 8082 C 839.494 -1.86557 0.0729921 0
M  V30 8083 C 839.845 -1.42767 -1.34581 0
M  V30 8084 O 838.97 -0.812514 -2.00567 0
M  V30 8085 C 839.565 -3.38567 0.125686 0
M  V30 8086 C 838.124 -3.75481 -0.262867 0
M  V30 8087 C 837.271 -2.72913 0.491281 0
M  V30 8088 H 840.222 -1.40978 0.728767 0
M  V30 8089 H 840.243 -3.74629 -0.665831 0
M  V30 8090 H 839.755 -3.70408 1.15842 0
M  V30 8091 H 837.856 -3.49251 -1.29824 0
M  V30 8092 H 837.969 -4.79052 0.067579 0
M  V30 8093 H 836.333 -2.54627 -0.0608525 0
M  V30 8094 H 837.116 -3.07599 1.5244 0
M  V30 8095 N 839.561 -0.251338 -1.55583 0
M  V30 8096 C 840.789 0.376187 -2.03451 0
M  V30 8097 C 841.204 1.51215 -1.13047 0
M  V30 8098 O 840.561 1.81917 -0.145769 0
M  V30 8099 C 840.612 0.879779 -3.50631 0
M  V30 8100 O 840.333 -0.210917 -4.37592 0
M  V30 8101 C 841.834 1.57754 -4.14281 0
M  V30 8102 H 839.054 0.0888722 -0.665089 0
M  V30 8103 H 841.598 -0.376497 -2.01004 0
M  V30 8104 H 839.753 1.58263 -3.53598 0
M  V30 8105 H 840.167 0.172203 -5.24217 0
M  V30 8106 H 841.641 1.88158 -5.18942 0
M  V30 8107 H 842.118 2.50103 -3.61034 0
M  V30 8108 H 842.724 0.919154 -4.15249 0
M  V30 8109 N 841.039 1.57585 0.0217189 0
M  V30 8110 C 841.986 2.07036 1.02004 0
M  V30 8111 C 842.956 0.96106 1.35473 0
M  V30 8112 O 844.141 1.23211 1.45684 0
M  V30 8113 C 841.281 2.56056 2.31364 0
M  V30 8114 C 840.394 3.80805 2.03989 0
M  V30 8115 C 839.529 4.18409 3.27272 0
M  V30 8116 C 838.568 5.36055 2.95486 0
M  V30 8117 N 837.705 5.69056 4.11242 0
M  V30 8118 H 842.545 2.92073 0.591396 0
M  V30 8119 H 840.082 1.44403 0.280384 0
M  V30 8120 H 842.04 2.82548 3.06957 0
M  V30 8121 H 840.67 1.73925 2.71937 0
M  V30 8122 H 839.722 3.61354 1.1886 0
M  V30 8123 H 841.034 4.66512 1.76546 0
M  V30 8124 H 840.188 4.46068 4.11228 0
M  V30 8125 H 838.927 3.31369 3.57835 0
M  V30 8126 H 837.932 5.08142 2.09933 0
M  V30 8127 H 839.157 6.24755 2.66193 0
M  V30 8128 H 837.103 4.84974 4.41742 0
M  V30 8129 H 837.02 6.49288 3.87247 0
M  V30 8130 H 838.288 6.01295 4.96049 0
M  V30 8131 N 842.517 -0.29412 1.54831 0
M  V30 8132 C 843.449 -1.38476 1.82639 0
M  V30 8133 C 844.462 -1.46517 0.709694 0
M  V30 8134 O 845.651 -1.48712 0.987269 0
M  V30 8135 C 842.751 -2.76791 1.95551 0
M  V30 8136 C 841.924 -2.91599 3.26019 0
M  V30 8137 C 840.983 -4.10456 3.29261 0
M  V30 8138 O 840.009 -4.02214 4.02756 0
M  V30 8139 N 841.211 -5.21422 2.55145 0
M  V30 8140 H 843.976 -1.14974 2.76769 0
M  V30 8141 H 841.537 -0.484206 1.5449 0
M  V30 8142 H 843.529 -3.5456 1.95113 0
M  V30 8143 H 842.099 -2.93209 1.08384 0
M  V30 8144 H 841.319 -2.00886 3.39173 0
M  V30 8145 H 842.607 -2.98409 4.12104 0
M  V30 8146 H 842.005 -5.31 1.95078 0
M  V30 8147 H 840.562 -5.97501 2.60454 0
M  V30 8148 N 843.995 -1.47404 -0.557645 0
M  V30 8149 C 844.958 -1.59411 -1.64684 0
M  V30 8150 C 845.958 -0.469244 -1.53801 0
M  V30 8151 O 847.148 -0.734298 -1.57967 0
M  V30 8152 C 844.28 -1.5382 -3.04224 0
M  V30 8153 H 845.473 -2.56504 -1.55389 0
M  V30 8154 H 843.026 -1.35588 -0.777531 0
M  V30 8155 H 843.761 -0.581 -3.19053 0
M  V30 8156 H 843.546 -2.35456 -3.13533 0
M  V30 8157 H 845.036 -1.65358 -3.83466 0
M  V30 8158 N 845.473 0.80434 -1.35529 0
M  V30 8159 C 846.713 1.57489 -1.30295 0
M  V30 8160 C 847.077 1.91621 0.120528 0
M  V30 8161 O 848.278 2.67151 0.297265 0
M  V30 8162 C 846.549 2.82741 -2.18615 0
M  V30 8163 S 848.108 3.73125 -2.30918 0
M  V30 8164 H 844.926 0.539573 -0.463014 0
M  V30 8165 H 847.528 0.948601 -1.70944 0
M  V30 8166 H 846.232 2.55692 -3.21014 0
M  V30 8167 H 845.763 3.50353 -1.78931 0
M  V30 8168 H 847.778 4.73122 -1.49566 0
M  V30 8169 N 846.951 1.19563 1.02676 0
M  V30 8170 C 848.2 0.993864 1.75514 0
M  V30 8171 C 848.513 -0.475882 1.89723 0
M  V30 8172 O 849.719 -0.796525 2.59553 0
M  V30 8173 C 848.175 1.72937 3.15628 0
M  V30 8174 C 847.783 3.23937 3.09466 0
M  V30 8175 C 849.527 1.61092 3.92746 0
M  V30 8176 C 847.434 3.90067 4.44524 0
M  V30 8177 H 846.364 0.368244 0.657961 0
M  V30 8178 H 849.015 1.43081 1.14891 0
M  V30 8179 H 847.397 1.22025 3.76731 0
M  V30 8180 H 848.571 3.81983 2.57731 0
M  V30 8181 H 846.886 3.3608 2.45843 0
M  V30 8182 H 849.483 2.07848 4.92649 0
M  V30 8183 H 849.826 0.565415 4.12442 0
M  V30 8184 H 850.359 2.09361 3.3825 0
M  V30 8185 H 847.098 4.94725 4.30032 0
M  V30 8186 H 846.618 3.36809 4.96306 0
M  V30 8187 H 848.297 3.93736 5.13401 0
M  V30 8188 N 848.429 -1.21819 0.999893 0
M  V30 8189 C 849.706 -1.86318 0.595384 0
M  V30 8190 C 850.086 -1.8965 -0.927143 0
M  V30 8191 O 849.434 -1.3921 -1.81199 0
M  V30 8192 C 849.644 -3.26837 1.22387 0
M  V30 8193 C 850.992 -4.03272 1.32878 0
M  V30 8194 O 852.016 -3.36129 1.1788 0
M  V30 8195 O 850.875 -5.23477 1.56952 0
M  V30 8196 H 847.969 -0.801638 0.203238 0
M  V30 8197 H 850.515 -1.29542 1.09622 0
M  V30 8198 H 849.287 -3.19084 2.26497 0
M  V30 8199 H 848.91 -3.91226 0.709069 0
M  V30 8200 N 849.908 -0.773975 -1.37286 0
M  V30 8201 C 851.157 -0.335977 -1.98882 0
M  V30 8202 C 851.47 1.09416 -1.62134 0
M  V30 8203 O 852.676 1.63366 -2.1685 0
M  V30 8204 C 851.132 -0.549756 -3.55676 0
M  V30 8205 C 850.74 -1.9903 -4.01361 0
M  V30 8206 C 852.484 -0.175493 -4.24137 0
M  V30 8207 C 850.391 -2.15156 -5.50874 0
M  V30 8208 H 849.321 -0.121877 -0.744085 0
M  V30 8209 H 851.972 -0.953419 -1.56787 0
M  V30 8210 H 850.354 0.137175 -3.95762 0
M  V30 8211 H 851.528 -2.71237 -3.72515 0
M  V30 8212 H 849.843 -2.32137 -3.4569 0
M  V30 8213 H 852.44 -0.274463 -5.33995 0
M  V30 8214 H 852.783 0.874524 -4.07011 0
M  V30 8215 H 853.316 -0.815058 -3.89361 0
M  V30 8216 H 850.055 -3.18485 -5.72929 0
M  V30 8217 H 849.575 -1.47435 -5.81397 0
M  V30 8218 H 851.254 -1.95124 -6.16876 0
M  V30 8219 N 851.386 1.48609 -0.524698 0
M  V30 8220 C 852.663 1.95454 0.075465 0
M  V30 8221 C 853.043 1.46682 1.51814 0
M  V30 8222 O 852.391 0.690975 2.17802 0
M  V30 8223 C 852.601 3.48981 -0.0363273 0
M  V30 8224 C 853.949 4.24414 0.125624 0
M  V30 8225 O 854.973 3.5618 0.0377239 0
M  V30 8226 O 853.832 5.45625 0.309104 0
M  V30 8227 H 850.926 0.822902 0.0822256 0
M  V30 8228 H 853.472 1.59153 -0.588921 0
M  V30 8229 H 852.244 3.77185 -1.04149 0
M  V30 8230 H 851.867 3.91963 0.667146 0
M  V30 8231 N 852.864 0.259585 1.55447 0
M  V30 8232 C 853.774 -0.645026 2.25558 0
M  V30 8233 C 854.79 -1.18291 1.27606 0
M  V30 8234 O 855.966 -1.21649 1.6051 0
M  V30 8235 C 853.031 -1.81964 2.9511 0
M  V30 8236 C 852.092 -1.31997 4.08504 0
M  V30 8237 C 851.325 -2.43861 4.74729 0
M  V30 8238 O 851.548 -3.62876 4.40088 0
M  V30 8239 O 850.482 -2.12898 5.6299 0
M  V30 8240 H 854.308 -0.0775399 3.03601 0
M  V30 8241 H 851.893 0.0275859 1.49375 0
M  V30 8242 H 853.775 -2.50485 3.38873 0
M  V30 8243 H 852.45 -2.37451 2.19997 0
M  V30 8244 H 851.357 -0.601676 3.6923 0
M  V30 8245 H 852.69 -0.811045 4.85472 0
M  V30 8246 N 854.342 -1.57594 -0.0133615 0
M  V30 8247 C 855.582 -1.91834 -0.705639 0
M  V30 8248 C 855.946 -0.859801 -1.71672 0
M  V30 8249 O 857.147 -1.08702 -2.4584 0
M  V30 8250 C 855.418 -3.31174 -1.34383 0
M  V30 8251 S 856.977 -3.87275 -2.06309 0
M  V30 8252 H 853.795 -0.671598 -0.233404 0
M  V30 8253 H 856.397 -1.95459 0.0401173 0
M  V30 8254 H 855.101 -4.06065 -0.594939 0
M  V30 8255 H 854.632 -3.3089 -2.12781 0
M  V30 8256 H 856.647 -3.67271 -3.33657 0
M  V30 8257 N 855.82 0.285905 -1.54985 0
M  V30 8258 C 857.069 1.01691 -1.74189 0
M  V30 8259 C 857.382 1.87908 -0.543135 0
M  V30 8260 O 858.588 2.64389 -0.617305 0
M  V30 8261 C 857.044 1.85785 -3.0824 0
M  V30 8262 C 856.652 1.04497 -4.35642 0
M  V30 8263 C 858.396 2.58393 -3.36798 0
M  V30 8264 C 856.303 1.87955 -5.60738 0
M  V30 8265 H 855.233 0.383396 -0.649248 0
M  V30 8266 H 857.884 0.27317 -1.81455 0
M  V30 8267 H 856.266 2.64205 -2.94978 0
M  V30 8268 H 857.44 0.305847 -4.59784 0
M  V30 8269 H 855.755 0.434023 -4.14132 0
M  V30 8270 H 858.352 3.21214 -4.27464 0
M  V30 8271 H 858.695 3.28011 -2.56349 0
M  V30 8272 H 859.228 1.87012 -3.511 0
M  V30 8273 H 855.967 1.22781 -6.43898 0
M  V30 8274 H 855.487 2.59499 -5.40759 0
M  V30 8275 H 857.166 2.45636 -5.98558 0
M  V30 8276 N 857.298 1.47698 0.54982 0
M  V30 8277 C 858.23 1.56806 1.67166 0
M  V30 8278 C 859.243 0.453709 1.5635 0
M  V30 8279 O 860.432 0.723663 1.63173 0
M  V30 8280 C 857.532 1.4632 3.05686 0
M  V30 8281 C 856.705 2.72452 3.42182 0
M  V30 8282 C 855.764 2.55698 4.59897 0
M  V30 8283 O 854.79 3.29534 4.64108 0
M  V30 8284 N 855.992 1.64009 5.56849 0
M  V30 8285 H 858.757 2.53545 1.59797 0
M  V30 8286 H 856.318 1.44171 0.736635 0
M  V30 8287 H 858.31 1.32835 3.82279 0
M  V30 8288 H 856.88 0.57634 3.07241 0
M  V30 8289 H 856.1 3.00644 2.54964 0
M  V30 8290 H 857.388 3.56172 3.63344 0
M  V30 8291 H 856.786 1.03186 5.5621 0
M  V30 8292 H 855.343 1.56473 6.3274 0
M  V30 8293 N 858.776 -0.797141 1.35954 0
M  V30 8294 C 859.724 -1.93084 1.29697 0
M  V30 8295 C 860.718 -1.68329 0.190152 0
M  V30 8296 O 861.924 -1.7643 0.3567 0
M  V30 8297 H 858.299 -0.634531 0.403577 0
M  V30 8298 H 860.27 -1.95481 2.25455 0
M  V30 8299 C 859.019 -3.29996 1.09536 0
M  V30 8300 H 858.342 -3.49607 1.93946 0
M  V30 8301 H 859.782 -4.09696 1.09202 0
M  V30 8302 C 858.241 -3.36304 -0.200381 0
M  V30 8303 O 858.771 -3.83579 -1.19291 0
M  V30 8304 N 856.977 -2.89587 -0.242406 0
M  V30 8305 H 856.524 -2.51307 0.565897 0
M  V30 8306 H 856.482 -2.94189 -1.10906 0
M  V30 8307 N 860.254 -1.20106 -1.0204 0
M  V30 8308 C 861.502 -1.0069 -1.75231 0
M  V30 8309 C 861.823 0.462491 -1.89436 0
M  V30 8310 O 861.093 1.33455 -1.4341 0
M  V30 8311 H 859.673 -0.369576 -0.649171 0
M  V30 8312 H 862.335 -1.51149 -1.23044 0
M  V30 8313 H 861.431 -1.46205 -2.75736 0
M  V30 8314 N 861.732 1.21287 -1.00634 0
M  V30 8315 C 862.978 1.90671 -0.690822 0
M  V30 8316 C 863.311 1.77996 0.776592 0
M  V30 8317 O 862.586 1.15748 1.5631 0
M  V30 8318 C 862.869 3.42426 -1.11428 0
M  V30 8319 C 862.722 3.64086 -2.64124 0
M  V30 8320 C 864.041 4.34851 -0.677686 0
M  V30 8321 H 861.16 0.692419 -0.252439 0
M  V30 8322 H 863.802 1.42893 -1.25226 0
M  V30 8323 H 861.952 3.83249 -0.636586 0
M  V30 8324 H 863.624 3.32582 -3.19667 0
M  V30 8325 H 861.867 3.07906 -3.05576 0
M  V30 8326 H 862.538 4.7042 -2.88806 0
M  V30 8327 H 865.014 4.01619 -1.0882 0
M  V30 8328 H 863.89 5.39675 -1.00213 0
M  V30 8329 H 864.151 4.4009 0.421125 0
M  V30 8330 N 863.21 0.781244 1.36873 0
M  V30 8331 C 864.14 0.188128 2.32741 0
M  V30 8332 C 865.121 -0.672326 1.56249 0
M  V30 8333 O 866.306 -0.607835 1.84442 0
M  V30 8334 C 863.436 -0.684341 3.40491 0
M  V30 8335 C 862.39 0.0755641 4.27933 0
M  V30 8336 C 861.716 -0.916968 5.26779 0
M  V30 8337 C 863.016 1.26006 5.06873 0
M  V30 8338 H 864.71 0.989016 2.82593 0
M  V30 8339 H 862.256 0.477038 1.35869 0
M  V30 8340 H 864.209 -1.10915 4.06541 0
M  V30 8341 H 862.933 -1.51785 2.89187 0
M  V30 8342 H 861.592 0.481258 3.63427 0
M  V30 8343 H 861.24 -1.74528 4.71751 0
M  V30 8344 H 860.94 -0.413 5.86147 0
M  V30 8345 H 862.464 -1.34052 5.95703 0
M  V30 8346 H 863.878 0.911425 5.66009 0
M  V30 8347 H 862.275 1.69676 5.75613 0
M  V30 8348 H 863.345 2.05948 4.38991 0
M  V30 8349 N 864.689 -1.48329 0.532571 0
M  V30 8350 C 865.929 -2.044 0.00145618 0
M  V30 8351 C 866.293 -1.40053 -1.31336 0
M  V30 8352 O 867.494 -1.87026 -1.93066 0
M  V30 8353 C 865.765 -3.57214 -0.115376 0
M  V30 8354 S 867.324 -4.34731 -0.59618 0
M  V30 8355 H 864.142 -0.710876 0.0133038 0
M  V30 8356 H 866.744 -1.82006 0.71372 0
M  V30 8357 H 865.448 -4.01579 0.846335 0
M  V30 8358 H 864.979 -3.84065 -0.85194 0
M  V30 8359 H 866.994 -4.6001 -1.86025 0
M  V30 8360 N 866.167 -0.267825 -1.55308 0
M  V30 8361 C 867.114 0.6228 -2.22238 0
M  V30 8362 C 868.084 1.15536 -1.19334 0
M  V30 8363 O 869.269 1.206 -1.47852 0
M  V30 8364 C 866.409 1.80447 -2.94164 0
M  V30 8365 C 865.522 1.30646 -4.11771 0
M  V30 8366 C 864.657 2.44935 -4.7136 0
M  V30 8367 C 863.696 1.92099 -5.81175 0
M  V30 8368 N 862.833 2.99834 -6.34857 0
M  V30 8369 H 867.673 0.0453874 -2.97965 0
M  V30 8370 H 865.21 0.0106371 -1.47096 0
M  V30 8371 H 867.168 2.49896 -3.34078 0
M  V30 8372 H 865.798 2.35403 -2.20874 0
M  V30 8373 H 864.85 0.505314 -3.77029 0
M  V30 8374 H 866.162 0.879409 -4.90987 0
M  V30 8375 H 865.316 3.2239 -5.13955 0
M  V30 8376 H 864.055 2.90951 -3.91406 0
M  V30 8377 H 863.06 1.13122 -5.38037 0
M  V30 8378 H 864.285 1.47027 -6.62993 0
M  V30 8379 H 862.231 3.45246 -5.578 0
M  V30 8380 H 862.148 2.61524 -7.09324 0
M  V30 8381 H 863.416 3.77286 -6.82111 0
M  V30 8382 N 867.645 1.57599 0.00500368 0
M  V30 8383 C 868.593 2.09223 1.01628 0
M  V30 8384 C 869.587 1.01113 1.35913 0
M  V30 8385 O 870.793 1.19583 1.34536 0
M  V30 8386 H 867.168 0.667999 0.345372 0
M  V30 8387 H 869.139 2.93188 0.555274 0
M  V30 8388 C 867.888 2.60674 2.30097 0
M  V30 8389 H 867.211 3.43491 2.04582 0
M  V30 8390 H 868.651 3.00479 2.99146 0
M  V30 8391 C 867.11 1.51862 3.00731 0
M  V30 8392 O 867.64 0.898651 3.91519 0
M  V30 8393 N 865.846 1.24729 2.62471 0
M  V30 8394 H 865.393 1.7533 1.88725 0
M  V30 8395 H 865.351 0.521437 3.10046 0
M  V30 8396 N 869.123 -0.277682 1.55134 0
M  V30 8397 C 870.371 -1.00791 1.75173 0
M  V30 8398 C 870.692 -1.86987 0.553266 0
M  V30 8399 O 869.962 -1.91079 -0.43195 0
M  V30 8400 H 868.542 -0.375129 0.645978 0
M  V30 8401 H 871.204 -0.303041 1.9253 0
M  V30 8402 H 870.3 -1.64756 2.6507 0
M  V30 8403 N 870.601 -1.47988 -0.541979 0
M  V30 8404 C 872.017 -1.33843 -0.869383 0
M  V30 8405 C 872.217 -0.340374 -1.98604 0
M  V30 8406 O 871.273 0.242696 -2.51331 0
M  V30 8407 C 872.586 -2.73568 -1.24823 0
M  V30 8408 C 874.134 -2.81967 -1.3588 0
M  V30 8409 C 874.609 -4.22368 -1.77114 0
M  V30 8410 N 876.1 -4.24983 -1.84237 0
M  V30 8411 C 876.835 -5.30547 -2.17503 0
M  V30 8412 N 876.331 -6.46401 -2.49275 0
M  V30 8413 N 878.124 -5.17933 -2.18406 0
M  V30 8414 H 870.275 -2.11503 0.195001 0
M  V30 8415 H 872.538 -0.947681 0.0245862 0
M  V30 8416 H 872.244 -3.48107 -0.501435 0
M  V30 8417 H 872.118 -3.06322 -2.20106 0
M  V30 8418 H 874.505 -2.07692 -2.09638 0
M  V30 8419 H 874.586 -2.52848 -0.387478 0
M  V30 8420 H 874.23 -4.97155 -1.0392 0
M  V30 8421 H 874.16 -4.48922 -2.75275 0
M  V30 8422 H 876.651 -3.41411 -1.62009 0
M  V30 8423 H 876.964 -7.22698 -2.73729 0
M  V30 8424 H 875.309 -6.49696 -2.46821 0
M  V30 8425 H 878.5 -4.26445 -1.93034 0
M  V30 8426 H 878.673 -6.00307 -2.44 0
M  V30 8427 N 872.079 0.78992 -1.36375 0
M  V30 8428 C 873.319 1.56098 -1.31958 0
M  V30 8429 C 873.683 1.91738 0.100197 0
M  V30 8430 O 874.884 2.67451 0.268913 0
M  V30 8431 C 873.155 2.80406 -2.21601 0
M  V30 8432 S 874.714 3.70655 -2.34863 0
M  V30 8433 H 871.532 0.534632 -0.46871 0
M  V30 8434 H 874.134 0.930417 -1.7194 0
M  V30 8435 H 872.838 2.52273 -3.23707 0
M  V30 8436 H 872.369 3.48436 -1.82637 0
M  V30 8437 H 874.384 4.71509 -1.54575 0
M  V30 8438 N 873.557 1.20646 1.01402 0
M  V30 8439 C 874.803 1.0197 1.753 0
M  V30 8440 C 875.136 -0.446803 1.8899 0
M  V30 8441 O 874.411 -1.33169 1.41762 0
M  V30 8442 C 874.694 1.70693 3.17074 0
M  V30 8443 C 874.547 3.24805 3.11162 0
M  V30 8444 C 875.866 1.44212 4.15802 0
M  V30 8445 H 872.985 0.371844 0.636318 0
M  V30 8446 H 875.627 1.48696 1.18277 0
M  V30 8447 H 873.777 1.30968 3.65759 0
M  V30 8448 H 875.449 3.73841 2.70261 0
M  V30 8449 H 873.692 3.55576 2.48492 0
M  V30 8450 H 874.363 3.68049 4.11393 0
M  V30 8451 H 876.839 1.7868 3.75783 0
M  V30 8452 H 875.715 1.94825 5.13161 0
M  V30 8453 H 875.976 0.370252 4.40547 0
M  V30 8454 N 875.035 -1.20752 1.01276 0
M  V30 8455 C 875.983 -2.25432 0.572989 0
M  V30 8456 C 876.977 -1.64935 -0.386354 0
M  V30 8457 O 878.183 -1.7816 -0.256696 0
M  V30 8458 H 874.558 -0.733229 0.166972 0
M  V30 8459 H 876.529 -2.59856 1.46687 0
M  V30 8460 C 875.278 -3.47615 -0.0768249 0
M  V30 8461 H 874.601 -3.94442 0.652354 0
M  V30 8462 H 876.041 -4.22572 -0.3477 0
M  V30 8463 C 874.5 -3.1003 -1.31845 0
M  V30 8464 O 875.03 -3.21216 -2.41211 0
M  V30 8465 N 873.236 -2.64616 -1.20111 0
M  V30 8466 H 872.783 -2.55714 -0.311184 0
M  V30 8467 H 872.741 -2.39838 -2.03286 0
M  V30 8468 N 876.513 -0.788492 -1.36457 0
M  V30 8469 C 877.741 -0.372365 -2.03522 0
M  V30 8470 C 878.156 1.01093 -1.59454 0
M  V30 8471 O 877.513 1.64824 -0.783535 0
M  V30 8472 C 877.564 -0.425435 -3.58988 0
M  V30 8473 O 877.285 -1.75418 -4.01448 0
M  V30 8474 C 878.786 0.000180167 -4.433 0
M  V30 8475 H 876.006 -0.1536 -0.653183 0
M  V30 8476 H 878.55 -1.06708 -1.74452 0
M  V30 8477 H 876.705 0.220856 -3.8677 0
M  V30 8478 H 877.119 -1.70437 -4.96036 0
M  V30 8479 H 878.593 -0.0880919 -5.5193 0
M  V30 8480 H 879.07 1.05269 -4.26398 0
M  V30 8481 H 879.676 -0.618563 -4.20778 0
M  V30 8482 N 877.991 1.48044 -0.54043 0
M  V30 8483 C 879.268 1.95523 0.0547302 0
M  V30 8484 C 879.648 1.48284 1.5025 0
M  V30 8485 O 878.996 0.714037 2.17057 0
M  V30 8486 C 879.206 3.48923 -0.0733393 0
M  V30 8487 C 880.554 4.24523 0.0806026 0
M  V30 8488 O 881.578 3.562 -5.58687e-05 0
M  V30 8489 O 880.437 5.45922 0.251216 0
M  V30 8490 H 877.531 0.823728 0.073493 0
M  V30 8491 H 880.077 1.5852 -0.605768 0
M  V30 8492 H 878.849 3.76059 -1.08144 0
M  V30 8493 H 878.472 3.92648 0.625536 0
M  V30 8494 N 879.47 0.276058 1.55163 0
M  V30 8495 C 880.718 -0.339782 1.99223 0
M  V30 8496 C 881.039 -1.56307 1.16589 0
M  V30 8497 O 880.309 -1.94225 0.25564 0
M  V30 8498 H 878.889 -0.128534 0.735859 0
M  V30 8499 H 881.551 0.381612 1.91128 0
M  V30 8500 H 880.647 -0.629 3.05696 0
M  V30 8501 N 880.948 -1.576 0.00335426 0
M  V30 8502 C 882.173 -1.95398 -0.695311 0
M  V30 8503 C 882.598 -0.878476 -1.66326 0
M  V30 8504 O 881.956 0.163086 -1.80565 0
M  V30 8505 C 882.004 -3.32293 -1.40049 0
M  V30 8506 O 881.108 -3.26834 -2.51502 0
M  V30 8507 H 880.449 -0.637796 -0.184694 0
M  V30 8508 H 882.979 -2.04519 0.057543 0
M  V30 8509 H 882.989 -3.67936 -1.76316 0
M  V30 8510 H 881.664 -4.10123 -0.690803 0
M  V30 8511 H 880.241 -3.02872 -2.17539 0
M  V30 8512 N 882.426 0.269451 -1.5528 0
M  V30 8513 C 883.673 1.00058 -1.76053 0
M  V30 8514 C 884.001 1.86156 -0.563592 0
M  V30 8515 O 883.256 1.90366 0.453806 0
M  V30 8516 C 883.555 1.91 -3.02082 0
M  V30 8517 C 883.221 1.20623 -4.34466 0
M  V30 8518 C 881.883 1.01165 -4.70446 0
M  V30 8519 C 884.235 0.705695 -5.164 0
M  V30 8520 C 881.563 0.303865 -5.85913 0
M  V30 8521 C 883.915 0.0114838 -6.32599 0
M  V30 8522 C 882.579 -0.19478 -6.67216 0
M  V30 8523 H 881.849 0.366138 -0.644223 0
M  V30 8524 H 884.496 0.272563 -1.8955 0
M  V30 8525 H 882.801 2.70435 -2.835 0
M  V30 8526 H 884.498 2.47698 -3.15352 0
M  V30 8527 H 881.088 1.36781 -4.06188 0
M  V30 8528 H 885.272 0.84364 -4.89077 0
M  V30 8529 H 880.528 0.133368 -6.11255 0
M  V30 8530 H 884.702 -0.384111 -6.9534 0
M  V30 8531 H 882.329 -0.745201 -7.56539 0
M  V30 8532 N 883.904 1.48273 0.534124 0
M  V30 8533 C 884.836 1.5857 1.65494 0
M  V30 8534 C 885.849 0.470266 1.5586 0
M  V30 8535 O 887.038 0.740928 1.62396 0
M  V30 8536 C 884.138 1.49554 3.04117 0
M  V30 8537 C 883.311 2.76066 3.39273 0
M  V30 8538 C 882.37 2.60562 4.57159 0
M  V30 8539 O 881.396 3.34438 4.60587 0
M  V30 8540 N 882.598 1.69906 5.55079 0
M  V30 8541 H 885.363 2.55226 1.57099 0
M  V30 8542 H 882.924 1.44944 0.721303 0
M  V30 8543 H 884.916 1.36882 3.80848 0
M  V30 8544 H 883.486 0.608895 3.06613 0
M  V30 8545 H 882.706 3.03332 2.51761 0
M  V30 8546 H 883.994 3.60006 3.59546 0
M  V30 8547 H 883.392 1.09079 5.55084 0
M  V30 8548 H 881.949 1.63175 6.31044 0
M  V30 8549 N 885.382 -0.782676 1.36792 0
M  V30 8550 C 886.622 -1.55396 1.32784 0
M  V30 8551 C 886.986 -1.91789 -0.0900272 0
M  V30 8552 O 888.187 -2.6759 -0.254725 0
M  V30 8553 C 886.458 -2.79227 2.23085 0
M  V30 8554 S 888.017 -3.69404 2.36825 0
M  V30 8555 H 884.835 -0.532139 0.471539 0
M  V30 8556 H 887.437 -0.921285 1.72431 0
M  V30 8557 H 886.141 -2.50553 3.25041 0
M  V30 8558 H 885.672 -3.47462 1.84482 0
M  V30 8559 H 887.687 -4.70683 1.57074 0
M  V30 8560 N 886.86 -1.21182 -1.00761 0
M  V30 8561 C 888.109 -1.02166 -1.73911 0
M  V30 8562 C 888.422 0.445638 -1.90456 0
M  V30 8563 O 889.628 0.755132 -2.60787 0
M  V30 8564 C 888.084 -1.77936 -3.12837 0
M  V30 8565 C 887.692 -3.28819 -3.04273 0
M  V30 8566 C 889.436 -1.67319 -3.90134 0
M  V30 8567 C 887.343 -3.97089 -4.38262 0
M  V30 8568 H 886.273 -0.378665 -0.652019 0
M  V30 8569 H 888.924 -1.44891 -1.12601 0
M  V30 8570 H 887.306 -1.28003 -3.74742 0
M  V30 8571 H 888.48 -3.86035 -2.51622 0
M  V30 8572 H 886.795 -3.39949 -2.40465 0
M  V30 8573 H 889.392 -2.15659 -4.8928 0
M  V30 8574 H 889.735 -0.630959 -4.11491 0
M  V30 8575 H 890.268 -2.14716 -3.34876 0
M  V30 8576 H 887.007 -5.01503 -4.22107 0
M  V30 8577 H 886.527 -3.44662 -4.90885 0
M  V30 8578 H 888.206 -4.01854 -5.07072 0
M  V30 8579 N 888.338 1.20213 -1.01915 0
M  V30 8580 C 889.578 1.91354 -0.71853 0
M  V30 8581 C 889.942 1.77231 0.738466 0
M  V30 8582 O 891.143 2.42876 1.15172 0
M  V30 8583 C 889.414 3.38552 -1.14529 0
M  V30 8584 S 890.973 4.28011 -0.967037 0
M  V30 8585 H 887.791 0.661015 -0.261879 0
M  V30 8586 H 890.393 1.45394 -1.30694 0
M  V30 8587 H 889.097 3.46354 -2.20153 0
M  V30 8588 H 888.628 3.8954 -0.549766 0
M  V30 8589 H 890.643 4.96035 0.127974 0
M  V30 8590 N 889.816 0.795718 1.36037 0
M  V30 8591 C 890.764 0.18649 2.31851 0
M  V30 8592 C 891.758 -0.657704 1.56111 0
M  V30 8593 O 892.964 -0.552083 1.71324 0
M  V30 8594 H 889.339 0.0415363 0.750852 0
M  V30 8595 H 891.31 1.00992 2.8079 0
M  V30 8596 C 890.059 -0.65918 3.41394 0
M  V30 8597 H 889.382 -0.01894 3.99796 0
M  V30 8598 H 890.822 -1.05202 4.10741 0
M  V30 8599 C 889.281 -1.82011 2.83502 0
M  V30 8600 O 889.811 -2.91703 2.76174 0
M  V30 8601 N 888.017 -1.62821 2.40703 0
M  V30 8602 H 887.564 -0.735965 2.46863 0
M  V30 8603 H 887.522 -2.40657 2.02316 0
M  V30 8604 N 891.294 -1.47756 0.548274 0
M  V30 8605 C 892.257 -2.28379 -0.193857 0
M  V30 8606 C 893.257 -1.36436 -0.850986 0
M  V30 8607 O 894.447 -1.59154 -0.70822 0
M  V30 8608 C 891.579 -3.15858 -1.28243 0
M  V30 8609 H 892.772 -2.95458 0.514231 0
M  V30 8610 H 890.325 -1.53298 0.304879 0
M  V30 8611 H 891.06 -2.5345 -2.0232 0
M  V30 8612 H 890.845 -3.83512 -0.816148 0
M  V30 8613 H 892.335 -3.76627 -1.80393 0
M  V30 8614 N 892.772 -0.284283 -1.55015 0
M  V30 8615 C 894.02 0.329212 -1.99401 0
M  V30 8616 C 894.341 1.55687 -1.17416 0
M  V30 8617 O 893.611 1.94087 -0.265937 0
M  V30 8618 H 892.191 0.12463 -0.73653 0
M  V30 8619 H 894.853 -0.391743 -1.90922 0
M  V30 8620 H 893.949 0.61278 -3.06025 0
M  V30 8621 N 894.251 1.57596 -0.0117121 0
M  V30 8622 C 895.498 1.91071 0.670667 0
M  V30 8623 C 895.826 0.886457 1.73125 0
M  V30 8624 O 895.081 -0.107135 1.95407 0
M  V30 8625 C 895.38 3.31296 1.34082 0
M  V30 8626 C 895.046 4.49011 0.412305 0
M  V30 8627 C 893.708 4.80945 0.156691 0
M  V30 8628 C 896.06 5.20709 -0.226294 0
M  V30 8629 C 893.388 5.81943 -0.745619 0
M  V30 8630 C 895.74 6.22668 -1.11655 0
M  V30 8631 C 894.404 6.53053 -1.38123 0
M  V30 8632 H 893.674 0.69918 0.245415 0
M  V30 8633 H 896.321 1.91373 -0.0697511 0
M  V30 8634 H 894.626 3.27174 2.15557 0
M  V30 8635 H 896.323 3.54461 1.87506 0
M  V30 8636 H 892.913 4.24067 0.621705 0
M  V30 8637 H 897.097 4.96282 -0.0418456 0
M  V30 8638 H 892.353 6.03839 -0.958566 0
M  V30 8639 H 896.527 6.77351 -1.61767 0
M  V30 8640 H 894.154 7.31132 -2.08208 0
M  V30 8641 N 895.729 -0.261212 1.5542 0
M  V30 8642 C 896.639 -1.34493 1.92221 0
M  V30 8643 C 897.655 -1.53421 0.82086 0
M  V30 8644 O 898.831 -1.6732 1.12099 0
M  V30 8645 C 895.896 -2.68209 2.19692 0
M  V30 8646 C 894.957 -2.57927 3.43179 0
M  V30 8647 C 894.19 -3.85266 3.69331 0
M  V30 8648 O 894.413 -4.86493 2.97793 0
M  V30 8649 O 893.347 -3.8476 4.62865 0
M  V30 8650 H 897.173 -1.06278 2.84497 0
M  V30 8651 H 894.758 -0.460752 1.42118 0
M  V30 8652 H 896.64 -3.47252 2.38734 0
M  V30 8653 H 895.315 -2.96186 1.30597 0
M  V30 8654 H 894.222 -1.77219 3.2946 0
M  V30 8655 H 895.555 -2.34898 4.32532 0
M  V30 8656 N 897.207 -1.48554 -0.526253 0
M  V30 8657 C 898.137 -1.66252 -1.63959 0
M  V30 8658 C 899.118 -0.511351 -1.62232 0
M  V30 8659 O 900.303 -0.744322 -1.7937 0
M  V30 8660 C 897.433 -1.70556 -3.02536 0
M  V30 8661 C 896.387 -2.8521 -3.19123 0
M  V30 8662 C 895.713 -2.74606 -4.58798 0
M  V30 8663 C 897.013 -4.26463 -3.0154 0
M  V30 8664 H 898.707 -2.59459 -1.49404 0
M  V30 8665 H 896.253 -1.24862 -0.717326 0
M  V30 8666 H 898.206 -1.81524 -3.80298 0
M  V30 8667 H 896.93 -0.739297 -3.18123 0
M  V30 8668 H 895.589 -2.73802 -2.43779 0
M  V30 8669 H 895.237 -1.75941 -4.71226 0
M  V30 8670 H 894.937 -3.51544 -4.70841 0
M  V30 8671 H 896.461 -2.87548 -5.38655 0
M  V30 8672 H 897.875 -4.38685 -3.69091 0
M  V30 8673 H 896.272 -5.04428 -3.25073 0
M  V30 8674 H 897.342 -4.42667 -1.97925 0
M  V30 8675 N 898.685 0.775411 -1.37205 0
M  V30 8676 C 899.913 1.56446 -1.35397 0
M  V30 8677 C 900.328 1.887 0.0615437 0
M  V30 8678 O 899.685 1.51178 1.02233 0
M  V30 8679 C 899.736 2.87697 -2.18889 0
M  V30 8680 O 899.457 2.56828 -3.54924 0
M  V30 8681 C 900.958 3.81944 -2.25019 0
M  V30 8682 H 898.178 0.484792 -0.463916 0
M  V30 8683 H 900.722 0.961346 -1.80495 0
M  V30 8684 H 898.877 3.44442 -1.7731 0
M  V30 8685 H 899.291 3.40851 -3.98649 0
M  V30 8686 H 900.765 4.71055 -2.87769 0
M  V30 8687 H 901.242 4.20811 -1.25757 0
M  V30 8688 H 901.848 3.3113 -2.66895 0
M  V30 8689 N 900.163 1.21714 1.00117 0
M  V30 8690 C 901.391 1.06278 1.77518 0
M  V30 8691 C 901.806 -0.387193 1.84787 0
M  V30 8692 O 901.163 -1.26854 1.31203 0
M  V30 8693 C 901.214 1.65795 3.21239 0
M  V30 8694 O 900.935 3.05119 3.14378 0
M  V30 8695 C 902.436 1.55521 4.15124 0
M  V30 8696 H 899.656 0.373013 0.557765 0
M  V30 8697 H 902.2 1.61133 1.25922 0
M  V30 8698 H 900.355 1.15022 3.69931 0
M  V30 8699 H 900.769 3.33643 4.04701 0
M  V30 8700 H 902.243 2.01902 5.13751 0
M  V30 8701 H 902.72 0.510307 4.36225 0
M  V30 8702 H 903.326 2.0556 3.72324 0
M  V30 8703 N 901.641 -1.19671 1.02551 0
M  V30 8704 C 902.918 -1.85014 0.634771 0
M  V30 8705 C 903.298 -1.91574 -0.886706 0
M  V30 8706 O 902.646 -1.43022 -1.78205 0
M  V30 8707 C 902.856 -3.24167 1.29292 0
M  V30 8708 C 904.204 -4.00363 1.41402 0
M  V30 8709 O 905.228 -3.33553 1.24983 0
M  V30 8710 O 904.087 -5.2003 1.6802 0
M  V30 8711 H 901.181 -0.797147 0.220196 0
M  V30 8712 H 903.727 -1.27188 1.12345 0
M  V30 8713 H 902.499 -3.14208 2.33215 0
M  V30 8714 H 902.122 -3.89634 0.791895 0
M  V30 8715 N 903.119 -0.802921 -1.35613 0
M  V30 8716 C 904.367 -0.380822 -1.9848 0
M  V30 8717 C 904.688 1.05464 -1.6402 0
M  V30 8718 O 903.958 1.72908 -0.920854 0
M  V30 8719 H 902.538 -0.137824 -0.734176 0
M  V30 8720 H 905.2 -1.02795 -1.65587 0
M  V30 8721 H 904.296 -0.483565 -3.08331 0
M  V30 8722 N 904.597 1.47463 -0.556102 0
M  V30 8723 C 905.544 2.29998 0.192213 0
M  V30 8724 C 906.514 1.38993 0.909403 0
M  V30 8725 O 907.699 1.67954 0.905316 0
M  V30 8726 C 904.839 3.22932 1.21692 0
M  V30 8727 C 903.952 4.29027 0.505908 0
M  V30 8728 C 903.087 5.09114 1.51581 0
M  V30 8729 C 902.126 6.06984 0.789714 0
M  V30 8730 N 901.263 6.80033 1.74639 0
M  V30 8731 H 906.103 2.93468 -0.517734 0
M  V30 8732 H 903.64 1.44654 -0.267147 0
M  V30 8733 H 905.598 3.75234 1.8236 0
M  V30 8734 H 904.228 2.61329 1.89491 0
M  V30 8735 H 903.28 3.7979 -0.215276 0
M  V30 8736 H 904.592 4.9876 -0.062958 0
M  V30 8737 H 903.746 5.6556 2.19606 0
M  V30 8738 H 902.485 4.3928 2.11859 0
M  V30 8739 H 901.49 5.49717 0.0955382 0
M  V30 8740 H 902.715 6.78827 0.192688 0
M  V30 8741 H 900.661 6.12931 2.33777 0
M  V30 8742 H 900.578 7.45933 1.22965 0
M  V30 8743 H 901.846 7.41054 2.41782 0
M  V30 8744 N 906.075 0.2925 1.54862 0
M  V30 8745 C 907.023 -0.603186 2.24643 0
M  V30 8746 C 908.017 -1.1439 1.24946 0
M  V30 8747 O 909.223 -1.09552 1.42823 0
M  V30 8748 H 905.598 -0.213105 0.721173 0
M  V30 8749 H 907.569 0.00799278 2.98399 0
M  V30 8750 C 906.318 -1.76769 2.99413 0
M  V30 8751 H 905.641 -1.36084 3.75927 0
M  V30 8752 H 907.081 -2.37066 3.51533 0
M  V30 8753 C 905.54 -2.66669 2.05886 0
M  V30 8754 O 906.07 -3.67525 1.62136 0
M  V30 8755 N 904.276 -2.34216 1.7202 0
M  V30 8756 H 903.823 -1.52246 2.07795 0
M  V30 8757 H 903.781 -2.94635 1.09717 0
M  V30 8758 N 907.553 -1.57587 0.0200696 0
M  V30 8759 C 908.793 -1.93287 -0.66479 0
M  V30 8760 C 909.157 -0.896022 -1.6981 0
M  V30 8761 O 910.358 -1.13892 -2.43479 0
M  V30 8762 C 908.629 -3.33949 -1.27328 0
M  V30 8763 S 910.188 -3.91564 -1.98047 0
M  V30 8764 H 907.006 -0.676397 -0.219106 0
M  V30 8765 H 909.608 -1.9533 0.081568 0
M  V30 8766 H 908.312 -4.07235 -0.508673 0
M  V30 8767 H 907.843 -3.35329 -2.05714 0
M  V30 8768 H 909.858 -3.74265 -3.25791 0
M  V30 8769 N 909.032 0.252966 -1.55557 0
M  V30 8770 C 910.278 0.983306 -1.77367 0
M  V30 8771 C 910.611 1.85203 -0.584258 0
M  V30 8772 O 909.886 1.89963 0.417644 0
M  V30 8773 C 910.169 1.84896 -3.09007 0
M  V30 8774 C 910.022 1.00883 -4.38341 0
M  V30 8775 C 911.341 2.83254 -3.36831 0
M  V30 8776 H 908.46 0.356056 -0.645286 0
M  V30 8777 H 911.102 0.254232 -1.88291 0
M  V30 8778 H 909.252 2.47058 -2.99825 0
M  V30 8779 H 910.924 0.40638 -4.59507 0
M  V30 8780 H 909.167 0.31297 -4.3267 0
M  V30 8781 H 909.838 1.64818 -5.2682 0
M  V30 8782 H 912.314 2.31228 -3.45937 0
M  V30 8783 H 911.19 3.40949 -4.30169 0
M  V30 8784 H 911.451 3.59407 -2.57447 0
M  V30 8785 N 910.51 1.48831 0.518367 0
M  V30 8786 C 911.787 1.47933 1.27966 0
M  V30 8787 C 912.167 0.197393 2.10175 0
M  V30 8788 O 911.515 -0.820656 2.13255 0
M  V30 8789 C 911.725 2.74816 2.15121 0
M  V30 8790 C 913.073 3.23613 2.74881 0
M  V30 8791 O 914.097 2.75814 2.254 0
M  V30 8792 O 912.956 4.06818 3.64913 0
M  V30 8793 H 910.05 0.591316 0.578164 0
M  V30 8794 H 912.596 1.61077 0.534065 0
M  V30 8795 H 911.368 3.59621 1.54234 0
M  V30 8796 H 910.991 2.64449 2.96905 0
M  V30 8797 N 911.988 -0.768124 1.37614 0
M  V30 8798 C 912.938 -1.8718 1.30184 0
M  V30 8799 C 913.922 -1.59787 0.188943 0
M  V30 8800 O 915.114 -1.71855 0.423656 0
M  V30 8801 C 912.243 -3.24698 1.11471 0
M  V30 8802 C 911.329 -3.58031 2.27321 0
M  V30 8803 N 911.72 -3.6252 3.52722 0
M  V30 8804 C 910.018 -3.88216 2.19554 0
M  V30 8805 C 910.719 -3.92704 4.29137 0
M  V30 8806 N 909.695 -4.08789 3.58319 0
M  V30 8807 H 913.497 -1.88907 2.25147 0
M  V30 8808 H 911.011 -0.964753 1.30638 0
M  V30 8809 H 913.008 -4.0366 1.04233 0
M  V30 8810 H 911.668 -3.24232 0.174281 0
M  V30 8811 H 912.679 -3.44636 3.86583 0
M  V30 8812 H 909.356 -3.95551 1.33588 0
M  V30 8813 H 910.746 -4.02922 5.37683 0
M  V30 8814 N 913.466 -1.22244 -0.994698 0
M  V30 8815 C 914.743 -0.954459 -1.70732 0
M  V30 8816 C 915.123 0.530945 -2.04314 0
M  V30 8817 O 914.471 1.49851 -1.72502 0
M  V30 8818 C 914.681 -1.85016 -2.95922 0
M  V30 8819 C 916.029 -2.10517 -3.68738 0
M  V30 8820 O 917.053 -1.82449 -3.05926 0
M  V30 8821 O 915.912 -2.58044 -4.81742 0
M  V30 8822 H 913.006 -0.35879 -0.745116 0
M  V30 8823 H 915.552 -1.33221 -1.0512 0
M  V30 8824 H 914.324 -2.85498 -2.67594 0
M  V30 8825 H 913.947 -1.47388 -3.69273 0
M  V30 8826 N 914.944 1.19125 -1.03184 0
M  V30 8827 C 915.854 2.26112 -0.625329 0
M  V30 8828 C 916.87 1.7056 0.344298 0
M  V30 8829 O 918.046 2.0039 0.20144 0
M  V30 8830 C 915.111 3.46697 0.0145169 0
M  V30 8831 C 914.172 4.17419 -1.00299 0
M  V30 8832 C 913.405 5.32247 -0.393581 0
M  V30 8833 O 913.628 5.64724 0.802659 0
M  V30 8834 O 912.562 5.91428 -1.1179 0
M  V30 8835 H 916.388 2.63131 -1.51643 0
M  V30 8836 H 913.973 1.26036 -0.802197 0
M  V30 8837 H 915.855 4.19762 0.371139 0
M  V30 8838 H 914.53 3.11521 0.879581 0
M  V30 8839 H 913.437 3.4646 -1.41125 0
M  V30 8840 H 914.77 4.56573 -1.83852 0
M  V30 8841 N 916.422 0.810101 1.35185 0
M  V30 8842 C 917.662 0.397802 2.00492 0
M  V30 8843 C 918.026 -1.01684 1.62863 0
M  V30 8844 O 919.227 -1.53133 2.20916 0
M  V30 8845 C 917.498 0.579524 3.5267 0
M  V30 8846 S 919.057 0.258169 4.3804 0
M  V30 8847 H 915.875 0.150904 0.694801 0
M  V30 8848 H 918.477 1.05312 1.64711 0
M  V30 8849 H 917.181 1.60901 3.77543 0
M  V30 8850 H 916.712 -0.0909886 3.93295 0
M  V30 8851 H 918.727 -0.932882 4.87352 0
M  V30 8852 N 917.9 -1.47166 0.563914 0
M  V30 8853 C 919.128 -2.06846 0.0474287 0
M  V30 8854 C 919.543 -1.41557 -1.24928 0
M  V30 8855 O 918.9 -0.514376 -1.75101 0
M  V30 8856 C 918.951 -3.6121 -0.144831 0
M  V30 8857 O 918.672 -4.24052 1.10053 0
M  V30 8858 C 920.173 -4.37773 -0.69783 0
M  V30 8859 H 917.393 -0.669217 0.0488896 0
M  V30 8860 H 919.937 -1.89072 0.779235 0
M  V30 8861 H 918.092 -3.78474 -0.82679 0
M  V30 8862 H 918.506 -5.16677 0.902481 0
M  V30 8863 H 919.98 -5.46438 -0.781616 0
M  V30 8864 H 920.457 -4.04517 -1.71063 0
M  V30 8865 H 921.063 -4.25269 -0.0513516 0
M  V30 8866 N 919.378 -0.300708 -1.54705 0
M  V30 8867 C 920.606 0.31127 -2.04545 0
M  V30 8868 C 921.021 1.47542 -1.178 0
M  V30 8869 O 920.378 1.81361 -0.203571 0
M  V30 8870 C 920.429 0.767783 -3.53253 0
M  V30 8871 O 920.15 -0.350027 -4.36699 0
M  V30 8872 C 921.651 1.44494 -4.1909 0
M  V30 8873 H 918.871 0.067668 -0.667579 0
M  V30 8874 H 921.415 -0.440254 -1.99705 0
M  V30 8875 H 919.57 1.46933 -3.58454 0
M  V30 8876 H 919.984 0.00534038 -5.245 0
M  V30 8877 H 921.458 1.71553 -5.24665 0
M  V30 8878 H 921.935 2.3849 -3.68808 0
M  V30 8879 H 922.541 0.786581 -4.17963 0
M  V30 8880 N 920.856 1.57574 -0.0284266 0
M  V30 8881 C 922.084 1.96071 0.660575 0
M  V30 8882 C 922.499 0.904881 1.65703 0
M  V30 8883 O 921.856 -0.113379 1.82147 0
M  V30 8884 C 921.907 3.34634 1.36756 0
M  V30 8885 O 921.628 4.36167 0.411041 0
M  V30 8886 C 923.129 3.87758 2.14845 0
M  V30 8887 H 920.349 0.645794 0.182183 0
M  V30 8888 H 922.893 2.04311 -0.0879858 0
M  V30 8889 H 921.048 3.27616 2.06753 0
M  V30 8890 H 921.462 5.16493 0.913 0
M  V30 8891 H 922.936 4.87058 2.59767 0
M  V30 8892 H 923.413 3.21967 2.9872 0
M  V30 8893 H 924.019 3.98043 1.49807 0
M  V30 8894 N 922.334 -0.244713 1.55689 0
M  V30 8895 C 923.282 -1.32276 1.91326 0
M  V30 8896 C 924.276 -1.49714 0.792589 0
M  V30 8897 O 925.482 -1.51163 0.977227 0
M  V30 8898 H 921.857 -0.442979 0.607679 0
M  V30 8899 H 923.828 -0.99486 2.81327 0
M  V30 8900 C 922.577 -2.67077 2.22633 0
M  V30 8901 H 921.9 -2.54458 3.08368 0
M  V30 8902 H 923.34 -3.41378 2.5147 0
M  V30 8903 C 921.799 -3.20335 1.04342 0
M  V30 8904 O 922.329 -4.00633 0.292543 0
M  V30 8905 N 920.535 -2.78392 0.833457 0
M  V30 8906 H 920.082 -2.13202 1.44577 0
M  V30 8907 H 920.04 -3.1437 0.0436713 0
M  V30 8908 N 923.813 -1.49104 -0.510467 0
M  V30 8909 C 924.746 -1.59667 -1.63039 0
M  V30 8910 C 925.724 -0.446145 -1.5636 0
M  V30 8911 O 926.908 -0.660414 -1.76552 0
M  V30 8912 C 924.035 -1.54282 -3.01521 0
M  V30 8913 C 923.081 -2.74415 -3.26494 0
M  V30 8914 S 923.914 -4.3619 -3.10643 0
M  V30 8915 C 925.07 -4.33435 -4.51536 0
M  V30 8916 H 925.303 -2.54407 -1.53833 0
M  V30 8917 H 922.836 -1.37878 -0.694916 0
M  V30 8918 H 924.794 -1.51861 -3.81377 0
M  V30 8919 H 923.455 -0.608458 -3.0815 0
M  V30 8920 H 922.648 -2.66841 -4.27565 0
M  V30 8921 H 922.25 -2.74199 -2.54344 0
M  V30 8922 H 924.542 -4.04571 -5.43441 0
M  V30 8923 H 925.485 -5.34752 -4.64162 0
M  V30 8924 H 925.893 -3.63638 -4.31773 0
M  V30 8925 N 925.291 0.760815 -1.38019 0
M  V30 8926 C 926.531 1.53264 -1.35239 0
M  V30 8927 C 926.895 1.91908 0.0595038 0
M  V30 8928 O 928.096 2.67962 0.212122 0
M  V30 8929 C 926.367 2.75643 -2.27499 0
M  V30 8930 S 927.926 3.6559 -2.42672 0
M  V30 8931 H 924.744 0.52457 -0.479945 0
M  V30 8932 H 927.346 0.893737 -1.73875 0
M  V30 8933 H 926.05 2.4535 -3.28986 0
M  V30 8934 H 925.581 3.44483 -1.89987 0
M  V30 8935 H 927.596 4.68124 -1.64542 0
M  V30 8936 N 926.769 1.22769 0.988202 0
M  V30 8937 C 927.699 1.02627 2.09738 0
M  V30 8938 C 928.68 -0.0543211 1.70013 0
M  V30 8939 O 929.865 0.108811 1.93895 0
M  V30 8940 C 926.995 0.608302 3.41931 0
M  V30 8941 C 925.949 1.63536 3.95525 0
M  V30 8942 C 925.275 1.07308 5.23822 0
M  V30 8943 C 926.575 3.02649 4.25677 0
M  V30 8944 H 928.269 1.954 2.26847 0
M  V30 8945 H 925.815 0.940888 1.09011 0
M  V30 8946 H 927.768 0.454478 4.18942 0
M  V30 8947 H 926.492 -0.355095 3.24664 0
M  V30 8948 H 925.151 1.77704 3.20651 0
M  V30 8949 H 924.799 0.100894 5.02899 0
M  V30 8950 H 924.499 1.75925 5.60646 0
M  V30 8951 H 926.023 0.930938 6.03462 0
M  V30 8952 H 927.437 2.91828 4.93467 0
M  V30 8953 H 925.834 3.68434 4.73684 0
M  V30 8954 H 926.904 3.52228 3.33262 0
M  V30 8955 N 928.247 -1.18576 1.03814 0
M  V30 8956 C 929.195 -2.24166 0.620678 0
M  V30 8957 C 930.189 -1.65718 -0.351282 0
M  V30 8958 O 931.395 -1.78665 -0.218848 0
M  V30 8959 H 927.77 -0.729522 0.182487 0
M  V30 8960 H 929.741 -2.56686 1.52166 0
M  V30 8961 C 928.49 -3.477 -0.00307331 0
M  V30 8962 H 927.813 -3.92969 0.735874 0
M  V30 8963 H 929.253 -4.23214 -0.257988 0
M  V30 8964 C 927.712 -3.12757 -1.2524 0
M  V30 8965 O 928.242 -3.26261 -2.34344 0
M  V30 8966 N 926.448 -2.67104 -1.14471 0
M  V30 8967 H 925.995 -2.56316 -0.256873 0
M  V30 8968 H 925.953 -2.44096 -1.98153 0
M  V30 8969 N 929.725 -0.817259 -1.34754 0
M  V30 8970 C 930.973 -0.401852 -1.98065 0
M  V30 8971 C 931.294 1.03718 -1.65129 0
M  V30 8972 O 930.564 1.71921 -0.939141 0
M  V30 8973 H 929.144 -0.145603 -0.732672 0
M  V30 8974 H 931.806 -1.04545 -1.64488 0
M  V30 8975 H 930.902 -0.516241 -3.07801 0
M  V30 8976 N 931.203 1.46865 -0.571711 0
M  V30 8977 C 932.136 2.27176 0.215944 0
M  V30 8978 C 933.114 1.34951 0.907035 0
M  V30 8979 O 934.298 1.64349 0.923127 0
M  V30 8980 C 931.425 3.12388 1.30888 0
M  V30 8981 C 930.471 4.20296 0.724804 0
M  V30 8982 S 931.304 5.33691 -0.439839 0
M  V30 8983 C 932.46 6.22468 0.654564 0
M  V30 8984 H 932.693 2.93633 -0.465518 0
M  V30 8985 H 930.226 1.50184 -0.358351 0
M  V30 8986 H 932.184 3.62049 1.93471 0
M  V30 8987 H 930.845 2.45265 1.96224 0
M  V30 8988 H 930.038 4.79703 1.54599 0
M  V30 8989 H 929.64 3.73591 0.174861 0
M  V30 8990 H 931.932 6.59694 1.54304 0
M  V30 8991 H 932.875 7.08033 0.0975111 0
M  V30 8992 H 933.283 5.56384 0.953762 0
M  V30 8993 N 932.681 0.308908 1.54543 0
M  V30 8994 C 933.921 -0.298811 2.02204 0
M  V30 8995 C 934.285 -1.50484 1.19242 0
M  V30 8996 O 935.486 -2.18445 1.56637 0
M  V30 8997 C 933.757 -0.638849 3.51644 0
M  V30 8998 S 935.316 -1.22831 4.21258 0
M  V30 8999 H 932.134 -0.0912638 0.705118 0
M  V30 9000 H 934.736 0.438622 1.90516 0
M  V30 9001 H 933.44 0.24726 4.09654 0
M  V30 9002 H 932.971 -1.40687 3.67384 0
M  V30 9003 H 934.986 -2.51579 4.27694 0
M  V30 9004 N 934.159 -1.57557 0.0367827 0
M  V30 9005 C 935.408 -1.91291 -0.639569 0
M  V30 9006 C 935.721 -0.915601 -1.72847 0
M  V30 9007 O 936.927 -1.14447 -2.46199 0
M  V30 9008 C 935.383 -3.39697 -1.18888 0
M  V30 9009 C 934.991 -4.47803 -0.132851 0
M  V30 9010 C 936.735 -3.82487 -1.8413 0
M  V30 9011 C 934.642 -5.87311 -0.694229 0
M  V30 9012 H 933.572 -0.713886 -0.242658 0
M  V30 9013 H 936.223 -1.83209 0.103332 0
M  V30 9014 H 934.605 -3.42736 -1.98363 0
M  V30 9015 H 935.779 -4.56334 0.640009 0
M  V30 9016 H 934.094 -4.14264 0.421264 0
M  V30 9017 H 936.691 -4.84076 -2.27101 0
M  V30 9018 H 937.034 -3.17959 -2.68716 0
M  V30 9019 H 937.567 -3.81903 -1.11332 0
M  V30 9020 H 934.306 -6.55401 0.113667 0
M  V30 9021 H 933.826 -5.82371 -1.4354 0
M  V30 9022 H 935.505 -6.36119 -1.1816 0
M  V30 9023 N 935.637 0.236453 -1.55816 0
M  V30 9024 C 936.585 1.31259 -1.92025 0
M  V30 9025 C 937.579 1.49292 -0.800518 0
M  V30 9026 O 938.785 1.50643 -0.985229 0
M  V30 9027 H 935.16 0.439751 -0.610019 0
M  V30 9028 H 937.131 0.979926 -2.81851 0
M  V30 9029 C 935.88 2.65892 -2.24046 0
M  V30 9030 H 935.203 2.5282 -3.09713 0
M  V30 9031 H 936.643 3.40039 -2.53277 0
M  V30 9032 C 935.102 3.19777 -1.0604 0
M  V30 9033 O 935.632 4.00473 -0.313786 0
M  V30 9034 N 933.838 2.77946 -0.848209 0
M  V30 9035 H 933.385 2.12433 -1.45706 0
M  V30 9036 H 933.343 3.14342 -0.0603424 0
M  V30 9037 N 937.115 1.49373 0.502552 0
M  V30 9038 C 938.025 1.68659 1.63068 0
M  V30 9039 C 939.041 0.569182 1.64427 0
M  V30 9040 O 940.217 0.843695 1.82876 0
M  V30 9041 C 937.282 1.74745 2.99441 0
M  V30 9042 C 936.343 2.98311 3.08721 0
M  V30 9043 C 935.576 3.04097 4.38589 0
M  V30 9044 O 935.799 2.17519 5.27297 0
M  V30 9045 O 934.733 3.96544 4.52809 0
M  V30 9046 H 938.559 2.64226 1.49727 0
M  V30 9047 H 936.144 1.33096 0.67867 0
M  V30 9048 H 938.026 1.8111 3.80496 0
M  V30 9049 H 936.701 0.823565 3.13048 0
M  V30 9050 H 935.608 2.97465 2.2686 0
M  V30 9051 H 936.941 3.90174 3.00041 0
M  V30 9052 N 938.594 -0.753485 1.38421 0
M  V30 9053 C 939.871 -1.50318 1.25155 0
M  V30 9054 C 940.251 -2.10588 -0.147003 0
M  V30 9055 O 939.599 -1.97071 -1.15651 0
M  V30 9056 C 939.809 -2.56946 2.36177 0
M  V30 9057 C 941.157 -3.23846 2.74607 0
M  V30 9058 O 942.181 -2.67251 2.3549 0
M  V30 9059 O 941.04 -4.2621 3.42064 0
M  V30 9060 H 938.134 -0.666624 0.48943 0
M  V30 9061 H 940.68 -0.788887 1.50249 0
M  V30 9062 H 939.452 -2.1066 3.29754 0
M  V30 9063 H 939.075 -3.35956 2.12648 0
M  V30 9064 N 940.072 -1.23292 -0.981677 0
M  V30 9065 C 941.32 -1.06214 -1.71939 0
M  V30 9066 C 941.641 0.401989 -1.90812 0
M  V30 9067 O 940.911 1.28825 -1.47584 0
M  V30 9068 H 939.491 -0.390042 -0.637084 0
M  V30 9069 H 942.153 -1.54988 -1.18173 0
M  V30 9070 H 941.249 -1.54904 -2.70945 0
M  V30 9071 N 941.55 1.18024 -1.04442 0
M  V30 9072 C 942.775 1.92573 -0.770097 0
M  V30 9073 C 943.2 1.75871 0.667169 0
M  V30 9074 O 942.558 1.07136 1.46258 0
M  V30 9075 C 942.606 3.41904 -1.14602 0
M  V30 9076 O 941.71 4.11491 -0.273712 0
M  V30 9077 H 941.051 0.600636 -0.283076 0
M  V30 9078 H 943.581 1.49645 -1.39526 0
M  V30 9079 H 943.591 3.92623 -1.10956 0
M  V30 9080 H 942.266 3.53382 -2.19304 0
M  V30 9081 H 940.843 3.71059 -0.370124 0
M  V30 9082 N 943.028 0.824394 1.34319 0
M  V30 9083 C 944.275 0.413167 1.9824 0
M  V30 9084 C 944.603 -1.02412 1.65354 0
M  V30 9085 O 943.858 -1.72831 0.91803 0
M  V30 9086 C 944.157 0.564024 3.52921 0
M  V30 9087 C 943.823 1.96725 4.05722 0
M  V30 9088 C 942.485 2.35111 4.19853 0
M  V30 9089 C 944.837 2.88447 4.34106 0
M  V30 9090 C 942.165 3.64551 4.59695 0
M  V30 9091 C 944.517 4.17353 4.75394 0
M  V30 9092 C 943.181 4.55714 4.8773 0
M  V30 9093 H 942.451 0.151188 0.725412 0
M  V30 9094 H 945.098 1.04863 1.60238 0
M  V30 9095 H 943.403 -0.154816 3.91494 0
M  V30 9096 H 945.1 0.226347 4.00361 0
M  V30 9097 H 941.69 1.65908 3.95187 0
M  V30 9098 H 945.874 2.60034 4.22725 0
M  V30 9099 H 941.13 3.94097 4.67437 0
M  V30 9100 H 945.304 4.88512 4.96315 0
M  V30 9101 H 942.931 5.56064 5.1836 0
M  V30 9102 N 944.506 -1.46559 0.579492 0
M  V30 9103 C 945.453 -2.30275 -0.155598 0
M  V30 9104 C 946.423 -1.40422 -0.887175 0
M  V30 9105 O 947.608 -1.69373 -0.878481 0
M  V30 9106 C 944.748 -3.24827 -1.16539 0
M  V30 9107 C 943.861 -4.29778 -0.43759 0
M  V30 9108 C 942.996 -5.11461 -1.43462 0
M  V30 9109 C 942.035 -6.08164 -0.693048 0
M  V30 9110 N 941.172 -6.82726 -1.63799 0
M  V30 9111 H 946.012 -2.92607 0.564356 0
M  V30 9112 H 943.549 -1.44211 0.290126 0
M  V30 9113 H 945.507 -3.78088 -1.76368 0
M  V30 9114 H 944.137 -2.64311 -1.8531 0
M  V30 9115 H 943.189 -3.794 0.27567 0
M  V30 9116 H 944.501 -4.98597 0.142298 0
M  V30 9117 H 943.655 -5.68982 -2.1058 0
M  V30 9118 H 942.394 -4.42595 -2.04844 0
M  V30 9119 H 941.399 -5.49799 -0.00807093 0
M  V30 9120 H 942.624 -6.79047 -0.0846678 0
M  V30 9121 H 940.57 -6.16572 -2.23997 0
M  V30 9122 H 940.487 -7.47795 -1.11082 0
M  V30 9123 H 941.755 -7.44807 -2.29962 0
M  V30 9124 N 945.984 -0.3171 -1.54377 0
M  V30 9125 C 947.224 0.288083 -2.0236 0
M  V30 9126 C 947.588 1.4985 -1.20038 0
M  V30 9127 O 948.789 2.17611 -1.57794 0
M  V30 9128 C 947.06 0.620192 -3.51978 0
M  V30 9129 S 948.619 1.20595 -4.21903 0
M  V30 9130 H 945.437 0.0875231 -0.705592 0
M  V30 9131 H 948.039 -0.448719 -1.90281 0
M  V30 9132 H 946.743 -0.268982 -4.09518 0
M  V30 9133 H 946.274 1.38736 -3.68125 0
M  V30 9134 H 948.289 2.49308 -4.29022 0
M  V30 9135 N 947.462 1.57535 -0.0451378 0
M  V30 9136 C 948.711 1.91628 0.629415 0
M  V30 9137 C 949.024 0.924754 1.72359 0
M  V30 9138 O 950.23 1.15751 2.45589 0
M  V30 9139 C 948.686 3.40322 1.17084 0
M  V30 9140 C 948.294 4.47867 0.109101 0
M  V30 9141 C 950.038 3.83458 1.82099 0
M  V30 9142 C 947.945 5.87671 0.663072 0
M  V30 9143 H 946.875 0.715163 0.238868 0
M  V30 9144 H 949.526 1.83151 -0.113046 0
M  V30 9145 H 947.908 3.43783 1.96543 0
M  V30 9146 H 949.082 4.55988 -0.664201 0
M  V30 9147 H 947.397 4.14034 -0.443227 0
M  V30 9148 H 949.994 4.85273 2.2453 0
M  V30 9149 H 950.337 3.19379 2.67026 0
M  V30 9150 H 950.87 3.82488 1.09305 0
M  V30 9151 H 947.609 6.55332 -0.148423 0
M  V30 9152 H 947.129 5.83124 1.4045 0
M  V30 9153 H 948.808 6.36737 1.14785 0
M  V30 9154 N 948.94 -0.228186 1.55939 0
M  V30 9155 C 950.18 -0.960695 1.80416 0
M  V30 9156 C 950.544 -1.81795 0.617615 0
M  V30 9157 O 951.745 -2.58369 0.741545 0
M  V30 9158 C 950.016 -1.78298 3.09749 0
M  V30 9159 S 951.575 -2.57203 3.55517 0
M  V30 9160 H 948.393 -0.322825 0.633486 0
M  V30 9161 H 950.995 -0.226852 1.94179 0
M  V30 9162 H 949.699 -1.14323 3.94155 0
M  V30 9163 H 949.23 -2.55924 2.98775 0
M  V30 9164 H 951.245 -3.80632 3.1833 0
M  V30 9165 N 950.418 -1.49637 -0.494624 0
M  V30 9166 C 951.365 -1.66776 -1.59545 0
M  V30 9167 C 952.335 -0.509159 -1.58104 0
M  V30 9168 O 953.52 -0.736949 -1.75993 0
M  V30 9169 C 950.66 -1.74624 -2.97658 0
M  V30 9170 C 949.773 -3.01831 -3.09067 0
M  V30 9171 C 948.908 -3.00619 -4.37952 0
M  V30 9172 C 947.947 -4.22378 -4.43016 0
M  V30 9173 N 947.084 -4.1904 -5.63339 0
M  V30 9174 H 951.924 -2.60767 -1.44238 0
M  V30 9175 H 949.461 -1.29286 -0.701673 0
M  V30 9176 H 951.419 -1.77156 -3.77719 0
M  V30 9177 H 950.049 -0.840936 -3.11654 0
M  V30 9178 H 949.101 -3.08881 -2.22029 0
M  V30 9179 H 950.413 -3.91823 -3.08669 0
M  V30 9180 H 949.567 -3.01749 -5.26339 0
M  V30 9181 H 948.306 -2.08416 -4.40924 0
M  V30 9182 H 947.311 -4.21485 -3.5303 0
M  V30 9183 H 948.536 -5.15781 -4.41755 0
M  V30 9184 H 946.482 -3.29677 -5.67141 0
M  V30 9185 H 946.399 -5.02774 -5.64583 0
M  V30 9186 H 947.667 -4.24281 -6.53916 0
M  V30 9187 N 951.896 0.746133 -1.38819 0
M  V30 9188 C 953.307 1.32384 -1.31648 0
M  V30 9189 C 953.658 1.96185 0.0243086 0
M  V30 9190 O 952.783 1.95567 0.92641 0
M  V30 9191 C 953.378 2.40712 -2.38418 0
M  V30 9192 C 951.937 2.94185 -2.34803 0
M  V30 9193 C 951.084 1.67639 -2.20891 0
M  V30 9194 H 954.035 0.544457 -1.49068 0
M  V30 9195 H 954.056 3.20833 -2.04564 0
M  V30 9196 H 953.568 1.94247 -3.3599 0
M  V30 9197 H 951.669 3.44959 -1.40834 0
M  V30 9198 H 951.782 3.48057 -3.29231 0
M  V30 9199 H 950.146 1.9155 -1.67871 0
M  V30 9200 H 950.929 1.23242 -3.20416 0
M  V30 9201 N 953.375 1.23811 0.975125 0
M  V30 9202 C 954.623 1.07124 1.71373 0
M  V30 9203 C 954.944 -0.391864 1.91022 0
M  V30 9204 O 954.214 -1.28041 1.48265 0
M  V30 9205 H 952.794 0.393415 0.635007 0
M  V30 9206 H 955.456 1.55612 1.17349 0
M  V30 9207 H 954.552 1.56338 2.7012 0
M  V30 9208 N 954.853 -1.17469 1.05066 0
M  V30 9209 C 956.1 -1.87698 0.759987 0
M  V30 9210 C 956.428 -1.80964 -0.712902 0
M  V30 9211 O 955.683 -1.21146 -1.53695 0
M  V30 9212 C 955.982 -3.37211 1.18421 0
M  V30 9213 C 955.648 -3.64148 2.65909 0
M  V30 9214 C 954.31 -3.71209 3.06199 0
M  V30 9215 C 956.662 -3.75724 3.61222 0
M  V30 9216 C 953.99 -3.87334 4.40669 0
M  V30 9217 C 956.342 -3.93368 4.95424 0
M  V30 9218 C 955.006 -3.98667 5.3537 0
M  V30 9219 H 954.276 -0.686835 0.278099 0
M  V30 9220 H 956.923 -1.38975 1.31751 0
M  V30 9221 H 955.228 -3.87982 0.545654 0
M  V30 9222 H 956.925 -3.89911 0.936518 0
M  V30 9223 H 953.515 -3.59276 2.33707 0
M  V30 9224 H 957.699 -3.69591 3.31235 0
M  V30 9225 H 952.955 -3.89685 4.71122 0
M  V30 9226 H 957.129 -4.01267 5.69173 0
M  V30 9227 H 954.756 -4.10915 6.39572 0
M  V30 9228 N 956.331 -0.831506 -1.3388 0
M  V30 9229 C 957.577 -0.424302 -1.98312 0
M  V30 9230 C 957.91 1.01211 -1.65741 0
M  V30 9231 O 957.185 1.70636 -0.933464 0
M  V30 9232 C 957.468 -0.636815 -3.54424 0
M  V30 9233 C 957.321 -2.11997 -3.96708 0
M  V30 9234 C 958.64 -0.0782411 -4.4003 0
M  V30 9235 H 955.759 -0.155637 -0.720379 0
M  V30 9236 H 958.401 -1.04566 -1.58638 0
M  V30 9237 H 956.551 -0.107907 -3.8835 0
M  V30 9238 H 958.223 -2.71317 -3.73075 0
M  V30 9239 H 956.466 -2.60723 -3.46707 0
M  V30 9240 H 957.137 -2.21944 -5.05416 0
M  V30 9241 H 959.613 -0.530243 -4.12708 0
M  V30 9242 H 958.489 -0.256676 -5.483 0
M  V30 9243 H 958.75 1.01745 -4.30233 0
M  V30 9244 N 957.809 1.4625 -0.587256 0
M  V30 9245 C 958.739 2.33132 0.131076 0
M  V30 9246 C 959.72 1.45619 0.879158 0
M  V30 9247 O 960.905 1.74428 0.853723 0
M  V30 9248 C 958.035 3.27975 1.14236 0
M  V30 9249 C 956.989 4.24965 0.508819 0
M  V30 9250 C 956.315 5.09349 1.62689 0
M  V30 9251 C 957.615 5.19322 -0.55694 0
M  V30 9252 H 959.309 2.93442 -0.594333 0
M  V30 9253 H 956.855 1.41106 -0.287263 0
M  V30 9254 H 958.808 3.87614 1.65328 0
M  V30 9255 H 957.532 2.65781 1.8981 0
M  V30 9256 H 956.191 3.66595 0.0189337 0
M  V30 9257 H 955.839 4.43537 2.37242 0
M  V30 9258 H 955.539 5.75036 1.20861 0
M  V30 9259 H 957.063 5.71852 2.14049 0
M  V30 9260 H 958.477 5.73151 -0.130903 0
M  V30 9261 H 956.874 5.93376 -0.895801 0
M  V30 9262 H 957.944 4.62979 -1.44148 0
M  V30 9263 N 959.287 0.325282 1.54207 0
M  V30 9264 C 960.25 -0.527228 2.23054 0
M  V30 9265 C 961.25 -1.04217 1.22456 0
M  V30 9266 O 962.44 -0.934325 1.47024 0
M  V30 9267 C 959.572 -1.7325 2.93594 0
M  V30 9268 H 960.765 0.0746423 2.99807 0
M  V30 9269 H 958.318 0.0763872 1.56113 0
M  V30 9270 H 959.053 -2.37356 2.20981 0
M  V30 9271 H 958.838 -1.37065 3.67363 0
M  V30 9272 H 960.328 -2.3376 3.46043 0
M  V30 9273 N 960.765 -1.57509 0.0534917 0
M  V30 9274 C 962.176 -1.80374 -0.481867 0
M  V30 9275 C 962.527 -0.965917 -1.70776 0
M  V30 9276 O 961.652 -0.183167 -2.15623 0
M  V30 9277 C 962.247 -3.27146 -0.880978 0
M  V30 9278 C 960.806 -3.50921 -1.3613 0
M  V30 9279 C 959.953 -2.75237 -0.337611 0
M  V30 9280 H 962.904 -1.56222 0.279353 0
M  V30 9281 H 962.925 -3.38193 -1.74373 0
M  V30 9282 H 962.437 -3.88098 0.011441 0
M  V30 9283 H 960.538 -2.95251 -2.27283 0
M  V30 9284 H 960.651 -4.59632 -1.35186 0
M  V30 9285 H 959.015 -2.41444 -0.810991 0
M  V30 9286 H 959.798 -3.38918 0.546763 0
M  V30 9287 N 962.243 0.219913 -1.56058 0
M  V30 9288 C 963.191 1.29215 -1.93407 0
M  V30 9289 C 964.185 1.48434 -0.816307 0
M  V30 9290 O 965.391 1.49589 -1.00115 0
M  V30 9291 H 961.766 0.433256 -0.614649 0
M  V30 9292 H 963.737 0.949977 -2.82875 0
M  V30 9293 C 962.486 2.63501 -2.26854 0
M  V30 9294 H 961.809 2.4952 -3.12377 0
M  V30 9295 H 963.249 3.37334 -2.56869 0
M  V30 9296 C 961.708 3.18634 -1.09425 0
M  V30 9297 O 962.238 4.00117 -0.356243 0
M  V30 9298 N 960.444 2.7703 -0.877642 0
M  V30 9299 H 959.991 2.10875 -1.47951 0
M  V30 9300 H 959.949 3.1426 -0.0936792 0
M  V30 9301 N 963.721 1.49897 0.486681 0
M  V30 9302 C 964.969 1.59789 1.23742 0
M  V30 9303 C 965.29 0.293056 1.92785 0
M  V30 9304 O 964.56 -0.688534 1.83401 0
M  V30 9305 H 963.14 0.588775 0.459731 0
M  V30 9306 H 965.802 1.86597 0.562808 0
M  V30 9307 H 964.898 2.40121 1.9937 0
M  V30 9308 N 965.199 -0.738761 1.39212 0
M  V30 9309 C 966.615 -1.04381 1.20734 0
M  V30 9310 C 966.815 -2.01391 0.0663082 0
M  V30 9311 O 965.871 -2.45672 -0.583229 0
M  V30 9312 C 967.184 -1.6097 2.53987 0
M  V30 9313 C 968.732 -1.73069 2.60799 0
M  V30 9314 C 969.207 -2.33067 3.94264 0
M  V30 9315 N 970.698 -2.40481 3.95883 0
M  V30 9316 C 971.433 -2.87834 4.95923 0
M  V30 9317 N 970.929 -3.35111 6.0636 0
M  V30 9318 N 972.722 -2.87009 4.83304 0
M  V30 9319 H 964.873 -0.0952996 2.12186 0
M  V30 9320 H 967.136 -0.104902 0.942178 0
M  V30 9321 H 966.842 -0.971548 3.38015 0
M  V30 9322 H 966.716 -2.59829 2.73439 0
M  V30 9323 H 969.103 -2.36007 1.77157 0
M  V30 9324 H 969.184 -0.728728 2.452 0
M  V30 9325 H 968.828 -1.70758 4.78335 0
M  V30 9326 H 968.758 -3.33933 4.07181 0
M  V30 9327 H 971.249 -2.07061 3.16123 0
M  V30 9328 H 971.562 -3.69742 6.78609 0
M  V30 9329 H 969.907 -3.33129 6.09959 0
M  V30 9330 H 973.098 -2.49395 3.96131 0
M  V30 9331 H 973.271 -3.23598 5.61416 0
M  V30 9332 N 966.677 -1.24326 -0.968545 0
M  V30 9333 C 967.907 -1.10786 -1.74385 0
M  V30 9334 C 968.315 0.342503 -1.86074 0
M  V30 9335 O 967.658 1.24817 -1.34782 0
M  V30 9336 C 967.72 -1.67274 -3.18213 0
M  V30 9337 C 967.384 -3.1615 -3.29998 0
M  V30 9338 C 968.381 -4.13309 -3.15392 0
M  V30 9339 C 966.066 -3.56092 -3.54265 0
M  V30 9340 C 968.06 -5.48392 -3.24878 0
M  V30 9341 C 965.747 -4.91316 -3.63389 0
M  V30 9342 C 966.745 -5.87275 -3.48707 0
M  V30 9343 O 966.433 -7.20041 -3.57485 0
M  V30 9344 H 966.165 -0.387795 -0.553706 0
M  V30 9345 H 968.719 -1.64894 -1.22471 0
M  V30 9346 H 966.949 -1.07598 -3.71429 0
M  V30 9347 H 968.638 -1.49036 -3.77549 0
M  V30 9348 H 969.404 -3.83792 -2.96528 0
M  V30 9349 H 965.283 -2.81907 -3.6476 0
M  V30 9350 H 968.827 -6.23271 -3.13335 0
M  V30 9351 H 964.724 -5.20505 -3.81766 0
M  V30 9352 H 965.492 -7.27951 -3.74205 0
M  V30 9353 N 968.156 1.1691 -1.05688 0
M  V30 9354 C 969.396 1.88972 -0.779044 0
M  V30 9355 C 969.76 1.7949 0.681708 0
M  V30 9356 O 970.961 2.46418 1.07386 0
M  V30 9357 C 969.232 3.34737 -1.25242 0
M  V30 9358 S 970.791 4.24718 -1.10272 0
M  V30 9359 H 967.609 0.652349 -0.282776 0
M  V30 9360 H 970.211 1.41162 -1.35254 0
M  V30 9361 H 968.915 3.39175 -2.3106 0
M  V30 9362 H 968.446 3.87593 -0.673417 0
M  V30 9363 H 970.461 4.96191 -0.0299004 0
M  V30 9364 N 969.634 0.838594 1.33437 0
M  V30 9365 C 970.862 0.447644 2.01999 0
M  V30 9366 C 971.277 -0.951053 1.63096 0
M  V30 9367 O 970.634 -1.61802 0.844169 0
M  V30 9368 C 970.685 0.558378 3.57162 0
M  V30 9369 O 970.406 1.90196 3.94661 0
M  V30 9370 C 971.907 0.164348 4.42995 0
M  V30 9371 H 969.127 0.177736 0.647032 0
M  V30 9372 H 971.671 1.13109 1.70372 0
M  V30 9373 H 969.826 -0.0771563 3.87323 0
M  V30 9374 H 970.24 1.88729 4.89369 0
M  V30 9375 H 971.714 0.292876 5.51222 0
M  V30 9376 H 972.191 -0.893713 4.30011 0
M  V30 9377 H 972.797 0.774306 4.18192 0
M  V30 9378 N 971.112 -1.45937 0.595003 0
M  V30 9379 C 972.389 -1.95592 0.0178748 0
M  V30 9380 C 972.769 -1.53758 -1.44643 0
M  V30 9381 O 972.117 -0.794104 -2.14257 0
M  V30 9382 C 972.327 -3.4841 0.202789 0
M  V30 9383 C 973.675 -4.2453 0.0770121 0
M  V30 9384 O 974.699 -3.55954 0.132257 0
M  V30 9385 O 973.558 -5.46479 -0.0484271 0
M  V30 9386 H 970.652 -0.825888 -0.0428702 0
M  V30 9387 H 973.198 -1.56162 0.664184 0
M  V30 9388 H 971.97 -3.71787 1.22027 0
M  V30 9389 H 971.593 -3.947 -0.479376 0
M  V30 9390 N 972.59 -0.333456 -1.54032 0
M  V30 9391 C 973.836 0.266527 -2.01041 0
M  V30 9392 C 974.169 1.51006 -1.2211 0
M  V30 9393 O 973.444 1.92078 -0.306016 0
M  V30 9394 C 973.727 0.59078 -3.55221 0
M  V30 9395 C 973.58 -0.664143 -4.4487 0
M  V30 9396 C 974.899 1.40447 -4.17088 0
M  V30 9397 H 972.018 0.0953979 -0.7308 0
M  V30 9398 H 974.66 -0.451995 -1.84545 0
M  V30 9399 H 972.81 1.20292 -3.69408 0
M  V30 9400 H 974.482 -1.30227 -4.42537 0
M  V30 9401 H 972.725 -1.29106 -4.14143 0
M  V30 9402 H 973.396 -0.392664 -5.50602 0
M  V30 9403 H 975.872 0.886946 -4.06537 0
M  V30 9404 H 974.748 1.6001 -5.2506 0
M  V30 9405 H 975.009 2.40357 -3.71054 0
M  V30 9406 N 974.068 1.57479 -0.061844 0
M  V30 9407 C 975.345 1.84484 0.649993 0
M  V30 9408 C 975.725 0.952366 1.88396 0
M  V30 9409 O 975.073 0.0161035 2.28494 0
M  V30 9410 C 975.283 3.34452 0.997133 0
M  V30 9411 C 976.631 4.01724 1.37488 0
M  V30 9412 O 977.655 3.3914 1.08916 0
M  V30 9413 O 976.514 5.12091 1.90854 0
M  V30 9414 H 973.608 0.761798 0.321858 0
M  V30 9415 H 976.154 1.6945 -0.0920192 0
M  V30 9416 H 974.926 3.91115 0.120301 0
M  V30 9417 H 974.549 3.54713 1.79624 0
M  V30 9418 N 975.546 -0.211634 1.56173 0
M  V30 9419 C 976.456 -1.2831 1.96402 0
M  V30 9420 C 977.472 -1.50731 0.869254 0
M  V30 9421 O 978.648 -1.63669 1.17365 0
M  V30 9422 C 975.713 -2.61084 2.28114 0
M  V30 9423 C 974.774 -2.46879 3.51211 0
M  V30 9424 C 974.007 -3.73321 3.81401 0
M  V30 9425 O 974.23 -4.76773 3.13119 0
M  V30 9426 O 973.164 -3.69839 4.74871 0
M  V30 9427 H 976.99 -0.971733 2.87734 0
M  V30 9428 H 974.575 -0.415305 1.43512 0
M  V30 9429 H 976.457 -3.39481 2.49661 0
M  V30 9430 H 975.132 -2.91881 1.39954 0
M  V30 9431 H 974.039 -1.66648 3.34932 0
M  V30 9432 H 975.372 -2.21018 4.39786 0
M  V30 9433 N 977.024 -1.50153 -0.478725 0
M  V30 9434 C 978.264 -1.62393 -1.24129 0
M  V30 9435 C 978.628 -0.313774 -1.89419 0
M  V30 9436 O 979.829 -0.311537 -2.66989 0
M  V30 9437 C 978.1 -2.76633 -2.26293 0
M  V30 9438 S 979.659 -3.08961 -3.11591 0
M  V30 9439 H 976.477 -0.572559 -0.421541 0
M  V30 9440 H 979.079 -1.87906 -0.539592 0
M  V30 9441 H 977.783 -3.70319 -1.76896 0
M  V30 9442 H 977.314 -2.53182 -3.01102 0
M  V30 9443 H 979.329 -2.52197 -4.2733 0
M  V30 9444 N 978.502 0.731368 -1.39602 0
M  V30 9445 C 979.434 1.85575 -1.34516 0
M  V30 9446 C 980.447 1.60818 -0.253287 0
M  V30 9447 O 981.636 1.70984 -0.512505 0
M  V30 9448 C 978.736 3.21673 -1.06676 0
M  V30 9449 C 977.909 3.73757 -2.27211 0
M  V30 9450 C 976.968 4.88426 -1.95773 0
M  V30 9451 O 975.994 5.01898 -2.68491 0
M  V30 9452 N 977.196 5.73065 -0.926083 0
M  V30 9453 H 979.961 1.90442 -2.31413 0
M  V30 9454 H 977.522 0.912258 -1.33752 0
M  V30 9455 H 979.514 3.95959 -0.836577 0
M  V30 9456 H 978.084 3.12052 -0.185003 0
M  V30 9457 H 977.304 2.90781 -2.66158 0
M  V30 9458 H 978.592 4.05289 -3.07601 0
M  V30 9459 H 977.99 5.64774 -0.323497 0
M  V30 9460 H 976.547 6.47403 -0.755795 0
M  V30 9461 N 979.98 1.24838 0.961938 0
M  V30 9462 C 981.208 1.11871 1.74047 0
M  V30 9463 C 981.623 -0.328209 1.85925 0
M  V30 9464 O 980.98 -1.22616 1.35173 0
M  V30 9465 C 981.031 1.75931 3.15801 0
M  V30 9466 O 980.752 3.14967 3.04512 0
M  V30 9467 C 982.253 1.68649 4.09966 0
M  V30 9468 H 979.473 0.390569 0.545616 0
M  V30 9469 H 982.017 1.65058 1.20732 0
M  V30 9470 H 980.172 1.26733 3.66084 0
M  V30 9471 H 980.586 3.46349 3.93882 0
M  V30 9472 H 982.06 2.18144 5.07067 0
M  V30 9473 H 982.537 0.648831 4.34381 0
M  V30 9474 H 983.143 2.17301 3.65596 0
M  V30 9475 N 981.458 -1.16348 1.06306 0
M  V30 9476 C 982.869 -1.68491 0.80422 0
M  V30 9477 C 983.22 -1.84327 -0.672159 0
M  V30 9478 O 982.345 -1.53892 -1.52139 0
M  V30 9479 C 982.94 -3.06048 1.45328 0
M  V30 9480 C 981.499 -3.55311 1.24221 0
M  V30 9481 C 980.646 -2.31291 1.5297 0
M  V30 9482 H 983.597 -1.00708 1.22652 0
M  V30 9483 H 983.618 -3.70451 0.868674 0
M  V30 9484 H 983.13 -2.9449 2.52779 0
M  V30 9485 H 981.231 -3.72128 0.187447 0
M  V30 9486 H 981.344 -4.37397 1.95502 0
M  V30 9487 H 979.708 -2.3631 0.950241 0
M  V30 9488 H 980.491 -2.22331 2.6158 0
M  V30 9489 N 982.937 -0.845659 -1.3299 0
M  V30 9490 C 984.185 -0.443774 -1.97168 0
M  V30 9491 C 984.506 1.00192 -1.67292 0
M  V30 9492 O 983.776 1.69891 -0.975397 0
M  V30 9493 H 982.356 -0.161111 -0.729419 0
M  V30 9494 H 985.018 -1.08011 -1.62233 0
M  V30 9495 H 984.114 -0.581414 -3.06637 0
M  V30 9496 N 984.415 1.45619 -0.602734 0
M  V30 9497 C 985.664 2.01483 -0.0936395 0
M  V30 9498 C 985.977 1.47753 1.28173 0
M  V30 9499 O 987.183 1.95562 1.88329 0
M  V30 9500 C 985.639 3.59711 -0.116738 0
M  V30 9501 C 985.247 4.22437 -1.49166 0
M  V30 9502 C 986.991 4.23157 0.337368 0
M  V30 9503 C 984.898 5.72803 -1.47141 0
M  V30 9504 H 983.828 0.753353 -0.0312382 0
M  V30 9505 H 986.479 1.67142 -0.757347 0
M  V30 9506 H 984.861 3.91218 0.613529 0
M  V30 9507 H 986.035 4.02511 -2.24325 0
M  V30 9508 H 984.35 3.71166 -1.88746 0
M  V30 9509 H 986.947 5.33407 0.371628 0
M  V30 9510 H 987.29 3.93491 1.35906 0
M  V30 9511 H 987.823 3.96349 -0.339474 0
M  V30 9512 H 984.562 6.07161 -2.47055 0
M  V30 9513 H 984.082 5.94936 -0.762329 0
M  V30 9514 H 985.761 6.35907 -1.19294 0
M  V30 9515 N 985.893 0.34162 1.53853 0
M  V30 9516 C 987.133 -0.255853 2.02792 0
M  V30 9517 C 987.497 -1.47921 1.22407 0
M  V30 9518 O 988.698 -2.15073 1.61236 0
M  V30 9519 C 986.969 -0.564117 3.5292 0
M  V30 9520 S 988.528 -1.13868 4.23768 0
M  V30 9521 H 985.346 -0.0762867 0.706896 0
M  V30 9522 H 987.948 0.478934 1.89543 0
M  V30 9523 H 986.652 0.334098 4.09038 0
M  V30 9524 H 986.183 -1.32862 3.70285 0
M  V30 9525 H 988.198 -2.42451 4.32934 0
M  V30 9526 N 987.371 -1.57444 0.0701946 0
M  V30 9527 C 988.304 -2.08232 -0.93352 0
M  V30 9528 C 989.282 -0.987073 -1.29212 0
M  V30 9529 O 990.466 -1.26035 -1.40169 0
M  V30 9530 C 987.593 -2.53866 -2.2421 0
M  V30 9531 C 986.639 -3.7481 -2.03518 0
M  V30 9532 S 987.472 -5.1958 -1.29601 0
M  V30 9533 C 988.628 -5.68544 -2.61742 0
M  V30 9534 H 988.861 -2.93042 -0.501354 0
M  V30 9535 H 986.394 -1.53741 -0.142533 0
M  V30 9536 H 988.352 -2.80818 -2.99419 0
M  V30 9537 H 987.013 -1.69327 -2.64551 0
M  V30 9538 H 986.206 -4.04724 -3.00358 0
M  V30 9539 H 985.808 -3.48222 -1.36445 0
M  V30 9540 H 988.1 -5.75291 -3.57836 0
M  V30 9541 H 989.043 -6.67459 -2.3644 0
M  V30 9542 H 989.451 -4.96354 -2.68873 0
M  V30 9543 N 988.849 0.203349 -1.56283 0
M  V30 9544 C 989.797 1.27157 -1.94766 0
M  V30 9545 C 990.791 1.4756 -0.832005 0
M  V30 9546 O 991.997 1.48519 -1.01696 0
M  V30 9547 H 988.372 0.426712 -0.61921 0
M  V30 9548 H 990.343 0.919921 -2.83866 0
M  V30 9549 C 989.092 2.6108 -2.29636 0
M  V30 9550 H 988.415 2.46193 -3.15006 0
M  V30 9551 H 989.855 3.34591 -2.60433 0
M  V30 9552 C 988.314 3.17456 -1.12799 0
M  V30 9553 O 988.844 3.99717 -0.398661 0
M  V30 9554 N 987.05 2.76084 -0.906975 0
M  V30 9555 H 986.597 2.09294 -1.50179 0
M  V30 9556 H 986.555 3.14143 -0.127005 0
M  V30 9557 N 990.327 1.50405 0.470755 0
M  V30 9558 C 991.575 1.61092 1.2204 0
M  V30 9559 C 991.896 0.313487 1.92464 0
M  V30 9560 O 991.166 -0.669043 1.84121 0
M  V30 9561 H 989.746 0.593618 0.45346 0
M  V30 9562 H 992.408 1.87184 0.542985 0
M  V30 9563 H 991.504 2.42222 1.96812 0
M  V30 9564 N 991.805 -0.723954 1.39988 0
M  V30 9565 C 992.755 -1.82943 1.36073 0
M  V30 9566 C 993.739 -1.59105 0.239682 0
M  V30 9567 O 994.931 -1.7042 0.478116 0
M  V30 9568 C 992.06 -3.20988 1.21745 0
M  V30 9569 C 991.146 -3.50618 2.38596 0
M  V30 9570 N 991.537 -3.51115 3.64077 0
M  V30 9571 C 989.835 -3.81035 2.31794 0
M  V30 9572 C 990.536 -3.78852 4.41413 0
M  V30 9573 N 989.512 -3.97182 3.71143 0
M  V30 9574 H 993.314 -1.81649 2.31043 0
M  V30 9575 H 990.828 -0.922703 1.33641 0
M  V30 9576 H 992.825 -4.00139 1.17022 0
M  V30 9577 H 991.485 -3.23513 0.277344 0
M  V30 9578 H 992.496 -3.32163 3.97351 0
M  V30 9579 H 989.173 -3.911 1.46105 0
M  V30 9580 H 990.563 -3.85612 5.5023 0
M  V30 9581 N 993.283 -1.25346 -0.955304 0
M  V30 9582 C 994.523 -1.11259 -1.71467 0
M  V30 9583 C 994.887 0.340759 -1.88952 0
M  V30 9584 O 996.088 0.60344 -2.61939 0
M  V30 9585 C 994.359 -1.84541 -3.06071 0
M  V30 9586 S 995.918 -1.86337 -3.97271 0
M  V30 9587 H 992.736 -0.397683 -0.58938 0
M  V30 9588 H 995.338 -1.58861 -1.13945 0
M  V30 9589 H 994.042 -2.89377 -2.91014 0
M  V30 9590 H 993.573 -1.37323 -3.68654 0
M  V30 9591 H 995.588 -0.939925 -4.87216 0
M  V30 9592 N 994.761 1.15782 -1.06922 0
M  V30 9593 C 996.01 1.85807 -0.784774 0
M  V30 9594 C 996.323 1.82967 0.691551 0
M  V30 9595 O 997.529 2.48632 1.0906 0
M  V30 9596 C 995.985 3.33469 -1.35375 0
M  V30 9597 C 995.593 3.44766 -2.86077 0
M  V30 9598 C 997.337 4.08707 -1.14713 0
M  V30 9599 C 995.244 4.86551 -3.36187 0
M  V30 9600 H 994.174 0.696046 -0.28989 0
M  V30 9601 H 996.825 1.30629 -1.28873 0
M  V30 9602 H 995.207 3.88292 -0.77754 0
M  V30 9603 H 996.381 3.00073 -3.49704 0
M  V30 9604 H 994.696 2.82969 -3.05479 0
M  V30 9605 H 997.293 5.13336 -1.49633 0
M  V30 9606 H 997.636 4.16211 -0.0858868 0
M  V30 9607 H 998.169 3.60142 -1.68946 0
M  V30 9608 H 994.908 4.84229 -4.41818 0
M  V30 9609 H 994.428 5.31844 -2.77312 0
M  V30 9610 H 996.107 5.55392 -3.31887 0
M  V30 9611 N 996.239 0.8527 1.3254 0
M  V30 9612 C 997.187 0.284659 2.30852 0
M  V30 9613 C 998.181 -0.5909 1.5876 0
M  V30 9614 O 999.387 -0.478922 1.73512 0
M  V30 9615 H 995.762 0.0733452 0.748415 0
M  V30 9616 H 997.733 1.1281 2.76254 0
M  V30 9617 C 996.482 -0.51379 3.43883 0
M  V30 9618 H 995.805 0.150644 3.99516 0
M  V30 9619 H 997.245 -0.876866 4.14834 0
M  V30 9620 C 995.704 -1.69823 2.90967 0
M  V30 9621 O 996.234 -2.79727 2.88298 0
M  V30 9622 N 994.44 -1.52465 2.47392 0
M  V30 9623 H 993.987 -0.630599 2.49762 0
M  V30 9624 H 993.945 -2.31859 2.12341 0
M  V30 9625 N 997.718 -1.45297 0.610449 0
M  V30 9626 C 998.943 -2.07101 0.111414 0
M  V30 9627 C 999.368 -1.45161 -1.19625 0
M  V30 9628 O 998.726 -0.545368 -1.72903 0
M  V30 9629 C 998.774 -3.60598 -0.0117372 0
M  V30 9630 O 997.878 -3.98512 -1.06122 0
M  V30 9631 H 997.219 -0.659709 0.075364 0
M  V30 9632 H 999.749 -1.86504 0.841269 0
M  V30 9633 H 999.759 -4.07464 -0.209028 0
M  V30 9634 H 998.434 -4.05067 0.943076 0
M  V30 9635 H 997.011 -3.63312 -0.840158 0
M  V30 9636 N 999.196 -0.349774 -1.5367 0
M  V30 9637 C 1000.11 0.512421 -2.28935 0
M  V30 9638 C 1001.12 1.1065 -1.34286 0
M  V30 9639 O 1002.3 1.12084 -1.67329 0
M  V30 9640 C 999.363 1.64449 -3.05217 0
M  V30 9641 C 998.424 1.07956 -4.15505 0
M  V30 9642 C 997.657 2.15768 -4.88139 0
M  V30 9643 O 997.88 3.366 -4.60496 0
M  V30 9644 O 996.814 1.79712 -5.74445 0
M  V30 9645 H 1000.64 -0.0996001 -3.03537 0
M  V30 9646 H 998.225 -0.114629 -1.4896 0
M  V30 9647 H 1000.11 2.30302 -3.52901 0
M  V30 9648 H 998.782 2.24221 -2.33467 0
M  V30 9649 H 997.689 0.385381 -3.7211 0
M  V30 9650 H 999.022 0.526621 -4.89375 0
M  V30 9651 N 1000.67 1.57404 -0.0785433 0
M  V30 9652 C 1001.92 1.93361 0.58786 0
M  V30 9653 C 1002.24 0.959856 1.6974 0
M  V30 9654 O 1001.51 0.0091173 1.95898 0
M  V30 9655 H 1000.09 0.713825 0.220141 0
M  V30 9656 H 1002.75 1.94411 -0.137986 0
M  V30 9657 H 1001.85 2.95346 1.00881 0
M  V30 9658 N 1002.15 -0.195058 1.56388 0
M  V30 9659 C 1003.38 -0.935745 1.85091 0
M  V30 9660 C 1003.8 -1.76061 0.662118 0
M  V30 9661 O 1003.16 -1.77076 -0.389083 0
M  V30 9662 C 1003.21 -1.80764 3.1202 0
M  V30 9663 O 1002.31 -2.90643 2.92575 0
M  V30 9664 H 1001.65 -0.26351 0.609474 0
M  V30 9665 H 1004.18 -0.200362 2.03617 0
M  V30 9666 H 1004.19 -2.21229 3.42815 0
M  V30 9667 H 1002.87 -1.20157 3.98165 0
M  V30 9668 H 1001.44 -2.53934 2.73079 0
M  V30 9669 N 1003.63 -1.50653 -0.462772 0
M  V30 9670 C 1004.88 -1.62057 -1.21424 0
M  V30 9671 C 1005.2 -0.324778 -1.91769 0
M  V30 9672 O 1004.46 0.689828 -1.83139 0
M  V30 9673 C 1004.76 -2.75637 -2.27507 0
M  V30 9674 C 1004.42 -4.15826 -1.74354 0
M  V30 9675 C 1003.09 -4.53969 -1.5958 0
M  V30 9676 C 1005.44 -5.03409 -1.35012 0
M  V30 9677 C 1002.77 -5.77427 -1.03899 0
M  V30 9678 C 1005.12 -6.27422 -0.807704 0
M  V30 9679 C 1003.78 -6.6436 -0.646657 0
M  V30 9680 H 1003.05 -0.59301 -0.44432 0
M  V30 9681 H 1005.7 -1.84612 -0.508999 0
M  V30 9682 H 1004 -2.47203 -3.0397 0
M  V30 9683 H 1005.7 -2.81663 -2.85424 0
M  V30 9684 H 1002.29 -3.85739 -1.86823 0
M  V30 9685 H 1006.48 -4.74567 -1.45258 0
M  V30 9686 H 1001.73 -6.04713 -0.901751 0
M  V30 9687 H 1005.91 -6.94644 -0.494234 0
M  V30 9688 H 1003.53 -7.59901 -0.213053 0
M  V30 9689 N 1005.11 0.71652 -1.4037 0
M  V30 9690 C 1006.52 1.02447 -1.22379 0
M  V30 9691 C 1006.72 2.0126 -0.0983394 0
M  V30 9692 O 1005.78 2.46569 0.544071 0
M  V30 9693 C 1007.09 1.56909 -2.56515 0
M  V30 9694 C 1008.64 1.68898 -2.6352 0
M  V30 9695 C 1009.12 2.26765 -3.97922 0
M  V30 9696 N 1010.61 2.34152 -3.99658 0
M  V30 9697 C 1011.34 2.79907 -5.00439 0
M  V30 9698 N 1010.84 3.25422 -6.11615 0
M  V30 9699 N 1012.63 2.79283 -4.87809 0
M  V30 9700 H 1004.78 0.0615306 -2.12311 0
M  V30 9701 H 1007.05 0.0898994 -0.943728 0
M  V30 9702 H 1006.75 0.917649 -3.39517 0
M  V30 9703 H 1006.63 2.55446 -2.77538 0
M  V30 9704 H 1009.01 2.33159 -1.8089 0
M  V30 9705 H 1009.09 0.689626 -2.46329 0
M  V30 9706 H 1008.74 1.63126 -4.80991 0
M  V30 9707 H 1008.67 3.27413 -4.12442 0
M  V30 9708 H 1011.16 2.02006 -3.19378 0
M  V30 9709 H 1011.47 3.58899 -6.84406 0
M  V30 9710 H 1009.82 3.23383 -6.15181 0
M  V30 9711 H 1013.01 2.43061 -4.00049 0
M  V30 9712 H 1013.18 3.14626 -5.66493 0
M  V30 9713 N 1006.59 1.25851 0.948643 0
M  V30 9714 C 1007.83 1.12166 1.70874 0
M  V30 9715 C 1008.19 -0.330734 1.8913 0
M  V30 9716 O 1009.39 -0.58954 2.62255 0
M  V30 9717 C 1007.66 1.86162 3.05088 0
M  V30 9718 S 1009.22 1.88441 3.96277 0
M  V30 9719 H 1006.04 0.400803 0.587263 0
M  V30 9720 H 1008.64 1.59463 1.13101 0
M  V30 9721 H 1007.35 2.90916 2.89476 0
M  V30 9722 H 1006.88 1.39276 3.67921 0
M  V30 9723 H 1008.89 0.96575 4.86711 0
M  V30 9724 N 1008.06 -1.15214 1.07534 0
M  V30 9725 C 1009.34 -1.82155 0.71267 0
M  V30 9726 C 1009.72 -1.95163 -0.804655 0
M  V30 9727 O 1009.07 -1.50451 -1.71979 0
M  V30 9728 C 1009.28 -3.18392 1.42925 0
M  V30 9729 C 1010.63 -3.94005 1.58256 0
M  V30 9730 O 1011.65 -3.27952 1.39018 0
M  V30 9731 O 1010.51 -5.12436 1.89925 0
M  V30 9732 H 1007.6 -0.78709 0.253808 0
M  V30 9733 H 1010.15 -1.22309 1.17638 0
M  V30 9734 H 1008.92 -3.04034 2.46331 0
M  V30 9735 H 1008.55 -3.85925 0.956439 0
M  V30 9736 N 1009.54 -0.859717 -1.32086 0
M  V30 9737 C 1010.78 -0.471939 -1.98877 0
M  V30 9738 C 1011.15 0.955689 -1.66525 0
M  V30 9739 O 1012.35 1.44829 -2.26447 0
M  V30 9740 C 1010.62 -0.710016 -3.50276 0
M  V30 9741 S 1012.18 -0.420566 -4.3678 0
M  V30 9742 H 1009 -0.176588 -0.688722 0
M  V30 9743 H 1011.6 -1.11352 -1.60689 0
M  V30 9744 H 1010.3 -1.74803 -3.71311 0
M  V30 9745 H 1009.83 -0.0550429 -3.93361 0
M  V30 9746 H 1011.85 0.751362 -4.90478 0
M  V30 9747 N 1011.02 1.44971 -0.618145 0
M  V30 9748 C 1012.43 1.85611 -0.201334 0
M  V30 9749 C 1012.78 1.51698 1.24427 0
M  V30 9750 O 1011.91 0.94875 1.94493 0
M  V30 9751 C 1012.5 3.36897 -0.358619 0
M  V30 9752 C 1011.06 3.764 0.00358196 0
M  V30 9753 C 1010.21 2.68881 -0.678118 0
M  V30 9754 H 1013.16 1.35622 -0.824152 0
M  V30 9755 H 1013.18 3.78326 0.406176 0
M  V30 9756 H 1012.69 3.61548 -1.41084 0
M  V30 9757 H 1010.79 3.57365 1.05457 0
M  V30 9758 H 1010.91 4.77449 -0.397427 0
M  V30 9759 H 1009.27 2.54442 -0.114699 0
M  V30 9760 H 1010.05 2.96367 -1.73268 0
M  V30 9761 N 1012.5 0.357919 1.53482 0
M  V30 9762 C 1013.91 -0.122938 1.86295 0
M  V30 9763 C 1014.26 -1.48803 1.27875 0
M  V30 9764 O 1013.39 -2.07978 0.597828 0
M  V30 9765 C 1013.98 -0.229853 3.38019 0
M  V30 9766 C 1012.54 -0.654955 3.70658 0
M  V30 9767 C 1011.69 0.202539 2.76559 0
M  V30 9768 H 1014.64 0.576997 1.47839 0
M  V30 9769 H 1014.66 -1.05481 3.65587 0
M  V30 9770 H 1014.17 0.763825 3.80509 0
M  V30 9771 H 1012.27 -1.65714 3.33721 0
M  V30 9772 H 1012.38 -0.43488 4.77122 0
M  V30 9773 H 1010.75 -0.327388 2.52587 0
M  V30 9774 H 1011.53 1.19361 3.21882 0
M  V30 9775 N 1013.98 -1.5736 0.0868897 0
M  V30 9776 C 1015.22 -1.9367 -0.577598 0
M  V30 9777 C 1015.55 -0.968844 -1.69229 0
M  V30 9778 O 1014.82 -0.0195061 -1.9589 0
M  V30 9779 H 1013.4 -0.714983 -0.216353 0
M  V30 9780 H 1016.06 -1.94335 0.148294 0
M  V30 9781 H 1015.15 -2.95877 -0.993128 0
M  V30 9782 N 1015.45 0.186762 -1.56489 0
M  V30 9783 C 1016.38 1.23395 -1.98232 0
M  V30 9784 C 1017.37 1.4702 -0.855526 0
M  V30 9785 O 1018.55 1.58616 -1.12048 0
M  V30 9786 C 1015.68 2.57635 -2.32898 0
M  V30 9787 C 1014.63 2.48607 -3.48394 0
M  V30 9788 C 1013.96 3.87196 -3.68759 0
M  V30 9789 C 1015.26 2.00398 -4.82325 0
M  V30 9790 H 1016.95 0.887026 -2.85958 0
M  V30 9791 H 1014.5 0.42525 -1.37578 0
M  V30 9792 H 1016.45 3.31082 -2.60696 0
M  V30 9793 H 1015.18 2.94084 -1.42064 0
M  V30 9794 H 1013.84 1.77615 -3.207 0
M  V30 9795 H 1013.48 4.21012 -2.75241 0
M  V30 9796 H 1013.18 3.82029 -4.46462 0
M  V30 9797 H 1014.71 4.62253 -3.98941 0
M  V30 9798 H 1016.12 2.6361 -5.091 0
M  V30 9799 H 1014.52 2.06214 -5.63556 0
M  V30 9800 H 1015.59 0.957562 -4.75351 0
M  V30 9801 N 1016.93 1.50896 0.454776 0
M  V30 9802 C 1017.9 1.70377 1.53312 0
M  V30 9803 C 1018.9 0.57408 1.50203 0
M  V30 9804 O 1020.09 0.841374 1.52534 0
M  V30 9805 C 1017.22 1.74411 2.92905 0
M  V30 9806 H 1018.41 2.66599 1.37349 0
M  V30 9807 H 1015.96 1.40622 0.68228 0
M  V30 9808 H 1016.7 0.799408 3.14293 0
M  V30 9809 H 1016.48 2.56496 2.96568 0
M  V30 9810 H 1017.97 1.91382 3.71164 0
M  V30 9811 N 1018.41 -0.709066 1.40748 0
M  V30 9812 C 1019.66 -1.47119 1.39585 0
M  V30 9813 C 1019.99 -1.942 0.000245323 0
M  V30 9814 O 1019.26 -1.68609 -0.969593 0
M  V30 9815 C 1019.55 -2.69266 2.39099 0
M  V30 9816 C 1019.4 -2.28037 3.8771 0
M  V30 9817 C 1020.72 -3.71438 2.36055 0
M  V30 9818 H 1017.84 -0.533632 0.508336 0
M  V30 9819 H 1020.48 -0.808718 1.7193 0
M  V30 9820 H 1018.63 -3.25788 2.11647 0
M  V30 9821 H 1020.3 -1.76946 4.26014 0
M  V30 9822 H 1018.55 -1.59966 4.03229 0
M  V30 9823 H 1019.22 -3.15621 4.52866 0
M  V30 9824 H 1021.69 -3.24559 2.60385 0
M  V30 9825 H 1020.57 -4.54532 3.07721 0
M  V30 9826 H 1020.83 -4.20193 1.37443 0
M  V30 9827 N 1019.89 -1.26353 -0.941956 0
M  V30 9828 C 1021.14 -1.1163 -1.68473 0
M  V30 9829 C 1021.46 0.34108 -1.91994 0
M  V30 9830 O 1020.73 1.24065 -1.51607 0
M  V30 9831 H 1019.31 -0.410113 -0.624353 0
M  V30 9832 H 1021.97 -1.58669 -1.13182 0
M  V30 9833 H 1021.07 -1.63445 -2.6588 0
M  V30 9834 N 1021.37 1.14642 -1.08144 0
M  V30 9835 C 1022.3 2.18656 -0.653066 0
M  V30 9836 C 1023.28 1.59137 0.333803 0
M  V30 9837 O 1024.46 1.86988 0.238305 0
M  V30 9838 C 1021.59 3.38677 0.0398337 0
M  V30 9839 C 1020.64 4.1675 -0.906755 0
M  V30 9840 S 1021.47 4.78103 -2.41201 0
M  V30 9841 C 1022.62 6.01483 -1.73115 0
M  V30 9842 H 1022.86 2.54654 -1.53423 0
M  V30 9843 H 1020.39 1.25731 -0.896162 0
M  V30 9844 H 1022.35 4.08206 0.43334 0
M  V30 9845 H 1021.01 3.01006 0.897457 0
M  V30 9846 H 1020.2 5.02649 -0.368795 0
M  V30 9847 H 1019.8 3.52809 -1.24103 0
M  V30 9848 H 1022.1 6.69353 -1.04752 0
M  V30 9849 H 1023.04 6.59863 -2.56878 0
M  V30 9850 H 1023.45 5.51474 -1.20566 0
M  V30 9851 N 1022.85 0.866709 1.31628 0
M  V30 9852 C 1024.12 0.396828 1.91532 0
M  V30 9853 C 1024.5 -1.12081 1.78889 0
M  V30 9854 O 1023.85 -1.94791 1.19452 0
M  V30 9855 C 1024.06 0.874578 3.37864 0
M  V30 9856 C 1025.41 0.8988 4.14978 0
M  V30 9857 O 1026.43 0.820014 3.46633 0
M  V30 9858 O 1025.29 1.01223 5.37044 0
M  V30 9859 H 1022.39 0.1181 0.818524 0
M  V30 9860 H 1024.93 0.954407 1.40318 0
M  V30 9861 H 1023.7 1.91807 3.41066 0
M  V30 9862 H 1023.33 0.295126 3.96503 0
M  V30 9863 N 1024.32 -1.44642 0.625825 0
M  V30 9864 C 1025.57 -2.01695 0.127948 0
M  V30 9865 C 1025.89 -1.49439 -1.25271 0
M  V30 9866 O 1025.16 -0.695873 -1.83124 0
M  V30 9867 H 1023.74 -0.745685 0.0443096 0
M  V30 9868 H 1026.4 -1.7721 0.811332 0
M  V30 9869 H 1025.5 -3.11966 0.0915933 0
M  V30 9870 N 1025.8 -0.366053 -1.5329 0
M  V30 9871 C 1027.22 -0.0150149 -1.59593 0
M  V30 9872 C 1027.42 1.46719 -1.38116 0
M  V30 9873 O 1026.47 2.22884 -1.18656 0
M  V30 9874 C 1027.79 -0.471374 -2.96982 0
M  V30 9875 C 1029.33 -0.425634 -3.10092 0
M  V30 9876 C 1029.81 -0.857812 -4.49895 0
M  V30 9877 N 1031.3 -0.81289 -4.56011 0
M  V30 9878 C 1032.04 -1.11898 -5.62376 0
M  V30 9879 N 1031.53 -1.49436 -6.76491 0
M  V30 9880 N 1033.32 -1.04174 -5.52362 0
M  V30 9881 H 1025.48 -1.33127 -1.65502 0
M  V30 9882 H 1027.74 -0.544172 -0.776261 0
M  V30 9883 H 1027.44 -1.50569 -3.1784 0
M  V30 9884 H 1027.32 0.141764 -3.76934 0
M  V30 9885 H 1029.71 0.599548 -2.88945 0
M  V30 9886 H 1029.79 -1.07427 -2.32149 0
M  V30 9887 H 1029.43 -1.88111 -4.7178 0
M  V30 9888 H 1029.36 -0.186419 -5.2627 0
M  V30 9889 H 1031.85 -0.536343 -3.74075 0
M  V30 9890 H 1032.16 -1.71217 -7.53594 0
M  V30 9891 H 1030.51 -1.53302 -6.77882 0
M  V30 9892 H 1033.7 -0.747654 -4.62091 0
M  V30 9893 H 1033.87 -1.28362 -6.35159 0
M  V30 9894 N 1027.28 1.57312 -0.0952337 0
M  V30 9895 C 1028.53 1.94646 0.569284 0
M  V30 9896 C 1028.86 0.977152 1.67825 0
M  V30 9897 O 1028.13 0.0102318 1.94497 0
M  V30 9898 C 1028.42 3.42098 1.12433 0
M  V30 9899 C 1028.27 4.49795 0.0204016 0
M  V30 9900 C 1029.59 3.90866 2.02266 0
M  V30 9901 H 1026.71 0.707779 0.205469 0
M  V30 9902 H 1029.35 1.89274 -0.16597 0
M  V30 9903 H 1027.5 3.46807 1.75092 0
M  V30 9904 H 1029.17 4.57198 -0.613845 0
M  V30 9905 H 1027.41 4.28964 -0.645965 0
M  V30 9906 H 1028.09 5.50166 0.449579 0
M  V30 9907 H 1030.56 3.88311 1.49512 0
M  V30 9908 H 1029.44 4.94604 2.38029 0
M  V30 9909 H 1029.7 3.30167 2.9401 0
M  V30 9910 N 1028.76 -0.17846 1.56586 0
M  V30 9911 C 1030 -0.90281 1.83381 0
M  V30 9912 C 1030.36 -1.79738 0.675139 0
M  V30 9913 O 1031.56 -2.55879 0.823368 0
M  V30 9914 C 1029.83 -1.68353 3.15265 0
M  V30 9915 S 1031.39 -2.45762 3.6352 0
M  V30 9916 H 1028.21 -0.302508 0.643436 0
M  V30 9917 H 1030.81 -0.164961 1.94803 0
M  V30 9918 H 1029.52 -1.01725 3.97593 0
M  V30 9919 H 1029.05 -2.46289 3.06766 0
M  V30 9920 H 1031.06 -3.70312 3.30278 0
M  V30 9921 N 1030.24 -1.51135 -0.446768 0
M  V30 9922 C 1031.48 -1.63578 -1.19875 0
M  V30 9923 C 1031.81 -0.346478 -1.91084 0
M  V30 9924 O 1031.09 0.653447 -1.83195 0
M  V30 9925 C 1031.37 -2.83275 -2.22323 0
M  V30 9926 C 1031.23 -4.22155 -1.55259 0
M  V30 9927 C 1032.54 -2.98496 -3.23401 0
M  V30 9928 H 1029.66 -0.595333 -0.434452 0
M  V30 9929 H 1032.31 -1.83593 -0.48923 0
M  V30 9930 H 1030.46 -2.6634 -2.82834 0
M  V30 9931 H 1032.13 -4.50736 -0.981571 0
M  V30 9932 H 1030.37 -4.25288 -0.855122 0
M  V30 9933 H 1031.04 -5.01882 -2.29823 0
M  V30 9934 H 1033.52 -3.14079 -2.72935 0
M  V30 9935 H 1032.39 -3.83828 -3.92386 0
M  V30 9936 H 1032.65 -2.10157 -3.88956 0
M  V30 9937 N 1031.71 0.701592 -1.41122 0
M  V30 9938 C 1032.99 1.45569 -1.30648 0
M  V30 9939 C 1033.37 2.10988 0.068744 0
M  V30 9940 O 1032.72 2.01228 1.08257 0
M  V30 9941 C 1032.93 2.48003 -2.45551 0
M  V30 9942 C 1034.28 3.13431 -2.86437 0
M  V30 9943 O 1035.3 2.58327 -2.45247 0
M  V30 9944 O 1034.16 4.13221 -3.57646 0
M  V30 9945 H 1031.25 0.648 -0.513834 0
M  V30 9946 H 1033.8 0.73258 -1.53073 0
M  V30 9947 H 1032.57 1.98276 -3.37346 0
M  V30 9948 H 1032.19 3.27832 -2.24971 0
M  V30 9949 N 1033.19 1.2685 0.935242 0
M  V30 9950 C 1034.42 1.15538 1.71635 0
M  V30 9951 C 1034.83 -0.288698 1.8658 0
M  V30 9952 O 1034.19 -1.19721 1.37743 0
M  V30 9953 C 1034.24 1.8259 3.11999 0
M  V30 9954 O 1033.96 3.21355 2.97763 0
M  V30 9955 C 1035.46 1.77307 4.06297 0
M  V30 9956 H 1032.68 0.402055 0.537208 0
M  V30 9957 H 1035.23 1.67582 1.17203 0
M  V30 9958 H 1033.38 1.3447 3.63313 0
M  V30 9959 H 1033.8 3.54626 3.86446 0
M  V30 9960 H 1035.27 2.28851 5.02326 0
M  V30 9961 H 1035.75 0.740823 4.32907 0
M  V30 9962 H 1036.35 2.25007 3.60904 0
M  V30 9963 N 1034.67 -1.14067 1.0875 0
M  V30 9964 C 1035.62 -2.17302 0.690195 0
M  V30 9965 C 1036.6 -1.58229 -0.291948 0
M  V30 9966 O 1037.8 -1.76698 -0.103411 0
M  V30 9967 C 1034.93 -3.4314 0.104835 0
M  V30 9968 C 1034.01 -4.09235 1.11298 0
M  V30 9969 N 1034.4 -4.50601 2.29765 0
M  V30 9970 C 1032.7 -4.35775 0.949535 0
M  V30 9971 C 1033.4 -5.02029 2.93839 0
M  V30 9972 N 1032.38 -4.96457 2.21431 0
M  V30 9973 H 1036.18 -2.47031 1.59226 0
M  V30 9974 H 1033.69 -1.30788 0.962722 0
M  V30 9975 H 1035.69 -4.16431 -0.197777 0
M  V30 9976 H 1034.35 -3.14888 -0.792172 0
M  V30 9977 H 1035.36 -4.43529 2.67399 0
M  V30 9978 H 1032.04 -4.17364 0.106627 0
M  V30 9979 H 1033.43 -5.43885 3.94511 0
M  V30 9980 N 1036.15 -0.873678 -1.31166 0
M  V30 9981 C 1037.08 -0.276805 -2.26515 0
M  V30 9982 C 1038.06 0.596166 -1.51277 0
M  V30 9983 O 1039.24 0.548769 -1.80335 0
M  V30 9984 C 1036.37 0.607711 -3.33203 0
M  V30 9985 C 1035.42 -0.194411 -4.26057 0
M  V30 9986 S 1036.25 -1.57534 -5.11804 0
M  V30 9987 C 1037.41 -0.697047 -6.22006 0
M  V30 9988 H 1037.64 -1.08505 -2.76792 0
M  V30 9989 H 1035.17 -0.672419 -1.38989 0
M  V30 9990 H 1037.13 1.11234 -3.95142 0
M  V30 9991 H 1035.79 1.38994 -2.81673 0
M  V30 9992 H 1034.98 0.480094 -5.01708 0
M  V30 9993 H 1034.59 -0.631262 -3.68634 0
M  V30 9994 H 1036.88 0.0907919 -6.77439 0
M  V30 9995 H 1037.82 -1.42481 -6.93617 0
M  V30 9996 H 1038.23 -0.262954 -5.63887 0
M  V30 9997 N 1037.63 1.44308 -0.633487 0
M  V30 9998 C 1039.04 1.56768 -0.29931 0
M  V30 9999 C 1039.24 1.62061 1.19743 0
M  V30 10000 O 1038.3 1.56492 1.98158 0
M  V30 10001 C 1039.61 2.8382 -0.993307 0
M  V30 10002 C 1041.16 2.97536 -0.971674 0
M  V30 10003 C 1041.63 4.27393 -1.64618 0
M  V30 10004 N 1043.13 4.34212 -1.61288 0
M  V30 10005 C 1043.86 5.33415 -2.1037 0
M  V30 10006 N 1043.36 6.3901 -2.67653 0
M  V30 10007 N 1045.15 5.24939 -2.00985 0
M  V30 10008 H 1037.3 1.39115 -1.60501 0
M  V30 10009 H 1039.56 0.666804 -0.673852 0
M  V30 10010 H 1039.27 2.85902 -2.04823 0
M  V30 10011 H 1039.14 3.73422 -0.532537 0
M  V30 10012 H 1041.53 2.95005 0.0747854 0
M  V30 10013 H 1041.61 2.09276 -1.47096 0
M  V30 10014 H 1041.26 4.30683 -2.6921 0
M  V30 10015 H 1041.19 5.14515 -1.12171 0
M  V30 10016 H 1043.68 3.58519 -1.19468 0
M  V30 10017 H 1043.99 7.10994 -3.02831 0
M  V30 10018 H 1042.33 6.39689 -2.71705 0
M  V30 10019 H 1045.53 4.41357 -1.55953 0
M  V30 10020 H 1045.7 6.02097 -2.39547 0
M  V30 10021 N 1039.1 0.374177 1.53094 0
M  V30 10022 C 1040.33 -0.215903 2.06273 0
M  V30 10023 C 1040.75 -1.40979 1.24526 0
M  V30 10024 O 1040.11 -1.79331 0.266462 0
M  V30 10025 C 1040.16 -0.579089 3.5592 0
M  V30 10026 O 1039.26 -1.67516 3.76845 0
M  V30 10027 H 1038.61 -0.0293981 0.663349 0
M  V30 10028 H 1041.14 0.537271 1.9742 0
M  V30 10029 H 1041.15 -0.847678 3.99097 0
M  V30 10030 H 1039.82 0.293843 4.14861 0
M  V30 10031 H 1038.4 -1.40146 3.45563 0
M  V30 10032 N 1040.58 -1.57259 0.103575 0
M  V30 10033 C 1041.81 -1.99 -0.566275 0
M  V30 10034 C 1042.23 -0.982909 -1.61197 0
M  V30 10035 O 1041.58 0.026345 -1.82481 0
M  V30 10036 C 1041.63 -3.40778 -1.20635 0
M  V30 10037 O 1041.35 -4.37632 -0.202472 0
M  V30 10038 C 1042.86 -3.97567 -1.961 0
M  V30 10039 H 1040.08 -0.653751 -0.151164 0
M  V30 10040 H 1042.62 -2.03658 0.185365 0
M  V30 10041 H 1040.77 -3.37107 -1.90886 0
M  V30 10042 H 1041.19 -5.2026 -0.665535 0
M  V30 10043 H 1042.66 -4.98897 -2.36233 0
M  V30 10044 H 1043.14 -3.35853 -2.83018 0
M  V30 10045 H 1043.75 -4.04737 -1.30645 0
M  V30 10046 N 1042.06 0.170153 -1.56679 0
M  V30 10047 C 1043.3 0.893073 -1.83857 0
M  V30 10048 C 1043.66 1.79378 -0.684661 0
M  V30 10049 O 1044.87 2.55439 -0.836926 0
M  V30 10050 C 1043.14 1.66679 -3.16153 0
M  V30 10051 S 1044.7 2.43831 -3.64818 0
M  V30 10052 H 1041.51 0.299091 -0.645031 0
M  V30 10053 H 1044.12 0.154628 -1.94888 0
M  V30 10054 H 1042.82 0.996152 -3.98127 0
M  V30 10055 H 1042.35 2.44658 -3.08068 0
M  V30 10056 H 1044.37 3.68555 -3.32237 0
M  V30 10057 N 1043.54 1.5137 0.438746 0
M  V30 10058 C 1044.77 1.6753 1.20901 0
M  V30 10059 C 1045.18 0.371573 1.85515 0
M  V30 10060 O 1044.52 -0.659701 1.71446 0
M  V30 10061 C 1044.58 2.73305 2.33548 0
M  V30 10062 C 1044.25 4.15944 1.89313 0
M  V30 10063 C 1045.24 5.00769 1.39736 0
M  V30 10064 C 1042.93 4.62036 1.97047 0
M  V30 10065 C 1044.92 6.29747 0.984773 0
M  V30 10066 C 1042.61 5.91011 1.554 0
M  V30 10067 C 1043.61 6.74693 1.06197 0
M  V30 10068 O 1043.29 8.01256 0.651407 0
M  V30 10069 H 1043.03 0.565404 0.370532 0
M  V30 10070 H 1045.58 1.98543 0.526296 0
M  V30 10071 H 1043.81 2.37604 3.05092 0
M  V30 10072 H 1045.5 2.78359 2.95417 0
M  V30 10073 H 1046.27 4.66363 1.33156 0
M  V30 10074 H 1042.14 3.97025 2.34291 0
M  V30 10075 H 1045.69 6.95015 0.600029 0
M  V30 10076 H 1041.59 6.24932 1.6165 0
M  V30 10077 H 1042.35 8.148 0.777382 0
M  V30 10078 N 1045.02 -0.694098 1.41492 0
M  V30 10079 C 1046.26 -1.45127 1.4065 0
M  V30 10080 C 1046.59 -1.94993 0.0170289 0
M  V30 10081 O 1045.86 -1.71799 -0.941372 0
M  V30 10082 H 1044.44 -0.538493 0.51772 0
M  V30 10083 H 1047.1 -0.821441 1.76744 0
M  V30 10084 H 1046.19 -2.31372 2.0946 0
M  V30 10085 N 1046.49 -1.27344 -0.928501 0
M  V30 10086 C 1047.74 -1.13411 -1.67279 0
M  V30 10087 C 1048.06 0.320698 -1.92345 0
M  V30 10088 O 1047.33 1.2245 -1.52915 0
M  V30 10089 H 1045.91 -0.416712 -0.619968 0
M  V30 10090 H 1048.58 -1.5986 -1.11493 0
M  V30 10091 H 1047.67 -1.66256 -2.64131 0
M  V30 10092 N 1047.97 1.13488 -1.09353 0
M  V30 10093 C 1049.22 1.841 -0.82401 0
M  V30 10094 C 1049.53 1.84393 0.652586 0
M  V30 10095 O 1050.74 2.5089 1.03762 0
M  V30 10096 C 1049.2 3.30523 -1.42418 0
M  V30 10097 C 1048.8 3.38621 -2.93326 0
M  V30 10098 C 1050.55 4.06182 -1.23356 0
M  V30 10099 C 1048.46 4.79311 -3.46432 0
M  V30 10100 H 1047.39 0.68974 -0.304589 0
M  V30 10101 H 1050.04 1.27866 -1.31615 0
M  V30 10102 H 1048.42 3.86555 -0.859727 0
M  V30 10103 H 1049.59 2.92587 -3.5599 0
M  V30 10104 H 1047.91 2.76426 -3.11412 0
M  V30 10105 H 1050.5 5.10047 -1.60488 0
M  V30 10106 H 1050.85 4.15936 -0.174152 0
M  V30 10107 H 1051.38 3.56477 -1.76547 0
M  V30 10108 H 1048.12 4.74748 -4.5199 0
M  V30 10109 H 1047.64 5.25842 -2.8853 0
M  V30 10110 H 1049.32 5.48227 -3.43593 0
M  V30 10111 N 1049.45 0.880621 1.30701 0
M  V30 10112 C 1050.4 0.342397 2.28246 0
M  V30 10113 C 1051.37 -0.565023 1.56194 0
M  V30 10114 O 1052.55 -0.494377 1.84284 0
M  V30 10115 C 1049.69 -0.440859 3.42272 0
M  V30 10116 C 1048.81 0.495284 4.29151 0
M  V30 10117 C 1047.94 -0.303141 5.30334 0
M  V30 10118 C 1046.98 0.628751 6.08862 0
M  V30 10119 N 1046.12 -0.13408 7.01972 0
M  V30 10120 H 1050.96 1.17938 2.73669 0
M  V30 10121 H 1048.49 0.59296 1.34619 0
M  V30 10122 H 1050.45 -0.910854 4.07135 0
M  V30 10123 H 1049.08 -1.24245 2.97931 0
M  V30 10124 H 1048.13 1.08376 3.64635 0
M  V30 10125 H 1049.45 1.2094 4.83916 0
M  V30 10126 H 1048.6 -0.835181 6.00924 0
M  V30 10127 H 1047.34 -1.05049 4.76252 0
M  V30 10128 H 1046.34 1.17246 5.37153 0
M  V30 10129 H 1047.57 1.37512 6.65032 0
M  V30 10130 H 1045.52 -0.864046 6.50285 0
M  V30 10131 H 1045.43 0.520486 7.54206 0
M  V30 10132 H 1046.7 -0.647005 7.7681 0
M  V30 10133 N 1050.93 -1.4397 0.641131 0
M  V30 10134 C 1051.88 -2.30728 -0.0577905 0
M  V30 10135 C 1052.85 -1.44059 -0.826819 0
M  V30 10136 O 1054.03 -1.72947 -0.805853 0
M  V30 10137 C 1051.17 -3.29478 -1.02657 0
M  V30 10138 C 1050.28 -4.31247 -0.254913 0
M  V30 10139 C 1049.42 -5.17085 -1.2164 0
M  V30 10140 C 1048.46 -6.10556 -0.434481 0
M  V30 10141 N 1047.6 -6.89059 -1.34694 0
M  V30 10142 H 1052.44 -2.8995 0.687953 0
M  V30 10143 H 1049.97 -1.4285 0.351029 0
M  V30 10144 H 1051.93 -3.85228 -1.60173 0
M  V30 10145 H 1050.56 -2.71932 -1.73933 0
M  V30 10146 H 1049.61 -3.77889 0.436338 0
M  V30 10147 H 1050.92 -4.97545 0.353642 0
M  V30 10148 H 1050.08 -5.77402 -1.86258 0
M  V30 10149 H 1048.82 -4.50885 -1.85888 0
M  V30 10150 H 1047.82 -5.49339 0.225125 0
M  V30 10151 H 1049.05 -6.78795 0.203415 0
M  V30 10152 H 1046.99 -6.25518 -1.97644 0
M  V30 10153 H 1046.91 -7.51833 -0.792657 0
M  V30 10154 H 1048.18 -7.5389 -1.98165 0
M  V30 10155 N 1052.41 -0.382291 -1.52893 0
M  V30 10156 C 1053.66 0.201734 -2.01091 0
M  V30 10157 C 1053.98 1.47905 -1.2708 0
M  V30 10158 O 1053.25 1.92002 -0.38883 0
M  V30 10159 H 1051.83 0.0775373 -0.742965 0
M  V30 10160 H 1054.49 -0.512369 -1.88045 0
M  V30 10161 H 1053.58 0.416919 -3.09303 0
M  V30 10162 N 1053.89 1.57202 -0.111913 0
M  V30 10163 C 1055.13 1.95239 0.548607 0
M  V30 10164 C 1055.46 0.994897 1.6678 0
M  V30 10165 O 1054.74 0.0308603 1.94476 0
M  V30 10166 C 1055.02 3.43271 1.08798 0
M  V30 10167 C 1054.88 4.49792 -0.0273064 0
M  V30 10168 C 1056.19 3.92989 1.98109 0
M  V30 10169 H 1053.31 0.709919 0.197951 0
M  V30 10170 H 1055.96 1.89087 -0.186036 0
M  V30 10171 H 1054.11 3.48644 1.71404 0
M  V30 10172 H 1055.78 4.56521 -0.662302 0
M  V30 10173 H 1054.02 4.28254 -0.691426 0
M  V30 10174 H 1054.69 5.50612 0.391201 0
M  V30 10175 H 1057.17 3.89875 1.45385 0
M  V30 10176 H 1056.04 4.97101 2.32769 0
M  V30 10177 H 1056.3 3.33267 2.90492 0
M  V30 10178 N 1055.36 -0.161842 1.56767 0
M  V30 10179 C 1056.6 -0.88331 1.84329 0
M  V30 10180 C 1056.97 -1.79012 0.694165 0
M  V30 10181 O 1058.17 -2.54991 0.850461 0
M  V30 10182 C 1056.44 -1.65 3.17033 0
M  V30 10183 S 1058 -2.41893 3.66106 0
M  V30 10184 H 1054.82 -0.295667 0.646608 0
M  V30 10185 H 1057.42 -0.14429 1.94967 0
M  V30 10186 H 1056.12 -0.975025 3.9865 0
M  V30 10187 H 1055.65 -2.43021 3.09361 0
M  V30 10188 H 1057.67 -3.66788 3.34187 0
M  V30 10189 N 1056.84 -1.516 -0.430713 0
M  V30 10190 C 1058.09 -1.6484 -1.18134 0
M  V30 10191 C 1058.42 -0.366725 -1.90706 0
M  V30 10192 O 1057.7 0.63398 -1.83878 0
M  V30 10193 C 1057.98 -2.85617 -2.19306 0
M  V30 10194 C 1057.83 -4.23778 -1.50773 0
M  V30 10195 C 1059.15 -3.01909 -3.20217 0
M  V30 10196 H 1056.27 -0.599907 -0.428113 0
M  V30 10197 H 1058.91 -1.84102 -0.46973 0
M  V30 10198 H 1057.06 -2.69325 -2.79993 0
M  V30 10199 H 1058.73 -4.51752 -0.93371 0
M  V30 10200 H 1056.98 -4.26171 -0.809966 0
M  V30 10201 H 1057.65 -5.04291 -2.24487 0
M  V30 10202 H 1060.12 -3.16956 -2.69589 0
M  V30 10203 H 1059 -3.87968 -3.88293 0
M  V30 10204 H 1059.26 -2.1427 -3.86705 0
M  V30 10205 N 1058.32 0.686584 -1.41858 0
M  V30 10206 C 1059.74 0.998283 -1.24525 0
M  V30 10207 C 1059.94 2.01006 -0.141007 0
M  V30 10208 O 1058.99 2.47667 0.491648 0
M  V30 10209 C 1060.3 1.51432 -2.59786 0
M  V30 10210 C 1061.85 1.6327 -2.67043 0
M  V30 10211 C 1062.33 2.18274 -4.02642 0
M  V30 10212 N 1063.82 2.25622 -4.04535 0
M  V30 10213 C 1064.55 2.69229 -5.06264 0
M  V30 10214 N 1064.05 3.12375 -6.1838 0
M  V30 10215 N 1065.84 2.68873 -4.93623 0
M  V30 10216 H 1057.99 0.0164825 -2.12394 0
M  V30 10217 H 1060.26 0.0698613 -0.945422 0
M  V30 10218 H 1059.96 0.845426 -3.41388 0
M  V30 10219 H 1059.84 2.49502 -2.82894 0
M  V30 10220 H 1062.22 2.29269 -1.85794 0
M  V30 10221 H 1062.3 0.637221 -2.47736 0
M  V30 10222 H 1061.95 1.52887 -4.84343 0
M  V30 10223 H 1061.88 3.18591 -4.19294 0
M  V30 10224 H 1064.37 1.95186 -3.23591 0
M  V30 10225 H 1064.68 3.44301 -6.91864 0
M  V30 10226 H 1063.03 3.10262 -6.21902 0
M  V30 10227 H 1066.22 2.34521 -4.05114 0
M  V30 10228 H 1066.39 3.02539 -5.7304 0
M  V30 10229 N 1059.8 1.27835 0.921735 0
M  V30 10230 C 1061.21 1.13151 1.48505 0
M  V30 10231 C 1061.56 -0.281373 1.94172 0
M  V30 10232 O 1060.68 -1.17487 1.8173 0
M  V30 10233 C 1061.28 2.04792 2.69899 0
M  V30 10234 C 1059.84 1.94196 3.22436 0
M  V30 10235 C 1058.99 1.96999 1.95158 0
M  V30 10236 H 1061.94 1.40641 0.735241 0
M  V30 10237 H 1061.96 1.60724 3.44889 0
M  V30 10238 H 1061.47 3.07615 2.36631 0
M  V30 10239 H 1059.57 0.943805 3.60448 0
M  V30 10240 H 1059.68 2.80744 3.88226 0
M  V30 10241 H 1058.05 1.41301 2.11911 0
M  V30 10242 H 1058.83 3.01487 1.64196 0
M  V30 10243 N 1061.28 -1.12907 1.09954 0
M  V30 10244 C 1062.52 -1.84306 0.838912 0
M  V30 10245 C 1062.85 -1.83825 -0.635508 0
M  V30 10246 O 1062.11 -1.27556 -1.48418 0
M  V30 10247 C 1062.4 -3.31885 1.32616 0
M  V30 10248 C 1062.07 -3.52542 2.81114 0
M  V30 10249 C 1060.73 -3.57888 3.21667 0
M  V30 10250 C 1063.08 -3.60065 3.76833 0
M  V30 10251 C 1060.41 -3.68296 4.567 0
M  V30 10252 C 1062.76 -3.72001 5.11662 0
M  V30 10253 C 1061.43 -3.75602 5.51797 0
M  V30 10254 H 1060.7 -0.674422 0.30698 0
M  V30 10255 H 1063.35 -1.33261 1.37527 0
M  V30 10256 H 1061.65 -3.85318 0.709719 0
M  V30 10257 H 1063.35 -3.85588 1.10105 0
M  V30 10258 H 1059.94 -3.4904 2.48735 0
M  V30 10259 H 1064.12 -3.55209 3.46612 0
M  V30 10260 H 1059.38 -3.69352 4.87226 0
M  V30 10261 H 1063.55 -3.76765 5.8568 0
M  V30 10262 H 1061.18 -3.83419 6.56425 0
M  V30 10263 N 1062.75 -0.88754 -1.30232 0
M  V30 10264 C 1064.16 -0.55745 -1.78184 0
M  V30 10265 C 1064.52 0.926474 -1.72948 0
M  V30 10266 O 1063.64 1.72403 -1.3079 0
M  V30 10267 C 1064.24 -1.00512 -3.23547 0
M  V30 10268 C 1062.79 -0.726402 -3.69324 0
M  V30 10269 C 1061.94 -1.18666 -2.50627 0
M  V30 10270 H 1064.89 -1.07151 -1.17066 0
M  V30 10271 H 1064.91 -0.335185 -3.79021 0
M  V30 10272 H 1064.43 -2.08517 -3.27326 0
M  V30 10273 H 1062.53 0.341548 -3.71031 0
M  V30 10274 H 1062.64 -1.31575 -4.60679 0
M  V30 10275 H 1061 -0.605936 -2.47387 0
M  V30 10276 H 1061.79 -2.2745 -2.57141 0
M  V30 10277 N 1064.23 1.43628 -0.648757 0
M  V30 10278 C 1065.48 2.01465 -0.16002 0
M  V30 10279 C 1065.8 1.51413 1.22878 0
M  V30 10280 O 1065.07 0.724919 1.81994 0
M  V30 10281 H 1063.65 0.744885 -0.0561672 0
M  V30 10282 H 1066.31 1.75897 -0.839422 0
M  V30 10283 H 1065.41 3.1178 -0.141213 0
M  V30 10284 N 1065.71 0.390394 1.52688 0
M  V30 10285 C 1066.67 -0.432149 2.25089 0
M  V30 10286 C 1067.67 -0.989296 1.26766 0
M  V30 10287 O 1068.86 -0.871126 1.50854 0
M  V30 10288 C 1066 -1.60642 3.00678 0
M  V30 10289 H 1067.19 0.201734 2.99221 0
M  V30 10290 H 1064.74 0.142531 1.55649 0
M  V30 10291 H 1065.48 -2.2777 2.3085 0
M  V30 10292 H 1065.26 -1.21361 3.72846 0
M  V30 10293 H 1066.75 -2.18873 3.55647 0
M  V30 10294 N 1067.19 -1.57141 0.120249 0
M  V30 10295 C 1068.43 -1.95527 -0.538245 0
M  V30 10296 C 1068.77 -1.00373 -1.6625 0
M  V30 10297 O 1068.04 -0.0411734 -1.94456 0
M  V30 10298 C 1068.33 -3.43843 -1.06976 0
M  V30 10299 C 1068.18 -4.49771 0.0511596 0
M  V30 10300 C 1069.5 -3.94035 -1.96022 0
M  V30 10301 H 1066.62 -0.710958 -0.194183 0
M  V30 10302 H 1069.26 -1.88986 0.196061 0
M  V30 10303 H 1067.41 -3.49548 -1.69553 0
M  V30 10304 H 1069.08 -4.56163 0.686503 0
M  V30 10305 H 1067.32 -4.27882 0.714127 0
M  V30 10306 H 1067.99 -5.50812 -0.361995 0
M  V30 10307 H 1070.47 -3.9064 -1.43315 0
M  V30 10308 H 1069.35 -4.98329 -2.3013 0
M  V30 10309 H 1069.61 -3.34803 -2.8872 0
M  V30 10310 N 1068.67 0.153526 -1.5685 0
M  V30 10311 C 1069.89 0.882335 -1.87143 0
M  V30 10312 C 1070.31 1.75034 -0.707702 0
M  V30 10313 O 1069.67 1.79624 0.32273 0
M  V30 10314 C 1069.72 1.74444 -3.16625 0
M  V30 10315 O 1069.44 0.911419 -4.28515 0
M  V30 10316 C 1070.94 2.58139 -3.60388 0
M  V30 10317 H 1068.16 0.25546 -0.620469 0
M  V30 10318 H 1070.7 0.148275 -2.03962 0
M  V30 10319 H 1068.86 2.43163 -3.0158 0
M  V30 10320 H 1069.27 1.50268 -5.02513 0
M  V30 10321 H 1070.75 3.14215 -4.53842 0
M  V30 10322 H 1071.22 3.33865 -2.85361 0
M  V30 10323 H 1071.83 1.94721 -3.78105 0
M  V30 10324 N 1070.14 1.51827 0.422667 0
M  V30 10325 C 1071.09 1.74198 1.51406 0
M  V30 10326 C 1072.06 0.584013 1.55494 0
M  V30 10327 O 1073.25 0.820079 1.72277 0
M  V30 10328 C 1070.39 1.88627 2.88988 0
M  V30 10329 C 1069.5 3.16233 2.94314 0
M  V30 10330 C 1068.63 3.21172 4.2311 0
M  V30 10331 C 1067.67 4.43033 4.2236 0
M  V30 10332 N 1066.81 4.4544 5.42704 0
M  V30 10333 H 1071.65 2.67352 1.31632 0
M  V30 10334 H 1069.19 1.32487 0.63919 0
M  V30 10335 H 1071.15 1.94976 3.68837 0
M  V30 10336 H 1069.78 0.988673 3.07287 0
M  V30 10337 H 1068.83 3.19123 2.07039 0
M  V30 10338 H 1070.14 4.06104 2.89623 0
M  V30 10339 H 1069.29 3.26517 5.11343 0
M  V30 10340 H 1068.03 2.29216 4.30478 0
M  V30 10341 H 1067.04 4.37849 3.32518 0
M  V30 10342 H 1068.26 5.3627 4.16643 0
M  V30 10343 H 1066.21 3.56361 5.50766 0
M  V30 10344 H 1066.13 5.29138 5.39953 0
M  V30 10345 H 1067.39 4.54997 6.32928 0
M  V30 10346 N 1071.62 -0.679052 1.4222 0
M  V30 10347 C 1072.85 -1.47248 1.46058 0
M  V30 10348 C 1073.27 -1.87962 0.0720987 0
M  V30 10349 O 1072.63 -1.5572 -0.928488 0
M  V30 10350 C 1072.68 -2.70067 2.38948 0
M  V30 10351 O 1071.78 -3.68178 1.85791 0
M  V30 10352 H 1071.12 -0.442533 0.495036 0
M  V30 10353 H 1073.65 -0.833263 1.86863 0
M  V30 10354 H 1073.66 -3.18187 2.55385 0
M  V30 10355 H 1072.34 -2.39773 3.39826 0
M  V30 10356 H 1070.92 -3.2719 1.78889 0
M  V30 10357 N 1073.1 -1.28322 -0.914942 0
M  V30 10358 C 1074.01 -1.13993 -2.05043 0
M  V30 10359 C 1075.03 -0.0667921 -1.73872 0
M  V30 10360 O 1076.2 -0.275845 -1.99502 0
M  V30 10361 C 1073.27 -0.801856 -3.373 0
M  V30 10362 C 1072.33 -1.95723 -3.82088 0
M  V30 10363 C 1071.56 -1.63519 -5.08033 0
M  V30 10364 O 1071.78 -0.54899 -5.67752 0
M  V30 10365 O 1070.72 -2.47844 -5.48504 0
M  V30 10366 H 1074.54 -2.09313 -2.2005 0
M  V30 10367 H 1072.13 -1.0763 -1.03616 0
M  V30 10368 H 1074.01 -0.627214 -4.16706 0
M  V30 10369 H 1072.69 0.121696 -3.23471 0
M  V30 10370 H 1071.59 -2.18702 -3.03514 0
M  V30 10371 H 1072.93 -2.86144 -4.00478 0
M  V30 10372 N 1074.58 1.12322 -1.10551 0
M  V30 10373 C 1075.82 1.85497 -0.858492 0
M  V30 10374 C 1076.18 1.8222 0.604966 0
M  V30 10375 O 1077.38 2.5075 0.968382 0
M  V30 10376 C 1075.65 3.29124 -1.39327 0
M  V30 10377 S 1077.21 4.19659 -1.28186 0
M  V30 10378 H 1074.03 0.639768 -0.31019 0
M  V30 10379 H 1076.63 1.35298 -1.41119 0
M  V30 10380 H 1075.34 3.29069 -2.45238 0
M  V30 10381 H 1074.87 3.84388 -0.837203 0
M  V30 10382 H 1076.88 4.95618 -0.240325 0
M  V30 10383 N 1076.06 0.894434 1.2976 0
M  V30 10384 C 1077.3 0.524501 1.97556 0
M  V30 10385 C 1077.66 -0.911202 1.69 0
M  V30 10386 O 1078.86 -1.38774 2.30207 0
M  V30 10387 C 1077.13 0.802636 3.48271 0
M  V30 10388 S 1078.69 0.536223 4.35511 0
M  V30 10389 H 1075.51 0.194786 0.683798 0
M  V30 10390 H 1078.11 1.15574 1.5768 0
M  V30 10391 H 1076.82 1.84586 3.66546 0
M  V30 10392 H 1076.35 0.159316 3.93077 0
M  V30 10393 H 1078.36 -0.621056 4.92298 0
M  V30 10394 N 1077.53 -1.43282 0.656365 0
M  V30 10395 C 1078.77 -2.03652 0.174681 0
M  V30 10396 C 1079.14 -1.5068 -1.18994 0
M  V30 10397 O 1080.34 -2.02716 -1.76521 0
M  V30 10398 C 1078.61 -3.56906 0.18778 0
M  V30 10399 S 1080.17 -4.3822 -0.225599 0
M  V30 10400 H 1076.99 -0.70719 0.0735029 0
M  V30 10401 H 1079.59 -1.75303 0.865403 0
M  V30 10402 H 1078.29 -3.92961 1.18363 0
M  V30 10403 H 1077.82 -3.89903 -0.523378 0
M  V30 10404 H 1079.84 -4.74121 -1.46369 0
M  V30 10405 N 1079.01 -0.398486 -1.52479 0
M  V30 10406 C 1079.98 0.420206 -2.25315 0
M  V30 10407 C 1080.98 0.982559 -1.27289 0
M  V30 10408 O 1082.17 0.863113 -1.51314 0
M  V30 10409 C 1079.3 1.59045 -3.01525 0
M  V30 10410 H 1080.49 -0.217599 -2.9911 0
M  V30 10411 H 1078.04 -0.150784 -1.55571 0
M  V30 10412 H 1078.78 2.26542 -2.32054 0
M  V30 10413 H 1078.56 1.19382 -3.73484 0
M  V30 10414 H 1080.05 2.16984 -3.56802 0
M  V30 10415 N 1080.49 1.57075 -0.12858 0
M  V30 10416 C 1081.44 2.17084 0.835308 0
M  V30 10417 C 1082.43 1.12268 1.26855 0
M  V30 10418 O 1083.64 1.30554 1.23917 0
M  V30 10419 H 1080.01 0.694866 0.287516 0
M  V30 10420 H 1081.99 2.96839 0.304798 0
M  V30 10421 C 1080.73 2.79237 2.07177 0
M  V30 10422 H 1080.06 3.59594 1.74735 0
M  V30 10423 H 1081.5 3.24751 2.72604 0
M  V30 10424 C 1079.96 1.76803 2.86779 0
M  V30 10425 O 1080.49 1.22723 3.82494 0
M  V30 10426 N 1078.69 1.46525 2.50956 0
M  V30 10427 H 1078.24 1.90694 1.73187 0
M  V30 10428 H 1078.2 0.782326 3.04511 0
M  V30 10429 N 1081.97 -0.145205 1.5693 0
M  V30 10430 C 1083.38 -0.705089 1.72874 0
M  V30 10431 C 1083.73 -1.81577 0.743261 0
M  V30 10432 O 1082.86 -2.16214 -0.0897153 0
M  V30 10433 C 1083.45 -1.28578 3.13454 0
M  V30 10434 C 1082.01 -1.79221 3.30994 0
M  V30 10435 C 1081.16 -0.681392 2.68798 0
M  V30 10436 H 1084.11 0.0804798 1.58496 0
M  V30 10437 H 1084.13 -2.15558 3.13552 0
M  V30 10438 H 1083.64 -0.477186 3.85155 0
M  V30 10439 H 1081.74 -2.62642 2.64292 0
M  V30 10440 H 1081.86 -1.91969 4.38959 0
M  V30 10441 H 1080.22 -1.10847 2.29314 0
M  V30 10442 H 1081 0.115786 3.43105 0
M  V30 10443 N 1083.45 -1.52049 -0.414609 0
M  V30 10444 C 1084.72 -1.56397 -1.17471 0
M  V30 10445 C 1085.1 -0.34171 -2.08316 0
M  V30 10446 O 1084.45 0.6718 -2.18401 0
M  V30 10447 C 1084.66 -2.88983 -1.95678 0
M  V30 10448 C 1086.01 -3.41781 -2.51935 0
M  V30 10449 O 1087.03 -2.90686 -2.05865 0
M  V30 10450 O 1085.89 -4.30989 -3.36022 0
M  V30 10451 H 1082.99 -0.62974 -0.536056 0
M  V30 10452 H 1085.53 -1.64374 -0.421834 0
M  V30 10453 H 1084.31 -3.69392 -1.29094 0
M  V30 10454 H 1083.93 -2.84274 -2.77983 0
M  V30 10455 N 1084.93 0.6715 -1.42579 0
M  V30 10456 C 1086.16 1.4576 -1.46416 0
M  V30 10457 C 1086.56 1.89051 -0.0749843 0
M  V30 10458 O 1085.91 1.58927 0.921296 0
M  V30 10459 C 1085.97 2.7365 -2.33144 0
M  V30 10460 C 1085.63 2.52414 -3.80968 0
M  V30 10461 C 1086.63 2.16804 -4.72538 0
M  V30 10462 C 1084.31 2.67306 -4.25268 0
M  V30 10463 C 1086.31 1.96358 -6.06401 0
M  V30 10464 C 1084 2.46475 -5.5919 0
M  V30 10465 C 1084.99 2.11055 -6.49573 0
M  V30 10466 O 1084.68 1.90428 -7.8102 0
M  V30 10467 H 1084.41 0.454896 -0.500045 0
M  V30 10468 H 1086.97 0.832198 -1.87786 0
M  V30 10469 H 1085.2 3.38684 -1.86629 0
M  V30 10470 H 1086.89 3.35543 -2.28398 0
M  V30 10471 H 1087.65 2.04891 -4.39596 0
M  V30 10472 H 1083.53 2.93854 -3.55206 0
M  V30 10473 H 1087.08 1.68634 -6.76911 0
M  V30 10474 H 1082.97 2.57985 -5.91704 0
M  V30 10475 H 1083.74 2.05 -7.92412 0
M  V30 10476 N 1086.4 1.28806 0.908124 0
M  V30 10477 C 1087.65 1.16058 1.65454 0
M  V30 10478 C 1087.97 -0.290057 1.92831 0
M  V30 10479 O 1087.24 -1.20001 1.54843 0
M  V30 10480 H 1085.82 0.426522 0.61326 0
M  V30 10481 H 1088.48 1.61614 1.08936 0
M  V30 10482 H 1087.58 1.70437 2.61453 0
M  V30 10483 N 1087.88 -1.11734 1.11145 0
M  V30 10484 C 1089.13 -1.83405 0.858413 0
M  V30 10485 C 1089.46 -1.84488 -0.615975 0
M  V30 10486 O 1088.71 -1.29123 -1.47057 0
M  V30 10487 C 1089.01 -3.3046 1.36129 0
M  V30 10488 C 1088.68 -3.4954 2.84837 0
M  V30 10489 C 1087.34 -3.54456 3.25445 0
M  V30 10490 C 1089.69 -3.56048 3.8063 0
M  V30 10491 C 1087.02 -3.63431 4.60581 0
M  V30 10492 C 1089.37 -3.66554 5.15579 0
M  V30 10493 C 1088.03 -3.69728 5.55749 0
M  V30 10494 H 1087.3 -0.671128 0.314115 0
M  V30 10495 H 1089.95 -1.31795 1.38933 0
M  V30 10496 H 1088.26 -3.84544 0.750547 0
M  V30 10497 H 1089.95 -3.84398 1.14188 0
M  V30 10498 H 1086.54 -3.46382 2.52423 0
M  V30 10499 H 1090.73 -3.51513 3.5036 0
M  V30 10500 H 1085.98 -3.64164 4.91116 0
M  V30 10501 H 1090.16 -3.70532 5.89643 0
M  V30 10502 H 1087.78 -3.76435 6.60455 0
M  V30 10503 N 1089.36 -0.901303 -1.29284 0
M  V30 10504 C 1090.61 -0.527 -1.95108 0
M  V30 10505 C 1090.93 0.930065 -1.71391 0
M  V30 10506 O 1090.2 1.65601 -1.04658 0
M  V30 10507 H 1088.78 -0.191903 -0.721929 0
M  V30 10508 H 1091.44 -1.14795 -1.57506 0
M  V30 10509 H 1090.54 -0.710945 -3.03895 0
M  V30 10510 N 1090.84 1.42931 -0.663954 0
M  V30 10511 C 1091.75 2.3459 0.0214234 0
M  V30 10512 C 1092.76 1.54487 0.800611 0
M  V30 10513 O 1093.94 1.87098 0.74541 0
M  V30 10514 C 1091 3.32896 0.968556 0
M  V30 10515 C 1090.07 4.28901 0.185108 0
M  V30 10516 C 1089.3 5.2251 1.08713 0
M  V30 10517 O 1089.52 5.20795 2.32655 0
M  V30 10518 O 1088.46 5.99347 0.553758 0
M  V30 10519 H 1092.28 2.94714 -0.733308 0
M  V30 10520 H 1089.87 1.43252 -0.424159 0
M  V30 10521 H 1091.75 3.93318 1.51257 0
M  V30 10522 H 1090.42 2.75261 1.70333 0
M  V30 10523 H 1089.33 3.71926 -0.402752 0
M  V30 10524 H 1090.66 4.89547 -0.510319 0
M  V30 10525 N 1092.32 0.406567 1.52266 0
M  V30 10526 C 1093.73 -0.063607 1.86592 0
M  V30 10527 C 1094.08 -1.4466 1.32544 0
M  V30 10528 O 1093.2 -2.05971 0.663692 0
M  V30 10529 C 1093.8 -0.122198 3.3858 0
M  V30 10530 C 1092.36 -0.536701 3.72554 0
M  V30 10531 C 1091.5 0.290422 2.75775 0
M  V30 10532 H 1094.45 0.623738 1.45929 0
M  V30 10533 H 1094.48 -0.937964 3.68758 0
M  V30 10534 H 1093.99 0.884495 3.77887 0
M  V30 10535 H 1092.09 -1.55013 3.38824 0
M  V30 10536 H 1092.2 -0.282867 4.78264 0
M  V30 10537 H 1090.57 -0.246864 2.53501 0
M  V30 10538 H 1091.35 1.29541 3.17921 0
M  V30 10539 N 1093.79 -1.57004 0.136909 0
M  V30 10540 C 1095.03 -1.97686 -0.519583 0
M  V30 10541 C 1095.4 -1.01951 -1.62696 0
M  V30 10542 O 1096.6 -1.31639 -2.3436 0
M  V30 10543 C 1094.87 -3.42474 -1.02206 0
M  V30 10544 S 1096.43 -4.05176 -1.68457 0
M  V30 10545 H 1093.25 -0.690787 -0.168329 0
M  V30 10546 H 1095.85 -1.94187 0.226234 0
M  V30 10547 H 1094.55 -4.09887 -0.205194 0
M  V30 10548 H 1094.08 -3.49664 -1.80273 0
M  V30 10549 H 1096.1 -3.97401 -2.97131 0
M  V30 10550 N 1095.27 0.136881 -1.57004 0
M  V30 10551 C 1096.2 1.19402 -1.95642 0
M  V30 10552 C 1097.22 1.38635 -0.853478 0
M  V30 10553 O 1098.41 1.38027 -1.13185 0
M  V30 10554 C 1095.51 2.55716 -2.22402 0
M  V30 10555 C 1094.68 2.57325 -3.53698 0
M  V30 10556 C 1093.74 3.75253 -3.68879 0
M  V30 10557 O 1092.76 3.5966 -4.41173 0
M  V30 10558 N 1093.97 4.93112 -3.06302 0
M  V30 10559 H 1096.73 0.865504 -2.8693 0
M  V30 10560 H 1094.29 0.326346 -1.58577 0
M  V30 10561 H 1096.28 3.33135 -2.29789 0
M  V30 10562 H 1094.85 2.80819 -1.37329 0
M  V30 10563 H 1094.07 1.65749 -3.5766 0
M  V30 10564 H 1095.36 2.55441 -4.40031 0
M  V30 10565 H 1094.76 5.08684 -2.47502 0
M  V30 10566 H 1093.32 5.68271 -3.19236 0
M  V30 10567 N 1096.75 1.52266 0.40654 0
M  V30 10568 C 1098.16 1.58587 0.985241 0
M  V30 10569 C 1098.51 0.427955 1.91476 0
M  V30 10570 O 1097.64 -0.451341 2.11641 0
M  V30 10571 C 1098.23 2.87426 1.79365 0
M  V30 10572 C 1096.79 2.96217 2.32233 0
M  V30 10573 C 1095.94 2.53548 1.12288 0
M  V30 10574 H 1098.89 1.57598 0.186685 0
M  V30 10575 H 1098.91 2.72925 2.65127 0
M  V30 10576 H 1098.42 3.71682 1.11687 0
M  V30 10577 H 1096.52 2.1646 3.03275 0
M  V30 10578 H 1096.64 4.00511 2.62922 0
M  V30 10579 H 1095 2.07457 1.47763 0
M  V30 10580 H 1095.78 3.40181 0.461731 0
M  V30 10581 N 1098.23 -0.663929 1.42933 0
M  V30 10582 C 1099.47 -1.43583 1.45476 0
M  V30 10583 C 1099.83 -1.91862 0.0728387 0
M  V30 10584 O 1101.03 -2.68786 -0.0270249 0
M  V30 10585 C 1099.3 -2.59316 2.45947 0
M  V30 10586 S 1100.86 -3.48004 2.6728 0
M  V30 10587 H 1097.68 -0.490261 0.514942 0
M  V30 10588 H 1100.28 -0.771834 1.79619 0
M  V30 10589 H 1098.99 -2.22104 3.45106 0
M  V30 10590 H 1098.52 -3.30577 2.13266 0
M  V30 10591 H 1100.53 -4.55677 1.96399 0
M  V30 10592 N 1099.71 -1.29285 -0.901281 0
M  V30 10593 C 1101.12 -1.15499 -1.46686 0
M  V30 10594 C 1101.47 0.250446 -1.94595 0
M  V30 10595 O 1100.59 1.14581 -1.83576 0
M  V30 10596 C 1101.19 -2.0906 -2.66607 0
M  V30 10597 C 1099.75 -1.99301 -3.19306 0
M  V30 10598 C 1098.89 -2.00079 -1.91999 0
M  V30 10599 H 1101.85 -1.41793 -0.712773 0
M  V30 10600 H 1101.87 -1.6619 -3.42288 0
M  V30 10601 H 1101.38 -3.11341 -2.31707 0
M  V30 10602 H 1099.48 -1.00103 -3.58901 0
M  V30 10603 H 1099.59 -2.86885 -3.8371 0
M  V30 10604 H 1097.96 -1.44655 -2.09636 0
M  V30 10605 H 1098.74 -3.04061 -1.59379 0
M  V30 10606 N 1101.18 1.11143 -1.11736 0
M  V30 10607 C 1102.15 2.15456 -0.78174 0
M  V30 10608 C 1103.15 1.59547 0.200383 0
M  V30 10609 O 1104.34 1.74183 -0.0244893 0
M  V30 10610 C 1101.47 3.40523 -0.160364 0
M  V30 10611 H 1102.66 2.46658 -1.70586 0
M  V30 10612 H 1100.22 1.26381 -0.919644 0
M  V30 10613 H 1100.95 3.14932 0.773835 0
M  V30 10614 H 1100.74 3.82386 -0.867378 0
M  V30 10615 H 1102.23 4.17559 0.0582175 0
M  V30 10616 N 1102.66 0.908147 1.28804 0
M  V30 10617 C 1103.61 0.390734 2.27468 0
M  V30 10618 C 1104.58 -0.531765 1.57358 0
M  V30 10619 O 1105.76 -0.455177 1.85291 0
M  V30 10620 C 1102.9 -0.368159 3.43131 0
M  V30 10621 C 1102.02 0.586202 4.28004 0
M  V30 10622 C 1101.15 -0.190581 5.30858 0
M  V30 10623 C 1100.19 0.757758 6.07391 0
M  V30 10624 N 1099.33 0.0148488 7.02098 0
M  V30 10625 H 1104.17 1.23717 2.71105 0
M  V30 10626 H 1101.71 0.621382 1.33331 0
M  V30 10627 H 1103.66 -0.824289 4.08976 0
M  V30 10628 H 1102.29 -1.17898 3.00499 0
M  V30 10629 H 1101.35 1.16086 3.62254 0
M  V30 10630 H 1102.66 1.31177 4.81242 0
M  V30 10631 H 1101.81 -0.707528 6.0256 0
M  V30 10632 H 1100.55 -0.949234 4.78373 0
M  V30 10633 H 1099.56 1.28613 5.34545 0
M  V30 10634 H 1100.78 1.51588 6.61965 0
M  V30 10635 H 1098.73 -0.725916 6.51971 0
M  V30 10636 H 1098.64 0.680347 7.52932 0
M  V30 10637 H 1099.91 -0.482086 7.78008 0
M  V30 10638 N 1104.14 -1.42577 0.671525 0
M  V30 10639 C 1105.09 -2.32591 -0.0205354 0
M  V30 10640 C 1106.08 -1.4964 -0.793993 0
M  V30 10641 O 1107.29 -1.65733 -0.702327 0
M  V30 10642 H 1103.66 -0.75157 -0.0254344 0
M  V30 10643 H 1105.63 -2.88662 0.756082 0
M  V30 10644 C 1104.38 -3.34175 -0.960316 0
M  V30 10645 H 1103.71 -3.98041 -0.374577 0
M  V30 10646 H 1105.15 -3.99752 -1.4133 0
M  V30 10647 C 1103.61 -2.66184 -2.06513 0
M  V30 10648 O 1104.14 -2.49125 -3.15119 0
M  V30 10649 N 1102.34 -2.25261 -1.83591 0
M  V30 10650 H 1101.89 -2.39336 -0.952689 0
M  V30 10651 H 1101.85 -1.80101 -2.57703 0
M  V30 10652 N 1105.62 -0.414636 -1.52048 0
M  V30 10653 C 1106.84 0.161137 -2.06773 0
M  V30 10654 C 1107.27 1.37628 -1.2822 0
M  V30 10655 O 1106.63 1.78562 -0.313915 0
M  V30 10656 C 1106.67 0.48452 -3.5733 0
M  V30 10657 O 1105.78 1.57466 -3.81154 0
M  V30 10658 H 1105.12 0.0118003 -0.663895 0
M  V30 10659 H 1107.65 -0.589424 -1.95926 0
M  V30 10660 H 1107.66 0.741567 -4.01204 0
M  V30 10661 H 1106.33 -0.403733 -4.13936 0
M  V30 10662 H 1104.91 1.30935 -3.49157 0
M  V30 10663 N 1107.1 1.56929 -0.145233 0
M  V30 10664 C 1108.06 2.15483 0.781002 0
M  V30 10665 C 1109.06 1.09617 1.17647 0
M  V30 10666 O 1110.25 1.35265 1.09768 0
M  V30 10667 C 1107.38 2.7165 2.05959 0
M  V30 10668 H 1108.57 2.98667 0.271685 0
M  V30 10669 H 1106.13 1.55952 0.1042 0
M  V30 10670 H 1106.86 1.92127 2.61262 0
M  V30 10671 H 1106.65 3.491 1.78526 0
M  V30 10672 H 1108.14 3.16769 2.72116 0
M  V30 10673 N 1108.58 -0.128553 1.57075 0
M  V30 10674 C 1109.49 -1.17718 2.02927 0
M  V30 10675 C 1110.5 -1.45912 0.947932 0
M  V30 10676 O 1111.68 -1.57217 1.25876 0
M  V30 10677 C 1108.74 -2.48625 2.41633 0
M  V30 10678 C 1107.8 -2.27914 3.63804 0
M  V30 10679 C 1107.04 -3.52579 4.00654 0
M  V30 10680 O 1107.26 -4.59505 3.37952 0
M  V30 10681 O 1106.19 -3.44147 4.93808 0
M  V30 10682 H 1110.02 -0.817846 2.92481 0
M  V30 10683 H 1107.6 -0.338649 1.45511 0
M  V30 10684 H 1109.49 -3.2577 2.67305 0
M  V30 10685 H 1108.16 -2.84052 1.55229 0
M  V30 10686 H 1107.07 -1.4866 3.43294 0
M  V30 10687 H 1108.4 -1.97395 4.50883 0
M  V30 10688 N 1110.05 -1.5248 -0.398459 0
M  V30 10689 C 1111.3 -1.67061 -1.14441 0
M  V30 10690 C 1111.63 -0.405821 -1.90219 0
M  V30 10691 O 1110.88 0.611532 -1.859 0
M  V30 10692 C 1111.18 -2.85038 -2.15611 0
M  V30 10693 C 1110.85 -4.22847 -1.56561 0
M  V30 10694 C 1109.51 -4.60329 -1.40182 0
M  V30 10695 C 1111.86 -5.08683 -1.1354 0
M  V30 10696 C 1109.19 -5.81314 -0.793149 0
M  V30 10697 C 1111.54 -6.30284 -0.540866 0
M  V30 10698 C 1110.21 -6.66505 -0.364297 0
M  V30 10699 H 1109.48 -0.611321 -0.418769 0
M  V30 10700 H 1112.12 -1.86604 -0.430241 0
M  V30 10701 H 1110.43 -2.59873 -2.93212 0
M  V30 10702 H 1112.13 -2.93516 -2.73221 0
M  V30 10703 H 1108.72 -3.93316 -1.70295 0
M  V30 10704 H 1112.9 -4.80301 -1.24999 0
M  V30 10705 H 1108.16 -6.07994 -0.64446 0
M  V30 10706 H 1112.33 -6.96115 -0.199167 0
M  V30 10707 H 1109.96 -7.60121 0.109439 0
M  V30 10708 N 1111.53 0.65634 -1.43283 0
M  V30 10709 C 1112.48 1.76243 -1.44646 0
M  V30 10710 C 1113.47 1.5778 -0.31532 0
M  V30 10711 O 1114.66 1.67945 -0.558881 0
M  V30 10712 C 1111.79 3.14813 -1.36921 0
M  V30 10713 C 1110.87 3.38835 -2.55053 0
M  V30 10714 N 1111.26 3.33345 -3.80414 0
M  V30 10715 C 1109.56 3.69542 -2.4971 0
M  V30 10716 C 1110.26 3.57361 -4.58986 0
M  V30 10717 N 1109.24 3.79022 -3.8967 0
M  V30 10718 H 1113.04 1.70419 -2.39447 0
M  V30 10719 H 1110.55 0.85789 -1.37891 0
M  V30 10720 H 1112.55 3.941 -1.3598 0
M  V30 10721 H 1111.21 3.21822 -0.431381 0
M  V30 10722 H 1112.22 3.12827 -4.12747 0
M  V30 10723 H 1108.9 3.83684 -1.64598 0
M  V30 10724 H 1110.29 3.58921 -5.68001 0
M  V30 10725 N 1113.01 1.29761 0.894412 0
M  V30 10726 C 1114.26 1.17806 1.64214 0
M  V30 10727 C 1114.58 -0.269588 1.93127 0
M  V30 10728 O 1113.85 -1.18352 1.56107 0
M  V30 10729 H 1112.43 0.433002 0.608702 0
M  V30 10730 H 1115.09 1.6276 1.07216 0
M  V30 10731 H 1114.19 1.73201 2.5963 0
M  V30 10732 N 1114.49 -1.10549 1.12324 0
M  V30 10733 C 1115.42 -2.18911 0.812416 0
M  V30 10734 C 1116.4 -1.68628 -0.22327 0
M  V30 10735 O 1117.58 -1.94015 -0.0847184 0
M  V30 10736 C 1114.71 -3.46288 0.264947 0
M  V30 10737 C 1113.67 -4.09838 1.23356 0
M  V30 10738 C 1112.99 -5.31901 0.546374 0
M  V30 10739 C 1114.29 -4.53686 2.58778 0
M  V30 10740 H 1115.99 -2.45169 1.71851 0
M  V30 10741 H 1113.53 -1.17834 0.827715 0
M  V30 10742 H 1115.49 -4.21385 0.0352364 0
M  V30 10743 H 1114.21 -3.19517 -0.676479 0
M  V30 10744 H 1112.87 -3.36746 1.44906 0
M  V30 10745 H 1112.52 -5.01406 -0.400157 0
M  V30 10746 H 1112.22 -5.75372 1.19249 0
M  V30 10747 H 1113.74 -6.09731 0.325673 0
M  V30 10748 H 1115.16 -5.20063 2.41263 0
M  V30 10749 H 1113.55 -5.08003 3.19457 0
M  V30 10750 H 1114.62 -3.66665 3.17309 0
M  V30 10751 N 1115.97 -0.914965 -1.28321 0
M  V30 10752 C 1117.21 -0.555865 -1.96696 0
M  V30 10753 C 1117.57 0.8842 -1.70429 0
M  V30 10754 O 1118.77 1.35094 -2.32386 0
M  V30 10755 C 1117.04 -0.857942 -3.4695 0
M  V30 10756 S 1118.6 -0.605441 -4.34603 0
M  V30 10757 H 1115.42 -0.20564 -0.680612 0
M  V30 10758 H 1118.02 -1.18068 -1.55821 0
M  V30 10759 H 1116.72 -1.90394 -3.63563 0
M  V30 10760 H 1116.26 -0.221831 -3.92774 0
M  V30 10761 H 1118.27 0.542657 -4.93224 0
M  V30 10762 N 1117.44 1.42219 -0.679077 0
M  V30 10763 C 1118.67 2.06333 -0.210097 0
M  V30 10764 C 1119.09 1.50703 1.12562 0
M  V30 10765 O 1118.45 0.627241 1.70104 0
M  V30 10766 C 1118.5 3.60243 -0.160322 0
M  V30 10767 O 1117.6 4.03122 0.869872 0
M  V30 10768 H 1116.94 0.655362 -0.106754 0
M  V30 10769 H 1119.47 1.82278 -0.929294 0
M  V30 10770 H 1119.48 4.07997 0.014384 0
M  V30 10771 H 1118.16 4.00106 -1.13526 0
M  V30 10772 H 1116.74 3.66907 0.66586 0
M  V30 10773 N 1118.92 0.422693 1.51826 0
M  V30 10774 C 1120.15 -0.15017 2.06856 0
M  V30 10775 C 1120.57 -1.36946 1.28948 0
M  V30 10776 O 1119.93 -1.78393 0.32338 0
M  V30 10777 C 1119.98 -0.465563 3.57582 0
M  V30 10778 O 1119.08 -1.55442 3.81984 0
M  V30 10779 H 1118.42 -0.00827931 0.663948 0
M  V30 10780 H 1120.95 0.599806 1.95611 0
M  V30 10781 H 1120.96 -0.720279 4.01592 0
M  V30 10782 H 1119.64 0.425679 4.13716 0
M  V30 10783 H 1118.21 -1.29081 3.49846 0
M  V30 10784 N 1120.4 -1.5685 0.153553 0
M  V30 10785 C 1121.65 -1.95946 -0.494936 0
M  V30 10786 C 1121.97 -1.03975 -1.64967 0
M  V30 10787 O 1121.24 -0.102572 -1.95631 0
M  V30 10788 H 1119.82 -0.723516 -0.185833 0
M  V30 10789 H 1122.48 -1.93531 0.230585 0
M  V30 10790 H 1121.58 -2.99823 -0.866743 0
M  V30 10791 N 1121.88 0.120221 -1.57141 0
M  V30 10792 C 1123.12 0.829449 -1.85062 0
M  V30 10793 C 1123.46 1.79585 -0.739116 0
M  V30 10794 O 1122.73 1.92819 0.255147 0
M  V30 10795 C 1123.01 1.58042 -3.23566 0
M  V30 10796 C 1122.87 0.633706 -4.45314 0
M  V30 10797 C 1124.19 2.53688 -3.59625 0
M  V30 10798 H 1121.31 0.300086 -0.67314 0
M  V30 10799 H 1123.95 0.0937393 -1.89769 0
M  V30 10800 H 1122.1 2.20758 -3.19684 0
M  V30 10801 H 1123.77 0.0154836 -4.61297 0
M  V30 10802 H 1122.01 -0.054846 -4.33765 0
M  V30 10803 H 1122.68 1.19577 -5.38893 0
M  V30 10804 H 1125.16 2.01078 -3.6429 0
M  V30 10805 H 1124.04 3.03265 -4.57516 0
M  V30 10806 H 1124.3 3.36296 -2.8698 0
M  V30 10807 N 1123.36 1.52689 0.390367 0
M  V30 10808 C 1124.6 1.67335 1.13329 0
M  V30 10809 C 1124.93 0.415068 1.90531 0
M  V30 10810 O 1124.2 -0.570504 1.87409 0
M  V30 10811 H 1122.78 0.616821 0.421356 0
M  V30 10812 H 1125.44 1.89799 0.443 0
M  V30 10813 H 1124.53 2.52314 1.83696 0
M  V30 10814 N 1124.83 -0.648732 1.43629 0
M  V30 10815 C 1126.08 -1.40446 1.44768 0
M  V30 10816 C 1126.4 -1.95447 0.0773445 0
M  V30 10817 O 1127.6 -2.71479 -0.0337942 0
M  V30 10818 C 1126.06 -2.54194 2.54781 0
M  V30 10819 C 1125.67 -2.05781 3.97942 0
M  V30 10820 C 1127.41 -3.31529 2.65121 0
M  V30 10821 C 1125.32 -3.16767 4.99412 0
M  V30 10822 H 1124.25 -0.527717 0.538545 0
M  V30 10823 H 1126.9 -0.699756 1.69634 0
M  V30 10824 H 1125.28 -3.27156 2.23125 0
M  V30 10825 H 1126.45 -1.398 4.39081 0
M  V30 10826 H 1124.77 -1.41312 3.91688 0
M  V30 10827 H 1127.37 -4.14233 3.38105 0
M  V30 10828 H 1127.71 -3.79855 1.70341 0
M  V30 10829 H 1128.24 -2.65649 2.961 0
M  V30 10830 H 1124.98 -2.73404 5.9576 0
M  V30 10831 H 1124.5 -3.81445 4.62882 0
M  V30 10832 H 1126.18 -3.81827 5.22319 0
M  V30 10833 N 1126.31 -1.30234 -0.887518 0
M  V30 10834 C 1127.54 -1.21829 -1.67229 0
M  V30 10835 C 1127.96 0.219251 -1.87523 0
M  V30 10836 O 1127.31 1.14526 -1.42091 0
M  V30 10837 C 1127.36 -1.94044 -3.05007 0
M  V30 10838 O 1127.08 -3.32185 -2.85631 0
M  V30 10839 C 1128.59 -1.92265 -3.99436 0
M  V30 10840 H 1125.81 -0.421716 -0.521916 0
M  V30 10841 H 1128.35 -1.71816 -1.10903 0
M  V30 10842 H 1126.5 -1.47861 -3.58072 0
M  V30 10843 H 1126.92 -3.68724 -3.73018 0
M  V30 10844 H 1128.39 -2.47336 -4.93486 0
M  V30 10845 H 1128.87 -0.900984 -4.29859 0
M  V30 10846 H 1129.48 -2.38247 -3.52305 0
M  V30 10847 N 1127.79 1.09952 -1.12909 0
M  V30 10848 C 1129.04 1.82286 -0.888797 0
M  V30 10849 C 1129.37 1.85218 0.58379 0
M  V30 10850 O 1128.64 1.31645 1.43177 0
M  V30 10851 C 1128.93 3.28706 -1.47053 0
M  V30 10852 C 1128.78 3.34078 -3.01184 0
M  V30 10853 C 1130.1 4.25233 -1.13424 0
M  V30 10854 H 1127.22 0.661803 -0.324324 0
M  V30 10855 H 1129.86 1.28833 -1.3965 0
M  V30 10856 H 1128.01 3.74356 -1.03874 0
M  V30 10857 H 1129.68 2.96871 -3.5308 0
M  V30 10858 H 1127.93 2.73825 -3.36455 0
M  V30 10859 H 1128.6 4.37202 -3.36984 0
M  V30 10860 H 1131.07 3.87841 -1.50726 0
M  V30 10861 H 1129.95 5.26033 -1.56783 0
M  V30 10862 H 1130.21 4.42075 -0.0471496 0
M  V30 10863 N 1129.27 0.921757 1.27833 0
M  V30 10864 C 1130.55 0.477706 1.89677 0
M  V30 10865 C 1130.93 -1.04392 1.83481 0
M  V30 10866 O 1130.27 -1.89549 1.27606 0
M  V30 10867 C 1130.48 1.01709 3.33851 0
M  V30 10868 C 1131.83 1.074 4.10792 0
M  V30 10869 O 1132.86 0.966295 3.42843 0
M  V30 10870 O 1131.71 1.23909 5.32268 0
M  V30 10871 H 1128.81 0.15271 0.812778 0
M  V30 10872 H 1131.35 1.01306 1.36144 0
M  V30 10873 H 1130.13 2.061 3.32623 0
M  V30 10874 H 1129.75 0.463031 3.94895 0
M  V30 10875 N 1130.75 -1.41857 0.686609 0
M  V30 10876 C 1131.99 -2.0097 0.213378 0
M  V30 10877 C 1132.32 -1.54618 -1.1882 0
M  V30 10878 O 1131.59 -0.772916 -1.80008 0
M  V30 10879 H 1130.17 -0.743134 0.0758968 0
M  V30 10880 H 1132.83 -1.73609 0.885763 0
M  V30 10881 H 1131.92 -3.11296 0.223826 0
M  V30 10882 N 1132.22 -0.430739 -1.51599 0
M  V30 10883 C 1133.64 -0.0826902 -1.59386 0
M  V30 10884 C 1133.84 1.40729 -1.44214 0
M  V30 10885 O 1132.9 2.1765 -1.28002 0
M  V30 10886 C 1134.21 -0.59691 -2.94716 0
M  V30 10887 C 1135.76 -0.556772 -3.08008 0
M  V30 10888 C 1136.23 -1.04786 -4.45852 0
M  V30 10889 N 1137.72 -1.00557 -4.52153 0
M  V30 10890 C 1138.46 -1.35649 -5.57124 0
M  V30 10891 N 1137.95 -1.77994 -6.69545 0
M  V30 10892 N 1139.75 -1.27508 -5.47447 0
M  V30 10893 H 1131.9 -1.40027 -1.59707 0
M  V30 10894 H 1134.16 -0.576606 -0.752482 0
M  V30 10895 H 1133.87 -1.63914 -3.11167 0
M  V30 10896 H 1133.74 -0.0182342 -3.77196 0
M  V30 10897 H 1136.13 0.476457 -2.91228 0
M  V30 10898 H 1136.21 -1.17177 -2.27383 0
M  V30 10899 H 1135.85 -2.07952 -4.63377 0
M  V30 10900 H 1135.78 -0.409461 -5.25006 0
M  V30 10901 H 1138.27 -0.694518 -3.71463 0
M  V30 10902 H 1138.59 -2.03026 -7.45654 0
M  V30 10903 H 1136.93 -1.81916 -6.70769 0
M  V30 10904 H 1140.12 -0.942969 -4.58504 0
M  V30 10905 H 1140.3 -1.55185 -6.29143 0
M  V30 10906 N 1133.7 1.56767 -0.161869 0
M  V30 10907 C 1134.98 1.88245 0.531352 0
M  V30 10908 C 1135.36 1.07025 1.81958 0
M  V30 10909 O 1134.71 0.161385 2.27929 0
M  V30 10910 C 1134.92 3.40117 0.782416 0
M  V30 10911 C 1136.27 4.09655 1.11661 0
M  V30 10912 O 1137.29 3.4538 0.871274 0
M  V30 10913 O 1136.15 5.23192 1.57901 0
M  V30 10914 H 1133.24 0.780725 0.272759 0
M  V30 10915 H 1135.79 1.68522 -0.199597 0
M  V30 10916 H 1134.56 3.91088 -0.128677 0
M  V30 10917 H 1134.18 3.65418 1.56702 0
M  V30 10918 N 1135.18 -0.111886 1.57202 0
M  V30 10919 C 1136.43 -0.817022 1.84412 0
M  V30 10920 C 1136.74 -1.80708 0.748608 0
M  V30 10921 O 1137.95 -2.55891 0.907319 0
M  V30 10922 C 1136.4 -1.50376 3.26979 0
M  V30 10923 C 1136.01 -0.554334 4.44557 0
M  V30 10924 C 1137.76 -2.19361 3.63429 0
M  V30 10925 C 1135.66 -1.24471 5.78153 0
M  V30 10926 H 1134.59 -0.308864 0.687836 0
M  V30 10927 H 1137.24 -0.0698109 1.83367 0
M  V30 10928 H 1135.63 -2.29785 3.22514 0
M  V30 10929 H 1136.8 0.207045 4.60335 0
M  V30 10930 H 1135.12 0.0289261 4.1639 0
M  V30 10931 H 1137.71 -2.71716 4.60515 0
M  V30 10932 H 1138.06 -2.97488 2.91215 0
M  V30 10933 H 1138.59 -1.46833 3.69709 0
M  V30 10934 H 1135.33 -0.504584 6.53555 0
M  V30 10935 H 1134.85 -1.97792 5.66249 0
M  V30 10936 H 1136.53 -1.77591 6.2215 0
M  V30 10937 N 1136.66 -1.52894 -0.382264 0
M  V30 10938 C 1137.61 -1.78799 -1.48774 0
M  V30 10939 C 1138.6 -0.65624 -1.56173 0
M  V30 10940 O 1139.81 -0.838856 -1.59258 0
M  V30 10941 H 1136.18 -0.565855 -0.49529 0
M  V30 10942 H 1138.15 -2.7136 -1.24122 0
M  V30 10943 C 1136.9 -1.97987 -2.85826 0
M  V30 10944 H 1136.22 -2.84505 -2.80886 0
M  V30 10945 H 1137.66 -2.20099 -3.62398 0
M  V30 10946 C 1136.12 -0.75427 -3.28348 0
M  V30 10947 O 1136.65 0.0650749 -4.01647 0
M  V30 10948 N 1134.86 -0.582457 -2.84703 0
M  V30 10949 H 1134.41 -1.25034 -2.2522 0
M  V30 10950 H 1134.36 0.236208 -3.13511 0
M  V30 10951 N 1138.14 0.641106 -1.43971 0
M  V30 10952 C 1139.05 1.78239 -1.52538 0
M  V30 10953 C 1140.06 1.6906 -0.411668 0
M  V30 10954 O 1141.24 1.90014 -0.66757 0
M  V30 10955 C 1138.3 3.14579 -1.45743 0
M  V30 10956 C 1137.37 3.35464 -2.67885 0
M  V30 10957 C 1136.6 4.65299 -2.61404 0
M  V30 10958 O 1136.82 5.45451 -1.66851 0
M  V30 10959 O 1135.76 4.8817 -3.521 0
M  V30 10960 H 1139.58 1.73965 -2.48937 0
M  V30 10961 H 1137.17 0.801098 -1.26106 0
M  V30 10962 H 1139.05 3.95873 -1.4444 0
M  V30 10963 H 1137.72 3.19417 -0.524837 0
M  V30 10964 H 1136.63 2.53888 -2.74758 0
M  V30 10965 H 1137.96 3.35481 -3.60157 0
M  V30 10966 N 1139.62 1.30703 0.880598 0
M  V30 10967 C 1140.86 1.21066 1.64688 0
M  V30 10968 C 1141.22 -0.230015 1.90617 0
M  V30 10969 O 1142.42 -0.449696 2.65012 0
M  V30 10970 C 1140.69 2.02072 2.94791 0
M  V30 10971 S 1142.25 2.09182 3.85731 0
M  V30 10972 H 1139.07 0.431369 0.565192 0
M  V30 10973 H 1141.67 1.65234 1.04489 0
M  V30 10974 H 1140.37 3.05851 2.73648 0
M  V30 10975 H 1139.91 1.58583 3.60021 0
M  V30 10976 H 1141.92 1.22239 4.80908 0
M  V30 10977 N 1141.09 -1.09351 1.1349 0
M  V30 10978 C 1142.06 -2.14185 0.815919 0
M  V30 10979 C 1143.06 -1.59845 -0.174976 0
M  V30 10980 O 1144.25 -1.74122 0.0521971 0
M  V30 10981 C 1141.38 -3.40224 0.214517 0
M  V30 10982 H 1142.57 -2.43913 1.74489 0
M  V30 10983 H 1140.12 -1.24902 0.939634 0
M  V30 10984 H 1140.86 -3.16123 -0.723634 0
M  V30 10985 H 1140.64 -3.80958 0.928102 0
M  V30 10986 H 1142.13 -4.17599 0.00821999 0
M  V30 10987 N 1142.57 -0.928524 -1.27343 0
M  V30 10988 C 1143.5 -0.445627 -2.29208 0
M  V30 10989 C 1144.48 0.494508 -1.62753 0
M  V30 10990 O 1145.67 0.399082 -1.90055 0
M  V30 10991 C 1142.8 0.301684 -3.45987 0
M  V30 10992 C 1141.75 -0.550695 -4.24442 0
M  V30 10993 C 1141.08 0.325833 -5.33706 0
M  V30 10994 C 1142.38 -1.81559 -4.89728 0
M  V30 10995 H 1144.07 -1.29696 -2.69851 0
M  V30 10996 H 1141.62 -0.625085 -1.29725 0
M  V30 10997 H 1143.57 0.650455 -4.1635 0
M  V30 10998 H 1142.29 1.18705 -3.04264 0
M  V30 10999 H 1140.95 -0.882185 -3.55827 0
M  V30 11000 H 1140.6 1.21018 -4.88225 0
M  V30 11001 H 1140.3 -0.240994 -5.87106 0
M  V30 11002 H 1141.83 0.670156 -6.06911 0
M  V30 11003 H 1143.24 -1.53483 -5.52373 0
M  V30 11004 H 1141.64 -2.32598 -5.53189 0
M  V30 11005 H 1142.71 -2.53461 -4.13383 0
M  V30 11006 N 1144.05 1.41491 -0.694123 0
M  V30 11007 C 1145.33 1.95004 -0.152571 0
M  V30 11008 C 1145.71 1.63357 1.33707 0
M  V30 11009 O 1145.05 0.939815 2.08278 0
M  V30 11010 C 1145.26 3.46186 -0.44232 0
M  V30 11011 C 1146.61 4.22991 -0.369279 0
M  V30 11012 O 1147.64 3.54198 -0.377152 0
M  V30 11013 O 1146.5 5.45514 -0.328145 0
M  V30 11014 H 1143.59 0.826879 -0.0141253 0
M  V30 11015 H 1146.14 1.51216 -0.770183 0
M  V30 11016 H 1144.91 3.62497 -1.47348 0
M  V30 11017 H 1144.53 3.97064 0.206337 0
M  V30 11018 N 1145.53 0.438773 1.51369 0
M  V30 11019 C 1146.94 -0.0240139 1.86685 0
M  V30 11020 C 1147.29 -1.41816 1.35583 0
M  V30 11021 O 1146.41 -2.04517 0.707232 0
M  V30 11022 C 1147.01 -0.0503527 3.38763 0
M  V30 11023 C 1145.57 -0.457556 3.73609 0
M  V30 11024 C 1144.72 0.348852 2.75097 0
M  V30 11025 H 1147.67 0.654552 1.44573 0
M  V30 11026 H 1147.69 -0.859534 3.70665 0
M  V30 11027 H 1147.2 0.964451 3.75925 0
M  V30 11028 H 1145.3 -1.47791 3.42036 0
M  V30 11029 H 1145.41 -0.181357 4.78757 0
M  V30 11030 H 1143.78 -0.193037 2.53967 0
M  V30 11031 H 1144.56 1.36256 3.15102 0
M  V30 11032 N 1147.01 -1.56678 0.170181 0
M  V30 11033 C 1148.28 -1.88524 -0.521362 0
M  V30 11034 C 1148.66 -1.07989 -1.81388 0
M  V30 11035 O 1148.01 -0.17347 -2.27841 0
M  V30 11036 C 1148.22 -3.40527 -0.764367 0
M  V30 11037 C 1149.57 -4.10241 -1.09487 0
M  V30 11038 O 1150.59 -3.45837 -0.852945 0
M  V30 11039 O 1149.45 -5.24022 -1.55124 0
M  V30 11040 H 1146.55 -0.782161 -0.268614 0
M  V30 11041 H 1149.09 -1.68414 0.208531 0
M  V30 11042 H 1147.86 -3.91015 0.149416 0
M  V30 11043 H 1147.49 -3.66244 -1.54762 0
M  V30 11044 N 1148.48 0.103547 -1.57259 0
M  V30 11045 C 1149.73 0.807231 -1.84842 0
M  V30 11046 C 1150.05 1.80308 -0.758181 0
M  V30 11047 O 1151.25 2.55406 -0.920877 0
M  V30 11048 C 1149.71 1.4864 -3.27771 0
M  V30 11049 C 1149.32 0.53075 -4.44845 0
M  V30 11050 C 1151.06 2.17431 -3.64587 0
M  V30 11051 C 1148.97 1.21403 -5.78805 0
M  V30 11052 H 1147.9 0.305212 -0.689465 0
M  V30 11053 H 1150.55 0.0600855 -1.83402 0
M  V30 11054 H 1148.93 2.28071 -3.23728 0
M  V30 11055 H 1150.1 -0.231455 -4.60218 0
M  V30 11056 H 1148.42 -0.0510078 -4.16369 0
M  V30 11057 H 1151.02 2.6927 -4.6195 0
M  V30 11058 H 1151.36 2.9594 -2.92789 0
M  V30 11059 H 1151.89 1.4487 -3.70483 0
M  V30 11060 H 1148.63 0.469918 -6.53813 0
M  V30 11061 H 1148.15 1.94787 -5.6729 0
M  V30 11062 H 1149.83 1.74289 -6.23083 0
M  V30 11063 N 1149.96 1.53094 0.37415 0
M  V30 11064 C 1151.2 1.70558 1.12647 0
M  V30 11065 C 1151.57 0.443515 1.86807 0
M  V30 11066 O 1152.77 0.49472 2.64208 0
M  V30 11067 C 1151.04 2.91565 2.06699 0
M  V30 11068 S 1152.6 3.29692 2.89567 0
M  V30 11069 H 1149.41 0.600238 0.381097 0
M  V30 11070 H 1152.02 1.91177 0.408865 0
M  V30 11071 H 1150.72 3.81625 1.50965 0
M  V30 11072 H 1150.25 2.73323 2.82945 0
M  V30 11073 H 1152.27 2.81036 4.08942 0
M  V30 11074 N 1151.44 -0.633461 1.44309 0
M  V30 11075 C 1152.4 -1.72743 1.50641 0
M  V30 11076 C 1153.4 -1.56031 0.388718 0
M  V30 11077 O 1154.59 -1.61568 0.651251 0
M  V30 11078 C 1151.72 -3.11804 1.37809 0
M  V30 11079 H 1152.92 -1.68503 2.48086 0
M  V30 11080 H 1150.47 -0.846912 1.31366 0
M  V30 11081 H 1151.21 -3.2164 0.414483 0
M  V30 11082 H 1150.99 -3.2534 2.18852 0
M  V30 11083 H 1152.48 -3.91538 1.45216 0
M  V30 11084 N 1152.92 -1.31168 -0.873655 0
M  V30 11085 C 1153.87 -1.18432 -2.00191 0
M  V30 11086 C 1154.86 -0.0934873 -1.69142 0
M  V30 11087 O 1156.07 -0.255126 -1.78183 0
M  V30 11088 H 1152.44 -0.366594 -0.656592 0
M  V30 11089 H 1154.41 -2.13896 -2.08065 0
M  V30 11090 C 1153.16 -0.904668 -3.35725 0
M  V30 11091 H 1152.48 -1.73617 -3.60135 0
M  V30 11092 H 1153.92 -0.855715 -4.15275 0
M  V30 11093 C 1152.38 0.392554 -3.34605 0
M  V30 11094 O 1152.91 1.41052 -3.76121 0
M  V30 11095 N 1151.12 0.40777 -2.87725 0
M  V30 11096 H 1150.67 -0.42112 -2.54134 0
M  V30 11097 H 1150.62 1.27564 -2.87358 0
M  V30 11098 N 1154.4 1.08748 -1.14068 0
M  V30 11099 C 1155.64 1.80707 -0.904947 0
M  V30 11100 C 1155.97 1.86478 0.570167 0
M  V30 11101 O 1155.24 1.35536 1.41445 0
M  V30 11102 H 1153.82 0.669261 -0.331811 0
M  V30 11103 H 1156.48 1.31494 -1.43859 0
M  V30 11104 H 1155.57 2.83653 -1.30182 0
M  V30 11105 N 1155.87 0.935264 1.26849 0
M  V30 11106 C 1157.12 0.575467 1.93317 0
M  V30 11107 C 1157.44 -0.88876 1.74242 0
M  V30 11108 O 1158.64 -1.35767 2.35116 0
M  V30 11109 C 1157.1 0.978433 3.46345 0
M  V30 11110 C 1156.71 2.46386 3.74163 0
M  V30 11111 C 1158.45 0.690249 4.18851 0
M  V30 11112 C 1156.36 2.80584 5.20602 0
M  V30 11113 H 1155.29 0.211506 0.723727 0
M  V30 11114 H 1157.94 1.1371 1.44022 0
M  V30 11115 H 1156.32 0.345379 3.94491 0
M  V30 11116 H 1157.49 3.14547 3.36745 0
M  V30 11117 H 1155.81 2.72473 3.14877 0
M  V30 11118 H 1158.41 0.922151 5.26688 0
M  V30 11119 H 1158.75 -0.372805 4.14627 0
M  V30 11120 H 1159.28 1.28275 3.76551 0
M  V30 11121 H 1156.02 3.85828 5.29921 0
M  V30 11122 H 1155.54 2.1708 5.59139 0
M  V30 11123 H 1157.22 2.68732 5.88551 0
M  V30 11124 N 1157.35 -1.41121 0.701616 0
M  V30 11125 C 1158.59 -2.02993 0.239383 0
M  V30 11126 C 1158.96 -1.5439 -1.1414 0
M  V30 11127 O 1160.16 -2.08229 -1.69982 0
M  V30 11128 C 1158.43 -3.56128 0.301232 0
M  V30 11129 S 1159.99 -4.38716 -0.0860681 0
M  V30 11130 H 1156.81 -0.704494 0.0959645 0
M  V30 11131 H 1159.41 -1.72461 0.920736 0
M  V30 11132 H 1158.11 -3.88996 1.30805 0
M  V30 11133 H 1157.64 -3.91371 -0.399069 0
M  V30 11134 H 1159.66 -4.78537 -1.31212 0
M  V30 11135 N 1158.83 -0.446794 -1.51134 0
M  V30 11136 C 1159.74 0.36579 -2.31731 0
M  V30 11137 C 1160.76 1.01886 -1.41051 0
M  V30 11138 O 1161.93 1.01216 -1.74119 0
M  V30 11139 C 1159 1.44705 -3.15058 0
M  V30 11140 C 1158.06 0.813129 -4.21529 0
M  V30 11141 C 1157.29 1.84287 -5.00873 0
M  V30 11142 O 1157.51 3.06633 -4.8097 0
M  V30 11143 O 1156.45 1.42816 -5.84711 0
M  V30 11144 H 1160.27 -0.292436 -3.02289 0
M  V30 11145 H 1157.86 -0.209129 -1.47929 0
M  V30 11146 H 1159.74 2.07393 -3.66833 0
M  V30 11147 H 1158.42 2.08919 -2.47254 0
M  V30 11148 H 1157.32 0.147953 -3.73807 0
M  V30 11149 H 1158.66 0.214331 -4.91733 0
M  V30 11150 N 1160.31 1.56586 -0.178487 0
M  V30 11151 C 1161.26 2.19631 0.765822 0
M  V30 11152 C 1162.25 1.16247 1.23219 0
M  V30 11153 O 1163.46 1.34431 1.19701 0
M  V30 11154 H 1159.83 0.703661 0.265264 0
M  V30 11155 H 1161.8 2.97659 0.210207 0
M  V30 11156 C 1160.55 2.85686 1.98188 0
M  V30 11157 H 1159.87 3.64971 1.63206 0
M  V30 11158 H 1161.31 3.33259 2.62134 0
M  V30 11159 C 1159.77 1.85837 2.81009 0
M  V30 11160 O 1160.3 1.3483 3.78396 0
M  V30 11161 N 1158.51 1.54435 2.46167 0
M  V30 11162 H 1158.06 1.96107 1.67032 0
M  V30 11163 H 1158.01 0.878808 3.01868 0
M  V30 11164 N 1161.79 -0.095206 1.57312 0
M  V30 11165 C 1162.72 -1.11627 2.05089 0
M  V30 11166 C 1163.7 -1.41782 0.939787 0
M  V30 11167 O 1164.88 -1.51813 1.21105 0
M  V30 11168 C 1162.01 -2.43618 2.47523 0
M  V30 11169 C 1160.97 -2.27872 3.62296 0
M  V30 11170 C 1160.29 -3.65038 3.90706 0
M  V30 11171 C 1161.59 -1.71936 4.93189 0
M  V30 11172 H 1163.29 -0.718795 2.90644 0
M  V30 11173 H 1160.83 -0.344315 1.39823 0
M  V30 11174 H 1162.79 -3.1532 2.79556 0
M  V30 11175 H 1161.51 -2.85301 1.58968 0
M  V30 11176 H 1160.17 -1.58615 3.3051 0
M  V30 11177 H 1159.82 -4.04249 2.99319 0
M  V30 11178 H 1159.52 -3.55349 4.67976 0
M  V30 11179 H 1161.04 -4.38208 4.25213 0
M  V30 11180 H 1162.45 -2.33479 5.23603 0
M  V30 11181 H 1160.85 -1.73006 5.74621 0
M  V30 11182 H 1161.92 -0.678789 4.80125 0
M  V30 11183 N 1163.26 -1.53291 -0.366026 0
M  V30 11184 C 1164.68 -1.43053 -0.707669 0
M  V30 11185 C 1164.88 -0.56925 -1.93292 0
M  V30 11186 O 1163.94 -0.0515214 -2.52447 0
M  V30 11187 C 1165.25 -2.86239 -0.921292 0
M  V30 11188 C 1166.8 -2.95868 -1.02133 0
M  V30 11189 C 1167.27 -4.40114 -1.26743 0
M  V30 11190 N 1168.76 -4.43541 -1.33514 0
M  V30 11191 C 1169.5 -5.52259 -1.54264 0
M  V30 11192 N 1168.99 -6.71024 -1.72335 0
M  V30 11193 N 1170.79 -5.39836 -1.5663 0
M  V30 11194 H 1162.94 -2.07795 0.43988 0
M  V30 11195 H 1165.2 -0.938376 0.134736 0
M  V30 11196 H 1164.91 -3.51578 -0.0928042 0
M  V30 11197 H 1164.78 -3.29862 -1.82951 0
M  V30 11198 H 1167.17 -2.30683 -1.84036 0
M  V30 11199 H 1167.25 -2.5564 -0.0905097 0
M  V30 11200 H 1166.89 -5.05872 -0.453409 0
M  V30 11201 H 1166.82 -4.77914 -2.21146 0
M  V30 11202 H 1169.31 -3.57949 -1.21165 0
M  V30 11203 H 1169.63 -7.49649 -1.8774 0
M  V30 11204 H 1167.97 -6.7401 -1.69514 0
M  V30 11205 H 1171.16 -4.46017 -1.4208 0
M  V30 11206 H 1171.34 -6.24629 -1.72461 0
M  V30 11207 N 1164.74 0.6258 -1.44643 0
M  V30 11208 C 1165.99 1.38251 -1.47414 0
M  V30 11209 C 1166.31 1.94689 -0.110043 0
M  V30 11210 O 1165.58 1.76095 0.858333 0
M  V30 11211 H 1164.16 0.513179 -0.542823 0
M  V30 11212 H 1166.82 0.736179 -1.80462 0
M  V30 11213 H 1165.92 2.21115 -2.2026 0
M  V30 11214 N 1166.22 1.31629 0.866686 0
M  V30 11215 C 1167.45 1.24609 1.65793 0
M  V30 11216 C 1167.87 -0.184944 1.87189 0
M  V30 11217 O 1167.23 -1.1322 1.41601 0
M  V30 11218 C 1167.28 1.9988 3.00134 0
M  V30 11219 O 1166.38 1.33838 3.90079 0
M  V30 11220 H 1165.72 0.430051 0.505917 0
M  V30 11221 H 1168.25 1.73752 1.08035 0
M  V30 11222 H 1168.26 2.09599 3.50046 0
M  V30 11223 H 1166.94 3.03947 2.83882 0
M  V30 11224 H 1165.51 1.3259 3.48532 0
M  V30 11225 N 1167.7 -1.08142 1.14644 0
M  V30 11226 C 1168.93 -1.8405 0.938563 0
M  V30 11227 C 1169.34 -1.82017 -0.516361 0
M  V30 11228 O 1168.68 -1.22418 -1.36966 0
M  V30 11229 C 1168.74 -3.32563 1.36536 0
M  V30 11230 C 1168.41 -3.58327 2.83638 0
M  V30 11231 C 1169.4 -3.52944 3.81741 0
M  V30 11232 C 1167.09 -3.86251 3.21115 0
M  V30 11233 C 1169.08 -3.7512 5.15329 0
M  V30 11234 C 1166.77 -4.0808 4.54878 0
M  V30 11235 C 1167.77 -4.02508 5.51794 0
M  V30 11236 O 1167.46 -4.23761 6.83141 0
M  V30 11237 H 1167.19 -0.587793 0.33388 0
M  V30 11238 H 1169.74 -1.37467 1.52617 0
M  V30 11239 H 1167.97 -3.79917 0.721106 0
M  V30 11240 H 1169.66 -3.89915 1.12787 0
M  V30 11241 H 1170.43 -3.31382 3.54134 0
M  V30 11242 H 1166.31 -3.89707 2.46272 0
M  V30 11243 H 1169.85 -3.70686 5.90963 0
M  V30 11244 H 1165.75 -4.29126 4.82204 0
M  V30 11245 H 1166.51 -4.41152 6.8944 0
M  V30 11246 N 1169.18 -0.941978 -1.26351 0
M  V30 11247 C 1170.59 -0.644413 -1.46012 0
M  V30 11248 C 1170.79 0.802031 -1.84851 0
M  V30 11249 O 1169.85 1.57859 -1.9707 0
M  V30 11250 C 1171.16 -1.60652 -2.54188 0
M  V30 11251 C 1172.71 -1.6163 -2.68038 0
M  V30 11252 C 1173.19 -2.56573 -3.79387 0
M  V30 11253 N 1174.68 -2.54863 -3.8678 0
M  V30 11254 C 1175.41 -3.2501 -4.72394 0
M  V30 11255 N 1174.91 -4.04586 -5.6239 0
M  V30 11256 N 1176.7 -3.13958 -4.66247 0
M  V30 11257 H 1168.85 -1.8769 -0.994293 0
M  V30 11258 H 1171.11 -0.806621 -0.498063 0
M  V30 11259 H 1170.82 -2.63907 -2.32478 0
M  V30 11260 H 1170.69 -1.3592 -3.5186 0
M  V30 11261 H 1173.08 -0.59099 -2.89122 0
M  V30 11262 H 1173.16 -1.90417 -1.70807 0
M  V30 11263 H 1172.81 -3.59223 -3.59056 0
M  V30 11264 H 1172.74 -2.25077 -4.76076 0
M  V30 11265 H 1175.23 -1.97082 -3.22439 0
M  V30 11266 H 1175.54 -4.55061 -6.24612 0
M  V30 11267 H 1173.89 -4.08687 -5.62139 0
M  V30 11268 H 1177.08 -2.51273 -3.94943 0
M  V30 11269 H 1177.25 -3.68894 -5.32749 0
M  V30 11270 N 1170.66 1.40747 -0.709091 0
M  V30 11271 C 1171.9 2.02864 -0.250145 0
M  V30 11272 C 1172.26 1.54993 1.13319 0
M  V30 11273 O 1173.46 2.09128 1.68876 0
M  V30 11274 C 1171.73 3.55964 -0.320114 0
M  V30 11275 S 1173.29 4.38755 0.0628008 0
M  V30 11276 H 1170.11 0.703975 -0.0996992 0
M  V30 11277 H 1172.71 1.7197 -0.92987 0
M  V30 11278 H 1171.41 3.88297 -1.32866 0
M  V30 11279 H 1170.95 3.91577 0.378308 0
M  V30 11280 H 1172.96 4.79226 1.28672 0
M  V30 11281 N 1172.13 0.454803 1.50895 0
M  V30 11282 C 1173.08 -0.361974 2.29766 0
M  V30 11283 C 1174.08 -1.00519 1.36353 0
M  V30 11284 O 1175.28 -0.938159 1.53618 0
M  V30 11285 H 1171.66 -0.135559 0.739681 0
M  V30 11286 H 1173.63 0.323853 2.96637 0
M  V30 11287 C 1172.38 -1.44078 3.16444 0
M  V30 11288 H 1171.7 -0.955212 3.88221 0
M  V30 11289 H 1173.14 -1.98518 3.74655 0
M  V30 11290 C 1171.6 -2.43374 2.32961 0
M  V30 11291 O 1172.13 -3.48295 2.00133 0
M  V30 11292 N 1170.33 -2.14689 1.95849 0
M  V30 11293 H 1169.88 -1.29392 2.22745 0
M  V30 11294 H 1169.84 -2.81363 1.40292 0
M  V30 11295 N 1173.61 -1.56489 0.186789 0
M  V30 11296 C 1174.85 -1.99239 -0.456427 0
M  V30 11297 C 1175.22 -1.07076 -1.5937 0
M  V30 11298 O 1176.42 -1.39028 -2.30054 0
M  V30 11299 C 1174.69 -3.45553 -0.912587 0
M  V30 11300 S 1176.25 -4.1033 -1.55481 0
M  V30 11301 H 1173.06 -0.695792 -0.146267 0
M  V30 11302 H 1175.67 -1.93369 0.287899 0
M  V30 11303 H 1174.37 -4.10332 -0.0746877 0
M  V30 11304 H 1173.9 -3.55222 -1.69058 0
M  V30 11305 H 1175.92 -4.06653 -2.84338 0
M  V30 11306 N 1175.09 0.086862 -1.5736 0
M  V30 11307 C 1176.04 1.12359 -2.03662 0
M  V30 11308 C 1177.03 1.40982 -0.939169 0
M  V30 11309 O 1178.24 1.40566 -1.12433 0
M  V30 11310 H 1174.61 0.379605 -0.649156 0
M  V30 11311 H 1176.58 0.706822 -2.89908 0
M  V30 11312 C 1175.33 2.43327 -2.48369 0
M  V30 11313 H 1174.66 2.22148 -3.324 0
M  V30 11314 H 1176.1 3.14351 -2.84534 0
M  V30 11315 C 1174.55 3.08214 -1.36036 0
M  V30 11316 O 1175.08 3.95659 -0.694063 0
M  V30 11317 N 1173.29 2.68596 -1.10927 0
M  V30 11318 H 1172.84 1.97578 -1.6529 0
M  V30 11319 H 1172.8 3.12336 -0.359679 0
M  V30 11320 N 1176.57 1.53483 0.357892 0
M  V30 11321 C 1177.79 1.74264 1.12458 0
M  V30 11322 C 1178.22 0.473944 1.82031 0
M  V30 11323 O 1177.58 -0.57253 1.72023 0
M  V30 11324 C 1177.62 2.91356 2.12471 0
M  V30 11325 O 1176.73 2.60502 3.19707 0
M  V30 11326 H 1176.07 0.578499 0.325937 0
M  V30 11327 H 1178.6 2.00395 0.412666 0
M  V30 11328 H 1178.61 3.1774 2.5594 0
M  V30 11329 H 1177.28 3.83378 1.61226 0
M  V30 11330 H 1175.86 2.44961 2.81156 0
M  V30 11331 N 1178.05 -0.61812 1.44973 0
M  V30 11332 C 1179.29 -1.37468 1.48145 0
M  V30 11333 C 1179.61 -1.94628 0.120366 0
M  V30 11334 O 1178.88 -1.76548 -0.848982 0
M  V30 11335 H 1177.46 -0.510293 0.545536 0
M  V30 11336 H 1180.13 -0.726598 1.8085 0
M  V30 11337 H 1179.22 -2.19944 2.2143 0
M  V30 11338 N 1179.52 -1.32087 -0.859693 0
M  V30 11339 C 1180.75 -1.25167 -1.64368 0
M  V30 11340 C 1181.16 0.183572 -1.88307 0
M  V30 11341 O 1180.5 1.12945 -1.44876 0
M  V30 11342 C 1180.57 -1.93641 -3.02892 0
M  V30 11343 C 1180.23 -3.4298 -3.02017 0
M  V30 11344 C 1181.23 -4.38551 -2.79229 0
M  V30 11345 C 1178.91 -3.84835 -3.22812 0
M  V30 11346 C 1180.91 -5.73952 -2.77232 0
M  V30 11347 C 1178.59 -5.20346 -3.20442 0
M  V30 11348 C 1179.59 -6.14716 -2.97681 0
M  V30 11349 O 1179.28 -7.47748 -2.95175 0
M  V30 11350 H 1179.01 -0.433327 -0.518848 0
M  V30 11351 H 1181.57 -1.7468 -1.08055 0
M  V30 11352 H 1179.8 -1.3869 -3.60974 0
M  V30 11353 H 1181.48 -1.80497 -3.63559 0
M  V30 11354 H 1182.25 -4.07542 -2.62935 0
M  V30 11355 H 1178.13 -3.11806 -3.39555 0
M  V30 11356 H 1181.67 -6.47584 -2.59385 0
M  V30 11357 H 1177.57 -5.50987 -3.36279 0
M  V30 11358 H 1178.34 -7.57046 -3.11165 0
M  V30 11359 N 1181 1.07532 -1.15215 0
M  V30 11360 C 1181.91 2.18222 -0.861192 0
M  V30 11361 C 1182.93 1.73246 0.161798 0
M  V30 11362 O 1184.1 2.01397 -0.0118386 0
M  V30 11363 C 1181.17 3.44902 -0.352601 0
M  V30 11364 C 1180.23 4.04455 -1.43926 0
M  V30 11365 C 1179.46 5.25089 -0.954841 0
M  V30 11366 O 1179.69 5.70048 0.200294 0
M  V30 11367 O 1178.62 5.76269 -1.73774 0
M  V30 11368 H 1182.45 2.45599 -1.78648 0
M  V30 11369 H 1180.03 1.16835 -0.93112 0
M  V30 11370 H 1181.91 4.21333 -0.0753347 0
M  V30 11371 H 1180.59 3.19082 0.544841 0
M  V30 11372 H 1179.49 3.29573 -1.7701 0
M  V30 11373 H 1180.83 4.34544 -2.31155 0
M  V30 11374 N 1182.48 0.948665 1.2585 0
M  V30 11375 C 1183.89 0.641829 1.75321 0
M  V30 11376 C 1184.24 -0.842903 1.77171 0
M  V30 11377 O 1183.37 -1.65967 1.38867 0
M  V30 11378 C 1183.96 1.15835 3.18383 0
M  V30 11379 C 1182.52 0.901784 3.65438 0
M  V30 11380 C 1181.67 1.30489 2.44679 0
M  V30 11381 H 1184.62 1.12614 1.1182 0
M  V30 11382 H 1184.64 0.515639 3.7699 0
M  V30 11383 H 1184.15 2.23897 3.17004 0
M  V30 11384 H 1182.25 -0.164135 3.72238 0
M  V30 11385 H 1182.37 1.53405 4.53876 0
M  V30 11386 H 1180.73 0.723278 2.44215 0
M  V30 11387 H 1181.51 2.3946 2.45996 0
M  V30 11388 N 1183.96 -1.40369 0.716545 0
M  V30 11389 C 1185.24 -1.94737 0.183576 0
M  V30 11390 C 1185.62 -1.65464 -1.31092 0
M  V30 11391 O 1184.96 -0.972832 -2.06756 0
M  V30 11392 C 1185.17 -3.45438 0.497339 0
M  V30 11393 C 1186.52 -4.2235 0.436526 0
M  V30 11394 O 1187.55 -3.53553 0.433454 0
M  V30 11395 O 1186.4 -5.44923 0.41489 0
M  V30 11396 H 1183.5 -0.82655 0.0272785 0
M  V30 11397 H 1186.04 -1.49972 0.794143 0
M  V30 11398 H 1184.82 -3.60107 1.53097 0
M  V30 11399 H 1184.44 -3.97342 -0.143141 0
M  V30 11400 N 1185.44 -0.462799 -1.50652 0
M  V30 11401 C 1186.4 0.324264 -2.26895 0
M  V30 11402 C 1187.4 0.927687 -1.31342 0
M  V30 11403 O 1188.59 0.798159 -1.54839 0
M  V30 11404 C 1185.72 1.46113 -3.08 0
M  V30 11405 H 1186.91 -0.344266 -2.97917 0
M  V30 11406 H 1184.47 -0.216631 -1.54791 0
M  V30 11407 H 1185.2 2.16496 -2.41454 0
M  V30 11408 H 1184.99 1.03433 -3.78212 0
M  V30 11409 H 1186.48 2.01655 -3.65684 0
M  V30 11410 N 1186.91 1.56388 -0.195085 0
M  V30 11411 C 1188.14 2.02406 0.452399 0
M  V30 11412 C 1188.56 1.07432 1.54402 0
M  V30 11413 O 1187.92 0.0578246 1.81208 0
M  V30 11414 C 1187.97 3.46864 0.985778 0
M  V30 11415 O 1187.07 3.55007 2.09867 0
M  V30 11416 H 1186.42 0.65553 0.105719 0
M  V30 11417 H 1188.95 2.02299 -0.30596 0
M  V30 11418 H 1188.96 3.86655 1.30238 0
M  V30 11419 H 1187.63 4.15481 0.186662 0
M  V30 11420 H 1186.21 3.2709 1.79071 0
M  V30 11421 N 1188.39 -0.0785156 1.57404 0
M  V30 11422 C 1189.64 -0.777399 1.8655 0
M  V30 11423 C 1189.96 -1.78451 0.786142 0
M  V30 11424 O 1189.23 -1.95016 -0.185911 0
M  V30 11425 H 1187.81 -0.290097 0.688369 0
M  V30 11426 H 1190.47 -0.0562017 1.94819 0
M  V30 11427 H 1189.57 -1.29776 2.83839 0
M  V30 11428 N 1189.87 -1.5367 -0.349747 0
M  V30 11429 C 1191.29 -1.43796 -0.692457 0
M  V30 11430 C 1191.49 -0.58972 -1.92677 0
M  V30 11431 O 1190.54 -0.078294 -2.52379 0
M  V30 11432 C 1191.86 -2.872 -0.890881 0
M  V30 11433 C 1193.4 -2.96935 -0.989892 0
M  V30 11434 C 1193.88 -4.41433 -1.22068 0
M  V30 11435 N 1195.37 -4.44932 -1.28802 0
M  V30 11436 C 1196.1 -5.53864 -1.48398 0
M  V30 11437 N 1195.6 -6.72814 -1.65208 0
M  V30 11438 N 1197.39 -5.41467 -1.50896 0
M  V30 11439 H 1189.54 -2.07317 0.461895 0
M  V30 11440 H 1191.81 -0.936895 0.144681 0
M  V30 11441 H 1191.51 -3.51656 -0.0555095 0
M  V30 11442 H 1191.39 -3.31784 -1.79442 0
M  V30 11443 H 1193.77 -2.32622 -1.81579 0
M  V30 11444 H 1193.86 -2.55721 -0.0633906 0
M  V30 11445 H 1193.5 -5.06325 -0.399729 0
M  V30 11446 H 1193.43 -4.80233 -2.16064 0
M  V30 11447 H 1195.92 -3.59214 -1.17361 0
M  V30 11448 H 1196.23 -7.51598 -1.79779 0
M  V30 11449 H 1194.58 -6.7577 -1.62356 0
M  V30 11450 H 1197.77 -4.47498 -1.37342 0
M  V30 11451 H 1197.94 -6.26423 -1.65826 0
M  V30 11452 N 1191.35 0.610423 -1.45298 0
M  V30 11453 C 1192.3 1.74245 -1.54083 0
M  V30 11454 C 1193.29 1.64338 -0.411003 0
M  V30 11455 O 1194.5 1.70167 -0.586799 0
M  V30 11456 H 1190.87 0.575612 -0.483916 0
M  V30 11457 H 1192.84 1.63961 -2.49318 0
M  V30 11458 C 1191.59 3.1262 -1.52198 0
M  V30 11459 H 1190.91 3.209 -2.3846 0
M  V30 11460 H 1192.35 3.91665 -1.62403 0
M  V30 11461 C 1190.81 3.36001 -0.24595 0
M  V30 11462 O 1191.34 3.95982 0.675374 0
M  V30 11463 N 1189.55 2.9025 -0.142537 0
M  V30 11464 H 1189.1 2.41621 -0.893143 0
M  V30 11465 H 1189.05 3.06268 0.710427 0
M  V30 11466 N 1192.83 1.32541 0.852676 0
M  V30 11467 C 1194.07 1.24532 1.62083 0
M  V30 11468 C 1194.43 -0.189531 1.91062 0
M  V30 11469 O 1195.63 -0.393382 2.65906 0
M  V30 11470 C 1193.9 2.0828 2.90438 0
M  V30 11471 S 1195.46 2.17317 3.81207 0
M  V30 11472 H 1192.28 0.443261 0.555915 0
M  V30 11473 H 1194.88 1.67413 1.00961 0
M  V30 11474 H 1193.59 3.11587 2.67099 0
M  V30 11475 H 1193.12 1.66184 3.56576 0
M  V30 11476 H 1195.13 1.32412 4.78207 0
M  V30 11477 N 1194.3 -1.0692 1.15784 0
M  V30 11478 C 1195.55 -1.78983 0.929944 0
M  V30 11479 C 1195.87 -1.87884 -0.543969 0
M  V30 11480 O 1197.07 -2.56513 -0.889578 0
M  V30 11481 C 1195.53 -3.21657 1.61446 0
M  V30 11482 C 1195.14 -3.20943 3.12569 0
M  V30 11483 C 1196.88 -3.98299 1.46828 0
M  V30 11484 C 1194.79 -4.58298 3.73788 0
M  V30 11485 H 1193.72 -0.670809 0.344284 0
M  V30 11486 H 1196.37 -1.19975 1.38846 0
M  V30 11487 H 1194.75 -3.80885 1.08364 0
M  V30 11488 H 1195.92 -2.71334 3.72444 0
M  V30 11489 H 1194.24 -2.57799 3.26999 0
M  V30 11490 H 1196.84 -4.99822 1.89952 0
M  V30 11491 H 1197.18 -4.14213 0.416358 0
M  V30 11492 H 1197.71 -3.45577 1.97031 0
M  V30 11493 H 1194.45 -4.47588 4.789 0
M  V30 11494 H 1193.97 -5.08126 3.18698 0
M  V30 11495 H 1195.65 -5.27262 3.74972 0
M  V30 11496 N 1195.78 -0.955326 -1.25345 0
M  V30 11497 C 1197.06 -0.527828 -1.88344 0
M  V30 11498 C 1197.44 0.994911 -1.86185 0
M  V30 11499 O 1196.79 1.86099 -1.32587 0
M  V30 11500 C 1197 -1.10525 -3.31037 0
M  V30 11501 C 1198.35 -1.18253 -4.07801 0
M  V30 11502 O 1199.37 -1.05685 -3.4016 0
M  V30 11503 O 1198.23 -1.37978 -5.28795 0
M  V30 11504 H 1195.32 -0.174206 -0.808444 0
M  V30 11505 H 1197.87 -1.0488 -1.3341 0
M  V30 11506 H 1196.64 -2.14847 -3.27042 0
M  V30 11507 H 1196.26 -0.567568 -3.93528 0
M  V30 11508 N 1197.26 1.39987 -0.723979 0
M  V30 11509 C 1198.51 1.99964 -0.26406 0
M  V30 11510 C 1198.82 1.58084 1.1519 0
M  V30 11511 O 1200.03 2.10819 1.71077 0
M  V30 11512 C 1198.49 3.57427 -0.421174 0
M  V30 11513 C 1198.09 4.08276 -1.84432 0
M  V30 11514 C 1199.84 4.24494 -0.0224734 0
M  V30 11515 C 1197.74 5.58272 -1.95157 0
M  V30 11516 H 1196.67 0.747995 -0.0949728 0
M  V30 11517 H 1199.33 1.60122 -0.896276 0
M  V30 11518 H 1197.71 3.95011 0.279762 0
M  V30 11519 H 1198.88 3.82051 -2.57631 0
M  V30 11520 H 1197.2 3.53834 -2.19523 0
M  V30 11521 H 1199.79 5.34637 -0.0817744 0
M  V30 11522 H 1200.14 4.03593 1.02069 0
M  V30 11523 H 1200.67 3.92046 -0.67416 0
M  V30 11524 H 1197.41 5.84038 -2.97623 0
M  V30 11525 H 1196.93 5.86335 -1.2638 0
M  V30 11526 H 1198.61 6.23509 -1.72759 0
M  V30 11527 N 1198.74 0.470782 1.50404 0
M  V30 11528 C 1200.02 -0.145879 1.95055 0
M  V30 11529 C 1200.4 -1.57004 1.41114 0
M  V30 11530 O 1199.74 -2.20152 0.612006 0
M  V30 11531 C 1199.95 -0.0895071 3.48885 0
M  V30 11532 C 1201.3 -0.278548 4.23685 0
M  V30 11533 O 1202.33 -0.166105 3.55812 0
M  V30 11534 O 1201.19 -0.505606 5.44156 0
M  V30 11535 H 1198.28 -0.111838 0.819403 0
M  V30 11536 H 1200.83 0.531162 1.61173 0
M  V30 11537 H 1199.6 0.904836 3.80695 0
M  V30 11538 H 1199.22 -0.808019 3.89303 0
M  V30 11539 N 1200.22 -1.56282 0.203376 0
M  V30 11540 C 1201.13 -2.23086 -0.725922 0
M  V30 11541 C 1202.14 -1.23258 -1.22814 0
M  V30 11542 O 1203.32 -1.5602 -1.27357 0
M  V30 11543 C 1200.38 -2.88358 -1.92485 0
M  V30 11544 C 1199.45 -4.03479 -1.46639 0
M  V30 11545 C 1198.68 -4.65629 -2.60816 0
M  V30 11546 O 1198.9 -4.2672 -3.78506 0
M  V30 11547 O 1197.84 -5.54949 -2.33056 0
M  V30 11548 H 1201.66 -3.03124 -0.18694 0
M  V30 11549 H 1199.25 -1.49377 -0.0262829 0
M  V30 11550 H 1201.13 -3.29623 -2.62539 0
M  V30 11551 H 1199.8 -2.11294 -2.45228 0
M  V30 11552 H 1198.71 -3.66821 -0.734396 0
M  V30 11553 H 1200.04 -4.82232 -0.985535 0
M  V30 11554 N 1201.7 0.070167 -1.57444 0
M  V30 11555 C 1202.94 0.774338 -1.89165 0
M  V30 11556 C 1203.3 1.7466 -0.797353 0
M  V30 11557 O 1204.5 2.49599 -0.997682 0
M  V30 11558 C 1202.77 1.46235 -3.26114 0
M  V30 11559 S 1204.33 2.20136 -3.79586 0
M  V30 11560 H 1201.15 0.257464 -0.662747 0
M  V30 11561 H 1203.75 0.0303734 -1.95476 0
M  V30 11562 H 1202.45 0.740942 -4.03656 0
M  V30 11563 H 1201.99 2.24571 -3.23004 0
M  V30 11564 H 1204 3.4668 -3.55003 0
M  V30 11565 N 1203.17 1.53854 0.341593 0
M  V30 11566 C 1204.1 1.84966 1.42513 0
M  V30 11567 C 1205.08 0.704944 1.54805 0
M  V30 11568 O 1206.27 0.957036 1.68981 0
M  V30 11569 C 1203.4 2.06099 2.79536 0
M  V30 11570 C 1202.35 3.21919 2.82049 0
M  V30 11571 C 1201.68 3.28389 4.21977 0
M  V30 11572 C 1202.98 4.59984 2.4741 0
M  V30 11573 H 1204.67 2.7571 1.16724 0
M  V30 11574 H 1202.22 1.32662 0.560073 0
M  V30 11575 H 1204.17 2.26448 3.55386 0
M  V30 11576 H 1202.9 1.12087 3.06764 0
M  V30 11577 H 1201.56 3.01429 2.08653 0
M  V30 11578 H 1201.2 2.3197 4.46317 0
M  V30 11579 H 1200.9 4.0622 4.24569 0
M  V30 11580 H 1202.43 3.50951 4.99666 0
M  V30 11581 H 1203.84 4.80334 3.12973 0
M  V30 11582 H 1202.24 5.40233 2.61282 0
M  V30 11583 H 1203.31 4.6346 1.42594 0
M  V30 11584 N 1204.65 -0.602709 1.4562 0
M  V30 11585 C 1205.9 -1.36359 1.50113 0
M  V30 11586 C 1206.23 -1.93663 0.144297 0
M  V30 11587 O 1205.51 -1.75337 -0.841851 0
M  V30 11588 C 1205.79 -2.50788 2.58413 0
M  V30 11589 C 1205.64 -1.98649 4.03557 0
M  V30 11590 C 1206.96 -3.52905 2.62957 0
M  V30 11591 H 1204.08 -0.494455 0.54652 0
M  V30 11592 H 1206.72 -0.678957 1.77455 0
M  V30 11593 H 1204.87 -3.09191 2.3523 0
M  V30 11594 H 1206.54 -1.44857 4.37966 0
M  V30 11595 H 1204.79 -1.29615 4.13984 0
M  V30 11596 H 1205.46 -2.81159 4.7503 0
M  V30 11597 H 1207.93 -3.0435 2.83743 0
M  V30 11598 H 1206.81 -4.30454 3.40589 0
M  V30 11599 H 1207.07 -4.0884 1.68233 0
M  V30 11600 N 1206.13 -1.32992 -0.845635 0
M  V30 11601 C 1207.08 -1.22652 -1.97634 0
M  V30 11602 C 1208.07 -0.129344 -1.68905 0
M  V30 11603 O 1209.28 -0.292863 -1.77602 0
M  V30 11604 H 1205.65 -0.380439 -0.648668 0
M  V30 11605 H 1207.62 -2.18261 -2.03481 0
M  V30 11606 C 1206.37 -0.975677 -3.3373 0
M  V30 11607 H 1205.7 -1.81217 -3.56371 0
M  V30 11608 H 1207.14 -0.943608 -4.13367 0
M  V30 11609 C 1205.59 0.321491 -3.35363 0
M  V30 11610 O 1206.12 1.33042 -3.79029 0
M  V30 11611 N 1204.33 0.346648 -2.88525 0
M  V30 11612 H 1203.88 -0.474931 -2.53184 0
M  V30 11613 H 1203.84 1.2144 -2.9 0
M  V30 11614 N 1207.61 1.06304 -1.1635 0
M  V30 11615 C 1209.02 1.31227 -0.90838 0
M  V30 11616 C 1209.22 1.96665 0.438779 0
M  V30 11617 O 1208.28 2.2332 1.17833 0
M  V30 11618 C 1209.59 2.19303 -2.05734 0
M  V30 11619 C 1211.14 2.3272 -2.09309 0
M  V30 11620 C 1211.62 3.24151 -3.23559 0
M  V30 11621 N 1213.11 3.31734 -3.23275 0
M  V30 11622 C 1213.84 4.02572 -4.08318 0
M  V30 11623 N 1213.34 4.75933 -5.03448 0
M  V30 11624 N 1215.13 3.98621 -3.96305 0
M  V30 11625 H 1207.28 0.622228 -2.03081 0
M  V30 11626 H 1209.54 0.336892 -0.886119 0
M  V30 11627 H 1209.25 1.78497 -3.03037 0
M  V30 11628 H 1209.12 3.19888 -1.99879 0
M  V30 11629 H 1211.51 2.72774 -1.12599 0
M  V30 11630 H 1211.59 1.31804 -2.19229 0
M  V30 11631 H 1211.24 2.84813 -4.20528 0
M  V30 11632 H 1211.17 4.25046 -3.10875 0
M  V30 11633 H 1213.66 2.79453 -2.5439 0
M  V30 11634 H 1213.97 5.27512 -5.64758 0
M  V30 11635 H 1212.32 4.74913 -5.07427 0
M  V30 11636 H 1215.51 3.40427 -3.21289 0
M  V30 11637 H 1215.68 4.5356 -4.62804 0
M  V30 11638 N 1209.09 0.96196 1.24836 0
M  V30 11639 C 1210.02 0.506241 2.27946 0
M  V30 11640 C 1211 -0.451183 1.64007 0
M  V30 11641 O 1212.18 -0.348552 1.91046 0
M  V30 11642 C 1209.31 -0.209846 3.46665 0
M  V30 11643 C 1208.27 0.663035 4.22833 0
M  V30 11644 C 1207.59 -0.184216 5.34383 0
M  V30 11645 C 1208.89 1.94479 4.84742 0
M  V30 11646 H 1210.59 1.36805 2.66317 0
M  V30 11647 H 1208.13 0.65926 1.28023 0
M  V30 11648 H 1210.08 -0.539838 4.17928 0
M  V30 11649 H 1208.81 -1.10596 3.07305 0
M  V30 11650 H 1207.47 0.976216 3.53363 0
M  V30 11651 H 1207.12 -1.08031 4.91262 0
M  V30 11652 H 1206.82 0.39657 5.8626 0
M  V30 11653 H 1208.34 -0.509009 6.08475 0
M  V30 11654 H 1209.75 1.68074 5.48109 0
M  V30 11655 H 1208.15 2.47183 5.46828 0
M  V30 11656 H 1209.22 2.64332 4.06517 0
M  V30 11657 N 1210.56 -1.39601 0.731392 0
M  V30 11658 C 1211.49 -2.33268 0.1041 0
M  V30 11659 C 1212.47 -1.53724 -0.728219 0
M  V30 11660 O 1213.66 -1.82131 -0.673933 0
M  V30 11661 C 1210.79 -3.37802 -0.806646 0
M  V30 11662 C 1209.74 -4.27928 -0.0787588 0
M  V30 11663 C 1209.07 -5.23131 -1.10628 0
M  V30 11664 C 1210.37 -5.11086 1.07651 0
M  V30 11665 H 1212.06 -2.85975 0.886496 0
M  V30 11666 H 1209.61 -1.375 0.427746 0
M  V30 11667 H 1211.56 -4.02278 -1.25499 0
M  V30 11668 H 1210.29 -2.83527 -1.62112 0
M  V30 11669 H 1208.95 -3.64926 0.349926 0
M  V30 11670 H 1208.59 -4.65152 -1.91422 0
M  V30 11671 H 1208.29 -5.84277 -0.624043 0
M  V30 11672 H 1209.82 -5.90483 -1.5544 0
M  V30 11673 H 1211.23 -5.68927 0.706781 0
M  V30 11674 H 1209.63 -5.81356 1.48814 0
M  V30 11675 H 1210.7 -4.46131 1.89988 0
M  V30 11676 N 1212.04 -0.478751 -1.50152 0
M  V30 11677 C 1213.28 0.0722328 -2.04272 0
M  V30 11678 C 1213.65 1.36299 -1.35227 0
M  V30 11679 O 1214.85 1.99683 -1.79945 0
M  V30 11680 C 1213.12 0.24408 -3.56566 0
M  V30 11681 S 1214.68 0.752517 -4.32299 0
M  V30 11682 H 1211.5 0.0123326 -0.710893 0
M  V30 11683 H 1214.1 -0.647641 -1.84461 0
M  V30 11684 H 1212.8 -0.701012 -4.04369 0
M  V30 11685 H 1212.33 0.989845 -3.80744 0
M  V30 11686 H 1214.35 2.02488 -4.53005 0
M  V30 11687 N 1213.52 1.56172 -0.211661 0
M  V30 11688 C 1214.8 1.8984 0.471195 0
M  V30 11689 C 1215.18 1.1276 1.78461 0
M  V30 11690 O 1214.53 0.233817 2.27301 0
M  V30 11691 C 1214.74 3.42434 0.673814 0
M  V30 11692 C 1216.08 4.13 0.985719 0
M  V30 11693 O 1217.11 3.47977 0.760953 0
M  V30 11694 O 1215.97 5.2795 1.41176 0
M  V30 11695 H 1213.06 0.789008 0.247782 0
M  V30 11696 H 1215.61 1.67802 -0.25311 0
M  V30 11697 H 1214.38 3.90481 -0.253034 0
M  V30 11698 H 1214 3.70218 1.44997 0
M  V30 11699 N 1215 -0.0618163 1.57479 0
M  V30 11700 C 1215.95 -1.09105 2.05424 0
M  V30 11701 C 1216.94 -1.3947 0.961479 0
M  V30 11702 O 1218.15 -1.3876 1.14655 0
M  V30 11703 H 1214.52 -0.36923 0.655113 0
M  V30 11704 H 1216.49 -0.66061 2.90996 0
M  V30 11705 C 1215.24 -2.39345 2.52209 0
M  V30 11706 H 1214.56 -2.16832 3.35893 0
M  V30 11707 H 1216 -3.09784 2.89499 0
M  V30 11708 C 1214.46 -3.06011 1.40922 0
M  V30 11709 O 1214.99 -3.94504 0.756921 0
M  V30 11710 N 1213.2 -2.66797 1.15186 0
M  V30 11711 H 1212.75 -1.94923 1.68412 0
M  V30 11712 H 1212.7 -3.11724 0.409324 0
M  V30 11713 N 1216.48 -1.54033 -0.333429 0
M  V30 11714 C 1217.72 -1.71426 -1.0704 0
M  V30 11715 C 1218.05 -0.485496 -1.8886 0
M  V30 11716 O 1217.32 0.500555 -1.89397 0
M  V30 11717 H 1215.9 -0.632034 -0.398173 0
M  V30 11718 H 1218.56 -1.91312 -0.372252 0
M  V30 11719 H 1217.65 -2.58958 -1.74205 0
M  V30 11720 N 1217.95 0.594978 -1.45938 0
M  V30 11721 C 1218.88 1.71536 -1.58422 0
M  V30 11722 C 1219.87 1.64441 -0.435116 0
M  V30 11723 O 1221.05 1.82647 -0.659839 0
M  V30 11724 C 1218.18 3.10163 -1.56257 0
M  V30 11725 C 1217.13 3.3208 -2.70013 0
M  V30 11726 C 1216.46 4.71108 -2.52905 0
M  V30 11727 C 1217.76 3.21105 -4.11933 0
M  V30 11728 H 1219.45 1.61344 -2.52207 0
M  V30 11729 H 1217 0.774791 -1.2138 0
M  V30 11730 H 1218.95 3.88352 -1.63587 0
M  V30 11731 H 1217.68 3.21225 -0.590093 0
M  V30 11732 H 1216.34 2.56286 -2.62132 0
M  V30 11733 H 1215.98 4.7892 -1.53768 0
M  V30 11734 H 1215.68 4.86727 -3.29197 0
M  V30 11735 H 1217.21 5.51482 -2.62107 0
M  V30 11736 H 1218.62 3.89153 -4.2099 0
M  V30 11737 H 1217.02 3.4825 -4.88715 0
M  V30 11738 H 1218.09 2.18359 -4.32952 0
M  V30 11739 N 1219.43 1.33438 0.838571 0
M  V30 11740 C 1220.67 1.26245 1.60753 0
M  V30 11741 C 1221.04 -0.169255 1.91253 0
M  V30 11742 O 1222.24 -0.365157 2.66308 0
M  V30 11743 C 1220.51 2.11348 2.88213 0
M  V30 11744 S 1222.07 2.21348 3.78881 0
M  V30 11745 H 1218.89 0.449132 0.551182 0
M  V30 11746 H 1221.49 1.68474 0.991798 0
M  V30 11747 H 1220.19 3.14402 2.63779 0
M  V30 11748 H 1219.72 1.69957 3.54793 0
M  V30 11749 H 1221.74 1.37477 4.76775 0
M  V30 11750 N 1220.91 -1.05686 1.16912 0
M  V30 11751 C 1222.33 -1.30744 0.915327 0
M  V30 11752 C 1222.53 -1.96895 -0.428344 0
M  V30 11753 O 1221.58 -2.23941 -1.16647 0
M  V30 11754 C 1222.9 -2.18209 2.06894 0
M  V30 11755 C 1224.44 -2.31607 2.1054 0
M  V30 11756 C 1224.92 -3.2243 3.25273 0
M  V30 11757 N 1226.41 -3.30015 3.2503 0
M  V30 11758 C 1227.14 -4.00401 4.10447 0
M  V30 11759 N 1226.64 -4.73256 5.05965 0
M  V30 11760 N 1228.43 -3.96514 3.98413 0
M  V30 11761 H 1220.58 -0.611449 2.03409 0
M  V30 11762 H 1222.85 -0.332188 0.887894 0
M  V30 11763 H 1222.55 -1.76887 3.0398 0
M  V30 11764 H 1222.43 -3.18823 2.01573 0
M  V30 11765 H 1224.81 -2.72173 1.14044 0
M  V30 11766 H 1224.9 -1.30639 2.19925 0
M  V30 11767 H 1224.54 -2.82579 4.22032 0
M  V30 11768 H 1224.47 -4.23392 3.13125 0
M  V30 11769 H 1226.96 -2.781 2.55869 0
M  V30 11770 H 1227.27 -5.24509 5.67547 0
M  V30 11771 H 1225.62 -4.72215 5.09939 0
M  V30 11772 H 1228.81 -3.38719 3.2309 0
M  V30 11773 H 1228.98 -4.511 4.65202 0
M  V30 11774 N 1222.39 -0.968567 -1.24324 0
M  V30 11775 C 1223.34 -0.491346 -2.27351 0
M  V30 11776 C 1224.33 0.445563 -1.63435 0
M  V30 11777 O 1225.54 0.320758 -1.77119 0
M  V30 11778 H 1221.91 -0.14043 -0.738772 0
M  V30 11779 H 1223.88 -1.37224 -2.64976 0
M  V30 11780 C 1222.63 0.202093 -3.47112 0
M  V30 11781 H 1221.95 -0.50973 -3.96537 0
M  V30 11782 H 1223.39 0.499815 -4.21044 0
M  V30 11783 C 1221.85 1.42937 -3.05075 0
M  V30 11784 O 1222.38 2.52635 -3.12312 0
M  V30 11785 N 1220.59 1.29572 -2.60114 0
M  V30 11786 H 1220.14 0.403169 -2.54425 0
M  V30 11787 H 1220.09 2.118 -2.32353 0
M  V30 11788 N 1223.87 1.39211 -0.738786 0
M  V30 11789 C 1225.09 2.04732 -0.298751 0
M  V30 11790 C 1225.51 1.55706 1.06776 0
M  V30 11791 O 1224.87 0.723605 1.67542 0
M  V30 11792 C 1224.92 3.60288 -0.29574 0
M  V30 11793 O 1224.64 4.07511 -1.60831 0
M  V30 11794 C 1226.14 4.43011 0.159994 0
M  V30 11795 H 1223.36 0.658296 -0.129952 0
M  V30 11796 H 1225.9 1.78186 -1.0035 0
M  V30 11797 H 1224.06 3.85722 0.360146 0
M  V30 11798 H 1224.47 5.01858 -1.52443 0
M  V30 11799 H 1225.95 5.51889 0.110941 0
M  V30 11800 H 1226.42 4.22325 1.20573 0
M  V30 11801 H 1227.03 4.22734 -0.466467 0
M  V30 11802 N 1225.34 0.486708 1.49896 0
M  V30 11803 C 1226.76 0.0353906 1.86666 0
M  V30 11804 C 1227.11 -1.3743 1.40026 0
M  V30 11805 O 1226.23 -2.02163 0.77194 0
M  V30 11806 C 1226.83 0.0574475 3.38751 0
M  V30 11807 C 1225.39 -0.338464 3.74875 0
M  V30 11808 C 1224.53 0.436196 2.73848 0
M  V30 11809 H 1227.48 0.700215 1.42417 0
M  V30 11810 H 1227.5 -0.741175 3.73212 0
M  V30 11811 H 1227.02 1.08356 3.72667 0
M  V30 11812 H 1225.12 -1.36835 3.46565 0
M  V30 11813 H 1225.23 -0.0289519 4.79091 0
M  V30 11814 H 1223.59 -0.112141 2.54453 0
M  V30 11815 H 1224.38 1.46212 3.10608 0
M  V30 11816 N 1226.82 -1.56058 0.219941 0
M  V30 11817 C 1228.07 -1.97869 -0.411383 0
M  V30 11818 C 1228.39 -1.10878 -1.60409 0
M  V30 11819 O 1227.66 -0.185454 -1.9502 0
M  V30 11820 H 1226.24 -0.730747 -0.154979 0
M  V30 11821 H 1228.9 -1.92379 0.312461 0
M  V30 11822 H 1228 -3.0323 -0.738798 0
M  V30 11823 N 1228.3 0.053464 -1.57509 0
M  V30 11824 C 1229.53 0.765301 -1.92764 0
M  V30 11825 C 1229.95 1.69385 -0.817943 0
M  V30 11826 O 1229.31 1.7986 0.228075 0
M  V30 11827 C 1229.36 1.51938 -3.27028 0
M  V30 11828 O 1228.46 2.63121 -3.17555 0
M  V30 11829 H 1227.8 0.207567 -0.630723 0
M  V30 11830 H 1230.33 0.0162254 -2.04594 0
M  V30 11831 H 1230.34 1.89466 -3.6134 0
M  V30 11832 H 1229.02 0.838207 -4.07366 0
M  V30 11833 H 1227.59 2.28316 -2.94832 0
M  V30 11834 N 1229.78 1.54207 0.325255 0
M  V30 11835 C 1231.01 1.76037 1.08141 0
M  V30 11836 C 1231.42 0.50816 1.82248 0
M  V30 11837 O 1230.76 -0.530709 1.75867 0
M  V30 11838 C 1230.82 2.89876 2.12632 0
M  V30 11839 C 1230.49 4.28841 1.57937 0
M  V30 11840 C 1231.48 5.09755 1.02205 0
M  V30 11841 C 1229.17 4.7538 1.62232 0
M  V30 11842 C 1231.16 6.35317 0.514929 0
M  V30 11843 C 1228.85 6.0091 1.11132 0
M  V30 11844 C 1229.85 6.80712 0.558575 0
M  V30 11845 O 1229.54 8.03881 0.05526 0
M  V30 11846 H 1229.27 0.591332 0.327571 0
M  V30 11847 H 1231.82 2.019 0.377572 0
M  V30 11848 H 1230.05 2.59581 2.86627 0
M  V30 11849 H 1231.74 2.99505 2.73955 0
M  V30 11850 H 1232.51 4.74955 0.981954 0
M  V30 11851 H 1228.39 4.1331 2.04195 0
M  V30 11852 H 1231.93 6.97551 0.0828314 0
M  V30 11853 H 1227.83 6.35201 1.14848 0
M  V30 11854 H 1228.59 8.18322 0.170842 0
M  V30 11855 N 1231.26 -0.58723 1.46251 0
M  V30 11856 C 1232.48 -1.37661 1.55126 0
M  V30 11857 C 1232.91 -1.87123 0.191489 0
M  V30 11858 O 1232.27 -1.6131 -0.827576 0
M  V30 11859 C 1232.31 -2.54324 2.5564 0
M  V30 11860 O 1231.42 -3.55617 2.0883 0
M  V30 11861 H 1230.76 -0.410154 0.522178 0
M  V30 11862 H 1233.29 -0.712738 1.91784 0
M  V30 11863 H 1233.3 -3.01301 2.75103 0
M  V30 11864 H 1231.97 -2.17675 3.54387 0
M  V30 11865 H 1230.55 -3.15151 1.99335 0
M  V30 11866 N 1232.74 -1.33881 -0.831482 0
M  V30 11867 C 1233.98 -1.27095 -1.60082 0
M  V30 11868 C 1234.34 0.15911 -1.9134 0
M  V30 11869 O 1235.54 0.351029 -2.66498 0
M  V30 11870 C 1233.81 -2.12874 -2.87088 0
M  V30 11871 S 1235.37 -2.23354 -3.77702 0
M  V30 11872 H 1232.19 -0.452049 -0.548792 0
M  V30 11873 H 1234.79 -1.68998 -0.98285 0
M  V30 11874 H 1233.49 -3.15797 -2.62108 0
M  V30 11875 H 1233.03 -1.71836 -3.53887 0
M  V30 11876 H 1235.04 -1.40003 -4.76039 0
M  V30 11877 N 1234.21 1.05064 -1.1747 0
M  V30 11878 C 1235.44 1.81761 -0.988464 0
M  V30 11879 C 1235.86 1.83028 0.463272 0
M  V30 11880 O 1235.21 1.25846 1.32171 0
M  V30 11881 C 1235.26 3.2782 -1.5237 0
M  V30 11882 O 1234.99 3.26726 -2.91859 0
M  V30 11883 C 1236.49 4.212 -1.38223 0
M  V30 11884 H 1233.71 0.572712 -0.349631 0
M  V30 11885 H 1236.25 1.32477 -1.55789 0
M  V30 11886 H 1234.41 3.7437 -0.996272 0
M  V30 11887 H 1234.82 4.18151 -3.16623 0
M  V30 11888 H 1236.29 5.2166 -1.80485 0
M  V30 11889 H 1236.77 4.37962 -0.329491 0
M  V30 11890 H 1237.38 3.80506 -1.89988 0
M  V30 11891 N 1235.69 0.975146 1.23809 0
M  V30 11892 C 1236.93 0.649078 1.9382 0
M  V30 11893 C 1237.3 -0.801879 1.74453 0
M  V30 11894 O 1238.5 -1.23853 2.38567 0
M  V30 11895 C 1236.77 1.0225 3.42461 0
M  V30 11896 S 1238.33 0.812107 4.3122 0
M  V30 11897 H 1235.14 0.237878 0.670026 0
M  V30 11898 H 1237.75 1.25368 1.50011 0
M  V30 11899 H 1236.45 2.07523 3.54065 0
M  V30 11900 H 1235.98 0.408976 3.91268 0
M  V30 11901 H 1238 -0.306716 4.95251 0
M  V30 11902 N 1237.17 -1.38817 0.746158 0
M  V30 11903 C 1238.58 -1.83045 0.367629 0
M  V30 11904 C 1238.93 -1.62285 -1.10263 0
M  V30 11905 O 1238.06 -1.12001 -1.85162 0
M  V30 11906 C 1238.65 -3.323 0.660482 0
M  V30 11907 C 1237.21 -3.74903 0.335318 0
M  V30 11908 C 1236.36 -2.61683 0.917446 0
M  V30 11909 H 1239.31 -1.27651 0.94291 0
M  V30 11910 H 1239.33 -3.80446 -0.0639061 0
M  V30 11911 H 1238.84 -3.47377 1.73062 0
M  V30 11912 H 1236.94 -3.65408 -0.728538 0
M  V30 11913 H 1237.06 -4.71932 0.825677 0
M  V30 11914 H 1235.42 -2.52376 0.343316 0
M  V30 11915 H 1236.2 -2.79563 1.99247 0
M  V30 11916 N 1238.65 -0.49465 -1.49636 0
M  V30 11917 C 1240.06 -0.0452894 -1.86645 0
M  V30 11918 C 1240.41 1.36686 -1.40753 0
M  V30 11919 O 1239.53 2.01751 -0.78265 0
M  V30 11920 C 1240.13 -0.0754115 -3.38716 0
M  V30 11921 C 1238.69 0.318579 -3.75049 0
M  V30 11922 C 1237.84 -0.450712 -2.73613 0
M  V30 11923 H 1240.79 -0.707758 -1.42044 0
M  V30 11924 H 1240.81 0.721372 -3.73599 0
M  V30 11925 H 1240.32 -1.10331 -3.72087 0
M  V30 11926 H 1238.42 1.34995 -3.47285 0
M  V30 11927 H 1238.53 0.00354416 -4.791 0
M  V30 11928 H 1236.9 0.0986455 -2.54509 0
M  V30 11929 H 1237.68 -1.47857 -3.09828 0
M  V30 11930 N 1240.13 1.55939 -0.228214 0
M  V30 11931 C 1241.37 1.98084 0.400884 0
M  V30 11932 C 1241.69 1.11727 1.59819 0
M  V30 11933 O 1240.96 0.195794 1.94919 0
M  V30 11934 H 1239.54 0.731558 0.151102 0
M  V30 11935 H 1242.21 1.92211 -0.322659 0
M  V30 11936 H 1241.3 3.03617 0.722706 0
M  V30 11937 N 1241.6 -0.0451101 1.57535 0
M  V30 11938 C 1242.83 -0.750231 1.92497 0
M  V30 11939 C 1243.24 -1.70268 0.824946 0
M  V30 11940 O 1242.59 -1.82511 -0.208656 0
M  V30 11941 C 1242.65 -1.57543 3.23141 0
M  V30 11942 C 1242.31 -0.789495 4.50129 0
M  V30 11943 C 1243.31 -0.0968367 5.1981 0
M  V30 11944 C 1240.99 -0.748776 4.96688 0
M  V30 11945 C 1242.99 0.626018 6.34318 0
M  V30 11946 C 1240.67 -0.0221652 6.11096 0
M  V30 11947 C 1241.67 0.664006 6.79765 0
M  V30 11948 O 1241.36 1.37885 7.91987 0
M  V30 11949 H 1241.09 -0.216895 0.64026 0
M  V30 11950 H 1243.65 -0.011558 2.05397 0
M  V30 11951 H 1241.88 -2.35754 3.06524 0
M  V30 11952 H 1243.57 -2.16168 3.4355 0
M  V30 11953 H 1244.33 -0.119429 4.84853 0
M  V30 11954 H 1240.21 -1.27235 4.43094 0
M  V30 11955 H 1243.75 1.16215 6.87852 0
M  V30 11956 H 1239.65 0.00240707 6.455 0
M  V30 11957 H 1240.42 1.29087 8.08257 0
M  V30 11958 N 1243.08 -1.54377 -0.317073 0
M  V30 11959 C 1244.33 -1.73149 -1.05581 0
M  V30 11960 C 1244.66 -0.507176 -1.8746 0
M  V30 11961 O 1243.94 0.495837 -1.88074 0
M  V30 11962 C 1244.22 -3.01098 -1.97515 0
M  V30 11963 C 1244.07 -4.33794 -1.18922 0
M  V30 11964 C 1245.39 -3.24831 -2.9694 0
M  V30 11965 H 1242.51 -0.630011 -0.382434 0
M  V30 11966 H 1245.15 -1.87079 -0.331873 0
M  V30 11967 H 1243.3 -2.89352 -2.59244 0
M  V30 11968 H 1244.97 -4.57433 -0.596039 0
M  V30 11969 H 1243.22 -4.31005 -0.491612 0
M  V30 11970 H 1243.89 -5.19554 -1.86462 0
M  V30 11971 H 1246.36 -3.3608 -2.45335 0
M  V30 11972 H 1245.24 -4.15702 -3.58445 0
M  V30 11973 H 1245.5 -2.42365 -3.69745 0
M  V30 11974 N 1244.56 0.579466 -1.4656 0
M  V30 11975 C 1245.81 1.33756 -1.52038 0
M  V30 11976 C 1246.14 1.93725 -0.173423 0
M  V30 11977 O 1245.39 1.77167 0.831293 0
M  V30 11978 C 1245.69 2.48417 -2.56951 0
M  V30 11979 C 1245.36 2.0642 -4.00876 0
M  V30 11980 C 1244.02 1.94682 -4.4006 0
M  V30 11981 C 1246.37 1.74066 -4.91274 0
M  V30 11982 C 1243.7 1.48852 -5.67503 0
M  V30 11983 C 1246.05 1.29714 -6.19158 0
M  V30 11984 C 1244.71 1.16555 -6.57245 0
M  V30 11985 H 1243.98 0.489447 -0.556347 0
M  V30 11986 H 1246.63 0.652176 -1.80053 0
M  V30 11987 H 1244.94 3.22416 -2.2261 0
M  V30 11988 H 1246.63 3.06629 -2.58418 0
M  V30 11989 H 1243.22 2.16492 -3.69904 0
M  V30 11990 H 1247.41 1.82019 -4.61717 0
M  V30 11991 H 1242.66 1.3731 -5.95782 0
M  V30 11992 H 1246.84 1.03734 -6.88631 0
M  V30 11993 H 1244.46 0.808193 -7.55892 0
M  V30 11994 N 1246.04 1.3432 0.824371 0
M  V30 11995 C 1247.45 1.1397 1.11727 0
M  V30 11996 C 1247.65 -0.0597597 2.01411 0
M  V30 11997 O 1246.71 -0.735717 2.41544 0
M  V30 11998 C 1248.02 2.43423 1.76538 0
M  V30 11999 C 1249.57 2.49466 1.89039 0
M  V30 12000 C 1250.05 3.78917 2.57266 0
M  V30 12001 N 1251.54 3.8007 2.64767 0
M  V30 12002 C 1252.27 4.76953 3.18282 0
M  V30 12003 N 1251.77 5.84217 3.72373 0
M  V30 12004 N 1253.56 4.6441 3.1667 0
M  V30 12005 H 1245.71 2.11175 0.227802 0
M  V30 12006 H 1247.98 0.933774 0.163615 0
M  V30 12007 H 1247.68 3.31278 1.18102 0
M  V30 12008 H 1247.56 2.56655 2.7642 0
M  V30 12009 H 1249.94 1.62052 2.46623 0
M  V30 12010 H 1250.02 2.40163 0.880635 0
M  V30 12011 H 1249.67 4.6672 2.00336 0
M  V30 12012 H 1249.6 3.85502 3.58742 0
M  V30 12013 H 1252.09 3.02556 2.26425 0
M  V30 12014 H 1252.4 6.54159 4.11455 0
M  V30 12015 H 1250.75 5.87933 3.70621 0
M  V30 12016 H 1253.94 3.7976 2.73678 0
M  V30 12017 H 1254.11 5.40081 3.58073 0
M  V30 12018 N 1247.52 -1.0444 1.18026 0
M  V30 12019 C 1248.74 -1.81234 0.998089 0
M  V30 12020 C 1249.16 -1.83271 -0.453559 0
M  V30 12021 O 1248.52 -1.26545 -1.31502 0
M  V30 12022 C 1248.57 -3.27007 1.54106 0
M  V30 12023 O 1248.29 -3.25174 2.93587 0
M  V30 12024 C 1249.79 -4.20461 1.40455 0
M  V30 12025 H 1247.01 -0.57085 0.352663 0
M  V30 12026 H 1249.55 -1.31649 1.56489 0
M  V30 12027 H 1247.71 -3.73837 1.01611 0
M  V30 12028 H 1248.12 -4.16466 3.18836 0
M  V30 12029 H 1249.6 -5.20695 1.83249 0
M  V30 12030 H 1250.07 -4.37781 0.352713 0
M  V30 12031 H 1250.68 -3.79493 1.92004 0
M  V30 12032 N 1248.99 -0.981699 -1.2329 0
M  V30 12033 C 1249.9 -0.531296 -2.28505 0
M  V30 12034 C 1250.92 0.414531 -1.6899 0
M  V30 12035 O 1252.1 0.284129 -1.99386 0
M  V30 12036 C 1249.16 0.157864 -3.4634 0
M  V30 12037 C 1248.22 -0.829527 -4.21209 0
M  V30 12038 C 1247.46 -0.17316 -5.33419 0
M  V30 12039 O 1247.68 1.03549 -5.60922 0
M  V30 12040 O 1246.61 -0.872385 -5.95544 0
M  V30 12041 H 1250.44 -1.40633 -2.69177 0
M  V30 12042 H 1248.02 -0.749395 -1.29246 0
M  V30 12043 H 1249.91 0.544394 -4.17869 0
M  V30 12044 H 1248.58 1.00764 -3.07617 0
M  V30 12045 H 1247.49 -1.26678 -3.51999 0
M  V30 12046 H 1248.82 -1.64815 -4.63785 0
M  V30 12047 N 1250.47 1.3842 -0.753509 0
M  V30 12048 C 1251.7 2.04403 -0.320449 0
M  V30 12049 C 1252.12 1.5683 1.05118 0
M  V30 12050 O 1251.47 0.741335 1.66765 0
M  V30 12051 C 1251.52 3.59954 -0.333937 0
M  V30 12052 O 1251.24 4.05782 -1.65144 0
M  V30 12053 C 1252.75 4.43156 0.112997 0
M  V30 12054 H 1249.97 0.656881 -0.136927 0
M  V30 12055 H 1252.51 1.77112 -1.02234 0
M  V30 12056 H 1250.66 3.86083 0.319215 0
M  V30 12057 H 1251.08 5.00213 -1.57757 0
M  V30 12058 H 1252.55 5.51975 0.0523995 0
M  V30 12059 H 1253.03 4.23581 1.16087 0
M  V30 12060 H 1253.64 4.22216 -0.511278 0
M  V30 12061 N 1251.95 0.502579 1.49372 0
M  V30 12062 C 1252.86 -0.279532 2.32929 0
M  V30 12063 C 1253.88 -0.965806 1.44735 0
M  V30 12064 O 1255.05 -0.946839 1.77755 0
M  V30 12065 C 1252.12 -1.32913 3.20211 0
M  V30 12066 C 1251.18 -0.656121 4.24256 0
M  V30 12067 C 1250.41 -1.65571 5.07368 0
M  V30 12068 O 1250.63 -2.88571 4.92019 0
M  V30 12069 O 1249.57 -1.21016 5.89609 0
M  V30 12070 H 1253.39 0.404427 3.00995 0
M  V30 12071 H 1250.98 0.263888 1.47051 0
M  V30 12072 H 1252.86 -1.93635 3.74277 0
M  V30 12073 H 1251.54 -1.99598 2.54837 0
M  V30 12074 H 1250.44 -0.00911489 3.74099 0
M  V30 12075 H 1251.78 -0.0316802 4.9219 0
M  V30 12076 N 1253.43 -1.55816 0.23648 0
M  V30 12077 C 1254.66 -2.03083 -0.395584 0
M  V30 12078 C 1255.07 -1.11599 -1.52286 0
M  V30 12079 O 1254.43 -0.128403 -1.82048 0
M  V30 12080 C 1254.48 -3.49776 -0.913197 0
M  V30 12081 O 1254.2 -4.37773 0.169151 0
M  V30 12082 C 1255.7 -4.12756 -1.617 0
M  V30 12083 H 1252.92 -0.66421 -0.0952146 0
M  V30 12084 H 1255.47 -2.01354 0.357299 0
M  V30 12085 H 1253.62 -3.52072 -1.6163 0
M  V30 12086 H 1254.03 -5.24029 -0.222217 0
M  V30 12087 H 1255.51 -5.17123 -1.93101 0
M  V30 12088 H 1255.99 -3.58631 -2.53537 0
M  V30 12089 H 1256.59 -4.14353 -0.958736 0
M  V30 12090 N 1254.91 0.036755 -1.57557 0
M  V30 12091 C 1256.15 0.734039 -1.90765 0
M  V30 12092 C 1256.51 1.7293 -0.834222 0
M  V30 12093 O 1257.71 2.47427 -1.0504 0
M  V30 12094 C 1255.98 1.39285 -3.29142 0
M  V30 12095 S 1257.54 2.12035 -3.8417 0
M  V30 12096 H 1254.36 0.243349 -0.668059 0
M  V30 12097 H 1256.96 -0.0110968 -1.95497 0
M  V30 12098 H 1255.67 0.655154 -4.05137 0
M  V30 12099 H 1255.2 2.17669 -3.27694 0
M  V30 12100 H 1257.21 3.39072 -3.62277 0
M  V30 12101 N 1256.39 1.54543 0.308881 0
M  V30 12102 C 1257.3 1.87994 1.4034 0
M  V30 12103 C 1258.31 0.773294 1.55872 0
M  V30 12104 O 1259.49 1.069 1.70688 0
M  V30 12105 C 1256.55 2.11341 2.74838 0
M  V30 12106 C 1255.61 3.35086 2.68358 0
M  V30 12107 C 1254.85 3.5731 3.96441 0
M  V30 12108 O 1255.07 2.82692 4.9542 0
M  V30 12109 O 1254 4.50814 3.98811 0
M  V30 12110 H 1257.83 2.81094 1.14976 0
M  V30 12111 H 1255.41 1.40634 0.504236 0
M  V30 12112 H 1257.3 2.27943 3.54429 0
M  V30 12113 H 1255.97 1.21427 3.00062 0
M  V30 12114 H 1254.88 3.23855 1.87267 0
M  V30 12115 H 1256.21 4.25104 2.48087 0
M  V30 12116 N 1257.86 -0.571685 1.46866 0
M  V30 12117 C 1259.14 -1.33216 1.43223 0
M  V30 12118 C 1259.52 -2.1075 0.121495 0
M  V30 12119 O 1258.87 -2.10157 -0.897003 0
M  V30 12120 C 1259.08 -2.24888 2.66882 0
M  V30 12121 C 1260.43 -2.86369 3.13493 0
M  V30 12122 O 1261.45 -2.35197 2.67509 0
M  V30 12123 O 1260.31 -3.79342 3.93398 0
M  V30 12124 H 1257.4 -0.599106 0.570089 0
M  V30 12125 H 1259.95 -0.591788 1.59047 0
M  V30 12126 H 1258.72 -1.67099 3.53827 0
M  V30 12127 H 1258.34 -3.06246 2.53573 0
M  V30 12128 N 1259.34 -1.34755 -0.817236 0
M  V30 12129 C 1260.59 -1.26771 -1.56882 0
M  V30 12130 C 1260.9 0.158962 -1.94953 0
M  V30 12131 O 1262.11 0.360996 -2.69089 0
M  V30 12132 C 1260.57 -2.22261 -2.83069 0
M  V30 12133 C 1260.17 -3.70216 -2.52277 0
M  V30 12134 C 1261.92 -2.23197 -3.61086 0
M  V30 12135 C 1259.82 -4.57559 -3.74691 0
M  V30 12136 H 1258.75 -0.470961 -0.588822 0
M  V30 12137 H 1261.41 -1.59955 -0.899254 0
M  V30 12138 H 1259.79 -1.82036 -3.5168 0
M  V30 12139 H 1260.96 -4.19014 -1.9174 0
M  V30 12140 H 1259.28 -3.71784 -1.87525 0
M  V30 12141 H 1261.87 -2.85673 -4.5199 0
M  V30 12142 H 1262.22 -1.2328 -3.97628 0
M  V30 12143 H 1262.75 -2.61897 -2.99424 0
M  V30 12144 H 1259.49 -5.58434 -3.43267 0
M  V30 12145 H 1259.01 -4.13494 -4.34491 0
M  V30 12146 H 1260.69 -4.72451 -4.42039 0
M  V30 12147 N 1260.82 1.03812 -1.18578 0
M  V30 12148 C 1261.77 2.13994 -0.911563 0
M  V30 12149 C 1262.76 1.68907 0.129131 0
M  V30 12150 O 1263.97 1.7999 -0.0192557 0
M  V30 12151 H 1260.34 0.698996 -0.277324 0
M  V30 12152 H 1262.31 2.34318 -1.84763 0
M  V30 12153 C 1261.06 3.44689 -0.456591 0
M  V30 12154 H 1260.39 3.79793 -1.2489 0
M  V30 12155 H 1261.83 4.22911 -0.303738 0
M  V30 12156 C 1260.28 3.26568 0.827961 0
M  V30 12157 O 1260.81 3.54376 1.89158 0
M  V30 12158 N 1259.02 2.79893 0.781567 0
M  V30 12159 H 1258.57 2.57462 -0.0842145 0
M  V30 12160 H 1258.53 2.68148 1.64146 0
M  V30 12161 N 1262.3 0.988223 1.22768 0
M  V30 12162 C 1263.21 0.543407 2.2822 0
M  V30 12163 C 1264.22 -0.405563 1.69208 0
M  V30 12164 O 1265.4 -0.273551 1.99534 0
M  V30 12165 C 1262.46 -0.139495 3.46419 0
M  V30 12166 C 1261.53 0.851853 4.20764 0
M  V30 12167 C 1260.76 0.201446 5.3332 0
M  V30 12168 O 1260.98 -1.00573 5.61464 0
M  V30 12169 O 1259.92 0.903956 5.95073 0
M  V30 12170 H 1263.74 1.42059 2.68427 0
M  V30 12171 H 1261.33 0.756239 1.28846 0
M  V30 12172 H 1263.21 -0.522226 4.18152 0
M  V30 12173 H 1261.88 -0.991315 3.08147 0
M  V30 12174 H 1260.79 1.28543 3.51322 0
M  V30 12175 H 1262.12 1.67273 4.62905 0
M  V30 12176 N 1263.78 -1.38018 0.760839 0
M  V30 12177 C 1265.02 -2.01795 0.325264 0
M  V30 12178 C 1265.38 -1.59092 -1.07489 0
M  V30 12179 O 1266.58 -2.15251 -1.60998 0
M  V30 12180 C 1264.85 -3.5453 0.452007 0
M  V30 12181 S 1266.41 -4.38686 0.100084 0
M  V30 12182 H 1263.23 -0.69979 0.125758 0
M  V30 12183 H 1265.83 -1.684 0.993054 0
M  V30 12184 H 1264.53 -3.83099 1.47186 0
M  V30 12185 H 1264.07 -3.92711 -0.232716 0
M  V30 12186 H 1266.08 -4.83672 -1.10797 0
M  V30 12187 N 1265.25 -0.510493 -1.49103 0
M  V30 12188 C 1266.16 0.267176 -2.33074 0
M  V30 12189 C 1267.18 0.958117 -1.45245 0
M  V30 12190 O 1268.36 0.937399 -1.78255 0
M  V30 12191 C 1265.42 1.31212 -3.20911 0
M  V30 12192 C 1264.48 0.633613 -4.24598 0
M  V30 12193 C 1263.71 1.62878 -5.08239 0
M  V30 12194 O 1263.94 2.85958 -4.93543 0
M  V30 12195 O 1262.87 1.17887 -5.90242 0
M  V30 12196 H 1266.7 -0.420384 -3.00776 0
M  V30 12197 H 1264.28 -0.271683 -1.46909 0
M  V30 12198 H 1266.16 1.91647 -3.75299 0
M  V30 12199 H 1264.84 1.98244 -2.55892 0
M  V30 12200 H 1263.75 -0.0107246 -3.74098 0
M  V30 12201 H 1265.08 0.0055777 -4.922 0
M  V30 12202 N 1266.73 1.55688 -0.24474 0
M  V30 12203 C 1267.96 2.03743 0.387776 0
M  V30 12204 C 1268.38 1.1229 1.50906 0
M  V30 12205 O 1267.74 0.115445 1.80932 0
M  V30 12206 C 1267.79 3.49825 0.874927 0
M  V30 12207 O 1266.89 3.61504 1.98466 0
M  V30 12208 H 1266.23 0.658561 0.0848107 0
M  V30 12209 H 1268.76 2.01224 -0.370165 0
M  V30 12210 H 1268.77 3.90603 1.17871 0
M  V30 12211 H 1267.45 4.15864 0.0543852 0
M  V30 12212 H 1266.02 3.32622 1.68574 0
M  V30 12213 N 1268.21 -0.0283989 1.57574 0
M  V30 12214 C 1269.16 -1.04723 2.07692 0
M  V30 12215 C 1270.15 -1.37399 0.990847 0
M  V30 12216 O 1271.36 -1.36297 1.17572 0
M  V30 12217 H 1267.73 -0.355251 0.662798 0
M  V30 12218 H 1269.7 -0.598737 2.92331 0
M  V30 12219 C 1268.45 -2.33941 2.57229 0
M  V30 12220 H 1267.78 -2.09659 3.40416 0
M  V30 12221 H 1269.22 -3.03574 2.96005 0
M  V30 12222 C 1267.67 -3.02953 1.47381 0
M  V30 12223 O 1268.2 -3.9281 0.840431 0
M  V30 12224 N 1266.41 -2.64294 1.20819 0
M  V30 12225 H 1265.96 -1.91307 1.72509 0
M  V30 12226 H 1265.92 -3.10786 0.475353 0
M  V30 12227 N 1269.69 -1.54705 -0.300681 0
M  V30 12228 C 1271.1 -1.64998 -0.873654 0
M  V30 12229 C 1271.45 -0.558842 -1.88073 0
M  V30 12230 O 1270.57 0.304474 -2.14247 0
M  V30 12231 C 1271.17 -2.99099 -1.59138 0
M  V30 12232 C 1269.73 -3.11512 -2.11276 0
M  V30 12233 C 1268.88 -2.60681 -0.945551 0
M  V30 12234 H 1271.83 -1.5851 -0.0776752 0
M  V30 12235 H 1271.85 -2.9054 -2.45696 0
M  V30 12236 H 1271.36 -3.78493 -0.858172 0
M  V30 12237 H 1269.46 -2.36838 -2.87643 0
M  V30 12238 H 1269.57 -4.17672 -2.34707 0
M  V30 12239 H 1267.94 -2.17143 -1.33121 0
M  V30 12240 H 1268.72 -3.42553 -0.226291 0
M  V30 12241 N 1271.17 0.563888 -1.47167 0
M  V30 12242 C 1272.41 1.33221 -1.55021 0
M  V30 12243 C 1272.77 1.90904 -0.204835 0
M  V30 12244 O 1273.97 2.68334 -0.158201 0
M  V30 12245 C 1272.24 2.41757 -2.63227 0
M  V30 12246 S 1273.8 3.28765 -2.90619 0
M  V30 12247 H 1270.62 0.453623 -0.547491 0
M  V30 12248 H 1273.22 0.646265 -1.84509 0
M  V30 12249 H 1271.93 1.97803 -3.59586 0
M  V30 12250 H 1271.46 3.151 -2.35532 0
M  V30 12251 H 1273.47 4.41065 -2.27323 0
M  V30 12252 N 1272.64 1.35187 0.810078 0
M  V30 12253 C 1273.89 1.28454 1.56931 0
M  V30 12254 C 1274.22 -0.141747 1.93682 0
M  V30 12255 O 1273.5 -1.09028 1.61069 0
M  V30 12256 C 1273.78 2.18771 2.86027 0
M  V30 12257 C 1273.63 3.69999 2.55774 0
M  V30 12258 C 1274.95 2.08265 3.87703 0
M  V30 12259 H 1272.07 0.467959 0.569371 0
M  V30 12260 H 1274.71 1.65556 0.932262 0
M  V30 12261 H 1272.86 1.8726 3.40391 0
M  V30 12262 H 1274.54 4.11936 2.07621 0
M  V30 12263 H 1272.78 3.90453 1.89021 0
M  V30 12264 H 1273.45 4.28577 3.47888 0
M  V30 12265 H 1275.93 2.35958 3.42729 0
M  V30 12266 H 1274.8 2.73663 4.75815 0
M  V30 12267 H 1275.06 1.06352 4.29117 0
M  V30 12268 N 1274.12 -1.03182 1.19127 0
M  V30 12269 C 1275.07 -2.13507 0.922899 0
M  V30 12270 C 1276.06 -1.68973 -0.120171 0
M  V30 12271 O 1277.27 -1.79977 0.0288007 0
M  V30 12272 H 1273.65 -0.697516 0.281027 0
M  V30 12273 H 1275.62 -2.33335 1.86003 0
M  V30 12274 C 1274.37 -3.44442 0.474864 0
M  V30 12275 H 1273.69 -3.79125 1.26902 0
M  V30 12276 H 1275.13 -4.22744 0.326162 0
M  V30 12277 C 1273.59 -3.27002 -0.81063 0
M  V30 12278 O 1274.12 -3.55374 -1.87276 0
M  V30 12279 N 1272.32 -2.80303 -0.766713 0
M  V30 12280 H 1271.87 -2.57414 0.0978672 0
M  V30 12281 H 1271.83 -2.69015 -1.62721 0
M  V30 12282 N 1275.6 -0.99472 -1.22242 0
M  V30 12283 C 1276.85 -0.670275 -1.90661 0
M  V30 12284 C 1277.17 0.800369 -1.77818 0
M  V30 12285 O 1276.44 1.57381 -1.16653 0
M  V30 12286 H 1275.02 -0.244925 -0.705706 0
M  V30 12287 H 1277.68 -1.26162 -1.48557 0
M  V30 12288 H 1276.78 -0.934408 -2.97784 0
M  V30 12289 N 1277.08 1.37613 -0.768148 0
M  V30 12290 C 1278.04 2.28653 -0.158283 0
M  V30 12291 C 1279.04 1.47862 0.631936 0
M  V30 12292 O 1280.23 1.68124 0.456055 0
M  V30 12293 C 1277.36 3.31776 0.783435 0
M  V30 12294 H 1278.56 2.84094 -0.960772 0
M  V30 12295 H 1276.11 1.46818 -0.536116 0
M  V30 12296 H 1276.84 2.81452 1.61106 0
M  V30 12297 H 1276.63 3.91488 0.219016 0
M  V30 12298 H 1278.12 3.99816 1.20568 0
M  V30 12299 N 1278.56 0.518393 1.4883 0
M  V30 12300 C 1279.8 -0.0180482 2.04392 0
M  V30 12301 C 1280.16 -1.32666 1.38794 0
M  V30 12302 O 1281.36 -1.94842 1.85176 0
M  V30 12303 C 1279.63 -0.149457 3.57087 0
M  V30 12304 S 1281.19 -0.637636 4.34142 0
M  V30 12305 H 1278.01 0.00651981 0.71097 0
M  V30 12306 H 1280.61 0.69632 1.82679 0
M  V30 12307 H 1279.32 0.807977 4.02368 0
M  V30 12308 H 1278.85 -0.888549 3.83234 0
M  V30 12309 H 1280.86 -1.90406 4.58214 0
M  V30 12310 N 1280.03 -1.55556 0.252993 0
M  V30 12311 C 1281.45 -1.59276 -0.101714 0
M  V30 12312 C 1281.65 -1.27018 -1.56424 0
M  V30 12313 O 1280.71 -1.02042 -2.30963 0
M  V30 12314 C 1282.02 -2.99634 0.252969 0
M  V30 12315 C 1283.57 -3.12375 0.197767 0
M  V30 12316 C 1284.04 -4.54963 0.52657 0
M  V30 12317 N 1285.53 -4.60734 0.477296 0
M  V30 12318 C 1286.27 -5.69052 0.704793 0
M  V30 12319 N 1285.76 -6.85607 0.99574 0
M  V30 12320 N 1287.56 -5.58501 0.635086 0
M  V30 12321 H 1279.71 -1.74793 1.2067 0
M  V30 12322 H 1281.97 -0.813971 0.485958 0
M  V30 12323 H 1281.68 -3.27998 1.26926 0
M  V30 12324 H 1281.55 -3.74888 -0.416984 0
M  V30 12325 H 1283.94 -2.83788 -0.809209 0
M  V30 12326 H 1284.02 -2.39382 0.901659 0
M  V30 12327 H 1283.66 -4.84271 1.53113 0
M  V30 12328 H 1283.59 -5.26224 -0.198869 0
M  V30 12329 H 1286.08 -3.76995 0.261398 0
M  V30 12330 H 1286.4 -7.64096 1.15659 0
M  V30 12331 H 1284.74 -6.87276 1.03328 0
M  V30 12332 H 1287.93 -4.6632 0.407789 0
M  V30 12333 H 1288.11 -6.42845 0.815777 0
M  V30 12334 N 1281.51 0.0200419 -1.57587 0
M  V30 12335 C 1282.46 1.0362 -2.08244 0
M  V30 12336 C 1283.45 1.36872 -0.998119 0
M  V30 12337 O 1284.66 1.35671 -1.18293 0
M  V30 12338 H 1281.04 0.351731 -0.664673 0
M  V30 12339 H 1283.01 0.583226 -2.92645 0
M  V30 12340 C 1281.76 2.32574 -2.58466 0
M  V30 12341 H 1281.08 2.0785 -3.41523 0
M  V30 12342 H 1282.52 3.02 -2.97611 0
M  V30 12343 C 1280.98 3.02167 -1.48986 0
M  V30 12344 O 1281.51 3.92359 -0.861251 0
M  V30 12345 N 1279.71 2.63649 -1.22219 0
M  V30 12346 H 1279.26 1.90389 -1.73521 0
M  V30 12347 H 1279.22 3.10529 -0.491828 0
M  V30 12348 N 1282.99 1.54862 0.292472 0
M  V30 12349 C 1283.94 1.87168 1.38097 0
M  V30 12350 C 1284.93 0.746176 1.52081 0
M  V30 12351 O 1286.14 0.930281 1.54097 0
M  V30 12352 H 1282.51 0.593769 0.461456 0
M  V30 12353 H 1284.48 2.78135 1.0809 0
M  V30 12354 C 1283.23 2.14315 2.73796 0
M  V30 12355 H 1282.56 3.00398 2.63821 0
M  V30 12356 H 1284 2.40853 3.48949 0
M  V30 12357 C 1282.46 0.944424 3.23392 0
M  V30 12358 O 1282.99 0.169208 4.01343 0
M  V30 12359 N 1281.19 0.747456 2.80823 0
M  V30 12360 H 1280.74 1.37953 2.17547 0
M  V30 12361 H 1280.7 -0.0530199 3.14355 0
M  V30 12362 N 1284.47 -0.556076 1.47464 0
M  V30 12363 C 1285.4 -1.67275 1.62915 0
M  V30 12364 C 1286.38 -1.63229 0.478562 0
M  V30 12365 O 1287.56 -1.80833 0.708032 0
M  V30 12366 C 1284.69 -3.05911 1.64426 0
M  V30 12367 C 1283.65 -3.24804 2.78722 0
M  V30 12368 C 1282.97 -4.64238 2.65307 0
M  V30 12369 C 1284.27 -3.10071 4.20302 0
M  V30 12370 H 1285.97 -1.54601 2.56396 0
M  V30 12371 H 1283.51 -0.742337 1.23391 0
M  V30 12372 H 1285.47 -3.83878 1.73826 0
M  V30 12373 H 1284.19 -3.19547 0.675053 0
M  V30 12374 H 1282.85 -2.49246 2.68835 0
M  V30 12375 H 1282.5 -4.74675 1.66412 0
M  V30 12376 H 1282.2 -4.77828 3.41986 0
M  V30 12377 H 1283.72 -5.44339 2.76637 0
M  V30 12378 H 1285.14 -3.77855 4.3116 0
M  V30 12379 H 1283.53 -3.3517 4.97776 0
M  V30 12380 H 1284.6 -2.06803 4.38589 0
M  V30 12381 N 1285.95 -1.35615 -0.802897 0
M  V30 12382 C 1287.2 -1.28839 -1.55708 0
M  V30 12383 C 1287.52 0.135906 -1.94526 0
M  V30 12384 O 1286.79 1.07317 -1.6389 0
M  V30 12385 H 1285.37 -0.473906 -0.577427 0
M  V30 12386 H 1288.03 -1.69759 -0.957487 0
M  V30 12387 H 1287.12 -1.90675 -2.47082 0
M  V30 12388 N 1287.43 1.02549 -1.19673 0
M  V30 12389 C 1288.65 1.8016 -1.02748 0
M  V30 12390 C 1289.08 1.83372 0.419105 0
M  V30 12391 O 1288.43 1.26222 1.30144 0
M  V30 12392 C 1288.48 3.22907 -1.60509 0
M  V30 12393 O 1287.59 4.03823 -0.836702 0
M  V30 12394 H 1286.93 0.556027 -0.362946 0
M  V30 12395 H 1289.46 1.29047 -1.5877 0
M  V30 12396 H 1289.47 3.73646 -1.63868 0
M  V30 12397 H 1288.14 3.19885 -2.65794 0
M  V30 12398 H 1286.72 3.6245 -0.876626 0
M  V30 12399 N 1288.9 1.00119 1.21713 0
M  V30 12400 C 1290.15 0.681723 1.9068 0
M  V30 12401 C 1290.48 -0.787121 1.77861 0
M  V30 12402 O 1289.73 -1.58573 1.14687 0
M  V30 12403 C 1290.03 1.04376 3.41819 0
M  V30 12404 C 1289.7 2.50624 3.74831 0
M  V30 12405 C 1288.36 2.90587 3.83552 0
M  V30 12406 C 1290.71 3.45377 3.90339 0
M  V30 12407 C 1288.04 4.24276 4.05225 0
M  V30 12408 C 1290.39 4.78734 4.13517 0
M  V30 12409 C 1289.06 5.18427 4.20464 0
M  V30 12410 H 1288.33 0.24946 0.697747 0
M  V30 12411 H 1290.97 1.25892 1.44304 0
M  V30 12412 H 1289.28 0.384756 3.89906 0
M  V30 12413 H 1290.98 0.774488 3.9345 0
M  V30 12414 H 1287.57 2.18651 3.68632 0
M  V30 12415 H 1291.75 3.15669 3.82971 0
M  V30 12416 H 1287.01 4.54605 4.08833 0
M  V30 12417 H 1291.18 5.52094 4.24459 0
M  V30 12418 H 1288.81 6.22034 4.3701 0
M  V30 12419 N 1290.38 -1.37203 0.775435 0
M  V30 12420 C 1291.33 -2.32102 0.152051 0
M  V30 12421 C 1292.32 -1.55117 -0.680806 0
M  V30 12422 O 1293.53 -1.70486 -0.577455 0
M  V30 12423 H 1289.9 -0.751386 0.0303853 0
M  V30 12424 H 1291.88 -2.82259 0.968121 0
M  V30 12425 C 1290.62 -3.40378 -0.709788 0
M  V30 12426 H 1289.95 -3.99723 -0.0782879 0
M  V30 12427 H 1291.39 -4.09134 -1.11288 0
M  V30 12428 C 1289.85 -2.80769 -1.862 0
M  V30 12429 O 1290.38 -2.71813 -2.95771 0
M  V30 12430 N 1288.58 -2.38259 -1.66376 0
M  V30 12431 H 1288.13 -2.45743 -0.772531 0
M  V30 12432 H 1288.09 -1.98721 -2.43634 0
M  V30 12433 N 1291.86 -0.526279 -1.48553 0
M  V30 12434 C 1293.1 0.00720852 -2.04399 0
M  V30 12435 C 1293.46 1.31928 -1.39495 0
M  V30 12436 O 1294.66 1.93857 -1.86206 0
M  V30 12437 C 1292.94 0.130517 -3.57162 0
M  V30 12438 S 1294.49 0.614604 -4.34474 0
M  V30 12439 H 1291.31 -0.0102902 -0.710926 0
M  V30 12440 H 1293.91 -0.705998 -1.82307 0
M  V30 12441 H 1292.62 -0.829304 -4.01934 0
M  V30 12442 H 1292.15 0.868213 -3.837 0
M  V30 12443 H 1294.16 1.87973 -4.59217 0
M  V30 12444 N 1293.34 1.5542 -0.261239 0
M  V30 12445 C 1294.25 2.25627 0.642625 0
M  V30 12446 C 1295.26 1.27732 1.18155 0
M  V30 12447 O 1296.44 1.60639 1.21479 0
M  V30 12448 C 1293.5 2.95303 1.8165 0
M  V30 12449 C 1292.57 4.08644 1.31563 0
M  V30 12450 C 1291.8 4.74988 2.43355 0
M  V30 12451 O 1292.02 4.40474 3.62407 0
M  V30 12452 O 1290.96 5.63217 2.12299 0
M  V30 12453 H 1294.78 3.03609 0.0743091 0
M  V30 12454 H 1292.37 1.49372 -0.0291754 0
M  V30 12455 H 1294.25 3.3914 2.50125 0
M  V30 12456 H 1292.92 2.2025 2.37217 0
M  V30 12457 H 1291.83 3.69294 0.597746 0
M  V30 12458 H 1293.16 4.85558 0.805878 0
M  V30 12459 N 1294.82 -0.0116844 1.57596 0
M  V30 12460 C 1296.06 -0.703597 1.91908 0
M  V30 12461 C 1296.42 -1.71581 0.861628 0
M  V30 12462 O 1297.62 -2.45724 1.08963 0
M  V30 12463 C 1295.89 -1.34031 3.31316 0
M  V30 12464 S 1297.45 -2.05896 3.87495 0
M  V30 12465 H 1294.27 -0.23269 0.671846 0
M  V30 12466 H 1296.87 0.0421973 1.95454 0
M  V30 12467 H 1295.57 -0.590617 4.06128 0
M  V30 12468 H 1295.11 -2.12428 3.31116 0
M  V30 12469 H 1297.12 -3.33266 3.67626 0
M  V30 12470 N 1296.29 -1.55015 -0.284256 0
M  V30 12471 C 1297.52 -1.79431 -1.04016 0
M  V30 12472 C 1297.94 -0.560254 -1.79563 0
M  V30 12473 O 1297.3 0.489804 -1.74558 0
M  V30 12474 C 1297.35 -3.01162 -1.98328 0
M  V30 12475 O 1296.45 -2.75459 -3.06914 0
M  V30 12476 H 1295.79 -0.593391 -0.297965 0
M  V30 12477 H 1298.32 -2.02136 -0.316585 0
M  V30 12478 H 1298.33 -3.29589 -2.40489 0
M  V30 12479 H 1297.01 -3.90634 -1.42751 0
M  V30 12480 H 1295.59 -2.58096 -2.69148 0
M  V30 12481 N 1297.77 0.548248 -1.47757 0
M  V30 12482 C 1299.18 1.13033 -1.48595 0
M  V30 12483 C 1299.53 1.94657 -0.245575 0
M  V30 12484 O 1298.66 2.06445 0.648813 0
M  V30 12485 C 1299.25 2.05657 -2.69241 0
M  V30 12486 C 1297.81 2.59119 -2.73009 0
M  V30 12487 C 1296.96 1.35686 -2.41836 0
M  V30 12488 H 1299.91 0.334397 -1.55137 0
M  V30 12489 H 1299.93 2.89671 -2.4672 0
M  V30 12490 H 1299.44 1.46222 -3.595 0
M  V30 12491 H 1297.54 3.22327 -1.86912 0
M  V30 12492 H 1297.66 2.99501 -3.73946 0
M  V30 12493 H 1296.02 1.66659 -1.92606 0
M  V30 12494 H 1296.8 0.780311 -3.34314 0
M  V30 12495 N 1299.25 1.36039 0.795694 0
M  V30 12496 C 1300.5 1.29663 1.55023 0
M  V30 12497 C 1300.82 -0.125588 1.94595 0
M  V30 12498 O 1300.09 -1.06447 1.64456 0
M  V30 12499 H 1298.67 0.476962 0.574906 0
M  V30 12500 H 1301.33 1.70265 0.948471 0
M  V30 12501 H 1300.43 1.91982 2.46068 0
M  V30 12502 N 1300.73 -1.01913 1.20215 0
M  V30 12503 C 1301.95 -1.79613 1.03702 0
M  V30 12504 C 1302.38 -1.83591 -0.409374 0
M  V30 12505 O 1301.74 -1.26911 -1.29473 0
M  V30 12506 C 1301.78 -3.22052 1.62219 0
M  V30 12507 O 1300.89 -4.03374 0.858106 0
M  V30 12508 H 1300.23 -0.554095 0.365889 0
M  V30 12509 H 1302.76 -1.28203 1.59452 0
M  V30 12510 H 1302.77 -3.72772 1.65847 0
M  V30 12511 H 1301.44 -3.18471 2.67487 0
M  V30 12512 H 1300.02 -3.6198 0.895835 0
M  V30 12513 N 1302.21 -1.00763 -1.2118 0
M  V30 12514 C 1303.15 -0.570257 -2.23644 0
M  V30 12515 C 1304.12 0.405039 -1.61086 0
M  V30 12516 O 1305.31 0.306496 -1.88322 0
M  V30 12517 C 1302.45 0.094325 -3.44971 0
M  V30 12518 C 1301.56 -0.924463 -4.21993 0
M  V30 12519 C 1300.7 -0.231869 -5.30694 0
M  V30 12520 C 1299.74 -1.23803 -5.99449 0
M  V30 12521 N 1298.87 -0.572725 -6.9976 0
M  V30 12522 H 1303.71 -1.44869 -2.60417 0
M  V30 12523 H 1301.25 -0.725369 -1.27972 0
M  V30 12524 H 1303.21 0.496689 -4.14233 0
M  V30 12525 H 1301.84 0.936457 -3.08918 0
M  V30 12526 H 1300.89 -1.44505 -3.51884 0
M  V30 12527 H 1302.2 -1.69004 -4.69296 0
M  V30 12528 H 1301.36 0.226465 -6.06277 0
M  V30 12529 H 1300.09 0.566092 -4.84403 0
M  V30 12530 H 1299.1 -1.70684 -5.22635 0
M  V30 12531 H 1300.32 -2.03711 -6.47826 0
M  V30 12532 H 1298.27 0.205531 -6.55678 0
M  V30 12533 H 1298.19 -1.27651 -7.45145 0
M  V30 12534 H 1299.46 -0.137683 -7.79378 0
M  V30 12535 N 1303.68 1.3679 -0.7827 0
M  V30 12536 C 1304.61 2.32721 -0.190604 0
M  V30 12537 C 1305.6 1.56321 0.670663 0
M  V30 12538 O 1306.78 1.84507 0.605871 0
M  V30 12539 C 1303.91 3.40564 0.680717 0
M  V30 12540 C 1302.86 4.27925 -0.080118 0
M  V30 12541 C 1302.19 5.26876 0.911361 0
M  V30 12542 C 1303.49 5.06738 -1.26545 0
M  V30 12543 H 1305.18 2.82488 -0.992023 0
M  V30 12544 H 1302.73 1.35818 -0.478484 0
M  V30 12545 H 1304.68 4.06659 1.10482 0
M  V30 12546 H 1303.41 2.89348 1.51477 0
M  V30 12547 H 1302.07 3.63376 -0.485125 0
M  V30 12548 H 1301.71 4.71936 1.74026 0
M  V30 12549 H 1301.41 5.8619 0.406762 0
M  V30 12550 H 1302.94 5.95846 1.33418 0
M  V30 12551 H 1304.35 5.65911 -0.917448 0
M  V30 12552 H 1302.75 5.75432 -1.70289 0
M  V30 12553 H 1303.82 4.38772 -2.06415 0
M  V30 12554 N 1305.16 0.53415 1.48272 0
M  V30 12555 C 1306.39 0.00368464 2.074 0
M  V30 12556 C 1306.81 -1.27003 1.38751 0
M  V30 12557 O 1306.17 -1.75502 0.454817 0
M  V30 12558 C 1306.22 -0.199034 3.6005 0
M  V30 12559 O 1305.32 -1.26679 3.92462 0
M  V30 12560 H 1304.66 0.0409936 0.662733 0
M  V30 12561 H 1307.19 0.743253 1.90622 0
M  V30 12562 H 1307.2 -0.420404 4.05828 0
M  V30 12563 H 1305.88 0.731391 4.09418 0
M  V30 12564 H 1304.46 -1.02775 3.58457 0
M  V30 12565 N 1306.64 -1.55279 0.269478 0
M  V30 12566 C 1307.87 -2.04334 -0.355313 0
M  V30 12567 C 1308.29 -1.14677 -1.491 0
M  V30 12568 O 1307.65 -0.144215 -1.80726 0
M  V30 12569 C 1307.7 -3.51172 -0.819162 0
M  V30 12570 O 1306.8 -3.64615 -1.9269 0
M  V30 12571 H 1306.14 -0.659827 -0.0743229 0
M  V30 12572 H 1308.67 -2.00609 0.402131 0
M  V30 12573 H 1308.68 -3.92428 -1.11642 0
M  V30 12574 H 1307.36 -4.15898 0.0117821 0
M  V30 12575 H 1305.93 -3.35261 -1.63261 0
M  V30 12576 N 1308.12 0.00332656 -1.576 0
M  V30 12577 C 1309.35 0.699945 -1.94701 0
M  V30 12578 C 1309.76 1.67492 -0.871312 0
M  V30 12579 O 1309.12 1.81882 0.150054 0
M  V30 12580 C 1309.17 1.43471 -3.31811 0
M  V30 12581 O 1308.89 0.498835 -4.35251 0
M  V30 12582 C 1310.39 2.22614 -3.83351 0
M  V30 12583 H 1307.61 0.195158 -0.641993 0
M  V30 12584 H 1310.16 -0.0468044 -2.04446 0
M  V30 12585 H 1308.31 2.13311 -3.23384 0
M  V30 12586 H 1308.72 1.01688 -5.14548 0
M  V30 12587 H 1310.2 2.69527 -4.81725 0
M  V30 12588 H 1310.68 3.05146 -3.15883 0
M  V30 12589 H 1311.28 1.57796 -3.94944 0
M  V30 12590 N 1309.6 1.55164 0.276031 0
M  V30 12591 C 1310.84 1.7528 1.00604 0
M  V30 12592 C 1311.17 0.555256 1.86928 0
M  V30 12593 O 1310.44 -0.429917 1.91124 0
M  V30 12594 H 1309.02 0.646377 0.374441 0
M  V30 12595 H 1311.68 1.92562 0.300992 0
M  V30 12596 H 1310.77 2.65245 1.64473 0
M  V30 12597 N 1311.07 -0.540404 1.48045 0
M  V30 12598 C 1312 -1.65538 1.6468 0
M  V30 12599 C 1312.99 -1.62713 0.495847 0
M  V30 12600 O 1314.17 -1.80072 0.727172 0
M  V30 12601 C 1311.3 -3.0415 1.67661 0
M  V30 12602 C 1310.25 -3.2183 2.82152 0
M  V30 12603 C 1309.58 -4.61397 2.70216 0
M  V30 12604 C 1310.88 -3.05596 4.23567 0
M  V30 12605 H 1312.57 -1.51873 2.58021 0
M  V30 12606 H 1310.12 -0.729208 1.24171 0
M  V30 12607 H 1312.07 -3.82013 1.77887 0
M  V30 12608 H 1310.8 -3.18814 0.708907 0
M  V30 12609 H 1309.46 -2.4638 2.71463 0
M  V30 12610 H 1309.1 -4.72883 1.71437 0
M  V30 12611 H 1308.8 -4.74174 3.47035 0
M  V30 12612 H 1310.33 -5.41374 2.82395 0
M  V30 12613 H 1311.74 -3.73261 4.35143 0
M  V30 12614 H 1310.14 -3.29871 5.01303 0
M  V30 12615 H 1311.21 -2.0214 4.40758 0
M  V30 12616 N 1312.55 -1.36459 -0.788468 0
M  V30 12617 C 1313.8 -1.3007 -1.54158 0
M  V30 12618 C 1314.11 0.117574 -1.95246 0
M  V30 12619 O 1315.32 0.303837 -2.69795 0
M  V30 12620 C 1313.78 -2.28216 -2.78291 0
M  V30 12621 C 1313.38 -3.75484 -2.44368 0
M  V30 12622 C 1315.13 -2.30806 -3.56271 0
M  V30 12623 C 1313.04 -4.65404 -3.64902 0
M  V30 12624 H 1311.97 -0.483345 -0.5787 0
M  V30 12625 H 1314.62 -1.61827 -0.865123 0
M  V30 12626 H 1313 -1.89454 -3.4774 0
M  V30 12627 H 1314.17 -4.22986 -1.82809 0
M  V30 12628 H 1312.49 -3.75678 -1.79597 0
M  V30 12629 H 1315.08 -2.95196 -4.45829 0
M  V30 12630 H 1315.43 -1.31687 -3.94923 0
M  V30 12631 H 1315.96 -2.68189 -2.93802 0
M  V30 12632 H 1312.7 -5.65589 -3.31344 0
M  V30 12633 H 1312.22 -4.22617 -4.25623 0
M  V30 12634 H 1313.9 -4.81721 -4.31919 0
M  V30 12635 N 1314.03 1.01274 -1.20754 0
M  V30 12636 C 1315.27 1.7647 -1.03139 0
M  V30 12637 C 1315.63 1.87157 0.428531 0
M  V30 12638 O 1316.84 2.58839 0.724973 0
M  V30 12639 C 1315.11 3.14346 -1.70063 0
M  V30 12640 S 1316.67 4.05531 -1.67602 0
M  V30 12641 H 1313.48 0.60729 -0.369756 0
M  V30 12642 H 1316.09 1.21232 -1.53372 0
M  V30 12643 H 1314.79 3.04197 -2.75486 0
M  V30 12644 H 1314.32 3.74659 -1.19977 0
M  V30 12645 H 1316.34 4.91071 -0.711623 0
M  V30 12646 N 1315.51 1.01404 1.20644 0
M  V30 12647 C 1316.76 0.697244 1.89265 0
M  V30 12648 C 1317.07 -0.776149 1.79542 0
M  V30 12649 O 1318.28 -1.2054 2.43274 0
M  V30 12650 C 1316.73 1.19672 3.39421 0
M  V30 12651 C 1316.34 2.69683 3.57736 0
M  V30 12652 C 1318.09 0.955225 4.13613 0
M  V30 12653 C 1315.99 3.13124 5.01704 0
M  V30 12654 H 1314.92 0.257105 0.708811 0
M  V30 12655 H 1317.57 1.22639 1.36499 0
M  V30 12656 H 1315.96 0.595562 3.91496 0
M  V30 12657 H 1317.13 3.35326 3.16059 0
M  V30 12658 H 1315.44 2.91946 2.96911 0
M  V30 12659 H 1318.04 1.25524 5.19757 0
M  V30 12660 H 1318.38 -0.108362 4.16159 0
M  V30 12661 H 1318.92 1.51962 3.67631 0
M  V30 12662 H 1315.66 4.18748 5.04311 0
M  V30 12663 H 1315.18 2.522 5.44201 0
M  V30 12664 H 1316.86 3.05617 5.70269 0
M  V30 12665 N 1316.99 -1.36373 0.789944 0
M  V30 12666 C 1318.26 -1.9349 0.286543 0
M  V30 12667 C 1318.64 -1.7218 -1.22136 0
M  V30 12668 O 1317.99 -1.08106 -2.01309 0
M  V30 12669 C 1318.2 -3.42316 0.679749 0
M  V30 12670 C 1319.55 -4.19442 0.659791 0
M  V30 12671 O 1320.57 -3.50758 0.620256 0
M  V30 12672 O 1319.43 -5.41957 0.703159 0
M  V30 12673 H 1316.53 -0.823942 0.0710537 0
M  V30 12674 H 1319.07 -1.45551 0.872523 0
M  V30 12675 H 1317.85 -3.51485 1.7197 0
M  V30 12676 H 1317.47 -3.97542 0.0676823 0
M  V30 12677 N 1318.47 -0.542005 -1.47987 0
M  V30 12678 C 1319.69 -0.0146835 -2.07395 0
M  V30 12679 C 1320.12 1.26266 -1.39422 0
M  V30 12680 O 1319.47 1.75259 -0.464118 0
M  V30 12681 C 1319.52 0.179937 -3.60151 0
M  V30 12682 O 1318.63 1.24596 -3.93128 0
M  V30 12683 H 1317.97 -0.0445076 -0.662507 0
M  V30 12684 H 1320.5 -0.753352 -1.90226 0
M  V30 12685 H 1320.51 0.398876 -4.06046 0
M  V30 12686 H 1319.18 -0.753093 -4.09025 0
M  V30 12687 H 1317.76 1.00872 -3.58997 0
M  V30 12688 N 1319.94 1.55134 -0.277709 0
M  V30 12689 C 1320.87 2.256 0.602232 0
M  V30 12690 C 1321.85 1.24708 1.15681 0
M  V30 12691 O 1323.04 1.53433 1.19046 0
M  V30 12692 C 1320.17 2.97907 1.78519 0
M  V30 12693 C 1319.12 4.0575 1.36203 0
M  V30 12694 C 1318.45 4.65644 2.62829 0
M  V30 12695 C 1319.75 5.19801 0.510327 0
M  V30 12696 H 1321.44 2.99396 0.0145622 0
M  V30 12697 H 1318.99 1.43999 0.00556389 0
M  V30 12698 H 1320.94 3.45915 2.40668 0
M  V30 12699 H 1319.67 2.21649 2.39873 0
M  V30 12700 H 1318.33 3.58557 0.763726 0
M  V30 12701 H 1317.97 3.86053 3.22447 0
M  V30 12702 H 1317.67 5.38463 2.35227 0
M  V30 12703 H 1319.2 5.16403 3.25823 0
M  V30 12704 H 1320.61 5.63845 1.03689 0
M  V30 12705 H 1319.01 5.99197 0.329073 0
M  V30 12706 H 1320.08 4.82614 -0.470273 0
M  V30 12707 N 1321.42 0.00503138 1.57599 0
M  V30 12708 C 1322.37 -0.984754 2.08737 0
M  V30 12709 C 1323.34 -1.33822 0.983915 0
M  V30 12710 O 1324.52 -1.43572 1.25665 0
M  V30 12711 C 1321.66 -2.26984 2.59946 0
M  V30 12712 C 1320.78 -1.97496 3.84212 0
M  V30 12713 C 1319.91 -3.20123 4.23904 0
M  V30 12714 C 1318.95 -2.86344 5.40993 0
M  V30 12715 N 1318.09 -4.01524 5.75954 0
M  V30 12716 H 1322.93 -0.541737 2.93034 0
M  V30 12717 H 1320.46 -0.255834 1.44858 0
M  V30 12718 H 1322.42 -3.02117 2.87717 0
M  V30 12719 H 1321.05 -2.68946 1.78516 0
M  V30 12720 H 1320.1 -1.12709 3.63319 0
M  V30 12721 H 1321.42 -1.68602 4.69441 0
M  V30 12722 H 1320.57 -4.03598 4.52983 0
M  V30 12723 H 1319.31 -3.5216 3.37394 0
M  V30 12724 H 1318.31 -2.01278 5.11632 0
M  V30 12725 H 1319.54 -2.5555 6.29183 0
M  V30 12726 H 1317.49 -4.33447 4.92402 0
M  V30 12727 H 1317.4 -3.76171 6.55768 0
M  V30 12728 H 1318.67 -4.85772 6.09628 0
M  V30 12729 N 1322.9 -1.55308 -0.267798 0
M  V30 12730 C 1324.15 -1.75811 -0.996734 0
M  V30 12731 C 1324.47 -0.565161 -1.8663 0
M  V30 12732 O 1323.74 0.419775 -1.9135 0
M  V30 12733 H 1322.32 -0.648353 -0.371008 0
M  V30 12734 H 1324.98 -1.92719 -0.290775 0
M  V30 12735 H 1324.08 -2.66113 -1.63064 0
M  V30 12736 N 1324.38 0.532545 -1.4833 0
M  V30 12737 C 1325.61 1.31331 -1.59874 0
M  V30 12738 C 1326.02 1.87028 -0.258037 0
M  V30 12739 O 1325.38 1.66272 0.752317 0
M  V30 12740 C 1325.43 2.46596 -2.64334 0
M  V30 12741 O 1325.15 1.93195 -3.93201 0
M  V30 12742 C 1326.65 3.38454 -2.86294 0
M  V30 12743 H 1323.87 0.399476 -0.539129 0
M  V30 12744 H 1326.41 0.642696 -1.94138 0
M  V30 12745 H 1324.57 3.09548 -2.32936 0
M  V30 12746 H 1324.98 2.68627 -4.50489 0
M  V30 12747 H 1326.46 4.15687 -3.63192 0
M  V30 12748 H 1326.93 3.93526 -1.95022 0
M  V30 12749 H 1327.54 2.81297 -3.18986 0
M  V30 12750 N 1325.86 1.36875 0.78122 0
M  V30 12751 C 1327.1 1.32949 1.55254 0
M  V30 12752 C 1327.46 -0.0879862 1.91798 0
M  V30 12753 O 1328.66 -0.251878 2.67617 0
M  V30 12754 C 1326.93 2.23382 2.78989 0
M  V30 12755 S 1328.49 2.37218 3.69152 0
M  V30 12756 H 1325.31 0.472105 0.531637 0
M  V30 12757 H 1327.91 1.72529 0.91945 0
M  V30 12758 H 1326.61 3.25307 2.50207 0
M  V30 12759 H 1326.15 1.84852 3.47266 0
M  V30 12760 H 1328.16 1.57575 4.70515 0
M  V30 12761 N 1327.33 -1.00632 1.21289 0
M  V30 12762 C 1328.58 -1.74749 1.04089 0
M  V30 12763 C 1328.93 -1.8773 -0.421349 0
M  V30 12764 O 1328.23 -1.39958 -1.30852 0
M  V30 12765 C 1328.42 -3.1598 1.67007 0
M  V30 12766 C 1328.25 -3.1677 3.19197 0
M  V30 12767 C 1327.02 -3.23425 3.88233 0
M  V30 12768 C 1329.22 -3.01991 4.163 0
M  V30 12769 N 1327.2 -3.13827 5.27623 0
M  V30 12770 C 1328.57 -3.00276 5.42433 0
M  V30 12771 C 1330.63 -2.86284 4.07365 0
M  V30 12772 C 1329.33 -2.84463 6.60661 0
M  V30 12773 C 1331.36 -2.71827 5.25228 0
M  V30 12774 C 1330.72 -2.70787 6.50272 0
M  V30 12775 H 1326.82 -0.649702 0.435213 0
M  V30 12776 H 1329.4 -1.19617 1.53622 0
M  V30 12777 H 1327.57 -3.69384 1.20042 0
M  V30 12778 H 1329.3 -3.78584 1.43025 0
M  V30 12779 H 1326.06 -3.30566 3.3915 0
M  V30 12780 H 1326.48 -3.12374 6.00626 0
M  V30 12781 H 1331.12 -2.85894 3.11487 0
M  V30 12782 H 1328.84 -2.836 7.56701 0
M  V30 12783 H 1332.43 -2.60675 5.20134 0
M  V30 12784 H 1331.31 -2.59732 7.39938 0
M  V30 12785 N 1328.81 -1.02043 -1.20104 0
M  V30 12786 C 1329.74 -0.614421 -2.25271 0
M  V30 12787 C 1330.72 0.37242 -1.65973 0
M  V30 12788 O 1331.91 0.257005 -1.92492 0
M  V30 12789 C 1329.04 0.0442085 -3.47272 0
M  V30 12790 C 1327.99 -0.864019 -4.19188 0
M  V30 12791 C 1327.32 -0.0709551 -5.34653 0
M  V30 12792 C 1328.62 -2.17385 -4.74912 0
M  V30 12793 H 1330.31 -1.49355 -2.59487 0
M  V30 12794 H 1327.86 -0.719591 -1.24731 0
M  V30 12795 H 1329.81 0.339825 -4.20028 0
M  V30 12796 H 1328.53 0.958082 -3.12231 0
M  V30 12797 H 1327.19 -1.1437 -3.48303 0
M  V30 12798 H 1326.84 0.844688 -4.95857 0
M  V30 12799 H 1326.54 -0.67583 -5.83701 0
M  V30 12800 H 1328.07 0.218118 -6.1021 0
M  V30 12801 H 1329.48 -1.94034 -5.39466 0
M  V30 12802 H 1327.88 -2.72991 -5.34412 0
M  V30 12803 H 1328.95 -2.83427 -3.93443 0
M  V30 12804 N 1330.29 1.35952 -0.797165 0
M  V30 12805 C 1331.24 2.31831 -0.188958 0
M  V30 12806 C 1332.23 1.56181 0.656042 0
M  V30 12807 O 1333.44 1.71383 0.550259 0
M  V30 12808 H 1329.81 0.750807 -0.0423354 0
M  V30 12809 H 1331.78 2.80683 -1.0129 0
M  V30 12810 C 1330.53 3.41464 0.655547 0
M  V30 12811 H 1329.86 3.99797 0.0146854 0
M  V30 12812 H 1331.3 4.10853 1.04765 0
M  V30 12813 C 1329.76 2.83696 1.81709 0
M  V30 12814 O 1330.29 2.76484 2.91409 0
M  V30 12815 N 1328.49 2.40876 1.62564 0
M  V30 12816 H 1328.04 2.46941 0.733337 0
M  V30 12817 H 1328 2.02572 2.40441 0
M  V30 12818 N 1331.77 0.549846 1.47697 0
M  V30 12819 C 1333.02 0.0209424 2.01689 0
M  V30 12820 C 1333.33 -1.33417 1.43036 0
M  V30 12821 O 1334.54 -1.95257 1.88646 0
M  V30 12822 C 1332.99 -0.0130171 3.59898 0
M  V30 12823 C 1332.6 1.3384 4.2754 0
M  V30 12824 C 1334.34 -0.489701 4.21666 0
M  V30 12825 C 1332.25 1.26395 5.77735 0
M  V30 12826 H 1331.18 0.00405885 0.753989 0
M  V30 12827 H 1333.83 0.696599 1.69764 0
M  V30 12828 H 1332.21 -0.754168 3.88752 0
M  V30 12829 H 1333.39 2.09668 4.10336 0
M  V30 12830 H 1331.7 1.75242 3.77729 0
M  V30 12831 H 1334.3 -0.563684 5.31721 0
M  V30 12832 H 1334.64 -1.50004 3.88336 0
M  V30 12833 H 1335.18 0.196366 3.97315 0
M  V30 12834 H 1331.92 2.25005 6.15673 0
M  V30 12835 H 1331.44 0.547353 5.97297 0
M  V30 12836 H 1333.11 0.962918 6.39794 0
M  V30 12837 N 1333.25 -1.54984 0.285932 0
M  V30 12838 C 1334.18 -2.20365 -0.630236 0
M  V30 12839 C 1335.19 -1.19168 -1.10918 0
M  V30 12840 O 1336.38 -1.45839 -1.02923 0
M  V30 12841 C 1333.48 -2.8244 -1.87299 0
M  V30 12842 C 1332.65 -4.09429 -1.53905 0
M  V30 12843 C 1331.71 -4.55449 -2.63538 0
M  V30 12844 O 1330.74 -5.20985 -2.29267 0
M  V30 12845 N 1331.94 -4.26498 -3.93802 0
M  V30 12846 H 1334.71 -2.99617 -0.0706044 0
M  V30 12847 H 1332.27 -1.61543 0.107486 0
M  V30 12848 H 1334.26 -3.10167 -2.59959 0
M  V30 12849 H 1332.83 -2.07117 -2.34139 0
M  V30 12850 H 1332.05 -3.88875 -0.645774 0
M  V30 12851 H 1333.34 -4.92146 -1.29111 0
M  V30 12852 H 1332.73 -3.73964 -4.24461 0
M  V30 12853 H 1331.29 -4.5897 -4.62807 0
M  V30 12854 N 1334.72 -0.0133892 -1.57594 0
M  V30 12855 C 1336 0.706416 -1.82398 0
M  V30 12856 C 1336.38 1.91236 -0.893983 0
M  V30 12857 O 1335.73 2.28436 0.0541675 0
M  V30 12858 C 1335.94 1.09951 -3.31228 0
M  V30 12859 C 1337.29 1.49776 -3.97306 0
M  V30 12860 O 1338.31 1.19293 -3.3563 0
M  V30 12861 O 1337.17 2.06511 -5.0598 0
M  V30 12862 H 1334.26 0.345131 -0.751541 0
M  V30 12863 H 1336.81 -0.0398687 -1.69653 0
M  V30 12864 H 1335.58 0.240514 -3.9056 0
M  V30 12865 H 1335.21 1.90447 -3.49021 0
M  V30 12866 N 1336.2 1.55448 0.259558 0
M  V30 12867 C 1337.43 1.81063 1.01148 0
M  V30 12868 C 1337.85 0.58875 1.78649 0
M  V30 12869 O 1337.21 -0.461971 1.75315 0
M  V30 12870 C 1337.26 3.04279 1.93512 0
M  V30 12871 O 1336.36 2.80307 3.02493 0
M  V30 12872 H 1335.7 0.598056 0.288487 0
M  V30 12873 H 1338.23 2.02614 0.284387 0
M  V30 12874 H 1338.24 3.33373 2.35215 0
M  V30 12875 H 1336.92 3.92856 1.36518 0
M  V30 12876 H 1335.5 2.62345 2.65008 0
M  V30 12877 N 1337.68 -0.524672 1.4861 0
M  V30 12878 C 1339.1 -0.853703 1.34848 0
M  V30 12879 C 1339.3 -1.98194 0.363529 0
M  V30 12880 O 1338.35 -2.51597 -0.213348 0
M  V30 12881 C 1339.67 -1.21622 2.75006 0
M  V30 12882 C 1341.21 -1.3258 2.83534 0
M  V30 12883 C 1341.69 -1.72172 4.24406 0
M  V30 12884 N 1343.18 -1.79265 4.27105 0
M  V30 12885 C 1343.91 -2.11296 5.33049 0
M  V30 12886 N 1343.41 -2.41714 6.49266 0
M  V30 12887 N 1345.2 -2.12347 5.20447 0
M  V30 12888 H 1337.35 0.219671 2.11261 0
M  V30 12889 H 1339.62 0.0356444 0.94733 0
M  V30 12890 H 1339.32 -0.460776 3.48669 0
M  V30 12891 H 1339.2 -2.16516 3.0887 0
M  V30 12892 H 1341.58 -2.072 2.10124 0
M  V30 12893 H 1341.67 -0.357943 2.53283 0
M  V30 12894 H 1341.31 -0.981108 4.98334 0
M  V30 12895 H 1341.24 -2.70017 4.52104 0
M  V30 12896 H 1343.73 -1.58013 3.43279 0
M  V30 12897 H 1344.04 -2.65276 7.25843 0
M  V30 12898 H 1342.39 -2.39222 6.52532 0
M  V30 12899 H 1345.58 -1.88044 4.28669 0
M  V30 12900 H 1345.75 -2.36978 6.03113 0
M  V30 12901 N 1339.16 -1.37287 -0.77395 0
M  V30 12902 C 1340.4 -1.33771 -1.54547 0
M  V30 12903 C 1340.76 0.0778134 -1.91842 0
M  V30 12904 O 1341.96 0.237682 -2.67747 0
M  V30 12905 C 1340.23 -2.24859 -2.77801 0
M  V30 12906 S 1341.79 -2.39172 -3.67889 0
M  V30 12907 H 1338.61 -0.474918 -0.529126 0
M  V30 12908 H 1341.21 -1.73015 -0.910287 0
M  V30 12909 H 1339.92 -3.2663 -2.48478 0
M  V30 12910 H 1339.45 -1.86691 -3.4628 0
M  V30 12911 H 1341.46 -1.60068 -4.69673 0
M  V30 12912 N 1340.64 0.999871 -1.21821 0
M  V30 12913 C 1341.55 2.12303 -0.99823 0
M  V30 12914 C 1342.56 1.73924 0.0512923 0
M  V30 12915 O 1343.74 2.00914 -0.139895 0
M  V30 12916 C 1340.8 3.41962 -0.571232 0
M  V30 12917 C 1339.86 3.94483 -1.69356 0
M  V30 12918 C 1339.1 5.17954 -1.28685 0
M  V30 12919 O 1339.32 5.70168 -0.162641 0
M  V30 12920 O 1338.25 5.64051 -2.10071 0
M  V30 12921 H 1342.08 2.3374 -1.93905 0
M  V30 12922 H 1339.67 1.10677 -1.00354 0
M  V30 12923 H 1341.55 4.20001 -0.343134 0
M  V30 12924 H 1340.22 3.21901 0.340814 0
M  V30 12925 H 1339.13 3.17648 -1.97612 0
M  V30 12926 H 1340.46 4.18964 -2.58322 0
M  V30 12927 N 1342.11 1.02678 1.19562 0
M  V30 12928 C 1343.36 0.723086 1.89471 0
M  V30 12929 C 1343.69 -0.746269 1.79289 0
M  V30 12930 O 1342.97 -1.54322 1.18384 0
M  V30 12931 C 1343.25 1.17224 3.40486 0
M  V30 12932 C 1343.1 2.70266 3.5955 0
M  V30 12933 C 1344.42 0.751397 4.33638 0
M  V30 12934 H 1341.54 0.264155 0.688034 0
M  V30 12935 H 1344.18 1.27633 1.40747 0
M  V30 12936 H 1342.33 0.701544 3.82113 0
M  V30 12937 H 1344.01 3.25266 3.27108 0
M  V30 12938 H 1342.25 3.10758 3.02675 0
M  V30 12939 H 1342.92 2.96748 4.65451 0
M  V30 12940 H 1345.4 1.15621 3.99714 0
M  V30 12941 H 1344.27 1.09358 5.37896 0
M  V30 12942 H 1344.53 -0.346367 4.40741 0
M  V30 12943 N 1343.59 -1.35528 0.804364 0
M  V30 12944 C 1344.54 -2.31728 0.20125 0
M  V30 12945 C 1345.53 -1.56527 -0.647751 0
M  V30 12946 O 1346.74 -1.71672 -0.541163 0
M  V30 12947 H 1343.12 -0.750572 0.0463165 0
M  V30 12948 H 1345.09 -2.80142 1.02777 0
M  V30 12949 C 1343.84 -3.41807 -0.637429 0
M  V30 12950 H 1343.16 -3.99799 0.00651699 0
M  V30 12951 H 1344.6 -4.11403 -1.02585 0
M  V30 12952 C 1343.06 -2.84655 -1.80202 0
M  V30 12953 O 1343.59 -2.78026 -2.89939 0
M  V30 12954 N 1341.79 -2.41735 -1.61285 0
M  V30 12955 H 1341.34 -2.47327 -0.720231 0
M  V30 12956 H 1341.3 -2.03844 -2.39364 0
M  V30 12957 N 1345.07 -0.557671 -1.47404 0
M  V30 12958 C 1346.32 -0.0316382 -2.01675 0
M  V30 12959 C 1346.63 1.32656 -1.43742 0
M  V30 12960 O 1347.84 1.94253 -1.89678 0
M  V30 12961 C 1346.3 -0.00606931 -3.59899 0
M  V30 12962 C 1345.9 -1.36106 -4.26825 0
M  V30 12963 C 1347.65 0.467332 -4.2192 0
M  V30 12964 C 1345.55 -1.29457 -5.77057 0
M  V30 12965 H 1344.48 -0.00805738 -0.753957 0
M  V30 12966 H 1347.14 -0.705592 -1.69392 0
M  V30 12967 H 1345.52 0.733541 -3.89147 0
M  V30 12968 H 1346.69 -2.11842 -4.09218 0
M  V30 12969 H 1345.01 -1.77243 -3.76794 0
M  V30 12970 H 1347.6 0.535478 -5.32012 0
M  V30 12971 H 1347.95 1.47942 -3.89126 0
M  V30 12972 H 1348.48 -0.217434 -3.97205 0
M  V30 12973 H 1345.22 -2.28267 -6.14471 0
M  V30 12974 H 1344.74 -0.579022 -5.96999 0
M  V30 12975 H 1346.42 -0.996834 -6.39275 0
M  V30 12976 N 1346.55 1.54831 -0.294147 0
M  V30 12977 C 1347.5 2.24707 0.600795 0
M  V30 12978 C 1348.49 1.25067 1.14257 0
M  V30 12979 O 1349.7 1.42939 1.094 0
M  V30 12980 H 1346.07 0.721399 0.212338 0
M  V30 12981 H 1348.04 2.98398 -0.0111682 0
M  V30 12982 C 1346.79 2.996 1.76451 0
M  V30 12983 H 1346.12 3.76072 1.35684 0
M  V30 12984 H 1347.56 3.51785 2.36692 0
M  V30 12985 C 1346.01 2.0617 2.6645 0
M  V30 12986 O 1346.54 1.62527 3.67353 0
M  V30 12987 N 1344.75 1.7227 2.34033 0
M  V30 12988 H 1344.3 2.07957 1.52025 0
M  V30 12989 H 1344.26 1.10031 2.94518 0
M  V30 12990 N 1348.03 0.0217466 1.57585 0
M  V30 12991 C 1349.28 -0.657187 1.91116 0
M  V30 12992 C 1349.6 -1.7309 0.898039 0
M  V30 12993 O 1348.87 -1.95803 -0.0615116 0
M  V30 12994 H 1347.45 -0.245732 0.705425 0
M  V30 12995 H 1350.11 0.0678096 1.94782 0
M  V30 12996 H 1349.2 -1.11462 2.91518 0
M  V30 12997 N 1349.51 -1.55583 -0.251311 0
M  V30 12998 C 1350.47 -1.89148 -1.29443 0
M  V30 12999 C 1351.47 -0.7676 -1.41296 0
M  V30 13000 O 1352.66 -1.03563 -1.40073 0
M  V30 13001 C 1349.79 -2.11601 -2.67279 0
M  V30 13002 H 1350.98 -2.82416 -1.00901 0
M  V30 13003 H 1348.54 -1.48407 -0.490398 0
M  V30 13004 H 1349.27 -1.20787 -3.00967 0
M  V30 13005 H 1349.06 -2.93449 -2.60058 0
M  V30 13006 H 1350.55 -2.38768 -3.42607 0
M  V30 13007 N 1350.98 0.516783 -1.48886 0
M  V30 13008 C 1352.21 1.29628 -1.61258 0
M  V30 13009 C 1352.63 1.86744 -0.27786 0
M  V30 13010 O 1351.98 1.67061 0.734639 0
M  V30 13011 C 1352.03 2.43779 -2.66935 0
M  V30 13012 O 1351.76 1.89014 -3.95228 0
M  V30 13013 C 1353.26 3.35398 -2.89867 0
M  V30 13014 H 1350.48 0.393736 -0.543335 0
M  V30 13015 H 1353.02 0.622069 -1.94809 0
M  V30 13016 H 1351.18 3.0706 -2.36206 0
M  V30 13017 H 1351.59 2.63833 -4.53312 0
M  V30 13018 H 1353.06 4.11812 -3.6758 0
M  V30 13019 H 1353.54 3.91436 -1.99185 0
M  V30 13020 H 1354.15 2.77898 -3.21952 0
M  V30 13021 N 1352.46 1.37696 0.766659 0
M  V30 13022 C 1353.39 1.36576 1.89392 0
M  V30 13023 C 1354.37 0.233597 1.68488 0
M  V30 13024 O 1355.56 0.434719 1.89272 0
M  V30 13025 C 1352.69 1.17705 3.26746 0
M  V30 13026 C 1351.64 2.27987 3.62224 0
M  V30 13027 C 1350.97 1.94235 4.98174 0
M  V30 13028 C 1352.27 3.70195 3.68447 0
M  V30 13029 H 1353.96 2.30905 1.90587 0
M  V30 13030 H 1351.51 1.11148 0.915538 0
M  V30 13031 H 1353.46 1.15551 4.05248 0
M  V30 13032 H 1352.18 0.198334 3.25997 0
M  V30 13033 H 1350.84 2.29306 2.86032 0
M  V30 13034 H 1350.49 0.948796 4.93971 0
M  V30 13035 H 1350.19 2.68086 5.2288 0
M  V30 13036 H 1351.72 1.93676 5.7907 0
M  V30 13037 H 1353.13 3.70978 4.37091 0
M  V30 13038 H 1351.53 4.43142 4.04654 0
M  V30 13039 H 1352.6 4.03453 2.68986 0
M  V30 13040 N 1353.94 -0.993397 1.22349 0
M  V30 13041 C 1354.89 -2.0834 0.993123 0
M  V30 13042 C 1355.86 -1.65883 -0.0849717 0
M  V30 13043 O 1357.04 -1.90691 0.0645176 0
M  V30 13044 C 1354.18 -3.40252 0.576434 0
M  V30 13045 C 1353.29 -3.96055 1.72524 0
M  V30 13046 C 1352.43 -5.16123 1.25659 0
M  V30 13047 C 1351.47 -5.64062 2.37698 0
M  V30 13048 N 1350.61 -6.7537 1.91883 0
M  V30 13049 H 1355.45 -2.27381 1.92619 0
M  V30 13050 H 1352.98 -1.11476 0.959763 0
M  V30 13051 H 1354.94 -4.16001 0.316021 0
M  V30 13052 H 1353.57 -3.21214 -0.319626 0
M  V30 13053 H 1352.62 -3.17182 2.1 0
M  V30 13054 H 1353.93 -4.27614 2.56802 0
M  V30 13055 H 1353.09 -5.9916 0.953528 0
M  V30 13056 H 1351.83 -4.86186 0.384011 0
M  V30 13057 H 1350.83 -4.79614 2.68794 0
M  V30 13058 H 1352.06 -5.96025 3.25471 0
M  V30 13059 H 1350 -6.47217 1.06986 0
M  V30 13060 H 1349.92 -7.06246 2.69727 0
M  V30 13061 H 1351.19 -7.61914 1.64644 0
M  V30 13062 N 1355.42 -1.03311 -1.19015 0
M  V30 13063 C 1356.64 -0.751686 -1.93299 0
M  V30 13064 C 1357.07 0.68392 -1.75226 0
M  V30 13065 O 1356.43 1.47274 -1.05736 0
M  V30 13066 C 1356.47 -1.11335 -3.42982 0
M  V30 13067 O 1355.58 -0.234434 -4.11733 0
M  V30 13068 H 1354.92 -0.277331 -0.60331 0
M  V30 13069 H 1357.45 -1.38092 -1.5097 0
M  V30 13070 H 1357.46 -1.07204 -3.93664 0
M  V30 13071 H 1356.13 -2.15922 -3.55458 0
M  V30 13072 H 1354.71 -0.3347 -3.71395 0
M  V30 13073 N 1356.9 1.35099 -0.81154 0
M  V30 13074 C 1357.81 2.33499 -0.22705 0
M  V30 13075 C 1358.82 1.62095 0.632562 0
M  V30 13076 O 1360 1.93938 0.543147 0
M  V30 13077 C 1357.06 3.41279 0.610687 0
M  V30 13078 C 1356.12 4.2845 -0.269994 0
M  V30 13079 C 1355.36 5.31083 0.527854 0
M  V30 13080 O 1355.58 5.42499 1.76213 0
M  V30 13081 O 1354.51 6.01842 -0.083862 0
M  V30 13082 H 1358.34 2.85294 -1.04119 0
M  V30 13083 H 1355.92 1.37957 -0.573432 0
M  V30 13084 H 1357.81 4.07121 1.08768 0
M  V30 13085 H 1356.48 2.91746 1.40235 0
M  V30 13086 H 1355.39 3.65572 -0.794234 0
M  V30 13087 H 1356.72 4.81394 -1.02572 0
M  V30 13088 N 1358.37 0.56548 1.47106 0
M  V30 13089 C 1359.61 0.0469867 2.04346 0
M  V30 13090 C 1359.98 -1.28183 1.42944 0
M  V30 13091 O 1361.18 -1.88852 1.91281 0
M  V30 13092 C 1359.45 -0.0357764 3.57382 0
M  V30 13093 S 1361.01 -0.499194 4.35951 0
M  V30 13094 H 1357.83 0.0291355 0.710403 0
M  V30 13095 H 1360.43 0.754085 1.80371 0
M  V30 13096 H 1359.13 0.935578 3.99594 0
M  V30 13097 H 1358.66 -0.766177 3.85867 0
M  V30 13098 H 1360.68 -1.75732 4.6404 0
M  V30 13099 N 1359.85 -1.54672 0.302354 0
M  V30 13100 C 1361.09 -2.02076 -0.30738 0
M  V30 13101 C 1361.46 -1.18603 -1.50988 0
M  V30 13102 O 1362.66 -1.5571 -2.19107 0
M  V30 13103 C 1360.93 -3.5137 -0.65375 0
M  V30 13104 S 1362.49 -4.20733 -1.24615 0
M  V30 13105 H 1359.31 -0.704725 -0.0942521 0
M  V30 13106 H 1361.91 -1.907 0.430542 0
M  V30 13107 H 1360.61 -4.09756 0.229892 0
M  V30 13108 H 1360.14 -3.66784 -1.42243 0
M  V30 13109 H 1362.16 -4.26624 -2.5339 0
M  V30 13110 N 1361.33 -0.0301034 -1.57571 0
M  V30 13111 C 1362.29 0.936465 -2.09196 0
M  V30 13112 C 1363.29 1.25347 -1.00722 0
M  V30 13113 O 1364.48 1.19364 -1.26877 0
M  V30 13114 C 1361.62 2.2527 -2.55864 0
M  V30 13115 H 1362.81 0.489332 -2.95881 0
M  V30 13116 H 1360.36 0.217948 -1.54773 0
M  V30 13117 H 1361.1 2.7461 -1.72511 0
M  V30 13118 H 1360.88 2.03573 -3.35113 0
M  V30 13119 H 1362.37 2.94549 -2.96025 0
M  V30 13120 N 1362.81 1.55714 0.243056 0
M  V30 13121 C 1364.04 1.81786 0.98801 0
M  V30 13122 C 1364.45 0.606352 1.78798 0
M  V30 13123 O 1363.81 -0.425018 1.77482 0
M  V30 13124 C 1363.86 3.06121 1.92281 0
M  V30 13125 O 1363.58 4.22595 1.15521 0
M  V30 13126 C 1365.08 3.45021 2.78344 0
M  V30 13127 H 1362.3 0.604829 0.290557 0
M  V30 13128 H 1364.85 2.02779 0.26478 0
M  V30 13129 H 1363 2.87167 2.60027 0
M  V30 13130 H 1363.41 4.93088 1.78786 0
M  V30 13131 H 1364.89 4.35112 3.39678 0
M  V30 13132 H 1365.37 2.65782 3.49652 0
M  V30 13133 H 1365.97 3.66339 2.16045 0
M  V30 13134 N 1364.29 -0.50888 1.49158 0
M  V30 13135 C 1365.22 -1.62008 1.68154 0
M  V30 13136 C 1366.2 -1.61624 0.53025 0
M  V30 13137 O 1367.38 -1.78489 0.765205 0
M  V30 13138 C 1364.51 -3.00525 1.74075 0
M  V30 13139 C 1363.47 -3.15773 2.88915 0
M  V30 13140 C 1362.79 -4.55562 2.79942 0
M  V30 13141 C 1364.09 -2.96542 4.29953 0
M  V30 13142 H 1365.79 -1.46365 2.61185 0
M  V30 13143 H 1363.33 -0.702705 1.2569 0
M  V30 13144 H 1365.29 -3.78154 1.8595 0
M  V30 13145 H 1364.01 -3.17238 0.776373 0
M  V30 13146 H 1362.67 -2.40567 2.76628 0
M  V30 13147 H 1362.32 -4.6914 1.81429 0
M  V30 13148 H 1362.02 -4.66706 3.57015 0
M  V30 13149 H 1363.54 -5.35262 2.93814 0
M  V30 13150 H 1364.95 -3.63947 4.42963 0
M  V30 13151 H 1363.35 -3.19164 5.08187 0
M  V30 13152 H 1364.42 -1.92745 4.44946 0
M  V30 13153 N 1365.76 -1.381 -0.759346 0
M  V30 13154 C 1367.01 -1.33727 -1.5153 0
M  V30 13155 C 1367.33 0.0739504 -1.9486 0
M  V30 13156 O 1366.6 1.02049 -1.67221 0
M  V30 13157 H 1365.18 -0.492037 -0.562058 0
M  V30 13158 H 1367.85 -1.72719 -0.902995 0
M  V30 13159 H 1366.94 -1.98439 -2.40891 0
M  V30 13160 N 1367.24 0.986894 -1.22875 0
M  V30 13161 C 1368.21 2.0597 -1.00544 0
M  V30 13162 C 1369.21 1.60771 0.0303509 0
M  V30 13163 O 1370.4 1.72945 -0.208753 0
M  V30 13164 C 1367.53 3.36911 -0.519962 0
M  V30 13165 H 1368.72 2.27213 -1.9574 0
M  V30 13166 H 1366.27 1.15935 -1.04827 0
M  V30 13167 H 1367.01 3.21355 0.436078 0
M  V30 13168 H 1366.79 3.71054 -1.26732 0
M  V30 13169 H 1368.28 4.15829 -0.384166 0
M  V30 13170 N 1368.72 1.0394 1.18466 0
M  V30 13171 C 1369.68 0.633804 2.20262 0
M  V30 13172 C 1370.68 -0.308136 1.5782 0
M  V30 13173 O 1371.87 -0.0937087 1.73948 0
M  V30 13174 C 1369.01 -0.0709693 3.40826 0
M  V30 13175 H 1370.2 1.53463 2.57661 0
M  V30 13176 H 1367.75 0.831806 1.32328 0
M  V30 13177 H 1368.49 -0.985659 3.08958 0
M  V30 13178 H 1368.27 0.606023 3.87388 0
M  V30 13179 H 1369.76 -0.341298 4.16203 0
M  V30 13180 N 1370.2 -1.34667 0.818693 0
M  V30 13181 C 1371.44 -1.99131 0.414527 0
M  V30 13182 C 1371.8 -1.63747 -1.01018 0
M  V30 13183 O 1371.09 -0.896699 -1.69322 0
M  V30 13184 C 1371.29 -3.53157 0.549059 0
M  V30 13185 C 1371.12 -4.03505 1.98529 0
M  V30 13186 C 1369.89 -4.32296 2.61627 0
M  V30 13187 C 1372.08 -4.2118 2.95147 0
M  V30 13188 N 1370.07 -4.68651 3.96534 0
M  V30 13189 C 1371.44 -4.60668 4.14952 0
M  V30 13190 C 1373.49 -4.03418 2.91819 0
M  V30 13191 C 1372.19 -4.8425 5.31878 0
M  V30 13192 C 1374.22 -4.28164 4.07958 0
M  V30 13193 C 1373.58 -4.67934 5.26514 0
M  V30 13194 H 1369.68 -0.75607 0.199704 0
M  V30 13195 H 1372.27 -1.63154 1.0625 0
M  V30 13196 H 1370.44 -3.88339 -0.0689894 0
M  V30 13197 H 1372.17 -4.04527 0.118304 0
M  V30 13198 H 1368.92 -4.23051 2.12896 0
M  V30 13199 H 1369.35 -4.9107 4.66025 0
M  V30 13200 H 1373.99 -3.71802 2.01303 0
M  V30 13201 H 1371.71 -5.14734 6.22956 0
M  V30 13202 H 1375.29 -4.15961 4.06777 0
M  V30 13203 H 1374.17 -4.86707 6.14887 0
M  V30 13204 N 1371.68 -0.573274 -1.46804 0
M  V30 13205 C 1372.92 -0.0551522 -2.02025 0
M  V30 13206 C 1373.25 1.30577 -1.44826 0
M  V30 13207 O 1372.52 1.85514 -0.629403 0
M  V30 13208 H 1371.1 -0.0173982 -0.746797 0
M  V30 13209 H 1373.76 -0.746919 -1.8002 0
M  V30 13210 H 1372.85 0.0209326 -3.12093 0
M  V30 13211 N 1373.15 1.5451 -0.310553 0
M  V30 13212 C 1374.38 2.05204 0.301013 0
M  V30 13213 C 1374.8 1.1859 1.46007 0
M  V30 13214 O 1374.16 0.192081 1.8028 0
M  V30 13215 C 1374.21 3.53221 0.725767 0
M  V30 13216 O 1373.31 3.69596 1.82955 0
M  V30 13217 H 1372.66 0.661566 0.0568026 0
M  V30 13218 H 1375.19 1.99473 -0.455178 0
M  V30 13219 H 1375.2 3.9525 1.01198 0
M  V30 13220 H 1373.87 4.15721 -0.122046 0
M  V30 13221 H 1372.45 3.39472 1.54315 0
M  V30 13222 N 1374.63 0.0384594 1.57553 0
M  V30 13223 C 1376.04 -0.499057 1.79906 0
M  V30 13224 C 1376.4 -1.7169 0.949577 0
M  V30 13225 O 1375.52 -2.15788 0.162584 0
M  V30 13226 C 1376.12 -0.912155 3.2629 0
M  V30 13227 C 1374.67 -1.39473 3.49606 0
M  V30 13228 C 1373.82 -0.363859 2.74902 0
M  V30 13229 H 1376.77 0.264433 1.56481 0
M  V30 13230 H 1376.79 -1.77592 3.36513 0
M  V30 13231 H 1376.31 -0.0255928 3.88092 0
M  V30 13232 H 1374.41 -2.3009 2.93068 0
M  V30 13233 H 1374.52 -1.39566 4.58321 0
M  V30 13234 H 1372.88 -0.833993 2.40659 0
M  V30 13235 H 1373.67 0.514398 3.39424 0
M  V30 13236 N 1376.11 -1.55841 -0.234795 0
M  V30 13237 C 1377.35 -1.80007 -0.968334 0
M  V30 13238 C 1377.72 -0.609903 -1.82055 0
M  V30 13239 O 1378.92 -0.730586 -2.58681 0
M  V30 13240 C 1377.19 -3.08991 -1.79609 0
M  V30 13241 S 1378.75 -3.54423 -2.58707 0
M  V30 13242 H 1375.56 -0.632112 -0.325508 0
M  V30 13243 H 1378.17 -1.94081 -0.235082 0
M  V30 13244 H 1376.87 -3.93667 -1.15993 0
M  V30 13245 H 1376.4 -2.97688 -2.57188 0
M  V30 13246 H 1378.42 -3.16713 -3.81978 0
M  V30 13247 N 1377.59 0.500963 -1.49426 0
M  V30 13248 C 1378.5 1.62889 -1.68833 0
M  V30 13249 C 1379.52 1.64367 -0.570932 0
M  V30 13250 O 1380.69 1.82786 -0.845641 0
M  V30 13251 C 1377.76 2.99255 -1.75063 0
M  V30 13252 C 1376.82 3.08404 -2.9864 0
M  V30 13253 C 1376.05 4.38266 -3.04564 0
M  V30 13254 O 1376.27 5.27065 -2.1808 0
M  V30 13255 O 1375.21 4.52387 -3.97026 0
M  V30 13256 H 1379.03 1.49446 -2.64385 0
M  V30 13257 H 1376.62 0.677254 -1.33168 0
M  V30 13258 H 1378.5 3.80303 -1.81515 0
M  V30 13259 H 1377.18 3.1296 -0.826896 0
M  V30 13260 H 1376.08 2.26544 -2.97706 0
M  V30 13261 H 1377.42 2.99626 -3.90494 0
M  V30 13262 N 1379.07 1.38501 0.752011 0
M  V30 13263 C 1380.48 1.19733 1.05529 0
M  V30 13264 C 1380.68 0.047088 2.01445 0
M  V30 13265 O 1379.74 -0.606645 2.45104 0
M  V30 13266 C 1381.05 2.52439 1.63386 0
M  V30 13267 C 1382.6 2.59136 1.7555 0
M  V30 13268 C 1383.08 3.92022 2.36819 0
M  V30 13269 N 1384.57 3.9357 2.44248 0
M  V30 13270 C 1385.3 4.93154 2.92553 0
M  V30 13271 N 1384.8 6.03135 3.40882 0
M  V30 13272 N 1386.59 4.80543 2.91607 0
M  V30 13273 H 1378.74 2.12085 0.115543 0
M  V30 13274 H 1381 0.941134 0.113888 0
M  V30 13275 H 1380.71 3.37072 1.00376 0
M  V30 13276 H 1380.58 2.70947 2.62427 0
M  V30 13277 H 1382.97 1.74897 2.37687 0
M  V30 13278 H 1383.05 2.44494 0.752092 0
M  V30 13279 H 1382.7 4.76684 1.75314 0
M  V30 13280 H 1382.63 4.03976 3.37803 0
M  V30 13281 H 1385.12 3.14133 2.10068 0
M  V30 13282 H 1385.43 6.7505 3.76201 0
M  V30 13283 H 1383.78 6.06752 3.38935 0
M  V30 13284 H 1386.97 3.93733 2.53163 0
M  V30 13285 H 1387.14 5.58303 3.28941 0
M  V30 13286 N 1380.55 -0.980364 1.23396 0
M  V30 13287 C 1381.79 -1.73674 1.07781 0
M  V30 13288 C 1382.15 -1.88227 -0.378759 0
M  V30 13289 O 1383.35 -2.6067 -0.656092 0
M  V30 13290 C 1381.62 -3.09727 1.78337 0
M  V30 13291 S 1383.18 -4.00944 1.78295 0
M  V30 13292 H 1380 -0.597273 0.385728 0
M  V30 13293 H 1382.6 -1.17123 1.56533 0
M  V30 13294 H 1381.3 -2.96786 2.83455 0
M  V30 13295 H 1380.84 -3.71346 1.29868 0
M  V30 13296 H 1382.85 -4.89011 0.841572 0
M  V30 13297 N 1382.02 -1.04567 -1.17913 0
M  V30 13298 C 1382.93 -0.651674 -2.25367 0
M  V30 13299 C 1383.95 0.32437 -1.7095 0
M  V30 13300 O 1385.13 0.178039 -2.00612 0
M  V30 13301 C 1382.19 -0.0259452 -3.4669 0
M  V30 13302 C 1381.25 -1.05163 -4.1622 0
M  V30 13303 C 1380.48 -0.45567 -5.31751 0
M  V30 13304 O 1380.71 0.736698 -5.65623 0
M  V30 13305 O 1379.64 -1.18684 -5.90083 0
M  V30 13306 H 1383.47 -1.54704 -2.61344 0
M  V30 13307 H 1381.05 -0.816852 -1.25092 0
M  V30 13308 H 1382.93 0.322126 -4.20167 0
M  V30 13309 H 1381.61 0.843165 -3.12526 0
M  V30 13310 H 1380.52 -1.45159 -3.44789 0
M  V30 13311 H 1381.85 -1.89168 -4.54397 0
M  V30 13312 N 1383.5 1.34231 -0.825823 0
M  V30 13313 C 1384.43 2.31997 -0.264546 0
M  V30 13314 C 1385.41 1.58375 0.620592 0
M  V30 13315 O 1386.6 1.86341 0.546865 0
M  V30 13316 C 1383.73 3.42557 0.572025 0
M  V30 13317 C 1382.68 4.27454 -0.216219 0
M  V30 13318 C 1382.01 5.29509 0.743279 0
M  V30 13319 C 1383.31 5.02456 -1.42603 0
M  V30 13320 H 1385 2.79189 -1.08139 0
M  V30 13321 H 1382.55 1.34227 -0.521451 0
M  V30 13322 H 1384.5 4.09968 0.974889 0
M  V30 13323 H 1383.22 2.94021 1.42195 0
M  V30 13324 H 1381.88 3.61649 -0.600485 0
M  V30 13325 H 1381.53 4.77234 1.58924 0
M  V30 13326 H 1381.23 5.87188 0.220064 0
M  V30 13327 H 1382.76 5.99789 1.14394 0
M  V30 13328 H 1384.17 5.62706 -1.09702 0
M  V30 13329 H 1382.57 5.69723 -1.88509 0
M  V30 13330 H 1383.64 4.31983 -2.2027 0
M  V30 13331 N 1384.98 0.581051 1.46498 0
M  V30 13332 C 1386.26 -0.000789846 1.956 0
M  V30 13333 C 1386.64 -1.46104 1.52371 0
M  V30 13334 O 1385.98 -2.15005 0.773623 0
M  V30 13335 C 1386.19 0.169534 3.48588 0
M  V30 13336 C 1387.54 0.036499 4.24584 0
M  V30 13337 O 1388.57 0.0982852 3.56064 0
M  V30 13338 O 1387.43 -0.100571 5.46407 0
M  V30 13339 H 1384.52 -0.050749 0.825441 0
M  V30 13340 H 1387.07 0.649252 1.56789 0
M  V30 13341 H 1385.84 1.18473 3.72934 0
M  V30 13342 H 1385.46 -0.517017 3.94224 0
M  V30 13343 N 1386.46 -1.54343 0.318742 0
M  V30 13344 C 1387.69 -2.04894 -0.287378 0
M  V30 13345 C 1388.1 -1.19514 -1.46157 0
M  V30 13346 O 1387.46 -0.224722 -1.81111 0
M  V30 13347 C 1387.51 -3.54124 -0.726505 0
M  V30 13348 O 1387.23 -4.36261 0.400968 0
M  V30 13349 C 1388.73 -4.20748 -1.39594 0
M  V30 13350 H 1385.95 -0.668323 -0.0598724 0
M  V30 13351 H 1388.49 -1.99177 0.463531 0
M  V30 13352 H 1386.65 -3.60145 -1.4274 0
M  V30 13353 H 1387.06 -5.2447 0.0558714 0
M  V30 13354 H 1388.54 -5.26632 -1.65418 0
M  V30 13355 H 1389.01 -3.71566 -2.3417 0
M  V30 13356 H 1389.62 -4.18852 -0.737749 0
M  V30 13357 N 1387.94 -0.0468143 -1.5753 0
M  V30 13358 C 1388.9 0.914225 -2.10177 0
M  V30 13359 C 1389.9 1.24271 -1.02045 0
M  V30 13360 O 1391.09 1.18012 -1.28136 0
M  V30 13361 C 1388.22 2.22544 -2.58238 0
M  V30 13362 H 1389.41 0.457922 -2.96383 0
M  V30 13363 H 1386.97 0.20152 -1.54995 0
M  V30 13364 H 1387.7 2.72765 -1.75413 0
M  V30 13365 H 1387.49 2.00007 -3.37253 0
M  V30 13366 H 1388.98 2.91392 -2.99133 0
M  V30 13367 N 1389.41 1.55964 0.226527 0
M  V30 13368 C 1390.65 1.80518 0.958774 0
M  V30 13369 C 1391.02 0.619549 1.81729 0
M  V30 13370 O 1392.22 0.744294 2.5829 0
M  V30 13371 C 1390.49 3.09939 1.77968 0
M  V30 13372 S 1392.05 3.5579 2.56824 0
M  V30 13373 H 1388.87 0.633829 0.322151 0
M  V30 13374 H 1391.47 1.94203 0.224786 0
M  V30 13375 H 1390.17 3.94277 1.13903 0
M  V30 13376 H 1389.7 2.99047 2.55605 0
M  V30 13377 H 1391.72 3.18734 3.80293 0
M  V30 13378 N 1390.89 -0.493031 1.4969 0
M  V30 13379 C 1392.3 -1.0744 1.52688 0
M  V30 13380 C 1392.65 -1.93612 0.317652 0
M  V30 13381 O 1391.78 -2.0871 -0.571745 0
M  V30 13382 C 1392.37 -1.95523 2.76688 0
M  V30 13383 C 1390.93 -2.48808 2.82438 0
M  V30 13384 C 1390.08 -1.26617 2.46705 0
M  V30 13385 H 1393.03 -0.276589 1.56271 0
M  V30 13386 H 1393.05 -2.80315 2.57301 0
M  V30 13387 H 1392.56 -1.32779 3.6468 0
M  V30 13388 H 1390.67 -3.15168 1.98746 0
M  V30 13389 H 1390.78 -2.85416 3.84805 0
M  V30 13390 H 1389.14 -1.59396 1.98658 0
M  V30 13391 H 1389.93 -0.655695 3.3698 0
M  V30 13392 N 1392.37 -1.38898 -0.744656 0
M  V30 13393 C 1393.79 -1.20291 -1.04892 0
M  V30 13394 C 1393.99 -0.0577705 -2.01417 0
M  V30 13395 O 1393.04 0.593638 -2.45422 0
M  V30 13396 C 1394.36 -2.53302 -1.62045 0
M  V30 13397 C 1395.9 -2.60063 -1.74173 0
M  V30 13398 C 1396.38 -3.93272 -2.34736 0
M  V30 13399 N 1397.87 -3.9486 -2.42157 0
M  V30 13400 C 1398.6 -4.94698 -2.89933 0
M  V30 13401 N 1398.1 -6.04934 -3.37678 0
M  V30 13402 N 1399.89 -4.82083 -2.89055 0
M  V30 13403 H 1392.04 -2.12144 -0.104294 0
M  V30 13404 H 1394.31 -0.941725 -0.108895 0
M  V30 13405 H 1394.01 -3.376 -0.985868 0
M  V30 13406 H 1393.89 -2.72335 -2.60986 0
M  V30 13407 H 1396.27 -1.76155 -2.36756 0
M  V30 13408 H 1396.36 -2.44889 -0.739115 0
M  V30 13409 H 1396 -4.77607 -1.72784 0
M  V30 13410 H 1395.93 -4.05762 -3.35656 0
M  V30 13411 H 1398.42 -3.15243 -2.08399 0
M  V30 13412 H 1398.73 -6.77036 -3.72616 0
M  V30 13413 H 1397.08 -6.08541 -3.35712 0
M  V30 13414 H 1400.27 -3.9507 -2.51072 0
M  V30 13415 H 1400.44 -5.60039 -3.25975 0
M  V30 13416 N 1393.85 0.973806 -1.23914 0
M  V30 13417 C 1395.1 1.71259 -1.07307 0
M  V30 13418 C 1395.42 1.91064 0.389831 0
M  V30 13419 O 1394.69 1.48401 1.27883 0
M  V30 13420 H 1393.27 0.634588 -0.39409 0
M  V30 13421 H 1395.93 1.17184 -1.55737 0
M  V30 13422 H 1395.03 2.69953 -1.56626 0
M  V30 13423 N 1395.33 1.05191 1.17357 0
M  V30 13424 C 1396.26 0.673931 2.23563 0
M  V30 13425 C 1397.24 -0.328284 1.66902 0
M  V30 13426 O 1398.42 -0.205878 1.93106 0
M  V30 13427 C 1395.55 0.0478801 3.47267 0
M  V30 13428 C 1394.51 0.974855 4.1675 0
M  V30 13429 C 1393.83 0.212684 5.34277 0
M  V30 13430 C 1395.13 2.299 4.68981 0
M  V30 13431 H 1396.83 1.56183 2.55436 0
M  V30 13432 H 1394.37 0.752408 1.2278 0
M  V30 13433 H 1396.33 -0.228343 4.20781 0
M  V30 13434 H 1395.05 -0.874963 3.14662 0
M  V30 13435 H 1393.71 1.23564 3.45148 0
M  V30 13436 H 1393.36 -0.712924 4.97922 0
M  V30 13437 H 1393.06 0.830351 5.81703 0
M  V30 13438 H 1394.58 -0.056255 6.10574 0
M  V30 13439 H 1395.99 2.08269 5.34132 0
M  V30 13440 H 1394.39 2.87064 5.26986 0
M  V30 13441 H 1395.46 2.93759 3.8579 0
M  V30 13442 N 1396.8 -1.33791 0.83293 0
M  V30 13443 C 1397.77 -2.27637 0.267196 0
M  V30 13444 C 1398.77 -1.50709 -0.560669 0
M  V30 13445 O 1399.96 -1.70109 -0.375321 0
M  V30 13446 C 1397.09 -3.35136 -0.624248 0
M  V30 13447 H 1398.28 -2.79186 1.09522 0
M  V30 13448 H 1395.84 -1.44093 0.605554 0
M  V30 13449 H 1396.57 -2.88818 -1.47494 0
M  V30 13450 H 1396.36 -3.92087 -0.0319827 0
M  V30 13451 H 1397.85 -4.05113 -1.01355 0
M  V30 13452 N 1398.28 -0.588812 -1.46187 0
M  V30 13453 C 1399.7 -0.250962 -1.57615 0
M  V30 13454 C 1399.9 1.2467 -1.58302 0
M  V30 13455 O 1398.95 2.02876 -1.50325 0
M  V30 13456 C 1400.27 -0.905561 -2.8674 0
M  V30 13457 C 1401.82 -0.879721 -3.00383 0
M  V30 13458 C 1402.29 -1.51398 -4.32253 0
M  V30 13459 N 1403.78 -1.4786 -4.38967 0
M  V30 13460 C 1404.52 -1.93868 -5.39632 0
M  V30 13461 N 1404.01 -2.47876 -6.46938 0
M  V30 13462 N 1405.81 -1.84748 -5.30872 0
M  V30 13463 H 1397.96 -1.56148 -1.43985 0
M  V30 13464 H 1400.22 -0.653028 -0.68721 0
M  V30 13465 H 1399.93 -1.95935 -2.92066 0
M  V30 13466 H 1399.8 -0.417456 -3.74883 0
M  V30 13467 H 1402.19 0.165466 -2.94636 0
M  V30 13468 H 1402.27 -1.40591 -2.137 0
M  V30 13469 H 1401.91 -2.55839 -4.38758 0
M  V30 13470 H 1401.84 -0.962965 -5.17721 0
M  V30 13471 H 1404.33 -1.08387 -3.62023 0
M  V30 13472 H 1404.65 -2.80824 -7.1997 0
M  V30 13473 H 1402.99 -2.51905 -6.47741 0
M  V30 13474 H 1406.18 -1.42307 -4.45944 0
M  V30 13475 H 1406.35 -2.20919 -6.09179 0
M  V30 13476 N 1399.76 1.54172 -0.326923 0
M  V30 13477 C 1401.01 1.99809 0.275554 0
M  V30 13478 C 1401.32 1.21886 1.52981 0
M  V30 13479 O 1402.53 1.57917 2.20849 0
M  V30 13480 C 1400.98 3.55802 0.541543 0
M  V30 13481 C 1400.59 4.42563 -0.695853 0
M  V30 13482 C 1402.34 4.09898 1.10379 0
M  V30 13483 C 1400.24 5.90035 -0.401581 0
M  V30 13484 H 1399.17 0.746406 0.106742 0
M  V30 13485 H 1401.82 1.78155 -0.439669 0
M  V30 13486 H 1400.21 3.73457 1.31704 0
M  V30 13487 H 1401.38 4.36684 -1.47118 0
M  V30 13488 H 1399.7 3.99373 -1.17855 0
M  V30 13489 H 1402.29 5.17672 1.33863 0
M  V30 13490 H 1402.64 3.62089 2.0542 0
M  V30 13491 H 1403.17 3.9589 0.389395 0
M  V30 13492 H 1399.91 6.42046 -1.32126 0
M  V30 13493 H 1399.43 5.98858 0.335977 0
M  V30 13494 H 1401.11 6.46999 -0.0126539 0
M  V30 13495 N 1401.24 0.0551678 1.57503 0
M  V30 13496 C 1402.19 -0.917847 2.11764 0
M  V30 13497 C 1403.16 -1.30624 1.02599 0
M  V30 13498 O 1404.34 -1.39501 1.30169 0
M  V30 13499 C 1401.48 -2.18599 2.67036 0
M  V30 13500 C 1400.59 -1.85173 3.90301 0
M  V30 13501 C 1399.73 -3.06475 4.33874 0
M  V30 13502 C 1398.77 -2.68988 5.49829 0
M  V30 13503 N 1397.9 -3.82997 5.88437 0
M  V30 13504 H 1402.74 -0.448236 2.9461 0
M  V30 13505 H 1400.28 -0.209619 1.45599 0
M  V30 13506 H 1402.24 -2.92811 2.97183 0
M  V30 13507 H 1400.87 -2.6313 1.86982 0
M  V30 13508 H 1399.92 -1.01094 3.66721 0
M  V30 13509 H 1401.23 -1.53582 4.74567 0
M  V30 13510 H 1400.39 -3.88982 4.65594 0
M  V30 13511 H 1399.13 -3.41247 3.48427 0
M  V30 13512 H 1398.13 -1.84899 5.17776 0
M  V30 13513 H 1399.36 -2.35404 6.36994 0
M  V30 13514 H 1397.3 -4.17562 5.05942 0
M  V30 13515 H 1397.22 -3.55118 6.67403 0
M  V30 13516 H 1398.49 -4.66131 6.24773 0
M  V30 13517 N 1402.72 -1.56081 -0.218252 0
M  V30 13518 C 1403.96 -1.78893 -0.940296 0
M  V30 13519 C 1404.29 -0.62425 -1.84738 0
M  V30 13520 O 1403.56 0.358686 -1.92588 0
M  V30 13521 H 1402.14 -0.659828 -0.350193 0
M  V30 13522 H 1404.8 -1.93546 -0.229316 0
M  V30 13523 H 1403.89 -2.71167 -1.54516 0
M  V30 13524 N 1404.2 0.485086 -1.49949 0
M  V30 13525 C 1405.44 1.23999 -1.60474 0
M  V30 13526 C 1405.77 1.91904 -0.297736 0
M  V30 13527 O 1405.05 1.81472 0.699857 0
M  V30 13528 C 1405.33 2.2946 -2.77525 0
M  V30 13529 C 1405.19 1.65952 -4.18067 0
M  V30 13530 C 1406.5 3.30893 -2.90169 0
M  V30 13531 H 1403.62 0.449462 -0.584083 0
M  V30 13532 H 1406.27 0.535795 -1.82289 0
M  V30 13533 H 1404.42 2.89521 -2.59056 0
M  V30 13534 H 1406.09 1.09596 -4.48092 0
M  V30 13535 H 1404.33 0.963079 -4.22974 0
M  V30 13536 H 1405 2.42521 -4.9587 0
M  V30 13537 H 1407.48 2.8084 -3.07031 0
M  V30 13538 H 1406.35 4.02027 -3.73718 0
M  V30 13539 H 1406.61 3.94178 -2.0019 0
M  V30 13540 N 1405.67 1.39291 0.737279 0
M  V30 13541 C 1406.9 1.39659 1.52653 0
M  V30 13542 C 1407.32 -0.00948259 1.88798 0
M  V30 13543 O 1406.67 -0.980249 1.53939 0
M  V30 13544 C 1406.72 2.2674 2.81552 0
M  V30 13545 O 1406.45 3.61871 2.46943 0
M  V30 13546 C 1407.95 2.35466 3.75594 0
M  V30 13547 H 1405.17 0.477108 0.471814 0
M  V30 13548 H 1407.71 1.83077 0.911205 0
M  V30 13549 H 1405.87 1.86741 3.39421 0
M  V30 13550 H 1406.28 4.07897 3.29728 0
M  V30 13551 H 1407.75 3.00649 4.62941 0
M  V30 13552 H 1408.23 1.37314 4.17183 0
M  V30 13553 H 1408.84 2.75925 3.23644 0
M  V30 13554 N 1407.15 -0.967221 1.24429 0
M  V30 13555 C 1408.39 -1.72521 1.09617 0
M  V30 13556 C 1408.76 -1.88618 -0.358774 0
M  V30 13557 O 1409.96 -2.61351 -0.628408 0
M  V30 13558 C 1408.23 -3.07818 1.81612 0
M  V30 13559 S 1409.79 -3.99031 1.82537 0
M  V30 13560 H 1406.6 -0.593148 0.392041 0
M  V30 13561 H 1409.21 -1.15456 1.57766 0
M  V30 13562 H 1407.91 -2.93762 2.86586 0
M  V30 13563 H 1407.44 -3.69948 1.33799 0
M  V30 13564 H 1409.46 -4.88091 0.893391 0
M  V30 13565 N 1408.63 -1.05812 -1.16797 0
M  V30 13566 C 1409.54 -0.675541 -2.24663 0
M  V30 13567 C 1410.56 0.30622 -1.71284 0
M  V30 13568 O 1411.73 0.156752 -2.00789 0
M  V30 13569 C 1408.8 -0.0627149 -3.46643 0
M  V30 13570 C 1407.86 -1.09572 -4.15081 0
M  V30 13571 C 1407.09 -0.512044 -5.31238 0
M  V30 13572 O 1407.31 0.676665 -5.66372 0
M  V30 13573 O 1406.25 -1.24936 -5.88791 0
M  V30 13574 H 1410.07 -1.57467 -2.59688 0
M  V30 13575 H 1407.66 -0.830073 -1.24218 0
M  V30 13576 H 1409.54 0.277543 -4.20485 0
M  V30 13577 H 1408.22 0.80997 -3.13403 0
M  V30 13578 H 1407.12 -1.48807 -3.4323 0
M  V30 13579 H 1408.46 -1.93977 -4.52365 0
M  V30 13580 N 1410.11 1.33347 -0.840014 0
M  V30 13581 C 1411.38 1.92293 -0.358158 0
M  V30 13582 C 1411.76 1.76594 1.15662 0
M  V30 13583 O 1411.11 1.15503 1.97158 0
M  V30 13584 C 1411.32 3.39558 -0.806329 0
M  V30 13585 C 1412.67 4.16705 -0.81501 0
M  V30 13586 O 1413.69 3.48214 -0.75001 0
M  V30 13587 O 1412.55 5.38974 -0.903818 0
M  V30 13588 H 1409.65 0.820737 -0.101585 0
M  V30 13589 H 1412.19 1.42213 -0.925942 0
M  V30 13590 H 1410.97 3.44861 -1.84897 0
M  V30 13591 H 1410.59 3.97017 -0.215181 0
M  V30 13592 N 1411.59 0.596556 1.45873 0
M  V30 13593 C 1412.83 0.0875879 2.02611 0
M  V30 13594 C 1413.16 -1.27438 1.46538 0
M  V30 13595 O 1412.44 -1.83815 0.635779 0
M  V30 13596 C 1412.72 0.0367394 3.60081 0
M  V30 13597 C 1412.58 1.42859 4.26511 0
M  V30 13598 C 1413.89 -0.656795 4.35171 0
M  V30 13599 H 1411.01 0.0333031 0.736247 0
M  V30 13600 H 1413.66 0.766413 1.73857 0
M  V30 13601 H 1411.81 -0.541345 3.8471 0
M  V30 13602 H 1413.48 2.0529 4.13102 0
M  V30 13603 H 1411.72 1.99243 3.85337 0
M  V30 13604 H 1412.39 1.34535 5.35354 0
M  V30 13605 H 1414.87 -0.165553 4.15771 0
M  V30 13606 H 1413.74 -0.661445 5.449 0
M  V30 13607 H 1414 -1.72079 4.07236 0
M  V30 13608 N 1413.06 -1.53996 0.335095 0
M  V30 13609 C 1414.01 -2.26221 -0.541007 0
M  V30 13610 C 1415.01 -1.28053 -1.109 0
M  V30 13611 O 1416.21 -1.4579 -1.05571 0
M  V30 13612 H 1412.59 -0.726775 -0.193136 0
M  V30 13613 H 1414.56 -2.98263 0.0902792 0
M  V30 13614 C 1413.31 -3.04173 -1.68445 0
M  V30 13615 H 1412.63 -3.79537 -1.25665 0
M  V30 13616 H 1414.07 -3.57937 -2.27282 0
M  V30 13617 C 1412.53 -2.13162 -2.6089 0
M  V30 13618 O 1413.06 -1.7221 -3.62914 0
M  V30 13619 N 1411.26 -1.78414 -2.29384 0
M  V30 13620 H 1410.81 -2.11914 -1.46458 0
M  V30 13621 H 1410.77 -1.178 -2.91497 0
M  V30 13622 N 1414.54 -0.0635198 -1.57472 0
M  V30 13623 C 1415.45 0.921531 -2.15743 0
M  V30 13624 C 1416.47 1.33294 -1.11842 0
M  V30 13625 O 1417.64 1.40733 -1.4407 0
M  V30 13626 C 1414.71 2.17378 -2.70088 0
M  V30 13627 C 1413.77 1.81956 -3.88832 0
M  V30 13628 C 1413 3.01211 -4.40577 0
M  V30 13629 O 1413.23 4.14971 -3.9135 0
M  V30 13630 O 1412.16 2.81507 -5.32012 0
M  V30 13631 H 1415.99 0.455899 -3.00259 0
M  V30 13632 H 1413.57 0.159085 -1.48551 0
M  V30 13633 H 1415.45 2.90826 -3.04956 0
M  V30 13634 H 1414.13 2.63055 -1.88637 0
M  V30 13635 H 1413.03 1.05786 -3.58832 0
M  V30 13636 H 1414.37 1.41069 -4.71551 0
M  V30 13637 N 1416.02 1.56195 0.209972 0
M  V30 13638 C 1417.26 1.81525 0.939574 0
M  V30 13639 C 1417.62 0.638789 1.81062 0
M  V30 13640 O 1418.82 0.771648 2.57486 0
M  V30 13641 C 1417.1 3.11809 1.7467 0
M  V30 13642 S 1418.65 3.58494 2.53036 0
M  V30 13643 H 1415.47 0.637211 0.31541 0
M  V30 13644 H 1418.07 1.94431 0.204175 0
M  V30 13645 H 1416.78 3.95463 1.09715 0
M  V30 13646 H 1416.31 3.01742 2.52419 0
M  V30 13647 H 1418.32 3.2275 3.76891 0
M  V30 13648 N 1417.5 -0.477127 1.50204 0
M  V30 13649 C 1418.41 -1.60182 1.71403 0
M  V30 13650 C 1419.42 -1.63437 0.597009 0
M  V30 13651 O 1420.6 -1.81418 0.874614 0
M  V30 13652 C 1417.66 -2.96432 1.79802 0
M  V30 13653 C 1416.73 -3.03614 3.03508 0
M  V30 13654 C 1415.96 -4.33365 3.11497 0
M  V30 13655 O 1416.18 -5.23529 2.26438 0
M  V30 13656 O 1415.12 -4.46013 4.04173 0
M  V30 13657 H 1418.94 -1.45221 2.66729 0
M  V30 13658 H 1416.53 -0.655982 1.34228 0
M  V30 13659 H 1418.41 -3.77367 1.87542 0
M  V30 13660 H 1417.08 -3.11605 0.876581 0
M  V30 13661 H 1415.99 -2.21779 3.01272 0
M  V30 13662 H 1417.32 -2.93376 3.95211 0
M  V30 13663 N 1418.98 -1.3968 -0.729882 0
M  V30 13664 C 1420.22 -1.37385 -1.49175 0
M  V30 13665 C 1420.56 0.0285839 -1.94179 0
M  V30 13666 O 1419.83 0.994516 -1.67152 0
M  V30 13667 C 1420.11 -2.35075 -2.72785 0
M  V30 13668 C 1419.97 -3.84282 -2.33767 0
M  V30 13669 C 1421.29 -2.30515 -3.74901 0
M  V30 13670 H 1418.4 -0.500359 -0.541119 0
M  V30 13671 H 1421.05 -1.7071 -0.834152 0
M  V30 13672 H 1419.2 -2.06787 -3.28894 0
M  V30 13673 H 1420.87 -4.2334 -1.8325 0
M  V30 13674 H 1419.11 -4.00809 -1.65935 0
M  V30 13675 H 1419.78 -4.48131 -3.22309 0
M  V30 13676 H 1422.26 -2.55539 -3.28389 0
M  V30 13677 H 1421.13 -3.00939 -4.5905 0
M  V30 13678 H 1421.4 -1.3119 -4.22187 0
M  V30 13679 N 1420.45 0.960609 -1.2494 0
M  V30 13680 C 1421.7 1.70448 -1.09333 0
M  V30 13681 C 1422.03 1.91012 0.366687 0
M  V30 13682 O 1421.28 1.4743 1.28697 0
M  V30 13683 C 1421.58 3.09564 -1.78619 0
M  V30 13684 C 1421.25 3.08819 -3.28545 0
M  V30 13685 C 1419.91 3.08323 -3.69446 0
M  V30 13686 C 1422.26 3.02606 -4.24357 0
M  V30 13687 C 1419.59 2.99356 -5.04582 0
M  V30 13688 C 1421.94 2.9518 -5.5951 0
M  V30 13689 C 1420.61 2.93017 -5.99748 0
M  V30 13690 H 1419.88 0.623714 -0.400078 0
M  V30 13691 H 1422.52 1.12273 -1.55136 0
M  V30 13692 H 1420.83 3.71247 -1.2523 0
M  V30 13693 H 1422.53 3.6593 -1.64001 0
M  V30 13694 H 1419.12 3.09974 -2.95997 0
M  V30 13695 H 1423.3 3.02113 -3.93753 0
M  V30 13696 H 1418.56 2.96046 -5.34946 0
M  V30 13697 H 1422.73 2.89333 -6.3345 0
M  V30 13698 H 1420.36 2.85824 -7.04421 0
M  V30 13699 N 1421.93 1.0643 1.16234 0
M  V30 13700 C 1423.34 0.806012 1.68405 0
M  V30 13701 C 1423.69 -0.670197 1.84398 0
M  V30 13702 O 1422.82 -1.51975 1.54054 0
M  V30 13703 C 1423.41 1.45654 3.05893 0
M  V30 13704 C 1421.97 1.24599 3.55179 0
M  V30 13705 C 1421.12 1.53216 2.31128 0
M  V30 13706 H 1424.07 1.22759 1.00578 0
M  V30 13707 H 1424.09 0.872616 3.70359 0
M  V30 13708 H 1423.6 2.53092 2.94221 0
M  V30 13709 H 1421.71 0.191407 3.72108 0
M  V30 13710 H 1421.82 1.95967 4.37188 0
M  V30 13711 H 1420.18 0.952755 2.36209 0
M  V30 13712 H 1420.97 2.61816 2.22052 0
M  V30 13713 N 1423.41 -1.329 0.847073 0
M  V30 13714 C 1424.66 -1.9712 0.445872 0
M  V30 13715 C 1424.98 -1.67398 -1.00014 0
M  V30 13716 O 1424.25 -0.977204 -1.69787 0
M  V30 13717 H 1422.83 -0.729247 0.161887 0
M  V30 13718 H 1425.49 -1.62118 1.08184 0
M  V30 13719 H 1424.59 -3.06575 0.584676 0
M  V30 13720 N 1424.89 -0.604284 -1.45555 0
M  V30 13721 C 1426.13 -0.0983316 -2.02561 0
M  V30 13722 C 1426.47 1.26659 -1.47211 0
M  V30 13723 O 1425.74 1.83476 -0.645519 0
M  V30 13724 C 1426.03 -0.0558349 -3.60057 0
M  V30 13725 C 1425.88 -1.45119 -4.25747 0
M  V30 13726 C 1427.2 0.633708 -4.35514 0
M  V30 13727 H 1424.32 -0.0372071 -0.73606 0
M  V30 13728 H 1426.96 -0.775623 -1.73448 0
M  V30 13729 H 1425.11 0.520935 -3.84992 0
M  V30 13730 H 1426.78 -2.07478 -4.12008 0
M  V30 13731 H 1425.02 -2.01283 -3.84275 0
M  V30 13732 H 1425.69 -1.37372 -5.34633 0
M  V30 13733 H 1428.17 0.143501 -4.15852 0
M  V30 13734 H 1427.05 0.632538 -5.45243 0
M  V30 13735 H 1427.31 1.69917 -4.08143 0
M  V30 13736 N 1426.37 1.53816 -0.343257 0
M  V30 13737 C 1427.61 2.0282 0.253695 0
M  V30 13738 C 1427.97 1.22564 1.47791 0
M  V30 13739 O 1429.17 1.61464 2.14902 0
M  V30 13740 C 1427.44 3.5298 0.560361 0
M  V30 13741 S 1429 4.23889 1.13416 0
M  V30 13742 H 1425.82 0.706976 0.0755344 0
M  V30 13743 H 1428.42 1.89492 -0.480951 0
M  V30 13744 H 1427.13 4.09002 -0.338451 0
M  V30 13745 H 1426.66 3.70426 1.32468 0
M  V30 13746 H 1428.67 4.33192 2.4199 0
M  V30 13747 N 1427.84 0.0718701 1.57436 0
M  V30 13748 C 1429.26 -0.460784 1.80924 0
M  V30 13749 C 1429.61 -1.69637 0.985781 0
M  V30 13750 O 1428.73 -2.15395 0.208319 0
M  V30 13751 C 1429.33 -0.842738 3.28151 0
M  V30 13752 C 1427.89 -1.32026 3.52486 0
M  V30 13753 C 1427.03 -0.305466 2.75612 0
M  V30 13754 H 1429.98 0.297566 1.55885 0
M  V30 13755 H 1430 -1.70414 3.40205 0
M  V30 13756 H 1429.52 0.056733 3.88059 0
M  V30 13757 H 1427.62 -2.23822 2.97883 0
M  V30 13758 H 1427.73 -1.29813 4.61178 0
M  V30 13759 H 1426.09 -0.782758 2.42374 0
M  V30 13760 H 1426.88 0.586279 3.38257 0
M  V30 13761 N 1429.32 -1.56304 -0.201686 0
M  V30 13762 C 1430.27 -1.94901 -1.26949 0
M  V30 13763 C 1431.26 -0.833574 -1.47472 0
M  V30 13764 O 1432.47 -1.01854 -1.48411 0
M  V30 13765 H 1428.85 -0.619663 -0.426053 0
M  V30 13766 H 1430.82 -2.83964 -0.9169 0
M  V30 13767 C 1429.57 -2.29913 -2.60835 0
M  V30 13768 H 1428.89 -3.15268 -2.45858 0
M  V30 13769 H 1430.33 -2.60789 -3.34313 0
M  V30 13770 C 1428.79 -1.13136 -3.17335 0
M  V30 13771 O 1429.32 -0.402915 -3.99674 0
M  V30 13772 N 1427.52 -0.909912 -2.75987 0
M  V30 13773 H 1427.07 -1.50402 -2.09134 0
M  V30 13774 H 1427.03 -0.130348 -3.1413 0
M  V30 13775 N 1430.8 0.469154 -1.50455 0
M  V30 13776 C 1432.05 1.21868 -1.61222 0
M  V30 13777 C 1432.37 1.9243 -0.315535 0
M  V30 13778 O 1431.64 1.84192 0.667083 0
M  V30 13779 H 1430.22 0.452828 -0.594101 0
M  V30 13780 H 1432.88 0.540993 -1.87241 0
M  V30 13781 H 1431.98 1.96554 -2.42431 0
M  V30 13782 N 1432.28 1.40065 0.722464 0
M  V30 13783 C 1433.69 1.21944 1.02965 0
M  V30 13784 C 1433.89 0.0898069 2.013 0
M  V30 13785 O 1432.95 -0.554519 2.46336 0
M  V30 13786 C 1434.26 2.55848 1.57995 0
M  V30 13787 C 1435.81 2.62801 1.70013 0
M  V30 13788 C 1436.29 3.96957 2.2845 0
M  V30 13789 N 1437.78 3.98662 2.35844 0
M  V30 13790 C 1438.51 4.99248 2.82026 0
M  V30 13791 N 1438.01 6.1023 3.28012 0
M  V30 13792 N 1439.8 4.8662 2.81349 0
M  V30 13793 H 1431.95 2.12283 0.0705301 0
M  V30 13794 H 1434.22 0.943338 0.0938991 0
M  V30 13795 H 1433.92 3.39125 0.932034 0
M  V30 13796 H 1433.8 2.76452 2.5662 0
M  V30 13797 H 1436.18 1.799 2.33923 0
M  V30 13798 H 1436.26 2.46034 0.700062 0
M  V30 13799 H 1435.91 4.80295 1.65164 0
M  V30 13800 H 1435.84 4.1105 3.29158 0
M  V30 13801 H 1438.33 3.18518 2.03358 0
M  V30 13802 H 1438.64 6.82878 3.61797 0
M  V30 13803 H 1436.99 6.13805 3.25988 0
M  V30 13804 H 1440.18 3.99015 2.44755 0
M  V30 13805 H 1440.35 5.65155 3.17024 0
M  V30 13806 N 1433.76 -0.95397 1.25448 0
M  V30 13807 C 1435 -1.71348 1.11441 0
M  V30 13808 C 1435.36 -1.88988 -0.338748 0
M  V30 13809 O 1436.56 -2.62003 -0.600652 0
M  V30 13810 C 1434.83 -3.05874 1.84867 0
M  V30 13811 S 1436.39 -3.97072 1.86759 0
M  V30 13812 H 1433.21 -0.588957 0.39831 0
M  V30 13813 H 1435.81 -1.13776 1.58982 0
M  V30 13814 H 1434.52 -2.90706 2.89686 0
M  V30 13815 H 1434.05 -3.68508 1.37715 0
M  V30 13816 H 1436.06 -4.87116 0.945109 0
M  V30 13817 N 1435.24 -1.07045 -1.15668 0
M  V30 13818 C 1436.48 -0.792908 -1.86657 0
M  V30 13819 C 1436.81 0.679213 -1.81935 0
M  V30 13820 O 1436.09 1.49822 -1.2403 0
M  V30 13821 C 1436.37 -1.2978 -3.35901 0
M  V30 13822 C 1436.23 -2.83424 -3.49272 0
M  V30 13823 C 1437.54 -0.911821 -4.30551 0
M  V30 13824 H 1434.66 -0.289509 -0.677756 0
M  V30 13825 H 1437.31 -1.32769 -1.35913 0
M  V30 13826 H 1435.46 -0.84288 -3.79246 0
M  V30 13827 H 1437.13 -3.37182 -3.14811 0
M  V30 13828 H 1435.37 -3.21777 -2.90933 0
M  V30 13829 H 1436.04 -3.13819 -4.54116 0
M  V30 13830 H 1438.52 -1.30376 -3.95147 0
M  V30 13831 H 1437.39 -1.29247 -5.33467 0
M  V30 13832 H 1437.65 0.18255 -4.41723 0
M  V30 13833 N 1436.71 1.32449 -0.85411 0
M  V30 13834 C 1437.66 2.30821 -0.287115 0
M  V30 13835 C 1438.66 1.58823 0.58921 0
M  V30 13836 O 1439.86 1.73563 0.477075 0
M  V30 13837 H 1436.24 0.748336 -0.0741416 0
M  V30 13838 H 1438.21 2.76134 -1.13104 0
M  V30 13839 C 1436.96 3.43937 0.51013 0
M  V30 13840 H 1436.28 3.995 -0.154895 0
M  V30 13841 H 1437.72 4.14927 0.872451 0
M  V30 13842 C 1436.18 2.91147 1.69513 0
M  V30 13843 O 1436.71 2.88595 2.7942 0
M  V30 13844 N 1434.91 2.47554 1.52202 0
M  V30 13845 H 1434.46 2.49829 0.627941 0
M  V30 13846 H 1434.42 2.12587 2.31633 0
M  V30 13847 N 1438.19 0.611994 1.45232 0
M  V30 13848 C 1439.42 0.113618 2.07089 0
M  V30 13849 C 1439.84 -1.1947 1.45288 0
M  V30 13850 O 1439.2 -1.72845 0.547207 0
M  V30 13851 C 1439.25 -0.00789978 3.60599 0
M  V30 13852 O 1438.35 -1.05697 3.98625 0
M  V30 13853 H 1437.69 0.076066 0.659629 0
M  V30 13854 H 1440.22 0.843253 1.86415 0
M  V30 13855 H 1440.23 -0.204692 4.07486 0
M  V30 13856 H 1438.91 0.947386 4.04966 0
M  V30 13857 H 1437.48 -0.836291 3.63401 0
M  V30 13858 N 1439.67 -1.53632 0.351409 0
M  V30 13859 C 1440.62 -2.25281 -0.501724 0
M  V30 13860 C 1441.59 -1.25406 -1.08915 0
M  V30 13861 O 1442.77 -1.54157 -1.1243 0
M  V30 13862 C 1439.91 -3.03491 -1.64278 0
M  V30 13863 C 1439.02 -4.18233 -1.0819 0
M  V30 13864 C 1438.16 -4.83914 -2.1909 0
M  V30 13865 C 1437.2 -5.90712 -1.60394 0
M  V30 13866 N 1436.34 -6.50141 -2.65068 0
M  V30 13867 H 1441.18 -2.97775 0.11579 0
M  V30 13868 H 1438.71 -1.46938 0.0689141 0
M  V30 13869 H 1440.67 -3.47101 -2.31467 0
M  V30 13870 H 1439.3 -2.33279 -2.23116 0
M  V30 13871 H 1438.35 -3.7921 -0.300713 0
M  V30 13872 H 1439.66 -4.95023 -0.612644 0
M  V30 13873 H 1438.82 -5.30635 -2.94128 0
M  V30 13874 H 1437.56 -4.06565 -2.69362 0
M  V30 13875 H 1436.56 -5.43366 -0.838646 0
M  V30 13876 H 1437.79 -6.69973 -1.10964 0
M  V30 13877 H 1435.73 -5.75652 -3.14581 0
M  V30 13878 H 1435.65 -7.22427 -2.22788 0
M  V30 13879 H 1436.92 -7.01513 -3.39852 0
M  V30 13880 N 1441.15 -0.0802183 -1.57396 0
M  V30 13881 C 1442.4 0.585802 -1.93424 0
M  V30 13882 C 1442.72 1.69638 -0.961662 0
M  V30 13883 O 1441.99 1.95897 -0.011202 0
M  V30 13884 H 1440.57 0.219382 -0.714059 0
M  V30 13885 H 1443.23 -0.140055 -1.94396 0
M  V30 13886 H 1442.32 1.00566 -2.95454 0
M  V30 13887 N 1442.63 1.56409 0.193394 0
M  V30 13888 C 1443.85 1.8519 0.933775 0
M  V30 13889 C 1444.28 0.663991 1.75991 0
M  V30 13890 O 1443.63 -0.387198 1.77117 0
M  V30 13891 C 1443.68 3.12212 1.80432 0
M  V30 13892 O 1442.79 2.92884 2.90332 0
M  V30 13893 H 1442.13 0.609754 0.262862 0
M  V30 13894 H 1444.66 2.03638 0.198195 0
M  V30 13895 H 1444.67 3.4305 2.20864 0
M  V30 13896 H 1443.34 3.98292 1.19733 0
M  V30 13897 H 1441.92 2.73349 2.53643 0
M  V30 13898 N 1444.1 -0.461169 1.50702 0
M  V30 13899 C 1445.35 -1.21251 1.62186 0
M  V30 13900 C 1445.68 -1.91735 0.326818 0
M  V30 13901 O 1444.93 -1.83212 -0.687879 0
M  V30 13902 C 1445.23 -2.27213 2.75879 0
M  V30 13903 C 1444.9 -1.73912 4.16011 0
M  V30 13904 C 1443.56 -1.59097 4.54138 0
M  V30 13905 C 1445.91 -1.34477 5.03553 0
M  V30 13906 C 1443.24 -1.03285 5.77537 0
M  V30 13907 C 1445.59 -0.801027 6.27508 0
M  V30 13908 C 1444.26 -0.639586 6.64429 0
M  V30 13909 H 1443.53 -0.443689 0.593482 0
M  V30 13910 H 1446.17 -0.507035 1.84666 0
M  V30 13911 H 1444.48 -3.03707 2.47526 0
M  V30 13912 H 1446.18 -2.85124 2.81967 0
M  V30 13913 H 1442.77 -1.86413 3.85938 0
M  V30 13914 H 1446.95 -1.44753 4.74721 0
M  V30 13915 H 1442.21 -0.895316 6.04809 0
M  V30 13916 H 1446.38 -0.486842 6.94696 0
M  V30 13917 H 1444.01 -0.204966 7.59924 0
M  V30 13918 N 1445.58 -1.40446 -0.715026 0
M  V30 13919 C 1446.53 -1.37235 -1.82073 0
M  V30 13920 C 1447.52 -0.249808 -1.58949 0
M  V30 13921 O 1448.71 -0.488958 -1.70112 0
M  V30 13922 C 1445.84 -1.23786 -3.20206 0
M  V30 13923 C 1444.92 -2.40824 -3.49091 0
M  V30 13924 N 1445.31 -3.66305 -3.4879 0
M  V30 13925 C 1443.61 -2.34215 -3.79551 0
M  V30 13926 C 1444.31 -4.43817 -3.76034 0
M  V30 13927 N 1443.29 -3.73664 -3.94811 0
M  V30 13928 H 1447.09 -2.32195 -1.80174 0
M  V30 13929 H 1444.6 -1.34226 -0.914175 0
M  V30 13930 H 1446.6 -1.19568 -3.99386 0
M  V30 13931 H 1445.26 -0.297938 -3.2333 0
M  V30 13932 H 1446.27 -3.99458 -3.29626 0
M  V30 13933 H 1442.95 -1.48592 -3.90162 0
M  V30 13934 H 1444.34 -5.52674 -3.82101 0
M  V30 13935 N 1447.06 0.947303 -1.25952 0
M  V30 13936 C 1448.3 1.70755 -1.12348 0
M  V30 13937 C 1448.66 1.89165 0.328721 0
M  V30 13938 O 1449.86 2.62318 0.586749 0
M  V30 13939 C 1448.14 3.04889 -1.86486 0
M  V30 13940 S 1449.69 3.96076 -1.88863 0
M  V30 13941 H 1446.51 0.586836 -0.401428 0
M  V30 13942 H 1449.11 1.12932 -1.59583 0
M  V30 13943 H 1447.82 2.89166 -2.91224 0
M  V30 13944 H 1447.35 3.67772 -1.39668 0
M  V30 13945 H 1449.36 4.86608 -0.970929 0
M  V30 13946 N 1448.54 1.07657 1.15099 0
M  V30 13947 C 1449.45 0.711198 2.2356 0
M  V30 13948 C 1450.46 -0.278932 1.7175 0
M  V30 13949 O 1451.64 -0.124788 2.01013 0
M  V30 13950 C 1448.71 0.117855 3.465 0
M  V30 13951 C 1447.77 1.16162 4.13286 0
M  V30 13952 C 1447 0.596494 5.30356 0
M  V30 13953 O 1447.22 -0.586474 5.67377 0
M  V30 13954 O 1446.16 1.34288 5.86729 0
M  V30 13955 H 1449.98 1.61578 2.5715 0
M  V30 13956 H 1447.57 0.84973 1.22882 0
M  V30 13957 H 1449.45 -0.210613 4.20873 0
M  V30 13958 H 1448.12 -0.760008 3.14652 0
M  V30 13959 H 1447.03 1.54249 3.4082 0
M  V30 13960 H 1448.36 2.01149 4.49221 0
M  V30 13961 N 1450.02 -1.31994 0.861122 0
M  V30 13962 C 1451.26 -1.98827 0.474055 0
M  V30 13963 C 1451.62 -1.66627 -0.953916 0
M  V30 13964 O 1452.82 -2.26601 -1.44587 0
M  V30 13965 C 1451.09 -3.50201 0.713743 0
M  V30 13966 S 1452.65 -4.36735 0.425214 0
M  V30 13967 H 1449.47 -0.688534 0.17732 0
M  V30 13968 H 1452.07 -1.6057 1.11523 0
M  V30 13969 H 1450.78 -3.71125 1.75198 0
M  V30 13970 H 1450.31 -3.93355 0.0592289 0
M  V30 13971 H 1452.32 -4.90558 -0.746142 0
M  V30 13972 N 1451.49 -0.619688 -1.44906 0
M  V30 13973 C 1452.91 -0.203309 -1.8559 0
M  V30 13974 C 1453.26 1.24265 -1.51831 0
M  V30 13975 O 1452.38 1.94392 -0.950819 0
M  V30 13976 C 1452.98 -0.362204 -3.36858 0
M  V30 13977 C 1451.54 -0.000423575 -3.764 0
M  V30 13978 C 1450.68 -0.680979 -2.68808 0
M  V30 13979 H 1453.63 -0.825595 -1.35535 0
M  V30 13980 H 1453.65 0.402149 -3.78369 0
M  V30 13981 H 1453.17 -1.41468 -3.61398 0
M  V30 13982 H 1451.27 1.05077 -3.57477 0
M  V30 13983 H 1451.38 -0.402508 -4.77406 0
M  V30 13984 H 1449.74 -0.117407 -2.54429 0
M  V30 13985 H 1450.53 -1.73583 -2.96182 0
M  V30 13986 N 1452.97 1.53444 -0.359552 0
M  V30 13987 C 1453.88 2.29257 0.497834 0
M  V30 13988 C 1454.9 1.34987 1.09793 0
M  V30 13989 O 1456.07 1.68039 1.11017 0
M  V30 13990 C 1453.14 3.06258 1.62502 0
M  V30 13991 C 1452.2 4.16183 1.05308 0
M  V30 13992 C 1451.43 4.89503 2.12655 0
M  V30 13993 O 1451.66 4.6263 3.33661 0
M  V30 13994 O 1450.59 5.75578 1.76051 0
M  V30 13995 H 1454.42 3.03467 -0.118925 0
M  V30 13996 H 1452 1.48884 -0.124111 0
M  V30 13997 H 1453.88 3.5436 2.2805 0
M  V30 13998 H 1452.56 2.3489 2.22729 0
M  V30 13999 H 1451.47 3.72348 0.361679 0
M  V30 14000 H 1452.8 4.897 0.49545 0
M  V30 14001 N 1454.45 0.0885642 1.57351 0
M  V30 14002 C 1455.7 -0.575536 1.93732 0
M  V30 14003 C 1456.02 -1.69126 0.970644 0
M  V30 14004 O 1455.29 -1.95888 0.0215907 0
M  V30 14005 H 1453.87 -0.215592 0.715213 0
M  V30 14006 H 1456.53 0.150362 1.94319 0
M  V30 14007 H 1455.63 -0.989979 2.95983 0
M  V30 14008 N 1455.93 -1.56509 -0.185096 0
M  V30 14009 C 1456.86 -1.98363 -1.23184 0
M  V30 14010 C 1457.84 -0.85709 -1.46929 0
M  V30 14011 O 1459.02 -1.12216 -1.58497 0
M  V30 14012 C 1456.15 -2.33172 -2.57387 0
M  V30 14013 C 1455.11 -3.48658 -2.48236 0
M  V30 14014 C 1454.43 -3.69171 -3.86804 0
M  V30 14015 C 1455.73 -4.82538 -1.99885 0
M  V30 14016 H 1457.43 -2.86053 -0.883982 0
M  V30 14017 H 1454.97 -1.37623 -0.423786 0
M  V30 14018 H 1456.93 -2.61048 -3.30805 0
M  V30 14019 H 1455.65 -1.42377 -2.93933 0
M  V30 14020 H 1454.31 -3.20889 -1.77273 0
M  V30 14021 H 1453.96 -2.75689 -4.20719 0
M  V30 14022 H 1453.66 -4.46868 -3.81553 0
M  V30 14023 H 1455.18 -3.99433 -4.61829 0
M  V30 14024 H 1456.6 -5.0938 -2.63068 0
M  V30 14025 H 1454.99 -5.63775 -2.05614 0
M  V30 14026 H 1456.06 -4.75453 -0.952503 0
M  V30 14027 N 1457.41 0.45317 -1.50944 0
M  V30 14028 C 1458.63 1.22672 -1.66611 0
M  V30 14029 C 1459.05 1.85398 -0.356814 0
M  V30 14030 O 1458.41 1.70026 0.663122 0
M  V30 14031 C 1458.46 2.32238 -2.77034 0
M  V30 14032 O 1458.18 1.72081 -4.02889 0
M  V30 14033 C 1459.68 3.22802 -3.03832 0
M  V30 14034 H 1456.9 0.370337 -0.559546 0
M  V30 14035 H 1459.44 0.538884 -1.97272 0
M  V30 14036 H 1457.6 2.96765 -2.49017 0
M  V30 14037 H 1458.01 2.4437 -4.64095 0
M  V30 14038 H 1459.49 3.95851 -3.84716 0
M  V30 14039 H 1459.96 3.82636 -2.15608 0
M  V30 14040 H 1460.57 2.63993 -3.33449 0
M  V30 14041 N 1458.88 1.40823 0.707568 0
M  V30 14042 C 1459.81 1.44485 1.83429 0
M  V30 14043 C 1460.8 0.304848 1.67346 0
M  V30 14044 O 1461.98 0.514605 1.87258 0
M  V30 14045 C 1459.11 1.31458 3.21459 0
M  V30 14046 C 1458.06 2.43145 3.52228 0
M  V30 14047 C 1457.39 2.15189 4.89487 0
M  V30 14048 C 1458.69 3.85489 3.52414 0
M  V30 14049 H 1460.38 2.38781 1.80622 0
M  V30 14050 H 1457.93 1.14931 0.867572 0
M  V30 14051 H 1459.88 1.32635 3.99983 0
M  V30 14052 H 1458.61 0.336422 3.24863 0
M  V30 14053 H 1457.27 2.41231 2.76049 0
M  V30 14054 H 1456.91 1.15745 4.89502 0
M  V30 14055 H 1456.61 2.90022 5.11039 0
M  V30 14056 H 1458.14 2.18062 5.70334 0
M  V30 14057 H 1459.55 3.89183 4.20963 0
M  V30 14058 H 1457.95 4.59906 3.85495 0
M  V30 14059 H 1459.02 4.14499 2.51632 0
M  V30 14060 N 1460.36 -0.94061 1.26453 0
M  V30 14061 C 1461.64 -1.66421 1.02779 0
M  V30 14062 C 1462.02 -2.06429 -0.441614 0
M  V30 14063 O 1461.37 -1.78854 -1.42209 0
M  V30 14064 C 1461.58 -2.87599 1.97707 0
M  V30 14065 C 1462.93 -3.59237 2.26349 0
M  V30 14066 O 1463.95 -2.97704 1.95577 0
M  V30 14067 O 1462.81 -4.70068 2.78744 0
M  V30 14068 H 1459.9 -0.728813 0.390846 0
M  V30 14069 H 1462.45 -0.99229 1.37665 0
M  V30 14070 H 1461.22 -2.54929 2.96862 0
M  V30 14071 H 1460.84 -3.62516 1.63303 0
M  V30 14072 N 1461.84 -1.08266 -1.14527 0
M  V30 14073 C 1463.09 -0.809856 -1.85164 0
M  V30 14074 C 1463.41 0.666263 -1.83265 0
M  V30 14075 O 1462.68 1.48295 -1.28006 0
M  V30 14076 H 1461.26 -0.296598 -0.685594 0
M  V30 14077 H 1463.92 -1.36834 -1.38789 0
M  V30 14078 H 1463.02 -1.15272 -2.90032 0
M  V30 14079 N 1463.32 1.31536 -0.86811 0
M  V30 14080 C 1464.55 2.00952 -0.492529 0
M  V30 14081 C 1464.96 1.65174 0.914487 0
M  V30 14082 O 1464.32 0.880002 1.59882 0
M  V30 14083 C 1464.37 3.55829 -0.637798 0
M  V30 14084 O 1464.09 3.90326 -1.9894 0
M  V30 14085 C 1465.59 4.42519 -0.262986 0
M  V30 14086 H 1462.81 0.642913 -0.192105 0
M  V30 14087 H 1465.36 1.6781 -1.16876 0
M  V30 14088 H 1463.51 3.87399 -0.0091406 0
M  V30 14089 H 1463.93 4.85043 -1.99583 0
M  V30 14090 H 1465.4 5.50433 -0.415591 0
M  V30 14091 H 1465.88 4.31895 0.797705 0
M  V30 14092 H 1466.48 4.16363 -0.867268 0
M  V30 14093 N 1464.8 0.627364 1.44575 0
M  V30 14094 C 1466.05 0.130094 2.01681 0
M  V30 14095 C 1466.37 -1.25112 1.49572 0
M  V30 14096 O 1465.64 -1.8305 0.697822 0
M  V30 14097 H 1464.22 0.0451032 0.745637 0
M  V30 14098 H 1466.88 0.813218 1.77124 0
M  V30 14099 H 1465.97 0.0949131 3.11956 0
M  V30 14100 N 1466.28 -1.53251 0.367684 0
M  V30 14101 C 1467.69 -1.59591 0.0167132 0
M  V30 14102 C 1467.89 -1.38272 -1.46571 0
M  V30 14103 O 1466.95 -1.18893 -2.22757 0
M  V30 14104 C 1468.26 -2.96932 0.474534 0
M  V30 14105 C 1469.81 -3.10047 0.428934 0
M  V30 14106 C 1470.28 -4.49804 0.862599 0
M  V30 14107 N 1471.77 -4.55925 0.817742 0
M  V30 14108 C 1472.51 -5.62256 1.12496 0
M  V30 14109 N 1472.01 -6.76332 1.50156 0
M  V30 14110 N 1473.8 -5.52251 1.04762 0
M  V30 14111 H 1465.95 -1.6536 1.33303 0
M  V30 14112 H 1468.21 -0.775681 0.544998 0
M  V30 14113 H 1467.92 -3.17679 1.50907 0
M  V30 14114 H 1467.79 -3.76948 -0.137752 0
M  V30 14115 H 1470.18 -2.89009 -0.596473 0
M  V30 14116 H 1470.26 -2.32034 1.07674 0
M  V30 14117 H 1469.9 -4.7158 1.88613 0
M  V30 14118 H 1469.83 -5.2625 0.19202 0
M  V30 14119 H 1472.33 -3.74017 0.540323 0
M  V30 14120 H 1472.64 -7.53412 1.72019 0
M  V30 14121 H 1470.98 -6.77718 1.54024 0
M  V30 14122 H 1474.17 -4.62011 0.752571 0
M  V30 14123 H 1474.35 -6.35022 1.29038 0
M  V30 14124 N 1467.75 -0.0969077 -1.57302 0
M  V30 14125 C 1469 0.567212 -1.94706 0
M  V30 14126 C 1469.33 1.67721 -0.978937 0
M  V30 14127 O 1468.61 1.94496 -0.0123016 0
M  V30 14128 C 1468.89 1.12069 -3.42217 0
M  V30 14129 C 1468.74 0.015615 -4.49797 0
M  V30 14130 C 1470.06 2.0185 -3.91081 0
M  V30 14131 H 1467.18 0.204716 -0.707997 0
M  V30 14132 H 1469.82 -0.167984 -1.89256 0
M  V30 14133 H 1467.97 1.74723 -3.46993 0
M  V30 14134 H 1469.65 -0.61871 -4.57132 0
M  V30 14135 H 1467.89 -0.650529 -4.28895 0
M  V30 14136 H 1468.56 0.443724 -5.50214 0
M  V30 14137 H 1471.04 1.49098 -3.8847 0
M  V30 14138 H 1469.91 2.37502 -4.94858 0
M  V30 14139 H 1470.17 2.93659 -3.3048 0
M  V30 14140 N 1469.23 1.56605 0.176793 0
M  V30 14141 C 1470.47 1.83477 0.900858 0
M  V30 14142 C 1470.84 0.677051 1.79666 0
M  V30 14143 O 1472.04 0.826091 2.55791 0
M  V30 14144 C 1470.31 3.15444 1.68017 0
M  V30 14145 S 1471.87 3.63781 2.45375 0
M  V30 14146 H 1468.68 0.643758 0.301823 0
M  V30 14147 H 1471.29 1.9482 0.162888 0
M  V30 14148 H 1469.99 3.97701 1.01302 0
M  V30 14149 H 1469.52 3.07028 2.45962 0
M  V30 14150 H 1471.54 3.30672 3.6996 0
M  V30 14151 N 1470.71 -0.445159 1.51182 0
M  V30 14152 C 1471.64 -1.5473 1.74874 0
M  V30 14153 C 1472.62 -1.5923 0.598323 0
M  V30 14154 O 1473.81 -1.75083 0.840219 0
M  V30 14155 C 1470.94 -2.92872 1.86664 0
M  V30 14156 C 1469.89 -3.03235 3.02048 0
M  V30 14157 C 1469.22 -4.43279 2.99012 0
M  V30 14158 C 1470.52 -2.7804 4.42144 0
M  V30 14159 H 1472.21 -1.35156 2.67158 0
M  V30 14160 H 1469.76 -0.648763 1.28558 0
M  V30 14161 H 1471.71 -3.69927 2.01822 0
M  V30 14162 H 1470.43 -3.1366 0.910225 0
M  V30 14163 H 1469.09 -2.28617 2.86583 0
M  V30 14164 H 1468.74 -4.61023 2.01163 0
M  V30 14165 H 1468.44 -4.51144 3.76488 0
M  V30 14166 H 1469.96 -5.22319 3.16252 0
M  V30 14167 H 1471.38 -3.44831 4.58 0
M  V30 14168 H 1469.77 -2.97323 5.21267 0
M  V30 14169 H 1470.84 -1.737 4.52721 0
M  V30 14170 N 1472.19 -1.41197 -0.700089 0
M  V30 14171 C 1473.46 -1.30803 -1.4543 0
M  V30 14172 C 1473.84 0.0664987 -2.10995 0
M  V30 14173 O 1473.19 1.08043 -2.01343 0
M  V30 14174 C 1473.4 -2.45815 -2.47742 0
M  V30 14175 C 1474.75 -2.86771 -3.13126 0
M  V30 14176 O 1475.77 -2.45521 -2.58065 0
M  V30 14177 O 1474.63 -3.58086 -4.1284 0
M  V30 14178 H 1471.73 -0.514523 -0.647453 0
M  V30 14179 H 1474.27 -1.53151 -0.73095 0
M  V30 14180 H 1473.05 -3.37557 -1.97917 0
M  V30 14181 H 1472.67 -2.25319 -3.27593 0
M  V30 14182 N 1473.67 0.933891 -1.2695 0
M  V30 14183 C 1474.91 1.67539 -1.1231 0
M  V30 14184 C 1475.23 1.92765 0.331788 0
M  V30 14185 O 1476.43 2.6481 0.598983 0
M  V30 14186 C 1474.89 3.01722 -1.96194 0
M  V30 14187 C 1474.5 2.84216 -3.46302 0
M  V30 14188 C 1476.24 3.79513 -1.90185 0
M  V30 14189 C 1474.15 4.13916 -4.22407 0
M  V30 14190 H 1473.08 0.62839 -0.416704 0
M  V30 14191 H 1475.73 1.03801 -1.5132 0
M  V30 14192 H 1474.11 3.66482 -1.50023 0
M  V30 14193 H 1475.29 2.28261 -4.00292 0
M  V30 14194 H 1473.6 2.1986 -3.53625 0
M  V30 14195 H 1476.2 4.75615 -2.44325 0
M  V30 14196 H 1476.54 4.07019 -0.874129 0
M  V30 14197 H 1477.07 3.21539 -2.34217 0
M  V30 14198 H 1473.81 3.91591 -5.25677 0
M  V30 14199 H 1473.33 4.69558 -3.73196 0
M  V30 14200 H 1475.01 4.82322 -4.31248 0
M  V30 14201 N 1475.14 1.08871 1.13951 0
M  V30 14202 C 1476.56 0.817282 1.37086 0
M  V30 14203 C 1476.76 -0.571159 1.93236 0
M  V30 14204 O 1475.82 -1.32708 2.14813 0
M  V30 14205 C 1477.13 1.90386 2.32752 0
M  V30 14206 C 1478.68 1.93043 2.46381 0
M  V30 14207 C 1479.15 3.00828 3.4535 0
M  V30 14208 N 1480.64 3.0003 3.52897 0
M  V30 14209 C 1481.38 3.80073 4.29339 0
M  V30 14210 N 1480.87 4.70008 5.08984 0
M  V30 14211 N 1482.67 3.68355 4.24583 0
M  V30 14212 H 1474.82 1.98393 0.758537 0
M  V30 14213 H 1477.08 0.861229 0.396219 0
M  V30 14214 H 1476.79 2.90233 1.9864 0
M  V30 14215 H 1476.66 1.77722 3.32708 0
M  V30 14216 H 1479.05 0.938382 2.79783 0
M  V30 14217 H 1479.13 2.09785 1.4637 0
M  V30 14218 H 1478.77 4.00242 3.1268 0
M  V30 14219 H 1478.7 2.8133 4.45153 0
M  V30 14220 H 1481.19 2.3485 2.96064 0
M  V30 14221 H 1481.51 5.27678 5.64602 0
M  V30 14222 H 1479.85 4.74047 5.08236 0
M  V30 14223 H 1483.04 2.9746 3.61435 0
M  V30 14224 H 1483.22 4.30974 4.83906 0
M  V30 14225 N 1476.62 -1.31073 0.875073 0
M  V30 14226 C 1477.55 -2.26485 0.279215 0
M  V30 14227 C 1478.53 -1.5134 -0.594556 0
M  V30 14228 O 1479.72 -1.80393 -0.546849 0
M  V30 14229 C 1476.84 -3.33268 -0.604165 0
M  V30 14230 C 1475.89 -4.26036 0.198944 0
M  V30 14231 S 1476.72 -5.11636 1.58079 0
M  V30 14232 C 1477.88 -6.21932 0.703665 0
M  V30 14233 H 1478.11 -2.76677 1.088 0
M  V30 14234 H 1475.64 -1.38917 0.673898 0
M  V30 14235 H 1477.6 -3.9526 -1.10813 0
M  V30 14236 H 1476.26 -2.8182 -1.38694 0
M  V30 14237 H 1475.46 -5.01759 -0.474755 0
M  V30 14238 H 1475.06 -3.68567 0.635185 0
M  V30 14239 H 1477.35 -6.77448 -0.0835828 0
M  V30 14240 H 1478.29 -6.93465 1.43219 0
M  V30 14241 H 1478.7 -5.63859 0.268954 0
M  V30 14242 N 1478.1 -0.635022 -1.4424 0
M  V30 14243 C 1479.01 0.0686832 -2.34499 0
M  V30 14244 C 1480.03 0.831574 -1.52843 0
M  V30 14245 O 1481.2 0.782954 -1.85558 0
M  V30 14246 C 1478.27 1.03543 -3.30877 0
M  V30 14247 C 1477.33 0.271484 -4.28441 0
M  V30 14248 C 1476.56 1.19218 -5.20214 0
M  V30 14249 O 1476.78 2.43101 -5.16002 0
M  V30 14250 O 1475.72 0.6744 -5.9811 0
M  V30 14251 H 1479.54 -0.673781 -2.96132 0
M  V30 14252 H 1477.13 -0.395211 -1.44078 0
M  V30 14253 H 1479.01 1.59151 -3.90191 0
M  V30 14254 H 1477.69 1.75844 -2.71773 0
M  V30 14255 H 1476.59 -0.327736 -3.72662 0
M  V30 14256 H 1477.93 -0.411584 -4.90476 0
M  V30 14257 N 1479.58 1.53054 -0.375806 0
M  V30 14258 C 1480.51 2.23664 0.500685 0
M  V30 14259 C 1481.52 1.25432 1.03782 0
M  V30 14260 O 1482.71 1.51592 0.942451 0
M  V30 14261 C 1479.81 2.9288 1.70513 0
M  V30 14262 C 1478.99 4.17706 1.29772 0
M  V30 14263 C 1478.04 4.7004 2.36536 0
M  V30 14264 O 1477.07 5.33466 1.98502 0
M  V30 14265 N 1478.27 4.48732 3.68266 0
M  V30 14266 H 1481.04 2.99519 -0.104201 0
M  V30 14267 H 1478.6 1.60641 -0.201488 0
M  V30 14268 H 1480.59 3.24795 2.41433 0
M  V30 14269 H 1479.16 2.20416 2.21665 0
M  V30 14270 H 1478.38 3.91978 0.41795 0
M  V30 14271 H 1479.67 4.98837 1.00197 0
M  V30 14272 H 1479.07 3.98075 4.01936 0
M  V30 14273 H 1477.62 4.85172 4.3526 0
M  V30 14274 N 1481.06 0.105248 1.57248 0
M  V30 14275 C 1482.3 -0.559306 1.96599 0
M  V30 14276 C 1482.66 -1.64717 0.986529 0
M  V30 14277 O 1483.86 -2.36965 1.2689 0
M  V30 14278 C 1482.13 -1.09085 3.40346 0
M  V30 14279 S 1483.69 -1.76586 4.017 0
M  V30 14280 H 1480.51 -0.182213 0.687255 0
M  V30 14281 H 1483.11 0.187064 1.94603 0
M  V30 14282 H 1481.82 -0.287734 4.0939 0
M  V30 14283 H 1481.35 -1.87282 3.45961 0
M  V30 14284 H 1483.36 -3.05078 3.91334 0
M  V30 14285 N 1482.53 -1.56697 -0.168486 0
M  V30 14286 C 1483.76 -1.86022 -0.898847 0
M  V30 14287 C 1484.17 -0.688909 -1.76212 0
M  V30 14288 O 1483.52 0.35111 -1.80313 0
M  V30 14289 C 1483.58 -3.09795 -1.82394 0
M  V30 14290 C 1483.24 -4.42553 -1.13999 0
M  V30 14291 C 1484.24 -5.1745 -0.504092 0
M  V30 14292 C 1481.92 -4.89288 -1.1359 0
M  V30 14293 C 1483.92 -6.37274 0.126758 0
M  V30 14294 C 1481.6 -6.09041 -0.501222 0
M  V30 14295 C 1482.6 -6.82878 0.128998 0
M  V30 14296 O 1482.29 -8.00359 0.753658 0
M  V30 14297 H 1482.02 -0.621283 -0.266426 0
M  V30 14298 H 1484.58 -2.04674 -0.172562 0
M  V30 14299 H 1482.81 -2.87096 -2.59061 0
M  V30 14300 H 1484.5 -3.25544 -2.42438 0
M  V30 14301 H 1485.26 -4.82424 -0.499207 0
M  V30 14302 H 1481.14 -4.31754 -1.61584 0
M  V30 14303 H 1484.68 -6.94846 0.619267 0
M  V30 14304 H 1480.58 -6.43532 -0.5037 0
M  V30 14305 H 1481.35 -8.1589 0.653188 0
M  V30 14306 N 1484.01 0.437135 -1.51416 0
M  V30 14307 C 1484.94 1.538 -1.75692 0
M  V30 14308 C 1485.92 1.5891 -0.606759 0
M  V30 14309 O 1487.11 1.74635 -0.849492 0
M  V30 14310 C 1484.24 2.91877 -1.88215 0
M  V30 14311 C 1483.19 3.01628 -3.03652 0
M  V30 14312 C 1482.52 4.41687 -3.01358 0
M  V30 14313 C 1483.82 2.75691 -4.43612 0
M  V30 14314 H 1485.51 1.33737 -2.67871 0
M  V30 14315 H 1483.06 0.641936 -1.289 0
M  V30 14316 H 1485.01 3.68851 -2.03781 0
M  V30 14317 H 1483.74 3.13173 -0.926847 0
M  V30 14318 H 1482.39 2.27094 -2.87791 0
M  V30 14319 H 1482.04 4.5995 -2.03605 0
M  V30 14320 H 1481.74 4.49141 -3.78875 0
M  V30 14321 H 1483.27 5.20634 -3.19018 0
M  V30 14322 H 1484.68 3.42398 -4.59822 0
M  V30 14323 H 1483.08 2.94554 -5.22836 0
M  V30 14324 H 1484.15 1.71297 -4.53636 0
M  V30 14325 N 1485.49 1.41566 0.692592 0
M  V30 14326 C 1486.44 1.43648 1.80648 0
M  V30 14327 C 1487.41 0.290497 1.6354 0
M  V30 14328 O 1488.59 0.491979 1.84348 0
M  V30 14329 C 1485.73 1.32733 3.18553 0
M  V30 14330 C 1484.85 2.57224 3.47073 0
M  V30 14331 C 1483.98 2.38581 4.74608 0
M  V30 14332 C 1483.02 3.58534 4.96105 0
M  V30 14333 N 1482.16 3.38942 6.14868 0
M  V30 14334 H 1487 2.38847 1.78203 0
M  V30 14335 H 1484.53 1.186 0.870193 0
M  V30 14336 H 1486.49 1.24405 3.9822 0
M  V30 14337 H 1485.12 0.411407 3.20168 0
M  V30 14338 H 1484.17 2.7599 2.6179 0
M  V30 14339 H 1485.49 3.46443 3.58858 0
M  V30 14340 H 1484.64 2.27738 5.62335 0
M  V30 14341 H 1483.38 1.46824 4.65074 0
M  V30 14342 H 1482.38 3.69828 4.06826 0
M  V30 14343 H 1483.61 4.51248 5.07496 0
M  V30 14344 H 1481.55 2.49887 6.06541 0
M  V30 14345 H 1481.47 4.21737 6.27434 0
M  V30 14346 H 1482.74 3.31877 7.05321 0
M  V30 14347 N 1486.97 -0.927146 1.27443 0
M  V30 14348 C 1488.21 -1.67775 1.14991 0
M  V30 14349 C 1488.57 -1.90029 -0.301107 0
M  V30 14350 O 1487.86 -1.47997 -1.21686 0
M  V30 14351 C 1488.06 -3.0472 1.86764 0
M  V30 14352 C 1487.89 -2.95829 3.38696 0
M  V30 14353 C 1486.66 -2.9808 4.08015 0
M  V30 14354 C 1488.85 -2.74905 4.34663 0
M  V30 14355 N 1486.84 -2.79636 5.46513 0
M  V30 14356 C 1488.21 -2.65172 5.60432 0
M  V30 14357 C 1490.26 -2.59797 4.24747 0
M  V30 14358 C 1488.96 -2.41872 6.77415 0
M  V30 14359 C 1490.99 -2.37874 5.41452 0
M  V30 14360 C 1490.35 -2.28884 6.66177 0
M  V30 14361 H 1486.45 -0.620709 0.475651 0
M  V30 14362 H 1489.04 -1.09605 1.60919 0
M  V30 14363 H 1487.21 -3.61002 1.43291 0
M  V30 14364 H 1488.94 -3.68722 1.66812 0
M  V30 14365 H 1485.69 -3.08329 3.59486 0
M  V30 14366 H 1486.12 -2.73544 6.19276 0
M  V30 14367 H 1490.76 -2.65506 3.29039 0
M  V30 14368 H 1488.48 -2.34903 7.73205 0
M  V30 14369 H 1492.06 -2.27069 5.35659 0
M  V30 14370 H 1490.94 -2.12149 7.54959 0
M  V30 14371 N 1488.45 -1.09474 -1.13372 0
M  V30 14372 C 1489.72 -0.743485 -1.80919 0
M  V30 14373 C 1490.1 0.771414 -1.965 0
M  V30 14374 O 1489.45 1.694 -1.53349 0
M  V30 14375 C 1489.66 -1.48309 -3.1592 0
M  V30 14376 C 1491.01 -1.64921 -3.91263 0
M  V30 14377 O 1492.03 -1.44564 -3.25545 0
M  V30 14378 O 1490.89 -1.98595 -5.09139 0
M  V30 14379 H 1487.99 -0.26713 -0.782669 0
M  V30 14380 H 1490.53 -1.19697 -1.20294 0
M  V30 14381 H 1489.3 -2.51456 -2.99809 0
M  V30 14382 H 1488.93 -1.02181 -3.84246 0
M  V30 14383 N 1489.92 1.30607 -0.882012 0
M  V30 14384 C 1490.83 2.31967 -0.350503 0
M  V30 14385 C 1491.85 1.6522 0.54575 0
M  V30 14386 O 1493.03 1.96544 0.439581 0
M  V30 14387 C 1490.09 3.44037 0.428924 0
M  V30 14388 C 1489.15 4.26417 -0.496727 0
M  V30 14389 C 1488.39 5.33135 0.245597 0
M  V30 14390 O 1488.61 5.51077 1.47209 0
M  V30 14391 O 1487.54 6.00551 -0.402767 0
M  V30 14392 H 1491.37 2.79374 -1.19095 0
M  V30 14393 H 1488.95 1.34723 -0.645754 0
M  V30 14394 H 1490.84 4.12314 0.870346 0
M  V30 14395 H 1489.51 2.9877 1.24573 0
M  V30 14396 H 1488.42 3.60848 -0.986899 0
M  V30 14397 H 1489.75 4.7528 -1.27945 0
M  V30 14398 N 1491.4 0.642663 1.43901 0
M  V30 14399 C 1492.68 0.0821715 1.95427 0
M  V30 14400 C 1493.06 -1.3951 1.58431 0
M  V30 14401 O 1492.41 -2.11531 0.864118 0
M  V30 14402 C 1492.62 0.317229 3.47555 0
M  V30 14403 C 1493.97 0.216547 4.24047 0
M  V30 14404 O 1494.99 0.249216 3.55327 0
M  V30 14405 O 1493.85 0.131269 5.46342 0
M  V30 14406 H 1490.94 -0.0156936 0.826851 0
M  V30 14407 H 1493.49 0.715168 1.53894 0
M  V30 14408 H 1492.26 1.34184 3.67574 0
M  V30 14409 H 1491.88 -0.349348 3.96062 0
M  V30 14410 N 1492.88 -1.52852 0.383918 0
M  V30 14411 C 1493.79 -2.3002 -0.461298 0
M  V30 14412 C 1494.81 -1.36717 -1.07631 0
M  V30 14413 O 1495.98 -1.69784 -1.08329 0
M  V30 14414 C 1493.05 -3.08804 -1.57609 0
M  V30 14415 C 1492.11 -4.17806 -0.986737 0
M  V30 14416 C 1491.34 -4.92825 -2.04841 0
M  V30 14417 O 1491.57 -4.67879 -3.26259 0
M  V30 14418 O 1490.5 -5.78306 -1.66871 0
M  V30 14419 H 1494.33 -3.03239 0.167189 0
M  V30 14420 H 1491.91 -1.48667 0.147781 0
M  V30 14421 H 1493.79 -3.57943 -2.22384 0
M  V30 14422 H 1492.47 -2.38404 -2.18964 0
M  V30 14423 H 1491.37 -3.72876 -0.302396 0
M  V30 14424 H 1492.71 -4.90426 -0.417481 0
M  V30 14425 N 1494.36 -0.113586 -1.5719 0
M  V30 14426 C 1495.6 0.548872 -1.96893 0
M  V30 14427 C 1495.96 1.64191 -0.99525 0
M  V30 14428 O 1497.16 2.36289 -1.28145 0
M  V30 14429 C 1495.44 1.07279 -3.40919 0
M  V30 14430 S 1496.99 1.74453 -4.02631 0
M  V30 14431 H 1493.81 0.178565 -0.688212 0
M  V30 14432 H 1496.41 -0.197382 -1.94501 0
M  V30 14433 H 1495.12 0.266019 -4.09537 0
M  V30 14434 H 1494.65 1.85444 -3.46949 0
M  V30 14435 H 1496.66 3.02998 -3.92946 0
M  V30 14436 N 1495.84 1.56784 0.160173 0
M  V30 14437 C 1497.09 1.81812 0.873344 0
M  V30 14438 C 1497.4 0.692686 1.82924 0
M  V30 14439 O 1498.61 0.828202 2.5856 0
M  V30 14440 C 1497.06 3.222 1.6036 0
M  V30 14441 C 1496.67 4.42642 0.690776 0
M  V30 14442 C 1498.41 3.56512 2.30433 0
M  V30 14443 C 1496.32 5.74052 1.4219 0
M  V30 14444 H 1495.25 0.678013 0.32987 0
M  V30 14445 H 1497.9 1.83066 0.126164 0
M  V30 14446 H 1496.28 3.15295 2.39593 0
M  V30 14447 H 1497.46 4.60754 -0.0653914 0
M  V30 14448 H 1495.77 4.16282 0.09913 0
M  V30 14449 H 1498.37 4.51942 2.85749 0
M  V30 14450 H 1498.71 2.8193 3.06303 0
M  V30 14451 H 1499.25 3.65019 1.58132 0
M  V30 14452 H 1495.98 6.51694 0.705318 0
M  V30 14453 H 1495.5 5.59899 2.15111 0
M  V30 14454 H 1497.18 6.16395 1.96639 0
M  V30 14455 N 1497.32 -0.429099 1.51646 0
M  V30 14456 C 1498.27 -1.52004 1.69937 0
M  V30 14457 C 1499.25 -1.51087 0.5533 0
M  V30 14458 O 1500.44 -1.57401 0.809558 0
M  V30 14459 C 1497.57 -2.90123 1.83531 0
M  V30 14460 C 1496.66 -2.95764 3.03948 0
M  V30 14461 N 1497.05 -2.71135 4.26989 0
M  V30 14462 C 1495.35 -3.26927 3.03372 0
M  V30 14463 C 1496.05 -2.82831 5.08312 0
M  V30 14464 N 1495.02 -3.14856 4.43133 0
M  V30 14465 H 1498.82 -1.31726 2.62727 0
M  V30 14466 H 1496.34 -0.63653 1.49406 0
M  V30 14467 H 1498.34 -3.68618 1.94747 0
M  V30 14468 H 1497 -3.11415 0.919285 0
M  V30 14469 H 1498.01 -2.45906 4.55797 0
M  V30 14470 H 1494.68 -3.53941 2.21432 0
M  V30 14471 H 1496.07 -2.67673 6.1628 0
M  V30 14472 N 1498.79 -1.41931 -0.685074 0
M  V30 14473 C 1500.2 -1.37279 -1.26536 0
M  V30 14474 C 1500.56 -0.0610089 -1.96105 0
M  V30 14475 O 1499.68 0.840508 -1.9941 0
M  V30 14476 C 1500.28 -2.48658 -2.30119 0
M  V30 14477 C 1498.83 -2.47371 -2.83698 0
M  V30 14478 C 1497.98 -2.2797 -1.57876 0
M  V30 14479 H 1500.93 -1.51294 -0.479132 0
M  V30 14480 H 1500.95 -2.18319 -3.11636 0
M  V30 14481 H 1500.47 -3.44118 -1.79456 0
M  V30 14482 H 1498.57 -1.55699 -3.3851 0
M  V30 14483 H 1498.68 -3.44052 -3.33414 0
M  V30 14484 H 1497.04 -1.7604 -1.84071 0
M  V30 14485 H 1497.83 -3.25471 -1.09194 0
M  V30 14486 N 1500.27 0.920374 -1.27933 0
M  V30 14487 C 1501.52 1.67131 -1.1487 0
M  V30 14488 C 1501.85 1.91816 0.303343 0
M  V30 14489 O 1501.13 1.51379 1.22125 0
M  V30 14490 C 1501.41 3.03332 -1.94066 0
M  V30 14491 C 1501.26 2.85842 -3.47296 0
M  V30 14492 C 1502.58 4.03773 -1.75087 0
M  V30 14493 H 1499.7 0.606537 -0.418666 0
M  V30 14494 H 1502.34 1.06755 -1.57173 0
M  V30 14495 H 1500.49 3.54869 -1.58116 0
M  V30 14496 H 1502.16 2.41367 -3.93115 0
M  V30 14497 H 1500.41 2.21035 -3.73264 0
M  V30 14498 H 1501.08 3.82535 -3.97958 0
M  V30 14499 H 1503.55 3.61274 -2.06447 0
M  V30 14500 H 1502.43 4.97048 -2.32882 0
M  V30 14501 H 1502.69 4.36512 -0.700665 0
M  V30 14502 N 1501.75 1.10074 1.1279 0
M  V30 14503 C 1503.16 0.859181 1.65756 0
M  V30 14504 C 1503.51 -0.611193 1.86437 0
M  V30 14505 O 1502.64 -1.46997 1.58811 0
M  V30 14506 C 1503.23 1.55312 3.01104 0
M  V30 14507 C 1501.79 1.35836 3.51035 0
M  V30 14508 C 1500.94 1.60491 2.26137 0
M  V30 14509 H 1503.89 1.25897 0.966211 0
M  V30 14510 H 1503.91 0.990001 3.67395 0
M  V30 14511 H 1503.42 2.62325 2.8602 0
M  V30 14512 H 1501.52 0.309694 3.71311 0
M  V30 14513 H 1501.64 2.09777 4.30732 0
M  V30 14514 H 1500 1.02742 2.33058 0
M  V30 14515 H 1500.78 2.68748 2.1361 0
M  V30 14516 N 1503.23 -1.30138 0.888926 0
M  V30 14517 C 1504.48 -1.95602 0.508359 0
M  V30 14518 C 1504.8 -1.70495 -0.946377 0
M  V30 14519 O 1504.07 -1.03073 -1.66592 0
M  V30 14520 H 1502.65 -0.723728 0.185006 0
M  V30 14521 H 1505.31 -1.58594 1.13286 0
M  V30 14522 H 1504.4 -3.04559 0.681915 0
M  V30 14523 N 1504.71 -0.650285 -1.43559 0
M  V30 14524 C 1505.65 0.043098 -2.3076 0
M  V30 14525 C 1506.62 0.81763 -1.44582 0
M  V30 14526 O 1507.81 0.794825 -1.73457 0
M  V30 14527 C 1504.95 1.00557 -3.30125 0
M  V30 14528 C 1504.06 0.227448 -4.31401 0
M  V30 14529 C 1503.2 1.18345 -5.17849 0
M  V30 14530 C 1502.23 0.395596 -6.1082 0
M  V30 14531 N 1501.37 1.30304 -6.89902 0
M  V30 14532 H 1506.21 -0.706402 -2.89506 0
M  V30 14533 H 1503.75 -0.360118 -1.42624 0
M  V30 14534 H 1505.71 1.57717 -3.8624 0
M  V30 14535 H 1504.34 1.72198 -2.73034 0
M  V30 14536 H 1503.39 -0.460391 -3.77604 0
M  V30 14537 H 1504.7 -0.385316 -4.9731 0
M  V30 14538 H 1503.85 1.82578 -5.78576 0
M  V30 14539 H 1502.59 1.83013 -4.52059 0
M  V30 14540 H 1501.6 -0.260099 -5.49184 0
M  V30 14541 H 1502.82 -0.246633 -6.78652 0
M  V30 14542 H 1500.77 1.93657 -6.26764 0
M  V30 14543 H 1500.69 0.744768 -7.52323 0
M  V30 14544 H 1501.95 1.93361 -7.55137 0
M  V30 14545 N 1506.18 1.52647 -0.392018 0
M  V30 14546 C 1507.43 2.01613 0.1893 0
M  V30 14547 C 1507.76 1.27837 1.46588 0
M  V30 14548 O 1507.01 0.368018 1.92209 0
M  V30 14549 C 1507.31 3.53872 0.500914 0
M  V30 14550 C 1506.98 4.45675 -0.684434 0
M  V30 14551 C 1505.64 4.70489 -1.00961 0
M  V30 14552 C 1507.99 4.99825 -1.4773 0
M  V30 14553 C 1505.32 5.46703 -2.12915 0
M  V30 14554 C 1507.67 5.77263 -2.58747 0
M  V30 14555 C 1506.34 6.00355 -2.9177 0
M  V30 14556 H 1505.61 0.737755 0.0692697 0
M  V30 14557 H 1508.25 1.84022 -0.529924 0
M  V30 14558 H 1506.56 3.69551 1.3015 0
M  V30 14559 H 1508.26 3.89256 0.963382 0
M  V30 14560 H 1504.85 4.26527 -0.420985 0
M  V30 14561 H 1509.03 4.80577 -1.23932 0
M  V30 14562 H 1504.29 5.62807 -2.38868 0
M  V30 14563 H 1508.46 6.18223 -3.20583 0
M  V30 14564 H 1506.09 6.59194 -3.7864 0
M  V30 14565 N 1507.66 0.121921 1.57128 0
M  V30 14566 C 1509.08 -0.234655 1.57866 0
M  V30 14567 C 1509.28 -1.66506 1.13482 0
M  V30 14568 O 1508.33 -2.38692 0.823544 0
M  V30 14569 C 1509.65 0.00131784 3.007 0
M  V30 14570 C 1511.2 -0.0643537 3.12934 0
M  V30 14571 C 1511.67 0.143964 4.57774 0
M  V30 14572 N 1513.16 0.0900323 4.63112 0
M  V30 14573 C 1513.9 0.22608 5.72954 0
M  V30 14574 N 1513.39 0.418461 6.91535 0
M  V30 14575 N 1515.19 0.165449 5.61856 0
M  V30 14576 H 1507.34 1.05618 1.84279 0
M  V30 14577 H 1509.6 0.416132 0.851785 0
M  V30 14578 H 1509.31 0.99031 3.3747 0
M  V30 14579 H 1509.18 -0.729266 3.70083 0
M  V30 14580 H 1511.57 -1.04387 2.7602 0
M  V30 14581 H 1511.65 0.698157 2.46088 0
M  V30 14582 H 1511.29 1.12047 4.95387 0
M  V30 14583 H 1511.22 -0.638569 5.22714 0
M  V30 14584 H 1513.71 -0.0550269 3.7786 0
M  V30 14585 H 1514.03 0.513057 7.71095 0
M  V30 14586 H 1512.37 0.454471 6.93512 0
M  V30 14587 H 1515.56 0.0160945 4.68097 0
M  V30 14588 H 1515.73 0.274917 6.47417 0
M  V30 14589 N 1509.14 -1.56867 -0.151857 0
M  V30 14590 C 1510.07 -1.93039 -1.21701 0
M  V30 14591 C 1511.05 -0.795607 -1.41806 0
M  V30 14592 O 1512.24 -1.05076 -1.56497 0
M  V30 14593 C 1509.36 -2.19822 -2.57674 0
M  V30 14594 C 1508.41 -3.42474 -2.54192 0
M  V30 14595 S 1509.24 -4.96199 -2.01363 0
M  V30 14596 C 1510.4 -5.26098 -3.39075 0
M  V30 14597 H 1510.63 -2.83083 -0.90837 0
M  V30 14598 H 1508.16 -1.5021 -0.357265 0
M  V30 14599 H 1510.12 -2.35932 -3.35926 0
M  V30 14600 H 1508.78 -1.30451 -2.8573 0
M  V30 14601 H 1507.98 -3.58476 -3.54276 0
M  V30 14602 H 1507.58 -3.25581 -1.84047 0
M  V30 14603 H 1509.87 -5.19268 -4.35163 0
M  V30 14604 H 1510.81 -6.27588 -3.27931 0
M  V30 14605 H 1511.22 -4.53623 -3.35986 0
M  V30 14606 N 1510.62 0.421051 -1.51871 0
M  V30 14607 C 1511.9 1.18133 -1.55897 0
M  V30 14608 C 1512.28 2.08459 -0.332876 0
M  V30 14609 O 1511.62 2.18114 0.681052 0
M  V30 14610 C 1511.83 1.96902 -2.88151 0
M  V30 14611 C 1513.18 2.53382 -3.4071 0
M  V30 14612 O 1514.21 2.07095 -2.89811 0
M  V30 14613 O 1513.06 3.37846 -4.29561 0
M  V30 14614 H 1510.16 0.538721 -0.627462 0
M  V30 14615 H 1512.7 0.428798 -1.64193 0
M  V30 14616 H 1511.48 1.30659 -3.68841 0
M  V30 14617 H 1511.1 2.79185 -2.83093 0
M  V30 14618 N 1512.1 1.42293 0.677538 0
M  V30 14619 C 1513.06 1.45258 1.77293 0
M  V30 14620 C 1514.06 0.340554 1.57152 0
M  V30 14621 O 1515.25 0.601259 1.63495 0
M  V30 14622 C 1512.38 1.28156 3.15894 0
M  V30 14623 H 1513.57 2.42787 1.76052 0
M  V30 14624 H 1511.13 1.287 0.886908 0
M  V30 14625 H 1511.86 0.315381 3.22763 0
M  V30 14626 H 1511.65 2.08744 3.31916 0
M  V30 14627 H 1513.14 1.33107 3.95818 0
M  V30 14628 N 1513.57 -0.913576 1.28419 0
M  V30 14629 C 1514.81 -1.67716 1.16836 0
M  V30 14630 C 1515.18 -1.8997 -0.278452 0
M  V30 14631 O 1516.38 -2.63781 -0.516994 0
M  V30 14632 C 1514.65 -2.99838 1.94504 0
M  V30 14633 S 1516.21 -3.9093 1.99297 0
M  V30 14634 H 1513.03 -0.575987 0.416845 0
M  V30 14635 H 1515.63 -1.08661 1.62521 0
M  V30 14636 H 1514.33 -2.81343 2.98788 0
M  V30 14637 H 1513.86 -3.6394 1.4937 0
M  V30 14638 H 1515.88 -4.83863 1.0996 0
M  V30 14639 N 1515.05 -1.1067 -1.12204 0
M  V30 14640 C 1516.29 -0.860466 -1.85406 0
M  V30 14641 C 1516.66 0.603027 -1.82284 0
M  V30 14642 O 1517.86 0.965713 -2.50853 0
M  V30 14643 C 1516.13 -1.39677 -3.28976 0
M  V30 14644 S 1517.69 -1.28633 -4.19522 0
M  V30 14645 H 1514.51 -0.31087 -0.639438 0
M  V30 14646 H 1517.11 -1.41263 -1.35148 0
M  V30 14647 H 1515.81 -2.45588 -3.28808 0
M  V30 14648 H 1515.34 -0.841293 -3.84299 0
M  V30 14649 H 1517.36 -0.245599 -4.95592 0
M  V30 14650 N 1516.53 1.29665 -0.895815 0
M  V30 14651 C 1517.77 1.975 -0.526604 0
M  V30 14652 C 1518.13 1.69097 0.909403 0
M  V30 14653 O 1519.34 2.30355 1.38529 0
M  V30 14654 C 1517.61 3.48185 -0.806342 0
M  V30 14655 S 1519.17 4.35454 -0.540857 0
M  V30 14656 H 1515.98 0.68359 -0.195513 0
M  V30 14657 H 1518.59 1.57557 -1.15741 0
M  V30 14658 H 1517.29 3.6635 -1.84976 0
M  V30 14659 H 1516.82 3.9306 -0.163499 0
M  V30 14660 H 1518.84 4.92364 0.615817 0
M  V30 14661 N 1518.01 0.657889 1.43212 0
M  V30 14662 C 1518.97 -0.0214783 2.2919 0
M  V30 14663 C 1519.97 -0.745921 1.42452 0
M  V30 14664 O 1521.16 -0.586468 1.64031 0
M  V30 14665 C 1518.29 -1.04115 3.24612 0
M  V30 14666 H 1519.49 0.735072 2.90752 0
M  V30 14667 H 1517.04 0.419354 1.50569 0
M  V30 14668 H 1517.77 -1.82677 2.67954 0
M  V30 14669 H 1517.56 -0.525285 3.88566 0
M  V30 14670 H 1519.05 -1.51544 3.89132 0
M  V30 14671 N 1519.49 -1.52437 0.400108 0
M  V30 14672 C 1520.73 -2.0201 -0.17887 0
M  V30 14673 C 1521.07 -1.2856 -1.45554 0
M  V30 14674 O 1520.34 -0.389236 -1.90565 0
M  V30 14675 C 1520.62 -3.57453 -0.435784 0
M  V30 14676 C 1520.48 -4.41562 0.85693 0
M  V30 14677 C 1521.8 -4.228 -1.2218 0
M  V30 14678 H 1518.91 -0.734256 -0.063535 0
M  V30 14679 H 1521.56 -1.82406 0.531801 0
M  V30 14680 H 1519.71 -3.74288 -1.04117 0
M  V30 14681 H 1521.38 -4.36456 1.49344 0
M  V30 14682 H 1519.62 -4.08138 1.46989 0
M  V30 14683 H 1520.29 -5.48374 0.631675 0
M  V30 14684 H 1522.77 -4.10009 -0.709359 0
M  V30 14685 H 1521.64 -5.3152 -1.37031 0
M  V30 14686 H 1521.91 -3.81153 -2.23998 0
M  V30 14687 N 1520.96 -0.130252 -1.57061 0
M  V30 14688 C 1522.21 0.523969 -1.9519 0
M  V30 14689 C 1522.53 1.66493 -1.01514 0
M  V30 14690 O 1521.8 1.95762 -0.0735194 0
M  V30 14691 H 1520.38 0.196553 -0.720677 0
M  V30 14692 H 1523.05 -0.20183 -1.93852 0
M  V30 14693 H 1522.14 0.911156 -2.98504 0
M  V30 14694 N 1522.44 1.56945 0.143535 0
M  V30 14695 C 1523.41 1.97616 1.16106 0
M  V30 14696 C 1524.41 0.863113 1.35672 0
M  V30 14697 O 1525.6 1.12966 1.32606 0
M  V30 14698 C 1522.73 2.29511 2.52067 0
M  V30 14699 H 1523.92 2.88696 0.812066 0
M  V30 14700 H 1521.47 1.51433 0.386999 0
M  V30 14701 H 1522.21 1.41233 2.91931 0
M  V30 14702 H 1521.99 3.10667 2.39225 0
M  V30 14703 H 1523.48 2.61802 3.25345 0
M  V30 14704 N 1523.92 -0.412991 1.52093 0
M  V30 14705 C 1524.88 -1.48555 1.7454 0
M  V30 14706 C 1525.88 -1.48563 0.615283 0
M  V30 14707 O 1527.07 -1.50155 0.883119 0
M  V30 14708 C 1524.21 -2.87984 1.82423 0
M  V30 14709 H 1525.4 -1.29945 2.70285 0
M  V30 14710 H 1522.95 -0.643241 1.4245 0
M  V30 14711 H 1523.69 -3.11969 0.885777 0
M  V30 14712 H 1523.47 -2.89381 2.64577 0
M  V30 14713 H 1524.96 -3.65745 2.01545 0
M  V30 14714 N 1525.4 -1.4265 -0.669982 0
M  V30 14715 C 1526.65 -1.44587 -1.4306 0
M  V30 14716 C 1527 -0.0629167 -1.92297 0
M  V30 14717 O 1526.29 0.915708 -1.68301 0
M  V30 14718 C 1526.49 -2.40913 -2.63999 0
M  V30 14719 C 1526.32 -3.88438 -2.26597 0
M  V30 14720 C 1525.09 -4.56936 -2.15725 0
M  V30 14721 C 1527.28 -4.78731 -1.87938 0
M  V30 14722 N 1525.27 -5.89465 -1.71477 0
M  V30 14723 C 1526.64 -6.00404 -1.54645 0
M  V30 14724 C 1528.69 -4.66143 -1.74973 0
M  V30 14725 C 1527.4 -7.10888 -1.09688 0
M  V30 14726 C 1529.42 -5.76613 -1.3142 0
M  V30 14727 C 1528.78 -6.97401 -0.99054 0
M  V30 14728 H 1524.88 -0.584242 -0.519794 0
M  V30 14729 H 1527.47 -1.78711 -0.772679 0
M  V30 14730 H 1525.64 -2.08843 -3.27474 0
M  V30 14731 H 1527.37 -2.33398 -3.30617 0
M  V30 14732 H 1524.12 -4.11213 -2.34948 0
M  V30 14733 H 1524.55 -6.59771 -1.51762 0
M  V30 14734 H 1529.19 -3.73231 -1.98641 0
M  V30 14735 H 1526.91 -8.03642 -0.847666 0
M  V30 14736 H 1530.49 -5.68886 -1.21902 0
M  V30 14737 H 1529.37 -7.81429 -0.658653 0
M  V30 14738 N 1526.88 0.906753 -1.28902 0
M  V30 14739 C 1528.13 1.6533 -1.16234 0
M  V30 14740 C 1528.45 1.92861 0.288004 0
M  V30 14741 O 1527.72 1.54971 1.19837 0
M  V30 14742 H 1526.3 0.612806 -0.427174 0
M  V30 14743 H 1528.96 1.08764 -1.6173 0
M  V30 14744 H 1528.05 2.61271 -1.70715 0
M  V30 14745 N 1528.36 1.11264 1.11616 0
M  V30 14746 C 1529.58 0.882802 1.87121 0
M  V30 14747 C 1530 -0.567279 1.80076 0
M  V30 14748 O 1529.36 -1.39158 1.18074 0
M  V30 14749 C 1529.41 1.33355 3.36004 0
M  V30 14750 O 1529.13 2.72678 3.42897 0
M  V30 14751 C 1530.63 1.13886 4.28421 0
M  V30 14752 H 1527.85 0.316275 0.591786 0
M  V30 14753 H 1530.39 1.4795 1.41177 0
M  V30 14754 H 1528.55 0.780347 3.79459 0
M  V30 14755 H 1528.96 2.92168 4.35589 0
M  V30 14756 H 1530.44 1.50329 5.31136 0
M  V30 14757 H 1530.91 0.078259 4.3913 0
M  V30 14758 H 1531.52 1.67896 3.90757 0
M  V30 14759 N 1529.83 -1.29188 0.902679 0
M  V30 14760 C 1530.74 -2.3138 0.387363 0
M  V30 14761 C 1531.76 -1.66067 -0.519396 0
M  V30 14762 O 1532.94 -1.97219 -0.408257 0
M  V30 14763 C 1530 -3.44675 -0.374137 0
M  V30 14764 C 1529.06 -4.25572 0.564503 0
M  V30 14765 C 1528.29 -5.33458 -0.160748 0
M  V30 14766 O 1528.52 -5.53349 -1.38423 0
M  V30 14767 O 1527.45 -5.99834 0.498259 0
M  V30 14768 H 1531.28 -2.77444 1.23525 0
M  V30 14769 H 1528.86 -1.33679 0.667106 0
M  V30 14770 H 1530.74 -4.13647 -0.80464 0
M  V30 14771 H 1529.42 -3.00714 -1.19804 0
M  V30 14772 H 1528.33 -3.59232 1.04418 0
M  V30 14773 H 1529.66 -4.73184 1.3549 0
M  V30 14774 N 1531.31 -0.665475 -1.42861 0
M  V30 14775 C 1532.55 -0.187645 -2.03537 0
M  V30 14776 C 1532.92 1.18032 -1.51435 0
M  V30 14777 O 1534.12 1.75227 -2.03836 0
M  V30 14778 C 1532.39 -0.210502 -3.5678 0
M  V30 14779 S 1533.95 0.197691 -4.38354 0
M  V30 14780 H 1530.76 -0.0780044 -0.706708 0
M  V30 14781 H 1533.37 -0.876548 -1.74748 0
M  V30 14782 H 1532.07 -1.20863 -3.92199 0
M  V30 14783 H 1531.6 0.498541 -3.90228 0
M  V30 14784 H 1533.62 1.43348 -4.75043 0
M  V30 14785 N 1532.79 1.52222 -0.408187 0
M  V30 14786 C 1533.7 2.30725 0.424645 0
M  V30 14787 C 1534.72 1.38412 1.05442 0
M  V30 14788 O 1535.89 1.71486 1.05614 0
M  V30 14789 C 1532.96 3.11273 1.52677 0
M  V30 14790 C 1532.02 4.19323 0.920143 0
M  V30 14791 C 1531.25 4.96021 1.96974 0
M  V30 14792 O 1531.47 4.73011 3.18774 0
M  V30 14793 O 1530.41 5.80887 1.5765 0
M  V30 14794 H 1534.23 3.02935 -0.215411 0
M  V30 14795 H 1531.82 1.48413 -0.171414 0
M  V30 14796 H 1533.7 3.61436 2.16661 0
M  V30 14797 H 1532.38 2.41857 2.15144 0
M  V30 14798 H 1531.28 3.7331 0.243037 0
M  V30 14799 H 1532.62 4.91028 0.339405 0
M  V30 14800 N 1534.27 0.138579 1.5699 0
M  V30 14801 C 1535.18 -0.817548 2.19894 0
M  V30 14802 C 1536.19 -1.27806 1.18075 0
M  V30 14803 O 1537.37 -1.33699 1.5062 0
M  V30 14804 C 1534.43 -2.04244 2.80152 0
M  V30 14805 C 1533.5 -1.63197 3.97071 0
M  V30 14806 C 1532.73 -2.79847 4.54446 0
M  V30 14807 O 1532.95 -3.95827 4.10703 0
M  V30 14808 O 1531.89 -2.55804 5.44838 0
M  V30 14809 H 1535.71 -0.312123 3.02092 0
M  V30 14810 H 1533.3 -0.0880281 1.4914 0
M  V30 14811 H 1535.18 -2.75945 3.18485 0
M  V30 14812 H 1533.85 -2.53755 2.00973 0
M  V30 14813 H 1532.76 -0.885448 3.6347 0
M  V30 14814 H 1534.09 -1.1841 4.77745 0
M  V30 14815 N 1535.75 -1.57019 -0.13521 0
M  V30 14816 C 1536.99 -1.85801 -0.851896 0
M  V30 14817 C 1537.35 -0.724449 -1.77808 0
M  V30 14818 O 1538.55 -0.893619 -2.53511 0
M  V30 14819 C 1536.82 -3.19788 -1.59595 0
M  V30 14820 S 1538.38 -3.70159 -2.35644 0
M  V30 14821 H 1535.2 -0.651534 -0.284649 0
M  V30 14822 H 1537.8 -1.95184 -0.111177 0
M  V30 14823 H 1536.5 -4.00247 -0.907221 0
M  V30 14824 H 1536.04 -3.13441 -2.37735 0
M  V30 14825 H 1538.05 -3.40364 -3.61063 0
M  V30 14826 N 1537.22 0.404919 -1.52309 0
M  V30 14827 C 1538.64 0.983553 -1.58692 0
M  V30 14828 C 1538.99 1.9143 -0.429993 0
M  V30 14829 O 1538.11 2.11689 0.449088 0
M  V30 14830 C 1538.71 1.79059 -2.87617 0
M  V30 14831 C 1537.27 2.31918 -2.96464 0
M  V30 14832 C 1536.41 1.12018 -2.53667 0
M  V30 14833 H 1539.36 0.185007 -1.57618 0
M  V30 14834 H 1539.38 2.64836 -2.73207 0
M  V30 14835 H 1538.9 1.11291 -3.71801 0
M  V30 14836 H 1537 3.03044 -2.16783 0
M  V30 14837 H 1537.11 2.62495 -4.00791 0
M  V30 14838 H 1535.47 1.47542 -2.07614 0
M  V30 14839 H 1536.26 0.458111 -3.4023 0
M  V30 14840 N 1538.7 1.43003 0.662408 0
M  V30 14841 C 1539.65 1.47448 1.77561 0
M  V30 14842 C 1540.62 0.325121 1.62887 0
M  V30 14843 O 1541.8 0.530971 1.83263 0
M  V30 14844 C 1538.94 1.3946 3.15666 0
M  V30 14845 C 1538.06 2.64529 3.41539 0
M  V30 14846 C 1537.19 2.48594 4.69441 0
M  V30 14847 C 1536.23 3.68976 4.88388 0
M  V30 14848 N 1535.37 3.51908 6.0754 0
M  V30 14849 H 1540.21 2.42573 1.73097 0
M  V30 14850 H 1537.75 1.2042 0.84484 0
M  V30 14851 H 1539.7 1.32824 3.95492 0
M  V30 14852 H 1538.33 0.479227 3.19223 0
M  V30 14853 H 1537.39 2.81481 2.55877 0
M  V30 14854 H 1538.7 3.53977 3.51429 0
M  V30 14855 H 1537.85 2.39614 5.57378 0
M  V30 14856 H 1536.59 1.56656 4.61855 0
M  V30 14857 H 1535.6 3.78374 3.9889 0
M  V30 14858 H 1536.82 4.61911 4.9781 0
M  V30 14859 H 1534.77 2.62697 6.01104 0
M  V30 14860 H 1534.68 4.34951 6.18347 0
M  V30 14861 H 1535.95 3.46763 6.98123 0
M  V30 14862 N 1540.18 -0.899904 1.29381 0
M  V30 14863 C 1541.59 -1.46563 1.15655 0
M  V30 14864 C 1541.94 -1.94622 -0.248375 0
M  V30 14865 O 1541.07 -1.83698 -1.14386 0
M  V30 14866 C 1541.66 -2.66384 2.09344 0
M  V30 14867 C 1540.22 -3.19093 1.99641 0
M  V30 14868 C 1539.37 -1.91786 2.00283 0
M  V30 14869 H 1542.32 -0.711264 1.41869 0
M  V30 14870 H 1542.34 -3.42111 1.66554 0
M  V30 14871 H 1541.85 -2.31376 3.11587 0
M  V30 14872 H 1539.95 -3.58795 1.00485 0
M  V30 14873 H 1540.07 -3.83405 2.87293 0
M  V30 14874 H 1538.43 -2.09482 1.44878 0
M  V30 14875 H 1539.21 -1.59055 3.04231 0
M  V30 14876 N 1541.66 -1.11854 -1.11024 0
M  V30 14877 C 1542.91 -0.868355 -1.82494 0
M  V30 14878 C 1543.23 0.607622 -1.85292 0
M  V30 14879 O 1542.5 1.44147 -1.32659 0
M  V30 14880 H 1541.08 -0.31826 -0.67581 0
M  V30 14881 H 1543.74 -1.4118 -1.34366 0
M  V30 14882 H 1542.84 -1.24441 -2.86218 0
M  V30 14883 N 1543.14 1.28707 -0.909517 0
M  V30 14884 C 1544.36 1.99283 -0.556211 0
M  V30 14885 C 1544.78 1.68 0.861475 0
M  V30 14886 O 1544.14 0.930421 1.57001 0
M  V30 14887 C 1544.19 3.5362 -0.75068 0
M  V30 14888 O 1543.91 3.83799 -2.11258 0
M  V30 14889 C 1545.41 4.41459 -0.403637 0
M  V30 14890 H 1542.63 0.636476 -0.212462 0
M  V30 14891 H 1545.17 1.64007 -1.22156 0
M  V30 14892 H 1543.33 3.87174 -0.132384 0
M  V30 14893 H 1543.74 4.78448 -2.14913 0
M  V30 14894 H 1545.22 5.48833 -0.590496 0
M  V30 14895 H 1545.69 4.34214 0.659897 0
M  V30 14896 H 1546.3 4.13394 -0.999292 0
M  V30 14897 N 1544.61 0.673042 1.42506 0
M  V30 14898 C 1545.56 -0.00638067 2.30799 0
M  V30 14899 C 1546.53 -0.794524 1.45865 0
M  V30 14900 O 1547.72 -0.767129 1.74699 0
M  V30 14901 C 1544.86 -0.952923 3.31683 0
M  V30 14902 C 1543.97 -0.158787 4.31708 0
M  V30 14903 C 1543.1 -1.10092 5.19666 0
M  V30 14904 C 1542.14 -0.29837 6.11372 0
M  V30 14905 N 1541.28 -1.19312 6.91888 0
M  V30 14906 H 1546.12 0.75237 2.88346 0
M  V30 14907 H 1543.66 0.382763 1.42033 0
M  V30 14908 H 1545.62 -1.51552 3.887 0
M  V30 14909 H 1544.25 -1.67832 2.75739 0
M  V30 14910 H 1543.3 0.520406 3.76823 0
M  V30 14911 H 1544.61 0.464385 4.96634 0
M  V30 14912 H 1543.76 -1.7335 5.81407 0
M  V30 14913 H 1542.5 -1.75798 4.54914 0
M  V30 14914 H 1541.51 0.347437 5.48701 0
M  V30 14915 H 1542.73 0.354569 6.78174 0
M  V30 14916 H 1540.68 -1.83661 6.29765 0
M  V30 14917 H 1540.6 -0.624986 7.53412 0
M  V30 14918 H 1541.86 -1.81323 7.58118 0
M  V30 14919 N 1546.09 -1.52004 0.416254 0
M  V30 14920 C 1547 -2.30947 -0.412403 0
M  V30 14921 C 1548.02 -1.38969 -1.04707 0
M  V30 14922 O 1549.19 -1.72044 -1.04703 0
M  V30 14923 C 1546.26 -3.12078 -1.51024 0
M  V30 14924 C 1545.32 -4.19805 -0.897892 0
M  V30 14925 C 1544.55 -4.97059 -1.94341 0
M  V30 14926 O 1544.78 -4.74695 -3.16261 0
M  V30 14927 O 1543.71 -5.81715 -1.54567 0
M  V30 14928 H 1547.54 -3.02817 0.231473 0
M  V30 14929 H 1545.12 -1.4832 0.179283 0
M  V30 14930 H 1547 -3.6258 -2.14741 0
M  V30 14931 H 1545.68 -2.42995 -2.13858 0
M  V30 14932 H 1544.59 -3.73433 -0.223236 0
M  V30 14933 H 1545.92 -4.91201 -0.31336 0
M  V30 14934 N 1547.57 -0.146903 -1.56914 0
M  V30 14935 C 1548.8 0.51044 -2.00195 0
M  V30 14936 C 1549.21 1.58966 -1.02599 0
M  V30 14937 O 1548.55 1.83694 -0.0149611 0
M  V30 14938 C 1548.61 1.17055 -3.39909 0
M  V30 14939 C 1548.28 0.235944 -4.56391 0
M  V30 14940 C 1549.27 -0.536351 -5.17126 0
M  V30 14941 C 1546.96 0.138878 -5.02108 0
M  V30 14942 C 1548.95 -1.39316 -6.21989 0
M  V30 14943 C 1546.64 -0.721538 -6.06825 0
M  V30 14944 C 1547.64 -1.48616 -6.66635 0
M  V30 14945 O 1547.33 -2.33224 -7.69325 0
M  V30 14946 H 1547.06 0.137381 -0.661893 0
M  V30 14947 H 1549.61 -0.23844 -2.04011 0
M  V30 14948 H 1547.84 1.96707 -3.32931 0
M  V30 14949 H 1549.53 1.72761 -3.67299 0
M  V30 14950 H 1550.3 -0.471393 -4.82704 0
M  V30 14951 H 1546.18 0.723769 -4.55283 0
M  V30 14952 H 1549.72 -1.99044 -6.68601 0
M  V30 14953 H 1545.62 -0.787788 -6.40675 0
M  V30 14954 H 1546.39 -2.26471 -7.86545 0
M  V30 14955 N 1549.05 1.57088 0.126881 0
M  V30 14956 C 1549.96 2.03053 1.17502 0
M  V30 14957 C 1550.97 0.949484 1.45811 0
M  V30 14958 O 1552.15 1.26043 1.57083 0
M  V30 14959 C 1549.22 2.41897 2.48368 0
M  V30 14960 C 1548.28 3.64047 2.27527 0
M  V30 14961 C 1547.51 4.01029 3.52153 0
M  V30 14962 O 1547.73 3.38441 4.59145 0
M  V30 14963 O 1546.67 4.94174 3.43622 0
M  V30 14964 H 1550.49 2.92568 0.814733 0
M  V30 14965 H 1548.08 1.45547 0.3371 0
M  V30 14966 H 1549.96 2.67652 3.25485 0
M  V30 14967 H 1548.63 1.55531 2.83887 0
M  V30 14968 H 1547.54 3.43452 1.48294 0
M  V30 14969 H 1548.87 4.51093 1.96916 0
M  V30 14970 N 1550.53 -0.396836 1.52522 0
M  V30 14971 C 1551.75 -1.16404 1.71049 0
M  V30 14972 C 1552.17 -1.83946 0.425378 0
M  V30 14973 O 1551.53 -1.7237 -0.599561 0
M  V30 14974 C 1551.58 -2.21796 2.85463 0
M  V30 14975 O 1551.3 -1.57009 4.08998 0
M  V30 14976 C 1552.8 -3.11303 3.15603 0
M  V30 14977 H 1550.02 -0.349314 0.572905 0
M  V30 14978 H 1552.56 -0.465297 1.99136 0
M  V30 14979 H 1550.72 -2.87318 2.59859 0
M  V30 14980 H 1551.13 -2.26977 4.72844 0
M  V30 14981 H 1552.61 -3.81299 3.99143 0
M  V30 14982 H 1553.08 -3.7437 2.2966 0
M  V30 14983 H 1553.69 -2.51435 3.43017 0
M  V30 14984 N 1552.01 -1.43353 -0.654814 0
M  V30 14985 C 1552.94 -1.51194 -1.7794 0
M  V30 14986 C 1553.92 -0.366747 -1.66099 0
M  V30 14987 O 1555.1 -0.58375 -1.85219 0
M  V30 14988 C 1552.23 -1.43298 -3.16359 0
M  V30 14989 C 1551.19 -2.5605 -3.42961 0
M  V30 14990 C 1550.51 -2.33208 -4.81163 0
M  V30 14991 C 1551.81 -3.98303 -3.37864 0
M  V30 14992 H 1553.51 -2.4532 -1.71635 0
M  V30 14993 H 1551.05 -1.18072 -0.824319 0
M  V30 14994 H 1553 -1.47388 -3.94784 0
M  V30 14995 H 1551.73 -0.456761 -3.2339 0
M  V30 14996 H 1550.39 -2.5131 -2.66906 0
M  V30 14997 H 1550.04 -1.33833 -4.84869 0
M  V30 14998 H 1549.74 -3.08789 -4.99923 0
M  V30 14999 H 1551.26 -2.39079 -5.61848 0
M  V30 15000 H 1552.67 -4.04538 -4.06229 0
M  V30 15001 H 1551.07 -4.73897 -3.6816 0
M  V30 15002 H 1552.14 -4.23552 -2.36075 0
M  V30 15003 N 1553.48 0.89303 -1.29857 0
M  V30 15004 C 1554.72 1.65836 -1.19489 0
M  V30 15005 C 1555.09 1.90389 0.248194 0
M  V30 15006 O 1556.29 2.6457 0.474963 0
M  V30 15007 C 1554.56 2.96706 -1.9925 0
M  V30 15008 S 1556.12 3.8771 -2.05492 0
M  V30 15009 H 1552.94 0.569282 -0.425956 0
M  V30 15010 H 1555.54 1.06061 -1.64229 0
M  V30 15011 H 1554.24 2.76554 -3.03226 0
M  V30 15012 H 1553.77 3.61518 -1.55141 0
M  V30 15013 H 1555.79 4.82052 -1.17644 0
M  V30 15014 N 1554.96 1.12442 1.10429 0
M  V30 15015 C 1556.37 0.894147 1.63896 0
M  V30 15016 C 1556.72 -0.571509 1.87692 0
M  V30 15017 O 1555.85 -1.43595 1.61893 0
M  V30 15018 C 1556.44 1.61664 2.97742 0
M  V30 15019 C 1555 1.43251 3.48075 0
M  V30 15020 C 1554.15 1.65252 2.22682 0
M  V30 15021 H 1557.1 1.27918 0.939289 0
M  V30 15022 H 1557.12 1.06771 3.65213 0
M  V30 15023 H 1556.63 2.68333 2.80391 0
M  V30 15024 H 1554.73 0.388385 3.7057 0
M  V30 15025 H 1554.85 2.18866 4.26186 0
M  V30 15026 H 1553.21 1.07663 2.30827 0
M  V30 15027 H 1553.99 2.73219 2.07862 0
M  V30 15028 N 1556.44 -1.28223 0.91633 0
M  V30 15029 C 1557.86 -1.47281 0.614864 0
M  V30 15030 C 1558.06 -1.83197 -0.839111 0
M  V30 15031 O 1557.11 -1.9385 -1.61798 0
M  V30 15032 C 1558.42 -2.57373 1.55498 0
M  V30 15033 C 1559.97 -2.71241 1.56197 0
M  V30 15034 C 1560.45 -3.84479 2.48877 0
M  V30 15035 N 1561.94 -3.91837 2.47019 0
M  V30 15036 C 1562.67 -4.78846 3.15427 0
M  V30 15037 N 1562.17 -5.70427 3.93173 0
M  V30 15038 N 1563.96 -4.72478 3.04501 0
M  V30 15039 H 1556.11 -1.03191 1.85649 0
M  V30 15040 H 1558.38 -0.514213 0.796422 0
M  V30 15041 H 1558.08 -2.37747 2.5917 0
M  V30 15042 H 1557.96 -3.54527 1.28803 0
M  V30 15043 H 1560.34 -2.90254 0.532619 0
M  V30 15044 H 1560.42 -1.74609 1.86937 0
M  V30 15045 H 1560.07 -3.6622 3.51916 0
M  V30 15046 H 1560 -4.80514 2.15439 0
M  V30 15047 H 1562.49 -3.26344 1.90546 0
M  V30 15048 H 1562.8 -6.33653 4.42384 0
M  V30 15049 H 1561.15 -5.70259 3.97278 0
M  V30 15050 H 1564.34 -3.99925 2.43265 0
M  V30 15051 H 1564.51 -5.40073 3.58086 0
M  V30 15052 N 1557.92 -0.68059 -1.42147 0
M  V30 15053 C 1559.17 -0.204857 -2.01059 0
M  V30 15054 C 1559.49 1.19475 -1.54113 0
M  V30 15055 O 1558.76 1.80334 -0.765279 0
M  V30 15056 H 1557.34 -0.0727459 -0.743449 0
M  V30 15057 H 1560 -0.878396 -1.73983 0
M  V30 15058 H 1559.09 -0.210628 -3.11388 0
M  V30 15059 N 1559.4 1.51781 -0.424309 0
M  V30 15060 C 1560.36 2.25996 0.381903 0
M  V30 15061 C 1561.36 1.28938 0.960813 0
M  V30 15062 O 1562.55 1.52757 0.837306 0
M  V30 15063 C 1559.68 3.04181 1.53904 0
M  V30 15064 H 1560.87 2.98697 -0.268336 0
M  V30 15065 H 1558.43 1.55293 -0.177167 0
M  V30 15066 H 1559.16 2.35866 2.22571 0
M  V30 15067 H 1558.95 3.75457 1.13025 0
M  V30 15068 H 1560.44 3.60434 2.10896 0
M  V30 15069 N 1560.87 0.155222 1.56834 0
M  V30 15070 C 1562.12 -0.49285 1.95998 0
M  V30 15071 C 1562.44 -1.64857 1.0415 0
M  V30 15072 O 1561.71 -1.9562 0.104654 0
M  V30 15073 H 1560.29 -0.185063 0.723713 0
M  V30 15074 H 1562.95 0.232644 1.93507 0
M  V30 15075 H 1562.05 -0.863552 2.99915 0
M  V30 15076 N 1562.35 -1.57153 -0.118549 0
M  V30 15077 C 1563.6 -1.84876 -0.826255 0
M  V30 15078 C 1563.93 -0.740373 -1.79858 0
M  V30 15079 O 1563.18 0.268233 -1.93853 0
M  V30 15080 C 1563.48 -3.19084 -1.60998 0
M  V30 15081 C 1563.15 -4.44069 -0.781911 0
M  V30 15082 C 1561.81 -4.78005 -0.553559 0
M  V30 15083 C 1564.16 -5.20798 -0.204739 0
M  V30 15084 C 1561.49 -5.86114 0.262212 0
M  V30 15085 C 1563.84 -6.29765 0.598225 0
M  V30 15086 C 1562.5 -6.62233 0.83689 0
M  V30 15087 H 1561.77 -0.676511 -0.302348 0
M  V30 15088 H 1564.42 -1.91295 -0.0886182 0
M  V30 15089 H 1562.73 -3.08243 -2.41854 0
M  V30 15090 H 1564.42 -3.37755 -2.16153 0
M  V30 15091 H 1561.01 -4.1748 -0.969984 0
M  V30 15092 H 1565.2 -4.94931 -0.368374 0
M  V30 15093 H 1560.45 -6.09695 0.456338 0
M  V30 15094 H 1564.63 -6.88401 1.05244 0
M  V30 15095 H 1562.25 -7.45835 1.47083 0
M  V30 15096 N 1563.83 0.388742 -1.5273 0
M  V30 15097 C 1564.79 1.45759 -1.76881 0
M  V30 15098 C 1565.79 1.47565 -0.63884 0
M  V30 15099 O 1566.98 1.48731 -0.906895 0
M  V30 15100 C 1564.11 2.85045 -1.86981 0
M  V30 15101 H 1565.31 1.25629 -2.72319 0
M  V30 15102 H 1562.86 0.620497 -1.43456 0
M  V30 15103 H 1563.6 3.1052 -0.935296 0
M  V30 15104 H 1563.38 2.85136 -2.69147 0
M  V30 15105 H 1564.87 3.62492 -2.07338 0
M  V30 15106 N 1565.31 1.43698 0.647203 0
M  V30 15107 C 1566.26 1.49599 1.78109 0
M  V30 15108 C 1567.25 0.369047 1.65331 0
M  V30 15109 O 1568.46 0.543303 1.71605 0
M  V30 15110 H 1564.83 0.46911 0.587741 0
M  V30 15111 H 1566.8 2.45064 1.70253 0
M  V30 15112 C 1565.55 1.44192 3.16392 0
M  V30 15113 H 1564.87 2.30216 3.26865 0
M  V30 15114 H 1566.31 1.52382 3.95671 0
M  V30 15115 C 1564.77 0.16036 3.36518 0
M  V30 15116 O 1565.3 -0.77593 3.94135 0
M  V30 15117 N 1563.51 0.0686236 2.90519 0
M  V30 15118 H 1563.06 0.831363 2.43816 0
M  V30 15119 H 1563.01 -0.78814 3.04361 0
M  V30 15120 N 1566.79 -0.886131 1.30328 0
M  V30 15121 C 1568.2 -1.16922 1.08634 0
M  V30 15122 C 1568.4 -2.00913 -0.15365 0
M  V30 15123 O 1567.46 -2.37849 -0.847592 0
M  V30 15124 C 1568.77 -1.87701 2.34923 0
M  V30 15125 C 1570.32 -2.0047 2.40376 0
M  V30 15126 C 1570.79 -2.74662 3.66504 0
M  V30 15127 N 1572.29 -2.82208 3.67305 0
M  V30 15128 C 1573.02 -3.40185 4.61586 0
M  V30 15129 N 1572.52 -3.99221 5.66211 0
M  V30 15130 N 1574.31 -3.37989 4.49132 0
M  V30 15131 H 1566.46 -0.326064 2.09882 0
M  V30 15132 H 1568.72 -0.206996 0.925125 0
M  V30 15133 H 1568.43 -1.33427 3.25408 0
M  V30 15134 H 1568.3 -2.88092 2.43481 0
M  V30 15135 H 1570.69 -2.53914 1.50371 0
M  V30 15136 H 1570.77 -0.991709 2.35794 0
M  V30 15137 H 1570.42 -2.2189 4.56867 0
M  V30 15138 H 1570.35 -3.76335 3.68347 0
M  V30 15139 H 1572.84 -2.40292 2.91665 0
M  V30 15140 H 1573.15 -4.41522 6.34254 0
M  V30 15141 H 1571.49 -3.97643 5.70004 0
M  V30 15142 H 1574.69 -2.91096 3.6658 0
M  V30 15143 H 1574.86 -3.82877 5.2279 0
M  V30 15144 N 1568.26 -1.13026 -1.09832 0
M  V30 15145 C 1569.51 -0.887662 -1.81563 0
M  V30 15146 C 1569.83 0.587935 -1.85926 0
M  V30 15147 O 1569.1 1.42732 -1.3418 0
M  V30 15148 H 1567.68 -0.32541 -0.672397 0
M  V30 15149 H 1570.35 -1.42597 -1.32861 0
M  V30 15150 H 1569.44 -1.2747 -2.84882 0
M  V30 15151 N 1569.74 1.27735 -0.923117 0
M  V30 15152 C 1571.02 1.89626 -0.479724 0
M  V30 15153 C 1571.4 1.83592 1.04197 0
M  V30 15154 O 1570.75 1.27808 1.89413 0
M  V30 15155 C 1570.96 3.33742 -1.02064 0
M  V30 15156 C 1572.31 4.10678 -1.07837 0
M  V30 15157 O 1573.33 3.4274 -0.969943 0
M  V30 15158 O 1572.19 5.32135 -1.24476 0
M  V30 15159 H 1569.28 0.812615 -0.153575 0
M  V30 15160 H 1571.83 1.36036 -1.01451 0
M  V30 15161 H 1570.6 3.32404 -2.06454 0
M  V30 15162 H 1570.22 3.94845 -0.467234 0
M  V30 15163 N 1571.22 0.688118 1.41784 0
M  V30 15164 C 1572.47 0.216263 2.01644 0
M  V30 15165 C 1572.8 -1.17861 1.54345 0
M  V30 15166 O 1572.07 -1.794 0.751392 0
M  V30 15167 C 1572.36 0.265663 3.59119 0
M  V30 15168 C 1572.21 1.69694 4.16562 0
M  V30 15169 C 1573.53 -0.378713 4.38468 0
M  V30 15170 H 1570.65 0.0800582 0.732639 0
M  V30 15171 H 1573.29 0.875428 1.68631 0
M  V30 15172 H 1571.44 -0.295588 3.87374 0
M  V30 15173 H 1573.11 2.31146 3.9921 0
M  V30 15174 H 1571.36 2.23345 3.71886 0
M  V30 15175 H 1572.03 1.68309 5.25715 0
M  V30 15176 H 1574.5 0.0991969 4.15982 0
M  V30 15177 H 1573.38 -0.31357 5.48004 0
M  V30 15178 H 1573.64 -1.45832 4.17355 0
M  V30 15179 N 1572.7 -1.51554 0.432352 0
M  V30 15180 C 1573.63 -2.30514 -0.372243 0
M  V30 15181 C 1574.61 -1.35712 -1.02549 0
M  V30 15182 O 1575.79 -1.6463 -1.03009 0
M  V30 15183 C 1572.92 -3.14353 -1.47646 0
M  V30 15184 C 1571.88 -4.17392 -0.946974 0
M  V30 15185 C 1571.2 -4.89721 -2.14656 0
M  V30 15186 C 1572.5 -5.22298 0.0151377 0
M  V30 15187 H 1574.2 -2.98024 0.28668 0
M  V30 15188 H 1571.74 -1.43325 0.139315 0
M  V30 15189 H 1573.7 -3.68369 -2.04651 0
M  V30 15190 H 1572.42 -2.44654 -2.1636 0
M  V30 15191 H 1571.08 -3.6442 -0.399174 0
M  V30 15192 H 1570.73 -4.1653 -2.81978 0
M  V30 15193 H 1570.43 -5.59393 -1.79869 0
M  V30 15194 H 1571.95 -5.46559 -2.72224 0
M  V30 15195 H 1573.37 -5.71416 -0.464447 0
M  V30 15196 H 1571.76 -5.99468 0.275339 0
M  V30 15197 H 1572.83 -4.75436 0.953357 0
M  V30 15198 N 1574.18 -0.163538 -1.56749 0
M  V30 15199 C 1575.4 0.489888 -2.01017 0
M  V30 15200 C 1575.82 1.57327 -1.04373 0
M  V30 15201 O 1575.18 1.82449 -0.0433414 0
M  V30 15202 C 1575.23 1.07537 -3.45135 0
M  V30 15203 O 1574.95 0.0352465 -4.38086 0
M  V30 15204 C 1576.45 1.80779 -4.04764 0
M  V30 15205 H 1573.67 0.126095 -0.659046 0
M  V30 15206 H 1576.21 -0.262982 -2.02802 0
M  V30 15207 H 1574.37 1.77877 -3.44149 0
M  V30 15208 H 1574.78 0.466426 -5.22422 0
M  V30 15209 H 1576.26 2.17014 -5.07552 0
M  V30 15210 H 1576.73 2.6999 -3.46413 0
M  V30 15211 H 1577.34 1.15098 -4.09429 0
M  V30 15212 N 1575.65 1.57214 0.110213 0
M  V30 15213 C 1576.9 1.84946 0.814827 0
M  V30 15214 C 1577.22 0.750029 1.79999 0
M  V30 15215 O 1576.49 -0.225164 1.94602 0
M  V30 15216 H 1575.07 0.682385 0.303907 0
M  V30 15217 H 1577.74 1.94666 0.0954415 0
M  V30 15218 H 1576.83 2.81167 1.35469 0
M  V30 15219 N 1577.13 -0.380637 1.52934 0
M  V30 15220 C 1578.55 -0.721287 1.42371 0
M  V30 15221 C 1578.75 -1.93826 0.55078 0
M  V30 15222 O 1577.8 -2.52485 0.02743 0
M  V30 15223 C 1579.12 -0.948564 2.85347 0
M  V30 15224 C 1580.67 -1.04952 2.9488 0
M  V30 15225 C 1581.14 -1.30937 4.38885 0
M  V30 15226 N 1582.63 -1.3774 4.42246 0
M  V30 15227 C 1583.37 -1.59527 5.50762 0
M  V30 15228 N 1582.86 -1.7873 6.69349 0
M  V30 15229 N 1584.66 -1.61774 5.38317 0
M  V30 15230 H 1576.81 0.420032 2.08205 0
M  V30 15231 H 1579.07 0.125776 0.939619 0
M  V30 15232 H 1578.78 -0.126348 3.51473 0
M  V30 15233 H 1578.65 -1.8609 3.28101 0
M  V30 15234 H 1581.04 -1.86229 2.28917 0
M  V30 15235 H 1581.12 -0.114899 2.55542 0
M  V30 15236 H 1580.76 -0.50166 5.05416 0
M  V30 15237 H 1580.69 -2.25696 4.75782 0
M  V30 15238 H 1583.18 -1.24575 3.56777 0
M  V30 15239 H 1583.5 -1.94885 7.47823 0
M  V30 15240 H 1581.84 -1.75938 6.72362 0
M  V30 15241 H 1585.03 -1.4633 4.44641 0
M  V30 15242 H 1585.2 -1.78414 6.22955 0
M  V30 15243 N 1578.61 -1.44039 -0.639573 0
M  V30 15244 C 1580.02 -1.41236 -1.22104 0
M  V30 15245 C 1580.37 -0.123367 -1.95812 0
M  V30 15246 O 1579.5 0.776641 -2.01983 0
M  V30 15247 C 1580.09 -2.55853 -2.22092 0
M  V30 15248 C 1578.65 -2.56271 -2.75685 0
M  V30 15249 C 1577.8 -2.32877 -1.50544 0
M  V30 15250 H 1580.75 -1.52742 -0.430756 0
M  V30 15251 H 1580.77 -2.28123 -3.04533 0
M  V30 15252 H 1580.28 -3.49653 -1.68417 0
M  V30 15253 H 1578.38 -1.66389 -3.33385 0
M  V30 15254 H 1578.5 -3.54486 -3.22299 0
M  V30 15255 H 1576.86 -1.81807 -1.78377 0
M  V30 15256 H 1577.64 -3.2878 -0.987845 0
M  V30 15257 N 1580.09 0.879207 -1.30796 0
M  V30 15258 C 1581.34 1.6315 -1.19951 0
M  V30 15259 C 1581.66 1.92958 0.244468 0
M  V30 15260 O 1580.92 1.55316 1.19061 0
M  V30 15261 C 1581.22 2.97578 -1.97945 0
M  V30 15262 C 1580.88 2.873 -3.47519 0
M  V30 15263 C 1579.55 2.84204 -3.88306 0
M  V30 15264 C 1581.9 2.75006 -4.42743 0
M  V30 15265 C 1579.23 2.6666 -5.22599 0
M  V30 15266 C 1581.58 2.59 -5.7715 0
M  V30 15267 C 1580.24 2.54282 -6.17168 0
M  V30 15268 H 1579.51 0.597008 -0.438934 0
M  V30 15269 H 1582.16 1.02179 -1.61962 0
M  V30 15270 H 1580.46 3.62532 -1.48587 0
M  V30 15271 H 1582.16 3.54759 -1.86941 0
M  V30 15272 H 1578.75 2.90522 -3.15111 0
M  V30 15273 H 1582.93 2.7646 -4.12169 0
M  V30 15274 H 1578.19 2.61426 -5.5269 0
M  V30 15275 H 1582.36 2.48462 -6.50568 0
M  V30 15276 H 1579.99 2.40446 -7.21172 0
M  V30 15277 N 1581.57 1.13606 1.09231 0
M  V30 15278 C 1582.8 0.920958 1.84938 0
M  V30 15279 C 1583.21 -0.533706 1.81516 0
M  V30 15280 O 1582.55 -1.38127 1.21105 0
M  V30 15281 C 1582.61 1.33357 3.33851 0
M  V30 15282 C 1582.27 2.80206 3.61017 0
M  V30 15283 C 1583.27 3.78356 3.56571 0
M  V30 15284 C 1580.96 3.17415 3.89298 0
M  V30 15285 C 1582.95 5.11726 3.8002 0
M  V30 15286 C 1580.64 4.50963 4.12402 0
M  V30 15287 C 1581.64 5.47928 4.07755 0
M  V30 15288 O 1581.32 6.79066 4.3026 0
M  V30 15289 H 1581.06 0.328256 0.590952 0
M  V30 15290 H 1583.61 1.51298 1.38917 0
M  V30 15291 H 1581.84 0.684821 3.80588 0
M  V30 15292 H 1583.53 1.09061 3.90974 0
M  V30 15293 H 1584.29 3.50956 3.34746 0
M  V30 15294 H 1580.17 2.42542 3.92039 0
M  V30 15295 H 1583.72 5.87399 3.76309 0
M  V30 15296 H 1579.61 4.78088 4.33708 0
M  V30 15297 H 1580.38 6.85199 4.47711 0
M  V30 15298 N 1583.05 -1.27244 0.929878 0
M  V30 15299 C 1583.99 -2.26773 0.429287 0
M  V30 15300 C 1584.96 -1.58238 -0.50498 0
M  V30 15301 O 1586.15 -1.86037 -0.423661 0
M  V30 15302 C 1583.29 -3.43706 -0.309865 0
M  V30 15303 C 1582.4 -4.26948 0.658764 0
M  V30 15304 C 1581.54 -5.31105 -0.10045 0
M  V30 15305 C 1580.57 -6.06018 0.860743 0
M  V30 15306 N 1579.71 -7.01972 0.134015 0
M  V30 15307 H 1584.55 -2.68967 1.283 0
M  V30 15308 H 1582.09 -1.32257 0.643923 0
M  V30 15309 H 1584.05 -4.10316 -0.754754 0
M  V30 15310 H 1582.68 -3.02457 -1.1278 0
M  V30 15311 H 1581.73 -3.60232 1.22218 0
M  V30 15312 H 1583.04 -4.78946 1.39326 0
M  V30 15313 H 1582.19 -6.03674 -0.605153 0
M  V30 15314 H 1580.93 -4.79915 -0.867902 0
M  V30 15315 H 1579.94 -5.32285 1.37668 0
M  V30 15316 H 1581.16 -6.59297 1.62801 0
M  V30 15317 H 1579.11 -6.53109 -0.615152 0
M  V30 15318 H 1579.03 -7.51669 0.808045 0
M  V30 15319 H 1580.29 -7.78714 -0.349964 0
M  V30 15320 N 1584.52 -0.695628 -1.41417 0
M  V30 15321 C 1585.8 -0.154646 -1.94988 0
M  V30 15322 C 1586.18 1.33534 -1.63499 0
M  V30 15323 O 1585.53 2.08178 -0.942031 0
M  V30 15324 C 1585.74 -0.446004 -3.46138 0
M  V30 15325 C 1587.09 -0.37378 -4.22952 0
M  V30 15326 O 1588.11 -0.380921 -3.54157 0
M  V30 15327 O 1586.97 -0.33395 -5.45479 0
M  V30 15328 H 1584.06 -0.0150053 -0.826864 0
M  V30 15329 H 1586.61 -0.771792 -1.51134 0
M  V30 15330 H 1585.38 -1.47734 -3.6234 0
M  V30 15331 H 1585 0.202111 -3.97086 0
M  V30 15332 N 1586 1.51322 -0.440383 0
M  V30 15333 C 1587.25 2.01302 0.126581 0
M  V30 15334 C 1587.56 1.32898 1.43518 0
M  V30 15335 O 1588.77 1.73864 2.08527 0
M  V30 15336 C 1587.23 3.58839 0.276126 0
M  V30 15337 C 1586.83 4.36182 -1.02222 0
M  V30 15338 C 1588.58 4.16957 0.796697 0
M  V30 15339 C 1586.48 5.85431 -0.838148 0
M  V30 15340 H 1585.41 0.752268 0.0510809 0
M  V30 15341 H 1588.07 1.74403 -0.570609 0
M  V30 15342 H 1586.45 3.82198 1.03639 0
M  V30 15343 H 1587.62 4.24568 -1.79105 0
M  V30 15344 H 1585.94 3.89531 -1.47155 0
M  V30 15345 H 1588.53 5.26176 0.95095 0
M  V30 15346 H 1588.88 3.76329 1.77996 0
M  V30 15347 H 1589.41 3.97687 0.0946613 0
M  V30 15348 H 1586.15 6.30476 -1.79387 0
M  V30 15349 H 1585.67 5.99701 -0.109167 0
M  V30 15350 H 1587.35 6.45122 -0.492547 0
M  V30 15351 N 1587.48 0.171848 1.5666 0
M  V30 15352 C 1588.43 -0.775125 2.19305 0
M  V30 15353 C 1589.42 -1.23711 1.15724 0
M  V30 15354 O 1590.63 -1.2027 1.33922 0
M  V30 15355 H 1587 -0.268245 0.70253 0
M  V30 15356 H 1588.97 -0.222823 2.97567 0
M  V30 15357 C 1587.72 -1.99397 2.84844 0
M  V30 15358 H 1587.05 -1.64752 3.64276 0
M  V30 15359 H 1588.49 -2.63545 3.32145 0
M  V30 15360 C 1586.94 -2.81794 1.84645 0
M  V30 15361 O 1587.47 -3.78964 1.33225 0
M  V30 15362 N 1585.68 -2.4682 1.5339 0
M  V30 15363 H 1585.23 -1.67862 1.95397 0
M  V30 15364 H 1585.19 -3.02238 0.866004 0
M  V30 15365 N 1588.96 -1.5727 -0.101874 0
M  V30 15366 C 1589.87 -2.04896 -1.14257 0
M  V30 15367 C 1590.88 -0.972561 -1.44282 0
M  V30 15368 O 1592.06 -1.28526 -1.55058 0
M  V30 15369 C 1589.12 -2.45818 -2.44488 0
M  V30 15370 C 1588.19 -3.6762 -2.21707 0
M  V30 15371 C 1587.42 -4.06581 -3.45728 0
M  V30 15372 O 1587.64 -3.45702 -4.53703 0
M  V30 15373 O 1586.58 -4.99578 -3.35716 0
M  V30 15374 H 1590.4 -2.93827 -0.768085 0
M  V30 15375 H 1587.99 -1.46065 -0.313902 0
M  V30 15376 H 1589.87 -2.72796 -3.21186 0
M  V30 15377 H 1588.54 -1.60028 -2.81377 0
M  V30 15378 H 1587.45 -3.45768 -1.42812 0
M  V30 15379 H 1588.78 -4.54169 -1.89714 0
M  V30 15380 N 1590.44 0.372521 -1.53134 0
M  V30 15381 C 1591.68 1.12465 -1.70678 0
M  V30 15382 C 1592.04 1.8676 -0.445503 0
M  V30 15383 O 1593.24 2.64155 -0.497531 0
M  V30 15384 C 1591.51 2.06389 -2.91785 0
M  V30 15385 S 1593.07 2.89216 -3.3 0
M  V30 15386 H 1589.89 0.380458 -0.600644 0
M  V30 15387 H 1592.49 0.406831 -1.9122 0
M  V30 15388 H 1591.19 1.50559 -3.81786 0
M  V30 15389 H 1590.73 2.82654 -2.73624 0
M  V30 15390 H 1592.74 4.08642 -2.81471 0
M  V30 15391 N 1591.91 1.44376 0.631925 0
M  V30 15392 C 1592.86 1.51181 1.74393 0
M  V30 15393 C 1593.83 0.359599 1.62161 0
M  V30 15394 O 1595.02 0.569725 1.82096 0
M  V30 15395 C 1592.16 1.46124 3.12637 0
M  V30 15396 C 1591.27 2.71714 3.35851 0
M  V30 15397 C 1590.4 2.58496 4.64062 0
M  V30 15398 C 1589.44 3.79252 4.80452 0
M  V30 15399 N 1588.58 3.64715 5.99939 0
M  V30 15400 H 1593.42 2.4619 1.67912 0
M  V30 15401 H 1590.96 1.22184 0.819108 0
M  V30 15402 H 1592.91 1.41183 3.92585 0
M  V30 15403 H 1591.54 0.546831 3.18135 0
M  V30 15404 H 1590.6 2.86845 2.49848 0
M  V30 15405 H 1591.91 3.61351 3.43841 0
M  V30 15406 H 1591.06 2.51383 5.5217 0
M  V30 15407 H 1589.8 1.66417 4.58428 0
M  V30 15408 H 1588.81 3.8675 3.90774 0
M  V30 15409 H 1590.03 4.72367 4.879 0
M  V30 15410 H 1587.98 2.75388 5.95397 0
M  V30 15411 H 1587.89 4.47969 6.08982 0
M  V30 15412 H 1589.16 3.61493 6.90611 0
M  V30 15413 N 1593.39 -0.872258 1.31261 0
M  V30 15414 C 1594.35 -1.96081 1.1868 0
M  V30 15415 C 1595.35 -1.60392 0.11452 0
M  V30 15416 O 1596.54 -1.70363 0.363613 0
M  V30 15417 C 1593.68 -3.30862 0.821183 0
M  V30 15418 H 1594.87 -2.08667 2.15402 0
M  V30 15419 H 1592.42 -1.06026 1.14839 0
M  V30 15420 H 1593.16 -3.23976 -0.14498 0
M  V30 15421 H 1592.94 -3.58137 1.59625 0
M  V30 15422 H 1594.43 -4.10682 0.756991 0
M  V30 15423 N 1594.87 -1.14184 -1.08627 0
M  V30 15424 C 1596.12 -0.908664 -1.80968 0
M  V30 15425 C 1596.44 0.564864 -1.86117 0
M  V30 15426 O 1595.7 1.4344 -1.33129 0
M  V30 15427 C 1596 -1.4519 -3.2658 0
M  V30 15428 C 1595.66 -2.94368 -3.41552 0
M  V30 15429 C 1594.33 -3.35096 -3.45346 0
M  V30 15430 C 1596.68 -3.90304 -3.45416 0
M  V30 15431 C 1594.01 -4.70428 -3.50591 0
M  V30 15432 C 1596.36 -5.25491 -3.52196 0
M  V30 15433 C 1595.02 -5.65734 -3.54262 0
M  V30 15434 H 1594.29 -0.332504 -0.66221 0
M  V30 15435 H 1596.94 -1.42514 -1.27914 0
M  V30 15436 H 1595.24 -0.856308 -3.82328 0
M  V30 15437 H 1596.94 -1.24746 -3.81103 0
M  V30 15438 H 1593.53 -2.61879 -3.3929 0
M  V30 15439 H 1597.72 -3.59921 -3.41718 0
M  V30 15440 H 1592.97 -5.00971 -3.50482 0
M  V30 15441 H 1597.15 -5.99637 -3.54131 0
M  V30 15442 H 1594.77 -6.70585 -3.58079 0
M  V30 15443 N 1596.35 1.26749 -0.936613 0
M  V30 15444 C 1597.76 1.75925 -0.62507 0
M  V30 15445 C 1598.11 1.76359 0.859771 0
M  V30 15446 O 1597.24 1.37277 1.67284 0
M  V30 15447 C 1597.83 3.19474 -1.12791 0
M  V30 15448 C 1596.39 3.66282 -0.866872 0
M  V30 15449 C 1595.54 2.45913 -1.28148 0
M  V30 15450 H 1598.49 1.1289 -1.11542 0
M  V30 15451 H 1598.51 3.77465 -0.479643 0
M  V30 15452 H 1598.02 3.19126 -2.20862 0
M  V30 15453 H 1596.12 3.72065 0.199647 0
M  V30 15454 H 1596.23 4.55319 -1.49067 0
M  V30 15455 H 1594.6 2.44894 -0.699941 0
M  V30 15456 H 1595.38 2.4827 -2.37101 0
M  V30 15457 N 1597.83 0.703118 1.41046 0
M  V30 15458 C 1599.07 0.236818 2.00708 0
M  V30 15459 C 1599.4 -1.17008 1.55994 0
M  V30 15460 O 1598.67 -1.79094 0.793871 0
M  V30 15461 H 1597.25 0.0845643 0.742198 0
M  V30 15462 H 1599.91 0.905964 1.72564 0
M  V30 15463 H 1599 0.260141 3.11014 0
M  V30 15464 N 1599.3 -1.51086 0.448402 0
M  V30 15465 C 1600.24 -2.24615 -0.402921 0
M  V30 15466 C 1601.22 -1.26994 -1.01544 0
M  V30 15467 O 1602.4 -1.56159 -1.05577 0
M  V30 15468 C 1599.53 -3.00504 -1.56253 0
M  V30 15469 C 1598.57 -4.1287 -1.06961 0
M  V30 15470 S 1599.41 -5.355 -0.00265176 0
M  V30 15471 C 1600.56 -6.14931 -1.16667 0
M  V30 15472 H 1600.79 -2.96475 0.221298 0
M  V30 15473 H 1598.33 -1.52631 0.23303 0
M  V30 15474 H 1600.29 -3.44824 -2.22726 0
M  V30 15475 H 1598.95 -2.28212 -2.15819 0
M  V30 15476 H 1598.14 -4.65288 -1.93708 0
M  V30 15477 H 1597.74 -3.70869 -0.48296 0
M  V30 15478 H 1600.03 -6.44688 -2.08286 0
M  V30 15479 H 1600.98 -7.04806 -0.682223 0
M  V30 15480 H 1601.38 -5.46601 -1.41024 0
M  V30 15481 N 1600.78 -0.180154 -1.56567 0
M  V30 15482 C 1602.02 0.464869 -1.99044 0
M  V30 15483 C 1602.39 1.59822 -1.06399 0
M  V30 15484 O 1603.59 2.30641 -1.38052 0
M  V30 15485 C 1601.86 0.927227 -3.45163 0
M  V30 15486 S 1603.42 1.57219 -4.09668 0
M  V30 15487 H 1600.24 0.149215 -0.695166 0
M  V30 15488 H 1602.84 -0.279699 -1.93489 0
M  V30 15489 H 1601.54 0.0920814 -4.10297 0
M  V30 15490 H 1601.07 1.70562 -3.54503 0
M  V30 15491 H 1603.09 2.86059 -4.05444 0
M  V30 15492 N 1602.26 1.57322 0.0935319 0
M  V30 15493 C 1603.49 1.90375 0.810245 0
M  V30 15494 C 1603.9 0.774011 1.72205 0
M  V30 15495 O 1603.26 -0.253918 1.80725 0
M  V30 15496 C 1603.31 3.23054 1.62228 0
M  V30 15497 O 1603.03 4.31682 0.747157 0
M  V30 15498 C 1604.53 3.6998 2.44192 0
M  V30 15499 H 1601.75 0.629769 0.231586 0
M  V30 15500 H 1604.3 2.04379 0.0702984 0
M  V30 15501 H 1602.45 3.10643 2.31472 0
M  V30 15502 H 1602.87 5.07884 1.30974 0
M  V30 15503 H 1604.34 4.65507 2.96659 0
M  V30 15504 H 1604.82 2.97899 3.22727 0
M  V30 15505 H 1605.42 3.85264 1.80144 0
M  V30 15506 N 1603.74 -0.364395 1.53329 0
M  V30 15507 C 1604.97 -1.12586 1.73228 0
M  V30 15508 C 1605.38 -1.83482 0.461614 0
M  V30 15509 O 1604.72 -1.74459 -0.575295 0
M  V30 15510 C 1604.78 -2.1994 2.84371 0
M  V30 15511 C 1604.45 -1.688 4.24683 0
M  V30 15512 C 1605.44 -1.15145 5.06989 0
M  V30 15513 C 1603.13 -1.74277 4.71097 0
M  V30 15514 C 1605.12 -0.676447 6.338 0
M  V30 15515 C 1602.81 -1.26389 5.97887 0
M  V30 15516 C 1603.81 -0.731632 6.7907 0
M  V30 15517 O 1603.49 -0.259825 8.0348 0
M  V30 15518 H 1603.23 -0.342514 0.582804 0
M  V30 15519 H 1605.78 -0.428832 2.00874 0
M  V30 15520 H 1604.01 -2.9314 2.52202 0
M  V30 15521 H 1605.7 -2.81489 2.92436 0
M  V30 15522 H 1606.47 -1.10251 4.72303 0
M  V30 15523 H 1602.34 -2.14647 4.0798 0
M  V30 15524 H 1605.89 -0.260327 6.97114 0
M  V30 15525 H 1601.79 -1.30977 6.32072 0
M  V30 15526 H 1602.55 -0.379044 8.17622 0
M  V30 15527 N 1605.22 -1.44709 -0.62426 0
M  V30 15528 C 1606.46 -1.47561 -1.38094 0
M  V30 15529 C 1606.79 -0.112115 -1.94677 0
M  V30 15530 O 1606.06 0.856458 -1.76186 0
M  V30 15531 H 1604.64 -0.543368 -0.512601 0
M  V30 15532 H 1607.3 -1.8054 -0.734258 0
M  V30 15533 H 1606.39 -2.20496 -2.2088 0
M  V30 15534 N 1606.69 0.865285 -1.31722 0
M  V30 15535 C 1607.64 1.97294 -1.19766 0
M  V30 15536 C 1608.61 1.65896 -0.0823232 0
M  V30 15537 O 1609.8 1.89075 -0.256009 0
M  V30 15538 C 1606.94 3.32727 -0.915776 0
M  V30 15539 C 1606.05 3.76691 -2.11489 0
M  V30 15540 C 1605.18 5.00865 -1.76939 0
M  V30 15541 C 1604.22 5.37291 -2.93232 0
M  V30 15542 N 1603.36 6.52643 -2.58846 0
M  V30 15543 H 1608.2 2.06851 -2.14515 0
M  V30 15544 H 1605.74 1.01256 -1.06703 0
M  V30 15545 H 1607.7 4.10712 -0.732881 0
M  V30 15546 H 1606.33 3.228 -0.00510917 0
M  V30 15547 H 1605.38 2.94449 -2.4084 0
M  V30 15548 H 1606.69 3.99613 -2.98514 0
M  V30 15549 H 1605.84 5.86529 -1.5514 0
M  V30 15550 H 1604.58 4.79857 -0.871125 0
M  V30 15551 H 1603.59 4.50143 -3.15675 0
M  V30 15552 H 1604.81 5.60262 -3.83775 0
M  V30 15553 H 1602.76 6.33172 -1.71548 0
M  V30 15554 H 1602.68 6.75531 -3.39401 0
M  V30 15555 H 1603.94 7.41487 -2.40451 0
M  V30 15556 N 1608.17 1.14759 1.0802 0
M  V30 15557 C 1609.41 0.928685 1.82085 0
M  V30 15558 C 1609.78 -0.534958 1.84397 0
M  V30 15559 O 1610.98 -0.871945 2.54265 0
M  V30 15560 C 1609.25 1.51791 3.23565 0
M  V30 15561 S 1610.81 1.44114 4.14459 0
M  V30 15562 H 1607.63 0.334389 0.627459 0
M  V30 15563 H 1610.23 1.46182 1.29812 0
M  V30 15564 H 1608.93 2.57622 3.19467 0
M  V30 15565 H 1608.46 0.983343 3.80912 0
M  V30 15566 H 1610.48 0.429366 4.94339 0
M  V30 15567 N 1609.65 -1.26251 0.943322 0
M  V30 15568 C 1611.07 -1.45943 0.645966 0
M  V30 15569 C 1611.27 -1.84936 -0.800064 0
M  V30 15570 O 1610.32 -1.97238 -1.57649 0
M  V30 15571 C 1611.64 -2.54017 1.60922 0
M  V30 15572 C 1613.18 -2.67866 1.61916 0
M  V30 15573 C 1613.66 -3.79113 2.56977 0
M  V30 15574 N 1615.15 -3.86509 2.55275 0
M  V30 15575 C 1615.88 -4.72048 3.25513 0
M  V30 15576 N 1615.38 -5.61959 4.05184 0
M  V30 15577 N 1617.17 -4.65913 3.14454 0
M  V30 15578 H 1609.32 -0.992295 1.87796 0
M  V30 15579 H 1611.59 -0.497204 0.80715 0
M  V30 15580 H 1611.29 -2.32197 2.64155 0
M  V30 15581 H 1611.17 -3.51715 1.36294 0
M  V30 15582 H 1613.55 -2.89059 0.594067 0
M  V30 15583 H 1613.64 -1.70604 1.90598 0
M  V30 15584 H 1613.28 -3.58673 3.59605 0
M  V30 15585 H 1613.21 -4.75836 2.25583 0
M  V30 15586 H 1615.7 -3.22229 1.97425 0
M  V30 15587 H 1616.01 -6.24127 4.55725 0
M  V30 15588 H 1614.36 -5.61704 4.09285 0
M  V30 15589 H 1617.55 -3.94675 2.51693 0
M  V30 15590 H 1617.72 -5.32356 3.69461 0
M  V30 15591 N 1611.13 -0.710588 -1.40671 0
M  V30 15592 C 1612.08 -0.043614 -2.32559 0
M  V30 15593 C 1613.07 0.752425 -1.51773 0
M  V30 15594 O 1614.28 0.656356 -1.67607 0
M  V30 15595 H 1610.65 0.00469865 -0.751985 0
M  V30 15596 H 1612.62 -0.835399 -2.86468 0
M  V30 15597 C 1611.37 0.867796 -3.36697 0
M  V30 15598 H 1610.7 0.264667 -3.98923 0
M  V30 15599 H 1612.14 1.30252 -4.03498 0
M  V30 15600 C 1610.59 1.99094 -2.71778 0
M  V30 15601 O 1611.12 3.08129 -2.5772 0
M  V30 15602 N 1609.33 1.77309 -2.30239 0
M  V30 15603 H 1608.88 0.886325 -2.41872 0
M  V30 15604 H 1608.84 2.52639 -1.87139 0
M  V30 15605 N 1612.61 1.50847 -0.456408 0
M  V30 15606 C 1613.84 2.0665 0.101737 0
M  V30 15607 C 1614.25 1.32188 1.34803 0
M  V30 15608 O 1613.61 0.38687 1.78352 0
M  V30 15609 C 1613.66 3.59227 0.404724 0
M  V30 15610 O 1613.38 4.30879 -0.79212 0
M  V30 15611 C 1614.88 4.31607 1.01145 0
M  V30 15612 H 1612.1 0.671 -0.000542219 0
M  V30 15613 H 1614.64 1.94195 -0.640974 0
M  V30 15614 H 1612.8 3.71533 1.09735 0
M  V30 15615 H 1613.21 5.21837 -0.527843 0
M  V30 15616 H 1614.69 5.39386 1.17332 0
M  V30 15617 H 1615.16 3.9114 1.99765 0
M  V30 15618 H 1615.77 4.23794 0.357645 0
M  V30 15619 N 1614.09 0.188454 1.56469 0
M  V30 15620 C 1615.33 -0.452238 1.96565 0
M  V30 15621 C 1615.65 -1.63219 1.07792 0
M  V30 15622 O 1616.85 -2.34024 1.37641 0
M  V30 15623 C 1615.31 -0.855966 3.49573 0
M  V30 15624 C 1614.92 0.299329 4.46999 0
M  V30 15625 C 1616.66 -1.46411 3.98452 0
M  V30 15626 C 1614.57 -0.124987 5.91268 0
M  V30 15627 H 1613.5 -0.172729 0.733949 0
M  V30 15628 H 1616.15 0.279415 1.8136 0
M  V30 15629 H 1614.53 -1.64409 3.60258 0
M  V30 15630 H 1615.71 1.07681 4.48042 0
M  V30 15631 H 1614.02 0.818542 4.08275 0
M  V30 15632 H 1616.62 -1.79392 5.03709 0
M  V30 15633 H 1616.96 -2.36822 3.42376 0
M  V30 15634 H 1617.49 -0.740088 3.90855 0
M  V30 15635 H 1614.23 0.744769 6.51255 0
M  V30 15636 H 1613.75 -0.86747 5.93494 0
M  V30 15637 H 1615.43 -0.563054 6.44545 0
M  V30 15638 N 1615.56 -1.5737 -0.0851874 0
M  V30 15639 C 1616.81 -1.86219 -0.7853 0
M  V30 15640 C 1617.13 -0.77857 -1.78783 0
M  V30 15641 O 1616.4 0.194176 -1.94935 0
M  V30 15642 H 1614.98 -0.687134 -0.293013 0
M  V30 15643 H 1617.64 -1.94793 -0.0644597 0
M  V30 15644 H 1616.74 -2.83286 -1.30978 0
M  V30 15645 N 1617.04 0.356258 -1.53521 0
M  V30 15646 C 1618.27 1.12273 -1.74383 0
M  V30 15647 C 1618.69 1.81981 -0.475881 0
M  V30 15648 O 1618.05 1.72083 0.570699 0
M  V30 15649 C 1618.1 2.12161 -2.91582 0
M  V30 15650 O 1617.2 3.1943 -2.60842 0
M  V30 15651 H 1616.54 0.325321 -0.578845 0
M  V30 15652 H 1619.07 0.410533 -2.00439 0
M  V30 15653 H 1619.08 2.55602 -3.18012 0
M  V30 15654 H 1617.76 1.60818 -3.8355 0
M  V30 15655 H 1616.33 2.80895 -2.4526 0
M  V30 15656 N 1618.52 1.45038 0.616577 0
M  V30 15657 C 1619.77 1.48585 1.37582 0
M  V30 15658 C 1620.09 0.124065 1.94104 0
M  V30 15659 O 1619.35 -0.876112 1.74994 0
M  V30 15660 C 1619.65 2.50545 2.54876 0
M  V30 15661 C 1619.31 3.95493 2.16555 0
M  V30 15662 C 1617.98 4.34963 2.05818 0
M  V30 15663 C 1620.33 4.86685 1.86512 0
M  V30 15664 C 1617.66 5.63531 1.63246 0
M  V30 15665 C 1620.01 6.15657 1.4543 0
M  V30 15666 C 1618.67 6.54066 1.33244 0
M  V30 15667 H 1617.94 0.543711 0.503447 0
M  V30 15668 H 1620.59 1.78334 0.697787 0
M  V30 15669 H 1618.89 2.14332 3.27977 0
M  V30 15670 H 1620.59 2.50531 3.13106 0
M  V30 15671 H 1617.18 3.64275 2.25836 0
M  V30 15672 H 1621.37 4.56936 1.9371 0
M  V30 15673 H 1616.62 5.92094 1.52427 0
M  V30 15674 H 1620.8 6.85768 1.21226 0
M  V30 15675 H 1618.42 7.5359 1.0003 0
M  V30 15676 N 1620 -0.858287 1.32179 0
M  V30 15677 C 1620.94 -1.96656 1.20811 0
M  V30 15678 C 1621.91 -1.6585 0.0911199 0
M  V30 15679 O 1623.1 -1.88936 0.266033 0
M  V30 15680 C 1620.24 -3.32237 0.933408 0
M  V30 15681 C 1619.35 -3.75564 2.13484 0
M  V30 15682 C 1618.49 -4.9992 1.79593 0
M  V30 15683 C 1617.53 -5.35728 2.96077 0
M  V30 15684 N 1616.66 -6.51261 2.62304 0
M  V30 15685 H 1621.5 -2.05711 2.15609 0
M  V30 15686 H 1619.04 -1.00689 1.07239 0
M  V30 15687 H 1621 -4.10318 0.754651 0
M  V30 15688 H 1619.63 -3.22792 0.0222279 0
M  V30 15689 H 1618.68 -2.93167 2.42399 0
M  V30 15690 H 1619.99 -3.98025 3.00629 0
M  V30 15691 H 1619.15 -5.85698 1.58248 0
M  V30 15692 H 1617.89 -4.79388 0.896561 0
M  V30 15693 H 1616.89 -4.48463 3.18058 0
M  V30 15694 H 1618.12 -5.58219 3.86741 0
M  V30 15695 H 1616.06 -6.32254 1.74904 0
M  V30 15696 H 1615.98 -6.73722 3.42979 0
M  V30 15697 H 1617.25 -7.40202 2.4438 0
M  V30 15698 N 1621.48 -1.1533 -1.07409 0
M  V30 15699 C 1622.72 -0.938329 -1.8159 0
M  V30 15700 C 1623.08 0.525171 -1.84678 0
M  V30 15701 O 1624.28 0.858449 -2.54724 0
M  V30 15702 C 1622.55 -1.53504 -3.22756 0
M  V30 15703 S 1624.11 -1.4631 -4.13689 0
M  V30 15704 H 1620.93 -0.337711 -0.625677 0
M  V30 15705 H 1623.53 -1.46868 -1.29035 0
M  V30 15706 H 1622.23 -2.59313 -3.18096 0
M  V30 15707 H 1621.77 -1.00353 -3.80385 0
M  V30 15708 H 1623.78 -0.455576 -4.94104 0
M  V30 15709 N 1622.95 1.25748 -0.950004 0
M  V30 15710 C 1624.37 1.45599 -0.653697 0
M  V30 15711 C 1624.57 1.85357 0.790245 0
M  V30 15712 O 1623.63 1.98071 1.56601 0
M  V30 15713 C 1624.94 2.5316 -1.62267 0
M  V30 15714 C 1626.49 2.67004 -1.63334 0
M  V30 15715 C 1626.96 3.77745 -2.58984 0
M  V30 15716 N 1628.45 3.8515 -2.57321 0
M  V30 15717 C 1629.19 4.70315 -3.28011 0
M  V30 15718 N 1628.68 5.59802 -4.08159 0
M  V30 15719 N 1630.48 4.64239 -3.16921 0
M  V30 15720 H 1622.63 0.982321 -1.88319 0
M  V30 15721 H 1624.89 0.492917 -0.809776 0
M  V30 15722 H 1624.6 2.30792 -2.65382 0
M  V30 15723 H 1624.47 3.50988 -1.38158 0
M  V30 15724 H 1626.86 2.88739 -0.609388 0
M  V30 15725 H 1626.94 1.69591 -1.915 0
M  V30 15726 H 1626.58 3.56761 -3.61502 0
M  V30 15727 H 1626.51 4.74633 -2.28103 0
M  V30 15728 H 1629 3.21178 -1.99131 0
M  V30 15729 H 1629.32 6.21701 -4.59029 0
M  V30 15730 H 1627.66 5.59525 -4.12258 0
M  V30 15731 H 1630.85 3.93335 -2.53782 0
M  V30 15732 H 1631.03 5.30389 -3.72279 0
M  V30 15733 N 1624.43 0.718038 1.40292 0
M  V30 15734 C 1625.67 0.263057 2.027 0
M  V30 15735 C 1626.04 -1.1233 1.55711 0
M  V30 15736 O 1627.24 -1.67541 2.10199 0
M  V30 15737 C 1625.51 0.342773 3.55752 0
M  V30 15738 S 1627.07 -0.0348622 4.38786 0
M  V30 15739 H 1623.88 0.10418 0.703326 0
M  V30 15740 H 1626.49 0.940801 1.71374 0
M  V30 15741 H 1625.19 1.35336 3.87443 0
M  V30 15742 H 1624.72 -0.353367 3.9181 0
M  V30 15743 H 1626.74 -1.25618 4.80036 0
M  V30 15744 N 1625.91 -1.50602 0.464402 0
M  V30 15745 C 1626.86 -2.29992 -0.347337 0
M  V30 15746 C 1627.85 -1.36991 -0.996489 0
M  V30 15747 O 1629.06 -1.54213 -0.928359 0
M  V30 15748 H 1625.43 -0.740529 -0.130847 0
M  V30 15749 H 1627.4 -2.96425 0.342734 0
M  V30 15750 C 1626.15 -3.17355 -1.4206 0
M  V30 15751 H 1625.48 -3.88822 -0.930473 0
M  V30 15752 H 1626.92 -3.75912 -1.96129 0
M  V30 15753 C 1625.38 -2.34506 -2.41886 0
M  V30 15754 O 1625.91 -2.02347 -3.47014 0
M  V30 15755 N 1624.11 -1.97212 -2.13438 0
M  V30 15756 H 1623.66 -2.23564 -1.27971 0
M  V30 15757 H 1623.62 -1.42081 -2.80464 0
M  V30 15758 N 1627.39 -0.19675 -1.56367 0
M  V30 15759 C 1628.61 0.450245 -2.02454 0
M  V30 15760 C 1629.04 1.54287 -1.07597 0
M  V30 15761 O 1628.4 1.81202 -0.0597529 0
M  V30 15762 C 1628.44 0.982087 -3.46969 0
M  V30 15763 O 1627.55 2.09489 -3.5523 0
M  V30 15764 H 1626.89 0.105022 -0.655642 0
M  V30 15765 H 1629.42 -0.308112 -2.02267 0
M  V30 15766 H 1629.43 1.29826 -3.86793 0
M  V30 15767 H 1628.1 0.18224 -4.15501 0
M  V30 15768 H 1626.68 1.78723 -3.27281 0
M  V30 15769 N 1628.87 1.57413 0.0768405 0
M  V30 15770 C 1630.11 1.86633 0.775414 0
M  V30 15771 C 1630.44 0.788041 1.78367 0
M  V30 15772 O 1629.71 -0.183835 1.95036 0
M  V30 15773 H 1628.29 0.688678 0.289365 0
M  V30 15774 H 1630.95 1.94825 0.0541285 0
M  V30 15775 H 1630.04 2.83977 1.29474 0
M  V30 15776 N 1630.34 -0.348112 1.53707 0
M  V30 15777 C 1631.59 -1.08886 1.70734 0
M  V30 15778 C 1631.92 -1.88782 0.468142 0
M  V30 15779 O 1631.17 -1.8781 -0.550081 0
M  V30 15780 C 1631.47 -2.06123 2.91973 0
M  V30 15781 C 1631.14 -1.42574 4.27766 0
M  V30 15782 C 1629.8 -1.24971 4.64689 0
M  V30 15783 C 1632.15 -0.967538 5.12141 0
M  V30 15784 C 1629.48 -0.601597 5.83607 0
M  V30 15785 C 1631.83 -0.33335 6.31721 0
M  V30 15786 C 1630.5 -0.144967 6.67343 0
M  V30 15787 H 1629.77 -0.398444 0.624759 0
M  V30 15788 H 1632.41 -0.368657 1.87918 0
M  V30 15789 H 1630.72 -2.84509 2.69373 0
M  V30 15790 H 1632.42 -2.63423 3.0234 0
M  V30 15791 H 1629.01 -1.57271 3.98702 0
M  V30 15792 H 1633.19 -1.0914 4.84151 0
M  V30 15793 H 1628.45 -0.444216 6.09784 0
M  V30 15794 H 1632.62 0.0298081 6.96394 0
M  V30 15795 H 1630.25 0.359291 7.5935 0
M  V30 15796 N 1631.82 -1.45363 -0.608876 0
M  V30 15797 C 1632.79 -1.53551 -1.70161 0
M  V30 15798 C 1633.79 -0.415146 -1.55349 0
M  V30 15799 O 1634.98 -0.67858 -1.6044 0
M  V30 15800 C 1632.11 -1.43081 -3.0942 0
M  V30 15801 H 1633.3 -2.5091 -1.64268 0
M  V30 15802 H 1630.85 -1.32785 -0.824493 0
M  V30 15803 H 1631.59 -0.469016 -3.20891 0
M  V30 15804 H 1631.37 -2.24343 -3.21579 0
M  V30 15805 H 1632.86 -1.51841 -3.89017 0
M  V30 15806 N 1633.3 0.851265 -1.32632 0
M  V30 15807 C 1634.23 1.97562 -1.24465 0
M  V30 15808 C 1635.21 1.69619 -0.127777 0
M  V30 15809 O 1636.4 1.9162 -0.315509 0
M  V30 15810 C 1633.53 3.33467 -0.970423 0
M  V30 15811 C 1632.48 3.75772 -2.0489 0
M  V30 15812 C 1631.81 5.09345 -1.62702 0
M  V30 15813 C 1633.11 3.90876 -3.4643 0
M  V30 15814 H 1634.8 2.04653 -2.18535 0
M  V30 15815 H 1632.35 0.983252 -1.05205 0
M  V30 15816 H 1634.3 4.11681 -0.899825 0
M  V30 15817 H 1633.02 3.26599 0.00591373 0
M  V30 15818 H 1631.68 2.99812 -2.1097 0
M  V30 15819 H 1631.33 4.98937 -0.638039 0
M  V30 15820 H 1631.03 5.38621 -2.34864 0
M  V30 15821 H 1632.55 5.90048 -1.57085 0
M  V30 15822 H 1633.97 4.59434 -3.42919 0
M  V30 15823 H 1632.37 4.31574 -4.1697 0
M  V30 15824 H 1633.44 2.93689 -3.85843 0
M  V30 15825 N 1634.78 1.15898 1.06796 0
M  V30 15826 C 1636.06 0.847701 1.76276 0
M  V30 15827 C 1636.44 -0.655537 2.00664 0
M  V30 15828 O 1635.78 -1.60171 1.62964 0
M  V30 15829 C 1635.99 1.66475 3.06736 0
M  V30 15830 C 1637.34 1.87452 3.80982 0
M  V30 15831 O 1638.37 1.63298 3.16563 0
M  V30 15832 O 1637.22 2.27942 4.96694 0
M  V30 15833 H 1634.32 0.312308 0.765763 0
M  V30 15834 H 1636.86 1.26507 1.13111 0
M  V30 15835 H 1635.64 2.68508 2.84638 0
M  V30 15836 H 1635.26 1.24409 3.77635 0
M  V30 15837 N 1636.26 -1.25243 0.956659 0
M  V30 15838 C 1637.19 -2.24251 0.422686 0
M  V30 15839 C 1638.17 -1.54815 -0.497106 0
M  V30 15840 O 1639.35 -1.83506 -0.431019 0
M  V30 15841 C 1636.48 -3.36436 -0.390996 0
M  V30 15842 C 1635.52 -4.23908 0.469484 0
M  V30 15843 S 1636.36 -5.00547 1.90297 0
M  V30 15844 C 1637.51 -6.16198 1.09777 0
M  V30 15845 H 1637.75 -2.69197 1.26175 0
M  V30 15846 H 1635.28 -1.3435 0.76088 0
M  V30 15847 H 1637.24 -4.01508 -0.854516 0
M  V30 15848 H 1635.9 -2.9007 -1.20491 0
M  V30 15849 H 1635.09 -5.03763 -0.154694 0
M  V30 15850 H 1634.69 -3.63781 0.868294 0
M  V30 15851 H 1636.99 -6.76609 0.347418 0
M  V30 15852 H 1637.93 -6.82953 1.87031 0
M  V30 15853 H 1638.34 -5.61007 0.627003 0
M  V30 15854 N 1637.73 -0.725468 -1.3991 0
M  V30 15855 C 1638.64 -0.0805887 -2.34462 0
M  V30 15856 C 1639.66 0.732689 -1.57822 0
M  V30 15857 O 1640.84 0.663362 -1.90162 0
M  V30 15858 C 1637.9 0.822908 -3.36792 0
M  V30 15859 C 1636.96 -0.00153812 -4.293 0
M  V30 15860 C 1636.2 0.85893 -5.26743 0
M  V30 15861 O 1636.42 2.09793 -5.30418 0
M  V30 15862 O 1635.35 0.292659 -6.01188 0
M  V30 15863 H 1639.18 -0.860746 -2.91247 0
M  V30 15864 H 1636.76 -0.48604 -1.41273 0
M  V30 15865 H 1638.65 1.34014 -3.99522 0
M  V30 15866 H 1637.32 1.58204 -2.82406 0
M  V30 15867 H 1636.23 -0.564072 -3.69823 0
M  V30 15868 H 1637.56 -0.722675 -4.86866 0
M  V30 15869 N 1639.21 1.50354 -0.472382 0
M  V30 15870 C 1640.12 2.32318 0.326405 0
M  V30 15871 C 1641.14 1.4276 0.994771 0
M  V30 15872 O 1642.31 1.75811 0.98246 0
M  V30 15873 C 1639.38 3.17468 1.39337 0
M  V30 15874 C 1638.44 4.22848 0.741465 0
M  V30 15875 C 1637.67 5.03929 1.75759 0
M  V30 15876 O 1637.9 4.86105 2.98425 0
M  V30 15877 O 1636.83 5.87051 1.32871 0
M  V30 15878 H 1640.66 3.01749 -0.343702 0
M  V30 15879 H 1638.24 1.47553 -0.234207 0
M  V30 15880 H 1640.12 3.703 2.01136 0
M  V30 15881 H 1638.8 2.50764 2.04692 0
M  V30 15882 H 1637.71 3.74005 0.0844848 0
M  V30 15883 H 1639.04 4.92026 0.130838 0
M  V30 15884 N 1640.69 0.205039 1.56261 0
M  V30 15885 C 1642.11 -0.150644 1.58887 0
M  V30 15886 C 1642.31 -1.60256 1.22148 0
M  V30 15887 O 1641.36 -2.33991 0.948912 0
M  V30 15888 C 1642.68 0.160711 3.0027 0
M  V30 15889 C 1644.22 0.101616 3.12835 0
M  V30 15890 C 1644.7 0.386417 4.56367 0
M  V30 15891 N 1646.19 0.335392 4.61984 0
M  V30 15892 C 1646.93 0.529473 5.7095 0
M  V30 15893 N 1646.42 0.784441 6.88345 0
M  V30 15894 N 1648.21 0.463044 5.6019 0
M  V30 15895 H 1640.37 1.15238 1.78421 0
M  V30 15896 H 1642.63 0.460698 0.82853 0
M  V30 15897 H 1642.33 1.1678 3.31746 0
M  V30 15898 H 1642.21 -0.532067 3.73429 0
M  V30 15899 H 1644.6 -0.896093 2.81166 0
M  V30 15900 H 1644.68 0.827622 2.42041 0
M  V30 15901 H 1644.32 1.38149 4.88751 0
M  V30 15902 H 1644.25 -0.360592 5.25364 0
M  V30 15903 H 1646.74 0.145346 3.7762 0
M  V30 15904 H 1647.05 0.921077 7.67291 0
M  V30 15905 H 1645.4 0.821448 6.90128 0
M  V30 15906 H 1648.59 0.2642 4.67354 0
M  V30 15907 H 1648.76 0.617712 6.45049 0
M  V30 15908 N 1642.17 -1.57451 -0.0684915 0
M  V30 15909 C 1643.12 -2.04959 -1.09975 0
M  V30 15910 C 1644.11 -0.955558 -1.39877 0
M  V30 15911 O 1645.32 -1.14066 -1.39245 0
M  V30 15912 H 1641.69 -0.653542 -0.372003 0
M  V30 15913 H 1643.66 -2.90713 -0.67294 0
M  V30 15914 C 1642.41 -2.51192 -2.40412 0
M  V30 15915 H 1641.74 -3.3497 -2.18254 0
M  V30 15916 H 1643.18 -2.88183 -3.11008 0
M  V30 15917 C 1641.63 -1.39624 -3.06605 0
M  V30 15918 O 1642.16 -0.740191 -3.94822 0
M  V30 15919 N 1640.37 -1.14054 -2.67283 0
M  V30 15920 H 1639.92 -1.67585 -1.95635 0
M  V30 15921 H 1639.88 -0.396106 -3.11895 0
M  V30 15922 N 1643.65 0.339955 -1.5389 0
M  V30 15923 C 1644.89 1.0882 -1.73025 0
M  V30 15924 C 1645.25 1.85773 -0.485017 0
M  V30 15925 O 1646.45 2.63041 -0.55345 0
M  V30 15926 C 1644.72 2.00153 -2.96097 0
M  V30 15927 S 1646.28 2.82151 -3.3606 0
M  V30 15928 H 1643.1 0.367632 -0.608578 0
M  V30 15929 H 1645.7 0.366178 -1.9204 0
M  V30 15930 H 1644.41 1.42426 -3.84893 0
M  V30 15931 H 1643.94 2.76787 -2.79558 0
M  V30 15932 H 1645.95 4.0258 -2.90076 0
M  V30 15933 N 1645.13 1.45684 0.601159 0
M  V30 15934 C 1646.35 1.53574 1.38646 0
M  V30 15935 C 1646.77 0.170511 1.88028 0
M  V30 15936 O 1646.13 -0.829061 1.62582 0
M  V30 15937 C 1646.18 2.52543 2.58658 0
M  V30 15938 O 1645.9 3.83761 2.11327 0
M  V30 15939 C 1647.4 2.70194 3.5144 0
M  V30 15940 H 1644.62 0.519907 0.424191 0
M  V30 15941 H 1647.16 1.90929 0.732559 0
M  V30 15942 H 1645.32 2.18242 3.20077 0
M  V30 15943 H 1645.73 4.37467 2.89349 0
M  V30 15944 H 1647.21 3.43405 4.32177 0
M  V30 15945 H 1647.68 1.76452 4.02196 0
M  V30 15946 H 1648.29 3.05517 2.95871 0
M  V30 15947 N 1646.6 -0.84422 1.33082 0
M  V30 15948 C 1647.88 -1.58339 1.1484 0
M  V30 15949 C 1648.26 -2.09136 -0.287273 0
M  V30 15950 O 1647.61 -1.8891 -1.2855 0
M  V30 15951 C 1647.82 -2.72141 2.18496 0
M  V30 15952 C 1649.17 -3.41457 2.52373 0
M  V30 15953 O 1650.19 -2.82377 2.17122 0
M  V30 15954 O 1649.05 -4.48096 3.12845 0
M  V30 15955 H 1646.14 -0.697813 0.443831 0
M  V30 15956 H 1648.69 -0.88744 1.44646 0
M  V30 15957 H 1647.46 -2.32206 3.14954 0
M  V30 15958 H 1647.08 -3.49404 1.89744 0
M  V30 15959 N 1648.08 -1.16463 -1.0618 0
M  V30 15960 C 1649.33 -0.941322 -1.78387 0
M  V30 15961 C 1649.64 0.531995 -1.88226 0
M  V30 15962 O 1650.85 0.873227 -2.57074 0
M  V30 15963 C 1649.31 -1.63491 -3.20623 0
M  V30 15964 C 1648.91 -3.14607 -3.18946 0
M  V30 15965 C 1650.66 -1.49361 -3.97356 0
M  V30 15966 C 1648.56 -3.76698 -4.55908 0
M  V30 15967 H 1647.49 -0.348549 -0.668603 0
M  V30 15968 H 1650.15 -1.39607 -1.19088 0
M  V30 15969 H 1648.53 -1.10787 -3.80187 0
M  V30 15970 H 1649.7 -3.74164 -2.68957 0
M  V30 15971 H 1648.02 -3.28634 -2.55712 0
M  V30 15972 H 1650.61 -1.93131 -4.98603 0
M  V30 15973 H 1650.96 -0.442724 -4.13939 0
M  V30 15974 H 1651.49 -1.99227 -3.44316 0
M  V30 15975 H 1648.23 -4.8174 -4.4453 0
M  V30 15976 H 1647.75 -3.21927 -5.06086 0
M  V30 15977 H 1649.43 -3.78321 -5.24864 0
M  V30 15978 N 1649.56 1.24734 -0.963288 0
M  V30 15979 C 1650.84 1.88004 -0.539809 0
M  V30 15980 C 1651.22 1.86814 0.983035 0
M  V30 15981 O 1650.56 1.33769 1.85251 0
M  V30 15982 C 1650.77 3.30326 -1.1263 0
M  V30 15983 C 1652.12 4.07039 -1.20848 0
M  V30 15984 O 1653.15 3.3948 -1.07849 0
M  V30 15985 O 1652.01 5.27906 -1.41342 0
M  V30 15986 H 1649.1 0.807318 -0.17935 0
M  V30 15987 H 1651.65 1.3274 -1.05727 0
M  V30 15988 H 1650.42 3.25668 -2.16925 0
M  V30 15989 H 1650.04 3.93159 -0.592614 0
M  V30 15990 N 1651.04 0.732878 1.39523 0
M  V30 15991 C 1651.95 0.0930216 2.34416 0
M  V30 15992 C 1652.96 -0.724309 1.58208 0
M  V30 15993 O 1654.14 -0.653267 1.90511 0
M  V30 15994 C 1651.2 -0.805036 3.37224 0
M  V30 15995 C 1650.27 0.0243049 4.29293 0
M  V30 15996 C 1649.5 -0.830984 5.27191 0
M  V30 15997 O 1649.72 -2.06977 5.31523 0
M  V30 15998 O 1648.66 -0.260772 6.01335 0
M  V30 15999 H 1652.48 0.876179 2.90786 0
M  V30 16000 H 1650.07 0.493525 1.41013 0
M  V30 16001 H 1651.95 -1.31894 4.00228 0
M  V30 16002 H 1650.62 -1.56704 2.83241 0
M  V30 16003 H 1649.53 0.583677 3.69519 0
M  V30 16004 H 1650.86 0.748485 4.86476 0
M  V30 16005 N 1652.52 -1.50101 0.480349 0
M  V30 16006 C 1653.76 -2.0428 -0.0700589 0
M  V30 16007 C 1654.12 -1.35372 -1.36155 0
M  V30 16008 O 1655.32 -1.80157 -1.99492 0
M  V30 16009 C 1653.59 -3.56591 -0.240285 0
M  V30 16010 S 1655.15 -4.32379 -0.747916 0
M  V30 16011 H 1651.97 -0.710906 -0.0115761 0
M  V30 16012 H 1654.57 -1.84392 0.649604 0
M  V30 16013 H 1653.27 -4.04294 0.705315 0
M  V30 16014 H 1652.81 -3.80849 -0.985792 0
M  V30 16015 H 1654.82 -4.5322 -2.02005 0
M  V30 16016 N 1653.99 -0.213323 -1.5615 0
M  V30 16017 C 1655.41 0.142215 -1.58965 0
M  V30 16018 C 1655.61 1.59606 -1.22996 0
M  V30 16019 O 1654.67 2.33485 -0.961308 0
M  V30 16020 C 1655.98 -0.176632 -3.00181 0
M  V30 16021 C 1657.53 -0.118205 -3.12777 0
M  V30 16022 C 1658 -0.410614 -4.56156 0
M  V30 16023 N 1659.49 -0.359887 -4.618 0
M  V30 16024 C 1660.23 -0.559744 -5.70661 0
M  V30 16025 N 1659.72 -0.820934 -6.87919 0
M  V30 16026 N 1661.52 -0.492746 -5.59936 0
M  V30 16027 H 1653.67 -1.16182 -1.77807 0
M  V30 16028 H 1655.93 -0.465086 -0.826075 0
M  V30 16029 H 1655.64 -1.18538 -3.31122 0
M  V30 16030 H 1655.51 0.512256 -3.73705 0
M  V30 16031 H 1657.9 0.88117 -2.81637 0
M  V30 16032 H 1657.98 -0.840446 -2.41599 0
M  V30 16033 H 1657.62 -1.40739 -4.88011 0
M  V30 16034 H 1657.55 0.332725 -5.25548 0
M  V30 16035 H 1660.04 -0.16537 -3.77538 0
M  V30 16036 H 1660.36 -0.961755 -7.66792 0
M  V30 16037 H 1658.7 -0.858036 -6.89683 0
M  V30 16038 H 1661.89 -0.288981 -4.67207 0
M  V30 16039 H 1662.07 -0.651912 -6.44712 0
M  V30 16040 N 1655.47 1.57485 0.0601405 0
M  V30 16041 C 1656.72 1.86998 0.75595 0
M  V30 16042 C 1657.03 0.807616 1.78149 0
M  V30 16043 O 1658.24 0.99096 2.52769 0
M  V30 16044 C 1656.7 3.31746 1.39545 0
M  V30 16045 C 1656.3 4.46139 0.407874 0
M  V30 16046 C 1658.05 3.70445 2.07294 0
M  V30 16047 C 1655.96 5.81933 1.05395 0
M  V30 16048 H 1654.89 0.697619 0.286083 0
M  V30 16049 H 1657.54 1.83498 0.00948593 0
M  V30 16050 H 1655.92 3.29894 2.19057 0
M  V30 16051 H 1657.09 4.59405 -0.358281 0
M  V30 16052 H 1655.41 4.1607 -0.16581 0
M  V30 16053 H 1658 4.692 2.56428 0
M  V30 16054 H 1658.35 3.00839 2.87753 0
M  V30 16055 H 1658.88 3.74337 1.34598 0
M  V30 16056 H 1655.62 6.54861 0.289437 0
M  V30 16057 H 1655.14 5.72446 1.79068 0
M  V30 16058 H 1656.82 6.27652 1.5704 0
M  V30 16059 N 1656.95 -0.331789 1.54068 0
M  V30 16060 C 1658.18 -1.09484 1.76148 0
M  V30 16061 C 1658.6 -1.81201 0.504772 0
M  V30 16062 O 1657.96 -1.7297 -0.54325 0
M  V30 16063 C 1658.01 -2.07495 2.94921 0
M  V30 16064 O 1657.11 -3.15239 2.65891 0
M  V30 16065 H 1656.45 -0.316071 0.583948 0
M  V30 16066 H 1658.98 -0.378593 2.01067 0
M  V30 16067 H 1658.99 -2.5051 3.22038 0
M  V30 16068 H 1657.67 -1.54696 3.8606 0
M  V30 16069 H 1656.24 -2.76958 2.49697 0
M  V30 16070 N 1658.43 -1.46001 -0.593424 0
M  V30 16071 C 1659.84 -1.45049 -1.17549 0
M  V30 16072 C 1660.19 -0.185601 -1.9532 0
M  V30 16073 O 1659.32 0.711989 -2.04352 0
M  V30 16074 C 1659.91 -2.62789 -2.13839 0
M  V30 16075 C 1658.47 -2.64912 -2.67392 0
M  V30 16076 C 1657.62 -2.37549 -1.43059 0
M  V30 16077 H 1660.57 -1.54035 -0.381944 0
M  V30 16078 H 1660.59 -2.37696 -2.97121 0
M  V30 16079 H 1660.1 -3.54834 -1.57208 0
M  V30 16080 H 1658.2 -1.76911 -3.27922 0
M  V30 16081 H 1658.31 -3.6456 -3.10858 0
M  V30 16082 H 1656.68 -1.8739 -1.72503 0
M  V30 16083 H 1657.46 -3.31757 -0.882746 0
M  V30 16084 N 1659.91 0.83715 -1.33527 0
M  V30 16085 C 1661.18 1.57727 -1.15678 0
M  V30 16086 C 1661.56 2.09286 0.276178 0
M  V30 16087 O 1660.91 1.89589 1.27547 0
M  V30 16088 C 1661.12 2.70978 -2.19936 0
M  V30 16089 C 1662.47 3.40114 -2.5418 0
M  V30 16090 O 1663.49 2.81221 -2.18616 0
M  V30 16091 O 1662.35 4.46431 -3.15217 0
M  V30 16092 H 1659.45 0.69545 -0.447525 0
M  V30 16093 H 1661.99 0.879756 -1.45115 0
M  V30 16094 H 1660.76 2.30532 -3.16181 0
M  V30 16095 H 1660.39 3.48393 -1.91594 0
M  V30 16096 N 1661.38 1.17024 1.05561 0
M  V30 16097 C 1662.31 0.906823 2.15172 0
M  V30 16098 C 1663.3 -0.149745 1.6944 0
M  V30 16099 O 1664.48 -0.000287092 1.942 0
M  V30 16100 C 1661.61 0.415251 3.44809 0
M  V30 16101 C 1660.56 1.41058 4.04088 0
M  V30 16102 C 1659.89 0.777109 5.29023 0
M  V30 16103 C 1661.19 2.78258 4.42007 0
M  V30 16104 H 1662.88 1.82347 2.37466 0
M  V30 16105 H 1660.43 0.878162 1.14124 0
M  V30 16106 H 1662.38 0.218407 4.20834 0
M  V30 16107 H 1661.11 -0.536924 3.22156 0
M  V30 16108 H 1659.77 1.5941 3.30127 0
M  V30 16109 H 1659.41 -0.181784 5.02671 0
M  V30 16110 H 1659.11 1.44151 5.69644 0
M  V30 16111 H 1660.64 0.590455 6.07738 0
M  V30 16112 H 1662.05 2.63645 5.09082 0
M  V30 16113 H 1660.45 3.41241 4.93634 0
M  V30 16114 H 1661.52 3.3295 3.52523 0
M  V30 16115 N 1662.86 -1.24221 0.969889 0
M  V30 16116 C 1664.1 -1.94094 0.640856 0
M  V30 16117 C 1664.47 -1.74112 -0.809267 0
M  V30 16118 O 1665.67 -2.38039 -1.24863 0
M  V30 16119 C 1663.94 -3.42892 1.00797 0
M  V30 16120 S 1665.5 -4.3156 0.79382 0
M  V30 16121 H 1662.32 -0.671028 0.235036 0
M  V30 16122 H 1664.92 -1.50541 1.24731 0
M  V30 16123 H 1663.62 -3.54942 2.0602 0
M  V30 16124 H 1663.15 -3.91438 0.392386 0
M  V30 16125 H 1665.17 -4.95117 -0.327707 0
M  V30 16126 N 1664.34 -0.740267 -1.39132 0
M  V30 16127 C 1665.59 -0.289949 -2.00009 0
M  V30 16128 C 1665.91 1.12831 -1.59042 0
M  V30 16129 O 1665.18 1.76926 -0.841076 0
M  V30 16130 H 1663.76 -0.104213 -0.739695 0
M  V30 16131 H 1666.42 -0.951398 -1.70101 0
M  V30 16132 H 1665.52 -0.342509 -3.10215 0
M  V30 16133 N 1665.82 1.49844 -0.488302 0
M  V30 16134 C 1667.04 2.07313 0.0600937 0
M  V30 16135 C 1667.47 1.3478 1.3121 0
M  V30 16136 O 1666.83 0.400634 1.76818 0
M  V30 16137 C 1666.87 3.59268 0.309658 0
M  V30 16138 O 1665.98 3.88381 1.38688 0
M  V30 16139 H 1665.32 0.663681 -0.0205947 0
M  V30 16140 H 1667.85 1.92818 -0.684284 0
M  V30 16141 H 1667.86 4.04344 0.545 0
M  V30 16142 H 1666.53 4.11474 -0.605146 0
M  V30 16143 H 1665.11 3.55128 1.13749 0
M  V30 16144 N 1667.3 0.221601 1.56034 0
M  V30 16145 C 1668.54 -0.409277 1.97912 0
M  V30 16146 C 1668.87 -1.60291 1.11049 0
M  V30 16147 O 1668.14 -1.95 0.187529 0
M  V30 16148 H 1666.72 -0.154201 0.730911 0
M  V30 16149 H 1669.38 0.314508 1.92346 0
M  V30 16150 H 1668.47 -0.73557 3.03308 0
M  V30 16151 N 1668.77 -1.57515 -0.0517878 0
M  V30 16152 C 1670.02 -1.87396 -0.746022 0
M  V30 16153 C 1670.34 -0.817053 -1.77718 0
M  V30 16154 O 1671.54 -1.00435 -2.5224 0
M  V30 16155 C 1670 -3.32481 -1.37783 0
M  V30 16156 C 1669.61 -4.46349 -0.384208 0
M  V30 16157 C 1671.35 -3.71539 -2.05327 0
M  V30 16158 C 1669.26 -5.82484 -1.02307 0
M  V30 16159 H 1668.19 -0.699127 -0.282379 0
M  V30 16160 H 1670.84 -1.835 0.000245524 0
M  V30 16161 H 1669.22 -3.31051 -2.17304 0
M  V30 16162 H 1670.39 -4.59209 0.382639 0
M  V30 16163 H 1668.71 -4.15976 0.187873 0
M  V30 16164 H 1671.31 -4.70553 -2.53936 0
M  V30 16165 H 1671.65 -3.02361 -2.86153 0
M  V30 16166 H 1672.18 -3.75046 -1.32611 0
M  V30 16167 H 1668.92 -6.55005 -0.254704 0
M  V30 16168 H 1668.44 -5.73388 -1.7603 0
M  V30 16169 H 1670.12 -6.28476 -1.5371 0
M  V30 16170 N 1670.25 0.323614 -1.54242 0
M  V30 16171 C 1671.49 1.06978 -1.74169 0
M  V30 16172 C 1671.86 1.85248 -0.504693 0
M  V30 16173 O 1673.06 2.62439 -0.581318 0
M  V30 16174 C 1671.33 1.97001 -2.98203 0
M  V30 16175 S 1672.89 2.78571 -3.39034 0
M  V30 16176 H 1669.71 0.361157 -0.612443 0
M  V30 16177 H 1672.31 0.345789 -1.92418 0
M  V30 16178 H 1671.01 1.38336 -3.86382 0
M  V30 16179 H 1670.54 2.73806 -2.82478 0
M  V30 16180 H 1672.56 3.99481 -2.94329 0
M  V30 16181 N 1671.73 1.46313 0.585673 0
M  V30 16182 C 1672.98 1.51694 1.34598 0
M  V30 16183 C 1673.31 0.166889 1.93482 0
M  V30 16184 O 1672.59 -0.821331 1.76308 0
M  V30 16185 C 1672.87 2.61322 2.47755 0
M  V30 16186 C 1672.72 4.05848 1.93926 0
M  V30 16187 C 1674.04 2.67058 3.49812 0
M  V30 16188 H 1671.16 0.552253 0.488043 0
M  V30 16189 H 1673.8 1.78235 0.658201 0
M  V30 16190 H 1671.95 2.38822 3.06425 0
M  V30 16191 H 1673.62 4.39626 1.39736 0
M  V30 16192 H 1671.87 4.15468 1.24775 0
M  V30 16193 H 1672.54 4.78279 2.75596 0
M  V30 16194 H 1675.01 2.87276 3.01018 0
M  V30 16195 H 1673.89 3.45589 4.2645 0
M  V30 16196 H 1674.15 1.72993 4.06849 0
M  V30 16197 N 1673.21 -0.830057 1.33969 0
M  V30 16198 C 1674.16 -1.96189 1.2495 0
M  V30 16199 C 1675.15 -1.68743 0.149047 0
M  V30 16200 O 1676.36 -1.77248 0.31357 0
M  V30 16201 H 1672.73 -0.644184 0.387983 0
M  V30 16202 H 1674.7 -2.0092 2.20621 0
M  V30 16203 C 1673.45 -3.32569 1.01456 0
M  V30 16204 H 1672.78 -3.54232 1.85363 0
M  V30 16205 H 1674.22 -4.12237 0.991786 0
M  V30 16206 C 1672.67 -3.35715 -0.282331 0
M  V30 16207 O 1673.2 -3.80556 -1.28609 0
M  V30 16208 N 1671.41 -2.8891 -0.312952 0
M  V30 16209 H 1670.96 -2.52613 0.504446 0
M  V30 16210 H 1670.92 -2.91397 -1.18047 0
M  V30 16211 N 1674.69 -1.17582 -1.04939 0
M  V30 16212 C 1675.92 -0.990398 -1.81656 0
M  V30 16213 C 1676.33 0.461324 -1.83077 0
M  V30 16214 O 1675.69 1.32037 -1.25986 0
M  V30 16215 C 1675.74 -1.52719 -3.27657 0
M  V30 16216 O 1675.46 -2.92206 -3.26415 0
M  V30 16217 C 1676.96 -1.38671 -4.21053 0
M  V30 16218 H 1674.18 -0.35024 -0.57234 0
M  V30 16219 H 1676.72 -1.5593 -1.32311 0
M  V30 16220 H 1674.88 -1.00026 -3.74264 0
M  V30 16221 H 1675.29 -3.17068 -4.17814 0
M  V30 16222 H 1676.77 -1.8104 -5.21468 0
M  V30 16223 H 1677.24 -0.334151 -4.37927 0
M  V30 16224 H 1677.85 -1.90393 -3.80303 0
M  V30 16225 N 1676.17 1.23705 -0.976463 0
M  V30 16226 C 1677.58 1.73848 -0.680723 0
M  V30 16227 C 1677.93 1.79005 0.803228 0
M  V30 16228 O 1677.05 1.42529 1.62832 0
M  V30 16229 C 1677.65 3.15724 -1.22898 0
M  V30 16230 C 1676.21 3.63338 -0.982963 0
M  V30 16231 C 1675.35 2.41712 -1.35906 0
M  V30 16232 H 1678.3 1.09284 -1.15077 0
M  V30 16233 H 1678.33 3.75748 -0.599487 0
M  V30 16234 H 1677.84 3.11938 -2.30903 0
M  V30 16235 H 1675.94 3.72512 0.0811766 0
M  V30 16236 H 1676.05 4.50347 -1.63477 0
M  V30 16237 H 1674.42 2.42543 -0.777498 0
M  V30 16238 H 1675.2 2.40601 -2.4488 0
M  V30 16239 N 1677.64 0.747635 1.38738 0
M  V30 16240 C 1678.89 0.300552 1.99853 0
M  V30 16241 C 1679.21 -1.11986 1.59638 0
M  V30 16242 O 1678.48 -1.76477 0.850447 0
M  V30 16243 H 1677.06 0.108134 0.739132 0
M  V30 16244 H 1679.72 0.960405 1.69594 0
M  V30 16245 H 1678.82 0.358956 3.10029 0
M  V30 16246 N 1679.12 -1.49583 0.496242 0
M  V30 16247 C 1680.35 -2.07342 -0.0490986 0
M  V30 16248 C 1680.77 -1.35474 -1.30493 0
M  V30 16249 O 1680.13 -0.410005 -1.76603 0
M  V30 16250 C 1680.18 -3.59427 -0.290601 0
M  V30 16251 O 1679.28 -3.89111 -1.36626 0
M  V30 16252 H 1678.62 -0.663562 0.0241141 0
M  V30 16253 H 1681.15 -1.92452 0.6945 0
M  V30 16254 H 1681.16 -4.04627 -0.523549 0
M  V30 16255 H 1679.84 -4.11147 0.626959 0
M  V30 16256 H 1678.41 -3.55726 -1.11864 0
M  V30 16257 N 1680.6 -0.229873 -1.55915 0
M  V30 16258 C 1681.85 0.399565 -1.98519 0
M  V30 16259 C 1682.17 1.59179 -1.1177 0
M  V30 16260 O 1681.43 1.95007 -0.16454 0
M  V30 16261 C 1681.73 0.869043 -3.46673 0
M  V30 16262 C 1681.39 -0.21356 -4.50394 0
M  V30 16263 C 1680.06 -0.510939 -4.7848 0
M  V30 16264 C 1682.41 -0.945307 -5.12556 0
M  V30 16265 C 1679.74 -1.54444 -5.66007 0
M  V30 16266 C 1682.09 -1.9682 -6.01203 0
M  V30 16267 C 1680.75 -2.27241 -6.27629 0
M  V30 16268 H 1680.02 0.146211 -0.726432 0
M  V30 16269 H 1682.67 -0.334135 -1.88562 0
M  V30 16270 H 1680.97 1.68165 -3.53875 0
M  V30 16271 H 1682.67 1.36605 -3.77015 0
M  V30 16272 H 1679.26 0.0283699 -4.28591 0
M  V30 16273 H 1683.45 -0.728806 -4.9092 0
M  V30 16274 H 1678.7 -1.78566 -5.84743 0
M  V30 16275 H 1682.88 -2.54023 -6.48418 0
M  V30 16276 H 1680.5 -3.07465 -6.95248 0
M  V30 16277 N 1682.08 1.5754 0.0434337 0
M  V30 16278 C 1682.99 2.08996 1.06574 0
M  V30 16279 C 1684 1.02544 1.40573 0
M  V30 16280 O 1685.18 1.34192 1.50181 0
M  V30 16281 C 1682.24 2.54723 2.35196 0
M  V30 16282 C 1681.31 3.75595 2.0791 0
M  V30 16283 C 1680.54 4.19132 3.304 0
M  V30 16284 O 1680.76 3.62303 4.40559 0
M  V30 16285 O 1679.7 5.11694 3.16944 0
M  V30 16286 H 1683.52 2.96475 0.658503 0
M  V30 16287 H 1681.11 1.47129 0.259475 0
M  V30 16288 H 1682.99 2.84529 3.1084 0
M  V30 16289 H 1681.66 1.70361 2.75243 0
M  V30 16290 H 1680.57 3.5083 1.2988 0
M  V30 16291 H 1681.9 4.60897 1.72727 0
M  V30 16292 N 1683.56 -0.31543 1.54411 0
M  V30 16293 C 1684.8 -1.06053 1.74734 0
M  V30 16294 C 1685.16 -1.84978 0.51451 0
M  V30 16295 O 1686.36 -2.62127 0.595228 0
M  V30 16296 C 1684.63 -1.95417 2.99244 0
M  V30 16297 S 1686.19 -2.76769 3.40506 0
M  V30 16298 H 1683.01 -0.357904 0.61435 0
M  V30 16299 H 1685.61 -0.33558 1.92598 0
M  V30 16300 H 1684.31 -1.36285 3.8711 0
M  V30 16301 H 1683.85 -2.72304 2.83926 0
M  V30 16302 H 1685.86 -3.97914 2.96444 0
M  V30 16303 N 1685.03 -1.46622 -0.577906 0
M  V30 16304 C 1685.94 -1.60143 -1.71439 0
M  V30 16305 C 1686.96 -0.484781 -1.6711 0
M  V30 16306 O 1688.14 -0.749551 -1.86932 0
M  V30 16307 C 1685.2 -1.59282 -3.07945 0
M  V30 16308 C 1684.26 -2.82216 -3.235 0
M  V30 16309 C 1683.5 -2.81387 -4.53495 0
M  V30 16310 O 1683.72 -1.90407 -5.37681 0
M  V30 16311 O 1682.65 -3.72991 -4.724 0
M  V30 16312 H 1686.48 -2.56265 -1.62978 0
M  V30 16313 H 1684.06 -1.2947 -0.745514 0
M  V30 16314 H 1685.95 -1.61515 -3.89218 0
M  V30 16315 H 1684.62 -0.663212 -3.16833 0
M  V30 16316 H 1683.53 -2.85536 -2.41702 0
M  V30 16317 H 1684.86 -3.74402 -3.19506 0
M  V30 16318 N 1686.51 0.822941 -1.34408 0
M  V30 16319 C 1687.75 1.59269 -1.28112 0
M  V30 16320 C 1688.12 1.91437 0.146924 0
M  V30 16321 O 1689.32 2.66716 0.334053 0
M  V30 16322 C 1687.59 2.85727 -2.14698 0
M  V30 16323 S 1689.15 3.76272 -2.25754 0
M  V30 16324 H 1685.97 0.545903 -0.455534 0
M  V30 16325 H 1688.57 0.972069 -1.6962 0
M  V30 16326 H 1687.27 2.60092 -3.17459 0
M  V30 16327 H 1686.8 3.52786 -1.74086 0
M  V30 16328 H 1688.82 4.75138 -1.43031 0
M  V30 16329 N 1687.99 1.18137 1.04314 0
M  V30 16330 C 1689.24 0.975203 1.77471 0
M  V30 16331 C 1689.57 -0.495399 1.88085 0
M  V30 16332 O 1688.82 -1.38401 1.38361 0
M  V30 16333 C 1689.12 1.57211 3.20966 0
M  V30 16334 C 1688.79 3.06842 3.30392 0
M  V30 16335 C 1687.45 3.47683 3.32671 0
M  V30 16336 C 1689.8 4.02855 3.30692 0
M  V30 16337 C 1687.13 4.83116 3.3289 0
M  V30 16338 C 1689.48 5.382 3.3245 0
M  V30 16339 C 1688.14 5.78492 3.33021 0
M  V30 16340 H 1687.41 0.356852 0.649413 0
M  V30 16341 H 1690.06 1.47163 1.22536 0
M  V30 16342 H 1688.37 0.997616 3.78886 0
M  V30 16343 H 1690.06 1.38804 3.76211 0
M  V30 16344 H 1686.65 2.74291 3.29336 0
M  V30 16345 H 1690.84 3.72355 3.28124 0
M  V30 16346 H 1686.09 5.13634 3.31647 0
M  V30 16347 H 1690.27 6.12367 3.31631 0
M  V30 16348 H 1687.89 6.83412 3.32944 0
M  V30 16349 N 1689.47 -1.23186 0.98301 0
M  V30 16350 C 1690.38 -2.28448 0.533727 0
M  V30 16351 C 1691.39 -1.69034 -0.412732 0
M  V30 16352 O 1692.57 -1.99416 -0.282007 0
M  V30 16353 C 1689.64 -3.46357 -0.154179 0
M  V30 16354 C 1688.7 -4.21121 0.834009 0
M  V30 16355 C 1687.93 -5.334 0.178836 0
M  V30 16356 O 1688.15 -5.61032 -1.02952 0
M  V30 16357 O 1687.09 -5.95451 0.878722 0
M  V30 16358 H 1690.91 -2.69027 1.40919 0
M  V30 16359 H 1688.5 -1.29166 0.75077 0
M  V30 16360 H 1690.38 -4.17926 -0.539947 0
M  V30 16361 H 1689.05 -3.07724 -1.00437 0
M  V30 16362 H 1687.96 -3.51864 1.27053 0
M  V30 16363 H 1689.29 -4.6361 1.65309 0
M  V30 16364 N 1690.95 -0.754982 -1.38339 0
M  V30 16365 C 1692.19 -0.311146 -1.9969 0
M  V30 16366 C 1692.52 1.11138 -1.60229 0
M  V30 16367 O 1691.79 1.76024 -0.859794 0
M  V30 16368 H 1690.37 -0.112052 -0.738548 0
M  V30 16369 H 1693.03 -0.969386 -1.69083 0
M  V30 16370 H 1692.12 -0.375392 -3.09834 0
M  V30 16371 N 1692.42 1.49318 -0.504168 0
M  V30 16372 C 1693.65 2.06569 0.0358894 0
M  V30 16373 C 1694.06 1.36437 1.31079 0
M  V30 16374 O 1693.41 0.437416 1.78416 0
M  V30 16375 C 1693.47 3.57726 0.356656 0
M  V30 16376 C 1693.13 4.49565 -0.820987 0
M  V30 16377 C 1694.13 4.90892 -1.71235 0
M  V30 16378 C 1691.81 4.9182 -1.02069 0
M  V30 16379 C 1693.81 5.73214 -2.78754 0
M  V30 16380 C 1691.49 5.73919 -2.09905 0
M  V30 16381 C 1692.49 6.14521 -2.98082 0
M  V30 16382 O 1692.18 6.94977 -4.04057 0
M  V30 16383 H 1691.91 0.675742 -0.0186739 0
M  V30 16384 H 1694.47 1.93044 -0.701664 0
M  V30 16385 H 1692.7 3.69271 1.14785 0
M  V30 16386 H 1694.39 3.97204 0.835704 0
M  V30 16387 H 1695.15 4.58889 -1.5699 0
M  V30 16388 H 1691.03 4.59717 -0.343714 0
M  V30 16389 H 1694.57 6.04826 -3.47609 0
M  V30 16390 H 1690.47 6.05334 -2.24144 0
M  V30 16391 H 1691.24 7.13289 -4.01449 0
M  V30 16392 N 1693.9 0.238138 1.5579 0
M  V30 16393 C 1694.81 -0.676049 2.24648 0
M  V30 16394 C 1695.83 -1.20038 1.25964 0
M  V30 16395 O 1697 -1.2385 1.58818 0
M  V30 16396 C 1694.07 -1.86014 2.92574 0
M  V30 16397 C 1693.13 -1.37615 4.06646 0
M  V30 16398 C 1692.36 -2.5038 4.71323 0
M  V30 16399 O 1692.59 -3.68906 4.35045 0
M  V30 16400 O 1691.52 -2.20636 5.60003 0
M  V30 16401 H 1695.35 -0.119372 3.03465 0
M  V30 16402 H 1692.93 0.00699789 1.49398 0
M  V30 16403 H 1694.81 -2.55132 3.35389 0
M  V30 16404 H 1693.49 -2.4046 2.16704 0
M  V30 16405 H 1692.4 -0.652503 3.68366 0
M  V30 16406 H 1693.73 -0.877871 4.84308 0
M  V30 16407 N 1695.38 -1.57561 -0.0350783 0
M  V30 16408 C 1696.61 -1.93644 -0.742753 0
M  V30 16409 C 1697.03 -0.837655 -1.68419 0
M  V30 16410 O 1696.39 0.207069 -1.80114 0
M  V30 16411 C 1696.44 -3.28779 -1.48111 0
M  V30 16412 O 1695.54 -3.20604 -2.59398 0
M  V30 16413 H 1694.88 -0.633103 -0.200192 0
M  V30 16414 H 1697.41 -2.04599 0.00765271 0
M  V30 16415 H 1697.42 -3.63527 -1.85236 0
M  V30 16416 H 1696.1 -4.08316 -0.790608 0
M  V30 16417 H 1694.67 -2.97477 -2.2486 0
M  V30 16418 N 1696.86 0.307236 -1.54576 0
M  V30 16419 C 1698.11 1.04115 -1.73218 0
M  V30 16420 C 1698.43 1.88008 -0.517482 0
M  V30 16421 O 1697.7 1.90219 0.468336 0
M  V30 16422 H 1696.28 0.387388 -0.638701 0
M  V30 16423 H 1698.94 0.339727 -1.91916 0
M  V30 16424 H 1698.04 1.69784 -2.61877 0
M  V30 16425 N 1698.34 1.46926 0.570122 0
M  V30 16426 C 1699.58 1.52887 1.32785 0
M  V30 16427 C 1699.91 0.185754 1.93611 0
M  V30 16428 O 1699.17 -0.819995 1.77692 0
M  V30 16429 C 1699.47 2.58527 2.46776 0
M  V30 16430 C 1699.13 4.02182 2.03863 0
M  V30 16431 C 1697.79 4.4129 1.91876 0
M  V30 16432 C 1700.15 4.92373 1.70935 0
M  V30 16433 C 1697.47 5.6844 1.45235 0
M  V30 16434 C 1699.83 6.19972 1.25769 0
M  V30 16435 C 1698.49 6.57974 1.12368 0
M  V30 16436 H 1697.76 0.559453 0.485895 0
M  V30 16437 H 1700.41 1.80464 0.640698 0
M  V30 16438 H 1698.71 2.24658 3.20992 0
M  V30 16439 H 1700.41 2.60365 3.04977 0
M  V30 16440 H 1697 3.71275 2.14132 0
M  V30 16441 H 1701.18 4.62867 1.79075 0
M  V30 16442 H 1696.44 5.96644 1.33513 0
M  V30 16443 H 1700.61 6.89277 0.993475 0
M  V30 16444 H 1698.24 7.56391 0.760046 0
M  V30 16445 N 1699.82 -0.815801 1.34842 0
M  V30 16446 C 1700.75 -1.93258 1.21353 0
M  V30 16447 C 1701.73 -1.6227 0.103515 0
M  V30 16448 O 1702.91 -1.86557 0.269954 0
M  V30 16449 C 1700.04 -3.27429 0.866494 0
M  V30 16450 C 1699.08 -3.77372 1.98727 0
M  V30 16451 S 1699.92 -3.96277 3.60173 0
M  V30 16452 C 1701.07 -5.33364 3.27526 0
M  V30 16453 H 1701.31 -2.04405 2.15884 0
M  V30 16454 H 1698.84 -0.972165 1.19951 0
M  V30 16455 H 1700.8 -4.04945 0.673064 0
M  V30 16456 H 1699.46 -3.14042 -0.0605998 0
M  V30 16457 H 1698.65 -4.74522 1.69837 0
M  V30 16458 H 1698.25 -3.06825 2.13855 0
M  V30 16459 H 1700.54 -6.17031 2.79783 0
M  V30 16460 H 1701.49 -5.67242 4.23842 0
M  V30 16461 H 1701.9 -4.99213 2.63527 0
M  V30 16462 N 1701.29 -1.18689 -1.03686 0
M  V30 16463 C 1702.23 -0.860751 -2.11344 0
M  V30 16464 C 1703.2 0.178884 -1.61613 0
M  V30 16465 O 1704.39 0.05699 -1.88414 0
M  V30 16466 C 1701.52 -0.286745 -3.37484 0
M  V30 16467 C 1700.56 -1.30417 -4.06071 0
M  V30 16468 S 1701.39 -2.86155 -4.52632 0
M  V30 16469 C 1702.55 -2.30276 -5.82 0
M  V30 16470 H 1702.78 -1.77251 -2.38683 0
M  V30 16471 H 1700.32 -1.01316 -1.16509 0
M  V30 16472 H 1702.27 0.0379216 -4.10482 0
M  V30 16473 H 1700.94 0.60319 -3.08254 0
M  V30 16474 H 1700.13 -0.851497 -4.96755 0
M  V30 16475 H 1699.73 -1.57527 -3.39207 0
M  V30 16476 H 1702.02 -1.68773 -6.56142 0
M  V30 16477 H 1702.97 -3.19275 -6.32036 0
M  V30 16478 H 1703.37 -1.73153 -5.37288 0
M  V30 16479 N 1702.77 1.22662 -0.989529 0
M  V30 16480 C 1703.7 2.23052 -0.481994 0
M  V30 16481 C 1704.68 1.56078 0.455885 0
M  V30 16482 O 1705.87 1.84584 0.382214 0
M  V30 16483 C 1702.99 3.37354 0.301658 0
M  V30 16484 C 1702.04 4.22514 -0.581711 0
M  V30 16485 S 1702.87 4.95326 -2.03501 0
M  V30 16486 C 1704.03 6.13071 -1.26075 0
M  V30 16487 H 1704.26 2.65757 -1.33268 0
M  V30 16488 H 1701.79 1.32286 -0.796233 0
M  V30 16489 H 1703.75 4.03632 0.747763 0
M  V30 16490 H 1702.41 2.93163 1.12758 0
M  V30 16491 H 1701.61 5.03996 0.0210757 0
M  V30 16492 H 1701.21 3.61351 -0.964439 0
M  V30 16493 H 1703.5 6.7545 -0.526687 0
M  V30 16494 H 1704.44 6.77754 -2.05072 0
M  V30 16495 H 1704.85 5.59147 -0.775524 0
M  V30 16496 N 1704.25 0.762308 1.37937 0
M  V30 16497 C 1705.2 0.140412 2.30372 0
M  V30 16498 C 1706.17 -0.700152 1.50622 0
M  V30 16499 O 1707.35 -0.654474 1.79224 0
M  V30 16500 C 1704.49 -0.740056 3.37071 0
M  V30 16501 C 1703.6 0.116084 4.31844 0
M  V30 16502 C 1702.74 -0.768203 5.25616 0
M  V30 16503 C 1701.78 0.0910442 6.12032 0
M  V30 16504 N 1700.92 -0.75069 6.98075 0
M  V30 16505 H 1705.76 0.934224 2.82977 0
M  V30 16506 H 1703.29 0.472316 1.39311 0
M  V30 16507 H 1705.25 -1.26525 3.97551 0
M  V30 16508 H 1703.88 -1.49956 2.85855 0
M  V30 16509 H 1702.93 0.758999 3.72751 0
M  V30 16510 H 1704.24 0.779285 4.92675 0
M  V30 16511 H 1703.4 -1.36024 5.91255 0
M  V30 16512 H 1702.14 -1.46511 4.65173 0
M  V30 16513 H 1701.14 0.695687 5.45381 0
M  V30 16514 H 1702.37 0.785145 6.74546 0
M  V30 16515 H 1700.31 -1.43239 6.40171 0
M  V30 16516 H 1700.23 -0.144579 7.55862 0
M  V30 16517 H 1701.5 -1.32742 7.68114 0
M  V30 16518 N 1705.73 -1.49049 0.51208 0
M  V30 16519 C 1706.68 -2.30981 -0.273991 0
M  V30 16520 C 1707.67 -1.40092 -0.952402 0
M  V30 16521 O 1708.88 -1.57088 -0.878828 0
M  V30 16522 H 1705.25 -0.744317 -0.107221 0
M  V30 16523 H 1707.22 -2.95185 0.436866 0
M  V30 16524 C 1705.97 -3.21714 -1.31892 0
M  V30 16525 H 1705.29 -3.91585 -0.806302 0
M  V30 16526 H 1706.73 -3.81961 -1.8407 0
M  V30 16527 C 1705.19 -2.42082 -2.34303 0
M  V30 16528 O 1705.72 -2.13285 -3.40401 0
M  V30 16529 N 1703.93 -2.03903 -2.07055 0
M  V30 16530 H 1703.48 -2.27523 -1.20794 0
M  V30 16531 H 1703.43 -1.50932 -2.75802 0
M  V30 16532 N 1707.21 -0.246397 -1.55662 0
M  V30 16533 C 1708.45 0.38003 -2.00836 0
M  V30 16534 C 1708.81 1.55166 -1.13082 0
M  V30 16535 O 1710.01 2.24578 -1.4771 0
M  V30 16536 C 1708.28 0.779997 -3.48785 0
M  V30 16537 S 1709.84 1.39702 -4.15967 0
M  V30 16538 H 1706.66 0.119597 -0.700869 0
M  V30 16539 H 1709.26 -0.361512 -1.92128 0
M  V30 16540 H 1707.96 -0.0820223 -4.10318 0
M  V30 16541 H 1707.5 1.55373 -3.61418 0
M  V30 16542 H 1709.51 2.68606 -4.17211 0
M  V30 16543 N 1708.68 1.57577 0.026722 0
M  V30 16544 C 1709.62 2.021 1.05976 0
M  V30 16545 C 1710.59 0.905778 1.35035 0
M  V30 16546 O 1711.78 1.1718 1.47652 0
M  V30 16547 C 1708.91 2.39603 2.39391 0
M  V30 16548 C 1707.95 3.61591 2.26174 0
M  V30 16549 S 1708.78 5.10631 1.61295 0
M  V30 16550 C 1709.94 5.51379 2.96196 0
M  V30 16551 H 1710.17 2.89406 0.680545 0
M  V30 16552 H 1707.71 1.52574 0.236771 0
M  V30 16553 H 1709.66 2.61881 3.16115 0
M  V30 16554 H 1708.33 1.52744 2.7446 0
M  V30 16555 H 1707.52 3.85495 3.24669 0
M  V30 16556 H 1707.12 3.39176 1.57593 0
M  V30 16557 H 1709.41 5.52206 3.92524 0
M  V30 16558 H 1710.36 6.51663 2.77023 0
M  V30 16559 H 1710.76 4.78887 2.98877 0
M  V30 16560 N 1710.16 -0.299034 1.54737 0
M  V30 16561 C 1711.44 -1.05371 1.64792 0
M  V30 16562 C 1711.82 -2.05155 0.497475 0
M  V30 16563 O 1711.17 -2.22837 -0.505573 0
M  V30 16564 C 1711.38 -1.73381 3.02886 0
M  V30 16565 C 1712.72 -2.25506 3.59767 0
M  V30 16566 O 1713.75 -1.8341 3.05351 0
M  V30 16567 O 1712.61 -3.02642 4.55049 0
M  V30 16568 H 1709.7 -0.487156 0.668287 0
M  V30 16569 H 1712.25 -0.296965 1.67081 0
M  V30 16570 H 1711.02 -1.00936 3.78058 0
M  V30 16571 H 1710.64 -2.55806 3.04383 0
M  V30 16572 N 1711.64 -1.47227 -0.562322 0
M  V30 16573 C 1712.89 -1.52851 -1.31604 0
M  V30 16574 C 1713.2 -0.193236 -1.94643 0
M  V30 16575 O 1714.41 -0.127429 -2.71201 0
M  V30 16576 C 1712.86 -2.69422 -2.3862 0
M  V30 16577 C 1712.47 -4.09457 -1.81794 0
M  V30 16578 C 1714.22 -2.84334 -3.15205 0
M  V30 16579 C 1712.12 -5.17337 -2.8656 0
M  V30 16580 H 1711.05 -0.568923 -0.494816 0
M  V30 16581 H 1713.7 -1.73489 -0.597819 0
M  V30 16582 H 1712.09 -2.42153 -3.13333 0
M  V30 16583 H 1713.26 -4.46606 -1.13487 0
M  V30 16584 H 1711.57 -3.99387 -1.17811 0
M  V30 16585 H 1714.17 -3.621 -3.93431 0
M  V30 16586 H 1714.51 -1.9259 -3.69073 0
M  V30 16587 H 1715.05 -3.11348 -2.47603 0
M  V30 16588 H 1711.79 -6.1094 -2.37554 0
M  V30 16589 H 1711.31 -4.8471 -3.53293 0
M  V30 16590 H 1712.99 -5.44065 -3.50146 0
M  V30 16591 N 1713.12 0.808639 -1.35273 0
M  V30 16592 C 1714.39 1.55238 -1.18998 0
M  V30 16593 C 1714.77 2.09824 0.231723 0
M  V30 16594 O 1714.12 1.92252 1.23497 0
M  V30 16595 C 1714.33 2.66252 -2.25634 0
M  V30 16596 C 1715.68 3.34646 -2.61338 0
M  V30 16597 O 1716.7 2.76521 -2.24532 0
M  V30 16598 O 1715.56 4.39644 -3.24615 0
M  V30 16599 H 1712.66 0.6858 -0.462176 0
M  V30 16600 H 1715.2 0.848777 -1.46949 0
M  V30 16601 H 1713.98 2.23774 -3.21 0
M  V30 16602 H 1713.6 3.4425 -1.98941 0
M  V30 16603 N 1714.6 1.19237 1.03055 0
M  V30 16604 C 1715.51 0.943876 2.14775 0
M  V30 16605 C 1716.52 -0.0955384 1.73738 0
M  V30 16606 O 1717.7 0.0887187 2.01204 0
M  V30 16607 C 1714.76 0.48402 3.43305 0
M  V30 16608 C 1713.82 1.59262 3.98665 0
M  V30 16609 C 1713.06 1.15461 5.21061 0
M  V30 16610 O 1713.28 0.0174841 5.70397 0
M  V30 16611 O 1712.21 1.95648 5.69215 0
M  V30 16612 H 1716.04 1.87894 2.38599 0
M  V30 16613 H 1713.63 0.975046 1.13195 0
M  V30 16614 H 1715.51 0.236135 4.20738 0
M  V30 16615 H 1714.18 -0.422626 3.20929 0
M  V30 16616 H 1713.09 1.89464 3.22574 0
M  V30 16617 H 1714.42 2.47576 4.25402 0
M  V30 16618 N 1716.07 -1.22136 0.99602 0
M  V30 16619 C 1717.31 -1.92691 0.681882 0
M  V30 16620 C 1717.68 -1.75789 -0.772154 0
M  V30 16621 O 1718.88 -2.40634 -1.19785 0
M  V30 16622 C 1717.15 -3.40676 1.08048 0
M  V30 16623 S 1718.71 -4.29779 0.885181 0
M  V30 16624 H 1715.53 -0.665892 0.249217 0
M  V30 16625 H 1718.13 -1.47861 1.27896 0
M  V30 16626 H 1716.83 -3.50492 2.13503 0
M  V30 16627 H 1716.36 -3.90518 0.475328 0
M  V30 16628 H 1718.38 -4.957 -0.222612 0
M  V30 16629 N 1717.55 -0.769612 -1.37531 0
M  V30 16630 C 1718.46 -0.15514 -2.34086 0
M  V30 16631 C 1719.48 0.682108 -1.60073 0
M  V30 16632 O 1720.65 0.602527 -1.92176 0
M  V30 16633 C 1717.72 0.715344 -3.3924 0
M  V30 16634 C 1716.78 -0.138116 -4.29078 0
M  V30 16635 C 1716.01 0.690916 -5.29209 0
M  V30 16636 O 1716.24 1.92812 -5.36824 0
M  V30 16637 O 1715.17 0.101247 -6.01815 0
M  V30 16638 H 1719 -0.952968 -2.88361 0
M  V30 16639 H 1716.58 -0.530738 -1.39655 0
M  V30 16640 H 1718.46 1.21236 -4.03584 0
M  V30 16641 H 1717.14 1.4914 -2.87296 0
M  V30 16642 H 1716.05 -0.681443 -3.67841 0
M  V30 16643 H 1717.38 -0.877202 -4.8432 0
M  V30 16644 N 1719.03 1.48775 -0.519977 0
M  V30 16645 C 1720.45 1.58614 -0.177164 0
M  V30 16646 C 1720.65 1.52314 1.31919 0
M  V30 16647 O 1719.7 1.40697 2.09668 0
M  V30 16648 C 1721.02 2.90653 -0.770816 0
M  V30 16649 C 1722.56 3.0416 -0.73864 0
M  V30 16650 C 1723.04 4.38845 -1.31069 0
M  V30 16651 N 1724.53 4.45386 -1.27222 0
M  V30 16652 C 1725.26 5.48088 -1.68484 0
M  V30 16653 N 1724.76 6.57797 -2.17428 0
M  V30 16654 N 1726.55 5.38912 -1.59782 0
M  V30 16655 H 1718.7 1.51112 -1.49261 0
M  V30 16656 H 1720.97 0.716925 -0.62026 0
M  V30 16657 H 1720.67 3.00888 -1.82097 0
M  V30 16658 H 1720.55 3.76422 -0.242125 0
M  V30 16659 H 1722.93 2.93543 0.302728 0
M  V30 16660 H 1723.02 2.20026 -1.30469 0
M  V30 16661 H 1722.66 4.50215 -2.35093 0
M  V30 16662 H 1722.59 5.21649 -0.720409 0
M  V30 16663 H 1725.08 3.66685 -0.913813 0
M  V30 16664 H 1725.39 7.32287 -2.46933 0
M  V30 16665 H 1723.74 6.58787 -2.21415 0
M  V30 16666 H 1726.93 4.52097 -1.2135 0
M  V30 16667 H 1727.1 6.18821 -1.92261 0
M  V30 16668 N 1720.51 0.254649 1.55529 0
M  V30 16669 C 1721.46 -0.657787 2.23105 0
M  V30 16670 C 1722.45 -1.17402 1.22119 0
M  V30 16671 O 1723.66 -1.13002 1.40109 0
M  V30 16672 H 1720.03 -0.230628 0.715762 0
M  V30 16673 H 1722 -0.0647759 2.9833 0
M  V30 16674 C 1720.75 -1.84018 2.95013 0
M  V30 16675 H 1720.07 -1.45211 3.72497 0
M  V30 16676 H 1721.51 -2.45568 3.45648 0
M  V30 16677 C 1719.97 -2.7161 1.99322 0
M  V30 16678 O 1720.5 -3.7137 1.53125 0
M  V30 16679 N 1718.71 -2.38342 1.66258 0
M  V30 16680 H 1718.26 -1.57268 2.04021 0
M  V30 16681 H 1718.21 -2.97222 1.025 0
M  V30 16682 N 1721.99 -1.57589 -0.0183649 0
M  V30 16683 C 1723.4 -1.7799 -0.563591 0
M  V30 16684 C 1723.75 -0.887064 -1.75002 0
M  V30 16685 O 1722.87 -0.0846843 -2.16234 0
M  V30 16686 C 1723.47 -3.2279 -1.02919 0
M  V30 16687 C 1722.03 -3.44351 -1.51986 0
M  V30 16688 C 1721.17 -2.73412 -0.462727 0
M  V30 16689 H 1724.13 -1.57333 0.207849 0
M  V30 16690 H 1724.15 -3.29892 -1.89609 0
M  V30 16691 H 1723.66 -3.87747 -0.165487 0
M  V30 16692 H 1721.76 -2.84583 -2.40506 0
M  V30 16693 H 1721.87 -4.52992 -1.55998 0
M  V30 16694 H 1720.24 -2.37496 -0.920211 0
M  V30 16695 H 1721.02 -3.41058 0.391698 0
M  V30 16696 N 1723.46 0.290824 -1.54893 0
M  V30 16697 C 1724.39 1.36354 -1.89551 0
M  V30 16698 C 1725.38 1.52403 -0.75546 0
M  V30 16699 O 1726.56 1.65743 -1.01208 0
M  V30 16700 C 1723.69 2.72609 -2.15178 0
M  V30 16701 C 1722.64 2.71313 -3.31019 0
M  V30 16702 C 1721.97 4.10952 -3.42085 0
M  V30 16703 C 1723.27 2.32153 -4.6787 0
M  V30 16704 H 1724.96 1.07597 -2.79398 0
M  V30 16705 H 1722.51 0.516154 -1.34432 0
M  V30 16706 H 1724.46 3.47749 -2.3801 0
M  V30 16707 H 1723.19 3.02913 -1.22112 0
M  V30 16708 H 1721.85 1.9863 -3.08126 0
M  V30 16709 H 1721.49 4.38449 -2.46518 0
M  V30 16710 H 1721.19 4.10984 -4.1996 0
M  V30 16711 H 1722.72 4.87857 -3.67189 0
M  V30 16712 H 1724.13 2.97011 -4.90364 0
M  V30 16713 H 1722.53 2.4338 -5.48531 0
M  V30 16714 H 1723.6 1.27279 -4.67897 0
M  V30 16715 N 1724.94 1.47523 0.554506 0
M  V30 16716 C 1725.87 1.63093 1.67102 0
M  V30 16717 C 1726.85 0.480298 1.63178 0
M  V30 16718 O 1728.04 0.709956 1.80757 0
M  V30 16719 C 1725.17 1.64751 3.05736 0
M  V30 16720 C 1724.12 2.79068 3.24507 0
M  V30 16721 C 1723.45 2.65801 4.63955 0
M  V30 16722 C 1724.75 4.20631 3.09623 0
M  V30 16723 H 1726.44 2.56561 1.54328 0
M  V30 16724 H 1723.99 1.2347 0.741023 0
M  V30 16725 H 1725.94 1.74234 3.83693 0
M  V30 16726 H 1724.67 0.678453 3.19475 0
M  V30 16727 H 1723.32 2.691 2.48959 0
M  V30 16728 H 1722.97 1.66917 4.74497 0
M  V30 16729 H 1722.67 3.42494 4.77464 0
M  V30 16730 H 1724.2 2.77216 5.44044 0
M  V30 16731 H 1725.61 4.31562 3.77396 0
M  V30 16732 H 1724.01 4.98133 3.3464 0
M  V30 16733 H 1725.08 4.38809 2.06336 0
M  V30 16734 N 1726.42 -0.801453 1.357 0
M  V30 16735 C 1727.66 -1.57211 1.3063 0
M  V30 16736 C 1728.02 -1.91647 -0.116449 0
M  V30 16737 O 1729.23 -2.67214 -0.291578 0
M  V30 16738 C 1727.5 -2.82275 2.19216 0
M  V30 16739 S 1729.06 -3.72633 2.31712 0
M  V30 16740 H 1725.87 -0.538587 0.464161 0
M  V30 16741 H 1728.48 -0.944961 1.71145 0
M  V30 16742 H 1727.18 -2.55008 3.21557 0
M  V30 16743 H 1726.71 -3.49971 1.79676 0
M  V30 16744 H 1728.73 -4.72803 1.50572 0
M  V30 16745 N 1727.9 -1.19782 -1.02421 0
M  V30 16746 C 1729.31 -0.951034 -1.2817 0
M  V30 16747 C 1729.51 0.373883 -1.98001 0
M  V30 16748 O 1728.57 1.10427 -2.27073 0
M  V30 16749 C 1729.88 -2.12833 -2.12421 0
M  V30 16750 C 1731.43 -2.16847 -2.25713 0
M  V30 16751 C 1731.91 -3.34041 -3.13337 0
M  V30 16752 N 1733.4 -3.34007 -3.20926 0
M  V30 16753 C 1734.13 -4.21333 -3.88929 0
M  V30 16754 N 1733.63 -5.18823 -4.59123 0
M  V30 16755 N 1735.42 -4.09197 -3.85376 0
M  V30 16756 H 1727.57 -2.05017 -0.555122 0
M  V30 16757 H 1729.84 -0.896717 -0.307576 0
M  V30 16758 H 1729.54 -3.08742 -1.68437 0
M  V30 16759 H 1729.42 -2.10288 -3.13143 0
M  V30 16760 H 1731.8 -1.21506 -2.68924 0
M  V30 16761 H 1731.88 -2.23444 -1.24525 0
M  V30 16762 H 1731.53 -4.29665 -2.70833 0
M  V30 16763 H 1731.46 -3.24682 -4.14595 0
M  V30 16764 H 1733.95 -2.63441 -2.70938 0
M  V30 16765 H 1734.26 -5.81796 -5.08658 0
M  V30 16766 H 1732.61 -5.22767 -4.57973 0
M  V30 16767 H 1735.8 -3.32308 -3.2968 0
M  V30 16768 H 1735.97 -4.77465 -4.38099 0
M  V30 16769 N 1729.38 1.21606 -1.00248 0
M  V30 16770 C 1730.63 1.90231 -0.682401 0
M  V30 16771 C 1730.95 1.78324 0.78903 0
M  V30 16772 O 1730.22 1.17653 1.56635 0
M  V30 16773 H 1728.8 0.704132 -0.249414 0
M  V30 16774 H 1731.46 1.47751 -1.27105 0
M  V30 16775 H 1730.55 2.97183 -0.953351 0
M  V30 16776 N 1730.86 0.776895 1.37121 0
M  V30 16777 C 1732.1 0.342876 1.9917 0
M  V30 16778 C 1732.42 -1.08574 1.61977 0
M  V30 16779 O 1731.69 -1.74634 0.887689 0
M  V30 16780 H 1730.27 0.123788 0.736672 0
M  V30 16781 H 1732.94 0.996163 1.67519 0
M  V30 16782 H 1732.03 0.424637 3.09198 0
M  V30 16783 N 1732.33 -1.48497 0.527859 0
M  V30 16784 C 1733.56 -2.069 -0.00302594 0
M  V30 16785 C 1733.98 -1.38469 -1.28342 0
M  V30 16786 O 1733.33 -0.471524 -1.76303 0
M  V30 16787 C 1733.38 -3.60749 -0.232871 0
M  V30 16788 O 1733.11 -4.26609 0.996797 0
M  V30 16789 C 1734.61 -4.35941 -0.804376 0
M  V30 16790 H 1731.83 -0.67021 0.0325559 0
M  V30 16791 H 1734.37 -1.90916 0.732897 0
M  V30 16792 H 1732.53 -3.76346 -0.918837 0
M  V30 16793 H 1732.94 -5.18725 0.776217 0
M  V30 16794 H 1734.41 -5.4437 -0.914635 0
M  V30 16795 H 1734.89 -4.00225 -1.80876 0
M  V30 16796 H 1735.5 -4.25017 -0.155041 0
M  V30 16797 N 1733.81 -0.262893 -1.55392 0
M  V30 16798 C 1735.05 0.358707 -2.01228 0
M  V30 16799 C 1735.42 1.53958 -1.14722 0
M  V30 16800 O 1736.62 2.22999 -1.50083 0
M  V30 16801 C 1734.89 0.74296 -3.49592 0
M  V30 16802 S 1736.45 1.35282 -4.17426 0
M  V30 16803 H 1733.26 0.112156 -0.702098 0
M  V30 16804 H 1735.87 -0.38187 -1.91734 0
M  V30 16805 H 1734.57 -0.125537 -4.10208 0
M  V30 16806 H 1734.1 1.51531 -3.63045 0
M  V30 16807 H 1736.12 2.64166 -4.20037 0
M  V30 16808 N 1735.29 1.57597 0.0100073 0
M  V30 16809 C 1736.54 1.90411 0.697968 0
M  V30 16810 C 1736.87 0.862924 1.73975 0
M  V30 16811 O 1736.14 -0.119646 1.94132 0
M  V30 16812 C 1736.43 3.33828 1.35022 0
M  V30 16813 C 1736.28 4.48656 0.320659 0
M  V30 16814 C 1737.6 3.7649 2.27911 0
M  V30 16815 H 1734.72 0.692482 0.252266 0
M  V30 16816 H 1737.36 1.89959 -0.0392325 0
M  V30 16817 H 1735.51 3.34343 1.97856 0
M  V30 16818 H 1737.18 4.60276 -0.30723 0
M  V30 16819 H 1735.42 4.32319 -0.358128 0
M  V30 16820 H 1736.1 5.45937 0.815891 0
M  V30 16821 H 1738.57 3.77463 1.75104 0
M  V30 16822 H 1737.45 4.77609 2.70519 0
M  V30 16823 H 1737.71 3.09801 3.15398 0
M  V30 16824 N 1736.77 -0.282606 1.55045 0
M  V30 16825 C 1737.72 -1.36902 1.88044 0
M  V30 16826 C 1738.71 -1.51603 0.755845 0
M  V30 16827 O 1739.92 -1.53501 0.940074 0
M  V30 16828 H 1736.29 -0.457666 0.596696 0
M  V30 16829 H 1738.26 -1.06317 2.78818 0
M  V30 16830 C 1737.01 -2.72426 2.16054 0
M  V30 16831 H 1736.33 -2.61903 3.02071 0
M  V30 16832 H 1737.77 -3.47409 2.43071 0
M  V30 16833 C 1736.23 -3.22784 0.964996 0
M  V30 16834 O 1736.76 -4.01228 0.194759 0
M  V30 16835 N 1734.97 -2.80341 0.765322 0
M  V30 16836 H 1734.52 -2.16665 1.39335 0
M  V30 16837 H 1734.47 -3.14383 -0.0330026 0
M  V30 16838 N 1738.25 -1.47815 -0.546675 0
M  V30 16839 C 1739.47 -1.58613 -1.32851 0
M  V30 16840 C 1739.89 -0.240179 -1.87266 0
M  V30 16841 O 1739.25 0.768148 -1.65547 0
M  V30 16842 C 1739.3 -2.61969 -2.49107 0
M  V30 16843 O 1739.02 -3.9134 -1.96938 0
M  V30 16844 C 1740.52 -2.83051 -3.4117 0
M  V30 16845 H 1737.74 -0.535292 -0.404603 0
M  V30 16846 H 1740.28 -1.93516 -0.661192 0
M  V30 16847 H 1738.44 -2.29971 -3.11756 0
M  V30 16848 H 1738.85 -4.47905 -2.72913 0
M  V30 16849 H 1740.33 -3.59209 -4.19134 0
M  V30 16850 H 1740.8 -1.91258 -3.95369 0
M  V30 16851 H 1741.41 -3.16287 -2.84328 0
M  V30 16852 N 1739.72 0.794246 -1.36123 0
M  V30 16853 C 1740.63 1.93807 -1.32197 0
M  V30 16854 C 1741.65 1.7254 -0.2249 0
M  V30 16855 O 1742.83 1.9616 -0.456431 0
M  V30 16856 C 1739.89 3.28593 -1.10578 0
M  V30 16857 C 1738.95 3.6267 -2.29715 0
M  V30 16858 C 1738.18 4.91025 -2.09118 0
M  V30 16859 O 1738.41 5.6039 -1.06389 0
M  V30 16860 O 1737.34 5.23647 -2.96779 0
M  V30 16861 H 1741.17 2.00068 -2.28487 0
M  V30 16862 H 1738.75 0.933808 -1.16621 0
M  V30 16863 H 1740.63 4.0926 -1.0042 0
M  V30 16864 H 1739.31 3.23235 -0.17347 0
M  V30 16865 H 1738.22 2.82329 -2.4544 0
M  V30 16866 H 1739.55 3.72747 -3.21435 0
M  V30 16867 N 1741.2 1.20323 1.01785 0
M  V30 16868 C 1742.45 1.01063 1.75016 0
M  V30 16869 C 1742.77 -0.458458 1.89534 0
M  V30 16870 O 1742.04 -1.3315 1.43694 0
M  V30 16871 H 1740.62 0.370957 0.648383 0
M  V30 16872 H 1743.28 1.51411 1.22722 0
M  V30 16873 H 1742.38 1.46792 2.75424 0
M  V30 16874 N 1742.68 -1.21073 1.00892 0
M  V30 16875 C 1743.9 -1.94774 0.712588 0
M  V30 16876 C 1744.33 -1.73812 -0.719085 0
M  V30 16877 O 1743.69 -1.02747 -1.49374 0
M  V30 16878 C 1743.74 -3.45156 1.04402 0
M  V30 16879 O 1742.84 -4.12122 0.151433 0
M  V30 16880 H 1742.18 -0.608775 0.26512 0
M  V30 16881 H 1744.71 -1.53721 1.35022 0
M  V30 16882 H 1744.72 -3.95744 0.992511 0
M  V30 16883 H 1743.4 -3.59736 2.08716 0
M  V30 16884 H 1741.97 -3.71994 0.259805 0
M  V30 16885 N 1744.16 -0.784156 -1.36707 0
M  V30 16886 C 1745.41 -0.354133 -1.99379 0
M  V30 16887 C 1745.73 1.07276 -1.62241 0
M  V30 16888 O 1744.99 1.75481 -0.866317 0
M  V30 16889 C 1745.29 -0.459004 -3.5444 0
M  V30 16890 C 1744.95 -1.84594 -4.11383 0
M  V30 16891 C 1743.62 -2.22543 -4.26648 0
M  V30 16892 C 1745.97 -2.75433 -4.42477 0
M  V30 16893 C 1743.3 -3.50744 -4.70315 0
M  V30 16894 C 1745.65 -4.03056 -4.87574 0
M  V30 16895 C 1744.31 -4.41034 -5.01044 0
M  V30 16896 H 1743.58 -0.129586 -0.729581 0
M  V30 16897 H 1746.23 -1.00059 -1.6328 0
M  V30 16898 H 1744.53 0.27097 -3.90862 0
M  V30 16899 H 1746.23 -0.107393 -4.00856 0
M  V30 16900 H 1742.82 -1.54103 -3.99938 0
M  V30 16901 H 1747 -2.4737 -4.30258 0
M  V30 16902 H 1742.26 -3.80047 -4.78931 0
M  V30 16903 H 1746.43 -4.73563 -5.10599 0
M  V30 16904 H 1744.06 -5.4043 -5.34639 0
M  V30 16905 N 1745.64 1.48215 -0.535727 0
M  V30 16906 C 1746.57 2.27708 0.261085 0
M  V30 16907 C 1747.58 1.35714 0.899197 0
M  V30 16908 O 1748.77 1.60717 0.776669 0
M  V30 16909 C 1745.87 3.09285 1.38549 0
M  V30 16910 C 1745.04 4.29097 0.848218 0
M  V30 16911 C 1744.1 4.92439 1.85445 0
M  V30 16912 O 1743.13 5.51483 1.4091 0
M  V30 16913 N 1744.33 4.85197 3.18691 0
M  V30 16914 H 1747.1 2.96732 -0.420706 0
M  V30 16915 H 1744.66 1.57606 -0.370421 0
M  V30 16916 H 1746.65 3.4853 2.05691 0
M  V30 16917 H 1745.22 2.42644 1.97085 0
M  V30 16918 H 1744.44 3.942 0.000627744 0
M  V30 16919 H 1745.73 5.06641 0.468243 0
M  V30 16920 H 1745.12 4.3839 3.57535 0
M  V30 16921 H 1743.68 5.28525 3.81451 0
M  V30 16922 N 1747.11 0.27113 1.5525 0
M  V30 16923 C 1748.35 -0.34803 2.01415 0
M  V30 16924 C 1748.72 -1.53347 1.15536 0
M  V30 16925 O 1749.92 -2.222 1.51264 0
M  V30 16926 C 1748.19 -0.72441 3.49982 0
M  V30 16927 S 1749.75 -1.33067 4.18137 0
M  V30 16928 H 1746.57 -0.108431 0.702683 0
M  V30 16929 H 1749.17 0.392033 1.91529 0
M  V30 16930 H 1747.87 0.14729 4.10136 0
M  V30 16931 H 1747.4 -1.49604 3.63844 0
M  V30 16932 H 1749.42 -2.61934 4.21432 0
M  V30 16933 N 1748.59 -1.576 -0.00164943 0
M  V30 16934 C 1749.87 -1.81716 -0.723788 0
M  V30 16935 C 1750.25 -0.875694 -1.9208 0
M  V30 16936 O 1749.6 0.0759629 -2.28374 0
M  V30 16937 C 1749.81 -3.30164 -1.13106 0
M  V30 16938 C 1751.16 -3.95859 -1.5356 0
M  V30 16939 O 1752.18 -3.34477 -1.2249 0
M  V30 16940 O 1751.04 -5.03986 -2.1133 0
M  V30 16941 H 1748.13 -0.748213 -0.352287 0
M  V30 16942 H 1750.68 -1.69683 0.0236782 0
M  V30 16943 H 1749.45 -3.90313 -0.277771 0
M  V30 16944 H 1749.07 -3.47188 -1.93768 0
M  V30 16945 N 1750.07 0.274379 -1.55193 0
M  V30 16946 C 1751.31 1.01383 -1.77485 0
M  V30 16947 C 1751.67 1.83549 -0.563373 0
M  V30 16948 O 1752.88 2.60457 -0.664517 0
M  V30 16949 C 1751.15 1.87414 -3.0432 0
M  V30 16950 S 1752.71 2.67644 -3.47725 0
M  V30 16951 H 1749.52 0.341489 -0.623623 0
M  V30 16952 H 1752.13 0.284398 -1.9342 0
M  V30 16953 H 1750.83 1.25974 -3.90588 0
M  V30 16954 H 1750.36 2.6468 -2.91046 0
M  V30 16955 H 1752.38 3.89914 -3.06889 0
M  V30 16956 N 1751.55 1.48103 0.538828 0
M  V30 16957 C 1752.96 1.49312 1.12085 0
M  V30 16958 C 1753.31 0.257965 1.94497 0
M  V30 16959 O 1752.44 -0.635654 2.06854 0
M  V30 16960 C 1753.03 2.70545 2.03939 0
M  V30 16961 C 1751.59 2.74654 2.57376 0
M  V30 16962 C 1750.74 2.42695 1.34144 0
M  V30 16963 H 1753.69 1.55347 0.324512 0
M  V30 16964 H 1753.71 2.4856 2.88094 0
M  V30 16965 H 1753.22 3.60424 1.4393 0
M  V30 16966 H 1751.32 1.8896 3.21131 0
M  V30 16967 H 1751.43 3.75846 2.97114 0
M  V30 16968 H 1749.8 1.93663 1.65429 0
M  V30 16969 H 1750.58 3.34804 0.759009 0
M  V30 16970 N 1753.03 -0.787016 1.36542 0
M  V30 16971 C 1753.96 -1.91399 1.33749 0
M  V30 16972 C 1754.94 -1.68817 0.208559 0
M  V30 16973 O 1756.12 -1.89896 0.406574 0
M  V30 16974 C 1753.25 -3.28457 1.12842 0
M  V30 16975 C 1752.21 -3.65568 2.22585 0
M  V30 16976 C 1751.53 -5.01002 1.86818 0
M  V30 16977 C 1752.83 -3.73902 3.64684 0
M  V30 16978 H 1754.53 -1.93993 2.2805 0
M  V30 16979 H 1752.07 -0.931937 1.09777 0
M  V30 16980 H 1754.03 -4.06919 1.09522 0
M  V30 16981 H 1752.75 -3.26256 0.149918 0
M  V30 16982 H 1751.41 -2.89405 2.25035 0
M  V30 16983 H 1751.06 -4.95325 0.875361 0
M  V30 16984 H 1750.76 -5.26802 2.60294 0
M  V30 16985 H 1752.28 -5.81881 1.85058 0
M  V30 16986 H 1753.69 -4.4255 3.64448 0
M  V30 16987 H 1752.09 -4.11188 4.37086 0
M  V30 16988 H 1753.16 -2.74946 3.99416 0
M  V30 16989 N 1754.5 -1.20861 -1.01145 0
M  V30 16990 C 1755.75 -1.0199 -1.74478 0
M  V30 16991 C 1756.07 0.4484 -1.89775 0
M  V30 16992 O 1755.34 1.32386 -1.44398 0
M  V30 16993 H 1753.92 -0.37439 -0.646406 0
M  V30 16994 H 1756.59 -1.5206 -1.21917 0
M  V30 16995 H 1755.68 -1.48251 -2.74642 0
M  V30 16996 N 1755.98 1.20536 -1.01532 0
M  V30 16997 C 1756.93 2.21134 -0.555309 0
M  V30 16998 C 1757.92 1.56135 0.388663 0
M  V30 16999 O 1759.11 1.75728 0.211835 0
M  V30 17000 C 1756.24 3.43135 0.106298 0
M  V30 17001 C 1755.32 4.15303 -0.859306 0
M  V30 17002 N 1755.71 4.63873 -2.01631 0
M  V30 17003 C 1754.01 4.40788 -0.679859 0
M  V30 17004 C 1754.71 5.19143 -2.62422 0
M  V30 17005 N 1753.69 5.0913 -1.90494 0
M  V30 17006 H 1757.49 2.56351 -1.4374 0
M  V30 17007 H 1755.01 1.36458 -0.880503 0
M  V30 17008 H 1757 4.14427 0.453392 0
M  V30 17009 H 1755.66 3.09423 0.984242 0
M  V30 17010 H 1756.67 4.59128 -2.39629 0
M  V30 17011 H 1753.35 4.1723 0.150137 0
M  V30 17012 H 1754.74 5.67108 -3.60331 0
M  V30 17013 N 1757.46 0.791395 1.36289 0
M  V30 17014 C 1758.37 0.192362 2.3381 0
M  V30 17015 C 1759.39 -0.656556 1.61138 0
M  V30 17016 O 1760.56 -0.571877 1.9311 0
M  V30 17017 C 1757.63 -0.661283 3.40335 0
M  V30 17018 C 1756.69 0.206361 4.28804 0
M  V30 17019 C 1755.92 -0.606636 5.30241 0
M  V30 17020 O 1756.14 -1.84247 5.39823 0
M  V30 17021 O 1755.08 -0.00549116 6.019 0
M  V30 17022 H 1758.9 0.998723 2.86809 0
M  V30 17023 H 1756.49 0.552889 1.38793 0
M  V30 17024 H 1758.37 -1.148 4.05461 0
M  V30 17025 H 1757.05 -1.4455 2.89632 0
M  V30 17026 H 1755.95 0.739877 3.66711 0
M  V30 17027 H 1757.29 0.954142 4.82863 0
M  V30 17028 N 1758.94 -1.47929 0.54358 0
M  V30 17029 C 1759.87 -2.3264 -0.200228 0
M  V30 17030 C 1760.85 -1.42945 -0.922 0
M  V30 17031 O 1762.04 -1.71817 -0.905129 0
M  V30 17032 C 1759.17 -3.24439 -1.23922 0
M  V30 17033 C 1758.12 -4.23267 -0.634753 0
M  V30 17034 C 1757.45 -5.04295 -1.77739 0
M  V30 17035 C 1758.75 -5.20747 0.402524 0
M  V30 17036 H 1760.44 -2.95077 0.506957 0
M  V30 17037 H 1757.99 -1.41896 0.245246 0
M  V30 17038 H 1759.94 -3.82535 -1.76763 0
M  V30 17039 H 1758.66 -2.60029 -1.97616 0
M  V30 17040 H 1757.32 -3.66377 -0.127756 0
M  V30 17041 H 1756.97 -4.36299 -2.50304 0
M  V30 17042 H 1756.67 -5.71195 -1.37879 0
M  V30 17043 H 1758.19 -5.65246 -2.30932 0
M  V30 17044 H 1759.61 -5.73287 -0.039305 0
M  V30 17045 H 1758 -5.95774 0.719251 0
M  V30 17046 H 1759.07 -4.67054 1.3034 0
M  V30 17047 N 1760.42 -0.27936 -1.55104 0
M  V30 17048 C 1761.64 0.342295 -2.04556 0
M  V30 17049 C 1762.07 1.48367 -1.15624 0
M  V30 17050 O 1761.43 1.8063 -0.15572 0
M  V30 17051 C 1761.47 0.796785 -3.51687 0
M  V30 17052 O 1760.58 1.90364 -3.65835 0
M  V30 17053 H 1759.92 0.07012 -0.660287 0
M  V30 17054 H 1762.45 -0.414896 -2.00349 0
M  V30 17055 H 1762.46 1.09141 -3.93131 0
M  V30 17056 H 1761.13 -0.0382637 -4.15882 0
M  V30 17057 H 1759.71 1.61123 -3.36294 0
M  V30 17058 N 1761.9 1.57599 -0.0067085 0
M  V30 17059 C 1763.31 1.78864 0.535202 0
M  V30 17060 C 1763.66 0.914793 1.73568 0
M  V30 17061 O 1762.78 0.119075 2.16072 0
M  V30 17062 C 1763.38 3.24386 0.977709 0
M  V30 17063 C 1761.94 3.46725 1.46488 0
M  V30 17064 C 1761.08 2.74114 0.419171 0
M  V30 17065 H 1764.03 1.56982 -0.232853 0
M  V30 17066 H 1764.06 3.32867 1.84336 0
M  V30 17067 H 1763.57 3.87961 0.103778 0
M  V30 17068 H 1761.67 2.88373 2.35948 0
M  V30 17069 H 1761.78 4.55416 1.48772 0
M  V30 17070 H 1760.15 2.3893 0.882311 0
M  V30 17071 H 1760.93 3.40392 -0.445908 0
M  V30 17072 N 1763.37 -0.266145 1.55336 0
M  V30 17073 C 1764.6 -1.01915 1.80633 0
M  V30 17074 C 1765.02 -1.78897 0.581172 0
M  V30 17075 O 1764.38 -1.75118 -0.469399 0
M  V30 17076 C 1764.43 -1.948 3.03456 0
M  V30 17077 O 1763.53 -3.03678 2.79022 0
M  V30 17078 H 1762.87 -0.29102 0.596828 0
M  V30 17079 H 1765.4 -0.292973 2.02492 0
M  V30 17080 H 1765.41 -2.36626 3.32373 0
M  V30 17081 H 1764.09 -1.38182 3.92273 0
M  V30 17082 H 1762.67 -2.66118 2.61219 0
M  V30 17083 N 1764.85 -1.48386 -0.530967 0
M  V30 17084 C 1766.27 -1.34485 -0.859412 0
M  V30 17085 C 1766.47 -0.355124 -1.98346 0
M  V30 17086 O 1765.52 0.224012 -2.51504 0
M  V30 17087 C 1766.84 -2.74488 -1.22787 0
M  V30 17088 C 1768.38 -2.82969 -1.33781 0
M  V30 17089 C 1768.86 -4.23673 -1.7397 0
M  V30 17090 N 1770.35 -4.26341 -1.81074 0
M  V30 17091 C 1771.09 -5.32149 -2.13554 0
M  V30 17092 N 1770.58 -6.48235 -2.44464 0
M  V30 17093 N 1772.37 -5.19542 -2.14551 0
M  V30 17094 H 1764.53 -2.11352 0.210713 0
M  V30 17095 H 1766.79 -0.947472 0.0316283 0
M  V30 17096 H 1766.49 -3.4847 -0.475552 0
M  V30 17097 H 1766.37 -3.0795 -2.17823 0
M  V30 17098 H 1768.76 -2.09244 -2.08089 0
M  V30 17099 H 1768.84 -2.53129 -0.368677 0
M  V30 17100 H 1768.48 -4.97914 -1.00222 0
M  V30 17101 H 1768.41 -4.50956 -2.71931 0
M  V30 17102 H 1770.9 -3.42606 -1.59467 0
M  V30 17103 H 1771.21 -7.24712 -2.6835 0
M  V30 17104 H 1769.56 -6.51512 -2.41986 0
M  V30 17105 H 1772.75 -4.27868 -1.89859 0
M  V30 17106 H 1772.92 -6.02103 -2.39532 0
M  V30 17107 N 1766.33 0.779763 -1.36958 0
M  V30 17108 C 1767.24 1.92394 -1.34245 0
M  V30 17109 C 1768.26 1.72292 -0.243187 0
M  V30 17110 O 1769.43 1.95665 -0.477211 0
M  V30 17111 C 1766.5 3.27402 -1.14057 0
M  V30 17112 C 1765.56 3.60213 -2.33548 0
M  V30 17113 C 1764.79 4.88779 -2.14314 0
M  V30 17114 O 1765.01 5.59231 -1.12327 0
M  V30 17115 O 1763.95 5.20469 -3.02316 0
M  V30 17116 H 1767.77 1.97633 -2.30596 0
M  V30 17117 H 1765.36 0.921386 -1.17605 0
M  V30 17118 H 1767.24 4.08172 -1.04755 0
M  V30 17119 H 1765.92 3.23033 -0.207744 0
M  V30 17120 H 1764.82 2.7971 -2.48421 0
M  V30 17121 H 1766.16 3.69317 -3.25371 0
M  V30 17122 N 1767.81 1.21396 1.00503 0
M  V30 17123 C 1769.08 0.93995 1.71535 0
M  V30 17124 C 1769.46 -0.548247 2.03856 0
M  V30 17125 O 1768.81 -1.51308 1.71226 0
M  V30 17126 C 1769.02 1.82501 2.9748 0
M  V30 17127 C 1770.37 2.07383 3.7051 0
M  V30 17128 O 1771.39 1.79849 3.07462 0
M  V30 17129 O 1770.25 2.5395 4.83913 0
M  V30 17130 H 1767.35 0.35246 0.748132 0
M  V30 17131 H 1769.89 1.32325 1.06246 0
M  V30 17132 H 1768.67 2.83219 2.70005 0
M  V30 17133 H 1768.29 1.44252 3.70509 0
M  V30 17134 N 1769.29 -1.19996 1.0217 0
M  V30 17135 C 1770.53 -1.91201 0.722601 0
M  V30 17136 C 1770.89 -1.77387 -0.734692 0
M  V30 17137 O 1772.09 -2.43121 -1.14654 0
M  V30 17138 C 1770.36 -3.38308 1.1525 0
M  V30 17139 S 1771.92 -4.27805 0.976144 0
M  V30 17140 H 1768.74 -0.660456 0.263285 0
M  V30 17141 H 1771.34 -1.45115 1.31003 0
M  V30 17142 H 1770.04 -3.45885 2.20889 0
M  V30 17143 H 1769.58 -3.89422 0.558056 0
M  V30 17144 H 1771.59 -4.96061 -0.117417 0
M  V30 17145 N 1770.76 -0.798611 -1.35867 0
M  V30 17146 C 1772.01 -0.375816 -1.99287 0
M  V30 17147 C 1772.34 1.05223 -1.63223 0
M  V30 17148 O 1771.62 1.72862 -0.891576 0
M  V30 17149 C 1771.9 -0.550197 -3.55872 0
M  V30 17150 C 1771.75 -2.0226 -4.0176 0
M  V30 17151 C 1773.07 0.0290862 -4.4009 0
M  V30 17152 H 1770.19 -0.138024 -0.72396 0
M  V30 17153 H 1772.83 -1.00666 -1.61141 0
M  V30 17154 H 1770.98 -0.0131739 -3.88498 0
M  V30 17155 H 1772.66 -2.62139 -3.7958 0
M  V30 17156 H 1770.9 -2.52191 -3.52962 0
M  V30 17157 H 1771.57 -2.09553 -5.10678 0
M  V30 17158 H 1774.05 -0.429444 -4.13878 0
M  V30 17159 H 1772.92 -0.122894 -5.48762 0
M  V30 17160 H 1773.18 1.12206 -4.27624 0
M  V30 17161 N 1772.24 1.47639 -0.551417 0
M  V30 17162 C 1773.52 1.95559 0.0401983 0
M  V30 17163 C 1773.9 1.49396 1.49144 0
M  V30 17164 O 1773.25 0.730148 2.1652 0
M  V30 17165 C 1773.46 3.48859 -0.0992677 0
M  V30 17166 C 1774.8 4.24572 0.0490517 0
M  V30 17167 O 1775.83 3.5619 -0.026527 0
M  V30 17168 O 1774.69 5.46094 0.210638 0
M  V30 17169 H 1771.78 0.824251 0.0673694 0
M  V30 17170 H 1774.33 1.58065 -0.617532 0
M  V30 17171 H 1773.1 3.75245 -1.10936 0
M  V30 17172 H 1772.72 3.93102 0.596339 0
M  V30 17173 N 1773.72 0.287581 1.54954 0
M  V30 17174 C 1774.97 -0.326315 1.99043 0
M  V30 17175 C 1775.28 -1.56033 1.17954 0
M  V30 17176 O 1776.49 -2.24797 1.52246 0
M  V30 17177 C 1774.94 -0.631918 3.54309 0
M  V30 17178 C 1774.55 0.582998 4.4419 0
M  V30 17179 C 1776.3 -1.20775 4.06957 0
M  V30 17180 C 1774.2 0.251291 5.90866 0
M  V30 17181 H 1773.13 -0.125703 0.743448 0
M  V30 17182 H 1775.78 0.394188 1.79216 0
M  V30 17183 H 1774.17 -1.41166 3.69984 0
M  V30 17184 H 1775.34 1.35957 4.40287 0
M  V30 17185 H 1773.66 1.07653 4.02243 0
M  V30 17186 H 1776.25 -1.46995 5.14098 0
M  V30 17187 H 1776.6 -2.14569 3.56743 0
M  V30 17188 H 1777.13 -0.490021 3.9477 0
M  V30 17189 H 1773.87 1.15744 6.452 0
M  V30 17190 H 1773.39 -0.488274 5.97809 0
M  V30 17191 H 1775.07 -0.152008 6.46821 0
M  V30 17192 N 1775.2 -1.57593 0.0150662 0
M  V30 17193 C 1776.15 -2.10501 -0.989557 0
M  V30 17194 C 1777.14 -1.02836 -1.34615 0
M  V30 17195 O 1778.35 -1.21286 -1.33002 0
M  V30 17196 H 1774.72 -0.672343 -0.336838 0
M  V30 17197 H 1776.69 -2.93871 -0.517893 0
M  V30 17198 C 1775.44 -2.63583 -2.26759 0
M  V30 17199 H 1774.76 -3.46069 -2.00191 0
M  V30 17200 H 1776.2 -3.04264 -2.95295 0
M  V30 17201 C 1774.66 -1.5568 -2.98773 0
M  V30 17202 O 1775.19 -0.948437 -3.90343 0
M  V30 17203 N 1773.4 -1.28062 -2.60861 0
M  V30 17204 H 1772.95 -1.77719 -1.86477 0
M  V30 17205 H 1772.9 -0.560878 -3.09357 0
M  V30 17206 N 1776.68 0.257904 -1.55475 0
M  V30 17207 C 1777.59 1.34084 -1.92506 0
M  V30 17208 C 1778.6 1.53246 -0.824123 0
M  V30 17209 O 1779.78 1.67081 -1.12455 0
M  V30 17210 C 1776.84 2.67741 -2.20263 0
M  V30 17211 C 1775.9 2.57196 -3.43728 0
M  V30 17212 C 1775.14 3.84479 -3.7015 0
M  V30 17213 O 1775.36 4.85858 -2.98827 0
M  V30 17214 O 1774.29 3.83774 -4.63682 0
M  V30 17215 H 1778.12 1.05672 -2.84723 0
M  V30 17216 H 1775.71 0.457726 -1.42215 0
M  V30 17217 H 1777.59 3.46743 -2.39473 0
M  V30 17218 H 1776.26 2.95907 -1.31227 0
M  V30 17219 H 1775.17 1.76518 -3.29837 0
M  V30 17220 H 1776.5 2.33977 -4.33031 0
M  V30 17221 N 1778.15 1.48666 0.52309 0
M  V30 17222 C 1779.39 1.58636 1.28895 0
M  V30 17223 C 1779.76 0.257403 1.90267 0
M  V30 17224 O 1780.96 0.232139 2.67796 0
M  V30 17225 C 1779.23 2.69794 2.34406 0
M  V30 17226 S 1780.79 2.99574 3.20625 0
M  V30 17227 H 1777.61 0.559793 0.438353 0
M  V30 17228 H 1780.21 1.86221 0.595137 0
M  V30 17229 H 1778.91 3.64904 1.87811 0
M  V30 17230 H 1778.44 2.44132 3.08485 0
M  V30 17231 H 1780.46 2.394 4.34629 0
M  V30 17232 N 1779.63 -0.772489 1.37369 0
M  V30 17233 C 1780.86 -1.56671 1.35901 0
M  V30 17234 C 1781.28 -1.88024 -0.0535538 0
M  V30 17235 O 1780.64 -1.49174 -1.03038 0
M  V30 17236 C 1780.69 -2.85417 2.20384 0
M  V30 17237 O 1779.79 -3.79761 1.60796 0
M  V30 17238 H 1779.13 -0.474596 0.464386 0
M  V30 17239 H 1781.66 -0.956162 1.80883 0
M  V30 17240 H 1781.67 -3.34527 2.33571 0
M  V30 17241 H 1780.35 -2.61926 3.2306 0
M  V30 17242 H 1778.93 -3.38403 1.56645 0
M  V30 17243 N 1781.11 -1.21927 -0.998575 0
M  V30 17244 C 1782.04 -1.00845 -2.106 0
M  V30 17245 C 1783.02 0.068733 -1.69961 0
M  V30 17246 O 1784.21 -0.0923686 -1.9398 0
M  V30 17247 C 1781.34 -0.57929 -3.42435 0
M  V30 17248 C 1780.29 -1.60177 -3.96897 0
M  V30 17249 C 1779.62 -1.02863 -5.24713 0
M  V30 17250 C 1780.92 -2.9903 -4.28227 0
M  V30 17251 H 1782.61 -1.93469 -2.28495 0
M  V30 17252 H 1780.16 -0.931612 -1.09804 0
M  V30 17253 H 1782.11 -0.418944 -4.19312 0
M  V30 17254 H 1780.83 0.382608 -3.24351 0
M  V30 17255 H 1779.49 -1.74979 -3.22146 0
M  V30 17256 H 1779.14 -0.058254 -5.02966 0
M  V30 17257 H 1778.84 -1.71166 -5.62117 0
M  V30 17258 H 1780.36 -0.879743 -6.04229 0
M  V30 17259 H 1781.78 -2.87634 -4.95923 0
M  V30 17260 H 1780.18 -3.64404 -4.76791 0
M  V30 17261 H 1781.25 -3.4939 -3.36236 0
M  V30 17262 N 1782.59 1.19452 -1.02805 0
M  V30 17263 C 1783.81 1.93616 -0.743485 0
M  V30 17264 C 1784.24 1.74934 0.691342 0
M  V30 17265 O 1783.6 1.05111 1.47721 0
M  V30 17266 C 1783.64 3.43451 -1.0988 0
M  V30 17267 O 1782.75 4.11829 -0.216978 0
M  V30 17268 H 1782.09 0.60448 -0.274771 0
M  V30 17269 H 1784.62 1.51554 -1.37451 0
M  V30 17270 H 1784.63 3.94115 -1.05535 0
M  V30 17271 H 1783.3 3.5637 -2.14413 0
M  V30 17272 H 1781.88 3.71533 -0.318954 0
M  V30 17273 N 1784.07 0.805805 1.35442 0
M  V30 17274 C 1785.34 0.309105 1.93142 0
M  V30 17275 C 1785.72 -1.20119 1.73593 0
M  V30 17276 O 1785.07 -2.00034 1.10448 0
M  V30 17277 C 1785.28 0.719653 3.415 0
M  V30 17278 C 1786.63 0.708697 4.18644 0
M  V30 17279 O 1787.65 0.661148 3.5001 0
M  V30 17280 O 1786.51 0.76636 5.411 0
M  V30 17281 H 1783.61 0.0806647 0.823057 0
M  V30 17282 H 1786.15 0.88945 1.44523 0
M  V30 17283 H 1784.92 1.7606 3.49455 0
M  V30 17284 H 1784.55 0.114073 3.97436 0
M  V30 17285 N 1785.54 -1.47344 0.559239 0
M  V30 17286 C 1786.49 -2.31735 -0.200368 0
M  V30 17287 C 1787.49 -1.43051 -0.907351 0
M  V30 17288 O 1788.69 -1.59804 -0.828406 0
M  V30 17289 H 1785.07 -0.747351 -0.0834871 0
M  V30 17290 H 1787.04 -2.93645 0.530556 0
M  V30 17291 C 1785.79 -3.25747 -1.2159 0
M  V30 17292 H 1785.11 -3.93952 -0.681314 0
M  V30 17293 H 1786.55 -3.87624 -1.71825 0
M  V30 17294 C 1785.01 -2.49414 -2.26482 0
M  V30 17295 O 1785.54 -2.24006 -3.33443 0
M  V30 17296 N 1783.75 -2.10387 -2.00464 0
M  V30 17297 H 1783.29 -2.3125 -1.13495 0
M  V30 17298 H 1783.25 -1.5963 -2.70861 0
M  V30 17299 N 1787.02 -0.295795 -1.54799 0
M  V30 17300 C 1787.95 0.575863 -2.26288 0
M  V30 17301 C 1788.93 1.14217 -1.26049 0
M  V30 17302 O 1790.12 1.17248 -1.54812 0
M  V30 17303 C 1787.25 1.7503 -2.9997 0
M  V30 17304 C 1786.2 1.31459 -4.07311 0
M  V30 17305 C 1785.53 2.57377 -4.6868 0
M  V30 17306 C 1786.83 0.449629 -5.20361 0
M  V30 17307 H 1788.52 -0.0203797 -2.99393 0
M  V30 17308 H 1786.07 -0.0112418 -1.43996 0
M  V30 17309 H 1788.02 2.36615 -3.487 0
M  V30 17310 H 1786.75 2.3727 -2.24434 0
M  V30 17311 H 1785.4 0.721829 -3.59423 0
M  V30 17312 H 1785.05 3.1792 -3.89789 0
M  V30 17313 H 1784.75 2.28927 -5.41171 0
M  V30 17314 H 1786.28 3.19774 -5.2017 0
M  V30 17315 H 1787.69 0.971014 -5.65017 0
M  V30 17316 H 1786.09 0.259121 -5.9954 0
M  V30 17317 H 1787.16 -0.526564 -4.82032 0
M  V30 17318 N 1788.5 1.57583 -0.0234236 0
M  V30 17319 C 1789.74 1.93428 0.660675 0
M  V30 17320 C 1790.11 0.899634 1.69619 0
M  V30 17321 O 1791.31 1.1441 2.43236 0
M  V30 17322 C 1789.58 3.3422 1.26617 0
M  V30 17323 S 1791.14 3.91985 1.97214 0
M  V30 17324 H 1787.95 0.676862 0.217666 0
M  V30 17325 H 1790.56 1.95312 -0.0857251 0
M  V30 17326 H 1789.26 4.07343 0.500004 0
M  V30 17327 H 1788.79 3.35766 2.05 0
M  V30 17328 H 1790.81 3.74958 3.24994 0
M  V30 17329 N 1789.98 -0.249655 1.5561 0
M  V30 17330 C 1791.4 -0.598032 1.47972 0
M  V30 17331 C 1791.6 -1.88461 0.713067 0
M  V30 17332 O 1790.65 -2.51344 0.241314 0
M  V30 17333 C 1791.96 -0.703318 2.92359 0
M  V30 17334 C 1793.51 -0.795828 3.02714 0
M  V30 17335 C 1793.99 -0.932698 4.48402 0
M  V30 17336 N 1795.48 -0.997638 4.52329 0
M  V30 17337 C 1796.21 -1.12276 5.623 0
M  V30 17338 N 1795.71 -1.21359 6.82088 0
M  V30 17339 N 1797.5 -1.1557 5.50091 0
M  V30 17340 H 1789.65 0.594976 2.03897 0
M  V30 17341 H 1791.92 0.204956 0.925579 0
M  V30 17342 H 1791.62 0.171981 3.51279 0
M  V30 17343 H 1791.5 -1.57614 3.42692 0
M  V30 17344 H 1793.88 -1.66158 2.43876 0
M  V30 17345 H 1793.96 0.102087 2.55596 0
M  V30 17346 H 1793.61 -0.0715123 5.0785 0
M  V30 17347 H 1793.54 -1.84561 4.93198 0
M  V30 17348 H 1796.03 -0.938895 3.66051 0
M  V30 17349 H 1796.34 -1.30805 7.61649 0
M  V30 17350 H 1794.69 -1.18322 6.84854 0
M  V30 17351 H 1797.88 -1.0812 4.55442 0
M  V30 17352 H 1798.05 -1.24976 6.35834 0
M  V30 17353 N 1791.46 -1.48941 -0.515198 0
M  V30 17354 C 1792.41 -1.65027 -1.63917 0
M  V30 17355 C 1793.4 -0.516402 -1.61337 0
M  V30 17356 O 1794.61 -0.695598 -1.66016 0
M  V30 17357 H 1790.98 -0.520121 -0.543119 0
M  V30 17358 H 1792.95 -2.59397 -1.47498 0
M  V30 17359 C 1791.7 -1.72093 -3.02125 0
M  V30 17360 H 1791.02 -2.5871 -3.0481 0
M  V30 17361 H 1792.46 -1.87387 -3.80345 0
M  V30 17362 C 1790.92 -0.462688 -3.33708 0
M  V30 17363 O 1791.45 0.417925 -3.9952 0
M  V30 17364 N 1789.66 -0.329909 -2.88721 0
M  V30 17365 H 1789.21 -1.0475 -2.35341 0
M  V30 17366 H 1789.16 0.510912 -3.10221 0
M  V30 17367 N 1792.94 0.765193 -1.37777 0
M  V30 17368 C 1794.18 1.52096 -1.33084 0
M  V30 17369 C 1794.5 1.94827 0.08221 0
M  V30 17370 O 1793.77 1.66787 1.02757 0
M  V30 17371 H 1792.35 0.564139 -0.489649 0
M  V30 17372 H 1795.02 0.910308 -1.72335 0
M  V30 17373 H 1794.11 2.4173 -1.97416 0
M  V30 17374 N 1794.41 1.22455 0.992094 0
M  V30 17375 C 1795.36 0.99534 2.08235 0
M  V30 17376 C 1796.33 -0.0832064 1.65891 0
M  V30 17377 O 1797.52 0.0665468 1.90684 0
M  V30 17378 C 1794.66 0.580055 3.4019 0
M  V30 17379 C 1793.77 1.72946 3.95871 0
M  V30 17380 C 1792.9 1.26208 5.15989 0
M  V30 17381 C 1791.94 2.38298 5.63809 0
M  V30 17382 N 1791.08 1.92602 6.75166 0
M  V30 17383 H 1795.92 1.92861 2.27175 0
M  V30 17384 H 1793.46 0.960948 1.11374 0
M  V30 17385 H 1795.41 0.320448 4.15968 0
M  V30 17386 H 1794.04 -0.316208 3.21248 0
M  V30 17387 H 1793.1 2.10337 3.16958 0
M  V30 17388 H 1794.41 2.57257 4.27341 0
M  V30 17389 H 1793.56 0.959904 5.99058 0
M  V30 17390 H 1792.3 0.389184 4.86145 0
M  V30 17391 H 1791.31 2.69304 4.79328 0
M  V30 17392 H 1792.53 3.26105 5.95678 0
M  V30 17393 H 1790.48 1.07675 6.47103 0
M  V30 17394 H 1790.39 2.70478 7.05959 0
M  V30 17395 H 1791.66 1.65455 7.61738 0
M  V30 17396 N 1795.89 -1.18905 1.03437 0
M  V30 17397 C 1797.13 -1.90424 0.74284 0
M  V30 17398 C 1797.5 -1.78157 -0.715837 0
M  V30 17399 O 1798.7 -2.44323 -1.12069 0
M  V30 17400 C 1796.97 -3.37067 1.18831 0
M  V30 17401 S 1798.53 -4.26745 1.02146 0
M  V30 17402 H 1795.34 -0.657626 0.270275 0
M  V30 17403 H 1797.95 -1.43717 1.32535 0
M  V30 17404 H 1796.65 -3.43522 2.24545 0
M  V30 17405 H 1796.18 -3.88808 0.599328 0
M  V30 17406 H 1798.2 -4.96158 -0.0647961 0
M  V30 17407 N 1797.37 -0.812977 -1.35013 0
M  V30 17408 C 1798.62 -0.396932 -1.98878 0
M  V30 17409 C 1798.95 1.03486 -1.6433 0
M  V30 17410 O 1798.22 1.71906 -0.90986 0
M  V30 17411 C 1798.51 -0.587911 -3.55268 0
M  V30 17412 C 1798.36 -2.06509 -3.99592 0
M  V30 17413 C 1799.68 -0.017593 -4.40096 0
M  V30 17414 H 1796.8 -0.145695 -0.722455 0
M  V30 17415 H 1799.44 -1.0237 -1.60064 0
M  V30 17416 H 1797.59 -0.0543785 -3.88462 0
M  V30 17417 H 1799.26 -2.6615 -3.76778 0
M  V30 17418 H 1797.5 -2.55921 -3.50267 0
M  V30 17419 H 1798.18 -2.14958 -5.08426 0
M  V30 17420 H 1800.65 -0.473317 -4.13399 0
M  V30 17421 H 1799.53 -0.18109 -5.48601 0
M  V30 17422 H 1799.79 1.07664 -4.2879 0
M  V30 17423 N 1798.85 1.47045 -0.567045 0
M  V30 17424 C 1799.8 2.31838 0.188075 0
M  V30 17425 C 1800.79 1.4353 0.899752 0
M  V30 17426 O 1802 1.60241 0.81992 0
M  V30 17427 H 1798.37 0.747783 0.0795226 0
M  V30 17428 H 1800.34 2.9336 -0.546121 0
M  V30 17429 C 1799.09 3.26387 1.19861 0
M  V30 17430 H 1798.41 3.94308 0.660412 0
M  V30 17431 H 1799.85 3.8853 1.69767 0
M  V30 17432 C 1798.31 2.50612 2.25157 0
M  V30 17433 O 1798.84 2.25771 3.3225 0
M  V30 17434 N 1797.05 2.11447 1.99345 0
M  V30 17435 H 1796.6 2.31849 1.12267 0
M  V30 17436 H 1796.55 1.61064 2.7001 0
M  V30 17437 N 1800.33 0.304 1.5464 0
M  V30 17438 C 1801.26 -0.612836 2.19817 0
M  V30 17439 C 1802.24 -1.13062 1.16858 0
M  V30 17440 O 1803.42 -1.19826 1.45513 0
M  V30 17441 C 1800.55 -1.83881 2.84439 0
M  V30 17442 C 1799.59 -1.454 4.0095 0
M  V30 17443 S 1800.43 -0.507373 5.33091 0
M  V30 17444 C 1801.58 -1.74107 6.01197 0
M  V30 17445 H 1801.82 -0.0591286 2.97241 0
M  V30 17446 H 1799.35 0.0881302 1.54148 0
M  V30 17447 H 1801.31 -2.54235 3.22296 0
M  V30 17448 H 1799.97 -2.36369 2.06854 0
M  V30 17449 H 1799.16 -2.36702 4.44959 0
M  V30 17450 H 1798.76 -0.83037 3.64665 0
M  V30 17451 H 1801.05 -2.68124 6.22186 0
M  V30 17452 H 1802 -1.3435 6.95238 0
M  V30 17453 H 1802.41 -1.91916 5.30875 0
M  V30 17454 N 1801.8 -1.57568 0.0317802 0
M  V30 17455 C 1803.05 -1.91087 -0.645639 0
M  V30 17456 C 1803.37 -0.910108 -1.73137 0
M  V30 17457 O 1804.57 -1.13665 -2.46562 0
M  V30 17458 C 1803.03 -3.39317 -1.19966 0
M  V30 17459 C 1802.64 -4.47759 -0.147068 0
M  V30 17460 C 1804.38 -3.81901 -1.85343 0
M  V30 17461 C 1802.29 -5.87088 -0.712872 0
M  V30 17462 H 1801.22 -0.713112 -0.244923 0
M  V30 17463 H 1803.87 -1.83241 0.0975145 0
M  V30 17464 H 1802.25 -3.42105 -1.99451 0
M  V30 17465 H 1803.42 -4.56535 0.625518 0
M  V30 17466 H 1801.74 -4.14395 0.408109 0
M  V30 17467 H 1804.34 -4.83352 -2.28636 0
M  V30 17468 H 1804.68 -3.17104 -2.69724 0
M  V30 17469 H 1805.21 -3.81548 -1.12544 0
M  V30 17470 H 1801.95 -6.55434 0.0928582 0
M  V30 17471 H 1801.47 -5.81913 -1.45388 0
M  V30 17472 H 1803.15 -6.3574 -1.20179 0
M  V30 17473 N 1803.28 0.241399 -1.5574 0
M  V30 17474 C 1804.53 0.96675 -1.77478 0
M  V30 17475 C 1804.85 1.85644 -0.596757 0
M  V30 17476 O 1804.12 1.92035 0.387236 0
M  V30 17477 H 1802.7 0.35995 -0.654557 0
M  V30 17478 H 1805.36 0.258023 -1.93185 0
M  V30 17479 H 1804.46 1.58524 -2.68843 0
M  V30 17480 N 1804.76 1.49212 0.507292 0
M  V30 17481 C 1805.99 1.6208 1.28599 0
M  V30 17482 C 1806.4 0.289745 1.86563 0
M  V30 17483 O 1805.76 -0.723987 1.67525 0
M  V30 17484 C 1805.81 2.68482 2.42074 0
M  V30 17485 O 1805.53 3.96424 1.86493 0
M  V30 17486 C 1807.03 2.91997 3.33546 0
M  V30 17487 H 1804.25 0.545831 0.390268 0
M  V30 17488 H 1806.8 1.95201 0.609652 0
M  V30 17489 H 1804.95 2.38156 3.05549 0
M  V30 17490 H 1805.37 4.54983 2.60942 0
M  V30 17491 H 1806.84 3.70195 4.09463 0
M  V30 17492 H 1807.32 2.01673 3.9016 0
M  V30 17493 H 1807.92 3.23715 2.75842 0
M  V30 17494 N 1806.24 -0.757876 1.38181 0
M  V30 17495 C 1807.47 -1.54485 1.37179 0
M  V30 17496 C 1807.88 -1.89155 -0.0413714 0
M  V30 17497 O 1807.22 -1.52963 -1.01725 0
M  V30 17498 C 1807.28 -2.87464 2.15881 0
M  V30 17499 C 1806.95 -2.75355 3.64731 0
M  V30 17500 C 1807.94 -2.45442 4.58317 0
M  V30 17501 C 1805.63 -2.92942 4.08032 0
M  V30 17502 C 1807.62 -2.33263 5.93184 0
M  V30 17503 C 1805.31 -2.80384 5.42981 0
M  V30 17504 C 1806.31 -2.50586 6.3537 0
M  V30 17505 O 1805.99 -2.38079 7.67837 0
M  V30 17506 H 1805.73 -0.484775 0.471136 0
M  V30 17507 H 1808.28 -0.946061 1.82315 0
M  V30 17508 H 1806.51 -3.49516 1.65456 0
M  V30 17509 H 1808.2 -3.48949 2.0734 0
M  V30 17510 H 1808.97 -2.31527 4.26169 0
M  V30 17511 H 1804.84 -3.15133 3.3647 0
M  V30 17512 H 1808.39 -2.09927 6.65264 0
M  V30 17513 H 1804.29 -2.93871 5.74726 0
M  V30 17514 H 1805.05 -2.53324 7.78312 0
M  V30 17515 N 1807.72 -1.22979 -0.985586 0
M  V30 17516 C 1808.65 -0.964185 -2.07933 0
M  V30 17517 C 1809.66 0.0599162 -1.6269 0
M  V30 17518 O 1810.85 -0.174984 -1.7764 0
M  V30 17519 C 1807.95 -0.429879 -3.36163 0
M  V30 17520 C 1807.12 -1.51293 -4.10401 0
M  V30 17521 C 1806.18 -0.984411 -5.1691 0
M  V30 17522 O 1805.21 -1.67225 -5.44081 0
M  V30 17523 N 1806.41 0.190439 -5.80188 0
M  V30 17524 H 1809.18 -1.90582 -2.31297 0
M  V30 17525 H 1806.74 -1.13767 -1.15189 0
M  V30 17526 H 1808.73 -0.0614639 -4.04653 0
M  V30 17527 H 1807.3 0.417049 -3.09806 0
M  V30 17528 H 1806.52 -2.05434 -3.36438 0
M  V30 17529 H 1807.81 -2.24141 -4.56769 0
M  V30 17530 H 1807.2 0.765928 -5.60491 0
M  V30 17531 H 1805.76 0.500168 -6.49878 0
M  V30 17532 N 1809.19 1.18355 -1.04066 0
M  V30 17533 C 1810.43 1.90027 -0.752928 0
M  V30 17534 C 1810.8 1.78534 0.706379 0
M  V30 17535 O 1812 2.44914 1.10772 0
M  V30 17536 C 1810.27 3.36432 -1.20617 0
M  V30 17537 S 1811.83 4.26198 -1.04408 0
M  V30 17538 H 1808.65 0.656184 -0.273759 0
M  V30 17539 H 1811.25 1.43013 -1.33295 0
M  V30 17540 H 1809.95 3.42327 -2.26364 0
M  V30 17541 H 1809.48 3.88485 -0.619939 0
M  V30 17542 H 1811.5 4.96185 0.0384827 0
M  V30 17543 N 1810.67 0.820125 1.3458 0
M  V30 17544 C 1811.9 0.418747 2.03129 0
M  V30 17545 C 1812.32 -0.966605 1.61364 0
M  V30 17546 O 1811.68 -1.62847 0.796903 0
M  V30 17547 C 1811.73 0.525681 3.56748 0
M  V30 17548 O 1810.83 -0.455592 4.09876 0
M  V30 17549 H 1810.17 0.172819 0.641116 0
M  V30 17550 H 1812.7 1.10977 1.71888 0
M  V30 17551 H 1812.71 0.400422 4.0603 0
M  V30 17552 H 1811.39 1.53609 3.86493 0
M  V30 17553 H 1809.97 -0.289449 3.71775 0
M  V30 17554 N 1812.15 -1.46743 0.574835 0
M  V30 17555 C 1813.39 -2.04312 0.0599973 0
M  V30 17556 C 1813.75 -1.43757 -1.27271 0
M  V30 17557 O 1814.96 -1.92479 -1.87631 0
M  V30 17558 C 1813.23 -3.57398 -0.0130197 0
M  V30 17559 S 1814.79 -4.3626 -0.471425 0
M  V30 17560 H 1811.6 -0.710203 0.0336583 0
M  V30 17561 H 1814.21 -1.79887 0.765555 0
M  V30 17562 H 1812.91 -3.9899 0.961003 0
M  V30 17563 H 1812.44 -3.86347 -0.741591 0
M  V30 17564 H 1814.46 -4.65149 -1.72773 0
M  V30 17565 N 1813.63 -0.312197 -1.54477 0
M  V30 17566 C 1814.58 0.57453 -2.25393 0
M  V30 17567 C 1815.57 1.12789 -1.26392 0
M  V30 17568 O 1816.78 1.07724 -1.44207 0
M  V30 17569 H 1813.15 0.203904 -0.723828 0
M  V30 17570 H 1815.12 -0.0459918 -2.98365 0
M  V30 17571 C 1813.87 1.72942 -3.01639 0
M  V30 17572 H 1813.19 1.31286 -3.7763 0
M  V30 17573 H 1814.63 2.3257 -3.54524 0
M  V30 17574 C 1813.09 2.64026 -2.09266 0
M  V30 17575 O 1813.62 3.65431 -1.66803 0
M  V30 17576 N 1811.83 2.32007 -1.74989 0
M  V30 17577 H 1811.38 1.49588 -2.09717 0
M  V30 17578 H 1811.33 2.93213 -1.1346 0
M  V30 17579 N 1815.11 1.57549 -0.040136 0
M  V30 17580 C 1816.52 1.79959 0.497142 0
M  V30 17581 C 1816.87 0.951403 1.71589 0
M  V30 17582 O 1815.99 0.16488 2.15771 0
M  V30 17583 C 1816.59 3.26387 0.908682 0
M  V30 17584 C 1815.15 3.49754 1.39101 0
M  V30 17585 C 1814.29 2.74941 0.360933 0
M  V30 17586 H 1817.25 1.56453 -0.266099 0
M  V30 17587 H 1817.27 3.36702 1.77234 0
M  V30 17588 H 1816.78 3.88094 0.0214628 0
M  V30 17589 H 1814.88 2.93313 2.29778 0
M  V30 17590 H 1814.99 4.58469 1.39078 0
M  V30 17591 H 1813.36 2.40747 0.831432 0
M  V30 17592 H 1814.14 3.39369 -0.51801 0
M  V30 17593 N 1816.58 -0.233136 1.55866 0
M  V30 17594 C 1817.83 -0.957324 1.77988 0
M  V30 17595 C 1818.15 -1.85325 0.606593 0
M  V30 17596 O 1817.42 -1.92237 -0.377047 0
M  V30 17597 H 1816 -0.356474 0.656457 0
M  V30 17598 H 1818.67 -0.247774 1.93319 0
M  V30 17599 H 1817.76 -1.57096 2.6968 0
M  V30 17600 N 1818.06 -1.49479 -0.499372 0
M  V30 17601 C 1819.29 -1.62524 -1.27552 0
M  V30 17602 C 1819.7 -0.296533 -1.86862 0
M  V30 17603 O 1819.04 0.728236 -1.68649 0
M  V30 17604 C 1819.11 -2.63674 -2.44369 0
M  V30 17605 C 1818.77 -4.0798 -2.05916 0
M  V30 17606 C 1819.77 -4.94733 -1.59797 0
M  V30 17607 C 1817.45 -4.53723 -2.15501 0
M  V30 17608 C 1819.45 -6.25268 -1.23768 0
M  V30 17609 C 1817.13 -5.84271 -1.79084 0
M  V30 17610 C 1818.13 -6.69867 -1.33292 0
M  V30 17611 O 1817.82 -7.97982 -0.97368 0
M  V30 17612 H 1817.55 -0.550018 -0.393009 0
M  V30 17613 H 1820.11 -1.96261 -0.605856 0
M  V30 17614 H 1818.34 -2.2512 -3.14417 0
M  V30 17615 H 1820.02 -2.66231 -3.06392 0
M  V30 17616 H 1820.79 -4.6062 -1.51836 0
M  V30 17617 H 1816.67 -3.87264 -2.50095 0
M  V30 17618 H 1820.21 -6.92033 -0.879542 0
M  V30 17619 H 1816.11 -6.17912 -1.86695 0
M  V30 17620 H 1816.88 -8.11007 -1.10501 0
M  V30 17621 N 1819.54 0.750537 -1.38581 0
M  V30 17622 C 1820.47 1.87411 -1.31946 0
M  V30 17623 C 1821.49 1.61151 -0.231101 0
M  V30 17624 O 1822.68 1.71674 -0.488893 0
M  V30 17625 C 1819.78 3.23112 -1.02233 0
M  V30 17626 C 1818.95 3.76852 -2.22039 0
M  V30 17627 C 1818.01 4.91077 -1.89023 0
M  V30 17628 O 1817.03 5.0555 -2.61549 0
M  V30 17629 N 1818.24 5.74287 -0.847021 0
M  V30 17630 H 1821 1.93613 -2.28767 0
M  V30 17631 H 1818.56 0.930603 -1.32482 0
M  V30 17632 H 1820.55 3.97074 -0.78193 0
M  V30 17633 H 1819.12 3.12277 -0.141981 0
M  V30 17634 H 1818.34 2.94421 -2.62126 0
M  V30 17635 H 1819.63 4.09489 -3.01987 0
M  V30 17636 H 1819.03 5.65166 -0.245635 0
M  V30 17637 H 1817.59 6.48383 -0.666505 0
M  V30 17638 N 1821.02 1.235 0.979051 0
M  V30 17639 C 1821.98 1.01854 2.05325 0
M  V30 17640 C 1822.98 -0.0201133 1.60787 0
M  V30 17641 O 1824.17 0.219761 1.72808 0
M  V30 17642 C 1821.3 0.541404 3.36573 0
M  V30 17643 H 1822.5 1.97183 2.25962 0
M  V30 17644 H 1820.05 1.05563 1.15265 0
M  V30 17645 H 1820.79 -0.415607 3.21626 0
M  V30 17646 H 1820.57 1.29092 3.7024 0
M  V30 17647 H 1822.06 0.410635 4.15576 0
M  V30 17648 N 1822.5 -1.17802 1.04693 0
M  V30 17649 C 1823.73 -1.91867 0.774246 0
M  V30 17650 C 1824.14 -1.76534 -0.669425 0
M  V30 17651 O 1823.5 -1.09915 -1.45688 0
M  V30 17652 C 1823.55 -3.43086 1.13904 0
M  V30 17653 O 1823.27 -3.57943 2.52604 0
M  V30 17654 C 1824.77 -4.34238 0.891767 0
M  V30 17655 H 1821.99 -0.60892 0.281882 0
M  V30 17656 H 1824.53 -1.49414 1.39627 0
M  V30 17657 H 1822.69 -3.83304 0.561863 0
M  V30 17658 H 1823.1 -4.51599 2.66756 0
M  V30 17659 H 1824.58 -5.3887 1.1968 0
M  V30 17660 H 1825.05 -4.38858 -0.17323 0
M  V30 17661 H 1825.66 -3.99727 1.45254 0
M  V30 17662 N 1823.98 -0.827251 -1.34143 0
M  V30 17663 C 1825.39 -0.475645 -1.80539 0
M  V30 17664 C 1825.74 1.00435 -1.68545 0
M  V30 17665 O 1824.86 1.78186 -1.22795 0
M  V30 17666 C 1825.46 -0.856588 -3.27793 0
M  V30 17667 C 1824.02 -0.557289 -3.72252 0
M  V30 17668 C 1823.16 -1.07118 -2.55775 0
M  V30 17669 H 1826.11 -1.01703 -1.21829 0
M  V30 17670 H 1826.14 -0.162059 -3.80155 0
M  V30 17671 H 1825.65 -1.93379 -3.36491 0
M  V30 17672 H 1823.75 0.510328 -3.69089 0
M  V30 17673 H 1823.86 -1.10438 -4.66198 0
M  V30 17674 H 1822.23 -0.492534 -2.49892 0
M  V30 17675 H 1823.01 -2.15492 -2.67242 0
M  V30 17676 N 1825.45 1.46436 -0.582609 0
M  V30 17677 C 1826.73 1.956 -0.00129167 0
M  V30 17678 C 1827.11 1.52526 1.45942 0
M  V30 17679 O 1826.46 0.775911 2.14923 0
M  V30 17680 C 1826.67 3.4857 -0.173243 0
M  V30 17681 C 1828.02 4.2458 -0.0410173 0
M  V30 17682 O 1829.04 3.56054 -0.102074 0
M  V30 17683 O 1827.9 5.46418 0.0947564 0
M  V30 17684 H 1824.99 0.825495 0.0498706 0
M  V30 17685 H 1827.54 1.5672 -0.650921 0
M  V30 17686 H 1826.31 3.72808 -1.1887 0
M  V30 17687 H 1825.93 3.94279 0.512822 0
M  V30 17688 N 1826.93 0.320385 1.54309 0
M  V30 17689 C 1828.35 -0.0323699 1.59567 0
M  V30 17690 C 1828.55 -1.50754 1.33699 0
M  V30 17691 O 1827.6 -2.26308 1.11987 0
M  V30 17692 C 1828.92 0.383001 2.98251 0
M  V30 17693 C 1830.46 0.33339 3.11219 0
M  V30 17694 C 1830.94 0.723874 4.52243 0
M  V30 17695 N 1832.43 0.677156 4.58224 0
M  V30 17696 C 1833.17 0.951531 5.6545 0
M  V30 17697 N 1832.66 1.29288 6.8063 0
M  V30 17698 N 1834.45 0.877303 5.55211 0
M  V30 17699 H 1826.61 1.28155 1.69381 0
M  V30 17700 H 1828.87 0.520887 0.792074 0
M  V30 17701 H 1828.57 1.41067 3.22169 0
M  V30 17702 H 1828.45 -0.253601 3.76347 0
M  V30 17703 H 1830.84 -0.685063 2.87038 0
M  V30 17704 H 1830.92 1.00488 2.35236 0
M  V30 17705 H 1830.56 1.74023 4.77157 0
M  V30 17706 H 1830.49 0.0301039 5.26591 0
M  V30 17707 H 1832.98 0.425055 3.75502 0
M  V30 17708 H 1833.29 1.4877 7.58345 0
M  V30 17709 H 1831.64 1.33111 6.82134 0
M  V30 17710 H 1834.83 0.610144 4.64107 0
M  V30 17711 H 1835 1.09449 6.3869 0
M  V30 17712 N 1828.41 -1.57525 0.0484906 0
M  V30 17713 C 1829.34 -2.08313 -0.955941 0
M  V30 17714 C 1830.35 -1.01042 -1.2765 0
M  V30 17715 O 1831.54 -1.28615 -1.23776 0
M  V30 17716 C 1828.64 -2.509 -2.27821 0
M  V30 17717 C 1827.82 -3.81476 -2.13997 0
M  V30 17718 C 1826.88 -4.10404 -3.29325 0
M  V30 17719 O 1825.9 -4.80366 -3.05348 0
M  V30 17720 N 1827.1 -3.62104 -4.53719 0
M  V30 17721 H 1829.87 -2.95111 -0.522472 0
M  V30 17722 H 1827.43 -1.61312 -0.137816 0
M  V30 17723 H 1829.42 -2.6733 -3.03837 0
M  V30 17724 H 1827.99 -1.69365 -2.62744 0
M  V30 17725 H 1827.21 -3.74654 -1.22589 0
M  V30 17726 H 1828.5 -4.6699 -2.01985 0
M  V30 17727 H 1827.9 -3.05541 -4.7609 0
M  V30 17728 H 1826.45 -3.83778 -5.26838 0
M  V30 17729 N 1829.89 0.224867 -1.55988 0
M  V30 17730 C 1831.14 0.947871 -1.78493 0
M  V30 17731 C 1831.46 1.85001 -0.616413 0
M  V30 17732 O 1830.73 1.92435 0.366847 0
M  V30 17733 H 1829.31 0.352987 -0.658338 0
M  V30 17734 H 1831.97 0.237519 -1.93447 0
M  V30 17735 H 1831.06 1.55664 -2.70509 0
M  V30 17736 N 1831.37 1.49742 0.491438 0
M  V30 17737 C 1832.61 1.61335 1.25501 0
M  V30 17738 C 1832.97 0.297703 1.89678 0
M  V30 17739 O 1834.17 0.28889 2.67243 0
M  V30 17740 C 1832.44 2.74705 2.28631 0
M  V30 17741 S 1834 3.06308 3.14199 0
M  V30 17742 H 1830.82 0.568965 0.42638 0
M  V30 17743 H 1833.42 1.87442 0.555503 0
M  V30 17744 H 1832.12 3.68806 1.80029 0
M  V30 17745 H 1831.66 2.50621 3.03237 0
M  V30 17746 H 1833.67 2.48565 4.29453 0
M  V30 17747 N 1832.84 -0.743177 1.38977 0
M  V30 17748 C 1834.07 -1.53243 1.39011 0
M  V30 17749 C 1834.49 -1.88792 -0.0174858 0
M  V30 17750 O 1833.84 -1.53523 -0.986766 0
M  V30 17751 C 1833.9 -2.8251 2.25544 0
M  V30 17752 O 1833.62 -2.48474 3.60821 0
M  V30 17753 C 1835.12 -3.76588 2.33872 0
M  V30 17754 H 1832.34 -0.473832 0.475104 0
M  V30 17755 H 1834.88 -0.918958 1.82689 0
M  V30 17756 H 1833.04 -3.4021 1.853 0
M  V30 17757 H 1833.45 -3.31454 4.06495 0
M  V30 17758 H 1834.92 -4.64211 2.98684 0
M  V30 17759 H 1835.4 -4.17761 1.35544 0
M  V30 17760 H 1836.01 -3.24811 2.74551 0
M  V30 17761 N 1834.32 -1.24018 -0.972487 0
M  V30 17762 C 1835.6 -0.985099 -1.68983 0
M  V30 17763 C 1835.98 0.494006 -2.05238 0
M  V30 17764 O 1835.33 1.46715 -1.75177 0
M  V30 17765 C 1835.54 -1.90324 -2.92537 0
M  V30 17766 C 1836.89 -2.17134 -3.64881 0
M  V30 17767 O 1837.91 -1.87938 -3.02585 0
M  V30 17768 O 1836.77 -2.66691 -4.7701 0
M  V30 17769 H 1833.86 -0.372172 -0.738524 0
M  V30 17770 H 1836.41 -1.35095 -1.027 0
M  V30 17771 H 1835.18 -2.90278 -2.62401 0
M  V30 17772 H 1834.8 -1.54025 -3.66554 0
M  V30 17773 N 1835.8 1.17245 -1.05316 0
M  V30 17774 C 1837.05 1.86871 -0.759093 0
M  V30 17775 C 1837.36 1.81997 0.7167 0
M  V30 17776 O 1838.57 2.47106 1.12476 0
M  V30 17777 C 1837.02 3.35303 -1.30766 0
M  V30 17778 C 1836.63 3.48676 -2.81299 0
M  V30 17779 C 1838.38 4.10249 -1.0907 0
M  V30 17780 C 1836.28 4.91138 -3.2945 0
M  V30 17781 H 1835.21 0.699975 -0.28027 0
M  V30 17782 H 1837.86 1.32393 -1.27061 0
M  V30 17783 H 1836.25 3.89326 -0.723955 0
M  V30 17784 H 1837.42 3.04864 -3.45536 0
M  V30 17785 H 1835.74 2.87152 -3.0155 0
M  V30 17786 H 1838.33 5.1535 -1.42545 0
M  V30 17787 H 1838.68 4.1629 -0.0285204 0
M  V30 17788 H 1839.21 3.62436 -1.63967 0
M  V30 17789 H 1835.95 4.90271 -4.35103 0
M  V30 17790 H 1835.47 5.35615 -2.69956 0
M  V30 17791 H 1837.15 5.59913 -3.24201 0
M  V30 17792 N 1837.28 0.834353 1.33702 0
M  V30 17793 C 1838.56 0.350003 1.92443 0
M  V30 17794 C 1838.94 -1.1641 1.76102 0
M  V30 17795 O 1838.28 -1.97646 1.14666 0
M  V30 17796 C 1838.49 0.791928 3.39896 0
M  V30 17797 C 1839.84 0.797338 4.17046 0
M  V30 17798 O 1840.87 0.735242 3.48529 0
M  V30 17799 O 1839.72 0.880963 5.39353 0
M  V30 17800 H 1836.82 0.0981048 0.82116 0
M  V30 17801 H 1839.36 0.919905 1.42604 0
M  V30 17802 H 1838.14 1.83433 3.45641 0
M  V30 17803 H 1837.76 0.198349 3.97105 0
M  V30 17804 N 1838.76 -1.46125 0.590367 0
M  V30 17805 C 1839.67 -2.34177 -0.140761 0
M  V30 17806 C 1840.68 -1.50213 -0.878181 0
M  V30 17807 O 1841.86 -1.83063 -0.839644 0
M  V30 17808 C 1838.92 -3.27537 -1.13669 0
M  V30 17809 C 1837.98 -4.27403 -0.403103 0
M  V30 17810 C 1837.22 -5.16302 -1.35159 0
M  V30 17811 O 1837.44 -5.08283 -2.58853 0
M  V30 17812 O 1836.37 -5.95753 -0.858003 0
M  V30 17813 H 1840.2 -2.98063 0.582401 0
M  V30 17814 H 1837.79 -1.45225 0.35072 0
M  V30 17815 H 1839.67 -3.85112 -1.71074 0
M  V30 17816 H 1838.34 -2.66237 -1.84118 0
M  V30 17817 H 1837.25 -3.73493 0.212986 0
M  V30 17818 H 1838.58 -4.9151 0.260565 0
M  V30 17819 N 1840.23 -0.328564 -1.54137 0
M  V30 17820 C 1841.47 0.273037 -2.02568 0
M  V30 17821 C 1841.84 1.48953 -1.21148 0
M  V30 17822 O 1843.04 2.16433 -1.59406 0
M  V30 17823 C 1841.31 0.594017 -3.52429 0
M  V30 17824 S 1842.87 1.17456 -4.22788 0
M  V30 17825 H 1839.69 0.0822771 -0.706223 0
M  V30 17826 H 1842.29 -0.462847 -1.89942 0
M  V30 17827 H 1840.99 -0.299408 -4.09306 0
M  V30 17828 H 1840.52 1.35997 -3.69146 0
M  V30 17829 H 1842.54 2.46113 -4.30863 0
M  V30 17830 N 1841.71 1.57497 -0.0568439 0
M  V30 17831 C 1842.65 2.07433 0.951141 0
M  V30 17832 C 1843.62 0.976083 1.30044 0
M  V30 17833 O 1844.81 1.24842 1.41233 0
M  V30 17834 C 1841.93 2.51956 2.26354 0
M  V30 17835 C 1840.98 3.73071 2.06689 0
M  V30 17836 S 1841.81 5.18463 1.34001 0
M  V30 17837 C 1842.97 5.66304 2.66552 0
M  V30 17838 H 1843.2 2.92607 0.526181 0
M  V30 17839 H 1840.74 1.53614 0.155562 0
M  V30 17840 H 1842.69 2.78269 3.01789 0
M  V30 17841 H 1841.35 1.67078 2.65977 0
M  V30 17842 H 1840.55 4.02163 3.03778 0
M  V30 17843 H 1840.15 3.47053 1.39392 0
M  V30 17844 H 1842.44 5.72236 3.62701 0
M  V30 17845 H 1843.38 6.65431 2.4209 0
M  V30 17846 H 1843.79 4.94057 2.73072 0
M  V30 17847 N 1843.19 -0.216591 1.56105 0
M  V30 17848 C 1844.44 -0.938321 1.78545 0
M  V30 17849 C 1844.75 -1.85302 0.62629 0
M  V30 17850 O 1845.96 -2.61377 0.734451 0
M  V30 17851 C 1844.41 -1.71871 3.16209 0
M  V30 17852 C 1844.02 -0.849904 4.39864 0
M  V30 17853 C 1845.77 -2.43136 3.47973 0
M  V30 17854 C 1843.67 -1.62793 5.68553 0
M  V30 17855 H 1842.6 -0.354098 0.66568 0
M  V30 17856 H 1845.25 -0.192079 1.82492 0
M  V30 17857 H 1843.64 -2.50804 3.06453 0
M  V30 17858 H 1844.81 -0.100757 4.6069 0
M  V30 17859 H 1843.13 -0.249139 4.15654 0
M  V30 17860 H 1845.72 -3.01856 4.41347 0
M  V30 17861 H 1846.07 -3.16267 2.70704 0
M  V30 17862 H 1846.6 -1.71189 3.59081 0
M  V30 17863 H 1843.34 -0.939801 6.48728 0
M  V30 17864 H 1842.86 -2.35156 5.5178 0
M  V30 17865 H 1844.54 -2.18733 6.08905 0
M  V30 17866 N 1844.67 -1.5 -0.48349 0
M  V30 17867 C 1845.6 -1.62581 -1.60133 0
M  V30 17868 C 1846.58 -0.474276 -1.55529 0
M  V30 17869 O 1847.76 -0.692152 -1.75333 0
M  V30 17870 C 1844.89 -1.59695 -2.98689 0
M  V30 17871 C 1843.94 -2.8026 -3.21492 0
M  V30 17872 S 1844.77 -4.41722 -3.02724 0
M  V30 17873 C 1845.93 -4.41509 -4.43645 0
M  V30 17874 H 1846.16 -2.5714 -1.49219 0
M  V30 17875 H 1843.69 -1.39109 -0.669933 0
M  V30 17876 H 1845.65 -1.58716 -3.78576 0
M  V30 17877 H 1844.31 -0.66394 -3.07003 0
M  V30 17878 H 1843.5 -2.74509 -4.22683 0
M  V30 17879 H 1843.11 -2.78742 -2.49357 0
M  V30 17880 H 1845.4 -4.14307 -5.36056 0
M  V30 17881 H 1846.34 -5.43037 -4.54441 0
M  V30 17882 H 1846.75 -3.71367 -4.25143 0
M  V30 17883 N 1846.15 0.735796 -1.39369 0
M  V30 17884 C 1847.09 1.87116 -1.38168 0
M  V30 17885 C 1848.09 1.67315 -0.264936 0
M  V30 17886 O 1849.29 1.74666 -0.434928 0
M  V30 17887 H 1845.67 0.615926 -0.431438 0
M  V30 17888 H 1847.64 1.85245 -2.33938 0
M  V30 17889 C 1846.39 3.2479 -1.24125 0
M  V30 17890 H 1845.71 3.40621 -2.09325 0
M  V30 17891 H 1847.15 4.04426 -1.27341 0
M  V30 17892 C 1845.61 3.36862 0.050393 0
M  V30 17893 O 1846.14 3.88511 1.02088 0
M  V30 17894 N 1844.35 2.90379 0.113184 0
M  V30 17895 H 1843.89 2.48537 -0.677267 0
M  V30 17896 H 1843.85 2.98837 0.976928 0
M  V30 17897 N 1847.63 1.24532 0.965897 0
M  V30 17898 C 1848.87 1.08395 1.70572 0
M  V30 17899 C 1849.19 -0.377657 1.91308 0
M  V30 17900 O 1848.46 -1.26935 1.49212 0
M  V30 17901 H 1847.04 0.398123 0.632066 0
M  V30 17902 H 1849.71 1.5648 1.1619 0
M  V30 17903 H 1848.8 1.58342 2.6895 0
M  V30 17904 N 1849.1 -1.16685 1.05936 0
M  V30 17905 C 1850.35 -1.86758 0.772386 0
M  V30 17906 C 1850.67 -1.81885 -0.703051 0
M  V30 17907 O 1849.94 -1.24992 -1.50844 0
M  V30 17908 H 1848.52 -0.69143 0.282725 0
M  V30 17909 H 1851.18 -1.41518 1.3401 0
M  V30 17910 H 1850.28 -2.92296 1.09405 0
M  V30 17911 N 1850.58 -0.841432 -1.33258 0
M  V30 17912 C 1851.82 -0.444487 -1.99509 0
M  V30 17913 C 1852.19 0.978547 -1.65192 0
M  V30 17914 O 1853.39 1.47935 -2.24429 0
M  V30 17915 C 1851.66 -0.661677 -3.51222 0
M  V30 17916 S 1853.22 -0.360334 -4.37318 0
M  V30 17917 H 1850.03 -0.167079 -0.69109 0
M  V30 17918 H 1852.64 -1.09127 -1.62208 0
M  V30 17919 H 1851.34 -1.69669 -3.73685 0
M  V30 17920 H 1850.87 -0.000828389 -3.934 0
M  V30 17921 H 1852.89 0.818884 -4.89396 0
M  V30 17922 N 1852.06 1.4581 -0.598108 0
M  V30 17923 C 1853.34 1.95588 -0.0220376 0
M  V30 17924 C 1853.72 1.54066 1.44316 0
M  V30 17925 O 1853.06 0.798663 2.14088 0
M  V30 17926 C 1853.27 3.48366 -0.210204 0
M  V30 17927 C 1854.62 4.24513 -0.0860474 0
M  V30 17928 O 1855.65 3.55925 -0.139833 0
M  V30 17929 O 1854.51 5.46488 0.0367961 0
M  V30 17930 H 1851.6 0.825977 0.0411123 0
M  V30 17931 H 1854.15 1.56021 -0.667506 0
M  V30 17932 H 1852.92 3.71526 -1.22818 0
M  V30 17933 H 1852.54 3.94801 0.470974 0
M  V30 17934 N 1853.54 0.336733 1.53961 0
M  V30 17935 C 1854.77 -0.263446 2.05216 0
M  V30 17936 C 1855.18 -1.44752 1.21212 0
M  V30 17937 O 1854.54 -1.80837 0.245844 0
M  V30 17938 C 1854.59 -0.685127 3.54948 0
M  V30 17939 O 1854.31 0.451854 4.35764 0
M  V30 17940 C 1855.81 -1.34674 4.22348 0
M  V30 17941 H 1853.03 -0.0520687 0.668977 0
M  V30 17942 H 1855.57 0.486744 1.98623 0
M  V30 17943 H 1853.73 -1.38527 3.61786 0
M  V30 17944 H 1854.14 0.117076 5.24369 0
M  V30 17945 H 1855.62 -1.59261 5.28526 0
M  V30 17946 H 1856.09 -2.29818 3.74273 0
M  V30 17947 H 1856.7 -0.688817 4.19685 0
M  V30 17948 N 1855.02 -1.57465 0.0651956 0
M  V30 17949 C 1855.95 -2.09315 -0.933793 0
M  V30 17950 C 1856.96 -1.0239 -1.26571 0
M  V30 17951 O 1858.15 -1.29921 -1.22405 0
M  V30 17952 C 1855.25 -2.53302 -2.25147 0
M  V30 17953 C 1854.42 -3.83724 -2.09939 0
M  V30 17954 C 1853.48 -4.13874 -3.24953 0
M  V30 17955 O 1852.51 -4.83577 -3.00236 0
M  V30 17956 N 1853.71 -3.66896 -4.49853 0
M  V30 17957 H 1856.47 -2.95648 -0.491142 0
M  V30 17958 H 1854.04 -1.61449 -0.120698 0
M  V30 17959 H 1856.03 -2.70538 -3.00984 0
M  V30 17960 H 1854.6 -1.72142 -2.60933 0
M  V30 17961 H 1853.82 -3.75933 -1.18609 0
M  V30 17962 H 1855.11 -4.69106 -1.9702 0
M  V30 17963 H 1854.5 -3.10573 -4.72822 0
M  V30 17964 H 1853.06 -3.89344 -5.22738 0
M  V30 17965 N 1856.49 0.20831 -1.56217 0
M  V30 17966 C 1857.73 0.937642 -1.81625 0
M  V30 17967 C 1858.1 1.80994 -0.640716 0
M  V30 17968 O 1859.3 2.57404 -0.774387 0
M  V30 17969 C 1857.57 1.74339 -3.11995 0
M  V30 17970 S 1859.13 2.52655 -3.58763 0
M  V30 17971 H 1855.95 0.314732 -0.637546 0
M  V30 17972 H 1858.55 0.202106 -1.94453 0
M  V30 17973 H 1857.25 1.09294 -3.95579 0
M  V30 17974 H 1856.78 2.52098 -3.0201 0
M  V30 17975 H 1858.8 3.76547 -3.23151 0
M  V30 17976 N 1857.97 1.50255 0.475528 0
M  V30 17977 C 1859.2 1.64771 1.25132 0
M  V30 17978 C 1859.61 0.329253 1.85907 0
M  V30 17979 O 1858.97 -0.688289 1.69023 0
M  V30 17980 C 1859.02 2.73556 2.36325 0
M  V30 17981 O 1858.74 4.0029 1.78043 0
M  V30 17982 C 1860.24 2.99006 3.27277 0
M  V30 17983 H 1857.46 0.553987 0.378602 0
M  V30 17984 H 1860.01 1.9645 0.56811 0
M  V30 17985 H 1858.16 2.44584 3.00429 0
M  V30 17986 H 1858.58 4.60416 2.51232 0
M  V30 17987 H 1860.05 3.78797 4.01518 0
M  V30 17988 H 1860.53 2.09904 3.85794 0
M  V30 17989 H 1861.13 3.29493 2.68914 0
M  V30 17990 N 1859.45 -0.728395 1.39758 0
M  V30 17991 C 1860.4 -1.8638 1.39158 0
M  V30 17992 C 1861.39 -1.67173 0.273806 0
M  V30 17993 O 1862.6 -1.74433 0.444184 0
M  V30 17994 H 1858.97 -0.61363 0.434698 0
M  V30 17995 H 1860.94 -1.84002 2.34917 0
M  V30 17996 C 1859.69 -3.24127 1.25845 0
M  V30 17997 H 1859.02 -3.39507 2.11129 0
M  V30 17998 H 1860.46 -4.03745 1.29484 0
M  V30 17999 C 1858.91 -3.36884 -0.0325277 0
M  V30 18000 O 1859.44 -3.89047 -1.00026 0
M  V30 18001 N 1857.65 -2.90435 -0.0977834 0
M  V30 18002 H 1857.2 -2.48175 0.690438 0
M  V30 18003 H 1857.16 -2.99351 -0.961066 0
M  V30 18004 N 1860.93 -1.25042 -0.959279 0
M  V30 18005 C 1862.15 -1.12339 -1.74341 0
M  V30 18006 C 1862.58 0.319342 -1.85369 0
M  V30 18007 O 1861.94 1.23129 -1.33075 0
M  V30 18008 C 1861.98 -1.77734 -3.13756 0
M  V30 18009 O 1861.09 -1.05383 -3.98708 0
M  V30 18010 H 1860.43 -0.392479 -0.535589 0
M  V30 18011 H 1862.96 -1.65516 -1.20274 0
M  V30 18012 H 1862.97 -1.83832 -3.64239 0
M  V30 18013 H 1861.64 -2.82702 -3.05045 0
M  V30 18014 H 1860.22 -1.07132 -3.57179 0
M  V30 18015 N 1862.41 1.16121 -1.06553 0
M  V30 18016 C 1863.32 2.24229 -0.689833 0
M  V30 18017 C 1864.33 1.71476 0.295308 0
M  V30 18018 O 1865.51 2.00885 0.143964 0
M  V30 18019 C 1862.57 3.46596 -0.0847857 0
M  V30 18020 C 1861.63 4.14375 -1.12213 0
M  V30 18021 C 1860.87 5.30901 -0.54586 0
M  V30 18022 O 1861.09 5.66792 0.640588 0
M  V30 18023 O 1860.02 5.87983 -1.28683 0
M  V30 18024 H 1863.85 2.5868 -1.59117 0
M  V30 18025 H 1861.44 1.23687 -0.837966 0
M  V30 18026 H 1863.32 4.20653 0.250764 0
M  V30 18027 H 1861.99 3.13912 0.789998 0
M  V30 18028 H 1860.9 3.42276 -1.5099 0
M  V30 18029 H 1862.23 4.5112 -1.96853 0
M  V30 18030 N 1863.88 0.848487 1.3281 0
M  V30 18031 C 1865.13 0.44797 1.97073 0
M  V30 18032 C 1865.45 -0.998358 1.67505 0
M  V30 18033 O 1864.72 -1.69683 0.97901 0
M  V30 18034 H 1863.3 0.162663 0.729075 0
M  V30 18035 H 1865.97 1.08356 1.62003 0
M  V30 18036 H 1865.06 0.587939 3.06512 0
M  V30 18037 N 1865.36 -1.4549 0.605832 0
M  V30 18038 C 1866.59 -2.07135 0.104838 0
M  V30 18039 C 1867.01 -1.4478 -1.20085 0
M  V30 18040 O 1866.37 -0.539875 -1.73075 0
M  V30 18041 C 1866.42 -3.60593 -0.0231858 0
M  V30 18042 O 1865.52 -3.98173 -1.07386 0
M  V30 18043 H 1864.86 -0.659945 0.0732691 0
M  V30 18044 H 1867.39 -1.8677 0.835343 0
M  V30 18045 H 1867.4 -4.07396 -0.221964 0
M  V30 18046 H 1866.08 -4.05364 0.930211 0
M  V30 18047 H 1864.66 -3.63044 -0.851689 0
M  V30 18048 N 1866.84 -0.344893 -1.5378 0
M  V30 18049 C 1868.07 0.252193 -2.05055 0
M  V30 18050 C 1868.48 1.44657 -1.21947 0
M  V30 18051 O 1867.82 1.82018 -0.248012 0
M  V30 18052 C 1867.88 0.729619 -3.52018 0
M  V30 18053 C 1867.55 -0.345284 -4.55694 0
M  V30 18054 C 1868.54 -1.18843 -5.06135 0
M  V30 18055 C 1866.23 -0.499596 -4.99809 0
M  V30 18056 C 1868.22 -2.17141 -5.99273 0
M  V30 18057 C 1865.91 -1.48598 -5.92758 0
M  V30 18058 C 1866.91 -2.32033 -6.42378 0
M  V30 18059 O 1866.6 -3.28992 -7.33498 0
M  V30 18060 H 1866.33 0.0522523 -0.673978 0
M  V30 18061 H 1868.88 -0.495473 -1.99334 0
M  V30 18062 H 1867.11 1.52855 -3.55207 0
M  V30 18063 H 1868.8 1.2474 -3.86257 0
M  V30 18064 H 1869.57 -1.0803 -4.72816 0
M  V30 18065 H 1865.45 0.14 -4.60787 0
M  V30 18066 H 1868.99 -2.82303 -6.37927 0
M  V30 18067 H 1864.89 -1.59466 -6.25493 0
M  V30 18068 H 1865.66 -3.24479 -7.51436 0
M  V30 18069 N 1868.32 1.57428 -0.0735454 0
M  V30 18070 C 1869.23 2.16325 0.907775 0
M  V30 18071 C 1870.24 1.12689 1.32579 0
M  V30 18072 O 1871.42 1.44963 1.39813 0
M  V30 18073 C 1868.49 2.71467 2.15654 0
M  V30 18074 C 1867.55 3.89983 1.79476 0
M  V30 18075 C 1866.78 4.42486 2.98399 0
M  V30 18076 O 1867 3.93985 4.12471 0
M  V30 18077 O 1865.94 5.33794 2.78114 0
M  V30 18078 H 1869.76 3.00543 0.436771 0
M  V30 18079 H 1867.35 1.48649 0.149623 0
M  V30 18080 H 1869.23 3.06802 2.88878 0
M  V30 18081 H 1867.9 1.90308 2.61848 0
M  V30 18082 H 1866.81 3.59498 1.03499 0
M  V30 18083 H 1868.14 4.7244 1.38063 0
M  V30 18084 N 1869.8 -0.200022 1.56326 0
M  V30 18085 C 1871.04 -0.927997 1.8212 0
M  V30 18086 C 1871.4 -1.80652 0.650305 0
M  V30 18087 O 1872.6 -2.56989 0.788027 0
M  V30 18088 C 1870.87 -1.72682 3.12915 0
M  V30 18089 S 1872.43 -2.50748 3.60098 0
M  V30 18090 H 1869.25 -0.311347 0.639206 0
M  V30 18091 H 1871.85 -0.191791 1.94557 0
M  V30 18092 H 1870.56 -1.07195 3.96153 0
M  V30 18093 H 1870.09 -2.50493 3.03343 0
M  V30 18094 H 1872.1 -3.74828 3.25143 0
M  V30 18095 N 1871.27 -1.50505 -0.467553 0
M  V30 18096 C 1872.5 -1.65708 -1.24722 0
M  V30 18097 C 1872.92 -0.34155 -1.84973 0
M  V30 18098 O 1872.28 0.694993 -1.6745 0
M  V30 18099 C 1872.33 -2.75289 -2.32912 0
M  V30 18100 O 1871.43 -2.36788 -3.37646 0
M  V30 18101 H 1870.78 -0.55351 -0.366774 0
M  V30 18102 H 1873.31 -1.96901 -0.555988 0
M  V30 18103 H 1873.32 -2.98472 -2.7817 0
M  V30 18104 H 1871.99 -3.70765 -1.88431 0
M  V30 18105 H 1870.57 -2.24065 -2.98076 0
M  V30 18106 N 1872.75 0.720973 -1.40142 0
M  V30 18107 C 1873.99 1.49327 -1.39573 0
M  V30 18108 C 1874.36 1.91999 0.00451559 0
M  V30 18109 O 1875.56 2.68459 0.135289 0
M  V30 18110 C 1873.83 2.69014 -2.35301 0
M  V30 18111 S 1875.39 3.58489 -2.53043 0
M  V30 18112 H 1872.21 0.510609 -0.494773 0
M  V30 18113 H 1874.81 0.843571 -1.76364 0
M  V30 18114 H 1873.51 2.35827 -3.35878 0
M  V30 18115 H 1873.04 3.389 -1.99775 0
M  V30 18116 H 1875.06 4.6322 -1.77882 0
M  V30 18117 N 1874.23 1.25549 0.952634 0
M  V30 18118 C 1875.46 1.13262 1.73743 0
M  V30 18119 C 1875.88 -0.309507 1.85536 0
M  V30 18120 O 1875.24 -1.22422 1.33726 0
M  V30 18121 C 1875.29 1.79395 3.12809 0
M  V30 18122 O 1874.39 1.07496 3.98144 0
M  V30 18123 H 1873.73 0.395314 0.5335 0
M  V30 18124 H 1876.26 1.66151 1.19394 0
M  V30 18125 H 1876.27 1.85761 3.63259 0
M  V30 18126 H 1874.95 2.84316 3.03542 0
M  V30 18127 H 1873.52 1.09025 3.56606 0
M  V30 18128 N 1875.71 -1.15554 1.07168 0
M  V30 18129 C 1876.62 -2.2386 0.701714 0
M  V30 18130 C 1877.63 -1.7163 -0.28621 0
M  V30 18131 O 1878.81 -2.00958 -0.133308 0
M  V30 18132 C 1875.88 -3.46546 0.103165 0
M  V30 18133 C 1874.94 -4.13774 1.14409 0
M  V30 18134 C 1874.17 -5.30604 0.574007 0
M  V30 18135 O 1874.39 -5.67123 -0.610521 0
M  V30 18136 O 1873.33 -5.87293 1.31799 0
M  V30 18137 H 1877.15 -2.57833 1.60487 0
M  V30 18138 H 1874.74 -1.23241 0.844514 0
M  V30 18139 H 1876.62 -4.2078 -0.228452 0
M  V30 18140 H 1875.29 -3.14327 -0.773339 0
M  V30 18141 H 1874.2 -3.4147 1.52803 0
M  V30 18142 H 1875.53 -4.5007 1.99243 0
M  V30 18143 N 1877.19 -0.855519 -1.32358 0
M  V30 18144 C 1878.44 -0.458415 -1.96832 0
M  V30 18145 C 1878.76 0.98946 -1.68032 0
M  V30 18146 O 1878.03 1.69161 -0.987995 0
M  V30 18147 H 1876.61 -0.166527 -0.728202 0
M  V30 18148 H 1879.27 -1.09214 -1.61426 0
M  V30 18149 H 1878.36 -0.604185 -3.06196 0
M  V30 18150 N 1878.67 1.45167 -0.61354 0
M  V30 18151 C 1879.9 2.06266 -0.117437 0
M  V30 18152 C 1880.3 1.45784 1.20597 0
M  V30 18153 O 1879.65 0.568556 1.7468 0
M  V30 18154 C 1879.71 3.59387 0.0903205 0
M  V30 18155 C 1879.37 4.42237 -1.1522 0
M  V30 18156 C 1880.37 4.76837 -2.07177 0
M  V30 18157 C 1878.05 4.82894 -1.3827 0
M  V30 18158 C 1880.05 5.50958 -3.20506 0
M  V30 18159 C 1877.74 5.56768 -2.51899 0
M  V30 18160 C 1878.73 5.90717 -3.42845 0
M  V30 18161 O 1878.42 6.63091 -4.54495 0
M  V30 18162 H 1878.15 0.672495 -0.0687474 0
M  V30 18163 H 1880.71 1.87307 -0.842926 0
M  V30 18164 H 1878.94 3.76769 0.870766 0
M  V30 18165 H 1880.63 4.02308 0.538766 0
M  V30 18166 H 1881.39 4.4598 -1.90597 0
M  V30 18167 H 1877.27 4.55901 -0.683774 0
M  V30 18168 H 1880.82 5.77375 -3.91515 0
M  V30 18169 H 1876.71 5.8704 -2.68429 0
M  V30 18170 H 1877.48 6.81545 -4.53253 0
M  V30 18171 N 1880.14 0.353044 1.53595 0
M  V30 18172 C 1881.11 -0.48691 2.23968 0
M  V30 18173 C 1882.11 -1.01991 1.24316 0
M  V30 18174 O 1883.3 -0.907654 1.48685 0
M  V30 18175 C 1880.43 -1.67926 2.96671 0
M  V30 18176 H 1881.62 0.128707 2.99624 0
M  V30 18177 H 1879.17 0.104533 1.5595 0
M  V30 18178 H 1879.91 -2.33331 2.25227 0
M  V30 18179 H 1879.69 -1.30417 3.69776 0
M  V30 18180 H 1881.18 -2.2748 3.50203 0
M  V30 18181 N 1881.62 -1.57387 0.0818932 0
M  V30 18182 C 1882.55 -2.16318 -0.879124 0
M  V30 18183 C 1883.53 -1.09293 -1.30342 0
M  V30 18184 O 1884.72 -1.37373 -1.37267 0
M  V30 18185 C 1881.85 -2.73293 -2.14308 0
M  V30 18186 C 1880.8 -3.85575 -1.85785 0
M  V30 18187 C 1880.13 -4.29195 -3.18897 0
M  V30 18188 C 1881.43 -5.09365 -1.15517 0
M  V30 18189 H 1883.12 -2.96873 -0.388166 0
M  V30 18190 H 1880.67 -1.42803 -0.185265 0
M  V30 18191 H 1882.62 -3.13168 -2.81964 0
M  V30 18192 H 1881.34 -1.89974 -2.65664 0
M  V30 18193 H 1880 -3.46219 -1.20532 0
M  V30 18194 H 1879.65 -3.42784 -3.68114 0
M  V30 18195 H 1879.35 -5.04889 -3.006 0
M  V30 18196 H 1880.88 -4.71694 -3.87734 0
M  V30 18197 H 1882.29 -5.46493 -1.73259 0
M  V30 18198 H 1880.69 -5.90403 -1.07444 0
M  V30 18199 H 1881.76 -4.8471 -0.135822 0
M  V30 18200 N 1883.1 0.191729 -1.56429 0
M  V30 18201 C 1884.03 1.26574 -1.8988 0
M  V30 18202 C 1885.01 1.43785 -0.759261 0
M  V30 18203 O 1886.19 1.5912 -1.01059 0
M  V30 18204 C 1883.32 2.63185 -2.13193 0
M  V30 18205 C 1882.37 2.62826 -3.35894 0
M  V30 18206 S 1883.2 2.13925 -4.90914 0
M  V30 18207 C 1884.36 3.52354 -5.17298 0
M  V30 18208 H 1884.59 0.980119 -2.80679 0
M  V30 18209 H 1882.12 0.395377 -1.49252 0
M  V30 18210 H 1884.08 3.41821 -2.27307 0
M  V30 18211 H 1882.74 2.88957 -1.23137 0
M  V30 18212 H 1881.93 3.63284 -3.49343 0
M  V30 18213 H 1881.54 1.92273 -3.20791 0
M  V30 18214 H 1883.83 4.48238 -5.08025 0
M  V30 18215 H 1884.77 3.43797 -6.19039 0
M  V30 18216 H 1885.18 3.47422 -4.44925 0
M  V30 18217 N 1884.58 1.50751 0.459565 0
M  V30 18218 C 1885.99 1.55043 1.04012 0
M  V30 18219 C 1886.34 0.360701 1.92856 0
M  V30 18220 O 1885.46 -0.525112 2.09932 0
M  V30 18221 C 1886.06 2.80975 1.89311 0
M  V30 18222 C 1884.62 2.87911 2.42455 0
M  V30 18223 C 1883.77 2.49464 1.2109 0
M  V30 18224 H 1886.72 1.56849 0.24171 0
M  V30 18225 H 1886.74 2.63482 2.74514 0
M  V30 18226 H 1886.25 3.67547 1.24623 0
M  V30 18227 H 1884.35 2.05717 3.10663 0
M  V30 18228 H 1884.46 3.91067 2.76773 0
M  V30 18229 H 1882.83 2.0216 1.54931 0
M  V30 18230 H 1883.61 3.38357 0.580469 0
M  V30 18231 N 1886.06 -0.713531 1.40522 0
M  V30 18232 C 1887.33 -1.46672 1.29409 0
M  V30 18233 C 1887.71 -2.10922 -0.0866293 0
M  V30 18234 O 1887.06 -2.00303 -1.09959 0
M  V30 18235 C 1887.27 -2.50076 2.4344 0
M  V30 18236 C 1888.62 -3.15848 2.8377 0
M  V30 18237 O 1889.64 -2.60396 2.43048 0
M  V30 18238 O 1888.5 -4.16238 3.5413 0
M  V30 18239 H 1885.6 -0.652333 0.508322 0
M  V30 18240 H 1888.14 -0.745531 1.52446 0
M  V30 18241 H 1886.91 -2.01129 3.35653 0
M  V30 18242 H 1886.54 -3.29728 2.22183 0
M  V30 18243 N 1887.53 -1.26053 -0.945962 0
M  V30 18244 C 1888.78 -1.11095 -1.68826 0
M  V30 18245 C 1889.1 0.347174 -1.91885 0
M  V30 18246 O 1888.37 1.24545 -1.51213 0
M  V30 18247 H 1886.95 -0.408128 -0.625652 0
M  V30 18248 H 1889.61 -1.58309 -1.13686 0
M  V30 18249 H 1888.71 -1.626 -2.66397 0
M  V30 18250 N 1889.01 1.14984 -1.07779 0
M  V30 18251 C 1890.43 1.3786 -0.804164 0
M  V30 18252 C 1890.63 1.92682 0.589572 0
M  V30 18253 O 1889.68 2.13537 1.34752 0
M  V30 18254 C 1891 2.34559 -1.88156 0
M  V30 18255 C 1892.54 2.48212 -1.90683 0
M  V30 18256 C 1893.02 3.48205 -2.97519 0
M  V30 18257 N 1894.51 3.55743 -2.96649 0
M  V30 18258 C 1895.25 4.32946 -3.75959 0
M  V30 18259 N 1894.74 5.13446 -4.65129 0
M  V30 18260 N 1896.53 4.28079 -3.64287 0
M  V30 18261 H 1888.69 0.777434 -1.97661 0
M  V30 18262 H 1890.95 0.404419 -0.857409 0
M  V30 18263 H 1890.65 2.014 -2.88324 0
M  V30 18264 H 1890.53 3.34389 -1.74539 0
M  V30 18265 H 1892.92 2.80665 -0.911642 0
M  V30 18266 H 1893 1.48365 -2.08378 0
M  V30 18267 H 1892.64 3.16485 -3.9724 0
M  V30 18268 H 1892.57 4.47817 -2.77069 0
M  V30 18269 H 1895.06 2.98291 -2.32014 0
M  V30 18270 H 1895.37 5.69612 -5.22267 0
M  V30 18271 H 1893.72 5.12737 -4.69176 0
M  V30 18272 H 1896.91 3.64257 -2.93997 0
M  V30 18273 H 1897.08 4.87996 -4.26337 0
M  V30 18274 N 1890.49 0.862526 1.31902 0
M  V30 18275 C 1891.71 0.483159 2.01694 0
M  V30 18276 C 1892.14 -0.914778 1.64358 0
M  V30 18277 O 1891.5 -1.60229 0.848308 0
M  V30 18278 C 1891.55 0.638911 3.54895 0
M  V30 18279 O 1890.65 -0.324962 4.11118 0
M  V30 18280 H 1889.99 0.193128 0.635293 0
M  V30 18281 H 1892.52 1.16389 1.6827 0
M  V30 18282 H 1892.53 0.529394 4.04551 0
M  V30 18283 H 1891.21 1.65828 3.81411 0
M  V30 18284 H 1889.78 -0.171025 3.72508 0
M  V30 18285 N 1891.97 -1.4484 0.62123 0
M  V30 18286 C 1893.21 -2.04018 0.124967 0
M  V30 18287 C 1893.57 -1.47734 -1.22633 0
M  V30 18288 O 1894.77 -1.98351 -1.81412 0
M  V30 18289 C 1893.04 -3.57258 0.10069 0
M  V30 18290 S 1894.6 -4.37539 -0.332394 0
M  V30 18291 H 1891.42 -0.708773 0.0562358 0
M  V30 18292 H 1894.02 -1.77361 0.822397 0
M  V30 18293 H 1892.73 -3.95731 1.08745 0
M  V30 18294 H 1892.26 -3.88511 -0.618303 0
M  V30 18295 H 1894.27 -4.7041 -1.57888 0
M  V30 18296 N 1893.45 -0.361184 -1.53405 0
M  V30 18297 C 1894.41 0.475026 -2.24223 0
M  V30 18298 C 1895.41 1.01331 -1.24855 0
M  V30 18299 O 1896.6 0.899756 -1.49164 0
M  V30 18300 C 1893.73 1.6635 -2.97557 0
M  V30 18301 H 1894.92 -0.144595 -2.99551 0
M  V30 18302 H 1892.48 -0.112802 -1.55892 0
M  V30 18303 H 1893.21 2.32133 -2.26461 0
M  V30 18304 H 1893 1.28454 -3.70462 0
M  V30 18305 H 1894.49 2.2562 -3.51405 0
M  V30 18306 N 1894.92 1.57341 -0.0902386 0
M  V30 18307 C 1896.2 1.85627 0.616611 0
M  V30 18308 C 1896.58 0.986193 1.86648 0
M  V30 18309 O 1895.93 0.0573148 2.28428 0
M  V30 18310 C 1896.14 3.36196 0.936645 0
M  V30 18311 C 1897.49 4.04139 1.30219 0
M  V30 18312 O 1898.51 3.41049 1.02781 0
M  V30 18313 O 1897.37 5.1545 1.81586 0
M  V30 18314 H 1894.46 0.76748 0.308065 0
M  V30 18315 H 1897.01 1.69257 -0.122568 0
M  V30 18316 H 1895.78 3.91268 0.0497354 0
M  V30 18317 H 1895.41 3.57895 1.73197 0
M  V30 18318 N 1896.4 -0.183431 1.56529 0
M  V30 18319 C 1897.65 -0.900237 1.80495 0
M  V30 18320 C 1897.96 -1.83932 0.665454 0
M  V30 18321 O 1899.17 -2.59761 0.789728 0
M  V30 18322 C 1897.63 -1.65125 3.19784 0
M  V30 18323 C 1897.23 -0.756411 4.41568 0
M  V30 18324 C 1898.98 -2.357 3.53052 0
M  V30 18325 C 1896.89 -1.50696 5.71878 0
M  V30 18326 H 1895.82 -0.339898 0.673042 0
M  V30 18327 H 1898.47 -0.153327 1.82858 0
M  V30 18328 H 1896.85 -2.44248 3.11703 0
M  V30 18329 H 1898.02 -0.00301509 4.608 0
M  V30 18330 H 1896.34 -0.160916 4.16089 0
M  V30 18331 H 1898.93 -2.92426 4.4765 0
M  V30 18332 H 1899.28 -3.10454 2.77352 0
M  V30 18333 H 1899.81 -1.63533 3.62632 0
M  V30 18334 H 1896.55 -0.801985 6.50575 0
M  V30 18335 H 1896.07 -2.23399 5.56644 0
M  V30 18336 H 1897.75 -2.05768 6.13407 0
M  V30 18337 N 1897.88 -1.50992 -0.451564 0
M  V30 18338 C 1899.16 -1.53486 -1.2125 0
M  V30 18339 C 1899.54 -0.290809 -2.09087 0
M  V30 18340 O 1898.89 0.724859 -2.16698 0
M  V30 18341 C 1899.1 -2.84125 -2.02667 0
M  V30 18342 C 1900.44 -3.35535 -2.60195 0
M  V30 18343 O 1901.47 -2.85579 -2.12892 0
M  V30 18344 O 1900.33 -4.22667 -3.46432 0
M  V30 18345 H 1897.42 -0.616481 -0.551253 0
M  V30 18346 H 1899.97 -1.63296 -0.461792 0
M  V30 18347 H 1898.74 -3.66134 -1.38064 0
M  V30 18348 H 1898.36 -2.7741 -2.84832 0
M  V30 18349 N 1899.36 0.706069 -1.40899 0
M  V30 18350 C 1900.27 1.85007 -1.44255 0
M  V30 18351 C 1901.28 1.70761 -0.334174 0
M  V30 18352 O 1902.46 1.9286 -0.580258 0
M  V30 18353 C 1899.53 3.20896 -1.31251 0
M  V30 18354 C 1898.59 3.47327 -2.52314 0
M  V30 18355 C 1897.82 4.76732 -2.39922 0
M  V30 18356 O 1898.04 5.5249 -1.41813 0
M  V30 18357 O 1896.98 5.03713 -3.2948 0
M  V30 18358 H 1900.8 1.85132 -2.40748 0
M  V30 18359 H 1898.39 0.857751 -1.22323 0
M  V30 18360 H 1900.27 4.02045 -1.26244 0
M  V30 18361 H 1898.94 3.21477 -0.378684 0
M  V30 18362 H 1897.85 2.66149 -2.62899 0
M  V30 18363 H 1899.18 3.5155 -3.4449 0
M  V30 18364 N 1900.84 1.26553 0.939264 0
M  V30 18365 C 1902.08 1.13433 1.70036 0
M  V30 18366 C 1902.44 -0.316669 1.89371 0
M  V30 18367 O 1903.64 -0.570035 2.62686 0
M  V30 18368 C 1901.91 1.88424 3.03696 0
M  V30 18369 S 1903.47 1.91381 3.94866 0
M  V30 18370 H 1900.29 0.405156 0.584268 0
M  V30 18371 H 1902.89 1.60299 1.11913 0
M  V30 18372 H 1901.6 2.93059 2.87306 0
M  V30 18373 H 1901.13 1.42007 3.66876 0
M  V30 18374 H 1903.14 1.00189 4.8598 0
M  V30 18375 N 1902.31 -1.14411 1.08387 0
M  V30 18376 C 1903.22 -2.23103 0.725418 0
M  V30 18377 C 1904.24 -1.71924 -0.26799 0
M  V30 18378 O 1905.42 -2.01088 -0.111986 0
M  V30 18379 C 1902.48 -3.46418 0.139915 0
M  V30 18380 C 1901.54 -4.12537 1.18791 0
M  V30 18381 C 1900.78 -5.29966 0.630252 0
M  V30 18382 O 1901 -5.67739 -0.550335 0
M  V30 18383 O 1899.93 -5.85862 1.38021 0
M  V30 18384 H 1903.76 -2.56116 1.63213 0
M  V30 18385 H 1901.34 -1.22338 0.857538 0
M  V30 18386 H 1903.23 -4.20999 -0.18381 0
M  V30 18387 H 1901.9 -3.15129 -0.739957 0
M  V30 18388 H 1900.81 -3.39831 1.56416 0
M  V30 18389 H 1902.14 -4.47932 2.04005 0
M  V30 18390 N 1903.79 -0.869509 -1.31443 0
M  V30 18391 C 1904.74 -0.314033 -2.3047 0
M  V30 18392 C 1905.73 0.570635 -1.595 0
M  V30 18393 O 1906.94 0.456787 -1.74108 0
M  V30 18394 H 1903.32 -0.0828699 -0.74742 0
M  V30 18395 H 1905.29 -1.16319 -2.74795 0
M  V30 18396 C 1904.04 0.469956 -3.44509 0
M  V30 18397 H 1903.36 -0.201508 -3.99292 0
M  V30 18398 H 1904.8 0.823967 -4.15917 0
M  V30 18399 C 1903.26 1.66104 -2.93106 0
M  V30 18400 O 1903.79 2.76033 -2.91836 0
M  V30 18401 N 1901.99 1.49302 -2.49313 0
M  V30 18402 H 1901.54 0.598742 -2.50545 0
M  V30 18403 H 1901.5 2.29137 -2.15276 0
M  V30 18404 N 1905.27 1.44508 -0.628902 0
M  V30 18405 C 1906.22 2.32427 0.0895754 0
M  V30 18406 C 1907.21 1.47217 0.838067 0
M  V30 18407 O 1908.42 1.63575 0.751218 0
M  V30 18408 H 1904.79 0.750483 0.0477349 0
M  V30 18409 H 1906.76 2.9078 -0.670054 0
M  V30 18410 C 1905.51 3.31177 1.0591 0
M  V30 18411 H 1904.84 3.96754 0.492578 0
M  V30 18412 H 1906.28 3.9538 1.53135 0
M  V30 18413 C 1904.74 2.59936 2.14325 0
M  V30 18414 O 1905.27 2.3966 3.22375 0
M  V30 18415 N 1903.47 2.19712 1.90197 0
M  V30 18416 H 1903.02 2.36402 1.02332 0
M  V30 18417 H 1902.98 1.72371 2.62936 0
M  V30 18418 N 1906.75 0.369315 1.53212 0
M  V30 18419 C 1908.16 -0.10909 1.86381 0
M  V30 18420 C 1908.51 -1.47849 1.28977 0
M  V30 18421 O 1907.64 -2.07528 0.613267 0
M  V30 18422 C 1908.23 -0.204726 3.38181 0
M  V30 18423 C 1906.79 -0.627391 3.71134 0
M  V30 18424 C 1905.94 0.223086 2.76401 0
M  V30 18425 H 1908.89 0.587967 1.47406 0
M  V30 18426 H 1908.91 -1.02761 3.66361 0
M  V30 18427 H 1908.42 0.792082 3.79931 0
M  V30 18428 H 1906.52 -1.63229 3.34943 0
M  V30 18429 H 1906.64 -0.39941 4.77432 0
M  V30 18430 H 1905 -0.308608 2.52823 0
M  V30 18431 H 1905.78 1.2175 3.20986 0
M  V30 18432 N 1908.23 -1.57291 0.0985816 0
M  V30 18433 C 1909.5 -1.85951 -0.606759 0
M  V30 18434 C 1909.88 -0.996077 -1.86122 0
M  V30 18435 O 1909.23 -0.0694281 -2.28394 0
M  V30 18436 C 1909.44 -3.36688 -0.918803 0
M  V30 18437 C 1910.79 -4.04824 -1.28074 0
M  V30 18438 O 1911.81 -3.41589 -1.00971 0
M  V30 18439 O 1910.67 -5.16406 -1.7885 0
M  V30 18440 H 1907.77 -0.769103 -0.30399 0
M  V30 18441 H 1910.31 -1.69189 0.131543 0
M  V30 18442 H 1909.09 -3.91289 -0.0289848 0
M  V30 18443 H 1908.71 -3.58808 -1.71296 0
M  V30 18444 N 1909.71 0.175127 -1.56624 0
M  V30 18445 C 1910.95 0.890653 -1.8097 0
M  V30 18446 C 1911.27 1.83577 -0.675199 0
M  V30 18447 O 1912.47 2.59338 -0.803492 0
M  V30 18448 C 1910.93 1.63427 -3.20655 0
M  V30 18449 C 1910.54 0.732982 -4.41963 0
M  V30 18450 C 1912.28 2.33825 -3.54297 0
M  V30 18451 C 1910.19 1.47661 -5.72669 0
M  V30 18452 H 1909.12 0.336324 -0.674835 0
M  V30 18453 H 1911.77 0.143627 -1.82937 0
M  V30 18454 H 1910.15 2.42591 -3.12994 0
M  V30 18455 H 1911.33 -0.0214223 -4.60795 0
M  V30 18456 H 1909.64 0.138848 -4.16168 0
M  V30 18457 H 1912.24 2.90048 -4.49195 0
M  V30 18458 H 1912.58 3.08979 -2.78994 0
M  V30 18459 H 1913.11 1.61608 -3.63494 0
M  V30 18460 H 1909.85 0.767472 -6.50992 0
M  V30 18461 H 1909.37 2.20444 -5.57821 0
M  V30 18462 H 1911.05 2.02512 -6.1449 0
M  V30 18463 N 1911.18 1.5123 0.44355 0
M  V30 18464 C 1912.42 1.65246 1.20305 0
M  V30 18465 C 1912.79 0.357897 1.88635 0
M  V30 18466 O 1913.99 0.373765 2.66189 0
M  V30 18467 C 1912.26 2.8184 2.19775 0
M  V30 18468 S 1913.82 3.16149 3.04295 0
M  V30 18469 H 1910.64 0.582242 0.408063 0
M  V30 18470 H 1913.24 1.89114 0.495589 0
M  V30 18471 H 1911.94 3.74347 1.68204 0
M  V30 18472 H 1911.47 2.60141 2.95111 0
M  V30 18473 H 1913.49 2.62102 4.21327 0
M  V30 18474 N 1912.66 -0.698586 1.41271 0
M  V30 18475 C 1913.94 -1.45291 1.30957 0
M  V30 18476 C 1914.32 -2.11002 -0.0642533 0
M  V30 18477 O 1913.67 -2.01458 -1.07829 0
M  V30 18478 C 1913.88 -2.4748 2.46078 0
M  V30 18479 C 1915.22 -3.1282 2.87104 0
M  V30 18480 O 1916.25 -2.57804 2.45796 0
M  V30 18481 O 1915.11 -4.12458 3.58525 0
M  V30 18482 H 1912.2 -0.646905 0.515212 0
M  V30 18483 H 1914.75 -0.72932 1.53229 0
M  V30 18484 H 1913.52 -1.97558 3.37767 0
M  V30 18485 H 1913.14 -3.27353 2.25668 0
M  V30 18486 N 1914.14 -1.27049 -0.93254 0
M  V30 18487 C 1915.39 -1.12879 -1.67639 0
M  V30 18488 C 1915.71 0.326803 -1.92242 0
M  V30 18489 O 1914.98 1.22934 -1.52525 0
M  V30 18490 H 1913.56 -0.414741 -0.621288 0
M  V30 18491 H 1916.22 -1.59505 -1.12 0
M  V30 18492 H 1915.32 -1.65417 -2.64658 0
M  V30 18493 N 1915.62 1.13835 -1.08993 0
M  V30 18494 C 1916.87 1.84645 -0.82163 0
M  V30 18495 C 1917.19 1.83685 0.65458 0
M  V30 18496 O 1916.46 1.28948 1.47477 0
M  V30 18497 H 1915.04 0.683691 -0.300958 0
M  V30 18498 H 1917.7 1.37915 -1.37715 0
M  V30 18499 H 1916.79 2.89292 -1.17117 0
M  V30 18500 N 1917.1 0.876467 1.3098 0
M  V30 18501 C 1918.03 0.294228 2.27304 0
M  V30 18502 C 1919.04 -0.546404 1.53357 0
M  V30 18503 O 1920.23 -0.367339 1.74679 0
M  V30 18504 C 1917.33 -0.600972 3.33529 0
M  V30 18505 C 1916.5 0.208678 4.36902 0
M  V30 18506 C 1915.56 -0.615677 5.22586 0
M  V30 18507 O 1914.59 -0.0413981 5.69185 0
M  V30 18508 N 1915.79 -1.92644 5.47603 0
M  V30 18509 H 1918.55 1.12201 2.77905 0
M  V30 18510 H 1916.12 0.738597 1.44071 0
M  V30 18511 H 1918.11 -1.15831 3.8777 0
M  V30 18512 H 1916.68 -1.32943 2.82922 0
M  V30 18513 H 1915.9 0.947462 3.82644 0
M  V30 18514 H 1917.19 0.763998 5.03031 0
M  V30 18515 H 1916.58 -2.41605 5.11511 0
M  V30 18516 H 1915.14 -2.43141 6.04752 0
M  V30 18517 N 1918.57 -1.44173 0.636557 0
M  V30 18518 C 1919.81 -2.03874 0.146599 0
M  V30 18519 C 1920.18 -1.49026 -1.21059 0
M  V30 18520 O 1921.38 -2.00264 -1.79298 0
M  V30 18521 C 1919.65 -3.57131 0.138577 0
M  V30 18522 S 1921.21 -4.37867 -0.285968 0
M  V30 18523 H 1918.03 -0.708136 0.0637502 0
M  V30 18524 H 1920.63 -1.76479 0.841163 0
M  V30 18525 H 1919.33 -3.94555 1.12936 0
M  V30 18526 H 1918.86 -3.89145 -0.577061 0
M  V30 18527 H 1920.88 -4.72059 -1.52889 0
M  V30 18528 N 1920.05 -0.377435 -1.53014 0
M  V30 18529 C 1921.28 0.208944 -2.05842 0
M  V30 18530 C 1921.69 1.41487 -1.25007 0
M  V30 18531 O 1921.05 1.80121 -0.293703 0
M  V30 18532 C 1921.1 0.590778 -3.5664 0
M  V30 18533 O 1920.82 -0.56723 -4.34412 0
M  V30 18534 C 1922.32 1.23429 -4.2577 0
M  V30 18535 H 1919.54 0.0343137 -0.670122 0
M  V30 18536 H 1922.09 -0.539234 -1.97263 0
M  V30 18537 H 1920.24 1.28886 -3.65331 0
M  V30 18538 H 1920.66 -0.256062 -5.23875 0
M  V30 18539 H 1922.13 1.45192 -5.32563 0
M  V30 18540 H 1922.61 2.19814 -3.80235 0
M  V30 18541 H 1923.21 0.577303 -4.21364 0
M  V30 18542 N 1921.53 1.57237 -0.106922 0
M  V30 18543 C 1922.48 2.15912 0.865145 0
M  V30 18544 C 1923.47 1.1051 1.2839 0
M  V30 18545 O 1924.68 1.28834 1.25705 0
M  V30 18546 H 1921.05 0.690837 0.297065 0
M  V30 18547 H 1923.02 2.96391 0.345677 0
M  V30 18548 C 1921.77 2.76355 2.11005 0
M  V30 18549 H 1921.1 3.57152 1.79674 0
M  V30 18550 H 1922.54 3.20963 2.77053 0
M  V30 18551 C 1921 1.72834 2.89188 0
M  V30 18552 O 1921.53 1.1744 3.84149 0
M  V30 18553 N 1919.73 1.43053 2.52951 0
M  V30 18554 H 1919.28 1.88289 1.75798 0
M  V30 18555 H 1919.24 0.740287 3.0556 0
M  V30 18556 N 1923.01 -0.166818 1.56715 0
M  V30 18557 C 1924.26 -0.881043 1.8144 0
M  V30 18558 C 1924.57 -1.83216 0.684925 0
M  V30 18559 O 1925.78 -2.58908 0.817234 0
M  V30 18560 C 1924.23 -1.61724 3.21517 0
M  V30 18561 C 1923.84 -0.709534 4.42346 0
M  V30 18562 C 1925.58 -2.31943 3.55532 0
M  V30 18563 C 1923.49 -1.44622 5.73444 0
M  V30 18564 H 1922.42 -0.332741 0.676609 0
M  V30 18565 H 1925.07 -0.133924 1.83011 0
M  V30 18566 H 1923.45 -2.40928 3.14277 0
M  V30 18567 H 1924.63 0.0458591 4.60777 0
M  V30 18568 H 1922.94 -0.116776 4.16236 0
M  V30 18569 H 1925.54 -2.87662 4.50727 0
M  V30 18570 H 1925.88 -3.07495 2.80629 0
M  V30 18571 H 1926.42 -1.59678 3.64346 0
M  V30 18572 H 1923.16 -0.732937 6.51389 0
M  V30 18573 H 1922.68 -2.17483 5.58982 0
M  V30 18574 H 1924.35 -1.9925 6.15555 0
M  V30 18575 N 1924.49 -1.51463 -0.435524 0
M  V30 18576 C 1925.9 -1.56678 -1.01533 0
M  V30 18577 C 1926.25 -0.391337 -1.92258 0
M  V30 18578 O 1925.37 0.491647 -2.10741 0
M  V30 18579 C 1925.97 -2.83951 -1.84817 0
M  V30 18580 C 1924.53 -2.91731 -2.37844 0
M  V30 18581 C 1923.67 -2.51359 -1.17106 0
M  V30 18582 H 1926.63 -1.57213 -0.216726 0
M  V30 18583 H 1926.65 -2.67815 -2.70287 0
M  V30 18584 H 1926.16 -3.69483 -1.1876 0
M  V30 18585 H 1924.26 -2.10633 -3.07351 0
M  V30 18586 H 1924.37 -3.95421 -2.70517 0
M  V30 18587 H 1922.74 -2.04599 -1.51695 0
M  V30 18588 H 1923.52 -3.39238 -0.526566 0
M  V30 18589 N 1925.96 0.691085 -1.4164 0
M  V30 18590 C 1927.21 1.44828 -1.40959 0
M  V30 18591 C 1927.53 1.94988 -0.0211789 0
M  V30 18592 O 1926.8 1.71999 0.937714 0
M  V30 18593 H 1925.38 0.53739 -0.518865 0
M  V30 18594 H 1928.05 0.817677 -1.76918 0
M  V30 18595 H 1927.14 2.30926 -2.09952 0
M  V30 18596 N 1927.44 1.27542 0.925789 0
M  V30 18597 C 1928.35 1.1225 2.06002 0
M  V30 18598 C 1929.37 0.0520487 1.73922 0
M  V30 18599 O 1930.54 0.258921 1.99729 0
M  V30 18600 C 1927.61 0.773231 3.37967 0
M  V30 18601 C 1926.67 1.92476 3.83733 0
M  V30 18602 C 1925.9 1.59206 5.09401 0
M  V30 18603 O 1926.13 0.500836 5.68197 0
M  V30 18604 O 1925.06 2.43185 5.50586 0
M  V30 18605 H 1928.89 2.07439 2.21817 0
M  V30 18606 H 1926.47 1.06747 1.04525 0
M  V30 18607 H 1928.35 0.591863 4.17223 0
M  V30 18608 H 1927.03 -0.149116 3.23356 0
M  V30 18609 H 1925.94 2.1612 3.05357 0
M  V30 18610 H 1927.27 2.82738 4.02889 0
M  V30 18611 N 1928.92 -1.13255 1.09595 0
M  V30 18612 C 1930.15 -1.88138 0.853687 0
M  V30 18613 C 1930.56 -1.79474 -0.598798 0
M  V30 18614 O 1929.9 -1.16047 -1.42404 0
M  V30 18615 C 1929.96 -3.38441 1.21234 0
M  V30 18616 C 1929.63 -3.70884 2.67009 0
M  V30 18617 C 1930.62 -3.69979 3.65256 0
M  V30 18618 C 1928.31 -4.00488 3.03174 0
M  V30 18619 C 1930.3 -3.98221 4.97693 0
M  V30 18620 C 1927.99 -4.28391 4.35803 0
M  V30 18621 C 1928.99 -4.27243 5.32872 0
M  V30 18622 O 1928.68 -4.54462 6.63114 0
M  V30 18623 H 1928.41 -0.602402 0.306738 0
M  V30 18624 H 1930.96 -1.44282 1.46192 0
M  V30 18625 H 1929.19 -3.82809 0.54717 0
M  V30 18626 H 1930.88 -3.94651 0.948953 0
M  V30 18627 H 1931.65 -3.47181 3.3866 0
M  V30 18628 H 1927.53 -4.00528 2.28251 0
M  V30 18629 H 1931.07 -3.9724 5.73451 0
M  V30 18630 H 1926.97 -4.50661 4.62141 0
M  V30 18631 H 1927.74 -4.72122 6.68613 0
M  V30 18632 N 1930.4 -0.883401 -1.30514 0
M  V30 18633 C 1931.81 -0.577183 -1.48798 0
M  V30 18634 C 1932.01 0.885462 -1.81002 0
M  V30 18635 O 1931.07 1.66679 -1.89669 0
M  V30 18636 C 1932.38 -1.48898 -2.61247 0
M  V30 18637 C 1933.93 -1.49244 -2.75128 0
M  V30 18638 C 1934.41 -2.39012 -3.90688 0
M  V30 18639 N 1935.9 -2.36967 -3.97996 0
M  V30 18640 C 1936.63 -3.03138 -4.86718 0
M  V30 18641 N 1936.13 -3.78529 -5.80248 0
M  V30 18642 N 1937.92 -2.92378 -4.80074 0
M  V30 18643 H 1930.07 -1.82963 -1.07882 0
M  V30 18644 H 1932.34 -0.783078 -0.534315 0
M  V30 18645 H 1932.04 -2.53035 -2.44266 0
M  V30 18646 H 1931.92 -1.19739 -3.5769 0
M  V30 18647 H 1934.3 -0.458579 -2.91515 0
M  V30 18648 H 1934.38 -1.82432 -1.7931 0
M  V30 18649 H 1934.03 -3.42482 -3.75058 0
M  V30 18650 H 1933.96 -2.03141 -4.85841 0
M  V30 18651 H 1936.45 -1.82179 -3.31088 0
M  V30 18652 H 1936.76 -4.26115 -6.44706 0
M  V30 18653 H 1935.11 -3.82636 -5.80185 0
M  V30 18654 H 1938.3 -2.33008 -4.05986 0
M  V30 18655 H 1938.47 -3.44225 -5.49011 0
M  V30 18656 N 1931.88 1.43833 -0.644194 0
M  V30 18657 C 1933.12 2.03793 -0.157409 0
M  V30 18658 C 1933.48 1.49666 1.20267 0
M  V30 18659 O 1934.68 2.01212 1.78233 0
M  V30 18660 C 1932.95 3.57053 -0.157514 0
M  V30 18661 S 1934.51 4.38013 0.262743 0
M  V30 18662 H 1931.33 0.707788 -0.0675047 0
M  V30 18663 H 1933.93 1.7603 -0.85051 0
M  V30 18664 H 1932.64 3.9395 -1.15027 0
M  V30 18665 H 1932.17 3.89445 0.556416 0
M  V30 18666 H 1934.18 4.72863 1.50384 0
M  V30 18667 N 1933.35 0.385544 1.52811 0
M  V30 18668 C 1934.28 -0.442951 2.2926 0
M  V30 18669 C 1935.27 -1.06674 1.32494 0
M  V30 18670 O 1936.45 -1.08022 1.61384 0
M  V30 18671 C 1933.58 -1.57243 3.09664 0
M  V30 18672 C 1932.53 -1.07488 4.14283 0
M  V30 18673 C 1931.86 -2.29614 4.82889 0
M  V30 18674 C 1933.16 -0.145479 5.22097 0
M  V30 18675 H 1934.85 0.1949 2.98765 0
M  V30 18676 H 1932.4 0.0951762 1.43685 0
M  V30 18677 H 1934.35 -2.15882 3.61902 0
M  V30 18678 H 1933.08 -2.23781 2.37885 0
M  V30 18679 H 1931.74 -0.511047 3.6302 0
M  V30 18680 H 1931.38 -2.94653 4.07662 0
M  V30 18681 H 1931.08 -1.96985 5.53598 0
M  V30 18682 H 1932.61 -2.88902 5.37929 0
M  V30 18683 H 1934.02 -0.639941 5.69717 0
M  V30 18684 H 1932.42 0.0908687 6.00031 0
M  V30 18685 H 1933.49 0.806707 4.78142 0
M  V30 18686 N 1934.83 -1.57178 0.115259 0
M  V30 18687 C 1936.07 -1.96951 -0.546776 0
M  V30 18688 C 1936.44 -0.996997 -1.64085 0
M  V30 18689 O 1937.64 -1.28396 -2.36152 0
M  V30 18690 C 1935.91 -3.41033 -1.06916 0
M  V30 18691 S 1937.47 -4.02816 -1.74024 0
M  V30 18692 H 1934.29 -0.688401 -0.177833 0
M  V30 18693 H 1936.89 -1.9448 0.199452 0
M  V30 18694 H 1935.59 -4.09565 -0.261661 0
M  V30 18695 H 1935.12 -3.47147 -1.85075 0
M  V30 18696 H 1937.14 -3.93268 -3.0258 0
M  V30 18697 N 1936.31 0.158505 -1.56801 0
M  V30 18698 C 1937.54 0.886984 -1.86591 0
M  V30 18699 C 1937.95 1.7577 -0.700115 0
M  V30 18700 O 1937.29 1.80533 0.339622 0
M  V30 18701 C 1937.35 1.80418 -3.1095 0
M  V30 18702 C 1937.02 1.11178 -4.4327 0
M  V30 18703 C 1938.02 0.471134 -5.17761 0
M  V30 18704 C 1935.7 1.10472 -4.90001 0
M  V30 18705 C 1937.69 -0.167333 -6.3718 0
M  V30 18706 C 1935.38 0.462432 -6.09348 0
M  V30 18707 C 1936.38 -0.172477 -6.82782 0
M  V30 18708 O 1936.07 -0.804604 -7.99863 0
M  V30 18709 H 1935.8 0.262465 -0.622967 0
M  V30 18710 H 1938.35 0.159526 -2.0478 0
M  V30 18711 H 1936.58 2.57228 -2.8874 0
M  V30 18712 H 1938.27 2.4036 -3.27081 0
M  V30 18713 H 1939.04 0.468479 -4.82732 0
M  V30 18714 H 1934.92 1.58831 -4.32774 0
M  V30 18715 H 1938.46 -0.663498 -6.94438 0
M  V30 18716 H 1934.36 0.462714 -6.43839 0
M  V30 18717 H 1935.13 -0.705126 -8.15457 0
M  V30 18718 N 1937.79 1.51692 0.427485 0
M  V30 18719 C 1939.07 1.55395 1.18793 0
M  V30 18720 C 1939.45 0.324036 2.08598 0
M  V30 18721 O 1938.79 -0.690292 2.17824 0
M  V30 18722 C 1939 2.87313 1.98121 0
M  V30 18723 C 1940.35 3.39632 2.54824 0
M  V30 18724 O 1941.38 2.8893 2.08322 0
M  V30 18725 O 1940.24 4.28125 3.39664 0
M  V30 18726 H 1937.33 0.625173 0.541376 0
M  V30 18727 H 1939.88 1.6401 0.435754 0
M  V30 18728 H 1938.65 3.68284 1.32222 0
M  V30 18729 H 1938.27 2.81907 2.80383 0
M  V30 18730 N 1939.27 -0.683564 1.42004 0
M  V30 18731 C 1940.52 -1.44078 1.41725 0
M  V30 18732 C 1940.84 -1.94975 0.0315193 0
M  V30 18733 O 1940.11 -1.72494 -0.928579 0
M  V30 18734 H 1938.69 -0.534631 0.521707 0
M  V30 18735 H 1941.35 -0.808284 1.77349 0
M  V30 18736 H 1940.44 -2.29809 2.11174 0
M  V30 18737 N 1940.75 -1.28031 -0.919012 0
M  V30 18738 C 1941.99 -1.14878 -1.66761 0
M  V30 18739 C 1942.32 0.303688 -1.92115 0
M  V30 18740 O 1941.58 1.23781 -1.51581 0
M  V30 18741 C 1941.87 -1.887 -3.03524 0
M  V30 18742 C 1941.54 -3.3852 -2.9785 0
M  V30 18743 C 1940.2 -3.79383 -2.9601 0
M  V30 18744 C 1942.55 -4.34077 -2.88491 0
M  V30 18745 C 1939.88 -5.14152 -2.82604 0
M  V30 18746 C 1942.23 -5.68912 -2.76625 0
M  V30 18747 C 1940.9 -6.09057 -2.7314 0
M  V30 18748 H 1940.17 -0.420368 -0.610223 0
M  V30 18749 H 1942.82 -1.58743 -1.07111 0
M  V30 18750 H 1941.12 -1.37368 -3.66929 0
M  V30 18751 H 1942.82 -1.75944 -3.6034 0
M  V30 18752 H 1939.41 -3.06028 -3.00074 0
M  V30 18753 H 1943.59 -4.03473 -2.89004 0
M  V30 18754 H 1938.85 -5.4439 -2.78298 0
M  V30 18755 H 1943.02 -6.4262 -2.6835 0
M  V30 18756 H 1940.65 -7.13437 -2.62509 0
M  V30 18757 N 1942.22 1.12672 -1.10194 0
M  V30 18758 C 1943.16 2.17442 -0.692399 0
M  V30 18759 C 1944.13 1.59713 0.305045 0
M  V30 18760 O 1945.32 1.87387 0.204539 0
M  V30 18761 C 1942.45 3.38693 -0.0212605 0
M  V30 18762 C 1941.49 4.15046 -0.981778 0
M  V30 18763 S 1942.32 4.73674 -2.49786 0
M  V30 18764 C 1943.48 5.98263 -1.83936 0
M  V30 18765 H 1943.71 2.51845 -1.57991 0
M  V30 18766 H 1941.25 1.24094 -0.918694 0
M  V30 18767 H 1943.2 4.08922 0.359641 0
M  V30 18768 H 1941.87 3.02576 0.843018 0
M  V30 18769 H 1941.06 5.01902 -0.459398 0
M  V30 18770 H 1940.66 3.50513 -1.30447 0
M  V30 18771 H 1942.95 6.67354 -1.16809 0
M  V30 18772 H 1943.9 6.55123 -2.68738 0
M  V30 18773 H 1944.3 5.4921 -1.30494 0
M  V30 18774 N 1943.7 0.89031 1.30043 0
M  V30 18775 C 1944.66 0.365912 2.2626 0
M  V30 18776 C 1945.66 -0.494616 1.53004 0
M  V30 18777 O 1946.85 -0.301009 1.7158 0
M  V30 18778 C 1943.99 -0.477952 3.37533 0
M  V30 18779 H 1945.18 1.21557 2.7416 0
M  V30 18780 H 1942.73 0.667628 1.41324 0
M  V30 18781 H 1943.47 -1.34798 2.94958 0
M  V30 18782 H 1943.25 0.138514 3.91855 0
M  V30 18783 H 1944.74 -0.836463 4.09137 0
M  V30 18784 N 1945.18 -1.43489 0.651812 0
M  V30 18785 C 1946.4 -2.06696 0.170683 0
M  V30 18786 C 1946.83 -1.48527 -1.15418 0
M  V30 18787 O 1946.19 -0.594665 -1.7127 0
M  V30 18788 C 1946.24 -3.60484 0.0915457 0
M  V30 18789 O 1945.34 -4.01388 -0.946644 0
M  V30 18790 H 1944.68 -0.65728 0.0942276 0
M  V30 18791 H 1947.21 -1.84018 0.89434 0
M  V30 18792 H 1947.22 -4.07896 -0.0922419 0
M  V30 18793 H 1945.9 -4.02199 1.0587 0
M  V30 18794 H 1944.47 -3.65569 -0.735758 0
M  V30 18795 N 1946.66 -0.393643 -1.52605 0
M  V30 18796 C 1947.59 0.483634 -2.23016 0
M  V30 18797 C 1948.57 1.06056 -1.23251 0
M  V30 18798 O 1949.75 1.11138 -1.52252 0
M  V30 18799 C 1946.88 1.66985 -2.94676 0
M  V30 18800 C 1945.93 1.21776 -4.08745 0
M  V30 18801 S 1946.76 0.195703 -5.35142 0
M  V30 18802 C 1947.91 1.3876 -6.10325 0
M  V30 18803 H 1948.15 -0.114272 -2.9708 0
M  V30 18804 H 1945.68 -0.177853 -1.53372 0
M  V30 18805 H 1947.64 2.35012 -3.3657 0
M  V30 18806 H 1946.3 2.23906 -2.20283 0
M  V30 18807 H 1945.49 2.10357 -4.58002 0
M  V30 18808 H 1945.09 0.616347 -3.68886 0
M  V30 18809 H 1947.39 2.31393 -6.3676 0
M  V30 18810 H 1948.33 0.935868 -7.01888 0
M  V30 18811 H 1948.74 1.60638 -5.41162 0
M  V30 18812 N 1948.14 1.57115 -0.123593 0
M  V30 18813 C 1949.41 1.86893 0.577099 0
M  V30 18814 C 1949.79 1.02556 1.84514 0
M  V30 18815 O 1949.14 0.105755 2.28255 0
M  V30 18816 C 1949.35 3.38107 0.865122 0
M  V30 18817 C 1950.7 4.0681 1.21618 0
M  V30 18818 O 1951.72 3.43153 0.955237 0
M  V30 18819 O 1950.58 5.19186 1.70612 0
M  V30 18820 H 1947.68 0.773842 0.291716 0
M  V30 18821 H 1950.22 1.68959 -0.158443 0
M  V30 18822 H 1948.99 3.91286 -0.0332696 0
M  V30 18823 H 1948.62 3.61488 1.65566 0
M  V30 18824 N 1949.61 -0.150187 1.56883 0
M  V30 18825 C 1950.55 -1.21495 1.93169 0
M  V30 18826 C 1951.52 -1.41721 0.797116 0
M  V30 18827 O 1952.71 -1.56385 1.05243 0
M  V30 18828 C 1949.84 -2.5744 2.20096 0
M  V30 18829 C 1948.88 -2.53828 3.42744 0
M  V30 18830 S 1949.71 -2.00835 4.96413 0
M  V30 18831 C 1950.87 -3.38515 5.26458 0
M  V30 18832 H 1951.1 -0.905357 2.83179 0
M  V30 18833 H 1948.64 -0.355666 1.50248 0
M  V30 18834 H 1950.59 -3.35675 2.3629 0
M  V30 18835 H 1949.26 -2.85591 1.30755 0
M  V30 18836 H 1948.45 -3.53894 3.58852 0
M  V30 18837 H 1948.05 -1.837 3.25776 0
M  V30 18838 H 1950.34 -4.34611 5.19731 0
M  V30 18839 H 1951.29 -3.27263 6.27937 0
M  V30 18840 H 1951.69 -3.35503 4.5398 0
M  V30 18841 N 1951.09 -1.51916 -0.419434 0
M  V30 18842 C 1952.04 -1.7452 -1.51035 0
M  V30 18843 C 1953.01 -0.587321 -1.5537 0
M  V30 18844 O 1954.19 -0.823744 -1.72102 0
M  V30 18845 C 1951.33 -1.89242 -2.88585 0
M  V30 18846 C 1950.45 -3.16859 -2.9364 0
M  V30 18847 C 1949.58 -3.22072 -4.22426 0
M  V30 18848 C 1948.62 -4.43931 -4.21416 0
M  V30 18849 N 1947.76 -4.46594 -5.41755 0
M  V30 18850 H 1952.6 -2.67631 -1.31063 0
M  V30 18851 H 1950.14 -1.32623 -0.636368 0
M  V30 18852 H 1952.09 -1.9576 -3.68421 0
M  V30 18853 H 1950.72 -0.995211 -3.07076 0
M  V30 18854 H 1949.78 -3.19562 -2.06359 0
M  V30 18855 H 1951.09 -4.06719 -2.88758 0
M  V30 18856 H 1950.24 -3.27605 -5.10647 0
M  V30 18857 H 1948.98 -2.30131 -4.29989 0
M  V30 18858 H 1947.99 -4.38555 -3.31586 0
M  V30 18859 H 1949.21 -5.37155 -4.15501 0
M  V30 18860 H 1947.16 -3.57532 -5.50006 0
M  V30 18861 H 1947.07 -5.30286 -5.38825 0
M  V30 18862 H 1948.34 -4.56343 -6.31958 0
M  V30 18863 N 1952.57 0.676023 -1.42365 0
M  V30 18864 C 1953.8 1.46436 -1.46164 0
M  V30 18865 C 1954.21 1.8866 -0.0726092 0
M  V30 18866 O 1953.57 1.58056 0.912395 0
M  V30 18867 C 1953.62 2.71428 -2.38766 0
M  V30 18868 O 1953.34 2.30976 -3.72266 0
M  V30 18869 C 1954.84 3.65001 -2.51573 0
M  V30 18870 H 1952.06 0.450625 -0.49717 0
M  V30 18871 H 1954.61 0.830748 -1.86866 0
M  V30 18872 H 1952.76 3.30981 -2.01321 0
M  V30 18873 H 1953.18 3.11682 -4.21846 0
M  V30 18874 H 1954.65 4.49432 -3.20492 0
M  V30 18875 H 1955.13 4.10818 -1.55322 0
M  V30 18876 H 1955.73 3.11342 -2.89735 0
M  V30 18877 N 1954.05 1.28517 0.912209 0
M  V30 18878 C 1955.29 1.17014 1.67592 0
M  V30 18879 C 1955.65 -0.27643 1.9 0
M  V30 18880 O 1956.85 -0.514187 2.63836 0
M  V30 18881 C 1955.12 1.94823 2.99631 0
M  V30 18882 S 1956.68 1.99713 3.90717 0
M  V30 18883 H 1953.5 0.417458 0.575543 0
M  V30 18884 H 1956.1 1.62637 1.08488 0
M  V30 18885 H 1954.81 2.99087 2.81025 0
M  V30 18886 H 1954.34 1.49757 3.63781 0
M  V30 18887 H 1956.35 1.10475 4.83745 0
M  V30 18888 N 1955.53 -1.12086 1.1079 0
M  V30 18889 C 1956.78 -1.83036 0.847387 0
M  V30 18890 C 1957.09 -1.85209 -0.629051 0
M  V30 18891 O 1958.29 -2.52191 -1.00559 0
M  V30 18892 C 1956.75 -3.28682 1.46615 0
M  V30 18893 C 1956.36 -3.34858 2.97614 0
M  V30 18894 C 1958.1 -4.04578 1.28519 0
M  V30 18895 C 1956.01 -4.7486 3.52508 0
M  V30 18896 H 1954.94 -0.685806 0.313347 0
M  V30 18897 H 1957.59 -1.2618 1.33233 0
M  V30 18898 H 1955.97 -3.85429 0.908883 0
M  V30 18899 H 1957.15 -2.8803 3.59688 0
M  V30 18900 H 1955.46 -2.72438 3.14907 0
M  V30 18901 H 1958.06 -5.07962 1.6697 0
M  V30 18902 H 1958.4 -4.1568 0.227105 0
M  V30 18903 H 1958.93 -3.542 1.81073 0
M  V30 18904 H 1955.67 -4.68954 4.57999 0
M  V30 18905 H 1955.19 -5.22125 2.95203 0
M  V30 18906 H 1956.87 -5.43807 3.50546 0
M  V30 18907 N 1957 -0.897194 -1.29569 0
M  V30 18908 C 1958.28 -0.441422 -1.90554 0
M  V30 18909 C 1958.66 1.07875 -1.81456 0
M  V30 18910 O 1958.01 1.9195 -1.23966 0
M  V30 18911 C 1958.22 -0.953195 -3.35731 0
M  V30 18912 C 1959.57 -0.995408 -4.12767 0
M  V30 18913 O 1960.59 -0.900693 -3.44624 0
M  V30 18914 O 1959.45 -1.13729 -5.34535 0
M  V30 18915 H 1956.54 -0.137172 -0.815545 0
M  V30 18916 H 1959.09 -0.986896 -1.38052 0
M  V30 18917 H 1957.86 -1.99715 -3.36496 0
M  V30 18918 H 1957.49 -0.387587 -3.95706 0
M  V30 18919 N 1958.48 1.43142 -0.659413 0
M  V30 18920 C 1959.73 2.02038 -0.175593 0
M  V30 18921 C 1960.06 1.5194 1.20946 0
M  V30 18922 O 1959.34 0.715095 1.80877 0
M  V30 18923 C 1959.62 3.59581 -0.193256 0
M  V30 18924 C 1959.47 4.19896 -1.61267 0
M  V30 18925 C 1960.79 4.37616 0.466976 0
M  V30 18926 H 1957.91 0.734103 -0.0652811 0
M  V30 18927 H 1960.55 1.7036 -0.841276 0
M  V30 18928 H 1958.7 3.867 0.373574 0
M  V30 18929 H 1960.37 4.03786 -2.23056 0
M  V30 18930 H 1958.62 3.7631 -2.15807 0
M  V30 18931 H 1959.29 5.28999 -1.57683 0
M  V30 18932 H 1961.76 4.16097 -0.0153667 0
M  V30 18933 H 1960.64 5.47261 0.423915 0
M  V30 18934 H 1960.9 4.14332 1.54211 0
M  V30 18935 N 1959.96 0.40173 1.52394 0
M  V30 18936 C 1960.91 -0.442142 2.28359 0
M  V30 18937 C 1961.9 -1.05228 1.32753 0
M  V30 18938 O 1963.11 -0.991332 1.50242 0
M  V30 18939 H 1959.48 -0.161356 0.734485 0
M  V30 18940 H 1961.45 0.219869 2.97589 0
M  V30 18941 C 1960.2 -1.55062 3.11209 0
M  V30 18942 H 1959.53 -1.09046 3.84642 0
M  V30 18943 H 1960.97 -2.11505 3.6748 0
M  V30 18944 C 1959.43 -2.51376 2.24303 0
M  V30 18945 O 1959.96 -3.55084 1.87825 0
M  V30 18946 N 1958.16 -2.2141 1.88218 0
M  V30 18947 H 1957.71 -1.37106 2.18082 0
M  V30 18948 H 1957.67 -2.861 1.30362 0
M  V30 18949 N 1961.44 -1.57047 0.131923 0
M  V30 18950 C 1962.35 -2.19545 -0.826862 0
M  V30 18951 C 1963.36 -1.17532 -1.28305 0
M  V30 18952 O 1964.54 -1.50052 -1.34337 0
M  V30 18953 C 1961.61 -2.79284 -2.0543 0
M  V30 18954 C 1960.67 -3.96375 -1.64879 0
M  V30 18955 C 1959.9 -4.53256 -2.81771 0
M  V30 18956 O 1960.12 -4.09022 -3.97564 0
M  V30 18957 O 1959.06 -5.43748 -2.58111 0
M  V30 18958 H 1962.88 -3.01957 -0.324926 0
M  V30 18959 H 1960.47 -1.49102 -0.0943495 0
M  V30 18960 H 1962.35 -3.17312 -2.77292 0
M  V30 18961 H 1961.02 -1.99895 -2.54605 0
M  V30 18962 H 1959.93 -3.63092 -0.900848 0
M  V30 18963 H 1961.26 -4.77238 -1.20434 0
M  V30 18964 N 1962.92 0.141865 -1.5696 0
M  V30 18965 C 1964.16 0.859765 -1.85438 0
M  V30 18966 C 1964.52 1.78114 -0.716905 0
M  V30 18967 O 1965.72 2.53888 -0.882864 0
M  V30 18968 C 1963.99 1.60949 -3.19108 0
M  V30 18969 S 1965.55 2.37211 -3.69156 0
M  V30 18970 H 1962.37 0.287408 -0.650321 0
M  V30 18971 H 1964.97 0.11945 -1.95135 0
M  V30 18972 H 1963.68 0.92418 -3.99859 0
M  V30 18973 H 1963.21 2.39062 -3.12431 0
M  V30 18974 H 1965.22 3.62503 -3.38831 0
M  V30 18975 N 1964.39 1.52136 0.411372 0
M  V30 18976 C 1965.67 1.56646 1.17138 0
M  V30 18977 C 1966.05 0.346143 2.08243 0
M  V30 18978 O 1965.4 -0.66715 2.18544 0
M  V30 18979 C 1965.61 2.89399 1.95063 0
M  V30 18980 C 1966.96 3.42316 2.51207 0
M  V30 18981 O 1967.98 2.91123 2.05245 0
M  V30 18982 O 1966.84 4.31703 3.35104 0
M  V30 18983 H 1963.93 0.63088 0.534715 0
M  V30 18984 H 1966.48 1.64463 0.418334 0
M  V30 18985 H 1965.25 3.69666 1.28308 0
M  V30 18986 H 1964.88 2.84864 2.77377 0
M  V30 18987 N 1965.87 -0.668464 1.42721 0
M  V30 18988 C 1966.8 -1.79375 1.49489 0
M  V30 18989 C 1967.78 -1.66442 0.350881 0
M  V30 18990 O 1968.97 -1.85767 0.566049 0
M  V30 18991 C 1966.1 -3.17712 1.40273 0
M  V30 18992 C 1965.05 -3.45389 2.52766 0
M  V30 18993 C 1964.38 -4.83367 2.28606 0
M  V30 18994 C 1965.68 -3.4165 3.95061 0
M  V30 18995 H 1967.37 -1.73968 2.43671 0
M  V30 18996 H 1964.92 -0.835548 1.1728 0
M  V30 18997 H 1966.87 -3.96173 1.43614 0
M  V30 18998 H 1965.6 -3.23811 0.425882 0
M  V30 18999 H 1964.26 -2.69292 2.48752 0
M  V30 19000 H 1963.9 -4.86124 1.292 0
M  V30 19001 H 1963.6 -5.02847 3.04005 0
M  V30 19002 H 1965.13 -5.64104 2.33707 0
M  V30 19003 H 1966.54 -4.1007 4.00644 0
M  V30 19004 H 1964.94 -3.72666 4.70362 0
M  V30 19005 H 1966.01 -2.40106 4.2128 0
M  V30 19006 N 1967.35 -1.28999 -0.905381 0
M  V30 19007 C 1968.3 -1.13515 -2.0302 0
M  V30 19008 C 1969.29 -0.0522132 -1.6932 0
M  V30 19009 O 1970.5 -0.211599 -1.78752 0
M  V30 19010 H 1966.87 -0.350474 -0.665336 0
M  V30 19011 H 1968.85 -2.08758 -2.13219 0
M  V30 19012 C 1967.59 -0.822531 -3.37831 0
M  V30 19013 H 1966.92 -1.64783 -3.64262 0
M  V30 19014 H 1968.36 -0.754193 -4.17238 0
M  V30 19015 C 1966.82 0.474033 -3.33548 0
M  V30 19016 O 1967.35 1.50182 -3.7257 0
M  V30 19017 N 1965.55 0.477812 -2.86645 0
M  V30 19018 H 1965.1 -0.359023 -2.55086 0
M  V30 19019 H 1965.06 1.34533 -2.84162 0
M  V30 19020 N 1968.83 1.11497 -1.11383 0
M  V30 19021 C 1970.05 1.87567 -0.885056 0
M  V30 19022 C 1970.48 1.79581 0.559675 0
M  V30 19023 O 1969.84 1.15779 1.39517 0
M  V30 19024 C 1969.89 3.34354 -1.35053 0
M  V30 19025 O 1968.99 4.09085 -0.521865 0
M  V30 19026 H 1968.33 0.582433 -0.318853 0
M  V30 19027 H 1970.86 1.4094 -1.48314 0
M  V30 19028 H 1970.87 3.85201 -1.34478 0
M  V30 19029 H 1969.55 3.39484 -2.40257 0
M  V30 19030 H 1968.12 3.68144 -0.593669 0
M  V30 19031 N 1970.31 0.904053 1.29092 0
M  V30 19032 C 1971.26 0.375028 2.29557 0
M  V30 19033 C 1972.25 -0.528146 1.60956 0
M  V30 19034 O 1973.46 -0.410465 1.75257 0
M  V30 19035 H 1969.83 0.102657 0.74496 0
M  V30 19036 H 1971.8 1.23564 2.71615 0
M  V30 19037 C 1970.55 -0.37845 3.45634 0
M  V30 19038 H 1969.87 0.307303 3.98617 0
M  V30 19039 H 1971.31 -0.713405 4.17955 0
M  V30 19040 C 1969.77 -1.58274 2.97407 0
M  V30 19041 O 1970.3 -2.68199 2.99052 0
M  V30 19042 N 1968.51 -1.4264 2.53184 0
M  V30 19043 H 1968.06 -0.532104 2.52044 0
M  V30 19044 H 1968.01 -2.23348 2.21276 0
M  V30 19045 N 1971.79 -1.4279 0.666995 0
M  V30 19046 C 1973.03 -2.00866 0.183286 0
M  V30 19047 C 1973.35 -1.53315 -1.21465 0
M  V30 19048 O 1974.55 -2.03756 -1.79432 0
M  V30 19049 C 1973.01 -3.58834 0.276836 0
M  V30 19050 C 1972.62 -4.15374 1.67834 0
M  V30 19051 C 1974.36 -4.2424 -0.14856 0
M  V30 19052 C 1972.27 -5.65681 1.72507 0
M  V30 19053 H 1971.2 -0.751214 0.0647613 0
M  V30 19054 H 1973.85 -1.63603 0.83104 0
M  V30 19055 H 1972.23 -3.93563 -0.438672 0
M  V30 19056 H 1973.41 -3.9212 2.4203 0
M  V30 19057 H 1971.72 -3.62391 2.0509 0
M  V30 19058 H 1974.32 -5.34533 -0.133681 0
M  V30 19059 H 1974.66 -3.99154 -1.18245 0
M  V30 19060 H 1975.19 -3.94444 0.51567 0
M  V30 19061 H 1971.93 -5.95555 2.73852 0
M  V30 19062 H 1971.45 -5.9095 1.02655 0
M  V30 19063 H 1973.13 -6.29963 1.47499 0
M  V30 19064 N 1973.26 -0.409806 -1.52179 0
M  V30 19065 C 1974.5 0.165276 -2.03731 0
M  V30 19066 C 1974.87 1.42322 -1.28874 0
M  V30 19067 O 1976.07 2.07678 -1.70655 0
M  V30 19068 C 1974.34 0.406367 -3.55082 0
M  V30 19069 S 1975.9 0.9488 -4.28419 0
M  V30 19070 H 1972.72 0.044726 -0.709592 0
M  V30 19071 H 1975.32 -0.562881 -1.87222 0
M  V30 19072 H 1974.02 -0.515951 -4.07144 0
M  V30 19073 H 1973.55 1.16238 -3.75835 0
M  V30 19074 H 1975.57 2.22927 -4.43303 0
M  V30 19075 N 1974.74 1.56975 -0.14025 0
M  V30 19076 C 1975.67 2.12183 0.839848 0
M  V30 19077 C 1976.65 1.04364 1.24687 0
M  V30 19078 O 1977.84 1.32153 1.34417 0
M  V30 19079 C 1974.96 2.636 2.1268 0
M  V30 19080 C 1974.01 3.83503 1.86622 0
M  V30 19081 S 1974.84 5.24837 1.0633 0
M  V30 19082 C 1976 5.79638 2.36159 0
M  V30 19083 H 1976.23 2.94984 0.370337 0
M  V30 19084 H 1973.76 1.54223 0.0739155 0
M  V30 19085 H 1975.72 2.93875 2.86614 0
M  V30 19086 H 1974.38 1.80942 2.56747 0
M  V30 19087 H 1973.58 4.177 2.82033 0
M  V30 19088 H 1973.18 3.53954 1.208 0
M  V30 19089 H 1975.47 5.90658 3.31858 0
M  V30 19090 H 1976.41 6.77328 2.06476 0
M  V30 19091 H 1976.82 5.07837 2.46499 0
M  V30 19092 N 1976.22 -0.133539 1.57033 0
M  V30 19093 C 1977.47 -0.843859 1.8408 0
M  V30 19094 C 1977.79 -1.80556 0.723177 0
M  V30 19095 O 1977.05 -1.93588 -0.286718 0
M  V30 19096 C 1977.35 -1.64036 3.17533 0
M  V30 19097 C 1977.01 -0.82425 4.43302 0
M  V30 19098 C 1975.68 -0.599146 4.77455 0
M  V30 19099 C 1978.03 -0.254425 5.20579 0
M  V30 19100 C 1975.36 0.206272 5.86337 0
M  V30 19101 C 1977.71 0.538105 6.30307 0
M  V30 19102 C 1976.37 0.773661 6.63001 0
M  V30 19103 H 1975.64 -0.30879 0.673595 0
M  V30 19104 H 1978.29 -0.106868 1.91202 0
M  V30 19105 H 1976.59 -2.44784 3.05921 0
M  V30 19106 H 1978.29 -2.19367 3.35677 0
M  V30 19107 H 1974.88 -1.00978 4.16535 0
M  V30 19108 H 1979.07 -0.415584 4.94557 0
M  V30 19109 H 1974.32 0.398139 6.10102 0
M  V30 19110 H 1978.5 0.986708 6.89374 0
M  V30 19111 H 1976.12 1.3996 7.47205 0
M  V30 19112 N 1977.7 -1.52352 -0.403298 0
M  V30 19113 C 1978.95 -1.66368 -1.14744 0
M  V30 19114 C 1979.27 -0.398899 -1.90876 0
M  V30 19115 O 1978.54 0.586372 -1.86918 0
M  V30 19116 H 1977.12 -0.613226 -0.426571 0
M  V30 19117 H 1979.78 -1.89416 -0.459075 0
M  V30 19118 H 1978.87 -2.50748 -1.85828 0
M  V30 19119 N 1979.18 0.660885 -1.43074 0
M  V30 19120 C 1980.09 1.80324 -1.50068 0
M  V30 19121 C 1981.1 1.69611 -0.388331 0
M  V30 19122 O 1982.28 1.90916 -0.641321 0
M  V30 19123 C 1979.34 3.16557 -1.41394 0
M  V30 19124 C 1978.4 3.39124 -2.63236 0
M  V30 19125 C 1977.64 4.68858 -2.54967 0
M  V30 19126 O 1977.86 5.47699 -1.59318 0
M  V30 19127 O 1976.79 4.92975 -3.45339 0
M  V30 19128 H 1980.62 1.77379 -2.46516 0
M  V30 19129 H 1978.2 0.8184 -1.2499 0
M  V30 19130 H 1980.09 3.97825 -1.38971 0
M  V30 19131 H 1978.76 3.2011 -0.480768 0
M  V30 19132 H 1977.67 2.5765 -2.71233 0
M  V30 19133 H 1979 3.40413 -3.555 0
M  V30 19134 N 1980.65 1.29477 0.898527 0
M  V30 19135 C 1981.89 1.18785 1.66341 0
M  V30 19136 C 1982.26 -0.256262 1.90282 0
M  V30 19137 O 1983.46 -0.486174 2.64367 0
M  V30 19138 C 1981.73 1.9799 2.97548 0
M  V30 19139 S 1983.29 2.03846 3.88577 0
M  V30 19140 H 1980.11 0.423539 0.571083 0
M  V30 19141 H 1982.71 1.63778 1.06757 0
M  V30 19142 H 1981.41 3.02051 2.77837 0
M  V30 19143 H 1980.94 1.53607 3.62172 0
M  V30 19144 H 1982.96 1.156 4.82547 0
M  V30 19145 N 1982.13 -1.10905 1.11972 0
M  V30 19146 C 1983.04 -2.20682 0.796029 0
M  V30 19147 C 1984.06 -1.72689 -0.213158 0
M  V30 19148 O 1985.23 -2.01343 -0.047955 0
M  V30 19149 C 1982.3 -3.45797 0.250055 0
M  V30 19150 C 1981.36 -4.08549 1.31855 0
M  V30 19151 C 1980.59 -5.27692 0.798538 0
M  V30 19152 O 1980.82 -5.69202 -0.369435 0
M  V30 19153 O 1979.75 -5.81174 1.5659 0
M  V30 19154 H 1983.58 -2.50794 1.71278 0
M  V30 19155 H 1981.16 -1.19548 0.896024 0
M  V30 19156 H 1983.04 -4.21371 -0.0497791 0
M  V30 19157 H 1981.72 -3.17324 -0.639327 0
M  V30 19158 H 1980.63 -3.34682 1.67148 0
M  V30 19159 H 1981.96 -4.41215 2.18153 0
M  V30 19160 N 1983.61 -0.910886 -1.2861 0
M  V30 19161 C 1984.56 -0.387197 -2.29355 0
M  V30 19162 C 1985.55 0.519603 -1.61234 0
M  V30 19163 O 1986.76 0.401165 -1.75473 0
M  V30 19164 H 1983.13 -0.106607 -0.744405 0
M  V30 19165 H 1985.1 -1.25002 -2.70956 0
M  V30 19166 C 1983.85 0.360115 -3.4583 0
M  V30 19167 H 1983.18 -0.328438 -3.98449 0
M  V30 19168 H 1984.62 0.69123 -4.18328 0
M  V30 19169 C 1983.08 1.56695 -2.98242 0
M  V30 19170 O 1983.61 2.66609 -3.00471 0
M  V30 19171 N 1981.81 1.41295 -2.53937 0
M  V30 19172 H 1981.36 0.51873 -2.52323 0
M  V30 19173 H 1981.32 2.22172 -2.22457 0
M  V30 19174 N 1985.09 1.42434 -0.674558 0
M  V30 19175 C 1986.32 2.05881 -0.205113 0
M  V30 19176 C 1986.73 1.50677 1.13763 0
M  V30 19177 O 1986.09 0.646479 1.70666 0
M  V30 19178 C 1986.14 3.61262 -0.131194 0
M  V30 19179 O 1985.86 4.14419 -1.42087 0
M  V30 19180 C 1987.36 4.41821 0.361775 0
M  V30 19181 H 1984.58 0.663535 -0.0998083 0
M  V30 19182 H 1987.13 1.82575 -0.921226 0
M  V30 19183 H 1985.28 3.8368 0.535604 0
M  V30 19184 H 1985.69 5.08285 -1.29407 0
M  V30 19185 H 1987.17 5.50809 0.362405 0
M  V30 19186 H 1987.65 4.1639 1.39699 0
M  V30 19187 H 1988.25 4.24421 -0.273278 0
M  V30 19188 N 1986.57 0.417871 1.51959 0
M  V30 19189 C 1987.51 -0.403305 2.27249 0
M  V30 19190 C 1988.48 -1.0336 1.30023 0
M  V30 19191 O 1989.67 -1.05621 1.58899 0
M  V30 19192 C 1986.81 -1.50928 3.10346 0
M  V30 19193 C 1985.92 -0.899043 4.22541 0
M  V30 19194 C 1985.06 -1.97844 4.92982 0
M  V30 19195 C 1984.1 -1.3456 5.97126 0
M  V30 19196 N 1983.23 -2.36552 6.6105 0
M  V30 19197 H 1988.07 0.245143 2.9699 0
M  V30 19198 H 1985.61 0.132733 1.465 0
M  V30 19199 H 1987.57 -2.16157 3.56836 0
M  V30 19200 H 1986.2 -2.12763 2.42759 0
M  V30 19201 H 1985.25 -0.135561 3.80158 0
M  V30 19202 H 1986.56 -0.396845 4.97219 0
M  V30 19203 H 1985.72 -2.7078 5.42921 0
M  V30 19204 H 1984.45 -2.51432 4.17892 0
M  V30 19205 H 1983.46 -0.601616 5.46499 0
M  V30 19206 H 1984.68 -0.817308 6.74164 0
M  V30 19207 H 1982.63 -2.89256 5.88784 0
M  V30 19208 H 1982.55 -1.91169 7.3143 0
M  V30 19209 H 1983.82 -3.09031 7.15626 0
M  V30 19210 N 1988.04 -1.56898 0.148573 0
M  V30 19211 C 1989.29 -1.95788 -0.501154 0
M  V30 19212 C 1989.61 -1.03451 -1.65297 0
M  V30 19213 O 1988.88 -0.0963607 -1.95663 0
M  V30 19214 H 1987.46 -0.722922 -0.188129 0
M  V30 19215 H 1990.13 -1.93603 0.224439 0
M  V30 19216 H 1989.22 -2.99547 -0.876258 0
M  V30 19217 N 1989.52 0.125209 -1.57102 0
M  V30 19218 C 1990.75 0.852378 -1.89075 0
M  V30 19219 C 1991.17 1.72938 -0.739878 0
M  V30 19220 O 1990.53 1.78633 0.309828 0
M  V30 19221 C 1990.58 1.66688 -3.19762 0
M  V30 19222 O 1989.68 2.77324 -3.0523 0
M  V30 19223 H 1989.02 0.236103 -0.620606 0
M  V30 19224 H 1991.55 0.109473 -2.04307 0
M  V30 19225 H 1991.56 2.0574 -3.52328 0
M  V30 19226 H 1990.24 1.02303 -4.03121 0
M  V30 19227 H 1988.82 2.41519 -2.84118 0
M  V30 19228 N 1991 1.52564 0.395213 0
M  V30 19229 C 1992.25 1.67305 1.14085 0
M  V30 19230 C 1992.58 0.409869 1.90132 0
M  V30 19231 O 1991.83 -0.607574 1.8603 0
M  V30 19232 C 1992.13 2.85496 2.15004 0
M  V30 19233 C 1991.8 4.23179 1.55661 0
M  V30 19234 C 1990.46 4.60626 1.39202 0
M  V30 19235 C 1992.81 5.08923 1.12457 0
M  V30 19236 C 1990.14 5.81482 0.780775 0
M  V30 19237 C 1992.49 6.30397 0.527451 0
M  V30 19238 C 1991.15 6.66581 0.350111 0
M  V30 19239 H 1990.42 0.612211 0.417467 0
M  V30 19240 H 1993.07 1.86695 0.426269 0
M  V30 19241 H 1991.38 2.60496 2.92658 0
M  V30 19242 H 1993.07 2.94096 2.72595 0
M  V30 19243 H 1989.66 3.93678 1.69457 0
M  V30 19244 H 1993.85 4.80566 1.23976 0
M  V30 19245 H 1989.1 6.0813 0.631518 0
M  V30 19246 H 1993.28 6.96156 0.184351 0
M  V30 19247 H 1990.9 7.60096 -0.125616 0
M  V30 19248 N 1992.48 -0.653289 1.43422 0
M  V30 19249 C 1993.73 -1.40905 1.44322 0
M  V30 19250 C 1994.04 -1.95471 0.0711388 0
M  V30 19251 O 1995.25 -2.71467 -0.0424133 0
M  V30 19252 C 1993.7 -2.55001 2.53973 0
M  V30 19253 C 1993.31 -2.07043 3.97287 0
M  V30 19254 C 1995.05 -3.32369 2.64067 0
M  V30 19255 C 1992.96 -3.18351 4.98404 0
M  V30 19256 H 1991.89 -0.529424 0.536867 0
M  V30 19257 H 1994.54 -0.705139 1.69411 0
M  V30 19258 H 1992.92 -3.27863 2.22085 0
M  V30 19259 H 1994.1 -1.41193 4.38635 0
M  V30 19260 H 1992.41 -1.42555 3.91238 0
M  V30 19261 H 1995.01 -4.15305 3.36788 0
M  V30 19262 H 1995.35 -3.80394 1.69134 0
M  V30 19263 H 1995.89 -2.66588 2.95255 0
M  V30 19264 H 1992.63 -2.75294 5.94889 0
M  V30 19265 H 1992.15 -3.82913 4.61669 0
M  V30 19266 H 1993.82 -3.83483 5.21104 0
M  V30 19267 N 1993.96 -1.29952 -0.891648 0
M  V30 19268 C 1995.2 -1.19666 -1.65709 0
M  V30 19269 C 1995.56 0.246168 -1.90415 0
M  V30 19270 O 1996.76 0.472148 -2.64621 0
M  V30 19271 C 1995.03 -1.99566 -2.96493 0
M  V30 19272 S 1996.59 -2.05904 -3.87491 0
M  V30 19273 H 1993.41 -0.426562 -0.568829 0
M  V30 19274 H 1996.01 -1.64342 -1.05887 0
M  V30 19275 H 1994.72 -3.0352 -2.76231 0
M  V30 19276 H 1994.25 -1.55525 -3.61352 0
M  V30 19277 H 1996.26 -1.18157 -4.81927 0
M  V30 19278 N 1995.44 1.1031 -1.12559 0
M  V30 19279 C 1996.39 2.14835 -0.763553 0
M  V30 19280 C 1997.37 1.59129 0.238075 0
M  V30 19281 O 1998.56 1.76947 0.043378 0
M  V30 19282 C 1995.69 3.42586 -0.221241 0
M  V30 19283 C 1994.78 4.05222 -1.25124 0
M  V30 19284 N 1995.17 4.42543 -2.44927 0
M  V30 19285 C 1993.47 4.32301 -1.0969 0
M  V30 19286 C 1994.17 4.91767 -3.10709 0
M  V30 19287 N 1993.14 4.88655 -2.38154 0
M  V30 19288 H 1996.94 2.41484 -1.67519 0
M  V30 19289 H 1994.46 1.27445 -1.00656 0
M  V30 19290 H 1996.46 4.16862 0.0563207 0
M  V30 19291 H 1995.12 3.17396 0.684837 0
M  V30 19292 H 1996.13 4.34197 -2.82299 0
M  V30 19293 H 1992.8 4.16761 -0.248225 0
M  V30 19294 H 1994.19 5.30181 -4.12744 0
M  V30 19295 N 1996.91 0.917694 1.28125 0
M  V30 19296 C 1998.15 0.56005 1.96578 0
M  V30 19297 C 1998.52 -0.880571 1.70616 0
M  V30 19298 O 1999.72 -1.34599 2.32673 0
M  V30 19299 C 1997.99 0.865324 3.46766 0
M  V30 19300 S 1999.55 0.61469 4.34473 0
M  V30 19301 H 1996.37 0.207088 0.680173 0
M  V30 19302 H 1998.97 1.18399 1.5557 0
M  V30 19303 H 1997.67 1.91167 3.63157 0
M  V30 19304 H 1997.2 0.23019 3.92726 0
M  V30 19305 H 1999.22 -0.532159 4.93338 0
M  V30 19306 N 1998.39 -1.42074 0.682102 0
M  V30 19307 C 1999.32 -2.29179 -0.0307054 0
M  V30 19308 C 2000.34 -1.44071 -0.758119 0
M  V30 19309 O 2001.53 -1.67715 -0.611062 0
M  V30 19310 C 1998.63 -3.21654 -1.06734 0
M  V30 19311 C 1997.8 -4.35453 -0.41228 0
M  V30 19312 C 1996.86 -5.08596 -1.34969 0
M  V30 19313 O 1995.88 -5.6286 -0.847209 0
M  V30 19314 N 1997.09 -5.14794 -2.68267 0
M  V30 19315 H 1999.85 -2.90995 0.71706 0
M  V30 19316 H 1997.41 -1.5308 0.52708 0
M  V30 19317 H 1999.4 -3.67453 -1.69589 0
M  V30 19318 H 1997.97 -2.61239 -1.71677 0
M  V30 19319 H 1997.19 -3.92207 0.395908 0
M  V30 19320 H 1998.48 -5.08781 0.0437707 0
M  V30 19321 H 1997.88 -4.72131 -3.11623 0
M  V30 19322 H 1996.44 -5.64215 -3.26351 0
M  V30 19323 N 1999.87 -0.425924 -1.51735 0
M  V30 19324 C 2000.8 0.382011 -2.30354 0
M  V30 19325 C 2001.78 1.03124 -1.35276 0
M  V30 19326 O 2002.97 1.03705 -1.64191 0
M  V30 19327 C 2000.1 1.48978 -3.13724 0
M  V30 19328 C 1999.05 0.964659 -4.16987 0
M  V30 19329 C 1998.38 2.1673 -4.88807 0
M  V30 19330 C 1999.68 0.00700314 -5.223 0
M  V30 19331 H 2001.37 -0.274043 -2.98143 0
M  V30 19332 H 1998.92 -0.133238 -1.43382 0
M  V30 19333 H 2000.87 2.06211 -3.67498 0
M  V30 19334 H 1999.59 2.17396 -2.43735 0
M  V30 19335 H 1998.25 0.414618 -3.64248 0
M  V30 19336 H 1997.9 2.83741 -4.15331 0
M  V30 19337 H 1997.6 1.82239 -5.58626 0
M  V30 19338 H 1999.12 2.74538 -5.454 0
M  V30 19339 H 2000.54 0.488665 -5.71214 0
M  V30 19340 H 1998.93 -0.249924 -5.99579 0
M  V30 19341 H 2000 -0.933195 -4.75836 0
M  V30 19342 N 2001.35 1.56817 -0.156891 0
M  V30 19343 C 2002.6 1.96051 0.490764 0
M  V30 19344 C 2002.92 1.04326 1.64746 0
M  V30 19345 O 2002.19 0.106736 1.95609 0
M  V30 19346 H 2000.77 0.72391 0.184293 0
M  V30 19347 H 2003.43 1.93482 -0.234704 0
M  V30 19348 H 2002.52 3.00007 0.86036 0
M  V30 19349 N 2002.83 -0.116876 1.57166 0
M  V30 19350 C 2004.06 -0.837201 1.88877 0
M  V30 19351 C 2004.46 -1.73852 0.746471 0
M  V30 19352 O 2003.81 -1.8137 -0.291637 0
M  V30 19353 C 2003.87 -1.7211 3.15624 0
M  V30 19354 C 2003.53 -0.993867 4.46062 0
M  V30 19355 C 2004.53 -0.333693 5.18828 0
M  V30 19356 C 2002.21 -0.974414 4.92758 0
M  V30 19357 C 2004.21 0.336212 6.36513 0
M  V30 19358 C 2001.9 -0.300712 6.1036 0
M  V30 19359 C 2002.89 0.353444 6.82085 0
M  V30 19360 O 2002.58 1.01639 7.97449 0
M  V30 19361 H 2002.31 -0.245856 0.629707 0
M  V30 19362 H 2004.87 -0.105177 2.05131 0
M  V30 19363 H 2003.1 -2.49482 2.95458 0
M  V30 19364 H 2004.79 -2.31604 3.33338 0
M  V30 19365 H 2005.55 -0.340327 4.83804 0
M  V30 19366 H 2001.43 -1.47301 4.36833 0
M  V30 19367 H 2004.98 0.847382 6.92434 0
M  V30 19368 H 2000.87 -0.291848 6.4484 0
M  V30 19369 H 2001.64 0.921082 8.13301 0
M  V30 19370 N 2004.3 -1.52772 -0.387116 0
M  V30 19371 C 2005.53 -1.72086 -1.15763 0
M  V30 19372 C 2005.95 -0.43912 -1.82903 0
M  V30 19373 O 2005.31 0.605254 -1.70899 0
M  V30 19374 C 2005.36 -2.87248 -2.17992 0
M  V30 19375 O 2004.46 -2.54353 -3.2462 0
M  V30 19376 H 2003.8 -0.572174 -0.336918 0
M  V30 19377 H 2006.33 -1.99571 -0.450833 0
M  V30 19378 H 2006.34 -3.12798 -2.61957 0
M  V30 19379 H 2005.02 -3.80232 -1.68513 0
M  V30 19380 H 2003.6 -2.39551 -2.8578 0
M  V30 19381 N 2005.78 0.645673 -1.43767 0
M  V30 19382 C 2007.03 1.40756 -1.45999 0
M  V30 19383 C 2007.36 1.94006 -0.0867413 0
M  V30 19384 O 2006.64 1.72761 0.893532 0
M  V30 19385 C 2006.92 2.58349 -2.50854 0
M  V30 19386 C 2006.77 2.10542 -3.97482 0
M  V30 19387 C 2008.09 3.60555 -2.52364 0
M  V30 19388 H 2005.21 0.510461 -0.5316 0
M  V30 19389 H 2007.85 0.731338 -1.75361 0
M  V30 19390 H 2006 3.16038 -2.25947 0
M  V30 19391 H 2007.67 1.57795 -4.33472 0
M  V30 19392 H 2005.92 1.41848 -4.09953 0
M  V30 19393 H 2006.59 2.95137 -4.66474 0
M  V30 19394 H 2009.06 3.12639 -2.74583 0
M  V30 19395 H 2007.94 4.40375 -3.2766 0
M  V30 19396 H 2008.2 4.13654 -1.56022 0
M  V30 19397 N 2007.26 1.30423 0.884744 0
M  V30 19398 C 2008.21 1.16824 1.9905 0
M  V30 19399 C 2009.18 0.0576868 1.66 0
M  V30 19400 O 2010.36 0.227913 1.89434 0
M  V30 19401 C 2007.5 0.866281 3.3405 0
M  V30 19402 C 2006.61 2.05874 3.79789 0
M  V30 19403 C 2005.75 1.69484 5.03437 0
M  V30 19404 C 2004.79 2.85224 5.41585 0
M  V30 19405 N 2003.93 2.49129 6.56414 0
M  V30 19406 H 2008.77 2.1142 2.10013 0
M  V30 19407 H 2006.3 1.05188 1.02829 0
M  V30 19408 H 2008.26 0.671829 4.11755 0
M  V30 19409 H 2006.89 -0.0428113 3.22772 0
M  V30 19410 H 2005.94 2.36443 2.97992 0
M  V30 19411 H 2007.25 2.92549 4.04001 0
M  V30 19412 H 2006.41 1.46416 5.88768 0
M  V30 19413 H 2005.15 0.799794 4.81097 0
M  V30 19414 H 2004.15 3.08958 4.5478 0
M  V30 19415 H 2005.38 3.75416 5.65897 0
M  V30 19416 H 2003.32 1.6213 6.35649 0
M  V30 19417 H 2003.24 3.29336 6.80495 0
M  V30 19418 H 2004.51 2.29417 7.44975 0
M  V30 19419 N 2008.74 -1.09711 1.13142 0
M  V30 19420 C 2009.68 -2.16265 0.806118 0
M  V30 19421 C 2010.65 -1.64493 -0.230476 0
M  V30 19422 O 2011.84 -1.9052 -0.103375 0
M  V30 19423 C 2008.98 -3.44002 0.275075 0
M  V30 19424 C 2008.09 -4.09688 1.37038 0
M  V30 19425 C 2007.23 -5.25172 0.797983 0
M  V30 19426 C 2006.27 -5.82775 1.87189 0
M  V30 19427 N 2005.4 -6.89625 1.31766 0
M  V30 19428 H 2010.24 -2.43434 1.71883 0
M  V30 19429 H 2007.78 -1.19482 0.858044 0
M  V30 19430 H 2009.74 -4.17169 -0.0509244 0
M  V30 19431 H 2008.37 -3.1716 -0.600779 0
M  V30 19432 H 2007.42 -3.34415 1.81302 0
M  V30 19433 H 2008.73 -4.48535 2.18215 0
M  V30 19434 H 2007.89 -6.05223 0.423093 0
M  V30 19435 H 2006.63 -4.87679 -0.0448997 0
M  V30 19436 H 2005.63 -5.01388 2.25588 0
M  V30 19437 H 2006.86 -6.2233 2.71812 0
M  V30 19438 H 2004.8 -6.54117 0.496729 0
M  V30 19439 H 2004.72 -7.27224 2.06594 0
M  V30 19440 H 2005.99 -7.73438 0.970242 0
M  V30 19441 N 2010.22 -0.924476 -1.27637 0
M  V30 19442 C 2011.46 -0.562107 -1.94126 0
M  V30 19443 C 2011.79 0.898999 -1.7304 0
M  V30 19444 O 2011.06 1.63686 -1.07627 0
M  V30 19445 H 2009.64 -0.204894 -0.718351 0
M  V30 19446 H 2012.3 -1.17617 -1.5541 0
M  V30 19447 H 2011.39 -0.765644 -3.02563 0
M  V30 19448 N 2011.69 1.41711 -0.689627 0
M  V30 19449 C 2012.92 2.05652 -0.226938 0
M  V30 19450 C 2013.34 1.51875 1.12158 0
M  V30 19451 O 2012.69 0.664544 1.69971 0
M  V30 19452 C 2012.75 3.61102 -0.169503 0
M  V30 19453 O 2012.47 4.12888 -1.46475 0
M  V30 19454 C 2013.97 4.4218 0.314894 0
M  V30 19455 H 2011.19 0.66244 -0.10684 0
M  V30 19456 H 2013.73 1.81588 -0.940538 0
M  V30 19457 H 2011.89 3.84226 0.49488 0
M  V30 19458 H 2012.3 5.06884 -1.34791 0
M  V30 19459 H 2013.77 5.51162 0.303964 0
M  V30 19460 H 2014.25 4.17848 1.35275 0
M  V30 19461 H 2014.86 4.24107 -0.318278 0
M  V30 19462 N 2013.17 0.433965 1.51507 0
M  V30 19463 C 2014.4 -0.132403 2.06476 0
M  V30 19464 C 2014.82 -1.3675 1.30172 0
M  V30 19465 O 2014.17 -1.78907 0.360351 0
M  V30 19466 C 2014.22 -0.458007 3.58587 0
M  V30 19467 O 2013.94 0.728069 4.32008 0
M  V30 19468 C 2015.45 -1.07541 4.30058 0
M  V30 19469 H 2012.67 -0.00941889 0.670934 0
M  V30 19470 H 2015.21 0.612075 1.95125 0
M  V30 19471 H 2013.36 -1.15238 3.69863 0
M  V30 19472 H 2013.78 0.450318 5.22563 0
M  V30 19473 H 2015.25 -1.25326 5.37585 0
M  V30 19474 H 2015.73 -2.0555 3.88131 0
M  V30 19475 H 2016.34 -0.420519 4.23216 0
M  V30 19476 N 2014.65 -1.56732 0.165206 0
M  V30 19477 C 2015.9 -1.96308 -0.48036 0
M  V30 19478 C 2016.22 -1.05198 -1.6419 0
M  V30 19479 O 2015.49 -0.117108 -1.9555 0
M  V30 19480 H 2014.07 -0.724877 -0.180451 0
M  V30 19481 H 2016.73 -1.93354 0.244961 0
M  V30 19482 H 2015.83 -3.00459 -0.844437 0
M  V30 19483 N 2016.13 0.10854 -1.57226 0
M  V30 19484 C 2017.37 0.820237 -1.8722 0
M  V30 19485 C 2017.73 1.76553 -0.754524 0
M  V30 19486 O 2018.93 2.51958 -0.936519 0
M  V30 19487 C 2017.2 1.54144 -3.22451 0
M  V30 19488 S 2018.76 2.29327 -3.74105 0
M  V30 19489 H 2015.58 0.273549 -0.656271 0
M  V30 19490 H 2018.18 0.0780325 -1.95344 0
M  V30 19491 H 2016.89 0.839156 -4.01729 0
M  V30 19492 H 2016.42 2.32381 -3.17431 0
M  V30 19493 H 2018.43 3.55234 -3.46444 0
M  V30 19494 N 2017.61 1.52975 0.379009 0
M  V30 19495 C 2018.83 1.72396 1.144 0
M  V30 19496 C 2019.25 0.446816 1.83437 0
M  V30 19497 O 2018.61 -0.579403 1.73058 0
M  V30 19498 C 2018.66 2.88032 2.18449 0
M  V30 19499 O 2018.38 4.10803 1.52225 0
M  V30 19500 C 2019.88 3.19215 3.07599 0
M  V30 19501 H 2017.1 0.576943 0.342605 0
M  V30 19502 H 2019.64 1.99666 0.442025 0
M  V30 19503 H 2017.8 2.63195 2.84266 0
M  V30 19504 H 2018.21 4.75461 2.21443 0
M  V30 19505 H 2019.69 4.03565 3.76615 0
M  V30 19506 H 2020.16 2.34014 3.71664 0
M  V30 19507 H 2020.77 3.45928 2.47415 0
M  V30 19508 N 2019.08 -0.63804 1.44107 0
M  V30 19509 C 2020.36 -1.39606 1.37002 0
M  V30 19510 C 2020.74 -2.11085 0.0252978 0
M  V30 19511 O 2020.09 -2.0585 -0.991871 0
M  V30 19512 C 2020.3 -2.3682 2.56353 0
M  V30 19513 C 2021.65 -3.00362 3.00113 0
M  V30 19514 O 2022.67 -2.47147 2.56509 0
M  V30 19515 O 2021.53 -3.96881 3.75696 0
M  V30 19516 H 2018.62 -0.624471 0.542186 0
M  V30 19517 H 2021.17 -0.663674 1.56184 0
M  V30 19518 H 2019.94 -1.83054 3.45842 0
M  V30 19519 H 2019.57 -3.17487 2.39349 0
M  V30 19520 N 2020.56 -1.3089 -0.877815 0
M  V30 19521 C 2021.81 -1.20303 -1.63264 0
M  V30 19522 C 2022.14 0.240114 -1.9271 0
M  V30 19523 O 2021.42 1.17082 -1.55313 0
M  V30 19524 C 2021.7 -2.03934 -2.96788 0
M  V30 19525 C 2021.55 -3.56506 -2.74269 0
M  V30 19526 C 2022.87 -1.88268 -3.97798 0
M  V30 19527 H 2019.99 -0.438382 -0.592445 0
M  V30 19528 H 2022.63 -1.60598 -1.01529 0
M  V30 19529 H 2020.78 -1.69698 -3.49478 0
M  V30 19530 H 2022.45 -4.00838 -2.28312 0
M  V30 19531 H 2020.7 -3.8033 -2.08643 0
M  V30 19532 H 2021.37 -4.1032 -3.69244 0
M  V30 19533 H 2023.84 -2.18214 -3.54291 0
M  V30 19534 H 2022.72 -2.49098 -4.89123 0
M  V30 19535 H 2022.98 -0.843802 -4.33973 0
M  V30 19536 N 2022.04 1.0911 -1.13723 0
M  V30 19537 C 2023.32 1.77949 -0.812014 0
M  V30 19538 C 2023.7 1.99302 0.695832 0
M  V30 19539 O 2023.05 1.59704 1.63422 0
M  V30 19540 C 2023.26 3.10028 -1.60262 0
M  V30 19541 C 2024.6 3.84681 -1.79738 0
M  V30 19542 O 2025.63 3.19789 -1.56887 0
M  V30 19543 O 2024.49 5.01185 -2.17888 0
M  V30 19544 H 2021.58 0.7719 -0.296816 0
M  V30 19545 H 2024.13 1.15637 -1.24202 0
M  V30 19546 H 2022.9 2.8999 -2.62719 0
M  V30 19547 H 2022.52 3.80065 -1.16776 0
M  V30 19548 N 2023.52 0.931232 1.27145 0
M  V30 19549 C 2024.43 0.438807 2.3046 0
M  V30 19550 C 2025.44 -0.482275 1.67183 0
M  V30 19551 O 2026.62 -0.364225 1.98079 0
M  V30 19552 C 2023.69 -0.297266 3.45423 0
M  V30 19553 C 2022.75 0.659161 4.24209 0
M  V30 19554 C 2021.98 -0.0418787 5.33684 0
M  V30 19555 O 2022.2 -1.26062 5.56295 0
M  V30 19556 O 2021.14 0.631751 5.98575 0
M  V30 19557 H 2024.96 1.29675 2.74624 0
M  V30 19558 H 2022.55 0.696718 1.3216 0
M  V30 19559 H 2024.43 -0.712299 4.15336 0
M  V30 19560 H 2023.1 -1.13075 3.03308 0
M  V30 19561 H 2022.01 1.12394 3.56817 0
M  V30 19562 H 2023.34 1.45997 4.70049 0
M  V30 19563 N 2025 -1.41343 0.697132 0
M  V30 19564 C 2026.24 -2.03068 0.232937 0
M  V30 19565 C 2026.6 -1.54026 -1.14629 0
M  V30 19566 O 2027.8 -2.07688 -1.70643 0
M  V30 19567 C 2026.07 -3.56222 0.289923 0
M  V30 19568 S 2027.63 -4.38686 -0.0999966 0
M  V30 19569 H 2024.45 -0.704795 0.0937273 0
M  V30 19570 H 2027.05 -1.72752 0.915256 0
M  V30 19571 H 2025.76 -3.8941 1.29569 0
M  V30 19572 H 2025.29 -3.91242 -0.411492 0
M  V30 19573 H 2027.3 -4.78118 -1.3273 0
M  V30 19574 N 2026.48 -0.441993 -1.51275 0
M  V30 19575 C 2027.39 0.373145 -2.31613 0
M  V30 19576 C 2028.4 1.02333 -1.40726 0
M  V30 19577 O 2029.58 1.01768 -1.73796 0
M  V30 19578 C 2026.64 1.45705 -3.14597 0
M  V30 19579 C 2025.7 0.826508 -4.21269 0
M  V30 19580 C 2024.94 1.85876 -5.00286 0
M  V30 19581 O 2025.16 3.08159 -4.79994 0
M  V30 19582 O 2024.09 1.44671 -5.84255 0
M  V30 19583 H 2027.92 -0.282837 -3.0238 0
M  V30 19584 H 2025.5 -0.204432 -1.47995 0
M  V30 19585 H 2027.39 2.08556 -3.66172 0
M  V30 19586 H 2026.06 2.09703 -2.46589 0
M  V30 19587 H 2024.97 0.15982 -3.73758 0
M  V30 19588 H 2026.3 0.229942 -4.91663 0
M  V30 19589 N 2027.95 1.56642 -0.173515 0
M  V30 19590 C 2029.2 1.96124 0.470974 0
M  V30 19591 C 2029.52 1.06229 1.6424 0
M  V30 19592 O 2030.72 1.35402 2.35327 0
M  V30 19593 C 2029.18 3.4874 0.889284 0
M  V30 19594 C 2028.79 4.47264 -0.256662 0
M  V30 19595 C 2030.53 3.97037 1.50207 0
M  V30 19596 C 2028.44 5.91122 0.181401 0
M  V30 19597 H 2027.37 0.732267 0.179724 0
M  V30 19598 H 2030.02 1.81619 -0.262096 0
M  V30 19599 H 2028.4 3.58672 1.6784 0
M  V30 19600 H 2029.57 4.49049 -1.03401 0
M  V30 19601 H 2027.89 4.09038 -0.779546 0
M  V30 19602 H 2030.49 5.01974 1.8419 0
M  V30 19603 H 2030.83 3.401 2.40078 0
M  V30 19604 H 2031.36 3.90131 0.777351 0
M  V30 19605 H 2028.1 6.51936 -0.682591 0
M  V30 19606 H 2027.62 5.92639 0.924063 0
M  V30 19607 H 2029.3 6.43979 0.624532 0
M  V30 19608 N 2029.43 -0.1002 1.57281 0
M  V30 19609 C 2030.68 -0.803034 1.85461 0
M  V30 19610 C 2031 -1.79518 0.761475 0
M  V30 19611 O 2030.27 -1.94741 -0.212768 0
M  V30 19612 H 2028.85 -0.299556 0.684306 0
M  V30 19613 H 2031.51 -0.0830444 1.94723 0
M  V30 19614 H 2030.61 -1.33676 2.82024 0
M  V30 19615 N 2030.91 -1.53174 -0.370891 0
M  V30 19616 C 2031.87 -1.7857 -1.43685 0
M  V30 19617 C 2032.87 -0.656018 -1.4681 0
M  V30 19618 O 2034.06 -0.924191 -1.47663 0
M  V30 19619 C 2031.19 -1.90295 -2.82844 0
M  V30 19620 H 2032.39 -2.73766 -1.22442 0
M  V30 19621 H 2029.94 -1.4417 -0.603713 0
M  V30 19622 H 2030.68 -0.971472 -3.09407 0
M  V30 19623 H 2030.46 -2.72456 -2.81975 0
M  V30 19624 H 2031.95 -2.11554 -3.60048 0
M  V30 19625 N 2032.39 0.630389 -1.44443 0
M  V30 19626 C 2033.34 1.73605 -1.47802 0
M  V30 19627 C 2034.32 1.57186 -0.343728 0
M  V30 19628 O 2035.51 1.6691 -0.589083 0
M  V30 19629 C 2032.64 3.12293 -1.42577 0
M  V30 19630 C 2031.73 3.34179 -2.61123 0
M  V30 19631 N 2032.12 3.26429 -3.86365 0
M  V30 19632 C 2030.42 3.64978 -2.56334 0
M  V30 19633 C 2031.12 3.49024 -4.65357 0
M  V30 19634 N 2030.09 3.71932 -3.96443 0
M  V30 19635 H 2033.9 1.66072 -2.42482 0
M  V30 19636 H 2031.41 0.832879 -1.39416 0
M  V30 19637 H 2033.41 3.91583 -1.43067 0
M  V30 19638 H 2032.07 3.20991 -0.489358 0
M  V30 19639 H 2033.08 3.05331 -4.18322 0
M  V30 19640 H 2029.76 3.80653 -1.71492 0
M  V30 19641 H 2031.15 3.48618 -5.74383 0
M  V30 19642 N 2033.87 1.31354 0.870861 0
M  V30 19643 C 2034.81 1.18858 1.99939 0
M  V30 19644 C 2035.81 0.0970869 1.69122 0
M  V30 19645 O 2037.01 0.258917 1.78128 0
M  V30 19646 H 2033.39 0.367991 0.65581 0
M  V30 19647 H 2035.36 2.14338 2.07609 0
M  V30 19648 C 2034.11 0.911812 3.35531 0
M  V30 19649 H 2033.43 1.74383 3.59765 0
M  V30 19650 H 2034.87 0.864551 4.15092 0
M  V30 19651 C 2033.33 -0.385431 3.34688 0
M  V30 19652 O 2033.86 -1.40251 3.76421 0
M  V30 19653 N 2032.07 -0.401645 2.87811 0
M  V30 19654 H 2031.61 0.426528 2.54044 0
M  V30 19655 H 2031.57 -1.26952 2.87629 0
M  V30 19656 N 2035.34 -1.08505 1.143 0
M  V30 19657 C 2036.58 -1.82477 0.920958 0
M  V30 19658 C 2036.95 -1.84168 -0.54277 0
M  V30 19659 O 2038.15 -2.53893 -0.882716 0
M  V30 19660 C 2036.42 -3.24206 1.50418 0
M  V30 19661 S 2037.98 -4.15066 1.42356 0
M  V30 19662 H 2034.8 -0.628871 0.331726 0
M  V30 19663 H 2037.4 -1.30431 1.4563 0
M  V30 19664 H 2036.1 -3.20556 2.56266 0
M  V30 19665 H 2035.63 -3.81325 0.967187 0
M  V30 19666 H 2037.65 -4.94516 0.408406 0
M  V30 19667 N 2036.82 -0.937962 -1.26649 0
M  V30 19668 C 2038.1 -0.501822 -1.89053 0
M  V30 19669 C 2038.48 1.02047 -1.84796 0
M  V30 19670 O 2037.83 1.87909 -1.3001 0
M  V30 19671 C 2038.04 -1.05952 -3.32528 0
M  V30 19672 C 2039.38 -1.12622 -4.09391 0
M  V30 19673 O 2040.41 -1.00988 -3.41584 0
M  V30 19674 O 2039.27 -1.30677 -5.30646 0
M  V30 19675 H 2036.36 -0.163048 -0.810768 0
M  V30 19676 H 2038.91 -1.03032 -1.34843 0
M  V30 19677 H 2037.68 -2.10319 -3.29972 0
M  V30 19678 H 2037.3 -0.513282 -3.94273 0
M  V30 19679 N 2038.3 1.40971 -0.704618 0
M  V30 19680 C 2039.23 2.28199 0.00567613 0
M  V30 19681 C 2040.21 1.42735 0.778814 0
M  V30 19682 O 2041.39 1.72157 0.767746 0
M  V30 19683 C 2038.52 3.2312 1.01544 0
M  V30 19684 C 2037.57 4.25187 0.334405 0
M  V30 19685 S 2038.4 5.27366 -0.929779 0
M  V30 19686 C 2039.56 6.25851 0.0781563 0
M  V30 19687 H 2039.79 2.88093 -0.734128 0
M  V30 19688 H 2037.32 1.46243 -0.495225 0
M  V30 19689 H 2039.28 3.78337 1.59284 0
M  V30 19690 H 2037.94 2.62304 1.72787 0
M  V30 19691 H 2037.13 4.91909 1.09736 0
M  V30 19692 H 2036.74 3.73613 -0.170159 0
M  V30 19693 H 2039.03 6.71107 0.928545 0
M  V30 19694 H 2039.97 7.05919 -0.555377 0
M  V30 19695 H 2040.38 5.62806 0.436978 0
M  V30 19696 N 2039.78 0.45001 1.51039 0
M  V30 19697 C 2040.73 -0.373216 2.24925 0
M  V30 19698 C 2041.71 -0.979411 1.27657 0
M  V30 19699 O 2042.9 -0.895452 1.52678 0
M  V30 19700 C 2040.03 -1.46669 3.10392 0
M  V30 19701 C 2039.12 -0.869269 4.15096 0
M  V30 19702 N 2039.51 -0.00218012 5.058 0
M  V30 19703 C 2037.81 -1.1355 4.31303 0
M  V30 19704 C 2038.51 0.334694 5.80736 0
M  V30 19705 N 2037.49 -0.284884 5.42853 0
M  V30 19706 H 2041.29 0.295074 2.92415 0
M  V30 19707 H 2038.8 0.262851 1.60259 0
M  V30 19708 H 2040.8 -2.06943 3.61912 0
M  V30 19709 H 2039.46 -2.13719 2.44447 0
M  V30 19710 H 2040.47 0.365173 5.16611 0
M  V30 19711 H 2037.15 -1.80255 3.76582 0
M  V30 19712 H 2038.54 1.04106 6.63786 0
M  V30 19713 N 2041.26 -1.56548 0.18182 0
M  V30 19714 C 2042.22 -2.17247 -0.730497 0
M  V30 19715 C 2043.22 -1.12333 -1.15056 0
M  V30 19716 O 2044.41 -1.3779 -1.06581 0
M  V30 19717 C 2041.54 -2.76383 -1.99563 0
M  V30 19718 H 2042.73 -2.9922 -0.201904 0
M  V30 19719 H 2040.29 -1.56153 -0.0677734 0
M  V30 19720 H 2041.02 -1.98173 -2.56706 0
M  V30 19721 H 2040.81 -3.53172 -1.70329 0
M  V30 19722 H 2042.3 -3.23034 -2.64649 0
M  V30 19723 N 2042.73 0.0918577 -1.57332 0
M  V30 19724 C 2043.96 0.81208 -1.9084 0
M  V30 19725 C 2044.38 1.71329 -0.776394 0
M  V30 19726 O 2043.74 1.7925 0.271867 0
M  V30 19727 C 2043.79 1.59867 -3.23226 0
M  V30 19728 O 2042.89 2.70787 -3.11044 0
M  V30 19729 H 2042.24 0.222886 -0.625474 0
M  V30 19730 H 2044.77 0.0661119 -2.04493 0
M  V30 19731 H 2044.78 1.98221 -3.56613 0
M  V30 19732 H 2043.45 0.937296 -4.05201 0
M  V30 19733 H 2042.03 2.35438 -2.89177 0
M  V30 19734 N 2044.21 1.53368 0.362763 0
M  V30 19735 C 2045.45 1.7139 1.11376 0
M  V30 19736 C 2045.82 0.457385 1.86472 0
M  V30 19737 O 2047.02 0.514341 2.63833 0
M  V30 19738 C 2045.29 2.93093 2.04527 0
M  V30 19739 S 2046.85 3.31834 2.87109 0
M  V30 19740 H 2043.67 0.603054 0.376626 0
M  V30 19741 H 2046.27 1.91475 0.394647 0
M  V30 19742 H 2044.97 3.82737 1.48125 0
M  V30 19743 H 2044.5 2.75418 2.80906 0
M  V30 19744 H 2046.52 2.84067 4.06842 0
M  V30 19745 N 2045.69 -0.62272 1.44776 0
M  V30 19746 C 2046.62 -1.74528 1.5512 0
M  V30 19747 C 2047.6 -1.65241 0.403656 0
M  V30 19748 O 2048.79 -1.83873 0.624863 0
M  V30 19749 C 2045.92 -3.13088 1.5031 0
M  V30 19750 C 2044.87 -3.37172 2.63626 0
M  V30 19751 C 2044.2 -4.75849 2.43868 0
M  V30 19752 C 2045.5 -3.28908 4.0573 0
M  V30 19753 H 2047.19 -1.66128 2.49082 0
M  V30 19754 H 2044.74 -0.797813 1.19879 0
M  V30 19755 H 2046.69 -3.91403 1.56146 0
M  V30 19756 H 2045.41 -3.22293 0.528684 0
M  V30 19757 H 2044.07 -2.61241 2.57194 0
M  V30 19758 H 2043.72 -4.81767 1.446 0
M  V30 19759 H 2043.42 -4.92921 3.19849 0
M  V30 19760 H 2044.94 -5.56383 2.51535 0
M  V30 19761 H 2046.36 -3.97117 4.13487 0
M  V30 19762 H 2044.76 -3.57513 4.8198 0
M  V30 19763 H 2045.83 -2.26581 4.28706 0
M  V30 19764 N 2047.17 -1.31814 -0.863883 0
M  V30 19765 C 2048.12 -1.19916 -1.99306 0
M  V30 19766 C 2049.11 -0.106055 -1.69068 0
M  V30 19767 O 2050.32 -0.26836 -1.77988 0
M  V30 19768 H 2046.69 -0.371464 -0.653849 0
M  V30 19769 H 2048.66 -2.15436 -2.0647 0
M  V30 19770 C 2047.41 -0.929593 -3.35043 0
M  V30 19771 H 2046.73 -1.76288 -3.58835 0
M  V30 19772 H 2048.17 -0.886553 -4.14628 0
M  V30 19773 C 2046.63 0.367677 -3.34888 0
M  V30 19774 O 2047.16 1.38252 -3.77159 0
M  V30 19775 N 2045.37 0.386376 -2.8802 0
M  V30 19776 H 2044.92 -0.439994 -2.53815 0
M  V30 19777 H 2044.87 1.25425 -2.88299 0
M  V30 19778 N 2048.65 1.07897 -1.14873 0
M  V30 19779 C 2049.9 1.79765 -0.914736 0
M  V30 19780 C 2050.21 1.87416 0.559879 0
M  V30 19781 O 2051.41 2.55749 0.911294 0
M  V30 19782 C 2049.87 3.23014 -1.58713 0
M  V30 19783 C 2049.48 3.23581 -3.09837 0
M  V30 19784 C 2051.22 3.99529 -1.43446 0
M  V30 19785 C 2049.13 4.6145 -3.69889 0
M  V30 19786 H 2048.06 0.673704 -0.338585 0
M  V30 19787 H 2050.71 1.21148 -1.37824 0
M  V30 19788 H 2049.09 3.8179 -1.05131 0
M  V30 19789 H 2050.27 2.74482 -3.7013 0
M  V30 19790 H 2048.58 2.60562 -3.24802 0
M  V30 19791 H 2051.18 5.01415 -1.85708 0
M  V30 19792 H 2051.52 4.14551 -0.381226 0
M  V30 19793 H 2052.05 3.47235 -1.94094 0
M  V30 19794 H 2048.79 4.51632 -4.75088 0
M  V30 19795 H 2048.31 5.10809 -3.14378 0
M  V30 19796 H 2049.99 5.30422 -3.70488 0
M  V30 19797 N 2050.12 0.944665 1.2615 0
M  V30 19798 C 2051.54 0.636259 1.75524 0
M  V30 19799 C 2051.89 -0.848524 1.76903 0
M  V30 19800 O 2051.01 -1.66407 1.38339 0
M  V30 19801 C 2051.61 1.14823 3.18749 0
M  V30 19802 C 2050.17 0.890177 3.65722 0
M  V30 19803 C 2049.31 1.29711 2.45093 0
M  V30 19804 H 2052.26 1.12258 1.12177 0
M  V30 19805 H 2052.28 0.503668 3.77152 0
M  V30 19806 H 2051.8 2.22889 3.17714 0
M  V30 19807 H 2049.9 -0.175952 3.72184 0
M  V30 19808 H 2050.01 1.51963 4.54361 0
M  V30 19809 H 2048.37 0.71552 2.44443 0
M  V30 19810 H 2049.16 2.38677 2.46755 0
M  V30 19811 N 2051.6 -1.40596 0.712085 0
M  V30 19812 C 2052.85 -2.00553 0.249593 0
M  V30 19813 C 2053.17 -1.56736 -1.16012 0
M  V30 19814 O 2052.44 -0.805259 -1.78584 0
M  V30 19815 H 2051.02 -0.741644 0.0892885 0
M  V30 19816 H 2053.68 -1.71984 0.916933 0
M  V30 19817 H 2052.78 -3.10842 0.279939 0
M  V30 19818 N 2053.08 -0.458013 -1.50798 0
M  V30 19819 C 2054.31 0.10185 -2.0715 0
M  V30 19820 C 2054.73 1.33899 -1.32109 0
M  V30 19821 O 2054.09 1.77589 -0.364928 0
M  V30 19822 C 2054.14 0.381979 -3.58571 0
M  V30 19823 O 2053.24 1.46484 -3.85508 0
M  V30 19824 H 2052.58 -0.00721903 -0.663961 0
M  V30 19825 H 2055.11 -0.645297 -1.94157 0
M  V30 19826 H 2055.12 0.626354 -4.03163 0
M  V30 19827 H 2053.8 -0.522121 -4.1261 0
M  V30 19828 H 2052.37 1.20881 -3.52764 0
M  V30 19829 N 2054.56 1.56449 -0.190119 0
M  V30 19830 C 2055.81 1.97438 0.449957 0
M  V30 19831 C 2056.13 1.07682 1.61972 0
M  V30 19832 O 2055.39 0.114859 1.95363 0
M  V30 19833 C 2055.69 3.44349 0.956988 0
M  V30 19834 C 2055.35 4.50792 -0.098868 0
M  V30 19835 C 2054.02 4.79625 -0.389003 0
M  V30 19836 C 2056.37 5.14795 -0.814559 0
M  V30 19837 C 2053.7 5.69754 -1.39989 0
M  V30 19838 C 2056.05 6.06017 -1.81456 0
M  V30 19839 C 2054.71 6.33209 -2.11195 0
M  V30 19840 H 2053.98 0.722476 0.164651 0
M  V30 19841 H 2056.63 1.89352 -0.286039 0
M  V30 19842 H 2054.93 3.49481 1.77116 0
M  V30 19843 H 2056.63 3.73416 1.46155 0
M  V30 19844 H 2053.22 4.2838 0.137435 0
M  V30 19845 H 2057.41 4.92615 -0.603633 0
M  V30 19846 H 2052.66 5.89098 -1.63627 0
M  V30 19847 H 2056.84 6.54672 -2.37438 0
M  V30 19848 H 2054.46 7.02847 -2.89672 0
M  V30 19849 N 2056.04 -0.0835127 1.57379 0
M  V30 19850 C 2056.98 -1.10046 2.02875 0
M  V30 19851 C 2057.95 -1.39138 0.907183 0
M  V30 19852 O 2059.14 -1.50405 1.17401 0
M  V30 19853 C 2056.28 -2.41229 2.46784 0
M  V30 19854 C 2055.39 -2.18769 3.72511 0
M  V30 19855 C 2054.53 -3.43432 4.05251 0
M  V30 19856 C 2053.57 -3.16284 5.24052 0
M  V30 19857 N 2052.7 -4.33246 5.52488 0
M  V30 19858 H 2057.54 -0.705503 2.89528 0
M  V30 19859 H 2055.08 -0.336809 1.43192 0
M  V30 19860 H 2057.04 -3.17803 2.7029 0
M  V30 19861 H 2055.67 -2.7855 1.63125 0
M  V30 19862 H 2054.72 -1.32942 3.56414 0
M  V30 19863 H 2056.03 -1.94708 4.59228 0
M  V30 19864 H 2055.19 -4.28408 4.29595 0
M  V30 19865 H 2053.93 -3.70558 3.17078 0
M  V30 19866 H 2052.93 -2.29703 4.99516 0
M  V30 19867 H 2054.16 -2.90493 6.13833 0
M  V30 19868 H 2052.1 -4.60425 4.67274 0
M  V30 19869 H 2052.02 -4.12417 6.336 0
M  V30 19870 H 2053.29 -5.19253 5.81375 0
M  V30 19871 N 2057.52 -1.53558 -0.354624 0
M  V30 19872 C 2058.76 -1.71979 -1.10466 0
M  V30 19873 C 2059.12 -0.467268 -1.86227 0
M  V30 19874 O 2060.32 -0.528325 -2.63557 0
M  V30 19875 C 2058.59 -2.94174 -2.02969 0
M  V30 19876 S 2060.15 -3.33352 -2.85345 0
M  V30 19877 H 2056.97 -0.605043 -0.373422 0
M  V30 19878 H 2059.57 -1.91682 -0.384487 0
M  V30 19879 H 2058.27 -3.83517 -1.46093 0
M  V30 19880 H 2057.81 -2.76904 -2.79442 0
M  V30 19881 H 2059.82 -2.86221 -4.05329 0
M  V30 19882 N 2058.99 0.615033 -1.45104 0
M  V30 19883 C 2060.22 1.40596 -1.52471 0
M  V30 19884 C 2060.64 1.87454 -0.155745 0
M  V30 19885 O 2060 1.59701 0.858209 0
M  V30 19886 C 2060.05 2.59156 -2.5074 0
M  V30 19887 O 2059.15 3.59538 -2.02006 0
M  V30 19888 H 2058.49 0.420045 -0.514255 0
M  V30 19889 H 2061.02 0.749208 -1.90389 0
M  V30 19890 H 2061.03 3.06496 -2.69303 0
M  V30 19891 H 2059.71 2.24399 -3.50169 0
M  V30 19892 H 2058.29 3.18897 -1.93284 0
M  V30 19893 N 2060.47 1.3227 0.85688 0
M  V30 19894 C 2061.71 1.24017 1.62478 0
M  V30 19895 C 2062.08 -0.195596 1.91001 0
M  V30 19896 O 2063.28 -0.401822 2.6578 0
M  V30 19897 C 2061.55 2.07356 2.91098 0
M  V30 19898 S 2063.11 2.16105 3.81895 0
M  V30 19899 H 2059.92 0.441493 0.557319 0
M  V30 19900 H 2062.53 1.67092 1.01492 0
M  V30 19901 H 2061.23 3.10737 2.68087 0
M  V30 19902 H 2060.76 1.65051 3.57102 0
M  V30 19903 H 2062.78 1.30893 4.78625 0
M  V30 19904 N 2061.95 -1.07287 1.15444 0
M  V30 19905 C 2063.37 -1.31993 0.897222 0
M  V30 19906 C 2063.57 -1.96286 -0.455437 0
M  V30 19907 O 2062.62 -2.22313 -1.19722 0
M  V30 19908 C 2063.93 -2.2104 2.03868 0
M  V30 19909 C 2065.48 -2.34486 2.07329 0
M  V30 19910 C 2065.96 -3.26882 3.20799 0
M  V30 19911 N 2067.45 -3.34463 3.20451 0
M  V30 19912 C 2068.18 -4.06019 4.0489 0
M  V30 19913 N 2067.68 -4.80184 4.99395 0
M  V30 19914 N 2069.47 -4.01967 3.92911 0
M  V30 19915 H 2061.62 -0.639423 2.02547 0
M  V30 19916 H 2063.89 -0.344393 0.883231 0
M  V30 19917 H 2063.59 -1.8106 3.01513 0
M  V30 19918 H 2063.47 -3.21571 1.9716 0
M  V30 19919 H 2065.85 -2.73719 1.10282 0
M  V30 19920 H 2065.93 -1.33658 2.18104 0
M  V30 19921 H 2065.58 -2.88368 4.18098 0
M  V30 19922 H 2065.51 -4.27667 3.0726 0
M  V30 19923 H 2068 -2.816 2.52012 0
M  V30 19924 H 2068.31 -5.32281 5.60265 0
M  V30 19925 H 2066.66 -4.79198 5.03383 0
M  V30 19926 H 2069.85 -3.43139 3.18392 0
M  V30 19927 H 2070.02 -4.57468 4.58942 0
M  V30 19928 N 2063.43 -0.951342 -1.25647 0
M  V30 19929 C 2064.34 -0.475416 -2.29732 0
M  V30 19930 C 2065.35 0.455617 -1.67929 0
M  V30 19931 O 2066.53 0.332666 -1.98634 0
M  V30 19932 C 2063.59 0.242274 -3.45852 0
M  V30 19933 C 2062.66 -0.726566 -4.23107 0
M  V30 19934 C 2061.89 -0.043031 -5.33683 0
M  V30 19935 O 2062.11 1.17196 -5.5823 0
M  V30 19936 O 2061.05 -0.726899 -5.97495 0
M  V30 19937 H 2064.87 -1.34027 -2.72526 0
M  V30 19938 H 2062.46 -0.717655 -1.31035 0
M  V30 19939 H 2064.34 0.646132 -4.16417 0
M  V30 19940 H 2063.01 1.08236 -3.05068 0
M  V30 19941 H 2061.92 -1.18057 -3.54984 0
M  V30 19942 H 2063.25 -1.53457 -4.67666 0
M  V30 19943 N 2064.91 1.40216 -0.719531 0
M  V30 19944 C 2066.15 2.00418 -0.260225 0
M  V30 19945 C 2066.47 1.57349 1.15179 0
M  V30 19946 O 2065.74 0.814718 1.78155 0
M  V30 19947 H 2064.32 0.741161 -0.0932204 0
M  V30 19948 H 2066.99 1.71495 -0.926041 0
M  V30 19949 H 2066.08 3.10689 -0.29642 0
M  V30 19950 N 2066.38 0.466004 1.50553 0
M  V30 19951 C 2067.63 -0.0830139 2.03231 0
M  V30 19952 C 2067.98 -1.37862 1.34209 0
M  V30 19953 O 2067.28 -1.86064 0.457247 0
M  V30 19954 C 2067.47 -0.32772 3.55894 0
M  V30 19955 C 2067.3 0.942614 4.3971 0
M  V30 19956 C 2066.07 1.48445 4.83003 0
M  V30 19957 C 2068.27 1.83663 4.80388 0
M  V30 19958 N 2066.25 2.70434 5.51125 0
M  V30 19959 C 2067.62 2.90242 5.47868 0
M  V30 19960 C 2069.68 1.84762 4.6235 0
M  V30 19961 C 2068.38 3.97902 5.99222 0
M  V30 19962 C 2070.41 2.91375 5.1464 0
M  V30 19963 C 2069.77 3.96673 5.82091 0
M  V30 19964 H 2065.87 0.00952102 0.781942 0
M  V30 19965 H 2068.45 0.633077 1.8412 0
M  V30 19966 H 2066.62 -1.01285 3.74961 0
M  V30 19967 H 2068.35 -0.870629 3.95224 0
M  V30 19968 H 2065.11 1.03435 4.62167 0
M  V30 19969 H 2065.53 3.32371 5.89796 0
M  V30 19970 H 2070.17 1.04674 4.09638 0
M  V30 19971 H 2067.89 4.7881 6.50973 0
M  V30 19972 H 2071.48 2.93203 5.02517 0
M  V30 19973 H 2070.36 4.77812 6.21824 0
M  V30 19974 N 2067.86 -1.56346 0.198413 0
M  V30 19975 C 2069.11 -1.96849 -0.439713 0
M  V30 19976 C 2069.42 -1.08829 -1.62529 0
M  V30 19977 O 2070.63 -1.39128 -2.33143 0
M  V30 19978 C 2069.09 -3.50111 -0.83369 0
M  V30 19979 C 2068.69 -4.46799 0.327785 0
M  V30 19980 C 2070.44 -3.99376 -1.43871 0
M  V30 19981 C 2068.34 -5.91336 -0.0873357 0
M  V30 19982 H 2067.27 -0.735034 -0.168052 0
M  V30 19983 H 2069.93 -1.81179 0.290957 0
M  V30 19984 H 2068.31 -3.61297 -1.62112 0
M  V30 19985 H 2069.48 -4.47347 1.10532 0
M  V30 19986 H 2067.8 -4.07746 0.844522 0
M  V30 19987 H 2070.39 -5.04841 -1.76181 0
M  V30 19988 H 2070.74 -3.43877 -2.34637 0
M  V30 19989 H 2071.27 -3.91318 -0.715186 0
M  V30 19990 H 2068.01 -6.50768 0.786222 0
M  V30 19991 H 2067.53 -5.94034 -0.829663 0
M  V30 19992 H 2069.21 -6.44891 -0.522002 0
M  V30 19993 N 2069.34 0.0751653 -1.57421 0
M  V30 19994 C 2070.59 0.773427 -1.86715 0
M  V30 19995 C 2070.91 1.78283 -0.789938 0
M  V30 19996 O 2070.18 1.95055 0.18176 0
M  V30 19997 H 2068.76 0.288632 -0.688985 0
M  V30 19998 H 2071.42 0.0520552 -1.9483 0
M  V30 19999 H 2070.52 1.29172 -2.84114 0
M  V30 20000 N 2070.82 1.53744 0.346476 0
M  V30 20001 C 2071.77 1.82222 1.44561 0
M  V30 20002 C 2072.76 0.69251 1.54598 0
M  V30 20003 O 2073.97 0.875797 1.57257 0
M  V30 20004 H 2070.34 0.577261 0.481948 0
M  V30 20005 H 2072.31 2.74183 1.17755 0
M  V30 20006 C 2071.06 2.04604 2.81127 0
M  V30 20007 H 2070.38 2.90983 2.74169 0
M  V30 20008 H 2071.82 2.28497 3.57162 0
M  V30 20009 C 2070.28 0.830699 3.26498 0
M  V30 20010 O 2070.81 0.0286844 4.0169 0
M  V30 20011 N 2069.02 0.648746 2.83266 0
M  V30 20012 H 2068.57 1.30257 2.22241 0
M  V30 20013 H 2068.52 -0.162972 3.13977 0
M  V30 20014 N 2072.3 -0.607329 1.45428 0
M  V30 20015 C 2073.54 -1.36363 1.49163 0
M  V30 20016 C 2073.87 -1.94533 0.134827 0
M  V30 20017 O 2073.14 -1.77174 -0.835838 0
M  V30 20018 H 2071.72 -0.506225 0.549314 0
M  V30 20019 H 2074.38 -0.713138 1.81385 0
M  V30 20020 H 2073.47 -2.18292 2.23058 0
M  V30 20021 N 2073.77 -1.32722 -0.849853 0
M  V30 20022 C 2075.02 -1.22908 -1.59927 0
M  V30 20023 C 2075.34 0.206455 -1.94507 0
M  V30 20024 O 2076.54 0.426508 -2.68129 0
M  V30 20025 C 2075 -2.15292 -2.88405 0
M  V30 20026 C 2074.61 -3.63954 -2.6123 0
M  V30 20027 C 2076.35 -2.14325 -3.66422 0
M  V30 20028 C 2074.26 -4.48286 -3.85738 0
M  V30 20029 H 2073.19 -0.456463 -0.600132 0
M  V30 20030 H 2075.84 -1.57715 -0.937993 0
M  V30 20031 H 2074.22 -1.73406 -3.56015 0
M  V30 20032 H 2075.39 -4.14213 -2.01901 0
M  V30 20033 H 2073.71 -3.67101 -1.96535 0
M  V30 20034 H 2076.31 -2.74566 -4.58822 0
M  V30 20035 H 2076.65 -1.13547 -4.00516 0
M  V30 20036 H 2077.18 -2.54517 -3.05722 0
M  V30 20037 H 2073.92 -5.49897 -3.56782 0
M  V30 20038 H 2073.44 -4.02776 -4.44446 0
M  V30 20039 H 2075.12 -4.61531 -4.53429 0
M  V30 20040 N 2075.25 1.06673 -1.16011 0
M  V30 20041 C 2076.2 2.14051 -0.863174 0
M  V30 20042 C 2077.17 1.65046 0.186783 0
M  V30 20043 O 2078.35 1.90727 0.0528262 0
M  V30 20044 C 2075.49 3.43152 -0.366184 0
M  V30 20045 C 2074.61 4.05911 -1.47852 0
M  V30 20046 C 2073.74 5.22872 -0.936942 0
M  V30 20047 C 2072.78 5.77607 -2.02574 0
M  V30 20048 N 2071.92 6.85889 -1.50004 0
M  V30 20049 H 2076.76 2.38791 -1.78277 0
M  V30 20050 H 2074.3 1.17165 -0.889421 0
M  V30 20051 H 2076.25 4.17157 -0.0596984 0
M  V30 20052 H 2074.88 3.18641 0.516479 0
M  V30 20053 H 2073.94 3.29491 -1.90105 0
M  V30 20054 H 2075.25 4.42592 -2.3003 0
M  V30 20055 H 2074.4 6.03888 -0.583409 0
M  V30 20056 H 2073.14 4.87627 -0.0844157 0
M  V30 20057 H 2072.15 4.95231 -2.38802 0
M  V30 20058 H 2073.37 6.14905 -2.88217 0
M  V30 20059 H 2071.32 6.5257 -0.669982 0
M  V30 20060 H 2071.23 7.21491 -2.25802 0
M  V30 20061 H 2072.5 7.70594 -1.17496 0
M  V30 20062 N 2076.73 0.957992 1.25141 0
M  V30 20063 C 2077.97 0.622306 1.94696 0
M  V30 20064 C 2078.33 -0.825845 1.73331 0
M  V30 20065 O 2079.54 -1.27128 2.36837 0
M  V30 20066 C 2077.81 0.975207 3.43838 0
M  V30 20067 S 2079.37 0.752603 4.32298 0
M  V30 20068 H 2076.18 0.228622 0.673241 0
M  V30 20069 H 2078.79 1.23288 1.51724 0
M  V30 20070 H 2077.49 2.02624 3.56892 0
M  V30 20071 H 2077.02 0.355017 3.91795 0
M  V30 20072 H 2079.04 -0.374938 4.94781 0
M  V30 20073 N 2078.21 -1.39832 0.726957 0
M  V30 20074 C 2079.46 -1.99907 0.268315 0
M  V30 20075 C 2079.77 -1.58329 -1.14854 0
M  V30 20076 O 2080.98 -2.11183 -1.70628 0
M  V30 20077 C 2079.43 -3.57337 0.428781 0
M  V30 20078 C 2079.04 -4.07882 1.853 0
M  V30 20079 C 2080.78 -4.24488 0.031508 0
M  V30 20080 C 2078.69 -5.57856 1.96344 0
M  V30 20081 H 2077.62 -0.747791 0.0965646 0
M  V30 20082 H 2080.27 -1.59931 0.899682 0
M  V30 20083 H 2078.65 -3.95069 -0.271354 0
M  V30 20084 H 2079.83 -3.81502 2.58444 0
M  V30 20085 H 2078.14 -3.53366 2.20276 0
M  V30 20086 H 2080.74 -5.34619 0.0931531 0
M  V30 20087 H 2081.08 -4.0381 -1.01209 0
M  V30 20088 H 2081.62 -3.91901 0.682503 0
M  V30 20089 H 2078.36 -5.83404 2.98865 0
M  V30 20090 H 2077.88 -5.86064 1.27627 0
M  V30 20091 H 2079.55 -6.2314 1.74085 0
M  V30 20092 N 2079.69 -0.473982 -1.50304 0
M  V30 20093 C 2080.96 0.141727 -1.95086 0
M  V30 20094 C 2081.34 1.56703 -1.41447 0
M  V30 20095 O 2080.69 2.20021 -0.616691 0
M  V30 20096 C 2080.9 0.0820815 -3.48903 0
M  V30 20097 C 2082.25 0.26953 -4.23744 0
M  V30 20098 O 2083.27 0.158532 -3.55847 0
M  V30 20099 O 2082.13 0.494023 -5.44262 0
M  V30 20100 H 2079.23 0.110094 -0.819639 0
M  V30 20101 H 2081.77 -0.534591 -1.6106 0
M  V30 20102 H 2080.54 -0.912936 -3.80501 0
M  V30 20103 H 2080.17 0.799731 -3.89474 0
M  V30 20104 N 2081.16 1.56239 -0.206702 0
M  V30 20105 C 2082.09 2.2262 0.704446 0
M  V30 20106 C 2083.08 1.19305 1.21245 0
M  V30 20107 O 2084.26 1.47846 1.25917 0
M  V30 20108 C 2081.39 2.89459 1.91913 0
M  V30 20109 C 2080.34 3.99119 1.54558 0
M  V30 20110 C 2079.67 4.53179 2.83783 0
M  V30 20111 C 2080.97 5.16934 0.746749 0
M  V30 20112 H 2082.66 2.99019 0.151028 0
M  V30 20113 H 2080.21 1.43824 0.0712004 0
M  V30 20114 H 2082.16 3.34584 2.56186 0
M  V30 20115 H 2080.89 2.10484 2.49728 0
M  V30 20116 H 2079.55 3.54702 0.926381 0
M  V30 20117 H 2079.19 3.70952 3.39711 0
M  V30 20118 H 2078.89 5.2718 2.59528 0
M  V30 20119 H 2080.42 5.01013 3.49024 0
M  V30 20120 H 2081.83 5.58532 1.29284 0
M  V30 20121 H 2080.23 5.97074 0.601876 0
M  V30 20122 H 2081.3 4.84256 -0.249783 0
M  V30 20123 N 2082.64 -0.0668159 1.57458 0
M  V30 20124 C 2083.92 -0.798309 1.78568 0
M  V30 20125 C 2084.3 -1.95537 0.79552 0
M  V30 20126 O 2083.65 -2.27864 -0.170331 0
M  V30 20127 C 2083.86 -1.26662 3.25204 0
M  V30 20128 C 2085.21 -1.69798 3.89171 0
M  V30 20129 O 2086.23 -1.36216 3.29125 0
M  V30 20130 O 2085.09 -2.31989 4.94817 0
M  V30 20131 H 2082.18 -0.382924 0.733006 0
M  V30 20132 H 2084.73 -0.0465065 1.69636 0
M  V30 20133 H 2083.5 -0.438929 3.8883 0
M  V30 20134 H 2083.12 -2.07959 3.38879 0
M  V30 20135 N 2084.12 -1.53926 -0.338317 0
M  V30 20136 C 2085.03 -1.85282 -1.43902 0
M  V30 20137 C 2086.05 -0.743407 -1.5732 0
M  V30 20138 O 2087.22 -1.03624 -1.72697 0
M  V30 20139 C 2084.29 -2.06058 -2.78821 0
M  V30 20140 C 2083.35 -3.29903 -2.74704 0
M  V30 20141 C 2082.58 -3.49679 -4.03188 0
M  V30 20142 O 2082.81 -2.73186 -5.00725 0
M  V30 20143 O 2081.74 -4.43121 -4.07342 0
M  V30 20144 H 2085.57 -2.78849 -1.2032 0
M  V30 20145 H 2083.15 -1.39646 -0.530982 0
M  V30 20146 H 2085.03 -2.21138 -3.58714 0
M  V30 20147 H 2083.71 -1.15679 -3.02325 0
M  V30 20148 H 2082.61 -3.20222 -1.93413 0
M  V30 20149 H 2083.95 -4.20292 -2.56155 0
M  V30 20150 N 2085.6 0.599608 -1.45748 0
M  V30 20151 C 2086.84 1.36961 -1.51727 0
M  V30 20152 C 2087.2 1.91347 -0.158221 0
M  V30 20153 O 2088.4 2.6864 -0.0927187 0
M  V30 20154 C 2086.68 2.48104 -2.57253 0
M  V30 20155 S 2088.23 3.35754 -2.82515 0
M  V30 20156 H 2085.05 0.466839 -0.536267 0
M  V30 20157 H 2087.65 0.691067 -1.82878 0
M  V30 20158 H 2086.36 2.06513 -3.54656 0
M  V30 20159 H 2085.89 3.2075 -2.27778 0
M  V30 20160 H 2087.9 4.46478 -2.165 0
M  V30 20161 N 2087.08 1.33171 0.842803 0
M  V30 20162 C 2088.3 1.27579 1.63519 0
M  V30 20163 C 2088.73 -0.151151 1.87492 0
M  V30 20164 O 2088.09 -1.10648 1.4362 0
M  V30 20165 C 2088.13 2.05261 2.9648 0
M  V30 20166 O 2087.24 1.40852 3.87601 0
M  V30 20167 H 2086.58 0.439106 0.498078 0
M  V30 20168 H 2089.11 1.75672 1.04883 0
M  V30 20169 H 2089.12 2.15879 3.46209 0
M  V30 20170 H 2087.79 3.09018 2.78354 0
M  V30 20171 H 2086.37 1.38855 3.46083 0
M  V30 20172 N 2088.56 -1.06056 1.16576 0
M  V30 20173 C 2089.5 -2.15694 0.87056 0
M  V30 20174 C 2090.5 -1.6863 -0.161341 0
M  V30 20175 O 2091.7 -1.79994 -0.0150963 0
M  V30 20176 H 2088.08 -0.704161 0.263934 0
M  V30 20177 H 2090.05 -2.37802 1.80258 0
M  V30 20178 C 2088.8 -3.45498 0.390729 0
M  V30 20179 H 2088.12 -3.82107 1.17619 0
M  V30 20180 H 2089.56 -4.23413 0.222977 0
M  V30 20181 C 2088.02 -3.24928 -0.890131 0
M  V30 20182 O 2088.55 -3.50702 -1.95886 0
M  V30 20183 N 2086.76 -2.7835 -0.834838 0
M  V30 20184 H 2086.3 -2.57576 0.0350662 0
M  V30 20185 H 2086.26 -2.64967 -1.69233 0
M  V30 20186 N 2090.03 -0.964615 -1.24631 0
M  V30 20187 C 2091.28 -0.623582 -1.92239 0
M  V30 20188 C 2091.6 0.843493 -1.75813 0
M  V30 20189 O 2090.87 1.60179 -1.12781 0
M  V30 20190 H 2089.45 -0.227644 -0.711468 0
M  V30 20191 H 2092.11 -1.22502 -1.51589 0
M  V30 20192 H 2091.21 -0.861514 -2.99974 0
M  V30 20193 N 2091.51 1.39445 -0.734362 0
M  V30 20194 C 2092.74 2.04826 -0.29225 0
M  V30 20195 C 2093.15 1.55366 1.0727 0
M  V30 20196 O 2092.51 0.718282 1.67771 0
M  V30 20197 C 2092.56 3.6038 -0.2843 0
M  V30 20198 O 2092.28 4.08019 -1.59536 0
M  V30 20199 C 2093.78 4.42958 0.174058 0
M  V30 20200 H 2091 0.658705 -0.127861 0
M  V30 20201 H 2093.55 1.78504 -0.997833 0
M  V30 20202 H 2091.7 3.85606 0.372391 0
M  V30 20203 H 2092.12 5.02339 -1.50849 0
M  V30 20204 H 2093.59 5.5185 0.128462 0
M  V30 20205 H 2094.07 4.21941 1.21913 0
M  V30 20206 H 2094.67 4.2288 -0.453043 0
M  V30 20207 N 2092.99 0.481946 1.5005 0
M  V30 20208 C 2093.94 -0.325422 2.25666 0
M  V30 20209 C 2094.92 -0.952113 1.29706 0
M  V30 20210 O 2096.12 -0.862865 1.54543 0
M  V30 20211 C 2093.24 -1.40052 3.13433 0
M  V30 20212 C 2092.33 -0.781026 4.16846 0
M  V30 20213 N 2092.72 0.105108 5.05691 0
M  V30 20214 C 2091.02 -1.04376 4.33615 0
M  V30 20215 C 2091.72 0.457801 5.79896 0
M  V30 20216 N 2090.7 -0.169673 5.43335 0
M  V30 20217 H 2094.5 0.357033 2.91723 0
M  V30 20218 H 2092.01 0.296785 1.59665 0
M  V30 20219 H 2094.01 -1.9922 3.6622 0
M  V30 20220 H 2092.67 -2.08486 2.48925 0
M  V30 20221 H 2093.68 0.474672 5.1572 0
M  V30 20222 H 2090.36 -1.72227 3.80321 0
M  V30 20223 H 2091.75 1.18162 6.61428 0
M  V30 20224 N 2094.47 -1.56127 0.214985 0
M  V30 20225 C 2095.4 -2.17263 -0.730035 0
M  V30 20226 C 2096.41 -1.13988 -1.16235 0
M  V30 20227 O 2097.6 -1.40996 -1.09464 0
M  V30 20228 C 2094.7 -2.73608 -1.99979 0
M  V30 20229 C 2093.87 -4.01988 -1.72409 0
M  V30 20230 C 2092.93 -4.42962 -2.84026 0
M  V30 20231 O 2091.96 -5.09992 -2.52778 0
M  V30 20232 N 2093.16 -4.08103 -4.12834 0
M  V30 20233 H 2095.93 -2.98984 -0.207112 0
M  V30 20234 H 2093.49 -1.61865 0.0337349 0
M  V30 20235 H 2095.48 -2.97994 -2.73828 0
M  V30 20236 H 2094.05 -1.96229 -2.43337 0
M  V30 20237 H 2093.27 -3.85527 -0.822372 0
M  V30 20238 H 2094.56 -4.85749 -1.51411 0
M  V30 20239 H 2093.96 -3.54226 -4.41067 0
M  V30 20240 H 2092.51 -4.37396 -4.83248 0
M  V30 20241 N 2095.95 0.0584645 -1.57492 0
M  V30 20242 C 2097.19 0.760259 -1.89735 0
M  V30 20243 C 2097.55 1.74063 -0.810311 0
M  V30 20244 O 2098.75 2.48851 -1.0162 0
M  V30 20245 C 2097.02 1.43807 -3.27191 0
M  V30 20246 S 2098.58 2.17309 -3.81211 0
M  V30 20247 H 2095.4 0.252532 -0.664642 0
M  V30 20248 H 2098 0.0158457 -1.95494 0
M  V30 20249 H 2096.7 0.710924 -4.04196 0
M  V30 20250 H 2096.24 2.22165 -3.24664 0
M  V30 20251 H 2098.25 3.44032 -3.5757 0
M  V30 20252 N 2097.42 1.54103 0.330149 0
M  V30 20253 C 2098.65 1.76264 1.09297 0
M  V30 20254 C 2099.07 0.5067 1.81147 0
M  V30 20255 O 2098.43 -0.541409 1.73027 0
M  V30 20256 C 2098.48 2.95141 2.07181 0
M  V30 20257 O 2097.58 2.66226 3.14956 0
M  V30 20258 H 2096.92 0.584284 0.31545 0
M  V30 20259 H 2099.45 2.01107 0.376453 0
M  V30 20260 H 2099.46 3.22305 2.50167 0
M  V30 20261 H 2098.14 3.86224 1.54285 0
M  V30 20262 H 2096.72 2.49992 2.76692 0
M  V30 20263 N 2098.9 -0.59187 1.46064 0
M  V30 20264 C 2100.15 -1.34657 1.50168 0
M  V30 20265 C 2100.46 -1.94993 0.153981 0
M  V30 20266 O 2101.67 -2.71402 0.0727633 0
M  V30 20267 C 2100.13 -2.44 2.6456 0
M  V30 20268 C 2099.73 -1.90007 4.05711 0
M  V30 20269 C 2101.48 -3.2087 2.77926 0
M  V30 20270 C 2099.39 -2.96925 5.11458 0
M  V30 20271 H 2098.32 -0.506178 0.558838 0
M  V30 20272 H 2100.97 -0.632651 1.72249 0
M  V30 20273 H 2099.35 -3.18149 2.35791 0
M  V30 20274 H 2100.52 -1.22462 4.44229 0
M  V30 20275 H 2098.84 -1.25833 3.96932 0
M  V30 20276 H 2101.43 -4.00647 3.54099 0
M  V30 20277 H 2101.78 -3.72878 1.85115 0
M  V30 20278 H 2102.31 -2.53825 3.06296 0
M  V30 20279 H 2099.05 -2.49815 6.0603 0
M  V30 20280 H 2098.57 -3.62987 4.77494 0
M  V30 20281 H 2100.25 -3.61036 5.369 0
M  V30 20282 N 2100.38 -1.33616 -0.835729 0
M  V30 20283 C 2101.33 -1.24117 -1.96717 0
M  V30 20284 C 2102.32 -0.141892 -1.68805 0
M  V30 20285 O 2103.53 -0.306054 -1.77379 0
M  V30 20286 H 2099.9 -0.385249 -0.645823 0
M  V30 20287 H 2101.87 -2.19767 -2.01854 0
M  V30 20288 C 2100.62 -1.00045 -3.32996 0
M  V30 20289 H 2099.95 -1.8386 -3.55015 0
M  V30 20290 H 2101.39 -0.974302 -4.12654 0
M  V30 20291 C 2099.85 0.296559 -3.35592 0
M  V30 20292 O 2100.38 1.30221 -3.80007 0
M  V30 20293 N 2098.58 0.325196 -2.88775 0
M  V30 20294 H 2098.13 -0.493733 -2.52824 0
M  V30 20295 H 2098.09 1.19281 -2.90894 0
M  V30 20296 N 2101.86 1.05436 -1.17136 0
M  V30 20297 C 2102.82 2.11293 -0.888146 0
M  V30 20298 C 2103.82 1.60347 0.120621 0
M  V30 20299 O 2105.01 1.73844 -0.111266 0
M  V30 20300 C 2102.14 3.393 -0.329871 0
M  V30 20301 H 2103.34 2.3785 -1.82667 0
M  V30 20302 H 2100.89 1.21641 -0.981486 0
M  V30 20303 H 2101.62 3.18397 0.61592 0
M  V30 20304 H 2101.41 3.77588 -1.05687 0
M  V30 20305 H 2102.9 4.17331 -0.149954 0
M  V30 20306 N 2103.34 0.971211 1.24118 0
M  V30 20307 C 2104.27 0.462026 2.24495 0
M  V30 20308 C 2105.28 -0.431143 1.56987 0
M  V30 20309 O 2106.47 -0.236754 1.76923 0
M  V30 20310 C 2103.57 -0.351913 3.37068 0
M  V30 20311 C 2102.74 0.532187 4.3415 0
M  V30 20312 C 2101.8 -0.22634 5.25713 0
M  V30 20313 O 2100.83 0.380923 5.67924 0
M  V30 20314 N 2102.03 -1.51493 5.60384 0
M  V30 20315 H 2104.8 1.32507 2.68816 0
M  V30 20316 H 2102.36 0.843431 1.38195 0
M  V30 20317 H 2104.35 -0.867478 3.95293 0
M  V30 20318 H 2102.92 -1.1159 2.92004 0
M  V30 20319 H 2102.14 1.22869 3.74562 0
M  V30 20320 H 2103.43 1.13503 4.95978 0
M  V30 20321 H 2102.82 -2.02997 5.28023 0
M  V30 20322 H 2101.38 -1.97612 6.21122 0
M  V30 20323 N 2104.81 -1.39054 0.741747 0
M  V30 20324 C 2106.05 -2.02225 0.297424 0
M  V30 20325 C 2106.42 -1.57595 -1.09671 0
M  V30 20326 O 2107.62 -2.13012 -1.63949 0
M  V30 20327 C 2105.89 -3.55119 0.403106 0
M  V30 20328 S 2107.45 -4.38782 0.0396187 0
M  V30 20329 H 2104.27 -0.701457 0.116102 0
M  V30 20330 H 2106.87 -1.69753 0.969753 0
M  V30 20331 H 2105.57 -3.85091 1.41892 0
M  V30 20332 H 2105.1 -3.92353 -0.286813 0
M  V30 20333 H 2107.12 -4.82099 -1.17452 0
M  V30 20334 N 2106.29 -0.489897 -1.49792 0
M  V30 20335 C 2107.54 0.0586308 -2.02715 0
M  V30 20336 C 2107.87 1.37665 -1.36974 0
M  V30 20337 O 2107.15 1.87919 -0.501679 0
M  V30 20338 C 2107.43 0.222812 -3.5941 0
M  V30 20339 C 2107.28 -1.11755 -4.35696 0
M  V30 20340 C 2108.6 0.96865 -4.29308 0
M  V30 20341 H 2105.72 0.0198337 -0.736733 0
M  V30 20342 H 2108.36 -0.639149 -1.78927 0
M  V30 20343 H 2106.51 0.81714 -3.79809 0
M  V30 20344 H 2108.18 -1.74991 -4.26821 0
M  V30 20345 H 2106.43 -1.70959 -3.98692 0
M  V30 20346 H 2107.1 -0.956105 -5.43657 0
M  V30 20347 H 2109.57 0.464706 -4.13497 0
M  V30 20348 H 2108.45 1.05235 -5.38718 0
M  V30 20349 H 2108.71 2.00975 -3.93778 0
M  V30 20350 N 2107.77 1.56011 -0.223262 0
M  V30 20351 C 2108.72 2.21735 0.702604 0
M  V30 20352 C 2109.71 1.19729 1.19839 0
M  V30 20353 O 2110.92 1.37804 1.15802 0
M  V30 20354 H 2107.29 0.71097 0.245002 0
M  V30 20355 H 2109.26 2.98139 0.124869 0
M  V30 20356 C 2108.01 2.91245 1.89925 0
M  V30 20357 H 2107.34 3.69496 1.52686 0
M  V30 20358 H 2108.78 3.4063 2.52482 0
M  V30 20359 C 2107.24 1.9381 2.75571 0
M  V30 20360 O 2107.77 1.45612 3.74379 0
M  V30 20361 N 2105.97 1.61422 2.41643 0
M  V30 20362 H 2105.52 2.00811 1.61347 0
M  V30 20363 H 2105.48 0.964905 2.99227 0
M  V30 20364 N 2109.25 -0.0501116 1.5752 0
M  V30 20365 C 2110.48 -0.757437 1.92537 0
M  V30 20366 C 2110.89 -1.70005 0.821205 0
M  V30 20367 O 2110.25 -1.81356 -0.203983 0
M  V30 20368 C 2110.3 -1.53258 3.27405 0
M  V30 20369 O 2110.02 -0.627828 4.33578 0
M  V30 20370 C 2111.52 -2.33896 3.76573 0
M  V30 20371 H 2108.74 -0.21413 0.635916 0
M  V30 20372 H 2111.29 -0.01391 2.04495 0
M  V30 20373 H 2109.44 -2.22818 3.16909 0
M  V30 20374 H 2109.85 -1.16918 5.11303 0
M  V30 20375 H 2111.33 -2.83709 4.73511 0
M  V30 20376 H 2111.81 -3.14389 3.06685 0
M  V30 20377 H 2112.41 -1.69451 3.90085 0
M  V30 20378 N 2110.73 -1.54276 -0.321972 0
M  V30 20379 C 2112.14 -1.63778 -0.896309 0
M  V30 20380 C 2112.49 -0.532871 -1.88825 0
M  V30 20381 O 2111.61 0.33397 -2.13807 0
M  V30 20382 C 2112.21 -2.96878 -1.63245 0
M  V30 20383 C 2110.77 -3.0857 -2.15549 0
M  V30 20384 C 2109.91 -2.59353 -0.981385 0
M  V30 20385 H 2112.87 -1.58388 -0.0995121 0
M  V30 20386 H 2112.89 -2.87127 -2.49677 0
M  V30 20387 H 2112.4 -3.77274 -0.910251 0
M  V30 20388 H 2110.5 -2.32851 -2.9088 0
M  V30 20389 H 2110.61 -4.14398 -2.4044 0
M  V30 20390 H 2108.98 -2.15288 -1.361 0
M  V30 20391 H 2109.76 -3.42209 -0.273477 0
M  V30 20392 N 2112.2 0.584116 -1.46376 0
M  V30 20393 C 2113.45 1.33973 -1.51313 0
M  V30 20394 C 2113.77 1.94294 -0.165758 0
M  V30 20395 O 2113.04 1.78481 0.807546 0
M  V30 20396 H 2111.62 0.497422 -0.557298 0
M  V30 20397 H 2114.29 0.684191 -1.82496 0
M  V30 20398 H 2113.38 2.14716 -2.26503 0
M  V30 20399 N 2113.68 1.34058 0.828631 0
M  V30 20400 C 2114.91 1.29306 1.62156 0
M  V30 20401 C 2115.33 -0.131256 1.87641 0
M  V30 20402 O 2114.69 -1.09118 1.44786 0
M  V30 20403 C 2114.74 2.08394 2.94286 0
M  V30 20404 O 2113.84 1.44955 3.86085 0
M  V30 20405 H 2113.18 0.444364 0.493393 0
M  V30 20406 H 2115.71 1.76775 1.03014 0
M  V30 20407 H 2115.72 2.19539 3.43899 0
M  V30 20408 H 2114.4 3.11953 2.7506 0
M  V30 20409 H 2112.98 1.42518 3.44591 0
M  V30 20410 N 2115.16 -1.04814 1.17694 0
M  V30 20411 C 2116.39 -1.81287 0.990891 0
M  V30 20412 C 2116.8 -1.83422 -0.464018 0
M  V30 20413 O 2116.14 -1.2629 -1.33403 0
M  V30 20414 C 2116.2 -3.28516 1.46005 0
M  V30 20415 C 2115.87 -3.50056 2.93785 0
M  V30 20416 C 2116.87 -3.41866 3.91693 0
M  V30 20417 C 2114.55 -3.76896 3.32046 0
M  V30 20418 C 2116.54 -3.60206 5.25861 0
M  V30 20419 C 2114.23 -3.94884 4.66379 0
M  V30 20420 C 2115.23 -3.86539 5.63095 0
M  V30 20421 O 2114.92 -4.04021 6.94998 0
M  V30 20422 H 2114.65 -0.577989 0.350578 0
M  V30 20423 H 2117.2 -1.3304 1.56491 0
M  V30 20424 H 2115.43 -3.77696 0.829622 0
M  V30 20425 H 2117.12 -3.86525 1.23908 0
M  V30 20426 H 2117.89 -3.21104 3.6348 0
M  V30 20427 H 2113.77 -3.82493 2.57332 0
M  V30 20428 H 2117.31 -3.53609 6.01337 0
M  V30 20429 H 2113.21 -4.15139 4.94297 0
M  V30 20430 H 2113.98 -4.21225 7.01792 0
M  V30 20431 N 2116.64 -0.977779 -1.23601 0
M  V30 20432 C 2118.06 -0.685968 -1.44106 0
M  V30 20433 C 2118.26 0.748759 -1.87072 0
M  V30 20434 O 2117.31 1.5215 -2.01511 0
M  V30 20435 C 2118.62 -1.67866 -2.49482 0
M  V30 20436 C 2120.17 -1.69241 -2.63299 0
M  V30 20437 C 2120.65 -2.67334 -3.71883 0
M  V30 20438 N 2122.14 -2.65836 -3.79322 0
M  V30 20439 C 2122.87 -3.38406 -4.62892 0
M  V30 20440 N 2122.37 -4.20527 -5.50571 0
M  V30 20441 N 2124.16 -3.27183 -4.57064 0
M  V30 20442 H 2116.31 -1.90461 -0.940129 0
M  V30 20443 H 2118.58 -0.820555 -0.474756 0
M  V30 20444 H 2118.28 -2.70457 -2.24824 0
M  V30 20445 H 2118.16 -1.45942 -3.47823 0
M  V30 20446 H 2120.54 -0.673554 -2.8731 0
M  V30 20447 H 2120.62 -1.95231 -1.65283 0
M  V30 20448 H 2120.27 -3.6936 -3.4862 0
M  V30 20449 H 2120.2 -2.38619 -4.69434 0
M  V30 20450 H 2122.69 -2.06236 -3.16662 0
M  V30 20451 H 2123 -4.72763 -6.11322 0
M  V30 20452 H 2121.35 -4.24619 -5.50203 0
M  V30 20453 H 2124.54 -2.62481 -3.87584 0
M  V30 20454 H 2124.71 -3.84001 -5.21965 0
M  V30 20455 N 2118.12 1.38658 -0.749111 0
M  V30 20456 C 2119.36 2.02064 -0.308144 0
M  V30 20457 C 2119.72 1.58175 1.08834 0
M  V30 20458 O 2120.92 2.13879 1.62817 0
M  V30 20459 C 2119.19 3.54901 -0.421933 0
M  V30 20460 S 2120.75 4.38755 -0.0628878 0
M  V30 20461 H 2117.57 0.700831 -0.119821 0
M  V30 20462 H 2120.17 1.69236 -0.978742 0
M  V30 20463 H 2118.88 3.84333 -1.43933 0
M  V30 20464 H 2118.41 3.925 0.266002 0
M  V30 20465 H 2120.42 4.82715 1.14894 0
M  V30 20466 N 2119.6 0.497834 1.49531 0
M  V30 20467 C 2120.56 -0.27122 2.2759 0
M  V30 20468 C 2121.56 -0.89678 1.33471 0
M  V30 20469 O 2122.75 -0.761804 1.56659 0
M  V30 20470 C 2119.88 -1.38885 3.11326 0
M  V30 20471 H 2121.07 0.413704 2.97033 0
M  V30 20472 H 2118.63 0.252699 1.54244 0
M  V30 20473 H 2119.36 -2.10802 2.46441 0
M  V30 20474 H 2119.15 -0.94578 3.80523 0
M  V30 20475 H 2120.64 -1.93065 3.70291 0
M  V30 20476 N 2121.07 -1.5589 0.231532 0
M  V30 20477 C 2122.31 -2.00464 -0.399177 0
M  V30 20478 C 2122.68 -1.11596 -1.56238 0
M  V30 20479 O 2123.88 -1.4556 -2.25977 0
M  V30 20480 C 2122.15 -3.48025 -0.813243 0
M  V30 20481 S 2123.71 -4.14615 -1.43665 0
M  V30 20482 H 2120.53 -0.699696 -0.126279 0
M  V30 20483 H 2123.13 -1.92465 0.343163 0
M  V30 20484 H 2121.83 -4.10378 0.0428651 0
M  V30 20485 H 2121.36 -3.59919 -1.58815 0
M  V30 20486 H 2123.38 -4.14629 -2.72575 0
M  V30 20487 N 2122.55 0.0417572 -1.57545 0
M  V30 20488 C 2123.78 0.750955 -1.93327 0
M  V30 20489 C 2124.2 1.68773 -0.830508 0
M  V30 20490 O 2123.56 1.80024 0.214702 0
M  V30 20491 C 2123.61 1.49503 -3.28148 0
M  V30 20492 O 2122.71 2.60754 -3.19501 0
M  V30 20493 H 2122.05 0.202874 -0.632248 0
M  V30 20494 H 2124.58 0.00102047 -2.046 0
M  V30 20495 H 2124.59 1.86775 -3.62738 0
M  V30 20496 H 2123.27 0.80791 -4.07977 0
M  V30 20497 H 2121.84 2.26119 -2.96521 0
M  V30 20498 N 2124.03 1.54445 0.313786 0
M  V30 20499 C 2124.94 1.87547 1.40937 0
M  V30 20500 C 2125.96 0.768341 1.56117 0
M  V30 20501 O 2127.13 1.06358 1.71026 0
M  V30 20502 C 2124.2 2.10467 2.75508 0
M  V30 20503 C 2123.26 3.34232 2.69421 0
M  V30 20504 C 2122.49 3.56049 3.97574 0
M  V30 20505 O 2122.71 2.81118 4.96316 0
M  V30 20506 O 2121.65 4.49546 4.0024 0
M  V30 20507 H 2125.47 2.80728 1.15868 0
M  V30 20508 H 2123.06 1.40473 0.508698 0
M  V30 20509 H 2124.94 2.26817 3.55151 0
M  V30 20510 H 2123.62 1.20474 3.00446 0
M  V30 20511 H 2122.52 3.23259 1.88294 0
M  V30 20512 H 2123.86 4.24314 2.49436 0
M  V30 20513 N 2125.51 -0.576345 1.46683 0
M  V30 20514 C 2126.76 -1.33168 1.52022 0
M  V30 20515 C 2127.08 -1.94204 0.17606 0
M  V30 20516 O 2126.35 -1.78907 -0.798069 0
M  V30 20517 H 2124.93 -0.494459 0.559928 0
M  V30 20518 H 2127.59 -0.674503 1.82856 0
M  V30 20519 H 2126.68 -2.13511 2.27638 0
M  V30 20520 N 2126.99 -1.34495 -0.82151 0
M  V30 20521 C 2128.23 -1.26931 -1.57781 0
M  V30 20522 C 2128.56 0.160345 -1.93838 0
M  V30 20523 O 2127.82 1.12196 -1.60345 0
M  V30 20524 C 2128.11 -2.10695 -2.88691 0
M  V30 20525 C 2127.78 -3.59682 -2.71919 0
M  V30 20526 C 2126.44 -4.00295 -2.67053 0
M  V30 20527 C 2128.79 -4.5428 -2.55497 0
M  V30 20528 C 2126.12 -5.33698 -2.43687 0
M  V30 20529 C 2128.47 -5.87864 -2.33663 0
M  V30 20530 C 2127.14 -6.2764 -2.27209 0
M  V30 20531 H 2126.41 -0.464474 -0.57736 0
M  V30 20532 H 2129.06 -1.66251 -0.950411 0
M  V30 20533 H 2127.36 -1.64208 -3.55729 0
M  V30 20534 H 2129.06 -2.02188 -3.46296 0
M  V30 20535 H 2125.65 -3.27444 -2.76547 0
M  V30 20536 H 2129.83 -4.23799 -2.58279 0
M  V30 20537 H 2125.09 -5.63534 -2.37149 0
M  V30 20538 H 2129.26 -6.60756 -2.19943 0
M  V30 20539 H 2126.89 -7.30944 -2.08865 0
M  V30 20540 N 2128.46 1.04188 -1.18248 0
M  V30 20541 C 2129.69 1.81021 -1.00194 0
M  V30 20542 C 2130.11 1.83367 0.449658 0
M  V30 20543 O 2129.46 1.26824 1.31232 0
M  V30 20544 C 2129.52 3.26678 -1.54802 0
M  V30 20545 O 2129.24 3.24548 -2.94279 0
M  V30 20546 C 2130.74 4.20161 -1.41349 0
M  V30 20547 H 2127.96 0.570098 -0.353877 0
M  V30 20548 H 2130.5 1.31316 -1.56769 0
M  V30 20549 H 2128.66 3.7362 -1.02407 0
M  V30 20550 H 2129.07 4.15787 -3.19721 0
M  V30 20551 H 2130.54 5.20304 -1.84357 0
M  V30 20552 H 2131.02 4.37705 -0.362029 0
M  V30 20553 H 2131.63 3.79083 -1.92811 0
M  V30 20554 N 2129.94 0.98432 1.23081 0
M  V30 20555 C 2131.19 0.654086 1.91223 0
M  V30 20556 C 2131.51 -0.815416 1.77133 0
M  V30 20557 O 2130.78 -1.58365 1.15315 0
M  V30 20558 H 2129.36 0.238934 0.707757 0
M  V30 20559 H 2132.02 1.24898 1.49621 0
M  V30 20560 H 2131.12 0.909129 2.98565 0
M  V30 20561 N 2131.42 -1.38259 0.756453 0
M  V30 20562 C 2132.7 -1.94131 0.239274 0
M  V30 20563 C 2133.08 -1.6915 -1.26299 0
M  V30 20564 O 2132.43 -1.03165 -2.03885 0
M  V30 20565 C 2132.64 -3.43872 0.596071 0
M  V30 20566 C 2133.98 -4.20927 0.557312 0
M  V30 20567 O 2135.01 -3.52166 0.534537 0
M  V30 20568 O 2133.87 -5.43511 0.57079 0
M  V30 20569 H 2130.96 -0.82543 0.0509403 0
M  V30 20570 H 2133.51 -1.47636 0.83677 0
M  V30 20571 H 2132.28 -3.55575 1.63348 0
M  V30 20572 H 2131.9 -3.97589 -0.0292809 0
M  V30 20573 N 2132.9 -0.505757 -1.49264 0
M  V30 20574 C 2134.15 0.0369987 -2.02066 0
M  V30 20575 C 2134.47 1.37044 -1.38723 0
M  V30 20576 O 2133.74 1.8819 -0.544182 0
M  V30 20577 H 2132.32 0.0166628 -0.746814 0
M  V30 20578 H 2134.98 -0.66408 -1.83238 0
M  V30 20579 H 2134.08 0.163179 -3.11673 0
M  V30 20580 N 2134.38 1.55765 -0.239796 0
M  V30 20581 C 2135.62 1.98769 0.386916 0
M  V30 20582 C 2135.95 1.12781 1.58464 0
M  V30 20583 O 2135.21 0.176954 1.94898 0
M  V30 20584 C 2135.51 3.4722 0.846952 0
M  V30 20585 C 2135.17 4.50249 -0.242234 0
M  V30 20586 C 2133.83 4.78145 -0.541395 0
M  V30 20587 C 2136.19 5.11943 -0.977925 0
M  V30 20588 C 2133.51 5.65012 -1.58045 0
M  V30 20589 C 2135.87 5.99937 -2.00644 0
M  V30 20590 C 2134.53 6.26169 -2.31233 0
M  V30 20591 H 2133.8 0.727348 0.141583 0
M  V30 20592 H 2136.45 1.88346 -0.346135 0
M  V30 20593 H 2134.75 3.54939 1.65908 0
M  V30 20594 H 2136.45 3.77877 1.34201 0
M  V30 20595 H 2133.04 4.286 0.00107931 0
M  V30 20596 H 2137.22 4.90446 -0.76005 0
M  V30 20597 H 2132.48 5.83594 -1.82286 0
M  V30 20598 H 2136.65 6.46787 -2.58146 0
M  V30 20599 H 2134.28 6.93276 -3.11886 0
M  V30 20600 N 2135.85 -0.0334016 1.57565 0
M  V30 20601 C 2137.08 -0.736973 1.9333 0
M  V30 20602 C 2137.5 -1.69124 0.83919 0
M  V30 20603 O 2136.85 -1.81563 -0.184737 0
M  V30 20604 C 2136.91 -1.49777 3.29012 0
M  V30 20605 O 2136.63 -0.581806 4.3422 0
M  V30 20606 C 2138.13 -2.29889 3.79033 0
M  V30 20607 H 2135.35 -0.207374 0.638151 0
M  V30 20608 H 2137.89 0.0077802 2.04499 0
M  V30 20609 H 2136.05 -2.19444 3.19254 0
M  V30 20610 H 2136.46 -1.11488 5.12514 0
M  V30 20611 H 2137.93 -2.78671 4.76494 0
M  V30 20612 H 2138.41 -3.11119 3.10003 0
M  V30 20613 H 2139.02 -1.65304 3.9186 0
M  V30 20614 N 2137.33 -1.54609 -0.305591 0
M  V30 20615 C 2138.57 -1.75406 -1.04938 0
M  V30 20616 C 2138.94 -0.526278 -1.84646 0
M  V30 20617 O 2140.14 -0.611906 -2.61743 0
M  V30 20618 C 2138.41 -3.00482 -1.93508 0
M  V30 20619 S 2139.97 -3.42262 -2.74595 0
M  V30 20620 H 2136.79 -0.616617 -0.353984 0
M  V30 20621 H 2139.39 -1.92808 -0.32331 0
M  V30 20622 H 2138.09 -3.8797 -1.33817 0
M  V30 20623 H 2137.62 -2.85654 -2.70491 0
M  V30 20624 H 2139.64 -2.98971 -3.96018 0
M  V30 20625 N 2138.81 0.568558 -1.46987 0
M  V30 20626 C 2140.04 1.35675 -1.56867 0
M  V30 20627 C 2140.46 1.86864 -0.215303 0
M  V30 20628 O 2139.82 1.62351 0.806967 0
M  V30 20629 C 2139.87 2.51048 -2.58858 0
M  V30 20630 O 2138.97 3.52929 -2.13342 0
M  V30 20631 H 2138.31 0.403471 -0.527358 0
M  V30 20632 H 2140.84 0.688258 -1.92676 0
M  V30 20633 H 2140.85 2.97773 -2.78918 0
M  V30 20634 H 2139.53 2.13145 -3.5713 0
M  V30 20635 H 2138.1 3.12587 -2.03332 0
M  V30 20636 N 2140.29 1.34929 0.814366 0
M  V30 20637 C 2141.57 1.18339 1.55741 0
M  V30 20638 C 2141.95 -0.240616 2.09724 0
M  V30 20639 O 2141.29 -1.2431 1.91727 0
M  V30 20640 C 2141.5 2.24503 2.67206 0
M  V30 20641 C 2142.85 2.59917 3.35751 0
M  V30 20642 O 2143.88 2.23358 2.7747 0
M  V30 20643 O 2142.73 3.22749 4.41017 0
M  V30 20644 H 2139.83 0.459265 0.687753 0
M  V30 20645 H 2142.37 1.46587 0.854999 0
M  V30 20646 H 2141.15 3.20048 2.25133 0
M  V30 20647 H 2140.77 1.9748 3.4509 0
M  V30 20648 N 2141.77 -1.0356 1.18799 0
M  V30 20649 C 2143.01 -1.77109 0.987945 0
M  V30 20650 C 2143.35 -1.88154 -0.480786 0
M  V30 20651 O 2142.62 -1.39339 -1.35702 0
M  V30 20652 C 2142.9 -3.20098 1.64952 0
M  V30 20653 C 2142.76 -3.16964 3.19145 0
M  V30 20654 C 2144.08 -4.18333 1.36696 0
M  V30 20655 H 2141.19 -0.642915 0.360318 0
M  V30 20656 H 2143.84 -1.20938 1.4654 0
M  V30 20657 H 2141.99 -3.6806 1.24356 0
M  V30 20658 H 2143.66 -2.76953 3.6891 0
M  V30 20659 H 2141.9 -2.54859 3.5104 0
M  V30 20660 H 2142.57 -4.17958 3.60576 0
M  V30 20661 H 2145.05 -3.78941 1.7188 0
M  V30 20662 H 2143.92 -5.16589 1.85546 0
M  V30 20663 H 2144.19 -4.41143 0.290807 0
M  V30 20664 N 2143.25 -0.990834 -1.22557 0
M  V30 20665 C 2144.52 -0.581554 -1.86755 0
M  V30 20666 C 2144.9 0.941178 -1.88958 0
M  V30 20667 O 2144.25 1.82226 -1.37862 0
M  V30 20668 C 2144.46 -1.19961 -3.27735 0
M  V30 20669 C 2145.81 -1.29885 -4.04246 0
M  V30 20670 O 2146.83 -1.15385 -3.36994 0
M  V30 20671 O 2145.69 -1.53066 -5.24626 0
M  V30 20672 H 2142.79 -0.197289 -0.803123 0
M  V30 20673 H 2145.33 -1.08658 -1.30351 0
M  V30 20674 H 2144.1 -2.24125 -3.20755 0
M  V30 20675 H 2143.73 -0.680045 -3.91741 0
M  V30 20676 N 2144.72 1.37856 -0.763775 0
M  V30 20677 C 2145.63 2.3415 -0.145216 0
M  V30 20678 C 2146.65 1.59782 0.688888 0
M  V30 20679 O 2147.83 1.91919 0.610668 0
M  V30 20680 C 2144.89 3.38934 0.729718 0
M  V30 20681 C 2143.95 4.29132 -0.119926 0
M  V30 20682 C 2143.18 5.28911 0.713343 0
M  V30 20683 O 2143.41 5.36002 1.95086 0
M  V30 20684 O 2142.34 6.01767 0.126758 0
M  V30 20685 H 2146.17 2.88763 -0.940736 0
M  V30 20686 H 2143.75 1.39879 -0.524814 0
M  V30 20687 H 2145.63 4.03066 1.22946 0
M  V30 20688 H 2144.31 2.86661 1.50356 0
M  V30 20689 H 2143.22 3.68127 -0.665843 0
M  V30 20690 H 2144.55 4.84688 -0.856664 0
M  V30 20691 N 2146.2 0.513665 1.48994 0
M  V30 20692 C 2147.44 -0.0245374 2.04385 0
M  V30 20693 C 2147.81 -1.33106 1.38372 0
M  V30 20694 O 2149.01 -1.95429 1.84556 0
M  V30 20695 C 2147.28 -0.160793 3.57038 0
M  V30 20696 S 2148.84 -0.651417 4.33938 0
M  V30 20697 H 2145.65 0.0042625 0.710987 0
M  V30 20698 H 2148.26 0.690517 1.82899 0
M  V30 20699 H 2146.96 0.795198 4.02622 0
M  V30 20700 H 2146.49 -0.900712 3.8295 0
M  V30 20701 H 2148.51 -1.9186 4.57607 0
M  V30 20702 N 2147.68 -1.55636 0.248053 0
M  V30 20703 C 2148.64 -2.2015 -0.637698 0
M  V30 20704 C 2149.64 -1.17112 -1.10188 0
M  V30 20705 O 2150.83 -1.42187 -1.00641 0
M  V30 20706 C 2147.96 -2.84598 -1.87661 0
M  V30 20707 H 2149.16 -2.99807 -0.0748129 0
M  V30 20708 H 2146.71 -1.563 -0.00148259 0
M  V30 20709 H 2147.45 -2.08882 -2.4807 0
M  V30 20710 H 2147.23 -3.60078 -1.55197 0
M  V30 20711 H 2148.72 -3.33968 -2.50709 0
M  V30 20712 N 2149.16 0.0250451 -1.5758 0
M  V30 20713 C 2150.07 1.04128 -2.10225 0
M  V30 20714 C 2151.08 1.39367 -1.04178 0
M  V30 20715 O 2152.26 1.48605 -1.35936 0
M  V30 20716 C 2149.32 2.32208 -2.5745 0
M  V30 20717 C 2148.39 2.03512 -3.77996 0
M  V30 20718 C 2147.62 3.25486 -4.22959 0
M  V30 20719 O 2147.84 4.36301 -3.6742 0
M  V30 20720 O 2146.78 3.1095 -5.15358 0
M  V30 20721 H 2150.6 0.623859 -2.97223 0
M  V30 20722 H 2148.19 0.242286 -1.47422 0
M  V30 20723 H 2150.07 3.07498 -2.88137 0
M  V30 20724 H 2148.74 2.73237 -1.73561 0
M  V30 20725 H 2147.65 1.25777 -3.52322 0
M  V30 20726 H 2148.98 1.67337 -4.62882 0
M  V30 20727 N 2150.64 1.54769 0.297388 0
M  V30 20728 C 2151.58 1.86729 1.3869 0
M  V30 20729 C 2152.58 0.741344 1.52317 0
M  V30 20730 O 2153.78 0.925384 1.54391 0
M  V30 20731 H 2150.16 0.592301 0.463339 0
M  V30 20732 H 2152.13 2.77791 1.08972 0
M  V30 20733 C 2150.88 2.13444 2.74475 0
M  V30 20734 H 2150.2 2.99558 2.64773 0
M  V30 20735 H 2151.64 2.39744 3.49712 0
M  V30 20736 C 2150.1 0.934151 3.2369 0
M  V30 20737 O 2150.63 0.156464 4.01395 0
M  V30 20738 N 2148.84 0.738537 2.81059 0
M  V30 20739 H 2148.38 1.37261 2.17984 0
M  V30 20740 H 2148.34 -0.0630002 3.14337 0
M  V30 20741 N 2152.11 -0.560755 1.47286 0
M  V30 20742 C 2153.36 -1.31441 1.52991 0
M  V30 20743 C 2153.68 -1.94622 0.195307 0
M  V30 20744 O 2154.88 -2.71187 0.130315 0
M  V30 20745 C 2153.34 -2.38334 2.69676 0
M  V30 20746 C 2152.95 -1.81358 4.0965 0
M  V30 20747 C 2154.69 -3.14902 2.8467 0
M  V30 20748 C 2152.6 -2.8601 5.17641 0
M  V30 20749 H 2151.53 -0.49421 0.569449 0
M  V30 20750 H 2154.18 -0.595972 1.73552 0
M  V30 20751 H 2152.56 -3.13075 2.42487 0
M  V30 20752 H 2153.73 -1.13012 4.46727 0
M  V30 20753 H 2152.05 -1.17385 3.99512 0
M  V30 20754 H 2154.65 -3.93045 3.62518 0
M  V30 20755 H 2154.99 -3.68868 1.92983 0
M  V30 20756 H 2155.52 -2.47271 3.11612 0
M  V30 20757 H 2152.26 -2.36904 6.11193 0
M  V30 20758 H 2151.78 -3.52777 4.85086 0
M  V30 20759 H 2153.46 -3.49566 5.44438 0
M  V30 20760 N 2153.59 -1.35359 -0.807199 0
M  V30 20761 C 2154.54 -1.28262 -1.9404 0
M  V30 20762 C 2155.53 -0.177666 -1.68466 0
M  V30 20763 O 2156.74 -0.34361 -1.7669 0
M  V30 20764 H 2153.11 -0.398861 -0.637506 0
M  V30 20765 H 2155.09 -2.23999 -1.97147 0
M  V30 20766 C 2153.83 -1.07086 -3.30799 0
M  V30 20767 H 2153.16 -1.91349 -3.51035 0
M  V30 20768 H 2154.6 -1.06161 -4.10495 0
M  V30 20769 C 2153.06 0.225309 -3.36146 0
M  V30 20770 O 2153.59 1.22131 -3.82684 0
M  V30 20771 N 2151.79 0.26387 -2.894 0
M  V30 20772 H 2151.34 -0.54725 -2.5172 0
M  V30 20773 H 2151.3 1.13084 -2.93359 0
M  V30 20774 N 2155.07 1.02928 -1.19346 0
M  V30 20775 C 2156 2.13099 -0.954528 0
M  V30 20776 C 2156.98 1.69731 0.111965 0
M  V30 20777 O 2158.17 1.94152 -0.0429718 0
M  V30 20778 C 2155.3 3.43798 -0.491955 0
M  V30 20779 C 2154.25 4.00845 -1.50024 0
M  V30 20780 C 2153.58 5.2716 -0.894759 0
M  V30 20781 C 2154.88 4.35699 -2.88035 0
M  V30 20782 H 2156.57 2.33345 -1.87592 0
M  V30 20783 H 2154.12 1.1214 -0.903366 0
M  V30 20784 H 2156.07 4.20243 -0.312095 0
M  V30 20785 H 2154.79 3.23272 0.46503 0
M  V30 20786 H 2153.45 3.26495 -1.66724 0
M  V30 20787 H 2153.1 5.02952 0.0697668 0
M  V30 20788 H 2152.8 5.66291 -1.56805 0
M  V30 20789 H 2154.32 6.06272 -0.725685 0
M  V30 20790 H 2155.74 5.03083 -2.7492 0
M  V30 20791 H 2154.13 4.8591 -3.52152 0
M  V30 20792 H 2155.2 3.45019 -3.4072 0
M  V30 20793 N 2156.55 0.997319 1.2203 0
M  V30 20794 C 2157.79 0.683932 1.92618 0
M  V30 20795 C 2158.15 -0.770282 1.75871 0
M  V30 20796 O 2159.35 -1.19529 2.40762 0
M  V30 20797 C 2157.62 1.0841 3.40561 0
M  V30 20798 S 2159.18 0.889754 4.29685 0
M  V30 20799 H 2156 0.249925 0.665626 0
M  V30 20800 H 2158.6 1.28053 1.47725 0
M  V30 20801 H 2157.31 2.13876 3.50265 0
M  V30 20802 H 2156.84 0.479484 3.90467 0
M  V30 20803 H 2158.85 -0.217337 4.95724 0
M  V30 20804 N 2158.03 -1.37449 0.771075 0
M  V30 20805 C 2158.94 -2.3407 0.157631 0
M  V30 20806 C 2159.95 -1.60145 -0.680404 0
M  V30 20807 O 2161.13 -1.9224 -0.600482 0
M  V30 20808 C 2158.19 -3.39316 -0.711733 0
M  V30 20809 C 2157.25 -4.29063 0.142682 0
M  V30 20810 C 2156.49 -5.29282 -0.685284 0
M  V30 20811 O 2156.71 -5.37029 -1.92241 0
M  V30 20812 O 2155.64 -6.01825 -0.0948431 0
M  V30 20813 H 2159.47 -2.8826 0.956036 0
M  V30 20814 H 2157.06 -1.39598 0.532224 0
M  V30 20815 H 2158.94 -4.03713 -1.20806 0
M  V30 20816 H 2157.61 -2.87455 -1.48834 0
M  V30 20817 H 2156.52 -3.67769 0.685357 0
M  V30 20818 H 2157.85 -4.84227 0.882356 0
M  V30 20819 N 2159.5 -0.52156 -1.4872 0
M  V30 20820 C 2160.45 0.259278 -2.3115 0
M  V30 20821 C 2161.45 0.943463 -1.40695 0
M  V30 20822 O 2162.65 0.868807 -1.57644 0
M  V30 20823 H 2159.03 0.10248 -0.744984 0
M  V30 20824 H 2161 -0.455653 -2.94901 0
M  V30 20825 C 2159.75 1.29841 -3.22547 0
M  V30 20826 H 2159.07 0.781352 -3.9209 0
M  V30 20827 H 2160.51 1.81634 -3.83125 0
M  V30 20828 C 2158.97 2.32757 -2.43569 0
M  V30 20829 O 2159.5 3.39036 -2.15448 0
M  V30 20830 N 2157.71 2.05753 -2.05217 0
M  V30 20831 H 2157.25 1.19343 -2.28287 0
M  V30 20832 H 2157.21 2.74836 -1.52685 0
M  V30 20833 N 2160.98 1.55502 -0.256304 0
M  V30 20834 C 2162.23 1.98775 0.36509 0
M  V30 20835 C 2162.55 1.14592 1.57778 0
M  V30 20836 O 2161.82 0.23092 1.94534 0
M  V30 20837 H 2160.4 0.734165 0.137882 0
M  V30 20838 H 2163.06 1.91597 -0.357276 0
M  V30 20839 H 2162.16 3.04871 0.667825 0
M  V30 20840 N 2162.46 -0.0166879 1.57591 0
M  V30 20841 C 2163.39 -1.04126 2.04182 0
M  V30 20842 C 2164.41 -1.31719 0.956768 0
M  V30 20843 O 2165.59 -1.28988 1.23387 0
M  V30 20844 C 2162.69 -2.38001 2.41265 0
M  V30 20845 C 2161.87 -2.29588 3.72301 0
M  V30 20846 C 2160.93 -3.46013 3.96436 0
M  V30 20847 O 2159.95 -3.2495 4.67328 0
M  V30 20848 N 2161.15 -4.68304 3.43033 0
M  V30 20849 H 2163.92 -0.644054 2.92698 0
M  V30 20850 H 2161.48 -0.204401 1.60605 0
M  V30 20851 H 2163.47 -3.14631 2.54538 0
M  V30 20852 H 2162.04 -2.69522 1.58355 0
M  V30 20853 H 2161.26 -1.37977 3.69264 0
M  V30 20854 H 2162.55 -2.21122 4.58238 0
M  V30 20855 H 2161.95 -4.88316 2.85593 0
M  V30 20856 H 2160.51 -5.42256 3.61665 0
M  V30 20857 N 2163.94 -1.54924 -0.289176 0
M  V30 20858 C 2165.18 -1.76509 -1.03072 0
M  V30 20859 C 2165.54 -0.545833 -1.84078 0
M  V30 20860 O 2166.74 -0.639633 -2.61079 0
M  V30 20861 C 2165.01 -3.02518 -1.9031 0
M  V30 20862 S 2166.57 -3.45155 -2.70949 0
M  V30 20863 H 2163.39 -0.620336 -0.347424 0
M  V30 20864 H 2165.99 -1.9314 -0.302842 0
M  V30 20865 H 2164.7 -3.89368 -1.29695 0
M  V30 20866 H 2164.23 -2.88507 -2.67446 0
M  V30 20867 H 2166.24 -3.03155 -3.92825 0
M  V30 20868 N 2165.42 0.552936 -1.47582 0
M  V30 20869 C 2166.35 1.66928 -1.6327 0
M  V30 20870 C 2167.33 1.63127 -0.482035 0
M  V30 20871 O 2168.51 1.80682 -0.71188 0
M  V30 20872 C 2165.64 3.0556 -1.65076 0
M  V30 20873 C 2164.6 3.2421 -2.79413 0
M  V30 20874 C 2163.92 4.63672 -2.66294 0
M  V30 20875 C 2165.22 3.09176 -4.20961 0
M  V30 20876 H 2166.92 1.54055 -2.56725 0
M  V30 20877 H 2164.46 0.739709 -1.23549 0
M  V30 20878 H 2166.42 3.83508 -1.74642 0
M  V30 20879 H 2165.14 3.19403 -0.681852 0
M  V30 20880 H 2163.8 2.48673 -2.69365 0
M  V30 20881 H 2163.45 4.7432 -1.67422 0
M  V30 20882 H 2163.15 4.77099 -3.43002 0
M  V30 20883 H 2164.67 5.43749 -2.77795 0
M  V30 20884 H 2166.08 3.76936 -4.31963 0
M  V30 20885 H 2164.48 3.3411 -4.98488 0
M  V30 20886 H 2165.55 2.05869 -4.39028 0
M  V30 20887 N 2166.89 1.35785 0.800009 0
M  V30 20888 C 2167.84 1.29289 1.93357 0
M  V30 20889 C 2168.84 0.186598 1.68369 0
M  V30 20890 O 2170.04 0.352975 1.76505 0
M  V30 20891 H 2166.42 0.402237 0.635382 0
M  V30 20892 H 2168.39 2.25042 1.95956 0
M  V30 20893 C 2167.14 1.08839 3.30226 0
M  V30 20894 H 2166.46 1.93208 3.50015 0
M  V30 20895 H 2167.9 1.08337 4.09926 0
M  V30 20896 C 2166.36 -0.207479 3.36261 0
M  V30 20897 O 2166.89 -1.201 3.83326 0
M  V30 20898 N 2165.1 -0.248518 2.89535 0
M  V30 20899 H 2164.64 0.560592 2.51426 0
M  V30 20900 H 2164.6 -1.11527 2.93954 0
M  V30 20901 N 2168.37 -1.02294 1.19891 0
M  V30 20902 C 2169.62 -1.76051 1.00667 0
M  V30 20903 C 2169.95 -1.88654 -0.460802 0
M  V30 20904 O 2169.23 -1.4077 -1.34216 0
M  V30 20905 C 2169.51 -3.18331 1.68338 0
M  V30 20906 C 2169.36 -3.13562 3.22489 0
M  V30 20907 C 2170.68 -4.16859 1.41125 0
M  V30 20908 H 2167.8 -0.639057 0.367117 0
M  V30 20909 H 2170.44 -1.19377 1.47815 0
M  V30 20910 H 2168.59 -3.6672 1.28252 0
M  V30 20911 H 2170.26 -2.73025 3.71827 0
M  V30 20912 H 2168.51 -2.51121 3.53724 0
M  V30 20913 H 2169.18 -4.1411 3.64989 0
M  V30 20914 H 2171.65 -3.77097 1.75889 0
M  V30 20915 H 2170.53 -5.14592 1.91015 0
M  V30 20916 H 2170.79 -4.40809 0.33758 0
M  V30 20917 N 2169.85 -1.00378 -1.21499 0
M  V30 20918 C 2171.26 -0.719279 -1.72288 0
M  V30 20919 C 2171.61 0.763155 -1.8075 0
M  V30 20920 O 2170.74 1.59617 -1.46121 0
M  V30 20921 C 2171.33 -1.299 -3.12908 0
M  V30 20922 C 2169.89 -1.06365 -3.61059 0
M  V30 20923 C 2169.04 -1.41257 -2.38625 0
M  V30 20924 H 2171.99 -1.17483 -1.06694 0
M  V30 20925 H 2172.01 -0.683038 -3.74319 0
M  V30 20926 H 2171.52 -2.37794 -3.06718 0
M  V30 20927 H 2169.62 -0.00182202 -3.726 0
M  V30 20928 H 2169.74 -1.73468 -4.46593 0
M  V30 20929 H 2168.1 -0.831332 -2.40751 0
M  V30 20930 H 2168.88 -2.50179 -2.35086 0
M  V30 20931 N 2171.33 1.37038 -0.778354 0
M  V30 20932 C 2172.58 1.99134 -0.344995 0
M  V30 20933 C 2172.9 1.62093 1.08402 0
M  V30 20934 O 2172.17 0.889547 1.74539 0
M  V30 20935 H 2170.75 0.73654 -0.124572 0
M  V30 20936 H 2173.41 1.67413 -0.997945 0
M  V30 20937 H 2172.51 3.09152 -0.427927 0
M  V30 20938 N 2172.81 0.529439 1.48441 0
M  V30 20939 C 2173.77 -0.222884 2.28114 0
M  V30 20940 C 2174.77 -0.868268 1.35343 0
M  V30 20941 O 2175.96 -0.728402 1.5824 0
M  V30 20942 C 2173.09 -1.3225 3.14202 0
M  V30 20943 H 2174.29 0.476616 2.96088 0
M  V30 20944 H 2171.84 0.28536 1.53673 0
M  V30 20945 H 2172.57 -2.05527 2.50857 0
M  V30 20946 H 2172.36 -0.864853 3.82443 0
M  V30 20947 H 2173.85 -1.85168 3.74303 0
M  V30 20948 N 2174.29 -1.55364 0.264547 0
M  V30 20949 C 2175.52 -2.03468 -0.358369 0
M  V30 20950 C 2175.92 -1.14268 -1.50796 0
M  V30 20951 O 2175.27 -0.153128 -1.83061 0
M  V30 20952 C 2175.33 -3.47753 -0.91149 0
M  V30 20953 C 2174.99 -4.56872 0.108107 0
M  V30 20954 C 2175.99 -5.11625 0.923909 0
M  V30 20955 C 2173.67 -5.0173 0.239295 0
M  V30 20956 C 2175.67 -6.09744 1.85719 0
M  V30 20957 C 2173.36 -5.99677 1.17606 0
M  V30 20958 C 2174.35 -6.53564 1.98352 0
M  V30 20959 O 2174.04 -7.49597 2.90446 0
M  V30 20960 H 2173.77 -0.670353 -0.0871916 0
M  V30 20961 H 2176.33 -2.01639 0.39126 0
M  V30 20962 H 2174.56 -3.46788 -1.711 0
M  V30 20963 H 2176.25 -3.79256 -1.44636 0
M  V30 20964 H 2177.01 -4.77789 0.833237 0
M  V30 20965 H 2172.89 -4.59438 -0.379168 0
M  V30 20966 H 2176.44 -6.5173 2.48785 0
M  V30 20967 H 2172.33 -6.32932 1.26759 0
M  V30 20968 H 2173.1 -7.67276 2.85008 0
M  V30 20969 N 2175.76 0.00833021 -1.57598 0
M  V30 20970 C 2177.18 0.364296 -1.55387 0
M  V30 20971 C 2177.38 1.75313 -0.993353 0
M  V30 20972 O 2176.44 2.44681 -0.623498 0
M  V30 20973 C 2177.75 0.247154 -2.99683 0
M  V30 20974 C 2179.3 0.32271 -3.11332 0
M  V30 20975 C 2179.77 0.234786 -4.57398 0
M  V30 20976 N 2181.26 0.292944 -4.62273 0
M  V30 20977 C 2182 0.248123 -5.72863 0
M  V30 20978 N 2181.49 0.154382 -6.92628 0
M  V30 20979 N 2183.29 0.299377 -5.61302 0
M  V30 20980 H 2175.44 -0.900301 -1.92376 0
M  V30 20981 H 2177.7 -0.344326 -0.883257 0
M  V30 20982 H 2177.41 -0.708073 -3.44498 0
M  V30 20983 H 2177.28 1.03257 -3.62792 0
M  V30 20984 H 2179.67 1.26838 -2.66451 0
M  V30 20985 H 2179.75 -0.492428 -2.51016 0
M  V30 20986 H 2179.39 -0.707303 -5.02951 0
M  V30 20987 H 2179.32 1.0683 -5.1565 0
M  V30 20988 H 2181.81 0.367063 -3.76113 0
M  V30 20989 H 2182.13 0.12585 -7.72698 0
M  V30 20990 H 2180.47 0.12013 -6.94896 0
M  V30 20991 H 2183.66 0.370748 -4.66629 0
M  V30 20992 H 2183.84 0.260981 -6.47474 0
M  V30 20993 N 2177.24 1.55075 0.280956 0
M  V30 20994 C 2178.48 1.77053 1.02135 0
M  V30 20995 C 2178.85 0.555587 1.83786 0
M  V30 20996 O 2180.05 0.65347 2.60736 0
M  V30 20997 C 2178.32 3.03523 1.88703 0
M  V30 20998 S 2179.88 3.46587 2.69115 0
M  V30 20999 H 2176.69 0.62217 0.34413 0
M  V30 21000 H 2179.3 1.93298 0.292595 0
M  V30 21001 H 2178 3.9005 1.27628 0
M  V30 21002 H 2177.53 2.89921 2.65912 0
M  V30 21003 H 2179.55 3.05234 3.91212 0
M  V30 21004 N 2178.72 -0.545102 1.47873 0
M  V30 21005 C 2179.63 -1.67829 1.63922 0
M  V30 21006 C 2180.65 -1.65989 0.521885 0
M  V30 21007 O 2181.82 -1.85216 0.791005 0
M  V30 21008 C 2178.89 -3.0432 1.66102 0
M  V30 21009 C 2177.95 -3.17134 2.89352 0
M  V30 21010 C 2177.18 -4.47114 2.91419 0
M  V30 21011 O 2177.4 -5.33307 2.02337 0
M  V30 21012 O 2176.34 -4.63974 3.83421 0
M  V30 21013 H 2180.16 -1.57229 2.59832 0
M  V30 21014 H 2177.75 -0.716489 1.31098 0
M  V30 21015 H 2179.63 -3.85524 1.70145 0
M  V30 21016 H 2178.31 -3.15277 0.733623 0
M  V30 21017 H 2177.21 -2.35282 2.90849 0
M  V30 21018 H 2178.55 -3.11086 3.81426 0
M  V30 21019 N 2180.2 -1.36208 -0.792797 0
M  V30 21020 C 2181.44 -1.31628 -1.56376 0
M  V30 21021 C 2181.8 0.104244 -1.91717 0
M  V30 21022 O 2183 0.274558 -2.67394 0
M  V30 21023 C 2181.27 -2.21009 -2.80873 0
M  V30 21024 S 2182.83 -2.3408 -3.7115 0
M  V30 21025 H 2179.65 -0.467581 -0.53562 0
M  V30 21026 H 2182.25 -1.71744 -0.934044 0
M  V30 21027 H 2180.96 -3.23174 -2.52956 0
M  V30 21028 H 2180.49 -1.81901 -3.4882 0
M  V30 21029 H 2182.5 -1.5358 -4.71834 0
M  V30 21030 N 2181.68 1.01656 -1.20431 0
M  V30 21031 C 2182.59 2.13658 -0.968877 0
M  V30 21032 C 2183.6 1.73837 0.075256 0
M  V30 21033 O 2184.78 2.01087 -0.112194 0
M  V30 21034 C 2181.84 3.42716 -0.524052 0
M  V30 21035 C 2180.9 3.9678 -1.63904 0
M  V30 21036 C 2180.14 5.19678 -1.21534 0
M  V30 21037 O 2180.36 5.70338 -0.0840508 0
M  V30 21038 O 2179.29 5.66893 -2.02278 0
M  V30 21039 H 2183.12 2.3639 -1.90666 0
M  V30 21040 H 2180.7 1.1205 -0.98819 0
M  V30 21041 H 2182.59 4.20434 -0.285221 0
M  V30 21042 H 2181.26 3.21401 0.385143 0
M  V30 21043 H 2180.17 3.20341 -1.93215 0
M  V30 21044 H 2181.5 4.22484 -2.52524 0
M  V30 21045 N 2183.15 1.01021 1.20965 0
M  V30 21046 C 2184.09 0.519783 2.22201 0
M  V30 21047 C 2185.06 -0.429328 1.5683 0
M  V30 21048 O 2186.25 -0.350829 1.85206 0
M  V30 21049 C 2183.38 -0.244355 3.37817 0
M  V30 21050 C 2182.42 0.653341 4.21466 0
M  V30 21051 S 2183.25 2.11879 4.918 0
M  V30 21052 C 2184.41 1.36463 6.10843 0
M  V30 21053 H 2184.64 1.37759 2.63457 0
M  V30 21054 H 2182.18 0.818571 1.30915 0
M  V30 21055 H 2184.13 -0.679146 4.04843 0
M  V30 21056 H 2182.8 -1.07765 2.95035 0
M  V30 21057 H 2181.99 0.0644713 5.03959 0
M  V30 21058 H 2181.59 1.02563 3.59662 0
M  V30 21059 H 2183.88 0.641256 6.74458 0
M  V30 21060 H 2184.83 2.16546 6.74176 0
M  V30 21061 H 2185.23 0.870317 5.57751 0
M  V30 21062 N 2184.63 -1.36623 0.78561 0
M  V30 21063 C 2185.88 -1.98948 0.355551 0
M  V30 21064 C 2186.2 -1.62665 -1.07541 0
M  V30 21065 O 2185.47 -0.89879 -1.74065 0
M  V30 21066 H 2184.05 -0.735869 0.128476 0
M  V30 21067 H 2186.71 -1.66881 1.00681 0
M  V30 21068 H 2185.81 -3.08921 0.444316 0
M  V30 21069 N 2186.11 -0.537304 -1.48158 0
M  V30 21070 C 2187.36 -0.00588246 -2.02499 0
M  V30 21071 C 2187.68 1.33585 -1.41369 0
M  V30 21072 O 2186.94 1.87767 -0.551542 0
M  V30 21073 C 2187.24 0.157545 -3.57053 0
M  V30 21074 C 2186.9 -1.11076 -4.37005 0
M  V30 21075 C 2185.57 -1.45834 -4.58569 0
M  V30 21076 C 2187.92 -1.95212 -4.83261 0
M  V30 21077 C 2185.25 -2.64612 -5.23639 0
M  V30 21078 C 2187.6 -3.13176 -5.4964 0
M  V30 21079 C 2186.26 -3.4827 -5.69442 0
M  V30 21080 H 2185.53 -0.00215255 -0.740997 0
M  V30 21081 H 2188.18 -0.704805 -1.78058 0
M  V30 21082 H 2186.48 0.93929 -3.80374 0
M  V30 21083 H 2188.18 0.583759 -3.96728 0
M  V30 21084 H 2184.77 -0.830084 -4.20485 0
M  V30 21085 H 2188.96 -1.6967 -4.66397 0
M  V30 21086 H 2184.21 -2.91996 -5.37167 0
M  V30 21087 H 2188.39 -3.78671 -5.8445 0
M  V30 21088 H 2186.01 -4.40406 -6.19634 0
M  V30 21089 N 2187.59 1.55221 -0.272782 0
M  V30 21090 C 2188.82 2.03951 0.348078 0
M  V30 21091 C 2189.23 1.15123 1.4964 0
M  V30 21092 O 2188.59 0.170857 1.81698 0
M  V30 21093 C 2188.64 3.51812 0.831313 0
M  V30 21094 O 2188.36 4.37259 -0.271279 0
M  V30 21095 C 2189.86 4.16418 1.52023 0
M  V30 21096 H 2187.08 0.666252 0.0796865 0
M  V30 21097 H 2189.63 2.00466 -0.404197 0
M  V30 21098 H 2187.78 3.55748 1.53368 0
M  V30 21099 H 2188.19 5.24405 0.0998522 0
M  V30 21100 H 2189.67 5.21489 1.80979 0
M  V30 21101 H 2190.15 3.6445 2.45097 0
M  V30 21102 H 2190.75 4.16478 0.861768 0
M  V30 21103 N 2189.07 2.77022e-05 1.576 0
M  V30 21104 C 2190.48 -0.54278 1.78636 0
M  V30 21105 C 2190.83 -1.73955 0.907427 0
M  V30 21106 O 2189.95 -2.16121 0.109914 0
M  V30 21107 C 2190.55 -0.991451 3.23969 0
M  V30 21108 C 2189.11 -1.47957 3.46101 0
M  V30 21109 C 2188.25 -0.430787 2.73933 0
M  V30 21110 H 2191.21 0.226196 1.5708 0
M  V30 21111 H 2191.23 -1.85746 3.32083 0
M  V30 21112 H 2190.74 -0.120224 3.87914 0
M  V30 21113 H 2188.84 -2.37169 2.8737 0
M  V30 21114 H 2188.95 -1.50701 4.54781 0
M  V30 21115 H 2187.32 -0.892431 2.38553 0
M  V30 21116 H 2188.1 0.431474 3.40578 0
M  V30 21117 N 2190.54 -1.55222 -0.272728 0
M  V30 21118 C 2191.51 -1.87346 -1.32038 0
M  V30 21119 C 2192.51 -0.748055 -1.4234 0
M  V30 21120 O 2193.7 -1.01623 -1.41487 0
M  V30 21121 C 2190.83 -2.07898 -2.70169 0
M  V30 21122 H 2192.02 -2.80999 -1.04784 0
M  V30 21123 H 2189.58 -1.47718 -0.510804 0
M  V30 21124 H 2190.31 -1.16628 -3.02603 0
M  V30 21125 H 2190.1 -2.89837 -2.64077 0
M  V30 21126 H 2191.59 -2.34024 -3.45865 0
M  V30 21127 N 2192.02 0.537252 -1.4816 0
M  V30 21128 C 2193.25 1.32317 -1.59709 0
M  V30 21129 C 2193.67 1.86365 -0.254891 0
M  V30 21130 O 2193.03 1.64026 0.772349 0
M  V30 21131 C 2193.08 2.45501 -2.64125 0
M  V30 21132 O 2192.18 3.48325 -2.2078 0
M  V30 21133 H 2191.52 0.392195 -0.535798 0
M  V30 21134 H 2194.05 0.647233 -1.94093 0
M  V30 21135 H 2194.06 2.9179 -2.85171 0
M  V30 21136 H 2192.74 2.05522 -3.61571 0
M  V30 21137 H 2191.32 3.08204 -2.09917 0
M  V30 21138 N 2193.5 1.36626 0.785562 0
M  V30 21139 C 2194.78 1.21615 1.53196 0
M  V30 21140 C 2195.16 -0.196076 2.10187 0
M  V30 21141 O 2194.51 -1.20216 1.94321 0
M  V30 21142 C 2194.72 2.30121 2.62384 0
M  V30 21143 C 2196.06 2.6698 3.30162 0
M  V30 21144 O 2197.09 2.29193 2.7267 0
M  V30 21145 O 2195.95 3.32031 4.34071 0
M  V30 21146 H 2193.04 0.47375 0.677857 0
M  V30 21147 H 2195.59 1.48368 0.823713 0
M  V30 21148 H 2194.36 3.24752 2.18293 0
M  V30 21149 H 2193.98 2.04756 3.40824 0
M  V30 21150 N 2194.98 -1.01016 1.20969 0
M  V30 21151 C 2196.2 -1.78837 1.05034 0
M  V30 21152 C 2196.63 -1.8389 -0.39572 0
M  V30 21153 O 2195.99 -1.2787 -1.28527 0
M  V30 21154 C 2196.03 -3.20837 1.64608 0
M  V30 21155 O 2195.14 -4.02725 0.888059 0
M  V30 21156 H 2194.48 -0.55136 0.369997 0
M  V30 21157 H 2197.01 -1.27015 1.60401 0
M  V30 21158 H 2197.02 -3.71529 1.68613 0
M  V30 21159 H 2195.69 -3.16474 2.69846 0
M  V30 21160 H 2194.27 -3.61304 0.922711 0
M  V30 21161 N 2196.46 -1.01661 -1.20428 0
M  V30 21162 C 2197.87 -0.731467 -1.41851 0
M  V30 21163 C 2198.07 0.688865 -1.89359 0
M  V30 21164 O 2197.13 1.45662 -2.06249 0
M  V30 21165 C 2198.44 -1.75718 -2.44016 0
M  V30 21166 C 2199.99 -1.77532 -2.57782 0
M  V30 21167 C 2200.46 -2.7903 -3.63189 0
M  V30 21168 N 2201.96 -2.7777 -3.70673 0
M  V30 21169 C 2202.69 -3.52962 -4.51891 0
M  V30 21170 N 2202.19 -4.3783 -5.36914 0
M  V30 21171 N 2203.98 -3.41559 -4.46424 0
M  V30 21172 H 2196.13 -1.93355 -0.879059 0
M  V30 21173 H 2198.39 -0.835244 -0.448411 0
M  V30 21174 H 2198.1 -2.77473 -2.16105 0
M  V30 21175 H 2197.97 -1.56933 -3.43004 0
M  V30 21176 H 2200.36 -0.764619 -2.85022 0
M  V30 21177 H 2200.44 -2.0039 -1.58989 0
M  V30 21178 H 2200.09 -3.80264 -3.36693 0
M  V30 21179 H 2200.02 -2.53433 -4.61605 0
M  V30 21180 H 2202.51 -2.16206 -3.09941 0
M  V30 21181 H 2202.82 -4.91973 -5.95972 0
M  V30 21182 H 2201.16 -4.41908 -5.36416 0
M  V30 21183 H 2204.36 -2.74679 -3.79037 0
M  V30 21184 H 2204.53 -4.00413 -5.09484 0
M  V30 21185 N 2197.93 1.36205 -0.792844 0
M  V30 21186 C 2199.16 2.03931 -0.377737 0
M  V30 21187 C 2199.58 1.59384 0.998919 0
M  V30 21188 O 2198.94 0.763932 1.64419 0
M  V30 21189 C 2198.99 3.57734 -0.453698 0
M  V30 21190 O 2198.09 4.08875 0.538079 0
M  V30 21191 H 2197.44 0.644468 -0.159867 0
M  V30 21192 H 2199.97 1.74089 -1.07491 0
M  V30 21193 H 2199.98 4.06755 -0.318535 0
M  V30 21194 H 2198.65 3.8951 -1.45791 0
M  V30 21195 H 2197.23 3.71116 0.364294 0
M  V30 21196 N 2199.41 0.545154 1.47871 0
M  V30 21197 C 2200.65 0.0188213 2.04391 0
M  V30 21198 C 2201.02 -1.30141 1.41164 0
M  V30 21199 O 2202.22 -1.9147 1.8866 0
M  V30 21200 C 2200.49 -0.0850239 3.57299 0
M  V30 21201 S 2202.05 -0.559225 4.35222 0
M  V30 21202 H 2198.87 0.0193426 0.710737 0
M  V30 21203 H 2201.47 0.729157 1.81393 0
M  V30 21204 H 2200.17 0.880421 4.00845 0
M  V30 21205 H 2199.7 -0.81928 3.84774 0
M  V30 21206 H 2201.72 -1.8211 4.61574 0
M  V30 21207 N 2200.89 -1.55074 0.28101 0
M  V30 21208 C 2201.82 -2.20164 -0.637229 0
M  V30 21209 C 2202.84 -1.18815 -1.11296 0
M  V30 21210 O 2204.02 -1.45512 -1.03386 0
M  V30 21211 C 2201.12 -2.81844 -1.88195 0
M  V30 21212 C 2200.3 -4.08938 -1.55204 0
M  V30 21213 C 2199.36 -4.5461 -2.64983 0
M  V30 21214 O 2198.38 -5.20254 -2.3092 0
M  V30 21215 N 2199.58 -4.25245 -3.95154 0
M  V30 21216 H 2202.35 -2.99593 -0.0801167 0
M  V30 21217 H 2199.91 -1.61576 0.102357 0
M  V30 21218 H 2201.9 -3.0934 -2.60942 0
M  V30 21219 H 2200.47 -2.06373 -2.34796 0
M  V30 21220 H 2199.69 -3.88668 -0.658117 0
M  V30 21221 H 2200.98 -4.91734 -1.30673 0
M  V30 21222 H 2200.38 -3.72614 -4.25647 0
M  V30 21223 H 2198.94 -4.57498 -4.64261 0
M  V30 21224 N 2202.37 -0.00838561 -1.57598 0
M  V30 21225 C 2203.65 0.712203 -1.82173 0
M  V30 21226 C 2204.03 1.91519 -0.887907 0
M  V30 21227 O 2203.37 2.28417 0.0614199 0
M  V30 21228 C 2203.58 1.11002 -3.30877 0
M  V30 21229 C 2204.93 1.51037 -3.96829 0
M  V30 21230 O 2205.96 1.20358 -3.3525 0
M  V30 21231 O 2204.82 2.08116 -5.05322 0
M  V30 21232 H 2201.91 0.347515 -0.750441 0
M  V30 21233 H 2204.46 -0.0344821 -1.69665 0
M  V30 21234 H 2203.23 0.252913 -3.90482 0
M  V30 21235 H 2202.85 1.91554 -3.48415 0
M  V30 21236 N 2203.85 1.55365 0.264492 0
M  V30 21237 C 2205.1 1.75575 0.992781 0
M  V30 21238 C 2205.41 0.569012 1.87141 0
M  V30 21239 O 2206.62 0.653728 2.63512 0
M  V30 21240 C 2205.07 3.10775 1.81514 0
M  V30 21241 C 2204.68 4.37043 0.984762 0
M  V30 21242 C 2206.42 3.40332 2.53721 0
M  V30 21243 C 2204.33 5.63278 1.80199 0
M  V30 21244 H 2203.26 0.654477 0.374401 0
M  V30 21245 H 2205.91 1.81815 0.248106 0
M  V30 21246 H 2204.29 2.98595 2.60109 0
M  V30 21247 H 2205.47 4.60162 0.242374 0
M  V30 21248 H 2203.78 4.14691 0.376837 0
M  V30 21249 H 2206.38 4.31856 3.15285 0
M  V30 21250 H 2206.72 2.60851 3.24442 0
M  V30 21251 H 2207.26 3.53647 1.8215 0
M  V30 21252 H 2203.99 6.45531 1.13884 0
M  V30 21253 H 2203.51 5.44288 2.52013 0
M  V30 21254 H 2205.19 6.01891 2.37353 0
M  V30 21255 N 2205.33 -0.529387 1.48443 0
M  V30 21256 C 2206.6 -1.29059 1.4698 0
M  V30 21257 C 2206.98 -2.10316 0.181806 0
M  V30 21258 O 2206.33 -2.1264 -0.836444 0
M  V30 21259 C 2206.54 -2.17152 2.73214 0
M  V30 21260 C 2207.89 -2.77273 3.21566 0
M  V30 21261 O 2208.91 -2.27439 2.74135 0
M  V30 21262 O 2207.77 -3.67919 4.04101 0
M  V30 21263 H 2204.87 -0.582532 0.587014 0
M  V30 21264 H 2207.41 -0.545993 1.60677 0
M  V30 21265 H 2206.18 -1.56896 3.58468 0
M  V30 21266 H 2205.81 -2.98858 2.6224 0
M  V30 21267 N 2206.8 -1.37041 -0.778305 0
M  V30 21268 C 2207.71 -1.3445 -1.92251 0
M  V30 21269 C 2208.73 -0.245021 -1.72266 0
M  V30 21270 O 2209.91 -0.479293 -1.95614 0
M  V30 21271 C 2206.97 -1.14405 -3.2728 0
M  V30 21272 C 2206.03 -2.33931 -3.59965 0
M  V30 21273 C 2205.26 -2.14834 -4.88551 0
M  V30 21274 O 2205.49 -1.12922 -5.59111 0
M  V30 21275 O 2204.42 -3.0287 -5.20147 0
M  V30 21276 H 2208.25 -2.30807 -1.97388 0
M  V30 21277 H 2205.83 -1.17703 -0.920134 0
M  V30 21278 H 2207.71 -1.05189 -4.0806 0
M  V30 21279 H 2206.39 -0.211181 -3.2301 0
M  V30 21280 H 2205.3 -2.48718 -2.79446 0
M  V30 21281 H 2206.63 -3.25763 -3.6897 0
M  V30 21282 N 2208.28 1.00373 -1.21503 0
M  V30 21283 C 2209.52 1.75699 -1.04447 0
M  V30 21284 C 2209.89 1.8747 0.414611 0
M  V30 21285 O 2211.09 2.59371 0.705718 0
M  V30 21286 C 2209.36 3.13074 -1.72394 0
M  V30 21287 S 2210.92 4.04274 -1.70611 0
M  V30 21288 H 2207.73 0.604525 -0.374259 0
M  V30 21289 H 2210.34 1.20089 -1.54269 0
M  V30 21290 H 2209.04 3.02141 -2.77739 0
M  V30 21291 H 2208.57 3.73757 -1.22758 0
M  V30 21292 H 2210.59 4.90528 -0.748098 0
M  V30 21293 N 2209.76 1.02298 1.19887 0
M  V30 21294 C 2210.98 0.735271 1.93929 0
M  V30 21295 C 2211.41 -0.698751 1.7464 0
M  V30 21296 O 2210.77 -1.48165 1.04483 0
M  V30 21297 C 2210.82 1.08423 3.43914 0
M  V30 21298 O 2209.92 0.199519 4.11917 0
M  V30 21299 H 2209.26 0.272207 0.60564 0
M  V30 21300 H 2211.79 1.36807 1.52135 0
M  V30 21301 H 2211.8 1.03863 3.94559 0
M  V30 21302 H 2210.48 2.12901 3.57276 0
M  V30 21303 H 2209.05 0.303201 3.71665 0
M  V30 21304 N 2211.24 -1.35782 0.800057 0
M  V30 21305 C 2212.48 -1.98953 0.377377 0
M  V30 21306 C 2212.81 -1.63482 -1.05375 0
M  V30 21307 O 2212.07 -0.886737 -1.74458 0
M  V30 21308 C 2212.37 -3.5388 0.500338 0
M  V30 21309 C 2212.03 -4.09201 1.89382 0
M  V30 21310 C 2210.69 -4.24021 2.27507 0
M  V30 21311 C 2213.05 -4.39233 2.80578 0
M  V30 21312 C 2210.37 -4.66189 3.56208 0
M  V30 21313 C 2212.73 -4.82837 4.08719 0
M  V30 21314 C 2211.39 -4.95863 4.46851 0
M  V30 21315 H 2210.66 -0.728019 0.138092 0
M  V30 21316 H 2213.31 -1.62101 1.01958 0
M  V30 21317 H 2211.61 -3.91151 -0.225336 0
M  V30 21318 H 2213.31 -4.00704 0.154167 0
M  V30 21319 H 2209.9 -3.98112 1.5876 0
M  V30 21320 H 2214.08 -4.27342 2.52374 0
M  V30 21321 H 2209.34 -4.74463 3.8561 0
M  V30 21322 H 2213.51 -5.05037 4.7949 0
M  V30 21323 H 2211.14 -5.28296 5.46633 0
M  V30 21324 N 2212.72 -0.552988 -1.4758 0
M  V30 21325 C 2213.65 0.234493 -2.27997 0
M  V30 21326 C 2214.66 0.883297 -1.36754 0
M  V30 21327 O 2215.85 0.75786 -1.61613 0
M  V30 21328 C 2212.95 1.3493 -3.10881 0
M  V30 21329 C 2212.12 0.798083 -4.30057 0
M  V30 21330 C 2211.18 1.79686 -4.9457 0
M  V30 21331 O 2210.21 1.34465 -5.53089 0
M  V30 21332 N 2211.41 3.13006 -4.88884 0
M  V30 21333 H 2214.17 -0.455307 -2.96221 0
M  V30 21334 H 2211.74 -0.388789 -1.57162 0
M  V30 21335 H 2213.73 2.0161 -3.50907 0
M  V30 21336 H 2212.3 1.9424 -2.44928 0
M  V30 21337 H 2211.52 -0.0453772 -3.94174 0
M  V30 21338 H 2212.81 0.409084 -5.07153 0
M  V30 21339 H 2212.2 3.52394 -4.42532 0
M  V30 21340 H 2210.76 3.75256 -5.32941 0
M  V30 21341 N 2214.19 1.54923 -0.28923 0
M  V30 21342 C 2215.14 2.24515 0.607926 0
M  V30 21343 C 2216.14 1.24704 1.14653 0
M  V30 21344 O 2217.34 1.42591 1.09853 0
M  V30 21345 H 2213.72 0.720721 0.214627 0
M  V30 21346 H 2215.69 2.984 -0.00169428 0
M  V30 21347 C 2214.44 2.99039 1.77401 0
M  V30 21348 H 2213.76 3.75639 1.36877 0
M  V30 21349 H 2215.2 3.51032 2.37807 0
M  V30 21350 C 2213.66 2.05323 2.67103 0
M  V30 21351 O 2214.19 1.6136 3.67867 0
M  V30 21352 N 2212.39 1.71526 2.34579 0
M  V30 21353 H 2211.94 2.07473 1.52685 0
M  V30 21354 H 2211.9 1.09095 2.94865 0
M  V30 21355 N 2215.67 0.0167433 1.57591 0
M  V30 21356 C 2216.92 -0.663843 1.90463 0
M  V30 21357 C 2217.23 -1.73997 0.893546 0
M  V30 21358 O 2218.44 -2.47635 1.11307 0
M  V30 21359 C 2216.9 -1.23198 3.38157 0
M  V30 21360 C 2216.5 -0.189787 4.47598 0
M  V30 21361 C 2218.25 -1.88979 3.80115 0
M  V30 21362 C 2216.15 -0.768861 5.86381 0
M  V30 21363 H 2215.08 -0.251716 0.710742 0
M  V30 21364 H 2217.74 0.0800249 1.83325 0
M  V30 21365 H 2216.12 -2.02706 3.40186 0
M  V30 21366 H 2217.29 0.581926 4.57111 0
M  V30 21367 H 2215.61 0.368548 4.14766 0
M  V30 21368 H 2218.2 -2.33238 4.81149 0
M  V30 21369 H 2218.55 -2.72737 3.14516 0
M  V30 21370 H 2219.08 -1.1618 3.80456 0
M  V30 21371 H 2215.82 0.030311 6.55493 0
M  V30 21372 H 2215.34 -1.50935 5.80499 0
M  V30 21373 H 2217.02 -1.2624 6.34565 0
M  V30 21374 N 2217.15 -1.55503 -0.256249 0
M  V30 21375 C 2218.39 -1.78656 -0.993049 0
M  V30 21376 C 2218.75 -0.584756 -1.82879 0
M  V30 21377 O 2219.96 -0.694868 -2.59663 0
M  V30 21378 C 2218.23 -3.06486 -1.8385 0
M  V30 21379 S 2219.79 -3.50824 -2.63567 0
M  V30 21380 H 2216.6 -0.627566 -0.334188 0
M  V30 21381 H 2219.21 -1.93739 -0.261806 0
M  V30 21382 H 2217.91 -3.92031 -1.21407 0
M  V30 21383 H 2217.44 -2.94115 -2.61266 0
M  V30 21384 H 2219.46 -3.11419 -3.86306 0
M  V30 21385 N 2218.63 0.521507 -1.48721 0
M  V30 21386 C 2219.87 1.27876 -1.57403 0
M  V30 21387 C 2220.21 1.92573 -0.25085 0
M  V30 21388 O 2219.48 1.79712 0.743902 0
M  V30 21389 C 2219.77 2.36159 -2.71847 0
M  V30 21390 C 2219.62 1.76098 -4.13896 0
M  V30 21391 C 2220.94 3.3787 -2.82014 0
M  V30 21392 H 2218.06 0.463571 -0.572949 0
M  V30 21393 H 2220.7 0.580088 -1.80928 0
M  V30 21394 H 2218.85 2.95752 -2.51919 0
M  V30 21395 H 2220.52 1.20491 -4.45286 0
M  V30 21396 H 2218.76 1.06594 -4.205 0
M  V30 21397 H 2219.43 2.54541 -4.89809 0
M  V30 21398 H 2221.91 2.88244 -3.00091 0
M  V30 21399 H 2220.79 4.11021 -3.63803 0
M  V30 21400 H 2221.05 3.98943 -1.90518 0
M  V30 21401 N 2220.11 1.37452 0.771027 0
M  V30 21402 C 2221.35 1.327 1.52961 0
M  V30 21403 C 2221.68 -0.0882932 1.94299 0
M  V30 21404 O 2220.94 -1.06167 1.64399 0
M  V30 21405 C 2221.24 2.21264 2.80672 0
M  V30 21406 C 2220.9 3.69526 2.58382 0
M  V30 21407 C 2219.56 4.09931 2.52012 0
M  V30 21408 C 2221.92 4.6345 2.38461 0
M  V30 21409 C 2219.24 5.42375 2.23711 0
M  V30 21410 C 2221.6 5.96132 2.11684 0
M  V30 21411 C 2220.26 6.35641 2.03758 0
M  V30 21412 H 2219.53 0.485583 0.559724 0
M  V30 21413 H 2222.18 1.69664 0.888054 0
M  V30 21414 H 2220.48 1.77297 3.49389 0
M  V30 21415 H 2222.18 2.14901 3.38553 0
M  V30 21416 H 2218.77 3.37482 2.64204 0
M  V30 21417 H 2222.95 4.33093 2.42372 0
M  V30 21418 H 2218.21 5.71947 2.16071 0
M  V30 21419 H 2222.38 6.68463 1.95268 0
M  V30 21420 H 2220.01 7.38193 1.81593 0
M  V30 21421 N 2221.58 -0.997276 1.22033 0
M  V30 21422 C 2222.83 -1.73276 1.04019 0
M  V30 21423 C 2223.15 -1.90285 -0.426222 0
M  V30 21424 O 2222.42 -1.45933 -1.30691 0
M  V30 21425 H 2221 -0.641993 0.381908 0
M  V30 21426 H 2223.67 -1.20135 1.53472 0
M  V30 21427 H 2222.76 -2.72893 1.51446 0
M  V30 21428 N 2223.06 -1.02932 -1.19343 0
M  V30 21429 C 2224.29 -0.745678 -1.92995 0
M  V30 21430 C 2224.71 0.695558 -1.7552 0
M  V30 21431 O 2224.06 1.47304 -1.0774 0
M  V30 21432 C 2224.11 -1.08798 -3.44739 0
M  V30 21433 O 2223.83 -2.47262 -3.61653 0
M  V30 21434 C 2225.34 -0.827206 -4.35514 0
M  V30 21435 H 2222.56 -0.272812 -0.613037 0
M  V30 21436 H 2225.1 -1.37393 -1.51471 0
M  V30 21437 H 2223.25 -0.504899 -3.84096 0
M  V30 21438 H 2223.67 -2.60023 -4.55509 0
M  V30 21439 H 2225.14 -1.11668 -5.40587 0
M  V30 21440 H 2225.62 0.238359 -4.38553 0
M  V30 21441 H 2226.23 -1.39304 -4.01839 0
M  V30 21442 N 2224.54 1.35356 -0.807246 0
M  V30 21443 C 2225.78 2.00575 -0.393569 0
M  V30 21444 C 2226.14 1.62648 1.02027 0
M  V30 21445 O 2227.35 2.20592 1.53599 0
M  V30 21446 C 2225.62 3.52792 -0.572079 0
M  V30 21447 S 2227.18 4.38093 -0.248922 0
M  V30 21448 H 2223.99 0.695118 -0.149438 0
M  V30 21449 H 2226.6 1.64933 -1.04964 0
M  V30 21450 H 2225.3 3.77882 -1.60104 0
M  V30 21451 H 2224.83 3.93275 0.0992899 0
M  V30 21452 H 2226.85 4.87154 0.943167 0
M  V30 21453 N 2226.02 0.560807 1.47284 0
M  V30 21454 C 2226.97 -0.197901 2.31757 0
M  V30 21455 C 2227.96 -0.905828 1.43147 0
M  V30 21456 O 2229.17 -0.826705 1.59892 0
M  V30 21457 H 2225.54 -0.0826918 0.74744 0
M  V30 21458 H 2227.51 0.53368 2.93589 0
M  V30 21459 C 2226.26 -1.21244 3.25876 0
M  V30 21460 H 2225.58 -0.677121 3.94024 0
M  V30 21461 H 2227.02 -1.71412 3.87806 0
M  V30 21462 C 2225.48 -2.26217 2.49655 0
M  V30 21463 O 2226.01 -3.33204 2.24361 0
M  V30 21464 N 2224.22 -2.0024 2.106 0
M  V30 21465 H 2223.77 -1.13248 2.31371 0
M  V30 21466 H 2223.72 -2.70691 1.59918 0
M  V30 21467 N 2227.5 -1.54768 0.297442 0
M  V30 21468 C 2228.44 -2.24834 -0.596011 0
M  V30 21469 C 2229.44 -1.2531 -1.1399 0
M  V30 21470 O 2230.64 -1.43172 -1.09095 0
M  V30 21471 H 2227.02 -0.721849 -0.210802 0
M  V30 21472 H 2228.99 -2.98395 0.0175191 0
M  V30 21473 C 2227.74 -2.99975 -1.75813 0
M  V30 21474 H 2227.06 -3.7636 -1.34883 0
M  V30 21475 H 2228.5 -3.52288 -2.35943 0
M  V30 21476 C 2226.96 -2.06737 -2.6601 0
M  V30 21477 O 2227.49 -1.63308 -3.67006 0
M  V30 21478 N 2225.7 -1.72767 -2.33666 0
M  V30 21479 H 2225.24 -2.0828 -1.51582 0
M  V30 21480 H 2225.2 -1.10657 -2.94283 0
M  V30 21481 N 2228.97 -0.0251005 -1.5758 0
M  V30 21482 C 2229.9 0.956538 -2.13008 0
M  V30 21483 C 2230.89 1.34198 -1.04523 0
M  V30 21484 O 2232.07 1.42131 -1.32335 0
M  V30 21485 C 2229.2 2.24022 -2.6539 0
M  V30 21486 C 2228.15 1.99565 -3.78626 0
M  V30 21487 C 2227.48 3.34163 -4.1742 0
M  V30 21488 C 2228.78 1.33805 -5.0487 0
M  V30 21489 H 2230.47 0.494939 -2.95281 0
M  V30 21490 H 2228.02 0.236627 -1.42043 0
M  V30 21491 H 2229.97 2.93071 -3.02799 0
M  V30 21492 H 2228.7 2.7234 -1.80273 0
M  V30 21493 H 2227.36 1.32935 -3.41649 0
M  V30 21494 H 2227 3.80232 -3.29291 0
M  V30 21495 H 2226.7 3.18606 -4.93724 0
M  V30 21496 H 2228.23 4.04486 -4.57409 0
M  V30 21497 H 2229.64 1.92848 -5.39891 0
M  V30 21498 H 2228.04 1.28659 -5.86146 0
M  V30 21499 H 2229.11 0.310476 -4.83905 0
M  V30 21500 N 2230.45 1.55637 0.247999 0
M  V30 21501 C 2231.86 1.67868 0.817148 0
M  V30 21502 C 2232.21 0.622355 1.86068 0
M  V30 21503 O 2231.34 -0.23158 2.15157 0
M  V30 21504 C 2231.93 3.04328 1.48895 0
M  V30 21505 C 2230.49 3.18503 2.00581 0
M  V30 21506 C 2229.64 2.6374 0.856527 0
M  V30 21507 H 2232.59 1.58682 0.02383 0
M  V30 21508 H 2232.61 2.98712 2.35693 0
M  V30 21509 H 2232.12 3.81188 0.729212 0
M  V30 21510 H 2230.23 2.46465 2.79439 0
M  V30 21511 H 2230.34 4.25397 2.20395 0
M  V30 21512 H 2228.7 2.21536 1.25674 0
M  V30 21513 H 2229.49 3.43124 0.109893 0
M  V30 21514 N 2231.93 -0.513613 1.48996 0
M  V30 21515 C 2233.18 -1.26601 1.57533 0
M  V30 21516 C 2233.5 -1.93282 0.25827 0
M  V30 21517 O 2232.77 -1.82131 -0.72147 0
M  V30 21518 H 2231.35 -0.470266 0.580396 0
M  V30 21519 H 2234.01 -0.596341 1.85553 0
M  V30 21520 H 2233.11 -2.03664 2.36489 0
M  V30 21521 N 2233.41 -1.37859 -0.763727 0
M  V30 21522 C 2234.34 -1.28643 -1.88484 0
M  V30 21523 C 2235.32 -0.165391 -1.61757 0
M  V30 21524 O 2236.5 -0.34098 -1.8539 0
M  V30 21525 C 2233.63 -0.990868 -3.23882 0
M  V30 21526 C 2232.68 -2.12989 -3.6951 0
M  V30 21527 S 2233.51 -3.75039 -3.82238 0
M  V30 21528 C 2234.67 -3.4765 -5.20471 0
M  V30 21529 H 2234.9 -2.23531 -1.96014 0
M  V30 21530 H 2232.43 -1.23575 -0.925662 0
M  V30 21531 H 2234.39 -0.827172 -4.0208 0
M  V30 21532 H 2233.05 -0.0593384 -3.14044 0
M  V30 21533 H 2232.24 -1.87829 -4.67692 0
M  V30 21534 H 2231.85 -2.25413 -2.98437 0
M  V30 21535 H 2234.14 -3.03136 -6.059 0
M  V30 21536 H 2235.08 -4.45189 -5.50647 0
M  V30 21537 H 2235.49 -2.82394 -4.88788 0
M  V30 21538 N 2234.89 0.990791 -1.22561 0
M  V30 21539 C 2236.13 1.73064 -1.05144 0
M  V30 21540 C 2236.46 1.90061 0.413157 0
M  V30 21541 O 2235.72 1.44247 1.32254 0
M  V30 21542 C 2236.02 3.13828 -1.71017 0
M  V30 21543 C 2235.68 3.16739 -3.20916 0
M  V30 21544 C 2234.34 3.17241 -3.61817 0
M  V30 21545 C 2236.7 3.12864 -4.16852 0
M  V30 21546 C 2234.02 3.11571 -4.97132 0
M  V30 21547 C 2236.38 3.08737 -5.52145 0
M  V30 21548 C 2235.04 3.07555 -5.92424 0
M  V30 21549 H 2234.31 0.633284 -0.384749 0
M  V30 21550 H 2236.96 1.16022 -1.52352 0
M  V30 21551 H 2235.26 3.74191 -1.1614 0
M  V30 21552 H 2236.96 3.6982 -1.55029 0
M  V30 21553 H 2233.55 3.171 -2.8835 0
M  V30 21554 H 2237.73 3.11625 -3.86269 0
M  V30 21555 H 2232.99 3.09003 -5.27567 0
M  V30 21556 H 2237.16 3.04694 -6.26206 0
M  V30 21557 H 2234.79 3.02916 -6.97242 0
M  V30 21558 N 2236.37 1.03564 1.18795 0
M  V30 21559 C 2237.32 0.592763 2.2016 0
M  V30 21560 C 2238.3 -0.362106 1.56772 0
M  V30 21561 O 2239.49 -0.181978 1.76062 0
M  V30 21562 C 2236.62 -0.0480421 3.43266 0
M  V30 21563 C 2235.71 0.929672 4.13785 0
M  V30 21564 N 2236.1 2.09475 4.60384 0
M  V30 21565 C 2234.4 0.754577 4.3957 0
M  V30 21566 C 2235.1 2.71196 5.14614 0
M  V30 21567 N 2234.07 1.99108 5.05823 0
M  V30 21568 H 2237.87 1.4807 2.53875 0
M  V30 21569 H 2235.39 0.903538 1.34944 0
M  V30 21570 H 2237.39 -0.382985 4.15137 0
M  V30 21571 H 2236.05 -0.931581 3.11049 0
M  V30 21572 H 2237.06 2.47387 4.54994 0
M  V30 21573 H 2233.73 -0.0792979 4.17425 0
M  V30 21574 H 2235.12 3.69905 5.6091 0
M  V30 21575 N 2237.84 -1.34926 0.814413 0
M  V30 21576 C 2239.08 -2.00364 0.4042 0
M  V30 21577 C 2239.45 -1.63187 -1.01163 0
M  V30 21578 O 2240.65 -2.21403 -1.52427 0
M  V30 21579 C 2238.92 -3.52483 0.59078 0
M  V30 21580 S 2240.48 -4.37955 0.272152 0
M  V30 21581 H 2237.3 -0.694316 0.153122 0
M  V30 21582 H 2239.9 -1.64374 1.05837 0
M  V30 21583 H 2238.6 -3.77028 1.62106 0
M  V30 21584 H 2238.13 -3.93322 -0.0784322 0
M  V30 21585 H 2240.15 -4.87647 -0.917319 0
M  V30 21586 N 2239.32 -0.56861 -1.46985 0
M  V30 21587 C 2240.57 -0.0466248 -2.01646 0
M  V30 21588 C 2240.88 1.31584 -1.44723 0
M  V30 21589 O 2242.09 1.92838 -1.91117 0
M  V30 21590 C 2240.55 -0.0328152 -3.59885 0
M  V30 21591 C 2240.15 -1.39274 -4.25801 0
M  V30 21592 C 2241.9 0.435964 -4.22255 0
M  V30 21593 C 2239.8 -1.33742 -5.76079 0
M  V30 21594 H 2238.73 -0.0136602 -0.753876 0
M  V30 21595 H 2241.39 -0.718161 -1.68863 0
M  V30 21596 H 2239.77 0.704601 -3.89681 0
M  V30 21597 H 2240.94 -2.14877 -4.07633 0
M  V30 21598 H 2239.26 -1.80038 -3.75467 0
M  V30 21599 H 2241.85 0.495926 -5.32395 0
M  V30 21600 H 2242.2 1.45046 -3.90214 0
M  V30 21601 H 2242.73 -0.246947 -3.97033 0
M  V30 21602 H 2239.47 -2.32827 -6.12757 0
M  V30 21603 H 2238.99 -0.623372 -5.96552 0
M  V30 21604 H 2240.67 -1.04431 -6.38516 0
M  V30 21605 N 2240.8 1.54608 -0.305646 0
M  V30 21606 C 2242.04 2.02141 0.303078 0
M  V30 21607 C 2242.4 1.18924 1.50735 0
M  V30 21608 O 2243.6 1.56176 2.18775 0
M  V30 21609 C 2241.88 3.51508 0.64627 0
M  V30 21610 S 2243.43 4.20998 1.2372 0
M  V30 21611 H 2240.25 0.704924 0.0927519 0
M  V30 21612 H 2242.85 1.90608 -0.434599 0
M  V30 21613 H 2241.56 4.09706 -0.238613 0
M  V30 21614 H 2241.09 3.67086 1.41462 0
M  V30 21615 H 2243.1 4.27162 2.52482 0
M  V30 21616 N 2242.28 0.033457 1.57564 0
M  V30 21617 C 2243.55 -0.683131 1.83283 0
M  V30 21618 C 2243.93 -1.90082 0.918264 0
M  V30 21619 O 2243.28 -2.28486 -0.0250729 0
M  V30 21620 C 2243.49 -1.05724 3.32601 0
M  V30 21621 C 2244.84 -1.44704 3.99181 0
M  V30 21622 O 2245.86 -1.15009 3.37122 0
M  V30 21623 O 2244.72 -2.00051 5.08569 0
M  V30 21624 H 2241.82 -0.335533 0.755875 0
M  V30 21625 H 2244.36 0.06147 1.69589 0
M  V30 21626 H 2243.14 -0.190759 3.90835 0
M  V30 21627 H 2242.76 -1.85987 3.51418 0
M  V30 21628 N 2243.76 -1.55766 -0.239741 0
M  V30 21629 C 2245.03 -1.68695 -0.990026 0
M  V30 21630 C 2245.41 -0.575436 -2.03106 0
M  V30 21631 O 2244.76 0.420131 -2.24604 0
M  V30 21632 C 2244.97 -3.09285 -1.61691 0
M  V30 21633 C 2246.32 -3.68114 -2.11606 0
M  V30 21634 O 2247.34 -3.1213 -1.71619 0
M  V30 21635 O 2246.2 -4.66272 -2.85049 0
M  V30 21636 H 2243.3 -0.686399 -0.461287 0
M  V30 21637 H 2245.84 -1.68093 -0.232961 0
M  V30 21638 H 2244.61 -3.81636 -0.86429 0
M  V30 21639 H 2244.24 -3.13927 -2.43999 0
M  V30 21640 N 2245.23 0.505704 -1.49266 0
M  V30 21641 C 2246.48 1.25764 -1.58202 0
M  V30 21642 C 2246.8 1.93142 -0.268516 0
M  V30 21643 O 2246.07 1.82511 0.711801 0
M  V30 21644 H 2244.65 0.467181 -0.582881 0
M  V30 21645 H 2247.31 0.586492 -1.85866 0
M  V30 21646 H 2246.41 2.02407 -2.37566 0
M  V30 21647 N 2246.71 1.38262 0.756405 0
M  V30 21648 C 2247.94 1.37343 1.54339 0
M  V30 21649 C 2248.35 -0.0393584 1.89159 0
M  V30 21650 O 2247.69 -1.01562 1.53071 0
M  V30 21651 C 2247.76 2.16187 2.87234 0
M  V30 21652 C 2247.42 3.65024 2.74967 0
M  V30 21653 C 2248.42 4.58578 2.44954 0
M  V30 21654 C 2246.1 4.08344 2.92508 0
M  V30 21655 C 2248.1 5.93432 2.32632 0
M  V30 21656 C 2245.78 5.43279 2.79806 0
M  V30 21657 C 2246.78 6.35637 2.4991 0
M  V30 21658 O 2246.47 7.6809 2.37262 0
M  V30 21659 H 2246.2 0.471652 0.484273 0
M  V30 21660 H 2248.75 1.82416 0.94412 0
M  V30 21661 H 2246.98 1.65828 3.49339 0
M  V30 21662 H 2248.67 2.07711 3.48728 0
M  V30 21663 H 2249.44 4.26416 2.31073 0
M  V30 21664 H 2245.32 3.36805 3.14775 0
M  V30 21665 H 2248.86 6.65487 2.09219 0
M  V30 21666 H 2244.76 5.75039 2.93259 0
M  V30 21667 H 2245.53 7.78581 2.52495 0
M  V30 21668 N 2248.19 -0.984277 1.23084 0
M  V30 21669 C 2249.1 -2.11015 1.02518 0
M  V30 21670 C 2250.12 -1.73976 -0.0291397 0
M  V30 21671 O 2251.29 -2.00719 0.165469 0
M  V30 21672 C 2248.36 -3.41207 0.614733 0
M  V30 21673 C 2247.42 -3.92294 1.74366 0
M  V30 21674 C 2246.65 -5.16273 1.3527 0
M  V30 21675 O 2246.87 -5.69915 0.235236 0
M  V30 21676 O 2245.81 -5.6133 2.17237 0
M  V30 21677 H 2249.63 -2.31252 1.96866 0
M  V30 21678 H 2247.22 -1.0939 1.01755 0
M  V30 21679 H 2249.1 -4.1953 0.396591 0
M  V30 21680 H 2247.78 -3.22309 -0.299794 0
M  V30 21681 H 2246.68 -3.15106 2.01641 0
M  V30 21682 H 2248.02 -4.1564 2.63637 0
M  V30 21683 N 2249.67 -1.04192 -1.18244 0
M  V30 21684 C 2250.6 -0.654953 -2.24126 0
M  V30 21685 C 2251.58 0.342422 -1.66618 0
M  V30 21686 O 2252.76 0.222243 -1.92924 0
M  V30 21687 C 2249.89 -0.0184367 -3.47295 0
M  V30 21688 C 2248.85 -0.939488 -4.17562 0
M  V30 21689 C 2248.17 -0.16738 -5.34438 0
M  V30 21690 C 2249.47 -2.25916 -4.70913 0
M  V30 21691 H 2251.17 -1.54012 -2.5675 0
M  V30 21692 H 2248.71 -0.741971 -1.23413 0
M  V30 21693 H 2250.67 0.264009 -4.20572 0
M  V30 21694 H 2249.39 0.901609 -3.13909 0
M  V30 21695 H 2248.05 -1.20634 -3.46184 0
M  V30 21696 H 2247.7 0.755112 -4.973 0
M  V30 21697 H 2247.4 -0.781003 -5.82387 0
M  V30 21698 H 2248.92 0.108018 -6.10504 0
M  V30 21699 H 2250.34 -2.03733 -5.35879 0
M  V30 21700 H 2248.73 -2.82586 -5.29401 0
M  V30 21701 H 2249.8 -2.90477 -3.88267 0
M  V30 21702 N 2251.15 1.34492 -0.821557 0
M  V30 21703 C 2252.42 1.92768 -0.331624 0
M  V30 21704 C 2252.8 1.74983 1.18085 0
M  V30 21705 O 2252.15 1.12775 1.98731 0
M  V30 21706 C 2252.36 3.40637 -0.759458 0
M  V30 21707 C 2253.71 4.17788 -0.757507 0
M  V30 21708 O 2254.73 3.49215 -0.701951 0
M  V30 21709 O 2253.59 5.40169 -0.829456 0
M  V30 21710 H 2250.69 0.822059 -0.0902646 0
M  V30 21711 H 2253.23 1.43475 -0.906256 0
M  V30 21712 H 2252 3.47376 -1.80126 0
M  V30 21713 H 2251.63 3.97276 -0.160447 0
M  V30 21714 N 2252.62 0.576397 1.46681 0
M  V30 21715 C 2254.04 0.23759 1.57822 0
M  V30 21716 C 2254.24 -1.26008 1.5724 0
M  V30 21717 O 2253.3 -2.04143 1.48599 0
M  V30 21718 C 2254.61 0.881218 2.87498 0
M  V30 21719 C 2256.16 0.854222 3.01118 0
M  V30 21720 C 2256.63 1.47727 4.33521 0
M  V30 21721 N 2258.12 1.44133 4.40204 0
M  V30 21722 C 2258.86 1.89286 5.41256 0
M  V30 21723 N 2258.35 2.42383 6.49017 0
M  V30 21724 N 2260.15 1.8024 5.32419 0
M  V30 21725 H 2252.3 1.54921 1.45304 0
M  V30 21726 H 2254.56 0.647179 0.692722 0
M  V30 21727 H 2254.27 1.93452 2.93716 0
M  V30 21728 H 2254.14 0.385658 3.75223 0
M  V30 21729 H 2256.53 -0.190439 2.94485 0
M  V30 21730 H 2256.61 1.38774 2.14885 0
M  V30 21731 H 2256.25 2.5211 4.40911 0
M  V30 21732 H 2256.18 0.919038 5.18518 0
M  V30 21733 H 2258.67 1.05314 3.62929 0
M  V30 21734 H 2258.99 2.7471 7.22325 0
M  V30 21735 H 2257.33 2.46405 6.49854 0
M  V30 21736 H 2260.52 1.38521 4.47135 0
M  V30 21737 H 2260.7 2.15746 6.1103 0
M  V30 21738 N 2254.1 -1.54444 0.313841 0
M  V30 21739 C 2255.33 -2.04802 -0.293882 0
M  V30 21740 C 2255.75 -1.1905 -1.46535 0
M  V30 21741 O 2255.1 -0.218971 -1.81182 0
M  V30 21742 C 2255.15 -3.53892 -0.737744 0
M  V30 21743 O 2254.87 -4.36386 0.387115 0
M  V30 21744 C 2256.38 -4.20302 -1.40929 0
M  V30 21745 H 2253.6 -0.66813 -0.061994 0
M  V30 21746 H 2256.14 -1.99324 0.457205 0
M  V30 21747 H 2254.29 -3.5969 -1.43883 0
M  V30 21748 H 2254.71 -5.24485 0.0392196 0
M  V30 21749 H 2256.18 -5.26104 -1.67089 0
M  V30 21750 H 2256.66 -3.7082 -2.35348 0
M  V30 21751 H 2257.27 -4.18616 -0.751043 0
M  V30 21752 N 2255.58 -0.0418125 -1.57545 0
M  V30 21753 C 2256.83 0.632796 -1.91938 0
M  V30 21754 C 2257.15 1.71933 -0.920008 0
M  V30 21755 O 2256.42 1.95866 0.0365719 0
M  V30 21756 H 2255 0.236729 -0.708497 0
M  V30 21757 H 2257.66 -0.0926087 -1.9468 0
M  V30 21758 H 2256.76 1.07741 -2.92913 0
M  V30 21759 N 2257.06 1.55891 0.231477 0
M  V30 21760 C 2258.31 1.7809 0.955429 0
M  V30 21761 C 2258.63 0.608565 1.85261 0
M  V30 21762 O 2257.9 -0.375001 1.92277 0
M  V30 21763 H 2256.48 0.656836 0.355775 0
M  V30 21764 H 2259.14 1.93345 0.245717 0
M  V30 21765 H 2258.24 2.69847 1.56809 0
M  V30 21766 N 2258.54 -0.497781 1.49532 0
M  V30 21767 C 2259.48 -1.6198 1.66929 0
M  V30 21768 C 2260.48 -1.60723 0.535195 0
M  V30 21769 O 2261.68 -1.65193 0.714925 0
M  V30 21770 H 2258.06 -0.537012 0.526424 0
M  V30 21771 H 2260.03 -1.4446 2.61101 0
M  V30 21772 C 2258.78 -3.00096 1.75607 0
M  V30 21773 H 2258.1 -3.0177 2.6225 0
M  V30 21774 H 2259.54 -3.78132 1.91813 0
M  V30 21775 C 2258 -3.33145 0.501601 0
M  V30 21776 O 2258.53 -3.99981 -0.371271 0
M  V30 21777 N 2256.74 -2.88317 0.363582 0
M  V30 21778 H 2256.28 -2.34102 1.0749 0
M  V30 21779 H 2256.24 -3.10796 -0.474673 0
M  V30 21780 N 2260.01 -1.38661 -0.749062 0
M  V30 21781 C 2261.25 -1.36536 -1.52109 0
M  V30 21782 C 2261.62 0.0431978 -1.91951 0
M  V30 21783 O 2262.82 0.189349 -2.68132 0
M  V30 21784 C 2261.09 -2.29833 -2.737 0
M  V30 21785 S 2262.65 -2.45769 -3.63515 0
M  V30 21786 H 2259.47 -0.484385 -0.520473 0
M  V30 21787 H 2262.07 -1.74628 -0.878932 0
M  V30 21788 H 2260.77 -3.31058 -2.42546 0
M  V30 21789 H 2260.3 -1.92906 -3.42857 0
M  V30 21790 H 2262.32 -1.68513 -4.6671 0
M  V30 21791 N 2261.49 0.977736 -1.23605 0
M  V30 21792 C 2262.72 1.75456 -1.09649 0
M  V30 21793 C 2263.14 1.85493 0.351826 0
M  V30 21794 O 2262.49 1.33602 1.24325 0
M  V30 21795 C 2262.54 3.18013 -1.71901 0
M  V30 21796 O 2262.27 3.08493 -3.11069 0
M  V30 21797 C 2263.77 4.12078 -1.63422 0
M  V30 21798 H 2260.99 0.550538 -0.383599 0
M  V30 21799 H 2263.53 1.22821 -1.63509 0
M  V30 21800 H 2261.69 3.67666 -1.22067 0
M  V30 21801 H 2262.1 3.98254 -3.41312 0
M  V30 21802 H 2263.57 5.098 -2.11678 0
M  V30 21803 H 2264.05 4.35171 -0.593538 0
M  V30 21804 H 2264.66 3.6833 -2.12634 0
M  V30 21805 N 2262.97 1.04818 1.1769 0
M  V30 21806 C 2264.25 0.669995 1.83767 0
M  V30 21807 C 2264.63 -0.849952 1.93233 0
M  V30 21808 O 2263.98 -1.75441 1.464 0
M  V30 21809 C 2264.19 1.35461 3.21639 0
M  V30 21810 C 2265.53 1.49024 3.97589 0
M  V30 21811 O 2266.56 1.31332 3.31105 0
M  V30 21812 O 2265.42 1.77923 5.16726 0
M  V30 21813 H 2262.51 0.235382 0.792795 0
M  V30 21814 H 2265.06 1.14754 1.25019 0
M  V30 21815 H 2263.83 2.39174 3.09696 0
M  V30 21816 H 2263.45 0.866175 3.8805 0
M  V30 21817 N 2264.45 -1.34055 0.828678 0
M  V30 21818 C 2265.7 -1.97366 0.415863 0
M  V30 21819 C 2266.01 -1.66412 -1.02793 0
M  V30 21820 O 2267.22 -2.23258 -1.54493 0
M  V30 21821 C 2265.67 -3.53172 0.692663 0
M  V30 21822 C 2265.28 -3.93013 2.15045 0
M  V30 21823 C 2267.03 -4.23085 0.346296 0
M  V30 21824 C 2264.93 -5.41754 2.37184 0
M  V30 21825 H 2263.86 -0.738568 0.151768 0
M  V30 21826 H 2266.51 -1.52817 1.01584 0
M  V30 21827 H 2264.9 -3.95994 0.022446 0
M  V30 21828 H 2266.07 -3.6128 2.8603 0
M  V30 21829 H 2264.38 -3.36053 2.45881 0
M  V30 21830 H 2266.98 -5.32455 0.489464 0
M  V30 21831 H 2267.32 -4.10205 -0.70977 0
M  V30 21832 H 2267.86 -3.85759 0.971326 0
M  V30 21833 H 2264.6 -5.59627 3.41317 0
M  V30 21834 H 2264.12 -5.74983 1.70749 0
M  V30 21835 H 2265.8 -6.0851 2.19829 0
M  V30 21836 N 2265.93 -0.584167 -1.46374 0
M  V30 21837 C 2267.2 -0.00337318 -1.956 0
M  V30 21838 C 2267.58 1.45779 -1.52682 0
M  V30 21839 O 2266.93 2.1484 -0.778198 0
M  V30 21840 C 2267.14 -0.176953 -3.48551 0
M  V30 21841 C 2268.49 -0.0455355 -4.24576 0
M  V30 21842 O 2269.51 -0.105863 -3.56043 0
M  V30 21843 O 2268.37 0.0889415 -5.46428 0
M  V30 21844 H 2265.47 0.0489921 -0.825548 0
M  V30 21845 H 2268.01 -0.652588 -1.5665 0
M  V30 21846 H 2266.79 -1.19267 -3.72681 0
M  V30 21847 H 2266.41 0.508626 -3.94333 0
M  V30 21848 N 2267.41 1.54275 -0.322027 0
M  V30 21849 C 2268.32 2.27975 0.553591 0
M  V30 21850 C 2269.33 1.3227 1.13052 0
M  V30 21851 O 2270.51 1.65282 1.15081 0
M  V30 21852 C 2267.57 3.02204 1.69922 0
M  V30 21853 C 2266.63 4.13492 1.15426 0
M  V30 21854 C 2265.87 4.84172 2.24529 0
M  V30 21855 O 2266.09 4.54356 3.44844 0
M  V30 21856 O 2265.02 5.71114 1.90034 0
M  V30 21857 H 2268.85 3.03667 -0.0448878 0
M  V30 21858 H 2266.43 1.49142 -0.087768 0
M  V30 21859 H 2268.32 3.48694 2.36624 0
M  V30 21860 H 2266.99 2.29389 2.28391 0
M  V30 21861 H 2265.9 3.71355 0.452371 0
M  V30 21862 H 2267.23 4.88346 0.614719 0
M  V30 21863 N 2268.88 0.0501669 1.5752 0
M  V30 21864 C 2270.12 -0.627748 1.94522 0
M  V30 21865 C 2270.49 -1.68068 0.928294 0
M  V30 21866 O 2271.69 -2.41259 1.18522 0
M  V30 21867 C 2269.96 -1.20926 3.36321 0
M  V30 21868 S 2271.52 -1.90532 3.95276 0
M  V30 21869 H 2268.34 -0.206146 0.680459 0
M  V30 21870 H 2270.94 0.118863 1.95138 0
M  V30 21871 H 2269.64 -0.430793 4.08133 0
M  V30 21872 H 2269.17 -1.99271 3.39197 0
M  V30 21873 H 2271.19 -3.18583 3.8042 0
M  V30 21874 N 2270.36 -1.56011 -0.223207 0
M  V30 21875 C 2271.32 -1.91452 -1.26011 0
M  V30 21876 C 2272.32 -0.792961 -1.39888 0
M  V30 21877 O 2273.51 -1.06073 -1.38182 0
M  V30 21878 C 2270.65 -2.16388 -2.63418 0
M  V30 21879 H 2271.84 -2.8419 -0.95791 0
M  V30 21880 H 2269.39 -1.49268 -0.46355 0
M  V30 21881 H 2270.13 -1.26196 -2.98739 0
M  V30 21882 H 2269.91 -2.98092 -2.54723 0
M  V30 21883 H 2271.4 -2.44909 -3.38245 0
M  V30 21884 N 2271.84 0.489844 -1.49794 0
M  V30 21885 C 2273.12 1.25117 -1.5035 0
M  V30 21886 C 2273.5 2.0976 -0.237503 0
M  V30 21887 O 2272.84 2.14783 0.779772 0
M  V30 21888 C 2273.05 2.09832 -2.78875 0
M  V30 21889 C 2274.4 2.68649 -3.28805 0
M  V30 21890 O 2275.43 2.20091 -2.80069 0
M  V30 21891 O 2274.29 3.57076 -4.13714 0
M  V30 21892 H 2271.38 0.566764 -0.602252 0
M  V30 21893 H 2273.93 0.5032 -1.62068 0
M  V30 21894 H 2272.7 1.47337 -3.62502 0
M  V30 21895 H 2272.32 2.918 -2.70072 0
M  V30 21896 N 2273.32 1.39056 0.741698 0
M  V30 21897 C 2274.73 1.3207 1.31963 0
M  V30 21898 C 2275.08 -0.0180453 1.96192 0
M  V30 21899 O 2274.2 -0.920162 1.95862 0
M  V30 21900 C 2274.8 2.39185 2.3995 0
M  V30 21901 C 2273.36 2.35741 2.93434 0
M  V30 21902 C 2272.51 2.21425 1.66932 0
M  V30 21903 H 2275.46 1.49241 0.539695 0
M  V30 21904 H 2275.48 2.05587 3.20178 0
M  V30 21905 H 2274.99 3.36609 1.93174 0
M  V30 21906 H 2273.09 1.41935 3.44507 0
M  V30 21907 H 2273.2 3.30341 3.47004 0
M  V30 21908 H 2271.57 1.68481 1.91014 0
M  V30 21909 H 2272.35 3.20808 1.22218 0
M  V30 21910 N 2274.8 -0.971167 1.24121 0
M  V30 21911 C 2276.04 -1.70799 1.07287 0
M  V30 21912 C 2276.36 -1.91696 -0.388868 0
M  V30 21913 O 2277.56 -2.62915 -0.677333 0
M  V30 21914 C 2276.02 -3.07413 1.8715 0
M  V30 21915 C 2275.63 -2.94371 3.37712 0
M  V30 21916 C 2277.37 -3.84992 1.78834 0
M  V30 21917 C 2275.28 -4.26274 4.09933 0
M  V30 21918 H 2274.21 -0.640483 0.397865 0
M  V30 21919 H 2276.86 -1.08247 1.48172 0
M  V30 21920 H 2275.24 -3.70774 1.39078 0
M  V30 21921 H 2276.42 -2.40044 3.93339 0
M  V30 21922 H 2274.73 -2.30261 3.46942 0
M  V30 21923 H 2277.33 -4.82658 2.30098 0
M  V30 21924 H 2277.67 -4.09435 0.752912 0
M  V30 21925 H 2278.2 -3.2835 2.24568 0
M  V30 21926 H 2274.94 -4.07024 5.13821 0
M  V30 21927 H 2274.46 -4.8043 3.59091 0
M  V30 21928 H 2276.14 -4.94912 4.16739 0
M  V30 21929 N 2276.27 -1.05441 -1.17133 0
M  V30 21930 C 2277.22 -0.65155 -2.23288 0
M  V30 21931 C 2278.22 0.328382 -1.66187 0
M  V30 21932 O 2279.42 0.194174 -1.7895 0
M  V30 21933 H 2275.8 -0.192536 -0.726935 0
M  V30 21934 H 2277.77 -1.55694 -2.54562 0
M  V30 21935 C 2276.52 -0.0449047 -3.47671 0
M  V30 21936 H 2275.84 -0.790029 -3.91917 0
M  V30 21937 H 2277.28 0.199566 -4.2353 0
M  V30 21938 C 2275.74 1.20912 -3.14455 0
M  V30 21939 O 2276.27 2.29819 -3.29463 0
M  V30 21940 N 2274.48 1.10774 -2.68659 0
M  V30 21941 H 2274.02 0.221481 -2.56646 0
M  V30 21942 H 2273.98 1.94766 -2.46807 0
M  V30 21943 N 2277.75 1.33613 -0.835776 0
M  V30 21944 C 2278.99 1.99695 -0.436025 0
M  V30 21945 C 2279.36 1.64776 0.985541 0
M  V30 21946 O 2280.56 2.238 1.48885 0
M  V30 21947 C 2278.83 3.51499 -0.646783 0
M  V30 21948 S 2280.39 4.37467 -0.341792 0
M  V30 21949 H 2277.21 0.691792 -0.164148 0
M  V30 21950 H 2279.81 1.62669 -1.08439 0
M  V30 21951 H 2278.51 3.74401 -1.68083 0
M  V30 21952 H 2278.04 3.93397 0.0158482 0
M  V30 21953 H 2280.06 4.89045 0.839622 0
M  V30 21954 N 2279.23 0.591922 1.46062 0
M  V30 21955 C 2280.48 0.0811547 2.02638 0
M  V30 21956 C 2280.81 -1.27902 1.46132 0
M  V30 21957 O 2280.08 -1.84016 0.62994 0
M  V30 21958 C 2280.37 0.0253069 3.60091 0
M  V30 21959 C 2280.22 1.41504 4.26962 0
M  V30 21960 C 2281.54 -0.670608 4.34961 0
M  V30 21961 H 2278.66 0.0309654 0.736349 0
M  V30 21962 H 2281.3 0.76089 1.74099 0
M  V30 21963 H 2279.45 -0.553557 3.84536 0
M  V30 21964 H 2281.12 2.03978 4.13752 0
M  V30 21965 H 2279.37 1.98018 3.85968 0
M  V30 21966 H 2280.04 1.32835 5.35779 0
M  V30 21967 H 2282.51 -0.178752 4.15716 0
M  V30 21968 H 2281.39 -0.678742 5.44687 0
M  V30 21969 H 2281.65 -1.73371 4.06688 0
M  V30 21970 N 2280.71 -1.54102 0.330204 0
M  V30 21971 C 2281.66 -2.26048 -0.548186 0
M  V30 21972 C 2282.65 -1.277 -1.11306 0
M  V30 21973 O 2283.86 -1.45454 -1.06034 0
M  V30 21974 H 2280.23 -0.726158 -0.195443 0
M  V30 21975 H 2282.2 -2.98291 0.0808092 0
M  V30 21976 C 2280.95 -3.03637 -1.6941 0
M  V30 21977 H 2280.27 -3.79136 -1.2687 0
M  V30 21978 H 2281.71 -3.57214 -2.28417 0
M  V30 21979 C 2280.17 -2.12333 -2.61565 0
M  V30 21980 O 2280.7 -1.71056 -3.63459 0
M  V30 21981 N 2278.91 -1.77685 -2.29949 0
M  V30 21982 H 2278.46 -2.11448 -1.4713 0
M  V30 21983 H 2278.41 -1.16874 -2.91869 0
M  V30 21984 N 2282.19 -0.0585199 -1.57491 0
M  V30 21985 C 2283.43 0.612402 -1.92598 0
M  V30 21986 C 2283.76 1.70947 -0.938192 0
M  V30 21987 O 2283.03 1.95894 0.0157957 0
M  V30 21988 H 2281.61 0.229201 -0.710968 0
M  V30 21989 H 2284.27 -0.113252 -1.94571 0
M  V30 21990 H 2283.36 1.04628 -2.9404 0
M  V30 21991 N 2283.66 1.56128 0.21493 0
M  V30 21992 C 2284.59 1.95976 1.26947 0
M  V30 21993 C 2285.58 0.828894 1.48537 0
M  V30 21994 O 2286.76 1.09171 1.60609 0
M  V30 21995 C 2283.89 2.28218 2.6179 0
M  V30 21996 C 2282.84 3.43858 2.54845 0
M  V30 21997 C 2282.17 3.61722 3.93778 0
M  V30 21998 C 2283.47 4.78636 2.09057 0
M  V30 21999 H 2285.16 2.84314 0.93841 0
M  V30 22000 H 2282.71 1.36789 0.449972 0
M  V30 22001 H 2284.66 2.54688 3.35726 0
M  V30 22002 H 2283.39 1.36741 2.96596 0
M  V30 22003 H 2282.05 3.17447 1.83365 0
M  V30 22004 H 2281.69 2.6761 4.25904 0
M  V30 22005 H 2281.39 4.39505 3.90012 0
M  V30 22006 H 2282.92 3.90547 4.69367 0
M  V30 22007 H 2284.33 5.04267 2.72741 0
M  V30 22008 H 2282.73 5.59749 2.16336 0
M  V30 22009 H 2283.8 4.73549 1.04306 0
M  V30 22010 N 2285.14 -0.481893 1.50052 0
M  V30 22011 C 2286.38 -1.24471 1.62131 0
M  V30 22012 C 2286.75 -1.89485 0.309775 0
M  V30 22013 O 2287.95 -2.67054 0.305901 0
M  V30 22014 C 2286.22 -2.26877 2.76155 0
M  V30 22015 S 2287.78 -3.12242 3.08302 0
M  V30 22016 H 2284.6 -0.422749 0.571668 0
M  V30 22017 H 2287.2 -0.543557 1.87792 0
M  V30 22018 H 2285.9 -1.77677 3.69945 0
M  V30 22019 H 2285.43 -3.01635 2.52546 0
M  V30 22020 H 2287.45 -4.27861 2.51295 0
M  V30 22021 N 2286.62 -1.39448 -0.734313 0
M  V30 22022 C 2287.87 -1.36911 -1.4961 0
M  V30 22023 C 2288.2 0.0347488 -1.94169 0
M  V30 22024 O 2287.47 0.999818 -1.66835 0
M  V30 22025 C 2287.76 -2.34208 -2.7353 0
M  V30 22026 C 2287.61 -3.83538 -2.34986 0
M  V30 22027 C 2288.93 -2.29324 -3.75631 0
M  V30 22028 H 2286.05 -0.498638 -0.542705 0
M  V30 22029 H 2288.69 -1.70444 -0.839567 0
M  V30 22030 H 2286.84 -2.05742 -3.29549 0
M  V30 22031 H 2288.51 -4.22756 -1.84593 0
M  V30 22032 H 2286.76 -4.00281 -1.67206 0
M  V30 22033 H 2287.43 -4.47105 -3.2373 0
M  V30 22034 H 2289.9 -2.54495 -3.29198 0
M  V30 22035 H 2288.78 -2.9948 -4.60003 0
M  V30 22036 H 2289.04 -1.29849 -4.22601 0
M  V30 22037 N 2288.1 0.964571 -1.24635 0
M  V30 22038 C 2289.05 2.08094 -1.03921 0
M  V30 22039 C 2290.04 1.69379 0.0268283 0
M  V30 22040 O 2291.25 1.79544 -0.127984 0
M  V30 22041 H 2287.62 0.680961 -0.319055 0
M  V30 22042 H 2289.59 2.22725 -1.98585 0
M  V30 22043 C 2288.34 3.413 -0.664043 0
M  V30 22044 H 2287.66 3.71552 -1.47611 0
M  V30 22045 H 2289.1 4.20302 -0.558737 0
M  V30 22046 C 2287.56 3.30974 0.629111 0
M  V30 22047 O 2288.09 3.65159 1.67398 0
M  V30 22048 N 2286.3 2.84104 0.611007 0
M  V30 22049 H 2285.85 2.56483 -0.239639 0
M  V30 22050 H 2285.8 2.77577 1.47642 0
M  V30 22051 N 2289.58 1.0606 1.16572 0
M  V30 22052 C 2290.8 0.796585 1.90951 0
M  V30 22053 C 2291.22 -0.648777 1.77303 0
M  V30 22054 O 2290.58 -1.44395 1.11607 0
M  V30 22055 C 2290.63 1.179 3.41734 0
M  V30 22056 O 2290.35 2.56764 3.5497 0
M  V30 22057 C 2291.85 0.942384 4.33167 0
M  V30 22058 H 2289.07 0.28897 0.605589 0
M  V30 22059 H 2291.61 1.41361 1.47775 0
M  V30 22060 H 2289.77 0.606558 3.82622 0
M  V30 22061 H 2290.18 2.72008 4.48455 0
M  V30 22062 H 2291.66 1.25961 5.37436 0
M  V30 22063 H 2292.13 -0.122001 4.39031 0
M  V30 22064 H 2292.74 1.49909 3.98004 0
M  V30 22065 N 2291.06 -1.33168 0.84285 0
M  V30 22066 C 2292.47 -1.79972 0.496682 0
M  V30 22067 C 2292.82 -1.69705 -0.984611 0
M  V30 22068 O 2291.94 -1.24866 -1.76741 0
M  V30 22069 C 2292.54 -3.26771 0.894784 0
M  V30 22070 C 2291.1 -3.71576 0.600695 0
M  V30 22071 C 2290.24 -2.54508 1.10095 0
M  V30 22072 H 2293.19 -1.20633 1.03118 0
M  V30 22073 H 2293.22 -3.7994 0.206414 0
M  V30 22074 H 2292.73 -3.34211 1.97293 0
M  V30 22075 H 2290.83 -3.69659 -0.467219 0
M  V30 22076 H 2290.94 -4.64877 1.15872 0
M  V30 22077 H 2289.31 -2.49301 0.521664 0
M  V30 22078 H 2290.09 -2.64709 2.18596 0
M  V30 22079 N 2292.53 -0.599659 -1.45746 0
M  V30 22080 C 2293.78 -0.0915827 -2.01892 0
M  V30 22081 C 2294.1 1.27944 -1.47158 0
M  V30 22082 O 2293.37 1.84348 -0.662762 0
M  V30 22083 H 2291.95 -0.0308655 -0.746362 0
M  V30 22084 H 2294.61 -0.779268 -1.78643 0
M  V30 22085 H 2293.71 -0.0353635 -3.1208 0
M  V30 22086 N 2294.01 1.53925 -0.338371 0
M  V30 22087 C 2295.43 1.59594 0.0137455 0
M  V30 22088 C 2295.63 1.35449 1.49183 0
M  V30 22089 O 2294.68 1.1462 2.24985 0
M  V30 22090 C 2296 2.97784 -0.417782 0
M  V30 22091 C 2297.54 3.10809 -0.369688 0
M  V30 22092 C 2298.02 4.51368 -0.776604 0
M  V30 22093 N 2299.51 4.57402 -0.730587 0
M  V30 22094 C 2300.25 5.64301 -1.01746 0
M  V30 22095 N 2299.74 6.79074 -1.37222 0
M  V30 22096 N 2301.53 5.5415 -0.942039 0
M  V30 22097 H 2293.69 1.67874 -1.30123 0
M  V30 22098 H 2295.95 0.785941 -0.530096 0
M  V30 22099 H 2295.65 3.20501 -1.44817 0
M  V30 22100 H 2295.53 3.76617 0.209663 0
M  V30 22101 H 2297.92 2.87818 0.651517 0
M  V30 22102 H 2298 2.34047 -1.03227 0
M  V30 22103 H 2297.64 4.75093 -1.79579 0
M  V30 22104 H 2297.57 5.2652 -0.0915574 0
M  V30 22105 H 2300.06 3.7498 -0.468849 0
M  V30 22106 H 2300.37 7.56557 -1.5761 0
M  V30 22107 H 2298.72 6.80534 -1.41062 0
M  V30 22108 H 2301.91 4.63363 -0.664266 0
M  V30 22109 H 2302.08 6.37369 -1.16896 0
M  V30 22110 N 2295.49 0.0668712 1.57458 0
M  V30 22111 C 2296.72 -0.611643 1.97339 0
M  V30 22112 C 2297.13 -1.6398 0.943773 0
M  V30 22113 O 2296.47 -1.83532 -0.0785261 0
M  V30 22114 C 2296.53 -1.34199 3.33513 0
M  V30 22115 C 2296.2 -0.467861 4.54599 0
M  V30 22116 C 2297.19 0.27253 5.19185 0
M  V30 22117 C 2294.88 -0.394182 5.00751 0
M  V30 22118 C 2296.87 1.07487 6.28272 0
M  V30 22119 C 2294.56 0.411836 6.09711 0
M  V30 22120 C 2295.56 1.14504 6.73333 0
M  V30 22121 O 2295.25 1.93777 7.80196 0
M  V30 22122 H 2294.98 -0.170882 0.654045 0
M  V30 22123 H 2297.53 0.134325 2.0496 0
M  V30 22124 H 2295.76 -2.13392 3.22491 0
M  V30 22125 H 2297.45 -1.91226 3.58033 0
M  V30 22126 H 2298.22 0.225171 4.84477 0
M  V30 22127 H 2294.1 -0.95449 4.51011 0
M  V30 22128 H 2297.64 1.64767 6.77863 0
M  V30 22129 H 2293.54 0.460777 6.43853 0
M  V30 22130 H 2294.3 1.86156 7.9705 0
M  V30 22131 N 2296.97 -1.56239 -0.206647 0
M  V30 22132 C 2297.88 -1.96811 -1.27682 0
M  V30 22133 C 2298.89 -0.874062 -1.50453 0
M  V30 22134 O 2300.07 -1.17887 -1.63293 0
M  V30 22135 C 2297.13 -2.28946 -2.60354 0
M  V30 22136 C 2296.2 -3.51998 -2.45756 0
M  V30 22137 C 2295.43 -3.82591 -3.72102 0
M  V30 22138 O 2295.65 -3.1464 -4.75771 0
M  V30 22139 O 2294.59 -4.76049 -3.68321 0
M  V30 22140 H 2298.41 -2.88043 -0.962543 0
M  V30 22141 H 2296 -1.43643 -0.410721 0
M  V30 22142 H 2297.88 -2.50743 -3.38682 0
M  V30 22143 H 2296.55 -1.40885 -2.91433 0
M  V30 22144 H 2295.46 -3.35462 -1.65578 0
M  V30 22145 H 2296.79 -4.40489 -2.19613 0
M  V30 22146 N 2298.45 0.473929 -1.50305 0
M  V30 22147 C 2299.69 1.2361 -1.62788 0
M  V30 22148 C 2300.05 1.89318 -0.319819 0
M  V30 22149 O 2301.25 2.66888 -0.320059 0
M  V30 22150 C 2299.52 2.25409 -2.77355 0
M  V30 22151 S 2301.08 3.10603 -3.09954 0
M  V30 22152 H 2297.9 0.419711 -0.573902 0
M  V30 22153 H 2300.5 0.53359 -1.88077 0
M  V30 22154 H 2299.2 1.75712 -3.70882 0
M  V30 22155 H 2298.74 3.00292 -2.54142 0
M  V30 22156 H 2300.75 4.26523 -2.5356 0
M  V30 22157 N 2299.92 1.39835 0.726907 0
M  V30 22158 C 2300.87 1.39357 1.86232 0
M  V30 22159 C 2301.87 0.275585 1.67143 0
M  V30 22160 O 2303.07 0.44604 1.74386 0
M  V30 22161 H 2299.45 0.435351 0.613167 0
M  V30 22162 H 2301.42 2.35113 1.83752 0
M  V30 22163 C 2300.17 1.2619 3.23993 0
M  V30 22164 H 2299.49 2.1149 3.39282 0
M  V30 22165 H 2300.93 1.29914 4.03607 0
M  V30 22166 C 2299.39 -0.0289426 3.36888 0
M  V30 22167 O 2299.92 -0.996122 3.89153 0
M  V30 22168 N 2298.12 -0.0946926 2.90446 0
M  V30 22169 H 2297.67 0.693079 2.48101 0
M  V30 22170 H 2297.63 -0.95788 2.99453 0
M  V30 22171 N 2301.4 -0.957948 1.25144 0
M  V30 22172 C 2302.64 -1.71701 1.10896 0
M  V30 22173 C 2303.01 -1.8888 -0.344747 0
M  V30 22174 O 2304.21 -2.61811 -0.608968 0
M  V30 22175 C 2302.48 -3.0646 1.83895 0
M  V30 22176 S 2304.04 -3.97663 1.85498 0
M  V30 22177 H 2300.85 -0.590219 0.396438 0
M  V30 22178 H 2303.46 -1.1428 1.5862 0
M  V30 22179 H 2302.16 -2.91625 2.88762 0
M  V30 22180 H 2301.69 -3.68943 1.36545 0
M  V30 22181 H 2303.71 -4.87414 0.929639 0
M  V30 22182 N 2302.88 -1.06677 -1.16008 0
M  V30 22183 C 2304.29 -0.809595 -1.68233 0
M  V30 22184 C 2304.64 0.666271 -1.84541 0
M  V30 22185 O 2303.77 1.51647 -1.54377 0
M  V30 22186 C 2304.36 -1.46304 -3.05582 0
M  V30 22187 C 2302.92 -1.25355 -3.54913 0
M  V30 22188 C 2302.07 -1.53707 -2.30801 0
M  V30 22189 H 2305.02 -1.22973 -1.00316 0
M  V30 22190 H 2305.04 -0.880496 -3.70172 0
M  V30 22191 H 2304.55 -2.53718 -2.93681 0
M  V30 22192 H 2302.65 -0.199327 -3.72066 0
M  V30 22193 H 2302.77 -1.96897 -4.3677 0
M  V30 22194 H 2301.13 -0.95778 -2.36006 0
M  V30 22195 H 2301.91 -2.62288 -2.21494 0
M  V30 22196 N 2304.36 1.32719 -0.8499 0
M  V30 22197 C 2305.77 1.79706 -0.50622 0
M  V30 22198 C 2306.12 1.70225 0.975597 0
M  V30 22199 O 2305.24 1.25802 1.76076 0
M  V30 22200 C 2305.84 3.26292 -0.912101 0
M  V30 22201 C 2304.4 3.71252 -0.620392 0
M  V30 22202 C 2303.55 2.5392 -1.11444 0
M  V30 22203 H 2306.5 1.20085 -1.03756 0
M  V30 22204 H 2306.52 3.79825 -0.22656 0
M  V30 22205 H 2306.03 3.3316 -1.99063 0
M  V30 22206 H 2304.13 3.69902 0.447609 0
M  V30 22207 H 2304.24 4.64256 -1.18335 0
M  V30 22208 H 2302.61 2.4902 -0.534878 0
M  V30 22209 H 2303.39 2.63546 -2.19997 0
M  V30 22210 N 2305.84 0.60738 1.45426 0
M  V30 22211 C 2307.11 0.034491 1.9557 0
M  V30 22212 C 2307.49 -1.43332 1.54981 0
M  V30 22213 O 2306.84 -2.13575 0.812278 0
M  V30 22214 C 2307.05 0.232382 3.48225 0
M  V30 22215 C 2308.4 0.113076 4.24449 0
M  V30 22216 O 2309.42 0.162493 3.55829 0
M  V30 22217 O 2308.28 -0.00199836 5.465 0
M  V30 22218 H 2305.38 -0.0358522 0.826223 0
M  V30 22219 H 2307.92 0.677427 1.55592 0
M  V30 22220 H 2306.69 1.25181 3.70736 0
M  V30 22221 H 2306.32 -0.445826 3.95093 0
M  V30 22222 N 2307.31 -1.53743 0.34653 0
M  V30 22223 C 2308.56 -2.00962 -0.249069 0
M  V30 22224 C 2308.89 -1.23429 -1.50318 0
M  V30 22225 O 2308.14 -0.310795 -1.93216 0
M  V30 22226 C 2308.44 -3.52229 -0.605747 0
M  V30 22227 C 2308.11 -4.47511 0.551825 0
M  V30 22228 C 2306.77 -4.73279 0.869493 0
M  V30 22229 C 2309.12 -5.03991 1.32827 0
M  V30 22230 C 2306.45 -5.52783 1.96592 0
M  V30 22231 C 2308.8 -5.8469 2.41496 0
M  V30 22232 C 2307.47 -6.08752 2.73819 0
M  V30 22233 H 2306.74 -0.735374 -0.0911408 0
M  V30 22234 H 2309.38 -1.85514 0.47506 0
M  V30 22235 H 2307.69 -3.65525 -1.41063 0
M  V30 22236 H 2309.39 -3.86224 -1.07852 0
M  V30 22237 H 2305.98 -4.27589 0.294177 0
M  V30 22238 H 2310.16 -4.84045 1.0961 0
M  V30 22239 H 2305.42 -5.6965 2.22055 0
M  V30 22240 H 2309.59 -6.27467 3.02089 0
M  V30 22241 H 2307.22 -6.70144 3.58903 0
M  V30 22242 N 2308.79 -0.0752207 -1.5742 0
M  V30 22243 C 2309.72 0.920446 -2.09906 0
M  V30 22244 C 2310.74 1.25916 -1.03194 0
M  V30 22245 O 2311.93 1.21575 -1.30697 0
M  V30 22246 C 2309.03 2.2353 -2.5473 0
M  V30 22247 C 2308.2 2.07491 -3.85053 0
M  V30 22248 C 2307.26 3.22311 -4.15935 0
M  V30 22249 O 2306.28 2.97151 -4.85479 0
M  V30 22250 N 2307.49 4.47507 -3.69753 0
M  V30 22251 H 2310.25 0.472307 -2.95955 0
M  V30 22252 H 2307.81 0.110416 -1.61523 0
M  V30 22253 H 2309.8 2.99255 -2.72449 0
M  V30 22254 H 2308.37 2.59831 -1.738 0
M  V30 22255 H 2307.59 1.16213 -3.76681 0
M  V30 22256 H 2308.88 1.94029 -4.70351 0
M  V30 22257 H 2308.28 4.70835 -3.13578 0
M  V30 22258 H 2306.84 5.20248 -3.92665 0
M  V30 22259 N 2310.27 1.56347 0.198358 0
M  V30 22260 C 2311.2 1.97312 1.24861 0
M  V30 22261 C 2312.18 0.844602 1.4765 0
M  V30 22262 O 2313.37 1.10868 1.59442 0
M  V30 22263 C 2310.5 2.30982 2.59354 0
M  V30 22264 C 2309.45 3.46541 2.51183 0
M  V30 22265 C 2308.78 3.65878 3.8992 0
M  V30 22266 C 2310.08 4.80826 2.03969 0
M  V30 22267 H 2311.77 2.85293 0.908202 0
M  V30 22268 H 2309.32 1.37259 0.435438 0
M  V30 22269 H 2311.27 2.58234 3.33006 0
M  V30 22270 H 2309.99 1.3988 2.95129 0
M  V30 22271 H 2308.65 3.19374 1.79988 0
M  V30 22272 H 2308.3 2.72112 4.23041 0
M  V30 22273 H 2308 4.43617 3.85328 0
M  V30 22274 H 2309.52 3.95503 4.65198 0
M  V30 22275 H 2310.94 5.07132 2.67377 0
M  V30 22276 H 2309.34 5.62012 2.10387 0
M  V30 22277 H 2310.41 4.74628 0.992778 0
M  V30 22278 N 2311.75 -0.465951 1.50554 0
M  V30 22279 C 2312.7 -1.58403 1.70327 0
M  V30 22280 C 2313.69 -1.59552 0.569167 0
M  V30 22281 O 2314.9 -1.6364 0.749805 0
M  V30 22282 H 2311.27 -0.525724 0.537697 0
M  V30 22283 H 2313.24 -1.3889 2.64106 0
M  V30 22284 C 2311.99 -2.96303 1.81933 0
M  V30 22285 H 2311.31 -2.9614 2.68592 0
M  V30 22286 H 2312.75 -3.73978 1.99791 0
M  V30 22287 C 2311.21 -3.32006 0.572153 0
M  V30 22288 O 2311.74 -4.00678 -0.286346 0
M  V30 22289 N 2309.95 -2.8748 0.424656 0
M  V30 22290 H 2309.5 -2.31769 1.12431 0
M  V30 22291 H 2309.45 -3.11733 -0.408642 0
M  V30 22292 N 2313.23 -1.40218 -0.719481 0
M  V30 22293 C 2314.64 -1.34153 -1.29846 0
M  V30 22294 C 2314.99 -0.0131694 -1.96196 0
M  V30 22295 O 2314.11 0.888885 -1.97301 0
M  V30 22296 C 2314.71 -2.42972 -2.36114 0
M  V30 22297 C 2313.27 -2.40379 -2.89646 0
M  V30 22298 C 2312.41 -2.24052 -1.63389 0
M  V30 22299 H 2315.37 -1.50081 -0.515884 0
M  V30 22300 H 2315.39 -2.10655 -3.16867 0
M  V30 22301 H 2314.9 -3.39639 -1.87794 0
M  V30 22302 H 2313 -1.47398 -3.42206 0
M  V30 22303 H 2313.11 -3.3582 -3.41705 0
M  V30 22304 H 2311.48 -1.71499 -1.88309 0
M  V30 22305 H 2312.26 -3.22712 -1.17099 0
M  V30 22306 N 2314.7 0.951297 -1.25651 0
M  V30 22307 C 2315.93 1.7309 -1.13346 0
M  V30 22308 C 2316.35 1.86197 0.312401 0
M  V30 22309 O 2315.7 1.36209 1.21463 0
M  V30 22310 C 2315.76 3.14295 -1.78607 0
M  V30 22311 O 2315.48 3.01825 -3.17542 0
M  V30 22312 C 2316.98 4.08519 -1.72126 0
M  V30 22313 H 2314.2 0.542278 -0.395191 0
M  V30 22314 H 2316.74 1.19325 -1.66078 0
M  V30 22315 H 2314.9 3.64994 -1.29839 0
M  V30 22316 H 2315.31 3.90925 -3.49683 0
M  V30 22317 H 2316.78 5.05196 -2.22444 0
M  V30 22318 H 2317.26 4.33814 -0.685711 0
M  V30 22319 H 2317.87 3.63737 -2.20399 0
M  V30 22320 N 2316.18 1.07291 1.1544 0
M  V30 22321 C 2317.43 0.794129 1.85844 0
M  V30 22322 C 2317.75 -0.681776 1.82693 0
M  V30 22323 O 2317.02 -1.49375 1.26744 0
M  V30 22324 H 2315.6 0.290775 0.688083 0
M  V30 22325 H 2318.26 1.35652 1.39945 0
M  V30 22326 H 2317.36 1.12809 2.90999 0
M  V30 22327 N 2317.66 -1.32267 0.856927 0
M  V30 22328 C 2318.91 -1.97465 0.462104 0
M  V30 22329 C 2319.24 -1.67644 -0.980269 0
M  V30 22330 O 2318.51 -0.965888 -1.68822 0
M  V30 22331 C 2318.8 -3.53143 0.704398 0
M  V30 22332 C 2318.65 -3.92587 2.19536 0
M  V30 22333 C 2319.97 -4.39801 0.162278 0
M  V30 22334 H 2317.09 -0.717275 0.169369 0
M  V30 22335 H 2319.73 -1.56612 1.07577 0
M  V30 22336 H 2317.88 -3.88073 0.182067 0
M  V30 22337 H 2319.55 -3.67824 2.78394 0
M  V30 22338 H 2317.8 -3.41664 2.67298 0
M  V30 22339 H 2318.47 -5.01084 2.31557 0
M  V30 22340 H 2320.94 -4.1162 0.608978 0
M  V30 22341 H 2319.82 -5.47709 0.361361 0
M  V30 22342 H 2320.08 -4.32098 -0.935082 0
M  V30 22343 N 2319.14 -0.615084 -1.45102 0
M  V30 22344 C 2320.39 -0.112991 -2.01784 0
M  V30 22345 C 2320.71 1.26376 -1.48506 0
M  V30 22346 O 2319.98 1.83635 -0.682277 0
M  V30 22347 H 2318.56 -0.0387799 -0.745993 0
M  V30 22348 H 2321.22 -0.798172 -1.77807 0
M  V30 22349 H 2320.32 -0.0684618 -3.12025 0
M  V30 22350 N 2320.62 1.53557 -0.354678 0
M  V30 22351 C 2321.86 2.03002 0.238615 0
M  V30 22352 C 2322.22 1.23659 1.46876 0
M  V30 22353 O 2323.42 1.63057 2.13696 0
M  V30 22354 C 2321.69 3.53386 0.534113 0
M  V30 22355 S 2323.25 4.2472 1.10263 0
M  V30 22356 H 2320.07 0.707518 0.0702784 0
M  V30 22357 H 2322.67 1.89129 -0.49502 0
M  V30 22358 H 2321.38 4.08739 -0.368837 0
M  V30 22359 H 2320.91 3.71401 1.29712 0
M  V30 22360 H 2322.92 4.34978 2.38764 0
M  V30 22361 N 2322.1 0.083568 1.57378 0
M  V30 22362 C 2323.34 -0.583699 1.94218 0
M  V30 22363 C 2323.67 -1.68545 0.964683 0
M  V30 22364 O 2322.95 -1.945 -0.00418839 0
M  V30 22365 C 2323.23 -1.14966 3.41255 0
M  V30 22366 C 2323.09 -0.0537487 4.49768 0
M  V30 22367 C 2324.4 -2.05159 3.89356 0
M  V30 22368 H 2321.52 -0.210711 0.706236 0
M  V30 22369 H 2324.17 0.151933 1.89392 0
M  V30 22370 H 2322.32 -1.77659 3.45499 0
M  V30 22371 H 2323.99 0.579931 4.5764 0
M  V30 22372 H 2322.23 0.614144 4.29431 0
M  V30 22373 H 2322.9 -0.490355 5.49818 0
M  V30 22374 H 2325.38 -1.52387 3.87192 0
M  V30 22375 H 2324.25 -2.41689 4.92826 0
M  V30 22376 H 2324.51 -2.9645 3.27978 0
M  V30 22377 N 2323.57 -1.5645 -0.190064 0
M  V30 22378 C 2324.85 -1.71759 -0.935856 0
M  V30 22379 C 2325.23 -0.639761 -2.01172 0
M  V30 22380 O 2324.58 0.348462 -2.25827 0
M  V30 22381 C 2324.79 -3.14272 -1.51769 0
M  V30 22382 C 2326.14 -3.7466 -1.99788 0
M  V30 22383 O 2327.16 -3.17432 -1.61602 0
M  V30 22384 O 2326.02 -4.75104 -2.7007 0
M  V30 22385 H 2323.11 -0.700727 -0.439216 0
M  V30 22386 H 2325.66 -1.68749 -0.179365 0
M  V30 22387 H 2324.43 -3.84192 -0.742438 0
M  V30 22388 H 2324.05 -3.21531 -2.33888 0
M  V30 22389 N 2325.05 0.45796 -1.50799 0
M  V30 22390 C 2326 1.57497 -1.71165 0
M  V30 22391 C 2326.99 1.59248 -0.57762 0
M  V30 22392 O 2328.2 1.6324 -0.758472 0
M  V30 22393 H 2324.57 0.522866 -0.540477 0
M  V30 22394 H 2326.55 1.37487 -2.64839 0
M  V30 22395 C 2325.29 2.95334 -1.83502 0
M  V30 22396 H 2324.62 2.94711 -2.70158 0
M  V30 22397 H 2326.06 3.72913 -2.01771 0
M  V30 22398 C 2324.52 3.31698 -0.589752 0
M  V30 22399 O 2325.05 4.00824 0.265093 0
M  V30 22400 N 2323.25 2.87251 -0.439896 0
M  V30 22401 H 2322.8 2.3117 -1.13659 0
M  V30 22402 H 2322.76 3.11945 0.392105 0
M  V30 22403 N 2326.53 1.40598 0.712035 0
M  V30 22404 C 2327.95 1.22706 1.02056 0
M  V30 22405 C 2328.15 0.104764 2.01227 0
M  V30 22406 O 2327.2 -0.536197 2.46741 0
M  V30 22407 C 2328.51 2.57015 1.56089 0
M  V30 22408 C 2330.06 2.64057 1.68056 0
M  V30 22409 C 2330.54 3.98644 2.25494 0
M  V30 22410 N 2332.03 4.00404 2.32875 0
M  V30 22411 C 2332.76 5.0133 2.78308 0
M  V30 22412 N 2332.26 6.1265 3.23468 0
M  V30 22413 N 2334.05 4.88698 2.77725 0
M  V30 22414 H 2326.2 2.12329 0.0547523 0
M  V30 22415 H 2328.47 0.94401 0.0868861 0
M  V30 22416 H 2328.17 3.39809 0.906806 0
M  V30 22417 H 2328.05 2.78352 2.54559 0
M  V30 22418 H 2330.43 1.81633 2.3258 0
M  V30 22419 H 2330.51 2.46548 0.681759 0
M  V30 22420 H 2330.16 4.81509 1.6159 0
M  V30 22421 H 2330.09 4.13485 3.26094 0
M  V30 22422 H 2332.58 3.20021 2.00985 0
M  V30 22423 H 2332.89 6.85548 3.56713 0
M  V30 22424 H 2331.24 6.16211 3.21418 0
M  V30 22425 H 2334.43 4.00823 2.41783 0
M  V30 22426 H 2334.6 5.67495 3.12816 0
M  V30 22427 N 2328.01 -0.94462 1.26153 0
M  V30 22428 C 2329.25 -1.69292 1.1166 0
M  V30 22429 C 2329.59 -1.91202 -0.339893 0
M  V30 22430 O 2328.86 -1.49021 -1.24992 0
M  V30 22431 C 2329.14 -3.06981 1.88242 0
M  V30 22432 C 2329 -2.92418 3.41777 0
M  V30 22433 C 2330.32 -4.0704 1.6735 0
M  V30 22434 H 2327.44 -0.614417 0.407015 0
M  V30 22435 H 2330.08 -1.09735 1.55108 0
M  V30 22436 H 2328.23 -3.57821 1.51315 0
M  V30 22437 H 2329.9 -2.48825 3.88438 0
M  V30 22438 H 2328.14 -2.28118 3.68978 0
M  V30 22439 H 2328.81 -3.9006 3.90586 0
M  V30 22440 H 2331.29 -3.65148 1.99515 0
M  V30 22441 H 2330.17 -5.01402 2.23354 0
M  V30 22442 H 2330.43 -4.3777 0.617235 0
M  V30 22443 N 2329.49 -1.07901 -1.1487 0
M  V30 22444 C 2330.73 -0.803973 -1.8542 0
M  V30 22445 C 2331.05 0.672078 -1.83052 0
M  V30 22446 O 2330.32 1.487 -1.27534 0
M  V30 22447 H 2328.9 -0.29442 -0.686532 0
M  V30 22448 H 2331.57 -1.36393 -1.39223 0
M  V30 22449 H 2330.66 -1.14351 -2.90397 0
M  V30 22450 N 2330.96 1.31811 -0.863929 0
M  V30 22451 C 2331.91 2.30601 -0.304261 0
M  V30 22452 C 2332.91 1.59256 0.577391 0
M  V30 22453 O 2334.11 1.73912 0.464163 0
M  V30 22454 H 2330.49 0.747765 -0.0797008 0
M  V30 22455 H 2332.46 2.75286 -1.15153 0
M  V30 22456 C 2331.21 3.44307 0.484556 0
M  V30 22457 H 2330.53 3.99374 -0.18458 0
M  V30 22458 H 2331.97 4.15564 0.841591 0
M  V30 22459 C 2330.43 2.92399 1.67345 0
M  V30 22460 O 2330.96 2.90664 2.77268 0
M  V30 22461 N 2329.16 2.48678 1.50358 0
M  V30 22462 H 2328.71 2.50289 0.609358 0
M  V30 22463 H 2328.67 2.14303 2.30047 0
M  V30 22464 N 2332.44 0.62277 1.44773 0
M  V30 22465 C 2333.68 0.127138 2.04004 0
M  V30 22466 C 2334.05 -1.22475 1.47864 0
M  V30 22467 O 2335.25 -1.81201 1.98544 0
M  V30 22468 C 2333.52 0.104492 3.57247 0
M  V30 22469 S 2335.08 -0.327738 4.37574 0
M  V30 22470 H 2331.89 0.0569901 0.708712 0
M  V30 22471 H 2334.5 0.824284 1.77273 0
M  V30 22472 H 2333.2 1.09166 3.95615 0
M  V30 22473 H 2332.73 -0.614168 3.88576 0
M  V30 22474 H 2334.75 -1.57387 4.70578 0
M  V30 22475 N 2333.92 -1.53367 0.362817 0
M  V30 22476 C 2335.15 -2.05335 -0.228245 0
M  V30 22477 C 2335.56 -1.23627 -1.43224 0
M  V30 22478 O 2334.9 -0.269237 -1.81716 0
M  V30 22479 C 2334.96 -3.52846 -0.688487 0
M  V30 22480 C 2334.63 -4.5526 0.398442 0
M  V30 22481 C 2335.62 -5.04713 1.24741 0
M  V30 22482 C 2333.31 -4.99192 0.557892 0
M  V30 22483 C 2335.3 -5.96698 2.2412 0
M  V30 22484 C 2332.99 -5.90983 1.55505 0
M  V30 22485 C 2333.99 -6.39626 2.39514 0
M  V30 22486 O 2333.68 -7.29609 3.3753 0
M  V30 22487 H 2333.41 -0.674541 -0.0443831 0
M  V30 22488 H 2335.96 -1.98743 0.518703 0
M  V30 22489 H 2334.19 -3.56967 -1.48699 0
M  V30 22490 H 2335.88 -3.87687 -1.20224 0
M  V30 22491 H 2336.65 -4.71523 1.13541 0
M  V30 22492 H 2332.53 -4.60919 -0.0862149 0
M  V30 22493 H 2336.07 -6.34589 2.89729 0
M  V30 22494 H 2331.97 -6.23589 1.66755 0
M  V30 22495 H 2332.73 -7.47598 3.33227 0
M  V30 22496 N 2335.4 -0.091913 -1.57332 0
M  V30 22497 C 2336.33 0.865333 -2.16874 0
M  V30 22498 C 2337.31 1.29644 -1.1012 0
M  V30 22499 O 2338.49 1.3639 -1.38244 0
M  V30 22500 C 2335.62 2.12564 -2.74652 0
M  V30 22501 C 2334.58 1.83326 -3.8675 0
M  V30 22502 C 2333.9 3.16158 -4.31217 0
M  V30 22503 C 2335.2 1.12271 -5.10091 0
M  V30 22504 H 2336.9 0.369255 -2.97114 0
M  V30 22505 H 2334.44 0.176168 -1.42918 0
M  V30 22506 H 2336.4 2.79964 -3.14957 0
M  V30 22507 H 2335.12 2.64449 -1.91662 0
M  V30 22508 H 2333.78 1.18325 -3.4698 0
M  V30 22509 H 2333.43 3.65924 -3.45121 0
M  V30 22510 H 2333.13 2.97379 -5.06793 0
M  V30 22511 H 2334.65 3.84722 -4.74153 0
M  V30 22512 H 2336.07 1.69776 -5.47585 0
M  V30 22513 H 2334.46 1.03682 -5.91075 0
M  V30 22514 H 2335.53 0.104956 -4.84786 0
M  V30 22515 N 2336.88 1.56548 0.181765 0
M  V30 22516 C 2337.82 1.95597 1.22518 0
M  V30 22517 C 2338.79 0.818398 1.44539 0
M  V30 22518 O 2339.98 1.07766 1.57452 0
M  V30 22519 C 2337.12 2.31216 2.56189 0
M  V30 22520 C 2336.23 3.58101 2.41635 0
M  V30 22521 C 2335.37 3.82981 3.68102 0
M  V30 22522 C 2334.41 5.03248 3.48436 0
M  V30 22523 N 2333.54 5.24314 4.66947 0
M  V30 22524 H 2338.38 2.8455 0.885176 0
M  V30 22525 H 2335.92 1.40806 0.425694 0
M  V30 22526 H 2337.88 2.49888 3.34084 0
M  V30 22527 H 2336.51 1.45387 2.88206 0
M  V30 22528 H 2335.56 3.47403 1.5497 0
M  V30 22529 H 2336.87 4.46153 2.23045 0
M  V30 22530 H 2336.03 4.01964 4.54434 0
M  V30 22531 H 2334.76 2.93285 3.8966 0
M  V30 22532 H 2333.77 4.84175 2.6049 0
M  V30 22533 H 2334.99 5.94466 3.2831 0
M  V30 22534 H 2332.94 4.37567 4.88744 0
M  V30 22535 H 2332.86 6.06569 4.51231 0
M  V30 22536 H 2334.13 5.47766 5.54592 0
M  V30 22537 N 2338.35 -0.449957 1.5104 0
M  V30 22538 C 2339.6 -1.20042 1.63083 0
M  V30 22539 C 2339.93 -1.91486 0.341058 0
M  V30 22540 O 2339.18 -1.83718 -0.674244 0
M  V30 22541 C 2339.48 -2.25157 2.77559 0
M  V30 22542 C 2339.15 -1.70815 4.17292 0
M  V30 22543 C 2337.81 -1.55717 4.55308 0
M  V30 22544 C 2340.16 -1.30731 5.04538 0
M  V30 22545 C 2337.49 -0.989897 5.78289 0
M  V30 22546 C 2339.84 -0.754372 6.28086 0
M  V30 22547 C 2338.51 -0.590192 6.64886 0
M  V30 22548 H 2337.78 -0.439266 0.596763 0
M  V30 22549 H 2340.42 -0.493297 1.85037 0
M  V30 22550 H 2338.73 -3.01859 2.49777 0
M  V30 22551 H 2340.43 -2.83021 2.84078 0
M  V30 22552 H 2337.02 -1.8354 3.87313 0
M  V30 22553 H 2341.2 -1.41221 4.75784 0
M  V30 22554 H 2336.46 -0.850344 6.05458 0
M  V30 22555 H 2340.63 -0.435202 6.95039 0
M  V30 22556 H 2338.26 -0.148487 7.60055 0
M  V30 22557 N 2339.83 -1.40974 -0.704569 0
M  V30 22558 C 2341.08 -1.3957 -1.46166 0
M  V30 22559 C 2341.4 -0.00257172 -1.95 0
M  V30 22560 O 2340.67 0.954084 -1.71097 0
M  V30 22561 H 2339.25 -0.513713 -0.542317 0
M  V30 22562 H 2341.91 -1.7613 -0.834522 0
M  V30 22563 H 2341.01 -2.07739 -2.32919 0
M  V30 22564 N 2341.31 0.937917 -1.26653 0
M  V30 22565 C 2342.72 1.49932 -1.11253 0
M  V30 22566 C 2343.07 1.93798 0.306043 0
M  V30 22567 O 2342.2 1.80221 1.19789 0
M  V30 22568 C 2342.79 2.72482 -2.01343 0
M  V30 22569 C 2341.35 3.24879 -1.9008 0
M  V30 22570 C 2340.5 1.97648 -1.94501 0
M  V30 22571 H 2343.45 0.753067 -1.39695 0
M  V30 22572 H 2343.47 3.46905 -1.56325 0
M  V30 22573 H 2342.98 2.40524 -3.04581 0
M  V30 22574 H 2341.08 3.6162 -0.89789 0
M  V30 22575 H 2341.2 3.91765 -2.75785 0
M  V30 22576 H 2339.56 2.1369 -1.38595 0
M  V30 22577 H 2340.34 1.68017 -2.99375 0
M  V30 22578 N 2342.79 1.08509 1.14296 0
M  V30 22579 C 2344.2 0.812926 1.37345 0
M  V30 22580 C 2344.4 -0.577291 1.93053 0
M  V30 22581 O 2343.46 -1.3339 2.14391 0
M  V30 22582 C 2344.77 1.89646 2.33356 0
M  V30 22583 C 2346.32 1.92259 2.46993 0
M  V30 22584 C 2346.8 2.9973 3.46303 0
M  V30 22585 N 2348.29 2.98908 3.53847 0
M  V30 22586 C 2349.02 3.78708 4.30544 0
M  V30 22587 N 2348.52 4.68389 5.10474 0
M  V30 22588 N 2350.31 3.67006 4.2575 0
M  V30 22589 H 2342.46 1.98152 0.764832 0
M  V30 22590 H 2344.73 0.859966 0.398951 0
M  V30 22591 H 2344.43 2.89601 1.9956 0
M  V30 22592 H 2344.31 1.76665 3.33271 0
M  V30 22593 H 2346.69 0.929495 2.80079 0
M  V30 22594 H 2346.77 2.09319 1.47035 0
M  V30 22595 H 2346.42 3.99247 3.1395 0
M  V30 22596 H 2346.35 2.79915 4.46044 0
M  V30 22597 H 2348.84 2.33909 2.96808 0
M  V30 22598 H 2349.15 5.25883 5.66275 0
M  V30 22599 H 2347.5 4.72431 5.09739 0
M  V30 22600 H 2350.69 2.96311 3.62378 0
M  V30 22601 H 2350.86 4.29436 4.85272 0
M  V30 22602 N 2344.27 -1.31351 0.870907 0
M  V30 22603 C 2345.51 -1.96284 0.481355 0
M  V30 22604 C 2345.84 -1.69175 -0.969783 0
M  V30 22605 O 2345.11 -1.00767 -1.67997 0
M  V30 22606 H 2343.69 -0.726209 0.175014 0
M  V30 22607 H 2346.35 -1.60141 1.1109 0
M  V30 22608 H 2345.44 -3.0547 0.639879 0
M  V30 22609 N 2345.74 -0.630439 -1.44441 0
M  V30 22610 C 2347.02 -0.0656 -1.9549 0
M  V30 22611 C 2347.4 1.40848 -1.57242 0
M  V30 22612 O 2346.75 2.12256 -0.846154 0
M  V30 22613 C 2346.96 -0.287752 -3.47812 0
M  V30 22614 C 2348.31 -0.180588 -4.24216 0
M  V30 22615 O 2349.33 -0.219082 -3.55526 0
M  V30 22616 O 2348.19 -0.0849453 -5.46434 0
M  V30 22617 H 2345.28 0.0227031 -0.826688 0
M  V30 22618 H 2347.83 -0.702095 -1.54495 0
M  V30 22619 H 2346.6 -1.31063 -3.68698 0
M  V30 22620 H 2346.23 0.382914 -3.95752 0
M  V30 22621 N 2347.22 1.53172 -0.370945 0
M  V30 22622 C 2348.47 2.00936 0.216637 0
M  V30 22623 C 2348.79 1.2598 1.48843 0
M  V30 22624 O 2348.06 0.374584 1.92285 0
M  V30 22625 H 2346.64 0.74237 0.0830434 0
M  V30 22626 H 2349.3 1.88419 -0.498413 0
M  V30 22627 H 2348.4 3.08985 0.439839 0
M  V30 22628 N 2348.7 0.100255 1.57281 0
M  V30 22629 C 2349.93 -0.573846 1.99303 0
M  V30 22630 C 2350.35 -1.6061 0.979087 0
M  V30 22631 O 2349.71 -1.81226 -0.0517485 0
M  V30 22632 C 2349.76 -1.19352 3.40276 0
M  V30 22633 O 2348.86 -2.30929 3.4168 0
M  V30 22634 H 2348.2 -0.145127 0.647946 0
M  V30 22635 H 2350.73 0.183192 2.03778 0
M  V30 22636 H 2350.74 -1.53358 3.78081 0
M  V30 22637 H 2349.42 -0.437313 4.13594 0
M  V30 22638 H 2347.99 -1.98504 3.15675 0
M  V30 22639 N 2350.18 -1.56643 -0.17346 0
M  V30 22640 C 2351.11 -1.99273 -1.21706 0
M  V30 22641 C 2352.09 -0.867985 -1.46287 0
M  V30 22642 O 2353.28 -1.13391 -1.57658 0
M  V30 22643 C 2350.41 -2.35079 -2.55647 0
M  V30 22644 C 2349.36 -3.50494 -2.45639 0
M  V30 22645 C 2348.69 -3.72035 -3.84049 0
M  V30 22646 C 2349.99 -4.84011 -1.96293 0
M  V30 22647 H 2351.68 -2.86702 -0.8627 0
M  V30 22648 H 2349.23 -1.37934 -0.413547 0
M  V30 22649 H 2351.18 -2.63499 -3.28856 0
M  V30 22650 H 2349.9 -1.44557 -2.92867 0
M  V30 22651 H 2348.56 -3.22197 -1.74884 0
M  V30 22652 H 2348.21 -2.78808 -4.18659 0
M  V30 22653 H 2347.91 -4.49691 -3.78222 0
M  V30 22654 H 2349.43 -4.02854 -4.58847 0
M  V30 22655 H 2350.85 -5.11321 -2.59275 0
M  V30 22656 H 2349.24 -5.65288 -2.01419 0
M  V30 22657 H 2350.31 -4.76148 -0.917143 0
M  V30 22658 N 2351.66 0.44194 -1.51277 0
M  V30 22659 C 2352.88 1.21892 -1.67801 0
M  V30 22660 C 2353.31 1.84367 -0.372896 0
M  V30 22661 O 2352.67 1.68606 0.666471 0
M  V30 22662 C 2352.71 2.28206 -2.79203 0
M  V30 22663 O 2351.82 3.33579 -2.42485 0
M  V30 22664 H 2351.16 0.357326 -0.559655 0
M  V30 22665 H 2353.69 0.522487 -1.97816 0
M  V30 22666 H 2353.7 2.73064 -3.03151 0
M  V30 22667 H 2352.37 1.82111 -3.7391 0
M  V30 22668 H 2350.95 2.9423 -2.29092 0
M  V30 22669 N 2353.14 1.41345 0.697083 0
M  V30 22670 C 2354.38 1.42088 1.46937 0
M  V30 22671 C 2354.74 0.0280734 1.91979 0
M  V30 22672 O 2355.94 -0.0897031 2.6865 0
M  V30 22673 C 2354.21 2.39833 2.64981 0
M  V30 22674 S 2355.77 2.59092 3.54143 0
M  V30 22675 H 2352.59 0.503368 0.502137 0
M  V30 22676 H 2355.19 1.7777 0.813515 0
M  V30 22677 H 2353.89 3.39832 2.30092 0
M  V30 22678 H 2353.43 2.05498 3.35461 0
M  V30 22679 H 2355.44 1.85719 4.60134 0
M  V30 22680 N 2354.61 -0.931187 1.27148 0
M  V30 22681 C 2355.56 -2.05266 1.09402 0
M  V30 22682 C 2356.56 -1.6939 0.0180889 0
M  V30 22683 O 2357.76 -1.79142 0.175542 0
M  V30 22684 H 2354.14 -0.672262 0.336998 0
M  V30 22685 H 2356.11 -2.17382 2.0442 0
M  V30 22686 C 2354.86 -3.3942 0.754299 0
M  V30 22687 H 2354.18 -3.67508 1.57411 0
M  V30 22688 H 2355.62 -4.18673 0.669977 0
M  V30 22689 C 2354.08 -3.32526 -0.541138 0
M  V30 22690 O 2354.61 -3.69469 -1.57657 0
M  V30 22691 N 2352.81 -2.85624 -0.535467 0
M  V30 22692 H 2352.36 -2.55757 0.307556 0
M  V30 22693 H 2352.32 -2.81394 -1.40231 0
M  V30 22694 N 2356.09 -1.09114 -1.13719 0
M  V30 22695 C 2357.32 -0.846932 -1.88771 0
M  V30 22696 C 2357.73 0.60154 -1.78961 0
M  V30 22697 O 2357.09 1.41386 -1.15397 0
M  V30 22698 C 2357.14 -1.26919 -3.38488 0
M  V30 22699 O 2356.86 -2.66085 -3.48038 0
M  V30 22700 C 2358.36 -1.0569 -4.30517 0
M  V30 22701 H 2355.58 -0.304924 -0.597714 0
M  V30 22702 H 2358.13 -1.45229 -1.43975 0
M  V30 22703 H 2356.28 -0.70779 -3.80879 0
M  V30 22704 H 2356.7 -2.83803 -4.41085 0
M  V30 22705 H 2358.17 -1.40166 -5.33908 0
M  V30 22706 H 2358.65 0.00555696 -4.392 0
M  V30 22707 H 2359.25 -1.60409 -3.9389 0
M  V30 22708 N 2357.57 1.30887 -0.877861 0
M  V30 22709 C 2358.48 2.32077 -0.343136 0
M  V30 22710 C 2359.5 1.65046 0.550993 0
M  V30 22711 O 2360.67 1.96404 0.445819 0
M  V30 22712 C 2357.74 3.43899 0.439845 0
M  V30 22713 C 2356.8 4.26572 -0.483186 0
M  V30 22714 C 2356.03 5.33054 0.262522 0
M  V30 22715 O 2356.25 5.50607 1.48958 0
M  V30 22716 O 2355.19 6.00676 -0.383698 0
M  V30 22717 H 2359.01 2.79751 -1.18208 0
M  V30 22718 H 2356.6 1.34928 -0.641473 0
M  V30 22719 H 2358.48 4.12036 0.883432 0
M  V30 22720 H 2357.16 2.98373 1.25521 0
M  V30 22721 H 2356.06 3.61159 -0.975437 0
M  V30 22722 H 2357.4 4.75684 -1.26436 0
M  V30 22723 N 2359.05 0.638091 1.44105 0
M  V30 22724 C 2360.3 0.14278 2.01194 0
M  V30 22725 C 2360.61 -1.2453 1.50837 0
M  V30 22726 O 2361.82 -1.835 2.001 0
M  V30 22727 C 2360.27 0.204484 3.59319 0
M  V30 22728 C 2359.88 1.59431 4.18671 0
M  V30 22729 C 2361.62 -0.234004 4.23855 0
M  V30 22730 C 2359.53 1.61075 5.69042 0
M  V30 22731 H 2358.46 0.0496131 0.752366 0
M  V30 22732 H 2361.11 0.79791 1.65244 0
M  V30 22733 H 2359.49 -0.517877 3.92599 0
M  V30 22734 H 2360.67 2.34081 3.96917 0
M  V30 22735 H 2358.98 1.97747 3.66449 0
M  V30 22736 H 2361.58 -0.241349 5.34155 0
M  V30 22737 H 2361.92 -1.26263 3.9669 0
M  V30 22738 H 2362.46 0.436095 3.95402 0
M  V30 22739 H 2359.19 2.61798 6.00951 0
M  V30 22740 H 2358.71 0.907285 5.92898 0
M  V30 22741 H 2360.39 1.34777 6.32807 0
M  V30 22742 N 2360.53 -1.52973 0.379063 0
M  V30 22743 C 2361.77 -2.01048 -0.205978 0
M  V30 22744 C 2362.09 -1.26767 -1.48173 0
M  V30 22745 O 2361.36 -0.384776 -1.92084 0
M  V30 22746 H 2359.94 -0.7428 -0.0791053 0
M  V30 22747 H 2362.61 -1.88152 0.508399 0
M  V30 22748 H 2361.7 -3.09214 -0.423446 0
M  V30 22749 N 2362 -0.108595 -1.57225 0
M  V30 22750 C 2363.25 0.552727 -1.95122 0
M  V30 22751 C 2363.58 1.66989 -0.991375 0
M  V30 22752 O 2362.86 1.94482 -0.0267553 0
M  V30 22753 C 2363.14 1.09522 -3.43041 0
M  V30 22754 C 2362.99 -0.0178123 -4.49796 0
M  V30 22755 C 2364.31 1.98938 -3.9257 0
M  V30 22756 H 2361.43 0.199449 -0.709499 0
M  V30 22757 H 2364.07 -0.182044 -1.89126 0
M  V30 22758 H 2362.22 1.7214 -3.48282 0
M  V30 22759 H 2363.9 -0.652664 -4.5666 0
M  V30 22760 H 2362.14 -0.682385 -4.28399 0
M  V30 22761 H 2362.81 0.402822 -5.50528 0
M  V30 22762 H 2365.29 1.46207 -3.89567 0
M  V30 22763 H 2364.16 2.33818 -4.96609 0
M  V30 22764 H 2364.42 2.91195 -3.32653 0
M  V30 22765 N 2363.48 1.56732 0.16515 0
M  V30 22766 C 2364.73 1.81982 0.879036 0
M  V30 22767 C 2365.05 0.686593 1.82513 0
M  V30 22768 O 2364.32 -0.293112 1.93695 0
M  V30 22769 H 2362.9 0.671334 0.327596 0
M  V30 22770 H 2365.56 1.94213 0.163492 0
M  V30 22771 H 2364.66 2.76255 1.45223 0
M  V30 22772 N 2364.96 -0.433911 1.51509 0
M  V30 22773 C 2366.21 -1.18481 1.64591 0
M  V30 22774 C 2366.54 -1.90783 0.362699 0
M  V30 22775 O 2365.81 -1.83743 -0.637859 0
M  V30 22776 C 2366.1 -2.19908 2.85153 0
M  V30 22777 C 2365.95 -1.51667 4.23459 0
M  V30 22778 C 2367.27 -3.20853 3.01233 0
M  V30 22779 H 2364.39 -0.429378 0.599002 0
M  V30 22780 H 2367.03 -0.473615 1.84002 0
M  V30 22781 H 2365.18 -2.80561 2.68733 0
M  V30 22782 H 2366.85 -0.943243 4.51554 0
M  V30 22783 H 2365.1 -0.81896 4.25999 0
M  V30 22784 H 2365.77 -2.25551 5.03816 0
M  V30 22785 H 2368.24 -2.70257 3.16386 0
M  V30 22786 H 2367.12 -3.89111 3.87148 0
M  V30 22787 H 2367.38 -3.87156 2.13454 0
M  V30 22788 N 2366.44 -1.41713 -0.689577 0
M  V30 22789 C 2367.66 -1.44962 -1.48327 0
M  V30 22790 C 2368.09 -0.0581613 -1.8801 0
M  V30 22791 O 2367.45 0.940008 -1.55028 0
M  V30 22792 C 2367.49 -2.36939 -2.71831 0
M  V30 22793 O 2366.6 -1.83057 -3.69546 0
M  V30 22794 H 2365.94 -0.491742 -0.446191 0
M  V30 22795 H 2368.47 -1.8624 -0.847094 0
M  V30 22796 H 2368.48 -2.53018 -3.20071 0
M  V30 22797 H 2367.15 -3.38039 -2.42285 0
M  V30 22798 H 2365.73 -1.76458 -3.28507 0
M  V30 22799 N 2367.92 0.924431 -1.2764 0
M  V30 22800 C 2369.33 1.20095 -1.05116 0
M  V30 22801 C 2369.53 2.00369 0.213227 0
M  V30 22802 O 2368.59 2.35228 0.917828 0
M  V30 22803 C 2369.9 1.94592 -2.29247 0
M  V30 22804 C 2371.45 2.07518 -2.34319 0
M  V30 22805 C 2371.92 2.85421 -3.58188 0
M  V30 22806 N 2373.42 2.92988 -3.58765 0
M  V30 22807 C 2374.15 3.53738 -4.51284 0
M  V30 22808 N 2373.65 4.15854 -5.5411 0
M  V30 22809 N 2375.44 3.51173 -4.389 0
M  V30 22810 H 2367.59 0.388227 -2.08822 0
M  V30 22811 H 2369.85 0.234369 -0.918572 0
M  V30 22812 H 2369.56 1.43029 -3.21303 0
M  V30 22813 H 2369.43 2.95193 -2.34821 0
M  V30 22814 H 2371.82 2.58267 -1.42767 0
M  V30 22815 H 2371.9 1.06127 -2.32746 0
M  V30 22816 H 2371.55 2.35355 -4.50078 0
M  V30 22817 H 2371.48 3.87104 -3.57013 0
M  V30 22818 H 2373.97 2.48845 -2.84403 0
M  V30 22819 H 2374.28 4.60157 -6.20867 0
M  V30 22820 H 2372.62 4.1439 -5.57948 0
M  V30 22821 H 2375.82 3.0185 -3.57777 0
M  V30 22822 H 2375.99 3.98228 -5.11193 0
M  V30 22823 N 2369.39 1.09715 1.13139 0
M  V30 22824 C 2370.62 0.857114 1.88861 0
M  V30 22825 C 2371.04 -0.586273 1.7873 0
M  V30 22826 O 2370.4 -1.4122 1.13695 0
M  V30 22827 C 2370.45 1.30075 3.36323 0
M  V30 22828 O 2369.55 0.461079 4.09814 0
M  V30 22829 H 2368.9 0.310172 0.587103 0
M  V30 22830 H 2371.43 1.46205 1.43127 0
M  V30 22831 H 2371.44 1.28745 3.87155 0
M  V30 22832 H 2370.11 2.35191 3.43013 0
M  V30 22833 H 2368.69 0.538953 3.68985 0
M  V30 22834 N 2370.87 -1.30419 0.88479 0
M  V30 22835 C 2372.1 -2.00845 0.517323 0
M  V30 22836 C 2372.52 -1.65887 -0.88675 0
M  V30 22837 O 2371.88 -0.875382 -1.58766 0
M  V30 22838 C 2371.93 -3.53759 0.699056 0
M  V30 22839 O 2371.03 -4.1161 -0.255136 0
M  V30 22840 H 2370.37 -0.631924 0.203883 0
M  V30 22841 H 2372.9 -1.6627 1.19228 0
M  V30 22842 H 2372.91 -4.03594 0.597983 0
M  V30 22843 H 2371.59 -3.78541 1.72277 0
M  V30 22844 H 2370.17 -3.72744 -0.107774 0
M  V30 22845 N 2372.35 -0.645724 -1.43764 0
M  V30 22846 C 2373.59 -0.159577 -2.03776 0
M  V30 22847 C 2373.95 1.20108 -1.49794 0
M  V30 22848 O 2375.16 1.78019 -2.01402 0
M  V30 22849 C 2373.43 -0.161314 -3.57036 0
M  V30 22850 S 2374.99 0.258082 -4.3804 0
M  V30 22851 H 2371.8 -0.0682578 -0.707716 0
M  V30 22852 H 2374.41 -0.852383 -1.75939 0
M  V30 22853 H 2373.11 -1.15446 -3.93828 0
M  V30 22854 H 2372.64 0.552271 -3.89504 0
M  V30 22855 H 2374.66 1.49881 -4.73022 0
M  V30 22856 N 2373.83 1.5277 -0.38717 0
M  V30 22857 C 2375.07 2.03463 0.195502 0
M  V30 22858 C 2375.43 1.26747 1.4422 0
M  V30 22859 O 2376.63 1.67553 2.10189 0
M  V30 22860 C 2374.9 3.5444 0.459035 0
M  V30 22861 S 2376.46 4.26964 1.01229 0
M  V30 22862 H 2373.28 0.70885 0.0552551 0
M  V30 22863 H 2375.88 1.88037 -0.535026 0
M  V30 22864 H 2374.59 4.07865 -0.455453 0
M  V30 22865 H 2374.12 3.74069 1.21804 0
M  V30 22866 H 2376.13 4.39945 2.29484 0
M  V30 22867 N 2375.31 0.116931 1.57166 0
M  V30 22868 C 2376.55 -0.54468 1.97009 0
M  V30 22869 C 2376.91 -1.63979 0.998742 0
M  V30 22870 O 2378.11 -2.36015 1.28648 0
M  V30 22871 C 2376.38 -1.06553 3.41147 0
M  V30 22872 S 2377.94 -1.73596 4.03001 0
M  V30 22873 H 2374.76 -0.1771 0.68859 0
M  V30 22874 H 2377.36 0.201521 1.94459 0
M  V30 22875 H 2376.07 -0.257302 4.09593 0
M  V30 22876 H 2375.6 -1.84706 3.47343 0
M  V30 22877 H 2377.61 -3.02161 3.9359 0
M  V30 22878 N 2376.78 -1.56818 -0.156836 0
M  V30 22879 C 2378.01 -1.87319 -0.890298 0
M  V30 22880 C 2378.43 -0.704885 -1.74393 0
M  V30 22881 O 2377.79 0.345755 -1.77973 0
M  V30 22882 C 2377.84 -3.16339 -1.73096 0
M  V30 22883 O 2376.94 -2.99581 -2.83417 0
M  V30 22884 H 2376.29 -0.615723 -0.248559 0
M  V30 22885 H 2378.82 -2.04045 -0.150614 0
M  V30 22886 H 2378.83 -3.48111 -2.12797 0
M  V30 22887 H 2377.5 -4.00978 -1.10405 0
M  V30 22888 H 2376.08 -2.79194 -2.47194 0
M  V30 22889 N 2378.26 0.425871 -1.51737 0
M  V30 22890 C 2379.19 1.52491 -1.7683 0
M  V30 22891 C 2380.17 1.58455 -0.618551 0
M  V30 22892 O 2381.36 1.73999 -0.862447 0
M  V30 22893 C 2378.49 2.90471 -1.90379 0
M  V30 22894 C 2377.44 2.99363 -3.05885 0
M  V30 22895 C 2376.77 4.39435 -3.04632 0
M  V30 22896 C 2378.07 2.72387 -4.45649 0
M  V30 22897 H 2379.76 1.31743 -2.68857 0
M  V30 22898 H 2377.31 0.632339 -1.29373 0
M  V30 22899 H 2379.26 3.67327 -2.06516 0
M  V30 22900 H 2377.99 3.12475 -0.950095 0
M  V30 22901 H 2376.64 2.24949 -2.89471 0
M  V30 22902 H 2376.29 4.58424 -2.07018 0
M  V30 22903 H 2375.99 4.46313 -3.82202 0
M  V30 22904 H 2377.52 5.18249 -3.22878 0
M  V30 22905 H 2378.93 3.38971 -4.62354 0
M  V30 22906 H 2377.33 2.90661 -5.25011 0
M  V30 22907 H 2378.4 1.67921 -4.54896 0
M  V30 22908 N 2379.74 1.42077 0.682052 0
M  V30 22909 C 2380.99 1.41878 1.43927 0
M  V30 22910 C 2381.31 0.0335942 1.94971 0
M  V30 22911 O 2380.58 -0.926743 1.72593 0
M  V30 22912 H 2379.16 0.522276 0.534076 0
M  V30 22913 H 2381.82 1.77435 0.806396 0
M  V30 22914 H 2380.92 2.11418 2.29584 0
M  V30 22915 N 2381.22 -0.917649 1.28129 0
M  V30 22916 C 2382.17 -2.01958 1.1172 0
M  V30 22917 C 2383.14 -1.66093 0.0154221 0
M  V30 22918 O 2384.32 -1.89953 0.179629 0
M  V30 22919 C 2381.46 -3.36147 0.780987 0
M  V30 22920 C 2380.57 -3.84906 1.96142 0
M  V30 22921 C 2379.71 -5.07587 1.56617 0
M  V30 22922 C 2378.75 -5.48668 2.71348 0
M  V30 22923 N 2377.89 -6.62541 2.32343 0
M  V30 22924 H 2382.73 -2.15326 2.06007 0
M  V30 22925 H 2380.26 -1.05473 1.02537 0
M  V30 22926 H 2382.22 -4.13332 0.566822 0
M  V30 22927 H 2380.85 -3.22558 -0.124941 0
M  V30 22928 H 2379.9 -3.03912 2.28782 0
M  V30 22929 H 2381.21 -4.11315 2.82172 0
M  V30 22930 H 2380.37 -5.92303 1.31384 0
M  V30 22931 H 2379.11 -4.82977 0.677098 0
M  V30 22932 H 2378.11 -4.62496 2.97284 0
M  V30 22933 H 2379.34 -5.75268 3.60892 0
M  V30 22934 H 2377.28 -6.39569 1.459 0
M  V30 22935 H 2377.2 -6.88656 3.11911 0
M  V30 22936 H 2378.47 -7.50572 2.10384 0
M  V30 22937 N 2382.7 -1.10314 -1.12555 0
M  V30 22938 C 2383.66 -0.754278 -2.16433 0
M  V30 22939 C 2384.66 0.220657 -1.59279 0
M  V30 22940 O 2385.85 -0.00233653 -1.742 0
M  V30 22941 C 2382.98 -0.117046 -3.40699 0
M  V30 22942 H 2384.18 -1.67436 -2.48808 0
M  V30 22943 H 2381.73 -0.903498 -1.27541 0
M  V30 22944 H 2382.46 0.813822 -3.13923 0
M  V30 22945 H 2382.25 -0.81868 -3.83458 0
M  V30 22946 H 2383.74 0.111314 -4.17452 0
M  V30 22947 N 2384.18 1.29948 -0.891694 0
M  V30 22948 C 2385.42 1.96543 -0.523683 0
M  V30 22949 C 2385.78 1.69068 0.918364 0
M  V30 22950 O 2385.07 0.988688 1.6412 0
M  V30 22951 C 2385.26 3.49593 -0.74293 0
M  V30 22952 C 2385.09 3.91946 -2.20474 0
M  V30 22953 C 2383.86 4.17214 -2.85063 0
M  V30 22954 C 2386.06 4.04267 -3.17919 0
M  V30 22955 N 2384.04 4.46076 -4.21769 0
M  V30 22956 C 2385.41 4.37089 -4.39719 0
M  V30 22957 C 2387.47 3.86716 -3.13617 0
M  V30 22958 C 2386.17 4.54189 -5.57768 0
M  V30 22959 C 2388.2 4.05021 -4.30943 0
M  V30 22960 C 2387.56 4.38194 -5.51512 0
M  V30 22961 H 2383.66 0.74391 -0.241085 0
M  V30 22962 H 2386.24 1.57047 -1.15083 0
M  V30 22963 H 2384.41 3.88128 -0.145218 0
M  V30 22964 H 2386.15 4.0326 -0.341152 0
M  V30 22965 H 2382.9 4.1067 -2.35897 0
M  V30 22966 H 2383.32 4.6463 -4.9239 0
M  V30 22967 H 2387.97 3.60138 -2.21496 0
M  V30 22968 H 2385.68 4.79606 -6.50387 0
M  V30 22969 H 2389.27 3.92901 -4.29092 0
M  V30 22970 H 2388.15 4.52066 -6.40786 0
M  V30 22971 N 2385.65 0.653339 1.4342 0
M  V30 22972 C 2386.9 0.166451 2.01413 0
M  V30 22973 C 2387.22 -1.22394 1.51805 0
M  V30 22974 O 2386.49 -1.81761 0.730725 0
M  V30 22975 H 2385.07 0.058545 0.744702 0
M  V30 22976 H 2387.73 0.845034 1.75628 0
M  V30 22977 H 2386.83 0.151166 3.11734 0
M  V30 22978 N 2387.13 -1.52563 0.395266 0
M  V30 22979 C 2388.08 -2.2817 -0.451818 0
M  V30 22980 C 2389.07 -1.32306 -1.0579 0
M  V30 22981 O 2390.28 -1.4982 -0.997692 0
M  V30 22982 H 2386.65 -0.733794 -0.164468 0
M  V30 22983 H 2388.63 -2.97679 0.207252 0
M  V30 22984 C 2387.37 -3.10549 -1.56379 0
M  V30 22985 H 2386.7 -3.84176 -1.10675 0
M  V30 22986 H 2388.14 -3.6658 -2.13061 0
M  V30 22987 C 2386.6 -2.23235 -2.52324 0
M  V30 22988 O 2387.13 -1.86318 -3.55877 0
M  V30 22989 N 2385.33 -1.87278 -2.22206 0
M  V30 22990 H 2384.88 -2.17498 -1.3803 0
M  V30 22991 H 2384.84 -1.29148 -2.8665 0
M  V30 22992 N 2388.61 -0.125265 -1.57101 0
M  V30 22993 C 2390.02 0.39911 -1.82384 0
M  V30 22994 C 2390.37 1.66194 -1.04279 0
M  V30 22995 O 2389.5 2.14564 -0.281307 0
M  V30 22996 C 2390.09 0.730873 -3.30823 0
M  V30 22997 C 2388.65 1.19986 -3.56764 0
M  V30 22998 C 2387.8 0.211744 -2.7649 0
M  V30 22999 H 2390.75 -0.350304 -1.54786 0
M  V30 23000 H 2390.77 1.58769 -3.45793 0
M  V30 23001 H 2390.28 -0.188413 -3.87642 0
M  V30 23002 H 2388.38 2.13583 -3.05308 0
M  V30 23003 H 2388.5 1.14085 -4.65319 0
M  V30 23004 H 2386.86 0.700042 -2.44891 0
M  V30 23005 H 2387.64 -0.70075 -3.36072 0
M  V30 23006 N 2390.09 1.56899 0.148518 0
M  V30 23007 C 2391.33 1.85072 0.867618 0
M  V30 23008 C 2391.69 0.709348 1.78416 0
M  V30 23009 O 2392.89 0.872094 2.5426 0
M  V30 23010 C 2391.16 3.18423 1.623 0
M  V30 23011 S 2392.72 3.68148 2.38774 0
M  V30 23012 H 2389.54 0.649097 0.290162 0
M  V30 23013 H 2392.14 1.95082 0.127721 0
M  V30 23014 H 2390.85 3.99463 0.941122 0
M  V30 23015 H 2390.38 3.11415 2.40384 0
M  V30 23016 H 2392.39 3.37291 3.63936 0
M  V30 23017 N 2391.57 -0.417818 1.51961 0
M  V30 23018 C 2392.48 -1.53333 1.77556 0
M  V30 23019 C 2393.49 -1.60969 0.660684 0
M  V30 23020 O 2394.67 -1.77846 0.945131 0
M  V30 23021 C 2391.73 -2.89148 1.91296 0
M  V30 23022 C 2390.79 -2.9147 3.15189 0
M  V30 23023 C 2390.03 -4.20808 3.28263 0
M  V30 23024 O 2390.25 -5.1424 2.46807 0
M  V30 23025 O 2389.18 -4.2981 4.21364 0
M  V30 23026 H 2393.01 -1.34642 2.72223 0
M  V30 23027 H 2390.59 -0.602804 1.36699 0
M  V30 23028 H 2392.48 -3.69717 2.02206 0
M  V30 23029 H 2391.15 -3.07925 0.998183 0
M  V30 23030 H 2390.06 -2.09786 3.09743 0
M  V30 23031 H 2391.39 -2.77641 4.06419 0
M  V30 23032 N 2393.04 -1.42436 -0.674508 0
M  V30 23033 C 2394.27 -1.4632 -1.46281 0
M  V30 23034 C 2394.69 -0.0746168 -1.88652 0
M  V30 23035 O 2394.04 0.910712 -1.58153 0
M  V30 23036 C 2394.09 -2.39055 -2.71173 0
M  V30 23037 O 2393.82 -3.72511 -2.3058 0
M  V30 23038 C 2395.32 -2.51962 -3.64733 0
M  V30 23039 H 2392.54 -0.497649 -0.450096 0
M  V30 23040 H 2395.08 -1.86954 -0.828759 0
M  V30 23041 H 2393.24 -2.01673 -3.30767 0
M  V30 23042 H 2393.65 -4.22178 -3.11233 0
M  V30 23043 H 2395.12 -3.2097 -4.4909 0
M  V30 23044 H 2395.6 -1.55759 -4.10653 0
M  V30 23045 H 2396.21 -2.90066 -3.11033 0
M  V30 23046 N 2394.52 0.910841 -1.28614 0
M  V30 23047 C 2395.76 1.67467 -1.17193 0
M  V30 23048 C 2396.13 1.90029 0.274408 0
M  V30 23049 O 2397.33 2.63891 0.511379 0
M  V30 23050 C 2395.6 2.99423 -1.95142 0
M  V30 23051 S 2397.16 3.90505 -2.00129 0
M  V30 23052 H 2393.97 0.575098 -0.41807 0
M  V30 23053 H 2396.58 1.08315 -1.62752 0
M  V30 23054 H 2395.28 2.80706 -2.99386 0
M  V30 23055 H 2394.81 3.63621 -1.50144 0
M  V30 23056 H 2396.83 4.83628 -1.1099 0
M  V30 23057 N 2396 1.10909 1.11969 0
M  V30 23058 C 2397.41 0.871475 1.65113 0
M  V30 23059 C 2397.76 -0.597321 1.86886 0
M  V30 23060 O 2396.89 -1.45813 1.59899 0
M  V30 23061 C 2397.48 1.57545 2.99942 0
M  V30 23062 C 2396.04 1.38441 3.50016 0
M  V30 23063 C 2395.19 1.62168 2.24938 0
M  V30 23064 H 2398.14 1.26612 0.956829 0
M  V30 23065 H 2398.16 1.01728 3.66649 0
M  V30 23066 H 2397.67 2.64443 2.84062 0
M  V30 23067 H 2395.77 0.337279 3.7107 0
M  V30 23068 H 2395.89 2.12972 4.29162 0
M  V30 23069 H 2394.25 1.04471 2.32288 0
M  V30 23070 H 2395.03 2.70328 2.11607 0
M  V30 23071 N 2397.48 -1.29474 0.898573 0
M  V30 23072 C 2398.89 -1.77704 0.572568 0
M  V30 23073 C 2399.24 -1.73729 -0.911747 0
M  V30 23074 O 2398.37 -1.3225 -1.71286 0
M  V30 23075 C 2398.96 -3.22682 1.03257 0
M  V30 23076 C 2397.52 -3.68694 0.757752 0
M  V30 23077 C 2396.67 -2.49609 1.20791 0
M  V30 23078 H 2399.62 -1.16151 1.08141 0
M  V30 23079 H 2399.64 -3.78722 0.367374 0
M  V30 23080 H 2399.15 -3.25543 2.11291 0
M  V30 23081 H 2397.25 -3.71308 -0.310014 0
M  V30 23082 H 2397.36 -4.59544 1.35484 0
M  V30 23083 H 2395.73 -2.46864 0.626931 0
M  V30 23084 H 2396.51 -2.55199 2.29626 0
M  V30 23085 N 2398.96 -0.660936 -1.43071 0
M  V30 23086 C 2400.2 -0.177743 -2.0202 0
M  V30 23087 C 2400.54 1.20785 -1.52068 0
M  V30 23088 O 2399.81 1.80801 -0.717019 0
M  V30 23089 C 2400.09 -0.197082 -3.5956 0
M  V30 23090 C 2399.95 -1.61714 -4.19725 0
M  V30 23091 C 2401.27 0.462319 -4.37665 0
M  V30 23092 H 2398.38 -0.0660623 -0.734033 0
M  V30 23093 H 2401.03 -0.843088 -1.7027 0
M  V30 23094 H 2399.18 0.369459 -3.86739 0
M  V30 23095 H 2400.85 -2.23486 -4.03549 0
M  V30 23096 H 2399.09 -2.16208 -3.76081 0
M  V30 23097 H 2399.76 -1.58246 -5.28831 0
M  V30 23098 H 2402.24 -0.0197947 -4.16095 0
M  V30 23099 H 2401.11 0.418091 -5.47305 0
M  V30 23100 H 2401.38 1.5377 -4.14496 0
M  V30 23101 N 2400.43 1.52351 -0.403352 0
M  V30 23102 C 2401.38 2.28406 0.439712 0
M  V30 23103 C 2402.38 1.32865 1.05087 0
M  V30 23104 O 2403.58 1.50347 0.989733 0
M  V30 23105 H 2399.96 0.734656 0.160574 0
M  V30 23106 H 2401.93 2.97565 -0.223035 0
M  V30 23107 C 2400.68 3.11374 1.5473 0
M  V30 23108 H 2400 3.84757 1.08636 0
M  V30 23109 H 2401.44 3.67705 2.11114 0
M  V30 23110 C 2399.9 2.2457 2.51137 0
M  V30 23111 O 2400.43 1.88203 3.54884 0
M  V30 23112 N 2398.64 1.88454 2.21209 0
M  V30 23113 H 2398.18 2.18227 1.36874 0
M  V30 23114 H 2398.14 1.30667 2.85961 0
M  V30 23115 N 2401.91 0.133594 1.57033 0
M  V30 23116 C 2403.14 -0.531441 2.00476 0
M  V30 23117 C 2403.56 -1.58497 1.01293 0
M  V30 23118 O 2402.92 -1.81295 -0.0132961 0
M  V30 23119 C 2402.97 -1.12107 3.42731 0
M  V30 23120 O 2402.07 -2.2363 3.46502 0
M  V30 23121 H 2401.41 -0.13135 0.650879 0
M  V30 23122 H 2403.94 0.226375 2.03344 0
M  V30 23123 H 2403.95 -1.45304 3.81249 0
M  V30 23124 H 2402.63 -0.349485 4.14429 0
M  V30 23125 H 2401.21 -1.91763 3.19815 0
M  V30 23126 N 2403.39 -1.56975 -0.140195 0
M  V30 23127 C 2404.62 -1.87886 -0.866404 0
M  V30 23128 C 2405.03 -0.722547 -1.74427 0
M  V30 23129 O 2404.39 0.307458 -1.79891 0
M  V30 23130 C 2404.44 -3.18096 -1.71747 0
M  V30 23131 O 2404.16 -4.29273 -0.87498 0
M  V30 23132 C 2405.66 -3.62568 -2.55068 0
M  V30 23133 H 2402.88 -0.622616 -0.250179 0
M  V30 23134 H 2405.43 -2.0408 -0.130941 0
M  V30 23135 H 2403.58 -3.03635 -2.40592 0
M  V30 23136 H 2404 -5.03772 -1.45994 0
M  V30 23137 H 2405.47 -4.56495 -3.10348 0
M  V30 23138 H 2405.95 -2.88187 -3.31429 0
M  V30 23139 H 2406.55 -3.79746 -1.91502 0
M  V30 23140 N 2404.87 0.409753 -1.5218 0
M  V30 23141 C 2405.78 1.52389 -1.78367 0
M  V30 23142 C 2406.79 1.60616 -0.669211 0
M  V30 23143 O 2407.97 1.77342 -0.954549 0
M  V30 23144 C 2405.04 2.8813 -1.92827 0
M  V30 23145 C 2404.1 2.89794 -3.1673 0
M  V30 23146 C 2403.33 4.19061 -3.3049 0
M  V30 23147 O 2403.55 5.12924 -2.49531 0
M  V30 23148 O 2402.49 4.27569 -4.23637 0
M  V30 23149 H 2406.31 1.33197 -2.72933 0
M  V30 23150 H 2403.9 0.595546 -1.37017 0
M  V30 23151 H 2405.78 3.6864 -2.04164 0
M  V30 23152 H 2404.45 3.07392 -1.0145 0
M  V30 23153 H 2403.36 2.0814 -3.10851 0
M  V30 23154 H 2404.69 2.75482 -4.07886 0
M  V30 23155 N 2406.35 1.42792 0.666944 0
M  V30 23156 C 2407.58 1.4688 1.45292 0
M  V30 23157 C 2407.98 0.0810194 1.89026 0
M  V30 23158 O 2407.33 -0.916218 1.5922 0
M  V30 23159 C 2407.39 2.34017 2.72904 0
M  V30 23160 C 2407.05 3.81772 2.51196 0
M  V30 23161 C 2408.05 4.73228 2.15294 0
M  V30 23162 C 2405.74 4.26119 2.65947 0
M  V30 23163 C 2407.73 6.07025 1.94421 0
M  V30 23164 C 2405.42 5.59974 2.44689 0
M  V30 23165 C 2406.41 6.50243 2.0898 0
M  V30 23166 O 2406.1 7.81624 1.87934 0
M  V30 23167 H 2405.83 0.501495 0.453297 0
M  V30 23168 H 2408.39 1.88051 0.826199 0
M  V30 23169 H 2406.62 1.87709 3.38086 0
M  V30 23170 H 2408.31 2.29468 3.34812 0
M  V30 23171 H 2409.07 4.40248 2.03487 0
M  V30 23172 H 2404.95 3.56142 2.92718 0
M  V30 23173 H 2408.5 6.77446 1.66473 0
M  V30 23174 H 2404.39 5.92525 2.56095 0
M  V30 23175 H 2405.16 7.93063 2.02469 0
M  V30 23176 N 2407.82 -0.904008 1.29095 0
M  V30 23177 C 2409.05 -1.6852 1.19519 0
M  V30 23178 C 2409.46 -1.87576 -0.247347 0
M  V30 23179 O 2408.81 -1.40961 -1.17795 0
M  V30 23180 C 2408.87 -3.09286 1.83254 0
M  V30 23181 C 2408.53 -3.13478 3.32537 0
M  V30 23182 C 2409.53 -2.93946 4.28826 0
M  V30 23183 C 2407.21 -3.35681 3.73662 0
M  V30 23184 C 2409.21 -2.96543 5.64217 0
M  V30 23185 C 2406.89 -3.3791 5.09176 0
M  V30 23186 C 2407.89 -3.18363 6.04263 0
M  V30 23187 O 2407.58 -3.20372 7.37304 0
M  V30 23188 H 2407.31 -0.53325 0.415476 0
M  V30 23189 H 2409.87 -1.13919 1.70914 0
M  V30 23190 H 2408.1 -3.65471 1.26365 0
M  V30 23191 H 2409.79 -3.69473 1.6806 0
M  V30 23192 H 2410.55 -2.76609 3.98387 0
M  V30 23193 H 2406.43 -3.49938 3.00108 0
M  V30 23194 H 2409.97 -2.81205 6.38412 0
M  V30 23195 H 2405.87 -3.54777 5.39262 0
M  V30 23196 H 2406.64 -3.36668 7.46054 0
M  V30 23197 N 2409.3 -1.11501 -1.11379 0
M  V30 23198 C 2410.53 -0.886783 -1.86933 0
M  V30 23199 C 2410.95 0.563445 -1.80196 0
M  V30 23200 O 2410.3 1.38906 -1.1837 0
M  V30 23201 C 2410.35 -1.3407 -3.35719 0
M  V30 23202 O 2410.07 -2.73407 -3.42316 0
M  V30 23203 C 2411.58 -1.14798 -4.28178 0
M  V30 23204 H 2408.8 -0.317534 -0.591112 0
M  V30 23205 H 2411.34 -1.4825 -1.40862 0
M  V30 23206 H 2409.49 -0.788421 -3.79292 0
M  V30 23207 H 2409.91 -2.93095 -4.34966 0
M  V30 23208 H 2411.38 -1.51459 -5.30815 0
M  V30 23209 H 2411.86 -0.087605 -4.39113 0
M  V30 23210 H 2412.47 -1.68728 -3.90399 0
M  V30 23211 N 2410.78 1.28995 -0.905426 0
M  V30 23212 C 2411.71 2.29974 -0.404253 0
M  V30 23213 C 2412.69 1.61836 0.523755 0
M  V30 23214 O 2413.88 1.89305 0.433265 0
M  V30 23215 C 2411.01 3.45387 0.363981 0
M  V30 23216 C 2409.96 4.25366 -0.474123 0
M  V30 23217 C 2409.29 5.33033 0.421952 0
M  V30 23218 C 2410.59 4.9292 -1.72704 0
M  V30 23219 H 2412.28 2.72144 -1.24812 0
M  V30 23220 H 2409.83 1.30831 -0.601608 0
M  V30 23221 H 2411.78 4.1511 0.725374 0
M  V30 23222 H 2410.5 3.02076 1.24168 0
M  V30 23223 H 2409.16 3.57359 -0.817923 0
M  V30 23224 H 2408.81 4.85965 1.29796 0
M  V30 23225 H 2408.51 5.87445 -0.13516 0
M  V30 23226 H 2410.04 6.05605 0.77941 0
M  V30 23227 H 2411.45 5.55049 -1.43505 0
M  V30 23228 H 2409.85 5.57291 -2.22592 0
M  V30 23229 H 2410.92 4.17883 -2.45971 0
M  V30 23230 N 2412.26 0.668514 1.42719 0
M  V30 23231 C 2413.5 0.191976 2.03496 0
M  V30 23232 C 2413.86 -1.17709 1.51686 0
M  V30 23233 O 2415.06 -1.74793 2.04208 0
M  V30 23234 C 2413.34 0.218095 3.56734 0
M  V30 23235 S 2414.89 -0.188361 4.38396 0
M  V30 23236 H 2411.71 0.0795084 0.70654 0
M  V30 23237 H 2414.31 0.880265 1.74561 0
M  V30 23238 H 2413.02 1.21697 3.91941 0
M  V30 23239 H 2412.55 -0.490234 3.90334 0
M  V30 23240 H 2414.56 -1.42336 4.75347 0
M  V30 23241 N 2413.74 -1.52135 0.411426 0
M  V30 23242 C 2415.15 -1.86611 -0.0576498 0
M  V30 23243 C 2415.5 -1.33006 -1.44236 0
M  V30 23244 O 2414.62 -0.670264 -2.05758 0
M  V30 23245 C 2415.22 -3.38617 -0.111388 0
M  V30 23246 C 2413.78 -3.72723 -0.524805 0
M  V30 23247 C 2412.93 -2.75681 0.299224 0
M  V30 23248 H 2415.88 -1.45729 0.628394 0
M  V30 23249 H 2415.9 -3.69056 -0.926187 0
M  V30 23250 H 2415.41 -3.77602 0.896554 0
M  V30 23251 H 2413.51 -3.39317 -1.5393 0
M  V30 23252 H 2413.62 -4.78352 -0.267597 0
M  V30 23253 H 2411.99 -2.53578 -0.238769 0
M  V30 23254 H 2412.77 -3.17506 1.30556 0
M  V30 23255 N 2415.22 -0.14192 -1.5696 0
M  V30 23256 C 2416.46 0.509449 -1.95574 0
M  V30 23257 C 2416.78 1.65734 -1.02749 0
M  V30 23258 O 2416.05 1.95702 -0.0880655 0
M  V30 23259 H 2414.63 0.191192 -0.722118 0
M  V30 23260 H 2417.3 -0.21623 -1.93697 0
M  V30 23261 H 2416.39 0.888948 -2.99172 0
M  V30 23262 N 2416.69 1.57047 0.131868 0
M  V30 23263 C 2417.94 1.83805 0.840237 0
M  V30 23264 C 2418.26 0.725152 1.81015 0
M  V30 23265 O 2417.53 -0.251961 1.94273 0
M  V30 23266 H 2416.11 0.678132 0.313282 0
M  V30 23267 H 2418.77 1.94516 0.122259 0
M  V30 23268 H 2417.87 2.79273 1.3933 0
M  V30 23269 N 2418.17 -0.401677 1.52395 0
M  V30 23270 C 2419.08 -1.51441 1.79173 0
M  V30 23271 C 2420.1 -1.60259 0.67772 0
M  V30 23272 O 2421.27 -1.76834 0.96394 0
M  V30 23273 C 2418.34 -2.87103 1.94352 0
M  V30 23274 C 2417.4 -2.8811 3.18262 0
M  V30 23275 C 2416.63 -4.17302 3.32708 0
M  V30 23276 O 2416.86 -5.11593 2.52247 0
M  V30 23277 O 2415.79 -4.25316 4.25899 0
M  V30 23278 H 2419.62 -1.31747 2.73635 0
M  V30 23279 H 2417.2 -0.588272 1.37331 0
M  V30 23280 H 2419.08 -3.67552 2.06116 0
M  V30 23281 H 2417.76 -3.06849 1.03079 0
M  V30 23282 H 2416.66 -2.06489 3.11951 0
M  V30 23283 H 2418 -2.73315 4.09341 0
M  V30 23284 N 2419.65 -1.43144 -0.659362 0
M  V30 23285 C 2420.9 -1.4415 -1.41652 0
M  V30 23286 C 2421.22 -0.0646081 -1.94893 0
M  V30 23287 O 2420.49 0.899168 -1.74045 0
M  V30 23288 H 2419.07 -0.530707 -0.525699 0
M  V30 23289 H 2421.73 -1.78696 -0.778065 0
M  V30 23290 H 2420.83 -2.15044 -2.26192 0
M  V30 23291 N 2421.13 0.897149 -1.29572 0
M  V30 23292 C 2422.37 1.64787 -1.17692 0
M  V30 23293 C 2422.7 1.92602 0.271036 0
M  V30 23294 O 2421.96 1.5366 1.2119 0
M  V30 23295 C 2422.26 3.00278 -1.93825 0
M  V30 23296 C 2421.92 2.92062 -3.43527 0
M  V30 23297 C 2420.58 2.89528 -3.84353 0
M  V30 23298 C 2422.94 2.81081 -4.38911 0
M  V30 23299 C 2420.26 2.73837 -5.18874 0
M  V30 23300 C 2422.62 2.66929 -5.73526 0
M  V30 23301 C 2421.28 2.62763 -6.13606 0
M  V30 23302 H 2420.55 0.603 -0.430665 0
M  V30 23303 H 2423.2 1.04402 -1.60538 0
M  V30 23304 H 2421.5 3.64545 -1.43577 0
M  V30 23305 H 2423.2 3.57302 -1.82034 0
M  V30 23306 H 2419.79 2.94837 -3.11077 0
M  V30 23307 H 2423.97 2.82114 -4.0832 0
M  V30 23308 H 2419.23 2.69018 -5.49035 0
M  V30 23309 H 2423.4 2.57404 -6.47083 0
M  V30 23310 H 2421.03 2.50362 -7.1779 0
M  V30 23311 N 2422.61 1.1209 1.10786 0
M  V30 23312 C 2424.02 0.856209 1.34689 0
M  V30 23313 C 2424.22 -0.515581 1.94792 0
M  V30 23314 O 2423.28 -1.26501 2.18526 0
M  V30 23315 C 2424.59 1.96974 2.27204 0
M  V30 23316 C 2426.14 2.0002 2.40751 0
M  V30 23317 C 2426.61 3.10596 3.36592 0
M  V30 23318 N 2428.1 3.10015 3.44159 0
M  V30 23319 C 2428.84 3.92214 4.18277 0
M  V30 23320 N 2428.34 4.84392 4.95314 0
M  V30 23321 N 2430.13 3.80365 4.13859 0
M  V30 23322 H 2422.28 2.00485 0.701405 0
M  V30 23323 H 2424.54 0.872223 0.37139 0
M  V30 23324 H 2424.25 2.95803 1.90246 0
M  V30 23325 H 2424.12 1.87178 3.27482 0
M  V30 23326 H 2426.51 1.01813 2.7698 0
M  V30 23327 H 2426.59 2.13891 1.40301 0
M  V30 23328 H 2426.23 4.09033 3.01089 0
M  V30 23329 H 2426.16 2.93964 4.36913 0
M  V30 23330 H 2428.66 2.43233 2.89216 0
M  V30 23331 H 2428.97 5.43632 5.49257 0
M  V30 23332 H 2427.31 4.88409 4.94451 0
M  V30 23333 H 2430.5 3.07689 3.52767 0
M  V30 23334 H 2430.68 4.44657 4.71364 0
M  V30 23335 N 2424.08 -1.28513 0.912254 0
M  V30 23336 C 2425.49 -1.77086 0.591383 0
M  V30 23337 C 2425.85 -1.74686 -0.89327 0
M  V30 23338 O 2424.97 -1.34059 -1.69874 0
M  V30 23339 C 2425.57 -3.21568 1.06674 0
M  V30 23340 C 2424.12 -3.67869 0.796814 0
M  V30 23341 C 2423.27 -2.48314 1.23432 0
M  V30 23342 H 2426.22 -1.14998 1.09367 0
M  V30 23343 H 2426.24 -3.78311 0.407522 0
M  V30 23344 H 2425.76 -3.23283 2.14731 0
M  V30 23345 H 2423.86 -3.71616 -0.270614 0
M  V30 23346 H 2423.97 -4.58081 1.40351 0
M  V30 23347 H 2422.33 -2.46185 0.653079 0
M  V30 23348 H 2423.12 -2.52749 2.3232 0
M  V30 23349 N 2425.56 -0.676073 -1.42362 0
M  V30 23350 C 2426.51 0.0131099 -2.32596 0
M  V30 23351 C 2427.5 0.789212 -1.49893 0
M  V30 23352 O 2428.71 0.697032 -1.65956 0
M  V30 23353 H 2425.09 0.0230349 -0.751647 0
M  V30 23354 H 2427.06 -0.765293 -2.8842 0
M  V30 23355 C 2425.81 0.949643 -3.3448 0
M  V30 23356 H 2425.13 0.361868 -3.98159 0
M  V30 23357 H 2426.57 1.40053 -4.00201 0
M  V30 23358 C 2425.03 2.05663 -2.66842 0
M  V30 23359 O 2425.56 3.14322 -2.5013 0
M  V30 23360 N 2423.76 1.82871 -2.25846 0
M  V30 23361 H 2423.31 0.945043 -2.39639 0
M  V30 23362 H 2423.27 2.57127 -1.80923 0
M  V30 23363 N 2427.04 1.51915 -0.419488 0
M  V30 23364 C 2428.45 1.86639 0.0477525 0
M  V30 23365 C 2428.8 1.33769 1.43528 0
M  V30 23366 O 2427.93 0.681167 2.054 0
M  V30 23367 C 2428.52 3.38671 0.0934289 0
M  V30 23368 C 2427.08 3.72997 0.505031 0
M  V30 23369 C 2426.23 2.75518 -0.31384 0
M  V30 23370 H 2429.18 1.45394 -0.636113 0
M  V30 23371 H 2429.2 3.69542 0.906602 0
M  V30 23372 H 2428.71 3.77122 -0.916567 0
M  V30 23373 H 2426.81 3.40129 1.52129 0
M  V30 23374 H 2426.93 4.78487 0.242225 0
M  V30 23375 H 2425.29 2.53701 0.225318 0
M  V30 23376 H 2426.07 3.16809 -1.32238 0
M  V30 23377 N 2428.52 0.150242 1.56882 0
M  V30 23378 C 2429.77 -0.500037 1.95403 0
M  V30 23379 C 2430.08 -1.65799 1.03779 0
M  V30 23380 O 2431.29 -2.37311 1.31893 0
M  V30 23381 C 2429.74 -0.940957 3.47382 0
M  V30 23382 C 2429.35 0.190237 4.47596 0
M  V30 23383 C 2431.09 -1.56084 3.94763 0
M  V30 23384 C 2429 -0.269134 5.90787 0
M  V30 23385 H 2427.93 -0.190575 0.729518 0
M  V30 23386 H 2430.58 0.235106 1.81988 0
M  V30 23387 H 2428.96 -1.73146 3.56141 0
M  V30 23388 H 2430.14 0.967236 4.50534 0
M  V30 23389 H 2428.45 0.718738 4.1015 0
M  V30 23390 H 2431.05 -1.91622 4.99185 0
M  V30 23391 H 2431.39 -2.45101 3.36499 0
M  V30 23392 H 2431.93 -0.83518 3.88934 0
M  V30 23393 H 2428.67 0.585736 6.52878 0
M  V30 23394 H 2428.19 -1.01194 5.91202 0
M  V30 23395 H 2429.86 -0.720063 6.42981 0
M  V30 23396 N 2430 -1.57115 -0.123538 0
M  V30 23397 C 2431.22 -1.88794 -0.846427 0
M  V30 23398 C 2431.64 -0.741007 -1.73651 0
M  V30 23399 O 2431 0.288361 -1.80207 0
M  V30 23400 C 2431.05 -3.199 -1.68364 0
M  V30 23401 O 2430.77 -4.30177 -0.829401 0
M  V30 23402 C 2432.27 -3.65253 -2.51208 0
M  V30 23403 H 2429.49 -0.625235 -0.243562 0
M  V30 23404 H 2432.03 -2.04208 -0.109288 0
M  V30 23405 H 2430.19 -3.06169 -2.37358 0
M  V30 23406 H 2430.6 -5.05292 -1.40642 0
M  V30 23407 H 2432.08 -4.59761 -3.05489 0
M  V30 23408 H 2432.55 -2.91686 -3.28354 0
M  V30 23409 H 2433.16 -3.81756 -1.87464 0
M  V30 23410 N 2431.47 0.393589 -1.52606 0
M  V30 23411 C 2432.72 1.13624 -1.66651 0
M  V30 23412 C 2433.04 1.91246 -0.410397 0
M  V30 23413 O 2434.24 2.68059 -0.430901 0
M  V30 23414 C 2432.7 2.06886 -2.94493 0
M  V30 23415 C 2432.31 1.34707 -4.27268 0
M  V30 23416 C 2434.05 2.81314 -3.17904 0
M  V30 23417 C 2431.96 2.26708 -5.46221 0
M  V30 23418 H 2430.89 0.427861 -0.620847 0
M  V30 23419 H 2433.54 0.399396 -1.79101 0
M  V30 23420 H 2431.92 2.84186 -2.75779 0
M  V30 23421 H 2433.09 0.626634 -4.56519 0
M  V30 23422 H 2431.41 0.722571 -4.10083 0
M  V30 23423 H 2434.01 3.50321 -4.03955 0
M  V30 23424 H 2434.35 3.45135 -2.32783 0
M  V30 23425 H 2434.88 2.11107 -3.37162 0
M  V30 23426 H 2431.62 1.67509 -6.33736 0
M  V30 23427 H 2431.14 2.9668 -5.21288 0
M  V30 23428 H 2432.82 2.86893 -5.79915 0
M  V30 23429 N 2432.95 1.43492 0.651762 0
M  V30 23430 C 2434.2 1.44472 1.40751 0
M  V30 23431 C 2434.51 0.0732189 1.95463 0
M  V30 23432 O 2435.72 -0.0395244 2.71471 0
M  V30 23433 C 2434.18 2.54244 2.54731 0
M  V30 23434 C 2433.78 3.97507 2.06621 0
M  V30 23435 C 2435.53 2.6442 3.32088 0
M  V30 23436 C 2433.44 4.98743 3.1782 0
M  V30 23437 H 2432.37 0.53743 0.528853 0
M  V30 23438 H 2435.02 1.69486 0.703335 0
M  V30 23439 H 2433.4 2.22434 3.27626 0
M  V30 23440 H 2434.57 4.38785 1.40727 0
M  V30 23441 H 2432.89 3.91389 1.42139 0
M  V30 23442 H 2435.48 3.3723 4.14946 0
M  V30 23443 H 2435.83 1.69538 3.80214 0
M  V30 23444 H 2436.36 2.95539 2.66274 0
M  V30 23445 H 2433.1 5.95182 2.74661 0
M  V30 23446 H 2432.62 4.62076 3.82421 0
M  V30 23447 H 2434.3 5.21512 3.82928 0
M  V30 23448 N 2434.43 -0.890264 1.30046 0
M  V30 23449 C 2435.36 -2.0117 1.18545 0
M  V30 23450 C 2436.34 -1.69924 0.0773655 0
M  V30 23451 O 2437.53 -1.92472 0.258484 0
M  V30 23452 C 2434.66 -3.36201 0.871 0
M  V30 23453 C 2433.61 -3.81688 1.93644 0
M  V30 23454 C 2432.94 -5.1395 1.47509 0
M  V30 23455 C 2434.24 -4.00988 3.34673 0
M  V30 23456 H 2435.93 -2.1105 2.12363 0
M  V30 23457 H 2433.48 -1.01405 1.0224 0
M  V30 23458 H 2435.43 -4.14171 0.777214 0
M  V30 23459 H 2434.15 -3.26438 -0.102868 0
M  V30 23460 H 2432.81 -3.05943 2.01977 0
M  V30 23461 H 2432.46 -5.00611 0.489639 0
M  V30 23462 H 2432.16 -5.45356 2.1877 0
M  V30 23463 H 2433.68 -5.94451 1.39499 0
M  V30 23464 H 2435.1 -4.69412 3.29128 0
M  V30 23465 H 2433.5 -4.43762 4.03974 0
M  V30 23466 H 2434.57 -3.05014 3.76954 0
M  V30 23467 N 2435.91 -1.12676 -1.1019 0
M  V30 23468 C 2436.82 -0.810065 -2.20171 0
M  V30 23469 C 2437.83 0.202158 -1.72822 0
M  V30 23470 O 2439.01 0.0351337 -2.01369 0
M  V30 23471 C 2436.08 -0.272068 -3.45631 0
M  V30 23472 C 2435.14 -1.34454 -4.07702 0
M  V30 23473 C 2434.37 -0.832122 -5.27173 0
M  V30 23474 O 2434.59 0.333184 -5.69426 0
M  V30 23475 O 2433.53 -1.60287 -5.80165 0
M  V30 23476 H 2437.35 -1.72871 -2.49698 0
M  V30 23477 H 2434.94 -0.903618 -1.18975 0
M  V30 23478 H 2436.82 0.0229478 -4.21394 0
M  V30 23479 H 2435.49 0.619108 -3.17724 0
M  V30 23480 H 2434.4 -1.69276 -3.33611 0
M  V30 23481 H 2435.73 -2.20958 -4.39817 0
M  V30 23482 N 2437.39 1.28028 -0.919057 0
M  V30 23483 C 2438.66 1.89777 -0.473701 0
M  V30 23484 C 2439.04 1.83261 1.0478 0
M  V30 23485 O 2438.39 1.27206 1.89818 0
M  V30 23486 C 2438.6 3.34065 -1.01004 0
M  V30 23487 C 2439.95 4.11018 -1.06532 0
M  V30 23488 O 2440.97 3.43046 -0.959056 0
M  V30 23489 O 2439.83 5.32528 -1.22786 0
M  V30 23490 H 2436.93 0.813099 -0.150994 0
M  V30 23491 H 2439.47 1.36357 -1.01019 0
M  V30 23492 H 2438.24 3.33058 -2.05398 0
M  V30 23493 H 2437.87 3.94991 -0.454695 0
M  V30 23494 N 2438.86 0.683613 1.42002 0
M  V30 23495 C 2440.11 0.206716 2.00638 0
M  V30 23496 C 2440.43 -1.19668 1.54722 0
M  V30 23497 O 2441.63 -1.77041 2.05836 0
M  V30 23498 C 2440.09 0.318695 3.58486 0
M  V30 23499 C 2439.7 1.7267 4.13387 0
M  V30 23500 C 2441.44 -0.0990395 4.24384 0
M  V30 23501 C 2439.35 1.79097 5.63629 0
M  V30 23502 H 2438.28 0.0735239 0.750407 0
M  V30 23503 H 2440.93 0.850077 1.62622 0
M  V30 23504 H 2439.31 -0.392712 3.94048 0
M  V30 23505 H 2440.48 2.4659 3.89269 0
M  V30 23506 H 2438.8 2.09305 3.59972 0
M  V30 23507 H 2441.4 -0.0712894 5.34652 0
M  V30 23508 H 2441.74 -1.13579 4.00507 0
M  V30 23509 H 2442.27 0.561668 3.93815 0
M  V30 23510 H 2439.01 2.80784 5.92318 0
M  V30 23511 H 2438.53 1.09545 5.89712 0
M  V30 23512 H 2440.21 1.54841 6.28198 0
M  V30 23513 N 2440.34 -1.5169 0.427538 0
M  V30 23514 C 2441.62 -1.94558 -0.20165 0
M  V30 23515 C 2442 -1.36562 -1.60979 0
M  V30 23516 O 2441.35 -0.548741 -2.21813 0
M  V30 23517 C 2441.56 -3.48486 -0.189333 0
M  V30 23518 C 2442.91 -4.22714 -0.399706 0
M  V30 23519 O 2443.93 -3.55191 -0.267882 0
M  V30 23520 O 2442.79 -5.42486 -0.661153 0
M  V30 23521 H 2439.88 -0.815866 -0.135247 0
M  V30 23522 H 2442.43 -1.62627 0.484811 0
M  V30 23523 H 2441.2 -3.83129 0.795498 0
M  V30 23524 H 2440.82 -3.86831 -0.919119 0
M  V30 23525 N 2441.82 -0.15856 -1.568 0
M  V30 23526 C 2442.73 0.789479 -2.20917 0
M  V30 23527 C 2443.75 1.26292 -1.19693 0
M  V30 23528 O 2444.92 1.3177 -1.52311 0
M  V30 23529 C 2441.99 2.0066 -2.82731 0
M  V30 23530 C 2441.05 1.58127 -3.99117 0
M  V30 23531 C 2440.28 2.74037 -4.57973 0
M  V30 23532 O 2440.51 3.90565 -4.15711 0
M  V30 23533 O 2439.44 2.48845 -5.48051 0
M  V30 23534 H 2443.27 0.273628 -3.02465 0
M  V30 23535 H 2440.85 0.0690286 -1.4924 0
M  V30 23536 H 2442.73 2.71866 -3.21973 0
M  V30 23537 H 2441.41 2.51175 -2.04188 0
M  V30 23538 H 2440.31 0.83909 -3.64568 0
M  V30 23539 H 2441.65 1.12316 -4.79214 0
M  V30 23540 N 2443.3 1.57178 0.115204 0
M  V30 23541 C 2444.54 1.86871 0.828166 0
M  V30 23542 C 2444.9 0.747033 1.76871 0
M  V30 23543 O 2446.1 0.92583 2.52353 0
M  V30 23544 C 2444.38 3.21794 1.55509 0
M  V30 23545 S 2445.93 3.73129 2.30911 0
M  V30 23546 H 2442.75 0.655106 0.276329 0
M  V30 23547 H 2445.35 1.95309 0.0863126 0
M  V30 23548 H 2444.06 4.0137 0.856178 0
M  V30 23549 H 2443.59 3.16443 2.33725 0
M  V30 23550 H 2445.6 3.44935 3.56699 0
M  V30 23551 N 2444.78 -0.38549 1.52813 0
M  V30 23552 C 2445.71 -1.49071 1.74099 0
M  V30 23553 C 2446.72 -1.5047 0.621489 0
M  V30 23554 O 2447.91 -1.54309 0.897272 0
M  V30 23555 C 2445.01 -2.87908 1.78779 0
M  V30 23556 C 2444.18 -3.10434 3.08139 0
M  V30 23557 C 2443.24 -4.29273 3.04321 0
M  V30 23558 O 2442.27 -4.25408 3.78176 0
M  V30 23559 N 2443.47 -5.35646 2.2375 0
M  V30 23560 H 2446.24 -1.31197 2.69458 0
M  V30 23561 H 2443.8 -0.575038 1.51344 0
M  V30 23562 H 2445.79 -3.65515 1.73727 0
M  V30 23563 H 2444.36 -2.99125 0.907921 0
M  V30 23564 H 2443.58 -2.20661 3.26653 0
M  V30 23565 H 2444.87 -3.2234 3.93668 0
M  V30 23566 H 2444.27 -5.41642 1.6322 0
M  V30 23567 H 2442.82 -6.11905 2.24534 0
M  V30 23568 N 2446.26 -1.43835 -0.644143 0
M  V30 23569 C 2447.17 -1.52162 -1.78561 0
M  V30 23570 C 2448.18 -0.408099 -1.69147 0
M  V30 23571 O 2449.36 -0.663558 -1.90155 0
M  V30 23572 C 2446.42 -1.45079 -3.14886 0
M  V30 23573 C 2445.48 -2.67176 -3.36029 0
M  V30 23574 C 2444.72 -2.60421 -4.6585 0
M  V30 23575 O 2444.94 -1.65699 -5.45802 0
M  V30 23576 O 2443.87 -3.51068 -4.88912 0
M  V30 23577 H 2447.7 -2.4857 -1.7449 0
M  V30 23578 H 2445.28 -1.25937 -0.803758 0
M  V30 23579 H 2447.17 -1.43604 -3.96176 0
M  V30 23580 H 2445.84 -0.518094 -3.19527 0
M  V30 23581 H 2444.75 -2.74221 -2.54467 0
M  V30 23582 H 2446.08 -3.59448 -3.36241 0
M  V30 23583 N 2447.73 0.883355 -1.30517 0
M  V30 23584 C 2448.66 2.00538 -1.1961 0
M  V30 23585 C 2449.64 1.69881 -0.0863759 0
M  V30 23586 O 2450.83 1.92332 -0.268687 0
M  V30 23587 C 2447.96 3.35734 -0.888817 0
M  V30 23588 C 2446.91 3.80656 -1.95665 0
M  V30 23589 C 2446.24 5.13161 -1.50233 0
M  V30 23590 C 2447.54 3.99207 -3.36795 0
M  V30 23591 H 2449.23 2.09921 -2.13479 0
M  V30 23592 H 2446.78 1.00861 -1.02776 0
M  V30 23593 H 2448.73 4.13753 -0.799167 0
M  V30 23594 H 2447.46 3.26488 0.0855552 0
M  V30 23595 H 2446.12 3.04867 -2.03597 0
M  V30 23596 H 2445.76 5.00344 -0.51618 0
M  V30 23597 H 2445.46 5.44188 -2.21659 0
M  V30 23598 H 2446.99 5.93703 -1.4265 0
M  V30 23599 H 2448.4 4.6766 -3.31613 0
M  V30 23600 H 2446.8 4.41614 -4.06322 0
M  V30 23601 H 2447.87 3.03011 -3.78566 0
M  V30 23602 N 2449.21 1.13259 1.09591 0
M  V30 23603 C 2450.62 0.906302 1.63227 0
M  V30 23604 C 2450.97 -0.557545 1.88111 0
M  V30 23605 O 2450.1 -1.42388 1.62956 0
M  V30 23606 C 2450.69 1.63872 2.96532 0
M  V30 23607 C 2449.25 1.45834 3.47001 0
M  V30 23608 C 2448.4 1.66902 2.21447 0
M  V30 23609 H 2451.35 1.28613 0.929757 0
M  V30 23610 H 2451.37 1.09482 3.64409 0
M  V30 23611 H 2450.88 2.70409 2.78389 0
M  V30 23612 H 2448.98 0.415913 3.70271 0
M  V30 23613 H 2449.1 2.22027 4.24548 0
M  V30 23614 H 2447.46 1.09375 2.3002 0
M  V30 23615 H 2448.24 2.74756 2.05826 0
M  V30 23616 N 2450.69 -1.27539 0.925834 0
M  V30 23617 C 2451.94 -1.94066 0.564172 0
M  V30 23618 C 2452.26 -1.73136 -0.897157 0
M  V30 23619 O 2451.53 -1.07802 -1.63571 0
M  V30 23620 H 2450.11 -0.718132 0.205658 0
M  V30 23621 H 2452.77 -1.55285 1.17782 0
M  V30 23622 H 2451.87 -3.02481 0.768863 0
M  V30 23623 N 2452.17 -0.691135 -1.41637 0
M  V30 23624 C 2453.1 -0.037289 -2.3347 0
M  V30 23625 C 2454.08 0.771921 -1.51576 0
M  V30 23626 O 2455.26 0.725788 -1.80128 0
M  V30 23627 C 2452.39 0.903005 -3.35355 0
M  V30 23628 C 2451.35 0.201213 -4.27527 0
M  V30 23629 C 2450.67 1.25556 -5.1975 0
M  V30 23630 C 2451.97 -0.92978 -5.13958 0
M  V30 23631 H 2453.67 -0.804278 -2.88395 0
M  V30 23632 H 2451.21 -0.388214 -1.38668 0
M  V30 23633 H 2453.17 1.36962 -3.98521 0
M  V30 23634 H 2451.89 1.70161 -2.7877 0
M  V30 23635 H 2450.55 -0.24533 -3.65778 0
M  V30 23636 H 2450.2 2.04658 -4.59483 0
M  V30 23637 H 2449.9 0.791026 -5.82251 0
M  V30 23638 H 2451.42 1.72278 -5.85792 0
M  V30 23639 H 2452.84 -0.543647 -5.70717 0
M  V30 23640 H 2451.23 -1.32113 -5.85377 0
M  V30 23641 H 2452.3 -1.77141 -4.51386 0
M  V30 23642 N 2453.65 1.51461 -0.435577 0
M  V30 23643 C 2454.89 2.03982 0.130672 0
M  V30 23644 C 2455.25 1.31271 1.40114 0
M  V30 23645 O 2456.45 1.74155 2.04752 0
M  V30 23646 C 2454.72 3.55721 0.34604 0
M  V30 23647 S 2456.28 4.29968 0.875947 0
M  V30 23648 H 2453.1 0.710249 0.0326756 0
M  V30 23649 H 2455.7 1.86239 -0.594577 0
M  V30 23650 H 2454.4 4.06209 -0.584982 0
M  V30 23651 H 2453.94 3.77754 1.09842 0
M  V30 23652 H 2455.95 4.47023 2.15371 0
M  V30 23653 N 2455.12 0.166873 1.56714 0
M  V30 23654 C 2456.06 -0.796499 2.14915 0
M  V30 23655 C 2457.07 -1.19686 1.10359 0
M  V30 23656 O 2458.26 -1.13748 1.37563 0
M  V30 23657 C 2455.36 -2.08298 2.6733 0
M  V30 23658 C 2454.53 -1.84689 3.96496 0
M  V30 23659 C 2453.59 -2.97513 4.34019 0
M  V30 23660 O 2452.62 -2.68341 5.01978 0
M  V30 23661 N 2453.82 -4.25189 3.95215 0
M  V30 23662 H 2456.58 -0.298953 2.98205 0
M  V30 23663 H 2454.14 -0.0160555 1.61892 0
M  V30 23664 H 2456.14 -2.82862 2.89433 0
M  V30 23665 H 2454.71 -2.49256 1.88653 0
M  V30 23666 H 2453.93 -0.940535 3.82815 0
M  V30 23667 H 2455.21 -1.66277 4.80863 0
M  V30 23668 H 2454.61 -4.51752 3.40495 0
M  V30 23669 H 2453.17 -4.96469 4.22329 0
M  V30 23670 N 2456.6 -1.57237 -0.106866 0
M  V30 23671 C 2457.85 -1.85119 -0.810889 0
M  V30 23672 C 2458.17 -0.753858 -1.79839 0
M  V30 23673 O 2457.44 0.221022 -1.94649 0
M  V30 23674 H 2456.02 -0.68303 -0.302454 0
M  V30 23675 H 2458.68 -1.94686 -0.0912982 0
M  V30 23676 H 2457.78 -2.81454 -1.3487 0
M  V30 23677 N 2458.08 0.377381 -1.53015 0
M  V30 23678 C 2459.33 1.11903 -1.68292 0
M  V30 23679 C 2459.65 1.90172 -0.431239 0
M  V30 23680 O 2458.92 1.87887 0.554561 0
M  V30 23681 H 2457.5 0.416101 -0.620378 0
M  V30 23682 H 2460.16 0.426859 -1.90168 0
M  V30 23683 H 2459.26 1.81545 -2.53866 0
M  V30 23684 N 2459.56 1.44175 0.636506 0
M  V30 23685 C 2460.51 1.50918 1.76993 0
M  V30 23686 C 2461.5 0.381324 1.65052 0
M  V30 23687 O 2462.71 0.556041 1.71196 0
M  V30 23688 H 2459.08 0.473465 0.584239 0
M  V30 23689 H 2461.05 2.46323 1.68427 0
M  V30 23690 C 2459.8 1.4654 3.15312 0
M  V30 23691 H 2459.12 2.32639 3.25145 0
M  V30 23692 H 2460.56 1.55319 3.94528 0
M  V30 23693 C 2459.02 0.185364 3.3639 0
M  V30 23694 O 2459.55 -0.746618 3.94701 0
M  V30 23695 N 2457.76 0.0902117 2.9046 0
M  V30 23696 H 2457.31 0.849459 2.43191 0
M  V30 23697 H 2457.26 -0.7655 3.04938 0
M  V30 23698 N 2461.04 -0.876421 1.30983 0
M  V30 23699 C 2462.28 -1.64301 1.21592 0
M  V30 23700 C 2462.64 -1.9069 -0.223928 0
M  V30 23701 O 2463.84 -2.65154 -0.441233 0
M  V30 23702 C 2462.11 -2.94144 2.03012 0
M  V30 23703 S 2463.67 -3.85061 2.10412 0
M  V30 23704 H 2460.49 -0.563812 0.433171 0
M  V30 23705 H 2463.09 -1.03961 1.65566 0
M  V30 23706 H 2461.8 -2.7267 3.06723 0
M  V30 23707 H 2461.33 -3.59513 1.59732 0
M  V30 23708 H 2463.34 -4.80515 1.23773 0
M  V30 23709 N 2462.51 -1.13839 -1.08989 0
M  V30 23710 C 2463.76 -0.897541 -1.8063 0
M  V30 23711 C 2464.08 0.577737 -1.86873 0
M  V30 23712 O 2465.28 0.935656 -2.54868 0
M  V30 23713 C 2463.74 -1.55623 -3.24514 0
M  V30 23714 C 2463.35 -3.06735 -3.26523 0
M  V30 23715 C 2465.09 -1.39627 -4.0088 0
M  V30 23716 C 2463 -3.65469 -4.64959 0
M  V30 23717 H 2461.93 -0.332141 -0.676904 0
M  V30 23718 H 2464.58 -1.36662 -1.22457 0
M  V30 23719 H 2462.96 -1.01483 -3.82776 0
M  V30 23720 H 2464.13 -3.67494 -2.78002 0
M  V30 23721 H 2462.45 -3.22301 -2.6365 0
M  V30 23722 H 2465.05 -1.80915 -5.03164 0
M  V30 23723 H 2465.39 -0.341651 -4.14896 0
M  V30 23724 H 2465.92 -1.90772 -3.49072 0
M  V30 23725 H 2462.66 -4.70757 -4.56145 0
M  V30 23726 H 2462.18 -3.0949 -5.13786 0
M  V30 23727 H 2463.86 -3.6541 -5.33933 0
M  V30 23728 N 2463.99 1.27046 -0.932584 0
M  V30 23729 C 2464.94 2.28664 -0.42607 0
M  V30 23730 C 2465.93 1.62093 0.492161 0
M  V30 23731 O 2467.14 1.76128 0.371324 0
M  V30 23732 H 2463.52 0.742488 -0.119226 0
M  V30 23733 H 2465.49 2.68795 -1.29583 0
M  V30 23734 C 2464.24 3.46392 0.301365 0
M  V30 23735 H 2463.56 3.97834 -0.39602 0
M  V30 23736 H 2465 4.19441 0.620127 0
M  V30 23737 C 2463.46 3.00859 1.5161 0
M  V30 23738 O 2463.99 3.04952 2.61471 0
M  V30 23739 N 2462.19 2.56299 1.36965 0
M  V30 23740 H 2461.74 2.53167 0.475828 0
M  V30 23741 H 2461.7 2.26196 2.18364 0
M  V30 23742 N 2465.47 0.698636 1.41269 0
M  V30 23743 C 2466.7 0.240028 2.05503 0
M  V30 23744 C 2467.11 -1.11189 1.52586 0
M  V30 23745 O 2466.47 -1.69544 0.675353 0
M  V30 23746 C 2466.52 0.192493 3.60987 0
M  V30 23747 O 2466.24 1.49101 4.11947 0
M  V30 23748 C 2467.74 -0.286732 4.42372 0
M  V30 23749 H 2464.96 0.111056 0.661746 0
M  V30 23750 H 2467.51 0.952082 1.80985 0
M  V30 23751 H 2465.66 -0.470405 3.84533 0
M  V30 23752 H 2466.08 1.38016 5.06016 0
M  V30 23753 H 2467.55 -0.268864 5.51345 0
M  V30 23754 H 2468.03 -1.32612 4.18701 0
M  V30 23755 H 2468.63 0.345276 4.23896 0
M  V30 23756 N 2466.95 -1.51228 0.443603 0
M  V30 23757 C 2468.2 -2.0214 -0.12076 0
M  V30 23758 C 2468.52 -1.32739 -1.42164 0
M  V30 23759 O 2467.78 -0.433044 -1.90849 0
M  V30 23760 C 2468.08 -3.55369 -0.380516 0
M  V30 23761 C 2467.74 -4.43095 0.835308 0
M  V30 23762 C 2466.41 -4.66792 1.16872 0
M  V30 23763 C 2468.76 -4.94523 1.6461 0
M  V30 23764 C 2466.09 -5.39161 2.31349 0
M  V30 23765 C 2468.44 -5.68148 2.78191 0
M  V30 23766 C 2467.1 -5.90106 3.11979 0
M  V30 23767 H 2466.37 -0.739681 -0.0441893 0
M  V30 23768 H 2469.02 -1.82117 0.592078 0
M  V30 23769 H 2467.32 -3.73756 -1.17532 0
M  V30 23770 H 2469.02 -3.92301 -0.830708 0
M  V30 23771 H 2465.61 -4.24853 0.565512 0
M  V30 23772 H 2469.79 -4.76094 1.40172 0
M  V30 23773 H 2465.05 -5.54375 2.57833 0
M  V30 23774 H 2469.22 -6.06986 3.41382 0
M  V30 23775 H 2466.85 -6.45962 4.00795 0
M  V30 23776 N 2468.43 -0.175182 -1.56623 0
M  V30 23777 C 2469.67 0.467851 -1.9661 0
M  V30 23778 C 2470 1.63517 -1.06241 0
M  V30 23779 O 2469.27 1.95471 -0.129557 0
M  V30 23780 H 2467.85 0.175832 -0.726011 0
M  V30 23781 H 2470.51 -0.257268 -1.93195 0
M  V30 23782 H 2469.6 0.825289 -3.00991 0
M  V30 23783 N 2469.91 1.57292 0.0985263 0
M  V30 23784 C 2471.13 1.90494 0.820163 0
M  V30 23785 C 2471.56 0.769125 1.71657 0
M  V30 23786 O 2470.91 -0.279463 1.79133 0
M  V30 23787 C 2470.96 3.22545 1.61236 0
M  V30 23788 O 2470.07 3.09893 2.72103 0
M  V30 23789 H 2469.41 0.624524 0.225536 0
M  V30 23790 H 2471.94 2.04463 0.0747799 0
M  V30 23791 H 2471.95 3.55769 1.99731 0
M  V30 23792 H 2470.62 4.048 0.954464 0
M  V30 23793 H 2469.2 2.88177 2.36662 0
M  V30 23794 N 2471.38 -0.369261 1.53213 0
M  V30 23795 C 2472.63 -1.11229 1.69217 0
M  V30 23796 C 2472.96 -1.89409 0.442081 0
M  V30 23797 O 2472.21 -1.87034 -0.575911 0
M  V30 23798 C 2472.51 -2.10127 2.89104 0
M  V30 23799 C 2472.18 -1.48455 4.2576 0
M  V30 23800 C 2470.84 -1.31363 4.62922 0
M  V30 23801 C 2473.19 -1.03802 5.10759 0
M  V30 23802 C 2470.52 -0.681967 5.82723 0
M  V30 23803 C 2472.87 -0.420376 6.31202 0
M  V30 23804 C 2471.54 -0.23692 6.67079 0
M  V30 23805 H 2470.81 -0.407016 0.619209 0
M  V30 23806 H 2473.45 -0.394519 1.87392 0
M  V30 23807 H 2471.76 -2.88195 2.65426 0
M  V30 23808 H 2473.46 -2.67564 2.98681 0
M  V30 23809 H 2470.05 -1.62751 3.96497 0
M  V30 23810 H 2474.23 -1.15802 4.82601 0
M  V30 23811 H 2469.49 -0.528209 6.09114 0
M  V30 23812 H 2473.66 -0.066165 6.96369 0
M  V30 23813 H 2471.29 0.254611 7.59774 0
M  V30 23814 N 2472.86 -1.4451 -0.628851 0
M  V30 23815 C 2473.79 -1.47541 -1.75398 0
M  V30 23816 C 2474.81 -0.368534 -1.58574 0
M  V30 23817 O 2476 -0.634405 -1.66846 0
M  V30 23818 C 2473.1 -1.29583 -3.13148 0
M  V30 23819 C 2472.27 -2.53558 -3.56409 0
M  V30 23820 C 2471.33 -2.30466 -4.73046 0
M  V30 23821 O 2470.35 -3.03966 -4.81242 0
M  V30 23822 N 2471.56 -1.3367 -5.64901 0
M  V30 23823 H 2474.32 -2.44537 -1.73268 0
M  V30 23824 H 2471.88 -1.39979 -0.813487 0
M  V30 23825 H 2473.87 -1.11978 -3.889 0
M  V30 23826 H 2472.44 -0.409425 -3.09907 0
M  V30 23827 H 2471.66 -2.86423 -2.70842 0
M  V30 23828 H 2472.95 -3.36012 -3.82065 0
M  V30 23829 H 2472.35 -0.729703 -5.60974 0
M  V30 23830 H 2470.91 -1.22043 -6.40272 0
M  V30 23831 N 2474.34 0.869463 -1.31446 0
M  V30 23832 C 2475.58 1.63654 -1.22461 0
M  V30 23833 C 2475.94 1.90806 0.213813 0
M  V30 23834 O 2477.14 2.65384 0.427165 0
M  V30 23835 C 2475.42 2.93063 -2.04569 0
M  V30 23836 S 2476.97 3.8394 -2.12451 0
M  V30 23837 H 2473.79 0.561507 -0.436155 0
M  V30 23838 H 2476.39 1.03082 -1.66116 0
M  V30 23839 H 2475.1 2.7104 -3.08165 0
M  V30 23840 H 2474.63 3.5866 -1.61636 0
M  V30 23841 H 2476.64 4.79852 -1.2632 0
M  V30 23842 N 2475.82 1.14415 1.08383 0
M  V30 23843 C 2476.73 0.84499 2.18854 0
M  V30 23844 C 2477.74 -0.174638 1.73121 0
M  V30 23845 O 2478.92 -0.00309317 2.014 0
M  V30 23846 C 2475.98 0.32702 3.45154 0
M  V30 23847 C 2475.05 1.40923 4.05511 0
M  V30 23848 C 2474.28 0.915885 5.25782 0
M  V30 23849 O 2474.5 -0.242551 5.69884 0
M  V30 23850 O 2473.44 1.69497 5.77542 0
M  V30 23851 H 2477.26 1.76822 2.46916 0
M  V30 23852 H 2474.85 0.922432 1.17523 0
M  V30 23853 H 2476.73 0.0440952 4.21377 0
M  V30 23854 H 2475.4 -0.568483 3.18669 0
M  V30 23855 H 2474.31 1.74562 3.30876 0
M  V30 23856 H 2475.64 2.27927 4.36246 0
M  V30 23857 N 2477.3 -1.26549 0.939309 0
M  V30 23858 C 2478.54 -1.95599 0.593334 0
M  V30 23859 C 2478.9 -1.72086 -0.851485 0
M  V30 23860 O 2480.1 -2.34924 -1.3063 0
M  V30 23861 C 2478.37 -3.45248 0.924056 0
M  V30 23862 S 2479.93 -4.33367 0.688345 0
M  V30 23863 H 2476.75 -0.67656 0.218603 0
M  V30 23864 H 2479.35 -1.53538 1.21022 0
M  V30 23865 H 2478.05 -3.5986 1.97304 0
M  V30 23866 H 2477.59 -3.92279 0.296815 0
M  V30 23867 H 2479.6 -4.9417 -0.448347 0
M  V30 23868 N 2478.77 -0.706118 -1.40896 0
M  V30 23869 C 2480.18 -0.315085 -1.84022 0
M  V30 23870 C 2480.54 1.14863 -1.59062 0
M  V30 23871 O 2479.66 1.88292 -1.06655 0
M  V30 23872 C 2480.26 -0.565097 -3.34054 0
M  V30 23873 C 2478.81 -0.227872 -3.7571 0
M  V30 23874 C 2477.96 -0.842168 -2.64202 0
M  V30 23875 H 2480.91 -0.905986 -1.30298 0
M  V30 23876 H 2480.93 0.172776 -3.80108 0
M  V30 23877 H 2480.45 -1.63048 -3.52189 0
M  V30 23878 H 2478.55 0.832831 -3.63173 0
M  V30 23879 H 2478.66 -0.690257 -4.74102 0
M  V30 23880 H 2477.02 -0.270938 -2.53255 0
M  V30 23881 H 2477.81 -1.91163 -2.85152 0
M  V30 23882 N 2480.25 1.50991 -0.451617 0
M  V30 23883 C 2481.18 2.25882 0.388595 0
M  V30 23884 C 2482.2 1.30448 0.974018 0
M  V30 23885 O 2483.39 1.561 0.865731 0
M  V30 23886 C 2480.49 3.01014 1.55705 0
M  V30 23887 C 2479.66 4.23654 1.08794 0
M  V30 23888 C 2478.72 4.81244 2.12817 0
M  V30 23889 O 2477.74 5.42696 1.71669 0
M  V30 23890 N 2478.95 4.66528 3.45445 0
M  V30 23891 H 2481.71 2.98627 -0.253343 0
M  V30 23892 H 2479.27 1.59438 -0.281296 0
M  V30 23893 H 2481.26 3.36424 2.24946 0
M  V30 23894 H 2479.83 2.31189 2.10405 0
M  V30 23895 H 2479.05 3.93574 0.22208 0
M  V30 23896 H 2480.34 5.0321 0.752124 0
M  V30 23897 H 2479.74 4.17612 3.81598 0
M  V30 23898 H 2478.3 5.06261 4.1054 0
M  V30 23899 N 2481.73 0.183486 1.56528 0
M  V30 23900 C 2482.98 -0.457417 1.96856 0
M  V30 23901 C 2483.3 -1.62951 1.07107 0
M  V30 23902 O 2482.57 -1.954 0.139921 0
M  V30 23903 H 2481.15 -0.171979 0.726933 0
M  V30 23904 H 2483.81 0.26751 1.93055 0
M  V30 23905 H 2482.91 -0.809315 3.01424 0
M  V30 23906 N 2483.21 -1.57342 -0.0901833 0
M  V30 23907 C 2484.44 -1.90271 -0.805022 0
M  V30 23908 C 2484.85 -0.775872 -1.7256 0
M  V30 23909 O 2484.19 0.260811 -1.81839 0
M  V30 23910 C 2484.25 -3.185 -1.66728 0
M  V30 23911 C 2483.91 -4.47685 -0.918013 0
M  V30 23912 C 2484.91 -5.1932 -0.245583 0
M  V30 23913 C 2482.6 -4.94341 -0.890637 0
M  V30 23914 C 2484.59 -6.3585 0.444199 0
M  V30 23915 C 2482.28 -6.10782 -0.197071 0
M  V30 23916 C 2483.28 -6.81387 0.469164 0
M  V30 23917 O 2482.96 -7.95609 1.1516 0
M  V30 23918 H 2482.7 -0.633789 -0.235132 0
M  V30 23919 H 2485.25 -2.0528 -0.0703444 0
M  V30 23920 H 2483.48 -2.9965 -2.44431 0
M  V30 23921 H 2485.17 -3.37221 -2.25913 0
M  V30 23922 H 2485.93 -4.84312 -0.258161 0
M  V30 23923 H 2481.81 -4.39271 -1.39865 0
M  V30 23924 H 2485.36 -6.90896 0.964788 0
M  V30 23925 H 2481.25 -6.45242 -0.182357 0
M  V30 23926 H 2482.02 -8.1162 1.05899 0
M  V30 23927 N 2484.69 0.36113 -1.53407 0
M  V30 23928 C 2485.92 1.12217 -1.73467 0
M  V30 23929 C 2486.32 1.83384 -0.465519 0
M  V30 23930 O 2485.67 1.74581 0.57158 0
M  V30 23931 C 2485.73 2.19334 -2.84838 0
M  V30 23932 C 2485.39 1.67896 -4.25041 0
M  V30 23933 C 2486.39 1.14065 -5.07233 0
M  V30 23934 C 2484.08 1.73274 -4.71467 0
M  V30 23935 C 2486.07 0.662956 -6.33943 0
M  V30 23936 C 2483.76 1.25116 -5.98155 0
M  V30 23937 C 2484.75 0.717177 -6.79224 0
M  V30 23938 O 2484.44 0.242724 -8.03533 0
M  V30 23939 H 2484.17 0.341273 -0.583532 0
M  V30 23940 H 2486.73 0.424556 -2.00964 0
M  V30 23941 H 2484.96 2.92603 -2.52825 0
M  V30 23942 H 2486.65 2.80866 -2.93034 0
M  V30 23943 H 2487.41 1.09245 -4.72536 0
M  V30 23944 H 2483.29 2.13778 -4.08436 0
M  V30 23945 H 2486.84 0.24549 -6.97168 0
M  V30 23946 H 2482.73 1.29631 -6.3235 0
M  V30 23947 H 2483.5 0.361642 -8.17701 0
M  V30 23948 N 2486.16 1.44842 0.621179 0
M  V30 23949 C 2487.09 1.55306 1.74363 0
M  V30 23950 C 2488.08 0.405414 1.65198 0
M  V30 23951 O 2489.26 0.62682 1.83806 0
M  V30 23952 C 2486.39 1.50643 3.12928 0
M  V30 23953 C 2485.34 2.63985 3.36892 0
M  V30 23954 C 2484.67 2.44375 4.75589 0
M  V30 23955 C 2485.97 4.0608 3.28476 0
M  V30 23956 H 2487.66 2.49259 1.65863 0
M  V30 23957 H 2485.21 1.19964 0.796537 0
M  V30 23958 H 2487.16 1.56562 3.91237 0
M  V30 23959 H 2485.89 0.532114 3.22236 0
M  V30 23960 H 2484.55 2.57471 2.60967 0
M  V30 23961 H 2484.19 1.45113 4.81613 0
M  V30 23962 H 2483.89 3.20373 4.9258 0
M  V30 23963 H 2485.42 2.52127 5.56115 0
M  V30 23964 H 2486.83 4.13909 3.96676 0
M  V30 23965 H 2485.23 4.8236 3.57 0
M  V30 23966 H 2486.3 4.28947 2.26125 0
M  V30 23967 N 2487.64 -0.862479 1.31905 0
M  V30 23968 C 2488.87 -1.65395 1.25137 0
M  V30 23969 C 2489.29 -1.87247 -0.178967 0
M  V30 23970 O 2488.65 -1.41962 -1.12768 0
M  V30 23971 C 2488.7 -2.99494 2.00837 0
M  V30 23972 O 2487.8 -3.89649 1.35082 0
M  V30 23973 H 2487.14 -0.504542 0.431664 0
M  V30 23974 H 2489.67 -1.07479 1.74096 0
M  V30 23975 H 2489.68 -3.49375 2.10715 0
M  V30 23976 H 2488.36 -2.8291 3.04852 0
M  V30 23977 H 2486.94 -3.48106 1.33702 0
M  V30 23978 N 2489.12 -1.14988 -1.07775 0
M  V30 23979 C 2490.03 -0.856584 -2.18403 0
M  V30 23980 C 2491.05 0.165454 -1.73212 0
M  V30 23981 O 2492.22 -0.00758759 -2.01399 0
M  V30 23982 C 2489.29 -0.34532 -3.44976 0
M  V30 23983 C 2488.35 -1.43072 -4.04758 0
M  V30 23984 C 2487.58 -0.943756 -5.25289 0
M  V30 23985 O 2487.8 0.212325 -5.70005 0
M  V30 23986 O 2486.74 -1.72557 -5.76635 0
M  V30 23987 H 2490.56 -1.78129 -2.45975 0
M  V30 23988 H 2488.15 -0.928651 -1.17032 0
M  V30 23989 H 2490.03 -0.0664412 -4.21348 0
M  V30 23990 H 2488.71 0.551575 -3.18966 0
M  V30 23991 H 2487.61 -1.76314 -3.29946 0
M  V30 23992 H 2488.95 -2.30237 -4.35031 0
M  V30 23993 N 2490.6 1.26049 -0.946007 0
M  V30 23994 C 2491.88 1.8873 -0.513849 0
M  V30 23995 C 2492.26 1.85442 1.00869 0
M  V30 23996 O 2491.6 1.31203 1.87077 0
M  V30 23997 C 2491.81 3.31847 -1.08067 0
M  V30 23998 C 2493.16 4.08666 -1.15227 0
M  V30 23999 O 2494.19 3.40935 -1.03161 0
M  V30 24000 O 2493.04 5.29804 -1.34054 0
M  V30 24001 H 2490.14 0.809713 -0.168207 0
M  V30 24002 H 2492.68 1.34184 -1.03888 0
M  V30 24003 H 2491.46 3.28626 -2.12416 0
M  V30 24004 H 2491.08 3.93938 -0.538376 0
M  V30 24005 N 2492.08 0.71358 1.4052 0
M  V30 24006 C 2493.3 0.261811 2.05237 0
M  V30 24007 C 2493.72 -1.09564 1.53757 0
M  V30 24008 O 2493.08 -1.68818 0.693298 0
M  V30 24009 C 2493.13 0.230769 3.60763 0
M  V30 24010 O 2492.85 1.53462 4.10343 0
M  V30 24011 C 2494.35 -0.239796 4.42651 0
M  V30 24012 H 2491.57 0.118069 0.660531 0
M  V30 24013 H 2494.11 0.971224 1.79965 0
M  V30 24014 H 2492.27 -0.429593 3.85011 0
M  V30 24015 H 2492.68 1.43375 5.04523 0
M  V30 24016 H 2494.16 -0.210371 5.51599 0
M  V30 24017 H 2494.63 -1.28163 4.20084 0
M  V30 24018 H 2495.24 0.390216 4.23506 0
M  V30 24019 N 2493.55 -1.50749 0.459618 0
M  V30 24020 C 2494.97 -1.59199 0.11312 0
M  V30 24021 C 2495.17 -1.46876 -1.37948 0
M  V30 24022 O 2494.23 -1.32136 -2.15166 0
M  V30 24023 C 2495.54 -2.93522 0.653095 0
M  V30 24024 C 2497.09 -3.06889 0.615503 0
M  V30 24025 C 2497.56 -4.43769 1.13283 0
M  V30 24026 N 2499.05 -4.5015 1.09175 0
M  V30 24027 C 2499.79 -5.54431 1.46266 0
M  V30 24028 N 2499.28 -6.66022 1.90751 0
M  V30 24029 N 2501.08 -5.44911 1.37942 0
M  V30 24030 H 2493.23 -1.57003 1.43052 0
M  V30 24031 H 2495.49 -0.741331 0.590874 0
M  V30 24032 H 2495.2 -3.0798 1.69828 0
M  V30 24033 H 2495.07 -3.77092 0.0902795 0
M  V30 24034 H 2497.46 -2.92085 -0.420742 0
M  V30 24035 H 2497.54 -2.25104 1.21499 0
M  V30 24036 H 2497.18 -4.59321 2.16765 0
M  V30 24037 H 2497.11 -5.24128 0.509668 0
M  V30 24038 H 2499.6 -3.70069 0.765345 0
M  V30 24039 H 2499.92 -7.4164 2.17231 0
M  V30 24040 H 2498.26 -6.67172 1.94695 0
M  V30 24041 H 2501.45 -4.56619 1.03038 0
M  V30 24042 H 2501.63 -6.26064 1.67175 0
M  V30 24043 N 2495.03 -0.191784 -1.56429 0
M  V30 24044 C 2496.28 0.448053 -1.96661 0
M  V30 24045 C 2496.59 1.62989 -1.08139 0
M  V30 24046 O 2497.8 2.3373 -1.38139 0
M  V30 24047 C 2496.26 0.848524 -3.49754 0
M  V30 24048 C 2495.86 -0.308842 -4.46934 0
M  V30 24049 C 2497.61 1.45563 -3.98763 0
M  V30 24050 C 2495.52 0.112402 -5.91293 0
M  V30 24051 H 2494.45 0.171166 -0.734315 0
M  V30 24052 H 2497.1 -0.283274 -1.813 0
M  V30 24053 H 2495.48 1.63642 -3.60607 0
M  V30 24054 H 2496.65 -1.08635 -4.47811 0
M  V30 24055 H 2494.97 -0.827229 -4.081 0
M  V30 24056 H 2497.56 1.78319 -5.0409 0
M  V30 24057 H 2497.91 2.36093 -3.42879 0
M  V30 24058 H 2498.44 0.731768 -3.91012 0
M  V30 24059 H 2495.18 -0.758629 -6.51095 0
M  V30 24060 H 2494.7 0.854837 -5.93677 0
M  V30 24061 H 2496.38 0.549335 -6.44664 0
M  V30 24062 N 2496.51 1.57387 0.0818378 0
M  V30 24063 C 2497.75 1.88586 0.788342 0
M  V30 24064 C 2498.11 0.784382 1.75247 0
M  V30 24065 O 2499.32 0.979149 2.50332 0
M  V30 24066 C 2497.59 3.2502 1.48649 0
M  V30 24067 S 2499.15 3.77943 2.22944 0
M  V30 24068 H 2495.96 0.66082 0.262371 0
M  V30 24069 H 2498.57 1.95449 0.0448651 0
M  V30 24070 H 2497.27 4.03096 0.770849 0
M  V30 24071 H 2496.8 3.2133 2.2696 0
M  V30 24072 H 2498.82 3.52423 3.49303 0
M  V30 24073 N 2497.99 -0.35299 1.53596 0
M  V30 24074 C 2498.9 -1.45664 1.839 0
M  V30 24075 C 2499.91 -1.58022 0.728362 0
M  V30 24076 O 2501.09 -1.73677 1.01971 0
M  V30 24077 C 2498.16 -2.80775 2.03388 0
M  V30 24078 C 2497.22 -2.77839 3.27267 0
M  V30 24079 C 2496.45 -4.06506 3.45816 0
M  V30 24080 O 2496.67 -5.03309 2.68396 0
M  V30 24081 O 2495.61 -4.11551 4.39214 0
M  V30 24082 H 2499.43 -1.22975 2.77688 0
M  V30 24083 H 2497.02 -0.544283 1.39133 0
M  V30 24084 H 2498.9 -3.60808 2.17705 0
M  V30 24085 H 2497.57 -3.03415 1.12789 0
M  V30 24086 H 2496.48 -1.9646 3.18362 0
M  V30 24087 H 2497.81 -2.60154 4.17829 0
M  V30 24088 N 2499.47 -1.45169 -0.613489 0
M  V30 24089 C 2500.74 -1.39352 -1.37261 0
M  V30 24090 C 2501.12 -0.0611219 -2.11011 0
M  V30 24091 O 2500.47 0.956789 -2.07504 0
M  V30 24092 C 2500.68 -2.60336 -2.32435 0
M  V30 24093 C 2502.03 -3.05168 -2.95225 0
M  V30 24094 O 2503.05 -2.60667 -2.42758 0
M  V30 24095 O 2501.91 -3.82378 -3.90447 0
M  V30 24096 H 2499.01 -0.552707 -0.615178 0
M  V30 24097 H 2501.55 -1.57288 -0.637069 0
M  V30 24098 H 2500.33 -3.48899 -1.77158 0
M  V30 24099 H 2499.95 -2.44703 -3.13378 0
M  V30 24100 N 2500.95 0.855472 -1.32361 0
M  V30 24101 C 2502.19 1.60446 -1.22229 0
M  V30 24102 C 2502.51 1.94418 0.214698 0
M  V30 24103 O 2503.71 2.67946 0.43787 0
M  V30 24104 C 2502.17 2.89315 -2.14068 0
M  V30 24105 C 2501.78 2.62771 -3.62844 0
M  V30 24106 C 2503.52 3.67327 -2.1277 0
M  V30 24107 C 2501.43 3.87635 -4.46647 0
M  V30 24108 H 2500.36 0.602061 -0.453915 0
M  V30 24109 H 2503.01 0.94467 -1.57316 0
M  V30 24110 H 2501.39 3.56747 -1.71895 0
M  V30 24111 H 2502.57 2.03655 -4.13354 0
M  V30 24112 H 2500.88 1.9809 -3.66264 0
M  V30 24113 H 2503.48 4.59982 -2.72619 0
M  V30 24114 H 2503.82 4.00993 -1.11848 0
M  V30 24115 H 2504.35 3.06798 -2.53219 0
M  V30 24116 H 2501.09 3.5911 -5.4838 0
M  V30 24117 H 2500.61 4.46149 -4.00888 0
M  V30 24118 H 2502.29 4.55381 -4.59605 0
M  V30 24119 N 2502.42 1.15558 1.07164 0
M  V30 24120 C 2503.7 0.8421 1.76545 0
M  V30 24121 C 2504.08 -0.661904 2.00455 0
M  V30 24122 O 2503.43 -1.60688 1.62455 0
M  V30 24123 C 2503.64 1.65501 3.07263 0
M  V30 24124 C 2504.99 1.86241 3.81575 0
M  V30 24125 O 2506.01 1.62293 3.1708 0
M  V30 24126 O 2504.87 2.26364 4.97415 0
M  V30 24127 H 2501.96 0.309875 0.766751 0
M  V30 24128 H 2504.51 1.26147 1.13512 0
M  V30 24129 H 2503.28 2.67603 2.85489 0
M  V30 24130 H 2502.9 1.2321 3.78028 0
M  V30 24131 N 2503.9 -1.25546 0.952678 0
M  V30 24132 C 2504.81 -2.29682 0.47786 0
M  V30 24133 C 2505.83 -1.67977 -0.453829 0
M  V30 24134 O 2507 -1.98669 -0.330552 0
M  V30 24135 C 2504.07 -3.45878 -0.238594 0
M  V30 24136 C 2503.13 -4.23029 0.731068 0
M  V30 24137 C 2502.36 -5.33678 0.0487103 0
M  V30 24138 O 2502.59 -5.58355 -1.16602 0
M  V30 24139 O 2501.52 -5.97417 0.733257 0
M  V30 24140 H 2505.35 -2.72383 1.34317 0
M  V30 24141 H 2502.93 -1.30958 0.719049 0
M  V30 24142 H 2504.81 -4.16485 -0.6417 0
M  V30 24143 H 2503.49 -3.05183 -1.07911 0
M  V30 24144 H 2502.39 -3.54858 1.18434 0
M  V30 24145 H 2503.73 -4.67503 1.53954 0
M  V30 24146 N 2505.38 -0.721022 -1.40139 0
M  V30 24147 C 2506.62 -0.26737 -2.02644 0
M  V30 24148 C 2506.98 1.11998 -1.5595 0
M  V30 24149 O 2508.18 1.67093 -2.10555 0
M  V30 24150 C 2506.46 -0.350344 -3.55679 0
M  V30 24151 S 2508.01 0.0255233 -4.38793 0
M  V30 24152 H 2504.83 -0.105676 -0.703103 0
M  V30 24153 H 2507.43 -0.944446 -1.71174 0
M  V30 24154 H 2506.14 -1.3616 -3.87155 0
M  V30 24155 H 2505.67 0.345027 -3.91884 0
M  V30 24156 H 2507.68 1.24596 -4.80302 0
M  V30 24157 N 2506.86 1.50503 -0.467606 0
M  V30 24158 C 2508.1 2.02306 0.0885864 0
M  V30 24159 C 2508.43 1.34984 1.40034 0
M  V30 24160 O 2507.69 0.463351 1.90136 0
M  V30 24161 C 2507.99 3.55929 0.323932 0
M  V30 24162 C 2507.65 4.4171 -0.905695 0
M  V30 24163 C 2506.31 4.64873 -1.24284 0
M  V30 24164 C 2508.67 4.91842 -1.72456 0
M  V30 24165 C 2505.99 5.35412 -2.39897 0
M  V30 24166 C 2508.35 5.63651 -2.87195 0
M  V30 24167 C 2507.01 5.85068 -3.21328 0
M  V30 24168 H 2506.28 0.740291 0.032416 0
M  V30 24169 H 2508.93 1.81152 -0.620977 0
M  V30 24170 H 2507.23 3.75579 1.11571 0
M  V30 24171 H 2508.93 3.93573 0.768191 0
M  V30 24172 H 2505.52 4.23899 -0.633031 0
M  V30 24173 H 2509.7 4.73804 -1.47728 0
M  V30 24174 H 2504.96 5.50203 -2.6662 0
M  V30 24175 H 2509.13 6.01478 -3.50995 0
M  V30 24176 H 2506.76 6.39504 -4.11021 0
M  V30 24177 N 2508.34 0.200077 1.56325 0
M  V30 24178 C 2509.3 -0.705094 2.18085 0
M  V30 24179 C 2510.3 -1.13738 1.13668 0
M  V30 24180 O 2511.49 -1.04966 1.39025 0
M  V30 24181 C 2508.62 -1.96324 2.78693 0
M  V30 24182 H 2509.81 -0.16697 2.99435 0
M  V30 24183 H 2507.37 -0.049545 1.56221 0
M  V30 24184 H 2508.1 -2.54376 2.01155 0
M  V30 24185 H 2507.89 -1.66196 3.55136 0
M  V30 24186 H 2509.38 -2.60861 3.261 0
M  V30 24187 N 2509.81 -1.57429 -0.0734901 0
M  V30 24188 C 2510.76 -2.00018 -1.09439 0
M  V30 24189 C 2511.75 -0.881971 -1.34574 0
M  V30 24190 O 2512.94 -1.14587 -1.34903 0
M  V30 24191 C 2510.07 -2.44624 -2.40861 0
M  V30 24192 C 2509.15 -3.63176 -2.19007 0
M  V30 24193 N 2509.55 -4.77408 -1.67078 0
M  V30 24194 C 2507.84 -3.69692 -2.49487 0
M  V30 24195 C 2508.54 -5.59263 -1.6 0
M  V30 24196 N 2507.52 -5.0306 -2.0599 0
M  V30 24197 H 2511.32 -2.85778 -0.686177 0
M  V30 24198 H 2508.84 -1.59958 -0.280589 0
M  V30 24199 H 2510.83 -2.73374 -3.14758 0
M  V30 24200 H 2509.49 -1.60251 -2.824 0
M  V30 24201 H 2510.5 -4.99733 -1.35966 0
M  V30 24202 H 2507.18 -2.96028 -2.94404 0
M  V30 24203 H 2508.57 -6.60967 -1.20718 0
M  V30 24204 N 2511.29 0.344839 -1.53781 0
M  V30 24205 C 2512.7 0.920523 -1.62429 0
M  V30 24206 C 2513.05 1.89595 -0.504781 0
M  V30 24207 O 2512.18 2.13288 0.365673 0
M  V30 24208 C 2512.77 1.67634 -2.94422 0
M  V30 24209 C 2511.33 2.20106 -3.05336 0
M  V30 24210 C 2510.48 1.01978 -2.57868 0
M  V30 24211 H 2513.43 0.123014 -1.58223 0
M  V30 24212 H 2513.45 2.53912 -2.83389 0
M  V30 24213 H 2512.96 0.966158 -3.75882 0
M  V30 24214 H 2511.06 2.94304 -2.28508 0
M  V30 24215 H 2511.18 2.46566 -4.10782 0
M  V30 24216 H 2509.54 1.39281 -2.13243 0
M  V30 24217 H 2510.32 0.324248 -3.41765 0
M  V30 24218 N 2512.77 1.45492 0.605781 0
M  V30 24219 C 2514.02 1.49308 1.36204 0
M  V30 24220 C 2514.34 0.136897 1.94519 0
M  V30 24221 O 2513.61 -0.833952 1.77263 0
M  V30 24222 H 2512.19 0.549852 0.50564 0
M  V30 24223 H 2514.85 1.8146 0.711208 0
M  V30 24224 H 2513.95 2.2329 2.18055 0
M  V30 24225 N 2514.25 -0.848441 1.32813 0
M  V30 24226 C 2515.49 -1.60543 1.2391 0
M  V30 24227 C 2515.83 -1.93197 -0.197127 0
M  V30 24228 O 2515.1 -1.57882 -1.13593 0
M  V30 24229 C 2515.39 -2.92172 2.10494 0
M  V30 24230 C 2515.24 -2.6626 3.62527 0
M  V30 24231 C 2516.56 -3.93505 1.97082 0
M  V30 24232 H 2513.68 -0.582532 0.45147 0
M  V30 24233 H 2516.32 -0.979267 1.6282 0
M  V30 24234 H 2514.47 -3.45611 1.7744 0
M  V30 24235 H 2516.14 -2.19326 4.05825 0
M  V30 24236 H 2514.38 -2.00119 3.84883 0
M  V30 24237 H 2515.05 -3.60013 4.18443 0
M  V30 24238 H 2517.53 -3.49342 2.26051 0
M  V30 24239 H 2516.41 -4.83453 2.59932 0
M  V30 24240 H 2516.67 -4.31986 0.940262 0
M  V30 24241 N 2515.73 -1.16125 -1.06549 0
M  V30 24242 C 2516.97 -0.951798 -1.80887 0
M  V30 24243 C 2517.33 0.511432 -1.85063 0
M  V30 24244 O 2518.53 0.839495 -2.55354 0
M  V30 24245 C 2516.8 -1.55899 -3.21606 0
M  V30 24246 S 2518.36 -1.49381 -4.1259 0
M  V30 24247 H 2515.18 -0.342352 -0.62315 0
M  V30 24248 H 2517.78 -1.47823 -1.2794 0
M  V30 24249 H 2516.49 -2.6167 -3.1616 0
M  V30 24250 H 2516.02 -1.03177 -3.79629 0
M  V30 24251 H 2518.03 -0.492282 -4.93752 0
M  V30 24252 N 2517.2 1.25039 -0.959323 0
M  V30 24253 C 2518.45 1.92502 -0.615427 0
M  V30 24254 C 2518.77 1.75454 0.850938 0
M  V30 24255 O 2518.04 1.12101 1.60656 0
M  V30 24256 H 2516.62 0.712427 -0.224626 0
M  V30 24257 H 2519.29 1.52107 -1.21858 0
M  V30 24258 H 2518.38 3.00336 -0.84879 0
M  V30 24259 N 2518.68 0.728444 1.39755 0
M  V30 24260 C 2520.09 0.344321 1.83497 0
M  V30 24261 C 2520.44 -1.12318 1.6087 0
M  V30 24262 O 2519.57 -1.86571 1.09637 0
M  V30 24263 C 2520.16 0.61817 3.33113 0
M  V30 24264 C 2518.72 0.287615 3.753 0
M  V30 24265 C 2517.87 0.884094 2.62829 0
M  V30 24266 H 2520.82 0.926601 1.2884 0
M  V30 24267 H 2520.84 -0.112282 3.80334 0
M  V30 24268 H 2520.35 1.68631 3.4955 0
M  V30 24269 H 2518.46 -0.774948 3.64452 0
M  V30 24270 H 2518.57 0.765595 4.72943 0
M  V30 24271 H 2516.93 0.311194 2.52792 0
M  V30 24272 H 2517.72 1.95676 2.82074 0
M  V30 24273 N 2520.16 -1.50253 0.475581 0
M  V30 24274 C 2521.41 -2.01951 -0.0777025 0
M  V30 24275 C 2521.73 -1.35934 -1.39811 0
M  V30 24276 O 2521 -0.506156 -1.89248 0
M  V30 24277 H 2519.58 -0.746327 -0.0317059 0
M  V30 24278 H 2522.24 -1.84538 0.627028 0
M  V30 24279 H 2521.34 -3.11281 -0.225941 0
M  V30 24280 N 2521.64 -0.208365 -1.56217 0
M  V30 24281 C 2522.87 0.432114 -2.02337 0
M  V30 24282 C 2523.28 1.54273 -1.08837 0
M  V30 24283 O 2522.64 1.8225 -0.0955782 0
M  V30 24284 C 2522.69 0.976077 -3.48073 0
M  V30 24285 O 2522.41 -0.090239 -4.38007 0
M  V30 24286 C 2523.91 1.69112 -4.09776 0
M  V30 24287 H 2521.13 0.107168 -0.662387 0
M  V30 24288 H 2523.68 -0.320958 -2.01966 0
M  V30 24289 H 2521.83 1.67948 -3.49102 0
M  V30 24290 H 2522.24 0.316609 -5.23544 0
M  V30 24291 H 2523.72 2.02388 -5.13559 0
M  V30 24292 H 2524.2 2.59958 -3.54004 0
M  V30 24293 H 2524.8 1.03325 -4.12558 0
M  V30 24294 N 2523.12 1.57465 0.0651402 0
M  V30 24295 C 2524.36 1.89411 0.768295 0
M  V30 24296 C 2524.72 0.802925 1.74405 0
M  V30 24297 O 2525.92 1.00565 2.49279 0
M  V30 24298 C 2524.19 3.26579 1.45193 0
M  V30 24299 S 2525.75 3.80287 2.18923 0
M  V30 24300 H 2522.57 0.663565 0.255347 0
M  V30 24301 H 2525.17 1.95485 0.0241327 0
M  V30 24302 H 2523.88 4.03891 0.728052 0
M  V30 24303 H 2523.41 3.23719 2.23539 0
M  V30 24304 H 2525.42 3.56108 3.45545 0
M  V30 24305 N 2524.59 -0.336679 1.53962 0
M  V30 24306 C 2525.82 -1.09443 1.75231 0
M  V30 24307 C 2526.23 -1.8262 0.494634 0
M  V30 24308 O 2525.58 -1.75469 -0.543734 0
M  V30 24309 C 2525.64 -2.14775 2.88292 0
M  V30 24310 C 2525.3 -1.61113 4.27658 0
M  V30 24311 C 2526.3 -1.05981 5.08983 0
M  V30 24312 C 2523.98 -1.65752 4.74164 0
M  V30 24313 C 2525.98 -0.562017 6.34917 0
M  V30 24314 C 2523.66 -1.15585 6.0007 0
M  V30 24315 C 2524.66 -0.609028 6.80279 0
M  V30 24316 O 2524.35 -0.114858 8.03818 0
M  V30 24317 H 2524.08 -0.331946 0.588887 0
M  V30 24318 H 2526.64 -0.39253 2.01614 0
M  V30 24319 H 2524.87 -2.88543 2.57448 0
M  V30 24320 H 2526.56 -2.76168 2.97466 0
M  V30 24321 H 2527.32 -1.01714 4.74214 0
M  V30 24322 H 2523.2 -2.07253 4.11785 0
M  V30 24323 H 2526.74 -0.134545 6.9747 0
M  V30 24324 H 2522.64 -1.19555 6.34332 0
M  V30 24325 H 2523.41 -0.231507 8.18173 0
M  V30 24326 N 2526.07 -1.45812 -0.598057 0
M  V30 24327 C 2527.02 -1.55558 -1.72929 0
M  V30 24328 C 2528.01 -0.42495 -1.63983 0
M  V30 24329 O 2529.22 -0.601235 -1.69662 0
M  V30 24330 H 2525.6 -0.488789 -0.57148 0
M  V30 24331 H 2527.57 -2.50702 -1.61837 0
M  V30 24332 C 2526.32 -1.54848 -3.11316 0
M  V30 24333 H 2525.64 -2.41178 -3.18863 0
M  V30 24334 H 2527.08 -1.65724 -3.90271 0
M  V30 24335 C 2525.54 -0.274486 -3.3578 0
M  V30 24336 O 2526.07 0.641708 -3.96541 0
M  V30 24337 N 2524.27 -0.16719 -2.90119 0
M  V30 24338 H 2523.82 -0.913638 -2.40854 0
M  V30 24339 H 2523.78 0.684382 -3.06861 0
M  V30 24340 N 2527.55 0.841385 -1.33261 0
M  V30 24341 C 2528.78 1.62861 -1.27608 0
M  V30 24342 C 2529.19 1.88175 0.153474 0
M  V30 24343 O 2528.55 1.46013 1.09482 0
M  V30 24344 C 2528.6 2.98028 -2.04602 0
M  V30 24345 O 2528.32 2.73828 -3.4198 0
M  V30 24346 C 2529.82 3.92461 -2.06129 0
M  V30 24347 H 2527.04 0.506834 -0.439727 0
M  V30 24348 H 2529.59 1.04821 -1.75593 0
M  V30 24349 H 2527.74 3.52677 -1.60305 0
M  V30 24350 H 2528.16 3.59883 -3.81556 0
M  V30 24351 H 2529.63 4.84526 -2.64459 0
M  V30 24352 H 2530.11 4.26442 -1.0509 0
M  V30 24353 H 2530.71 3.43749 -2.50433 0
M  V30 24354 N 2529.03 1.16688 1.05932 0
M  V30 24355 C 2529.96 0.899986 2.15459 0
M  V30 24356 C 2530.94 -0.155124 1.69391 0
M  V30 24357 O 2532.13 -0.00645279 1.94199 0
M  V30 24358 C 2529.26 0.404301 3.44939 0
M  V30 24359 C 2528.21 1.39774 4.04533 0
M  V30 24360 C 2527.54 0.760309 5.29267 0
M  V30 24361 C 2528.84 2.76853 4.42888 0
M  V30 24362 H 2530.53 1.81592 2.38043 0
M  V30 24363 H 2528.08 0.874534 1.14402 0
M  V30 24364 H 2530.03 0.205045 4.20901 0
M  V30 24365 H 2528.75 -0.54715 3.21984 0
M  V30 24366 H 2527.41 1.58361 3.30632 0
M  V30 24367 H 2527.06 -0.197743 5.02611 0
M  V30 24368 H 2526.76 1.42342 5.70099 0
M  V30 24369 H 2528.28 0.571157 6.07923 0
M  V30 24370 H 2529.7 2.62028 5.09916 0
M  V30 24371 H 2528.09 3.39672 4.94715 0
M  V30 24372 H 2529.16 3.31829 3.53578 0
M  V30 24373 N 2530.51 -1.24529 0.96594 0
M  V30 24374 C 2531.76 -1.92173 0.625627 0
M  V30 24375 C 2532.08 -1.75903 -0.841621 0
M  V30 24376 O 2531.35 -1.12951 -1.60059 0
M  V30 24377 H 2529.93 -0.711226 0.228401 0
M  V30 24378 H 2532.59 -1.51459 1.22663 0
M  V30 24379 H 2531.68 -2.99882 0.864706 0
M  V30 24380 N 2531.99 -0.735845 -1.39367 0
M  V30 24381 C 2532.93 -0.085554 -2.32443 0
M  V30 24382 C 2533.93 0.724927 -1.53105 0
M  V30 24383 O 2535.13 0.626017 -1.68763 0
M  V30 24384 H 2531.51 -0.00886579 -0.751948 0
M  V30 24385 H 2533.48 -0.886933 -2.84914 0
M  V30 24386 C 2532.23 0.806924 -3.38207 0
M  V30 24387 H 2531.55 0.192669 -3.99335 0
M  V30 24388 H 2532.99 1.22953 -4.05781 0
M  V30 24389 C 2531.45 1.9416 -2.75324 0
M  V30 24390 O 2531.98 3.0343 -2.63236 0
M  V30 24391 N 2530.19 1.73128 -2.33399 0
M  V30 24392 H 2529.73 0.842554 -2.43431 0
M  V30 24393 H 2529.69 2.49222 -1.91666 0
M  V30 24394 N 2533.46 1.49999 -0.483543 0
M  V30 24395 C 2534.69 2.065 0.0643533 0
M  V30 24396 C 2535.1 1.34617 1.32947 0
M  V30 24397 O 2534.44 0.412787 1.79002 0
M  V30 24398 C 2534.51 3.57201 0.40592 0
M  V30 24399 C 2534.17 4.50654 -0.758954 0
M  V30 24400 C 2535.17 4.93205 -1.64454 0
M  V30 24401 C 2532.85 4.9318 -0.952812 0
M  V30 24402 C 2534.85 5.77002 -2.70828 0
M  V30 24403 C 2532.53 5.76757 -2.01976 0
M  V30 24404 C 2533.53 6.18571 -2.89585 0
M  V30 24405 O 2533.22 7.00479 -3.94441 0
M  V30 24406 H 2532.95 0.675935 -0.00935974 0
M  V30 24407 H 2535.51 1.93992 -0.674994 0
M  V30 24408 H 2533.74 3.67655 1.19863 0
M  V30 24409 H 2535.42 3.96014 0.890364 0
M  V30 24410 H 2536.19 4.61009 -1.50651 0
M  V30 24411 H 2532.07 4.60147 -0.280328 0
M  V30 24412 H 2535.61 6.09559 -3.3924 0
M  V30 24413 H 2531.51 6.08366 -2.15781 0
M  V30 24414 H 2532.28 7.18754 -3.91581 0
M  V30 24415 N 2534.94 0.216646 1.56104 0
M  V30 24416 C 2536.17 -0.421378 2.02564 0
M  V30 24417 C 2536.58 -1.53693 1.09653 0
M  V30 24418 O 2535.94 -1.82196 0.105242 0
M  V30 24419 C 2535.99 -0.957604 3.48586 0
M  V30 24420 O 2535.71 0.113466 4.37953 0
M  V30 24421 C 2537.21 -1.66936 4.10667 0
M  V30 24422 H 2534.43 -0.103654 0.662946 0
M  V30 24423 H 2536.98 0.331664 2.01793 0
M  V30 24424 H 2535.13 -1.66094 3.49988 0
M  V30 24425 H 2535.55 -0.28884 5.23704 0
M  V30 24426 H 2537.02 -1.99662 5.14625 0
M  V30 24427 H 2537.5 -2.58077 3.55377 0
M  V30 24428 H 2538.1 -1.01135 4.131 0
M  V30 24429 N 2536.42 -1.57498 -0.0567885 0
M  V30 24430 C 2537.66 -1.89816 -0.75824 0
M  V30 24431 C 2538.02 -0.812163 -1.73977 0
M  V30 24432 O 2539.22 -1.01885 -2.48743 0
M  V30 24433 C 2537.5 -3.27344 -1.43459 0
M  V30 24434 S 2539.05 -3.81443 -2.16903 0
M  V30 24435 H 2535.87 -0.66491 -0.251825 0
M  V30 24436 H 2538.47 -1.95495 -0.0137653 0
M  V30 24437 H 2537.18 -4.04271 -0.706622 0
M  V30 24438 H 2536.71 -3.249 -2.21819 0
M  V30 24439 H 2538.72 -3.57936 -3.43652 0
M  V30 24440 N 2537.9 0.328509 -1.54138 0
M  V30 24441 C 2539.15 1.06453 -1.7132 0
M  V30 24442 C 2539.46 1.89333 -0.491142 0
M  V30 24443 O 2540.67 2.6599 -0.544207 0
M  V30 24444 C 2539.12 1.94209 -3.03003 0
M  V30 24445 C 2538.73 1.16464 -4.32597 0
M  V30 24446 C 2540.47 2.67577 -3.29549 0
M  V30 24447 C 2538.38 2.03337 -5.55345 0
M  V30 24448 H 2537.31 0.401143 -0.638436 0
M  V30 24449 H 2539.96 0.323074 -1.80634 0
M  V30 24450 H 2538.34 2.72234 -2.87584 0
M  V30 24451 H 2539.52 0.432445 -4.58766 0
M  V30 24452 H 2537.83 0.54799 -4.12778 0
M  V30 24453 H 2540.43 3.32872 -4.1845 0
M  V30 24454 H 2540.77 3.34951 -2.47212 0
M  V30 24455 H 2541.31 1.96617 -3.45813 0
M  V30 24456 H 2538.04 1.4048 -6.4027 0
M  V30 24457 H 2537.56 2.74303 -5.33402 0
M  V30 24458 H 2539.24 2.62039 -5.91561 0
M  V30 24459 N 2539.38 1.46127 0.590316 0
M  V30 24460 C 2540.62 1.52596 1.35992 0
M  V30 24461 C 2540.98 0.170402 1.91242 0
M  V30 24462 O 2542.18 0.109822 2.68576 0
M  V30 24463 C 2540.45 2.58828 2.46461 0
M  V30 24464 S 2542.01 2.84647 3.33948 0
M  V30 24465 H 2538.83 0.539228 0.463415 0
M  V30 24466 H 2541.43 1.83315 0.679408 0
M  V30 24467 H 2540.13 3.55964 2.0425 0
M  V30 24468 H 2539.67 2.29816 3.19293 0
M  V30 24469 H 2541.68 2.19339 4.4509 0
M  V30 24470 N 2540.85 -0.834306 1.33705 0
M  V30 24471 C 2542.26 -1.40617 1.22815 0
M  V30 24472 C 2542.62 -1.95618 -0.151073 0
M  V30 24473 O 2541.74 -1.8917 -1.05089 0
M  V30 24474 C 2542.34 -2.5562 2.2236 0
M  V30 24475 C 2540.89 -3.08747 2.15295 0
M  V30 24476 C 2540.04 -1.81566 2.09592 0
M  V30 24477 H 2542.99 -0.639677 1.45237 0
M  V30 24478 H 2543.01 -3.33385 1.83397 0
M  V30 24479 H 2542.53 -2.1556 3.22731 0
M  V30 24480 H 2540.63 -3.53341 1.18241 0
M  V30 24481 H 2540.74 -3.68611 3.06044 0
M  V30 24482 H 2539.1 -2.02001 1.55138 0
M  V30 24483 H 2539.89 -1.43696 3.11779 0
M  V30 24484 N 2542.33 -1.17248 -1.05312 0
M  V30 24485 C 2543.74 -0.966258 -1.59751 0
M  V30 24486 C 2544.09 0.487344 -1.90051 0
M  V30 24487 O 2543.22 1.36242 -1.68128 0
M  V30 24488 C 2543.81 -1.74764 -2.90246 0
M  V30 24489 C 2542.37 -1.58612 -3.41349 0
M  V30 24490 C 2541.52 -1.75006 -2.151 0
M  V30 24491 H 2544.47 -1.31975 -0.881383 0
M  V30 24492 H 2544.49 -1.22931 -3.60095 0
M  V30 24493 H 2544 -2.80555 -2.68161 0
M  V30 24494 H 2542.1 -0.55305 -3.68473 0
M  V30 24495 H 2542.22 -2.37631 -4.16015 0
M  V30 24496 H 2540.58 -1.17837 -2.25802 0
M  V30 24497 H 2541.36 -2.82206 -1.95486 0
M  V30 24498 N 2543.81 1.24015 -0.972531 0
M  V30 24499 C 2544.72 2.28892 -0.51434 0
M  V30 24500 C 2545.74 1.68678 0.427048 0
M  V30 24501 O 2546.91 1.9917 0.298904 0
M  V30 24502 C 2543.98 3.46214 0.183537 0
M  V30 24503 C 2543.04 4.21813 -0.798276 0
M  V30 24504 C 2542.27 5.33533 -0.133608 0
M  V30 24505 O 2542.49 5.60139 1.07704 0
M  V30 24506 O 2541.43 5.96175 -0.828208 0
M  V30 24507 H 2545.25 2.70212 -1.38633 0
M  V30 24508 H 2542.84 1.29798 -0.739792 0
M  V30 24509 H 2544.72 4.17454 0.57536 0
M  V30 24510 H 2543.4 3.06862 1.03042 0
M  V30 24511 H 2542.3 3.52929 -1.24065 0
M  V30 24512 H 2543.64 4.64994 -1.61372 0
M  V30 24513 N 2545.29 0.743226 1.38974 0
M  V30 24514 C 2546.52 0.304843 2.04339 0
M  V30 24515 C 2546.93 -1.06816 1.56163 0
M  V30 24516 O 2546.27 -1.68775 0.725314 0
M  V30 24517 C 2546.33 0.237432 3.58715 0
M  V30 24518 C 2546 1.55026 4.29902 0
M  V30 24519 C 2546.99 2.49752 4.55982 0
M  V30 24520 C 2544.68 1.81683 4.68291 0
M  V30 24521 C 2546.67 3.69362 5.19471 0
M  V30 24522 C 2544.36 3.01569 5.31507 0
M  V30 24523 C 2545.36 3.95229 5.5703 0
M  V30 24524 O 2545.04 5.13009 6.18932 0
M  V30 24525 H 2544.78 0.129721 0.663437 0
M  V30 24526 H 2547.33 1.01005 1.7885 0
M  V30 24527 H 2545.56 -0.523935 3.83134 0
M  V30 24528 H 2547.25 -0.17005 4.05544 0
M  V30 24529 H 2548.02 2.3043 4.26763 0
M  V30 24530 H 2543.89 1.09623 4.47777 0
M  V30 24531 H 2547.44 4.42483 5.3931 0
M  V30 24532 H 2543.34 3.20788 5.60147 0
M  V30 24533 H 2544.1 5.13453 6.37424 0
M  V30 24534 N 2546.77 -1.4974 0.491491 0
M  V30 24535 C 2547.7 -2.25677 -0.338424 0
M  V30 24536 C 2548.68 -1.2985 -0.978653 0
M  V30 24537 O 2549.86 -1.59119 -1.01061 0
M  V30 24538 C 2546.99 -3.04856 -1.47582 0
M  V30 24539 C 2546.03 -4.15764 -0.950927 0
M  V30 24540 S 2546.87 -5.35288 0.150721 0
M  V30 24541 C 2548.02 -6.1802 -0.990069 0
M  V30 24542 H 2548.26 -2.9572 0.30612 0
M  V30 24543 H 2545.79 -1.51901 0.276649 0
M  V30 24544 H 2547.75 -3.51062 -2.12758 0
M  V30 24545 H 2546.41 -2.343 -2.09195 0
M  V30 24546 H 2545.6 -4.70645 -1.80303 0
M  V30 24547 H 2545.2 -3.721 -0.376542 0
M  V30 24548 H 2547.5 -6.50389 -1.89737 0
M  V30 24549 H 2548.44 -7.06471 -0.480081 0
M  V30 24550 H 2548.85 -5.50416 -1.25311 0
M  V30 24551 N 2548.24 -0.224922 -1.55987 0
M  V30 24552 C 2549.18 0.716186 -2.17723 0
M  V30 24553 C 2550.19 1.15507 -1.14725 0
M  V30 24554 O 2551.38 1.08564 -1.4169 0
M  V30 24555 C 2548.48 1.98233 -2.74876 0
M  V30 24556 C 2547.65 1.69846 -4.03077 0
M  V30 24557 C 2546.71 2.812 -4.44762 0
M  V30 24558 O 2545.74 2.49525 -5.11591 0
M  V30 24559 N 2546.94 4.10227 -4.10723 0
M  V30 24560 H 2549.7 0.188071 -2.99109 0
M  V30 24561 H 2547.26 -0.0440408 -1.6184 0
M  V30 24562 H 2549.26 2.71925 -2.99732 0
M  V30 24563 H 2547.83 2.42083 -1.97774 0
M  V30 24564 H 2547.05 0.797807 -3.86042 0
M  V30 24565 H 2548.33 1.48315 -4.86703 0
M  V30 24566 H 2547.73 4.38803 -3.57027 0
M  V30 24567 H 2546.29 4.80453 -4.40464 0
M  V30 24568 N 2549.72 1.57526 0.0484352 0
M  V30 24569 C 2550.97 1.88652 0.744193 0
M  V30 24570 C 2551.3 0.820243 1.76027 0
M  V30 24571 O 2550.58 -0.166951 1.93782 0
M  V30 24572 C 2550.86 3.30436 1.43122 0
M  V30 24573 C 2550.71 4.4774 0.429971 0
M  V30 24574 C 2552.03 3.7082 2.37024 0
M  V30 24575 H 2549.15 0.686124 0.269077 0
M  V30 24576 H 2551.79 1.89999 0.00710192 0
M  V30 24577 H 2549.94 3.29419 2.0595 0
M  V30 24578 H 2551.61 4.60888 -0.194897 0
M  V30 24579 H 2549.86 4.33064 -0.252598 0
M  V30 24580 H 2550.53 5.43785 0.948778 0
M  V30 24581 H 2553 3.7308 1.84256 0
M  V30 24582 H 2551.88 4.7087 2.82086 0
M  V30 24583 H 2552.14 3.02018 3.22859 0
M  V30 24584 N 2551.2 -0.32033 1.5431 0
M  V30 24585 C 2552.15 -1.41447 1.8465 0
M  V30 24586 C 2553.14 -1.53401 0.718651 0
M  V30 24587 O 2554.35 -1.55748 0.902362 0
M  V30 24588 H 2550.72 -0.472081 0.585358 0
M  V30 24589 H 2552.69 -1.13084 2.76142 0
M  V30 24590 C 2551.44 -2.77614 2.09346 0
M  V30 24591 H 2550.77 -2.69191 2.95595 0
M  V30 24592 H 2552.21 -3.53233 2.34526 0
M  V30 24593 C 2550.67 -3.25041 0.885996 0
M  V30 24594 O 2551.2 -4.01583 0.0968597 0
M  V30 24595 N 2549.4 -2.82124 0.696732 0
M  V30 24596 H 2548.95 -2.19998 1.3401 0
M  V30 24597 H 2548.91 -3.14209 -0.109657 0
M  V30 24598 N 2552.68 -1.46438 -0.582558 0
M  V30 24599 C 2553.93 -1.51456 -1.33812 0
M  V30 24600 C 2554.25 -0.167826 -1.94276 0
M  V30 24601 O 2553.52 0.805646 -1.78567 0
M  V30 24602 H 2552.1 -0.557827 -0.496828 0
M  V30 24603 H 2554.76 -1.82569 -0.682249 0
M  V30 24604 H 2553.86 -2.26731 -2.14475 0
M  V30 24605 N 2554.16 0.827204 -1.34146 0
M  V30 24606 C 2555.4 1.58004 -1.26012 0
M  V30 24607 C 2555.73 1.94249 0.170937 0
M  V30 24608 O 2555 1.61929 1.10253 0
M  V30 24609 H 2553.58 0.585873 -0.463424 0
M  V30 24610 H 2556.24 0.987922 -1.68006 0
M  V30 24611 H 2555.33 2.50478 -1.86191 0
M  V30 24612 N 2555.63 1.17805 1.04688 0
M  V30 24613 C 2556.58 0.867428 2.10855 0
M  V30 24614 C 2557.57 -0.160178 1.60101 0
M  V30 24615 O 2558.76 0.0429781 1.76948 0
M  V30 24616 C 2555.89 0.388072 3.411 0
M  V30 24617 C 2554.98 1.44739 3.98637 0
M  V30 24618 N 2555.37 2.6622 4.3007 0
M  V30 24619 C 2553.66 1.30644 4.26437 0
M  V30 24620 C 2554.37 3.34325 4.76027 0
M  V30 24621 N 2553.34 2.61705 4.76457 0
M  V30 24622 H 2557.14 1.79098 2.33026 0
M  V30 24623 H 2554.66 1.06752 1.22384 0
M  V30 24624 H 2556.65 0.147068 4.16641 0
M  V30 24625 H 2555.31 -0.529215 3.20358 0
M  V30 24626 H 2556.33 3.03141 4.19912 0
M  V30 24627 H 2553 0.451202 4.15055 0
M  V30 24628 H 2554.39 4.38112 5.09419 0
M  V30 24629 N 2557.11 -1.23497 0.979094 0
M  V30 24630 C 2558.06 -2.26926 0.510644 0
M  V30 24631 C 2559.05 -1.63808 -0.431662 0
M  V30 24632 O 2560.26 -1.77385 -0.305699 0
M  V30 24633 H 2556.64 -0.737552 0.146701 0
M  V30 24634 H 2558.61 -2.638 1.3947 0
M  V30 24635 C 2557.36 -3.47271 -0.172597 0
M  V30 24636 H 2556.68 -3.9609 0.543401 0
M  V30 24637 H 2558.12 -4.21453 -0.464027 0
M  V30 24638 C 2556.58 -3.06278 -1.4034 0
M  V30 24639 O 2557.11 -3.14447 -2.49972 0
M  V30 24640 N 2555.31 -2.61206 -1.27358 0
M  V30 24641 H 2554.86 -2.54759 -0.381539 0
M  V30 24642 H 2554.82 -2.34144 -2.09818 0
M  V30 24643 N 2558.59 -0.750586 -1.38578 0
M  V30 24644 C 2559.83 -0.310294 -2.02031 0
M  V30 24645 C 2560.2 1.08665 -1.5829 0
M  V30 24646 O 2561.4 1.62589 -2.14052 0
M  V30 24647 C 2559.67 -0.42571 -3.54856 0
M  V30 24648 S 2561.23 -0.0675569 -4.38748 0
M  V30 24649 H 2558.04 -0.120566 -0.700703 0
M  V30 24650 H 2560.65 -0.980542 -1.69132 0
M  V30 24651 H 2559.35 -1.44341 -3.84179 0
M  V30 24652 H 2558.88 0.261825 -3.92528 0
M  V30 24653 H 2560.9 1.1438 -4.82837 0
M  V30 24654 N 2560.07 1.49477 -0.499425 0
M  V30 24655 C 2561 2.25853 0.326451 0
M  V30 24656 C 2561.98 1.30368 0.971753 0
M  V30 24657 O 2563.16 1.59653 1.00216 0
M  V30 24658 C 2560.29 3.05634 1.45963 0
M  V30 24659 C 2559.34 4.16262 0.928865 0
M  V30 24660 S 2560.17 5.352 -0.179106 0
M  V30 24661 C 2561.33 6.18536 0.95728 0
M  V30 24662 H 2561.56 2.95553 -0.321798 0
M  V30 24663 H 2559.09 1.51752 -0.284701 0
M  V30 24664 H 2561.05 3.52185 2.10893 0
M  V30 24665 H 2559.71 2.35406 2.07949 0
M  V30 24666 H 2558.9 4.71595 1.77804 0
M  V30 24667 H 2558.51 3.72294 0.356803 0
M  V30 24668 H 2560.8 6.51386 1.86285 0
M  V30 24669 H 2561.74 7.06715 0.442608 0
M  V30 24670 H 2562.15 5.51072 1.2239 0
M  V30 24671 N 2561.55 0.233191 1.55865 0
M  V30 24672 C 2562.82 -0.444954 1.90472 0
M  V30 24673 C 2563.2 -1.76888 1.15212 0
M  V30 24674 O 2562.55 -2.26956 0.265159 0
M  V30 24675 C 2562.76 -0.626499 3.43331 0
M  V30 24676 C 2564.11 -0.928637 4.14321 0
M  V30 24677 O 2565.13 -0.712864 3.48994 0
M  V30 24678 O 2563.99 -1.33877 5.29848 0
M  V30 24679 H 2561.09 -0.236871 0.792351 0
M  V30 24680 H 2563.63 0.27624 1.67437 0
M  V30 24681 H 2562.41 0.306891 3.90095 0
M  V30 24682 H 2562.03 -1.39875 3.72184 0
M  V30 24683 N 2563.03 -1.57549 -0.0400806 0
M  V30 24684 C 2563.96 -2.01194 -1.07686 0
M  V30 24685 C 2564.94 -0.894297 -1.35798 0
M  V30 24686 O 2566.12 -1.15924 -1.4864 0
M  V30 24687 C 2563.25 -2.37565 -2.41414 0
M  V30 24688 C 2562.29 -3.5966 -2.29231 0
M  V30 24689 S 2563.13 -5.09245 -1.65619 0
M  V30 24690 C 2564.28 -5.48848 -3.0086 0
M  V30 24691 H 2564.52 -2.88819 -0.705057 0
M  V30 24692 H 2562.05 -1.52368 -0.249698 0
M  V30 24693 H 2564.01 -2.59191 -3.18324 0
M  V30 24694 H 2562.67 -1.50412 -2.75745 0
M  V30 24695 H 2561.86 -3.82728 -3.27925 0
M  V30 24696 H 2561.46 -3.37828 -1.60463 0
M  V30 24697 H 2563.75 -5.48858 -3.97191 0
M  V30 24698 H 2564.7 -6.49291 -2.82537 0
M  V30 24699 H 2565.11 -4.76336 -3.02926 0
M  V30 24700 N 2564.5 0.312142 -1.54478 0
M  V30 24701 C 2565.92 0.65716 -1.45443 0
M  V30 24702 C 2566.12 1.91181 -0.636563 0
M  V30 24703 O 2565.18 2.52112 -0.139859 0
M  V30 24704 C 2566.49 0.82053 -2.89288 0
M  V30 24705 C 2568.04 0.917136 -2.99262 0
M  V30 24706 C 2568.51 1.11259 -4.44281 0
M  V30 24707 N 2570 1.17906 -4.47942 0
M  V30 24708 C 2570.74 1.34838 -5.57321 0
M  V30 24709 N 2570.23 1.4874 -6.76645 0
M  V30 24710 N 2572.03 1.37637 -5.44988 0
M  V30 24711 H 2564.18 -0.512349 -2.06128 0
M  V30 24712 H 2566.44 -0.167501 -0.933085 0
M  V30 24713 H 2566.15 -0.0303223 -3.51687 0
M  V30 24714 H 2566.02 1.71292 -3.36064 0
M  V30 24715 H 2568.41 1.75848 -2.36984 0
M  V30 24716 H 2568.49 0.000967605 -2.558 0
M  V30 24717 H 2568.13 0.276051 -5.07149 0
M  V30 24718 H 2568.06 2.04281 -4.85363 0
M  V30 24719 H 2570.55 1.0856 -3.61971 0
M  V30 24720 H 2570.87 1.61384 -7.55761 0
M  V30 24721 H 2569.21 1.45816 -6.79531 0
M  V30 24722 H 2572.4 1.2638 -4.50717 0
M  V30 24723 H 2572.58 1.5049 -6.30283 0
M  V30 24724 N 2565.98 1.46745 0.574784 0
M  V30 24725 C 2566.93 1.57908 1.68326 0
M  V30 24726 C 2567.9 0.422955 1.60625 0
M  V30 24727 O 2569.08 0.640742 1.7972 0
M  V30 24728 C 2566.22 1.5828 3.06662 0
M  V30 24729 C 2565.34 2.84683 3.2493 0
M  V30 24730 C 2564.47 2.76507 4.53561 0
M  V30 24731 C 2563.51 3.97814 4.652 0
M  V30 24732 N 2562.65 3.87977 5.85165 0
M  V30 24733 H 2567.49 2.52589 1.58122 0
M  V30 24734 H 2565.02 1.25305 0.77053 0
M  V30 24735 H 2566.98 1.5648 3.86743 0
M  V30 24736 H 2565.61 0.671249 3.15744 0
M  V30 24737 H 2564.66 2.96428 2.384 0
M  V30 24738 H 2565.98 3.74566 3.29397 0
M  V30 24739 H 2565.13 2.72857 5.4188 0
M  V30 24740 H 2563.87 1.84278 4.51545 0
M  V30 24741 H 2562.87 4.01787 3.75296 0
M  V30 24742 H 2564.1 4.91148 4.68988 0
M  V30 24743 H 2562.05 2.9854 5.84132 0
M  V30 24744 H 2561.96 4.71521 5.90935 0
M  V30 24745 H 2563.23 3.88315 6.75893 0
M  V30 24746 N 2567.46 -0.820078 1.34583 0
M  V30 24747 C 2568.68 -1.6133 1.30336 0
M  V30 24748 C 2569.11 -1.87721 -0.119306 0
M  V30 24749 O 2568.47 -1.45477 -1.08194 0
M  V30 24750 C 2568.52 -2.92953 2.10263 0
M  V30 24751 O 2567.62 -3.85154 1.4741 0
M  V30 24752 H 2566.96 -0.490553 0.447497 0
M  V30 24753 H 2569.49 -1.01886 1.77427 0
M  V30 24754 H 2569.5 -3.42495 2.21724 0
M  V30 24755 H 2568.18 -2.73069 3.13698 0
M  V30 24756 H 2566.75 -3.43677 1.44709 0
M  V30 24757 N 2568.94 -1.18359 -1.04062 0
M  V30 24758 C 2570.18 -0.978978 -1.77263 0
M  V30 24759 C 2570.51 0.491395 -1.8819 0
M  V30 24760 O 2569.77 1.38106 -1.38655 0
M  V30 24761 C 2570.07 -1.57894 -3.20631 0
M  V30 24762 C 2569.73 -3.07545 -3.29738 0
M  V30 24763 C 2568.39 -3.4839 -3.31931 0
M  V30 24764 C 2570.75 -4.03558 -3.29834 0
M  V30 24765 C 2568.07 -4.83823 -3.31861 0
M  V30 24766 C 2570.43 -5.38907 -3.31304 0
M  V30 24767 C 2569.09 -5.792 -3.31789 0
M  V30 24768 H 2568.36 -0.358233 -0.648652 0
M  V30 24769 H 2571.01 -1.47424 -1.22223 0
M  V30 24770 H 2569.31 -1.00568 -3.78673 0
M  V30 24771 H 2571.01 -1.39604 -3.75914 0
M  V30 24772 H 2567.6 -2.74991 -3.28752 0
M  V30 24773 H 2571.78 -3.73053 -3.27331 0
M  V30 24774 H 2567.04 -5.14339 -3.30553 0
M  V30 24775 H 2571.21 -6.13072 -3.30327 0
M  V30 24776 H 2568.84 -6.8412 -3.31488 0
M  V30 24777 N 2570.42 1.22976 -0.98563 0
M  V30 24778 C 2571.66 1.93262 -0.665521 0
M  V30 24779 C 2572.02 1.75128 0.787029 0
M  V30 24780 O 2573.22 2.3961 1.21821 0
M  V30 24781 C 2571.49 3.4158 -1.05156 0
M  V30 24782 S 2573.05 4.30514 -0.848712 0
M  V30 24783 H 2569.87 0.667981 -0.243562 0
M  V30 24784 H 2572.47 1.4894 -1.26638 0
M  V30 24785 H 2571.17 3.5229 -2.10524 0
M  V30 24786 H 2570.71 3.90907 -0.442202 0
M  V30 24787 H 2572.72 4.95494 0.26463 0
M  V30 24788 N 2571.89 0.757924 1.38178 0
M  V30 24789 C 2573.12 0.326499 2.04004 0
M  V30 24790 C 2573.53 -1.05153 1.57288 0
M  V30 24791 O 2572.87 -1.67996 0.743174 0
M  V30 24792 C 2572.94 0.275465 3.58443 0
M  V30 24793 C 2572.6 1.59577 4.28234 0
M  V30 24794 C 2573.6 2.54574 4.53308 0
M  V30 24795 C 2571.28 1.8664 4.66338 0
M  V30 24796 C 2573.28 3.74851 5.15525 0
M  V30 24797 C 2570.96 3.0719 5.28278 0
M  V30 24798 C 2571.96 4.01115 5.52807 0
M  V30 24799 O 2571.65 5.19545 6.13456 0
M  V30 24800 H 2571.38 0.136751 0.662024 0
M  V30 24801 H 2573.94 1.02896 1.77768 0
M  V30 24802 H 2572.17 -0.483269 3.83668 0
M  V30 24803 H 2573.85 -0.127027 4.05701 0
M  V30 24804 H 2574.62 2.34944 4.24295 0
M  V30 24805 H 2570.5 1.14366 4.46589 0
M  V30 24806 H 2574.04 4.48178 5.34586 0
M  V30 24807 H 2569.94 3.26711 5.56714 0
M  V30 24808 H 2570.71 5.20184 6.31942 0
M  V30 24809 N 2573.37 -1.4921 0.507345 0
M  V30 24810 C 2574.79 -1.58758 0.16371 0
M  V30 24811 C 2574.99 -1.5119 -1.33206 0
M  V30 24812 O 2574.04 -1.38915 -2.10853 0
M  V30 24813 C 2575.36 -2.91296 0.746146 0
M  V30 24814 C 2576.91 -3.04775 0.712826 0
M  V30 24815 C 2577.38 -4.3994 1.27344 0
M  V30 24816 N 2578.87 -4.46449 1.23441 0
M  V30 24817 C 2579.61 -5.49497 1.63831 0
M  V30 24818 N 2579.1 -6.59617 2.11843 0
M  V30 24819 N 2580.9 -5.40247 1.55208 0
M  V30 24820 H 2573.05 -1.52372 1.47974 0
M  V30 24821 H 2575.31 -0.722158 0.61416 0
M  V30 24822 H 2575.02 -3.02421 1.7954 0
M  V30 24823 H 2574.89 -3.76614 0.210203 0
M  V30 24824 H 2577.28 -2.93276 -0.327604 0
M  V30 24825 H 2577.36 -2.21124 1.28599 0
M  V30 24826 H 2577 -4.52192 2.31268 0
M  V30 24827 H 2576.93 -5.22241 0.676157 0
M  V30 24828 H 2579.42 -3.67447 0.882692 0
M  V30 24829 H 2579.74 -7.34354 2.40716 0
M  V30 24830 H 2578.08 -6.60641 2.15822 0
M  V30 24831 H 2581.27 -4.5311 1.17513 0
M  V30 24832 H 2581.44 -6.20429 1.87008 0
M  V30 24833 N 2574.85 -0.241454 -1.55739 0
M  V30 24834 C 2576.08 0.392076 -2.0366 0
M  V30 24835 C 2576.5 1.51142 -1.11971 0
M  V30 24836 O 2575.86 1.80956 -0.111626 0
M  V30 24837 C 2575.91 0.882309 -3.49639 0
M  V30 24838 O 2575.01 1.99229 -3.61084 0
M  V30 24839 H 2574.35 0.0862006 -0.658381 0
M  V30 24840 H 2576.88 -0.365917 -2.01301 0
M  V30 24841 H 2576.89 1.18695 -3.90353 0
M  V30 24842 H 2575.57 0.063163 -4.15852 0
M  V30 24843 H 2574.14 1.69276 -3.32265 0
M  V30 24844 N 2576.33 1.57568 0.0317248 0
M  V30 24845 C 2577.56 1.93127 0.73385 0
M  V30 24846 C 2577.97 0.839382 1.69561 0
M  V30 24847 O 2577.31 -0.193143 1.82682 0
M  V30 24848 C 2577.37 3.24468 1.54792 0
M  V30 24849 C 2577.04 4.50783 0.751225 0
M  V30 24850 C 2578.03 5.19873 0.0526719 0
M  V30 24851 C 2575.72 4.97306 0.706552 0
M  V30 24852 C 2577.71 6.33764 -0.679885 0
M  V30 24853 C 2575.4 6.11093 -0.0297524 0
M  V30 24854 C 2576.4 6.79176 -0.721733 0
M  V30 24855 O 2576.08 7.90787 -1.44609 0
M  V30 24856 H 2575.82 0.642079 0.211448 0
M  V30 24857 H 2578.37 2.05399 -0.00589225 0
M  V30 24858 H 2576.6 3.08516 2.33142 0
M  V30 24859 H 2578.29 3.45374 2.13241 0
M  V30 24860 H 2579.06 4.84937 0.0782335 0
M  V30 24861 H 2574.93 4.44159 1.23466 0
M  V30 24862 H 2578.48 6.86839 -1.22055 0
M  V30 24863 H 2574.38 6.45475 -0.0572465 0
M  V30 24864 H 2575.14 8.07131 -1.35949 0
M  V30 24865 N 2577.81 -0.303946 1.54641 0
M  V30 24866 C 2578.75 -1.39481 1.86139 0
M  V30 24867 C 2579.75 -1.5263 0.734881 0
M  V30 24868 O 2580.95 -1.54782 0.918831 0
M  V30 24869 H 2577.33 -0.465846 0.590332 0
M  V30 24870 H 2579.3 -1.10149 2.77326 0
M  V30 24871 C 2578.05 -2.75378 2.12279 0
M  V30 24872 H 2577.37 -2.6604 2.98433 0
M  V30 24873 H 2578.81 -3.50725 2.3826 0
M  V30 24874 C 2577.27 -3.24083 0.920422 0
M  V30 24875 O 2577.8 -4.01458 0.139448 0
M  V30 24876 N 2576.01 -2.81369 0.726616 0
M  V30 24877 H 2575.55 -2.18564 1.36336 0
M  V30 24878 H 2575.51 -3.14307 -0.0763246 0
M  V30 24879 N 2579.28 -1.47047 -0.566994 0
M  V30 24880 C 2580.53 -1.52867 -1.32198 0
M  V30 24881 C 2580.85 -0.188422 -1.94088 0
M  V30 24882 O 2580.12 0.786661 -1.79411 0
M  V30 24883 H 2578.7 -0.563065 -0.490884 0
M  V30 24884 H 2581.37 -1.83282 -0.662847 0
M  V30 24885 H 2580.46 -2.28993 -2.12058 0
M  V30 24886 N 2580.76 0.812929 -1.35016 0
M  V30 24887 C 2581.99 1.60118 -1.31034 0
M  V30 24888 C 2582.41 1.88458 0.113525 0
M  V30 24889 O 2581.76 1.48303 1.0636 0
M  V30 24890 C 2581.81 2.93621 -2.10877 0
M  V30 24891 O 2581.53 2.66512 -3.47711 0
M  V30 24892 C 2583.04 3.88 -2.14407 0
M  V30 24893 H 2580.26 0.497393 -0.450379 0
M  V30 24894 H 2582.8 1.01072 -1.77777 0
M  V30 24895 H 2580.95 3.49197 -1.6775 0
M  V30 24896 H 2581.37 3.51708 -3.89103 0
M  V30 24897 H 2582.84 4.78807 -2.74677 0
M  V30 24898 H 2583.32 4.24117 -1.14112 0
M  V30 24899 H 2583.93 3.3836 -2.57668 0
M  V30 24900 N 2582.24 1.18909 1.03433 0
M  V30 24901 C 2583.47 1.01345 1.8038 0
M  V30 24902 C 2583.88 -0.437973 1.8365 0
M  V30 24903 O 2583.24 -1.30422 1.27657 0
M  V30 24904 C 2583.29 1.56879 3.25686 0
M  V30 24905 O 2583.01 2.96339 3.22668 0
M  V30 24906 C 2584.51 1.44022 4.19253 0
M  V30 24907 H 2581.73 0.3575 0.567833 0
M  V30 24908 H 2584.28 1.57602 1.30315 0
M  V30 24909 H 2582.43 1.04783 3.7296 0
M  V30 24910 H 2582.85 3.22362 4.13742 0
M  V30 24911 H 2584.32 1.87666 5.1912 0
M  V30 24912 H 2584.8 0.389892 4.37466 0
M  V30 24913 H 2585.4 1.95221 3.77848 0
M  V30 24914 N 2583.72 -1.22452 0.992137 0
M  V30 24915 C 2584.96 -1.92906 0.675761 0
M  V30 24916 C 2585.32 -1.75543 -0.777731 0
M  V30 24917 O 2586.52 -2.40253 -1.20549 0
M  V30 24918 C 2584.79 -3.41018 1.06966 0
M  V30 24919 S 2586.35 -4.30058 0.871532 0
M  V30 24920 H 2583.17 -0.66668 0.247101 0
M  V30 24921 H 2585.77 -1.48267 1.27426 0
M  V30 24922 H 2584.48 -3.51168 2.12389 0
M  V30 24923 H 2584.01 -3.90667 0.462927 0
M  V30 24924 H 2586.02 -4.95627 -0.238349 0
M  V30 24925 N 2585.2 -0.765242 -1.37774 0
M  V30 24926 C 2586.11 -0.147707 -2.34135 0
M  V30 24927 C 2587.12 0.687187 -1.59855 0
M  V30 24928 O 2588.3 0.608626 -1.91984 0
M  V30 24929 C 2585.36 0.726111 -3.39011 0
M  V30 24930 C 2584.42 -0.124492 -4.29119 0
M  V30 24931 C 2583.66 0.707715 -5.28987 0
M  V30 24932 O 2583.88 1.94515 -5.36209 0
M  V30 24933 O 2582.81 0.120354 -6.0178 0
M  V30 24934 H 2586.64 -0.943808 -2.88662 0
M  V30 24935 H 2584.23 -0.526302 -1.39823 0
M  V30 24936 H 2586.11 1.22517 -4.03197 0
M  V30 24937 H 2584.78 1.50051 -2.86821 0
M  V30 24938 H 2583.69 -0.669761 -3.68056 0
M  V30 24939 H 2585.02 -0.861821 -4.84596 0
M  V30 24940 N 2586.67 1.48939 -0.515251 0
M  V30 24941 C 2587.62 2.31038 0.269074 0
M  V30 24942 C 2588.62 1.40294 0.949419 0
M  V30 24943 O 2589.82 1.57275 0.875482 0
M  V30 24944 H 2586.2 0.744543 0.105637 0
M  V30 24945 H 2588.17 2.95091 -0.443148 0
M  V30 24946 C 2586.92 3.21994 1.31207 0
M  V30 24947 H 2586.24 3.91756 0.797966 0
M  V30 24948 H 2587.68 3.82352 1.83257 0
M  V30 24949 C 2586.14 2.4258 2.33787 0
M  V30 24950 O 2586.67 2.14009 3.39946 0
M  V30 24951 N 2584.88 2.04343 2.06621 0
M  V30 24952 H 2584.42 2.27779 1.2031 0
M  V30 24953 H 2584.38 1.51519 2.7548 0
M  V30 24954 N 2588.15 0.249709 1.55609 0
M  V30 24955 C 2589.06 -0.659335 2.25144 0
M  V30 24956 C 2590.08 -1.19099 1.26852 0
M  V30 24957 O 2591.26 -1.22666 1.59734 0
M  V30 24958 C 2588.32 -1.83834 2.93949 0
M  V30 24959 C 2587.38 -1.34589 4.07657 0
M  V30 24960 C 2586.61 -2.4687 4.73171 0
M  V30 24961 O 2586.84 -3.65663 4.37775 0
M  V30 24962 O 2585.77 -2.16469 5.61627 0
M  V30 24963 H 2589.6 -0.0968165 3.03546 0
M  V30 24964 H 2587.18 0.0181003 1.49389 0
M  V30 24965 H 2589.06 -2.52632 3.37276 0
M  V30 24966 H 2587.74 -2.38843 2.18485 0
M  V30 24967 H 2586.65 -0.625109 3.6884 0
M  V30 24968 H 2587.98 -0.841855 4.84947 0
M  V30 24969 N 2589.63 -1.57583 -0.0233682 0
M  V30 24970 C 2590.56 -2.09966 -1.02159 0
M  V30 24971 C 2591.54 -1.00347 -1.37348 0
M  V30 24972 O 2592.73 -1.27902 -1.46133 0
M  V30 24973 C 2589.86 -2.58375 -2.32077 0
M  V30 24974 C 2588.81 -3.72311 -2.11113 0
M  V30 24975 C 2588.14 -4.06947 -3.46841 0
M  V30 24976 C 2589.44 -5.00516 -1.49267 0
M  V30 24977 H 2591.13 -2.93619 -0.585506 0
M  V30 24978 H 2588.68 -1.41248 -0.280194 0
M  V30 24979 H 2590.63 -2.93644 -3.02243 0
M  V30 24980 H 2589.35 -1.71813 -2.77755 0
M  V30 24981 H 2588.01 -3.37399 -1.43378 0
M  V30 24982 H 2587.66 -3.17442 -3.90179 0
M  V30 24983 H 2587.36 -4.83694 -3.33638 0
M  V30 24984 H 2588.89 -4.44755 -4.18361 0
M  V30 24985 H 2590.3 -5.33706 -2.09359 0
M  V30 24986 H 2588.7 -5.81912 -1.46622 0
M  V30 24987 H 2589.77 -4.82721 -0.459132 0
M  V30 24988 N 2591.11 0.29574 -1.548 0
M  V30 24989 C 2592.52 0.868382 -1.65276 0
M  V30 24990 C 2592.87 1.87893 -0.564844 0
M  V30 24991 O 2592 2.14343 0.297632 0
M  V30 24992 C 2592.59 1.58183 -2.99606 0
M  V30 24993 C 2591.15 2.1028 -3.12184 0
M  V30 24994 C 2590.3 0.937224 -2.60982 0
M  V30 24995 H 2593.25 0.0726144 -1.58534 0
M  V30 24996 H 2593.27 2.44767 -2.91323 0
M  V30 24997 H 2592.78 0.846085 -3.78765 0
M  V30 24998 H 2590.88 2.86885 -2.37755 0
M  V30 24999 H 2591 2.33372 -4.18419 0
M  V30 25000 H 2589.36 1.32427 -2.17567 0
M  V30 25001 H 2590.14 0.215354 -3.42624 0
M  V30 25002 N 2592.59 1.47346 0.559187 0
M  V30 25003 C 2593.83 1.53869 1.31645 0
M  V30 25004 C 2594.16 0.200138 1.93468 0
M  V30 25005 O 2593.42 -0.806767 1.78297 0
M  V30 25006 C 2593.72 2.60354 2.44848 0
M  V30 25007 C 2593.38 4.03686 2.00869 0
M  V30 25008 C 2592.04 4.42704 1.88591 0
M  V30 25009 C 2594.4 4.93629 1.67271 0
M  V30 25010 C 2591.72 5.69503 1.41007 0
M  V30 25011 C 2594.08 6.20889 1.21159 0
M  V30 25012 C 2592.74 6.58791 1.07475 0
M  V30 25013 H 2592.01 0.563048 0.481724 0
M  V30 25014 H 2594.66 1.80935 0.627269 0
M  V30 25015 H 2592.96 2.27037 3.19314 0
M  V30 25016 H 2594.66 2.62624 3.03034 0
M  V30 25017 H 2591.25 3.72856 2.11367 0
M  V30 25018 H 2595.43 4.64185 1.7563 0
M  V30 25019 H 2590.69 5.9762 1.29076 0
M  V30 25020 H 2594.86 6.89996 0.942223 0
M  V30 25021 H 2592.49 7.56935 0.703813 0
M  V30 25022 N 2594.07 -0.805758 1.35445 0
M  V30 25023 C 2595.01 -1.93904 1.28468 0
M  V30 25024 C 2596.01 -1.68447 0.179459 0
M  V30 25025 O 2597.21 -1.76653 0.34549 0
M  V30 25026 H 2593.59 -0.637081 0.399539 0
M  V30 25027 H 2595.56 -1.96908 2.24209 0
M  V30 25028 C 2594.31 -3.30685 1.07438 0
M  V30 25029 H 2593.63 -3.50831 1.91722 0
M  V30 25030 H 2595.07 -4.10381 1.06598 0
M  V30 25031 C 2593.53 -3.3617 -0.221731 0
M  V30 25032 O 2594.06 -3.82813 -1.21724 0
M  V30 25033 N 2592.27 -2.89427 -0.26079 0
M  V30 25034 H 2591.81 -2.51662 0.549928 0
M  V30 25035 H 2591.77 -2.93479 -1.12772 0
M  V30 25036 N 2595.54 -1.19456 -1.02801 0
M  V30 25037 C 2596.79 -0.999202 -1.76476 0
M  V30 25038 C 2597.12 0.468795 -1.88457 0
M  V30 25039 O 2596.4 1.34812 -1.402 0
M  V30 25040 C 2596.68 -1.66987 -3.19041 0
M  V30 25041 C 2596.53 -3.21157 -3.14926 0
M  V30 25042 C 2597.85 -1.39357 -4.17454 0
M  V30 25043 H 2594.97 -0.364404 -0.640608 0
M  V30 25044 H 2597.61 -1.47307 -1.20002 0
M  V30 25045 H 2595.76 -1.26697 -3.6726 0
M  V30 25046 H 2597.44 -3.70666 -2.74598 0
M  V30 25047 H 2595.68 -3.52656 -2.52619 0
M  V30 25048 H 2596.35 -3.6323 -4.15654 0
M  V30 25049 H 2598.83 -1.74289 -3.77839 0
M  V30 25050 H 2597.7 -1.88832 -5.15397 0
M  V30 25051 H 2597.96 -0.318891 -4.40948 0
M  V30 25052 N 2597.02 1.21924 -0.998617 0
M  V30 25053 C 2598.25 1.94831 -0.69632 0
M  V30 25054 C 2598.66 1.73693 0.740001 0
M  V30 25055 O 2598.02 1.03956 1.49998 0
M  V30 25056 C 2598.07 3.47397 -0.999894 0
M  V30 25057 O 2597.79 3.67829 -2.37978 0
M  V30 25058 C 2599.29 4.37478 -0.716102 0
M  V30 25059 H 2596.51 0.619782 -0.257122 0
M  V30 25060 H 2599.06 1.54918 -1.33494 0
M  V30 25061 H 2597.21 3.85256 -0.406986 0
M  V30 25062 H 2597.63 4.61979 -2.48346 0
M  V30 25063 H 2599.1 5.43254 -0.978737 0
M  V30 25064 H 2599.58 4.37804 0.349891 0
M  V30 25065 H 2600.18 4.05254 -1.29032 0
M  V30 25066 N 2598.5 0.772537 1.37367 0
M  V30 25067 C 2599.45 0.157528 2.30262 0
M  V30 25068 C 2600.42 -0.688939 1.51138 0
M  V30 25069 O 2601.6 -0.641137 1.79706 0
M  V30 25070 C 2598.74 -0.714986 3.37612 0
M  V30 25071 C 2597.85 0.148174 4.31746 0
M  V30 25072 C 2596.99 -0.72912 5.26172 0
M  V30 25073 C 2596.03 0.136525 6.11948 0
M  V30 25074 N 2595.17 -0.698791 6.98614 0
M  V30 25075 H 2600.01 0.955228 2.82275 0
M  V30 25076 H 2597.54 0.482656 1.38956 0
M  V30 25077 H 2599.5 -1.23568 3.98481 0
M  V30 25078 H 2598.13 -1.47828 2.86961 0
M  V30 25079 H 2597.18 0.786679 3.72177 0
M  V30 25080 H 2598.49 0.815877 4.92082 0
M  V30 25081 H 2597.65 -1.31626 5.92249 0
M  V30 25082 H 2596.39 -1.4305 4.66249 0
M  V30 25083 H 2595.39 0.736198 5.44849 0
M  V30 25084 H 2596.62 0.835252 6.73944 0
M  V30 25085 H 2594.56 -1.38477 6.41218 0
M  V30 25086 H 2594.48 -0.0884029 7.55948 0
M  V30 25087 H 2595.75 -1.2703 7.6908 0
M  V30 25088 N 2599.98 -1.48664 0.523142 0
M  V30 25089 C 2601.39 -1.58576 0.180539 0
M  V30 25090 C 2601.59 -1.52595 -1.31595 0
M  V30 25091 O 2600.65 -1.41143 -2.09368 0
M  V30 25092 C 2601.96 -2.90488 0.777 0
M  V30 25093 C 2603.51 -3.04002 0.745111 0
M  V30 25094 C 2603.99 -4.38565 1.32003 0
M  V30 25095 N 2605.48 -4.45114 1.28169 0
M  V30 25096 C 2606.21 -5.47728 1.6965 0
M  V30 25097 N 2605.71 -6.57333 2.18828 0
M  V30 25098 N 2607.5 -5.38571 1.60929 0
M  V30 25099 H 2599.65 -1.50794 1.49582 0
M  V30 25100 H 2601.91 -0.715603 0.621785 0
M  V30 25101 H 2601.62 -3.005 1.82737 0
M  V30 25102 H 2601.49 -3.7637 0.250136 0
M  V30 25103 H 2603.88 -2.93607 -0.29648 0
M  V30 25104 H 2603.96 -2.19748 1.30937 0
M  V30 25105 H 2603.61 -4.49714 2.36051 0
M  V30 25106 H 2603.54 -5.21494 0.73151 0
M  V30 25107 H 2606.03 -3.6649 0.921615 0
M  V30 25108 H 2606.34 -7.31759 2.48491 0
M  V30 25109 H 2604.69 -6.58314 2.22817 0
M  V30 25110 H 2607.88 -4.51838 1.22312 0
M  V30 25111 H 2608.05 -6.18411 1.93578 0
M  V30 25112 N 2601.46 -0.257958 -1.55475 0
M  V30 25113 C 2602.39 0.677823 -2.17901 0
M  V30 25114 C 2603.37 1.16481 -1.1345 0
M  V30 25115 O 2604.55 1.24093 -1.41892 0
M  V30 25116 C 2601.68 1.92244 -2.78855 0
M  V30 25117 C 2600.72 1.57239 -3.96457 0
M  V30 25118 S 2601.56 0.665408 -5.3135 0
M  V30 25119 C 2602.71 1.91878 -5.95763 0
M  V30 25120 H 2602.95 0.147344 -2.96935 0
M  V30 25121 H 2600.48 -0.0423295 -1.54342 0
M  V30 25122 H 2602.44 2.63691 -3.14606 0
M  V30 25123 H 2601.1 2.42405 -1.99746 0
M  V30 25124 H 2600.29 2.49807 -4.37736 0
M  V30 25125 H 2599.89 0.938262 -3.6204 0
M  V30 25126 H 2602.18 2.86477 -6.13952 0
M  V30 25127 H 2603.13 1.5493 -6.90943 0
M  V30 25128 H 2603.54 2.07591 -5.24944 0
M  V30 25129 N 2602.93 1.57593 0.0150108 0
M  V30 25130 C 2604.17 1.9176 0.707647 0
M  V30 25131 C 2604.54 0.858004 1.71762 0
M  V30 25132 O 2605.74 1.08444 2.45954 0
M  V30 25133 C 2604.01 3.31033 1.3473 0
M  V30 25134 S 2605.57 3.87059 2.06714 0
M  V30 25135 H 2602.39 0.671353 0.234107 0
M  V30 25136 H 2604.99 1.95463 -0.0380716 0
M  V30 25137 H 2603.69 4.06002 0.599188 0
M  V30 25138 H 2603.22 3.30667 2.13127 0
M  V30 25139 H 2605.24 3.66921 3.34041 0
M  V30 25140 N 2604.41 -0.287527 1.54955 0
M  V30 25141 C 2605.65 -1.02884 1.76619 0
M  V30 25142 C 2606.02 -1.8402 0.547792 0
M  V30 25143 O 2607.22 -2.61011 0.642411 0
M  V30 25144 C 2605.49 -1.89988 3.0272 0
M  V30 25145 S 2607.05 -2.70582 3.45443 0
M  V30 25146 H 2603.87 -0.346764 0.620706 0
M  V30 25147 H 2606.47 -0.300786 1.93172 0
M  V30 25148 H 2605.17 -1.29281 3.89506 0
M  V30 25149 H 2604.7 -2.67138 2.88792 0
M  V30 25150 H 2606.72 -3.92502 3.03573 0
M  V30 25151 N 2605.89 -1.47641 -0.551365 0
M  V30 25152 C 2607.13 -1.56148 -1.31899 0
M  V30 25153 C 2607.49 -0.221046 -1.90723 0
M  V30 25154 O 2608.7 -0.180992 -2.6819 0
M  V30 25155 C 2606.97 -2.65271 -2.39512 0
M  V30 25156 S 2608.53 -2.93401 -3.26284 0
M  V30 25157 H 2605.34 -0.551326 -0.448956 0
M  V30 25158 H 2607.95 -1.85052 -0.630567 0
M  V30 25159 H 2606.65 -3.61254 -1.94741 0
M  V30 25160 H 2606.18 -2.38201 -3.13088 0
M  V30 25161 H 2608.2 -2.31062 -4.39118 0
M  V30 25162 N 2607.37 0.798563 -1.3587 0
M  V30 25163 C 2608.6 1.58719 -1.32725 0
M  V30 25164 C 2609.01 1.88568 0.09353 0
M  V30 25165 O 2608.37 1.49423 1.04781 0
M  V30 25166 C 2608.42 2.91367 -2.1398 0
M  V30 25167 O 2608.14 2.62809 -3.50518 0
M  V30 25168 C 2609.64 3.85705 -2.18511 0
M  V30 25169 H 2606.86 0.492588 -0.455629 0
M  V30 25170 H 2609.41 0.991812 -1.78839 0
M  V30 25171 H 2607.56 3.47399 -1.71444 0
M  V30 25172 H 2607.97 3.47562 -3.92812 0
M  V30 25173 H 2609.45 4.75867 -2.7974 0
M  V30 25174 H 2609.93 4.22883 -1.18604 0
M  V30 25175 H 2610.53 3.35608 -2.61242 0
M  V30 25176 N 2608.85 1.19999 1.02166 0
M  V30 25177 C 2610.08 1.03103 1.79035 0
M  V30 25178 C 2610.48 -0.423045 1.8441 0
M  V30 25179 O 2609.83 -1.30557 1.29231 0
M  V30 25180 C 2609.89 1.53287 3.25182 0
M  V30 25181 C 2609.55 3.01509 3.43425 0
M  V30 25182 C 2610.55 3.99211 3.33056 0
M  V30 25183 C 2608.24 3.40359 3.69406 0
M  V30 25184 C 2610.23 5.33755 3.48403 0
M  V30 25185 C 2607.92 4.7506 3.84398 0
M  V30 25186 C 2608.91 5.71566 3.739 0
M  V30 25187 O 2608.6 7.03825 3.8844 0
M  V30 25188 H 2608.33 0.363366 0.570036 0
M  V30 25189 H 2610.89 1.59416 1.29521 0
M  V30 25190 H 2609.12 0.913549 3.75754 0
M  V30 25191 H 2610.81 1.32487 3.83669 0
M  V30 25192 H 2611.57 3.70542 3.12927 0
M  V30 25193 H 2607.45 2.65788 3.76666 0
M  V30 25194 H 2611 6.09065 3.40126 0
M  V30 25195 H 2606.89 5.03422 4.04026 0
M  V30 25196 H 2607.66 7.11001 4.05488 0
M  V30 25197 N 2610.32 -1.21392 1.00507 0
M  V30 25198 C 2611.27 -2.25791 0.558663 0
M  V30 25199 C 2612.27 -1.64687 -0.396819 0
M  V30 25200 O 2613.47 -1.77994 -0.268004 0
M  V30 25201 H 2609.85 -0.734274 0.162313 0
M  V30 25202 H 2611.82 -2.60783 1.45034 0
M  V30 25203 C 2610.57 -3.47559 -0.0988963 0
M  V30 25204 H 2609.89 -3.94848 0.627295 0
M  V30 25205 H 2611.33 -4.22343 -0.374526 0
M  V30 25206 C 2609.79 -3.09186 -1.33811 0
M  V30 25207 O 2610.32 -3.19678 -2.43246 0
M  V30 25208 N 2608.53 -2.63848 -1.21789 0
M  V30 25209 H 2608.07 -2.55511 -0.327415 0
M  V30 25210 H 2608.03 -2.38542 -2.04805 0
M  V30 25211 N 2611.8 -0.779811 -1.36955 0
M  V30 25212 C 2613.05 -0.348316 -1.99786 0
M  V30 25213 C 2613.38 1.07462 -1.61758 0
M  V30 25214 O 2612.66 1.74074 -0.867669 0
M  V30 25215 C 2612.94 -0.501102 -3.56596 0
M  V30 25216 C 2612.79 -1.96704 -4.04509 0
M  V30 25217 C 2614.11 0.0897324 -4.40009 0
M  V30 25218 H 2611.23 -0.128034 -0.725794 0
M  V30 25219 H 2613.87 -0.98436 -1.62513 0
M  V30 25220 H 2612.02 0.0403664 -3.88479 0
M  V30 25221 H 2613.69 -2.56883 -3.83156 0
M  V30 25222 H 2611.94 -2.47303 -3.56404 0
M  V30 25223 H 2612.61 -2.02495 -5.13517 0
M  V30 25224 H 2615.08 -0.372366 -4.14431 0
M  V30 25225 H 2613.96 -0.047257 -5.4888 0
M  V30 25226 H 2614.22 1.18088 -4.26037 0
M  V30 25227 N 2613.28 1.48384 -0.531019 0
M  V30 25228 C 2614.53 2.021 0.00269637 0
M  V30 25229 C 2614.85 1.41029 1.34669 0
M  V30 25230 O 2614.12 0.576045 1.87239 0
M  V30 25231 H 2612.7 0.746989 0.00398461 0
M  V30 25232 H 2615.36 1.82084 -0.695086 0
M  V30 25233 H 2614.46 3.11905 0.110255 0
M  V30 25234 N 2614.76 0.2662 1.55336 0
M  V30 25235 C 2615.71 -0.625126 2.22173 0
M  V30 25236 C 2616.68 -1.15661 1.19213 0
M  V30 25237 O 2617.86 -1.20755 1.47726 0
M  V30 25238 C 2615 -1.80755 2.93975 0
M  V30 25239 C 2614.11 -1.31077 4.11634 0
M  V30 25240 C 2613.25 -2.45428 4.71104 0
M  V30 25241 C 2612.29 -1.92708 5.80973 0
M  V30 25242 N 2611.42 -3.00498 6.34543 0
M  V30 25243 H 2616.26 -0.0485058 2.97961 0
M  V30 25244 H 2613.8 -0.0121766 1.47095 0
M  V30 25245 H 2615.76 -2.50245 3.33816 0
M  V30 25246 H 2614.39 -2.35634 2.20627 0
M  V30 25247 H 2613.44 -0.509259 3.76976 0
M  V30 25248 H 2614.75 -0.884547 4.90894 0
M  V30 25249 H 2613.91 -3.22927 5.13617 0
M  V30 25250 H 2612.65 -2.91361 3.91101 0
M  V30 25251 H 2611.65 -1.13685 5.37918 0
M  V30 25252 H 2612.88 -1.47721 6.62839 0
M  V30 25253 H 2610.82 -3.4583 5.57439 0
M  V30 25254 H 2610.74 -2.62266 7.0905 0
M  V30 25255 H 2612.01 -3.77999 6.81716 0
M  V30 25256 N 2616.24 -1.57599 -0.0066531 0
M  V30 25257 C 2617.2 -2.06955 -0.984999 0
M  V30 25258 C 2618.2 -0.97771 -1.27662 0
M  V30 25259 O 2619.39 -1.24059 -1.22291 0
M  V30 25260 C 2616.52 -2.5054 -2.31176 0
M  V30 25261 H 2617.71 -2.94659 -0.558203 0
M  V30 25262 H 2615.27 -1.54223 -0.253984 0
M  V30 25263 H 2616 -1.66059 -2.78558 0
M  V30 25264 H 2615.79 -3.30274 -2.11333 0
M  V30 25265 H 2617.28 -2.89075 -3.01372 0
M  V30 25266 N 2617.72 0.279305 -1.55105 0
M  V30 25267 C 2618.96 1.00918 -1.76599 0
M  V30 25268 C 2619.32 1.84165 -0.556863 0
M  V30 25269 O 2618.61 1.86228 0.45054 0
M  V30 25270 C 2618.8 1.92914 -3.00864 0
M  V30 25271 C 2618.63 1.1872 -4.33746 0
M  V30 25272 C 2617.4 0.905458 -4.97121 0
M  V30 25273 C 2619.6 0.580767 -5.1101 0
M  V30 25274 N 2617.58 0.136061 -6.13749 0
M  V30 25275 C 2618.95 -0.0547751 -6.19976 0
M  V30 25276 C 2621.01 0.48798 -4.95503 0
M  V30 25277 C 2619.71 -0.774153 -7.15122 0
M  V30 25278 C 2621.74 -0.217792 -5.90999 0
M  V30 25279 C 2621.1 -0.842098 -6.99348 0
M  V30 25280 H 2617.2 0.351481 -0.698559 0
M  V30 25281 H 2619.78 0.285497 -1.92595 0
M  V30 25282 H 2617.95 2.62514 -2.86253 0
M  V30 25283 H 2619.69 2.59215 -3.10789 0
M  V30 25284 H 2616.44 1.20913 -4.57905 0
M  V30 25285 H 2616.86 -0.235784 -6.76589 0
M  V30 25286 H 2621.51 0.956334 -4.11842 0
M  V30 25287 H 2619.22 -1.25421 -7.98308 0
M  V30 25288 H 2622.81 -0.289819 -5.81078 0
M  V30 25289 H 2621.69 -1.37952 -7.71971 0
M  V30 25290 N 2619.19 1.47931 0.543528 0
M  V30 25291 C 2620.14 1.61869 1.67037 0
M  V30 25292 C 2621.14 0.485519 1.62293 0
M  V30 25293 O 2622.34 0.663789 1.67314 0
M  V30 25294 H 2618.72 0.509662 0.552945 0
M  V30 25295 H 2620.69 2.56535 1.52421 0
M  V30 25296 C 2619.44 1.66296 3.05354 0
M  V30 25297 H 2618.76 2.52846 3.09692 0
M  V30 25298 H 2620.2 1.80095 3.83851 0
M  V30 25299 C 2618.66 0.39892 3.3453 0
M  V30 25300 O 2619.19 -0.494092 3.9865 0
M  V30 25301 N 2617.39 0.274751 2.89298 0
M  V30 25302 H 2616.94 1.0024 2.37297 0
M  V30 25303 H 2616.9 -0.570021 3.09189 0
M  V30 25304 N 2620.67 -0.791347 1.36292 0
M  V30 25305 C 2621.62 -1.9039 1.30461 0
M  V30 25306 C 2622.59 -1.6519 0.173661 0
M  V30 25307 O 2623.77 -1.87376 0.359863 0
M  V30 25308 C 2620.91 -3.27172 1.09783 0
M  V30 25309 C 2620.03 -3.64458 2.31936 0
M  V30 25310 C 2619.16 -4.90348 2.04284 0
M  V30 25311 C 2618.2 -5.20307 3.22409 0
M  V30 25312 N 2617.34 -6.37379 2.94435 0
M  V30 25313 H 2622.18 -1.9471 2.25593 0
M  V30 25314 H 2619.71 -0.952196 1.12123 0
M  V30 25315 H 2621.67 -4.06047 0.958204 0
M  V30 25316 H 2620.3 -3.2228 0.183071 0
M  V30 25317 H 2619.35 -2.80723 2.56708 0
M  V30 25318 H 2620.67 -3.82548 3.20092 0
M  V30 25319 H 2619.82 -5.77084 1.87241 0
M  V30 25320 H 2618.56 -4.74324 1.13436 0
M  V30 25321 H 2617.56 -4.32055 3.40013 0
M  V30 25322 H 2618.79 -5.38251 4.14081 0
M  V30 25323 H 2616.74 -6.22751 2.06196 0
M  V30 25324 H 2616.65 -6.55792 3.76129 0
M  V30 25325 H 2617.92 -7.27103 2.80966 0
M  V30 25326 N 2622.15 -1.2054 -1.01528 0
M  V30 25327 C 2623.56 -1.01659 -1.56596 0
M  V30 25328 C 2623.91 0.426634 -1.91505 0
M  V30 25329 O 2623.04 1.30824 -1.72377 0
M  V30 25330 C 2623.63 -1.8391 -2.84539 0
M  V30 25331 C 2622.19 -1.69392 -3.3613 0
M  V30 25332 C 2621.34 -1.81761 -2.09424 0
M  V30 25333 H 2624.29 -1.34712 -0.83895 0
M  V30 25334 H 2624.31 -1.34325 -3.56001 0
M  V30 25335 H 2623.82 -2.88944 -2.591 0
M  V30 25336 H 2621.92 -0.669997 -3.66527 0
M  V30 25337 H 2622.04 -2.50746 -4.08244 0
M  V30 25338 H 2620.4 -1.24961 -2.21939 0
M  V30 25339 H 2621.18 -2.88282 -1.86409 0
M  V30 25340 N 2623.63 1.20858 -1.01149 0
M  V30 25341 C 2624.87 1.91807 -0.706365 0
M  V30 25342 C 2625.23 1.76758 0.749705 0
M  V30 25343 O 2626.43 2.4214 1.16711 0
M  V30 25344 C 2624.7 3.39273 -1.12377 0
M  V30 25345 S 2626.26 4.28617 -0.93984 0
M  V30 25346 H 2623.08 0.662664 -0.257676 0
M  V30 25347 H 2625.68 1.46221 -1.29768 0
M  V30 25348 H 2624.39 3.47745 -2.17949 0
M  V30 25349 H 2623.92 3.89881 -0.52502 0
M  V30 25350 H 2625.93 4.95944 0.159469 0
M  V30 25351 N 2625.11 0.787064 1.3654 0
M  V30 25352 C 2626.02 0.184937 2.3387 0
M  V30 25353 C 2627.03 -0.661668 1.60928 0
M  V30 25354 O 2628.21 -0.578006 1.92928 0
M  V30 25355 C 2625.27 -0.672085 3.40123 0
M  V30 25356 C 2624.33 0.192746 4.28867 0
M  V30 25357 C 2623.57 -0.623468 5.30046 0
M  V30 25358 O 2623.79 -1.8596 5.39236 0
M  V30 25359 O 2622.72 -0.024601 6.01895 0
M  V30 25360 H 2626.55 0.989613 2.87124 0
M  V30 25361 H 2624.13 0.54848 1.38968 0
M  V30 25362 H 2626.02 -1.16087 4.05095 0
M  V30 25363 H 2624.69 -1.45469 2.89172 0
M  V30 25364 H 2623.6 0.72823 3.66944 0
M  V30 25365 H 2624.93 0.938807 4.83164 0
M  V30 25366 N 2626.58 -1.48101 0.53888 0
M  V30 25367 C 2627.99 -1.86428 0.100711 0
M  V30 25368 C 2628.35 -1.44751 -1.32445 0
M  V30 25369 O 2627.47 -0.842234 -1.99337 0
M  V30 25370 C 2628.07 -3.38343 0.175992 0
M  V30 25371 C 2626.62 -3.7583 -0.207032 0
M  V30 25372 C 2625.77 -2.72153 0.531789 0
M  V30 25373 H 2628.72 -1.39879 0.749639 0
M  V30 25374 H 2628.74 -3.75577 -0.610078 0
M  V30 25375 H 2628.26 -3.68645 1.21335 0
M  V30 25376 H 2626.36 -3.51142 -1.24619 0
M  V30 25377 H 2626.47 -4.78899 0.138772 0
M  V30 25378 H 2624.83 -2.5469 -0.0230014 0
M  V30 25379 H 2625.62 -3.05299 1.56995 0
M  V30 25380 N 2628.06 -0.274434 -1.55192 0
M  V30 25381 C 2629.3 0.343743 -2.01489 0
M  V30 25382 C 2629.67 1.53101 -1.15863 0
M  V30 25383 O 2630.87 2.21877 -1.51736 0
M  V30 25384 C 2629.14 0.716959 -3.50135 0
M  V30 25385 S 2630.7 1.32176 -4.18419 0
M  V30 25386 H 2627.51 0.106936 -0.702912 0
M  V30 25387 H 2630.12 -0.396108 -1.91445 0
M  V30 25388 H 2628.82 -0.156019 -4.10103 0
M  V30 25389 H 2628.35 1.48829 -3.64161 0
M  V30 25390 H 2630.37 2.61037 -4.21988 0
M  V30 25391 N 2629.54 1.576 -0.00170483 0
M  V30 25392 C 2630.95 1.78694 0.540879 0
M  V30 25393 C 2631.3 0.909278 1.73858 0
M  V30 25394 O 2630.43 0.112214 2.16109 0
M  V30 25395 C 2631.02 3.24074 0.988003 0
M  V30 25396 C 2629.58 3.46258 1.47588 0
M  V30 25397 C 2628.73 2.73979 0.427872 0
M  V30 25398 H 2631.68 1.57056 -0.227867 0
M  V30 25399 H 2631.7 3.3228 1.85392 0
M  V30 25400 H 2631.21 3.87926 0.116095 0
M  V30 25401 H 2629.31 2.87623 2.36863 0
M  V30 25402 H 2629.43 4.54941 1.50217 0
M  V30 25403 H 2627.79 2.38648 0.889892 0
M  V30 25404 H 2628.57 3.40532 -0.435098 0
M  V30 25405 N 2631.02 -0.271076 1.55251 0
M  V30 25406 C 2632.25 -1.02061 1.79976 0
M  V30 25407 C 2632.66 -1.79862 0.574034 0
M  V30 25408 O 2632.02 -1.76687 -0.456931 0
M  V30 25409 C 2632.07 -1.97766 3.02607 0
M  V30 25410 O 2631.79 -1.23117 4.20445 0
M  V30 25411 C 2633.29 -2.84516 3.39949 0
M  V30 25412 H 2630.51 -0.301409 0.599495 0
M  V30 25413 H 2633.05 -0.301277 2.02269 0
M  V30 25414 H 2631.21 -2.6516 2.82434 0
M  V30 25415 H 2631.62 -1.87642 4.89786 0
M  V30 25416 H 2633.1 -3.47464 4.28921 0
M  V30 25417 H 2633.57 -3.54384 2.59438 0
M  V30 25418 H 2634.18 -2.22611 3.62387 0
M  V30 25419 N 2632.5 -1.48217 -0.535675 0
M  V30 25420 C 2633.91 -1.4955 -1.11767 0
M  V30 25421 C 2634.26 -0.262104 -1.94441 0
M  V30 25422 O 2633.38 0.63125 -2.06988 0
M  V30 25423 C 2633.98 -2.70978 -2.03363 0
M  V30 25424 C 2632.54 -2.75201 -2.56791 0
M  V30 25425 C 2631.68 -2.4298 -1.33627 0
M  V30 25426 H 2634.64 -1.55415 -0.321205 0
M  V30 25427 H 2634.66 -2.49172 -2.87565 0
M  V30 25428 H 2634.17 -3.6073 -1.43163 0
M  V30 25429 H 2632.27 -1.89643 -3.20728 0
M  V30 25430 H 2632.38 -3.76477 -2.96313 0
M  V30 25431 H 2630.75 -1.94015 -1.65017 0
M  V30 25432 H 2631.53 -3.34965 -0.751881 0
M  V30 25433 N 2633.97 0.784108 -1.3671 0
M  V30 25434 C 2635.22 1.53916 -1.30975 0
M  V30 25435 C 2635.54 1.94695 0.109051 0
M  V30 25436 O 2634.81 1.65355 1.05046 0
M  V30 25437 H 2633.39 0.570833 -0.481829 0
M  V30 25438 H 2636.06 0.933971 -1.71064 0
M  V30 25439 H 2635.15 2.44428 -1.94066 0
M  V30 25440 N 2635.45 1.21076 1.00888 0
M  V30 25441 C 2636.68 1.05148 1.78189 0
M  V30 25442 C 2637.1 -0.398919 1.84537 0
M  V30 25443 O 2636.45 -1.27685 1.30395 0
M  V30 25444 C 2636.5 1.63752 3.22285 0
M  V30 25445 O 2636.22 3.03117 3.1631 0
M  V30 25446 C 2637.73 1.52882 4.16103 0
M  V30 25447 H 2634.95 0.369464 0.560123 0
M  V30 25448 H 2637.49 1.60331 1.26942 0
M  V30 25449 H 2635.64 1.12671 3.70654 0
M  V30 25450 H 2636.06 3.31066 4.06811 0
M  V30 25451 H 2637.53 1.98635 5.15022 0
M  V30 25452 H 2638.01 0.482598 4.36541 0
M  V30 25453 H 2638.62 2.03191 3.73622 0
M  V30 25454 N 2636.93 -1.2032 1.01789 0
M  V30 25455 C 2637.89 -2.21369 0.594011 0
M  V30 25456 C 2638.89 -1.57239 -0.336525 0
M  V30 25457 O 2640.08 -1.73751 -0.125038 0
M  V30 25458 C 2637.22 -3.40643 -0.132373 0
M  V30 25459 H 2638.41 -2.60384 1.48796 0
M  V30 25460 H 2635.96 -1.33805 0.807826 0
M  V30 25461 H 2636.7 -3.07132 -1.04117 0
M  V30 25462 H 2636.48 -3.88418 0.536119 0
M  V30 25463 H 2637.97 -4.1552 -0.416241 0
M  V30 25464 N 2638.41 -0.794293 -1.3612 0
M  V30 25465 C 2639.69 -0.292719 -1.93397 0
M  V30 25466 C 2640.07 1.21586 -1.72569 0
M  V30 25467 O 2639.41 2.00963 -1.08748 0
M  V30 25468 C 2639.62 -0.690674 -3.42097 0
M  V30 25469 C 2640.97 -0.673179 -4.1923 0
M  V30 25470 O 2642 -0.631451 -3.50558 0
M  V30 25471 O 2640.85 -0.720457 -5.4173 0
M  V30 25472 H 2637.95 -0.0736838 -0.823711 0
M  V30 25473 H 2640.49 -0.877165 -1.45272 0
M  V30 25474 H 2639.27 -1.73091 -3.50935 0
M  V30 25475 H 2638.89 -0.0803735 -3.97519 0
M  V30 25476 N 2639.89 1.47813 -0.546727 0
M  V30 25477 C 2641.13 2.02491 -0.0187763 0
M  V30 25478 C 2641.46 1.42217 1.32682 0
M  V30 25479 O 2640.72 0.563487 1.87412 0
M  V30 25480 C 2641.02 3.57146 0.134807 0
M  V30 25481 C 2640.68 4.36288 -1.13856 0
M  V30 25482 C 2639.34 4.57632 -1.48751 0
M  V30 25483 C 2641.7 4.82009 -1.98285 0
M  V30 25484 C 2639.02 5.21943 -2.67941 0
M  V30 25485 C 2641.38 5.47634 -3.16669 0
M  V30 25486 C 2640.04 5.67213 -3.51889 0
M  V30 25487 H 2639.31 0.740968 -0.00687072 0
M  V30 25488 H 2641.96 1.77606 -0.716128 0
M  V30 25489 H 2640.26 3.80965 0.915051 0
M  V30 25490 H 2641.96 3.97092 0.558486 0
M  V30 25491 H 2638.55 4.19948 -0.856841 0
M  V30 25492 H 2642.73 4.65307 -1.72636 0
M  V30 25493 H 2637.99 5.35297 -2.9541 0
M  V30 25494 H 2642.16 5.82027 -3.82385 0
M  V30 25495 H 2639.79 6.16818 -4.44342 0
M  V30 25496 N 2641.36 0.28266 1.55044 0
M  V30 25497 C 2642.31 -0.601526 2.22823 0
M  V30 25498 C 2643.28 -1.1439 1.20433 0
M  V30 25499 O 2644.47 -1.19181 1.48998 0
M  V30 25500 C 2641.61 -1.77627 2.95876 0
M  V30 25501 C 2640.72 -1.26703 4.13002 0
M  V30 25502 C 2639.85 -2.40418 4.7368 0
M  V30 25503 C 2638.89 -1.86535 5.82985 0
M  V30 25504 N 2638.03 -2.93751 6.37695 0
M  V30 25505 H 2642.87 -0.0169004 2.97995 0
M  V30 25506 H 2640.41 0.0034255 1.471 0
M  V30 25507 H 2642.37 -2.46691 3.36451 0
M  V30 25508 H 2641 -2.33281 2.23114 0
M  V30 25509 H 2640.05 -0.469247 3.77495 0
M  V30 25510 H 2641.36 -0.832431 4.91805 0
M  V30 25511 H 2640.51 -3.17461 5.17014 0
M  V30 25512 H 2639.25 -2.87196 3.94169 0
M  V30 25513 H 2638.26 -1.07973 5.39094 0
M  V30 25514 H 2639.48 -1.40683 6.64368 0
M  V30 25515 H 2637.43 -3.39898 5.61075 0
M  V30 25516 H 2637.35 -2.54731 7.11792 0
M  V30 25517 H 2638.61 -3.70748 6.85687 0
M  V30 25518 N 2642.84 -1.57597 0.0100627 0
M  V30 25519 C 2644.07 -1.95288 -0.683378 0
M  V30 25520 C 2644.49 -0.885511 -1.66746 0
M  V30 25521 O 2643.84 0.134597 -1.82003 0
M  V30 25522 C 2643.89 -3.33018 -1.40647 0
M  V30 25523 O 2643.61 -4.35659 -0.46184 0
M  V30 25524 C 2645.12 -3.85228 -2.19349 0
M  V30 25525 H 2642.34 -0.643627 -0.189696 0
M  V30 25526 H 2644.88 -2.04399 0.0641718 0
M  V30 25527 H 2643.03 -3.25184 -2.10556 0
M  V30 25528 H 2643.45 -5.15394 -0.973124 0
M  V30 25529 H 2644.92 -4.83998 -2.65425 0
M  V30 25530 H 2645.4 -3.18464 -3.02452 0
M  V30 25531 H 2646.01 -3.9627 -1.54435 0
M  V30 25532 N 2644.32 0.262839 -1.55393 0
M  V30 25533 C 2645.57 0.990912 -1.75681 0
M  V30 25534 C 2645.88 1.8708 -0.571003 0
M  V30 25535 O 2647.09 2.63442 -0.656532 0
M  V30 25536 C 2645.54 1.81183 -3.10968 0
M  V30 25537 C 2645.15 0.980111 -4.37147 0
M  V30 25538 C 2646.9 2.53359 -3.40602 0
M  V30 25539 C 2644.8 1.796 -5.6347 0
M  V30 25540 H 2643.73 0.373704 -0.654875 0
M  V30 25541 H 2646.38 0.246171 -1.81841 0
M  V30 25542 H 2644.77 2.59792 -2.98872 0
M  V30 25543 H 2645.94 0.237477 -4.60188 0
M  V30 25544 H 2644.26 0.372424 -4.14731 0
M  V30 25545 H 2646.85 3.14825 -4.32191 0
M  V30 25546 H 2647.2 3.24164 -2.61196 0
M  V30 25547 H 2647.73 1.81773 -3.53841 0
M  V30 25548 H 2644.47 1.13197 -6.45652 0
M  V30 25549 H 2643.99 2.51433 -5.44556 0
M  V30 25550 H 2645.67 2.36713 -6.02143 0
M  V30 25551 N 2645.8 1.48499 0.527807 0
M  V30 25552 C 2647.04 1.58226 1.29398 0
M  V30 25553 C 2647.4 0.251361 1.90348 0
M  V30 25554 O 2648.6 0.223635 2.67868 0
M  V30 25555 C 2646.87 2.69048 2.35261 0
M  V30 25556 S 2648.43 2.98555 3.21575 0
M  V30 25557 H 2645.25 0.558398 0.440128 0
M  V30 25558 H 2647.85 1.86031 0.601047 0
M  V30 25559 H 2646.56 3.64306 1.88969 0
M  V30 25560 H 2646.09 2.43151 3.09259 0
M  V30 25561 H 2648.1 2.38019 4.35387 0
M  V30 25562 N 2647.28 -0.776847 1.37123 0
M  V30 25563 C 2648.53 -1.53219 1.31789 0
M  V30 25564 C 2648.85 -1.9475 -0.0987246 0
M  V30 25565 O 2648.12 -1.6591 -1.04167 0
M  V30 25566 H 2646.7 -0.56827 0.484849 0
M  V30 25567 H 2649.36 -0.924886 1.71557 0
M  V30 25568 H 2648.45 -2.43395 1.95359 0
M  V30 25569 N 2648.76 -1.2161 -1.00244 0
M  V30 25570 C 2649.7 -0.974727 -2.11191 0
M  V30 25571 C 2650.7 0.0789006 -1.69216 0
M  V30 25572 O 2651.9 -0.0727122 -1.79853 0
M  V30 25573 H 2648.28 -0.297965 -0.69045 0
M  V30 25574 H 2650.25 -1.91642 -2.28727 0
M  V30 25575 C 2649 -0.558777 -3.43181 0
M  V30 25576 H 2648.32 -1.36116 -3.75915 0
M  V30 25577 H 2649.76 -0.429228 -4.21822 0
M  V30 25578 C 2648.22 0.73059 -3.28883 0
M  V30 25579 O 2648.75 1.78547 -3.59838 0
M  V30 25580 N 2646.96 0.698082 -2.82091 0
M  V30 25581 H 2646.5 -0.160655 -2.57099 0
M  V30 25582 H 2646.46 1.56108 -2.72906 0
M  V30 25583 N 2650.23 1.19778 -1.02425 0
M  V30 25584 C 2651.48 1.88666 -0.713298 0
M  V30 25585 C 2651.8 1.80195 0.760868 0
M  V30 25586 O 2653 2.4429 1.18469 0
M  V30 25587 C 2651.46 3.38392 -1.22551 0
M  V30 25588 C 2651.07 3.55432 -2.72713 0
M  V30 25589 C 2652.81 4.12787 -0.99033 0
M  V30 25590 C 2650.72 4.99026 -3.17375 0
M  V30 25591 H 2649.65 0.706601 -0.263117 0
M  V30 25592 H 2652.3 1.35452 -1.23795 0
M  V30 25593 H 2650.68 3.90976 -0.628801 0
M  V30 25594 H 2651.85 3.13199 -3.37999 0
M  V30 25595 H 2650.17 2.9442 -2.94458 0
M  V30 25596 H 2652.77 5.18672 -1.29935 0
M  V30 25597 H 2653.11 4.16236 0.0730029 0
M  V30 25598 H 2653.64 3.66326 -1.5508 0
M  V30 25599 H 2650.38 5.00736 -4.23018 0
M  V30 25600 H 2649.9 5.42039 -2.56814 0
M  V30 25601 H 2651.58 5.67652 -3.10451 0
M  V30 25602 N 2651.71 0.801501 1.35697 0
M  V30 25603 C 2653.12 0.441105 1.81414 0
M  V30 25604 C 2653.47 -1.03633 1.66597 0
M  V30 25605 O 2652.6 -1.80497 1.19372 0
M  V30 25606 C 2653.19 0.793877 3.29368 0
M  V30 25607 C 2651.75 0.486149 3.73247 0
M  V30 25608 C 2650.9 1.02217 2.57773 0
M  V30 25609 H 2653.85 0.993593 1.23747 0
M  V30 25610 H 2653.87 0.0894827 3.80395 0
M  V30 25611 H 2653.38 1.86923 3.4012 0
M  V30 25612 H 2651.48 -0.580671 3.68048 0
M  V30 25613 H 2651.6 1.01522 4.6822 0
M  V30 25614 H 2649.96 0.444756 2.50787 0
M  V30 25615 H 2650.74 2.10353 2.71305 0
M  V30 25616 N 2653.19 -1.47521 0.554558 0
M  V30 25617 C 2654.44 -2.02079 0.0294563 0
M  V30 25618 C 2654.76 -1.43154 -1.32409 0
M  V30 25619 O 2654.03 -0.605761 -1.86299 0
M  V30 25620 H 2652.61 -0.746958 0.00789985 0
M  V30 25621 H 2655.27 -1.80955 0.723966 0
M  V30 25622 H 2654.37 -3.12041 -0.0606196 0
M  V30 25623 N 2654.67 -0.290879 -1.54892 0
M  V30 25624 C 2655.91 0.321356 -1.99934 0
M  V30 25625 C 2656.24 1.5467 -1.1793 0
M  V30 25626 O 2655.5 1.94211 -0.240936 0
M  V30 25627 C 2655.8 0.732335 -3.49817 0
M  V30 25628 C 2655.46 -0.390135 -4.49209 0
M  V30 25629 C 2654.12 -0.698306 -4.76106 0
M  V30 25630 C 2656.48 -1.14571 -5.08451 0
M  V30 25631 C 2653.8 -1.76536 -5.59511 0
M  V30 25632 C 2656.16 -2.2026 -5.93016 0
M  V30 25633 C 2654.82 -2.51695 -6.18228 0
M  V30 25634 H 2654.09 0.117592 -0.73161 0
M  V30 25635 H 2656.74 -0.407872 -1.87106 0
M  V30 25636 H 2655.04 1.54149 -3.60202 0
M  V30 25637 H 2656.74 1.21705 -3.82085 0
M  V30 25638 H 2653.33 -0.139836 -4.28372 0
M  V30 25639 H 2657.51 -0.920887 -4.87682 0
M  V30 25640 H 2652.77 -2.01374 -5.77285 0
M  V30 25641 H 2656.94 -2.79272 -6.3795 0
M  V30 25642 H 2654.57 -3.34511 -6.82647 0
M  V30 25643 N 2656.15 1.57589 -0.0184203 0
M  V30 25644 C 2657.37 1.95648 0.673012 0
M  V30 25645 C 2657.79 0.894341 1.66274 0
M  V30 25646 O 2657.15 -0.124943 1.82072 0
M  V30 25647 C 2657.2 3.33759 1.38878 0
M  V30 25648 O 2656.92 4.35898 0.438729 0
M  V30 25649 C 2658.42 3.86386 2.17303 0
M  V30 25650 H 2655.64 0.644624 0.18628 0
M  V30 25651 H 2658.18 2.04362 -0.0750107 0
M  V30 25652 H 2656.34 3.26296 2.08829 0
M  V30 25653 H 2656.75 5.15902 0.945778 0
M  V30 25654 H 2658.23 4.85398 2.62854 0
M  V30 25655 H 2658.7 3.20064 3.00759 0
M  V30 25656 H 2659.31 3.97083 1.52332 0
M  V30 25657 N 2657.62 -0.254594 1.5553 0
M  V30 25658 C 2658.87 -0.983705 1.77001 0
M  V30 25659 C 2659.2 -1.85608 0.581363 0
M  V30 25660 O 2658.45 -1.90791 -0.435587 0
M  V30 25661 C 2658.75 -1.88103 3.03895 0
M  V30 25662 C 2658.42 -1.16465 4.35599 0
M  V30 25663 C 2657.08 -0.966631 4.71391 0
M  V30 25664 C 2659.43 -0.656296 5.17051 0
M  V30 25665 C 2656.76 -0.247839 5.86176 0
M  V30 25666 C 2659.11 0.0489919 6.32581 0
M  V30 25667 C 2657.78 0.258556 6.66999 0
M  V30 25668 H 2657.05 -0.359963 0.647694 0
M  V30 25669 H 2659.69 -0.25443 1.89802 0
M  V30 25670 H 2658 -2.67712 2.86073 0
M  V30 25671 H 2659.7 -2.44672 3.17705 0
M  V30 25672 H 2656.29 -1.32891 4.07477 0
M  V30 25673 H 2660.47 -0.796847 4.89861 0
M  V30 25674 H 2655.73 -0.0749276 6.11354 0
M  V30 25675 H 2659.9 0.450567 6.94941 0
M  V30 25676 H 2657.53 0.817491 7.55792 0
M  V30 25677 N 2659.1 -1.48777 -0.519925 0
M  V30 25678 C 2660.38 -1.47799 -1.2812 0
M  V30 25679 C 2660.76 -0.195194 -2.10196 0
M  V30 25680 O 2660.11 0.822887 -2.13169 0
M  V30 25681 C 2660.32 -2.74591 -2.15408 0
M  V30 25682 C 2661.66 -3.23325 -2.7522 0
M  V30 25683 O 2662.69 -2.75578 -2.25689 0
M  V30 25684 O 2661.55 -4.06435 -3.65339 0
M  V30 25685 H 2658.64 -0.590711 -0.578783 0
M  V30 25686 H 2661.19 -1.61021 -0.535751 0
M  V30 25687 H 2659.96 -3.5946 -1.54611 0
M  V30 25688 H 2659.58 -2.64138 -2.97182 0
M  V30 25689 N 2660.58 0.769564 -1.37534 0
M  V30 25690 C 2661.83 1.52348 -1.32185 0
M  V30 25691 C 2662.14 1.9539 0.0906211 0
M  V30 25692 O 2663.35 2.70188 0.26658 0
M  V30 25693 C 2661.8 2.75115 -2.32034 0
M  V30 25694 C 2661.41 2.39163 -3.78821 0
M  V30 25695 C 2663.16 3.53052 -2.357 0
M  V30 25696 C 2661.06 3.58445 -4.70395 0
M  V30 25697 H 2659.99 0.571975 -0.491285 0
M  V30 25698 H 2662.64 0.842711 -1.63005 0
M  V30 25699 H 2661.03 3.45093 -1.94235 0
M  V30 25700 H 2662.2 1.76955 -4.25469 0
M  V30 25701 H 2660.51 1.74396 -3.78121 0
M  V30 25702 H 2663.11 4.41713 -3.0132 0
M  V30 25703 H 2663.45 3.93068 -1.37124 0
M  V30 25704 H 2663.99 2.90073 -2.72218 0
M  V30 25705 H 2660.73 3.23508 -5.70108 0
M  V30 25706 H 2660.25 4.19751 -4.2845 0
M  V30 25707 H 2661.93 4.2523 -4.87635 0
M  V30 25708 N 2662.06 1.22139 0.995977 0
M  V30 25709 C 2663.01 0.956078 2.06986 0
M  V30 25710 C 2663.99 -0.0921293 1.60636 0
M  V30 25711 O 2665.18 0.117989 1.76606 0
M  V30 25712 C 2662.31 0.532395 3.39147 0
M  V30 25713 C 2661.4 1.61516 3.92139 0
M  V30 25714 N 2661.79 2.84221 4.18392 0
M  V30 25715 C 2660.09 1.48613 4.20512 0
M  V30 25716 C 2660.79 3.54214 4.61419 0
M  V30 25717 N 2659.77 2.81677 4.64929 0
M  V30 25718 H 2663.57 1.8882 2.2522 0
M  V30 25719 H 2661.08 1.11847 1.17746 0
M  V30 25720 H 2663.08 0.323647 4.15642 0
M  V30 25721 H 2661.74 -0.392864 3.22315 0
M  V30 25722 H 2662.75 3.20678 4.06677 0
M  V30 25723 H 2659.43 0.626835 4.12768 0
M  V30 25724 H 2660.82 4.59324 4.90379 0
M  V30 25725 N 2663.54 -1.19233 1.03059 0
M  V30 25726 C 2664.76 -1.92916 0.747731 0
M  V30 25727 C 2665.18 -1.75594 -0.693689 0
M  V30 25728 O 2664.54 -1.07896 -1.47189 0
M  V30 25729 C 2664.59 -3.44623 1.09165 0
M  V30 25730 O 2664.31 -3.6139 2.47647 0
M  V30 25731 C 2665.81 -4.35425 0.83184 0
M  V30 25732 H 2663.03 -0.612747 0.273464 0
M  V30 25733 H 2665.57 -1.51324 1.37554 0
M  V30 25734 H 2663.73 -3.84042 0.508987 0
M  V30 25735 H 2664.14 -4.55232 2.60507 0
M  V30 25736 H 2665.62 -5.40468 1.12243 0
M  V30 25737 H 2666.09 -4.38578 -0.233692 0
M  V30 25738 H 2666.7 -4.0169 1.39732 0
M  V30 25739 N 2665.01 -0.808686 -1.3527 0
M  V30 25740 C 2666.26 -0.389267 -1.98316 0
M  V30 25741 C 2666.58 1.04764 -1.64467 0
M  V30 25742 O 2665.85 1.72514 -0.928205 0
M  V30 25743 H 2664.43 -0.140947 -0.733582 0
M  V30 25744 H 2667.1 -1.03499 -1.65148 0
M  V30 25745 H 2666.19 -0.496685 -3.08122 0
M  V30 25746 N 2666.49 1.47225 -0.562374 0
M  V30 25747 C 2667.44 2.30078 0.182421 0
M  V30 25748 C 2668.41 1.39379 0.903478 0
M  V30 25749 O 2669.59 1.68338 0.898158 0
M  V30 25750 C 2666.73 3.23447 1.20316 0
M  V30 25751 C 2665.85 4.29239 0.487642 0
M  V30 25752 C 2664.98 5.09754 1.49413 0
M  V30 25753 C 2664.02 6.07315 0.76387 0
M  V30 25754 N 2663.16 6.80771 1.71743 0
M  V30 25755 H 2668 2.93245 -0.530221 0
M  V30 25756 H 2665.54 1.44539 -0.273302 0
M  V30 25757 H 2667.49 3.76007 1.80761 0
M  V30 25758 H 2666.12 2.62133 1.88377 0
M  V30 25759 H 2665.18 3.79695 -0.23144 0
M  V30 25760 H 2666.49 4.98729 -0.0841879 0
M  V30 25761 H 2665.64 5.6649 2.17196 0
M  V30 25762 H 2664.38 4.40178 2.09988 0
M  V30 25763 H 2663.39 5.49753 0.0721378 0
M  V30 25764 H 2664.61 6.78902 0.163791 0
M  V30 25765 H 2662.56 6.1392 2.31166 0
M  V30 25766 H 2662.47 7.46449 1.19789 0
M  V30 25767 H 2663.74 7.42077 2.38625 0
M  V30 25768 N 2667.97 0.299089 1.54736 0
M  V30 25769 C 2668.93 -0.564973 2.22128 0
M  V30 25770 C 2669.93 -1.06278 1.20671 0
M  V30 25771 O 2671.12 -0.959119 1.45419 0
M  V30 25772 C 2668.26 -1.78203 2.90614 0
M  V30 25773 H 2669.45 0.0237975 2.99891 0
M  V30 25774 H 2667 0.0499063 1.5622 0
M  V30 25775 H 2667.74 -2.41068 2.16925 0
M  V30 25776 H 2667.52 -1.43274 3.64986 0
M  V30 25777 H 2669.01 -2.39594 3.4203 0
M  V30 25778 N 2669.45 -1.57577 0.0267774 0
M  V30 25779 C 2670.69 -1.91988 -0.653337 0
M  V30 25780 C 2671.03 -0.903293 -1.71913 0
M  V30 25781 O 2670.3 0.0743045 -1.94358 0
M  V30 25782 C 2670.59 -3.36888 -1.27194 0
M  V30 25783 C 2670.44 -4.49282 -0.215859 0
M  V30 25784 C 2671.76 -3.81707 -2.19062 0
M  V30 25785 H 2668.88 -0.698181 -0.236035 0
M  V30 25786 H 2671.52 -1.89816 0.083557 0
M  V30 25787 H 2669.67 -3.3887 -1.89999 0
M  V30 25788 H 2671.34 -4.59433 0.414571 0
M  V30 25789 H 2669.58 -4.31366 0.458931 0
M  V30 25790 H 2670.25 -5.47693 -0.688251 0
M  V30 25791 H 2672.73 -3.81447 -1.66246 0
M  V30 25792 H 2671.61 -4.83793 -2.59299 0
M  V30 25793 H 2671.87 -3.17078 -3.08081 0
M  V30 25794 N 2670.93 0.246342 -1.55663 0
M  V30 25795 C 2672.2 0.997169 -1.68273 0
M  V30 25796 C 2672.58 2.03348 -0.566821 0
M  V30 25797 O 2671.93 2.24424 0.429648 0
M  V30 25798 C 2672.14 1.63001 -3.08597 0
M  V30 25799 C 2673.49 2.13165 -3.67214 0
M  V30 25800 O 2674.51 1.7294 -3.114 0
M  V30 25801 O 2673.37 2.87023 -4.65059 0
M  V30 25802 H 2670.47 0.464193 -0.684437 0
M  V30 25803 H 2673.01 0.240085 -1.67993 0
M  V30 25804 H 2671.78 0.88046 -3.81266 0
M  V30 25805 H 2671.41 2.45328 -3.1289 0
M  V30 25806 N 2672.4 1.4905 0.512027 0
M  V30 25807 C 2673.65 1.57229 1.2634 0
M  V30 25808 C 2673.97 0.259189 1.93875 0
M  V30 25809 O 2675.17 0.219405 2.70612 0
M  V30 25810 C 2673.63 2.77366 2.29338 0
M  V30 25811 C 2673.24 4.15391 1.67792 0
M  V30 25812 C 2674.98 2.94869 3.05373 0
M  V30 25813 C 2672.89 5.26765 2.68836 0
M  V30 25814 H 2671.82 0.58539 0.475221 0
M  V30 25815 H 2674.47 1.75418 0.53859 0
M  V30 25816 H 2672.85 2.52649 3.04934 0
M  V30 25817 H 2674.02 4.50201 0.982636 0
M  V30 25818 H 2672.34 4.03155 1.04187 0
M  V30 25819 H 2674.94 3.75245 3.80914 0
M  V30 25820 H 2675.28 2.05006 3.62323 0
M  V30 25821 H 2675.81 3.19573 2.36892 0
M  V30 25822 H 2672.55 6.18651 2.16681 0
M  V30 25823 H 2672.07 4.96422 3.36638 0
M  V30 25824 H 2673.75 5.55636 3.31478 0
M  V30 25825 N 2673.88 -0.762259 1.3794 0
M  V30 25826 C 2675.16 -1.5111 1.24198 0
M  V30 25827 C 2675.54 -2.1049 -0.160372 0
M  V30 25828 O 2674.89 -1.96333 -1.169 0
M  V30 25829 C 2675.1 -2.5844 2.34541 0
M  V30 25830 C 2676.45 -3.25583 2.72545 0
M  V30 25831 O 2677.47 -2.68741 2.33788 0
M  V30 25832 O 2676.33 -4.28373 3.3935 0
M  V30 25833 H 2673.42 -0.669718 0.485187 0
M  V30 25834 H 2675.97 -0.798412 1.49745 0
M  V30 25835 H 2674.74 -2.1275 3.2841 0
M  V30 25836 H 2674.36 -3.37299 2.10511 0
M  V30 25837 N 2675.36 -1.22666 -0.989486 0
M  V30 25838 C 2676.27 -1.01623 -2.11447 0
M  V30 25839 C 2677.29 0.0365144 -1.73962 0
M  V30 25840 O 2678.46 -0.156959 -2.00787 0
M  V30 25841 C 2675.53 -0.600264 -3.41464 0
M  V30 25842 C 2674.59 -1.72702 -3.9303 0
M  V30 25843 C 2673.82 -1.3308 -5.16842 0
M  V30 25844 O 2674.04 -0.211075 -5.70009 0
M  V30 25845 O 2672.98 -2.14855 -5.62246 0
M  V30 25846 H 2676.8 -1.95884 -2.32084 0
M  V30 25847 H 2674.39 -1.0129 -1.09821 0
M  V30 25848 H 2676.27 -0.378804 -4.19694 0
M  V30 25849 H 2674.95 0.313454 -3.22179 0
M  V30 25850 H 2673.85 -2.00303 -3.15958 0
M  V30 25851 H 2675.19 -2.61872 -4.16754 0
M  V30 25852 N 2676.84 1.18685 -1.0369 0
M  V30 25853 C 2678.08 1.90265 -0.746891 0
M  V30 25854 C 2678.44 1.78309 0.712043 0
M  V30 25855 O 2679.64 2.44561 1.11549 0
M  V30 25856 C 2677.92 3.36813 -1.19549 0
M  V30 25857 S 2679.47 4.26527 -1.03054 0
M  V30 25858 H 2676.29 0.65705 -0.271674 0
M  V30 25859 H 2678.89 1.43435 -1.32841 0
M  V30 25860 H 2677.6 3.43044 -2.25276 0
M  V30 25861 H 2677.13 3.8868 -0.607601 0
M  V30 25862 H 2679.14 4.9617 0.054236 0
M  V30 25863 N 2678.32 0.815849 1.34839 0
M  V30 25864 C 2679.26 0.230705 2.29644 0
M  V30 25865 C 2680.23 -0.640506 1.53254 0
M  V30 25866 O 2681.42 -0.58364 1.81654 0
M  V30 25867 C 2678.56 -0.607215 3.39716 0
M  V30 25868 C 2677.67 0.285455 4.31056 0
M  V30 25869 C 2676.81 -0.561353 5.28226 0
M  V30 25870 C 2675.85 0.331143 6.11204 0
M  V30 25871 N 2674.98 -0.476179 7.00483 0
M  V30 25872 H 2679.82 1.04455 2.79094 0
M  V30 25873 H 2677.36 0.526619 1.3735 0
M  V30 25874 H 2679.32 -1.10828 4.0221 0
M  V30 25875 H 2677.95 -1.38624 2.91519 0
M  V30 25876 H 2677 0.904686 3.69486 0
M  V30 25877 H 2678.31 0.972016 4.89237 0
M  V30 25878 H 2677.47 -1.12718 5.96137 0
M  V30 25879 H 2676.21 -1.28145 4.70564 0
M  V30 25880 H 2675.21 0.909165 5.42231 0
M  V30 25881 H 2676.44 1.04924 6.70945 0
M  V30 25882 H 2674.38 -1.18008 6.45299 0
M  V30 25883 H 2674.3 0.152141 7.55847 0
M  V30 25884 H 2675.57 -1.02498 7.72732 0
M  V30 25885 N 2679.8 -1.46924 0.570174 0
M  V30 25886 C 2680.71 -2.33961 -0.173019 0
M  V30 25887 C 2681.72 -1.48989 -0.898798 0
M  V30 25888 O 2682.9 -1.81888 -0.864793 0
M  V30 25889 C 2679.96 -3.25939 -1.18172 0
M  V30 25890 C 2679.02 -4.26807 -0.461966 0
M  V30 25891 C 2678.26 -5.1439 -1.42261 0
M  V30 25892 O 2678.48 -5.04667 -2.65833 0
M  V30 25893 O 2677.41 -5.94514 -0.940023 0
M  V30 25894 H 2681.24 -2.98838 0.541269 0
M  V30 25895 H 2678.82 -1.45695 0.330673 0
M  V30 25896 H 2680.71 -3.82718 -1.76365 0
M  V30 25897 H 2679.38 -2.63675 -1.8777 0
M  V30 25898 H 2678.29 -3.73751 0.161494 0
M  V30 25899 H 2679.62 -4.91822 0.192805 0
M  V30 25900 N 2681.27 -0.307291 -1.54575 0
M  V30 25901 C 2682.52 0.300941 -1.99442 0
M  V30 25902 C 2682.84 1.54518 -1.19931 0
M  V30 25903 O 2684.04 2.2284 -1.55096 0
M  V30 25904 C 2682.5 0.586747 -3.55085 0
M  V30 25905 C 2682.11 -0.639516 -4.43412 0
M  V30 25906 C 2683.85 1.15583 -4.08462 0
M  V30 25907 C 2681.76 -0.326514 -5.90498 0
M  V30 25908 H 2680.69 0.116225 -0.744988 0
M  V30 25909 H 2683.34 -0.416978 -1.787 0
M  V30 25910 H 2681.72 1.36443 -3.71752 0
M  V30 25911 H 2682.89 -1.41553 -4.3852 0
M  V30 25912 H 2681.21 -1.12767 -4.0084 0
M  V30 25913 H 2683.81 1.40436 -5.15928 0
M  V30 25914 H 2684.15 2.10009 -3.59447 0
M  V30 25915 H 2684.68 0.439709 -3.95362 0
M  V30 25916 H 2681.42 -1.23951 -6.43674 0
M  V30 25917 H 2680.94 0.412107 -5.98383 0
M  V30 25918 H 2682.62 0.0696256 -6.46963 0
M  V30 25919 N 2682.75 1.57561 -0.0351337 0
M  V30 25920 C 2684.16 1.79801 0.502853 0
M  V30 25921 C 2684.51 0.945951 1.7189 0
M  V30 25922 O 2683.64 0.158028 2.15822 0
M  V30 25923 C 2684.23 3.26097 0.91904 0
M  V30 25924 C 2682.79 3.49311 1.4021 0
M  V30 25925 C 2681.94 2.74825 0.369661 0
M  V30 25926 H 2684.89 1.56537 -0.26113 0
M  V30 25927 H 2684.91 3.36138 1.78302 0
M  V30 25928 H 2684.42 3.88085 0.0337844 0
M  V30 25929 H 2682.52 2.92582 2.30709 0
M  V30 25930 H 2682.64 4.58025 1.40533 0
M  V30 25931 H 2681 2.40482 0.839071 0
M  V30 25932 H 2681.78 3.39532 -0.507232 0
M  V30 25933 N 2684.23 -0.238084 1.55791 0
M  V30 25934 C 2685.48 -0.96297 1.77683 0
M  V30 25935 C 2685.8 -1.85517 0.600706 0
M  V30 25936 O 2685.07 -1.92117 -0.383148 0
M  V30 25937 H 2683.65 -0.358556 0.655322 0
M  V30 25938 H 2686.31 -0.253911 1.93239 0
M  V30 25939 H 2685.41 -1.57952 2.6918 0
M  V30 25940 N 2685.71 -1.4932 -0.504115 0
M  V30 25941 C 2686.96 -1.57897 -1.25504 0
M  V30 25942 C 2687.27 -0.269467 -1.93735 0
M  V30 25943 O 2688.48 -0.233754 -2.70492 0
M  V30 25944 C 2686.93 -2.78578 -2.27864 0
M  V30 25945 C 2686.54 -4.16275 -1.65587 0
M  V30 25946 C 2688.28 -2.96484 -3.03805 0
M  V30 25947 C 2686.19 -5.28183 -2.66039 0
M  V30 25948 H 2685.12 -0.587902 -0.472109 0
M  V30 25949 H 2687.77 -1.75701 -0.529279 0
M  V30 25950 H 2686.15 -2.54262 -3.0359 0
M  V30 25951 H 2687.33 -4.50716 -0.958747 0
M  V30 25952 H 2685.64 -4.03702 -1.02047 0
M  V30 25953 H 2688.24 -3.77259 -3.78919 0
M  V30 25954 H 2688.58 -2.06925 -3.61231 0
M  V30 25955 H 2689.12 -3.20825 -2.35194 0
M  V30 25956 H 2685.85 -6.19792 -2.13398 0
M  V30 25957 H 2685.37 -4.982 -3.34001 0
M  V30 25958 H 2687.05 -5.57386 -3.28526 0
M  V30 25959 N 2687.19 0.754933 -1.38342 0
M  V30 25960 C 2688.43 1.52687 -1.3589 0
M  V30 25961 C 2688.79 1.91931 0.0513344 0
M  V30 25962 O 2689.99 2.6805 0.200714 0
M  V30 25963 C 2688.26 2.74672 -2.28671 0
M  V30 25964 S 2689.82 3.64553 -2.44226 0
M  V30 25965 H 2686.64 0.522522 -0.482174 0
M  V30 25966 H 2689.24 0.886327 -1.74254 0
M  V30 25967 H 2687.94 2.43947 -3.30027 0
M  V30 25968 H 2687.48 3.43671 -1.91451 0
M  V30 25969 H 2689.49 4.6742 -1.66533 0
M  V30 25970 N 2688.66 1.23189 0.982967 0
M  V30 25971 C 2689.63 1.01201 2.05648 0
M  V30 25972 C 2690.63 -0.0252181 1.6078 0
M  V30 25973 O 2691.82 0.214273 1.72877 0
M  V30 25974 C 2688.95 0.530715 3.36744 0
M  V30 25975 H 2690.14 1.96465 2.26587 0
M  V30 25976 H 2687.69 1.05197 1.156 0
M  V30 25977 H 2688.43 -0.425817 3.21492 0
M  V30 25978 H 2688.21 1.27916 3.70648 0
M  V30 25979 H 2689.7 0.397439 4.15704 0
M  V30 25980 N 2690.14 -1.18133 1.04318 0
M  V30 25981 C 2691.09 -2.239 0.630214 0
M  V30 25982 C 2692.08 -1.65866 -0.344224 0
M  V30 25983 O 2693.29 -1.78756 -0.211241 0
M  V30 25984 H 2689.66 -0.728739 0.185591 0
M  V30 25985 H 2691.64 -2.56036 1.53258 0
M  V30 25986 C 2690.38 -3.47698 0.0117271 0
M  V30 25987 H 2689.71 -3.92653 0.752595 0
M  V30 25988 H 2691.15 -4.2332 -0.239971 0
M  V30 25989 C 2689.61 -3.13287 -1.23907 0
M  V30 25990 O 2690.14 -3.27255 -2.32953 0
M  V30 25991 N 2688.34 -2.67589 -1.13333 0
M  V30 25992 H 2687.89 -2.56423 -0.24596 0
M  V30 25993 H 2687.85 -2.44937 -1.97112 0
M  V30 25994 N 2691.62 -0.822988 -1.34405 0
M  V30 25995 C 2692.87 -0.41028 -1.97892 0
M  V30 25996 C 2693.19 1.03014 -1.65569 0
M  V30 25997 O 2692.46 1.7152 -0.946451 0
M  V30 25998 H 2691.04 -0.14872 -0.732046 0
M  V30 25999 H 2693.7 -1.05245 -1.64041 0
M  V30 26000 H 2692.8 -0.529338 -3.07578 0
M  V30 26001 N 2693.1 1.4662 -0.577957 0
M  V30 26002 C 2694.34 2.02706 -0.0618149 0
M  V30 26003 C 2694.68 1.44905 1.29291 0
M  V30 26004 O 2693.95 0.612352 1.84609 0
M  V30 26005 C 2694.24 3.60099 0.00905495 0
M  V30 26006 C 2694.09 4.28293 -1.37423 0
M  V30 26007 C 2695.41 4.34301 0.712082 0
M  V30 26008 H 2692.53 0.736611 -0.0239376 0
M  V30 26009 H 2695.17 1.74817 -0.744242 0
M  V30 26010 H 2693.32 3.8399 0.590225 0
M  V30 26011 H 2694.99 4.1568 -2.0002 0
M  V30 26012 H 2693.23 3.8784 -1.94326 0
M  V30 26013 H 2693.9 5.37022 -1.27716 0
M  V30 26014 H 2696.38 4.15526 0.218413 0
M  V30 26015 H 2695.26 5.44015 0.730686 0
M  V30 26016 H 2695.52 4.05015 1.77244 0
M  V30 26017 N 2694.58 0.315484 1.5441 0
M  V30 26018 C 2695.82 -0.290201 2.02329 0
M  V30 26019 C 2696.18 -1.49975 1.19881 0
M  V30 26020 O 2697.38 -2.17776 1.57566 0
M  V30 26021 C 2695.65 -0.623875 3.51913 0
M  V30 26022 S 2697.21 -1.21036 4.21777 0
M  V30 26023 H 2694.03 -0.0882615 0.7055 0
M  V30 26024 H 2696.63 0.446727 1.90328 0
M  V30 26025 H 2695.34 0.264696 4.09546 0
M  V30 26026 H 2694.87 -1.39121 3.67979 0
M  V30 26027 H 2696.88 -2.49757 4.28761 0
M  V30 26028 N 2696.05 -1.5754 0.0434891 0
M  V30 26029 C 2697.3 -1.91562 -0.63142 0
M  V30 26030 C 2697.62 -0.92295 -1.72456 0
M  V30 26031 O 2698.82 -1.15494 -2.4571 0
M  V30 26032 C 2697.28 -3.402 -1.17441 0
M  V30 26033 C 2696.89 -4.47855 -0.113788 0
M  V30 26034 C 2698.63 -3.83267 -1.825 0
M  V30 26035 C 2696.54 -5.87601 -0.669222 0
M  V30 26036 H 2695.47 -0.714912 -0.239617 0
M  V30 26037 H 2698.12 -1.83163 0.111129 0
M  V30 26038 H 2696.5 -3.43577 -1.96903 0
M  V30 26039 H 2697.67 -4.56057 0.659428 0
M  V30 26040 H 2695.99 -4.14081 0.438894 0
M  V30 26041 H 2698.59 -4.85038 -2.25038 0
M  V30 26042 H 2698.93 -3.191 -2.6736 0
M  V30 26043 H 2699.46 -3.82374 -1.09706 0
M  V30 26044 H 2696.2 -6.55347 0.141564 0
M  V30 26045 H 2695.72 -5.82977 -1.4106 0
M  V30 26046 H 2697.4 -6.36616 -1.15451 0
M  V30 26047 N 2697.53 0.229818 -1.55915 0
M  V30 26048 C 2698.48 1.30441 -1.92582 0
M  V30 26049 C 2699.47 1.4895 -0.806865 0
M  V30 26050 O 2700.68 1.50222 -0.991633 0
M  V30 26051 H 2697.06 0.43715 -0.611886 0
M  V30 26052 H 2699.03 0.96792 -2.82266 0
M  V30 26053 C 2697.78 2.64936 -2.25176 0
M  V30 26054 H 2697.1 2.51499 -3.10787 0
M  V30 26055 H 2698.54 3.38958 -2.54722 0
M  V30 26056 C 2697 3.19323 -1.074 0
M  V30 26057 O 2697.53 4.00335 -0.330829 0
M  V30 26058 N 2695.73 2.77582 -0.860033 0
M  V30 26059 H 2695.28 2.1181 -1.46609 0
M  V30 26060 H 2695.24 3.14314 -0.0737224 0
M  V30 26061 N 2699.01 1.49585 0.49619 0
M  V30 26062 C 2699.94 1.62733 1.61402 0
M  V30 26063 C 2700.96 0.509807 1.54612 0
M  V30 26064 O 2702.14 0.782046 1.60457 0
M  V30 26065 C 2699.24 1.5725 3.00209 0
M  V30 26066 C 2698.42 2.84617 3.32133 0
M  V30 26067 C 2697.48 2.7212 4.50375 0
M  V30 26068 O 2696.5 3.46059 4.5192 0
M  V30 26069 N 2697.7 1.83987 5.50572 0
M  V30 26070 H 2700.47 2.59144 1.50548 0
M  V30 26071 H 2698.03 1.46734 0.684156 0
M  V30 26072 H 2700.02 1.46537 3.77239 0
M  V30 26073 H 2698.59 0.686783 3.04962 0
M  V30 26074 H 2697.81 3.09645 2.43954 0
M  V30 26075 H 2699.1 3.69046 3.50261 0
M  V30 26076 H 2698.5 1.2318 5.52126 0
M  V30 26077 H 2697.06 1.79193 6.26684 0
M  V30 26078 N 2700.49 -0.747586 1.3874 0
M  V30 26079 C 2701.74 -1.50226 1.34592 0
M  V30 26080 C 2702.05 -1.95509 -0.0595248 0
M  V30 26081 O 2703.26 -2.70578 -0.223562 0
M  V30 26082 C 2701.71 -2.71389 2.36381 0
M  V30 26083 C 2701.32 -2.33106 3.82577 0
M  V30 26084 C 2703.06 -3.49258 2.41287 0
M  V30 26085 C 2700.97 -3.50916 4.76038 0
M  V30 26086 H 2699.9 -0.564087 0.500322 0
M  V30 26087 H 2702.55 -0.816671 1.64325 0
M  V30 26088 H 2700.93 -3.41959 1.997 0
M  V30 26089 H 2702.11 -1.70164 4.2823 0
M  V30 26090 H 2700.42 -1.68358 3.80847 0
M  V30 26091 H 2703.02 -4.36863 3.08309 0
M  V30 26092 H 2703.36 -3.90837 1.4336 0
M  V30 26093 H 2703.9 -2.85706 2.76798 0
M  V30 26094 H 2700.64 -3.14397 5.75182 0
M  V30 26095 H 2700.16 -4.12881 4.35073 0
M  V30 26096 H 2701.83 -4.17419 4.94339 0
M  V30 26097 N 2701.97 -1.23709 -0.97642 0
M  V30 26098 C 2703.21 -1.06945 -1.71485 0
M  V30 26099 C 2703.54 0.393863 -1.90981 0
M  V30 26100 O 2702.81 1.28196 -1.48131 0
M  V30 26101 H 2701.39 -0.39275 -0.635418 0
M  V30 26102 H 2704.05 -1.55489 -1.17512 0
M  V30 26103 H 2703.14 -1.56056 -2.70283 0
M  V30 26104 N 2703.44 1.17579 -1.04943 0
M  V30 26105 C 2704.67 1.92243 -0.778287 0
M  V30 26106 C 2705.09 1.76153 0.659676 0
M  V30 26107 O 2704.45 1.07758 1.45801 0
M  V30 26108 C 2704.5 3.41414 -1.16057 0
M  V30 26109 O 2703.6 4.1137 -0.291225 0
M  V30 26110 H 2702.95 0.599426 -0.28563 0
M  V30 26111 H 2705.48 1.4905 -1.40162 0
M  V30 26112 H 2705.49 3.92147 -1.12626 0
M  V30 26113 H 2704.16 3.52445 -2.20806 0
M  V30 26114 H 2702.74 3.70898 -0.385916 0
M  V30 26115 N 2704.92 0.830104 1.33967 0
M  V30 26116 C 2706.17 0.421601 1.98063 0
M  V30 26117 C 2706.5 -1.01707 1.65789 0
M  V30 26118 O 2705.75 -1.72439 0.925378 0
M  V30 26119 C 2706.05 0.579042 3.52678 0
M  V30 26120 C 2705.72 1.9845 4.04881 0
M  V30 26121 C 2704.38 2.36896 4.18848 0
M  V30 26122 C 2706.73 2.90292 4.32874 0
M  V30 26123 C 2704.06 3.66505 4.58139 0
M  V30 26124 C 2706.41 4.19373 4.73613 0
M  V30 26125 C 2705.08 4.57786 4.85786 0
M  V30 26126 H 2704.35 0.154275 0.724762 0
M  V30 26127 H 2706.99 1.05544 1.5979 0
M  V30 26128 H 2705.3 -0.13815 3.91556 0
M  V30 26129 H 2706.99 0.243387 4.00261 0
M  V30 26130 H 2703.58 1.67588 3.94477 0
M  V30 26131 H 2707.77 2.61831 4.21614 0
M  V30 26132 H 2703.02 3.96083 4.65755 0
M  V30 26133 H 2707.2 4.90621 4.94231 0
M  V30 26134 H 2704.83 5.58265 5.15988 0
M  V30 26135 N 2706.4 -1.46311 0.585725 0
M  V30 26136 C 2707.82 -1.57667 0.247634 0
M  V30 26137 C 2708.02 -1.58039 -1.25004 0
M  V30 26138 O 2707.07 -1.49896 -2.03193 0
M  V30 26139 C 2708.39 -2.86931 0.899507 0
M  V30 26140 C 2709.93 -3.00568 0.873379 0
M  V30 26141 C 2710.41 -4.32572 1.50485 0
M  V30 26142 N 2711.9 -4.39278 1.46933 0
M  V30 26143 C 2712.64 -5.4004 1.92728 0
M  V30 26144 N 2712.13 -6.4746 2.4651 0
M  V30 26145 N 2713.92 -5.3126 1.83627 0
M  V30 26146 H 2706.08 -1.44314 1.55843 0
M  V30 26147 H 2708.34 -0.688587 0.651576 0
M  V30 26148 H 2708.04 -2.92479 1.95318 0
M  V30 26149 H 2707.92 -3.7497 0.409542 0
M  V30 26150 H 2710.31 -2.946 -0.171685 0
M  V30 26151 H 2710.39 -2.13997 1.40139 0
M  V30 26152 H 2710.03 -4.39297 2.54913 0
M  V30 26153 H 2709.96 -5.17923 0.952035 0
M  V30 26154 H 2712.45 -3.62251 1.07623 0
M  V30 26155 H 2712.76 -7.20562 2.79304 0
M  V30 26156 H 2711.11 -6.48271 2.50538 0
M  V30 26157 H 2714.3 -4.46244 1.41366 0
M  V30 26158 H 2714.47 -6.09644 2.19632 0
M  V30 26159 N 2707.88 -0.323668 -1.54241 0
M  V30 26160 C 2709.12 0.279467 -2.0248 0
M  V30 26161 C 2709.48 1.49337 -1.20675 0
M  V30 26162 O 2710.68 2.16938 -1.58718 0
M  V30 26163 C 2708.96 0.605204 -3.52239 0
M  V30 26164 S 2710.51 1.18798 -4.22413 0
M  V30 26165 H 2707.33 0.0845189 -0.705959 0
M  V30 26166 H 2709.93 -0.456814 -1.90088 0
M  V30 26167 H 2708.64 -0.286411 -4.09399 0
M  V30 26168 H 2708.17 1.37168 -3.68712 0
M  V30 26169 H 2710.18 2.47479 -4.3008 0
M  V30 26170 N 2709.36 1.57515 -0.0518432 0
M  V30 26171 C 2710.27 2.15054 0.937501 0
M  V30 26172 C 2711.28 1.10851 1.3412 0
M  V30 26173 O 2712.46 1.43022 1.41798 0
M  V30 26174 C 2709.52 2.68469 2.19374 0
M  V30 26175 C 2708.59 3.87473 1.84834 0
M  V30 26176 C 2707.82 4.38331 3.04469 0
M  V30 26177 O 2708.04 3.88263 4.17861 0
M  V30 26178 O 2706.98 5.29911 2.85444 0
M  V30 26179 H 2710.8 2.99912 0.478148 0
M  V30 26180 H 2708.39 1.48429 0.170094 0
M  V30 26181 H 2710.27 3.02792 2.93079 0
M  V30 26182 H 2708.94 1.86682 2.64446 0
M  V30 26183 H 2707.85 3.58038 1.08443 0
M  V30 26184 H 2709.18 4.70492 1.44561 0
M  V30 26185 N 2710.84 -0.221546 1.56035 0
M  V30 26186 C 2712.08 -0.953006 1.80824 0
M  V30 26187 C 2712.44 -1.81531 0.625348 0
M  V30 26188 O 2713.64 -2.58051 0.752537 0
M  V30 26189 C 2711.91 -1.76977 3.10506 0
M  V30 26190 S 2713.47 -2.55687 3.56608 0
M  V30 26191 H 2710.29 -0.320126 0.634855 0
M  V30 26192 H 2712.89 -0.218585 1.94274 0
M  V30 26193 H 2711.59 -1.12644 3.94638 0
M  V30 26194 H 2711.13 -2.54649 2.99862 0
M  V30 26195 H 2713.14 -3.79274 3.19947 0
M  V30 26196 N 2712.31 -1.49846 -0.48825 0
M  V30 26197 C 2713.72 -1.5303 -1.06952 0
M  V30 26198 C 2714.08 -0.323831 -1.93509 0
M  V30 26199 O 2713.2 0.565079 -2.08892 0
M  V30 26200 C 2713.8 -2.77311 -1.94639 0
M  V30 26201 C 2712.35 -2.83231 -2.47905 0
M  V30 26202 C 2711.5 -2.47108 -1.25829 0
M  V30 26203 H 2714.45 -1.56359 -0.271598 0
M  V30 26204 H 2714.47 -2.58195 -2.79492 0
M  V30 26205 H 2713.99 -3.65102 -1.31614 0
M  V30 26206 H 2712.09 -1.99751 -3.14532 0
M  V30 26207 H 2712.2 -3.85714 -2.84186 0
M  V30 26208 H 2710.56 -1.99166 -1.58761 0
M  V30 26209 H 2711.35 -3.37188 -0.644934 0
M  V30 26210 N 2713.79 0.740218 -1.39135 0
M  V30 26211 C 2715.02 1.52947 -1.39337 0
M  V30 26212 C 2715.43 1.88795 0.0134676 0
M  V30 26213 O 2714.79 1.53732 0.983497 0
M  V30 26214 C 2714.84 2.8203 -2.26145 0
M  V30 26215 O 2714.56 2.47706 -3.61349 0
M  V30 26216 C 2716.06 3.7609 -2.34673 0
M  V30 26217 H 2713.28 0.47282 -0.476111 0
M  V30 26218 H 2715.83 0.915068 -1.82885 0
M  V30 26219 H 2713.98 3.39814 -1.86024 0
M  V30 26220 H 2714.4 3.30588 -4.072 0
M  V30 26221 H 2715.87 4.63574 -2.99672 0
M  V30 26222 H 2716.35 4.17472 -1.36433 0
M  V30 26223 H 2716.95 3.24226 -2.75242 0
M  V30 26224 N 2715.27 1.24225 0.969846 0
M  V30 26225 C 2716.52 1.07853 1.70916 0
M  V30 26226 C 2716.84 -0.383729 1.91187 0
M  V30 26227 O 2716.11 -1.27408 1.48808 0
M  V30 26228 H 2714.69 0.396114 0.633327 0
M  V30 26229 H 2717.35 1.5611 1.16686 0
M  V30 26230 H 2716.45 1.57487 2.69452 0
M  V30 26231 N 2716.75 -1.1702 1.05565 0
M  V30 26232 C 2717.99 -1.87373 0.767969 0
M  V30 26233 C 2718.32 -1.81266 -0.705193 0
M  V30 26234 O 2717.58 -1.21799 -1.53178 0
M  V30 26235 C 2717.88 -3.36704 1.19855 0
M  V30 26236 C 2717.54 -3.63012 2.67456 0
M  V30 26237 C 2716.2 -3.69902 3.07776 0
M  V30 26238 C 2718.56 -3.74183 3.62818 0
M  V30 26239 C 2715.88 -3.85455 4.42314 0
M  V30 26240 C 2718.24 -3.91255 4.97093 0
M  V30 26241 C 2716.9 -3.96385 5.37062 0
M  V30 26242 H 2716.17 -0.685645 0.28102 0
M  V30 26243 H 2718.82 -1.38412 1.32341 0
M  V30 26244 H 2717.12 -3.87746 0.562164 0
M  V30 26245 H 2718.82 -3.89508 0.953107 0
M  V30 26246 H 2715.41 -3.58278 2.35234 0
M  V30 26247 H 2719.59 -3.68177 3.32805 0
M  V30 26248 H 2714.85 -3.87676 4.72776 0
M  V30 26249 H 2719.02 -3.9884 5.70876 0
M  V30 26250 H 2716.65 -4.08189 6.41316 0
M  V30 26251 N 2718.23 -0.837197 -1.33524 0
M  V30 26252 C 2719.45 -0.444581 -2.02579 0
M  V30 26253 C 2719.88 0.945977 -1.62582 0
M  V30 26254 O 2719.23 1.61819 -0.817576 0
M  V30 26255 C 2719.28 -0.571068 -3.56049 0
M  V30 26256 O 2718.39 0.403359 -4.10423 0
M  V30 26257 H 2717.73 -0.180969 -0.638863 0
M  V30 26258 H 2720.26 -1.13157 -1.7046 0
M  V30 26259 H 2720.27 -0.452095 -4.05487 0
M  V30 26260 H 2718.94 -1.58519 -3.84506 0
M  V30 26261 H 2717.52 0.242082 -3.72113 0
M  V30 26262 N 2719.7 1.45999 -0.593476 0
M  V30 26263 C 2720.93 2.06408 -0.0890005 0
M  V30 26264 C 2721.34 1.44108 1.22595 0
M  V30 26265 O 2720.68 0.544429 1.75447 0
M  V30 26266 C 2720.75 3.59228 0.139839 0
M  V30 26267 C 2720.41 4.43783 -1.09115 0
M  V30 26268 C 2721.41 4.79647 -2.00586 0
M  V30 26269 C 2719.09 4.84754 -1.31602 0
M  V30 26270 C 2721.09 5.55323 -3.12883 0
M  V30 26271 C 2718.77 5.60186 -2.44202 0
M  V30 26272 C 2719.77 5.95386 -3.34671 0
M  V30 26273 O 2719.46 6.69291 -4.45314 0
M  V30 26274 H 2719.19 0.673379 -0.0594732 0
M  V30 26275 H 2721.75 1.88451 -0.817033 0
M  V30 26276 H 2719.98 3.75533 0.922606 0
M  V30 26277 H 2721.66 4.01528 0.594157 0
M  V30 26278 H 2722.43 4.48564 -1.84433 0
M  V30 26279 H 2718.31 4.568 -0.620881 0
M  V30 26280 H 2721.85 5.82715 -3.83521 0
M  V30 26281 H 2717.75 5.90684 -2.60313 0
M  V30 26282 H 2718.52 6.87727 -4.43817 0
M  V30 26283 N 2721.18 0.331843 1.54067 0
M  V30 26284 C 2722.13 -0.545781 2.26106 0
M  V30 26285 C 2723.12 -1.1117 1.27818 0
M  V30 26286 O 2724.33 -1.05879 1.45567 0
M  V30 26287 H 2720.71 -0.19467 0.726366 0
M  V30 26288 H 2722.68 0.0839834 2.98282 0
M  V30 26289 C 2721.43 -1.69087 3.03817 0
M  V30 26290 H 2720.75 -1.26466 3.79271 0
M  V30 26291 H 2722.19 -2.28037 3.57457 0
M  V30 26292 C 2720.65 -2.61339 2.12611 0
M  V30 26293 O 2721.18 -3.63277 1.71443 0
M  V30 26294 N 2719.38 -2.2976 1.77929 0
M  V30 26295 H 2718.93 -1.46905 2.11605 0
M  V30 26296 H 2718.89 -2.91745 1.17185 0
M  V30 26297 N 2722.66 -1.57485 0.0601958 0
M  V30 26298 C 2723.94 -1.84416 -0.651923 0
M  V30 26299 C 2724.32 -0.950394 -1.88496 0
M  V30 26300 O 2723.67 -0.0137121 -2.28496 0
M  V30 26301 C 2723.88 -3.34348 -1.00063 0
M  V30 26302 C 2725.22 -4.0158 -1.37908 0
M  V30 26303 O 2726.25 -3.39026 -1.09271 0
M  V30 26304 O 2725.11 -5.11891 -1.9139 0
M  V30 26305 H 2722.2 -0.761461 -0.322655 0
M  V30 26306 H 2724.75 -1.6946 0.0902457 0
M  V30 26307 H 2723.52 -3.91102 -0.124394 0
M  V30 26308 H 2723.14 -3.54524 -1.79995 0
M  V30 26309 N 2724.14 0.213268 -1.5615 0
M  V30 26310 C 2725.07 1.26738 -1.96111 0
M  V30 26311 C 2726.05 1.48449 -0.830475 0
M  V30 26312 O 2727.23 1.60493 -1.09342 0
M  V30 26313 C 2724.36 2.61547 -2.28497 0
M  V30 26314 C 2723.32 2.54479 -3.44129 0
M  V30 26315 C 2722.64 3.93393 -3.62141 0
M  V30 26316 C 2723.94 2.08548 -4.78858 0
M  V30 26317 H 2725.64 0.935384 -2.84413 0
M  V30 26318 H 2723.18 0.448516 -1.36837 0
M  V30 26319 H 2725.14 3.35455 -2.55045 0
M  V30 26320 H 2723.86 2.96451 -1.37057 0
M  V30 26321 H 2722.52 1.83027 -3.17642 0
M  V30 26322 H 2722.17 4.25619 -2.68063 0
M  V30 26323 H 2721.87 3.89544 -4.3992 0
M  V30 26324 H 2723.39 4.68951 -3.91046 0
M  V30 26325 H 2724.81 2.72204 -5.04557 0
M  V30 26326 H 2723.2 2.1574 -5.59979 0
M  V30 26327 H 2724.27 1.03802 -4.73659 0
M  V30 26328 N 2725.62 1.50103 0.480296 0
M  V30 26329 C 2726.55 1.71218 1.58766 0
M  V30 26330 C 2727.53 0.561025 1.60582 0
M  V30 26331 O 2728.71 0.799158 1.76995 0
M  V30 26332 C 2725.84 1.79783 2.97145 0
M  V30 26333 C 2724.8 2.94894 3.10196 0
M  V30 26334 C 2724.12 2.88592 4.50132 0
M  V30 26335 C 2725.42 4.35539 2.88276 0
M  V30 26336 H 2727.12 2.63933 1.4135 0
M  V30 26337 H 2724.66 1.2701 0.678569 0
M  V30 26338 H 2726.62 1.9314 3.74533 0
M  V30 26339 H 2725.34 0.836827 3.15697 0
M  V30 26340 H 2724 2.81173 2.35239 0
M  V30 26341 H 2723.65 1.90357 4.65589 0
M  V30 26342 H 2723.35 3.65864 4.59801 0
M  V30 26343 H 2724.87 3.03985 5.29552 0
M  V30 26344 H 2726.28 4.49834 3.55419 0
M  V30 26345 H 2724.68 5.14191 3.09399 0
M  V30 26346 H 2725.75 4.48547 1.84211 0
M  V30 26347 N 2727.09 -0.732829 1.39526 0
M  V30 26348 C 2728.02 -1.86003 1.41157 0
M  V30 26349 C 2729.01 -1.67868 0.274644 0
M  V30 26350 O 2730.19 -1.88155 0.480778 0
M  V30 26351 C 2727.32 -3.23776 1.25644 0
M  V30 26352 C 2726.27 -3.56552 2.36759 0
M  V30 26353 C 2725.6 -4.93285 2.06334 0
M  V30 26354 C 2726.9 -3.59303 3.79076 0
M  V30 26355 H 2728.59 -1.84895 2.35487 0
M  V30 26356 H 2726.14 -0.888142 1.13349 0
M  V30 26357 H 2728.09 -4.02308 1.25405 0
M  V30 26358 H 2726.82 -3.25416 0.277829 0
M  V30 26359 H 2725.48 -2.80351 2.36218 0
M  V30 26360 H 2725.12 -4.91508 1.06906 0
M  V30 26361 H 2724.82 -5.16182 2.80766 0
M  V30 26362 H 2726.35 -5.74171 2.07749 0
M  V30 26363 H 2727.76 -4.27907 3.81534 0
M  V30 26364 H 2726.16 -3.9372 4.52885 0
M  V30 26365 H 2727.23 -2.5906 4.09897 0
M  V30 26366 N 2728.57 -1.24737 -0.963244 0
M  V30 26367 C 2729.82 -1.09134 -1.70931 0
M  V30 26368 C 2730.15 0.368239 -1.90677 0
M  V30 26369 O 2729.43 1.2719 -1.47149 0
M  V30 26370 C 2729.71 -1.83664 -3.09741 0
M  V30 26371 C 2729.56 -3.37399 -2.97459 0
M  V30 26372 C 2730.88 -1.61289 -4.0948 0
M  V30 26373 H 2728 -0.397849 -0.620391 0
M  V30 26374 H 2730.64 -1.53461 -1.12025 0
M  V30 26375 H 2728.79 -1.45986 -3.60028 0
M  V30 26376 H 2730.46 -3.84701 -2.54564 0
M  V30 26377 H 2728.71 -3.65551 -2.3357 0
M  V30 26378 H 2729.38 -3.84752 -3.95815 0
M  V30 26379 H 2731.85 -1.94073 -3.68069 0
M  V30 26380 H 2730.73 -2.15886 -5.04662 0
M  V30 26381 H 2730.99 -0.552179 -4.38638 0
M  V30 26382 N 2730.05 1.16459 -1.06184 0
M  V30 26383 C 2731.29 1.88638 -0.787081 0
M  V30 26384 C 2731.65 1.79779 0.674061 0
M  V30 26385 O 2732.86 2.46872 1.06336 0
M  V30 26386 C 2731.13 3.34201 -1.26666 0
M  V30 26387 S 2732.69 4.24245 -1.12079 0
M  V30 26388 H 2729.5 0.651139 -0.28555 0
M  V30 26389 H 2732.11 1.40585 -1.35853 0
M  V30 26390 H 2730.81 3.38188 -2.32502 0
M  V30 26391 H 2730.34 3.87303 -0.689909 0
M  V30 26392 H 2732.36 4.96174 -0.0510213 0
M  V30 26393 N 2731.53 0.844266 1.33079 0
M  V30 26394 C 2732.44 0.283963 2.32875 0
M  V30 26395 C 2733.45 -0.592818 1.6359 0
M  V30 26396 O 2734.63 -0.495658 1.95206 0
M  V30 26397 C 2731.7 -0.527223 3.42668 0
M  V30 26398 C 2730.76 0.374469 4.27664 0
M  V30 26399 C 2729.99 -0.398096 5.32213 0
M  V30 26400 O 2730.21 -1.62922 5.46638 0
M  V30 26401 O 2729.15 0.230705 6.01458 0
M  V30 26402 H 2732.97 1.1105 2.82669 0
M  V30 26403 H 2730.56 0.606927 1.36516 0
M  V30 26404 H 2732.44 -0.988006 4.09654 0
M  V30 26405 H 2731.11 -1.33073 2.95082 0
M  V30 26406 H 2730.02 0.883208 3.63525 0
M  V30 26407 H 2731.35 1.14289 4.78747 0
M  V30 26408 N 2733.01 -1.45682 0.60121 0
M  V30 26409 C 2734.28 -1.95582 0.0262003 0
M  V30 26410 C 2734.66 -1.54372 -1.43987 0
M  V30 26411 O 2734.01 -0.803217 -2.13917 0
M  V30 26412 C 2734.22 -3.48321 0.217618 0
M  V30 26413 C 2735.57 -4.24494 0.0950822 0
M  V30 26414 O 2736.59 -3.55895 0.147408 0
M  V30 26415 O 2735.45 -5.46494 -0.0251649 0
M  V30 26416 H 2732.55 -0.826063 -0.0393543 0
M  V30 26417 H 2735.09 -1.55878 0.670825 0
M  V30 26418 H 2733.86 -3.71264 1.23608 0
M  V30 26419 H 2733.49 -3.949 -0.462571 0
M  V30 26420 N 2734.48 -0.340009 -1.53889 0
M  V30 26421 C 2735.73 0.258569 -2.00036 0
M  V30 26422 C 2736.05 1.5194 -1.23182 0
M  V30 26423 O 2737.25 2.195 -1.59788 0
M  V30 26424 C 2735.71 0.511296 -3.5625 0
M  V30 26425 C 2735.32 -0.733427 -4.41956 0
M  V30 26426 C 2737.06 1.06893 -4.10821 0
M  V30 26427 C 2734.97 -0.451694 -5.89673 0
M  V30 26428 H 2733.9 0.100396 -0.747286 0
M  V30 26429 H 2736.55 -0.454789 -1.77775 0
M  V30 26430 H 2734.93 1.28526 -3.74562 0
M  V30 26431 H 2736.1 -1.50823 -4.35418 0
M  V30 26432 H 2734.42 -1.21244 -3.98358 0
M  V30 26433 H 2737.02 1.29461 -5.18791 0
M  V30 26434 H 2737.36 2.02337 -3.63821 0
M  V30 26435 H 2737.89 0.355748 -3.96206 0
M  V30 26436 H 2734.63 -1.37576 -6.409 0
M  V30 26437 H 2734.15 0.285088 -5.99122 0
M  V30 26438 H 2735.83 -0.0676204 -6.46965 0
M  V30 26439 N 2735.96 1.57451 -0.0685468 0
M  V30 26440 C 2737.24 1.84759 0.642134 0
M  V30 26441 C 2737.62 0.960377 1.87989 0
M  V30 26442 O 2736.97 0.0258296 2.28485 0
M  V30 26443 C 2737.18 3.34874 0.982888 0
M  V30 26444 C 2738.53 4.02306 1.35777 0
M  V30 26445 O 2739.55 3.396 1.07471 0
M  V30 26446 O 2738.41 5.12899 1.88672 0
M  V30 26447 H 2735.5 0.763161 0.318612 0
M  V30 26448 H 2738.05 1.6941 -0.0992313 0
M  V30 26449 H 2736.82 3.91163 0.103652 0
M  V30 26450 H 2736.44 3.55474 1.78112 0
M  V30 26451 N 2737.44 -0.204984 1.56261 0
M  V30 26452 C 2738.35 -1.27473 1.96946 0
M  V30 26453 C 2739.37 -1.5036 0.875662 0
M  V30 26454 O 2740.54 -1.63167 1.18061 0
M  V30 26455 C 2737.61 -2.60111 2.29223 0
M  V30 26456 C 2736.67 -2.45381 3.52259 0
M  V30 26457 C 2735.9 -3.71694 3.82987 0
M  V30 26458 O 2736.13 -4.75436 3.15146 0
M  V30 26459 O 2735.06 -3.67815 4.76441 0
M  V30 26460 H 2738.89 -0.959477 2.88145 0
M  V30 26461 H 2736.47 -0.409192 1.43687 0
M  V30 26462 H 2738.35 -3.38415 2.51104 0
M  V30 26463 H 2737.03 -2.91283 1.41195 0
M  V30 26464 H 2735.93 -1.65221 3.35638 0
M  V30 26465 H 2737.27 -2.19144 4.40723 0
M  V30 26466 N 2738.92 -1.50356 -0.472329 0
M  V30 26467 C 2740.16 -1.6292 -1.23436 0
M  V30 26468 C 2740.52 -0.321834 -1.89283 0
M  V30 26469 O 2741.72 -0.322899 -2.66854 0
M  V30 26470 C 2740 -2.77594 -2.25114 0
M  V30 26471 S 2741.55 -3.10284 -3.10273 0
M  V30 26472 H 2738.37 -0.574349 -0.4191 0
M  V30 26473 H 2740.97 -1.88134 -0.531588 0
M  V30 26474 H 2739.68 -3.71069 -1.75318 0
M  V30 26475 H 2739.21 -2.54462 -3.00021 0
M  V30 26476 H 2741.22 -2.54014 -4.26253 0
M  V30 26477 N 2740.4 0.725419 -1.39912 0
M  V30 26478 C 2741.62 1.51968 -1.4114 0
M  V30 26479 C 2742.05 1.88097 -0.010295 0
M  V30 26480 O 2741.41 1.52585 0.979157 0
M  V30 26481 C 2741.45 2.77773 -2.29945 0
M  V30 26482 O 2740.56 3.74085 -1.73593 0
M  V30 26483 H 2739.9 0.458561 -0.480227 0
M  V30 26484 H 2742.43 0.894217 -1.84024 0
M  V30 26485 H 2742.44 3.26407 -2.44791 0
M  V30 26486 H 2741.11 2.5081 -3.31764 0
M  V30 26487 H 2739.69 3.32891 -1.68041 0
M  V30 26488 N 2741.88 1.25246 0.956615 0
M  V30 26489 C 2742.82 1.05244 2.07428 0
M  V30 26490 C 2743.82 -0.0160427 1.69392 0
M  V30 26491 O 2745.02 0.139413 1.79459 0
M  V30 26492 H 2741.4 0.323385 0.678915 0
M  V30 26493 H 2743.37 1.99999 2.21456 0
M  V30 26494 C 2742.12 0.685762 3.4087 0
M  V30 26495 H 2741.44 1.49974 3.70605 0
M  V30 26496 H 2742.88 0.585488 4.19938 0
M  V30 26497 C 2741.34 -0.608024 3.31368 0
M  V30 26498 O 2741.87 -1.65069 3.66217 0
M  V30 26499 N 2740.08 -0.592905 2.84487 0
M  V30 26500 H 2739.62 0.255965 2.56325 0
M  V30 26501 H 2739.58 -1.45872 2.78512 0
M  V30 26502 N 2743.35 -1.15894 1.068 0
M  V30 26503 C 2744.6 -1.86179 0.786243 0
M  V30 26504 C 2744.92 -1.82403 -0.689515 0
M  V30 26505 O 2744.19 -1.2611 -1.49911 0
M  V30 26506 H 2742.77 -0.68931 0.287856 0
M  V30 26507 H 2745.43 -1.40518 1.35058 0
M  V30 26508 H 2744.53 -2.91475 1.11575 0
M  V30 26509 N 2744.83 -0.851312 -1.32629 0
M  V30 26510 C 2746.11 -0.374482 -1.91982 0
M  V30 26511 C 2746.49 1.14158 -1.7757 0
M  V30 26512 O 2745.84 1.9617 -1.17174 0
M  V30 26513 C 2746.05 -0.835148 -3.3886 0
M  V30 26514 C 2747.39 -0.850383 -4.15997 0
M  V30 26515 O 2748.42 -0.779566 -3.47565 0
M  V30 26516 O 2747.28 -0.949575 -5.38187 0
M  V30 26517 H 2744.37 -0.108554 -0.819845 0
M  V30 26518 H 2746.92 -0.937991 -1.41421 0
M  V30 26519 H 2745.69 -1.8782 -3.43278 0
M  V30 26520 H 2745.31 -0.248902 -3.9682 0
M  V30 26521 N 2746.31 1.45361 -0.608928 0
M  V30 26522 C 2747.26 2.32282 0.121598 0
M  V30 26523 C 2748.25 1.46048 0.858275 0
M  V30 26524 O 2749.46 1.62524 0.773689 0
M  V30 26525 H 2745.83 0.749754 0.0580728 0
M  V30 26526 H 2747.8 2.91676 -0.629918 0
M  V30 26527 C 2746.55 3.29686 1.10464 0
M  V30 26528 H 2745.88 3.96037 0.547208 0
M  V30 26529 H 2747.32 3.93232 1.58569 0
M  V30 26530 C 2745.77 2.56957 2.17886 0
M  V30 26531 O 2746.3 2.35195 3.25648 0
M  V30 26532 N 2744.51 2.1707 1.93207 0
M  V30 26533 H 2744.06 2.34969 1.0558 0
M  V30 26534 H 2744.02 1.68731 2.65287 0
M  V30 26535 N 2747.79 0.348166 1.53706 0
M  V30 26536 C 2748.72 -0.498726 2.28112 0
M  V30 26537 C 2749.7 -1.09873 1.29853 0
M  V30 26538 O 2750.88 -1.11926 1.58702 0
M  V30 26539 C 2748.01 -1.64748 3.05738 0
M  V30 26540 C 2746.97 -1.17558 4.11539 0
M  V30 26541 C 2746.29 -2.41321 4.77146 0
M  V30 26542 C 2747.59 -0.272752 5.21587 0
M  V30 26543 H 2749.29 0.121986 2.99151 0
M  V30 26544 H 2746.83 0.0601095 1.43874 0
M  V30 26545 H 2748.79 -2.24643 3.5653 0
M  V30 26546 H 2747.51 -2.29516 2.32358 0
M  V30 26547 H 2746.17 -0.599419 3.61666 0
M  V30 26548 H 2745.82 -3.04507 4.00356 0
M  V30 26549 H 2745.52 -2.10427 5.4863 0
M  V30 26550 H 2747.04 -3.01934 5.30724 0
M  V30 26551 H 2748.46 -0.778679 5.67987 0
M  V30 26552 H 2746.85 -0.0554795 6.00074 0
M  V30 26553 H 2747.92 0.689869 4.79968 0
M  V30 26554 N 2749.27 -1.57412 0.0768958 0
M  V30 26555 C 2750.51 -1.95559 -0.594642 0
M  V30 26556 C 2750.87 -0.956687 -1.66468 0
M  V30 26557 O 2752.07 -1.226 -2.39213 0
M  V30 26558 C 2750.34 -3.38325 -1.152 0
M  V30 26559 S 2751.9 -3.98453 -1.83795 0
M  V30 26560 H 2748.72 -0.68386 -0.194567 0
M  V30 26561 H 2751.32 -1.94908 0.151967 0
M  V30 26562 H 2750.02 -4.08805 -0.361458 0
M  V30 26563 H 2749.56 -3.4253 -1.93485 0
M  V30 26564 H 2751.57 -3.85773 -3.1208 0
M  V30 26565 N 2750.74 0.196695 -1.56368 0
M  V30 26566 C 2751.68 1.2678 -1.90943 0
M  V30 26567 C 2752.69 1.41791 -0.799953 0
M  V30 26568 O 2753.88 1.42245 -1.07836 0
M  V30 26569 C 2750.98 2.64017 -2.12482 0
M  V30 26570 C 2750.15 2.70635 -3.43621 0
M  V30 26571 C 2749.21 3.89056 -3.54291 0
M  V30 26572 O 2748.24 3.76233 -4.27126 0
M  V30 26573 N 2749.44 5.04442 -2.87261 0
M  V30 26574 H 2752.2 0.974367 -2.83419 0
M  V30 26575 H 2749.76 0.386621 -1.57216 0
M  V30 26576 H 2751.76 3.41661 -2.1691 0
M  V30 26577 H 2750.33 2.85855 -1.26513 0
M  V30 26578 H 2749.55 1.79277 -3.51075 0
M  V30 26579 H 2750.83 2.72047 -4.29963 0
M  V30 26580 H 2750.23 5.17758 -2.2791 0
M  V30 26581 H 2748.79 5.80039 -2.97318 0
M  V30 26582 N 2752.22 1.50604 0.464349 0
M  V30 26583 C 2753.64 1.3818 0.79866 0
M  V30 26584 C 2753.84 0.443115 1.96567 0
M  V30 26585 O 2752.89 -0.11177 2.52253 0
M  V30 26586 C 2754.21 2.79685 1.10439 0
M  V30 26587 C 2755.76 2.88647 1.21045 0
M  V30 26588 C 2756.23 4.31001 1.54927 0
M  V30 26589 N 2757.72 4.33983 1.61905 0
M  V30 26590 C 2758.46 5.41132 1.8964 0
M  V30 26591 N 2757.95 6.5848 2.1535 0
M  V30 26592 N 2759.75 5.28583 1.91198 0
M  V30 26593 H 2751.9 2.10204 -0.30464 0
M  V30 26594 H 2754.16 0.945123 -0.073797 0
M  V30 26595 H 2753.87 3.50242 0.319872 0
M  V30 26596 H 2753.74 3.17346 2.03891 0
M  V30 26597 H 2756.13 2.18304 1.98563 0
M  V30 26598 H 2756.21 2.5452 0.255568 0
M  V30 26599 H 2755.85 5.01883 0.77946 0
M  V30 26600 H 2755.78 4.6262 2.51576 0
M  V30 26601 H 2758.27 3.49368 1.44049 0
M  V30 26602 H 2758.59 7.35945 2.35805 0
M  V30 26603 H 2756.93 6.61643 2.12728 0
M  V30 26604 H 2760.12 4.359 1.70614 0
M  V30 26605 H 2760.29 6.12174 2.12477 0
M  V30 26606 N 2753.7 -0.717989 1.40295 0
M  V30 26607 C 2754.65 -1.85341 1.4054 0
M  V30 26608 C 2755.64 -1.66964 0.286222 0
M  V30 26609 O 2756.85 -1.74098 0.457135 0
M  V30 26610 H 2753.22 -0.610382 0.439247 0
M  V30 26611 H 2755.19 -1.82251 2.36278 0
M  V30 26612 C 2753.94 -3.23183 1.28251 0
M  V30 26613 H 2753.27 -3.37928 2.13646 0
M  V30 26614 H 2754.71 -4.02771 1.32481 0
M  V30 26615 C 2753.17 -3.36899 -0.00749108 0
M  V30 26616 O 2753.7 -3.8978 -0.971323 0
M  V30 26617 N 2751.9 -2.905 -0.0761969 0
M  V30 26618 H 2751.45 -2.47655 0.708863 0
M  V30 26619 H 2751.41 -3.00057 -0.938793 0
M  V30 26620 N 2755.18 -1.25752 -0.94996 0
M  V30 26621 C 2756.14 -1.06618 -2.02892 0
M  V30 26622 C 2757.14 -0.0174188 -1.60791 0
M  V30 26623 O 2758.33 -0.260033 -1.72248 0
M  V30 26624 C 2755.46 -0.61981 -3.35218 0
M  V30 26625 H 2756.66 -2.02403 -2.21298 0
M  V30 26626 H 2754.21 -1.08225 -1.1277 0
M  V30 26627 H 2754.94 0.340429 -3.22508 0
M  V30 26628 H 2754.73 -1.37698 -3.67126 0
M  V30 26629 H 2756.22 -0.507516 -4.14505 0
M  V30 26630 N 2756.66 1.15326 -1.07413 0
M  V30 26631 C 2757.93 1.82229 -0.710764 0
M  V30 26632 C 2758.31 1.95078 0.806697 0
M  V30 26633 O 2757.66 1.50271 1.72136 0
M  V30 26634 C 2757.87 3.18541 -1.42592 0
M  V30 26635 C 2759.22 3.94171 -1.57843 0
M  V30 26636 O 2760.24 3.28097 -1.38674 0
M  V30 26637 O 2759.1 5.12635 -1.89389 0
M  V30 26638 H 2756.2 0.787355 -0.252984 0
M  V30 26639 H 2758.74 1.22432 -1.1751 0
M  V30 26640 H 2757.51 3.04291 -2.46013 0
M  V30 26641 H 2757.14 3.86025 -0.9524 0
M  V30 26642 N 2758.13 0.858334 1.32176 0
M  V30 26643 C 2759.37 0.469857 1.98926 0
M  V30 26644 C 2759.74 -0.957431 1.66425 0
M  V30 26645 O 2760.94 -1.45065 2.26295 0
M  V30 26646 C 2759.21 0.70635 3.5035 0
M  V30 26647 S 2760.77 0.415995 4.36824 0
M  V30 26648 H 2757.59 0.175867 0.688906 0
M  V30 26649 H 2760.19 1.11184 1.60805 0
M  V30 26650 H 2758.89 1.74414 3.71494 0
M  V30 26651 H 2758.42 0.050926 3.93367 0
M  V30 26652 H 2760.44 -0.756495 4.90399 0
M  V30 26653 N 2759.61 -1.45036 0.616628 0
M  V30 26654 C 2760.86 -2.01384 0.112897 0
M  V30 26655 C 2761.17 -1.48971 -1.26755 0
M  V30 26656 O 2762.38 -1.97354 -1.86451 0
M  V30 26657 C 2760.84 -3.59583 0.15112 0
M  V30 26658 C 2760.44 -4.20992 1.53198 0
M  V30 26659 C 2762.19 -4.2346 -0.2969 0
M  V30 26660 C 2760.1 -5.7137 1.5261 0
M  V30 26661 H 2759.03 -0.75302 0.0384387 0
M  V30 26662 H 2761.68 -1.66411 0.773291 0
M  V30 26663 H 2760.06 -3.91787 -0.576101 0
M  V30 26664 H 2761.23 -4.00348 2.28163 0
M  V30 26665 H 2759.55 -3.69344 1.92286 0
M  V30 26666 H 2762.14 -5.33738 -0.320618 0
M  V30 26667 H 2762.49 -3.94772 -1.32138 0
M  V30 26668 H 2763.02 -3.96006 0.377349 0
M  V30 26669 H 2759.76 -6.04771 2.52848 0
M  V30 26670 H 2759.28 -5.9418 0.819168 0
M  V30 26671 H 2760.96 -6.34738 1.25368 0
M  V30 26672 N 2761.09 -0.356312 -1.53519 0
M  V30 26673 C 2762.04 0.50974 -2.26946 0
M  V30 26674 C 2763.03 1.09123 -1.29571 0
M  V30 26675 O 2764.24 1.0355 -1.47233 0
M  V30 26676 H 2760.61 0.183089 -0.729371 0
M  V30 26677 H 2762.58 -0.131427 -2.9811 0
M  V30 26678 C 2761.33 1.64232 -3.06469 0
M  V30 26679 H 2760.66 1.20416 -3.81235 0
M  V30 26680 H 2762.1 2.22321 -3.61039 0
M  V30 26681 C 2760.56 2.57924 -2.16742 0
M  V30 26682 O 2761.09 3.60503 -1.77201 0
M  V30 26683 N 2759.29 2.269 -1.81562 0
M  V30 26684 H 2758.84 1.4352 -2.13915 0
M  V30 26685 H 2758.8 2.89844 -1.21812 0
M  V30 26686 N 2762.57 1.57369 -0.0852427 0
M  V30 26687 C 2763.79 1.98747 0.592838 0
M  V30 26688 C 2764.22 0.963717 1.61537 0
M  V30 26689 O 2763.58 -0.0690391 1.81169 0
M  V30 26690 C 2763.62 3.39121 1.22593 0
M  V30 26691 O 2762.73 3.39461 2.34179 0
M  V30 26692 H 2762.07 0.646532 0.151303 0
M  V30 26693 H 2764.6 2.03944 -0.163739 0
M  V30 26694 H 2764.61 3.76601 1.56959 0
M  V30 26695 H 2763.28 4.13158 0.476759 0
M  V30 26696 H 2761.86 3.13767 2.01507 0
M  V30 26697 N 2764.05 -0.188399 1.5647 0
M  V30 26698 C 2765.46 -0.752464 1.70865 0
M  V30 26699 C 2765.81 -1.83556 0.692938 0
M  V30 26700 O 2764.93 -2.15885 -0.149269 0
M  V30 26701 C 2765.53 -1.37168 3.09791 0
M  V30 26702 C 2764.09 -1.88275 3.25929 0
M  V30 26703 C 2763.23 -0.755212 2.66818 0
M  V30 26704 H 2766.19 0.0367687 1.58657 0
M  V30 26705 H 2766.21 -2.24117 3.07493 0
M  V30 26706 H 2765.72 -0.583151 3.83694 0
M  V30 26707 H 2763.82 -2.69826 2.56953 0
M  V30 26708 H 2763.93 -2.03994 4.33501 0
M  V30 26709 H 2762.3 -1.17124 2.26172 0
M  V30 26710 H 2763.08 0.0211841 3.43293 0
M  V30 26711 N 2765.53 -1.50848 -0.456355 0
M  V30 26712 C 2766.77 -1.62252 -1.20494 0
M  V30 26713 C 2767.09 -0.331872 -1.92155 0
M  V30 26714 O 2766.36 0.651411 -1.84752 0
M  V30 26715 H 2764.94 -0.597926 -0.447765 0
M  V30 26716 H 2767.61 -1.87694 -0.525066 0
M  V30 26717 H 2766.7 -2.44092 -1.94487 0
M  V30 26718 N 2767 0.710538 -1.40674 0
M  V30 26719 C 2768.23 1.50462 -1.42744 0
M  V30 26720 C 2768.65 1.88076 -0.0302447 0
M  V30 26721 O 2768.01 1.53615 0.962918 0
M  V30 26722 C 2768.06 2.75318 -2.32878 0
M  V30 26723 O 2767.16 3.72222 -1.77551 0
M  V30 26724 H 2766.5 0.453441 -0.485064 0
M  V30 26725 H 2769.03 0.874648 -1.84962 0
M  V30 26726 H 2769.04 3.23792 -2.48239 0
M  V30 26727 H 2767.72 2.47277 -3.34405 0
M  V30 26728 H 2766.3 3.3109 -1.71562 0
M  V30 26729 N 2768.48 1.26254 0.943277 0
M  V30 26730 C 2769.71 1.1428 1.72115 0
M  V30 26731 C 2770.12 -0.304911 1.86727 0
M  V30 26732 O 2769.46 -1.22074 1.37272 0
M  V30 26733 C 2769.52 1.73657 3.14775 0
M  V30 26734 C 2769.19 3.2274 3.23555 0
M  V30 26735 C 2770.19 4.19584 3.06993 0
M  V30 26736 C 2767.87 3.63163 3.47013 0
M  V30 26737 C 2769.86 5.54831 3.13753 0
M  V30 26738 C 2767.55 4.98544 3.53408 0
M  V30 26739 C 2768.55 5.94188 3.36794 0
M  V30 26740 O 2768.24 7.27104 3.42893 0
M  V30 26741 H 2767.97 0.398882 0.545774 0
M  V30 26742 H 2770.52 1.6733 1.19121 0
M  V30 26743 H 2768.75 1.15067 3.69184 0
M  V30 26744 H 2770.44 1.56619 3.74467 0
M  V30 26745 H 2771.21 3.89693 2.88729 0
M  V30 26746 H 2767.09 2.89205 3.59001 0
M  V30 26747 H 2770.63 6.29463 3.00703 0
M  V30 26748 H 2766.53 5.28097 3.71192 0
M  V30 26749 H 2767.3 7.35349 3.5945 0
M  V30 26750 N 2769.96 -1.14755 1.08024 0
M  V30 26751 C 2771.38 -1.37688 0.807096 0
M  V30 26752 C 2771.58 -1.92807 -0.58547 0
M  V30 26753 O 2770.63 -2.13824 -1.34297 0
M  V30 26754 C 2771.94 -2.34158 1.88655 0
M  V30 26755 C 2773.49 -2.47805 1.91211 0
M  V30 26756 C 2773.97 -3.47571 2.98259 0
M  V30 26757 N 2775.46 -3.55111 2.97406 0
M  V30 26758 C 2776.19 -4.32145 3.76879 0
M  V30 26759 N 2775.69 -5.12455 4.66221 0
M  V30 26760 N 2777.48 -4.27302 3.65198 0
M  V30 26761 H 2769.63 -0.773225 1.97826 0
M  V30 26762 H 2771.9 -0.402593 0.858267 0
M  V30 26763 H 2771.6 -2.00786 2.88752 0
M  V30 26764 H 2771.48 -3.34017 1.7525 0
M  V30 26765 H 2773.86 -2.80471 0.917613 0
M  V30 26766 H 2773.94 -1.47921 2.08694 0
M  V30 26767 H 2773.59 -3.15639 3.97912 0
M  V30 26768 H 2773.52 -4.47226 2.78022 0
M  V30 26769 H 2776.01 -2.97797 2.32649 0
M  V30 26770 H 2776.32 -5.68499 5.23478 0
M  V30 26771 H 2774.67 -5.11737 4.70266 0
M  V30 26772 H 2777.86 -3.63631 2.94772 0
M  V30 26773 H 2778.03 -4.87088 4.27375 0
M  V30 26774 N 2771.44 -0.865331 -1.31719 0
M  V30 26775 C 2772.68 -0.4804 -1.98674 0
M  V30 26776 C 2773.04 0.948592 -1.6693 0
M  V30 26777 O 2774.24 1.43863 -2.27061 0
M  V30 26778 C 2772.51 -0.72492 -3.49971 0
M  V30 26779 S 2774.07 -0.439155 -4.36597 0
M  V30 26780 H 2770.89 -0.179518 -0.687964 0
M  V30 26781 H 2773.49 -1.12035 -1.60213 0
M  V30 26782 H 2772.2 -1.76382 -3.70564 0
M  V30 26783 H 2771.73 -0.0717865 -3.93334 0
M  V30 26784 H 2773.74 0.730477 -4.90794 0
M  V30 26785 N 2772.92 1.44707 -0.624311 0
M  V30 26786 C 2773.83 2.34442 0.0860671 0
M  V30 26787 C 2774.84 1.52222 0.842883 0
M  V30 26788 O 2776.02 1.84972 0.79669 0
M  V30 26789 C 2773.08 3.301 1.05993 0
M  V30 26790 C 2772.14 4.28228 0.303241 0
M  V30 26791 C 2771.38 5.19316 1.23072 0
M  V30 26792 O 2771.6 5.14186 2.4692 0
M  V30 26793 O 2770.53 5.97593 0.718725 0
M  V30 26794 H 2774.36 2.96623 -0.651808 0
M  V30 26795 H 2771.94 1.44367 -0.384519 0
M  V30 26796 H 2773.83 3.89 1.6204 0
M  V30 26797 H 2772.5 2.70462 1.77854 0
M  V30 26798 H 2771.41 3.72894 -0.300098 0
M  V30 26799 H 2772.74 4.90768 -0.375209 0
M  V30 26800 N 2774.39 0.364449 1.53328 0
M  V30 26801 C 2775.63 -0.225684 2.0315 0
M  V30 26802 C 2776 -1.46085 1.24592 0
M  V30 26803 O 2777.2 -2.12653 1.64414 0
M  V30 26804 C 2775.47 -0.511601 3.53719 0
M  V30 26805 S 2777.03 -1.07557 4.25414 0
M  V30 26806 H 2773.85 -0.0657719 0.707951 0
M  V30 26807 H 2776.45 0.507052 1.8881 0
M  V30 26808 H 2775.15 0.394855 4.08496 0
M  V30 26809 H 2774.68 -1.27344 3.72219 0
M  V30 26810 H 2776.7 -2.3599 4.3649 0
M  V30 26811 N 2775.87 -1.57322 0.0935872 0
M  V30 26812 C 2776.83 -2.128 -0.851389 0
M  V30 26813 C 2777.83 -1.05692 -1.21185 0
M  V30 26814 O 2779.02 -1.31585 -1.14154 0
M  V30 26815 C 2776.16 -2.64735 -2.14775 0
M  V30 26816 H 2777.35 -2.97613 -0.369681 0
M  V30 26817 H 2774.9 -1.55526 -0.15539 0
M  V30 26818 H 2775.64 -1.83438 -2.67434 0
M  V30 26819 H 2775.42 -3.43045 -1.89901 0
M  V30 26820 H 2776.91 -3.07656 -2.82378 0
M  V30 26821 N 2777.35 0.180099 -1.56568 0
M  V30 26822 C 2778.31 1.20683 -1.94854 0
M  V30 26823 C 2779.31 1.37648 -0.831237 0
M  V30 26824 O 2780.5 1.35204 -1.09843 0
M  V30 26825 C 2777.63 2.57351 -2.2357 0
M  V30 26826 H 2778.83 0.879174 -2.86724 0
M  V30 26827 H 2776.38 0.42221 -1.50489 0
M  V30 26828 H 2777.12 2.95146 -1.34386 0
M  V30 26829 H 2776.9 2.46405 -3.05003 0
M  V30 26830 H 2778.39 3.31362 -2.54143 0
M  V30 26831 N 2778.83 1.51088 0.448349 0
M  V30 26832 C 2780.08 1.62888 1.19632 0
M  V30 26833 C 2780.4 0.342058 1.91976 0
M  V30 26834 O 2779.67 -0.641604 1.85095 0
M  V30 26835 H 2778.25 0.600292 0.444587 0
M  V30 26836 H 2780.91 1.8797 0.515105 0
M  V30 26837 H 2780 2.4512 1.9319 0
M  V30 26838 N 2780.31 -0.703068 1.41049 0
M  V30 26839 C 2781.55 -1.46307 1.40002 0
M  V30 26840 C 2781.88 -1.94499 0.00657992 0
M  V30 26841 O 2781.14 -1.69381 -0.980225 0
M  V30 26842 C 2781.44 -2.69546 2.34691 0
M  V30 26843 C 2781.1 -2.40052 3.81688 0
M  V30 26844 C 2779.76 -2.31718 4.21735 0
M  V30 26845 C 2782.12 -2.15572 4.74529 0
M  V30 26846 C 2779.44 -1.96991 5.5264 0
M  V30 26847 C 2781.8 -1.82356 6.05747 0
M  V30 26848 C 2780.46 -1.72513 6.44822 0
M  V30 26849 H 2779.73 -0.535373 0.512305 0
M  V30 26850 H 2782.38 -0.804244 1.73793 0
M  V30 26851 H 2780.68 -3.40326 1.94128 0
M  V30 26852 H 2782.38 -3.27669 2.31158 0
M  V30 26853 H 2778.97 -2.47429 3.49967 0
M  V30 26854 H 2783.15 -2.2096 4.44399 0
M  V30 26855 H 2778.41 -1.87917 5.81805 0
M  V30 26856 H 2782.58 -1.62432 6.77192 0
M  V30 26857 H 2780.21 -1.45372 7.46171 0
M  V30 26858 N 2781.78 -1.26752 -0.936569 0
M  V30 26859 C 2782.73 -1.0871 -2.03595 0
M  V30 26860 C 2783.7 0.00923623 -1.66097 0
M  V30 26861 O 2784.89 -0.151411 -1.90198 0
M  V30 26862 C 2782.03 -0.730999 -3.37269 0
M  V30 26863 C 2781.14 -1.90406 -3.87775 0
M  V30 26864 C 2780.27 -1.49065 -5.09856 0
M  V30 26865 C 2779.31 -2.63173 -5.52636 0
M  V30 26866 N 2778.45 -2.22482 -6.65917 0
M  V30 26867 H 2783.29 -2.02788 -2.1836 0
M  V30 26868 H 2780.83 -1.0096 -1.06984 0
M  V30 26869 H 2782.79 -0.505401 -4.14127 0
M  V30 26870 H 2781.42 0.172811 -3.22337 0
M  V30 26871 H 2780.47 -2.24246 -3.07275 0
M  V30 26872 H 2781.78 -2.76035 -4.15459 0
M  V30 26873 H 2780.93 -1.22577 -5.94188 0
M  V30 26874 H 2779.67 -0.605326 -4.83929 0
M  V30 26875 H 2778.68 -2.90386 -4.66858 0
M  V30 26876 H 2779.9 -3.52313 -5.80562 0
M  V30 26877 H 2777.85 -1.3639 -6.41665 0
M  V30 26878 H 2777.77 -3.01653 -6.93211 0
M  V30 26879 H 2779.03 -1.99218 -7.53613 0
M  V30 26880 N 2783.26 1.1418 -1.08631 0
M  V30 26881 C 2784.19 2.21462 -0.740042 0
M  V30 26882 C 2785.17 1.67804 0.278562 0
M  V30 26883 O 2786.36 1.93632 0.148427 0
M  V30 26884 C 2783.49 3.46972 -0.151013 0
M  V30 26885 C 2782.44 4.1367 -1.09822 0
M  V30 26886 C 2781.77 5.33409 -0.371294 0
M  V30 26887 C 2783.07 4.61945 -2.4373 0
M  V30 26888 H 2784.76 2.50683 -1.63701 0
M  V30 26889 H 2782.31 1.2049 -0.788547 0
M  V30 26890 H 2784.26 4.21273 0.103251 0
M  V30 26891 H 2782.99 3.17122 0.781108 0
M  V30 26892 H 2781.64 3.41326 -1.33762 0
M  V30 26893 H 2781.29 4.9982 0.564704 0
M  V30 26894 H 2780.99 5.7898 -1.00278 0
M  V30 26895 H 2782.52 6.10472 -0.125138 0
M  V30 26896 H 2783.93 5.2771 -2.24043 0
M  V30 26897 H 2782.33 5.18226 -3.02591 0
M  V30 26898 H 2783.4 3.76894 -3.05089 0
M  V30 26899 N 2784.74 0.872304 1.31258 0
M  V30 26900 C 2785.97 0.498135 2.01329 0
M  V30 26901 C 2786.39 -0.902539 1.65033 0
M  V30 26902 O 2785.75 -1.59594 0.860193 0
M  V30 26903 C 2785.8 0.665268 3.5441 0
M  V30 26904 O 2784.9 -0.294401 4.11348 0
M  V30 26905 H 2784.24 0.197844 0.633841 0
M  V30 26906 H 2786.77 1.17636 1.674 0
M  V30 26907 H 2786.78 0.559444 4.04146 0
M  V30 26908 H 2785.46 1.68657 3.80168 0
M  V30 26909 H 2784.03 -0.143337 3.72624 0
M  V30 26910 N 2786.22 -1.44374 0.631976 0
M  V30 26911 C 2787.63 -1.8541 0.219069 0
M  V30 26912 C 2787.98 -1.52881 -1.22971 0
M  V30 26913 O 2787.11 -0.9673 -1.93578 0
M  V30 26914 C 2787.7 -3.36538 0.390809 0
M  V30 26915 C 2786.26 -3.76386 0.0324013 0
M  V30 26916 C 2785.41 -2.6822 0.703791 0
M  V30 26917 H 2788.36 -1.34828 0.837079 0
M  V30 26918 H 2788.38 -3.78697 -0.36999 0
M  V30 26919 H 2787.89 -3.60183 1.44534 0
M  V30 26920 H 2785.99 -3.58357 -1.02036 0
M  V30 26921 H 2786.1 -4.77047 0.443052 0
M  V30 26922 H 2784.47 -2.5432 0.139018 0
M  V30 26923 H 2785.25 -2.94697 1.76093 0
M  V30 26924 N 2787.7 -0.372575 -1.53133 0
M  V30 26925 C 2788.64 0.485641 -2.27474 0
M  V30 26926 C 2789.64 1.07743 -1.30721 0
M  V30 26927 O 2790.84 1.01982 -1.48323 0
M  V30 26928 H 2787.22 0.175343 -0.731272 0
M  V30 26929 H 2789.19 -0.163038 -2.97954 0
M  V30 26930 C 2787.94 1.60972 -3.08193 0
M  V30 26931 H 2787.26 1.16366 -3.8249 0
M  V30 26932 H 2788.7 2.18479 -3.63377 0
M  V30 26933 C 2787.16 2.5561 -2.19465 0
M  V30 26934 O 2787.69 3.58604 -1.81014 0
M  V30 26935 N 2785.9 2.24961 -1.83958 0
M  V30 26936 H 2785.44 1.41243 -2.15425 0
M  V30 26937 H 2785.4 2.88535 -1.24879 0
M  V30 26938 N 2789.17 1.5727 -0.101929 0
M  V30 26939 C 2790.42 1.94214 0.559057 0
M  V30 26940 C 2790.74 0.984978 1.68295 0
M  V30 26941 O 2790.01 0.0382319 1.95863 0
M  V30 26942 H 2788.59 0.717018 0.209508 0
M  V30 26943 H 2791.26 1.94184 -0.166866 0
M  V30 26944 H 2790.35 2.96813 0.964798 0
M  V30 26945 N 2790.65 -0.171793 1.56661 0
M  V30 26946 C 2791.62 -1.19648 1.95492 0
M  V30 26947 C 2792.62 -1.37206 0.838525 0
M  V30 26948 O 2793.81 -1.3462 1.10558 0
M  V30 26949 C 2790.94 -2.56162 2.24931 0
M  V30 26950 H 2792.13 -0.863956 2.87186 0
M  V30 26951 H 2789.68 -0.414223 1.50711 0
M  V30 26952 H 2790.42 -2.94429 1.35949 0
M  V30 26953 H 2790.2 -2.44784 3.06306 0
M  V30 26954 H 2791.69 -3.3001 2.55897 0
M  V30 26955 N 2792.13 -1.51324 -0.44033 0
M  V30 26956 C 2793.37 -1.65501 -1.19953 0
M  V30 26957 C 2793.73 -0.361911 -1.88558 0
M  V30 26958 O 2794.94 -0.37943 -2.66109 0
M  V30 26959 C 2793.21 -2.82307 -2.19175 0
M  V30 26960 S 2794.77 -3.16796 -3.03621 0
M  V30 26961 H 2791.58 -0.583109 -0.406823 0
M  V30 26962 H 2794.19 -1.89219 -0.491563 0
M  V30 26963 H 2792.89 -3.74704 -1.67407 0
M  V30 26964 H 2792.42 -2.60768 -2.94556 0
M  V30 26965 H 2794.44 -2.62998 -4.20769 0
M  V30 26966 N 2793.61 0.695578 -1.41419 0
M  V30 26967 C 2794.85 1.45778 -1.40985 0
M  V30 26968 C 2795.19 1.94191 -0.0188104 0
M  V30 26969 O 2794.46 1.69529 0.95343 0
M  V30 26970 C 2794.75 2.66967 -2.41662 0
M  V30 26971 C 2794.6 2.2432 -3.89873 0
M  V30 26972 C 2795.92 3.69164 -2.39595 0
M  V30 26973 H 2793.04 0.528748 -0.513415 0
M  V30 26974 H 2795.68 0.792245 -1.72695 0
M  V30 26975 H 2793.83 3.2375 -2.14752 0
M  V30 26976 H 2795.5 1.72865 -4.27686 0
M  V30 26977 H 2793.74 1.56104 -4.04739 0
M  V30 26978 H 2794.41 3.11277 -4.55862 0
M  V30 26979 H 2796.89 3.22055 -2.63476 0
M  V30 26980 H 2795.77 4.51569 -3.12052 0
M  V30 26981 H 2796.03 4.18859 -1.41454 0
M  V30 26982 N 2795.09 1.27247 0.929833 0
M  V30 26983 C 2796.36 1.04189 1.65542 0
M  V30 26984 C 2796.74 -0.42406 2.06797 0
M  V30 26985 O 2796.09 -1.40684 1.80056 0
M  V30 26986 C 2796.3 2.00143 2.85909 0
M  V30 26987 C 2797.65 2.29393 3.57301 0
M  V30 26988 O 2798.67 1.981 2.96032 0
M  V30 26989 O 2797.53 2.82728 4.67683 0
M  V30 26990 H 2794.63 0.397024 0.725466 0
M  V30 26991 H 2797.17 1.38503 0.980559 0
M  V30 26992 H 2795.95 2.99017 2.52398 0
M  V30 26993 H 2795.57 1.66377 3.61115 0
M  V30 26994 N 2796.57 -1.13603 1.09235 0
M  V30 26995 C 2797.98 -1.36825 0.821654 0
M  V30 26996 C 2798.18 -1.93417 -0.564987 0
M  V30 26997 O 2797.24 -2.15236 -1.32022 0
M  V30 26998 C 2798.55 -2.32143 1.91128 0
M  V30 26999 C 2800.1 -2.45763 1.93828 0
M  V30 27000 C 2800.57 -3.44388 3.01929 0
M  V30 27001 N 2802.06 -3.51937 3.01155 0
M  V30 27002 C 2802.8 -4.28124 3.81442 0
M  V30 27003 N 2802.3 -5.07481 4.7163 0
M  V30 27004 N 2804.09 -4.23405 3.69709 0
M  V30 27005 H 2796.24 -0.7522 1.98635 0
M  V30 27006 H 2798.5 -0.393467 0.862489 0
M  V30 27007 H 2798.21 -1.97712 2.90865 0
M  V30 27008 H 2798.08 -3.32139 1.78783 0
M  V30 27009 H 2800.47 -2.79482 0.947309 0
M  V30 27010 H 2800.55 -1.45699 2.10251 0
M  V30 27011 H 2800.19 -3.11401 4.01238 0
M  V30 27012 H 2800.12 -4.44252 2.8275 0
M  V30 27013 H 2802.62 -2.95313 2.35794 0
M  V30 27014 H 2802.93 -5.62915 5.29478 0
M  V30 27015 H 2801.27 -5.0672 4.75667 0
M  V30 27016 H 2804.46 -3.60484 2.98612 0
M  V30 27017 H 2804.64 -4.82528 4.32517 0
M  V30 27018 N 2798.04 -0.879253 -1.30793 0
M  V30 27019 C 2798.99 -0.331152 -2.30231 0
M  V30 27020 C 2799.99 0.558766 -1.59919 0
M  V30 27021 O 2801.19 0.443835 -1.74442 0
M  V30 27022 H 2797.57 -0.0884221 -0.746783 0
M  V30 27023 H 2799.54 -1.18358 -2.73923 0
M  V30 27024 C 2798.29 0.444341 -3.44849 0
M  V30 27025 H 2797.61 -0.231176 -3.99131 0
M  V30 27026 H 2799.05 0.793036 -4.16518 0
M  V30 27027 C 2797.51 1.63921 -2.94332 0
M  V30 27028 O 2798.04 2.73857 -2.9388 0
M  V30 27029 N 2796.24 1.47445 -2.50416 0
M  V30 27030 H 2795.79 0.580106 -2.50983 0
M  V30 27031 H 2795.75 2.2753 -2.16973 0
M  V30 27032 N 2799.52 1.44037 -0.639624 0
M  V30 27033 C 2800.43 2.3452 0.0611965 0
M  V30 27034 C 2801.45 1.53107 0.82669 0
M  V30 27035 O 2802.62 1.85807 0.777027 0
M  V30 27036 C 2799.69 3.31206 1.02486 0
M  V30 27037 C 2798.75 4.28525 0.257804 0
M  V30 27038 C 2797.98 5.20592 1.17557 0
M  V30 27039 O 2798.21 5.16776 2.41452 0
M  V30 27040 O 2797.14 5.98322 0.655302 0
M  V30 27041 H 2800.97 2.95915 -0.683232 0
M  V30 27042 H 2798.55 1.43951 -0.399809 0
M  V30 27043 H 2800.43 3.90697 1.57905 0
M  V30 27044 H 2799.11 2.72333 1.74975 0
M  V30 27045 H 2798.01 3.72555 -0.339632 0
M  V30 27046 H 2799.35 4.90342 -0.42724 0
M  V30 27047 N 2801 0.380691 1.52933 0
M  V30 27048 C 2802.24 -0.204125 2.03378 0
M  V30 27049 C 2802.6 -1.44756 1.26134 0
M  V30 27050 O 2803.8 -2.10897 1.66661 0
M  V30 27051 C 2802.08 -0.474056 3.54242 0
M  V30 27052 S 2803.63 -1.03038 4.26531 0
M  V30 27053 H 2800.45 -0.0582594 0.708609 0
M  V30 27054 H 2803.05 0.52705 1.88262 0
M  V30 27055 H 2801.76 0.43816 4.08054 0
M  V30 27056 H 2801.29 -1.23389 3.73549 0
M  V30 27057 H 2803.3 -2.31347 4.38968 0
M  V30 27058 N 2802.48 -1.57214 0.110268 0
M  V30 27059 C 2803.41 -2.17869 -0.839964 0
M  V30 27060 C 2804.39 -1.11626 -1.2835 0
M  V30 27061 O 2805.57 -1.39826 -1.34767 0
M  V30 27062 C 2802.7 -2.77114 -2.09344 0
M  V30 27063 C 2801.66 -3.88863 -1.788 0
M  V30 27064 C 2800.98 -4.34877 -3.11104 0
M  V30 27065 C 2802.28 -5.11366 -1.06311 0
M  V30 27066 H 2803.98 -2.97525 -0.334555 0
M  V30 27067 H 2801.52 -1.43114 -0.159477 0
M  V30 27068 H 2803.48 -3.18203 -2.76269 0
M  V30 27069 H 2802.2 -1.94735 -2.62194 0
M  V30 27070 H 2800.86 -3.48337 -1.14267 0
M  V30 27071 H 2800.51 -3.49368 -3.61871 0
M  V30 27072 H 2800.21 -5.10229 -2.91444 0
M  V30 27073 H 2801.73 -4.78611 -3.79162 0
M  V30 27074 H 2803.15 -5.49529 -1.63374 0
M  V30 27075 H 2801.54 -5.92245 -0.967772 0
M  V30 27076 H 2802.61 -4.84876 -0.0483717 0
M  V30 27077 N 2803.96 0.163482 -1.5675 0
M  V30 27078 C 2804.87 1.22206 -2.00257 0
M  V30 27079 C 2805.88 1.47986 -0.91522 0
M  V30 27080 O 2807.06 1.5998 -1.22345 0
M  V30 27081 C 2804.12 2.53942 -2.36039 0
M  V30 27082 C 2803.18 2.35956 -3.58641 0
M  V30 27083 C 2802.42 3.61409 -3.92707 0
M  V30 27084 O 2802.64 4.66913 -3.27641 0
M  V30 27085 O 2801.57 3.55053 -4.86026 0
M  V30 27086 H 2805.4 0.882743 -2.90588 0
M  V30 27087 H 2802.98 0.370952 -1.44721 0
M  V30 27088 H 2804.87 3.31639 -2.59988 0
M  V30 27089 H 2803.54 2.87437 -1.48868 0
M  V30 27090 H 2802.45 1.56264 -3.39901 0
M  V30 27091 H 2803.78 2.07382 -4.46378 0
M  V30 27092 N 2805.43 1.51555 0.432299 0
M  V30 27093 C 2806.68 1.63705 1.17828 0
M  V30 27094 C 2807 0.361593 1.92229 0
M  V30 27095 O 2808.2 0.362543 2.69069 0
M  V30 27096 C 2806.66 2.89133 2.14313 0
M  V30 27097 C 2806.27 4.23702 1.45537 0
M  V30 27098 C 2808.01 3.10642 2.89313 0
M  V30 27099 C 2805.92 5.40275 2.40535 0
M  V30 27100 H 2804.85 0.609757 0.443522 0
M  V30 27101 H 2807.5 1.78026 0.444847 0
M  V30 27102 H 2805.88 2.68457 2.91113 0
M  V30 27103 H 2807.05 4.54777 0.742613 0
M  V30 27104 H 2805.37 4.08111 0.8267 0
M  V30 27105 H 2807.97 3.94908 3.60488 0
M  V30 27106 H 2808.31 2.23924 3.50947 0
M  V30 27107 H 2808.84 3.31681 2.1962 0
M  V30 27108 H 2805.58 6.29267 1.83583 0
M  V30 27109 H 2805.1 5.13569 3.0985 0
M  V30 27110 H 2806.78 5.72426 3.01558 0
M  V30 27111 N 2806.91 -0.688069 1.41786 0
M  V30 27112 C 2808.32 -1.26825 1.37012 0
M  V30 27113 C 2808.67 -1.96118 0.0568695 0
M  V30 27114 O 2807.8 -1.99232 -0.844715 0
M  V30 27115 C 2808.39 -2.30643 2.48172 0
M  V30 27116 C 2806.95 -2.8422 2.46771 0
M  V30 27117 C 2806.1 -1.58357 2.27636 0
M  V30 27118 H 2809.05 -0.482324 1.51193 0
M  V30 27119 H 2809.07 -3.12096 2.17661 0
M  V30 27120 H 2808.58 -1.80182 3.43738 0
M  V30 27121 H 2806.68 -3.38837 1.54984 0
M  V30 27122 H 2806.8 -3.34139 3.43348 0
M  V30 27123 H 2805.16 -1.84442 1.75651 0
M  V30 27124 H 2805.94 -1.09881 3.2524 0
M  V30 27125 N 2808.39 -1.27739 -0.923072 0
M  V30 27126 C 2809.34 -1.10706 -2.04565 0
M  V30 27127 C 2810.33 -0.0288743 -1.69375 0
M  V30 27128 O 2811.54 -0.186945 -1.79027 0
M  V30 27129 H 2807.91 -0.341272 -0.670103 0
M  V30 27130 H 2809.88 -2.058 -2.16076 0
M  V30 27131 C 2808.63 -0.775896 -3.38932 0
M  V30 27132 H 2807.96 -1.59747 -3.66498 0
M  V30 27133 H 2809.4 -0.696622 -4.18238 0
M  V30 27134 C 2807.85 0.519954 -3.32863 0
M  V30 27135 O 2808.38 1.55302 -3.70465 0
M  V30 27136 N 2806.59 0.517269 -2.85959 0
M  V30 27137 H 2806.14 -0.323835 -2.55556 0
M  V30 27138 H 2806.1 1.38436 -2.82281 0
M  V30 27139 N 2809.87 1.13022 -1.09836 0
M  V30 27140 C 2811.11 1.84666 -0.838222 0
M  V30 27141 C 2811.45 1.83538 0.634613 0
M  V30 27142 O 2810.72 1.27649 1.46751 0
M  V30 27143 C 2811.01 3.32633 -1.37938 0
M  V30 27144 C 2810.86 3.42251 -2.91863 0
M  V30 27145 C 2812.18 4.28197 -1.01662 0
M  V30 27146 H 2809.3 0.67049 -0.305962 0
M  V30 27147 H 2811.94 1.32633 -1.36046 0
M  V30 27148 H 2810.09 3.77077 -0.935177 0
M  V30 27149 H 2811.76 3.06489 -3.44764 0
M  V30 27150 H 2810 2.82994 -3.28781 0
M  V30 27151 H 2810.67 4.46323 -3.24807 0
M  V30 27152 H 2813.15 3.91848 -1.3998 0
M  V30 27153 H 2812.03 5.30154 -1.42226 0
M  V30 27154 H 2812.29 4.42037 0.0747017 0
M  V30 27155 N 2811.35 0.886177 1.30325 0
M  V30 27156 C 2812.59 0.511946 1.97885 0
M  V30 27157 C 2812.95 -0.921915 1.68418 0
M  V30 27158 O 2814.15 -1.40233 2.29321 0
M  V30 27159 C 2812.42 0.780506 3.48773 0
M  V30 27160 S 2813.98 0.508558 4.35843 0
M  V30 27161 H 2810.8 0.19044 0.685021 0
M  V30 27162 H 2813.4 1.1457 1.58411 0
M  V30 27163 H 2812.11 1.82255 3.67711 0
M  V30 27164 H 2811.64 0.134353 3.93171 0
M  V30 27165 H 2813.65 -0.652304 4.91894 0
M  V30 27166 N 2812.82 -1.43695 0.647253 0
M  V30 27167 C 2814.05 -2.0675 0.16412 0
M  V30 27168 C 2814.47 -1.4816 -1.15889 0
M  V30 27169 O 2813.83 -0.589224 -1.71458 0
M  V30 27170 C 2813.88 -3.60511 0.0801001 0
M  V30 27171 O 2812.98 -4.01086 -0.959383 0
M  V30 27172 H 2812.33 -0.657576 0.0921404 0
M  V30 27173 H 2814.86 -1.84301 0.888493 0
M  V30 27174 H 2814.87 -4.07864 -0.105192 0
M  V30 27175 H 2813.54 -4.02533 1.04593 0
M  V30 27176 H 2812.12 -3.65334 -0.747361 0
M  V30 27177 N 2814.3 -0.388796 -1.52729 0
M  V30 27178 C 2815.25 0.463528 -2.23238 0
M  V30 27179 C 2816.24 1.03005 -1.23608 0
M  V30 27180 O 2817.43 0.956235 -1.48947 0
M  V30 27181 C 2814.56 1.59055 -3.04231 0
M  V30 27182 C 2813.64 1.03579 -4.11257 0
M  V30 27183 N 2814.03 0.205949 -5.05381 0
M  V30 27184 C 2812.33 1.30834 -4.26378 0
M  V30 27185 C 2813.03 -0.100461 -5.81613 0
M  V30 27186 N 2812.01 0.503352 -5.41265 0
M  V30 27187 H 2815.81 -0.17703 -2.93366 0
M  V30 27188 H 2813.33 -0.198074 -1.61188 0
M  V30 27189 H 2815.32 2.21356 -3.53281 0
M  V30 27190 H 2813.98 2.23393 -2.35638 0
M  V30 27191 H 2814.99 -0.15675 -5.17663 0
M  V30 27192 H 2811.67 1.9528 -3.69015 0
M  V30 27193 H 2813.06 -0.772793 -6.67441 0
M  V30 27194 N 2815.78 1.57153 -0.118604 0
M  V30 27195 C 2817.03 1.94796 0.538426 0
M  V30 27196 C 2817.35 1.00277 1.67241 0
M  V30 27197 O 2816.62 0.0590036 1.95811 0
M  V30 27198 H 2815.2 0.7192 0.201891 0
M  V30 27199 H 2817.86 1.93996 -0.187452 0
M  V30 27200 H 2816.96 2.9782 0.933262 0
M  V30 27201 N 2817.26 -0.155167 1.56834 0
M  V30 27202 C 2818.19 -1.19372 2.0068 0
M  V30 27203 C 2819.17 -1.45265 0.884998 0
M  V30 27204 O 2820.35 -1.56324 1.15223 0
M  V30 27205 C 2817.48 -2.52886 2.38046 0
M  V30 27206 C 2816.44 -2.41531 3.53336 0
M  V30 27207 C 2815.76 -3.79681 3.76492 0
M  V30 27208 C 2817.06 -1.90631 4.86268 0
M  V30 27209 H 2818.76 -0.829182 2.87689 0
M  V30 27210 H 2816.3 -0.397421 1.38407 0
M  V30 27211 H 2818.26 -3.25758 2.67319 0
M  V30 27212 H 2816.98 -2.9116 1.47965 0
M  V30 27213 H 2815.64 -1.71112 3.24216 0
M  V30 27214 H 2815.29 -4.15377 2.83675 0
M  V30 27215 H 2814.99 -3.72948 4.54074 0
M  V30 27216 H 2816.51 -4.54115 4.08182 0
M  V30 27217 H 2817.93 -2.5329 5.14312 0
M  V30 27218 H 2816.32 -1.94808 5.676 0
M  V30 27219 H 2817.39 -0.861512 4.77185 0
M  V30 27220 N 2818.74 -1.51782 -0.424256 0
M  V30 27221 C 2819.98 -1.66764 -1.18191 0
M  V30 27222 C 2820.34 -0.38189 -1.88164 0
M  V30 27223 O 2821.54 -0.407633 -2.65691 0
M  V30 27224 C 2819.81 -2.84616 -2.16168 0
M  V30 27225 S 2821.37 -3.19998 -3.00244 0
M  V30 27226 H 2818.19 -0.587391 -0.400615 0
M  V30 27227 H 2820.79 -1.8973 -0.471466 0
M  V30 27228 H 2819.5 -3.76458 -1.63424 0
M  V30 27229 H 2819.03 -2.63878 -2.91774 0
M  V30 27230 H 2821.04 -2.67446 -4.17956 0
M  V30 27231 N 2820.21 0.68054 -1.42149 0
M  V30 27232 C 2821.46 1.44274 -1.42523 0
M  V30 27233 C 2821.79 1.9416 -0.0394059 0
M  V30 27234 O 2821.07 1.7053 0.935395 0
M  V30 27235 C 2821.35 2.64389 -2.4448 0
M  V30 27236 C 2821.2 2.20172 -3.9223 0
M  V30 27237 C 2822.52 3.66602 -2.43497 0
M  V30 27238 H 2819.64 0.523273 -0.518994 0
M  V30 27239 H 2822.28 0.773883 -1.73525 0
M  V30 27240 H 2820.43 3.21454 -2.18173 0
M  V30 27241 H 2822.11 1.68319 -4.29496 0
M  V30 27242 H 2820.35 1.51803 -4.06372 0
M  V30 27243 H 2821.02 3.06425 -4.59138 0
M  V30 27244 H 2823.5 3.19242 -2.66877 0
M  V30 27245 H 2822.37 4.48234 -3.16824 0
M  V30 27246 H 2822.63 4.17336 -1.45889 0
M  V30 27247 N 2821.69 1.28226 0.916285 0
M  V30 27248 C 2822.97 1.05939 1.64427 0
M  V30 27249 C 2823.35 -0.402103 2.07235 0
M  V30 27250 O 2822.7 -1.38767 1.81538 0
M  V30 27251 C 2822.91 2.03164 2.8377 0
M  V30 27252 C 2824.26 2.3317 3.54848 0
M  V30 27253 O 2825.28 2.01228 2.93914 0
M  V30 27254 O 2824.14 2.87672 4.64658 0
M  V30 27255 H 2821.23 0.404696 0.721214 0
M  V30 27256 H 2823.78 1.39535 0.965813 0
M  V30 27257 H 2822.55 3.01677 2.49212 0
M  V30 27258 H 2822.17 1.70198 3.5933 0
M  V30 27259 N 2823.17 -1.12438 1.10433 0
M  V30 27260 C 2824.1 -2.20257 0.775181 0
M  V30 27261 C 2825.08 -1.68226 -0.25183 0
M  V30 27262 O 2826.27 -1.93844 -0.117603 0
M  V30 27263 C 2823.4 -3.46687 0.206194 0
M  V30 27264 C 2822.35 -4.11871 1.16389 0
M  V30 27265 C 2821.68 -5.32751 0.456108 0
M  V30 27266 C 2822.98 -4.58009 2.51048 0
M  V30 27267 H 2824.67 -2.48047 1.67669 0
M  V30 27268 H 2822.22 -1.19221 0.807616 0
M  V30 27269 H 2824.17 -4.21384 -0.036217 0
M  V30 27270 H 2822.89 -3.18324 -0.730558 0
M  V30 27271 H 2821.55 -3.39154 1.39175 0
M  V30 27272 H 2821.2 -5.00655 -0.485115 0
M  V30 27273 H 2820.9 -5.77312 1.09476 0
M  V30 27274 H 2822.42 -6.10195 0.222243 0
M  V30 27275 H 2823.84 -5.24079 2.3241 0
M  V30 27276 H 2822.24 -5.13347 3.10798 0
M  V30 27277 H 2823.31 -3.71992 3.11046 0
M  V30 27278 N 2824.65 -0.893076 -1.29853 0
M  V30 27279 C 2825.58 -0.32315 -2.26911 0
M  V30 27280 C 2826.59 0.526831 -1.5404 0
M  V30 27281 O 2827.78 0.345065 -1.75133 0
M  V30 27282 C 2824.88 0.55845 -3.34267 0
M  V30 27283 C 2824.06 -0.264299 -4.36601 0
M  V30 27284 C 2823.12 0.549079 -5.23327 0
M  V30 27285 O 2822.14 -0.0310883 -5.69192 0
M  V30 27286 N 2823.34 1.85655 -5.50011 0
M  V30 27287 H 2826.11 -1.15731 -2.76453 0
M  V30 27288 H 2823.67 -0.756884 -1.43118 0
M  V30 27289 H 2825.66 1.10883 -3.89213 0
M  V30 27290 H 2824.23 1.29329 -2.84592 0
M  V30 27291 H 2823.45 -0.996113 -3.81407 0
M  V30 27292 H 2824.74 -0.827995 -5.02018 0
M  V30 27293 H 2824.14 2.35072 -5.14546 0
M  V30 27294 H 2822.69 2.3542 -6.078 0
M  V30 27295 N 2826.13 1.4335 -0.654865 0
M  V30 27296 C 2827.38 2.01396 -0.168594 0
M  V30 27297 C 2827.7 1.51935 1.22232 0
M  V30 27298 O 2826.97 0.732659 1.81684 0
M  V30 27299 H 2825.55 0.74464 -0.0593375 0
M  V30 27300 H 2828.21 1.75538 -0.846902 0
M  V30 27301 H 2827.3 3.11717 -0.154483 0
M  V30 27302 N 2827.61 0.39689 1.52521 0
M  V30 27303 C 2828.83 -0.185222 2.06571 0
M  V30 27304 C 2829.26 -1.39112 1.26607 0
M  V30 27305 O 2828.61 -1.78915 0.293086 0
M  V30 27306 C 2828.66 -0.526126 3.56741 0
M  V30 27307 O 2827.77 -1.61896 3.79293 0
M  V30 27308 H 2827.11 -0.0195358 0.663713 0
M  V30 27309 H 2829.64 0.566553 1.96599 0
M  V30 27310 H 2829.65 -0.788268 4.00313 0
M  V30 27311 H 2828.32 0.35547 4.14378 0
M  V30 27312 H 2826.9 -1.34994 3.47607 0
M  V30 27313 N 2829.08 -1.57088 0.126936 0
M  V30 27314 C 2830.31 -1.9953 -0.535857 0
M  V30 27315 C 2830.72 -1.00569 -1.60258 0
M  V30 27316 O 2830.06 0.0084004 -1.83698 0
M  V30 27317 C 2830.13 -3.38393 -1.21368 0
M  V30 27318 C 2829.79 -4.56054 -0.293964 0
M  V30 27319 C 2830.79 -5.17766 0.470545 0
M  V30 27320 C 2828.47 -5.01891 -0.20272 0
M  V30 27321 C 2830.47 -6.2371 1.31395 0
M  V30 27322 C 2828.15 -6.07694 0.64431 0
M  V30 27323 C 2829.15 -6.68471 1.40127 0
M  V30 27324 O 2828.84 -7.72229 2.23422 0
M  V30 27325 H 2828.57 -0.660092 -0.145787 0
M  V30 27326 H 2831.13 -2.04298 0.212477 0
M  V30 27327 H 2829.36 -3.30403 -2.00925 0
M  V30 27328 H 2831.04 -3.65072 -1.77418 0
M  V30 27329 H 2831.81 -4.83264 0.409969 0
M  V30 27330 H 2827.69 -4.54326 -0.781608 0
M  V30 27331 H 2831.23 -6.71078 1.90526 0
M  V30 27332 H 2827.13 -6.41625 0.70625 0
M  V30 27333 H 2827.9 -7.89362 2.1645 0
M  V30 27334 N 2830.56 0.146848 -1.56914 0
M  V30 27335 C 2831.49 1.20642 -1.9488 0
M  V30 27336 C 2832.51 1.39174 -0.844658 0
M  V30 27337 O 2833.7 1.38742 -1.12307 0
M  V30 27338 C 2830.8 2.57123 -2.20774 0
M  V30 27339 C 2829.97 2.59566 -3.52057 0
M  V30 27340 C 2829.03 3.77587 -3.66489 0
M  V30 27341 O 2828.05 3.62454 -4.3888 0
M  V30 27342 N 2829.26 4.95047 -3.03164 0
M  V30 27343 H 2832.02 0.883707 -2.86375 0
M  V30 27344 H 2829.58 0.336409 -1.58366 0
M  V30 27345 H 2831.57 3.34587 -2.2767 0
M  V30 27346 H 2830.14 2.81686 -1.35543 0
M  V30 27347 H 2829.36 1.68017 -3.56601 0
M  V30 27348 H 2830.65 2.5823 -4.384 0
M  V30 27349 H 2830.05 5.10245 -2.44267 0
M  V30 27350 H 2828.61 5.70286 -3.15621 0
M  V30 27351 N 2832.04 1.52005 0.4162 0
M  V30 27352 C 2833.28 1.67389 1.17305 0
M  V30 27353 C 2833.64 0.391864 1.87959 0
M  V30 27354 O 2834.84 0.421717 2.65471 0
M  V30 27355 C 2833.12 2.85758 2.14656 0
M  V30 27356 S 2834.67 3.21586 2.98543 0
M  V30 27357 H 2831.49 0.589507 0.397495 0
M  V30 27358 H 2834.09 1.89977 0.461397 0
M  V30 27359 H 2832.8 3.7732 1.61425 0
M  V30 27360 H 2832.33 2.65422 2.9037 0
M  V30 27361 H 2834.34 2.69659 4.16531 0
M  V30 27362 N 2833.52 -0.672992 1.42508 0
M  V30 27363 C 2834.77 -1.4288 1.42366 0
M  V30 27364 C 2835.08 -1.9555 0.0441942 0
M  V30 27365 O 2836.29 -2.71383 -0.0798202 0
M  V30 27366 C 2834.74 -2.58477 2.50435 0
M  V30 27367 C 2834.35 -2.12499 3.94396 0
M  V30 27368 C 2836.09 -3.35976 2.59461 0
M  V30 27369 C 2834 -3.25189 4.9397 0
M  V30 27370 H 2832.93 -0.536773 0.52952 0
M  V30 27371 H 2835.58 -0.728418 1.68423 0
M  V30 27372 H 2833.96 -3.30892 2.17546 0
M  V30 27373 H 2835.14 -1.47225 4.36648 0
M  V30 27374 H 2833.45 -1.47933 3.89236 0
M  V30 27375 H 2836.05 -4.19906 3.31033 0
M  V30 27376 H 2836.39 -3.82689 1.63875 0
M  V30 27377 H 2836.93 -2.70632 2.91553 0
M  V30 27378 H 2833.66 -2.83466 5.91039 0
M  V30 27379 H 2833.18 -3.89239 4.56348 0
M  V30 27380 H 2834.86 -3.90628 5.1577 0
M  V30 27381 N 2835 -1.2871 -0.909472 0
M  V30 27382 C 2836.24 -1.17371 -1.67342 0
M  V30 27383 C 2836.6 0.272385 -1.90058 0
M  V30 27384 O 2837.8 0.50857 -2.63945 0
M  V30 27385 C 2836.07 -1.95461 -2.99215 0
M  V30 27386 S 2837.63 -2.00544 -3.90291 0
M  V30 27387 H 2834.45 -0.418682 -0.574653 0
M  V30 27388 H 2837.05 -1.62867 -1.08141 0
M  V30 27389 H 2835.75 -2.99685 -2.80388 0
M  V30 27390 H 2835.29 -1.50531 -3.63461 0
M  V30 27391 H 2837.3 -1.11504 -4.83509 0
M  V30 27392 N 2836.47 1.1185 -1.11028 0
M  V30 27393 C 2837.42 2.15866 -0.733874 0
M  V30 27394 C 2838.41 1.58786 0.259982 0
M  V30 27395 O 2839.6 1.7687 0.067759 0
M  V30 27396 C 2836.73 3.42859 -0.174008 0
M  V30 27397 C 2835.81 4.06908 -1.19527 0
M  V30 27398 N 2836.21 4.45877 -2.38805 0
M  V30 27399 C 2834.5 4.33772 -1.03722 0
M  V30 27400 C 2835.2 4.96002 -3.03903 0
M  V30 27401 N 2834.18 4.9189 -2.31397 0
M  V30 27402 H 2837.98 2.4377 -1.64175 0
M  V30 27403 H 2835.5 1.2882 -0.988899 0
M  V30 27404 H 2837.49 4.16745 0.113763 0
M  V30 27405 H 2836.15 3.16422 0.728513 0
M  V30 27406 H 2837.16 4.38047 -2.76289 0
M  V30 27407 H 2833.84 4.17064 -0.190767 0
M  V30 27408 H 2835.23 5.35819 -4.05398 0
M  V30 27409 N 2837.95 0.89995 1.29378 0
M  V30 27410 C 2838.9 0.367738 2.29675 0
M  V30 27411 C 2839.89 -0.533254 1.60788 0
M  V30 27412 O 2841.1 -0.416027 1.75126 0
M  V30 27413 H 2837.47 0.100292 0.745282 0
M  V30 27414 H 2839.45 1.22701 2.72006 0
M  V30 27415 C 2838.19 -0.389422 3.45512 0
M  V30 27416 H 2837.52 0.294645 3.98713 0
M  V30 27417 H 2838.96 -0.726671 4.17727 0
M  V30 27418 C 2837.42 -1.59218 2.96903 0
M  V30 27419 O 2837.95 -2.69147 2.98199 0
M  V30 27420 N 2836.15 -1.43443 2.5273 0
M  V30 27421 H 2835.7 -0.540104 2.51874 0
M  V30 27422 H 2835.66 -2.2405 2.20565 0
M  V30 27423 N 2839.43 -1.43001 0.662458 0
M  V30 27424 C 2840.68 -2.01303 0.179272 0
M  V30 27425 C 2841 -1.52581 -1.21425 0
M  V30 27426 O 2840.27 -0.742284 -1.81292 0
M  V30 27427 H 2838.85 -0.744314 0.0632856 0
M  V30 27428 H 2841.51 -1.75086 0.856199 0
M  V30 27429 H 2840.61 -3.11631 0.171012 0
M  V30 27430 N 2840.91 -0.404973 -1.52308 0
M  V30 27431 C 2842.16 0.172165 -2.01767 0
M  V30 27432 C 2842.48 1.45496 -1.29078 0
M  V30 27433 O 2841.74 1.91889 -0.384334 0
M  V30 27434 C 2842.04 0.470832 -3.54285 0
M  V30 27435 C 2841.7 -0.722273 -4.45078 0
M  V30 27436 C 2840.37 -1.04955 -4.69615 0
M  V30 27437 C 2842.72 -1.51971 -4.98552 0
M  V30 27438 C 2840.05 -2.17552 -5.44874 0
M  V30 27439 C 2842.4 -2.63642 -5.75044 0
M  V30 27440 C 2841.06 -2.9686 -5.97855 0
M  V30 27441 H 2840.33 0.0629995 -0.738317 0
M  V30 27442 H 2842.98 -0.545539 -1.83565 0
M  V30 27443 H 2841.28 1.27005 -3.70644 0
M  V30 27444 H 2842.98 0.930277 -3.9006 0
M  V30 27445 H 2839.57 -0.457206 -4.26154 0
M  V30 27446 H 2843.75 -1.2801 -4.79507 0
M  V30 27447 H 2839.01 -2.43641 -5.60757 0
M  V30 27448 H 2843.18 -3.25824 -6.15477 0
M  V30 27449 H 2840.81 -3.84226 -6.55953 0
M  V30 27450 N 2842.39 1.57018 -0.135265 0
M  V30 27451 C 2843.33 2.16162 0.80887 0
M  V30 27452 C 2844.3 1.09115 1.25232 0
M  V30 27453 O 2845.49 1.37101 1.32695 0
M  V30 27454 C 2842.63 2.77817 2.04724 0
M  V30 27455 C 2841.74 3.99221 1.65067 0
M  V30 27456 C 2840.88 4.48911 2.83994 0
M  V30 27457 C 2839.92 5.62808 2.40653 0
M  V30 27458 N 2839.05 6.07168 3.52549 0
M  V30 27459 H 2843.89 2.96509 0.297699 0
M  V30 27460 H 2841.43 1.46477 0.135238 0
M  V30 27461 H 2843.39 3.11702 2.77305 0
M  V30 27462 H 2842.02 2.00133 2.53272 0
M  V30 27463 H 2841.07 3.71391 0.822964 0
M  V30 27464 H 2842.38 4.81769 1.29227 0
M  V30 27465 H 2841.54 4.8479 3.64779 0
M  V30 27466 H 2840.27 3.65345 3.2307 0
M  V30 27467 H 2839.28 5.26517 1.58305 0
M  V30 27468 H 2840.5 6.48151 2.02676 0
M  V30 27469 H 2838.45 5.26541 3.91269 0
M  V30 27470 H 2838.37 6.84614 3.20687 0
M  V30 27471 H 2839.64 6.4769 4.33726 0
M  V30 27472 N 2843.86 -0.138524 1.5699 0
M  V30 27473 C 2844.83 -1.15474 1.97986 0
M  V30 27474 C 2845.83 -1.35396 0.86744 0
M  V30 27475 O 2847.02 -1.32244 1.13389 0
M  V30 27476 C 2844.15 -2.51333 2.30314 0
M  V30 27477 H 2845.34 -0.802845 2.88954 0
M  V30 27478 H 2842.9 -0.382162 1.51556 0
M  V30 27479 H 2843.63 -2.91479 1.42164 0
M  V30 27480 H 2843.42 -2.38232 3.11429 0
M  V30 27481 H 2844.91 -3.24508 2.62839 0
M  V30 27482 N 2845.34 -1.52224 -0.408133 0
M  V30 27483 C 2846.57 -1.70474 -1.18124 0
M  V30 27484 C 2846.99 -0.413872 -1.8349 0
M  V30 27485 O 2846.35 0.628748 -1.70048 0
M  V30 27486 C 2846.4 -2.84217 -2.2193 0
M  V30 27487 O 2845.5 -2.49856 -3.28094 0
M  V30 27488 H 2844.84 -0.567476 -0.344771 0
M  V30 27489 H 2847.37 -1.98931 -0.478293 0
M  V30 27490 H 2847.38 -3.09158 -2.66243 0
M  V30 27491 H 2846.06 -3.77873 -1.73737 0
M  V30 27492 H 2844.64 -2.35589 -2.89054 0
M  V30 27493 N 2846.82 0.665425 -1.42863 0
M  V30 27494 C 2847.75 1.79096 -1.43029 0
M  V30 27495 C 2848.77 1.5946 -0.328058 0
M  V30 27496 O 2849.95 1.68406 -0.591738 0
M  V30 27497 C 2847.05 3.16344 -1.21571 0
M  V30 27498 C 2846.23 3.62746 -2.44405 0
M  V30 27499 C 2845.29 4.78758 -2.18352 0
M  V30 27500 O 2844.31 4.88821 -2.9162 0
M  V30 27501 N 2845.51 5.68119 -1.1925 0
M  V30 27502 H 2848.28 1.79435 -2.40048 0
M  V30 27503 H 2845.84 0.848847 -1.37863 0
M  V30 27504 H 2847.83 3.91624 -1.02044 0
M  V30 27505 H 2846.4 3.10849 -0.330423 0
M  V30 27506 H 2845.62 2.78043 -2.79438 0
M  V30 27507 H 2846.91 3.90493 -3.26179 0
M  V30 27508 H 2846.31 5.62649 -0.586702 0
M  V30 27509 H 2844.87 6.43171 -1.05709 0
M  V30 27510 N 2848.3 1.29191 0.902633 0
M  V30 27511 C 2849.58 1.07677 1.63295 0
M  V30 27512 C 2849.96 -0.3801 2.0765 0
M  V30 27513 O 2849.3 -1.36834 1.83 0
M  V30 27514 C 2849.51 2.06163 2.81599 0
M  V30 27515 C 2850.86 2.3692 3.52355 0
M  V30 27516 O 2851.89 2.04334 2.91763 0
M  V30 27517 O 2850.74 2.92584 4.61581 0
M  V30 27518 H 2847.84 0.412323 0.716881 0
M  V30 27519 H 2850.38 1.40552 0.950959 0
M  V30 27520 H 2849.16 3.04303 2.45998 0
M  V30 27521 H 2848.78 1.74 3.57505 0
M  V30 27522 N 2849.78 -1.1126 1.1162 0
M  V30 27523 C 2850.71 -2.17127 0.734053 0
M  V30 27524 C 2851.72 -1.61092 -0.235214 0
M  V30 27525 O 2852.91 -1.78491 -0.0178283 0
M  V30 27526 C 2850.01 -3.38839 0.0644278 0
M  V30 27527 C 2849.18 -4.24337 1.06099 0
M  V30 27528 C 2848.24 -5.24517 0.420574 0
M  V30 27529 O 2847.27 -5.58956 1.07505 0
M  V30 27530 N 2848.47 -5.7474 -0.815727 0
M  V30 27531 H 2851.24 -2.50522 1.64496 0
M  V30 27532 H 2848.8 -1.26799 1.00666 0
M  V30 27533 H 2850.79 -4.02952 -0.37578 0
M  V30 27534 H 2849.36 -3.03492 -0.749093 0
M  V30 27535 H 2848.58 -3.56651 1.6791 0
M  V30 27536 H 2849.87 -4.78299 1.73516 0
M  V30 27537 H 2849.26 -5.48945 -1.36659 0
M  V30 27538 H 2847.82 -6.40679 -1.19889 0
M  V30 27539 N 2851.25 -0.906798 -1.28899 0
M  V30 27540 C 2852.48 -0.552004 -1.994 0
M  V30 27541 C 2852.9 0.865019 -1.67818 0
M  V30 27542 O 2852.25 1.57197 -0.927105 0
M  V30 27543 C 2852.31 -0.743214 -3.53778 0
M  V30 27544 O 2852.03 -2.10447 -3.84244 0
M  V30 27545 C 2853.53 -0.394318 -4.41543 0
M  V30 27546 H 2850.75 -0.211118 -0.636923 0
M  V30 27547 H 2853.29 -1.21809 -1.64264 0
M  V30 27548 H 2851.45 -0.124211 -3.87201 0
M  V30 27549 H 2851.86 -2.13903 -4.78901 0
M  V30 27550 H 2853.33 -0.578911 -5.48956 0
M  V30 27551 H 2853.81 0.669061 -4.34074 0
M  V30 27552 H 2854.42 -0.990564 -4.13604 0
M  V30 27553 N 2852.73 1.42648 -0.670032 0
M  V30 27554 C 2853.67 2.28118 0.0613222 0
M  V30 27555 C 2854.64 1.40793 0.813389 0
M  V30 27556 O 2855.83 1.70233 0.809499 0
M  V30 27557 C 2852.95 3.20548 1.09393 0
M  V30 27558 C 2852 4.24245 0.43799 0
M  V30 27559 S 2852.83 5.29477 -0.800901 0
M  V30 27560 C 2853.99 6.25475 0.230751 0
M  V30 27561 H 2854.22 2.89798 -0.663656 0
M  V30 27562 H 2851.76 1.47407 -0.459416 0
M  V30 27563 H 2853.71 3.7434 1.68463 0
M  V30 27564 H 2852.37 2.58012 1.79132 0
M  V30 27565 H 2851.57 4.89086 1.21698 0
M  V30 27566 H 2851.17 3.73917 -0.0790003 0
M  V30 27567 H 2853.46 6.68643 1.09192 0
M  V30 27568 H 2854.4 7.07063 -0.38307 0
M  V30 27569 H 2854.81 5.61573 0.574092 0
M  V30 27570 N 2854.21 0.413044 1.52091 0
M  V30 27571 C 2855.45 -0.160939 2.03765 0
M  V30 27572 C 2855.82 -1.42048 1.29176 0
M  V30 27573 O 2857.02 -2.07315 1.71096 0
M  V30 27574 C 2855.29 -0.398809 3.55168 0
M  V30 27575 S 2856.85 -0.939679 4.2862 0
M  V30 27576 H 2853.66 -0.0432157 0.709685 0
M  V30 27577 H 2856.27 0.566864 1.87101 0
M  V30 27578 H 2854.97 0.524615 4.07033 0
M  V30 27579 H 2854.5 -1.15438 3.76082 0
M  V30 27580 H 2856.52 -2.21983 4.43777 0
M  V30 27581 N 2855.69 -1.56945 0.143591 0
M  V30 27582 C 2856.62 -2.12362 -0.83533 0
M  V30 27583 C 2857.6 -1.0463 -1.24465 0
M  V30 27584 O 2858.78 -1.32439 -1.34135 0
M  V30 27585 C 2855.91 -2.64052 -2.12118 0
M  V30 27586 C 2854.96 -3.83899 -1.85806 0
M  V30 27587 S 2855.79 -5.25062 -1.05213 0
M  V30 27588 C 2856.95 -5.80139 -2.34925 0
M  V30 27589 H 2857.18 -2.95063 -0.364057 0
M  V30 27590 H 2854.71 -1.54238 -0.0706329 0
M  V30 27591 H 2856.67 -2.94484 -2.85988 0
M  V30 27592 H 2855.33 -1.81488 -2.56361 0
M  V30 27593 H 2854.52 -4.18299 -2.81144 0
M  V30 27594 H 2854.13 -3.5421 -1.20046 0
M  V30 27595 H 2856.42 -5.91363 -3.306 0
M  V30 27596 H 2857.36 -6.77766 -2.05034 0
M  V30 27597 H 2857.77 -5.08361 -2.45417 0
M  V30 27598 N 2857.17 0.130197 -1.57061 0
M  V30 27599 C 2858.44 0.8696 -1.75206 0
M  V30 27600 C 2858.82 1.98583 -0.716098 0
M  V30 27601 O 2858.17 2.26993 0.261992 0
M  V30 27602 C 2858.38 1.39661 -3.19837 0
M  V30 27603 C 2859.73 1.85338 -3.82014 0
M  V30 27604 O 2860.75 1.49365 -3.23371 0
M  V30 27605 O 2859.61 2.51735 -4.85069 0
M  V30 27606 H 2856.71 0.412144 -0.716984 0
M  V30 27607 H 2859.25 0.11481 -1.69311 0
M  V30 27608 H 2858.03 0.59522 -3.86746 0
M  V30 27609 H 2857.65 2.21442 -3.30226 0
M  V30 27610 N 2858.65 1.52438 0.400055 0
M  V30 27611 C 2859.89 1.67189 1.14786 0
M  V30 27612 C 2860.22 0.405107 1.89928 0
M  V30 27613 O 2859.5 -0.596772 1.85119 0
M  V30 27614 C 2859.78 2.89981 2.13502 0
M  V30 27615 C 2859.64 4.26732 1.42196 0
M  V30 27616 C 2860.95 3.08305 3.14063 0
M  V30 27617 H 2858.07 0.608418 0.415929 0
M  V30 27618 H 2860.72 1.85012 0.43251 0
M  V30 27619 H 2858.87 2.74916 2.74505 0
M  V30 27620 H 2860.54 4.53543 0.842424 0
M  V30 27621 H 2858.78 4.27718 0.723864 0
M  V30 27622 H 2859.45 5.08715 2.14272 0
M  V30 27623 H 2861.93 3.22328 2.63142 0
M  V30 27624 H 2860.8 3.9572 3.80391 0
M  V30 27625 H 2861.06 2.22025 3.82305 0
M  V30 27626 N 2860.12 -0.657839 1.43214 0
M  V30 27627 C 2861.4 -1.41481 1.35065 0
M  V30 27628 C 2861.78 -2.111 -0.00379429 0
M  V30 27629 O 2861.13 -2.04463 -1.02015 0
M  V30 27630 C 2861.34 -2.40331 2.53065 0
M  V30 27631 C 2862.69 -3.04469 2.95945 0
M  V30 27632 O 2863.71 -2.50658 2.53079 0
M  V30 27633 O 2862.57 -4.02021 3.70191 0
M  V30 27634 H 2859.66 -0.631883 0.533528 0
M  V30 27635 H 2862.21 -0.685135 1.55255 0
M  V30 27636 H 2860.98 -1.87803 3.43287 0
M  V30 27637 H 2860.6 -3.20755 2.34951 0
M  V30 27638 N 2861.6 -1.29668 -0.895769 0
M  V30 27639 C 2862.51 -1.17028 -2.03327 0
M  V30 27640 C 2863.53 -0.0926267 -1.73753 0
M  V30 27641 O 2864.7 -0.305466 -1.9907 0
M  V30 27642 C 2861.77 -0.8519 -3.36071 0
M  V30 27643 C 2860.83 -2.0138 -3.79137 0
M  V30 27644 C 2860.06 -1.71052 -5.05546 0
M  V30 27645 O 2860.29 -0.633312 -5.66873 0
M  V30 27646 O 2859.22 -2.55969 -5.4476 0
M  V30 27647 H 2863.05 -2.1256 -2.16915 0
M  V30 27648 H 2860.63 -1.09158 -1.02005 0
M  V30 27649 H 2862.51 -0.689079 -4.15728 0
M  V30 27650 H 2861.19 0.0736065 -3.23616 0
M  V30 27651 H 2860.09 -2.23188 -3.0023 0
M  V30 27652 H 2861.43 -2.92065 -3.96181 0
M  V30 27653 N 2863.08 1.10667 -1.12208 0
M  V30 27654 C 2864.32 1.84201 -0.885968 0
M  V30 27655 C 2864.68 1.83099 0.577817 0
M  V30 27656 O 2865.88 2.52162 0.931007 0
M  V30 27657 C 2864.16 3.27017 -1.44203 0
M  V30 27658 S 2865.71 4.17708 -1.34409 0
M  V30 27659 H 2862.53 0.635087 -0.319664 0
M  V30 27660 H 2865.13 1.33186 -1.43114 0
M  V30 27661 H 2863.84 3.25388 -2.50102 0
M  V30 27662 H 2863.37 3.83102 -0.894241 0
M  V30 27663 H 2865.38 4.95206 -0.31396 0
M  V30 27664 N 2864.56 0.913621 1.28416 0
M  V30 27665 C 2865.47 0.407006 2.31042 0
M  V30 27666 C 2866.48 -0.505269 1.66502 0
M  V30 27667 O 2867.66 -0.391487 1.97558 0
M  V30 27668 C 2864.72 -0.344841 3.44981 0
M  V30 27669 C 2863.79 0.600638 4.25077 0
M  V30 27670 C 2863.02 -0.115422 5.33575 0
M  V30 27671 O 2863.24 -1.33717 5.54505 0
M  V30 27672 O 2862.18 0.549201 5.99389 0
M  V30 27673 H 2866 1.25878 2.76385 0
M  V30 27674 H 2863.59 0.678438 1.33107 0
M  V30 27675 H 2865.47 -0.769469 4.14315 0
M  V30 27676 H 2864.14 -1.17245 3.01721 0
M  V30 27677 H 2863.05 1.07466 3.58332 0
M  V30 27678 H 2864.38 1.39506 4.72016 0
M  V30 27679 N 2866.04 -1.4229 0.677588 0
M  V30 27680 C 2867.45 -1.55773 0.347403 0
M  V30 27681 C 2867.65 -1.65669 -1.147 0
M  V30 27682 O 2866.71 -1.62515 -1.93249 0
M  V30 27683 C 2868.02 -2.8063 1.08016 0
M  V30 27684 C 2869.57 -2.94405 1.06276 0
M  V30 27685 C 2870.04 -4.22126 1.7769 0
M  V30 27686 N 2871.53 -4.29044 1.74572 0
M  V30 27687 C 2872.27 -5.2669 2.26683 0
M  V30 27688 N 2871.77 -6.30472 2.87187 0
M  V30 27689 N 2873.56 -5.18507 2.17041 0
M  V30 27690 H 2865.71 -1.34111 1.64706 0
M  V30 27691 H 2867.97 -0.645755 0.694049 0
M  V30 27692 H 2867.68 -2.79465 2.13523 0
M  V30 27693 H 2867.55 -3.71607 0.64718 0
M  V30 27694 H 2869.94 -2.95096 0.0160177 0
M  V30 27695 H 2870.02 -2.04651 1.53465 0
M  V30 27696 H 2869.66 -4.22196 2.82334 0
M  V30 27697 H 2869.59 -5.1082 1.27949 0
M  V30 27698 H 2872.09 -3.54673 1.30443 0
M  V30 27699 H 2872.4 -7.0134 3.24564 0
M  V30 27700 H 2870.74 -6.31026 2.91258 0
M  V30 27701 H 2873.93 -4.3635 1.69459 0
M  V30 27702 H 2874.11 -5.94442 2.57959 0
M  V30 27703 N 2867.51 -0.421104 -1.5187 0
M  V30 27704 C 2868.46 0.416071 -2.24171 0
M  V30 27705 C 2869.45 1.00359 -1.25765 0
M  V30 27706 O 2870.64 0.924426 -1.50942 0
M  V30 27707 C 2867.77 1.52566 -3.07536 0
M  V30 27708 C 2866.85 0.948326 -4.13361 0
M  V30 27709 N 2867.25 0.0987044 -5.05704 0
M  V30 27710 C 2865.54 1.2176 -4.29058 0
M  V30 27711 C 2866.24 -0.223808 -5.81269 0
M  V30 27712 N 2865.22 0.388428 -5.4221 0
M  V30 27713 H 2869.02 -0.239217 -2.92925 0
M  V30 27714 H 2866.54 -0.23222 -1.60731 0
M  V30 27715 H 2868.53 2.13812 -3.57896 0
M  V30 27716 H 2867.19 2.18345 -2.40324 0
M  V30 27717 H 2868.2 -0.266519 -5.17214 0
M  V30 27718 H 2864.88 1.87409 -3.73074 0
M  V30 27719 H 2866.27 -0.914193 -6.65652 0
M  V30 27720 N 2868.99 1.56866 -0.151912 0
M  V30 27721 C 2870.4 1.83035 0.368096 0
M  V30 27722 C 2870.75 1.07085 1.644 0
M  V30 27723 O 2869.88 0.317685 2.14055 0
M  V30 27724 C 2870.47 3.32016 0.674617 0
M  V30 27725 C 2869.03 3.58749 1.13913 0
M  V30 27726 C 2868.18 2.7681 0.164784 0
M  V30 27727 H 2871.13 1.54169 -0.376526 0
M  V30 27728 H 2871.15 3.48438 1.52877 0
M  V30 27729 H 2870.66 3.87267 -0.254181 0
M  V30 27730 H 2868.77 3.0889 2.0837 0
M  V30 27731 H 2868.88 4.67188 1.06171 0
M  V30 27732 H 2867.24 2.46044 0.658376 0
M  V30 27733 H 2868.03 3.34834 -0.757691 0
M  V30 27734 N 2870.47 -0.121866 1.57128 0
M  V30 27735 C 2871.71 -0.83608 1.86518 0
M  V30 27736 C 2872.07 -1.77186 0.739529 0
M  V30 27737 O 2873.28 -2.52743 0.915124 0
M  V30 27738 C 2871.55 -1.56872 3.21132 0
M  V30 27739 S 2873.11 -2.32491 3.72147 0
M  V30 27740 H 2869.92 -0.279103 0.653928 0
M  V30 27741 H 2872.53 -0.0945911 1.95271 0
M  V30 27742 H 2871.23 -0.873184 4.01003 0
M  V30 27743 H 2870.76 -2.35064 3.1545 0
M  V30 27744 H 2872.78 -3.58158 3.4342 0
M  V30 27745 N 2871.95 -1.52648 -0.391965 0
M  V30 27746 C 2873.2 -1.67216 -1.13504 0
M  V30 27747 C 2873.52 -0.413073 -1.90575 0
M  V30 27748 O 2872.79 0.572465 -1.87349 0
M  V30 27749 H 2871.37 -0.616379 -0.422002 0
M  V30 27750 H 2874.03 -1.89752 -0.444986 0
M  V30 27751 H 2873.13 -2.52122 -1.8396 0
M  V30 27752 N 2873.43 0.650235 -1.43561 0
M  V30 27753 C 2874.37 1.78425 -1.49223 0
M  V30 27754 C 2875.37 1.65409 -0.365557 0
M  V30 27755 O 2876.57 1.71719 -0.539679 0
M  V30 27756 H 2872.95 0.58873 -0.467869 0
M  V30 27757 H 2874.92 1.7077 -2.44704 0
M  V30 27758 C 2873.67 3.16696 -1.43524 0
M  V30 27759 H 2872.99 3.2735 -2.29526 0
M  V30 27760 H 2874.43 3.95992 -1.51547 0
M  V30 27761 C 2872.89 3.36551 -0.153256 0
M  V30 27762 O 2873.42 3.9397 0.784247 0
M  V30 27763 N 2871.63 2.90533 -0.0624913 0
M  V30 27764 H 2871.17 2.43991 -0.826215 0
M  V30 27765 H 2871.13 3.04194 0.794563 0
M  V30 27766 N 2874.9 1.30141 0.88888 0
M  V30 27767 C 2876.15 1.18504 1.63711 0
M  V30 27768 C 2876.47 -0.261365 1.9324 0
M  V30 27769 O 2875.74 -1.17687 1.5661 0
M  V30 27770 H 2874.32 0.43559 0.606853 0
M  V30 27771 H 2876.99 1.63215 1.06522 0
M  V30 27772 H 2876.08 1.74304 2.58891 0
M  V30 27773 N 2876.38 -1.1007 1.12794 0
M  V30 27774 C 2877.61 -1.85885 0.908538 0
M  V30 27775 C 2878.03 -1.80842 -0.542377 0
M  V30 27776 O 2877.38 -1.19983 -1.37515 0
M  V30 27777 C 2877.43 -3.34132 1.37979 0
M  V30 27778 O 2877.15 -3.39101 2.77384 0
M  V30 27779 C 2878.66 -4.26809 1.19787 0
M  V30 27780 H 2875.88 -0.587366 0.324411 0
M  V30 27781 H 2878.42 -1.39122 1.49884 0
M  V30 27782 H 2876.57 -3.78346 0.832633 0
M  V30 27783 H 2876.99 -4.31516 2.98151 0
M  V30 27784 H 2878.46 -5.29011 1.57644 0
M  V30 27785 H 2878.94 -4.3898 0.138845 0
M  V30 27786 H 2879.55 -3.88403 1.73272 0
M  V30 27787 N 2877.86 -0.920419 -1.2793 0
M  V30 27788 C 2879.1 -0.564232 -1.96458 0
M  V30 27789 C 2879.46 0.876937 -1.70803 0
M  V30 27790 O 2880.67 1.34103 -2.32959 0
M  V30 27791 C 2878.94 -0.872702 -3.46581 0
M  V30 27792 S 2880.5 -0.623935 -4.34341 0
M  V30 27793 H 2877.31 -0.208535 -0.679731 0
M  V30 27794 H 2879.92 -1.1873 -1.55317 0
M  V30 27795 H 2878.62 -1.9194 -3.6275 0
M  V30 27796 H 2878.15 -0.238548 -3.92676 0
M  V30 27797 H 2880.17 0.521658 -4.9345 0
M  V30 27798 N 2879.34 1.41929 -0.685124 0
M  V30 27799 C 2880.29 2.30796 -0.0132275 0
M  V30 27800 C 2881.26 1.46534 0.782104 0
M  V30 27801 O 2882.44 1.75345 0.752259 0
M  V30 27802 C 2879.58 3.3248 0.924709 0
M  V30 27803 C 2878.69 4.31827 0.122105 0
M  V30 27804 C 2877.83 5.20583 1.05673 0
M  V30 27805 C 2876.87 6.11604 0.246419 0
M  V30 27806 N 2876 6.92877 1.1343 0
M  V30 27807 H 2880.84 2.87696 -0.77684 0
M  V30 27808 H 2878.38 1.41703 -0.394816 0
M  V30 27809 H 2880.34 3.89974 1.48244 0
M  V30 27810 H 2878.97 2.77155 1.65484 0
M  V30 27811 H 2878.02 3.76368 -0.552401 0
M  V30 27812 H 2879.33 4.96221 -0.50656 0
M  V30 27813 H 2878.49 5.82859 1.68405 0
M  V30 27814 H 2877.23 4.56391 1.71927 0
M  V30 27815 H 2876.23 5.48386 -0.39404 0
M  V30 27816 H 2877.46 6.77848 -0.412172 0
M  V30 27817 H 2875.4 6.31303 1.78305 0
M  V30 27818 H 2875.32 7.53916 0.560956 0
M  V30 27819 H 2876.59 7.59631 1.74875 0
M  V30 27820 N 2880.82 0.429152 1.51644 0
M  V30 27821 C 2881.76 -0.400881 2.29119 0
M  V30 27822 C 2882.76 -1.02817 1.34629 0
M  V30 27823 O 2883.96 -0.964071 1.52005 0
M  V30 27824 H 2880.34 -0.148082 0.737276 0
M  V30 27825 H 2882.31 0.27351 2.97144 0
M  V30 27826 C 2881.06 -1.49423 3.13955 0
M  V30 27827 H 2880.38 -1.0209 3.86546 0
M  V30 27828 H 2881.82 -2.04842 3.71235 0
M  V30 27829 C 2880.28 -2.47289 2.28801 0
M  V30 27830 O 2880.81 -3.51638 1.94199 0
M  V30 27831 N 2879.02 -2.17979 1.92181 0
M  V30 27832 H 2878.56 -1.33151 2.20519 0
M  V30 27833 H 2878.52 -2.83702 1.35502 0
M  V30 27834 N 2882.29 -1.56783 0.160229 0
M  V30 27835 C 2883.52 -2.00913 -0.49413 0
M  V30 27836 C 2883.94 -1.04041 -1.57546 0
M  V30 27837 O 2883.29 -0.0394902 -1.82457 0
M  V30 27838 C 2883.35 -3.44907 -1.08265 0
M  V30 27839 O 2883.07 -4.38077 -0.0444934 0
M  V30 27840 C 2884.57 -4.04382 -1.81633 0
M  V30 27841 H 2881.79 -0.658778 -0.127486 0
M  V30 27842 H 2884.33 -2.02857 0.258701 0
M  V30 27843 H 2882.49 -3.43773 -1.78603 0
M  V30 27844 H 2882.9 -5.22322 -0.477452 0
M  V30 27845 H 2884.37 -5.07093 -2.18085 0
M  V30 27846 H 2884.85 -3.45842 -2.70721 0
M  V30 27847 H 2885.46 -4.09186 -1.15962 0
M  V30 27848 N 2883.77 0.113531 -1.57191 0
M  V30 27849 C 2885.02 0.821564 -1.85413 0
M  V30 27850 C 2885.35 1.79269 -0.746753 0
M  V30 27851 O 2884.63 1.92926 0.246937 0
M  V30 27852 C 2884.91 1.56663 -3.24235 0
M  V30 27853 C 2884.76 0.614745 -4.45579 0
M  V30 27854 C 2886.08 2.52155 -3.60702 0
M  V30 27855 H 2883.2 0.297218 -0.674411 0
M  V30 27856 H 2885.84 0.0856606 -1.89807 0
M  V30 27857 H 2883.99 2.19396 -3.20621 0
M  V30 27858 H 2885.67 -0.00415246 -4.613 0
M  V30 27859 H 2883.91 -0.0733094 -4.33738 0
M  V30 27860 H 2884.58 1.17282 -5.39397 0
M  V30 27861 H 2887.06 1.99525 -3.65142 0
M  V30 27862 H 2885.93 3.01315 -4.58803 0
M  V30 27863 H 2886.19 3.35071 -2.88409 0
M  V30 27864 N 2885.25 1.52854 0.383864 0
M  V30 27865 C 2886.5 1.67816 1.12616 0
M  V30 27866 C 2886.82 0.423174 1.90353 0
M  V30 27867 O 2886.09 -0.562521 1.8765 0
M  V30 27868 H 2884.67 0.618609 0.418727 0
M  V30 27869 H 2887.33 1.89985 0.434917 0
M  V30 27870 H 2886.43 2.53094 1.8262 0
M  V30 27871 N 2886.73 -0.642612 1.43904 0
M  V30 27872 C 2887.95 -1.43481 1.4976 0
M  V30 27873 C 2888.38 -1.87717 0.119944 0
M  V30 27874 O 2887.74 -1.58034 -0.88853 0
M  V30 27875 C 2887.79 -2.63894 2.45749 0
M  V30 27876 O 2886.89 -3.63327 1.95108 0
M  V30 27877 H 2886.23 -0.429782 0.506146 0
M  V30 27878 H 2888.76 -0.785404 1.88925 0
M  V30 27879 H 2888.77 -3.1158 2.63405 0
M  V30 27880 H 2887.45 -2.3104 3.45822 0
M  V30 27881 H 2886.02 -3.22528 1.87163 0
M  V30 27882 N 2888.21 -1.30611 -0.881966 0
M  V30 27883 C 2889.44 -1.22362 -1.66467 0
M  V30 27884 C 2889.85 0.215474 -1.87969 0
M  V30 27885 O 2889.19 1.15386 -1.4294 0
M  V30 27886 C 2889.25 -1.88477 -3.06131 0
M  V30 27887 C 2888.91 -3.37809 -3.07789 0
M  V30 27888 C 2889.91 -4.33754 -2.86625 0
M  V30 27889 C 2887.6 -3.79306 -3.2929 0
M  V30 27890 C 2889.59 -5.69169 -2.86924 0
M  V30 27891 C 2887.28 -5.14838 -3.29219 0
M  V30 27892 C 2888.28 -6.0958 -3.08061 0
M  V30 27893 O 2887.96 -7.42635 -3.07811 0
M  V30 27894 H 2887.7 -0.424467 -0.526121 0
M  V30 27895 H 2890.25 -1.72823 -1.11001 0
M  V30 27896 H 2888.48 -1.3255 -3.63273 0
M  V30 27897 H 2890.17 -1.74307 -3.66568 0
M  V30 27898 H 2890.93 -4.03025 -2.69807 0
M  V30 27899 H 2886.81 -3.06004 -3.44794 0
M  V30 27900 H 2890.36 -6.43093 -2.70328 0
M  V30 27901 H 2886.25 -5.45206 -3.45573 0
M  V30 27902 H 2887.02 -7.51661 -3.23956 0
M  V30 27903 N 2889.69 1.0947 -1.13376 0
M  V30 27904 C 2890.63 2.18184 -0.806143 0
M  V30 27905 C 2891.63 1.68077 0.21133 0
M  V30 27906 O 2892.83 1.7987 0.0685242 0
M  V30 27907 H 2889.21 0.711686 -0.242913 0
M  V30 27908 H 2891.18 2.43048 -1.73119 0
M  V30 27909 C 2889.93 3.46505 -0.287989 0
M  V30 27910 H 2889.25 3.8543 -1.06224 0
M  V30 27911 H 2890.69 4.23889 -0.0971799 0
M  V30 27912 C 2889.15 3.22142 0.986199 0
M  V30 27913 O 2889.68 3.44732 2.06211 0
M  V30 27914 N 2887.89 2.75749 0.917104 0
M  V30 27915 H 2887.43 2.57567 0.0414157 0
M  V30 27916 H 2887.39 2.59826 1.77025 0
M  V30 27917 N 2891.16 0.92719 1.2744 0
M  V30 27918 C 2892.4 0.574643 1.96156 0
M  V30 27919 C 2892.77 -0.867867 1.71266 0
M  V30 27920 O 2893.97 -1.32866 2.33667 0
M  V30 27921 C 2892.24 0.89107 3.46114 0
M  V30 27922 S 2893.8 0.646961 4.34004 0
M  V30 27923 H 2890.62 0.212137 0.678615 0
M  V30 27924 H 2893.22 1.19552 1.54686 0
M  V30 27925 H 2891.92 1.93861 3.61727 0
M  V30 27926 H 2891.45 0.25937 3.92544 0
M  V30 27927 H 2893.47 -0.495481 4.9372 0
M  V30 27928 N 2892.64 -1.41564 0.692641 0
M  V30 27929 C 2893.57 -2.33466 0.0397735 0
M  V30 27930 C 2894.55 -1.51658 -0.770307 0
M  V30 27931 O 2895.74 -1.80205 -0.723871 0
M  V30 27932 C 2892.87 -3.35451 -0.899436 0
M  V30 27933 C 2891.82 -4.27548 -0.196663 0
M  V30 27934 C 2891.15 -5.19883 -1.25003 0
M  V30 27935 C 2892.45 -5.13858 0.935248 0
M  V30 27936 H 2894.14 -2.88309 0.807346 0
M  V30 27937 H 2891.69 -1.38627 0.389689 0
M  V30 27938 H 2893.64 -3.98667 -1.36538 0
M  V30 27939 H 2892.36 -2.78951 -1.69864 0
M  V30 27940 H 2891.02 -3.65752 0.249222 0
M  V30 27941 H 2890.67 -4.597 -2.04169 0
M  V30 27942 H 2890.37 -5.82335 -0.784829 0
M  V30 27943 H 2891.9 -5.85975 -1.71655 0
M  V30 27944 H 2893.31 -5.70658 0.54972 0
M  V30 27945 H 2891.71 -5.85236 1.32736 0
M  V30 27946 H 2892.78 -4.51197 1.77621 0
M  V30 27947 N 2894.12 -0.437188 -1.51415 0
M  V30 27948 C 2895.36 0.128502 -2.03996 0
M  V30 27949 C 2895.72 1.39974 -1.3142 0
M  V30 27950 O 2896.92 2.04567 -1.74373 0
M  V30 27951 C 2895.2 0.342254 -3.55757 0
M  V30 27952 S 2896.75 0.871371 -4.30061 0
M  V30 27953 H 2893.57 0.0319197 -0.710283 0
M  V30 27954 H 2896.17 -0.596559 -1.86176 0
M  V30 27955 H 2894.88 -0.589304 -4.06147 0
M  V30 27956 H 2894.41 1.0944 -3.77871 0
M  V30 27957 H 2896.42 2.14895 -4.47252 0
M  V30 27958 N 2895.6 1.56696 -0.168541 0
M  V30 27959 C 2896.83 2.0088 0.482767 0
M  V30 27960 C 2897.24 1.04782 1.57535 0
M  V30 27961 O 2896.58 0.0403069 1.83656 0
M  V30 27962 C 2896.64 3.41492 1.12354 0
M  V30 27963 C 2896.3 4.56673 0.172946 0
M  V30 27964 C 2897.3 5.16337 -0.607656 0
M  V30 27965 C 2894.99 5.02252 0.0695809 0
M  V30 27966 C 2896.98 6.20007 -1.47885 0
M  V30 27967 C 2894.67 6.05772 -0.805203 0
M  V30 27968 C 2895.67 6.64521 -1.57801 0
M  V30 27969 O 2895.35 7.66034 -2.43818 0
M  V30 27970 H 2895.09 0.663726 0.128235 0
M  V30 27971 H 2897.64 2.03663 -0.266568 0
M  V30 27972 H 2895.87 3.35614 1.92094 0
M  V30 27973 H 2897.56 3.69648 1.67676 0
M  V30 27974 H 2898.32 4.82007 -0.537954 0
M  V30 27975 H 2894.2 4.56238 0.660877 0
M  V30 27976 H 2897.75 6.65791 -2.08251 0
M  V30 27977 H 2893.64 6.39527 -0.876117 0
M  V30 27978 H 2894.41 7.83345 -2.37303 0
M  V30 27979 N 2897.08 -0.105193 1.57249 0
M  V30 27980 C 2898.49 -0.660834 1.74613 0
M  V30 27981 C 2898.84 -1.79625 0.789262 0
M  V30 27982 O 2897.96 -2.16372 -0.034623 0
M  V30 27983 C 2898.56 -1.20553 3.16626 0
M  V30 27984 C 2897.12 -1.70734 3.3545 0
M  V30 27985 C 2896.26 -0.612716 2.70446 0
M  V30 27986 H 2899.21 0.120818 1.58239 0
M  V30 27987 H 2899.24 -2.07502 3.1894 0
M  V30 27988 H 2898.75 -0.378944 3.86246 0
M  V30 27989 H 2896.85 -2.55826 2.70895 0
M  V30 27990 H 2896.96 -1.80728 4.43705 0
M  V30 27991 H 2895.33 -1.04971 2.32063 0
M  V30 27992 H 2896.11 0.203127 3.42699 0
M  V30 27993 N 2898.55 -1.53055 -0.375752 0
M  V30 27994 C 2899.8 -1.68411 -1.11724 0
M  V30 27995 C 2900.12 -0.433263 -1.90126 0
M  V30 27996 O 2899.39 0.552562 -1.87946 0
M  V30 27997 H 2897.97 -0.620821 -0.41544 0
M  V30 27998 H 2900.64 -1.90213 -0.424835 0
M  V30 27999 H 2899.73 -2.54059 -1.81275 0
M  V30 28000 N 2900.03 0.634971 -1.44242 0
M  V30 28001 C 2901.28 1.3946 -1.46823 0
M  V30 28002 C 2901.61 1.94246 -0.0993704 0
M  V30 28003 O 2900.86 1.73865 0.898295 0
M  V30 28004 C 2901.16 2.58042 -2.47284 0
M  V30 28005 C 2900.83 2.21567 -3.92707 0
M  V30 28006 C 2899.49 2.11333 -4.3231 0
M  V30 28007 C 2901.84 1.92687 -4.84274 0
M  V30 28008 C 2899.17 1.704 -5.6141 0
M  V30 28009 C 2901.52 1.53247 -6.13757 0
M  V30 28010 C 2900.19 1.41551 -6.52319 0
M  V30 28011 H 2899.46 0.510321 -0.537265 0
M  V30 28012 H 2902.1 0.720409 -1.77433 0
M  V30 28013 H 2900.41 3.30676 -2.10144 0
M  V30 28014 H 2902.1 3.16267 -2.46528 0
M  V30 28015 H 2898.69 2.3045 -3.61373 0
M  V30 28016 H 2902.88 1.99505 -4.54435 0
M  V30 28017 H 2898.13 1.59945 -5.90108 0
M  V30 28018 H 2902.31 1.29937 -6.84171 0
M  V30 28019 H 2899.94 1.09605 -7.52257 0
M  V30 28020 N 2901.51 1.31076 0.875027 0
M  V30 28021 C 2902.42 1.20248 2.01439 0
M  V30 28022 C 2903.44 0.120258 1.73584 0
M  V30 28023 O 2904.61 0.337098 1.98559 0
M  V30 28024 C 2901.68 0.905258 3.34673 0
M  V30 28025 C 2900.74 2.07386 3.75885 0
M  V30 28026 C 2899.97 1.79073 5.02761 0
M  V30 28027 O 2900.19 0.723417 5.65794 0
M  V30 28028 O 2899.13 2.64604 5.40619 0
M  V30 28029 H 2902.95 2.15984 2.13506 0
M  V30 28030 H 2900.54 1.10767 1.00255 0
M  V30 28031 H 2902.42 0.75513 4.14579 0
M  V30 28032 H 2901.1 -0.0221126 3.23692 0
M  V30 28033 H 2900 2.27937 2.96641 0
M  V30 28034 H 2901.34 2.9833 3.91484 0
M  V30 28035 N 2902.99 -1.08867 1.13955 0
M  V30 28036 C 2903.92 -2.17679 0.844862 0
M  V30 28037 C 2904.9 -1.68942 -0.198183 0
M  V30 28038 O 2906.08 -1.9412 -0.0558732 0
M  V30 28039 C 2903.21 -3.45856 0.316385 0
M  V30 28040 C 2902.17 -4.0796 1.29434 0
M  V30 28041 C 2901.49 -5.3103 0.625368 0
M  V30 28042 C 2902.79 -4.4979 2.65492 0
M  V30 28043 H 2904.49 -2.42588 1.75475 0
M  V30 28044 H 2902.03 -1.16591 0.845136 0
M  V30 28045 H 2903.99 -4.21286 0.0978616 0
M  V30 28046 H 2902.71 -3.20487 -0.628916 0
M  V30 28047 H 2901.37 -3.34555 1.49895 0
M  V30 28048 H 2901.02 -5.01945 -0.32559 0
M  V30 28049 H 2900.72 -5.73537 1.27787 0
M  V30 28050 H 2902.24 -6.09179 0.416259 0
M  V30 28051 H 2903.66 -5.16419 2.48966 0
M  V30 28052 H 2902.05 -5.03199 3.26972 0
M  V30 28053 H 2903.12 -3.61908 3.22723 0
M  V30 28054 N 2904.47 -0.933936 -1.26946 0
M  V30 28055 C 2905.69 -0.594175 -1.98185 0
M  V30 28056 C 2906.11 0.829228 -1.69615 0
M  V30 28057 O 2905.47 1.55195 -0.960241 0
M  V30 28058 C 2905.52 -0.818088 -3.52122 0
M  V30 28059 O 2905.24 -2.1855 -3.79694 0
M  V30 28060 C 2906.74 -0.487887 -4.40607 0
M  V30 28061 H 2903.96 -0.22458 -0.632301 0
M  V30 28062 H 2906.5 -1.25266 -1.61643 0
M  V30 28063 H 2904.66 -0.206314 -3.8685 0
M  V30 28064 H 2905.07 -2.24013 -4.74256 0
M  V30 28065 H 2906.55 -0.695222 -5.47604 0
M  V30 28066 H 2907.02 0.576837 -4.35395 0
M  V30 28067 H 2907.63 -1.07807 -4.11409 0
M  V30 28068 N 2905.94 1.41194 -0.700139 0
M  V30 28069 C 2906.89 2.27995 -0.0144499 0
M  V30 28070 C 2907.88 1.42444 0.748224 0
M  V30 28071 O 2909.07 1.65675 0.622966 0
M  V30 28072 C 2906.2 3.30802 0.91788 0
M  V30 28073 C 2905.29 4.2383 0.151212 0
M  V30 28074 N 2905.68 4.9848 -0.857408 0
M  V30 28075 C 2903.97 4.44326 0.38603 0
M  V30 28076 C 2904.68 5.66601 -1.31673 0
M  V30 28077 N 2903.65 5.39798 -0.641783 0
M  V30 28078 H 2907.45 2.83147 -0.787712 0
M  V30 28079 H 2904.97 1.53461 -0.531371 0
M  V30 28080 H 2906.96 3.91815 1.4243 0
M  V30 28081 H 2905.62 2.77211 1.69069 0
M  V30 28082 H 2906.64 5.02891 -1.23779 0
M  V30 28083 H 2903.31 4.01737 1.13637 0
M  V30 28084 H 2904.7 6.36439 -2.15395 0
M  V30 28085 N 2907.42 0.445212 1.51181 0
M  V30 28086 C 2908.37 -0.376557 2.29532 0
M  V30 28087 C 2909.36 -1.01383 1.35712 0
M  V30 28088 O 2910.57 -0.947895 1.53019 0
M  V30 28089 H 2906.95 -0.140254 0.738805 0
M  V30 28090 H 2908.92 0.30501 2.96837 0
M  V30 28091 C 2907.67 -1.46085 3.15523 0
M  V30 28092 H 2906.99 -0.979844 3.87607 0
M  V30 28093 H 2908.43 -2.00893 3.73387 0
M  V30 28094 C 2906.89 -2.44848 2.31411 0
M  V30 28095 O 2907.42 -3.49559 1.97918 0
M  V30 28096 N 2905.62 -2.15928 1.94482 0
M  V30 28097 H 2905.17 -1.30804 2.21919 0
M  V30 28098 H 2905.13 -2.82249 1.38503 0
M  V30 28099 N 2908.9 -1.56605 0.176849 0
M  V30 28100 C 2909.85 -2.19551 -0.76812 0
M  V30 28101 C 2910.84 -1.16118 -1.23341 0
M  V30 28102 O 2912.05 -1.34305 -1.19842 0
M  V30 28103 H 2908.42 -0.703383 -0.266001 0
M  V30 28104 H 2910.39 -2.97637 -0.213322 0
M  V30 28105 C 2909.14 -2.85479 -1.98487 0
M  V30 28106 H 2908.47 -3.648 -1.63588 0
M  V30 28107 H 2909.91 -3.32985 -2.62483 0
M  V30 28108 C 2908.37 -1.85543 -2.81203 0
M  V30 28109 O 2908.9 -1.34434 -3.78537 0
M  V30 28110 N 2907.1 -1.54177 -2.46329 0
M  V30 28111 H 2906.65 -1.95932 -1.67237 0
M  V30 28112 H 2906.61 -0.875648 -3.0196 0
M  V30 28113 N 2910.38 0.0968524 -1.57302 0
M  V30 28114 C 2911.66 0.832241 -1.77012 0
M  V30 28115 C 2912.04 1.97019 -0.758059 0
M  V30 28116 O 2911.38 2.27498 0.213784 0
M  V30 28117 C 2911.59 1.32845 -3.22728 0
M  V30 28118 C 2912.94 1.77194 -3.85859 0
M  V30 28119 O 2913.97 1.42472 -3.26466 0
M  V30 28120 O 2912.82 2.41389 -4.90299 0
M  V30 28121 H 2909.92 0.396843 -0.725565 0
M  V30 28122 H 2912.46 0.0788707 -1.69517 0
M  V30 28123 H 2911.24 0.513052 -3.87922 0
M  V30 28124 H 2910.86 2.14388 -3.34849 0
M  V30 28125 N 2911.86 1.53252 0.36763 0
M  V30 28126 C 2913.1 1.71036 1.1192 0
M  V30 28127 C 2913.46 0.451463 1.86617 0
M  V30 28128 O 2914.66 0.505962 2.63995 0
M  V30 28129 C 2912.93 2.92442 2.05456 0
M  V30 28130 S 2914.49 3.30921 2.88161 0
M  V30 28131 H 2911.31 0.601855 0.378539 0
M  V30 28132 H 2913.91 1.91349 0.400724 0
M  V30 28133 H 2912.62 3.82264 1.49339 0
M  V30 28134 H 2912.15 2.74525 2.81779 0
M  V30 28135 H 2914.16 2.82774 4.07742 0
M  V30 28136 N 2913.34 -0.627313 1.44577 0
M  V30 28137 C 2914.27 -1.7502 1.54565 0
M  V30 28138 C 2915.25 -1.65368 0.398407 0
M  V30 28139 O 2916.43 -1.8407 0.619022 0
M  V30 28140 C 2913.56 -3.13564 1.49315 0
M  V30 28141 C 2912.52 -3.38008 2.62555 0
M  V30 28142 C 2911.84 -4.76621 2.42356 0
M  V30 28143 C 2913.14 -3.30195 4.04684 0
M  V30 28144 H 2914.84 -1.66918 2.48553 0
M  V30 28145 H 2912.38 -0.801615 1.19625 0
M  V30 28146 H 2914.33 -3.91897 1.54902 0
M  V30 28147 H 2913.06 -3.22459 0.518449 0
M  V30 28148 H 2911.72 -2.62057 2.56363 0
M  V30 28149 H 2911.37 -4.82224 1.4307 0
M  V30 28150 H 2911.07 -4.93934 3.18282 0
M  V30 28151 H 2912.59 -5.57179 2.49768 0
M  V30 28152 H 2914 -3.98427 4.12224 0
M  V30 28153 H 2912.4 -3.59041 4.80842 0
M  V30 28154 H 2913.47 -2.27941 4.27984 0
M  V30 28155 N 2914.81 -1.31539 -0.868063 0
M  V30 28156 C 2916.09 -1.11968 -1.60382 0
M  V30 28157 C 2916.47 0.324912 -2.08585 0
M  V30 28158 O 2915.82 1.31934 -1.86563 0
M  V30 28159 C 2916.03 -2.13556 -2.76034 0
M  V30 28160 C 2917.38 -2.46179 -3.45949 0
M  V30 28161 O 2918.4 -2.11998 -2.86243 0
M  V30 28162 O 2917.26 -3.04719 -4.53661 0
M  V30 28163 H 2914.35 -0.431185 -0.705697 0
M  V30 28164 H 2916.9 -1.43024 -0.91336 0
M  V30 28165 H 2915.67 -3.10719 -2.37844 0
M  V30 28166 H 2915.29 -1.83417 -3.52766 0
M  V30 28167 N 2916.29 1.08262 -1.1453 0
M  V30 28168 C 2917.54 1.80055 -0.909024 0
M  V30 28169 C 2917.85 1.87237 0.565826 0
M  V30 28170 O 2919.06 2.55459 0.919409 0
M  V30 28171 C 2917.52 3.23517 -1.57687 0
M  V30 28172 C 2917.12 3.24563 -3.08808 0
M  V30 28173 C 2918.87 3.99983 -1.42177 0
M  V30 28174 C 2916.77 4.62622 -3.68422 0
M  V30 28175 H 2915.7 0.674775 -0.336444 0
M  V30 28176 H 2918.36 1.21585 -1.37439 0
M  V30 28177 H 2916.74 3.82122 -1.03918 0
M  V30 28178 H 2917.91 2.75656 -3.69256 0
M  V30 28179 H 2916.23 2.61592 -3.23973 0
M  V30 28180 H 2918.82 5.02002 -1.84115 0
M  V30 28181 H 2919.17 4.1467 -0.368062 0
M  V30 28182 H 2919.7 3.4785 -1.9299 0
M  V30 28183 H 2916.44 4.53138 -4.73652 0
M  V30 28184 H 2915.96 5.11805 -3.12755 0
M  V30 28185 H 2917.64 5.31596 -3.68802 0
M  V30 28186 N 2917.77 0.940655 1.26449 0
M  V30 28187 C 2919.05 0.505844 1.88946 0
M  V30 28188 C 2919.43 -1.01654 1.85013 0
M  V30 28189 O 2918.77 -1.87632 1.30409 0
M  V30 28190 C 2918.98 1.0666 3.32302 0
M  V30 28191 C 2920.33 1.13493 4.09151 0
M  V30 28192 O 2921.36 1.01714 3.41369 0
M  V30 28193 O 2920.22 1.31807 5.30367 0
M  V30 28194 H 2917.31 0.164773 0.810419 0
M  V30 28195 H 2919.86 1.03318 1.34623 0
M  V30 28196 H 2918.63 2.11021 3.29524 0
M  V30 28197 H 2918.25 0.521672 3.94163 0
M  V30 28198 N 2919.25 -1.40821 0.707617 0
M  V30 28199 C 2920.16 -2.34545 0.0507658 0
M  V30 28200 C 2921.17 -1.56877 -0.7527 0
M  V30 28201 O 2922.35 -1.89303 -0.687491 0
M  V30 28202 C 2919.41 -3.35719 -0.865672 0
M  V30 28203 C 2918.48 -4.29267 -0.0530559 0
M  V30 28204 C 2917.71 -5.25608 -0.925846 0
M  V30 28205 O 2917.93 -5.27707 -2.16521 0
M  V30 28206 O 2916.87 -6.00767 -0.369088 0
M  V30 28207 H 2920.69 -2.92318 0.823639 0
M  V30 28208 H 2918.28 -1.4188 0.468035 0
M  V30 28209 H 2920.16 -3.97786 -1.39084 0
M  V30 28210 H 2918.83 -2.80371 -1.61783 0
M  V30 28211 H 2917.74 -3.7051 0.516996 0
M  V30 28212 H 2919.07 -4.87745 0.660702 0
M  V30 28213 N 2920.73 -0.453223 -1.50943 0
M  V30 28214 C 2921.97 0.106858 -2.0412 0
M  V30 28215 C 2922.33 1.38573 -1.32897 0
M  V30 28216 O 2923.53 2.02706 -1.76533 0
M  V30 28217 C 2921.8 0.304502 -3.561 0
M  V30 28218 S 2923.36 0.825708 -4.30961 0
M  V30 28219 H 2920.18 0.0243844 -0.710582 0
M  V30 28220 H 2922.78 -0.616272 -1.85533 0
M  V30 28221 H 2921.48 -0.632349 -4.05499 0
M  V30 28222 H 2921.02 1.05426 -3.7901 0
M  V30 28223 H 2923.03 2.10139 -4.49506 0
M  V30 28224 N 2922.2 1.56509 -0.185151 0
M  V30 28225 C 2923.43 2.02114 0.465242 0
M  V30 28226 C 2923.85 1.0645 1.55081 0
M  V30 28227 O 2923.21 0.0463171 1.81241 0
M  V30 28228 C 2923.26 3.46231 1.00778 0
M  V30 28229 O 2922.36 3.53667 2.12117 0
M  V30 28230 H 2921.7 0.654845 0.10988 0
M  V30 28231 H 2924.23 2.0249 -0.293108 0
M  V30 28232 H 2924.24 3.8582 1.32691 0
M  V30 28233 H 2922.92 4.15354 0.21304 0
M  V30 28234 H 2921.5 3.25946 1.81144 0
M  V30 28235 N 2923.68 -0.0885089 1.57351 0
M  V30 28236 C 2924.91 -0.808017 1.91013 0
M  V30 28237 C 2925.33 -1.71164 0.780039 0
M  V30 28238 O 2924.69 -1.79307 -0.268051 0
M  V30 28239 C 2924.74 -1.59179 3.23565 0
M  V30 28240 O 2923.84 -2.70124 3.11619 0
M  V30 28241 H 2923.18 -0.221554 0.625947 0
M  V30 28242 H 2925.71 -0.0617594 2.04507 0
M  V30 28243 H 2925.72 -1.97461 3.57034 0
M  V30 28244 H 2924.4 -0.92867 4.05399 0
M  V30 28245 H 2922.97 -2.34822 2.89678 0
M  V30 28246 N 2925.16 -1.53445 -0.359498 0
M  V30 28247 C 2926.41 -1.69922 -1.10149 0
M  V30 28248 C 2926.73 -0.454133 -1.89124 0
M  V30 28249 O 2925.99 0.56399 -1.87397 0
M  V30 28250 C 2926.29 -2.90436 -2.08282 0
M  V30 28251 C 2925.95 -4.26697 -1.45741 0
M  V30 28252 C 2924.62 -4.63749 -1.28413 0
M  V30 28253 C 2926.97 -5.11409 -1.00548 0
M  V30 28254 C 2924.3 -5.83145 -0.644849 0
M  V30 28255 C 2926.65 -6.31457 -0.380177 0
M  V30 28256 C 2925.31 -6.67217 -0.19444 0
M  V30 28257 H 2924.58 -0.621788 -0.403065 0
M  V30 28258 H 2927.23 -1.87639 -0.382579 0
M  V30 28259 H 2925.53 -2.67256 -2.86499 0
M  V30 28260 H 2927.23 -3.00379 -2.65657 0
M  V30 28261 H 2923.82 -3.97526 -1.60223 0
M  V30 28262 H 2928.01 -4.83328 -1.12727 0
M  V30 28263 H 2923.26 -6.09438 -0.489413 0
M  V30 28264 H 2927.44 -6.96397 -0.0218231 0
M  V30 28265 H 2925.06 -7.59596 0.302983 0
M  V30 28266 N 2926.64 0.619637 -1.44908 0
M  V30 28267 C 2927.88 1.37895 -1.48294 0
M  V30 28268 C 2928.21 1.9413 -0.119967 0
M  V30 28269 O 2927.47 1.74808 0.879804 0
M  V30 28270 C 2927.77 2.55404 -2.50007 0
M  V30 28271 C 2927.43 2.1739 -3.95035 0
M  V30 28272 C 2926.09 2.06736 -4.34527 0
M  V30 28273 C 2928.45 1.87539 -4.8629 0
M  V30 28274 C 2925.77 1.64436 -5.63185 0
M  V30 28275 C 2928.13 1.46729 -6.15348 0
M  V30 28276 C 2926.79 1.34624 -6.53783 0
M  V30 28277 H 2926.06 0.504594 -0.542647 0
M  V30 28278 H 2928.71 0.70155 -1.78187 0
M  V30 28279 H 2927.01 3.28429 -2.13639 0
M  V30 28280 H 2928.71 3.13634 -2.49869 0
M  V30 28281 H 2925.3 2.26604 -3.63797 0
M  V30 28282 H 2929.48 1.94674 -4.56526 0
M  V30 28283 H 2924.74 1.53677 -5.91771 0
M  V30 28284 H 2928.91 1.22673 -6.8551 0
M  V30 28285 H 2926.54 1.01621 -7.53377 0
M  V30 28286 N 2928.12 1.31997 0.861075 0
M  V30 28287 C 2929.36 1.2195 1.6116 0
M  V30 28288 C 2929.69 -0.220317 1.93751 0
M  V30 28289 O 2928.96 -1.14338 1.59071 0
M  V30 28290 H 2927.54 0.448364 0.597477 0
M  V30 28291 H 2930.2 1.65438 1.03036 0
M  V30 28292 H 2929.29 1.79756 2.55135 0
M  V30 28293 N 2929.59 -1.07653 1.15103 0
M  V30 28294 C 2930.53 -2.14682 0.802759 0
M  V30 28295 C 2931.54 -1.61759 -0.183845 0
M  V30 28296 O 2932.73 -1.78457 0.0389663 0
M  V30 28297 C 2929.83 -3.38462 0.172194 0
M  V30 28298 C 2929 -4.20747 1.19545 0
M  V30 28299 C 2928.06 -5.22913 0.587232 0
M  V30 28300 O 2927.09 -5.55252 1.25234 0
M  V30 28301 N 2928.29 -5.77044 -0.632465 0
M  V30 28302 H 2931.05 -2.45161 1.72383 0
M  V30 28303 H 2928.61 -1.23532 1.04649 0
M  V30 28304 H 2930.61 -4.03943 -0.247394 0
M  V30 28305 H 2929.18 -3.05721 -0.65216 0
M  V30 28306 H 2928.4 -3.51129 1.79171 0
M  V30 28307 H 2929.68 -4.72536 1.88645 0
M  V30 28308 H 2929.08 -5.53015 -1.19125 0
M  V30 28309 H 2927.64 -6.44169 -0.994453 0
M  V30 28310 N 2931.07 -0.947348 -1.25949 0
M  V30 28311 C 2932.32 -0.599098 -1.93749 0
M  V30 28312 C 2932.65 0.860602 -1.7409 0
M  V30 28313 O 2931.93 1.61652 -1.08161 0
M  V30 28314 C 2932.21 -0.949695 -3.47351 0
M  V30 28315 C 2932.06 -2.46459 -3.76269 0
M  V30 28316 C 2933.38 -0.469519 -4.37588 0
M  V30 28317 H 2930.5 -0.219127 -0.703671 0
M  V30 28318 H 2933.14 -1.18268 -1.48703 0
M  V30 28319 H 2931.29 -0.453076 -3.85849 0
M  V30 28320 H 2932.96 -3.03441 -3.4745 0
M  V30 28321 H 2931.21 -2.90543 -3.22129 0
M  V30 28322 H 2931.88 -2.66041 -4.83659 0
M  V30 28323 H 2934.35 -0.895412 -4.06352 0
M  V30 28324 H 2933.23 -0.743595 -5.4384 0
M  V30 28325 H 2933.49 0.630541 -4.3758 0
M  V30 28326 N 2932.55 1.40444 -0.715075 0
M  V30 28327 C 2933.79 2.02755 -0.258778 0
M  V30 28328 C 2934.15 1.55474 1.12659 0
M  V30 28329 O 2935.36 2.09845 1.67984 0
M  V30 28330 C 2933.63 3.55824 -0.335263 0
M  V30 28331 S 2935.19 4.38778 0.0441239 0
M  V30 28332 H 2932 0.703544 -0.102695 0
M  V30 28333 H 2934.61 1.71573 -0.937181 0
M  V30 28334 H 2933.31 3.87728 -1.34518 0
M  V30 28335 H 2932.84 3.91734 0.361636 0
M  V30 28336 H 2934.86 4.7977 1.26631 0
M  V30 28337 N 2934.03 0.461222 1.507 0
M  V30 28338 C 2935.44 0.114814 1.59186 0
M  V30 28339 C 2935.64 -1.37792 1.47023 0
M  V30 28340 O 2934.7 -2.15025 1.32365 0
M  V30 28341 C 2936.01 0.656218 2.93452 0
M  V30 28342 C 2937.56 0.618769 3.06823 0
M  V30 28343 C 2938.04 1.13755 4.43648 0
M  V30 28344 N 2939.53 1.09654 4.50034 0
M  V30 28345 C 2940.26 1.46856 5.54275 0
M  V30 28346 N 2939.76 1.9146 6.65819 0
M  V30 28347 N 2941.55 1.38521 5.44764 0
M  V30 28348 H 2933.7 1.43219 1.56851 0
M  V30 28349 H 2935.97 0.591663 0.740702 0
M  V30 28350 H 2935.67 1.70155 3.07799 0
M  V30 28351 H 2935.55 0.0942924 3.77082 0
M  V30 28352 H 2937.93 -0.417633 2.9213 0
M  V30 28353 H 2938.01 1.21738 2.24974 0
M  V30 28354 H 2937.66 2.17254 4.5909 0
M  V30 28355 H 2937.59 0.515245 5.24073 0
M  V30 28356 H 2940.08 0.769282 3.69987 0
M  V30 28357 H 2940.39 2.1802 7.41409 0
M  V30 28358 H 2938.74 1.95405 6.66965 0
M  V30 28359 H 2941.93 1.03524 4.56509 0
M  V30 28360 H 2942.1 1.67841 6.25886 0
M  V30 28361 N 2935.51 -1.56408 0.193449 0
M  V30 28362 C 2936.45 -2.20353 -0.744791 0
M  V30 28363 C 2937.45 -1.1742 -1.22102 0
M  V30 28364 O 2938.65 -1.35569 -1.18411 0
M  V30 28365 H 2935.03 -0.706165 -0.258525 0
M  V30 28366 H 2937 -2.97846 -0.181742 0
M  V30 28367 C 2935.75 -2.87568 -1.95448 0
M  V30 28368 H 2935.07 -3.66514 -1.5971 0
M  V30 28369 H 2936.51 -3.3575 -2.58936 0
M  V30 28370 C 2934.97 -1.88515 -2.7922 0
M  V30 28371 O 2935.5 -1.38441 -3.7709 0
M  V30 28372 N 2933.71 -1.56781 -2.44679 0
M  V30 28373 H 2933.25 -1.97695 -1.6515 0
M  V30 28374 H 2933.21 -0.907626 -3.01014 0
M  V30 28375 N 2936.98 0.0801629 -1.57396 0
M  V30 28376 C 2938.23 0.779351 -1.86469 0
M  V30 28377 C 2938.55 1.78533 -0.784274 0
M  V30 28378 O 2937.82 1.94996 0.187952 0
M  V30 28379 H 2936.4 0.290818 -0.688065 0
M  V30 28380 H 2939.07 0.0582406 -1.94813 0
M  V30 28381 H 2938.16 1.30073 -2.83703 0
M  V30 28382 N 2938.46 1.53634 0.351355 0
M  V30 28383 C 2939.88 1.43723 0.693961 0
M  V30 28384 C 2940.08 0.587703 1.92739 0
M  V30 28385 O 2939.13 0.0756525 2.52387 0
M  V30 28386 C 2940.45 2.87107 0.893886 0
M  V30 28387 C 2942 2.96831 0.992999 0
M  V30 28388 C 2942.47 4.41305 1.2253 0
M  V30 28389 N 2943.96 4.44797 1.29267 0
M  V30 28390 C 2944.7 5.53709 1.48978 0
M  V30 28391 N 2944.19 6.7264 1.65912 0
M  V30 28392 N 2945.99 5.41309 1.51462 0
M  V30 28393 H 2938.14 2.07365 -0.459725 0
M  V30 28394 H 2940.4 0.937045 -0.143701 0
M  V30 28395 H 2940.11 3.5165 0.0591899 0
M  V30 28396 H 2939.98 3.31596 1.79789 0
M  V30 28397 H 2942.37 2.32432 1.81822 0
M  V30 28398 H 2942.45 2.55715 0.0660669 0
M  V30 28399 H 2942.09 5.06282 0.405028 0
M  V30 28400 H 2942.02 4.80007 2.16567 0
M  V30 28401 H 2944.51 3.59091 1.17737 0
M  V30 28402 H 2944.83 7.51409 1.80565 0
M  V30 28403 H 2943.17 6.756 1.63063 0
M  V30 28404 H 2946.36 4.47354 1.3781 0
M  V30 28405 H 2946.53 6.26249 1.66482 0
M  V30 28406 N 2939.94 -0.611943 1.45234 0
M  V30 28407 C 2941.18 -1.38243 1.5056 0
M  V30 28408 C 2941.54 -1.91474 0.141993 0
M  V30 28409 O 2942.75 -2.68709 0.0699398 0
M  V30 28410 C 2941.02 -2.50276 2.5514 0
M  V30 28411 S 2942.58 -3.38137 2.79658 0
M  V30 28412 H 2939.39 -0.471369 0.53229 0
M  V30 28413 H 2942 -0.706546 1.82286 0
M  V30 28414 H 2940.7 -2.09512 3.52892 0
M  V30 28415 H 2940.23 -3.2267 2.25051 0
M  V30 28416 H 2942.25 -4.48297 2.12707 0
M  V30 28417 N 2941.42 -1.32452 -0.854063 0
M  V30 28418 C 2942.67 -1.23046 -1.60829 0
M  V30 28419 C 2942.99 0.207566 -1.93389 0
M  V30 28420 O 2942.25 1.16072 -1.57562 0
M  V30 28421 C 2942.55 -2.03592 -2.93743 0
M  V30 28422 C 2942.21 -3.52944 -2.80609 0
M  V30 28423 C 2940.88 -3.93664 -2.76735 0
M  V30 28424 C 2943.23 -4.47915 -2.66499 0
M  V30 28425 C 2940.56 -5.27597 -2.56629 0
M  V30 28426 C 2942.91 -5.81992 -2.47929 0
M  V30 28427 C 2941.57 -6.21913 -2.42447 0
M  V30 28428 H 2940.84 -0.450257 -0.588515 0
M  V30 28429 H 2943.49 -1.63884 -0.99067 0
M  V30 28430 H 2941.79 -1.55484 -3.59627 0
M  V30 28431 H 2943.49 -1.93683 -3.51124 0
M  V30 28432 H 2940.08 -3.20603 -2.8445 0
M  V30 28433 H 2944.26 -4.17375 -2.68537 0
M  V30 28434 H 2939.52 -5.57583 -2.50821 0
M  V30 28435 H 2943.69 -6.55196 -2.35991 0
M  V30 28436 H 2941.32 -7.25634 -2.26627 0
M  V30 28437 N 2942.9 1.07041 -1.15672 0
M  V30 28438 C 2943.85 2.16425 -0.852242 0
M  V30 28439 C 2944.84 1.68487 0.175631 0
M  V30 28440 O 2946.05 1.79974 0.0303558 0
M  V30 28441 H 2942.42 0.706373 -0.257954 0
M  V30 28442 H 2944.39 2.39321 -1.78235 0
M  V30 28443 C 2943.14 3.45816 -0.361423 0
M  V30 28444 H 2942.46 3.8309 -1.14375 0
M  V30 28445 H 2943.9 4.23587 -0.187071 0
M  V30 28446 C 2942.36 3.24162 0.917646 0
M  V30 28447 O 2942.89 3.49028 1.98852 0
M  V30 28448 N 2941.1 2.77632 0.858407 0
M  V30 28449 H 2940.65 2.57597 -0.0132274 0
M  V30 28450 H 2940.6 2.63523 1.71473 0
M  V30 28451 N 2944.38 0.954014 1.25445 0
M  V30 28452 C 2945.29 0.480304 2.29631 0
M  V30 28453 C 2946.3 -0.452041 1.68026 0
M  V30 28454 O 2947.48 -0.328437 1.98704 0
M  V30 28455 C 2944.54 -0.234913 3.45903 0
M  V30 28456 C 2943.6 0.735569 4.22951 0
M  V30 28457 C 2942.84 0.0543895 5.33672 0
M  V30 28458 O 2943.06 -1.16008 5.58479 0
M  V30 28459 O 2941.99 0.739614 5.97339 0
M  V30 28460 H 2945.82 1.34607 2.7224 0
M  V30 28461 H 2943.4 0.720442 1.30882 0
M  V30 28462 H 2945.29 -0.637268 4.16554 0
M  V30 28463 H 2943.96 -1.07586 3.05298 0
M  V30 28464 H 2942.87 1.18812 3.54732 0
M  V30 28465 H 2944.2 1.54452 4.67339 0
M  V30 28466 N 2945.85 -1.40063 0.722513 0
M  V30 28467 C 2947.1 -1.99992 0.261967 0
M  V30 28468 C 2947.42 -1.57963 -1.15356 0
M  V30 28469 O 2948.62 -2.1064 -1.71298 0
M  V30 28470 C 2947.08 -3.57471 0.417433 0
M  V30 28471 C 2946.69 -4.08468 1.84004 0
M  V30 28472 C 2948.43 -4.24496 0.0180307 0
M  V30 28473 C 2946.34 -5.58476 1.94572 0
M  V30 28474 H 2945.27 -0.748094 0.0941899 0
M  V30 28475 H 2947.92 -1.60216 0.8946 0
M  V30 28476 H 2946.3 -3.94981 -0.283896 0
M  V30 28477 H 2947.47 -3.8232 2.57231 0
M  V30 28478 H 2945.79 -3.54064 2.19153 0
M  V30 28479 H 2948.39 -5.34646 0.0761789 0
M  V30 28480 H 2948.73 -4.03486 -1.02491 0
M  V30 28481 H 2949.26 -3.92116 0.670057 0
M  V30 28482 H 2946 -5.8435 2.97012 0
M  V30 28483 H 2945.52 -5.86467 1.25766 0
M  V30 28484 H 2947.2 -6.23689 1.72106 0
M  V30 28485 N 2947.33 -0.469207 -1.50453 0
M  V30 28486 C 2948.58 0.0862627 -2.01916 0
M  V30 28487 C 2948.9 1.40386 -1.3534 0
M  V30 28488 O 2948.17 1.89461 -0.498129 0
M  V30 28489 H 2946.75 0.0348693 -0.746186 0
M  V30 28490 H 2949.41 -0.619199 -1.84802 0
M  V30 28491 H 2948.51 0.239134 -3.11183 0
M  V30 28492 N 2948.81 1.56303 -0.201741 0
M  V30 28493 C 2950.03 2.02597 0.443779 0
M  V30 28494 C 2950.46 1.08089 1.53943 0
M  V30 28495 O 2949.82 0.0655375 1.81182 0
M  V30 28496 C 2949.87 3.47281 0.971005 0
M  V30 28497 O 2948.97 3.55897 2.08354 0
M  V30 28498 H 2948.31 0.655974 0.102928 0
M  V30 28499 H 2950.84 2.02167 -0.314568 0
M  V30 28500 H 2950.85 3.87206 1.28591 0
M  V30 28501 H 2949.53 4.15557 0.168975 0
M  V30 28502 H 2948.1 3.27849 1.77677 0
M  V30 28503 N 2950.29 -0.0718147 1.57436 0
M  V30 28504 C 2951.53 -0.770974 1.87249 0
M  V30 28505 C 2951.86 -1.77579 0.793472 0
M  V30 28506 O 2951.12 -1.94564 -0.210531 0
M  V30 28507 C 2951.42 -1.51449 3.23725 0
M  V30 28508 C 2951.08 -0.649658 4.46195 0
M  V30 28509 C 2949.74 -0.411325 4.79439 0
M  V30 28510 C 2952.1 -0.0499484 5.21176 0
M  V30 28511 C 2949.42 0.436199 5.85076 0
M  V30 28512 C 2951.78 0.78503 6.2771 0
M  V30 28513 C 2950.44 1.03323 6.59455 0
M  V30 28514 H 2949.71 -0.282119 0.685193 0
M  V30 28515 H 2952.36 -0.0317559 1.91474 0
M  V30 28516 H 2950.66 -2.32591 3.15291 0
M  V30 28517 H 2952.36 -2.06025 3.44027 0
M  V30 28518 H 2948.95 -0.845546 4.20177 0
M  V30 28519 H 2953.13 -0.221195 4.95807 0
M  V30 28520 H 2948.39 0.637243 6.0807 0
M  V30 28521 H 2952.56 1.25647 6.84971 0
M  V30 28522 H 2950.19 1.69173 7.41137 0
M  V30 28523 N 2951.77 -1.53818 -0.343203 0
M  V30 28524 C 2952.71 -1.8183 -1.4215 0
M  V30 28525 C 2953.68 -0.664023 -1.5225 0
M  V30 28526 O 2954.87 -0.908491 -1.67783 0
M  V30 28527 C 2952.01 -2.03389 -2.78796 0
M  V30 28528 C 2951.12 -3.31099 -2.77484 0
M  V30 28529 C 2950.26 -3.42724 -4.0585 0
M  V30 28530 C 2949.29 -4.64382 -3.98768 0
M  V30 28531 N 2948.43 -4.73038 -5.18825 0
M  V30 28532 H 2953.27 -2.73831 -1.17562 0
M  V30 28533 H 2950.81 -1.35629 -0.569482 0
M  V30 28534 H 2952.77 -2.13878 -3.58207 0
M  V30 28535 H 2951.4 -1.14701 -3.01734 0
M  V30 28536 H 2950.45 -3.2945 -1.90176 0
M  V30 28537 H 2951.76 -4.20605 -2.68129 0
M  V30 28538 H 2950.91 -3.52647 -4.93685 0
M  V30 28539 H 2949.65 -2.51275 -4.17986 0
M  V30 28540 H 2948.66 -4.54536 -3.09317 0
M  V30 28541 H 2949.88 -5.57195 -3.88214 0
M  V30 28542 H 2947.83 -3.84499 -5.31504 0
M  V30 28543 H 2947.75 -5.56481 -5.11728 0
M  V30 28544 H 2949.01 -4.87271 -6.0843 0
M  V30 28545 N 2953.24 0.604233 -1.45557 0
M  V30 28546 C 2954.48 1.37442 -1.51291 0
M  V30 28547 C 2954.85 1.91396 -0.152145 0
M  V30 28548 O 2956.05 2.68668 -0.0841891 0
M  V30 28549 C 2954.32 2.4892 -2.56464 0
M  V30 28550 S 2955.88 3.36649 -2.81448 0
M  V30 28551 H 2952.7 0.46854 -0.534782 0
M  V30 28552 H 2955.3 0.696869 -1.82658 0
M  V30 28553 H 2954 2.07638 -3.53998 0
M  V30 28554 H 2953.53 3.21472 -2.26759 0
M  V30 28555 H 2955.55 4.47163 -2.15081 0
M  V30 28556 N 2954.72 1.32903 0.847027 0
M  V30 28557 C 2955.65 1.25095 1.97164 0
M  V30 28558 C 2956.63 0.133191 1.69578 0
M  V30 28559 O 2957.82 0.321625 1.91518 0
M  V30 28560 C 2954.95 0.981064 3.33155 0
M  V30 28561 C 2953.9 2.06088 3.75116 0
M  V30 28562 C 2953.23 1.64327 5.08823 0
M  V30 28563 C 2954.53 3.47676 3.89768 0
M  V30 28564 H 2956.22 2.19187 2.03954 0
M  V30 28565 H 2953.77 1.05519 0.979888 0
M  V30 28566 H 2955.72 0.912964 4.11391 0
M  V30 28567 H 2954.44 0.00451299 3.266 0
M  V30 28568 H 2953.1 2.11927 2.99137 0
M  V30 28569 H 2952.75 0.653964 4.98731 0
M  V30 28570 H 2952.45 2.36582 5.37869 0
M  V30 28571 H 2953.98 1.58968 5.89543 0
M  V30 28572 H 2955.39 3.44384 4.58337 0
M  V30 28573 H 2953.79 4.18346 4.30241 0
M  V30 28574 H 2954.86 3.86778 2.92456 0
M  V30 28575 N 2956.2 -1.06426 1.16238 0
M  V30 28576 C 2957.44 -1.80786 0.953722 0
M  V30 28577 C 2957.8 -1.85117 -0.509463 0
M  V30 28578 O 2959 -2.55444 -0.836777 0
M  V30 28579 C 2957.28 -3.2144 1.56241 0
M  V30 28580 S 2958.83 -4.12431 1.4982 0
M  V30 28581 H 2955.65 -0.622786 0.343015 0
M  V30 28582 H 2958.25 -1.27783 1.47959 0
M  V30 28583 H 2956.96 -3.15881 2.62006 0
M  V30 28584 H 2956.49 -3.79519 1.03581 0
M  V30 28585 H 2958.5 -4.93699 0.497537 0
M  V30 28586 N 2957.68 -0.960653 -1.24937 0
M  V30 28587 C 2958.63 -0.4769 -2.27659 0
M  V30 28588 C 2959.62 0.455932 -1.63149 0
M  V30 28589 O 2960.83 0.331998 -1.76912 0
M  V30 28590 H 2957.2 -0.135736 -0.739648 0
M  V30 28591 H 2959.17 -1.35539 -2.65842 0
M  V30 28592 C 2957.92 0.22413 -3.46977 0
M  V30 28593 H 2957.24 -0.484541 -3.96853 0
M  V30 28594 H 2958.68 0.526541 -4.20718 0
M  V30 28595 C 2957.14 1.44871 -3.04161 0
M  V30 28596 O 2957.67 2.54613 -3.10701 0
M  V30 28597 N 2955.88 1.31221 -2.59286 0
M  V30 28598 H 2955.43 0.419316 -2.54164 0
M  V30 28599 H 2955.38 2.13271 -2.31004 0
M  V30 28600 N 2959.16 1.39677 -0.729931 0
M  V30 28601 C 2960.07 2.34435 -0.0880735 0
M  V30 28602 C 2961.08 1.58055 0.727647 0
M  V30 28603 O 2962.26 1.90373 0.657287 0
M  V30 28604 C 2959.32 3.37053 0.812152 0
M  V30 28605 C 2958.38 4.29297 -0.0152435 0
M  V30 28606 C 2957.62 5.27014 0.842109 0
M  V30 28607 O 2957.84 5.31085 2.08098 0
M  V30 28608 O 2956.77 6.01278 0.273465 0
M  V30 28609 H 2960.6 2.90971 -0.87004 0
M  V30 28610 H 2958.19 1.41117 -0.490547 0
M  V30 28611 H 2960.07 3.99948 1.32738 0
M  V30 28612 H 2958.74 2.8291 1.57302 0
M  V30 28613 H 2957.65 3.69641 -0.575876 0
M  V30 28614 H 2958.98 4.86633 -0.738215 0
M  V30 28615 N 2960.63 0.47718 1.50202 0
M  V30 28616 C 2961.88 -0.0755534 2.01959 0
M  V30 28617 C 2962.2 -1.39666 1.36082 0
M  V30 28618 O 2961.47 -1.89194 0.508169 0
M  V30 28619 H 2960.05 -0.0309117 0.74636 0
M  V30 28620 H 2962.72 0.628991 1.84471 0
M  V30 28621 H 2961.81 -0.222628 3.11305 0
M  V30 28622 N 2962.11 -1.56194 0.210027 0
M  V30 28623 C 2963.34 -2.0209 -0.429337 0
M  V30 28624 C 2963.75 -1.08922 -1.54701 0
M  V30 28625 O 2963.09 -0.0889858 -1.83484 0
M  V30 28626 C 2963.16 -3.44351 -1.0326 0
M  V30 28627 C 2962.82 -4.56971 -0.0518069 0
M  V30 28628 C 2963.82 -5.14544 0.74434 0
M  V30 28629 C 2961.5 -5.0226 0.0636068 0
M  V30 28630 C 2963.5 -6.15868 1.64272 0
M  V30 28631 C 2961.18 -6.03424 0.965529 0
M  V30 28632 C 2962.18 -6.60103 1.75364 0
M  V30 28633 O 2961.87 -7.593 2.64042 0
M  V30 28634 H 2961.6 -0.666892 -0.110592 0
M  V30 28635 H 2964.15 -2.02885 0.320472 0
M  V30 28636 H 2962.38 -3.40589 -1.83128 0
M  V30 28637 H 2964.07 -3.73963 -1.57817 0
M  V30 28638 H 2964.84 -4.80412 0.665561 0
M  V30 28639 H 2960.72 -4.5783 -0.539681 0
M  V30 28640 H 2964.26 -6.60035 2.2583 0
M  V30 28641 H 2960.16 -6.36979 1.04537 0
M  V30 28642 H 2960.93 -7.76778 2.57988 0
M  V30 28643 N 2963.59 0.0634645 -1.57472 0
M  V30 28644 C 2964.5 1.09223 -2.07623 0
M  V30 28645 C 2965.52 1.41866 -1.00748 0
M  V30 28646 O 2966.69 1.51875 -1.32272 0
M  V30 28647 C 2963.76 2.38417 -2.51711 0
M  V30 28648 C 2962.82 2.1267 -3.72921 0
M  V30 28649 C 2962.05 3.35703 -4.14897 0
M  V30 28650 O 2962.27 4.45131 -3.56671 0
M  V30 28651 O 2961.21 3.23425 -5.07622 0
M  V30 28652 H 2965.03 0.696153 -2.95614 0
M  V30 28653 H 2962.62 0.278164 -1.46788 0
M  V30 28654 H 2964.5 3.14433 -2.80553 0
M  V30 28655 H 2963.18 2.77388 -1.66847 0
M  V30 28656 H 2962.08 1.34331 -3.4915 0
M  V30 28657 H 2963.42 1.78574 -4.58663 0
M  V30 28658 N 2965.07 1.53998 0.33504 0
M  V30 28659 C 2966 1.85571 1.41724 0
M  V30 28660 C 2966.98 0.711528 1.54503 0
M  V30 28661 O 2968.16 0.964221 1.68572 0
M  V30 28662 C 2965.29 2.07287 2.78657 0
M  V30 28663 C 2964.25 3.23117 2.80677 0
M  V30 28664 C 2963.57 3.30182 4.20575 0
M  V30 28665 C 2964.87 4.61033 2.4545 0
M  V30 28666 H 2966.57 2.76204 1.1555 0
M  V30 28667 H 2964.11 1.32899 0.554421 0
M  V30 28668 H 2966.07 2.27959 3.54419 0
M  V30 28669 H 2964.79 1.13392 3.06284 0
M  V30 28670 H 2963.45 3.02314 2.07368 0
M  V30 28671 H 2963.1 2.33867 4.45326 0
M  V30 28672 H 2962.8 4.08024 4.22836 0
M  V30 28673 H 2964.32 3.53075 4.98167 0
M  V30 28674 H 2965.74 4.81662 3.10925 0
M  V30 28675 H 2964.13 5.4134 2.58981 0
M  V30 28676 H 2965.2 4.64063 1.4062 0
M  V30 28677 N 2966.55 -0.596505 1.45875 0
M  V30 28678 C 2967.77 -1.38155 1.54015 0
M  V30 28679 C 2968.19 -1.87973 0.176513 0
M  V30 28680 O 2967.55 -1.62846 -0.823866 0
M  V30 28681 C 2967.6 -2.57851 2.53368 0
M  V30 28682 O 2967.32 -2.10101 3.84434 0
M  V30 28683 C 2968.82 -3.50576 2.71314 0
M  V30 28684 H 2966.04 -0.422529 0.521258 0
M  V30 28685 H 2968.58 -0.72646 1.91162 0
M  V30 28686 H 2966.74 -3.19378 2.19263 0
M  V30 28687 H 2967.15 -2.87951 4.38389 0
M  V30 28688 H 2968.63 -4.31078 3.44783 0
M  V30 28689 H 2969.1 -4.0163 1.77735 0
M  V30 28690 H 2969.71 -2.94894 3.0646 0
M  V30 28691 N 2968.02 -1.3335 -0.839967 0
M  V30 28692 C 2969.44 -1.22218 -1.41137 0
M  V30 28693 C 2969.79 0.159364 -1.95552 0
M  V30 28694 O 2968.91 1.0589 -1.88723 0
M  V30 28695 C 2969.51 -2.21274 -2.56561 0
M  V30 28696 C 2968.07 -2.13985 -3.09657 0
M  V30 28697 C 2967.21 -2.08821 -1.82453 0
M  V30 28698 H 2970.16 -1.44965 -0.645828 0
M  V30 28699 H 2970.18 -1.81982 -3.3416 0
M  V30 28700 H 2969.7 -3.21815 -2.16926 0
M  V30 28701 H 2967.8 -1.16742 -3.53839 0
M  V30 28702 H 2967.91 -3.04479 -3.69905 0
M  V30 28703 H 2966.27 -1.5428 -2.02657 0
M  V30 28704 H 2967.06 -3.11168 -1.45016 0
M  V30 28705 N 2969.5 1.05808 -1.16801 0
M  V30 28706 C 2970.78 1.7555 -0.862647 0
M  V30 28707 C 2971.16 2.01213 0.638465 0
M  V30 28708 O 2970.51 1.64319 1.58781 0
M  V30 28709 C 2970.72 3.05311 -1.69075 0
M  V30 28710 C 2972.07 3.79375 -1.90682 0
M  V30 28711 O 2973.09 3.15164 -1.65982 0
M  V30 28712 O 2971.95 4.94739 -2.32153 0
M  V30 28713 H 2969.04 0.763082 -0.318802 0
M  V30 28714 H 2971.59 1.12032 -1.27463 0
M  V30 28715 H 2970.36 2.82347 -2.70917 0
M  V30 28716 H 2969.98 3.76564 -1.27613 0
M  V30 28717 N 2970.98 0.967265 1.24426 0
M  V30 28718 C 2972.23 0.627672 1.92106 0
M  V30 28719 C 2972.55 -0.839749 1.75992 0
M  V30 28720 O 2971.82 -1.59939 1.13121 0
M  V30 28721 H 2970.4 0.229157 0.710982 0
M  V30 28722 H 2973.06 1.22824 1.51328 0
M  V30 28723 H 2972.16 0.867897 2.9979 0
M  V30 28724 N 2972.46 -1.39288 0.737328 0
M  V30 28725 C 2973.41 -2.30588 0.0988769 0
M  V30 28726 C 2974.38 -1.49336 -0.727179 0
M  V30 28727 O 2975.56 -1.78016 -0.686663 0
M  V30 28728 C 2972.7 -3.35683 -0.800675 0
M  V30 28729 C 2971.81 -4.31983 0.038249 0
M  V30 28730 C 2970.95 -5.24146 -0.862792 0
M  V30 28731 C 2969.99 -6.12097 -0.0192563 0
M  V30 28732 N 2969.13 -6.96609 -0.876358 0
M  V30 28733 H 2973.97 -2.84615 0.883081 0
M  V30 28734 H 2971.5 -1.4014 0.447136 0
M  V30 28735 H 2973.46 -3.95207 -1.33669 0
M  V30 28736 H 2972.09 -2.83106 -1.55083 0
M  V30 28737 H 2971.14 -3.74058 0.691707 0
M  V30 28738 H 2972.45 -4.93999 0.690381 0
M  V30 28739 H 2971.61 -5.88708 -1.46656 0
M  V30 28740 H 2970.35 -4.62457 -1.5487 0
M  V30 28741 H 2969.35 -5.46546 0.597298 0
M  V30 28742 H 2970.58 -6.75851 0.663467 0
M  V30 28743 H 2968.52 -6.37486 -1.54751 0
M  V30 28744 H 2968.44 -7.55478 -0.280759 0
M  V30 28745 H 2969.71 -7.65598 -1.46562 0
M  V30 28746 N 2973.94 -0.485139 -1.49947 0
M  V30 28747 C 2974.89 0.315568 -2.30449 0
M  V30 28748 C 2975.88 0.977492 -1.38353 0
M  V30 28749 O 2977.09 0.906991 -1.55479 0
M  V30 28750 H 2973.46 0.120616 -0.742264 0
M  V30 28751 H 2975.43 -0.383604 -2.95924 0
M  V30 28752 C 2974.18 1.37668 -3.19285 0
M  V30 28753 H 2973.5 0.876733 -3.90069 0
M  V30 28754 H 2974.94 1.90923 -3.78582 0
M  V30 28755 C 2973.4 2.38627 -2.37821 0
M  V30 28756 O 2973.93 3.44189 -2.07116 0
M  V30 28757 N 2972.14 2.10696 -2.00139 0
M  V30 28758 H 2971.69 1.24874 -2.25309 0
M  V30 28759 H 2971.64 2.78477 -1.45938 0
M  V30 28760 N 2975.42 1.56081 -0.218307 0
M  V30 28761 C 2976.66 2.00119 0.416158 0
M  V30 28762 C 2977.02 1.10268 1.57178 0
M  V30 28763 O 2978.22 1.43639 2.27203 0
M  V30 28764 C 2976.49 3.47323 0.84272 0
M  V30 28765 S 2978.05 4.13382 1.47175 0
M  V30 28766 H 2974.87 0.6986 0.132207 0
M  V30 28767 H 2977.47 1.92749 -0.326833 0
M  V30 28768 H 2976.17 4.10399 -0.00807139 0
M  V30 28769 H 2975.71 3.58559 1.6186 0
M  V30 28770 H 2977.72 4.12304 2.7608 0
M  V30 28771 N 2976.89 -0.0551124 1.57504 0
M  V30 28772 C 2978.14 -0.749976 1.87238 0
M  V30 28773 C 2978.46 -1.7789 0.8133 0
M  V30 28774 O 2979.66 -2.52451 0.999025 0
M  V30 28775 C 2978.12 -1.38485 3.3219 0
M  V30 28776 C 2977.73 -0.393629 4.46267 0
M  V30 28777 C 2979.47 -2.0611 3.71105 0
M  V30 28778 C 2977.38 -1.03536 5.82266 0
M  V30 28779 H 2976.31 -0.283854 0.698529 0
M  V30 28780 H 2978.96 -0.00362772 1.835 0
M  V30 28781 H 2977.34 -2.18003 3.30592 0
M  V30 28782 H 2978.51 0.372946 4.59288 0
M  V30 28783 H 2976.83 0.179093 4.16015 0
M  V30 28784 H 2979.43 -2.54929 4.70016 0
M  V30 28785 H 2979.77 -2.86791 3.01756 0
M  V30 28786 H 2980.3 -1.33402 3.74765 0
M  V30 28787 H 2977.04 -0.268529 6.5495 0
M  V30 28788 H 2976.56 -1.7724 5.73015 0
M  V30 28789 H 2978.24 -1.55036 6.2815 0
M  V30 28790 N 2978.37 -1.54173 -0.326869 0
M  V30 28791 C 2979.65 -1.62866 -1.08323 0
M  V30 28792 C 2980.03 -0.460427 -2.06018 0
M  V30 28793 O 2979.38 0.545646 -2.2189 0
M  V30 28794 C 2979.59 -2.99713 -1.78811 0
M  V30 28795 C 2980.93 -3.55645 -2.31952 0
M  V30 28796 O 2981.96 -3.01996 -1.88883 0
M  V30 28797 O 2980.82 -4.49522 -3.10793 0
M  V30 28798 H 2977.91 -0.659401 -0.499119 0
M  V30 28799 H 2980.46 -1.66519 -0.327025 0
M  V30 28800 H 2979.23 -3.76177 -1.07732 0
M  V30 28801 H 2978.85 -2.99724 -2.6125 0
M  V30 28802 N 2979.85 0.58876 -1.4619 0
M  V30 28803 C 2981.08 1.37337 -1.54746 0
M  V30 28804 C 2981.49 1.87877 -0.186479 0
M  V30 28805 O 2980.85 1.6328 0.815219 0
M  V30 28806 C 2980.9 2.56504 -2.54732 0
M  V30 28807 O 2980.62 2.08059 -3.85543 0
M  V30 28808 C 2982.12 3.49132 -2.7317 0
M  V30 28809 H 2979.34 0.419759 -0.523492 0
M  V30 28810 H 2981.89 0.716312 -1.91544 0
M  V30 28811 H 2980.04 3.18211 -2.20954 0
M  V30 28812 H 2980.46 2.85622 -4.3991 0
M  V30 28813 H 2981.93 4.29244 -3.47065 0
M  V30 28814 H 2982.41 4.00682 -1.79863 0
M  V30 28815 H 2983.01 2.93265 -3.08019 0
M  V30 28816 N 2981.33 1.33794 0.832883 0
M  V30 28817 C 2982.28 1.24535 1.96453 0
M  V30 28818 C 2983.27 0.145485 1.68774 0
M  V30 28819 O 2984.48 0.309828 1.77313 0
M  V30 28820 H 2980.85 0.386623 0.645001 0
M  V30 28821 H 2982.82 2.20196 2.01385 0
M  V30 28822 C 2981.57 1.00754 3.32782 0
M  V30 28823 H 2980.89 1.84615 3.54623 0
M  V30 28824 H 2982.33 0.983082 4.12446 0
M  V30 28825 C 2980.79 -0.289416 3.35655 0
M  V30 28826 O 2981.32 -1.29412 3.80283 0
M  V30 28827 N 2979.53 -0.319049 2.88843 0
M  V30 28828 H 2979.08 0.499113 2.52718 0
M  V30 28829 H 2979.03 -1.18662 2.91147 0
M  V30 28830 N 2982.81 -1.05187 1.1736 0
M  V30 28831 C 2983.72 -2.16441 0.905022 0
M  V30 28832 C 2984.73 -1.73537 -0.12683 0
M  V30 28833 O 2985.91 -2.01332 0.052448 0
M  V30 28834 C 2982.97 -3.44121 0.422079 0
M  V30 28835 C 2982.03 -4.0147 1.52053 0
M  V30 28836 C 2981.27 -5.23057 1.06053 0
M  V30 28837 O 2981.49 -5.70336 -0.085302 0
M  V30 28838 O 2980.42 -5.72648 1.85359 0
M  V30 28839 H 2984.25 -2.41946 1.83564 0
M  V30 28840 H 2981.83 -1.14934 0.95449 0
M  V30 28841 H 2983.72 -4.21095 0.160282 0
M  V30 28842 H 2982.39 -3.20116 -0.480387 0
M  V30 28843 H 2981.3 -3.25936 1.8362 0
M  V30 28844 H 2982.63 -4.29794 2.3987 0
M  V30 28845 N 2984.28 -0.97385 -1.23911 0
M  V30 28846 C 2985.52 -0.647049 -1.93888 0
M  V30 28847 C 2985.89 0.803705 -1.74369 0
M  V30 28848 O 2987.09 1.24102 -2.38437 0
M  V30 28849 C 2985.36 -1.01891 -3.42568 0
M  V30 28850 S 2986.92 -0.807593 -4.31304 0
M  V30 28851 H 2983.74 -0.237177 -0.670275 0
M  V30 28852 H 2986.34 -1.25211 -1.50142 0
M  V30 28853 H 2985.04 -2.07152 -3.54282 0
M  V30 28854 H 2984.57 -0.404881 -3.91311 0
M  V30 28855 H 2986.59 0.311899 -4.95219 0
M  V30 28856 N 2985.76 1.38895 -0.744705 0
M  V30 28857 C 2987.01 2.00608 -0.297359 0
M  V30 28858 C 2987.34 1.5897 1.11544 0
M  V30 28859 O 2986.62 0.823088 1.76226 0
M  V30 28860 C 2986.9 3.57756 -0.410188 0
M  V30 28861 C 2986.75 4.09384 -1.86345 0
M  V30 28862 C 2988.07 4.39638 0.201683 0
M  V30 28863 H 2985.19 0.728817 -0.109522 0
M  V30 28864 H 2987.83 1.64965 -0.942682 0
M  V30 28865 H 2985.98 3.8825 0.139219 0
M  V30 28866 H 2987.65 3.8957 -2.47049 0
M  V30 28867 H 2985.9 3.62582 -2.38153 0
M  V30 28868 H 2986.57 5.18504 -1.89361 0
M  V30 28869 H 2989.04 4.15244 -0.266776 0
M  V30 28870 H 2987.92 5.48822 0.0924451 0
M  V30 28871 H 2988.18 4.22894 1.28892 0
M  V30 28872 N 2987.24 0.493084 1.49688 0
M  V30 28873 C 2988.2 -0.278445 2.27502 0
M  V30 28874 C 2989.2 -0.901014 1.33186 0
M  V30 28875 O 2990.39 -0.766774 1.56417 0
M  V30 28876 C 2987.53 -1.39872 3.10883 0
M  V30 28877 H 2988.72 0.404271 2.97163 0
M  V30 28878 H 2986.27 0.247801 1.54323 0
M  V30 28879 H 2987.01 -2.11583 2.4577 0
M  V30 28880 H 2986.79 -0.957857 3.8022 0
M  V30 28881 H 2988.28 -1.9424 3.69676 0
M  V30 28882 N 2988.72 -1.55963 0.226582 0
M  V30 28883 C 2989.65 -2.23499 -0.67604 0
M  V30 28884 C 2990.63 -1.20839 -1.19716 0
M  V30 28885 O 2991.81 -1.49438 -1.24024 0
M  V30 28886 C 2988.94 -2.91879 -1.88212 0
M  V30 28887 C 2987.9 -4.01055 -1.49463 0
M  V30 28888 C 2987.22 -4.56756 -2.77989 0
M  V30 28889 C 2988.52 -5.17843 -0.68086 0
M  V30 28890 H 2990.22 -2.99187 -0.112937 0
M  V30 28891 H 2987.76 -1.43903 -0.0528793 0
M  V30 28892 H 2989.72 -3.37819 -2.51905 0
M  V30 28893 H 2988.44 -2.13647 -2.47027 0
M  V30 28894 H 2987.1 -3.55853 -0.881136 0
M  V30 28895 H 2986.75 -3.75248 -3.34959 0
M  V30 28896 H 2986.45 -5.30442 -2.52794 0
M  V30 28897 H 2987.97 -5.05417 -3.42616 0
M  V30 28898 H 2989.39 -5.60134 -1.22161 0
M  V30 28899 H 2987.78 -5.97792 -0.525793 0
M  V30 28900 H 2988.85 -4.83899 0.311431 0
M  V30 28901 N 2990.2 0.0467589 -1.57531 0
M  V30 28902 C 2991.61 0.595572 -1.76946 0
M  V30 28903 C 2991.96 1.76572 -0.855385 0
M  V30 28904 O 2991.08 2.16352 -0.045706 0
M  V30 28905 C 2991.68 1.08719 -3.20883 0
M  V30 28906 C 2990.24 1.58166 -3.41556 0
M  V30 28907 C 2989.38 0.51192 -2.72534 0
M  V30 28908 H 2992.34 -0.179464 -1.57682 0
M  V30 28909 H 2992.36 1.95522 -3.26422 0
M  V30 28910 H 2991.87 0.23533 -3.87386 0
M  V30 28911 H 2989.97 2.45595 -2.80203 0
M  V30 28912 H 2990.08 1.64135 -4.50107 0
M  V30 28913 H 2988.45 0.962857 -2.35799 0
M  V30 28914 H 2989.23 -0.330177 -3.41709 0
M  V30 28915 N 2991.67 1.54344 0.318688 0
M  V30 28916 C 2992.92 1.72441 1.05397 0
M  V30 28917 C 2993.24 0.503528 1.88387 0
M  V30 28918 O 2992.51 -0.482426 1.89867 0
M  V30 28919 H 2991.09 0.635812 0.392113 0
M  V30 28920 H 2993.76 1.91659 0.353946 0
M  V30 28921 H 2992.85 2.60611 1.71721 0
M  V30 28922 N 2993.15 -0.580999 1.465 0
M  V30 28923 C 2994.38 -1.37 1.55711 0
M  V30 28924 C 2994.8 -1.8704 0.199453 0
M  V30 28925 O 2994.16 -1.61661 -0.820702 0
M  V30 28926 C 2994.21 -2.53233 2.5672 0
M  V30 28927 O 2993.31 -3.54725 2.10342 0
M  V30 28928 H 2992.65 -0.407928 0.523919 0
M  V30 28929 H 2995.18 -0.704568 1.92086 0
M  V30 28930 H 2995.19 -3.00127 2.76383 0
M  V30 28931 H 2993.87 -2.16165 3.5531 0
M  V30 28932 H 2992.45 -3.14299 2.00674 0
M  V30 28933 N 2994.63 -1.34234 -0.825776 0
M  V30 28934 C 2995.87 -1.27776 -1.59539 0
M  V30 28935 C 2996.23 0.150964 -1.91406 0
M  V30 28936 O 2997.44 0.339682 -2.66645 0
M  V30 28937 C 2995.71 -2.14094 -2.86179 0
M  V30 28938 S 2997.27 -2.2496 -3.76747 0
M  V30 28939 H 2994.08 -0.45438 -0.546863 0
M  V30 28940 H 2996.69 -1.69415 -0.975647 0
M  V30 28941 H 2995.39 -3.1691 -2.60761 0
M  V30 28942 H 2994.92 -1.73341 -3.53152 0
M  V30 28943 H 2996.94 -1.42028 -4.75439 0
M  V30 28944 N 2996.11 1.04563 -1.17917 0
M  V30 28945 C 2997.33 1.81876 -0.996781 0
M  V30 28946 C 2997.76 1.82635 0.450136 0
M  V30 28947 O 2997.12 1.23998 1.32266 0
M  V30 28948 C 2997.16 3.25583 -1.55011 0
M  V30 28949 O 2996.27 4.05184 -0.768111 0
M  V30 28950 H 2995.61 0.562101 -0.353466 0
M  V30 28951 H 2998.14 1.31721 -1.56559 0
M  V30 28952 H 2998.15 3.76371 -1.57509 0
M  V30 28953 H 2996.82 3.24345 -2.60332 0
M  V30 28954 H 2995.4 3.63884 -0.815044 0
M  V30 28955 N 2997.59 0.980408 1.23393 0
M  V30 28956 C 2999 0.68627 1.7363 0
M  V30 28957 C 2999.35 -0.79751 1.7926 0
M  V30 28958 O 2998.47 -1.62376 1.43049 0
M  V30 28959 C 2999.07 1.23905 3.1533 0
M  V30 28960 C 2997.63 0.994557 3.63023 0
M  V30 28961 C 2996.77 1.36677 2.41277 0
M  V30 28962 H 2999.73 1.15425 1.08916 0
M  V30 28963 H 2999.75 0.61148 3.75554 0
M  V30 28964 H 2999.26 2.31897 3.112 0
M  V30 28965 H 2997.36 -0.0692837 3.72536 0
M  V30 28966 H 2997.47 1.64914 4.49822 0
M  V30 28967 H 2995.84 0.785237 2.42293 0
M  V30 28968 H 2996.62 2.45647 2.39818 0
M  V30 28969 N 2999.06 -1.38498 0.75206 0
M  V30 28970 C 3000.31 -1.99756 0.306931 0
M  V30 28971 C 3000.63 -1.59994 -1.11476 0
M  V30 28972 O 2999.9 -0.856076 -1.76205 0
M  V30 28973 H 2998.48 -0.738783 0.110493 0
M  V30 28974 H 3001.15 -1.69287 0.965815 0
M  V30 28975 H 3000.24 -3.09913 0.368851 0
M  V30 28976 N 3000.54 -0.501015 -1.49424 0
M  V30 28977 C 3001.77 0.0403079 -2.06861 0
M  V30 28978 C 3002.19 1.30817 -1.36134 0
M  V30 28979 O 3001.54 1.77124 -0.439678 0
M  V30 28980 C 3001.59 0.297838 -3.60271 0
M  V30 28981 O 3001.31 -0.919761 -4.28336 0
M  V30 28982 C 3002.82 0.8828 -4.34421 0
M  V30 28983 H 3000.04 -0.0204737 -0.670688 0
M  V30 28984 H 3002.58 -0.698376 -1.92206 0
M  V30 28985 H 3000.73 0.986504 -3.74629 0
M  V30 28986 H 3001.15 -0.682619 -5.20039 0
M  V30 28987 H 3002.62 1.01258 -5.42633 0
M  V30 28988 H 3003.1 1.88059 -3.96901 0
M  V30 28989 H 3003.71 0.231602 -4.24669 0
M  V30 28990 N 3002.02 1.5584 -0.234849 0
M  V30 28991 C 3003.26 2.00549 0.394909 0
M  V30 28992 C 3003.63 1.11929 1.56 0
M  V30 28993 O 3004.83 1.46041 2.25667 0
M  V30 28994 C 3003.1 3.48197 0.805834 0
M  V30 28995 S 3004.66 4.1492 1.42782 0
M  V30 28996 H 3001.47 0.699963 0.12479 0
M  V30 28997 H 3004.08 1.92391 -0.347258 0
M  V30 28998 H 3002.78 4.10368 -0.0515993 0
M  V30 28999 H 3002.31 3.60256 1.58048 0
M  V30 29000 H 3004.33 4.15209 2.71692 0
M  V30 29001 N 3003.5 -0.038404 1.57553 0
M  V30 29002 C 3004.43 -1.0693 2.02728 0
M  V30 29003 C 3005.44 -1.33025 0.938525 0
M  V30 29004 O 3006.63 -1.30676 1.21598 0
M  V30 29005 C 3003.73 -2.41303 2.37962 0
M  V30 29006 C 3002.91 -2.34697 3.69102 0
M  V30 29007 C 3001.97 -3.51444 3.9163 0
M  V30 29008 O 3000.99 -3.3136 4.62806 0
M  V30 29009 N 3002.19 -4.72987 3.36547 0
M  V30 29010 H 3004.96 -0.68433 2.91782 0
M  V30 29011 H 3002.52 -0.226514 1.60308 0
M  V30 29012 H 3004.51 -3.18109 2.50178 0
M  V30 29013 H 3003.08 -2.71679 1.54626 0
M  V30 29014 H 3002.3 -1.43052 3.67328 0
M  V30 29015 H 3003.59 -2.27416 4.55148 0
M  V30 29016 H 3002.99 -4.92206 2.78837 0
M  V30 29017 H 3001.54 -5.47189 3.54157 0
M  V30 29018 N 3004.98 -1.54511 -0.310498 0
M  V30 29019 C 3005.93 -1.85547 -1.40269 0
M  V30 29020 C 3006.92 -0.728404 -1.5294 0
M  V30 29021 O 3008.13 -0.912261 -1.5517 0
M  V30 29022 H 3004.5 -0.588352 -0.468344 0
M  V30 29023 H 3006.47 -2.76857 -1.11324 0
M  V30 29024 C 3005.22 -2.1111 -2.76275 0
M  V30 29025 H 3004.54 -2.97303 -2.67303 0
M  V30 29026 H 3005.98 -2.36771 -3.51732 0
M  V30 29027 C 3004.44 -0.906675 -3.2447 0
M  V30 29028 O 3004.97 -0.122428 -4.01513 0
M  V30 29029 N 3003.18 -0.714682 -2.81675 0
M  V30 29030 H 3002.73 -1.35408 -2.1914 0
M  V30 29031 H 3002.68 0.0896477 -3.14272 0
M  V30 29032 N 3006.46 0.573222 -1.46806 0
M  V30 29033 C 3007.39 1.69163 -1.60954 0
M  V30 29034 C 3008.37 1.63776 -0.459508 0
M  V30 29035 O 3009.55 1.81646 -0.686912 0
M  V30 29036 C 3006.68 3.07806 -1.6085 0
M  V30 29037 C 3005.64 3.2803 -2.74919 0
M  V30 29038 C 3004.96 4.67298 -2.59879 0
M  V30 29039 C 3006.26 3.14947 -4.1666 0
M  V30 29040 H 3007.96 1.57578 -2.54577 0
M  V30 29041 H 3005.5 0.756665 -1.22518 0
M  V30 29042 H 3007.45 3.85878 -1.6934 0
M  V30 29043 H 3006.18 3.20312 -0.63777 0
M  V30 29044 H 3004.84 2.52361 -2.65912 0
M  V30 29045 H 3004.49 4.76582 -1.60869 0
M  V30 29046 H 3004.19 4.8178 -3.36395 0
M  V30 29047 H 3005.71 5.47525 -2.70275 0
M  V30 29048 H 3007.12 3.82853 -4.26727 0
M  V30 29049 H 3005.52 3.40948 -4.93837 0
M  V30 29050 H 3006.59 2.119 -4.36149 0
M  V30 29051 N 3007.93 1.3467 0.818645 0
M  V30 29052 C 3008.84 1.28683 1.96158 0
M  V30 29053 C 3009.86 0.193772 1.72918 0
M  V30 29054 O 3011.04 0.42101 1.9695 0
M  V30 29055 C 3008.1 1.04639 3.30532 0
M  V30 29056 C 3007.16 2.23142 3.66751 0
M  V30 29057 C 3006.39 2.00236 4.94713 0
M  V30 29058 O 3006.62 0.962739 5.62217 0
M  V30 29059 O 3005.55 2.87295 5.28909 0
M  V30 29060 H 3009.38 2.24845 2.04153 0
M  V30 29061 H 3006.96 1.14919 0.954671 0
M  V30 29062 H 3008.84 0.930288 4.11003 0
M  V30 29063 H 3007.52 0.115196 3.23495 0
M  V30 29064 H 3006.43 2.40313 2.86706 0
M  V30 29065 H 3007.76 3.14666 3.78479 0
M  V30 29066 N 3009.41 -1.03936 1.1847 0
M  V30 29067 C 3010.66 -1.76809 0.978926 0
M  V30 29068 C 3010.98 -1.88677 -0.492537 0
M  V30 29069 O 3010.25 -1.41271 -1.35717 0
M  V30 29070 H 3008.83 -0.654962 0.359213 0
M  V30 29071 H 3011.49 -1.25431 1.49175 0
M  V30 29072 H 3010.59 -2.78025 1.41805 0
M  V30 29073 N 3010.89 -0.986938 -1.22871 0
M  V30 29074 C 3012.11 -0.677375 -1.96026 0
M  V30 29075 C 3012.54 0.750289 -1.72488 0
M  V30 29076 O 3011.9 1.51202 -1.00039 0
M  V30 29077 C 3011.95 -0.981654 -3.46981 0
M  V30 29078 O 3011.05 -0.0771454 -4.12328 0
M  V30 29079 H 3010.39 -0.254107 -0.613454 0
M  V30 29080 H 3012.92 -1.3223 -1.56129 0
M  V30 29081 H 3012.93 -0.921039 -3.97468 0
M  V30 29082 H 3011.61 -2.022 -3.63439 0
M  V30 29083 H 3010.18 -0.192731 -3.72402 0
M  V30 29084 N 3012.37 1.38098 -0.759394 0
M  V30 29085 C 3013.61 1.99985 -0.318148 0
M  V30 29086 C 3013.94 1.60282 1.10182 0
M  V30 29087 O 3013.2 0.834555 1.77013 0
M  V30 29088 C 3013.5 3.5521 -0.395061 0
M  V30 29089 C 3013.16 4.14643 -1.77151 0
M  V30 29090 C 3011.82 4.30588 -2.14819 0
M  V30 29091 C 3014.18 4.47369 -2.67415 0
M  V30 29092 C 3011.5 4.76558 -3.42212 0
M  V30 29093 C 3013.86 4.94758 -3.94205 0
M  V30 29094 C 3012.52 5.0891 -4.31934 0
M  V30 29095 H 3011.79 0.731798 -0.116419 0
M  V30 29096 H 3014.44 1.65057 -0.971009 0
M  V30 29097 H 3012.74 3.9031 0.341358 0
M  V30 29098 H 3014.44 4.00985 -0.0351426 0
M  V30 29099 H 3011.03 4.0265 -1.46871 0
M  V30 29100 H 3015.21 4.34646 -2.39577 0
M  V30 29101 H 3010.47 4.85701 -3.71355 0
M  V30 29102 H 3014.64 5.19049 -4.64285 0
M  V30 29103 H 3012.27 5.44291 -5.30708 0
M  V30 29104 N 3013.85 0.508932 1.49156 0
M  V30 29105 C 3015.26 0.1654 1.58741 0
M  V30 29106 C 3015.46 -1.33045 1.51332 0
M  V30 29107 O 3014.52 -2.10705 1.39139 0
M  V30 29108 C 3015.83 0.749246 2.91216 0
M  V30 29109 C 3017.38 0.716069 3.04699 0
M  V30 29110 C 3017.85 1.27812 4.39805 0
M  V30 29111 N 3019.34 1.23916 4.46317 0
M  V30 29112 C 3020.08 1.64416 5.49322 0
M  V30 29113 N 3019.58 2.12545 6.59391 0
M  V30 29114 N 3021.37 1.55783 5.40082 0
M  V30 29115 H 3013.52 1.48136 1.52215 0
M  V30 29116 H 3015.78 0.614928 0.721504 0
M  V30 29117 H 3015.49 1.79862 3.0223 0
M  V30 29118 H 3015.36 0.21421 3.76591 0
M  V30 29119 H 3017.75 -0.324483 2.93311 0
M  V30 29120 H 3017.83 1.28834 2.20987 0
M  V30 29121 H 3017.47 2.31749 4.51946 0
M  V30 29122 H 3017.4 0.681714 5.22169 0
M  V30 29123 H 3019.9 0.886602 3.67352 0
M  V30 29124 H 3020.21 2.41497 7.34097 0
M  V30 29125 H 3018.55 2.16525 6.6041 0
M  V30 29126 H 3021.74 1.17995 4.52984 0
M  V30 29127 H 3021.92 1.87668 6.2023 0
M  V30 29128 N 3015.32 -1.55714 0.243111 0
M  V30 29129 C 3016.56 -2.00755 -0.384268 0
M  V30 29130 C 3016.93 -1.12754 -1.55404 0
M  V30 29131 O 3018.13 -1.47235 -2.24889 0
M  V30 29132 C 3016.4 -3.48619 -0.787357 0
M  V30 29133 S 3017.96 -4.15671 -1.4058 0
M  V30 29134 H 3014.78 -0.700615 -0.121076 0
M  V30 29135 H 3017.38 -1.92204 0.357456 0
M  V30 29136 H 3016.08 -4.10334 0.0733613 0
M  V30 29137 H 3015.61 -3.61089 -1.56136 0
M  V30 29138 H 3017.63 -4.16644 -2.69486 0
M  V30 29139 N 3016.8 0.030048 -1.57571 0
M  V30 29140 C 3018.05 0.720093 -1.88408 0
M  V30 29141 C 3018.36 1.76573 -0.841497 0
M  V30 29142 O 3019.57 2.5083 -1.03906 0
M  V30 29143 C 3018.03 1.33182 -3.34351 0
M  V30 29144 C 3017.63 0.322581 -4.46837 0
M  V30 29145 C 3019.38 2.0018 -3.74337 0
M  V30 29146 C 3017.29 0.9426 -5.8384 0
M  V30 29147 H 3016.22 0.272705 -0.702957 0
M  V30 29148 H 3018.87 -0.0255659 -1.83482 0
M  V30 29149 H 3017.25 2.12716 -3.34018 0
M  V30 29150 H 3018.42 -0.445967 -4.58637 0
M  V30 29151 H 3016.74 -0.245254 -4.15677 0
M  V30 29152 H 3019.33 2.47419 -4.74012 0
M  V30 29153 H 3019.68 2.81954 -3.0628 0
M  V30 29154 H 3020.21 1.27423 -3.7684 0
M  V30 29155 H 3016.95 0.164298 -6.55294 0
M  V30 29156 H 3016.47 1.68101 -5.75762 0
M  V30 29157 H 3018.15 1.45023 -6.30537 0
M  V30 29158 N 3018.28 1.54674 0.3023 0
M  V30 29159 C 3019.52 1.75629 1.04565 0
M  V30 29160 C 3019.88 0.530207 1.84534 0
M  V30 29161 O 3021.09 0.617476 2.61612 0
M  V30 29162 C 3019.36 3.00893 1.92868 0
M  V30 29163 S 3020.92 3.42845 2.73866 0
M  V30 29164 H 3017.73 0.617369 0.352671 0
M  V30 29165 H 3020.34 1.92876 0.319206 0
M  V30 29166 H 3019.04 3.88254 1.32991 0
M  V30 29167 H 3018.57 2.86229 2.69882 0
M  V30 29168 H 3020.59 2.99814 3.95381 0
M  V30 29169 N 3019.76 -0.565428 1.47108 0
M  V30 29170 C 3021.17 -1.14757 1.47268 0
M  V30 29171 C 3021.52 -1.9493 0.222876 0
M  V30 29172 O 3020.65 -2.05675 -0.672825 0
M  V30 29173 C 3021.24 -2.08781 2.66826 0
M  V30 29174 C 3019.8 -2.62283 2.69971 0
M  V30 29175 C 3018.95 -1.38495 2.40238 0
M  V30 29176 H 3021.9 -0.352452 1.54737 0
M  V30 29177 H 3021.92 -2.92526 2.43328 0
M  V30 29178 H 3021.43 -1.50402 3.57772 0
M  V30 29179 H 3019.53 -3.24483 1.83143 0
M  V30 29180 H 3019.64 -3.03838 3.70431 0
M  V30 29181 H 3018.01 -1.68892 1.9065 0
M  V30 29182 H 3018.79 -0.819216 3.33382 0
M  V30 29183 N 3021.24 -1.35102 -0.811492 0
M  V30 29184 C 3022.65 -1.25185 -1.38513 0
M  V30 29185 C 3023 0.117849 -1.95846 0
M  V30 29186 O 3022.12 1.01863 -1.90926 0
M  V30 29187 C 3022.72 -2.26666 -2.51809 0
M  V30 29188 C 3021.28 -2.20505 -3.05049 0
M  V30 29189 C 3020.42 -2.12644 -1.77983 0
M  V30 29190 H 3023.38 -1.46302 -0.614933 0
M  V30 29191 H 3023.4 -1.89029 -3.30224 0
M  V30 29192 H 3022.91 -3.26344 -2.10051 0
M  V30 29193 H 3021.01 -1.24222 -3.51283 0
M  V30 29194 H 3021.12 -3.12257 -3.63363 0
M  V30 29195 H 3019.49 -1.58544 -1.99339 0
M  V30 29196 H 3020.27 -3.14174 -1.38383 0
M  V30 29197 N 3022.71 1.03306 -1.19019 0
M  V30 29198 C 3023.96 1.76287 -0.988289 0
M  V30 29199 C 3024.28 1.88936 0.482524 0
M  V30 29200 O 3023.55 1.41989 1.34966 0
M  V30 29201 H 3022.13 0.653048 -0.362681 0
M  V30 29202 H 3024.8 1.24638 -1.49838 0
M  V30 29203 H 3023.89 2.77269 -1.43278 0
M  V30 29204 N 3024.19 0.99344 1.22346 0
M  V30 29205 C 3025.42 0.687057 1.94841 0
M  V30 29206 C 3025.83 -0.752415 1.73595 0
M  V30 29207 O 3025.17 -1.51945 1.0324 0
M  V30 29208 C 3025.24 0.913815 3.47692 0
M  V30 29209 C 3024.9 2.33787 3.92673 0
M  V30 29210 C 3025.9 3.31741 4.00305 0
M  V30 29211 C 3023.58 2.67245 4.25306 0
M  V30 29212 C 3025.58 4.61226 4.39943 0
M  V30 29213 C 3023.26 3.96949 4.64624 0
M  V30 29214 C 3024.26 4.9375 4.71911 0
M  V30 29215 O 3023.95 6.21136 5.10338 0
M  V30 29216 H 3023.68 0.253258 0.626767 0
M  V30 29217 H 3026.23 1.33108 1.56434 0
M  V30 29218 H 3024.46 0.21262 3.86115 0
M  V30 29219 H 3026.15 0.602599 4.01402 0
M  V30 29220 H 3026.92 3.07226 3.75283 0
M  V30 29221 H 3022.8 1.92601 4.18839 0
M  V30 29222 H 3026.34 5.36782 4.45545 0
M  V30 29223 H 3022.24 4.21253 4.89097 0
M  V30 29224 H 3023.01 6.25081 5.28409 0
M  V30 29225 N 3025.67 -1.37693 0.766707 0
M  V30 29226 C 3026.58 -2.34119 0.150199 0
M  V30 29227 C 3027.6 -1.59928 -0.685485 0
M  V30 29228 O 3028.77 -1.92048 -0.606582 0
M  V30 29229 C 3025.84 -3.39088 -0.722503 0
M  V30 29230 C 3024.9 -4.29106 0.129059 0
M  V30 29231 C 3024.13 -5.29062 -0.702085 0
M  V30 29232 O 3024.35 -5.36416 -1.93945 0
M  V30 29233 O 3023.29 -6.01792 -0.11395 0
M  V30 29234 H 3027.11 -2.88562 0.94688 0
M  V30 29235 H 3024.7 -1.39767 0.527789 0
M  V30 29236 H 3026.58 -4.03327 -1.22087 0
M  V30 29237 H 3025.26 -2.86981 -1.49746 0
M  V30 29238 H 3024.16 -3.67984 0.673677 0
M  V30 29239 H 3025.5 -4.84504 0.866977 0
M  V30 29240 N 3027.15 -0.516835 -1.48884 0
M  V30 29241 C 3028.39 0.0220572 -2.02788 0
M  V30 29242 C 3028.73 1.35172 -1.39435 0
M  V30 29243 O 3028 1.86983 -0.535492 0
M  V30 29244 C 3028.29 0.157949 -3.59753 0
M  V30 29245 C 3028.14 -1.19596 -4.33609 0
M  V30 29246 C 3029.46 0.891058 -4.30985 0
M  V30 29247 H 3026.58 0.00654193 -0.736971 0
M  V30 29248 H 3029.22 -0.671318 -1.77745 0
M  V30 29249 H 3027.37 0.748501 -3.81221 0
M  V30 29250 H 3029.04 -1.82661 -4.23595 0
M  V30 29251 H 3027.28 -1.78123 -3.95544 0
M  V30 29252 H 3027.95 -1.05401 -5.41844 0
M  V30 29253 H 3030.43 0.390047 -4.14268 0
M  V30 29254 H 3029.31 0.955012 -5.40528 0
M  V30 29255 H 3029.57 1.9384 -3.97339 0
M  V30 29256 N 3028.63 1.55583 -0.251365 0
M  V30 29257 C 3029.57 2.21566 0.646298 0
M  V30 29258 C 3030.54 1.18104 1.16793 0
M  V30 29259 O 3031.73 1.46567 1.22159 0
M  V30 29260 C 3028.87 2.92237 1.83552 0
M  V30 29261 C 3027.98 4.10365 1.34999 0
M  V30 29262 C 3027.12 4.6874 2.49912 0
M  V30 29263 C 3026.16 5.79108 1.98243 0
M  V30 29264 N 3025.29 6.31647 3.0654 0
M  V30 29265 H 3030.13 2.97901 0.0769357 0
M  V30 29266 H 3027.67 1.47077 0.0262121 0
M  V30 29267 H 3029.63 3.31413 2.53419 0
M  V30 29268 H 3028.26 2.18369 2.37729 0
M  V30 29269 H 3027.31 3.76473 0.545208 0
M  V30 29270 H 3028.62 4.90028 0.931349 0
M  V30 29271 H 3027.78 5.10513 3.27814 0
M  V30 29272 H 3026.51 3.88303 2.9508 0
M  V30 29273 H 3025.52 5.36809 1.18813 0
M  V30 29274 H 3026.74 6.61399 1.54039 0
M  V30 29275 H 3024.69 5.54113 3.51133 0
M  V30 29276 H 3024.61 7.06515 2.6902 0
M  V30 29277 H 3025.88 6.78078 3.84487 0
M  V30 29278 N 3030.1 -0.0216912 1.57585 0
M  V30 29279 C 3031.33 -0.726275 1.94268 0
M  V30 29280 C 3031.75 -1.67701 0.851934 0
M  V30 29281 O 3031.11 -1.80283 -0.19176 0
M  V30 29282 C 3031.16 -1.45312 3.30025 0
M  V30 29283 O 3030.26 -2.56664 3.22796 0
M  V30 29284 H 3029.61 -0.194806 0.634781 0
M  V30 29285 H 3032.14 0.0250345 2.04585 0
M  V30 29286 H 3032.15 -1.82141 3.65087 0
M  V30 29287 H 3030.82 -0.75589 4.08973 0
M  V30 29288 H 3029.4 -2.22324 2.99377 0
M  V30 29289 N 3031.58 -1.54832 -0.294093 0
M  V30 29290 C 3032.49 -1.89327 -1.38537 0
M  V30 29291 C 3033.51 -0.78816 -1.55126 0
M  V30 29292 O 3034.69 -1.08527 -1.69658 0
M  V30 29293 C 3031.75 -2.13959 -2.72805 0
M  V30 29294 C 3030.81 -3.37636 -2.65142 0
M  V30 29295 C 3030.04 -3.61083 -3.93007 0
M  V30 29296 O 3030.27 -2.87415 -4.92695 0
M  V30 29297 O 3029.2 -4.54606 -3.94483 0
M  V30 29298 H 3033.03 -2.82181 -1.12284 0
M  V30 29299 H 3030.61 -1.41109 -0.490769 0
M  V30 29300 H 3032.49 -2.31321 -3.52234 0
M  V30 29301 H 3031.17 -1.2429 -2.98887 0
M  V30 29302 H 3030.08 -3.2563 -1.84162 0
M  V30 29303 H 3031.41 -4.27456 -2.44012 0
M  V30 29304 N 3033.06 0.557619 -1.47405 0
M  V30 29305 C 3034.01 1.68574 -1.60268 0
M  V30 29306 C 3035 1.62749 -0.47001 0
M  V30 29307 O 3036.21 1.67939 -0.647794 0
M  V30 29308 H 3032.58 0.557784 -0.504362 0
M  V30 29309 H 3034.56 1.54862 -2.55069 0
M  V30 29310 C 3033.3 3.06927 -1.63374 0
M  V30 29311 H 3032.63 3.1209 -2.49879 0
M  V30 29312 H 3034.07 3.85552 -1.76424 0
M  V30 29313 C 3032.53 3.34895 -0.36698 0
M  V30 29314 O 3033.06 3.9816 0.53211 0
M  V30 29315 N 3031.26 2.89547 -0.247133 0
M  V30 29316 H 3030.81 2.38242 -0.979711 0
M  V30 29317 H 3030.77 3.08631 0.599498 0
M  V30 29318 N 3034.54 1.35531 0.804316 0
M  V30 29319 C 3035.78 1.30298 1.57486 0
M  V30 29320 C 3036.14 -0.120494 1.91622 0
M  V30 29321 O 3037.34 -0.297218 2.67152 0
M  V30 29322 C 3035.62 2.1862 2.82737 0
M  V30 29323 S 3037.17 2.30925 3.73121 0
M  V30 29324 H 3033.99 0.463023 0.539565 0
M  V30 29325 H 3036.59 1.70946 0.948571 0
M  V30 29326 H 3035.3 3.21018 2.55687 0
M  V30 29327 H 3034.83 1.78937 3.5035 0
M  V30 29328 H 3036.84 1.49574 4.73119 0
M  V30 29329 N 3036.02 -1.02674 1.19565 0
M  V30 29330 C 3037.27 -1.75512 0.993895 0
M  V30 29331 C 3037.58 -1.89724 -0.475849 0
M  V30 29332 O 3038.79 -2.59554 -0.796479 0
M  V30 29333 C 3037.24 -3.15625 1.72942 0
M  V30 29334 C 3036.85 -3.0946 3.23942 0
M  V30 29335 C 3038.59 -3.92744 1.61099 0
M  V30 29336 C 3036.5 -4.44517 3.90075 0
M  V30 29337 H 3035.43 -0.657954 0.368255 0
M  V30 29338 H 3038.08 -1.14889 1.43083 0
M  V30 29339 H 3036.46 -3.76729 1.22031 0
M  V30 29340 H 3037.64 -2.57724 3.81988 0
M  V30 29341 H 3035.95 -2.45837 3.36085 0
M  V30 29342 H 3038.55 -4.92646 2.07856 0
M  V30 29343 H 3038.89 -4.12441 0.565487 0
M  V30 29344 H 3039.43 -3.38246 2.09367 0
M  V30 29345 H 3036.16 -4.30024 4.94732 0
M  V30 29346 H 3035.68 -4.963 3.36818 0
M  V30 29347 H 3037.36 -5.13394 3.93745 0
M  V30 29348 N 3037.5 -0.999914 -1.21817 0
M  V30 29349 C 3038.77 -0.595417 -1.86317 0
M  V30 29350 C 3039.15 0.927109 -1.89652 0
M  V30 29351 O 3038.5 1.81196 -1.39213 0
M  V30 29352 C 3038.71 -1.22393 -3.26835 0
M  V30 29353 C 3040.06 -1.32885 -4.0327 0
M  V30 29354 O 3041.08 -1.17886 -3.36127 0
M  V30 29355 O 3039.94 -1.56961 -5.23474 0
M  V30 29356 H 3037.04 -0.203252 -0.801634 0
M  V30 29357 H 3039.58 -1.09624 -1.2954 0
M  V30 29358 H 3038.35 -2.26503 -3.1908 0
M  V30 29359 H 3037.98 -0.709138 -3.91225 0
M  V30 29360 N 3038.97 1.37284 -0.773999 0
M  V30 29361 C 3040.22 1.98881 -0.336012 0
M  V30 29362 C 3040.54 1.62136 1.09413 0
M  V30 29363 O 3041.74 2.16853 1.63362 0
M  V30 29364 C 3040.2 3.55675 -0.549819 0
M  V30 29365 C 3039.81 4.01358 -1.99037 0
M  V30 29366 C 3041.55 4.24137 -0.175567 0
M  V30 29367 C 3039.46 5.5087 -2.15166 0
M  V30 29368 H 3038.39 0.744083 -0.12189 0
M  V30 29369 H 3041.04 1.56785 -0.953447 0
M  V30 29370 H 3039.42 3.95763 0.137106 0
M  V30 29371 H 3040.59 3.7251 -2.71243 0
M  V30 29372 H 3038.91 3.45686 -2.32143 0
M  V30 29373 H 3041.51 5.33995 -0.274557 0
M  V30 29374 H 3041.85 4.07012 0.874452 0
M  V30 29375 H 3042.38 3.89359 -0.815127 0
M  V30 29376 H 3039.12 5.72924 -3.18495 0
M  V30 29377 H 3038.64 5.81395 -1.47446 0
M  V30 29378 H 3040.32 6.16872 -1.95135 0
M  V30 29379 N 3040.45 0.524724 1.48608 0
M  V30 29380 C 3041.4 -0.254358 2.31205 0
M  V30 29381 C 3042.39 -0.940466 1.40896 0
M  V30 29382 O 3043.6 -0.86545 1.57829 0
M  V30 29383 H 3039.97 -0.100894 0.745201 0
M  V30 29384 H 3041.95 0.461928 2.94803 0
M  V30 29385 C 3040.69 -1.29154 3.22823 0
M  V30 29386 H 3040.02 -0.773005 3.92256 0
M  V30 29387 H 3041.46 -1.80818 3.83511 0
M  V30 29388 C 3039.92 -2.32238 2.44064 0
M  V30 29389 O 3040.45 -3.38576 2.16169 0
M  V30 29390 N 3038.65 -2.05316 2.05655 0
M  V30 29391 H 3038.2 -1.18857 2.28541 0
M  V30 29392 H 3038.16 -2.7451 1.5327 0
M  V30 29393 N 3041.93 -1.55447 0.259613 0
M  V30 29394 C 3042.84 -2.2556 -0.644986 0
M  V30 29395 C 3043.86 -1.27608 -1.18289 0
M  V30 29396 O 3045.03 -1.60512 -1.21647 0
M  V30 29397 C 3042.1 -2.95113 -1.81959 0
M  V30 29398 C 3041.16 -4.08506 -1.3199 0
M  V30 29399 C 3040.39 -4.74733 -2.43852 0
M  V30 29400 O 3040.61 -4.40094 -3.62868 0
M  V30 29401 O 3039.55 -5.62994 -2.12888 0
M  V30 29402 H 3043.37 -3.03601 -0.0774866 0
M  V30 29403 H 3040.96 -1.49374 0.0276121 0
M  V30 29404 H 3042.84 -3.38878 -2.50479 0
M  V30 29405 H 3041.52 -2.20001 -2.37447 0
M  V30 29406 H 3040.42 -3.69231 -0.601611 0
M  V30 29407 H 3041.76 -4.85473 -0.81096 0
M  V30 29408 N 3043.41 0.0133338 -1.57594 0
M  V30 29409 C 3044.65 0.705606 -1.91835 0
M  V30 29410 C 3045.01 1.71671 -0.859832 0
M  V30 29411 O 3046.21 2.45838 -1.08706 0
M  V30 29412 C 3044.48 1.34377 -3.31176 0
M  V30 29413 S 3046.04 2.06302 -3.87279 0
M  V30 29414 H 3042.86 0.233393 -0.671602 0
M  V30 29415 H 3045.46 -0.0401517 -1.95459 0
M  V30 29416 H 3044.17 0.594867 -4.06066 0
M  V30 29417 H 3043.7 2.12775 -3.30893 0
M  V30 29418 H 3045.71 3.3365 -3.67277 0
M  V30 29419 N 3044.89 1.54985 0.285878 0
M  V30 29420 C 3046.16 1.65681 1.03967 0
M  V30 29421 C 3046.54 0.514887 2.04725 0
M  V30 29422 O 3045.89 -0.486624 2.23258 0
M  V30 29423 C 3046.1 3.04348 1.70801 0
M  V30 29424 C 3047.45 3.6167 2.22441 0
M  V30 29425 O 3048.47 3.06898 1.80809 0
M  V30 29426 O 3047.33 4.57604 2.98765 0
M  V30 29427 H 3044.43 0.672402 0.481461 0
M  V30 29428 H 3046.97 1.67328 0.28276 0
M  V30 29429 H 3045.74 3.78902 0.977204 0
M  V30 29430 H 3045.37 3.06545 2.53211 0
M  V30 29431 N 3046.36 -0.549794 1.47699 0
M  V30 29432 C 3047.27 -1.68349 1.63389 0
M  V30 29433 C 3048.29 -1.66154 0.516612 0
M  V30 29434 O 3049.47 -1.85467 0.78512 0
M  V30 29435 C 3046.53 -3.04846 1.65135 0
M  V30 29436 C 3045.59 -3.18051 2.88344 0
M  V30 29437 C 3044.83 -4.48037 2.89998 0
M  V30 29438 O 3045.05 -5.33946 2.00643 0
M  V30 29439 O 3043.98 -4.65189 3.81946 0
M  V30 29440 H 3047.81 -1.58053 2.59332 0
M  V30 29441 H 3045.39 -0.720647 1.3087 0
M  V30 29442 H 3047.28 -3.86062 1.6892 0
M  V30 29443 H 3045.95 -3.15508 0.72361 0
M  V30 29444 H 3044.86 -2.36204 2.90101 0
M  V30 29445 H 3046.19 -3.12296 3.80437 0
M  V30 29446 N 3047.84 -1.35955 -0.797117 0
M  V30 29447 C 3049.12 -1.20312 -1.54222 0
M  V30 29448 C 3049.5 0.213889 -2.10014 0
M  V30 29449 O 3048.85 1.21859 -1.93294 0
M  V30 29450 C 3049.06 -2.27888 -2.64326 0
M  V30 29451 C 3050.41 -2.64171 -3.32414 0
M  V30 29452 O 3051.43 -2.26873 -2.74603 0
M  V30 29453 O 3050.29 -3.28339 -4.36871 0
M  V30 29454 H 3047.38 -0.467986 -0.681849 0
M  V30 29455 H 3049.93 -1.47664 -0.836262 0
M  V30 29456 H 3048.7 -3.22889 -2.21039 0
M  V30 29457 H 3048.32 -2.01859 -3.42548 0
M  V30 29458 N 3049.32 1.02038 -1.20108 0
M  V30 29459 C 3050.73 1.57025 -1.00995 0
M  V30 29460 C 3051.08 1.91323 0.434749 0
M  V30 29461 O 3050.21 1.71821 1.31554 0
M  V30 29462 C 3050.8 2.85316 -1.82702 0
M  V30 29463 C 3049.36 3.36845 -1.67965 0
M  V30 29464 C 3048.51 2.10192 -1.80871 0
M  V30 29465 H 3051.46 0.844653 -1.34355 0
M  V30 29466 H 3051.48 3.56568 -1.32815 0
M  V30 29467 H 3050.99 2.60323 -2.87843 0
M  V30 29468 H 3049.09 3.66807 -0.654454 0
M  V30 29469 H 3049.21 4.09303 -2.49013 0
M  V30 29470 H 3047.57 2.22467 -1.24019 0
M  V30 29471 H 3048.35 1.8763 -2.87489 0
M  V30 29472 N 3050.8 1.00636 1.21285 0
M  V30 29473 C 3051.75 0.561065 2.25732 0
M  V30 29474 C 3052.74 -0.395066 1.64729 0
M  V30 29475 O 3053.95 -0.26611 1.78022 0
M  V30 29476 H 3050.32 0.163094 0.734101 0
M  V30 29477 H 3052.29 1.45312 2.60628 0
M  V30 29478 C 3051.04 -0.0951976 3.4757 0
M  V30 29479 H 3050.36 0.631496 3.94781 0
M  V30 29480 H 3051.8 -0.370031 4.22382 0
M  V30 29481 C 3050.26 -1.33482 3.09328 0
M  V30 29482 O 3050.79 -2.42906 3.19937 0
M  V30 29483 N 3049 -1.21508 2.63978 0
M  V30 29484 H 3048.55 -0.324696 2.55545 0
M  V30 29485 H 3048.5 -2.04551 2.3876 0
M  V30 29486 N 3052.28 -1.36872 0.781268 0
M  V30 29487 C 3053.53 -1.98701 0.346555 0
M  V30 29488 C 3053.84 -1.62714 -1.08552 0
M  V30 29489 O 3055.04 -2.17716 -1.6221 0
M  V30 29490 C 3053.5 -3.55379 0.568673 0
M  V30 29491 C 3053.11 -4.00297 2.01163 0
M  V30 29492 C 3054.85 -4.24038 0.198058 0
M  V30 29493 C 3052.76 -5.49721 2.18084 0
M  V30 29494 H 3051.69 -0.743426 0.125834 0
M  V30 29495 H 3054.34 -1.56278 0.961748 0
M  V30 29496 H 3052.72 -3.9583 -0.116116 0
M  V30 29497 H 3053.9 -3.71066 2.73215 0
M  V30 29498 H 3052.21 -3.4445 2.33973 0
M  V30 29499 H 3054.81 -5.33842 0.302872 0
M  V30 29500 H 3055.15 -4.0747 -0.852855 0
M  V30 29501 H 3055.68 -3.88921 0.835764 0
M  V30 29502 H 3052.42 -5.71226 3.21529 0
M  V30 29503 H 3051.94 -5.80605 1.50527 0
M  V30 29504 H 3053.62 -6.15829 1.98404 0
M  V30 29505 N 3053.75 -0.532597 -1.48328 0
M  V30 29506 C 3054.99 -0.00149211 -2.044 0
M  V30 29507 C 3055.36 1.31333 -1.40056 0
M  V30 29508 O 3056.56 1.93063 -1.8703 0
M  V30 29509 C 3054.83 0.115313 -3.57214 0
M  V30 29510 S 3056.39 0.596104 -4.34732 0
M  V30 29511 H 3053.21 -0.0133162 -0.710875 0
M  V30 29512 H 3055.81 -0.713752 -1.82005 0
M  V30 29513 H 3054.51 -0.846406 -4.01577 0
M  V30 29514 H 3054.04 0.851872 -3.84066 0
M  V30 29515 H 3056.06 1.86017 -4.60013 0
M  V30 29516 N 3055.23 1.55307 -0.267853 0
M  V30 29517 C 3056.16 2.25213 0.616545 0
M  V30 29518 C 3057.14 1.23971 1.1647 0
M  V30 29519 O 3058.33 1.52674 1.20018 0
M  V30 29520 C 3055.46 2.96767 1.80407 0
M  V30 29521 C 3054.41 4.04876 1.38777 0
M  V30 29522 C 3053.74 4.63966 2.65781 0
M  V30 29523 C 3055.04 5.19466 0.543323 0
M  V30 29524 H 3056.73 2.99381 0.0335731 0
M  V30 29525 H 3054.28 1.43992 0.0147074 0
M  V30 29526 H 3056.23 3.44379 2.4286 0
M  V30 29527 H 3054.96 2.20122 2.41276 0
M  V30 29528 H 3053.61 3.58064 0.786478 0
M  V30 29529 H 3053.26 3.83997 3.24892 0
M  V30 29530 H 3052.96 5.36958 2.38641 0
M  V30 29531 H 3054.49 5.14324 3.29095 0
M  V30 29532 H 3055.9 5.63176 1.07267 0
M  V30 29533 H 3054.3 5.98976 0.367114 0
M  V30 29534 H 3055.37 4.82903 -0.439618 0
M  V30 29535 N 3056.71 -0.00497598 1.57599 0
M  V30 29536 C 3057.96 -0.690862 1.90351 0
M  V30 29537 C 3058.29 -1.74054 0.868075 0
M  V30 29538 O 3057.54 -1.95282 -0.12782 0
M  V30 29539 C 3057.84 -1.37582 3.29857 0
M  V30 29540 C 3057.51 -0.459827 4.48549 0
M  V30 29541 C 3056.17 -0.207609 4.80752 0
M  V30 29542 C 3058.52 0.171145 5.20919 0
M  V30 29543 C 3055.85 0.683957 5.827 0
M  V30 29544 C 3058.2 1.05056 6.23816 0
M  V30 29545 C 3056.86 1.312 6.54479 0
M  V30 29546 H 3056.13 -0.252804 0.696542 0
M  V30 29547 H 3058.78 0.0494832 1.91436 0
M  V30 29548 H 3057.09 -2.19009 3.24873 0
M  V30 29549 H 3058.78 -1.91249 3.52456 0
M  V30 29550 H 3055.37 -0.666574 4.23385 0
M  V30 29551 H 3059.56 -0.0107069 4.96299 0
M  V30 29552 H 3054.81 0.894573 6.0482 0
M  V30 29553 H 3058.99 1.54586 6.79026 0
M  V30 29554 H 3056.61 2.00455 7.33295 0
M  V30 29555 N 3058.19 -1.55135 -0.277654 0
M  V30 29556 C 3059.44 -1.75175 -1.00788 0
M  V30 29557 C 3059.76 -0.553299 -1.86986 0
M  V30 29558 O 3059.03 0.431917 -1.91079 0
M  V30 29559 H 3057.61 -0.645984 -0.375118 0
M  V30 29560 H 3060.27 -1.9253 -0.303007 0
M  V30 29561 H 3059.37 -2.65073 -1.64751 0
M  V30 29562 N 3059.67 0.541953 -1.47989 0
M  V30 29563 C 3060.89 1.32823 -1.59288 0
M  V30 29564 C 3061.32 1.86445 -0.248973 0
M  V30 29565 O 3060.67 1.6378 0.777553 0
M  V30 29566 C 3060.72 2.46338 -2.63344 0
M  V30 29567 O 3059.83 3.49024 -2.19673 0
M  V30 29568 H 3059.17 0.393894 -0.53455 0
M  V30 29569 H 3061.7 0.653392 -1.93886 0
M  V30 29570 H 3061.71 2.92694 -2.84243 0
M  V30 29571 H 3060.38 2.06669 -3.60917 0
M  V30 29572 H 3058.96 3.08868 -2.08937 0
M  V30 29573 N 3061.15 1.36376 0.789896 0
M  V30 29574 C 3062.39 1.31961 1.56095 0
M  V30 29575 C 3062.75 -0.100163 1.91739 0
M  V30 29576 O 3063.95 -0.268866 2.67452 0
M  V30 29577 C 3062.22 2.21606 2.80402 0
M  V30 29578 S 3063.78 2.34869 3.70651 0
M  V30 29579 H 3060.6 0.46872 0.534624 0
M  V30 29580 H 3063.2 1.71942 0.930387 0
M  V30 29581 H 3061.9 3.23712 2.52267 0
M  V30 29582 H 3061.44 1.82643 3.48432 0
M  V30 29583 H 3063.45 1.54584 4.71506 0
M  V30 29584 N 3062.62 -1.014 1.20647 0
M  V30 29585 C 3063.85 -1.78633 1.04392 0
M  V30 29586 C 3064.27 -1.84367 -0.406738 0
M  V30 29587 O 3063.62 -1.29853 -1.28236 0
M  V30 29588 C 3063.67 -3.22976 1.62384 0
M  V30 29589 O 3063.4 -3.17592 3.01773 0
M  V30 29590 C 3064.9 -4.16748 1.51117 0
M  V30 29591 H 3062.12 -0.561684 0.367086 0
M  V30 29592 H 3064.66 -1.27621 1.59791 0
M  V30 29593 H 3062.82 -3.71128 1.11099 0
M  V30 29594 H 3063.23 -4.08211 3.29339 0
M  V30 29595 H 3064.7 -5.1586 1.9645 0
M  V30 29596 H 3065.18 -4.36741 0.464088 0
M  V30 29597 H 3065.79 -3.7448 2.01606 0
M  V30 29598 N 3064.1 -1.01278 -1.2075 0
M  V30 29599 C 3065.05 -0.573029 -2.25431 0
M  V30 29600 C 3066.04 0.386325 -1.64936 0
M  V30 29601 O 3067.25 0.256665 -1.78161 0
M  V30 29602 H 3063.62 -0.166985 -0.733226 0
M  V30 29603 H 3065.6 -1.46692 -2.59854 0
M  V30 29604 C 3064.34 0.0767638 -3.47615 0
M  V30 29605 H 3063.67 -0.652424 -3.94441 0
M  V30 29606 H 3065.11 0.347626 -4.22573 0
M  V30 29607 C 3063.57 1.3184 -3.10032 0
M  V30 29608 O 3064.1 2.41206 -3.21221 0
M  V30 29609 N 3062.3 1.20106 -2.64618 0
M  V30 29610 H 3061.85 0.311139 -2.55714 0
M  V30 29611 H 3061.81 2.03282 -2.39842 0
M  V30 29612 N 3065.58 1.36456 -0.788516 0
M  V30 29613 C 3066.81 2.03521 -0.372401 0
M  V30 29614 C 3067.22 1.59456 1.0109 0
M  V30 29615 O 3066.58 0.783564 1.64823 0
M  V30 29616 C 3066.63 3.58987 -0.425498 0
M  V30 29617 O 3066.35 4.01445 -1.75425 0
M  V30 29618 C 3067.85 4.433 0.000102246 0
M  V30 29619 H 3065.07 0.65318 -0.153611 0
M  V30 29620 H 3067.62 1.74451 -1.06711 0
M  V30 29621 H 3065.77 3.8677 0.220788 0
M  V30 29622 H 3066.19 4.96033 -1.70445 0
M  V30 29623 H 3067.66 5.5193 -0.0881889 0
M  V30 29624 H 3068.14 4.264 1.05262 0
M  V30 29625 H 3068.74 4.20777 -0.618637 0
M  V30 29626 N 3067.06 0.540456 1.48043 0
M  V30 29627 C 3068.47 0.102695 1.86417 0
M  V30 29628 C 3068.82 -1.3229 1.44892 0
M  V30 29629 O 3067.94 -1.99248 0.844355 0
M  V30 29630 C 3068.54 0.179592 3.38324 0
M  V30 29631 C 3067.1 -0.203032 3.75852 0
M  V30 29632 C 3066.25 0.534684 2.72096 0
M  V30 29633 H 3069.2 0.751127 1.39799 0
M  V30 29634 H 3069.22 -0.606081 3.75642 0
M  V30 29635 H 3068.73 1.21727 3.68516 0
M  V30 29636 H 3066.83 -1.24246 3.51275 0
M  V30 29637 H 3066.94 0.143868 4.78884 0
M  V30 29638 H 3065.31 -0.0202911 2.54692 0
M  V30 29639 H 3066.09 1.5732 3.05132 0
M  V30 29640 N 3068.54 -1.55163 0.276085 0
M  V30 29641 C 3069.78 -1.99224 -0.339747 0
M  V30 29642 C 3070.1 -1.16592 -1.56305 0
M  V30 29643 O 3069.37 -0.255674 -1.94224 0
M  V30 29644 H 3067.95 -0.735861 -0.128521 0
M  V30 29645 H 3070.62 -1.91127 0.381646 0
M  V30 29646 H 3069.71 -3.05697 -0.628947 0
M  V30 29647 N 3070.01 -0.00338196 -1.576 0
M  V30 29648 C 3071.26 0.679413 -1.90338 0
M  V30 29649 C 3071.58 1.74125 -0.877808 0
M  V30 29650 O 3070.85 1.95718 0.0843241 0
M  V30 29651 H 3069.43 0.253936 -0.702514 0
M  V30 29652 H 3072.09 -0.0451074 -1.94848 0
M  V30 29653 H 3071.19 1.14852 -2.90199 0
M  V30 29654 N 3071.49 1.5528 0.269423 0
M  V30 29655 C 3072.74 1.76055 1.00055 0
M  V30 29656 C 3073.07 0.563625 1.86155 0
M  V30 29657 O 3072.32 -0.453773 1.90366 0
M  V30 29658 C 3072.62 3.02086 1.90995 0
M  V30 29659 C 3072.29 4.34468 1.20616 0
M  V30 29660 C 3070.95 4.70447 1.01157 0
M  V30 29661 C 3073.3 5.16402 0.705605 0
M  V30 29662 C 3070.63 5.85913 0.303762 0
M  V30 29663 C 3072.98 6.32599 0.0113726 0
M  V30 29664 C 3071.64 6.67215 -0.194897 0
M  V30 29665 H 3070.91 0.64423 0.366127 0
M  V30 29666 H 3073.56 1.89551 0.272529 0
M  V30 29667 H 3071.87 2.83505 2.7043 0
M  V30 29668 H 3073.56 3.15356 2.47692 0
M  V30 29669 H 3070.15 4.06191 1.36774 0
M  V30 29670 H 3074.34 4.89079 0.843554 0
M  V30 29671 H 3069.59 6.11255 0.133261 0
M  V30 29672 H 3073.77 6.95339 -0.384233 0
M  V30 29673 H 3071.39 7.56537 -0.745334 0
M  V30 29674 N 3072.97 -0.534097 1.48274 0
M  V30 29675 C 3073.9 -1.65491 1.58573 0
M  V30 29676 C 3074.91 -1.55859 0.470294 0
M  V30 29677 O 3076.1 -1.62395 0.740957 0
M  V30 29678 C 3073.2 -3.04114 1.49559 0
M  V30 29679 C 3072.38 -3.39269 2.76072 0
M  V30 29680 C 3071.44 -4.57154 2.6057 0
M  V30 29681 O 3070.46 -4.60581 3.34446 0
M  V30 29682 N 3071.66 -5.55076 1.69915 0
M  V30 29683 H 3074.43 -1.57094 2.55228 0
M  V30 29684 H 3071.99 -0.721277 1.44946 0
M  V30 29685 H 3073.98 -3.80846 1.36889 0
M  V30 29686 H 3072.55 -3.06611 0.608949 0
M  V30 29687 H 3071.77 -2.51755 3.03336 0
M  V30 29688 H 3073.06 -3.5954 3.60012 0
M  V30 29689 H 3072.46 -5.55082 1.09089 0
M  V30 29690 H 3071.01 -6.31042 1.63186 0
M  V30 29691 N 3074.45 -1.36793 -0.782652 0
M  V30 29692 C 3075.69 -1.32786 -1.55393 0
M  V30 29693 C 3076.05 0.0899935 -1.91789 0
M  V30 29694 O 3077.25 0.254678 -2.67591 0
M  V30 29695 C 3075.52 -2.2309 -2.79223 0
M  V30 29696 S 3077.08 -2.36832 -3.694 0
M  V30 29697 H 3073.9 -0.471548 -0.532131 0
M  V30 29698 H 3076.5 -1.72433 -0.921255 0
M  V30 29699 H 3075.21 -3.25045 -2.50547 0
M  V30 29700 H 3074.74 -1.84488 -3.47459 0
M  V30 29701 H 3076.75 -1.57082 -4.7068 0
M  V30 29702 N 3075.93 1.00759 -1.21184 0
M  V30 29703 C 3076.86 2.11342 -0.99281 0
M  V30 29704 C 3077.84 1.69905 0.081332 0
M  V30 29705 O 3079.02 1.94043 -0.0779844 0
M  V30 29706 C 3076.15 3.42855 -0.553887 0
M  V30 29707 C 3075.11 3.98074 -1.5723 0
M  V30 29708 C 3074.43 5.25461 -0.989698 0
M  V30 29709 C 3075.73 4.30433 -2.95846 0
M  V30 29710 H 3077.43 2.29923 -1.9177 0
M  V30 29711 H 3074.97 1.10492 -0.923446 0
M  V30 29712 H 3076.93 4.19611 -0.387844 0
M  V30 29713 H 3075.65 3.24059 0.406645 0
M  V30 29714 H 3074.31 3.23434 -1.72586 0
M  V30 29715 H 3073.96 5.02996 -0.0209627 0
M  V30 29716 H 3073.66 5.63371 -1.66993 0
M  V30 29717 H 3075.18 6.04865 -0.834921 0
M  V30 29718 H 3076.59 4.98042 -2.83949 0
M  V30 29719 H 3074.99 4.79479 -3.6086 0
M  V30 29720 H 3076.06 3.38817 -3.46888 0
M  V30 29721 N 3077.4 1.01917 1.20211 0
M  V30 29722 C 3078.64 0.718564 1.91353 0
M  V30 29723 C 3079.01 -0.738435 1.77232 0
M  V30 29724 O 3080.21 -1.15167 2.42878 0
M  V30 29725 C 3078.48 1.14535 3.3855 0
M  V30 29726 S 3080.04 0.967112 4.2801 0
M  V30 29727 H 3076.86 0.26189 0.66101 0
M  V30 29728 H 3079.46 1.30697 1.45391 0
M  V30 29729 H 3078.16 2.20159 3.4635 0
M  V30 29730 H 3077.69 0.549835 3.89539 0
M  V30 29731 H 3079.71 -0.127887 4.96035 0
M  V30 29732 N 3078.88 -1.36036 0.795742 0
M  V30 29733 C 3080.29 -1.816 0.433411 0
M  V30 29734 C 3080.64 -1.66156 -1.04338 0
M  V30 29735 O 3079.77 -1.18606 -1.81001 0
M  V30 29736 C 3080.36 -3.29701 0.779908 0
M  V30 29737 C 3078.92 -3.7345 0.470322 0
M  V30 29738 C 3078.07 -2.58204 1.01123 0
M  V30 29739 H 3081.02 -1.24167 0.988339 0
M  V30 29740 H 3081.04 -3.80429 0.0733566 0
M  V30 29741 H 3080.55 -3.40909 1.85479 0
M  V30 29742 H 3078.66 -3.67798 -0.596267 0
M  V30 29743 H 3078.77 -4.68646 0.995358 0
M  V30 29744 H 3077.13 -2.50973 0.434121 0
M  V30 29745 H 3077.92 -2.72195 2.09201 0
M  V30 29746 N 3080.36 -0.5483 -1.47755 0
M  V30 29747 C 3081.77 -0.11258 -1.8636 0
M  V30 29748 C 3082.12 1.3152 -1.45591 0
M  V30 29749 O 3081.25 1.98797 -0.854909 0
M  V30 29750 C 3081.84 -0.197532 -3.38224 0
M  V30 29751 C 3080.4 0.183097 -3.75954 0
M  V30 29752 C 3079.55 -0.549107 -2.71809 0
M  V30 29753 H 3082.5 -0.758531 -1.39399 0
M  V30 29754 H 3082.52 0.586151 -3.75958 0
M  V30 29755 H 3082.03 -1.2368 -3.67865 0
M  V30 29756 H 3080.13 1.22381 -3.51928 0
M  V30 29757 H 3080.25 -0.169262 -4.78801 0
M  V30 29758 H 3078.61 0.00678385 -2.54699 0
M  V30 29759 H 3079.39 -1.58936 -3.04293 0
M  V30 29760 N 3081.84 1.55014 -0.28431 0
M  V30 29761 C 3083.09 1.99401 0.329177 0
M  V30 29762 C 3083.41 1.17419 1.55685 0
M  V30 29763 O 3082.68 0.265971 1.94086 0
M  V30 29764 H 3081.26 0.736532 0.124617 0
M  V30 29765 H 3083.92 1.90922 -0.391776 0
M  V30 29766 H 3083.02 3.06026 0.612726 0
M  V30 29767 N 3083.32 0.0117398 1.57596 0
M  V30 29768 C 3084.56 -0.670634 1.91073 0
M  V30 29769 C 3084.89 -1.73123 0.886487 0
M  V30 29770 O 3084.15 -1.95407 -0.107101 0
M  V30 29771 C 3084.45 -1.34076 3.31298 0
M  V30 29772 C 3084.11 -0.412226 4.49012 0
M  V30 29773 C 3082.77 -0.156607 4.80945 0
M  V30 29774 C 3085.13 0.226386 5.20708 0
M  V30 29775 C 3082.45 0.745722 5.81941 0
M  V30 29776 C 3084.81 1.11666 6.22666 0
M  V30 29777 C 3083.47 1.38134 6.53051 0
M  V30 29778 H 3082.74 -0.245402 0.699184 0
M  V30 29779 H 3085.39 0.0697847 1.91373 0
M  V30 29780 H 3083.69 -2.15551 3.27177 0
M  V30 29781 H 3085.39 -1.87499 3.54464 0
M  V30 29782 H 3081.98 -0.62163 4.24068 0
M  V30 29783 H 3086.16 0.0419328 4.96282 0
M  V30 29784 H 3081.42 0.958672 6.03837 0
M  V30 29785 H 3085.59 1.61779 6.77348 0
M  V30 29786 H 3083.22 2.08221 7.31128 0
M  V30 29787 N 3084.79 -1.55421 -0.261185 0
M  V30 29788 C 3086.04 -1.76844 -0.992667 0
M  V30 29789 C 3086.37 -0.57446 -1.85509 0
M  V30 29790 O 3085.65 0.427679 -1.8974 0
M  V30 29791 C 3085.93 -3.08026 -1.86527 0
M  V30 29792 C 3085.78 -4.37801 -1.03199 0
M  V30 29793 C 3087.1 -3.35329 -2.8503 0
M  V30 29794 H 3084.22 -0.643394 -0.359461 0
M  V30 29795 H 3086.86 -1.88154 -0.264181 0
M  V30 29796 H 3085.01 -2.98515 -2.48639 0
M  V30 29797 H 3086.69 -4.59285 -0.430662 0
M  V30 29798 H 3084.93 -4.32498 -0.335835 0
M  V30 29799 H 3085.6 -5.25941 -1.67601 0
M  V30 29800 H 3088.08 -3.4471 -2.33053 0
M  V30 29801 H 3086.95 -4.2836 -3.43218 0
M  V30 29802 H 3087.21 -2.55543 -3.60763 0
M  V30 29803 N 3086.27 0.526227 -1.48555 0
M  V30 29804 C 3087.2 1.63956 -1.66255 0
M  V30 29805 C 3088.18 1.62231 -0.51138 0
M  V30 29806 O 3089.37 1.79368 -0.744354 0
M  V30 29807 C 3086.5 3.02533 -1.70561 0
M  V30 29808 C 3085.45 3.19118 -2.85215 0
M  V30 29809 C 3084.78 4.58793 -2.74614 0
M  V30 29810 C 3086.08 3.01532 -4.26469 0
M  V30 29811 H 3087.77 1.49399 -2.59462 0
M  V30 29812 H 3085.32 0.717304 -1.24863 0
M  V30 29813 H 3087.27 3.80295 -1.81531 0
M  V30 29814 H 3086 3.18121 -0.739353 0
M  V30 29815 H 3084.65 2.43774 -2.73806 0
M  V30 29816 H 3084.3 4.71223 -1.7595 0
M  V30 29817 H 3084 4.70834 -3.51552 0
M  V30 29818 H 3085.53 5.38649 -2.87557 0
M  V30 29819 H 3086.94 3.69084 -4.38691 0
M  V30 29820 H 3085.34 3.25064 -5.04434 0
M  V30 29821 H 3086.41 1.97917 -4.4267 0
M  V30 29822 N 3087.75 1.37206 0.775387 0
M  V30 29823 C 3088.98 1.3557 1.56957 0
M  V30 29824 C 3089.4 -0.0575224 1.88012 0
M  V30 29825 O 3088.76 -1.03353 1.48956 0
M  V30 29826 C 3088.81 2.19781 2.85882 0
M  V30 29827 O 3087.91 1.59994 3.801 0
M  V30 29828 H 3087.25 0.463383 0.475575 0
M  V30 29829 H 3089.78 1.80681 0.959978 0
M  V30 29830 H 3089.79 2.32865 3.3502 0
M  V30 29831 H 3088.47 3.22506 2.62607 0
M  V30 29832 H 3087.04 1.5593 3.38733 0
M  V30 29833 N 3089.23 -1.00115 1.21716 0
M  V30 29834 C 3090.51 -1.71234 0.945421 0
M  V30 29835 C 3090.89 -2.0403 -0.541736 0
M  V30 29836 O 3090.23 -1.71708 -1.5076 0
M  V30 29837 C 3090.44 -2.96896 1.83449 0
M  V30 29838 C 3091.79 -3.69846 2.08565 0
M  V30 29839 O 3092.82 -3.06886 1.8083 0
M  V30 29840 O 3091.67 -4.831 2.55494 0
M  V30 29841 H 3088.77 -0.747003 0.354847 0
M  V30 29842 H 3091.31 -1.05823 1.32663 0
M  V30 29843 H 3090.09 -2.691 2.84079 0
M  V30 29844 H 3089.71 -3.70047 1.45434 0
M  V30 29845 N 3090.71 -1.02553 -1.19669 0
M  V30 29846 C 3091.66 -0.596906 -2.24811 0
M  V30 29847 C 3092.65 0.368809 -1.65336 0
M  V30 29848 O 3093.86 0.237754 -1.78423 0
M  V30 29849 H 3090.23 -0.174752 -0.731413 0
M  V30 29850 H 3092.2 -1.4944 -2.58283 0
M  V30 29851 C 3090.95 0.0398902 -3.47677 0
M  V30 29852 H 3090.27 -0.694223 -3.93727 0
M  V30 29853 H 3091.71 0.302787 -4.22917 0
M  V30 29854 C 3090.17 1.28544 -3.11413 0
M  V30 29855 O 3090.7 2.37785 -3.23761 0
M  V30 29856 N 3088.91 1.17293 -2.65877 0
M  V30 29857 H 3088.46 0.284 -2.5603 0
M  V30 29858 H 3088.41 2.00726 -2.41984 0
M  V30 29859 N 3092.19 1.35612 -0.802945 0
M  V30 29860 C 3093.43 1.98479 -0.380857 0
M  V30 29861 C 3093.75 1.64021 1.05461 0
M  V30 29862 O 3093.02 0.920884 1.72906 0
M  V30 29863 H 3091.6 0.734173 -0.137836 0
M  V30 29864 H 3094.27 1.65586 -1.02798 0
M  V30 29865 H 3093.36 3.0833 -0.483619 0
M  V30 29866 N 3093.66 0.556128 1.47462 0
M  V30 29867 C 3095.08 0.215818 1.58134 0
M  V30 29868 C 3095.28 -1.28163 1.55488 0
M  V30 29869 O 3094.34 -2.06172 1.45772 0
M  V30 29870 C 3095.65 0.841515 2.88685 0
M  V30 29871 C 3097.2 0.812644 3.02267 0
M  V30 29872 C 3097.67 1.41739 4.35516 0
M  V30 29873 N 3099.16 1.38053 4.42149 0
M  V30 29874 C 3099.9 1.81809 5.43814 0
M  V30 29875 N 3099.39 2.33416 6.52295 0
M  V30 29876 N 3101.19 1.72886 5.34852 0
M  V30 29877 H 3093.34 1.52904 1.47425 0
M  V30 29878 H 3095.6 0.637571 0.701575 0
M  V30 29879 H 3095.31 1.89386 2.96354 0
M  V30 29880 H 3095.18 0.333912 3.75719 0
M  V30 29881 H 3097.57 -0.231004 2.94194 0
M  V30 29882 H 3097.65 1.35799 2.16777 0
M  V30 29883 H 3097.29 2.4601 4.44344 0
M  V30 29884 H 3097.22 0.847493 5.19736 0
M  V30 29885 H 3099.71 1.00302 3.64346 0
M  V30 29886 H 3100.03 2.6473 7.26043 0
M  V30 29887 H 3098.37 2.37426 6.53188 0
M  V30 29888 H 3101.56 1.32346 4.49001 0
M  V30 29889 H 3101.74 2.07305 6.13945 0
M  V30 29890 N 3095.14 -1.54861 0.292527 0
M  V30 29891 C 3096.56 -1.59483 -0.061118 0
M  V30 29892 C 3096.76 -1.30961 -1.53139 0
M  V30 29893 O 3095.81 -1.07891 -2.28289 0
M  V30 29894 C 3097.13 -2.98893 0.329195 0
M  V30 29895 C 3098.67 -3.1177 0.277255 0
M  V30 29896 C 3099.15 -4.53474 0.642264 0
M  V30 29897 N 3100.64 -4.59369 0.594476 0
M  V30 29898 C 3101.38 -5.67073 0.849485 0
M  V30 29899 N 3100.87 -6.82849 1.17002 0
M  V30 29900 N 3102.66 -5.56702 0.777114 0
M  V30 29901 H 3094.82 -1.71663 1.25082 0
M  V30 29902 H 3097.08 -0.801331 0.50653 0
M  V30 29903 H 3096.78 -3.24659 1.35238 0
M  V30 29904 H 3096.66 -3.75828 -0.321376 0
M  V30 29905 H 3099.05 -2.85757 -0.736675 0
M  V30 29906 H 3099.13 -2.37008 0.96233 0
M  V30 29907 H 3098.77 -4.80215 1.65396 0
M  V30 29908 H 3098.7 -5.2656 -0.0647906 0
M  V30 29909 H 3101.19 -3.76207 0.357322 0
M  V30 29910 H 3101.5 -7.60903 1.3508 0
M  V30 29911 H 3099.85 -6.84422 1.20797 0
M  V30 29912 H 3103.04 -4.65131 0.526415 0
M  V30 29913 H 3103.21 -6.40558 0.979225 0
M  V30 29914 N 3096.62 -0.0200973 -1.57587 0
M  V30 29915 C 3097.86 0.664756 -1.93288 0
M  V30 29916 C 3098.22 1.69808 -0.896052 0
M  V30 29917 O 3099.42 2.43477 -1.13896 0
M  V30 29918 C 3097.7 1.27322 -3.33952 0
M  V30 29919 S 3099.25 1.98041 -3.91568 0
M  V30 29920 H 3096.07 0.219094 -0.676401 0
M  V30 29921 H 3098.67 -0.0816023 -1.9533 0
M  V30 29922 H 3097.38 0.508601 -4.07236 0
M  V30 29923 H 3096.91 2.05708 -3.35332 0
M  V30 29924 H 3098.92 3.25785 -3.74271 0
M  V30 29925 N 3098.1 1.55557 0.252939 0
M  V30 29926 C 3099.34 1.77106 0.98182 0
M  V30 29927 C 3099.67 0.583338 1.85546 0
M  V30 29928 O 3098.93 -0.433557 1.90837 0
M  V30 29929 C 3099.23 3.04095 1.8778 0
M  V30 29930 C 3098.89 4.35723 1.16001 0
M  V30 29931 C 3097.55 4.71494 0.961614 0
M  V30 29932 C 3099.91 5.17121 0.650794 0
M  V30 29933 C 3097.23 5.86202 0.241601 0
M  V30 29934 C 3099.59 6.32575 -0.0557236 0
M  V30 29935 C 3098.25 6.66971 -0.265653 0
M  V30 29936 H 3097.52 0.648077 0.359274 0
M  V30 29937 H 3100.17 1.89829 0.25241 0
M  V30 29938 H 3098.47 2.86357 2.67407 0
M  V30 29939 H 3100.17 3.17966 2.44334 0
M  V30 29940 H 3096.76 4.07619 1.32458 0
M  V30 29941 H 3100.94 4.89946 0.791633 0
M  V30 29942 H 3096.2 6.11362 0.0684217 0
M  V30 29943 H 3100.37 6.94893 -0.457962 0
M  V30 29944 H 3098 7.55704 -0.825533 0
M  V30 29945 N 3099.58 -0.518341 1.48832 0
M  V30 29946 C 3100.85 -1.27963 1.47935 0
M  V30 29947 C 3101.23 -2.10175 0.19743 0
M  V30 29948 O 3100.58 -2.13256 -0.820619 0
M  V30 29949 C 3100.79 -2.15116 2.7482 0
M  V30 29950 C 3102.14 -2.74875 3.23618 0
M  V30 29951 O 3103.16 -2.25395 2.75818 0
M  V30 29952 O 3102.02 -3.64906 4.06824 0
M  V30 29953 H 3099.12 -0.578154 0.591327 0
M  V30 29954 H 3101.66 -0.534037 1.61078 0
M  V30 29955 H 3100.43 -1.54228 3.59624 0
M  V30 29956 H 3100.06 -2.96901 2.64454 0
M  V30 29957 N 3101.05 -1.37615 -0.7681 0
M  V30 29958 C 3102.28 -1.36227 -1.55723 0
M  V30 29959 C 3102.7 0.0515025 -1.8873 0
M  V30 29960 O 3102.05 1.01427 -1.5172 0
M  V30 29961 C 3102.1 -2.20417 -2.86529 0
M  V30 29962 O 3101.83 -3.56285 -2.54936 0
M  V30 29963 C 3103.33 -2.27048 -3.80741 0
M  V30 29964 H 3100.55 -0.466489 -0.482317 0
M  V30 29965 H 3103.09 -1.81004 -0.951729 0
M  V30 29966 H 3101.25 -1.7914 -3.43493 0
M  V30 29967 H 3101.66 -4.00457 -3.38725 0
M  V30 29968 H 3103.13 -2.90271 -4.69518 0
M  V30 29969 H 3103.61 -1.27995 -4.20136 0
M  V30 29970 H 3104.22 -2.68653 -3.29705 0
M  V30 29971 N 3102.53 0.994677 -1.22245 0
M  V30 29972 C 3103.95 1.25811 -0.982028 0
M  V30 29973 C 3104.15 1.98854 0.325453 0
M  V30 29974 O 3103.2 2.297 1.04853 0
M  V30 29975 C 3104.52 2.07164 -2.17954 0
M  V30 29976 C 3106.06 2.20354 -2.22291 0
M  V30 29977 C 3106.54 3.05092 -3.41588 0
M  V30 29978 N 3108.03 3.1268 -3.41739 0
M  V30 29979 C 3108.77 3.78532 -4.30699 0
M  V30 29980 N 3108.26 4.46326 -5.29873 0
M  V30 29981 N 3110.05 3.75275 -4.18479 0
M  V30 29982 H 3102.21 0.504926 -2.06311 0
M  V30 29983 H 3104.47 0.285602 -0.903955 0
M  V30 29984 H 3104.17 1.60853 -3.12761 0
M  V30 29985 H 3104.05 3.07918 -2.17867 0
M  V30 29986 H 3106.44 2.65879 -1.28032 0
M  V30 29987 H 3106.52 1.19035 -2.26416 0
M  V30 29988 H 3106.16 2.60268 -4.36146 0
M  V30 29989 H 3106.09 4.06549 -3.34702 0
M  V30 29990 H 3108.58 2.64429 -2.69974 0
M  V30 29991 H 3108.89 4.94309 -5.94035 0
M  V30 29992 H 3107.24 4.4508 -5.33787 0
M  V30 29993 H 3110.43 3.21472 -3.40255 0
M  V30 29994 H 3110.6 4.26317 -4.88014 0
M  V30 29995 N 3104.01 1.03186 1.19123 0
M  V30 29996 C 3104.94 0.573333 2.21913 0
M  V30 29997 C 3105.95 -0.352369 1.58941 0
M  V30 29998 O 3107.14 -0.148287 1.77883 0
M  V30 29999 C 3104.24 -0.183491 3.38403 0
M  V30 30000 C 3103.42 0.747893 4.30959 0
M  V30 30001 C 3102.48 0.0359414 5.26188 0
M  V30 30002 O 3101.5 0.663487 5.6532 0
M  V30 30003 N 3102.7 -1.23377 5.67237 0
M  V30 30004 H 3105.47 1.45739 2.61878 0
M  V30 30005 H 3103.03 0.911255 1.3382 0
M  V30 30006 H 3105.02 -0.669398 3.99125 0
M  V30 30007 H 3103.59 -0.96899 2.97203 0
M  V30 30008 H 3102.81 1.41383 3.67973 0
M  V30 30009 H 3104.1 1.3808 4.89705 0
M  V30 30010 H 3103.5 -1.7643 5.37484 0
M  V30 30011 H 3102.05 -1.66412 6.30199 0
M  V30 30012 N 3105.49 -1.35184 0.810125 0
M  V30 30013 C 3106.71 -2.03434 0.403676 0
M  V30 30014 C 3107.14 -1.60643 -0.978541 0
M  V30 30015 O 3106.5 -0.784808 -1.63433 0
M  V30 30016 C 3106.54 -3.57128 0.499217 0
M  V30 30017 O 3105.65 -4.09527 -0.485967 0
M  V30 30018 H 3104.99 -0.64238 0.168061 0
M  V30 30019 H 3107.52 -1.72706 1.09699 0
M  V30 30020 H 3107.53 -4.06316 0.370308 0
M  V30 30021 H 3106.2 -3.87621 1.5074 0
M  V30 30022 H 3104.78 -3.7155 -0.317004 0
M  V30 30023 N 3106.97 -0.56394 -1.47165 0
M  V30 30024 C 3108.21 -0.0424066 -2.02456 0
M  V30 30025 C 3108.54 1.31013 -1.43756 0
M  V30 30026 O 3107.8 1.86742 -0.58532 0
M  V30 30027 C 3108.1 0.0931169 -3.57279 0
M  V30 30028 C 3107.76 -1.1894 -4.3493 0
M  V30 30029 C 3106.42 -1.54081 -4.55864 0
M  V30 30030 C 3108.78 -2.03897 -4.79662 0
M  V30 30031 C 3106.1 -2.74014 -5.18781 0
M  V30 30032 C 3108.46 -3.23039 -5.43902 0
M  V30 30033 C 3107.12 -3.58485 -5.63067 0
M  V30 30034 H 3106.39 -0.0155177 -0.740838 0
M  V30 30035 H 3109.04 -0.736807 -1.76758 0
M  V30 30036 H 3107.34 0.870529 -3.82007 0
M  V30 30037 H 3109.04 0.512106 -3.97717 0
M  V30 30038 H 3105.63 -0.905792 -4.18919 0
M  V30 30039 H 3109.81 -1.78054 -4.63261 0
M  V30 30040 H 3105.07 -3.01637 -5.31813 0
M  V30 30041 H 3109.24 -3.89151 -5.77524 0
M  V30 30042 H 3106.87 -4.51511 -6.1159 0
M  V30 30043 N 3108.44 1.54704 -0.300735 0
M  V30 30044 C 3109.68 2.02043 0.309494 0
M  V30 30045 C 3110.05 1.18444 1.51112 0
M  V30 30046 O 3111.25 1.5548 2.1927 0
M  V30 30047 C 3109.52 3.51301 0.657427 0
M  V30 30048 S 3111.08 4.20603 1.25056 0
M  V30 30049 H 3107.9 0.704626 0.0949896 0
M  V30 30050 H 3110.5 1.90745 -0.428545 0
M  V30 30051 H 3109.2 4.09779 -0.225604 0
M  V30 30052 H 3108.73 3.66635 1.42626 0
M  V30 30053 H 3110.75 4.26358 2.53837 0
M  V30 30054 N 3109.92 0.0284543 1.57574 0
M  V30 30055 C 3111.17 -0.65033 1.91773 0
M  V30 30056 C 3111.5 -1.72173 0.904799 0
M  V30 30057 O 3110.75 -1.95509 -0.0863695 0
M  V30 30058 C 3111.05 -1.30555 3.32701 0
M  V30 30059 C 3110.72 -0.364579 4.49424 0
M  V30 30060 C 3109.38 -0.105587 4.81084 0
M  V30 30061 C 3111.73 0.281601 5.20439 0
M  V30 30062 C 3109.06 0.807402 5.81118 0
M  V30 30063 C 3111.41 1.18264 6.21447 0
M  V30 30064 C 3110.08 1.45053 6.51549 0
M  V30 30065 H 3109.35 -0.237973 0.701748 0
M  V30 30066 H 3111.99 0.0900785 1.91288 0
M  V30 30067 H 3110.3 -2.12069 3.29445 0
M  V30 30068 H 3111.99 -1.83729 3.56433 0
M  V30 30069 H 3108.58 -0.576617 4.24704 0
M  V30 30070 H 3112.77 0.0945678 4.9621 0
M  V30 30071 H 3108.02 1.02266 6.02787 0
M  V30 30072 H 3112.2 1.68954 6.75594 0
M  V30 30073 H 3109.83 2.15964 7.28878 0
M  V30 30074 N 3111.4 -1.55689 -0.244686 0
M  V30 30075 C 3112.63 -1.81682 -0.989912 0
M  V30 30076 C 3113.04 -0.60448 -1.78862 0
M  V30 30077 O 3112.4 0.426876 -1.77437 0
M  V30 30078 C 3112.45 -3.0592 -1.92602 0
M  V30 30079 O 3112.17 -4.22474 -1.15963 0
M  V30 30080 C 3113.67 -3.44729 -2.78705 0
M  V30 30081 H 3110.89 -0.604524 -0.29119 0
M  V30 30082 H 3113.44 -2.02751 -0.266902 0
M  V30 30083 H 3111.59 -2.86894 -2.60328 0
M  V30 30084 H 3112.01 -4.92901 -1.79302 0
M  V30 30085 H 3113.48 -4.34757 -3.40133 0
M  V30 30086 H 3113.96 -2.65416 -3.4993 0
M  V30 30087 H 3114.56 -3.66113 -2.16428 0
M  V30 30088 N 3112.88 0.510441 -1.49105 0
M  V30 30089 C 3113.83 1.63389 -1.6555 0
M  V30 30090 C 3114.82 1.61171 -0.52155 0
M  V30 30091 O 3116.03 1.65793 -0.700894 0
M  V30 30092 H 3112.4 0.541455 -0.521853 0
M  V30 30093 H 3114.37 1.46669 -2.59867 0
M  V30 30094 C 3113.12 3.01574 -1.73056 0
M  V30 30095 H 3112.44 3.03983 -2.59682 0
M  V30 30096 H 3113.88 3.79744 -1.886 0
M  V30 30097 C 3112.34 3.33558 -0.473339 0
M  V30 30098 O 3112.87 3.99651 0.405169 0
M  V30 30099 N 3111.08 2.88614 -0.339125 0
M  V30 30100 H 3110.63 2.35005 -1.05501 0
M  V30 30101 H 3110.58 3.10382 0.501006 0
M  V30 30102 N 3114.36 1.38021 0.760791 0
M  V30 30103 C 3115.6 1.33833 1.5197 0
M  V30 30104 C 3115.93 -0.0738513 1.9436 0
M  V30 30105 O 3115.19 -1.04943 1.65183 0
M  V30 30106 C 3115.49 2.23344 2.7902 0
M  V30 30107 C 3115.15 3.71436 2.55629 0
M  V30 30108 C 3113.81 4.11792 2.48959 0
M  V30 30109 C 3116.17 4.65209 2.3501 0
M  V30 30110 C 3113.49 5.44022 2.19674 0
M  V30 30111 C 3115.85 5.97688 2.07248 0
M  V30 30112 C 3114.51 6.37137 1.99029 0
M  V30 30113 H 3113.78 0.489729 0.556099 0
M  V30 30114 H 3116.43 1.70319 0.87542 0
M  V30 30115 H 3114.73 1.79889 3.48062 0
M  V30 30116 H 3116.43 2.17411 3.36947 0
M  V30 30117 H 3113.02 3.39436 2.61689 0
M  V30 30118 H 3117.2 4.34882 2.39147 0
M  V30 30119 H 3112.46 5.73537 2.11814 0
M  V30 30120 H 3116.63 6.69896 1.90295 0
M  V30 30121 H 3114.26 7.39522 1.76102 0
M  V30 30122 N 3115.83 -0.98818 1.22771 0
M  V30 30123 C 3116.74 -2.11339 1.01848 0
M  V30 30124 C 3117.76 -1.73965 -0.0346631 0
M  V30 30125 O 3118.94 -2.00771 0.159096 0
M  V30 30126 C 3116 -3.414 0.603897 0
M  V30 30127 C 3115.06 -3.92846 1.7312 0
M  V30 30128 C 3114.3 -5.167 1.3363 0
M  V30 30129 O 3114.52 -5.69987 0.217141 0
M  V30 30130 O 3113.45 -5.62017 2.15453 0
M  V30 30131 H 3117.28 -2.31876 1.96131 0
M  V30 30132 H 3114.86 -1.09713 1.01407 0
M  V30 30133 H 3116.75 -4.19653 0.38327 0
M  V30 30134 H 3115.42 -3.22212 -0.310026 0
M  V30 30135 H 3114.33 -3.15745 2.00639 0
M  V30 30136 H 3115.66 -4.16475 2.62316 0
M  V30 30137 N 3117.31 -1.03816 -1.18575 0
M  V30 30138 C 3118.26 -0.620717 -2.24165 0
M  V30 30139 C 3119.25 0.351253 -1.65718 0
M  V30 30140 O 3120.46 0.218817 -1.78665 0
M  V30 30141 H 3116.84 -0.1825 -0.729519 0
M  V30 30142 H 3118.81 -1.52171 -2.56684 0
M  V30 30143 C 3117.56 0.00301219 -3.477 0
M  V30 30144 H 3116.88 -0.735944 -3.92968 0
M  V30 30145 H 3118.32 0.257914 -4.23215 0
M  V30 30146 C 3116.78 1.25234 -3.12759 0
M  V30 30147 O 3117.31 2.34338 -3.26265 0
M  V30 30148 N 3115.51 1.14466 -2.67106 0
M  V30 30149 H 3115.06 0.256828 -2.56317 0
M  V30 30150 H 3115.02 1.98148 -2.44099 0
M  V30 30151 N 3118.79 1.34753 -0.817283 0
M  V30 30152 C 3120.04 1.98064 -0.401887 0
M  V30 30153 C 3120.36 1.65131 1.03715 0
M  V30 30154 O 3119.63 0.939171 1.7192 0
M  V30 30155 H 3118.21 0.73267 -0.145616 0
M  V30 30156 H 3120.87 1.64486 -1.04548 0
M  V30 30157 H 3119.97 3.078 -0.516295 0
M  V30 30158 N 3120.27 0.571737 1.46864 0
M  V30 30159 C 3121.22 -0.167767 2.30189 0
M  V30 30160 C 3122.19 -0.894585 1.39951 0
M  V30 30161 O 3123.37 -0.887421 1.68907 0
M  V30 30162 C 3120.51 -1.18254 3.24207 0
M  V30 30163 C 3119.62 -0.4603 4.29541 0
M  V30 30164 C 3118.76 -1.46164 5.10695 0
M  V30 30165 C 3117.8 -0.725184 6.07789 0
M  V30 30166 N 3116.94 -1.67405 6.8185 0
M  V30 30167 H 3121.78 0.548882 2.92901 0
M  V30 30168 H 3119.31 0.282499 1.44362 0
M  V30 30169 H 3121.27 -1.78364 3.7715 0
M  V30 30170 H 3119.9 -1.86704 2.63327 0
M  V30 30171 H 3118.95 0.255612 3.7954 0
M  V30 30172 H 3120.26 0.115942 4.98665 0
M  V30 30173 H 3119.42 -2.13585 5.67861 0
M  V30 30174 H 3118.16 -2.07181 4.41506 0
M  V30 30175 H 3117.16 -0.0371314 5.49787 0
M  V30 30176 H 3118.39 -0.120559 6.78993 0
M  V30 30177 H 3116.33 -2.27252 6.1538 0
M  V30 30178 H 3116.25 -1.15033 7.47197 0
M  V30 30179 H 3117.52 -2.33895 7.43581 0
M  V30 30180 N 3121.75 -1.54542 0.308935 0
M  V30 30181 C 3122.99 -2.02205 -0.298775 0
M  V30 30182 C 3123.35 -1.19244 -1.50482 0
M  V30 30183 O 3124.55 -1.56641 -2.18442 0
M  V30 30184 C 3122.82 -3.51645 -0.638787 0
M  V30 30185 S 3124.38 -4.2126 -1.22823 0
M  V30 30186 H 3121.2 -0.70512 -0.0912514 0
M  V30 30187 H 3123.8 -1.90515 0.438655 0
M  V30 30188 H 3122.51 -4.09654 0.247332 0
M  V30 30189 H 3122.04 -3.67386 -1.4068 0
M  V30 30190 H 3124.05 -4.27698 -2.51572 0
M  V30 30191 N 3123.23 -0.0368104 -1.57557 0
M  V30 30192 C 3124.45 0.653673 -1.9683 0
M  V30 30193 C 3124.88 1.64424 -0.913588 0
M  V30 30194 O 3124.23 1.80871 0.124717 0
M  V30 30195 C 3124.28 1.32964 -3.35191 0
M  V30 30196 O 3123.39 2.44507 -3.32099 0
M  V30 30197 H 3122.73 0.171113 -0.641573 0
M  V30 30198 H 3125.26 -0.100947 -2.04351 0
M  V30 30199 H 3125.27 1.68465 -3.71596 0
M  V30 30200 H 3123.94 0.603582 -4.11497 0
M  V30 30201 H 3122.52 2.1106 -3.07422 0
M  V30 30202 N 3124.7 1.55817 0.236426 0
M  V30 30203 C 3125.95 1.78401 0.964407 0
M  V30 30204 C 3126.28 0.6039 1.84572 0
M  V30 30205 O 3125.56 -0.397439 1.90396 0
M  V30 30206 C 3125.84 3.10954 1.81603 0
M  V30 30207 C 3125.69 4.39388 0.962206 0
M  V30 30208 C 3127.01 3.39822 2.79659 0
M  V30 30209 H 3124.13 0.649032 0.34918 0
M  V30 30210 H 3126.77 1.88551 0.234214 0
M  V30 30211 H 3124.92 3.02432 2.43858 0
M  V30 30212 H 3126.6 4.59912 0.357539 0
M  V30 30213 H 3124.84 4.32978 0.266986 0
M  V30 30214 H 3125.51 5.28541 1.59212 0
M  V30 30215 H 3127.99 3.48374 2.2754 0
M  V30 30216 H 3126.86 4.33766 3.3636 0
M  V30 30217 H 3127.12 2.6125 3.56652 0
M  V30 30218 N 3126.18 -0.502526 1.49373 0
M  V30 30219 C 3127.59 -1.08408 1.52002 0
M  V30 30220 C 3127.94 -1.93809 0.305351 0
M  V30 30221 O 3127.07 -2.08343 -0.584986 0
M  V30 30222 C 3127.66 -1.97276 2.75441 0
M  V30 30223 C 3126.22 -2.50597 2.80853 0
M  V30 30224 C 3125.37 -1.28181 2.45896 0
M  V30 30225 H 3128.32 -0.286506 1.56092 0
M  V30 30226 H 3128.34 -2.81943 2.55516 0
M  V30 30227 H 3127.85 -1.35092 3.63829 0
M  V30 30228 H 3125.95 -3.16424 1.9674 0
M  V30 30229 H 3126.07 -2.87854 3.82985 0
M  V30 30230 H 3124.43 -1.60654 1.97642 0
M  V30 30231 H 3125.21 -0.67708 3.36557 0
M  V30 30232 N 3127.66 -1.38422 -0.75346 0
M  V30 30233 C 3128.61 -1.35662 -1.8672 0
M  V30 30234 C 3129.58 -0.21915 -1.64648 0
M  V30 30235 O 3130.76 -0.411398 -1.86312 0
M  V30 30236 C 3127.9 -1.18763 -3.24021 0
M  V30 30237 C 3127.01 -2.41898 -3.57924 0
M  V30 30238 C 3126.15 -2.17729 -4.84528 0
M  V30 30239 C 3125.19 -3.36635 -5.11218 0
M  V30 30240 N 3124.33 -3.119 -6.29017 0
M  V30 30241 H 3129.17 -2.30876 -1.88415 0
M  V30 30242 H 3126.7 -1.14707 -0.920913 0
M  V30 30243 H 3128.66 -1.06982 -4.0325 0
M  V30 30244 H 3127.29 -0.271876 -3.21653 0
M  V30 30245 H 3126.34 -2.64352 -2.73537 0
M  V30 30246 H 3127.65 -3.3052 -3.73575 0
M  V30 30247 H 3126.81 -2.03084 -5.71701 0
M  V30 30248 H 3125.55 -1.26473 -4.71016 0
M  V30 30249 H 3124.55 -3.51799 -4.22514 0
M  V30 30250 H 3125.78 -4.28766 -5.26627 0
M  V30 30251 H 3123.72 -2.23291 -6.16828 0
M  V30 30252 H 3123.64 -3.94071 -6.4517 0
M  V30 30253 H 3124.91 -3.00911 -7.19078 0
M  V30 30254 N 3129.14 0.981655 -1.23294 0
M  V30 30255 C 3130.1 2.0554 -1.0142 0
M  V30 30256 C 3131.1 1.60783 0.0235071 0
M  V30 30257 O 3132.29 1.72854 -0.216113 0
M  V30 30258 C 3129.42 3.36687 -0.534299 0
M  V30 30259 H 3130.62 2.26378 -1.96706 0
M  V30 30260 H 3128.17 1.15488 -1.0532 0
M  V30 30261 H 3128.9 3.21537 0.422395 0
M  V30 30262 H 3128.69 3.70512 -1.28311 0
M  V30 30263 H 3130.18 4.15662 -0.401863 0
M  V30 30264 N 3130.62 1.04444 1.18022 0
M  V30 30265 C 3131.86 0.750055 1.88097 0
M  V30 30266 C 3132.19 -0.722457 1.80585 0
M  V30 30267 O 3131.45 -1.54333 1.20332 0
M  V30 30268 C 3131.74 1.16637 3.37832 0
M  V30 30269 C 3131.41 2.6398 3.65548 0
M  V30 30270 C 3130.07 3.04232 3.72822 0
M  V30 30271 C 3132.42 3.59231 3.77628 0
M  V30 30272 C 3129.75 4.38615 3.89658 0
M  V30 30273 C 3132.1 4.93337 3.95981 0
M  V30 30274 C 3130.77 5.33255 4.01492 0
M  V30 30275 H 3130.04 0.274465 0.688295 0
M  V30 30276 H 3132.69 1.31015 1.39669 0
M  V30 30277 H 3130.99 0.525139 3.88265 0
M  V30 30278 H 3132.69 0.915896 3.904 0
M  V30 30279 H 3129.28 2.31805 3.60506 0
M  V30 30280 H 3133.46 3.29276 3.71336 0
M  V30 30281 H 3128.72 4.69055 3.9217 0
M  V30 30282 H 3132.89 5.67044 4.0427 0
M  V30 30283 H 3130.52 6.37391 4.1429 0
M  V30 30284 N 3132.09 -1.34317 0.824418 0
M  V30 30285 C 3133.04 -2.31403 0.235668 0
M  V30 30286 C 3134.04 -1.57472 -0.624415 0
M  V30 30287 O 3135.24 -1.72458 -0.515588 0
M  V30 30288 H 3131.62 -0.749801 0.0574669 0
M  V30 30289 H 3133.59 -2.78583 1.0693 0
M  V30 30290 C 3132.34 -3.42717 -0.586557 0
M  V30 30291 H 3131.66 -3.99746 0.0659371 0
M  V30 30292 H 3133.1 -4.12882 -0.964588 0
M  V30 30293 C 3131.56 -2.87302 -1.75952 0
M  V30 30294 O 3132.09 -2.82304 -2.85775 0
M  V30 30295 N 3130.29 -2.44105 -1.57674 0
M  V30 30296 H 3129.84 -2.4837 -0.683392 0
M  V30 30297 H 3129.8 -2.07379 -2.36308 0
M  V30 30298 N 3133.57 -0.579517 -1.46558 0
M  V30 30299 C 3134.8 -0.0694011 -2.06784 0
M  V30 30300 C 3135.21 1.23417 -1.42877 0
M  V30 30301 O 3134.57 1.74545 -0.53295 0
M  V30 30302 C 3134.62 0.106448 -3.61343 0
M  V30 30303 O 3134.34 -1.14552 -4.22859 0
M  V30 30304 C 3135.84 0.651282 -4.3849 0
M  V30 30305 H 3133.06 -0.0559966 -0.668659 0
M  V30 30306 H 3135.61 -0.799278 -1.88233 0
M  V30 30307 H 3133.76 0.786534 -3.79332 0
M  V30 30308 H 3134.18 -0.957321 -5.15689 0
M  V30 30309 H 3135.65 0.723518 -5.47238 0
M  V30 30310 H 3136.13 1.66755 -4.06312 0
M  V30 30311 H 3136.73 0.00616854 -4.253 0
M  V30 30312 N 3135.05 1.54376 -0.317127 0
M  V30 30313 C 3136.28 2.04864 0.289522 0
M  V30 30314 C 3136.69 1.19361 1.46282 0
M  V30 30315 O 3136.05 0.222827 1.81135 0
M  V30 30316 C 3136.1 3.54048 0.73021 0
M  V30 30317 O 3135.82 4.36303 -0.396402 0
M  V30 30318 C 3137.32 4.20601 1.40034 0
M  V30 30319 H 3134.54 0.66826 0.0605719 0
M  V30 30320 H 3137.09 1.99226 -0.461446 0
M  V30 30321 H 3135.24 3.59995 1.43117 0
M  V30 30322 H 3135.66 5.24476 -0.0503823 0
M  V30 30323 H 3137.13 5.26458 1.65969 0
M  V30 30324 H 3137.61 3.7132 2.34559 0
M  V30 30325 H 3138.21 4.18775 0.742132 0
M  V30 30326 N 3136.53 0.0451655 1.57535 0
M  V30 30327 C 3137.48 -0.931276 2.11177 0
M  V30 30328 C 3138.45 -1.31273 1.01768 0
M  V30 30329 O 3139.63 -1.40325 1.29281 0
M  V30 30330 C 3136.77 -2.20291 2.65643 0
M  V30 30331 C 3135.88 -1.87647 3.89118 0
M  V30 30332 C 3135.02 -3.09224 4.31919 0
M  V30 30333 C 3134.06 -2.72474 5.4811 0
M  V30 30334 N 3133.19 -3.86726 5.85993 0
M  V30 30335 H 3138.03 -0.466934 2.94319 0
M  V30 30336 H 3135.57 -0.21886 1.45463 0
M  V30 30337 H 3137.53 -2.94692 2.95318 0
M  V30 30338 H 3136.16 -2.64312 1.85307 0
M  V30 30339 H 3135.21 -1.0342 3.66072 0
M  V30 30340 H 3136.52 -1.56592 4.73582 0
M  V30 30341 H 3135.68 -3.91931 4.63115 0
M  V30 30342 H 3134.42 -3.43453 3.46253 0
M  V30 30343 H 3133.42 -1.88183 5.16592 0
M  V30 30344 H 3134.65 -2.39444 6.35487 0
M  V30 30345 H 3132.59 -4.20766 5.03281 0
M  V30 30346 H 3132.51 -3.59349 6.65135 0
M  V30 30347 H 3133.78 -4.70089 6.21801 0
M  V30 30348 N 3138.01 -1.5594 -0.228159 0
M  V30 30349 C 3138.97 -1.91051 -1.26618 0
M  V30 30350 C 3139.97 -0.788516 -1.40139 0
M  V30 30351 O 3141.16 -1.05633 -1.38518 0
M  V30 30352 C 3138.29 -2.1555 -2.64104 0
M  V30 30353 H 3139.48 -2.83885 -0.966928 0
M  V30 30354 H 3137.04 -1.4912 -0.468287 0
M  V30 30355 H 3137.77 -1.25247 -2.99138 0
M  V30 30356 H 3137.56 -2.97282 -2.55668 0
M  V30 30357 H 3139.05 -2.43833 -3.39021 0
M  V30 30358 N 3139.48 0.494597 -1.49638 0
M  V30 30359 C 3140.43 1.59542 -1.66778 0
M  V30 30360 C 3141.4 1.58103 -0.509187 0
M  V30 30361 O 3142.59 1.75992 -0.73698 0
M  V30 30362 C 3139.73 2.97655 -1.7463 0
M  V30 30363 C 3138.84 3.09061 -3.01836 0
M  V30 30364 C 3137.97 4.37946 -3.00627 0
M  V30 30365 C 3137.01 4.43009 -4.22385 0
M  V30 30366 N 3136.15 5.63331 -4.19049 0
M  V30 30367 H 3140.99 1.44233 -2.6077 0
M  V30 30368 H 3138.53 0.70165 -1.29288 0
M  V30 30369 H 3140.49 3.77716 -1.77162 0
M  V30 30370 H 3139.12 3.11652 -0.840991 0
M  V30 30371 H 3138.17 2.22023 -3.08885 0
M  V30 30372 H 3139.48 3.08662 -3.91828 0
M  V30 30373 H 3138.63 5.26334 -3.01758 0
M  V30 30374 H 3137.37 4.4092 -2.08424 0
M  V30 30375 H 3136.38 3.53023 -4.21491 0
M  V30 30376 H 3137.6 4.41746 -5.15788 0
M  V30 30377 H 3135.55 5.67135 -3.29687 0
M  V30 30378 H 3135.47 5.64575 -5.02784 0
M  V30 30379 H 3136.73 6.53908 -4.24293 0
M  V30 30380 N 3140.96 1.3882 0.746109 0
M  V30 30381 C 3142.2 1.3686 1.51818 0
M  V30 30382 C 3142.57 -0.0391124 1.9196 0
M  V30 30383 O 3143.77 -0.183642 2.68172 0
M  V30 30384 C 3142.04 2.30415 2.7321 0
M  V30 30385 S 3143.6 2.46542 3.62991 0
M  V30 30386 H 3140.42 0.485491 0.519441 0
M  V30 30387 H 3143.02 1.74815 0.875214 0
M  V30 30388 H 3141.72 3.31574 2.41841 0
M  V30 30389 H 3141.25 1.93636 3.42445 0
M  V30 30390 H 3143.27 1.69506 4.6635 0
M  V30 30391 N 3142.44 -0.975103 1.23812 0
M  V30 30392 C 3143.68 -1.73213 1.0852 0
M  V30 30393 C 3144.04 -1.88387 -0.370743 0
M  V30 30394 O 3145.25 -2.60947 -0.64499 0
M  V30 30395 C 3143.52 -3.08965 1.79654 0
M  V30 30396 S 3145.08 -4.00182 1.8 0
M  V30 30397 H 3141.89 -0.595626 0.388267 0
M  V30 30398 H 3144.5 -1.16456 1.5703 0
M  V30 30399 H 3143.2 -2.95576 2.84715 0
M  V30 30400 H 3142.73 -3.7079 1.31447 0
M  V30 30401 H 3144.75 -4.88649 0.86238 0
M  V30 30402 N 3143.92 -1.05068 -1.17467 0
M  V30 30403 C 3145.16 -0.769045 -1.89381 0
M  V30 30404 C 3145.52 0.691185 -1.79127 0
M  V30 30405 O 3146.72 1.08687 -2.45847 0
M  V30 30406 C 3144.99 -1.23471 -3.35395 0
M  V30 30407 S 3146.55 -1.08025 -4.25295 0
M  V30 30408 H 3143.37 -0.279324 -0.653834 0
M  V30 30409 H 3145.97 -1.34506 -1.41875 0
M  V30 30410 H 3144.68 -2.29264 -3.40391 0
M  V30 30411 H 3144.21 -0.652921 -3.87944 0
M  V30 30412 H 3146.22 -0.00367295 -4.962 0
M  V30 30413 N 3145.4 1.33878 -0.831529 0
M  V30 30414 C 3146.62 2.02766 -0.435989 0
M  V30 30415 C 3147.05 1.62179 0.952861 0
M  V30 30416 O 3146.4 0.810709 1.62164 0
M  V30 30417 C 3146.45 3.56288 -0.55597 0
M  V30 30418 O 3145.56 4.10248 0.420754 0
M  V30 30419 H 3144.9 0.639625 -0.178259 0
M  V30 30420 H 3147.43 1.70939 -1.12433 0
M  V30 30421 H 3147.44 4.05675 -0.434902 0
M  V30 30422 H 3146.11 3.85174 -1.56887 0
M  V30 30423 H 3144.69 3.72007 0.257854 0
M  V30 30424 N 3146.87 0.587281 1.46249 0
M  V30 30425 C 3147.82 -0.143343 2.30354 0
M  V30 30426 C 3148.79 -0.879691 1.40892 0
M  V30 30427 O 3149.98 -0.869456 1.69838 0
M  V30 30428 C 3147.12 -1.14809 3.25443 0
M  V30 30429 C 3146.23 -0.414716 4.30005 0
M  V30 30430 C 3145.36 -1.40739 5.12217 0
M  V30 30431 C 3144.4 -0.660679 6.08524 0
M  V30 30432 N 3143.54 -1.60164 6.83588 0
M  V30 30433 H 3148.38 0.579917 2.92303 0
M  V30 30434 H 3145.92 0.297795 1.44054 0
M  V30 30435 H 3147.88 -1.74353 3.79021 0
M  V30 30436 H 3146.51 -1.83901 2.65293 0
M  V30 30437 H 3145.56 0.295853 3.79248 0
M  V30 30438 H 3146.87 0.168826 4.98514 0
M  V30 30439 H 3146.02 -2.0755 5.70095 0
M  V30 30440 H 3144.76 -2.02486 4.43679 0
M  V30 30441 H 3143.77 0.021183 5.49796 0
M  V30 30442 H 3144.99 -0.0485357 6.79083 0
M  V30 30443 H 3142.94 -2.20713 6.17756 0
M  V30 30444 H 3142.86 -1.07102 7.48375 0
M  V30 30445 H 3144.12 -2.25996 7.4602 0
M  V30 30446 N 3148.35 -1.54206 0.325309 0
M  V30 30447 C 3149.29 -2.20642 -0.582446 0
M  V30 30448 C 3150.26 -1.18407 -1.11439 0
M  V30 30449 O 3151.45 -1.47153 -1.17807 0
M  V30 30450 C 3148.57 -2.86949 -1.79939 0
M  V30 30451 C 3147.62 -4.02918 -1.39854 0
M  V30 30452 S 3148.45 -5.3374 -0.433766 0
M  V30 30453 C 3149.61 -6.03542 -1.65795 0
M  V30 30454 H 3149.84 -2.97294 -0.0181078 0
M  V30 30455 H 3147.38 -1.54012 0.109392 0
M  V30 30456 H 3149.33 -3.25773 -2.49764 0
M  V30 30457 H 3147.99 -2.10096 -2.33492 0
M  V30 30458 H 3147.19 -4.48183 -2.30539 0
M  V30 30459 H 3146.79 -3.65776 -0.779972 0
M  V30 30460 H 3149.08 -6.25827 -2.59513 0
M  V30 30461 H 3150.02 -6.97026 -1.24744 0
M  V30 30462 H 3150.43 -5.33473 -1.84572 0
M  V30 30463 N 3149.83 -0.0535194 -1.57509 0
M  V30 30464 C 3151.24 0.481836 -1.80375 0
M  V30 30465 C 3151.59 1.70774 -0.965947 0
M  V30 30466 O 3150.72 2.15623 -0.183205 0
M  V30 30467 C 3151.31 0.88092 -3.27147 0
M  V30 30468 C 3149.87 1.36124 -3.50923 0
M  V30 30469 C 3149.02 0.337562 -2.75238 0
M  V30 30470 H 3151.97 -0.279381 -1.56221 0
M  V30 30471 H 3151.99 1.74367 -3.38196 0
M  V30 30472 H 3151.5 -0.0115092 -3.88098 0
M  V30 30473 H 3149.6 2.27278 -2.95255 0
M  V30 30474 H 3149.72 1.35178 -4.59634 0
M  V30 30475 H 3148.08 0.810949 -2.41445 0
M  V30 30476 H 3148.86 -0.546823 -3.38917 0
M  V30 30477 N 3151.31 1.56059 0.219886 0
M  V30 30478 C 3152.56 1.78795 0.942168 0
M  V30 30479 C 3152.88 0.622316 1.84803 0
M  V30 30480 O 3152.15 -0.360701 1.92551 0
M  V30 30481 H 3150.73 0.659462 0.350884 0
M  V30 30482 H 3153.39 1.93522 0.231342 0
M  V30 30483 H 3152.49 2.71005 1.54799 0
M  V30 30484 N 3152.79 -0.486655 1.49898 0
M  V30 30485 C 3153.7 -1.61267 1.70382 0
M  V30 30486 C 3154.71 -1.63813 0.586619 0
M  V30 30487 O 3155.89 -1.8197 0.863076 0
M  V30 30488 C 3152.95 -2.97568 1.77916 0
M  V30 30489 C 3152.02 -3.05535 3.01574 0
M  V30 30490 C 3151.25 -4.35334 3.08739 0
M  V30 30491 O 3151.47 -5.24956 2.23109 0
M  V30 30492 O 3150.41 -4.48571 4.01333 0
M  V30 30493 H 3154.23 -1.46912 2.65802 0
M  V30 30494 H 3151.82 -0.664492 1.33809 0
M  V30 30495 H 3153.7 -3.7855 1.85142 0
M  V30 30496 H 3152.37 -3.12155 0.856777 0
M  V30 30497 H 3151.28 -2.23687 2.99858 0
M  V30 30498 H 3152.61 -2.95879 3.9334 0
M  V30 30499 N 3154.27 -1.39214 -0.738737 0
M  V30 30500 C 3155.51 -1.35964 -1.49526 0
M  V30 30501 C 3155.83 0.0449809 -1.94948 0
M  V30 30502 O 3155.1 0.995523 -1.68719 0
M  V30 30503 H 3153.68 -0.500336 -0.554683 0
M  V30 30504 H 3156.35 -1.74042 -0.877224 0
M  V30 30505 H 3155.44 -2.01997 -2.37915 0
M  V30 30506 N 3155.74 0.968523 -1.24328 0
M  V30 30507 C 3156.99 1.71463 -1.09416 0
M  V30 30508 C 3157.34 1.88937 0.363389 0
M  V30 30509 O 3156.64 1.43918 1.26484 0
M  V30 30510 C 3156.83 3.10692 -1.7665 0
M  V30 30511 C 3156.66 3.06799 -3.28792 0
M  V30 30512 C 3155.43 3.11326 -3.98 0
M  V30 30513 C 3157.63 2.8904 -4.25395 0
M  V30 30514 N 3155.61 2.97444 -5.37029 0
M  V30 30515 C 3156.98 2.83445 -5.51416 0
M  V30 30516 C 3159.04 2.73614 -4.1598 0
M  V30 30517 C 3157.74 2.64001 -6.69101 0
M  V30 30518 C 3159.77 2.55538 -5.33343 0
M  V30 30519 C 3159.13 2.50651 -6.58296 0
M  V30 30520 H 3155.23 0.636004 -0.454998 0
M  V30 30521 H 3157.81 1.14834 -1.5723 0
M  V30 30522 H 3155.98 3.65515 -1.31351 0
M  V30 30523 H 3157.71 3.74004 -1.54606 0
M  V30 30524 H 3154.47 3.19975 -3.4916 0
M  V30 30525 H 3154.89 2.93746 -6.09953 0
M  V30 30526 H 3159.53 2.76175 -3.20136 0
M  V30 30527 H 3157.25 2.60184 -7.65069 0
M  V30 30528 H 3160.84 2.44548 -5.27909 0
M  V30 30529 H 3159.72 2.36843 -7.4758 0
M  V30 30530 N 3157.22 1.0569 1.16908 0
M  V30 30531 C 3158.47 0.768442 1.86921 0
M  V30 30532 C 3158.79 -0.706889 1.81736 0
M  V30 30533 O 3158.06 -1.51107 1.24673 0
M  V30 30534 H 3156.64 0.281265 0.692025 0
M  V30 30535 H 3159.3 1.33711 1.41801 0
M  V30 30536 H 3158.4 1.08788 2.92526 0
M  V30 30537 N 3158.7 -1.33435 0.838617 0
M  V30 30538 C 3159.98 -1.9233 0.356145 0
M  V30 30539 C 3160.36 -1.76473 -1.15847 0
M  V30 30540 O 3159.7 -1.15297 -1.97279 0
M  V30 30541 C 3159.91 -3.39642 0.802775 0
M  V30 30542 C 3161.26 -4.1679 0.810648 0
M  V30 30543 O 3162.29 -3.48293 0.746365 0
M  V30 30544 O 3161.15 -5.39069 0.898177 0
M  V30 30545 H 3158.24 -0.820843 0.100726 0
M  V30 30546 H 3160.79 -1.42309 0.924453 0
M  V30 30547 H 3159.56 -3.45054 1.84536 0
M  V30 30548 H 3159.18 -3.9704 0.211026 0
M  V30 30549 N 3160.18 -0.595029 -1.45935 0
M  V30 30550 C 3161.59 -0.171812 -1.85908 0
M  V30 30551 C 3161.94 1.26822 -1.49702 0
M  V30 30552 O 3161.06 1.95977 -0.917722 0
M  V30 30553 C 3161.66 -0.305035 -3.37424 0
M  V30 30554 C 3160.22 0.0633973 -3.76347 0
M  V30 30555 C 3159.37 -0.635303 -2.69924 0
M  V30 30556 H 3162.32 -0.802495 -1.36915 0
M  V30 30557 H 3162.34 0.466246 -3.77633 0
M  V30 30558 H 3161.85 -1.3532 -3.63744 0
M  V30 30559 H 3159.95 1.11123 -3.55644 0
M  V30 30560 H 3160.06 -0.321503 -4.7802 0
M  V30 30561 H 3158.43 -0.0742502 -2.54592 0
M  V30 30562 H 3159.21 -1.68536 -2.99083 0
M  V30 30563 N 3161.66 1.54031 -0.333483 0
M  V30 30564 C 3162.9 2.02654 0.266568 0
M  V30 30565 C 3163.26 1.21623 1.48566 0
M  V30 30566 O 3164.46 1.60097 2.15923 0
M  V30 30567 C 3162.73 3.52617 0.582763 0
M  V30 30568 S 3164.29 4.23161 1.16106 0
M  V30 30569 H 3161.11 0.706482 0.080022 0
M  V30 30570 H 3163.71 1.89793 -0.468909 0
M  V30 30571 H 3162.41 4.09209 -0.312473 0
M  V30 30572 H 3161.95 3.69578 1.34817 0
M  V30 30573 H 3163.96 4.31647 2.44736 0
M  V30 30574 N 3163.13 0.0618717 1.57479 0
M  V30 30575 C 3164.04 -0.923788 2.15646 0
M  V30 30576 C 3165.06 -1.33411 1.11703 0
M  V30 30577 O 3166.24 -1.40884 1.43922 0
M  V30 30578 C 3163.3 -2.1766 2.69861 0
M  V30 30579 C 3162.36 -1.82363 3.88642 0
M  V30 30580 C 3161.59 -3.01672 4.40261 0
M  V30 30581 O 3161.82 -4.15381 3.90916 0
M  V30 30582 O 3160.75 -2.82064 5.31717 0
M  V30 30583 H 3164.58 -0.459042 3.00211 0
M  V30 30584 H 3162.16 -0.160639 1.48534 0
M  V30 30585 H 3164.04 -2.91145 3.04652 0
M  V30 30586 H 3162.72 -2.63252 1.88362 0
M  V30 30587 H 3161.63 -1.06161 3.58721 0
M  V30 30588 H 3162.96 -1.41562 4.71403 0
M  V30 30589 N 3164.61 -1.56173 -0.211607 0
M  V30 30590 C 3165.54 -1.96246 -1.26529 0
M  V30 30591 C 3166.52 -0.832054 -1.48361 0
M  V30 30592 O 3167.71 -1.09513 -1.60376 0
M  V30 30593 C 3164.84 -2.28775 -2.61303 0
M  V30 30594 C 3163.79 -3.44399 -2.54112 0
M  V30 30595 C 3163.12 -3.62559 -3.93007 0
M  V30 30596 C 3164.42 -4.7908 -2.08038 0
M  V30 30597 H 3166.11 -2.84513 -0.932357 0
M  V30 30598 H 3163.66 -1.36885 -0.44706 0
M  V30 30599 H 3165.61 -2.55402 -3.35184 0
M  V30 30600 H 3164.34 -1.37372 -2.96305 0
M  V30 30601 H 3162.99 -3.17837 -1.82689 0
M  V30 30602 H 3162.64 -2.68516 -4.25333 0
M  V30 30603 H 3162.34 -4.40334 -3.89075 0
M  V30 30604 H 3163.87 -3.91545 -4.68535 0
M  V30 30605 H 3165.28 -5.04846 -2.71667 0
M  V30 30606 H 3163.68 -5.60208 -2.15144 0
M  V30 30607 H 3164.75 -4.73769 -1.03298 0
M  V30 30608 N 3166.09 0.478699 -1.50154 0
M  V30 30609 C 3167.33 1.24126 -1.62395 0
M  V30 30610 C 3167.69 1.89418 -0.313807 0
M  V30 30611 O 3168.9 2.66988 -0.311584 0
M  V30 30612 C 3167.17 2.26288 -2.76637 0
M  V30 30613 S 3168.73 3.11585 -3.08966 0
M  V30 30614 H 3165.54 0.421531 -0.572567 0
M  V30 30615 H 3168.15 0.539559 -1.87907 0
M  V30 30616 H 3166.85 1.76889 -3.70322 0
M  V30 30617 H 3166.38 3.01097 -2.53188 0
M  V30 30618 H 3168.4 4.27326 -2.52205 0
M  V30 30619 N 3167.57 1.39603 0.731343 0
M  V30 30620 C 3168.98 1.33047 1.30978 0
M  V30 30621 C 3169.33 -0.0034647 1.962 0
M  V30 30622 O 3168.46 -0.905581 1.96541 0
M  V30 30623 C 3169.05 2.40962 2.38166 0
M  V30 30624 C 3167.61 2.37915 2.91674 0
M  V30 30625 C 3166.76 2.22659 1.65282 0
M  V30 30626 H 3169.71 1.49638 0.528589 0
M  V30 30627 H 3169.73 2.07961 3.18642 0
M  V30 30628 H 3169.24 3.38035 1.90667 0
M  V30 30629 H 3167.34 1.44491 3.43443 0
M  V30 30630 H 3167.45 3.3291 3.44539 0
M  V30 30631 H 3165.82 1.69896 1.89756 0
M  V30 30632 H 3166.6 3.21707 1.1983 0
M  V30 30633 N 3169.05 -0.961916 1.2484 0
M  V30 30634 C 3169.99 -2.05744 1.04586 0
M  V30 30635 C 3170.96 -1.66045 -0.0426989 0
M  V30 30636 O 3172.15 -1.90465 0.11306 0
M  V30 30637 C 3169.29 -3.38673 0.662899 0
M  V30 30638 C 3168.4 -3.91533 1.82555 0
M  V30 30639 C 3167.54 -5.12756 1.38762 0
M  V30 30640 C 3166.58 -5.57826 2.51986 0
M  V30 30641 N 3165.71 -6.70265 2.0902 0
M  V30 30642 H 3170.55 -2.22401 1.98347 0
M  V30 30643 H 3168.09 -1.08996 0.987841 0
M  V30 30644 H 3170.05 -4.15062 0.421861 0
M  V30 30645 H 3168.68 -3.21923 -0.237719 0
M  V30 30646 H 3167.73 -3.11731 2.18009 0
M  V30 30647 H 3169.04 -4.20936 2.67609 0
M  V30 30648 H 3168.2 -5.96537 1.10581 0
M  V30 30649 H 3166.93 -4.8505 0.507703 0
M  V30 30650 H 3165.94 -4.72614 2.80921 0
M  V30 30651 H 3167.16 -5.87543 3.40544 0
M  V30 30652 H 3165.11 -6.44283 1.23434 0
M  V30 30653 H 3165.03 -6.99148 2.87626 0
M  V30 30654 H 3166.3 -7.57474 1.83995 0
M  V30 30655 N 3170.52 -1.06308 -1.16346 0
M  V30 30656 C 3171.8 -0.693342 -1.82899 0
M  V30 30657 C 3172.18 0.825276 -1.943 0
M  V30 30658 O 3171.53 1.73562 -1.48622 0
M  V30 30659 C 3171.74 -1.39546 -3.19888 0
M  V30 30660 C 3173.09 -1.54075 -3.95659 0
M  V30 30661 O 3174.11 -1.35537 -3.29406 0
M  V30 30662 O 3172.97 -1.84488 -5.14418 0
M  V30 30663 H 3170.06 -0.245459 -0.789733 0
M  V30 30664 H 3172.61 -1.16336 -1.23547 0
M  V30 30665 H 3171.38 -2.43098 -3.06625 0
M  V30 30666 H 3171.01 -0.915521 -3.86916 0
M  V30 30667 N 3172 1.32989 -0.845682 0
M  V30 30668 C 3173.28 1.92139 -0.36634 0
M  V30 30669 C 3173.66 1.77085 1.14909 0
M  V30 30670 O 3173.01 1.16341 1.96665 0
M  V30 30671 C 3173.22 3.39211 -0.820776 0
M  V30 30672 C 3174.57 4.16354 -0.83274 0
M  V30 30673 O 3175.59 3.47892 -0.764825 0
M  V30 30674 O 3174.45 5.38585 -0.926753 0
M  V30 30675 H 3171.54 0.820297 -0.105078 0
M  V30 30676 H 3174.09 1.41817 -0.931987 0
M  V30 30677 H 3172.86 3.44071 -1.86363 0
M  V30 30678 H 3172.48 3.96922 -0.232079 0
M  V30 30679 N 3173.48 0.60276 1.45618 0
M  V30 30680 C 3174.39 -0.120861 2.34288 0
M  V30 30681 C 3175.41 -0.865388 1.50954 0
M  V30 30682 O 3176.58 -0.824062 1.83769 0
M  V30 30683 C 3173.65 -1.10882 3.28491 0
M  V30 30684 C 3172.71 -0.366778 4.2773 0
M  V30 30685 C 3171.94 -1.30767 5.17432 0
M  V30 30686 O 3172.16 -2.54526 5.10463 0
M  V30 30687 O 3171.1 -0.807359 5.96461 0
M  V30 30688 H 3174.92 0.607702 2.97558 0
M  V30 30689 H 3172.51 0.363045 1.44922 0
M  V30 30690 H 3174.39 -1.67796 3.86552 0
M  V30 30691 H 3173.07 -1.81849 2.67792 0
M  V30 30692 H 3171.97 0.244709 3.73299 0
M  V30 30693 H 3173.31 0.302313 4.91271 0
M  V30 30694 N 3174.96 -1.53852 0.341647 0
M  V30 30695 C 3176.2 -2.0118 -0.255827 0
M  V30 30696 C 3176.54 -1.22912 -1.50354 0
M  V30 30697 O 3175.81 -0.316232 -1.91912 0
M  V30 30698 C 3176.1 -3.5553 -0.571871 0
M  V30 30699 C 3175.95 -4.4451 0.687805 0
M  V30 30700 C 3177.27 -4.1783 -1.38225 0
M  V30 30701 H 3174.39 -0.731297 -0.0915081 0
M  V30 30702 H 3177.03 -1.84302 0.461808 0
M  V30 30703 H 3175.18 -3.70043 -1.18324 0
M  V30 30704 H 3176.85 -4.41837 1.3258 0
M  V30 30705 H 3175.09 -4.1345 1.31308 0
M  V30 30706 H 3175.76 -5.50385 0.421955 0
M  V30 30707 H 3178.24 -4.07003 -0.865303 0
M  V30 30708 H 3177.12 -5.25904 -1.57214 0
M  V30 30709 H 3177.38 -3.72327 -2.38379 0
M  V30 30710 N 3176.44 -0.0702223 -1.57443 0
M  V30 30711 C 3177.4 0.882886 -2.11513 0
M  V30 30712 C 3178.4 1.22741 -1.03881 0
M  V30 30713 O 3179.59 1.16094 -1.29876 0
M  V30 30714 C 3176.72 2.18681 -2.61518 0
M  V30 30715 H 3177.91 0.413821 -2.97031 0
M  V30 30716 H 3175.47 0.178461 -1.55278 0
M  V30 30717 H 3176.2 2.70128 -1.79448 0
M  V30 30718 H 3175.99 1.94972 -3.40188 0
M  V30 30719 H 3177.48 2.86914 -3.0343 0
M  V30 30720 N 3177.91 1.56283 0.203321 0
M  V30 30721 C 3179.16 1.8014 0.924979 0
M  V30 30722 C 3179.49 0.642072 1.83597 0
M  V30 30723 O 3178.74 -0.372624 1.9212 0
M  V30 30724 C 3179.04 3.09915 1.7801 0
M  V30 30725 C 3178.71 4.39193 1.0208 0
M  V30 30726 C 3177.37 4.74314 0.811125 0
M  V30 30727 C 3179.72 5.1893 0.485946 0
M  V30 30728 C 3177.05 5.86674 0.0549825 0
M  V30 30729 C 3179.4 6.32078 -0.256944 0
M  V30 30730 C 3178.07 6.65788 -0.477711 0
M  V30 30731 H 3177.34 0.659179 0.338474 0
M  V30 30732 H 3179.98 1.90536 0.191889 0
M  V30 30733 H 3178.29 2.9472 2.58162 0
M  V30 30734 H 3179.99 3.25578 2.34094 0
M  V30 30735 H 3176.58 4.11626 1.19423 0
M  V30 30736 H 3180.76 4.92216 0.63536 0
M  V30 30737 H 3176.02 6.1127 -0.126113 0
M  V30 30738 H 3180.19 6.93084 -0.678805 0
M  V30 30739 H 3177.82 7.52695 -1.06554 0
M  V30 30740 N 3179.39 -0.470729 1.50406 0
M  V30 30741 C 3180.33 -1.58616 1.65449 0
M  V30 30742 C 3181.34 -1.53724 0.535976 0
M  V30 30743 O 3182.53 -1.59106 0.809167 0
M  V30 30744 C 3179.63 -2.97497 1.62323 0
M  V30 30745 C 3178.8 -3.27254 2.90213 0
M  V30 30746 C 3177.86 -4.45691 2.79725 0
M  V30 30747 O 3176.89 -4.45981 3.5368 0
M  V30 30748 N 3178.09 -5.47369 1.93305 0
M  V30 30749 H 3180.85 -1.46128 2.61662 0
M  V30 30750 H 3178.41 -0.659152 1.47874 0
M  V30 30751 H 3180.41 -3.74697 1.52919 0
M  V30 30752 H 3178.98 -3.03753 0.738445 0
M  V30 30753 H 3178.2 -2.38663 3.13741 0
M  V30 30754 H 3179.48 -3.43947 3.74937 0
M  V30 30755 H 3178.88 -5.49956 1.32534 0
M  V30 30756 H 3177.44 -6.23552 1.89804 0
M  V30 30757 N 3180.87 -1.39989 -0.72393 0
M  V30 30758 C 3182.15 -1.28318 -1.47627 0
M  V30 30759 C 3182.53 0.102265 -2.10852 0
M  V30 30760 O 3181.88 1.11441 -1.99482 0
M  V30 30761 C 3182.09 -2.41579 -2.51874 0
M  V30 30762 C 3183.43 -2.8142 -3.17943 0
M  V30 30763 O 3184.46 -2.4111 -2.62191 0
M  V30 30764 O 3183.32 -3.51035 -4.18852 0
M  V30 30765 H 3180.41 -0.503471 -0.656084 0
M  V30 30766 H 3182.96 -1.5189 -0.756813 0
M  V30 30767 H 3181.73 -3.34152 -2.03612 0
M  V30 30768 H 3181.35 -2.19733 -3.31366 0
M  V30 30769 N 3182.35 0.955282 -1.25348 0
M  V30 30770 C 3183.28 2.06941 -1.08155 0
M  V30 30771 C 3184.26 1.70098 0.00919608 0
M  V30 30772 O 3185.45 1.93538 -0.160215 0
M  V30 30773 C 3182.58 3.40197 -0.698805 0
M  V30 30774 C 3181.53 3.91047 -1.73972 0
M  V30 30775 C 3180.86 5.2079 -1.21167 0
M  V30 30776 C 3182.16 4.17497 -3.13836 0
M  V30 30777 H 3183.85 2.21583 -2.01349 0
M  V30 30778 H 3181.4 1.06476 -0.969478 0
M  V30 30779 H 3183.35 4.17589 -0.565467 0
M  V30 30780 H 3182.07 3.25492 0.268834 0
M  V30 30781 H 3180.73 3.15823 -1.86148 0
M  V30 30782 H 3180.38 5.02454 -0.234281 0
M  V30 30783 H 3180.08 5.55781 -1.90738 0
M  V30 30784 H 3181.6 6.00779 -1.09071 0
M  V30 30785 H 3183.02 4.8555 -3.04817 0
M  V30 30786 H 3181.41 4.63743 -3.80871 0
M  V30 30787 H 3182.48 3.23799 -3.60946 0
M  V30 30788 N 3183.83 1.06924 1.1578 0
M  V30 30789 C 3185.07 0.799076 1.88133 0
M  V30 30790 C 3185.43 -0.6626 1.80204 0
M  V30 30791 O 3186.63 -1.04762 2.47545 0
M  V30 30792 C 3184.9 1.28791 3.33388 0
M  V30 30793 S 3186.46 1.14778 4.23523 0
M  V30 30794 H 3183.28 0.28969 0.649308 0
M  V30 30795 H 3185.88 1.36746 1.39717 0
M  V30 30796 H 3184.59 2.3465 3.36701 0
M  V30 30797 H 3184.12 0.714557 3.86856 0
M  V30 30798 H 3186.13 0.0826136 4.96131 0
M  V30 30799 N 3185.31 -1.32538 0.852723 0
M  V30 30800 C 3186.72 -1.79598 0.510043 0
M  V30 30801 C 3187.07 -1.70432 -0.971972 0
M  V30 30802 O 3186.19 -1.26176 -1.75808 0
M  V30 30803 C 3186.79 -3.26097 0.919043 0
M  V30 30804 C 3185.35 -3.71119 0.628292 0
M  V30 30805 C 3184.49 -2.53683 1.11984 0
M  V30 30806 H 3187.44 -1.19864 1.04011 0
M  V30 30807 H 3187.47 -3.79776 0.234644 0
M  V30 30808 H 3186.98 -3.32736 1.99771 0
M  V30 30809 H 3185.08 -3.69996 -0.439735 0
M  V30 30810 H 3185.19 -4.64003 1.19323 0
M  V30 30811 H 3183.56 -2.48906 0.540176 0
M  V30 30812 H 3184.34 -2.63077 2.20557 0
M  V30 30813 N 3186.78 -0.610474 -1.45296 0
M  V30 30814 C 3188.01 -0.113083 -2.0629 0
M  V30 30815 C 3188.42 1.20905 -1.45529 0
M  V30 30816 O 3187.76 1.748 -0.564868 0
M  V30 30817 C 3187.83 0.0979061 -3.59367 0
M  V30 30818 C 3187.49 -1.14286 -4.42479 0
M  V30 30819 C 3188.49 -2.0617 -4.77274 0
M  V30 30820 C 3186.17 -1.3725 -4.83185 0
M  V30 30821 C 3188.17 -3.19342 -5.51633 0
M  V30 30822 C 3185.85 -2.50723 -5.57298 0
M  V30 30823 C 3186.85 -3.41597 -5.91439 0
M  V30 30824 O 3186.54 -4.53095 -6.64048 0
M  V30 30825 H 3186.27 -0.0673278 -0.672639 0
M  V30 30826 H 3188.83 -0.83897 -1.87485 0
M  V30 30827 H 3187.06 0.878717 -3.76584 0
M  V30 30828 H 3188.74 0.547257 -4.02194 0
M  V30 30829 H 3189.51 -1.89655 -4.46381 0
M  V30 30830 H 3185.39 -0.67415 -4.56044 0
M  V30 30831 H 3188.93 -3.90296 -5.782 0
M  V30 30832 H 3184.83 -2.67189 -5.87605 0
M  V30 30833 H 3185.6 -4.51813 -6.82501 0
M  V30 30834 N 3188.26 1.53669 -0.349801 0
M  V30 30835 C 3189.51 2.00618 0.244308 0
M  V30 30836 C 3189.83 1.23916 1.50565 0
M  V30 30837 O 3189.1 0.34805 1.92783 0
M  V30 30838 H 3187.68 0.741155 0.0932662 0
M  V30 30839 H 3190.34 1.89088 -0.4724 0
M  V30 30840 H 3189.44 3.0835 0.482378 0
M  V30 30841 N 3189.74 0.0785709 1.57404 0
M  V30 30842 C 3190.69 -0.896528 2.09634 0
M  V30 30843 C 3191.67 -1.25447 1.00756 0
M  V30 30844 O 3192.87 -1.23232 1.27055 0
M  V30 30845 C 3189.99 -2.16165 2.66698 0
M  V30 30846 C 3189.08 -1.82988 3.82592 0
M  V30 30847 N 3189.47 -1.20291 4.91288 0
M  V30 30848 C 3187.77 -2.12697 3.92015 0
M  V30 30849 C 3188.47 -1.05357 5.72079 0
M  V30 30850 N 3187.45 -1.5655 5.2057 0
M  V30 30851 H 3191.25 -0.40757 2.9106 0
M  V30 30852 H 3188.76 -0.125126 1.61917 0
M  V30 30853 H 3190.76 -2.86947 3.02435 0
M  V30 30854 H 3189.42 -2.65642 1.8672 0
M  V30 30855 H 3190.43 -0.871727 5.10511 0
M  V30 30856 H 3187.11 -2.64504 3.23023 0
M  V30 30857 H 3188.5 -0.564567 6.69524 0
M  V30 30858 N 3191.22 -1.56389 -0.19503 0
M  V30 30859 C 3192.47 -1.80271 -0.913604 0
M  V30 30860 C 3192.79 -0.651638 -1.8379 0
M  V30 30861 O 3192.06 0.330023 -1.931 0
M  V30 30862 H 3190.64 -0.66496 -0.340348 0
M  V30 30863 H 3193.3 -1.93866 -0.200525 0
M  V30 30864 H 3192.39 -2.73433 -1.50468 0
M  V30 30865 N 3192.7 0.462746 -1.50653 0
M  V30 30866 C 3193.92 1.23728 -1.65828 0
M  V30 30867 C 3194.34 1.8562 -0.345035 0
M  V30 30868 O 3193.7 1.69602 0.673905 0
M  V30 30869 C 3193.75 2.33992 -2.75554 0
M  V30 30870 O 3193.47 1.74636 -4.01789 0
M  V30 30871 C 3194.97 3.24725 -3.01776 0
M  V30 30872 H 3192.19 0.373882 -0.557183 0
M  V30 30873 H 3194.73 0.5514 -1.96926 0
M  V30 30874 H 3192.89 2.9834 -2.47127 0
M  V30 30875 H 3193.3 2.47311 -4.62534 0
M  V30 30876 H 3194.78 3.98286 -3.82195 0
M  V30 30877 H 3195.25 3.83997 -2.13174 0
M  V30 30878 H 3195.86 2.66105 -3.31766 0
M  V30 30879 N 3194.17 1.40371 0.716495 0
M  V30 30880 C 3195.42 1.38805 1.47854 0
M  V30 30881 C 3195.75 -0.0100194 1.94197 0
M  V30 30882 O 3195.03 -0.978491 1.68095 0
M  V30 30883 C 3195.31 2.37672 2.70526 0
M  V30 30884 C 3195.16 3.865 2.30083 0
M  V30 30885 C 3196.48 2.34088 3.7268 0
M  V30 30886 H 3193.6 0.505509 0.536311 0
M  V30 30887 H 3196.24 1.715 0.817794 0
M  V30 30888 H 3194.39 2.09922 3.26902 0
M  V30 30889 H 3196.07 4.25073 1.79195 0
M  V30 30890 H 3194.31 4.02377 1.62095 0
M  V30 30891 H 3194.98 4.51191 3.1801 0
M  V30 30892 H 3197.46 2.58666 3.25931 0
M  V30 30893 H 3196.33 3.05314 4.56152 0
M  V30 30894 H 3196.59 1.3522 4.20913 0
M  V30 30895 N 3195.65 -0.948621 1.25853 0
M  V30 30896 C 3197.06 -1.5087 1.09978 0
M  V30 30897 C 3197.41 -1.93532 -0.322462 0
M  V30 30898 O 3196.54 -1.79199 -1.21313 0
M  V30 30899 C 3197.13 -2.74179 1.99026 0
M  V30 30900 C 3195.69 -3.26479 1.87319 0
M  V30 30901 C 3194.84 -1.99289 1.92819 0
M  V30 30902 H 3197.79 -0.764883 1.39051 0
M  V30 30903 H 3197.81 -3.48218 1.53378 0
M  V30 30904 H 3197.32 -2.43098 3.02531 0
M  V30 30905 H 3195.43 -3.62368 0.8672 0
M  V30 30906 H 3195.54 -3.94089 2.72453 0
M  V30 30907 H 3193.9 -2.14858 1.36778 0
M  V30 30908 H 3194.69 -1.70549 2.97939 0
M  V30 30909 N 3197.13 -1.07536 -1.15212 0
M  V30 30910 C 3198.36 -0.820917 -1.90462 0
M  V30 30911 C 3198.78 0.620274 -1.77579 0
M  V30 30912 O 3198.14 1.43364 -1.10979 0
M  V30 30913 C 3198.19 -1.23633 -3.38744 0
M  V30 30914 O 3197.29 -0.382788 -4.1062 0
M  V30 30915 H 3196.63 -0.298911 -0.592915 0
M  V30 30916 H 3199.16 -1.43447 -1.45891 0
M  V30 30917 H 3199.17 -1.21333 -3.89541 0
M  V30 30918 H 3197.85 -2.28602 -3.47439 0
M  V30 30919 H 3196.42 -0.468439 -3.69946 0
M  V30 30920 N 3198.61 1.32084 -0.85974 0
M  V30 30921 C 3199.54 2.31248 -0.323543 0
M  V30 30922 C 3200.52 1.59904 0.580057 0
M  V30 30923 O 3201.7 1.87673 0.499232 0
M  V30 30924 C 3198.83 3.43902 0.4846 0
M  V30 30925 C 3197.79 4.26764 -0.325008 0
M  V30 30926 C 3197.11 5.3123 0.608187 0
M  V30 30927 C 3198.41 4.98661 -1.55353 0
M  V30 30928 H 3200.11 2.76344 -1.15214 0
M  V30 30929 H 3197.65 1.32855 -0.555465 0
M  V30 30930 H 3199.61 4.12318 0.870166 0
M  V30 30931 H 3198.33 2.97547 1.34661 0
M  V30 30932 H 3196.99 3.60002 -0.692391 0
M  V30 30933 H 3196.64 4.81126 1.46719 0
M  V30 30934 H 3196.34 5.87558 0.0704538 0
M  V30 30935 H 3197.86 6.02507 0.990819 0
M  V30 30936 H 3199.28 5.5973 -1.23997 0
M  V30 30937 H 3197.67 5.64737 -2.02957 0
M  V30 30938 H 3198.74 4.26233 -2.312 0
M  V30 30939 N 3200.09 0.618171 1.4497 0
M  V30 30940 C 3201.04 -0.116079 2.27704 0
M  V30 30941 C 3202.02 -0.828533 1.37928 0
M  V30 30942 O 3203.21 -0.716778 1.61837 0
M  V30 30943 C 3200.34 -1.10573 3.25005 0
M  V30 30944 C 3199.43 -0.393566 4.2227 0
M  V30 30945 N 3199.82 0.57067 5.0257 0
M  V30 30946 C 3198.12 -0.639732 4.41388 0
M  V30 30947 C 3198.82 0.990244 5.73209 0
M  V30 30948 N 3197.79 0.331748 5.42587 0
M  V30 30949 H 3201.6 0.624346 2.87192 0
M  V30 30950 H 3199.11 0.442658 1.56251 0
M  V30 30951 H 3201.11 -1.64624 3.8302 0
M  V30 30952 H 3199.77 -1.84659 2.67079 0
M  V30 30953 H 3200.78 0.947904 5.09151 0
M  V30 30954 H 3197.45 -1.36446 3.94574 0
M  V30 30955 H 3198.84 1.78612 6.47725 0
M  V30 30956 N 3201.56 -1.53481 0.357946 0
M  V30 30957 C 3202.84 -1.93436 -0.29013 0
M  V30 30958 C 3203.22 -1.29082 -1.67036 0
M  V30 30959 O 3202.57 -0.447057 -2.24084 0
M  V30 30960 C 3202.78 -3.47261 -0.347994 0
M  V30 30961 C 3204.13 -4.20453 -0.591986 0
M  V30 30962 O 3205.15 -3.53601 -0.429519 0
M  V30 30963 O 3204.01 -5.38908 -0.90776 0
M  V30 30964 H 3201.1 -0.808853 -0.172297 0
M  V30 30965 H 3203.65 -1.64668 0.410173 0
M  V30 30966 H 3202.42 -3.86357 0.620021 0
M  V30 30967 H 3202.05 -3.82239 -1.0945 0
M  V30 30968 N 3203.04 -0.0869173 -1.5736 0
M  V30 30969 C 3204.27 0.587314 -1.98389 0
M  V30 30970 C 3204.69 1.62228 -0.965786 0
M  V30 30971 O 3204.04 1.82443 0.045666 0
M  V30 30972 C 3204.09 1.24236 -3.39481 0
M  V30 30973 O 3203.81 0.248801 -4.37393 0
M  V30 30974 C 3205.32 2.00299 -3.95469 0
M  V30 30975 H 3202.54 0.158078 -0.652114 0
M  V30 30976 H 3205.08 -0.16379 -2.03843 0
M  V30 30977 H 3203.23 1.94445 -3.35067 0
M  V30 30978 H 3203.65 0.720587 -5.19527 0
M  V30 30979 H 3205.12 2.41502 -4.96367 0
M  V30 30980 H 3205.6 2.86559 -3.32837 0
M  V30 30981 H 3206.21 1.34924 -4.03331 0
M  V30 30982 N 3204.52 1.5649 0.186734 0
M  V30 30983 C 3205.94 1.50262 0.537907 0
M  V30 30984 C 3206.14 0.788446 1.85434 0
M  V30 30985 O 3205.19 0.342421 2.50167 0
M  V30 30986 C 3206.51 2.94956 0.584913 0
M  V30 30987 C 3208.05 3.05675 0.673174 0
M  V30 30988 C 3208.53 4.51797 0.751214 0
M  V30 30989 N 3210.02 4.55982 0.814519 0
M  V30 30990 C 3210.75 5.66369 0.895214 0
M  V30 30991 N 3210.25 6.86425 0.937694 0
M  V30 30992 N 3212.04 5.54302 0.933048 0
M  V30 30993 H 3204.19 2.01333 -0.676672 0
M  V30 30994 H 3206.46 0.916566 -0.242095 0
M  V30 30995 H 3206.16 3.50301 -0.313423 0
M  V30 30996 H 3206.04 3.48766 1.43674 0
M  V30 30997 H 3208.42 2.50375 1.56194 0
M  V30 30998 H 3208.51 2.54977 -0.205021 0
M  V30 30999 H 3208.15 5.07725 -0.133232 0
M  V30 31000 H 3208.08 5.00236 1.64533 0
M  V30 31001 H 3210.57 3.69538 0.790597 0
M  V30 31002 H 3210.88 7.66303 1.00001 0
M  V30 31003 H 3209.23 6.89066 0.906229 0
M  V30 31004 H 3212.42 4.5943 0.896755 0
M  V30 31005 H 3212.59 6.40355 0.992476 0
M  V30 31006 N 3206 -0.45475 1.50897 0
M  V30 31007 C 3206.91 -1.57617 1.73764 0
M  V30 31008 C 3207.92 -1.62532 0.621234 0
M  V30 31009 O 3209.1 -1.80098 0.901481 0
M  V30 31010 C 3206.17 -2.93727 1.84188 0
M  V30 31011 C 3205.23 -2.99069 3.07987 0
M  V30 31012 C 3204.46 -4.28687 3.17904 0
M  V30 31013 O 3204.68 -5.20105 2.34194 0
M  V30 31014 O 3203.62 -4.39957 4.10757 0
M  V30 31015 H 3207.44 -1.4124 2.68858 0
M  V30 31016 H 3205.03 -0.63596 1.35188 0
M  V30 31017 H 3206.91 -3.74538 1.9313 0
M  V30 31018 H 3205.58 -3.10268 0.922797 0
M  V30 31019 H 3204.49 -2.17277 3.04535 0
M  V30 31020 H 3205.82 -2.87469 3.99528 0
M  V30 31021 N 3207.48 -1.40749 -0.709041 0
M  V30 31022 C 3208.75 -1.29877 -1.46258 0
M  V30 31023 C 3209.13 0.0798951 -2.10949 0
M  V30 31024 O 3208.48 1.09319 -2.00653 0
M  V30 31025 C 3208.69 -2.44237 -2.49298 0
M  V30 31026 C 3210.04 -2.84777 -3.1494 0
M  V30 31027 O 3211.06 -2.43878 -2.59619 0
M  V30 31028 O 3209.92 -3.55457 -4.15105 0
M  V30 31029 H 3207.02 -0.510402 -0.650707 0
M  V30 31030 H 3209.56 -1.52684 -0.740661 0
M  V30 31031 H 3208.33 -3.36293 -2.00057 0
M  V30 31032 H 3207.96 -2.23235 -3.29017 0
M  V30 31033 N 3208.96 0.941933 -1.26354 0
M  V30 31034 C 3210.2 1.69054 -1.1202 0
M  V30 31035 C 3210.53 1.91274 0.335823 0
M  V30 31036 O 3209.81 1.49287 1.24674 0
M  V30 31037 C 3210.09 3.06579 -1.88895 0
M  V30 31038 C 3209.95 2.9169 -3.42399 0
M  V30 31039 C 3211.26 4.06683 -1.68216 0
M  V30 31040 H 3208.38 0.613549 -0.408322 0
M  V30 31041 H 3211.03 1.09404 -1.55341 0
M  V30 31042 H 3209.18 3.57498 -1.52076 0
M  V30 31043 H 3210.85 2.47998 -3.88966 0
M  V30 31044 H 3209.09 2.27332 -3.69463 0
M  V30 31045 H 3209.76 3.89228 -3.91415 0
M  V30 31046 H 3212.24 3.64722 -2.00292 0
M  V30 31047 H 3211.11 5.00926 -2.24421 0
M  V30 31048 H 3211.37 4.37638 -0.626551 0
M  V30 31049 N 3210.43 1.08146 1.1464 0
M  V30 31050 C 3211.38 0.703487 2.21707 0
M  V30 31051 C 3212.38 -0.289505 1.66908 0
M  V30 31052 O 3213.58 -0.152356 1.79354 0
M  V30 31053 H 3209.96 0.20945 0.722243 0
M  V30 31054 H 3211.93 1.61593 2.50859 0
M  V30 31055 C 3210.68 0.126036 3.47471 0
M  V30 31056 H 3210 0.881284 3.89966 0
M  V30 31057 H 3211.44 -0.100663 4.2388 0
M  V30 31058 C 3209.9 -1.1354 3.17191 0
M  V30 31059 O 3210.43 -2.22067 3.34737 0
M  V30 31060 N 3208.63 -1.04474 2.71171 0
M  V30 31061 H 3208.18 -0.161521 2.57093 0
M  V30 31062 H 3208.14 -1.88952 2.51285 0
M  V30 31063 N 3211.91 -1.31626 0.866732 0
M  V30 31064 C 3212.82 -2.3236 0.323448 0
M  V30 31065 C 3213.84 -1.64573 -0.564966 0
M  V30 31066 O 3215.01 -1.96019 -0.462454 0
M  V30 31067 C 3212.08 -3.43513 -0.468985 0
M  V30 31068 C 3211.14 -4.26966 0.447004 0
M  V30 31069 C 3210.37 -5.32812 -0.307705 0
M  V30 31070 O 3210.6 -5.49324 -1.5362 0
M  V30 31071 O 3209.53 -6.00979 0.332759 0
M  V30 31072 H 3213.36 -2.80743 1.15832 0
M  V30 31073 H 3210.94 -1.35467 0.630011 0
M  V30 31074 H 3212.82 -4.11272 -0.918333 0
M  V30 31075 H 3211.5 -2.97298 -1.28046 0
M  V30 31076 H 3210.4 -3.61973 0.944783 0
M  V30 31077 H 3211.74 -4.76738 1.22398 0
M  V30 31078 N 3213.39 -0.62585 -1.4464 0
M  V30 31079 C 3214.63 -0.13148 -2.03977 0
M  V30 31080 C 3214.99 1.2216 -1.48124 0
M  V30 31081 O 3216.19 1.80778 -1.98929 0
M  V30 31082 C 3214.47 -0.112095 -3.57224 0
M  V30 31083 S 3216.02 0.318424 -4.37643 0
M  V30 31084 H 3212.84 -0.0584983 -0.708589 0
M  V30 31085 H 3215.44 -0.828055 -1.77097 0
M  V30 31086 H 3214.15 -1.10008 -3.95381 0
M  V30 31087 H 3213.68 0.605896 -3.88706 0
M  V30 31088 H 3215.69 1.56385 -4.70912 0
M  V30 31089 N 3214.87 1.53289 -0.36608 0
M  V30 31090 C 3215.8 2.28678 0.47207 0
M  V30 31091 C 3216.78 1.31127 1.0835 0
M  V30 31092 O 3217.96 1.59997 1.10066 0
M  V30 31093 C 3215.09 3.07639 1.61168 0
M  V30 31094 C 3214.05 4.12883 1.12747 0
M  V30 31095 C 3213.37 4.7993 2.35736 0
M  V30 31096 C 3214.67 5.2187 0.211862 0
M  V30 31097 H 3216.37 2.98989 -0.15689 0
M  V30 31098 H 3213.91 1.43795 -0.0768962 0
M  V30 31099 H 3215.87 3.59127 2.20467 0
M  V30 31100 H 3214.59 2.3502 2.26788 0
M  V30 31101 H 3213.25 3.62341 0.55717 0
M  V30 31102 H 3212.9 4.03882 2.99814 0
M  V30 31103 H 3212.6 5.51048 2.0401 0
M  V30 31104 H 3214.12 5.34212 2.9572 0
M  V30 31105 H 3215.54 5.68857 0.71234 0
M  V30 31106 H 3213.93 6.00098 -0.0145556 0
M  V30 31107 H 3215 4.7913 -0.745837 0
M  V30 31108 N 3216.35 0.0952613 1.57312 0
M  V30 31109 C 3217.26 -0.877839 2.17557 0
M  V30 31110 C 3218.27 -1.31012 1.14508 0
M  V30 31111 O 3219.45 -1.378 1.46878 0
M  V30 31112 C 3216.51 -2.11887 2.74417 0
M  V30 31113 C 3215.57 -1.74078 3.92422 0
M  V30 31114 C 3214.81 -2.92265 4.46561 0
M  V30 31115 O 3215.03 -4.06995 3.99639 0
M  V30 31116 O 3213.96 -2.70722 5.37581 0
M  V30 31117 H 3217.79 -0.395259 3.01117 0
M  V30 31118 H 3215.37 -0.129097 1.48841 0
M  V30 31119 H 3217.26 -2.84617 3.10759 0
M  V30 31120 H 3215.93 -2.59197 1.93903 0
M  V30 31121 H 3214.84 -0.985283 3.60892 0
M  V30 31122 H 3216.17 -1.31531 4.743 0
M  V30 31123 N 3217.82 -1.56587 -0.178432 0
M  V30 31124 C 3219.05 -1.86074 -0.916028 0
M  V30 31125 C 3219.47 -0.680785 -1.75348 0
M  V30 31126 O 3218.83 0.370248 -1.77479 0
M  V30 31127 C 3218.88 -3.13923 -1.77439 0
M  V30 31128 O 3217.98 -2.95646 -2.87519 0
M  V30 31129 H 3217.32 -0.612239 -0.257021 0
M  V30 31130 H 3219.85 -2.03818 -0.178719 0
M  V30 31131 H 3219.86 -3.45146 -2.17574 0
M  V30 31132 H 3218.54 -3.99419 -1.1592 0
M  V30 31133 H 3217.12 -2.75761 -2.51018 0
M  V30 31134 N 3219.3 0.446741 -1.51136 0
M  V30 31135 C 3220.71 1.02691 -1.55921 0
M  V30 31136 C 3221.06 1.92542 -0.377072 0
M  V30 31137 O 3220.19 2.10371 0.507258 0
M  V30 31138 C 3220.78 1.86917 -2.82573 0
M  V30 31139 C 3219.34 2.4 -2.8996 0
M  V30 31140 C 3218.49 1.18967 -2.50484 0
M  V30 31141 H 3221.44 0.228376 -1.57048 0
M  V30 31142 H 3221.46 2.72265 -2.65804 0
M  V30 31143 H 3220.97 1.21496 -3.68592 0
M  V30 31144 H 3219.07 3.08904 -2.08349 0
M  V30 31145 H 3219.19 2.73441 -3.93404 0
M  V30 31146 H 3217.55 1.53208 -2.03469 0
M  V30 31147 H 3218.33 0.551702 -3.38838 0
M  V30 31148 N 3220.78 1.41123 0.701567 0
M  V30 31149 C 3222.03 1.39881 1.45869 0
M  V30 31150 C 3222.35 0.00672197 1.94999 0
M  V30 31151 O 3221.62 -0.95044 1.71299 0
M  V30 31152 H 3220.2 0.514866 0.541222 0
M  V30 31153 H 3222.86 1.76307 0.830772 0
M  V30 31154 H 3221.96 2.08234 2.32476 0
M  V30 31155 N 3222.26 -0.935219 1.26852 0
M  V30 31156 C 3223.51 -1.67656 1.12135 0
M  V30 31157 C 3223.82 -1.92731 -0.333805 0
M  V30 31158 O 3225.03 -2.64747 -0.601754 0
M  V30 31159 C 3223.48 -3.01927 1.95878 0
M  V30 31160 C 3223.09 -2.84578 3.46005 0
M  V30 31161 C 3224.83 -3.79712 1.89787 0
M  V30 31162 C 3222.74 -4.14358 4.21973 0
M  V30 31163 H 3221.67 -0.628826 0.416046 0
M  V30 31164 H 3224.32 -1.03959 1.51211 0
M  V30 31165 H 3222.7 -3.66639 1.4964 0
M  V30 31166 H 3223.88 -2.2868 4.00053 0
M  V30 31167 H 3222.19 -2.2023 3.53395 0
M  V30 31168 H 3224.79 -4.7587 2.43827 0
M  V30 31169 H 3225.13 -4.07111 0.869868 0
M  V30 31170 H 3225.67 -3.21784 2.3388 0
M  V30 31171 H 3222.4 -3.92141 5.25267 0
M  V30 31172 H 3221.92 -4.69949 3.72704 0
M  V30 31173 H 3223.6 -4.82773 4.30743 0
M  V30 31174 N 3223.74 -1.08752 -1.14065 0
M  V30 31175 C 3224.98 -0.828906 -1.86838 0
M  V30 31176 C 3225.34 0.633848 -1.81236 0
M  V30 31177 O 3226.54 1.00811 -2.4918 0
M  V30 31178 C 3224.81 -1.34079 -3.31297 0
M  V30 31179 S 3226.37 -1.21501 -4.21643 0
M  V30 31180 H 3223.19 -0.299984 -0.644617 0
M  V30 31181 H 3225.79 -1.38951 -1.37524 0
M  V30 31182 H 3224.5 -2.39977 -3.32925 0
M  V30 31183 H 3224.03 -0.776012 -3.8567 0
M  V30 31184 H 3226.04 -0.161533 -4.95937 0
M  V30 31185 N 3225.21 1.31165 -0.873701 0
M  V30 31186 C 3226.44 2.01276 -0.500277 0
M  V30 31187 C 3226.86 1.65129 0.900782 0
M  V30 31188 O 3226.22 0.86189 1.59503 0
M  V30 31189 C 3226.27 3.54339 -0.669039 0
M  V30 31190 O 3225.37 4.11379 0.290023 0
M  V30 31191 H 3224.72 0.63363 -0.198518 0
M  V30 31192 H 3227.25 1.67275 -1.17814 0
M  V30 31193 H 3227.26 4.04087 -0.563745 0
M  V30 31194 H 3225.93 3.79988 -1.69062 0
M  V30 31195 H 3224.51 3.72639 0.139372 0
M  V30 31196 N 3226.69 0.633512 1.44307 0
M  V30 31197 C 3227.64 -0.0821547 2.32455 0
M  V30 31198 C 3228.63 -0.833362 1.47484 0
M  V30 31199 O 3229.84 -0.745992 1.63814 0
M  V30 31200 H 3226.22 -0.0453388 0.750632 0
M  V30 31201 H 3228.19 0.679333 2.90564 0
M  V30 31202 C 3226.94 -1.04852 3.31514 0
M  V30 31203 H 3226.26 -0.479909 3.96909 0
M  V30 31204 H 3227.7 -1.51872 3.95867 0
M  V30 31205 C 3226.16 -2.13494 2.60619 0
M  V30 31206 O 3226.69 -3.21609 2.40688 0
M  V30 31207 N 3224.89 -1.89495 2.20318 0
M  V30 31208 H 3224.44 -1.01577 2.36728 0
M  V30 31209 H 3224.4 -2.62385 1.7321 0
M  V30 31210 N 3228.17 -1.53093 0.374204 0
M  V30 31211 C 3229.42 -2.00981 -0.21236 0
M  V30 31212 C 3229.74 -1.26296 -1.48574 0
M  V30 31213 O 3229.01 -0.378676 -1.92205 0
M  V30 31214 H 3227.59 -0.742545 -0.0814632 0
M  V30 31215 H 3230.25 -1.88313 0.502423 0
M  V30 31216 H 3229.35 -3.09078 -0.433262 0
M  V30 31217 N 3229.65 -0.103603 -1.57259 0
M  V30 31218 C 3230.58 0.882435 -2.11532 0
M  V30 31219 C 3231.59 1.24035 -1.05448 0
M  V30 31220 O 3232.78 1.19198 -1.32869 0
M  V30 31221 C 3229.88 2.18899 -2.58721 0
M  V30 31222 C 3229.06 2.00512 -3.88733 0
M  V30 31223 C 3228.11 3.14757 -4.21681 0
M  V30 31224 O 3227.14 2.88346 -4.9076 0
M  V30 31225 N 3228.34 4.40765 -3.77765 0
M  V30 31226 H 3231.11 0.418848 -2.96759 0
M  V30 31227 H 3228.67 0.0812637 -1.61696 0
M  V30 31228 H 3230.66 2.94293 -2.77802 0
M  V30 31229 H 3229.23 2.56654 -1.78458 0
M  V30 31230 H 3228.45 1.094 -3.78715 0
M  V30 31231 H 3229.74 1.85514 -4.73774 0
M  V30 31232 H 3229.14 4.65102 -3.22019 0
M  V30 31233 H 3227.69 5.13081 -4.01984 0
M  V30 31234 N 3231.13 1.56679 0.170126 0
M  V30 31235 C 3232.37 1.83859 0.89304 0
M  V30 31236 C 3232.73 0.684693 1.79377 0
M  V30 31237 O 3233.93 0.836971 2.55437 0
M  V30 31238 C 3232.2 3.16156 1.66673 0
M  V30 31239 S 3233.76 3.64822 2.43824 0
M  V30 31240 H 3230.58 0.645036 0.29908 0
M  V30 31241 H 3233.18 1.94888 0.154593 0
M  V30 31242 H 3231.89 3.98129 0.996082 0
M  V30 31243 H 3231.42 3.08072 2.44653 0
M  V30 31244 H 3233.43 3.32244 3.68549 0
M  V30 31245 N 3232.6 -0.43872 1.5137 0
M  V30 31246 C 3233.85 -1.18521 1.63204 0
M  V30 31247 C 3234.17 -1.9238 0.353441 0
M  V30 31248 O 3235.37 -2.6922 0.351133 0
M  V30 31249 C 3233.83 -2.15537 2.88222 0
M  V30 31250 C 3233.44 -1.47332 4.23081 0
M  V30 31251 C 3235.18 -2.90627 3.09412 0
M  V30 31252 C 3233.09 -2.42824 5.3925 0
M  V30 31253 H 3232.02 -0.446103 0.607872 0
M  V30 31254 H 3234.67 -0.45239 1.77836 0
M  V30 31255 H 3233.05 -2.92248 2.67221 0
M  V30 31256 H 3234.22 -0.761884 4.54458 0
M  V30 31257 H 3232.54 -0.843993 4.07757 0
M  V30 31258 H 3235.14 -3.62159 3.93377 0
M  V30 31259 H 3235.48 -3.51893 2.22434 0
M  V30 31260 H 3236.01 -2.21024 3.30747 0
M  V30 31261 H 3232.75 -1.86249 6.28483 0
M  V30 31262 H 3232.27 -3.12025 5.12251 0
M  V30 31263 H 3233.95 -3.03982 5.71143 0
M  V30 31264 N 3234.08 -1.41493 -0.694073 0
M  V30 31265 C 3235.03 -1.43665 -1.82929 0
M  V30 31266 C 3236.02 -0.31452 -1.66455 0
M  V30 31267 O 3237.23 -0.486619 -1.73297 0
M  V30 31268 H 3233.61 -0.449543 -0.602839 0
M  V30 31269 H 3235.58 -2.39337 -1.78214 0
M  V30 31270 C 3234.33 -1.33718 -3.20959 0
M  V30 31271 H 3233.65 -2.19351 -3.34253 0
M  V30 31272 H 3235.09 -1.39298 -4.00465 0
M  V30 31273 C 3233.55 -0.0496924 -3.36863 0
M  V30 31274 O 3234.08 0.905025 -3.91372 0
M  V30 31275 N 3232.28 0.0268788 -2.90588 0
M  V30 31276 H 3231.83 -0.750795 -2.46416 0
M  V30 31277 H 3231.79 0.887728 -3.01607 0
M  V30 31278 N 3235.56 0.928479 -1.27346 0
M  V30 31279 C 3236.79 1.71018 -1.1645 0
M  V30 31280 C 3237.2 1.86731 0.278766 0
M  V30 31281 O 3236.56 1.38378 1.18986 0
M  V30 31282 C 3236.61 3.11023 -1.84247 0
M  V30 31283 O 3236.33 2.96049 -3.22935 0
M  V30 31284 C 3237.83 4.05347 -1.79467 0
M  V30 31285 H 3235.05 0.535062 -0.404908 0
M  V30 31286 H 3237.6 1.1631 -1.68203 0
M  V30 31287 H 3235.75 3.62593 -1.36401 0
M  V30 31288 H 3236.17 3.84554 -3.56677 0
M  V30 31289 H 3237.64 5.01101 -2.3152 0
M  V30 31290 H 3238.12 4.32507 -0.763847 0
M  V30 31291 H 3238.72 3.59702 -2.26924 0
M  V30 31292 N 3237.04 1.09355 1.13486 0
M  V30 31293 C 3238.32 0.741591 1.80997 0
M  V30 31294 C 3238.7 -0.77347 1.9642 0
M  V30 31295 O 3238.04 -1.69561 1.53171 0
M  V30 31296 C 3238.25 1.47978 3.16075 0
M  V30 31297 C 3239.6 1.64511 3.91435 0
M  V30 31298 O 3240.63 1.44223 3.25696 0
M  V30 31299 O 3239.48 1.98063 5.09346 0
M  V30 31300 H 3236.58 0.266311 0.782948 0
M  V30 31301 H 3239.12 1.19571 1.20419 0
M  V30 31302 H 3237.9 2.51142 3.00072 0
M  V30 31303 H 3237.52 1.01778 3.84353 0
M  V30 31304 N 3238.52 -1.307 0.880644 0
M  V30 31305 C 3239.77 -1.95921 0.495928 0
M  V30 31306 C 3240.09 -1.69891 -0.957184 0
M  V30 31307 O 3239.36 -1.02013 -1.67243 0
M  V30 31308 H 3237.94 -0.724888 0.180406 0
M  V30 31309 H 3240.6 -1.59311 1.12277 0
M  V30 31310 H 3239.69 -3.04986 0.662562 0
M  V30 31311 N 3240 -0.641156 -1.43969 0
M  V30 31312 C 3241.22 -0.155354 -2.06817 0
M  V30 31313 C 3241.65 1.16516 -1.47667 0
M  V30 31314 O 3241 1.71706 -0.58195 0
M  V30 31315 C 3241.05 -0.064817 -3.60542 0
M  V30 31316 O 3240.16 0.976377 -4.00675 0
M  V30 31317 H 3239.5 -0.089352 -0.657961 0
M  V30 31318 H 3242.03 -0.880672 -1.84676 0
M  V30 31319 H 3242.04 0.122481 -4.07816 0
M  V30 31320 H 3240.71 -1.02886 -4.02973 0
M  V30 31321 H 3239.29 0.762841 -3.65014 0
M  V30 31322 N 3241.47 1.52892 -0.382318 0
M  V30 31323 C 3242.72 2.01489 0.202098 0
M  V30 31324 C 3243.05 1.26904 1.47396 0
M  V30 31325 O 3242.3 0.355805 1.92438 0
M  V30 31326 C 3242.6 3.53547 0.523375 0
M  V30 31327 C 3242.27 4.46101 -0.656121 0
M  V30 31328 C 3240.93 4.71121 -0.979716 0
M  V30 31329 C 3243.28 5.00753 -1.44553 0
M  V30 31330 C 3240.61 5.48044 -2.0944 0
M  V30 31331 C 3242.96 5.78894 -2.55077 0
M  V30 31332 C 3241.63 6.02196 -2.87952 0
M  V30 31333 H 3240.9 0.7373 0.0739529 0
M  V30 31334 H 3243.54 1.84355 -0.518228 0
M  V30 31335 H 3241.85 3.68718 1.32494 0
M  V30 31336 H 3243.55 3.88636 0.988079 0
M  V30 31337 H 3240.14 4.26786 -0.393893 0
M  V30 31338 H 3244.32 4.81355 -1.20878 0
M  V30 31339 H 3239.58 5.64313 -2.3529 0
M  V30 31340 H 3243.75 6.20246 -3.16651 0
M  V30 31341 H 3241.38 6.61585 -3.74446 0
M  V30 31342 N 3242.95 0.111941 1.57202 0
M  V30 31343 C 3244.37 -0.244674 1.57713 0
M  V30 31344 C 3244.57 -1.67223 1.12422 0
M  V30 31345 O 3243.62 -2.3921 0.808371 0
M  V30 31346 C 3244.94 -0.0177761 3.00695 0
M  V30 31347 C 3246.48 -0.0842231 3.12887 0
M  V30 31348 C 3246.96 0.114893 4.57856 0
M  V30 31349 N 3248.45 0.0606237 4.6316 0
M  V30 31350 C 3249.19 0.189694 5.73086 0
M  V30 31351 N 3248.68 0.374542 6.91787 0
M  V30 31352 N 3250.47 0.129768 5.6195 0
M  V30 31353 H 3242.63 1.04446 1.84945 0
M  V30 31354 H 3244.89 0.410715 0.854411 0
M  V30 31355 H 3244.59 0.968861 3.38092 0
M  V30 31356 H 3244.47 -0.75275 3.69613 0
M  V30 31357 H 3246.86 -1.06138 2.75352 0
M  V30 31358 H 3246.94 0.682517 2.46527 0
M  V30 31359 H 3246.58 1.08899 4.96088 0
M  V30 31360 H 3246.51 -0.671747 5.22298 0
M  V30 31361 H 3249 -0.0790192 3.77817 0
M  V30 31362 H 3249.31 0.464084 7.71405 0
M  V30 31363 H 3247.66 0.410425 6.93787 0
M  V30 31364 H 3250.85 -0.0136292 4.68098 0
M  V30 31365 H 3251.02 0.233802 6.47578 0
M  V30 31366 N 3244.43 -1.56767 -0.161814 0
M  V30 31367 C 3245.67 -1.8433 -0.883277 0
M  V30 31368 C 3246.03 -0.694196 -1.79011 0
M  V30 31369 O 3247.23 -0.850506 -2.5499 0
M  V30 31370 C 3245.51 -3.17036 -1.64994 0
M  V30 31371 S 3247.06 -3.6611 -2.41886 0
M  V30 31372 H 3243.88 -0.646614 -0.295655 0
M  V30 31373 H 3246.48 -1.94967 -0.144256 0
M  V30 31374 H 3245.19 -3.98651 -0.974955 0
M  V30 31375 H 3244.72 -3.09365 -2.43016 0
M  V30 31376 H 3246.73 -3.34193 -3.66782 0
M  V30 31377 N 3245.91 0.430686 -1.51601 0
M  V30 31378 C 3246.82 1.54833 -1.7625 0
M  V30 31379 C 3247.83 1.61523 -0.647013 0
M  V30 31380 O 3249.01 1.78641 -0.930019 0
M  V30 31381 C 3246.07 2.9076 -1.88838 0
M  V30 31382 C 3245.14 2.94132 -3.12706 0
M  V30 31383 C 3244.37 4.23575 -3.24684 0
M  V30 31384 O 3244.59 5.16314 -2.42438 0
M  V30 31385 O 3243.53 4.33367 -4.17704 0
M  V30 31386 H 3247.35 1.36945 -2.71071 0
M  V30 31387 H 3244.94 0.614372 -1.36183 0
M  V30 31388 H 3246.82 3.71418 -1.99064 0
M  V30 31389 H 3245.49 3.08761 -0.972041 0
M  V30 31390 H 3244.4 2.12404 -3.07953 0
M  V30 31391 H 3245.73 2.81077 -4.0405 0
M  V30 31392 N 3247.39 1.4186 0.686559 0
M  V30 31393 C 3248.63 1.43176 1.45877 0
M  V30 31394 C 3248.99 0.0423397 1.91953 0
M  V30 31395 O 3250.19 -0.0697358 2.6871 0
M  V30 31396 C 3248.46 2.41795 2.63192 0
M  V30 31397 S 3250.02 2.61716 3.52207 0
M  V30 31398 H 3246.84 0.507086 0.498383 0
M  V30 31399 H 3249.44 1.7837 0.800281 0
M  V30 31400 H 3248.14 3.41533 2.2756 0
M  V30 31401 H 3247.68 2.07986 3.33924 0
M  V30 31402 H 3249.69 1.89133 4.58741 0
M  V30 31403 N 3248.86 -0.921712 1.27837 0
M  V30 31404 C 3250.27 -1.48503 1.13153 0
M  V30 31405 C 3250.63 -1.94172 -0.281339 0
M  V30 31406 O 3249.75 -1.81732 -1.17484 0
M  V30 31407 C 3250.35 -2.69896 2.04797 0
M  V30 31408 C 3248.9 -3.22432 1.94202 0
M  V30 31409 C 3248.05 -1.95155 1.97002 0
M  V30 31410 H 3251 -0.735216 1.40642 0
M  V30 31411 H 3251.02 -3.44886 1.6073 0
M  V30 31412 H 3250.54 -2.36626 3.0762 0
M  V30 31413 H 3248.64 -3.60447 0.943868 0
M  V30 31414 H 3248.75 -3.88221 2.80751 0
M  V30 31415 H 3247.11 -2.11908 1.41305 0
M  V30 31416 H 3247.9 -1.64191 3.0149 0
M  V30 31417 N 3250.34 -1.09956 -1.12905 0
M  V30 31418 C 3251.27 -0.687807 -2.17588 0
M  V30 31419 C 3252.25 0.308416 -1.59648 0
M  V30 31420 O 3253.44 0.208494 -1.87343 0
M  V30 31421 C 3250.56 -0.0141114 -3.38697 0
M  V30 31422 C 3249.61 -0.973015 -4.15253 0
M  V30 31423 S 3250.44 -2.48785 -4.742 0
M  V30 31424 C 3251.6 -1.82672 -5.9865 0
M  V30 31425 H 3251.83 -1.5746 -2.52178 0
M  V30 31426 H 3249.36 -0.916073 -1.24288 0
M  V30 31427 H 3251.32 0.368271 -4.08845 0
M  V30 31428 H 3249.98 0.849402 -3.02397 0
M  V30 31429 H 3249.18 -0.448803 -5.01998 0
M  V30 31430 H 3248.78 -1.29706 -3.50788 0
M  V30 31431 H 3251.07 -1.154 -6.676 0
M  V30 31432 H 3252.01 -2.67355 -6.55688 0
M  V30 31433 H 3252.42 -1.29334 -5.49484 0
M  V30 31434 N 3251.82 1.30231 -0.887563 0
M  V30 31435 C 3253.07 1.95655 -0.506311 0
M  V30 31436 C 3253.39 1.70396 0.948161 0
M  V30 31437 O 3252.66 1.02898 1.667 0
M  V30 31438 H 3251.24 0.723921 -0.184248 0
M  V30 31439 H 3253.9 1.58713 -1.1312 0
M  V30 31440 H 3253 3.0463 -0.678727 0
M  V30 31441 N 3253.3 0.648782 1.43627 0
M  V30 31442 C 3254.53 0.167738 2.05918 0
M  V30 31443 C 3254.94 -1.17004 1.48684 0
M  V30 31444 O 3254.28 -1.73241 0.611014 0
M  V30 31445 C 3254.34 -0.00259195 3.595 0
M  V30 31446 C 3254.01 1.25978 4.39293 0
M  V30 31447 C 3255 2.18751 4.7164 0
M  V30 31448 C 3252.69 1.50012 4.79376 0
M  V30 31449 C 3254.68 3.33856 5.42973 0
M  V30 31450 C 3252.37 2.65411 5.50455 0
M  V30 31451 C 3253.37 3.57158 5.82175 0
M  V30 31452 O 3253.05 4.70542 6.51802 0
M  V30 31453 H 3252.79 0.0851379 0.670617 0
M  V30 31454 H 3255.34 0.888383 1.85194 0
M  V30 31455 H 3253.57 -0.778564 3.78781 0
M  V30 31456 H 3255.26 -0.44043 4.03503 0
M  V30 31457 H 3256.03 2.01423 4.41196 0
M  V30 31458 H 3251.9 0.794825 4.54096 0
M  V30 31459 H 3255.45 4.05489 5.67648 0
M  V30 31460 H 3251.35 2.82675 5.80315 0
M  V30 31461 H 3252.11 4.6975 6.70282 0
M  V30 31462 N 3254.78 -1.52688 0.390421 0
M  V30 31463 C 3255.72 -2.28025 -0.45906 0
M  V30 31464 C 3256.72 -1.31969 -1.0621 0
M  V30 31465 O 3257.92 -1.49503 -1.00244 0
M  V30 31466 H 3254.3 -0.733269 -0.166797 0
M  V30 31467 H 3256.27 -2.97744 0.1978 0
M  V30 31468 C 3255.02 -3.10051 -1.57365 0
M  V30 31469 H 3254.34 -3.83822 -1.11894 0
M  V30 31470 H 3255.78 -3.65902 -2.14223 0
M  V30 31471 C 3254.24 -2.22433 -2.53032 0
M  V30 31472 O 3254.77 -1.85187 -3.56467 0
M  V30 31473 N 3252.98 -1.86571 -2.22799 0
M  V30 31474 H 3252.52 -2.17059 -1.38719 0
M  V30 31475 H 3252.48 -1.28238 -2.87058 0
M  V30 31476 N 3256.25 -0.120276 -1.5714 0
M  V30 31477 C 3257.18 0.826074 -2.18399 0
M  V30 31478 C 3258.17 1.27636 -1.12441 0
M  V30 31479 O 3259.35 1.33874 -1.40682 0
M  V30 31480 C 3256.48 2.07575 -2.78442 0
M  V30 31481 C 3255.43 1.76321 -3.89994 0
M  V30 31482 C 3254.76 3.08329 -4.3685 0
M  V30 31483 C 3256.06 1.03053 -5.12033 0
M  V30 31484 H 3257.75 0.315604 -2.97732 0
M  V30 31485 H 3255.3 0.150361 -1.43213 0
M  V30 31486 H 3257.25 2.74238 -3.19956 0
M  V30 31487 H 3255.98 2.60949 -1.964 0
M  V30 31488 H 3254.64 1.12047 -3.49057 0
M  V30 31489 H 3254.28 3.59639 -3.51665 0
M  V30 31490 H 3253.98 2.8819 -5.12075 0
M  V30 31491 H 3255.51 3.76107 -4.81015 0
M  V30 31492 H 3256.92 1.59871 -5.50558 0
M  V30 31493 H 3255.32 0.930042 -5.92849 0
M  V30 31494 H 3256.39 0.0174968 -4.84897 0
M  V30 31495 N 3257.73 1.56851 0.153498 0
M  V30 31496 C 3259.01 1.73896 0.895514 0
M  V30 31497 C 3259.39 0.686539 1.99624 0
M  V30 31498 O 3258.74 -0.29566 2.26579 0
M  V30 31499 C 3258.95 3.17729 1.44393 0
M  V30 31500 C 3260.3 3.79221 1.90989 0
M  V30 31501 O 3261.32 3.21118 1.54149 0
M  V30 31502 O 3260.18 4.81278 2.58908 0
M  V30 31503 H 3257.27 0.710787 0.422742 0
M  V30 31504 H 3259.82 1.69122 0.139932 0
M  V30 31505 H 3258.59 3.8582 0.652568 0
M  V30 31506 H 3258.21 3.26902 2.2632 0
M  V30 31507 N 3259.21 -0.42264 1.51827 0
M  V30 31508 C 3260.44 -1.19115 1.68805 0
M  V30 31509 C 3260.85 -1.8511 0.391261 0
M  V30 31510 O 3260.19 -1.72137 -0.64145 0
M  V30 31511 C 3260.25 -2.30631 2.75771 0
M  V30 31512 C 3259.92 -1.84883 4.17932 0
M  V30 31513 C 3260.91 -1.34407 5.02226 0
M  V30 31514 C 3258.6 -1.92127 4.64104 0
M  V30 31515 C 3260.59 -0.917814 6.30757 0
M  V30 31516 C 3258.28 -1.49113 5.92629 0
M  V30 31517 C 3259.28 -0.990233 6.75784 0
M  V30 31518 O 3258.97 -0.566245 8.01903 0
M  V30 31519 H 3258.7 -0.364504 0.569309 0
M  V30 31520 H 3261.25 -0.505173 1.99091 0
M  V30 31521 H 3259.48 -3.02551 2.40832 0
M  V30 31522 H 3261.17 -2.92443 2.81481 0
M  V30 31523 H 3261.94 -1.28194 4.67751 0
M  V30 31524 H 3257.82 -2.30059 3.99492 0
M  V30 31525 H 3261.36 -0.526158 6.95613 0
M  V30 31526 H 3257.26 -1.55001 6.26614 0
M  V30 31527 H 3258.03 -0.690774 8.1558 0
M  V30 31528 N 3260.69 -1.42222 -0.679027 0
M  V30 31529 C 3261.92 -1.45855 -1.46745 0
M  V30 31530 C 3262.33 -0.0686268 -1.88675 0
M  V30 31531 O 3261.69 0.915729 -1.57863 0
M  V30 31532 C 3261.74 -2.38193 -2.71931 0
M  V30 31533 O 3261.46 -3.71777 -2.31761 0
M  V30 31534 C 3262.96 -2.50802 -3.65531 0
M  V30 31535 H 3260.18 -0.496218 -0.451673 0
M  V30 31536 H 3262.73 -1.8669 -0.83469 0
M  V30 31537 H 3260.88 -2.00622 -3.31405 0
M  V30 31538 H 3261.29 -4.21188 -3.12572 0
M  V30 31539 H 3262.77 -3.19543 -4.50107 0
M  V30 31540 H 3263.25 -1.54454 -4.11145 0
M  V30 31541 H 3263.85 -2.89077 -3.11952 0
M  V30 31542 N 3262.17 0.91492 -1.28324 0
M  V30 31543 C 3263.41 1.66065 -1.15182 0
M  V30 31544 C 3263.74 1.92675 0.300245 0
M  V30 31545 O 3263.01 1.54207 1.20818 0
M  V30 31546 H 3261.59 0.615506 -0.423275 0
M  V30 31547 H 3264.25 1.09789 -1.61036 0
M  V30 31548 H 3263.34 2.6235 -1.69053 0
M  V30 31549 N 3263.64 1.10553 1.1232 0
M  V30 31550 C 3264.89 0.849964 1.84129 0
M  V30 31551 C 3265.22 -0.622913 1.83939 0
M  V30 31552 O 3264.5 -1.45935 1.28581 0
M  V30 31553 C 3264.78 1.40054 3.31748 0
M  V30 31554 C 3264.63 2.94036 3.40386 0
M  V30 31555 C 3265.95 1.04386 4.27541 0
M  V30 31556 H 3263.07 0.310225 0.668528 0
M  V30 31557 H 3265.71 1.36888 1.31764 0
M  V30 31558 H 3263.86 0.959168 3.76473 0
M  V30 31559 H 3265.54 3.46709 3.04287 0
M  V30 31560 H 3263.78 3.30576 2.80895 0
M  V30 31561 H 3264.45 3.27643 4.44246 0
M  V30 31562 H 3266.93 1.42472 3.90949 0
M  V30 31563 H 3265.8 1.45599 5.29237 0
M  V30 31564 H 3266.06 -0.0465539 4.42075 0
M  V30 31565 N 3265.12 -1.29758 0.894457 0
M  V30 31566 C 3266.54 -1.48302 0.589804 0
M  V30 31567 C 3266.74 -1.81748 -0.870053 0
M  V30 31568 O 3265.79 -1.91079 -1.65061 0
M  V30 31569 C 3267.11 -2.59973 1.51112 0
M  V30 31570 C 3268.66 -2.7385 1.51576 0
M  V30 31571 C 3269.13 -3.88644 2.42322 0
M  V30 31572 N 3270.62 -3.95969 2.4034 0
M  V30 31573 C 3271.36 -4.84126 3.07262 0
M  V30 31574 N 3270.85 -5.77011 3.83445 0
M  V30 31575 N 3272.65 -4.77573 2.96446 0
M  V30 31576 H 3264.8 -1.06324 1.83872 0
M  V30 31577 H 3267.06 -0.527643 0.787589 0
M  V30 31578 H 3266.77 -2.42108 2.55102 0
M  V30 31579 H 3266.64 -3.5666 1.22773 0
M  V30 31580 H 3269.03 -2.91115 0.483329 0
M  V30 31581 H 3269.11 -1.77753 1.83949 0
M  V30 31582 H 3268.75 -3.72135 3.45656 0
M  V30 31583 H 3268.68 -4.84098 2.07261 0
M  V30 31584 H 3271.17 -3.29528 1.84985 0
M  V30 31585 H 3271.49 -6.41063 4.31576 0
M  V30 31586 H 3269.83 -5.76913 3.87552 0
M  V30 31587 H 3273.02 -4.03992 2.36449 0
M  V30 31588 H 3273.19 -5.46067 3.48877 0
M  V30 31589 N 3266.6 -0.65639 -1.4328 0
M  V30 31590 C 3267.84 -0.174717 -2.03652 0
M  V30 31591 C 3268.2 1.18991 -1.50682 0
M  V30 31592 O 3269.41 1.76518 -2.02719 0
M  V30 31593 C 3267.68 -0.187842 -3.56906 0
M  V30 31594 S 3269.24 0.225522 -4.3822 0
M  V30 31595 H 3266.05 -0.0735154 -0.707189 0
M  V30 31596 H 3268.66 -0.865434 -1.75301 0
M  V30 31597 H 3267.36 -1.1837 -3.92959 0
M  V30 31598 H 3266.89 0.52331 -3.89904 0
M  V30 31599 H 3268.91 1.46361 -4.74123 0
M  V30 31600 N 3268.08 1.52478 -0.398513 0
M  V30 31601 C 3269.33 2.01991 0.180984 0
M  V30 31602 C 3269.66 1.28408 1.45688 0
M  V30 31603 O 3268.93 0.387241 1.90606 0
M  V30 31604 C 3269.22 3.57408 0.439525 0
M  V30 31605 C 3269.07 4.41651 -0.852308 0
M  V30 31606 C 3270.39 4.22672 1.22623 0
M  V30 31607 H 3267.51 0.734189 0.0643035 0
M  V30 31608 H 3270.15 1.82461 -0.529892 0
M  V30 31609 H 3268.3 3.74179 1.04509 0
M  V30 31610 H 3269.97 4.36612 -1.48887 0
M  V30 31611 H 3268.21 4.08292 -1.46562 0
M  V30 31612 H 3268.89 5.4844 -0.625936 0
M  V30 31613 H 3271.36 4.09934 0.71365 0
M  V30 31614 H 3270.24 5.31377 1.37587 0
M  V30 31615 H 3270.5 3.80918 2.24396 0
M  V30 31616 N 3269.56 0.128608 1.57074 0
M  V30 31617 C 3270.83 -0.571129 1.87076 0
M  V30 31618 C 3271.21 -1.84186 1.03145 0
M  V30 31619 O 3270.56 -2.2822 0.113041 0
M  V30 31620 C 3270.77 -0.854324 3.38382 0
M  V30 31621 C 3272.12 -1.20318 4.07196 0
M  V30 31622 O 3273.14 -0.944277 3.43456 0
M  V30 31623 O 3272 -1.68954 5.19728 0
M  V30 31624 H 3269.1 -0.289244 0.774769 0
M  V30 31625 H 3271.64 0.163836 1.68907 0
M  V30 31626 H 3270.42 0.0457612 3.91273 0
M  V30 31627 H 3270.04 -1.64411 3.62015 0
M  V30 31628 N 3271.04 -1.5693 -0.145178 0
M  V30 31629 C 3272.26 -1.8761 -0.872365 0
M  V30 31630 C 3272.68 -0.717006 -1.74655 0
M  V30 31631 O 3272.04 0.313168 -1.79793 0
M  V30 31632 C 3272.09 -3.17549 -1.72756 0
M  V30 31633 O 3271.81 -4.28993 -0.888605 0
M  V30 31634 C 3273.31 -3.61756 -2.56218 0
M  V30 31635 H 3270.53 -0.621819 -0.252155 0
M  V30 31636 H 3273.07 -2.04038 -0.13742 0
M  V30 31637 H 3271.23 -3.02869 -2.41555 0
M  V30 31638 H 3271.64 -5.03306 -1.47592 0
M  V30 31639 H 3273.12 -4.55508 -3.11796 0
M  V30 31640 H 3273.59 -2.87133 -3.32342 0
M  V30 31641 H 3274.2 -3.79136 -1.92707 0
M  V30 31642 N 3272.51 0.414582 -1.52049 0
M  V30 31643 C 3273.79 1.17468 -1.56399 0
M  V30 31644 C 3274.17 2.08315 -0.341746 0
M  V30 31645 O 3273.52 2.18402 0.671762 0
M  V30 31646 C 3273.73 1.95673 -2.88986 0
M  V30 31647 C 3275.08 2.51929 -3.41785 0
M  V30 31648 O 3276.1 2.05859 -2.90689 0
M  V30 31649 O 3274.96 3.36014 -4.30995 0
M  V30 31650 H 3272.05 0.536045 -0.62975 0
M  V30 31651 H 3274.6 0.421805 -1.64374 0
M  V30 31652 H 3273.37 1.29088 -3.69394 0
M  V30 31653 H 3272.99 2.77978 -2.84278 0
M  V30 31654 N 3273.99 1.4258 0.671475 0
M  V30 31655 C 3274.9 1.48727 1.81432 0
M  V30 31656 C 3275.92 0.375745 1.69895 0
M  V30 31657 O 3277.09 0.627149 1.91387 0
M  V30 31658 C 3274.16 1.39043 3.17597 0
M  V30 31659 C 3273.22 2.60715 3.41066 0
M  V30 31660 C 3272.45 2.51484 4.70735 0
M  V30 31661 O 3272.68 1.55253 5.48865 0
M  V30 31662 O 3271.61 3.41674 4.95522 0
M  V30 31663 H 3275.44 2.45195 1.79202 0
M  V30 31664 H 3273.02 1.2438 0.827645 0
M  V30 31665 H 3274.9 1.36017 3.98845 0
M  V30 31666 H 3273.58 0.457022 3.20457 0
M  V30 31667 H 3272.48 2.69315 2.59654 0
M  V30 31668 H 3273.82 3.52966 3.43039 0
M  V30 31669 N 3275.47 -0.908102 1.28807 0
M  V30 31670 C 3276.71 -1.67217 1.17549 0
M  V30 31671 C 3277.07 -1.90087 -0.270363 0
M  V30 31672 O 3278.27 -2.63999 -0.505761 0
M  V30 31673 C 3276.55 -2.99007 1.95779 0
M  V30 31674 S 3278.1 -3.90078 2.0096 0
M  V30 31675 H 3274.92 -0.574207 0.419293 0
M  V30 31676 H 3277.52 -1.07968 1.62982 0
M  V30 31677 H 3276.23 -2.80069 2.99983 0
M  V30 31678 H 3275.76 -3.63301 1.50917 0
M  V30 31679 H 3277.77 -4.8339 1.12019 0
M  V30 31680 N 3276.95 -1.11147 -1.11732 0
M  V30 31681 C 3278.17 -0.881095 -1.87754 0
M  V30 31682 C 3278.6 0.563465 -1.79462 0
M  V30 31683 O 3277.96 1.39761 -1.15484 0
M  V30 31684 C 3278 -1.34347 -3.34639 0
M  V30 31685 O 3277.11 -0.513229 -4.09194 0
M  V30 31686 H 3276.45 -0.317623 -0.583105 0
M  V30 31687 H 3278.98 -1.48016 -1.41253 0
M  V30 31688 H 3278.99 -1.33665 -3.85484 0
M  V30 31689 H 3277.66 -2.3954 -3.3999 0
M  V30 31690 H 3276.24 -0.585897 -3.68268 0
M  V30 31691 N 3278.43 1.29282 -0.901326 0
M  V30 31692 C 3279.67 1.94773 -0.524044 0
M  V30 31693 C 3279.99 1.71826 0.934615 0
M  V30 31694 O 3281.19 2.31436 1.41949 0
M  V30 31695 C 3279.65 3.48816 -0.886324 0
M  V30 31696 C 3279.26 3.8056 -2.36386 0
M  V30 31697 C 3281 4.20532 -0.579029 0
M  V30 31698 C 3278.91 5.27854 -2.66692 0
M  V30 31699 H 3277.84 0.729077 -0.192257 0
M  V30 31700 H 3280.49 1.46984 -1.09854 0
M  V30 31701 H 3278.87 3.95268 -0.240735 0
M  V30 31702 H 3280.05 3.44961 -3.05514 0
M  V30 31703 H 3278.36 3.21986 -2.64034 0
M  V30 31704 H 3280.96 5.28947 -0.782278 0
M  V30 31705 H 3281.3 4.13494 0.482532 0
M  V30 31706 H 3281.83 3.79817 -1.18253 0
M  V30 31707 H 3278.57 5.39958 -3.71652 0
M  V30 31708 H 3278.09 5.64694 -2.02189 0
M  V30 31709 H 3279.77 5.95465 -2.53043 0
M  V30 31710 N 3279.9 0.663979 1.4293 0
M  V30 31711 C 3281.15 0.181414 2.01284 0
M  V30 31712 C 3281.47 -1.21263 1.5271 0
M  V30 31713 O 3280.74 -1.81213 0.744213 0
M  V30 31714 H 3279.32 0.0640777 0.744247 0
M  V30 31715 H 3281.98 0.858062 1.74995 0
M  V30 31716 H 3281.08 0.174328 3.11613 0
M  V30 31717 N 3281.38 -1.52265 0.406593 0
M  V30 31718 C 3282.33 -2.28499 -0.434849 0
M  V30 31719 C 3283.32 -1.33088 -1.04804 0
M  V30 31720 O 3284.53 -1.50558 -0.986531 0
M  V30 31721 H 3280.9 -0.734996 -0.15901 0
M  V30 31722 H 3282.88 -2.97517 0.229368 0
M  V30 31723 C 3281.62 -3.11703 -1.54067 0
M  V30 31724 H 3280.95 -3.84988 -1.07817 0
M  V30 31725 H 3282.39 -3.68154 -2.10331 0
M  V30 31726 C 3280.85 -2.25104 -2.50658 0
M  V30 31727 O 3281.38 -1.88958 -3.54483 0
M  V30 31728 N 3279.58 -1.88924 -2.20808 0
M  V30 31729 H 3279.13 -2.18518 -1.36409 0
M  V30 31730 H 3279.09 -1.31275 -2.85682 0
M  V30 31731 N 3282.86 -0.136936 -1.57004 0
M  V30 31732 C 3284.27 0.385545 -1.82676 0
M  V30 31733 C 3284.62 1.65414 -1.05511 0
M  V30 31734 O 3283.75 2.14349 -0.297245 0
M  V30 31735 C 3284.34 0.706268 -3.31357 0
M  V30 31736 C 3282.9 1.17331 -3.57646 0
M  V30 31737 C 3282.05 0.19119 -2.7664 0
M  V30 31738 H 3285 -0.361798 -1.54521 0
M  V30 31739 H 3285.02 1.56195 -3.46963 0
M  V30 31740 H 3284.53 -0.217215 -3.87492 0
M  V30 31741 H 3282.63 2.11308 -3.06887 0
M  V30 31742 H 3282.75 1.10624 -4.66154 0
M  V30 31743 H 3281.11 0.681824 -2.45404 0
M  V30 31744 H 3281.89 -0.725706 -3.35542 0
M  V30 31745 N 3284.34 1.57005 0.136853 0
M  V30 31746 C 3285.58 1.85712 0.85384 0
M  V30 31747 C 3285.94 0.722587 1.77884 0
M  V30 31748 O 3287.14 0.890965 2.53605 0
M  V30 31749 C 3285.41 3.19621 1.59929 0
M  V30 31750 S 3286.97 3.69912 2.36031 0
M  V30 31751 H 3283.79 0.651235 0.285331 0
M  V30 31752 H 3286.39 1.95172 0.11322 0
M  V30 31753 H 3285.1 4.00152 0.911409 0
M  V30 31754 H 3284.63 3.13192 2.38063 0
M  V30 31755 H 3286.64 3.39986 3.61419 0
M  V30 31756 N 3285.82 -0.406513 1.52267 0
M  V30 31757 C 3287.06 -1.15095 1.66125 0
M  V30 31758 C 3287.39 -1.9096 0.394869 0
M  V30 31759 O 3286.66 -1.86794 -0.590316 0
M  V30 31760 H 3285.24 -0.427864 0.612325 0
M  V30 31761 H 3287.9 -0.463073 1.89319 0
M  V30 31762 H 3286.99 -1.86357 2.50355 0
M  V30 31763 N 3287.29 -1.42934 -0.663904 0
M  V30 31764 C 3288.24 -1.47513 -1.79841 0
M  V30 31765 C 3289.24 -0.349756 -1.6575 0
M  V30 31766 O 3290.44 -0.523269 -1.72226 0
M  V30 31767 H 3286.82 -0.462229 -0.593168 0
M  V30 31768 H 3288.79 -2.43064 -1.73097 0
M  V30 31769 C 3287.54 -1.40496 -3.18051 0
M  V30 31770 H 3286.86 -2.26392 -3.29525 0
M  V30 31771 H 3288.3 -1.47761 -3.9742 0
M  V30 31772 C 3286.76 -0.121135 -3.36682 0
M  V30 31773 O 3287.29 0.821805 -3.93204 0
M  V30 31774 N 3285.5 -0.0347651 -2.90579 0
M  V30 31775 H 3285.04 -0.802895 -2.44768 0
M  V30 31776 H 3285 0.823553 -3.03422 0
M  V30 31777 N 3288.77 0.901258 -1.29287 0
M  V30 31778 C 3290.02 1.64834 -1.16936 0
M  V30 31779 C 3290.34 1.92982 0.279792 0
M  V30 31780 O 3289.61 1.5548 1.19176 0
M  V30 31781 H 3288.19 0.610982 -0.429779 0
M  V30 31782 H 3290.85 1.08074 -1.62191 0
M  V30 31783 H 3289.95 2.60542 -1.71826 0
M  V30 31784 N 3290.25 1.11738 1.11141 0
M  V30 31785 C 3291.48 0.89076 1.86743 0
M  V30 31786 C 3291.89 -0.559608 1.80316 0
M  V30 31787 O 3291.25 -1.38654 1.18665 0
M  V30 31788 C 3291.3 1.34784 3.35433 0
M  V30 31789 O 3291.02 2.74135 3.41733 0
M  V30 31790 C 3292.52 1.15709 4.27933 0
M  V30 31791 H 3289.74 0.318791 0.590435 0
M  V30 31792 H 3292.29 1.4855 1.40546 0
M  V30 31793 H 3290.44 0.796492 3.79124 0
M  V30 31794 H 3290.86 2.9402 4.34341 0
M  V30 31795 H 3292.33 1.52589 5.30491 0
M  V30 31796 H 3292.81 0.0969506 4.39093 0
M  V30 31797 H 3293.41 1.69558 3.90039 0
M  V30 31798 N 3291.73 -1.28802 0.90817 0
M  V30 31799 C 3292.97 -1.96988 0.54546 0
M  V30 31800 C 3293.33 -1.69959 -0.893196 0
M  V30 31801 O 3294.53 -2.31668 -1.3632 0
M  V30 31802 C 3292.8 -3.47398 0.839591 0
M  V30 31803 S 3294.36 -4.34917 0.582461 0
M  V30 31804 H 3291.18 -0.68169 0.202039 0
M  V30 31805 H 3293.78 -1.56443 1.17242 0
M  V30 31806 H 3292.49 -3.64565 1.8847 0
M  V30 31807 H 3292.02 -3.92886 0.201068 0
M  V30 31808 H 3294.03 -4.9293 -0.56872 0
M  V30 31809 N 3293.21 -0.67155 -1.42576 0
M  V30 31810 C 3294.43 -0.200767 -2.05924 0
M  V30 31811 C 3294.85 1.1408 -1.50436 0
M  V30 31812 O 3294.21 1.70802 -0.642875 0
M  V30 31813 C 3294.26 -0.123568 -3.61289 0
M  V30 31814 O 3293.98 -1.41212 -4.14718 0
M  V30 31815 C 3295.48 0.3711 -4.41744 0
M  V30 31816 H 3292.7 -0.0984075 -0.663745 0
M  V30 31817 H 3295.24 -0.91737 -1.82769 0
M  V30 31818 H 3293.4 0.543702 -3.83566 0
M  V30 31819 H 3293.81 -1.28334 -5.08557 0
M  V30 31820 H 3295.29 0.374031 -5.50731 0
M  V30 31821 H 3295.76 1.40578 -4.16094 0
M  V30 31822 H 3296.37 -0.264319 -4.24478 0
M  V30 31823 N 3294.68 1.52047 -0.414663 0
M  V30 31824 C 3295.63 2.28726 0.422725 0
M  V30 31825 C 3296.63 1.33642 1.04097 0
M  V30 31826 O 3297.83 1.51079 0.978532 0
M  V30 31827 H 3294.21 0.735829 0.15511 0
M  V30 31828 H 3296.18 2.97391 -0.245143 0
M  V30 31829 C 3294.93 3.12515 1.52412 0
M  V30 31830 H 3294.25 3.85554 1.05774 0
M  V30 31831 H 3295.69 3.69264 2.08375 0
M  V30 31832 C 3294.15 2.26431 2.49461 0
M  V30 31833 O 3294.68 1.90835 3.53476 0
M  V30 31834 N 3292.89 1.90092 2.19803 0
M  V30 31835 H 3292.43 2.19239 1.35249 0
M  V30 31836 H 3292.39 1.32788 2.84982 0
M  V30 31837 N 3296.16 0.145261 1.56929 0
M  V30 31838 C 3297.41 -0.507036 1.96359 0
M  V30 31839 C 3297.74 -1.6463 1.03008 0
M  V30 31840 O 3297.02 -1.94366 0.0721387 0
M  V30 31841 C 3297.3 -1.01486 3.45503 0
M  V30 31842 C 3297.15 0.122787 4.49632 0
M  V30 31843 C 3298.47 -1.89722 3.97107 0
M  V30 31844 H 3295.59 -0.182835 0.713961 0
M  V30 31845 H 3298.23 0.226135 1.88649 0
M  V30 31846 H 3296.38 -1.63964 3.52205 0
M  V30 31847 H 3298.05 0.759068 4.55012 0
M  V30 31848 H 3296.3 0.782184 4.2669 0
M  V30 31849 H 3296.97 -0.274223 5.51318 0
M  V30 31850 H 3299.44 -1.37075 3.92873 0
M  V30 31851 H 3298.32 -2.22164 5.01931 0
M  V30 31852 H 3298.58 -2.83352 3.39359 0
M  V30 31853 N 3297.64 -1.57075 -0.128525 0
M  V30 31854 C 3298.89 -1.83536 -0.836503 0
M  V30 31855 C 3299.2 -0.729432 -1.8149 0
M  V30 31856 O 3300.41 -0.880173 -2.56837 0
M  V30 31857 C 3298.87 -3.25368 -1.5383 0
M  V30 31858 C 3298.47 -4.43945 -0.601376 0
M  V30 31859 C 3300.22 -3.61086 -2.23197 0
M  V30 31860 C 3298.12 -5.76803 -1.30585 0
M  V30 31861 H 3297.05 -0.684527 -0.31613 0
M  V30 31862 H 3299.71 -1.83283 -0.0892232 0
M  V30 31863 H 3298.09 -3.20062 -2.33187 0
M  V30 31864 H 3299.26 -4.60528 0.15829 0
M  V30 31865 H 3297.58 -4.16397 -0.0151661 0
M  V30 31866 H 3300.17 -4.57613 -2.76577 0
M  V30 31867 H 3300.52 -2.88049 -3.00555 0
M  V30 31868 H 3301.05 -3.68134 -1.50739 0
M  V30 31869 H 3297.79 -6.52984 -0.573759 0
M  V30 31870 H 3297.31 -5.64123 -2.03777 0
M  V30 31871 H 3298.99 -6.20234 -1.84169 0
M  V30 31872 N 3299.12 0.398432 -1.5248 0
M  V30 31873 C 3300.37 1.14212 -1.66733 0
M  V30 31874 C 3300.69 1.90748 -0.404991 0
M  V30 31875 O 3299.96 1.87105 0.580402 0
M  V30 31876 H 3298.54 0.424611 -0.614585 0
M  V30 31877 H 3301.2 0.453026 -1.89562 0
M  V30 31878 H 3300.3 1.85027 -2.5134 0
M  V30 31879 N 3300.6 1.43284 0.656314 0
M  V30 31880 C 3301.82 1.48384 1.44903 0
M  V30 31881 C 3302.25 0.102026 1.87823 0
M  V30 31882 O 3301.61 -0.903569 1.57179 0
M  V30 31883 C 3301.65 2.43219 2.66227 0
M  V30 31884 O 3300.76 1.91632 3.65173 0
M  V30 31885 H 3300.1 0.502022 0.434592 0
M  V30 31886 H 3302.63 1.88167 0.803396 0
M  V30 31887 H 3302.64 2.6042 3.14079 0
M  V30 31888 H 3301.31 3.43602 2.3433 0
M  V30 31889 H 3299.89 1.84077 3.24299 0
M  V30 31890 N 3302.08 -0.894389 1.29763 0
M  V30 31891 C 3303.32 -1.64537 1.18042 0
M  V30 31892 C 3303.65 -1.9266 -0.266936 0
M  V30 31893 O 3302.91 -1.53918 -1.20863 0
M  V30 31894 C 3303.2 -2.99865 1.94463 0
M  V30 31895 C 3302.87 -2.9133 3.44148 0
M  V30 31896 C 3301.53 -2.88709 3.84968 0
M  V30 31897 C 3303.88 -2.80147 4.39508 0
M  V30 31898 C 3301.21 -2.72732 5.19456 0
M  V30 31899 C 3303.56 -2.65708 5.74092 0
M  V30 31900 C 3302.23 -2.61457 6.14163 0
M  V30 31901 H 3301.5 -0.602082 0.431947 0
M  V30 31902 H 3304.15 -1.0406 1.6076 0
M  V30 31903 H 3302.45 -3.64239 1.44352 0
M  V30 31904 H 3304.15 -3.56913 1.82794 0
M  V30 31905 H 3300.74 -2.94174 3.11704 0
M  V30 31906 H 3304.92 -2.81244 4.0892 0
M  V30 31907 H 3300.18 -2.67848 5.49606 0
M  V30 31908 H 3304.35 -2.56027 6.47629 0
M  V30 31909 H 3301.98 -2.48834 7.18321 0
M  V30 31910 N 3303.55 -1.12326 -1.10547 0
M  V30 31911 C 3304.46 -0.803071 -2.20427 0
M  V30 31912 C 3305.48 0.207644 -1.72757 0
M  V30 31913 O 3306.66 0.0415269 -2.01357 0
M  V30 31914 C 3303.72 -0.261093 -3.45715 0
M  V30 31915 C 3302.78 -1.33159 -4.08126 0
M  V30 31916 C 3302.01 -0.81538 -5.27435 0
M  V30 31917 O 3302.24 0.351261 -5.69317 0
M  V30 31918 O 3301.17 -1.58444 -5.80671 0
M  V30 31919 H 3305 -1.72078 -2.50246 0
M  V30 31920 H 3302.58 -0.899836 -1.19261 0
M  V30 31921 H 3304.46 0.0363266 -4.21384 0
M  V30 31922 H 3303.14 0.629193 -3.17526 0
M  V30 31923 H 3302.05 -1.68216 -3.34147 0
M  V30 31924 H 3303.38 -2.1956 -4.40516 0
M  V30 31925 N 3305.03 1.28319 -0.914988 0
M  V30 31926 C 3306.27 1.96696 -0.555899 0
M  V30 31927 C 3306.64 1.7043 0.88417 0
M  V30 31928 O 3307.84 2.32388 1.3509 0
M  V30 31929 C 3306.11 3.46948 -0.858003 0
M  V30 31930 S 3307.67 4.34602 -0.605518 0
M  V30 31931 H 3304.48 0.680609 -0.205652 0
M  V30 31932 H 3307.09 1.55819 -1.1807 0
M  V30 31933 H 3305.79 3.6356 -1.904 0
M  V30 31934 H 3305.32 3.92774 -0.2219 0
M  V30 31935 H 3307.34 4.93225 0.542571 0
M  V30 31936 N 3306.51 0.679102 1.42218 0
M  V30 31937 C 3307.46 -0.00815939 2.32599 0
M  V30 31938 C 3308.45 -0.78602 1.5006 0
M  V30 31939 O 3309.66 -0.693498 1.66104 0
M  V30 31940 H 3306.03 -0.021435 0.751694 0
M  V30 31941 H 3308 0.77143 2.88256 0
M  V30 31942 C 3306.75 -0.942522 3.34682 0
M  V30 31943 H 3306.08 -0.353393 3.98235 0
M  V30 31944 H 3307.52 -1.39201 4.00499 0
M  V30 31945 C 3305.97 -2.05094 2.67279 0
M  V30 31946 O 3306.5 -3.13789 2.50798 0
M  V30 31947 N 3304.71 -1.8239 2.26235 0
M  V30 31948 H 3304.26 -0.93994 2.39839 0
M  V30 31949 H 3304.22 -2.56741 1.8147 0
M  V30 31950 N 3307.99 -1.51825 0.42272 0
M  V30 31951 C 3309.23 -2.03864 -0.147962 0
M  V30 31952 C 3309.59 -1.30078 -1.41222 0
M  V30 31953 O 3310.79 -1.72413 -2.06221 0
M  V30 31954 C 3309.06 -3.55415 -0.376186 0
M  V30 31955 S 3310.62 -4.2921 -0.912368 0
M  V30 31956 H 3307.44 -0.709946 -0.038696 0
M  V30 31957 H 3310.04 -1.86737 0.578766 0
M  V30 31958 H 3308.75 -4.06691 0.550522 0
M  V30 31959 H 3308.28 -3.76809 -1.13041 0
M  V30 31960 H 3310.29 -4.45181 -2.19153 0
M  V30 31961 N 3309.47 -0.153581 -1.5685 0
M  V30 31962 C 3310.41 0.800628 -2.18387 0
M  V30 31963 C 3311.41 1.25051 -1.14275 0
M  V30 31964 O 3312.61 1.21822 -1.32511 0
M  V30 31965 H 3308.99 0.276413 -0.699357 0
M  V30 31966 H 3310.96 0.257483 -2.97287 0
M  V30 31967 C 3309.71 2.02703 -2.82501 0
M  V30 31968 H 3309.03 1.68986 -3.62331 0
M  V30 31969 H 3310.47 2.67397 -3.29051 0
M  V30 31970 C 3308.93 2.83927 -1.81348 0
M  V30 31971 O 3309.46 3.80491 -1.288 0
M  V30 31972 N 3307.67 2.4859 -1.50503 0
M  V30 31973 H 3307.21 1.70128 -1.93428 0
M  V30 31974 H 3307.17 3.03226 -0.830726 0
M  V30 31975 N 3310.94 1.57141 0.120193 0
M  V30 31976 C 3311.85 2.03551 1.16637 0
M  V30 31977 C 3312.87 0.955682 1.45405 0
M  V30 31978 O 3314.05 1.26711 1.56545 0
M  V30 31979 C 3311.11 2.42952 2.47336 0
M  V30 31980 C 3310.17 3.65012 2.25976 0
M  V30 31981 C 3309.4 4.02524 3.50442 0
M  V30 31982 O 3309.63 3.40392 4.577 0
M  V30 31983 O 3308.56 4.95632 3.41515 0
M  V30 31984 H 3312.39 2.92912 0.802272 0
M  V30 31985 H 3309.97 1.45689 0.330901 0
M  V30 31986 H 3311.85 2.69035 3.24343 0
M  V30 31987 H 3310.53 1.56738 2.83222 0
M  V30 31988 H 3309.44 3.44081 1.46831 0
M  V30 31989 H 3310.77 4.51927 1.94994 0
M  V30 31990 N 3312.42 -0.39034 1.5269 0
M  V30 31991 C 3313.67 -1.13326 1.67337 0
M  V30 31992 C 3313.99 -1.90531 0.415101 0
M  V30 31993 O 3313.26 -1.8741 -0.570471 0
M  V30 31994 H 3311.84 -0.421346 0.616828 0
M  V30 31995 H 3314.5 -0.442967 1.89799 0
M  V30 31996 H 3313.6 -1.83691 2.52317 0
M  V30 31997 N 3313.9 -1.4363 -0.648706 0
M  V30 31998 C 3315.15 -1.45486 -1.40855 0
M  V30 31999 C 3315.48 -0.0808305 -1.94332 0
M  V30 32000 O 3314.73 0.914845 -1.73 0
M  V30 32001 C 3315.03 -2.4481 -2.6039 0
M  V30 32002 C 3314.7 -3.90575 -2.25305 0
M  V30 32003 C 3313.36 -4.30274 -2.15448 0
M  V30 32004 C 3315.71 -4.82413 -1.97299 0
M  V30 32005 C 3313.04 -5.59758 -1.75749 0
M  V30 32006 C 3315.39 -6.12267 -1.59097 0
M  V30 32007 C 3314.05 -6.50938 -1.47769 0
M  V30 32008 H 3313.32 -0.532371 -0.515424 0
M  V30 32009 H 3315.97 -1.76737 -0.737308 0
M  V30 32010 H 3314.28 -2.06979 -3.32666 0
M  V30 32011 H 3315.97 -2.43499 -3.18605 0
M  V30 32012 H 3312.56 -3.59158 -2.33888 0
M  V30 32013 H 3316.75 -4.52511 -2.03832 0
M  V30 32014 H 3312 -5.88555 -1.65568 0
M  V30 32015 H 3316.18 -6.82899 -1.3646 0
M  V30 32016 H 3313.8 -7.51177 -1.16779 0
M  V30 32017 N 3315.38 0.887495 -1.30236 0
M  V30 32018 C 3316.29 2.02577 -1.1832 0
M  V30 32019 C 3317.3 1.73691 -0.103688 0
M  V30 32020 O 3318.48 1.98871 -0.318135 0
M  V30 32021 C 3315.55 3.35522 -0.873281 0
M  V30 32022 C 3314.61 3.77847 -2.0379 0
M  V30 32023 C 3313.84 5.04447 -1.74267 0
M  V30 32024 O 3314.06 5.66459 -0.669395 0
M  V30 32025 O 3313 5.43119 -2.59433 0
M  V30 32026 H 3316.82 2.15557 -2.13937 0
M  V30 32027 H 3314.41 1.01308 -1.09805 0
M  V30 32028 H 3316.29 4.15281 -0.715536 0
M  V30 32029 H 3314.96 3.23657 0.0529991 0
M  V30 32030 H 3313.87 2.98802 -2.25096 0
M  V30 32031 H 3315.2 3.94313 -2.94581 0
M  V30 32032 N 3316.86 1.12911 1.0995 0
M  V30 32033 C 3318.27 0.901115 1.63514 0
M  V30 32034 C 3318.62 -0.563514 1.87933 0
M  V30 32035 O 3317.74 -1.42905 1.62503 0
M  V30 32036 C 3318.34 1.62929 2.97051 0
M  V30 32037 C 3316.9 1.44732 3.47462 0
M  V30 32038 C 3316.04 1.66198 2.21976 0
M  V30 32039 H 3319 1.28317 0.933836 0
M  V30 32040 H 3319.02 1.08324 3.64755 0
M  V30 32041 H 3318.53 2.69524 2.79246 0
M  V30 32042 H 3316.63 0.404155 3.70402 0
M  V30 32043 H 3316.74 2.20678 4.2525 0
M  V30 32044 H 3315.11 1.08644 2.30366 0
M  V30 32045 H 3315.89 2.74101 2.06697 0
M  V30 32046 N 3318.33 -1.27832 0.92178 0
M  V30 32047 C 3319.58 -1.94244 0.558008 0
M  V30 32048 C 3319.9 -1.7285 -0.90265 0
M  V30 32049 O 3319.17 -1.07282 -1.63913 0
M  V30 32050 H 3317.75 -0.718782 0.203377 0
M  V30 32051 H 3320.42 -1.55658 1.17289 0
M  V30 32052 H 3319.51 -3.02724 0.759256 0
M  V30 32053 N 3319.81 -0.686634 -1.41856 0
M  V30 32054 C 3321.22 -0.289695 -1.84439 0
M  V30 32055 C 3321.57 1.17045 -1.57464 0
M  V30 32056 O 3320.7 1.89743 -1.0405 0
M  V30 32057 C 3321.29 -0.519007 -3.34801 0
M  V30 32058 C 3319.85 -0.176073 -3.75988 0
M  V30 32059 C 3319 -0.805679 -2.65338 0
M  V30 32060 H 3321.95 -0.887944 -1.31534 0
M  V30 32061 H 3321.97 0.225142 -3.79833 0
M  V30 32062 H 3321.48 -1.58179 -3.54402 0
M  V30 32063 H 3319.59 0.882801 -3.61991 0
M  V30 32064 H 3319.7 -0.624855 -4.75008 0
M  V30 32065 H 3318.06 -0.236011 -2.53604 0
M  V30 32066 H 3318.85 -1.87215 -2.87759 0
M  V30 32067 N 3321.29 1.51599 -0.430766 0
M  V30 32068 C 3322.22 2.2413 0.429067 0
M  V30 32069 C 3323.2 1.25802 1.03017 0
M  V30 32070 O 3324.39 1.54918 1.0739 0
M  V30 32071 C 3321.51 2.98663 1.59744 0
M  V30 32072 C 3320.56 4.11595 1.11765 0
M  V30 32073 S 3321.39 5.3546 0.0650527 0
M  V30 32074 C 3322.55 6.13529 1.23825 0
M  V30 32075 H 3322.78 2.96713 -0.186735 0
M  V30 32076 H 3320.31 1.52893 -0.215228 0
M  V30 32077 H 3322.27 3.42205 2.26729 0
M  V30 32078 H 3320.93 2.25682 2.18464 0
M  V30 32079 H 3320.13 4.62999 1.99117 0
M  V30 32080 H 3319.73 3.70281 0.526144 0
M  V30 32081 H 3322.02 6.42217 2.15785 0
M  V30 32082 H 3322.96 7.03963 0.764306 0
M  V30 32083 H 3323.37 5.4492 1.47384 0
M  V30 32084 N 3322.77 0.161897 1.56766 0
M  V30 32085 C 3323.7 -0.81049 2.13322 0
M  V30 32086 C 3324.68 -1.23235 1.06075 0
M  V30 32087 O 3325.86 -1.3258 1.33995 0
M  V30 32088 C 3322.99 -2.09022 2.66509 0
M  V30 32089 C 3322.04 -1.81313 3.86041 0
M  V30 32090 S 3322.87 -0.990781 5.26254 0
M  V30 32091 C 3324.03 -2.28138 5.82841 0
M  V30 32092 H 3324.26 -0.329598 2.95467 0
M  V30 32093 H 3321.79 -0.0526278 1.5431 0
M  V30 32094 H 3323.75 -2.82532 2.97802 0
M  V30 32095 H 3322.41 -2.54226 1.84467 0
M  V30 32096 H 3321.6 -2.76243 4.21552 0
M  V30 32097 H 3321.21 -1.15904 3.55587 0
M  V30 32098 H 3323.5 -3.23676 5.95181 0
M  V30 32099 H 3324.44 -1.97111 6.80112 0
M  V30 32100 H 3324.85 -2.39468 5.1119 0
M  V30 32101 N 3324.25 -1.57203 -0.111858 0
M  V30 32102 C 3325.19 -2.01851 -1.15582 0
M  V30 32103 C 3326.19 -0.916646 -1.42457 0
M  V30 32104 O 3327.39 -1.10185 -1.42335 0
M  V30 32105 H 3323.77 -0.643042 -0.389873 0
M  V30 32106 H 3325.74 -2.88748 -0.752803 0
M  V30 32107 C 3324.49 -2.44471 -2.47243 0
M  V30 32108 H 3323.81 -3.28828 -2.27403 0
M  V30 32109 H 3325.25 -2.79503 -3.18833 0
M  V30 32110 C 3323.71 -1.31121 -3.10337 0
M  V30 32111 O 3324.24 -0.631099 -3.96712 0
M  V30 32112 N 3322.45 -1.06644 -2.70324 0
M  V30 32113 H 3321.99 -1.62129 -2.00179 0
M  V30 32114 H 3321.95 -0.309999 -3.12868 0
M  V30 32115 N 3325.72 0.382237 -1.52894 0
M  V30 32116 C 3326.96 1.13547 -1.6996 0
M  V30 32117 C 3327.33 1.87039 -0.433635 0
M  V30 32118 O 3328.53 2.64466 -0.480747 0
M  V30 32119 C 3326.8 2.08237 -2.90469 0
M  V30 32120 S 3328.36 2.91305 -3.28156 0
M  V30 32121 H 3325.18 0.384264 -0.598216 0
M  V30 32122 H 3327.78 0.418965 -1.90958 0
M  V30 32123 H 3326.48 1.5298 -3.80822 0
M  V30 32124 H 3326.01 2.84386 -2.71824 0
M  V30 32125 H 3328.03 4.10421 -2.78871 0
M  V30 32126 N 3327.2 1.43972 0.64108 0
M  V30 32127 C 3328.11 1.52541 1.78237 0
M  V30 32128 C 3329.13 0.411698 1.69059 0
M  V30 32129 O 3330.31 0.667604 1.90013 0
M  V30 32130 C 3327.37 1.45749 3.14576 0
M  V30 32131 C 3326.43 2.67891 3.3546 0
M  V30 32132 C 3325.66 2.61412 4.65295 0
M  V30 32133 O 3325.89 1.6686 5.45448 0
M  V30 32134 O 3324.82 3.52108 4.88163 0
M  V30 32135 H 3328.65 2.4894 1.73961 0
M  V30 32136 H 3326.23 1.26108 0.801076 0
M  V30 32137 H 3328.11 1.44447 3.9587 0
M  V30 32138 H 3326.79 0.524893 3.19416 0
M  V30 32139 H 3325.7 2.74762 2.53883 0
M  V30 32140 H 3327.03 3.60163 3.35475 0
M  V30 32141 N 3328.68 -0.880575 1.30704 0
M  V30 32142 C 3329.96 -1.61443 1.10433 0
M  V30 32143 C 3330.34 -2.08265 -0.344801 0
M  V30 32144 O 3329.69 -1.85296 -1.33708 0
M  V30 32145 C 3329.9 -2.78059 2.10913 0
M  V30 32146 C 3331.24 -3.48283 2.42867 0
M  V30 32147 O 3332.27 -2.88253 2.09257 0
M  V30 32148 O 3331.13 -4.56548 3.00377 0
M  V30 32149 H 3328.22 -0.70978 0.424431 0
M  V30 32150 H 3330.77 -0.926966 1.42146 0
M  V30 32151 H 3329.54 -2.40798 3.08435 0
M  V30 32152 H 3329.16 -3.545 1.80043 0
M  V30 32153 N 3330.16 -1.13492 -1.09349 0
M  V30 32154 C 3331.41 -0.891801 -1.80914 0
M  V30 32155 C 3331.72 0.583667 -1.86689 0
M  V30 32156 O 3332.93 0.943744 -2.5457 0
M  V30 32157 C 3331.38 -1.54592 -3.25007 0
M  V30 32158 C 3330.99 -3.05697 -3.27495 0
M  V30 32159 C 3332.74 -1.38354 -4.01321 0
M  V30 32160 C 3330.64 -3.63991 -4.66117 0
M  V30 32161 H 3329.57 -0.32999 -0.677955 0
M  V30 32162 H 3332.22 -1.36272 -1.22891 0
M  V30 32163 H 3330.61 -1.00267 -3.83096 0
M  V30 32164 H 3331.78 -3.66609 -2.79167 0
M  V30 32165 H 3330.09 -3.21462 -2.64672 0
M  V30 32166 H 3332.69 -1.79316 -5.03736 0
M  V30 32167 H 3333.03 -0.328477 -4.15002 0
M  V30 32168 H 3333.57 -1.89662 -3.49676 0
M  V30 32169 H 3330.31 -4.69306 -4.57637 0
M  V30 32170 H 3329.83 -3.07857 -5.14766 0
M  V30 32171 H 3331.51 -3.63713 -5.35091 0
M  V30 32172 N 3331.64 1.27341 -0.928546 0
M  V30 32173 C 3332.59 2.28799 -0.418808 0
M  V30 32174 C 3333.58 1.61936 0.497305 0
M  V30 32175 O 3334.79 1.7601 0.376914 0
M  V30 32176 H 3331.16 0.742863 -0.116868 0
M  V30 32177 H 3333.13 2.69205 -1.28729 0
M  V30 32178 C 3331.88 3.46294 0.312361 0
M  V30 32179 H 3331.2 3.97958 -0.383387 0
M  V30 32180 H 3332.64 4.19242 0.63344 0
M  V30 32181 C 3331.1 3.00376 1.52565 0
M  V30 32182 O 3331.63 3.04121 2.62438 0
M  V30 32183 N 3329.84 2.55863 1.37778 0
M  V30 32184 H 3329.39 2.53015 0.483864 0
M  V30 32185 H 3329.34 2.25501 2.19081 0
M  V30 32186 N 3333.12 0.694147 1.4149 0
M  V30 32187 C 3334.03 0.0283827 2.34583 0
M  V30 32188 C 3335.04 -0.767635 1.56152 0
M  V30 32189 O 3336.22 -0.705523 1.88638 0
M  V30 32190 C 3333.28 -0.897667 3.34877 0
M  V30 32191 C 3332.34 -0.0940151 4.29197 0
M  V30 32192 C 3331.58 -0.975959 5.24701 0
M  V30 32193 O 3331.8 -2.21547 5.25617 0
M  V30 32194 O 3330.73 -0.426398 6.00388 0
M  V30 32195 H 3334.56 0.795708 2.93091 0
M  V30 32196 H 3332.14 0.454475 1.4232 0
M  V30 32197 H 3334.03 -1.42873 3.96441 0
M  V30 32198 H 3332.7 -1.64451 2.78815 0
M  V30 32199 H 3331.61 0.481618 3.70987 0
M  V30 32200 H 3332.94 0.614131 4.88354 0
M  V30 32201 N 3334.59 -1.51368 0.438799 0
M  V30 32202 C 3335.83 -2.04009 -0.126331 0
M  V30 32203 C 3336.2 -1.31569 -1.39835 0
M  V30 32204 O 3337.4 -1.74591 -2.04381 0
M  V30 32205 C 3335.67 -3.55794 -0.338468 0
M  V30 32206 S 3337.23 -4.30154 -0.866794 0
M  V30 32207 H 3334.05 -0.710317 -0.0311638 0
M  V30 32208 H 3336.65 -1.86112 0.59854 0
M  V30 32209 H 3335.35 -4.06084 0.593626 0
M  V30 32210 H 3334.88 -3.77987 -1.09038 0
M  V30 32211 H 3336.9 -4.47481 -2.14419 0
M  V30 32212 N 3336.07 -0.170208 -1.56678 0
M  V30 32213 C 3337.03 0.746584 -2.167 0
M  V30 32214 C 3338.03 1.15886 -1.11477 0
M  V30 32215 O 3339.22 1.076 -1.36996 0
M  V30 32216 C 3336.36 2.01607 -2.74895 0
M  V30 32217 H 3337.55 0.224082 -2.99062 0
M  V30 32218 H 3335.1 0.0793487 -1.56098 0
M  V30 32219 H 3335.84 2.58168 -1.96264 0
M  V30 32220 H 3335.62 1.72943 -3.51899 0
M  V30 32221 H 3337.11 2.67036 -3.21063 0
M  V30 32222 N 3337.55 1.5726 0.10352 0
M  V30 32223 C 3338.48 1.98133 1.15221 0
M  V30 32224 C 3339.49 0.882716 1.36792 0
M  V30 32225 O 3340.68 1.1609 1.35593 0
M  V30 32226 C 3337.78 2.2778 2.50937 0
M  V30 32227 C 3336.96 3.59081 2.49759 0
M  V30 32228 C 3336.02 3.76762 3.67337 0
M  V30 32229 O 3335.04 4.48708 3.50213 0
M  V30 32230 N 3336.24 3.16701 4.86499 0
M  V30 32231 H 3339.01 2.88703 0.804397 0
M  V30 32232 H 3336.57 1.59234 0.292608 0
M  V30 32233 H 3338.56 2.3681 3.28182 0
M  V30 32234 H 3337.13 1.4326 2.77841 0
M  V30 32235 H 3336.35 3.61098 1.58119 0
M  V30 32236 H 3337.64 4.45355 2.46042 0
M  V30 32237 H 3337.04 2.58245 5.03315 0
M  V30 32238 H 3335.59 3.31228 5.61365 0
M  V30 32239 N 3339.03 -0.374123 1.53095 0
M  V30 32240 C 3339.98 -1.47821 1.79588 0
M  V30 32241 C 3340.97 -1.55821 0.66454 0
M  V30 32242 O 3342.18 -1.5881 0.847318 0
M  V30 32243 H 3338.55 -0.492272 0.568482 0
M  V30 32244 H 3340.52 -1.22676 2.72017 0
M  V30 32245 C 3339.27 -2.84768 1.99505 0
M  V30 32246 H 3338.59 -2.79368 2.85996 0
M  V30 32247 H 3340.03 -3.61222 2.22024 0
M  V30 32248 C 3338.49 -3.27942 0.771731 0
M  V30 32249 O 3339.02 -4.01676 -0.0437031 0
M  V30 32250 N 3337.23 -2.84389 0.597597 0
M  V30 32251 H 3336.78 -2.24552 1.26231 0
M  V30 32252 H 3336.73 -3.13633 -0.219523 0
M  V30 32253 N 3340.51 -1.4431 -0.633436 0
M  V30 32254 C 3341.92 -1.41754 -1.21502 0
M  V30 32255 C 3342.27 -0.131701 -1.95757 0
M  V30 32256 O 3341.39 0.768037 -2.02312 0
M  V30 32257 C 3341.99 -2.56796 -2.21 0
M  V30 32258 C 3340.55 -2.57442 -2.74591 0
M  V30 32259 C 3339.69 -2.33516 -1.49551 0
M  V30 32260 H 3342.64 -1.52924 -0.424251 0
M  V30 32261 H 3342.67 -2.29417 -3.03559 0
M  V30 32262 H 3342.18 -3.50367 -1.66927 0
M  V30 32263 H 3340.28 -1.67807 -3.32673 0
M  V30 32264 H 3340.39 -3.55854 -3.20787 0
M  V30 32265 H 3338.76 -1.82564 -1.77602 0
M  V30 32266 H 3339.54 -3.29198 -0.973841 0
M  V30 32267 N 3341.98 0.873632 -1.3117 0
M  V30 32268 C 3342.91 1.99644 -1.21097 0
M  V30 32269 C 3343.9 1.69812 -0.0989982 0
M  V30 32270 O 3345.08 1.92127 -0.282973 0
M  V30 32271 C 3342.21 3.35064 -0.913743 0
M  V30 32272 C 3341.16 3.79192 -1.98489 0
M  V30 32273 C 3340.49 5.1203 -1.54042 0
M  V30 32274 C 3341.79 3.96693 -3.39752 0
M  V30 32275 H 3343.48 2.08329 -2.15033 0
M  V30 32276 H 3341.03 1.00095 -1.03523 0
M  V30 32277 H 3342.98 4.13147 -0.829893 0
M  V30 32278 H 3341.71 3.26542 0.0612897 0
M  V30 32279 H 3340.37 3.03346 -2.05857 0
M  V30 32280 H 3340.01 4.99947 -0.553349 0
M  V30 32281 H 3339.71 5.42526 -2.25697 0
M  V30 32282 H 3341.24 5.92627 -1.47058 0
M  V30 32283 H 3342.65 4.65182 -3.3508 0
M  V30 32284 H 3341.05 4.38582 -4.09592 0
M  V30 32285 H 3342.12 3.00189 -3.80808 0
M  V30 32286 N 3343.46 1.1407 1.08746 0
M  V30 32287 C 3344.39 0.847178 2.17589 0
M  V30 32288 C 3345.37 -0.196385 1.68963 0
M  V30 32289 O 3346.56 -0.0538074 1.94125 0
M  V30 32290 C 3343.69 0.320066 3.45822 0
M  V30 32291 C 3342.64 1.29868 4.07822 0
M  V30 32292 C 3341.97 0.631019 5.30964 0
M  V30 32293 C 3343.27 2.65971 4.49507 0
M  V30 32294 H 3344.96 1.75733 2.42401 0
M  V30 32295 H 3342.51 0.846377 1.16501 0
M  V30 32296 H 3344.46 0.102345 4.21276 0
M  V30 32297 H 3343.19 -0.625505 3.20554 0
M  V30 32298 H 3341.84 1.50251 3.34395 0
M  V30 32299 H 3341.49 -0.320248 5.01979 0
M  V30 32300 H 3341.19 1.28398 5.734 0
M  V30 32301 H 3342.72 0.422742 6.09135 0
M  V30 32302 H 3344.13 2.49515 5.16154 0
M  V30 32303 H 3342.53 3.27507 5.02851 0
M  V30 32304 H 3343.6 3.23108 3.61565 0
M  V30 32305 N 3344.94 -1.26847 0.935286 0
M  V30 32306 C 3346.18 -1.95786 0.587121 0
M  V30 32307 C 3346.54 -1.71815 -0.856944 0
M  V30 32308 O 3347.75 -2.34508 -1.31376 0
M  V30 32309 C 3346.02 -3.45539 0.91309 0
M  V30 32310 S 3347.58 -4.33584 0.674582 0
M  V30 32311 H 3344.39 -0.677251 0.216454 0
M  V30 32312 H 3347 -1.53921 1.20534 0
M  V30 32313 H 3345.7 -3.60485 1.9616 0
M  V30 32314 H 3345.23 -3.92371 0.284359 0
M  V30 32315 H 3347.25 -4.94025 -0.464034 0
M  V30 32316 N 3346.42 -0.701641 -1.4112 0
M  V30 32317 C 3347.38 -0.0490494 -2.29148 0
M  V30 32318 C 3348.38 0.701738 -1.4468 0
M  V30 32319 O 3349.57 0.535721 -1.65758 0
M  V30 32320 C 3346.7 0.94078 -3.27662 0
M  V30 32321 H 3347.9 -0.824183 -2.88353 0
M  V30 32322 H 3345.45 -0.465483 -1.49208 0
M  V30 32323 H 3346.18 1.74346 -2.73448 0
M  V30 32324 H 3345.97 0.405482 -3.89998 0
M  V30 32325 H 3347.46 1.395 -3.93611 0
M  V30 32326 N 3347.9 1.51133 -0.446821 0
M  V30 32327 C 3349.14 2.02165 0.116458 0
M  V30 32328 C 3349.47 1.33041 1.41881 0
M  V30 32329 O 3348.73 0.437105 1.90756 0
M  V30 32330 C 3349.03 3.55449 0.372952 0
M  V30 32331 C 3348.69 4.42916 -0.844737 0
M  V30 32332 C 3347.35 4.66542 -1.17865 0
M  V30 32333 C 3349.71 4.94172 -1.65662 0
M  V30 32334 C 3347.03 5.38667 -2.32496 0
M  V30 32335 C 3349.39 5.67555 -2.794 0
M  V30 32336 C 3348.05 5.89441 -3.13234 0
M  V30 32337 H 3347.32 0.739774 0.0426149 0
M  V30 32338 H 3349.97 1.81991 -0.595953 0
M  V30 32339 H 3348.27 3.74005 1.16736 0
M  V30 32340 H 3349.97 3.92477 0.822356 0
M  V30 32341 H 3346.56 4.24732 -0.574553 0
M  V30 32342 H 3350.74 4.75795 -1.41185 0
M  V30 32343 H 3346 5.53825 -2.59013 0
M  V30 32344 H 3350.17 6.06258 -3.42673 0
M  V30 32345 H 3347.8 6.45108 -4.02169 0
M  V30 32346 N 3349.37 0.178515 1.56586 0
M  V30 32347 C 3350.79 -0.177562 1.58609 0
M  V30 32348 C 3350.99 -1.62304 1.19413 0
M  V30 32349 O 3350.05 -2.35567 0.909101 0
M  V30 32350 C 3351.36 0.109775 3.005 0
M  V30 32351 C 3352.91 0.0485586 3.12962 0
M  V30 32352 C 3353.38 0.308982 4.56957 0
M  V30 32353 N 3354.87 0.257011 4.62486 0
M  V30 32354 C 3355.61 0.432589 5.71766 0
M  V30 32355 N 3355.1 0.667615 6.89576 0
M  V30 32356 N 3356.9 0.367994 5.60894 0
M  V30 32357 H 3349.05 1.12196 1.80349 0
M  V30 32358 H 3351.31 0.446584 0.836222 0
M  V30 32359 H 3351.02 1.11139 3.33678 0
M  V30 32360 H 3350.89 -0.595308 3.72473 0
M  V30 32361 H 3353.28 -0.943638 2.79606 0
M  V30 32362 H 3353.36 0.786463 2.4341 0
M  V30 32363 H 3353 1.29842 4.91023 0
M  V30 32364 H 3352.93 -0.449618 5.24677 0
M  V30 32365 H 3355.42 0.0812972 3.77813 0
M  V30 32366 H 3355.74 0.790845 7.68743 0
M  V30 32367 H 3354.08 0.704315 6.91422 0
M  V30 32368 H 3357.27 0.184919 4.67735 0
M  V30 32369 H 3357.45 0.508252 6.46004 0
M  V30 32370 N 3350.85 -1.57312 -0.0951784 0
M  V30 32371 C 3352.09 -1.8791 -0.804302 0
M  V30 32372 C 3352.46 -0.769496 -1.75906 0
M  V30 32373 O 3353.66 -0.957891 -2.51153 0
M  V30 32374 C 3351.93 -3.23749 -1.51399 0
M  V30 32375 S 3353.49 -3.7604 -2.26141 0
M  V30 32376 H 3350.31 -0.658571 -0.267964 0
M  V30 32377 H 3352.91 -1.95403 -0.0614338 0
M  V30 32378 H 3351.61 -4.02428 -0.804996 0
M  V30 32379 H 3351.14 -3.19394 -2.29676 0
M  V30 32380 H 3353.16 -3.49449 -3.52278 0
M  V30 32381 N 3352.33 0.365999 -1.53291 0
M  V30 32382 C 3353.26 1.47076 -1.74482 0
M  V30 32383 C 3354.24 1.51394 -0.593173 0
M  V30 32384 O 3355.43 1.69453 -0.825716 0
M  V30 32385 C 3352.55 2.8544 -1.82324 0
M  V30 32386 C 3351.6 2.98847 -3.04291 0
M  V30 32387 S 3352.43 2.67645 -4.63817 0
M  V30 32388 C 3353.59 4.0816 -4.74507 0
M  V30 32389 H 3353.82 1.28879 -2.67913 0
M  V30 32390 H 3351.35 0.56031 -1.43875 0
M  V30 32391 H 3353.31 3.65163 -1.87527 0
M  V30 32392 H 3351.97 3.00946 -0.899451 0
M  V30 32393 H 3351.17 4.0018 -3.06386 0
M  V30 32394 H 3350.77 2.27046 -2.97197 0
M  V30 32395 H 3353.06 5.02398 -4.54536 0
M  V30 32396 H 3354 4.11069 -5.76565 0
M  V30 32397 H 3354.41 3.9514 -4.03143 0
M  V30 32398 N 3353.81 1.44644 0.625774 0
M  V30 32399 C 3354.76 1.52229 1.75866 0
M  V30 32400 C 3355.75 0.393579 1.64764 0
M  V30 32401 O 3356.96 0.568748 1.70778 0
M  V30 32402 H 3353.33 0.477794 0.580704 0
M  V30 32403 H 3355.3 2.47567 1.66592 0
M  V30 32404 C 3354.05 1.48879 3.14214 0
M  V30 32405 H 3353.37 2.35049 3.23407 0
M  V30 32406 H 3354.81 1.58246 3.93363 0
M  V30 32407 C 3353.27 0.210358 3.36243 0
M  V30 32408 O 3353.8 -0.717265 3.95244 0
M  V30 32409 N 3352.01 0.111795 2.90385 0
M  V30 32410 H 3351.56 0.867508 2.42553 0
M  V30 32411 H 3351.51 -0.742817 3.05499 0
M  V30 32412 N 3355.29 -0.866663 1.31631 0
M  V30 32413 C 3356.51 -1.65267 1.24477 0
M  V30 32414 C 3356.93 -1.87848 -0.189357 0
M  V30 32415 O 3356.29 -1.43897 -1.12249 0
M  V30 32416 C 3356.34 -3.01878 1.98877 0
M  V30 32417 O 3356.06 -2.80304 3.36692 0
M  V30 32418 C 3357.56 -3.96323 1.98602 0
M  V30 32419 H 3354.78 -0.515134 0.429975 0
M  V30 32420 H 3357.32 -1.08152 1.73561 0
M  V30 32421 H 3355.48 -3.55672 1.53545 0
M  V30 32422 H 3355.89 -3.67099 3.74618 0
M  V30 32423 H 3357.37 -4.89484 2.55165 0
M  V30 32424 H 3357.84 -4.2837 0.969332 0
M  V30 32425 H 3358.45 -3.48466 2.43827 0
M  V30 32426 N 3356.77 -1.14645 -1.0814 0
M  V30 32427 C 3358.01 -0.916359 -1.8058 0
M  V30 32428 C 3358.34 0.556937 -1.86356 0
M  V30 32429 O 3357.6 1.42872 -1.33738 0
M  V30 32430 C 3357.89 -1.46579 -3.25959 0
M  V30 32431 C 3357.56 -2.9582 -3.40296 0
M  V30 32432 C 3356.22 -3.36563 -3.43917 0
M  V30 32433 C 3358.57 -3.91771 -3.43751 0
M  V30 32434 C 3355.9 -4.71916 -3.48586 0
M  V30 32435 C 3358.25 -5.26985 -3.49956 0
M  V30 32436 C 3356.92 -5.67237 -3.5185 0
M  V30 32437 H 3356.19 -0.335319 -0.660789 0
M  V30 32438 H 3358.84 -1.43057 -1.27306 0
M  V30 32439 H 3357.14 -0.872574 -3.8196 0
M  V30 32440 H 3358.84 -1.26367 -3.80569 0
M  V30 32441 H 3355.43 -2.63321 -3.38172 0
M  V30 32442 H 3359.61 -3.61372 -3.40182 0
M  V30 32443 H 3354.87 -5.02459 -3.48346 0
M  V30 32444 H 3359.04 -6.01139 -3.51575 0
M  V30 32445 H 3356.67 -6.72103 -3.55221 0
M  V30 32446 N 3358.24 1.26349 -0.942 0
M  V30 32447 C 3359.49 1.93332 -0.58884 0
M  V30 32448 C 3359.81 1.74264 0.875036 0
M  V30 32449 O 3359.08 1.09876 1.62185 0
M  V30 32450 H 3357.66 0.715455 -0.214786 0
M  V30 32451 H 3360.32 1.53772 -1.1975 0
M  V30 32452 H 3359.42 3.01478 -0.80732 0
M  V30 32453 N 3359.72 0.709115 1.40746 0
M  V30 32454 C 3360.95 0.253852 2.05841 0
M  V30 32455 C 3361.37 -1.09338 1.53058 0
M  V30 32456 O 3360.73 -1.68734 0.663211 0
M  V30 32457 C 3360.78 0.236762 3.59822 0
M  V30 32458 O 3359.88 -0.784097 4.04877 0
M  V30 32459 H 3359.22 0.120642 0.652948 0
M  V30 32460 H 3361.75 0.967781 1.80264 0
M  V30 32461 H 3361.76 0.0722333 4.07936 0
M  V30 32462 H 3360.44 1.21995 3.97605 0
M  V30 32463 H 3359.01 -0.587819 3.68238 0
M  V30 32464 N 3361.2 -1.50894 0.454829 0
M  V30 32465 C 3362.43 -2.06339 -0.103749 0
M  V30 32466 C 3362.84 -1.32056 -1.35491 0
M  V30 32467 O 3362.18 -0.378552 -1.79757 0
M  V30 32468 C 3362.24 -3.56361 -0.474013 0
M  V30 32469 C 3361.91 -4.5202 0.672815 0
M  V30 32470 C 3362.9 -4.96253 1.55012 0
M  V30 32471 C 3360.59 -4.94909 0.858522 0
M  V30 32472 C 3362.58 -5.82065 2.59768 0
M  V30 32473 C 3360.27 -5.80507 1.90933 0
M  V30 32474 C 3361.27 -6.23984 2.77728 0
M  V30 32475 O 3360.96 -7.07879 3.81002 0
M  V30 32476 H 3360.69 -0.675991 -0.00354122 0
M  V30 32477 H 3363.24 -1.95245 0.63785 0
M  V30 32478 H 3361.47 -3.653 -1.26857 0
M  V30 32479 H 3363.16 -3.94243 -0.965775 0
M  V30 32480 H 3363.93 -4.638 1.41826 0
M  V30 32481 H 3359.81 -4.60598 0.192464 0
M  V30 32482 H 3363.35 -6.15922 3.27546 0
M  V30 32483 H 3359.25 -6.12373 2.04132 0
M  V30 32484 H 3360.01 -7.26095 3.77793 0
M  V30 32485 N 3362.68 -0.186817 -1.56489 0
M  V30 32486 C 3363.59 0.749503 -2.22305 0
M  V30 32487 C 3364.6 1.24113 -1.21951 0
M  V30 32488 O 3365.78 1.29002 -1.54663 0
M  V30 32489 C 3362.84 1.95527 -2.86304 0
M  V30 32490 C 3361.91 1.50903 -4.01904 0
M  V30 32491 C 3361.14 2.65732 -4.62841 0
M  V30 32492 O 3361.36 3.83003 -4.22688 0
M  V30 32493 O 3360.3 2.38919 -5.5245 0
M  V30 32494 H 3364.12 0.219027 -3.02909 0
M  V30 32495 H 3361.71 0.0420986 -1.49341 0
M  V30 32496 H 3363.59 2.66015 -3.26824 0
M  V30 32497 H 3362.26 2.47451 -2.08685 0
M  V30 32498 H 3361.17 0.773196 -3.66023 0
M  V30 32499 H 3362.5 1.03654 -4.81162 0
M  V30 32500 N 3364.16 1.57361 0.0868344 0
M  V30 32501 C 3365.4 1.88334 0.794325 0
M  V30 32502 C 3365.76 0.778814 1.75495 0
M  V30 32503 O 3366.96 0.971196 2.50642 0
M  V30 32504 C 3365.23 3.24547 1.4968 0
M  V30 32505 S 3366.79 3.77234 2.24143 0
M  V30 32506 H 3363.61 0.659983 0.264468 0
M  V30 32507 H 3366.21 1.95433 0.0510703 0
M  V30 32508 H 3364.91 4.02849 0.783643 0
M  V30 32509 H 3364.45 3.20608 2.27979 0
M  V30 32510 H 3366.46 3.51313 3.5042 0
M  V30 32511 N 3365.63 -0.357865 1.53483 0
M  V30 32512 C 3366.86 -1.1201 1.73958 0
M  V30 32513 C 3367.28 -1.82803 0.472085 0
M  V30 32514 O 3366.63 -1.73841 -0.555469 0
M  V30 32515 C 3366.68 -2.14454 2.91019 0
M  V30 32516 O 3366.41 -1.46542 4.12864 0
M  V30 32517 C 3367.91 -3.03165 3.23429 0
M  V30 32518 H 3365.13 -0.334611 0.581615 0
M  V30 32519 H 3367.67 -0.414432 2.00257 0
M  V30 32520 H 3365.83 -2.80607 2.67092 0
M  V30 32521 H 3366.24 -2.14861 4.78472 0
M  V30 32522 H 3367.71 -3.71011 4.08724 0
M  V30 32523 H 3368.19 -3.684 2.3912 0
M  V30 32524 H 3368.8 -2.42618 3.49309 0
M  V30 32525 N 3367.11 -1.44974 -0.618094 0
M  V30 32526 C 3368.35 -1.49973 -1.3888 0
M  V30 32527 C 3368.72 -0.133875 -1.91533 0
M  V30 32528 O 3369.92 -0.0585484 -2.68736 0
M  V30 32529 C 3368.19 -2.54077 -2.51355 0
M  V30 32530 S 3369.75 -2.78222 -3.3932 0
M  V30 32531 H 3366.56 -0.530287 -0.473621 0
M  V30 32532 H 3369.17 -1.81985 -0.714267 0
M  V30 32533 H 3367.87 -3.52001 -2.11006 0
M  V30 32534 H 3367.4 -2.23681 -3.23621 0
M  V30 32535 H 3369.42 -2.10805 -4.49195 0
M  V30 32536 N 3368.59 0.85967 -1.32089 0
M  V30 32537 C 3370 1.42936 -1.2011 0
M  V30 32538 C 3370.35 1.95294 0.188376 0
M  V30 32539 O 3369.48 1.8713 1.0868 0
M  V30 32540 C 3370.07 2.59817 -2.17441 0
M  V30 32541 C 3368.63 3.128 -2.09364 0
M  V30 32542 C 3367.78 1.85533 -2.06089 0
M  V30 32543 H 3370.73 0.667277 -1.4399 0
M  V30 32544 H 3370.75 3.36824 -1.77001 0
M  V30 32545 H 3370.26 2.21679 -3.18559 0
M  V30 32546 H 3368.36 3.55533 -1.11477 0
M  V30 32547 H 3368.48 3.74384 -2.98954 0
M  V30 32548 H 3366.84 2.04925 -1.51254 0
M  V30 32549 H 3367.62 1.49619 -3.0898 0
M  V30 32550 N 3370.07 1.15217 1.0753 0
M  V30 32551 C 3371.32 0.92047 1.79472 0
M  V30 32552 C 3371.63 -0.553893 1.87594 0
M  V30 32553 O 3372.84 -0.903124 2.56039 0
M  V30 32554 C 3371.29 1.59743 3.22506 0
M  V30 32555 C 3370.9 3.10869 3.22591 0
M  V30 32556 C 3372.64 1.44721 3.99069 0
M  V30 32557 C 3370.55 3.7136 4.60267 0
M  V30 32558 H 3369.48 0.340734 0.672619 0
M  V30 32559 H 3372.13 1.3821 1.20707 0
M  V30 32560 H 3370.51 1.06349 3.81452 0
M  V30 32561 H 3371.69 3.71004 2.73299 0
M  V30 32562 H 3370 3.25632 2.59524 0
M  V30 32563 H 3372.6 1.87308 5.00819 0
M  V30 32564 H 3372.94 0.394458 4.14427 0
M  V30 32565 H 3373.48 1.95201 3.46614 0
M  V30 32566 H 3370.21 4.76527 4.50113 0
M  V30 32567 H 3369.73 3.16007 5.09803 0
M  V30 32568 H 3371.41 3.72179 5.29237 0
M  V30 32569 N 3371.55 -1.25848 0.948687 0
M  V30 32570 C 3372.79 -1.93017 0.599084 0
M  V30 32571 C 3373.12 -1.74726 -0.865783 0
M  V30 32572 O 3372.39 -1.10734 -1.616 0
M  V30 32573 H 3370.97 -0.714306 0.218577 0
M  V30 32574 H 3373.63 -1.53135 1.20564 0
M  V30 32575 H 3372.72 -3.01045 0.823297 0
M  V30 32576 N 3373.02 -0.716569 -1.40368 0
M  V30 32577 C 3374.25 -0.265793 -2.04883 0
M  V30 32578 C 3374.66 1.09777 -1.54097 0
M  V30 32579 O 3374.01 1.70128 -0.692974 0
M  V30 32580 C 3374.07 -0.168933 -3.59103 0
M  V30 32581 C 3373.73 -1.46794 -4.32782 0
M  V30 32582 C 3374.73 -2.41005 -4.60666 0
M  V30 32583 C 3372.41 -1.72713 -4.71673 0
M  V30 32584 C 3374.41 -3.59381 -5.26426 0
M  V30 32585 C 3372.09 -2.91371 -5.37165 0
M  V30 32586 C 3373.09 -3.84527 -5.64471 0
M  V30 32587 O 3372.78 -5.01104 -6.2861 0
M  V30 32588 H 3372.51 -0.117037 -0.665792 0
M  V30 32589 H 3375.07 -0.97573 -1.80745 0
M  V30 32590 H 3373.3 0.596956 -3.82065 0
M  V30 32591 H 3374.99 0.247411 -4.05145 0
M  V30 32592 H 3375.75 -2.22244 -4.31083 0
M  V30 32593 H 3371.63 -1.01057 -4.49787 0
M  V30 32594 H 3375.17 -4.3211 -5.47656 0
M  V30 32595 H 3371.07 -3.1004 -5.66167 0
M  V30 32596 H 3371.84 -5.01195 -6.47106 0
M  V30 32597 N 3374.5 1.50651 -0.462825 0
M  V30 32598 C 3375.47 2.26895 0.324224 0
M  V30 32599 C 3376.47 1.31343 0.927664 0
M  V30 32600 O 3377.66 1.5484 0.798132 0
M  V30 32601 C 3374.79 3.08002 1.46107 0
M  V30 32602 H 3375.98 2.97917 -0.344318 0
M  V30 32603 H 3373.53 1.54791 -0.216658 0
M  V30 32604 H 3374.27 2.41458 2.16492 0
M  V30 32605 H 3374.05 3.78213 1.03427 0
M  V30 32606 H 3375.54 3.65688 2.01649 0
M  V30 32607 N 3375.98 0.195113 1.56388 0
M  V30 32608 C 3376.91 -0.720932 2.22092 0
M  V30 32609 C 3377.89 -1.22126 1.18403 0
M  V30 32610 O 3379.08 -1.2701 1.46909 0
M  V30 32611 C 3376.21 -1.94054 2.88028 0
M  V30 32612 C 3375.16 -1.57513 3.97962 0
M  V30 32613 C 3374.49 -2.87135 4.51063 0
M  V30 32614 C 3375.79 -0.785054 5.16366 0
M  V30 32615 H 3377.48 -0.173193 2.98899 0
M  V30 32616 H 3375.03 -0.0818615 1.43767 0
M  V30 32617 H 3376.98 -2.5866 3.32676 0
M  V30 32618 H 3375.7 -2.51281 2.08627 0
M  V30 32619 H 3374.36 -0.952653 3.54006 0
M  V30 32620 H 3374.01 -3.42451 3.68424 0
M  V30 32621 H 3373.71 -2.6343 5.25241 0
M  V30 32622 H 3375.23 -3.52729 4.98412 0
M  V30 32623 H 3376.65 -1.33421 5.57559 0
M  V30 32624 H 3375.05 -0.646126 5.96611 0
M  V30 32625 H 3376.12 0.213874 4.84428 0
M  V30 32626 N 3377.46 -1.57404 -0.0784879 0
M  V30 32627 C 3378.87 -1.53611 -0.433116 0
M  V30 32628 C 3379.07 -0.914315 -1.79562 0
M  V30 32629 O 3378.13 -0.513942 -2.47214 0
M  V30 32630 C 3379.44 -2.98285 -0.380334 0
M  V30 32631 C 3380.99 -3.09586 -0.461002 0
M  V30 32632 C 3381.47 -4.55899 -0.438196 0
M  V30 32633 N 3382.96 -4.6051 -0.498467 0
M  V30 32634 C 3383.69 -5.7119 -0.502928 0
M  V30 32635 N 3383.19 -6.91254 -0.462602 0
M  V30 32636 N 3384.98 -5.59413 -0.548984 0
M  V30 32637 H 3377.13 -1.96193 0.813758 0
M  V30 32638 H 3379.4 -0.897712 0.30466 0
M  V30 32639 H 3379.1 -3.47309 0.553993 0
M  V30 32640 H 3378.98 -3.57835 -1.19307 0
M  V30 32641 H 3381.36 -2.6054 -1.38575 0
M  V30 32642 H 3381.44 -2.52959 0.380182 0
M  V30 32643 H 3381.09 -5.05601 0.482677 0
M  V30 32644 H 3381.02 -5.10382 -1.29682 0
M  V30 32645 H 3383.51 -3.74106 -0.534153 0
M  V30 32646 H 3383.82 -7.71371 -0.469747 0
M  V30 32647 H 3382.17 -6.93672 -0.429393 0
M  V30 32648 H 3385.36 -4.64516 -0.578134 0
M  V30 32649 H 3385.53 -6.4567 -0.548992 0
M  V30 32650 N 3378.94 0.34972 -1.53671 0
M  V30 32651 C 3379.85 1.45272 -1.8421 0
M  V30 32652 C 3380.86 1.57866 -0.731723 0
M  V30 32653 O 3382.04 1.7346 -1.0234 0
M  V30 32654 C 3379.1 2.80341 -2.03985 0
M  V30 32655 C 3378.16 2.77142 -3.27858 0
M  V30 32656 C 3377.4 4.05769 -3.4668 0
M  V30 32657 O 3377.62 5.02737 -2.69466 0
M  V30 32658 O 3376.55 4.10616 -4.40089 0
M  V30 32659 H 3380.38 1.22384 -2.77949 0
M  V30 32660 H 3377.97 0.541321 -1.39248 0
M  V30 32661 H 3379.85 3.60344 -2.18472 0
M  V30 32662 H 3378.52 3.03174 -1.13434 0
M  V30 32663 H 3377.43 1.95782 -3.18779 0
M  V30 32664 H 3378.76 2.59264 -4.18382 0
M  V30 32665 N 3380.41 1.45299 0.610397 0
M  V30 32666 C 3381.69 1.39644 1.36964 0
M  V30 32667 C 3382.07 0.0656128 2.10998 0
M  V30 32668 O 3381.42 -0.95237 2.07707 0
M  V30 32669 C 3381.63 2.6083 2.31881 0
M  V30 32670 C 3382.98 3.05796 2.94575 0
M  V30 32671 O 3384 2.61183 2.42202 0
M  V30 32672 O 3382.86 3.83209 3.89632 0
M  V30 32673 H 3379.95 0.554015 0.614 0
M  V30 32674 H 3382.5 1.57423 0.63372 0
M  V30 32675 H 3381.27 3.49276 1.76415 0
M  V30 32676 H 3380.9 2.4537 3.12857 0
M  V30 32677 N 3381.89 -0.852653 1.32543 0
M  V30 32678 C 3382.82 -1.96805 1.17475 0
M  V30 32679 C 3383.84 -1.62433 0.109226 0
M  V30 32680 O 3385.03 -1.74865 0.358372 0
M  V30 32681 C 3382.13 -3.29887 0.776386 0
M  V30 32682 C 3381.3 -3.92487 1.93062 0
M  V30 32683 C 3380.36 -5.03904 1.51548 0
M  V30 32684 O 3379.38 -5.23792 2.2278 0
M  V30 32685 N 3380.59 -5.79032 0.412635 0
M  V30 32686 H 3383.35 -2.10272 2.13555 0
M  V30 32687 H 3380.91 -1.02762 1.25106 0
M  V30 32688 H 3382.9 -4.01831 0.481031 0
M  V30 32689 H 3381.47 -3.12461 -0.09332 0
M  V30 32690 H 3380.69 -3.13304 2.39236 0
M  V30 32691 H 3381.98 -4.31045 2.70329 0
M  V30 32692 H 3381.38 -5.65413 -0.180186 0
M  V30 32693 H 3379.94 -6.5156 0.176894 0
M  V30 32694 N 3383.37 -1.15786 -1.06918 0
M  V30 32695 C 3384.32 -0.858654 -2.14233 0
M  V30 32696 C 3385.29 0.190266 -1.65007 0
M  V30 32697 O 3386.47 0.0568518 -1.90715 0
M  V30 32698 C 3383.61 -0.358941 -3.43228 0
M  V30 32699 C 3382.73 -1.46995 -4.06222 0
M  V30 32700 C 3381.86 -0.925904 -5.23068 0
M  V30 32701 C 3380.9 -2.01355 -5.78033 0
M  V30 32702 N 3380.04 -1.48556 -6.86204 0
M  V30 32703 H 3384.88 -1.77773 -2.39167 0
M  V30 32704 H 3382.41 -0.886946 -1.17353 0
M  V30 32705 H 3384.37 -0.0508931 -4.17169 0
M  V30 32706 H 3383 0.523203 -3.18532 0
M  V30 32707 H 3382.05 -1.89409 -3.29892 0
M  V30 32708 H 3383.37 -2.29095 -4.43076 0
M  V30 32709 H 3382.52 -0.570661 -6.0401 0
M  V30 32710 H 3381.26 -0.0741229 -4.87644 0
M  V30 32711 H 3380.26 -2.37756 -4.95734 0
M  V30 32712 H 3381.49 -2.86918 -6.15512 0
M  V30 32713 H 3379.43 -0.656206 -6.5271 0
M  V30 32714 H 3379.35 -2.24279 -7.21966 0
M  V30 32715 H 3380.62 -1.1587 -7.7084 0
M  V30 32716 N 3384.85 1.25343 -0.955348 0
M  V30 32717 C 3385.78 2.24295 -0.420339 0
M  V30 32718 C 3386.76 1.54763 0.498726 0
M  V30 32719 O 3387.94 1.83461 0.432939 0
M  V30 32720 C 3385.07 3.36394 0.394516 0
M  V30 32721 C 3384.12 4.23957 -0.465048 0
M  V30 32722 S 3384.95 5.00746 -1.89773 0
M  V30 32723 C 3386.11 6.16312 -1.09132 0
M  V30 32724 H 3386.34 2.69329 -1.25893 0
M  V30 32725 H 3383.87 1.3443 -0.759473 0
M  V30 32726 H 3385.83 4.01418 0.858717 0
M  V30 32727 H 3384.49 2.89944 1.20794 0
M  V30 32728 H 3383.68 5.03746 0.159966 0
M  V30 32729 H 3383.29 3.63872 -0.864486 0
M  V30 32730 H 3385.58 6.76645 -0.340337 0
M  V30 32731 H 3386.52 6.83149 -1.86316 0
M  V30 32732 H 3386.93 5.61072 -0.621131 0
M  V30 32733 N 3386.33 0.724003 1.39986 0
M  V30 32734 C 3387.57 0.271683 2.02586 0
M  V30 32735 C 3387.93 -1.11666 1.56188 0
M  V30 32736 O 3389.13 -1.66645 2.1091 0
M  V30 32737 C 3387.4 0.357913 3.55603 0
M  V30 32738 S 3388.96 -0.0161843 4.38797 0
M  V30 32739 H 3385.78 0.107173 0.702876 0
M  V30 32740 H 3388.38 0.948087 1.70972 0
M  V30 32741 H 3387.09 1.36984 3.86864 0
M  V30 32742 H 3386.62 -0.336685 3.91957 0
M  V30 32743 H 3388.63 -1.23573 4.80566 0
M  V30 32744 N 3387.81 -1.50403 0.470808 0
M  V30 32745 C 3388.75 -2.28521 -0.32351 0
M  V30 32746 C 3389.72 -1.33561 -0.987449 0
M  V30 32747 O 3390.91 -1.62499 -0.999941 0
M  V30 32748 C 3388.05 -3.15439 -1.39972 0
M  V30 32749 C 3387.16 -4.2543 -0.750582 0
M  V30 32750 C 3386.3 -4.99605 -1.80466 0
M  V30 32751 C 3385.33 -6.01471 -1.13575 0
M  V30 32752 N 3384.47 -6.68926 -2.13267 0
M  V30 32753 H 3389.31 -2.9595 0.348954 0
M  V30 32754 H 3386.85 -1.45946 0.183934 0
M  V30 32755 H 3388.81 -3.64184 -2.03534 0
M  V30 32756 H 3387.44 -2.50058 -2.04135 0
M  V30 32757 H 3386.49 -3.804 -0.00240405 0
M  V30 32758 H 3387.8 -4.98303 -0.22255 0
M  V30 32759 H 3386.95 -5.52067 -2.51609 0
M  V30 32760 H 3385.69 -4.26437 -2.36649 0
M  V30 32761 H 3384.7 -5.4827 -0.409946 0
M  V30 32762 H 3385.92 -6.76612 -0.580816 0
M  V30 32763 H 3383.87 -5.98549 -2.68468 0
M  V30 32764 H 3383.79 -7.37674 -1.65448 0
M  V30 32765 H 3385.05 -7.26005 -2.83791 0
M  V30 32766 N 3389.28 -0.203404 -1.56282 0
M  V30 32767 C 3390.56 0.481222 -1.89588 0
M  V30 32768 C 3390.94 1.79055 -1.11815 0
M  V30 32769 O 3390.29 2.27421 -0.221799 0
M  V30 32770 C 3390.5 0.691904 -3.42073 0
M  V30 32771 C 3391.85 1.00754 -4.12473 0
M  V30 32772 O 3392.87 0.779335 -3.4757 0
M  V30 32773 O 3391.73 1.43964 -5.27197 0
M  V30 32774 H 3388.82 0.251949 -0.787687 0
M  V30 32775 H 3391.37 -0.244237 -1.67933 0
M  V30 32776 H 3390.14 -0.232391 -3.90609 0
M  V30 32777 H 3389.76 1.46952 -3.69447 0
M  V30 32778 N 3390.76 1.57444 0.0701393 0
M  V30 32779 C 3391.69 2.06841 1.08347 0
M  V30 32780 C 3392.67 0.962249 1.40267 0
M  V30 32781 O 3393.86 1.23507 1.49865 0
M  V30 32782 C 3390.99 2.51372 2.39645 0
M  V30 32783 C 3389.94 3.65879 2.22073 0
M  V30 32784 C 3389.27 3.96471 3.58769 0
M  V30 32785 C 3390.57 4.95865 1.6406 0
M  V30 32786 H 3392.26 2.91752 0.672414 0
M  V30 32787 H 3389.81 1.40354 0.322002 0
M  V30 32788 H 3391.76 2.84542 3.10828 0
M  V30 32789 H 3390.48 1.63492 2.82733 0
M  V30 32790 H 3389.14 3.32994 1.53331 0
M  V30 32791 H 3388.79 3.05719 3.9943 0
M  V30 32792 H 3388.49 4.73576 3.4785 0
M  V30 32793 H 3390.02 4.32139 4.3138 0
M  V30 32794 H 3391.43 5.27255 2.25111 0
M  V30 32795 H 3389.83 5.77303 1.63833 0
M  V30 32796 H 3390.9 4.81146 0.602235 0
M  V30 32797 N 3392.24 -0.341566 1.53854 0
M  V30 32798 C 3393.52 -1.09872 1.61825 0
M  V30 32799 C 3393.9 -2.06448 0.440747 0
M  V30 32800 O 3393.24 -2.21359 -0.566794 0
M  V30 32801 C 3393.45 -1.81662 2.97993 0
M  V30 32802 C 3394.8 -2.35335 3.53416 0
M  V30 32803 O 3395.83 -1.91756 3.0018 0
M  V30 32804 O 3394.69 -3.15068 4.46536 0
M  V30 32805 H 3391.78 -0.505389 0.654608 0
M  V30 32806 H 3394.33 -0.342899 1.662 0
M  V30 32807 H 3393.1 -1.11317 3.75132 0
M  V30 32808 H 3392.72 -2.64098 2.97217 0
M  V30 32809 N 3393.72 -1.45621 -0.602683 0
M  V30 32810 C 3394.63 -1.57213 -1.74129 0
M  V30 32811 C 3395.64 -0.456376 -1.67908 0
M  V30 32812 O 3396.82 -0.717747 -1.88176 0
M  V30 32813 C 3393.88 -1.54038 -3.10601 0
M  V30 32814 C 3392.95 -2.76691 -3.28239 0
M  V30 32815 C 3392.18 -2.73657 -4.582 0
M  V30 32816 O 3392.4 -1.81263 -5.40833 0
M  V30 32817 O 3391.34 -3.64927 -4.78656 0
M  V30 32818 H 3395.16 -2.53465 -1.67299 0
M  V30 32819 H 3392.75 -1.28187 -0.767359 0
M  V30 32820 H 3394.63 -1.54892 -3.91901 0
M  V30 32821 H 3393.3 -0.609396 -3.17912 0
M  V30 32822 H 3392.21 -2.81397 -2.46509 0
M  V30 32823 H 3393.54 -3.68931 -3.25808 0
M  V30 32824 N 3395.2 0.845612 -1.32993 0
M  V30 32825 C 3396.44 1.61419 -1.25393 0
M  V30 32826 C 3396.8 1.9116 0.179362 0
M  V30 32827 O 3398 2.66111 0.379228 0
M  V30 32828 C 3396.27 2.89326 -2.09822 0
M  V30 32829 S 3397.83 3.80045 -2.19342 0
M  V30 32830 H 3394.65 0.553548 -0.446212 0
M  V30 32831 H 3397.25 1.00069 -1.67948 0
M  V30 32832 H 3395.95 2.65437 -3.13004 0
M  V30 32833 H 3395.49 3.55687 -1.68079 0
M  V30 32834 H 3397.5 4.77495 -1.34955 0
M  V30 32835 N 3396.67 1.16351 1.06302 0
M  V30 32836 C 3397.64 0.872457 2.11945 0
M  V30 32837 C 3398.64 -0.132506 1.60253 0
M  V30 32838 O 3399.83 0.0983747 1.73922 0
M  V30 32839 C 3396.96 0.304706 3.39535 0
M  V30 32840 H 3398.15 1.80899 2.39198 0
M  V30 32841 H 3395.7 0.97244 1.22365 0
M  V30 32842 H 3396.44 -0.639509 3.17932 0
M  V30 32843 H 3396.22 1.02885 3.78361 0
M  V30 32844 H 3397.71 0.11901 4.1743 0
M  V30 32845 N 3398.15 -1.24835 0.961982 0
M  V30 32846 C 3399.06 -2.2932 0.494916 0
M  V30 32847 C 3400.08 -1.6831 -0.441333 0
M  V30 32848 O 3401.25 -1.98909 -0.315779 0
M  V30 32849 C 3398.32 -3.46046 -0.212883 0
M  V30 32850 C 3397.38 -4.22474 0.762485 0
M  V30 32851 C 3396.61 -5.33627 0.0883694 0
M  V30 32852 O 3396.84 -5.59206 -1.1245 0
M  V30 32853 O 3395.77 -5.96855 0.777634 0
M  V30 32854 H 3399.6 -2.71377 1.36338 0
M  V30 32855 H 3397.18 -1.3042 0.728761 0
M  V30 32856 H 3399.06 -4.16951 -0.610731 0
M  V30 32857 H 3397.74 -3.05977 -1.0564 0
M  V30 32858 H 3396.64 -3.53968 1.21068 0
M  V30 32859 H 3397.98 -4.66346 1.57424 0
M  V30 32860 N 3399.63 -0.731417 -1.396 0
M  V30 32861 C 3400.88 -0.277243 -2.00189 0
M  V30 32862 C 3401.2 1.13838 -1.58322 0
M  V30 32863 O 3400.47 1.77456 -0.829824 0
M  V30 32864 H 3399.05 -0.0995137 -0.740342 0
M  V30 32865 H 3401.71 -0.940577 -1.70702 0
M  V30 32866 H 3400.81 -0.322804 -3.10426 0
M  V30 32867 N 3401.11 1.50152 -0.478778 0
M  V30 32868 C 3402.04 2.3155 0.301141 0
M  V30 32869 C 3403.02 1.38803 0.983252 0
M  V30 32870 O 3404.2 1.67721 0.978944 0
M  V30 32871 C 3401.33 3.18747 1.37904 0
M  V30 32872 C 3400.29 4.20108 0.818101 0
M  V30 32873 C 3399.61 4.96094 1.99487 0
M  V30 32874 C 3400.91 5.22004 -0.175832 0
M  V30 32875 H 3402.61 2.97001 -0.37824 0
M  V30 32876 H 3400.15 1.42828 -0.183348 0
M  V30 32877 H 3402.11 3.74492 1.9322 0
M  V30 32878 H 3400.83 2.51196 2.0873 0
M  V30 32879 H 3399.49 3.65476 0.28686 0
M  V30 32880 H 3399.14 4.25009 2.69029 0
M  V30 32881 H 3398.84 5.64663 1.62572 0
M  V30 32882 H 3400.36 5.54676 2.55279 0
M  V30 32883 H 3401.78 5.72574 0.288413 0
M  V30 32884 H 3400.17 5.98337 -0.459654 0
M  V30 32885 H 3401.24 4.72277 -1.09919 0
M  V30 32886 N 3402.59 0.211689 1.56172 0
M  V30 32887 C 3403.54 -0.715637 2.16478 0
M  V30 32888 C 3404.52 -1.16457 1.11025 0
M  V30 32889 O 3405.71 -1.1202 1.37042 0
M  V30 32890 C 3402.84 -1.92784 2.84058 0
M  V30 32891 C 3401.93 -1.49904 3.96723 0
M  V30 32892 N 3402.32 -0.782216 4.99715 0
M  V30 32893 C 3400.62 -1.78709 4.08631 0
M  V30 32894 C 3401.32 -0.564942 5.7895 0
M  V30 32895 N 3400.29 -1.11868 5.31965 0
M  V30 32896 H 3404.1 -0.159428 2.93467 0
M  V30 32897 H 3401.61 0.0125495 1.62395 0
M  V30 32898 H 3403.61 -2.60283 3.25666 0
M  V30 32899 H 3402.27 -2.48861 2.08562 0
M  V30 32900 H 3403.28 -0.43593 5.16062 0
M  V30 32901 H 3399.95 -2.36176 3.44277 0
M  V30 32902 H 3401.34 0.00488884 6.719 0
M  V30 32903 N 3404.06 -1.57479 -0.0617887 0
M  V30 32904 C 3405.34 -1.78822 -0.792604 0
M  V30 32905 C 3405.72 -0.801758 -1.95282 0
M  V30 32906 O 3405.07 0.163055 -2.27917 0
M  V30 32907 C 3405.28 -3.25607 -1.25623 0
M  V30 32908 C 3406.63 -3.89711 -1.68555 0
M  V30 32909 O 3407.65 -3.29559 -1.35165 0
M  V30 32910 O 3406.51 -4.95555 -2.30408 0
M  V30 32911 H 3403.6 -0.734225 -0.380582 0
M  V30 32912 H 3406.15 -1.6965 -0.0410906 0
M  V30 32913 H 3404.92 -3.88969 -0.426513 0
M  V30 32914 H 3404.55 -3.39541 -2.06876 0
M  V30 32915 N 3405.54 0.333401 -1.54033 0
M  V30 32916 C 3406.78 1.08082 -1.73487 0
M  V30 32917 C 3407.15 1.85565 -0.49292 0
M  V30 32918 O 3408.35 2.62803 -0.564642 0
M  V30 32919 C 3406.62 1.98891 -2.96946 0
M  V30 32920 S 3408.18 2.80718 -3.37258 0
M  V30 32921 H 3405 0.365038 -0.610138 0
M  V30 32922 H 3407.6 0.358001 -1.92194 0
M  V30 32923 H 3406.3 1.40787 -3.85496 0
M  V30 32924 H 3405.83 2.75594 -2.80734 0
M  V30 32925 H 3407.85 4.01341 -2.91787 0
M  V30 32926 N 3407.02 1.45939 0.594952 0
M  V30 32927 C 3407.93 1.58135 1.73293 0
M  V30 32928 C 3408.95 0.465275 1.67664 0
M  V30 32929 O 3410.12 0.727717 1.87793 0
M  V30 32930 C 3407.19 1.55683 3.0978 0
M  V30 32931 C 3406.25 2.78427 3.26767 0
M  V30 32932 C 3405.48 2.76083 4.56743 0
M  V30 32933 O 3405.7 1.84129 5.39864 0
M  V30 32934 O 3404.64 3.67461 4.76714 0
M  V30 32935 H 3408.46 2.54349 1.65953 0
M  V30 32936 H 3406.05 1.28592 0.76055 0
M  V30 32937 H 3407.93 1.56968 3.91074 0
M  V30 32938 H 3406.61 0.626247 3.17584 0
M  V30 32939 H 3405.51 2.827 2.45013 0
M  V30 32940 H 3406.85 3.70654 3.23847 0
M  V30 32941 N 3408.5 -0.838547 1.3344 0
M  V30 32942 C 3409.72 -1.63111 1.281 0
M  V30 32943 C 3410.15 -1.87539 -0.145164 0
M  V30 32944 O 3409.51 -1.43973 -1.10189 0
M  V30 32945 C 3409.55 -2.95823 2.06206 0
M  V30 32946 O 3408.66 -3.87149 1.42088 0
M  V30 32947 H 3408 -0.496674 0.440694 0
M  V30 32948 H 3410.53 -1.04322 1.76006 0
M  V30 32949 H 3410.54 -3.45518 2.16983 0
M  V30 32950 H 3409.21 -2.77366 3.09905 0
M  V30 32951 H 3407.79 -3.45638 1.39959 0
M  V30 32952 N 3409.98 -1.16914 -1.05683 0
M  V30 32953 C 3411.39 -0.91535 -1.30742 0
M  V30 32954 C 3411.59 0.428309 -1.96895 0
M  V30 32955 O 3410.65 1.16643 -2.23944 0
M  V30 32956 C 3411.96 -2.06898 -2.18205 0
M  V30 32957 C 3413.51 -2.10544 -2.31603 0
M  V30 32958 C 3413.98 -3.25279 -3.22424 0
M  V30 32959 N 3415.48 -3.25036 -3.30009 0
M  V30 32960 C 3416.21 -4.10454 -4.00393 0
M  V30 32961 N 3415.71 -5.05973 -4.73248 0
M  V30 32962 N 3417.5 -3.9842 -3.96507 0
M  V30 32963 H 3409.65 -2.0341 -0.611413 0
M  V30 32964 H 3411.91 -0.887899 -0.332173 0
M  V30 32965 H 3411.62 -3.03983 -1.76882 0
M  V30 32966 H 3411.49 -2.01578 -3.1882 0
M  V30 32967 H 3413.88 -1.14049 -2.72171 0
M  V30 32968 H 3413.96 -2.19927 -1.30635 0
M  V30 32969 H 3413.61 -4.22037 -2.82572 0
M  V30 32970 H 3413.54 -3.13132 -4.23386 0
M  V30 32971 H 3416.03 -2.55874 -2.78096 0
M  V30 32972 H 3416.34 -5.67557 -5.24499 0
M  V30 32973 H 3414.68 -5.09947 -4.72207 0
M  V30 32974 H 3417.88 -3.23096 -3.38713 0
M  V30 32975 H 3418.05 -4.6521 -4.51091 0
M  V30 32976 N 3411.45 1.24323 -0.968589 0
M  V30 32977 C 3412.7 1.92039 -0.629716 0
M  V30 32978 C 3413.02 1.76081 0.837876 0
M  V30 32979 O 3412.29 1.13291 1.59818 0
M  V30 32980 H 3410.87 0.710738 -0.229914 0
M  V30 32981 H 3413.54 1.51198 -1.22985 0
M  V30 32982 H 3412.63 2.99697 -0.871087 0
M  V30 32983 N 3412.93 0.73881 1.3921 0
M  V30 32984 C 3413.87 0.0500134 2.28145 0
M  V30 32985 C 3414.84 -0.743751 1.44593 0
M  V30 32986 O 3416.03 -0.725506 1.73979 0
M  V30 32987 C 3413.15 -0.936283 3.25502 0
M  V30 32988 C 3412.2 -0.230546 4.25876 0
M  V30 32989 S 3413.03 1.0582 5.2494 0
M  V30 32990 C 3414.19 0.0745944 6.25856 0
M  V30 32991 H 3414.42 0.804213 2.86216 0
M  V30 32992 H 3411.96 0.530766 1.4499 0
M  V30 32993 H 3413.91 -1.50004 3.82111 0
M  V30 32994 H 3412.57 -1.66335 2.66442 0
M  V30 32995 H 3411.77 -0.976988 4.9444 0
M  V30 32996 H 3411.37 0.261281 3.73086 0
M  V30 32997 H 3413.66 -0.764497 6.73173 0
M  V30 32998 H 3414.6 0.727478 7.04353 0
M  V30 32999 H 3415.01 -0.299506 5.63705 0
M  V30 33000 N 3414.41 -1.49895 0.486734 0
M  V30 33001 C 3415.34 -2.25568 -0.345587 0
M  V30 33002 C 3416.32 -1.29539 -0.982771 0
M  V30 33003 O 3417.51 -1.58797 -1.01566 0
M  V30 33004 C 3414.63 -3.04386 -1.48549 0
M  V30 33005 C 3413.68 -4.1546 -0.964123 0
M  V30 33006 S 3414.51 -5.35333 0.133725 0
M  V30 33007 C 3415.67 -6.17702 -1.00969 0
M  V30 33008 H 3415.9 -2.95815 0.296729 0
M  V30 33009 H 3413.43 -1.51988 0.271825 0
M  V30 33010 H 3415.39 -3.50384 -2.13872 0
M  V30 33011 H 3414.05 -2.33635 -2.09937 0
M  V30 33012 H 3413.25 -4.7007 -1.81796 0
M  V30 33013 H 3412.85 -3.71978 -0.388354 0
M  V30 33014 H 3415.14 -6.49784 -1.91801 0
M  V30 33015 H 3416.08 -7.06315 -0.502508 0
M  V30 33016 H 3416.49 -5.50015 -1.27058 0
M  V30 33017 N 3415.89 -0.219968 -1.56057 0
M  V30 33018 C 3417.13 0.414028 -2.00163 0
M  V30 33019 C 3417.49 1.57061 -1.10435 0
M  V30 33020 O 3418.69 2.2705 -1.43881 0
M  V30 33021 C 3416.97 0.839023 -3.47412 0
M  V30 33022 S 3418.52 1.46735 -4.13539 0
M  V30 33023 H 3415.34 0.131463 -0.698741 0
M  V30 33024 H 3417.94 -0.328884 -1.92714 0
M  V30 33025 H 3416.65 -0.0124387 -4.10398 0
M  V30 33026 H 3416.18 1.61479 -3.58731 0
M  V30 33027 H 3418.19 2.75641 -4.12597 0
M  V30 33028 N 3417.37 1.57509 0.0534363 0
M  V30 33029 C 3418.31 2.0494 1.06151 0
M  V30 33030 C 3419.28 0.933594 1.3738 0
M  V30 33031 O 3420.47 1.20253 1.48135 0
M  V30 33032 C 3417.61 2.51347 2.36471 0
M  V30 33033 C 3416.72 3.76622 2.11613 0
M  V30 33034 C 3415.86 4.11737 3.35628 0
M  V30 33035 C 3414.9 5.29998 3.06216 0
M  V30 33036 N 3414.03 5.60662 4.22613 0
M  V30 33037 H 3418.87 2.90823 0.650071 0
M  V30 33038 H 3416.41 1.43809 0.309396 0
M  V30 33039 H 3418.37 2.76311 3.12583 0
M  V30 33040 H 3417 1.68416 2.75383 0
M  V30 33041 H 3416.05 3.58888 1.2611 0
M  V30 33042 H 3417.36 4.62863 1.85901 0
M  V30 33043 H 3416.52 4.37699 4.20124 0
M  V30 33044 H 3415.26 3.24098 3.64433 0
M  V30 33045 H 3414.26 5.03813 2.20119 0
M  V30 33046 H 3415.49 6.19269 2.78715 0
M  V30 33047 H 3413.43 4.75983 4.51415 0
M  V30 33048 H 3413.35 6.41362 4.00239 0
M  V30 33049 H 3414.62 5.91187 5.08053 0
M  V30 33050 N 3418.85 -0.325228 1.54208 0
M  V30 33051 C 3419.79 -1.42033 1.842 0
M  V30 33052 C 3420.79 -1.53628 0.713777 0
M  V30 33053 O 3421.99 -1.56034 0.897413 0
M  V30 33054 H 3418.37 -0.473937 0.583856 0
M  V30 33055 H 3420.34 -1.1396 2.75782 0
M  V30 33056 C 3419.09 -2.78277 2.08464 0
M  V30 33057 H 3418.41 -2.70128 2.94739 0
M  V30 33058 H 3419.85 -3.53976 2.33404 0
M  V30 33059 C 3418.31 -3.25321 0.875672 0
M  V30 33060 O 3418.84 -4.01612 0.0841093 0
M  V30 33061 N 3417.05 -2.82344 0.687771 0
M  V30 33062 H 3416.59 -2.20422 1.33311 0
M  V30 33063 H 3416.55 -3.14172 -0.119632 0
M  V30 33064 N 3420.32 -1.46252 -0.587204 0
M  V30 33065 C 3421.25 -1.59333 -1.70691 0
M  V30 33066 C 3422.23 -0.44386 -1.64207 0
M  V30 33067 O 3423.42 -0.669548 -1.82293 0
M  V30 33068 C 3420.55 -1.57905 -3.09327 0
M  V30 33069 C 3419.5 -2.71776 -3.30639 0
M  V30 33070 C 3418.83 -2.55408 -4.69756 0
M  V30 33071 C 3420.13 -4.13636 -3.18909 0
M  V30 33072 H 3421.82 -2.53062 -1.6 0
M  V30 33073 H 3419.37 -1.2179 -0.768321 0
M  V30 33074 H 3421.32 -1.65651 -3.87476 0
M  V30 33075 H 3420.05 -0.607176 -3.20906 0
M  V30 33076 H 3418.71 -2.63492 -2.54887 0
M  V30 33077 H 3418.35 -1.56314 -4.78095 0
M  V30 33078 H 3418.05 -3.31782 -4.84968 0
M  V30 33079 H 3419.58 -2.65038 -5.50079 0
M  V30 33080 H 3420.99 -4.23055 -3.86908 0
M  V30 33081 H 3419.39 -4.90561 -3.45644 0
M  V30 33082 H 3420.46 -4.34108 -2.16052 0
M  V30 33083 N 3421.8 0.831459 -1.33883 0
M  V30 33084 C 3423.05 1.58215 -1.25103 0
M  V30 33085 C 3423.36 1.94774 0.179596 0
M  V30 33086 O 3424.57 2.68692 0.389469 0
M  V30 33087 C 3423.03 2.85406 -2.19251 0
M  V30 33088 C 3422.63 2.56183 -3.67524 0
M  V30 33089 C 3424.38 3.63429 -2.19361 0
M  V30 33090 C 3422.28 3.79515 -4.53566 0
M  V30 33091 H 3421.21 0.593776 -0.4647 0
M  V30 33092 H 3423.87 0.916141 -1.58994 0
M  V30 33093 H 3422.25 3.53588 -1.78302 0
M  V30 33094 H 3423.42 1.96166 -4.1696 0
M  V30 33095 H 3421.74 1.91451 -3.69778 0
M  V30 33096 H 3424.33 4.5499 -2.80871 0
M  V30 33097 H 3424.68 3.98911 -1.19063 0
M  V30 33098 H 3425.21 3.02181 -2.58711 0
M  V30 33099 H 3421.95 3.4916 -5.54768 0
M  V30 33100 H 3421.47 4.38846 -4.0887 0
M  V30 33101 H 3423.15 4.47017 -4.67744 0
M  V30 33102 N 3423.28 1.17472 1.05062 0
M  V30 33103 C 3424.53 0.96201 1.77735 0
M  V30 33104 C 3424.85 -0.510518 1.88199 0
M  V30 33105 O 3424.12 -1.37059 1.3997 0
M  V30 33106 H 3422.7 0.352947 0.65836 0
M  V30 33107 H 3425.36 1.47971 1.26848 0
M  V30 33108 H 3424.46 1.39146 2.79365 0
M  V30 33109 N 3424.76 -1.23807 0.975168 0
M  V30 33110 C 3425.99 -1.96124 0.659013 0
M  V30 33111 C 3426.4 -1.7225 -0.773014 0
M  V30 33112 O 3425.76 -1.01075 -1.51954 0
M  V30 33113 C 3425.81 -3.49241 0.933416 0
M  V30 33114 O 3425.53 -3.72303 2.30915 0
M  V30 33115 C 3427.03 -4.38765 0.632485 0
M  V30 33116 H 3424.25 -0.624576 0.245248 0
M  V30 33117 H 3426.79 -1.57438 1.30513 0
M  V30 33118 H 3424.95 -3.85963 0.333391 0
M  V30 33119 H 3425.36 -4.66634 2.39485 0
M  V30 33120 H 3426.84 -5.45023 0.874887 0
M  V30 33121 H 3427.31 -4.37057 -0.433376 0
M  V30 33122 H 3427.92 -4.07643 1.21275 0
M  V30 33123 N 3426.24 -0.746182 -1.38816 0
M  V30 33124 C 3427.48 -0.299051 -2.0028 0
M  V30 33125 C 3427.81 1.11706 -1.59223 0
M  V30 33126 O 3427.07 1.77801 -0.817626 0
M  V30 33127 C 3427.36 -0.361148 -3.55571 0
M  V30 33128 C 3427.03 -1.73186 -4.16314 0
M  V30 33129 C 3425.69 -2.107 -4.32619 0
M  V30 33130 C 3428.04 -2.63134 -4.499 0
M  V30 33131 C 3425.37 -3.37649 -4.79802 0
M  V30 33132 C 3427.72 -3.89466 -4.98497 0
M  V30 33133 C 3426.39 -4.27058 -5.13008 0
M  V30 33134 H 3425.66 -0.10943 -0.732875 0
M  V30 33135 H 3428.31 -0.955215 -1.65976 0
M  V30 33136 H 3426.61 0.378587 -3.89967 0
M  V30 33137 H 3428.31 0.0031218 -4.01 0
M  V30 33138 H 3424.9 -1.43022 -4.04033 0
M  V30 33139 H 3429.08 -2.35418 -4.36912 0
M  V30 33140 H 3424.34 -3.66703 -4.89223 0
M  V30 33141 H 3428.51 -4.59311 -5.23456 0
M  V30 33142 H 3426.14 -5.2549 -5.4933 0
M  V30 33143 N 3427.71 1.49635 -0.494676 0
M  V30 33144 C 3428.65 2.25748 0.33362 0
M  V30 33145 C 3429.62 1.30058 0.975888 0
M  V30 33146 O 3430.81 1.59334 1.00722 0
M  V30 33147 C 3427.94 3.05169 1.46933 0
M  V30 33148 C 3426.98 4.15965 0.942076 0
M  V30 33149 S 3427.81 5.35255 -0.162113 0
M  V30 33150 C 3428.97 6.18229 0.976913 0
M  V30 33151 H 3429.2 2.95654 -0.312413 0
M  V30 33152 H 3426.74 1.51842 -0.279881 0
M  V30 33153 H 3428.69 3.51514 2.1201 0
M  V30 33154 H 3427.36 2.34745 2.08695 0
M  V30 33155 H 3426.55 4.71028 1.79301 0
M  V30 33156 H 3426.15 3.72179 0.368621 0
M  V30 33157 H 3428.44 6.50792 1.88352 0
M  V30 33158 H 3429.39 7.06571 0.465044 0
M  V30 33159 H 3429.79 5.50681 1.24139 0
M  V30 33160 N 3429.19 0.228241 1.55939 0
M  V30 33161 C 3430.43 -0.403407 2.0038 0
M  V30 33162 C 3430.8 -1.56473 1.11266 0
M  V30 33163 O 3432 -2.26284 1.45083 0
M  V30 33164 C 3430.27 -0.820587 3.47852 0
M  V30 33165 S 3431.83 -1.4454 4.14311 0
M  V30 33166 H 3428.64 -0.127756 0.699428 0
M  V30 33167 H 3431.25 0.339099 1.92537 0
M  V30 33168 H 3429.95 0.034203 4.10386 0
M  V30 33169 H 3429.48 -1.59574 3.59583 0
M  V30 33170 H 3431.5 -2.73449 4.14053 0
M  V30 33171 N 3430.67 -1.57536 -0.0450825 0
M  V30 33172 C 3431.92 -1.87712 -0.738039 0
M  V30 33173 C 3432.23 -0.82461 -1.77368 0
M  V30 33174 O 3433.44 -1.01508 -2.5181 0
M  V30 33175 C 3431.89 -3.33065 -1.36367 0
M  V30 33176 C 3431.5 -4.46509 -0.365205 0
M  V30 33177 C 3433.25 -3.7241 -2.03743 0
M  V30 33178 C 3431.15 -5.82914 -0.998268 0
M  V30 33179 H 3430.08 -0.700322 -0.279401 0
M  V30 33180 H 3432.73 -1.83498 0.0080565 0
M  V30 33181 H 3431.12 -3.31973 -2.15893 0
M  V30 33182 H 3432.29 -4.59042 0.402183 0
M  V30 33183 H 3430.61 -4.15892 0.205578 0
M  V30 33184 H 3433.2 -4.7163 -2.51931 0
M  V30 33185 H 3433.55 -3.03576 -2.84864 0
M  V30 33186 H 3434.08 -3.75607 -1.31013 0
M  V30 33187 H 3430.82 -6.55107 -0.22682 0
M  V30 33188 H 3430.34 -5.74132 -1.73588 0
M  V30 33189 H 3432.02 -6.29125 -1.51033 0
M  V30 33190 N 3432.15 0.317045 -1.54378 0
M  V30 33191 C 3433.39 1.06236 -1.74623 0
M  V30 33192 C 3433.75 1.85032 -0.512574 0
M  V30 33193 O 3434.95 2.62189 -0.592484 0
M  V30 33194 C 3433.22 1.9573 -2.99039 0
M  V30 33195 S 3434.78 2.77125 -3.40216 0
M  V30 33196 H 3431.6 0.358546 -0.613975 0
M  V30 33197 H 3434.2 0.337596 -1.92563 0
M  V30 33198 H 3432.91 1.3669 -3.86968 0
M  V30 33199 H 3432.44 2.72601 -2.83641 0
M  V30 33200 H 3434.45 3.98224 -2.96027 0
M  V30 33201 N 3433.63 1.46561 0.57944 0
M  V30 33202 C 3435.04 1.46166 1.16157 0
M  V30 33203 C 3435.39 0.204265 1.95134 0
M  V30 33204 O 3434.51 -0.692421 2.05023 0
M  V30 33205 C 3435.11 2.64821 2.11317 0
M  V30 33206 C 3433.67 2.67456 2.64847 0
M  V30 33207 C 3432.81 2.38906 1.40781 0
M  V30 33208 H 3435.77 1.54393 0.367201 0
M  V30 33209 H 3435.79 2.40526 2.94835 0
M  V30 33210 H 3435.3 3.56321 1.53809 0
M  V30 33211 H 3433.4 1.80038 3.26216 0
M  V30 33212 H 3433.51 3.67515 3.07359 0
M  V30 33213 H 3431.88 1.8903 1.70703 0
M  V30 33214 H 3432.66 3.32585 0.85099 0
M  V30 33215 N 3435.1 -0.824347 1.34322 0
M  V30 33216 C 3436.52 -1.39701 1.23857 0
M  V30 33217 C 3436.87 -1.95724 -0.136532 0
M  V30 33218 O 3435.99 -1.89946 -1.0368 0
M  V30 33219 C 3436.59 -2.53961 2.24253 0
M  V30 33220 C 3435.15 -3.07139 2.17584 0
M  V30 33221 C 3434.29 -1.80004 2.10936 0
M  V30 33222 H 3437.24 -0.628866 1.45709 0
M  V30 33223 H 3437.26 -3.32013 1.8587 0
M  V30 33224 H 3436.78 -2.13156 3.24324 0
M  V30 33225 H 3434.88 -3.52452 1.20864 0
M  V30 33226 H 3434.99 -3.66326 3.08775 0
M  V30 33227 H 3433.35 -2.00843 1.56634 0
M  V30 33228 H 3434.14 -1.41375 3.12839 0
M  V30 33229 N 3436.58 -1.18028 -1.04437 0
M  V30 33230 C 3437.83 -0.971423 -1.77222 0
M  V30 33231 C 3438.15 0.50053 -1.88467 0
M  V30 33232 O 3437.42 1.36315 -1.40695 0
M  V30 33233 H 3436 -0.356433 -0.656479 0
M  V30 33234 H 3438.66 -1.48642 -1.26062 0
M  V30 33235 H 3437.76 -1.40625 -2.78623 0
M  V30 33236 N 3438.06 1.23288 -0.98172 0
M  V30 33237 C 3438.99 2.23353 -0.467821 0
M  V30 33238 C 3439.97 1.55786 0.465786 0
M  V30 33239 O 3441.16 1.84338 0.393927 0
M  V30 33240 C 3438.28 3.37156 0.323073 0
M  V30 33241 C 3437.33 4.22875 -0.554871 0
M  V30 33242 S 3438.16 4.96608 -2.00352 0
M  V30 33243 C 3439.32 6.13859 -1.2218 0
M  V30 33244 H 3439.55 2.66598 -1.31578 0
M  V30 33245 H 3437.08 1.32789 -0.787817 0
M  V30 33246 H 3439.04 4.03149 0.773377 0
M  V30 33247 H 3437.7 2.92441 1.14617 0
M  V30 33248 H 3436.9 5.03972 0.0530781 0
M  V30 33249 H 3436.5 3.61956 -0.941474 0
M  V30 33250 H 3438.79 6.7577 -0.483787 0
M  V30 33251 H 3439.73 6.79043 -2.00764 0
M  V30 33252 H 3440.14 5.59629 -0.740003 0
M  V30 33253 N 3439.54 0.753533 1.38418 0
M  V30 33254 C 3440.5 0.134062 2.28808 0
M  V30 33255 C 3441.5 -0.647557 1.47185 0
M  V30 33256 O 3442.69 -0.473831 1.67632 0
M  V30 33257 C 3439.82 -0.818522 3.30928 0
M  V30 33258 H 3441.02 0.930636 2.85095 0
M  V30 33259 H 3438.57 0.52054 1.47377 0
M  V30 33260 H 3439.3 -1.64077 2.7973 0
M  V30 33261 H 3439.09 -0.260457 3.91234 0
M  V30 33262 H 3440.58 -1.24795 3.98517 0
M  V30 33263 N 3441.02 -1.49371 0.502605 0
M  V30 33264 C 3442.43 -1.58809 0.158669 0
M  V30 33265 C 3442.63 -1.50767 -1.33685 0
M  V30 33266 O 3441.69 -1.38245 -2.11293 0
M  V30 33267 C 3443 -2.91531 0.736894 0
M  V30 33268 C 3444.55 -3.05 0.703146 0
M  V30 33269 C 3445.02 -4.40343 1.25946 0
M  V30 33270 N 3446.52 -4.46838 1.22023 0
M  V30 33271 C 3447.25 -5.50014 1.62086 0
M  V30 33272 N 3446.75 -6.60286 2.09748 0
M  V30 33273 N 3448.54 -5.40737 1.53492 0
M  V30 33274 H 3440.69 -1.52841 1.4749 0
M  V30 33275 H 3442.95 -0.724104 0.611864 0
M  V30 33276 H 3442.66 -3.02989 1.78579 0
M  V30 33277 H 3442.53 -3.76679 0.198244 0
M  V30 33278 H 3444.92 -2.9317 -0.336914 0
M  V30 33279 H 3445 -2.21532 1.27896 0
M  V30 33280 H 3444.65 -4.52924 2.29831 0
M  V30 33281 H 3444.58 -5.22453 0.659573 0
M  V30 33282 H 3447.07 -3.67725 0.871021 0
M  V30 33283 H 3447.38 -7.35114 2.38383 0
M  V30 33284 H 3445.72 -6.61322 2.13723 0
M  V30 33285 H 3448.92 -4.53481 1.16073 0
M  V30 33286 H 3449.09 -6.2102 1.85037 0
M  V30 33287 N 3442.49 -0.236508 -1.55815 0
M  V30 33288 C 3443.91 0.118573 -1.59159 0
M  V30 33289 C 3444.11 1.57761 -1.25355 0
M  V30 33290 O 3443.17 2.3203 -0.995904 0
M  V30 33291 C 3444.48 -0.221228 -2.99885 0
M  V30 33292 C 3446.03 -0.164679 -3.12566 0
M  V30 33293 C 3446.5 -0.478365 -4.55495 0
M  V30 33294 N 3447.99 -0.428483 -4.61214 0
M  V30 33295 C 3448.73 -0.644498 -5.69766 0
M  V30 33296 N 3448.22 -0.923087 -6.86623 0
M  V30 33297 N 3450.02 -0.575913 -5.59142 0
M  V30 33298 H 3442.17 -1.18812 -1.76061 0
M  V30 33299 H 3444.43 -0.477312 -0.819071 0
M  V30 33300 H 3444.14 -1.23446 -3.29323 0
M  V30 33301 H 3444.01 0.456657 -3.74426 0
M  V30 33302 H 3446.4 0.839214 -2.82916 0
M  V30 33303 H 3446.48 -0.876261 -2.40323 0
M  V30 33304 H 3446.12 -1.47976 -4.85866 0
M  V30 33305 H 3446.05 0.254578 -5.25984 0
M  V30 33306 H 3448.54 -0.221464 -3.77251 0
M  V30 33307 H 3448.86 -1.07561 -7.65278 0
M  V30 33308 H 3447.2 -0.960446 -6.88332 0
M  V30 33309 H 3450.39 -0.358389 -4.66726 0
M  V30 33310 H 3450.57 -0.747662 -6.43672 0
M  V30 33311 N 3443.97 1.57557 0.0367273 0
M  V30 33312 C 3445.38 1.77321 0.584293 0
M  V30 33313 C 3445.73 0.866611 1.76024 0
M  V30 33314 O 3444.86 0.059481 2.16318 0
M  V30 33315 C 3445.45 3.21568 1.06674 0
M  V30 33316 C 3444.01 3.42556 1.55988 0
M  V30 33317 C 3443.16 2.72854 0.494556 0
M  V30 33318 H 3446.11 1.57565 -0.189501 0
M  V30 33319 H 3446.13 3.2766 1.9344 0
M  V30 33320 H 3445.64 3.87528 0.210659 0
M  V30 33321 H 3443.75 2.81761 2.43806 0
M  V30 33322 H 3443.86 4.51143 1.61266 0
M  V30 33323 H 3442.22 2.36407 0.947823 0
M  V30 33324 H 3443.01 3.41491 -0.351928 0
M  V30 33325 N 3445.45 -0.308854 1.54544 0
M  V30 33326 C 3446.73 -1.06415 1.64119 0
M  V30 33327 C 3447.11 -2.05466 0.484438 0
M  V30 33328 O 3446.46 -2.22511 -0.519713 0
M  V30 33329 C 3446.67 -1.75301 3.01779 0
M  V30 33330 C 3448.01 -2.27786 3.58328 0
M  V30 33331 O 3449.04 -1.85345 3.0418 0
M  V30 33332 O 3447.9 -3.05526 4.53119 0
M  V30 33333 H 3444.99 -0.49139 0.665181 0
M  V30 33334 H 3447.54 -0.307569 1.66889 0
M  V30 33335 H 3446.31 -1.03335 3.77409 0
M  V30 33336 H 3445.93 -2.57734 3.02752 0
M  V30 33337 N 3446.93 -1.46867 -0.571659 0
M  V30 33338 C 3448.18 -1.52446 -1.32682 0
M  V30 33339 C 3448.5 -0.182259 -1.94146 0
M  V30 33340 O 3447.77 0.792353 -1.79161 0
M  V30 33341 H 3446.35 -0.561504 -0.492669 0
M  V30 33342 H 3449.01 -1.83071 -0.668662 0
M  V30 33343 H 3448.11 -2.28319 -2.12784 0
M  V30 33344 N 3448.41 0.817212 -1.34757 0
M  V30 33345 C 3449.32 1.96021 -1.28892 0
M  V30 33346 C 3450.33 1.72897 -0.195612 0
M  V30 33347 O 3451.51 1.96906 -0.423106 0
M  V30 33348 C 3448.57 3.30421 -1.04991 0
M  V30 33349 C 3447.64 3.66513 -2.23532 0
M  V30 33350 C 3446.87 4.945 -2.00762 0
M  V30 33351 O 3447.09 5.62114 -0.968721 0
M  V30 33352 O 3446.03 5.28603 -2.87858 0
M  V30 33353 H 3449.85 2.03913 -2.25062 0
M  V30 33354 H 3447.44 0.953447 -1.15021 0
M  V30 33355 H 3449.32 4.10904 -0.934661 0
M  V30 33356 H 3447.99 3.23483 -0.118639 0
M  V30 33357 H 3446.9 2.8645 -2.40618 0
M  V30 33358 H 3448.23 3.78143 -3.15069 0
M  V30 33359 N 3449.89 1.1858 1.0381 0
M  V30 33360 C 3451.13 0.980807 1.76705 0
M  V30 33361 C 3451.45 -0.490529 1.88729 0
M  V30 33362 O 3450.72 -1.35567 1.41416 0
M  V30 33363 H 3449.3 0.35991 0.654579 0
M  V30 33364 H 3451.97 1.49308 1.25272 0
M  V30 33365 H 3451.06 1.42101 2.77874 0
M  V30 33366 N 3451.36 -1.22766 0.988245 0
M  V30 33367 C 3452.6 -1.9312 0.669633 0
M  V30 33368 C 3452.97 -1.75295 -0.7833 0
M  V30 33369 O 3454.17 -2.39869 -1.21311 0
M  V30 33370 C 3452.44 -3.41356 1.05882 0
M  V30 33371 S 3454 -4.30332 0.857873 0
M  V30 33372 H 3450.82 -0.667461 0.244983 0
M  V30 33373 H 3453.42 -1.4867 1.26954 0
M  V30 33374 H 3452.12 -3.51841 2.11273 0
M  V30 33375 H 3451.65 -3.90812 0.450521 0
M  V30 33376 H 3453.67 -4.95549 -0.254084 0
M  V30 33377 N 3452.84 -0.760864 -1.38017 0
M  V30 33378 C 3454.09 -0.320751 -2.00247 0
M  V30 33379 C 3454.42 1.09681 -1.60261 0
M  V30 33380 O 3453.7 1.75253 -0.843598 0
M  V30 33381 C 3453.98 -0.451912 -3.57253 0
M  V30 33382 C 3453.83 -1.9111 -4.07182 0
M  V30 33383 C 3455.15 0.150362 -4.39843 0
M  V30 33384 H 3452.27 -0.11802 -0.727489 0
M  V30 33385 H 3454.91 -0.96187 -1.63854 0
M  V30 33386 H 3453.06 0.0938989 -3.88387 0
M  V30 33387 H 3454.73 -2.51578 -3.8666 0
M  V30 33388 H 3452.98 -2.42368 -3.59778 0
M  V30 33389 H 3453.65 -1.95399 -5.16259 0
M  V30 33390 H 3456.12 -0.315218 -4.14904 0
M  V30 33391 H 3455 0.0283888 -5.48893 0
M  V30 33392 H 3455.26 1.23948 -4.24369 0
M  V30 33393 N 3454.32 1.49102 -0.510519 0
M  V30 33394 C 3455.6 1.95374 0.0940779 0
M  V30 33395 C 3455.98 1.45229 1.53205 0
M  V30 33396 O 3455.32 0.670199 2.1845 0
M  V30 33397 C 3455.53 3.49 -0.00308641 0
M  V30 33398 C 3456.88 4.24275 0.166043 0
M  V30 33399 O 3457.91 3.56128 0.0716471 0
M  V30 33400 O 3456.77 5.45306 0.361059 0
M  V30 33401 H 3453.86 0.822082 0.0900597 0
M  V30 33402 H 3456.41 1.59707 -0.573735 0
M  V30 33403 H 3455.18 3.7816 -1.00552 0
M  V30 33404 H 3454.8 3.9131 0.704449 0
M  V30 33405 N 3455.8 0.244768 1.55688 0
M  V30 33406 C 3456.71 -0.66648 2.24934 0
M  V30 33407 C 3457.72 -1.19501 1.26473 0
M  V30 33408 O 3458.9 -1.23173 1.59344 0
M  V30 33409 C 3455.96 -1.84767 2.93363 0
M  V30 33410 C 3455.03 -1.35882 4.07228 0
M  V30 33411 C 3454.26 -2.48371 4.72385 0
M  V30 33412 O 3454.48 -3.67051 4.36611 0
M  V30 33413 O 3453.42 -2.18251 5.60937 0
M  V30 33414 H 3457.24 -0.106453 3.03513 0
M  V30 33415 H 3454.83 0.0133572 1.49394 0
M  V30 33416 H 3456.71 -2.53702 3.36472 0
M  V30 33417 H 3455.38 -2.39536 2.17725 0
M  V30 33418 H 3454.29 -0.636817 3.6864 0
M  V30 33419 H 3455.62 -0.857248 4.84677 0
M  V30 33420 N 3457.28 -1.57574 -0.0283712 0
M  V30 33421 C 3458.22 -2.07694 -1.04719 0
M  V30 33422 C 3459.22 -0.990871 -1.37398 0
M  V30 33423 O 3460.42 -1.17575 -1.36295 0
M  V30 33424 H 3456.8 -0.662804 -0.355239 0
M  V30 33425 H 3458.77 -2.92333 -0.598686 0
M  V30 33426 C 3457.52 -2.57233 -2.33937 0
M  V30 33427 H 3456.84 -3.4042 -2.09653 0
M  V30 33428 H 3458.28 -2.9601 -3.03568 0
M  V30 33429 C 3456.74 -1.47387 -3.0295 0
M  V30 33430 O 3457.27 -0.8405 -3.92808 0
M  V30 33431 N 3455.48 -1.20824 -2.64291 0
M  V30 33432 H 3455.02 -1.72513 -1.91304 0
M  V30 33433 H 3454.98 -0.475408 -3.10785 0
M  V30 33434 N 3458.75 0.300654 -1.54706 0
M  V30 33435 C 3459.66 1.39338 -1.88738 0
M  V30 33436 C 3460.68 1.55459 -0.781577 0
M  V30 33437 O 3461.86 1.70116 -1.07807 0
M  V30 33438 C 3458.92 2.7371 -2.128 0
M  V30 33439 C 3457.98 2.66571 -3.36509 0
M  V30 33440 C 3457.21 3.94534 -3.59414 0
M  V30 33441 O 3457.44 4.93909 -2.85324 0
M  V30 33442 O 3456.37 3.96407 -4.5293 0
M  V30 33443 H 3460.2 1.13479 -2.81702 0
M  V30 33444 H 3457.78 0.496746 -1.409 0
M  V30 33445 H 3459.66 3.53211 -2.29826 0
M  V30 33446 H 3458.34 2.99412 -1.23022 0
M  V30 33447 H 3457.25 1.85541 -3.24847 0
M  V30 33448 H 3458.58 2.45822 -4.26418 0
M  V30 33449 N 3460.23 1.47168 0.563863 0
M  V30 33450 C 3461.47 1.55024 1.33218 0
M  V30 33451 C 3461.84 0.204869 1.90904 0
M  V30 33452 O 3463.04 0.158248 2.68334 0
M  V30 33453 C 3461.31 2.63231 2.41752 0
M  V30 33454 S 3462.87 2.90624 3.2876 0
M  V30 33455 H 3459.69 0.547499 0.453614 0
M  V30 33456 H 3462.29 1.8451 0.646233 0
M  V30 33457 H 3460.99 3.5959 1.97796 0
M  V30 33458 H 3460.52 2.35538 3.15096 0
M  V30 33459 H 3462.54 2.27331 4.41061 0
M  V30 33460 N 3461.71 -0.810054 1.35188 0
M  V30 33461 C 3463.13 -1.1051 1.15151 0
M  V30 33462 C 3463.33 -2.01463 -0.0383586 0
M  V30 33463 O 3462.38 -2.42312 -0.710014 0
M  V30 33464 C 3463.7 -1.73942 2.45285 0
M  V30 33465 C 3465.24 -1.86378 2.5146 0
M  V30 33466 C 3465.72 -2.53226 3.81629 0
M  V30 33467 N 3467.21 -2.60714 3.82861 0
M  V30 33468 C 3467.94 -3.13197 4.80307 0
M  V30 33469 N 3467.44 -3.66146 5.88141 0
M  V30 33470 N 3469.23 -3.11718 4.67748 0
M  V30 33471 H 3461.38 -0.205354 2.11405 0
M  V30 33472 H 3463.65 -0.153685 0.93546 0
M  V30 33473 H 3463.35 -1.14576 3.32514 0
M  V30 33474 H 3463.23 -2.73678 2.59577 0
M  V30 33475 H 3465.61 -2.44888 1.64663 0
M  V30 33476 H 3465.7 -0.855071 2.41085 0
M  V30 33477 H 3465.34 -1.95366 4.68822 0
M  V30 33478 H 3465.27 -3.54626 3.89291 0
M  V30 33479 H 3467.76 -2.23197 3.04945 0
M  V30 33480 H 3468.07 -4.04482 6.58494 0
M  V30 33481 H 3466.42 -3.64354 5.91837 0
M  V30 33482 H 3469.61 -2.69628 3.82646 0
M  V30 33483 H 3469.78 -3.52315 5.43855 0
M  V30 33484 N 3463.19 -1.19129 -1.0318 0
M  V30 33485 C 3464.42 -1.01729 -1.80163 0
M  V30 33486 C 3464.83 0.434063 -1.83743 0
M  V30 33487 O 3464.19 1.3015 -1.27935 0
M  V30 33488 C 3464.24 -1.57572 -3.25351 0
M  V30 33489 O 3463.96 -2.97025 -3.22036 0
M  V30 33490 C 3465.46 -1.44914 -4.18945 0
M  V30 33491 H 3462.68 -0.358708 -0.567071 0
M  V30 33492 H 3465.23 -1.57879 -1.29979 0
M  V30 33493 H 3463.38 -1.05577 -3.72736 0
M  V30 33494 H 3463.79 -3.23242 -4.13055 0
M  V30 33495 H 3465.27 -1.88771 -5.18719 0
M  V30 33496 H 3465.75 -0.399202 -4.37382 0
M  V30 33497 H 3466.35 -1.96024 -3.77431 0
M  V30 33498 N 3464.67 1.2224 -0.994741 0
M  V30 33499 C 3465.61 2.24235 -0.546544 0
M  V30 33500 C 3466.58 1.60648 0.422073 0
M  V30 33501 O 3467.77 1.87987 0.326419 0
M  V30 33502 C 3464.91 3.44852 0.130848 0
M  V30 33503 C 3464.02 4.22948 -0.879727 0
M  V30 33504 C 3463.16 5.30909 -0.175662 0
M  V30 33505 C 3462.2 6.00726 -1.17448 0
M  V30 33506 N 3461.33 7.00327 -0.498597 0
M  V30 33507 H 3466.17 2.61936 -1.42103 0
M  V30 33508 H 3463.71 1.28733 -0.711777 0
M  V30 33509 H 3465.67 4.13684 0.540523 0
M  V30 33510 H 3464.3 3.07909 0.969116 0
M  V30 33511 H 3463.35 3.53394 -1.40771 0
M  V30 33512 H 3464.66 4.7106 -1.64025 0
M  V30 33513 H 3463.82 6.06003 0.29065 0
M  V30 33514 H 3462.55 4.83777 0.617353 0
M  V30 33515 H 3461.56 5.24413 -1.65141 0
M  V30 33516 H 3462.78 6.49947 -1.9684 0
M  V30 33517 H 3460.73 6.55424 0.274948 0
M  V30 33518 H 3460.65 7.46455 -1.19754 0
M  V30 33519 H 3461.92 7.7948 -0.055149 0
M  V30 33520 N 3466.14 0.768172 1.37611 0
M  V30 33521 C 3467.56 0.396735 1.82436 0
M  V30 33522 C 3467.91 -1.07665 1.64021 0
M  V30 33523 O 3467.03 -1.83354 1.14935 0
M  V30 33524 C 3467.63 0.713323 3.31206 0
M  V30 33525 C 3466.19 0.394986 3.74322 0
M  V30 33526 C 3465.33 0.959008 2.60189 0
M  V30 33527 H 3468.28 0.963121 1.26134 0
M  V30 33528 H 3468.3 -0.0033054 3.805 0
M  V30 33529 H 3467.82 1.78573 3.44577 0
M  V30 33530 H 3465.92 -0.670248 3.66522 0
M  V30 33531 H 3466.03 0.900736 4.70557 0
M  V30 33532 H 3464.39 0.383468 2.51797 0
M  V30 33533 H 3465.18 2.03674 2.76354 0
M  V30 33534 N 3467.62 -1.48829 0.518419 0
M  V30 33535 C 3468.87 -2.0209 -0.0198305 0
M  V30 33536 C 3469.19 -1.39882 -1.3586 0
M  V30 33537 O 3468.46 -0.56015 -1.87721 0
M  V30 33538 H 3467.04 -0.746929 -0.0103175 0
M  V30 33539 H 3469.7 -1.82667 0.679624 0
M  V30 33540 H 3468.8 -3.11801 -0.136695 0
M  V30 33541 N 3469.1 -0.253021 -1.55556 0
M  V30 33542 C 3470.35 0.370536 -1.98267 0
M  V30 33543 C 3470.66 1.5862 -1.14451 0
M  V30 33544 O 3471.87 2.2813 -1.47204 0
M  V30 33545 C 3470.32 0.710623 -3.52815 0
M  V30 33546 C 3469.93 -0.483986 -4.45378 0
M  V30 33547 C 3471.68 1.29803 -4.04168 0
M  V30 33548 C 3469.58 -0.119715 -5.91279 0
M  V30 33549 H 3468.51 0.142219 -0.740466 0
M  V30 33550 H 3471.16 -0.3542 -1.80049 0
M  V30 33551 H 3469.55 1.49366 -3.6675 0
M  V30 33552 H 3470.72 -1.26124 -4.43204 0
M  V30 33553 H 3469.04 -0.986736 -4.0454 0
M  V30 33554 H 3471.63 1.58401 -5.10699 0
M  V30 33555 H 3471.98 2.22456 -3.51879 0
M  V30 33556 H 3472.51 0.577767 -3.93582 0
M  V30 33557 H 3469.25 -1.01354 -6.47617 0
M  V30 33558 H 3468.77 0.621213 -5.96574 0
M  V30 33559 H 3470.45 0.295938 -6.46323 0
M  V30 33560 N 3470.58 1.57587 0.0200142 0
M  V30 33561 C 3471.82 1.91534 0.713731 0
M  V30 33562 C 3472.18 0.852547 1.72034 0
M  V30 33563 O 3473.38 1.07663 2.46297 0
M  V30 33564 C 3471.65 3.30603 1.3578 0
M  V30 33565 S 3473.21 3.86401 2.07942 0
M  V30 33566 H 3470.03 0.670606 0.236238 0
M  V30 33567 H 3472.63 1.95474 -0.0318656 0
M  V30 33568 H 3471.34 4.0581 0.612076 0
M  V30 33569 H 3470.87 3.29988 2.14176 0
M  V30 33570 H 3472.88 3.65859 3.35204 0
M  V30 33571 N 3472.06 -0.292445 1.54863 0
M  V30 33572 C 3472.97 -1.38335 1.89474 0
M  V30 33573 C 3473.98 -1.55042 0.78981 0
M  V30 33574 O 3475.16 -1.69542 1.08708 0
M  V30 33575 C 3472.22 -2.72577 2.14249 0
M  V30 33576 C 3471.28 -2.64783 3.37918 0
M  V30 33577 C 3470.52 -3.92623 3.61501 0
M  V30 33578 O 3470.74 -4.92389 2.87939 0
M  V30 33579 O 3469.67 -3.93999 4.55026 0
M  V30 33580 H 3473.5 -1.11984 2.823 0
M  V30 33581 H 3471.09 -0.489267 1.41161 0
M  V30 33582 H 3472.97 -3.51987 2.31696 0
M  V30 33583 H 3471.64 -2.98755 1.24608 0
M  V30 33584 H 3470.55 -1.83815 3.25826 0
M  V30 33585 H 3471.88 -2.43557 4.27716 0
M  V30 33586 N 3473.53 -1.47465 -0.55605 0
M  V30 33587 C 3474.48 -1.60447 -1.68403 0
M  V30 33588 C 3475.48 -0.471742 -1.62699 0
M  V30 33589 O 3476.68 -0.649581 -1.6787 0
M  V30 33590 H 3473.06 -0.504956 -0.557247 0
M  V30 33591 H 3475.03 -2.55234 -1.54591 0
M  V30 33592 C 3473.78 -1.63701 -3.06753 0
M  V30 33593 H 3473.1 -2.50211 -3.11824 0
M  V30 33594 H 3474.54 -1.76834 -3.85364 0
M  V30 33595 C 3473 -0.370544 -3.34856 0
M  V30 33596 O 3473.53 0.527872 -3.98217 0
M  V30 33597 N 3471.74 -0.250214 -2.89521 0
M  V30 33598 H 3471.28 -0.982246 -2.38138 0
M  V30 33599 H 3471.24 0.596214 -3.08695 0
M  V30 33600 N 3475.01 0.802873 -1.35616 0
M  V30 33601 C 3476.26 1.55706 -1.28841 0
M  V30 33602 C 3476.58 1.94526 0.135872 0
M  V30 33603 O 3475.85 1.63892 1.07314 0
M  V30 33604 H 3474.43 0.577419 -0.473916 0
M  V30 33605 H 3477.09 0.957457 -1.69761 0
M  V30 33606 H 3476.19 2.47079 -1.90679 0
M  V30 33607 N 3476.49 1.19674 1.02547 0
M  V30 33608 C 3477.91 0.949692 1.28269 0
M  V30 33609 C 3478.11 -0.375955 1.97962 0
M  V30 33610 O 3477.16 -1.10664 2.26957 0
M  V30 33611 C 3478.48 2.12611 2.12643 0
M  V30 33612 C 3480.02 2.16611 2.2594 0
M  V30 33613 C 3480.5 3.33713 3.13687 0
M  V30 33614 N 3481.99 3.33671 3.21275 0
M  V30 33615 C 3482.73 4.20926 3.8937 0
M  V30 33616 N 3482.22 5.18342 4.59666 0
M  V30 33617 N 3484.01 4.08793 3.85804 0
M  V30 33618 H 3476.17 2.04959 0.557268 0
M  V30 33619 H 3478.43 0.896394 0.308515 0
M  V30 33620 H 3478.13 3.08566 1.6876 0
M  V30 33621 H 3478.01 2.0996 3.13363 0
M  V30 33622 H 3480.4 1.21225 2.69051 0
M  V30 33623 H 3480.48 2.23314 1.24758 0
M  V30 33624 H 3480.12 4.29381 2.71283 0
M  V30 33625 H 3480.05 3.24247 4.14935 0
M  V30 33626 H 3482.54 2.63157 2.71214 0
M  V30 33627 H 3482.85 5.81263 5.09267 0
M  V30 33628 H 3481.2 5.22288 4.5852 0
M  V30 33629 H 3484.39 3.31963 3.30028 0
M  V30 33630 H 3484.56 4.77007 4.38599 0
M  V30 33631 N 3477.97 -1.21711 1.00121 0
M  V30 33632 C 3479.21 -1.92399 0.690078 0
M  V30 33633 C 3479.57 -1.76116 -0.764664 0
M  V30 33634 O 3480.77 -2.41142 -1.1876 0
M  V30 33635 C 3479.05 -3.40213 1.09497 0
M  V30 33636 S 3480.6 -4.29398 0.903467 0
M  V30 33637 H 3477.42 -0.664825 0.252049 0
M  V30 33638 H 3480.02 -1.47315 1.28524 0
M  V30 33639 H 3478.73 -3.4958 2.14993 0
M  V30 33640 H 3478.26 -3.90312 0.491947 0
M  V30 33641 H 3480.27 -4.95791 -0.20151 0
M  V30 33642 N 3479.45 -0.775459 -1.37202 0
M  V30 33643 C 3480.69 -0.341972 -1.99896 0
M  V30 33644 C 3481.03 1.07975 -1.61416 0
M  V30 33645 O 3480.3 1.74349 -0.862138 0
M  V30 33646 C 3480.58 -0.489778 -3.56754 0
M  V30 33647 C 3480.44 -1.95418 -4.05132 0
M  V30 33648 C 3481.76 0.103702 -4.39978 0
M  V30 33649 H 3478.88 -0.125729 -0.726196 0
M  V30 33650 H 3481.52 -0.979195 -1.62824 0
M  V30 33651 H 3479.67 0.0527001 -3.88464 0
M  V30 33652 H 3481.34 -2.55665 -3.8397 0
M  V30 33653 H 3479.58 -2.4617 -3.57187 0
M  V30 33654 H 3480.25 -2.00864 -5.14157 0
M  V30 33655 H 3482.73 -0.359207 -4.14547 0
M  V30 33656 H 3481.61 -0.0298302 -5.48892 0
M  V30 33657 H 3481.87 1.1944 -4.2566 0
M  V30 33658 N 3480.93 1.48552 -0.526305 0
M  V30 33659 C 3481.87 2.31232 0.251897 0
M  V30 33660 C 3482.87 1.40996 0.938966 0
M  V30 33661 O 3484.07 1.57921 0.86377 0
M  V30 33662 H 3480.45 0.745308 0.100101 0
M  V30 33663 H 3482.42 2.94754 -0.465065 0
M  V30 33664 C 3481.17 3.2296 1.28811 0
M  V30 33665 H 3480.49 3.92338 0.76883 0
M  V30 33666 H 3481.93 3.83703 1.8041 0
M  V30 33667 C 3480.39 2.44311 2.31978 0
M  V30 33668 O 3480.92 2.16529 3.38346 0
M  V30 33669 N 3479.13 2.05873 2.05097 0
M  V30 33670 H 3478.67 2.28667 1.18614 0
M  V30 33671 H 3478.63 1.53562 2.74347 0
M  V30 33672 N 3482.4 0.261267 1.55419 0
M  V30 33673 C 3483.65 -0.360017 1.98461 0
M  V30 33674 C 3483.97 -1.58011 1.15291 0
M  V30 33675 O 3485.17 -2.27346 1.48412 0
M  V30 33676 C 3483.63 -0.691902 3.53187 0
M  V30 33677 C 3483.24 0.507599 4.45115 0
M  V30 33678 C 3484.98 -1.27658 4.0485 0
M  V30 33679 C 3482.89 0.15107 5.91207 0
M  V30 33680 H 3481.82 -0.13829 0.74121 0
M  V30 33681 H 3484.47 0.363744 1.79859 0
M  V30 33682 H 3482.85 -1.47419 3.67537 0
M  V30 33683 H 3484.02 1.28472 4.42529 0
M  V30 33684 H 3482.34 1.00818 4.04011 0
M  V30 33685 H 3484.94 -1.5569 5.11532 0
M  V30 33686 H 3485.28 -2.20587 3.53054 0
M  V30 33687 H 3485.81 -0.556886 3.93883 0
M  V30 33688 H 3482.55 1.04787 6.4707 0
M  V30 33689 H 3482.07 -0.589566 5.96895 0
M  V30 33690 H 3483.75 -0.261658 6.46471 0
M  V30 33691 N 3483.88 -1.57596 -0.0116567 0
M  V30 33692 C 3485.13 -1.89235 -0.698056 0
M  V30 33693 C 3485.44 -0.862047 -1.75579 0
M  V30 33694 O 3486.65 -1.06826 -2.496 0
M  V30 33695 C 3485.11 -3.35882 -1.29271 0
M  V30 33696 C 3484.71 -4.47183 -0.270412 0
M  V30 33697 C 3486.46 -3.76648 -1.95798 0
M  V30 33698 C 3484.36 -5.849 -0.874399 0
M  V30 33699 H 3483.29 -0.706091 -0.264483 0
M  V30 33700 H 3485.95 -1.8344 0.0469774 0
M  V30 33701 H 3484.33 -3.36478 -2.08803 0
M  V30 33702 H 3485.5 -4.58085 0.499462 0
M  V30 33703 H 3483.82 -4.15363 0.293749 0
M  V30 33704 H 3486.41 -4.76868 -2.41871 0
M  V30 33705 H 3486.76 -3.0955 -2.7836 0
M  V30 33706 H 3487.29 -3.78301 -1.23017 0
M  V30 33707 H 3484.03 -6.55441 -0.0878111 0
M  V30 33708 H 3483.55 -5.77685 -1.6137 0
M  V30 33709 H 3485.23 -6.32187 -1.37654 0
M  V30 33710 N 3485.36 0.284228 -1.55016 0
M  V30 33711 C 3486.61 1.01529 -1.74746 0
M  V30 33712 C 3486.93 1.87218 -0.545367 0
M  V30 33713 O 3486.2 1.90894 0.440013 0
M  V30 33714 H 3484.78 0.377853 -0.644388 0
M  V30 33715 H 3487.44 0.311166 -1.924 0
M  V30 33716 H 3486.54 1.65873 -2.64372 0
M  V30 33717 N 3486.84 1.47758 0.548222 0
M  V30 33718 C 3488.06 1.58724 1.33497 0
M  V30 33719 C 3488.49 0.241067 1.86549 0
M  V30 33720 O 3487.85 -0.784488 1.63449 0
M  V30 33721 C 3487.89 2.62297 2.47452 0
M  V30 33722 O 3487 2.18191 3.49952 0
M  V30 33723 H 3486.34 0.532875 0.396156 0
M  V30 33724 H 3488.87 1.93608 0.661606 0
M  V30 33725 H 3488.88 2.83 2.93896 0
M  V30 33726 H 3487.55 3.60037 2.08197 0
M  V30 33727 H 3486.13 2.07626 3.09751 0
M  V30 33728 N 3488.32 -0.79567 1.3604 0
M  V30 33729 C 3489.55 -1.58207 1.32869 0
M  V30 33730 C 3489.95 -1.88969 -0.0934856 0
M  V30 33731 O 3489.3 -1.50102 -1.05902 0
M  V30 33732 C 3489.36 -2.93304 2.07877 0
M  V30 33733 C 3489.02 -2.85302 3.57004 0
M  V30 33734 C 3490.02 -2.57979 4.51379 0
M  V30 33735 C 3487.7 -3.04076 3.99804 0
M  V30 33736 C 3489.7 -2.49522 5.8653 0
M  V30 33737 C 3487.39 -2.95241 5.35047 0
M  V30 33738 C 3488.38 -2.68002 6.28223 0
M  V30 33739 O 3488.07 -2.5915 7.60984 0
M  V30 33740 H 3487.8 -0.497575 0.457597 0
M  V30 33741 H 3490.36 -0.995946 1.79639 0
M  V30 33742 H 3488.59 -3.53943 1.55761 0
M  V30 33743 H 3490.28 -3.5453 1.97644 0
M  V30 33744 H 3491.04 -2.43184 4.19627 0
M  V30 33745 H 3486.92 -3.24286 3.27657 0
M  V30 33746 H 3490.47 -2.28181 6.59226 0
M  V30 33747 H 3486.36 -3.09598 5.66409 0
M  V30 33748 H 3487.13 -2.74677 7.71035 0
M  V30 33749 N 3489.79 -1.20217 -1.0191 0
M  V30 33750 C 3491.21 -0.956481 -1.27764 0
M  V30 33751 C 3491.41 0.365452 -1.98158 0
M  V30 33752 O 3490.47 1.09459 -2.27541 0
M  V30 33753 C 3491.78 -2.13736 -2.11513 0
M  V30 33754 C 3493.33 -2.17806 -2.24788 0
M  V30 33755 C 3493.8 -3.35372 -3.11913 0
M  V30 33756 N 3495.29 -3.3537 -3.19501 0
M  V30 33757 C 3496.03 -4.22985 -3.87132 0
M  V30 33758 N 3495.52 -5.20773 -4.56911 0
M  V30 33759 N 3497.32 -4.10833 -3.83631 0
M  V30 33760 H 3489.47 -2.05252 -0.54639 0
M  V30 33761 H 3491.73 -0.898018 -0.303757 0
M  V30 33762 H 3491.44 -3.09456 -1.67122 0
M  V30 33763 H 3491.31 -2.11619 -3.12245 0
M  V30 33764 H 3493.7 -1.2265 -2.68405 0
M  V30 33765 H 3493.78 -2.23972 -1.23572 0
M  V30 33766 H 3493.42 -4.30814 -2.69002 0
M  V30 33767 H 3493.35 -3.26443 -4.1321 0
M  V30 33768 H 3495.84 -2.64591 -2.69814 0
M  V30 33769 H 3496.16 -5.83956 -5.06177 0
M  V30 33770 H 3494.5 -5.24712 -4.55744 0
M  V30 33771 H 3497.69 -3.33709 -3.28262 0
M  V30 33772 H 3497.87 -4.79326 -4.36063 0
M  V30 33773 N 3491.27 1.21178 -1.00765 0
M  V30 33774 C 3492.51 1.9203 -0.700272 0
M  V30 33775 C 3492.88 1.76519 0.755313 0
M  V30 33776 O 3494.08 2.41768 1.1748 0
M  V30 33777 C 3492.35 3.39628 -1.113 0
M  V30 33778 S 3493.91 4.28913 -0.926227 0
M  V30 33779 H 3490.73 0.663479 -0.255571 0
M  V30 33780 H 3493.33 1.46632 -1.29303 0
M  V30 33781 H 3492.03 3.48435 -2.16844 0
M  V30 33782 H 3491.56 3.90046 -0.512639 0
M  V30 33783 H 3493.58 4.95891 0.175214 0
M  V30 33784 N 3492.75 0.782725 1.36789 0
M  V30 33785 C 3493.66 0.177511 2.33927 0
M  V30 33786 C 3494.68 -0.666774 1.60718 0
M  V30 33787 O 3495.85 -0.584128 1.92743 0
M  V30 33788 C 3492.92 -0.682881 3.39908 0
M  V30 33789 C 3491.98 0.179129 4.28926 0
M  V30 33790 C 3491.21 -0.640293 5.29845 0
M  V30 33791 O 3491.43 -1.87671 5.38642 0
M  V30 33792 O 3490.37 -0.0437106 6.01884 0
M  V30 33793 H 3494.19 0.980492 2.87437 0
M  V30 33794 H 3491.78 0.544065 1.39141 0
M  V30 33795 H 3493.66 -1.17372 4.04724 0
M  V30 33796 H 3492.34 -1.46386 2.88709 0
M  V30 33797 H 3491.24 0.716576 3.67173 0
M  V30 33798 H 3492.58 0.923462 4.83459 0
M  V30 33799 N 3494.23 -1.48271 0.534176 0
M  V30 33800 C 3495.47 -2.044 0.00366727 0
M  V30 33801 C 3495.83 -1.40195 -1.31184 0
M  V30 33802 O 3497.03 -1.87235 -1.92864 0
M  V30 33803 C 3495.3 -3.57226 -0.111512 0
M  V30 33804 S 3496.86 -4.34795 -0.591477 0
M  V30 33805 H 3493.68 -0.710861 0.0140727 0
M  V30 33806 H 3496.28 -1.81929 0.715688 0
M  V30 33807 H 3494.99 -4.01487 0.850679 0
M  V30 33808 H 3494.52 -3.84156 -0.847785 0
M  V30 33809 H 3496.53 -4.60211 -1.85527 0
M  V30 33810 N 3495.71 -0.269505 -1.55279 0
M  V30 33811 C 3496.65 0.636429 -2.23724 0
M  V30 33812 C 3497.65 1.1623 -1.23236 0
M  V30 33813 O 3498.85 1.11657 -1.41183 0
M  V30 33814 H 3495.23 0.223775 -0.717934 0
M  V30 33815 H 3497.2 0.0362532 -2.98378 0
M  V30 33816 C 3495.95 1.8119 -2.96759 0
M  V30 33817 H 3495.27 1.41643 -3.73868 0
M  V30 33818 H 3496.71 2.42252 -3.4798 0
M  V30 33819 C 3495.17 2.69693 -2.0191 0
M  V30 33820 O 3495.7 3.69889 -1.56669 0
M  V30 33821 N 3493.91 2.36741 -1.68529 0
M  V30 33822 H 3493.45 1.55311 -2.05515 0
M  V30 33823 H 3493.41 2.96229 -1.05336 0
M  V30 33824 N 3497.18 1.576 0.00329885 0
M  V30 33825 C 3498.09 2.11642 1.01217 0
M  V30 33826 C 3499.11 1.06091 1.37916 0
M  V30 33827 O 3500.29 1.37974 1.46715 0
M  V30 33828 C 3497.35 2.6063 2.28633 0
M  V30 33829 C 3496.41 3.80768 1.98277 0
M  V30 33830 C 3495.65 4.2741 3.19619 0
M  V30 33831 O 3495.87 3.73405 4.3119 0
M  V30 33832 O 3494.8 5.19599 3.03809 0
M  V30 33833 H 3498.63 2.98056 0.582787 0
M  V30 33834 H 3496.21 1.47743 0.221921 0
M  V30 33835 H 3498.1 2.92352 3.03493 0
M  V30 33836 H 3496.77 1.77315 2.70816 0
M  V30 33837 H 3495.68 3.54024 1.20904 0
M  V30 33838 H 3497.01 4.65146 1.60934 0
M  V30 33839 N 3498.66 -0.276003 1.55164 0
M  V30 33840 C 3499.91 -1.00601 1.75282 0
M  V30 33841 C 3500.23 -1.86927 0.555288 0
M  V30 33842 O 3499.5 -1.91125 -0.429883 0
M  V30 33843 H 3498.08 -0.37443 0.646383 0
M  V30 33844 H 3500.74 -0.300958 1.92562 0
M  V30 33845 H 3499.84 -1.64469 2.65248 0
M  V30 33846 N 3500.14 -1.48046 -0.540378 0
M  V30 33847 C 3501.39 -1.55533 -1.29675 0
M  V30 33848 C 3501.72 -0.224758 -1.93197 0
M  V30 33849 O 3500.97 0.783997 -1.7931 0
M  V30 33850 C 3501.27 -2.63451 -2.41513 0
M  V30 33851 C 3500.94 -4.06211 -1.95712 0
M  V30 33852 C 3499.6 -4.4507 -1.82938 0
M  V30 33853 C 3501.95 -4.95719 -1.60971 0
M  V30 33854 C 3499.28 -5.71253 -1.33743 0
M  V30 33855 C 3501.63 -6.22382 -1.13242 0
M  V30 33856 C 3500.29 -6.60106 -0.99077 0
M  V30 33857 H 3499.56 -0.569137 -0.474515 0
M  V30 33858 H 3502.21 -1.81719 -0.604177 0
M  V30 33859 H 3500.52 -2.31085 -3.16397 0
M  V30 33860 H 3502.21 -2.66462 -2.99665 0
M  V30 33861 H 3498.8 -3.75518 -2.06602 0
M  V30 33862 H 3502.99 -4.66384 -1.69705 0
M  V30 33863 H 3498.24 -5.99215 -1.21455 0
M  V30 33864 H 3502.42 -6.9114 -0.854279 0
M  V30 33865 H 3500.04 -7.5777 -0.607364 0
M  V30 33866 N 3501.62 0.788444 -1.3646 0
M  V30 33867 C 3502.55 1.90976 -1.26731 0
M  V30 33868 C 3503.56 1.61727 -0.186601 0
M  V30 33869 O 3504.75 1.72957 -0.441395 0
M  V30 33870 C 3501.85 3.25807 -0.932895 0
M  V30 33871 C 3501.03 3.82828 -2.11568 0
M  V30 33872 C 3500.08 4.961 -1.75417 0
M  V30 33873 O 3499.11 5.12566 -2.47517 0
M  V30 33874 N 3500.31 5.76403 -0.688429 0
M  V30 33875 H 3503.08 1.99844 -2.23344 0
M  V30 33876 H 3500.64 0.966761 -1.29867 0
M  V30 33877 H 3502.63 3.99078 -0.672202 0
M  V30 33878 H 3501.2 3.1255 -0.0558653 0
M  V30 33879 H 3500.42 3.01533 -2.53912 0
M  V30 33880 H 3501.71 4.17656 -2.90587 0
M  V30 33881 H 3501.11 5.65629 -0.0897848 0
M  V30 33882 H 3499.66 6.49974 -0.487561 0
M  V30 33883 N 3503.1 1.20755 1.01271 0
M  V30 33884 C 3504.32 1.04656 1.79058 0
M  V30 33885 C 3504.75 -0.3996 1.83806 0
M  V30 33886 O 3504.1 -1.28796 1.27598 0
M  V30 33887 C 3504.15 1.6393 3.21184 0
M  V30 33888 O 3503.26 0.879557 4.02911 0
M  V30 33889 H 3502.6 0.368832 0.55214 0
M  V30 33890 H 3505.13 1.60132 1.27353 0
M  V30 33891 H 3505.14 1.67828 3.71884 0
M  V30 33892 H 3503.81 2.69178 3.17043 0
M  V30 33893 H 3502.39 0.915083 3.61498 0
M  V30 33894 N 3504.58 -1.20642 1.01406 0
M  V30 33895 C 3505.8 -1.94469 0.720873 0
M  V30 33896 C 3506.23 -1.74117 -0.71168 0
M  V30 33897 O 3505.58 -1.03382 -1.48936 0
M  V30 33898 C 3505.63 -3.44708 1.0587 0
M  V30 33899 O 3504.74 -4.12054 0.168974 0
M  V30 33900 H 3504.08 -0.607641 0.267709 0
M  V30 33901 H 3506.61 -1.53145 1.35675 0
M  V30 33902 H 3506.62 -3.95318 1.00935 0
M  V30 33903 H 3505.29 -3.58845 2.10246 0
M  V30 33904 H 3503.87 -3.7188 0.275638 0
M  V30 33905 N 3506.05 -0.789968 -1.36372 0
M  V30 33906 C 3507.28 -0.373431 -2.0401 0
M  V30 33907 C 3507.7 1.00228 -1.59173 0
M  V30 33908 O 3507.06 1.6458 -0.76046 0
M  V30 33909 C 3507.11 -0.446146 -3.57829 0
M  V30 33910 O 3506.21 0.546708 -4.0876 0
M  V30 33911 H 3505.55 -0.158506 -0.644804 0
M  V30 33912 H 3508.08 -1.07123 -1.74315 0
M  V30 33913 H 3508.09 -0.309949 -4.06821 0
M  V30 33914 H 3506.77 -1.44969 -3.89816 0
M  V30 33915 H 3505.35 0.372126 -3.71039 0
M  V30 33916 N 3507.53 1.47986 -0.542031 0
M  V30 33917 C 3508.76 2.07395 -0.0147199 0
M  V30 33918 C 3509.18 1.39424 1.26263 0
M  V30 33919 O 3508.54 0.464149 1.75258 0
M  V30 33920 C 3508.59 3.60151 0.179874 0
M  V30 33921 O 3507.69 3.9313 1.24589 0
M  V30 33922 H 3507.03 0.662506 -0.0445193 0
M  V30 33923 H 3509.56 1.90224 -0.753385 0
M  V30 33924 H 3509.57 4.06046 0.398805 0
M  V30 33925 H 3508.25 4.09024 -0.753165 0
M  V30 33926 H 3506.82 3.58999 1.00866 0
M  V30 33927 N 3509.01 0.277736 1.55133 0
M  V30 33928 C 3510.26 -0.337627 1.9926 0
M  V30 33929 C 3510.58 -1.56181 1.16758 0
M  V30 33930 O 3509.85 -1.94197 0.257741 0
M  V30 33931 H 3508.43 -0.127738 0.735997 0
M  V30 33932 H 3511.09 0.383679 1.91086 0
M  V30 33933 H 3510.19 -0.625693 3.05764 0
M  V30 33934 N 3510.49 -1.57599 0.00505908 0
M  V30 33935 C 3511.72 -1.9507 -0.689575 0
M  V30 33936 C 3512.13 -0.880212 -1.67026 0
M  V30 33937 O 3511.49 0.140375 -1.81959 0
M  V30 33938 C 3511.54 -3.3257 -1.41703 0
M  V30 33939 O 3511.26 -4.3551 -0.475669 0
M  V30 33940 C 3512.76 -3.8453 -2.20571 0
M  V30 33941 H 3509.98 -0.643022 -0.191739 0
M  V30 33942 H 3512.52 -2.04419 0.057682 0
M  V30 33943 H 3510.68 -3.24514 -2.11588 0
M  V30 33944 H 3511.09 -5.15082 -0.989483 0
M  V30 33945 H 3512.57 -4.83152 -2.6696 0
M  V30 33946 H 3513.04 -3.17503 -3.03461 0
M  V30 33947 H 3513.65 -3.95778 -1.55693 0
M  V30 33948 N 3511.97 0.267771 -1.55309 0
M  V30 33949 C 3512.88 1.35303 -1.91651 0
M  V30 33950 C 3513.89 1.53766 -0.814376 0
M  V30 33951 O 3515.07 1.67791 -1.11391 0
M  V30 33952 C 3512.13 2.69134 -2.18558 0
M  V30 33953 C 3511.19 2.59374 -3.42088 0
M  V30 33954 C 3510.43 3.86822 -3.67702 0
M  V30 33955 O 3510.65 4.87746 -2.95736 0
M  V30 33956 O 3509.58 3.8671 -4.61236 0
M  V30 33957 H 3513.41 1.07478 -2.84046 0
M  V30 33958 H 3510.99 0.466747 -1.41922 0
M  V30 33959 H 3512.88 3.48257 -2.37266 0
M  V30 33960 H 3511.55 2.96735 -1.29345 0
M  V30 33961 H 3510.46 1.78609 -3.28709 0
M  V30 33962 H 3511.79 2.36722 -4.31536 0
M  V30 33963 N 3513.44 1.48331 0.532519 0
M  V30 33964 C 3514.68 1.57815 1.299 0
M  V30 33965 C 3515.05 0.245316 1.90426 0
M  V30 33966 O 3516.25 0.21513 2.67938 0
M  V30 33967 C 3514.52 2.683 2.36114 0
M  V30 33968 S 3516.08 2.97532 3.22521 0
M  V30 33969 H 3512.9 0.556998 0.441898 0
M  V30 33970 H 3515.5 1.8584 0.60695 0
M  V30 33971 H 3514.2 3.63704 1.90124 0
M  V30 33972 H 3513.73 2.42168 3.10029 0
M  V30 33973 H 3515.75 2.36635 4.3614 0
M  V30 33974 N 3514.92 -0.781196 1.36876 0
M  V30 33975 C 3515.85 -1.90828 1.34563 0
M  V30 33976 C 3516.83 -1.68726 0.215743 0
M  V30 33977 O 3518.02 -1.89722 0.414653 0
M  V30 33978 C 3515.15 -3.27974 1.14239 0
M  V30 33979 C 3514.1 -3.64617 2.24139 0
M  V30 33980 C 3513.43 -5.00202 1.88949 0
M  V30 33981 C 3514.73 -3.72346 3.66273 0
M  V30 33982 H 3516.42 -1.93021 2.28874 0
M  V30 33983 H 3513.97 -0.927256 1.10172 0
M  V30 33984 H 3515.92 -4.06449 1.11253 0
M  V30 33985 H 3514.64 -3.26189 0.163804 0
M  V30 33986 H 3513.3 -2.88444 2.26264 0
M  V30 33987 H 3512.95 -4.94947 0.896438 0
M  V30 33988 H 3512.65 -5.25689 2.62534 0
M  V30 33989 H 3514.18 -5.81088 1.87533 0
M  V30 33990 H 3515.59 -4.40994 3.66329 0
M  V30 33991 H 3513.99 -4.09324 4.38832 0
M  V30 33992 H 3515.06 -2.73243 4.00582 0
M  V30 33993 N 3516.4 -1.21291 -1.0063 0
M  V30 33994 C 3517.68 -0.938154 -1.71633 0
M  V30 33995 C 3518.06 0.550381 -2.03799 0
M  V30 33996 O 3517.4 1.51487 -1.71067 0
M  V30 33997 C 3517.61 -1.82189 -2.97671 0
M  V30 33998 C 3518.96 -2.06995 -3.70726 0
M  V30 33999 O 3519.99 -1.79527 -3.0765 0
M  V30 34000 O 3518.85 -2.53443 -4.84178 0
M  V30 34001 H 3515.94 -0.351677 -0.7485 0
M  V30 34002 H 3518.49 -1.32214 -1.06385 0
M  V30 34003 H 3517.26 -2.82936 -2.70301 0
M  V30 34004 H 3516.88 -1.43864 -3.7066 0
M  V30 34005 N 3517.88 1.20103 -1.02045 0
M  V30 34006 C 3518.83 2.25062 -0.587371 0
M  V30 34007 C 3519.82 1.65179 0.375815 0
M  V30 34008 O 3521.03 1.78321 0.245316 0
M  V30 34009 H 3517.4 0.732148 -0.17165 0
M  V30 34010 H 3519.37 2.58915 -1.48344 0
M  V30 34011 C 3518.12 3.47657 0.0546282 0
M  V30 34012 H 3517.44 3.94017 -0.677526 0
M  V30 34013 H 3518.88 4.22785 0.320712 0
M  V30 34014 C 3517.34 3.10865 1.29863 0
M  V30 34015 O 3517.87 3.2275 2.39156 0
M  V30 34016 N 3516.08 2.65378 1.18419 0
M  V30 34017 H 3515.63 2.55907 0.29485 0
M  V30 34018 H 3515.58 2.41131 2.0175 0
M  V30 34019 N 3519.36 0.797189 1.35951 0
M  V30 34020 C 3520.77 0.479792 1.52217 0
M  V30 34021 C 3520.97 -1.00061 1.749 0
M  V30 34022 O 3520.03 -1.7859 1.78498 0
M  V30 34023 C 3521.34 1.31699 2.70326 0
M  V30 34024 C 3522.89 1.31147 2.842 0
M  V30 34025 C 3523.36 2.13258 4.05321 0
M  V30 34026 N 3524.86 2.10745 4.12482 0
M  V30 34027 C 3525.59 2.71042 5.05296 0
M  V30 34028 N 3525.09 3.40229 6.03503 0
M  V30 34029 N 3526.88 2.60734 4.9797 0
M  V30 34030 H 3519.03 1.75606 1.19483 0
M  V30 34031 H 3521.29 0.746902 0.583817 0
M  V30 34032 H 3521 2.36717 2.60112 0
M  V30 34033 H 3520.87 0.963671 3.64682 0
M  V30 34034 H 3523.26 0.269183 2.9387 0
M  V30 34035 H 3523.34 1.7046 1.90727 0
M  V30 34036 H 3522.99 3.17522 3.96412 0
M  V30 34037 H 3522.92 1.71311 4.97956 0
M  V30 34038 H 3525.41 1.60396 3.42172 0
M  V30 34039 H 3525.72 3.83549 6.70902 0
M  V30 34040 H 3524.06 3.44333 6.03705 0
M  V30 34041 H 3527.26 2.06277 4.20199 0
M  V30 34042 H 3527.43 3.08017 5.70114 0
M  V30 34043 N 3520.83 -1.47696 0.549872 0
M  V30 34044 C 3521.77 -2.27947 -0.239305 0
M  V30 34045 C 3522.78 -1.36567 -0.886182 0
M  V30 34046 O 3523.97 -1.61453 -0.76127 0
M  V30 34047 C 3521.07 -3.10596 -1.35586 0
M  V30 34048 C 3520.24 -4.29888 -0.807159 0
M  V30 34049 C 3519.3 -4.9419 -1.80729 0
M  V30 34050 O 3518.33 -5.52804 -1.35632 0
M  V30 34051 N 3519.53 -4.88222 -3.14038 0
M  V30 34052 H 3522.29 -2.96317 0.449053 0
M  V30 34053 H 3519.85 -1.57244 0.385471 0
M  V30 34054 H 3521.85 -3.5048 -2.0235 0
M  V30 34055 H 3520.42 -2.44517 -1.94756 0
M  V30 34056 H 3519.64 -3.94183 0.037057 0
M  V30 34057 H 3520.92 -5.07065 -0.419788 0
M  V30 34058 H 3520.32 -4.41788 -3.53327 0
M  V30 34059 H 3518.88 -5.32147 -3.76381 0
M  V30 34060 N 3522.31 -0.285959 -1.54984 0
M  V30 34061 C 3523.56 0.327055 -1.99436 0
M  V30 34062 C 3523.88 1.5556 -1.17585 0
M  V30 34063 O 3523.15 1.94058 -0.268036 0
M  V30 34064 H 3521.73 0.123833 -0.736664 0
M  V30 34065 H 3524.39 -0.393808 -1.9088 0
M  V30 34066 H 3523.49 0.609469 -3.06091 0
M  V30 34067 N 3523.79 1.57594 -0.0134169 0
M  V30 34068 C 3524.72 2.12293 0.972304 0
M  V30 34069 C 3525.7 1.03525 1.34969 0
M  V30 34070 O 3526.89 1.31278 1.43108 0
M  V30 34071 C 3524.02 2.63721 2.25983 0
M  V30 34072 C 3522.97 3.77136 2.02366 0
M  V30 34073 C 3522.3 4.14931 3.37248 0
M  V30 34074 C 3523.6 5.03864 1.37544 0
M  V30 34075 H 3525.29 2.94906 0.516817 0
M  V30 34076 H 3522.84 1.41863 0.247151 0
M  V30 34077 H 3524.79 3.00618 2.95308 0
M  V30 34078 H 3523.51 1.78249 2.73669 0
M  V30 34079 H 3522.17 3.40654 1.35464 0
M  V30 34080 H 3521.82 3.26462 3.82663 0
M  V30 34081 H 3521.52 4.91349 3.22258 0
M  V30 34082 H 3523.04 4.54398 4.07867 0
M  V30 34083 H 3524.46 5.38447 1.96845 0
M  V30 34084 H 3522.86 5.85176 1.33001 0
M  V30 34085 H 3523.93 4.83662 0.346344 0
M  V30 34086 N 3525.27 -0.259531 1.55448 0
M  V30 34087 C 3526.51 -0.996818 1.78446 0
M  V30 34088 C 3526.87 -1.83002 0.580894 0
M  V30 34089 O 3528.07 -2.59809 0.689385 0
M  V30 34090 C 3526.34 -1.84497 3.06098 0
M  V30 34091 S 3527.9 -2.64307 3.50267 0
M  V30 34092 H 3524.72 -0.335512 0.626859 0
M  V30 34093 H 3527.32 -0.265895 1.93683 0
M  V30 34094 H 3526.03 -1.22234 3.91774 0
M  V30 34095 H 3525.56 -2.61886 2.93563 0
M  V30 34096 H 3527.57 -3.86963 3.10603 0
M  V30 34097 N 3526.75 -1.48611 -0.524645 0
M  V30 34098 C 3527.99 -1.569 -1.28018 0
M  V30 34099 C 3528.32 -0.245237 -1.92948 0
M  V30 34100 O 3527.58 0.764935 -1.80131 0
M  V30 34101 C 3527.88 -2.65998 -2.38705 0
M  V30 34102 C 3527.54 -4.08264 -1.91393 0
M  V30 34103 C 3526.2 -4.46985 -1.78207 0
M  V30 34104 C 3528.56 -4.97399 -1.55704 0
M  V30 34105 C 3525.88 -5.72639 -1.27677 0
M  V30 34106 C 3528.24 -6.23548 -1.06634 0
M  V30 34107 C 3526.9 -6.6112 -0.920702 0
M  V30 34108 H 3526.17 -0.574138 -0.468451 0
M  V30 34109 H 3528.82 -1.8235 -0.584869 0
M  V30 34110 H 3527.12 -2.34428 -3.13928 0
M  V30 34111 H 3528.82 -2.69625 -2.96822 0
M  V30 34112 H 3525.41 -3.77688 -2.02607 0
M  V30 34113 H 3529.59 -4.68158 -1.64749 0
M  V30 34114 H 3524.85 -6.0047 -1.15092 0
M  V30 34115 H 3529.02 -6.92008 -0.780926 0
M  V30 34116 H 3526.65 -7.58371 -0.526958 0
M  V30 34117 N 3528.22 0.773926 -1.37289 0
M  V30 34118 C 3529.19 1.86876 -1.32703 0
M  V30 34119 C 3530.19 1.59125 -0.231514 0
M  V30 34120 O 3531.38 1.67247 -0.487232 0
M  V30 34121 C 3528.51 3.2397 -1.06096 0
M  V30 34122 H 3529.7 1.92355 -2.30086 0
M  V30 34123 H 3527.26 0.973438 -1.22286 0
M  V30 34124 H 3527.99 3.24168 -0.0923438 0
M  V30 34125 H 3527.78 3.45504 -1.85389 0
M  V30 34126 H 3529.27 4.04046 -1.05531 0
M  V30 34127 N 3529.7 1.21823 0.99985 0
M  V30 34128 C 3530.61 0.998267 2.12301 0
M  V30 34129 C 3531.63 -0.0512617 1.73924 0
M  V30 34130 O 3532.8 0.139931 2.00913 0
M  V30 34131 C 3529.87 0.571292 3.41961 0
M  V30 34132 C 3528.93 1.69363 3.9448 0
M  V30 34133 C 3528.16 1.28694 5.17951 0
M  V30 34134 O 3528.39 0.162741 5.70168 0
M  V30 34135 O 3527.32 2.10081 5.64048 0
M  V30 34136 H 3531.15 1.93909 2.33737 0
M  V30 34137 H 3528.73 1.00356 1.10676 0
M  V30 34138 H 3530.61 0.343208 4.2 0
M  V30 34139 H 3529.29 -0.340758 3.21901 0
M  V30 34140 H 3528.2 1.97617 3.17645 0
M  V30 34141 H 3529.53 2.5833 4.18959 0
M  V30 34142 N 3531.18 -1.1956 1.0268 0
M  V30 34143 C 3532.43 -1.8947 0.723119 0
M  V30 34144 C 3532.76 -1.7929 -0.746237 0
M  V30 34145 O 3532.03 -1.18387 -1.5432 0
M  V30 34146 C 3532.32 -3.40484 1.1723 0
M  V30 34147 C 3532.17 -3.59546 2.70272 0
M  V30 34148 C 3533.49 -4.33637 0.751473 0
M  V30 34149 H 3530.61 -0.68803 0.264167 0
M  V30 34150 H 3533.25 -1.40745 1.27636 0
M  V30 34151 H 3531.4 -3.82112 0.701611 0
M  V30 34152 H 3533.07 -3.27103 3.25272 0
M  V30 34153 H 3531.32 -3.02669 3.10763 0
M  V30 34154 H 3531.99 -4.65445 2.96757 0
M  V30 34155 H 3534.46 -3.99712 1.15628 0
M  V30 34156 H 3533.34 -5.37894 1.09368 0
M  V30 34157 H 3533.6 -4.40742 -0.34629 0
M  V30 34158 N 3532.66 -0.804387 -1.35526 0
M  V30 34159 C 3533.59 -0.227645 -2.32388 0
M  V30 34160 C 3534.57 0.645681 -1.57369 0
M  V30 34161 O 3535.75 0.576409 -1.85449 0
M  V30 34162 C 3532.88 0.62639 -3.41605 0
M  V30 34163 C 3531.84 -0.148262 -4.27743 0
M  V30 34164 C 3531.16 0.827332 -5.28261 0
M  V30 34165 C 3532.46 -1.346 -5.04658 0
M  V30 34166 H 3534.16 -1.03689 -2.80872 0
M  V30 34167 H 3531.7 -0.500054 -1.35039 0
M  V30 34168 H 3533.66 1.03992 -4.08367 0
M  V30 34169 H 3532.38 1.4685 -2.91724 0
M  V30 34170 H 3531.04 -0.542938 -3.62557 0
M  V30 34171 H 3530.69 1.66488 -4.74648 0
M  V30 34172 H 3530.39 0.31335 -5.86764 0
M  V30 34173 H 3531.91 1.23911 -5.97895 0
M  V30 34174 H 3533.33 -1.00746 -5.64378 0
M  V30 34175 H 3531.72 -1.79432 -5.72647 0
M  V30 34176 H 3532.79 -2.13377 -4.35429 0
M  V30 34177 N 3534.14 1.47403 -0.557697 0
M  V30 34178 C 3535.07 2.28071 0.227213 0
M  V30 34179 C 3536.08 1.37035 0.878927 0
M  V30 34180 O 3537.27 1.61854 0.752697 0
M  V30 34181 C 3534.37 3.1131 1.33937 0
M  V30 34182 C 3533.54 4.3031 0.784349 0
M  V30 34183 C 3532.6 4.95141 1.78106 0
M  V30 34184 O 3531.63 5.53516 1.32698 0
M  V30 34185 N 3532.83 4.8988 3.11444 0
M  V30 34186 H 3535.6 2.96074 -0.464762 0
M  V30 34187 H 3533.16 1.57038 -0.393804 0
M  V30 34188 H 3535.15 3.51549 2.00489 0
M  V30 34189 H 3533.72 2.45547 1.93457 0
M  V30 34190 H 3532.94 3.94157 -0.0579609 0
M  V30 34191 H 3534.23 5.07281 0.392891 0
M  V30 34192 H 3533.63 4.43655 3.5098 0
M  V30 34193 H 3532.18 5.34136 3.73553 0
M  V30 34194 N 3535.62 0.294175 1.5483 0
M  V30 34195 C 3536.84 -0.319902 2.04412 0
M  V30 34196 C 3537.26 -1.48037 1.17177 0
M  V30 34197 O 3536.62 -1.81445 0.195913 0
M  V30 34198 C 3536.67 -0.782689 3.52925 0
M  V30 34199 O 3536.39 0.331588 4.36843 0
M  V30 34200 C 3537.89 -1.46262 4.18476 0
M  V30 34201 H 3535.11 -0.0704856 0.667288 0
M  V30 34202 H 3537.65 0.43182 1.99889 0
M  V30 34203 H 3535.81 -1.48445 3.57831 0
M  V30 34204 H 3536.22 -0.0274821 5.24493 0
M  V30 34205 H 3537.7 -1.73766 5.23936 0
M  V30 34206 H 3538.17 -2.40045 3.67798 0
M  V30 34207 H 3538.78 -0.804218 4.17627 0
M  V30 34208 N 3537.09 -1.57585 0.0217743 0
M  V30 34209 C 3538.34 -1.90674 -0.657759 0
M  V30 34210 C 3538.66 -0.899096 -1.73711 0
M  V30 34211 O 3539.86 -1.12097 -2.47278 0
M  V30 34212 C 3538.32 -3.38549 -1.22118 0
M  V30 34213 C 3537.93 -4.47656 -0.175497 0
M  V30 34214 C 3539.67 -3.80716 -1.87765 0
M  V30 34215 C 3537.58 -5.86623 -0.750136 0
M  V30 34216 H 3536.51 -0.711542 -0.249446 0
M  V30 34217 H 3539.16 -1.83299 0.0858771 0
M  V30 34218 H 3537.54 -3.40831 -2.01619 0
M  V30 34219 H 3538.71 -4.56923 0.596516 0
M  V30 34220 H 3537.03 -4.14646 0.381787 0
M  V30 34221 H 3539.63 -4.81891 -2.31701 0
M  V30 34222 H 3539.97 -3.15385 -2.71732 0
M  V30 34223 H 3540.5 -3.80825 -1.14965 0
M  V30 34224 H 3537.24 -6.5548 0.0512374 0
M  V30 34225 H 3536.76 -5.80978 -1.49081 0
M  V30 34226 H 3538.44 -6.34965 -1.24214 0
M  V30 34227 N 3538.57 0.251283 -1.55584 0
M  V30 34228 C 3539.81 0.98734 -1.78972 0
M  V30 34229 C 3540.18 1.82691 -0.590591 0
M  V30 34230 O 3541.38 2.5944 -0.703154 0
M  V30 34231 C 3539.65 1.82871 -3.07072 0
M  V30 34232 S 3541.21 2.62446 -3.51664 0
M  V30 34233 H 3538.02 0.332183 -0.62863 0
M  V30 34234 H 3540.63 0.255619 -1.93822 0
M  V30 34235 H 3539.33 1.20155 -3.92417 0
M  V30 34236 H 3538.86 2.60326 -2.94948 0
M  V30 34237 H 3540.88 3.8531 -3.12651 0
M  V30 34238 N 3540.05 1.48887 0.516757 0
M  V30 34239 C 3540.98 1.60494 1.63629 0
M  V30 34240 C 3541.99 0.488451 1.553 0
M  V30 34241 O 3543.18 0.759859 1.61519 0
M  V30 34242 C 3540.28 1.53098 3.02348 0
M  V30 34243 C 3539.46 2.80012 3.36024 0
M  V30 34244 C 3538.52 2.65887 4.54082 0
M  V30 34245 O 3537.54 3.39798 4.56646 0
M  V30 34246 N 3538.74 1.76382 5.53055 0
M  V30 34247 H 3541.51 2.57044 1.54105 0
M  V30 34248 H 3539.07 1.45777 0.704312 0
M  V30 34249 H 3541.06 1.41324 3.79222 0
M  V30 34250 H 3539.63 0.64469 3.0588 0
M  V30 34251 H 3538.85 3.06254 2.48198 0
M  V30 34252 H 3540.14 3.64184 3.55314 0
M  V30 34253 H 3539.54 1.1556 5.53771 0
M  V30 34254 H 3538.09 1.7054 6.29094 0
M  V30 34255 N 3541.53 -0.766635 1.37697 0
M  V30 34256 C 3542.46 -1.88755 1.28245 0
M  V30 34257 C 3543.44 -1.61791 0.161976 0
M  V30 34258 O 3544.62 -1.85462 0.337066 0
M  V30 34259 C 3541.75 -3.2409 0.984029 0
M  V30 34260 C 3540.8 -3.69959 2.12209 0
M  V30 34261 S 3541.63 -3.83029 3.74232 0
M  V30 34262 C 3542.78 -5.21204 3.46551 0
M  V30 34263 H 3543.02 -1.96485 2.23116 0
M  V30 34264 H 3540.55 -0.928268 1.2338 0
M  V30 34265 H 3542.51 -4.02253 0.818683 0
M  V30 34266 H 3541.17 -3.14056 0.0527096 0
M  V30 34267 H 3540.36 -4.68088 1.86842 0
M  V30 34268 H 3539.96 -2.98912 2.24783 0
M  V30 34269 H 3542.26 -6.06539 3.01856 0
M  V30 34270 H 3543.2 -5.51585 4.44026 0
M  V30 34271 H 3543.61 -4.89383 2.81361 0
M  V30 34272 N 3543.01 -1.22351 -0.993375 0
M  V30 34273 C 3543.97 -0.994543 -2.06498 0
M  V30 34274 C 3544.97 0.0388483 -1.60753 0
M  V30 34275 O 3546.16 -0.199609 -1.73053 0
M  V30 34276 C 3543.29 -0.502147 -3.37181 0
M  V30 34277 H 3544.48 -1.94537 -2.28244 0
M  V30 34278 H 3542.04 -1.04213 -1.16488 0
M  V30 34279 H 3542.77 0.453058 -3.2112 0
M  V30 34280 H 3542.56 -1.24769 -3.71719 0
M  V30 34281 H 3544.05 -0.362181 -4.16026 0
M  V30 34282 N 3544.48 1.19014 -1.03313 0
M  V30 34283 C 3545.71 1.93298 -0.75172 0
M  V30 34284 C 3546.13 1.75227 0.683889 0
M  V30 34285 O 3545.49 1.05738 1.47272 0
M  V30 34286 C 3545.54 3.4298 -1.11341 0
M  V30 34287 O 3544.64 4.11733 -0.234507 0
M  V30 34288 H 3543.98 0.603305 -0.277342 0
M  V30 34289 H 3546.51 1.50967 -1.38094 0
M  V30 34290 H 3546.52 3.93662 -1.07211 0
M  V30 34291 H 3545.2 3.55454 -2.15928 0
M  V30 34292 H 3543.78 3.71394 -0.334766 0
M  V30 34293 N 3545.96 0.811563 1.35098 0
M  V30 34294 C 3547.19 0.405841 2.0339 0
M  V30 34295 C 3547.61 -0.976831 1.60747 0
M  V30 34296 O 3546.97 -1.6335 0.786547 0
M  V30 34297 C 3547.02 0.503017 3.57074 0
M  V30 34298 O 3546.12 -0.481609 4.09578 0
M  V30 34299 H 3545.46 0.168744 0.6422 0
M  V30 34300 H 3547.99 1.09883 1.72589 0
M  V30 34301 H 3548 0.374631 4.06276 0
M  V30 34302 H 3546.68 1.51152 3.87461 0
M  V30 34303 H 3545.25 -0.31305 3.71584 0
M  V30 34304 N 3547.44 -1.47105 0.565506 0
M  V30 34305 C 3548.66 -2.07345 0.0477128 0
M  V30 34306 C 3549.09 -1.41416 -1.24029 0
M  V30 34307 O 3548.45 -0.491972 -1.74497 0
M  V30 34308 C 3548.5 -3.60392 -0.122554 0
M  V30 34309 O 3547.6 -3.95063 -1.18319 0
M  V30 34310 H 3546.94 -0.661714 0.0550535 0
M  V30 34311 H 3549.47 -1.89002 0.783553 0
M  V30 34312 H 3549.48 -4.06629 -0.334156 0
M  V30 34313 H 3548.16 -4.07774 0.818141 0
M  V30 34314 H 3546.73 -3.60559 -0.951418 0
M  V30 34315 N 3548.92 -0.302382 -1.54672 0
M  V30 34316 C 3550.33 0.0509619 -1.59519 0
M  V30 34317 C 3550.53 1.52302 -1.31933 0
M  V30 34318 O 3549.59 2.27597 -1.09342 0
M  V30 34319 C 3550.9 -0.34822 -2.98677 0
M  V30 34320 C 3552.45 -0.297101 -3.11587 0
M  V30 34321 C 3552.93 -0.671126 -4.53056 0
M  V30 34322 N 3554.42 -0.623714 -4.58982 0
M  V30 34323 C 3555.15 -0.885576 -5.6652 0
M  V30 34324 N 3554.65 -1.21348 -6.8209 0
M  V30 34325 N 3556.44 -0.812545 -5.56196 0
M  V30 34326 H 3548.59 -1.26173 -1.70863 0
M  V30 34327 H 3550.86 -0.511622 -0.79809 0
M  V30 34328 H 3550.56 -1.37303 -3.23791 0
M  V30 34329 H 3550.44 0.297439 -3.76025 0
M  V30 34330 H 3552.82 0.718464 -2.8622 0
M  V30 34331 H 3552.9 -0.977402 -2.36391 0
M  V30 34332 H 3552.55 -1.68451 -4.79152 0
M  V30 34333 H 3552.48 0.0312611 -5.26591 0
M  V30 34334 H 3554.97 -0.381269 -3.75972 0
M  V30 34335 H 3555.28 -1.39923 -7.60027 0
M  V30 34336 H 3553.63 -1.25153 -6.83639 0
M  V30 34337 H 3556.82 -0.556021 -4.64786 0
M  V30 34338 H 3556.99 -1.01999 -6.39922 0
M  V30 34339 N 3550.4 1.57571 -0.0301311 0
M  V30 34340 C 3551.34 2.11437 0.969388 0
M  V30 34341 C 3552.34 1.04118 1.33625 0
M  V30 34342 O 3553.54 1.22552 1.31837 0
M  V30 34343 H 3549.92 0.675532 0.330395 0
M  V30 34344 H 3551.89 2.94353 0.489776 0
M  V30 34345 C 3550.64 2.65738 2.24228 0
M  V30 34346 H 3549.96 3.47967 1.96874 0
M  V30 34347 H 3551.4 3.07073 2.92373 0
M  V30 34348 C 3549.86 1.58529 2.97271 0
M  V30 34349 O 3550.39 0.985709 3.89418 0
M  V30 34350 N 3548.6 1.3055 2.59625 0
M  V30 34351 H 3548.14 1.79494 1.84769 0
M  V30 34352 H 3548.1 0.590426 3.08806 0
M  V30 34353 N 3551.87 -0.243029 1.55715 0
M  V30 34354 C 3552.8 -1.30458 1.93657 0
M  V30 34355 C 3553.79 -1.50007 0.801994 0
M  V30 34356 O 3554.97 -1.6255 1.06259 0
M  V30 34357 C 3552.1 -2.65859 2.23464 0
M  V30 34358 C 3551.05 -2.61 3.3921 0
M  V30 34359 C 3550.38 -4.00232 3.54568 0
M  V30 34360 C 3551.68 -2.17648 4.74791 0
M  V30 34361 H 3553.37 -0.98949 2.82576 0
M  V30 34362 H 3550.92 -0.474548 1.35956 0
M  V30 34363 H 3552.87 -3.40261 2.48597 0
M  V30 34364 H 3551.6 -2.99012 1.31375 0
M  V30 34365 H 3550.26 -1.89055 3.14092 0
M  V30 34366 H 3549.9 -4.30657 2.59892 0
M  V30 34367 H 3549.6 -3.97868 4.32406 0
M  V30 34368 H 3551.13 -4.76328 3.82026 0
M  V30 34369 H 3552.54 -2.81783 4.99271 0
M  V30 34370 H 3550.94 -2.26387 5.5576 0
M  V30 34371 H 3552.01 -1.12822 4.71592 0
M  V30 34372 N 3553.35 -1.49159 -0.508854 0
M  V30 34373 C 3554.6 -1.58483 -1.26534 0
M  V30 34374 C 3554.93 -0.267202 -1.92353 0
M  V30 34375 O 3554.21 0.728607 -1.80337 0
M  V30 34376 C 3554.49 -2.73843 -2.33841 0
M  V30 34377 C 3554.34 -4.15377 -1.72575 0
M  V30 34378 C 3555.66 -2.84874 -3.35462 0
M  V30 34379 H 3552.78 -0.576867 -0.458687 0
M  V30 34380 H 3555.42 -1.81414 -0.564696 0
M  V30 34381 H 3553.57 -2.54422 -2.93601 0
M  V30 34382 H 3555.24 -4.46294 -1.16703 0
M  V30 34383 H 3553.49 -4.2139 -1.03017 0
M  V30 34384 H 3554.16 -4.91954 -2.50371 0
M  V30 34385 H 3556.63 -3.02529 -2.85684 0
M  V30 34386 H 3555.51 -3.67282 -4.07916 0
M  V30 34387 H 3555.77 -1.93901 -3.9731 0
M  V30 34388 N 3554.83 0.759322 -1.38102 0
M  V30 34389 C 3556.06 1.54853 -1.37216 0
M  V30 34390 C 3556.47 1.88759 0.0394843 0
M  V30 34391 O 3555.83 1.52362 1.00459 0
M  V30 34392 C 3555.88 2.85119 -2.22237 0
M  V30 34393 O 3555.6 2.52662 -3.57901 0
M  V30 34394 C 3557.1 3.79288 -2.29468 0
M  V30 34395 H 3554.32 0.479337 -0.46955 0
M  V30 34396 H 3556.87 0.940184 -1.81606 0
M  V30 34397 H 3555.02 3.42346 -1.81323 0
M  V30 34398 H 3555.44 3.36169 -4.02605 0
M  V30 34399 H 3556.91 4.6766 -2.93255 0
M  V30 34400 H 3557.39 4.19312 -1.30667 0
M  V30 34401 H 3557.99 3.27988 -2.70747 0
M  V30 34402 N 3556.31 1.22876 0.986873 0
M  V30 34403 C 3557.26 1.00419 2.07809 0
M  V30 34404 C 3558.23 -0.0761442 1.65925 0
M  V30 34405 O 3559.41 0.074663 1.90654 0
M  V30 34406 C 3556.55 0.594531 3.3994 0
M  V30 34407 C 3555.66 1.74629 3.95131 0
M  V30 34408 C 3554.8 1.28403 5.15447 0
M  V30 34409 C 3553.84 2.40696 5.62789 0
M  V30 34410 N 3552.97 1.95474 6.7434 0
M  V30 34411 H 3557.81 1.93826 2.26352 0
M  V30 34412 H 3555.35 0.965681 1.10964 0
M  V30 34413 H 3557.31 0.338151 4.15827 0
M  V30 34414 H 3555.94 -0.302531 3.21379 0
M  V30 34415 H 3554.99 2.11684 3.1606 0
M  V30 34416 H 3556.3 2.59074 4.26242 0
M  V30 34417 H 3555.46 0.985395 5.98644 0
M  V30 34418 H 3554.2 0.409874 4.85975 0
M  V30 34419 H 3553.2 2.71342 4.78178 0
M  V30 34420 H 3554.43 3.28638 5.94284 0
M  V30 34421 H 3552.37 1.10429 6.46639 0
M  V30 34422 H 3552.29 2.73481 7.04801 0
M  V30 34423 H 3553.56 1.68696 7.61027 0
M  V30 34424 N 3557.79 -1.18464 1.03942 0
M  V30 34425 C 3559.01 -1.92896 0.76196 0
M  V30 34426 C 3559.44 -1.75587 -0.674587 0
M  V30 34427 O 3558.79 -1.06518 -1.46709 0
M  V30 34428 C 3558.84 -3.42385 1.13158 0
M  V30 34429 O 3557.95 -4.11603 0.256339 0
M  V30 34430 H 3557.29 -0.601826 0.280538 0
M  V30 34431 H 3559.82 -1.50233 1.38893 0
M  V30 34432 H 3559.83 -3.93088 1.09297 0
M  V30 34433 H 3558.5 -3.54304 2.1781 0
M  V30 34434 H 3557.08 -3.71212 0.354457 0
M  V30 34435 N 3559.26 -0.818716 -1.34665 0
M  V30 34436 C 3560.17 -0.23947 -2.33375 0
M  V30 34437 C 3561.19 0.623928 -1.62429 0
M  V30 34438 O 3562.37 0.53282 -1.94224 0
M  V30 34439 C 3559.43 0.59252 -3.41599 0
M  V30 34440 C 3558.49 -0.292788 -4.283 0
M  V30 34441 C 3557.73 0.499589 -5.31357 0
M  V30 34442 O 3557.95 1.73324 -5.43429 0
M  V30 34443 O 3556.88 -0.115884 -6.01788 0
M  V30 34444 H 3560.71 -1.05636 -2.84736 0
M  V30 34445 H 3558.29 -0.580765 -1.3765 0
M  V30 34446 H 3560.18 1.066 -4.07694 0
M  V30 34447 H 3558.85 1.3868 -2.92488 0
M  V30 34448 H 3557.76 -0.813674 -3.65144 0
M  V30 34449 H 3559.09 -1.05132 -4.80841 0
M  V30 34450 N 3560.74 1.46803 -0.573299 0
M  V30 34451 C 3561.98 2.04318 -0.0578589 0
M  V30 34452 C 3562.35 1.43624 1.27421 0
M  V30 34453 O 3563.55 1.92283 1.87832 0
M  V30 34454 C 3561.82 3.57396 0.0167602 0
M  V30 34455 S 3563.38 4.36211 0.475991 0
M  V30 34456 H 3560.2 0.710238 -0.032915 0
M  V30 34457 H 3562.8 1.79967 -0.763672 0
M  V30 34458 H 3561.5 3.9909 -0.956827 0
M  V30 34459 H 3561.03 3.86269 0.745634 0
M  V30 34460 H 3563.05 4.64968 1.7326 0
M  V30 34461 N 3562.22 0.31058 1.54509 0
M  V30 34462 C 3563.46 -0.296623 2.02236 0
M  V30 34463 C 3563.82 -1.50355 1.19404 0
M  V30 34464 O 3565.03 -2.18275 1.56873 0
M  V30 34465 C 3563.3 -0.635045 3.51713 0
M  V30 34466 S 3564.86 -1.22375 4.2139 0
M  V30 34467 H 3561.67 -0.090501 0.705217 0
M  V30 34468 H 3564.28 0.440682 1.90468 0
M  V30 34469 H 3562.98 0.251691 4.09627 0
M  V30 34470 H 3562.51 -1.40289 3.67536 0
M  V30 34471 H 3564.53 -2.51117 4.27966 0
M  V30 34472 N 3563.7 -1.57553 0.0384871 0
M  V30 34473 C 3564.94 -1.94051 -0.642153 0
M  V30 34474 C 3565.3 -0.915808 -1.68751 0
M  V30 34475 O 3566.5 -1.1673 -2.42131 0
M  V30 34476 C 3564.78 -3.35415 -1.23416 0
M  V30 34477 S 3566.33 -3.93852 -1.93457 0
M  V30 34478 H 3563.15 -0.678912 -0.211186 0
M  V30 34479 H 3565.75 -1.95221 0.104393 0
M  V30 34480 H 3564.46 -4.07802 -0.46104 0
M  V30 34481 H 3563.99 -3.3771 -2.01781 0
M  V30 34482 H 3566 -3.78048 -3.21394 0
M  V30 34483 N 3565.18 0.234767 -1.55842 0
M  V30 34484 C 3566.45 0.984636 -1.6901 0
M  V30 34485 C 3566.83 2.02921 -0.581917 0
M  V30 34486 O 3566.18 2.24737 0.412958 0
M  V30 34487 C 3566.39 1.60703 -3.09799 0
M  V30 34488 C 3567.74 2.1043 -3.68788 0
M  V30 34489 O 3568.76 1.70621 -3.12677 0
M  V30 34490 O 3567.62 2.83559 -4.6718 0
M  V30 34491 H 3564.72 0.459093 -0.687868 0
M  V30 34492 H 3567.26 0.227593 -1.68167 0
M  V30 34493 H 3566.04 0.852101 -3.8191 0
M  V30 34494 H 3565.66 2.42996 -3.14704 0
M  V30 34495 N 3566.66 1.49427 0.500936 0
M  V30 34496 C 3567.9 1.58603 1.25258 0
M  V30 34497 C 3568.22 0.274681 1.93056 0
M  V30 34498 O 3567.49 -0.705971 1.82737 0
M  V30 34499 H 3566.07 0.58437 0.465318 0
M  V30 34500 H 3568.74 1.86053 0.580555 0
M  V30 34501 H 3567.83 2.38211 2.01648 0
M  V30 34502 N 3568.13 -0.751987 1.38502 0
M  V30 34503 C 3569.38 -1.50817 1.34531 0
M  V30 34504 C 3569.7 -1.94896 -0.0635812 0
M  V30 34505 O 3568.97 -1.67762 -1.01158 0
M  V30 34506 H 3567.55 -0.559432 0.49502 0
M  V30 34507 H 3570.21 -0.893792 1.73197 0
M  V30 34508 H 3569.31 -2.39832 1.99718 0
M  V30 34509 N 3569.61 -1.23398 -0.980343 0
M  V30 34510 C 3571.03 -0.996644 -1.24656 0
M  V30 34511 C 3571.23 0.302224 -1.99221 0
M  V30 34512 O 3570.28 1.02165 -2.30908 0
M  V30 34513 C 3571.6 -2.20356 -2.04606 0
M  V30 34514 C 3573.14 -2.24847 -2.17745 0
M  V30 34515 C 3573.62 -3.45126 -3.01085 0
M  V30 34516 N 3575.11 -3.45365 -3.0867 0
M  V30 34517 C 3575.85 -4.35087 -3.73479 0
M  V30 34518 N 3575.34 -5.35045 -4.40112 0
M  V30 34519 N 3577.13 -4.2283 -3.70366 0
M  V30 34520 H 3569.29 -2.06886 -0.480814 0
M  V30 34521 H 3571.55 -0.907227 -0.275033 0
M  V30 34522 H 3571.25 -3.14617 -1.57192 0
M  V30 34523 H 3571.13 -2.21446 -3.05355 0
M  V30 34524 H 3573.52 -1.31127 -2.64367 0
M  V30 34525 H 3573.6 -2.2779 -1.16384 0
M  V30 34526 H 3573.24 -4.39154 -2.5516 0
M  V30 34527 H 3573.17 -3.39424 -4.02615 0
M  V30 34528 H 3575.66 -2.73041 -2.6126 0
M  V30 34529 H 3575.97 -5.99764 -4.87343 0
M  V30 34530 H 3574.32 -5.38945 -4.3882 0
M  V30 34531 H 3577.51 -3.43983 -3.1748 0
M  V30 34532 H 3577.68 -4.92956 -4.20593 0
M  V30 34533 N 3571.09 1.17911 -1.04569 0
M  V30 34534 C 3572.34 1.87646 -0.750571 0
M  V30 34535 C 3572.66 1.81053 0.724198 0
M  V30 34536 O 3571.93 1.23226 1.5229 0
M  V30 34537 H 3570.51 0.694678 -0.274649 0
M  V30 34538 H 3573.17 1.4307 -1.32352 0
M  V30 34539 H 3572.27 2.93551 -1.05992 0
M  V30 34540 N 3572.57 0.825847 1.34229 0
M  V30 34541 C 3573.81 0.425116 1.98908 0
M  V30 34542 C 3574.17 -1.00145 1.64282 0
M  V30 34543 O 3573.46 -1.68842 0.905696 0
M  V30 34544 C 3573.66 0.567842 3.5286 0
M  V30 34545 C 3573.48 2.00673 4.02443 0
M  V30 34546 C 3572.25 2.63923 4.30897 0
M  V30 34547 C 3574.45 2.97384 4.19604 0
M  V30 34548 N 3572.43 3.99022 4.66534 0
M  V30 34549 C 3573.81 4.17398 4.58453 0
M  V30 34550 C 3575.86 2.93961 4.0186 0
M  V30 34551 C 3574.56 5.34448 4.81413 0
M  V30 34552 C 3576.59 4.1023 4.25987 0
M  V30 34553 C 3575.95 5.28996 4.65126 0
M  V30 34554 H 3572.05 0.203724 0.754997 0
M  V30 34555 H 3574.63 1.07116 1.62586 0
M  V30 34556 H 3572.81 -0.0483256 3.8837 0
M  V30 34557 H 3574.54 0.139826 4.04458 0
M  V30 34558 H 3571.29 2.15144 4.21912 0
M  V30 34559 H 3571.72 4.68631 4.88583 0
M  V30 34560 H 3576.36 2.03279 3.70726 0
M  V30 34561 H 3574.08 6.25686 5.11413 0
M  V30 34562 H 3577.66 4.08985 4.13791 0
M  V30 34563 H 3576.54 6.17468 4.83428 0
M  V30 34564 N 3574.05 -1.46497 0.581077 0
M  V30 34565 C 3575.29 -2.01993 0.0659007 0
M  V30 34566 C 3575.61 -1.45519 -1.29805 0
M  V30 34567 O 3574.88 -0.639265 -1.85176 0
M  V30 34568 H 3573.46 -0.746694 0.0213716 0
M  V30 34569 H 3576.13 -1.7962 0.756487 0
M  V30 34570 H 3575.22 -3.121 -0.00432642 0
M  V30 34571 N 3575.52 -0.31877 -1.54343 0
M  V30 34572 C 3576.47 0.56481 -2.20893 0
M  V30 34573 C 3577.46 1.08532 -1.18784 0
M  V30 34574 O 3578.65 1.02314 -1.44433 0
M  V30 34575 C 3575.78 1.72758 -2.96664 0
M  V30 34576 C 3574.86 1.22219 -4.06108 0
M  V30 34577 N 3575.26 0.436114 -5.03916 0
M  V30 34578 C 3573.55 1.50135 -4.19971 0
M  V30 34579 C 3574.25 0.164773 -5.81467 0
M  V30 34580 N 3573.23 0.749565 -5.38407 0
M  V30 34581 H 3577.03 -0.0431139 -2.93868 0
M  V30 34582 H 3574.55 -0.12439 -1.61923 0
M  V30 34583 H 3576.54 2.3723 -3.42823 0
M  V30 34584 H 3575.2 2.33903 -2.2521 0
M  V30 34585 H 3576.21 0.0793905 -5.17839 0
M  V30 34586 H 3572.89 2.11899 -3.59729 0
M  V30 34587 H 3574.28 -0.467735 -6.7027 0
M  V30 34588 N 3577 1.5753 -0.0468419 0
M  V30 34589 C 3577.93 2.08213 0.95812 0
M  V30 34590 C 3578.95 1.00908 1.27755 0
M  V30 34591 O 3580.14 1.28485 1.2391 0
M  V30 34592 C 3577.24 2.50661 2.28084 0
M  V30 34593 C 3576.41 3.81252 2.14396 0
M  V30 34594 C 3575.47 4.10059 3.29754 0
M  V30 34595 O 3574.49 4.80046 3.05851 0
M  V30 34596 N 3575.7 3.61629 4.54098 0
M  V30 34597 H 3578.46 2.95056 0.52556 0
M  V30 34598 H 3576.02 1.61298 0.139504 0
M  V30 34599 H 3578.01 2.67012 3.04116 0
M  V30 34600 H 3576.58 1.6909 2.62921 0
M  V30 34601 H 3575.8 3.74525 1.22981 0
M  V30 34602 H 3577.09 4.66778 2.02473 0
M  V30 34603 H 3576.49 3.05043 4.76409 0
M  V30 34604 H 3575.05 3.83226 5.27239 0
M  V30 34605 N 3578.48 -0.226499 1.55964 0
M  V30 34606 C 3579.72 -0.958743 1.8052 0
M  V30 34607 C 3580.08 -1.81728 0.619581 0
M  V30 34608 O 3581.29 -2.58289 0.74434 0
M  V30 34609 C 3579.56 -1.77962 3.09942 0
M  V30 34610 S 3581.12 -2.56818 3.55795 0
M  V30 34611 H 3577.93 -0.32214 0.633835 0
M  V30 34612 H 3580.54 -0.224752 1.94204 0
M  V30 34613 H 3579.24 -1.13896 3.94279 0
M  V30 34614 H 3578.77 -2.556 2.99052 0
M  V30 34615 H 3580.79 -3.80287 3.18741 0
M  V30 34616 N 3579.96 -1.4969 -0.493005 0
M  V30 34617 C 3580.87 -1.69697 -1.61988 0
M  V30 34618 C 3581.88 -0.579669 -1.6406 0
M  V30 34619 O 3583.06 -0.855355 -1.82334 0
M  V30 34620 C 3580.13 -1.76653 -2.9832 0
M  V30 34621 C 3579.19 -3.00276 -3.0681 0
M  V30 34622 C 3578.42 -3.06891 -4.36639 0
M  V30 34623 O 3578.64 -2.20881 -5.25897 0
M  V30 34624 O 3577.58 -3.99427 -4.50268 0
M  V30 34625 H 3581.4 -2.65177 -1.48037 0
M  V30 34626 H 3578.99 -1.33526 -0.670159 0
M  V30 34627 H 3580.87 -1.83536 -3.79332 0
M  V30 34628 H 3579.54 -0.843537 -3.12516 0
M  V30 34629 H 3578.45 -2.98907 -2.24956 0
M  V30 34630 H 3579.78 -3.92082 -2.97544 0
M  V30 34631 N 3581.44 0.744631 -1.38899 0
M  V30 34632 C 3582.37 1.87193 -1.39575 0
M  V30 34633 C 3583.35 1.68095 -0.260402 0
M  V30 34634 O 3584.53 1.88555 -0.464809 0
M  V30 34635 C 3581.66 3.2483 -1.22895 0
M  V30 34636 C 3580.62 3.58546 -2.33727 0
M  V30 34637 C 3579.94 4.95017 -2.02145 0
M  V30 34638 C 3581.24 3.62504 -3.76016 0
M  V30 34639 H 3582.94 1.86885 -2.33911 0
M  V30 34640 H 3580.48 0.89772 -1.12592 0
M  V30 34641 H 3582.44 4.03356 -1.2199 0
M  V30 34642 H 3581.16 3.2564 -0.25023 0
M  V30 34643 H 3579.82 2.82344 -2.33833 0
M  V30 34644 H 3579.47 4.92397 -1.02735 0
M  V30 34645 H 3579.17 5.18544 -2.7638 0
M  V30 34646 H 3580.69 5.75912 -2.02874 0
M  V30 34647 H 3582.1 4.31127 -3.77892 0
M  V30 34648 H 3580.5 3.97545 -4.49531 0
M  V30 34649 H 3581.57 2.62526 -4.07686 0
M  V30 34650 N 3582.91 1.23916 0.973785 0
M  V30 34651 C 3584.15 1.08704 1.73098 0
M  V30 34652 C 3584.52 -0.368739 1.88426 0
M  V30 34653 O 3585.72 -0.642213 2.61015 0
M  V30 34654 C 3583.99 1.79983 3.08773 0
M  V30 34655 S 3585.55 1.80426 3.9999 0
M  V30 34656 H 3582.37 0.3889 0.595212 0
M  V30 34657 H 3584.97 1.57154 1.16288 0
M  V30 34658 H 3583.67 2.8503 2.95273 0
M  V30 34659 H 3583.2 1.31842 3.7065 0
M  V30 34660 H 3585.22 0.86758 4.88557 0
M  V30 34661 N 3584.39 -1.17355 1.05193 0
M  V30 34662 C 3585.8 -1.69249 0.788135 0
M  V30 34663 C 3586.15 -1.83678 -0.689685 0
M  V30 34664 O 3585.28 -1.52436 -1.53598 0
M  V30 34665 C 3585.87 -3.07418 1.42406 0
M  V30 34666 C 3584.43 -3.56478 1.20831 0
M  V30 34667 C 3583.58 -2.32738 1.5076 0
M  V30 34668 H 3586.53 -1.01872 1.21687 0
M  V30 34669 H 3586.55 -3.71262 0.83335 0
M  V30 34670 H 3586.06 -2.96884 2.49963 0
M  V30 34671 H 3584.17 -3.7229 0.151995 0
M  V30 34672 H 3584.28 -4.39239 1.91327 0
M  V30 34673 H 3582.64 -2.37205 0.92769 0
M  V30 34674 H 3583.43 -2.24812 2.5945 0
M  V30 34675 N 3585.87 -0.832954 -1.3379 0
M  V30 34676 C 3586.8 -0.276887 -2.31853 0
M  V30 34677 C 3587.78 0.612156 -1.58703 0
M  V30 34678 O 3588.97 0.536943 -1.86629 0
M  V30 34679 C 3586.1 0.55379 -3.42856 0
M  V30 34680 C 3585.05 -0.23896 -4.27332 0
M  V30 34681 C 3584.38 0.715094 -5.29897 0
M  V30 34682 C 3585.68 -1.45274 -5.0169 0
M  V30 34683 H 3587.37 -1.09623 -2.78609 0
M  V30 34684 H 3584.92 -0.528586 -1.33948 0
M  V30 34685 H 3586.87 0.953061 -4.10481 0
M  V30 34686 H 3585.59 1.40629 -2.94773 0
M  V30 34687 H 3584.25 -0.619719 -3.61324 0
M  V30 34688 H 3583.9 1.56382 -4.78073 0
M  V30 34689 H 3583.6 0.188818 -5.87297 0
M  V30 34690 H 3585.12 1.11201 -6.00389 0
M  V30 34691 H 3586.54 -1.12695 -5.62115 0
M  V30 34692 H 3584.94 -1.91538 -5.68712 0
M  V30 34693 H 3586.01 -2.22565 -4.30805 0
M  V30 34694 N 3587.35 1.46186 -0.588837 0
M  V30 34695 C 3588.76 1.85979 -0.16393 0
M  V30 34696 C 3589.11 1.49163 1.27455 0
M  V30 34697 O 3588.24 0.909406 1.96364 0
M  V30 34698 C 3588.83 3.3755 -0.290729 0
M  V30 34699 C 3587.39 3.76316 0.0793504 0
M  V30 34700 C 3586.54 2.70191 -0.623855 0
M  V30 34701 H 3589.49 1.37254 -0.796684 0
M  V30 34702 H 3589.51 3.77432 0.48225 0
M  V30 34703 H 3589.02 3.64315 -1.33777 0
M  V30 34704 H 3587.12 3.5517 1.12629 0
M  V30 34705 H 3587.23 4.78152 -0.301237 0
M  V30 34706 H 3585.6 2.54621 -0.0634571 0
M  V30 34707 H 3586.38 2.99795 -1.67267 0
M  V30 34708 N 3588.83 0.32695 1.54171 0
M  V30 34709 C 3590.07 -0.274063 2.00233 0
M  V30 34710 C 3590.4 -1.52388 1.21668 0
M  V30 34711 O 3589.67 -1.93279 0.319393 0
M  V30 34712 H 3588.25 -0.104258 0.739689 0
M  V30 34713 H 3590.91 0.444278 1.89769 0
M  V30 34714 H 3590 -0.5281 3.076 0
M  V30 34715 N 3590.3 -1.57503 0.0551955 0
M  V30 34716 C 3591.53 -1.97166 -0.627166 0
M  V30 34717 C 3591.95 -0.932905 -1.64141 0
M  V30 34718 O 3591.3 0.0824145 -1.82314 0
M  V30 34719 C 3591.36 -3.36909 -1.31051 0
M  V30 34720 O 3591.08 -4.36803 -0.336874 0
M  V30 34721 C 3592.58 -3.91353 -2.08226 0
M  V30 34722 H 3589.8 -0.648796 -0.171185 0
M  V30 34723 H 3592.34 -2.04132 0.122687 0
M  V30 34724 H 3590.5 -3.31081 -2.01157 0
M  V30 34725 H 3590.91 -5.17969 -0.825113 0
M  V30 34726 H 3592.38 -4.91401 -2.51454 0
M  V30 34727 H 3592.86 -3.26996 -2.93207 0
M  V30 34728 H 3593.47 -4.00531 -1.43022 0
M  V30 34729 N 3591.78 0.218225 -1.56082 0
M  V30 34730 C 3592.75 1.25399 -1.91854 0
M  V30 34731 C 3593.75 1.39635 -0.797423 0
M  V30 34732 O 3594.94 1.37843 -1.06513 0
M  V30 34733 C 3592.07 2.62726 -2.17227 0
M  V30 34734 H 3593.26 0.948832 -2.84495 0
M  V30 34735 H 3590.81 0.458782 -1.49415 0
M  V30 34736 H 3591.55 2.98335 -1.27149 0
M  V30 34737 H 3591.33 2.5377 -2.98904 0
M  V30 34738 H 3592.82 3.37461 -2.45987 0
M  V30 34739 N 3593.26 1.4995 0.485059 0
M  V30 34740 C 3594.19 1.63928 1.60188 0
M  V30 34741 C 3595.21 0.521283 1.54229 0
M  V30 34742 O 3596.4 0.793948 1.59871 0
M  V30 34743 C 3593.5 1.59477 2.99032 0
M  V30 34744 C 3592.67 2.87077 3.30008 0
M  V30 34745 C 3591.73 2.75459 4.4834 0
M  V30 34746 O 3590.75 3.49408 4.49336 0
M  V30 34747 N 3591.96 1.88073 5.49189 0
M  V30 34748 H 3594.72 2.60255 1.48618 0
M  V30 34749 H 3592.28 1.47239 0.673232 0
M  V30 34750 H 3594.27 1.49336 3.76139 0
M  V30 34751 H 3592.84 0.709427 3.04444 0
M  V30 34752 H 3592.06 3.11449 2.41646 0
M  V30 34753 H 3593.35 3.71638 3.47509 0
M  V30 34754 H 3592.75 1.2728 5.51195 0
M  V30 34755 H 3591.31 1.83845 6.25335 0
M  V30 34756 N 3594.74 -0.737255 1.39292 0
M  V30 34757 C 3595.97 -1.52429 1.3946 0
M  V30 34758 C 3596.38 -1.89195 -0.0132534 0
M  V30 34759 O 3595.72 -1.54458 -0.994403 0
M  V30 34760 C 3595.78 -2.84224 2.2013 0
M  V30 34761 C 3595.45 -2.69904 3.68783 0
M  V30 34762 C 3596.44 -2.38603 4.61914 0
M  V30 34763 C 3594.13 -2.86845 4.12341 0
M  V30 34764 C 3596.12 -2.24421 5.96585 0
M  V30 34765 C 3593.81 -2.72283 5.47088 0
M  V30 34766 C 3594.81 -2.41115 6.39025 0
M  V30 34767 O 3594.5 -2.26641 7.71291 0
M  V30 34768 H 3594.23 -0.477719 0.478289 0
M  V30 34769 H 3596.78 -0.918859 1.83701 0
M  V30 34770 H 3595.01 -3.47018 1.70633 0
M  V30 34771 H 3596.7 -3.45828 2.12503 0
M  V30 34772 H 3597.47 -2.25167 4.29563 0
M  V30 34773 H 3593.35 -3.10097 3.41117 0
M  V30 34774 H 3596.89 -2.00016 6.68311 0
M  V30 34775 H 3592.79 -2.85296 5.79031 0
M  V30 34776 H 3593.55 -2.41728 7.81991 0
M  V30 34777 N 3596.22 -1.24431 -0.967199 0
M  V30 34778 C 3597.16 -1.03713 -2.06185 0
M  V30 34779 C 3598.13 0.0497373 -1.66026 0
M  V30 34780 O 3599.32 -0.104985 -1.90511 0
M  V30 34781 C 3596.46 -0.648537 -3.38951 0
M  V30 34782 C 3595.57 -1.80893 -3.92303 0
M  V30 34783 C 3594.71 -1.36588 -5.13339 0
M  V30 34784 C 3593.75 -2.49619 -5.58889 0
M  V30 34785 N 3592.88 -2.06177 -6.71145 0
M  V30 34786 H 3597.72 -1.97403 -2.2324 0
M  V30 34787 H 3595.26 -0.983212 -1.09414 0
M  V30 34788 H 3597.22 -0.404263 -4.15237 0
M  V30 34789 H 3595.85 0.251364 -3.2182 0
M  V30 34790 H 3594.9 -2.16686 -3.12652 0
M  V30 34791 H 3596.21 -2.65822 -4.22066 0
M  V30 34792 H 3595.37 -1.08051 -5.97001 0
M  V30 34793 H 3594.11 -0.487137 -4.85261 0
M  V30 34794 H 3593.11 -2.78915 -4.738 0
M  V30 34795 H 3594.34 -3.38051 -5.88981 0
M  V30 34796 H 3592.28 -1.20702 -6.448 0
M  V30 34797 H 3592.2 -2.84659 -7.00361 0
M  V30 34798 H 3593.47 -1.80782 -7.58247 0
M  V30 34799 N 3597.7 1.16795 -1.05814 0
M  V30 34800 C 3598.64 2.21023 -0.664638 0
M  V30 34801 C 3599.61 1.62659 0.336324 0
M  V30 34802 O 3600.8 1.89453 0.226313 0
M  V30 34803 C 3597.94 3.45061 -0.0521345 0
M  V30 34804 C 3597.05 4.1769 -1.10269 0
M  V30 34805 C 3596.19 5.29232 -0.456839 0
M  V30 34806 C 3595.22 5.93656 -1.49126 0
M  V30 34807 N 3594.36 6.967 -0.869125 0
M  V30 34808 H 3599.2 2.54036 -1.55788 0
M  V30 34809 H 3596.74 1.24779 -0.779015 0
M  V30 34810 H 3598.7 4.15967 0.320479 0
M  V30 34811 H 3597.33 3.12613 0.804537 0
M  V30 34812 H 3596.38 3.45436 -1.59306 0
M  V30 34813 H 3597.69 4.61703 -1.88765 0
M  V30 34814 H 3596.84 6.06692 -0.030988 0
M  V30 34815 H 3595.58 4.86369 0.360045 0
M  V30 34816 H 3594.59 5.14922 -1.92706 0
M  V30 34817 H 3595.81 6.38599 -2.31016 0
M  V30 34818 H 3593.76 6.5596 -0.0728647 0
M  V30 34819 H 3593.68 7.39058 -1.59154 0
M  V30 34820 H 3594.94 7.78092 -0.468257 0
M  V30 34821 N 3599.17 0.840037 1.33346 0
M  V30 34822 C 3600.42 0.432615 1.97006 0
M  V30 34823 C 3600.74 -1.01375 1.6728 0
M  V30 34824 O 3601.94 -1.52591 2.24563 0
M  V30 34825 C 3600.4 0.722642 3.5257 0
M  V30 34826 C 3600.01 2.18376 3.91172 0
M  V30 34827 C 3601.75 0.382228 4.22776 0
M  V30 34828 C 3599.66 2.41778 5.3972 0
M  V30 34829 H 3598.59 0.158037 0.737252 0
M  V30 34830 H 3601.24 1.02878 1.51948 0
M  V30 34831 H 3599.62 0.0560875 3.9596 0
M  V30 34832 H 3600.79 2.89089 3.58837 0
M  V30 34833 H 3599.11 2.48727 3.33952 0
M  V30 34834 H 3601.71 0.534682 5.3202 0
M  V30 34835 H 3602.05 -0.674895 4.10793 0
M  V30 34836 H 3602.58 1.00406 3.8492 0
M  V30 34837 H 3599.32 3.4606 5.56707 0
M  V30 34838 H 3598.84 1.75627 5.73511 0
M  V30 34839 H 3600.52 2.2499 6.0662 0
M  V30 34840 N 3600.65 -1.45872 0.596582 0
M  V30 34841 C 3601.89 -2.042 0.0903569 0
M  V30 34842 C 3602.26 -1.45633 -1.2512 0
M  V30 34843 O 3603.46 -1.95247 -1.84749 0
M  V30 34844 C 3601.73 -3.57378 0.0401005 0
M  V30 34845 S 3603.29 -4.36913 -0.406533 0
M  V30 34846 H 3600.1 -0.709624 0.0442101 0
M  V30 34847 H 3602.71 -1.7873 0.792207 0
M  V30 34848 H 3601.41 -3.97517 1.0202 0
M  V30 34849 H 3600.94 -3.87407 -0.684088 0
M  V30 34850 H 3602.96 -4.67666 -1.65841 0
M  V30 34851 N 3602.13 -0.335122 -1.53996 0
M  V30 34852 C 3603.54 0.150547 -1.86092 0
M  V30 34853 C 3603.89 1.50683 -1.25655 0
M  V30 34854 O 3603.02 2.08842 -0.566924 0
M  V30 34855 C 3603.61 0.279947 -3.37641 0
M  V30 34856 C 3602.17 0.709842 -3.69646 0
M  V30 34857 C 3601.32 -0.16151 -2.76829 0
M  V30 34858 H 3604.27 -0.555012 -1.48679 0
M  V30 34859 H 3604.29 1.1089 -3.63983 0
M  V30 34860 H 3603.8 -0.707321 -3.816 0
M  V30 34861 H 3601.9 1.70644 -3.31227 0
M  V30 34862 H 3602.02 0.505578 -4.76425 0
M  V30 34863 H 3600.38 0.364804 -2.52074 0
M  V30 34864 H 3601.16 -1.14576 -3.23616 0
M  V30 34865 N 3603.61 1.57472 -0.0635475 0
M  V30 34866 C 3604.56 2.08769 0.916491 0
M  V30 34867 C 3605.54 0.995542 1.26403 0
M  V30 34868 O 3606.73 1.25873 1.24439 0
M  V30 34869 C 3603.86 2.64623 2.187 0
M  V30 34870 C 3602.95 3.80828 1.8663 0
M  V30 34871 N 3603.34 4.90118 1.24974 0
M  V30 34872 C 3601.64 3.89968 2.16429 0
M  V30 34873 C 3602.34 5.71048 1.10811 0
M  V30 34874 N 3601.31 5.19052 1.6151 0
M  V30 34875 H 3605.12 2.90658 0.435325 0
M  V30 34876 H 3602.63 1.6179 0.140571 0
M  V30 34877 H 3604.63 2.99684 2.8982 0
M  V30 34878 H 3603.29 1.84177 2.67411 0
M  V30 34879 H 3604.3 5.09656 0.920401 0
M  V30 34880 H 3600.98 3.20484 2.67575 0
M  V30 34881 H 3602.37 6.68955 0.628429 0
M  V30 34882 N 3605.09 -0.209945 1.56195 0
M  V30 34883 C 3606.33 -0.930764 1.79391 0
M  V30 34884 C 3606.65 -1.84403 0.634071 0
M  V30 34885 O 3605.92 -1.92776 -0.348434 0
M  V30 34886 H 3604.5 -0.346678 0.661682 0
M  V30 34887 H 3607.17 -0.219015 1.93666 0
M  V30 34888 H 3606.26 -1.53071 2.71985 0
M  V30 34889 N 3606.56 -1.50205 -0.4771 0
M  V30 34890 C 3607.97 -1.5382 -1.05812 0
M  V30 34891 C 3608.33 -0.338203 -1.93263 0
M  V30 34892 O 3607.45 0.54954 -2.09306 0
M  V30 34893 C 3608.05 -2.7875 -1.92572 0
M  V30 34894 C 3606.6 -2.85066 -2.45794 0
M  V30 34895 C 3605.75 -2.48036 -1.23989 0
M  V30 34896 H 3608.7 -1.56556 -0.259971 0
M  V30 34897 H 3608.72 -2.60265 -2.77565 0
M  V30 34898 H 3608.24 -3.6607 -1.28897 0
M  V30 34899 H 3606.34 -2.02083 -3.13039 0
M  V30 34900 H 3606.45 -3.87815 -2.81312 0
M  V30 34901 H 3604.81 -2.00341 -1.57276 0
M  V30 34902 H 3605.6 -3.37658 -0.619858 0
M  V30 34903 N 3608.04 0.729857 -1.39681 0
M  V30 34904 C 3609.29 1.48657 -1.36914 0
M  V30 34905 C 3609.61 1.94973 0.0325669 0
M  V30 34906 O 3608.88 1.6935 0.98476 0
M  V30 34907 H 3607.46 0.551486 -0.503858 0
M  V30 34908 H 3610.12 0.866125 -1.74598 0
M  V30 34909 H 3609.22 2.36624 -2.03508 0
M  V30 34910 N 3609.52 1.24942 0.960587 0
M  V30 34911 C 3610.75 1.11897 1.73674 0
M  V30 34912 C 3611.16 -0.330615 1.86289 0
M  V30 34913 O 3610.5 -1.23954 1.35577 0
M  V30 34914 C 3610.56 1.69302 3.17139 0
M  V30 34915 C 3610.23 3.1825 3.27972 0
M  V30 34916 C 3611.22 4.15314 3.12747 0
M  V30 34917 C 3608.91 3.58347 3.51984 0
M  V30 34918 C 3610.9 5.50455 3.2137 0
M  V30 34919 C 3608.59 4.93627 3.60244 0
M  V30 34920 C 3609.59 5.8949 3.4495 0
M  V30 34921 O 3609.28 7.22309 3.52881 0
M  V30 34922 H 3609.01 0.391323 0.551219 0
M  V30 34923 H 3611.56 1.65673 1.21415 0
M  V30 34924 H 3609.79 1.09968 3.70734 0
M  V30 34925 H 3611.48 1.51444 3.76589 0
M  V30 34926 H 3612.25 3.85677 2.94072 0
M  V30 34927 H 3608.13 2.8423 3.62952 0
M  V30 34928 H 3611.67 6.25259 3.09349 0
M  V30 34929 H 3607.57 5.22932 3.78435 0
M  V30 34930 H 3608.34 7.30325 3.6955 0
M  V30 34931 N 3611 -1.16233 1.06432 0
M  V30 34932 C 3612.23 -1.90695 0.802677 0
M  V30 34933 C 3612.64 -1.77509 -0.643113 0
M  V30 34934 O 3612 -1.12068 -1.44038 0
M  V30 34935 C 3612.05 -3.41355 1.1899 0
M  V30 34936 O 3611.77 -3.54149 2.57896 0
M  V30 34937 C 3613.27 -4.32864 0.956208 0
M  V30 34938 H 3610.49 -0.604663 0.290901 0
M  V30 34939 H 3613.04 -1.47323 1.41832 0
M  V30 34940 H 3611.19 -3.82426 0.61877 0
M  V30 34941 H 3611.6 -4.47584 2.73439 0
M  V30 34942 H 3613.08 -5.37031 1.27676 0
M  V30 34943 H 3613.56 -4.39067 -0.107984 0
M  V30 34944 H 3614.16 -3.97524 1.51179 0
M  V30 34945 N 3612.48 -0.847097 -1.32899 0
M  V30 34946 C 3613.7 -0.460533 -2.01709 0
M  V30 34947 C 3614.12 0.94062 -1.637 0
M  V30 34948 O 3613.48 1.6126 -0.854483 0
M  V30 34949 C 3613.53 -0.581171 -3.56798 0
M  V30 34950 O 3613.25 -1.92712 -3.93438 0
M  V30 34951 C 3614.75 -0.19263 -4.42881 0
M  V30 34952 H 3611.97 -0.181864 -0.645884 0
M  V30 34953 H 3614.51 -1.14195 -1.69646 0
M  V30 34954 H 3612.67 0.0524243 -3.87365 0
M  V30 34955 H 3613.08 -1.9185 -4.88154 0
M  V30 34956 H 3614.56 -0.328066 -5.51024 0
M  V30 34957 H 3615.03 0.866239 -4.30573 0
M  V30 34958 H 3615.64 -0.800992 -4.17689 0
M  V30 34959 N 3613.95 1.45554 -0.604309 0
M  V30 34960 C 3615.23 1.95576 -0.0303629 0
M  V30 34961 C 3615.61 1.54679 1.43658 0
M  V30 34962 O 3614.96 0.807769 2.13746 0
M  V30 34963 C 3615.17 3.48274 -0.225031 0
M  V30 34964 C 3616.52 4.24472 -0.104117 0
M  V30 34965 O 3617.54 3.55863 -0.154982 0
M  V30 34966 O 3616.4 5.46498 0.0135337 0
M  V30 34967 H 3613.49 0.826145 0.037596 0
M  V30 34968 H 3616.04 1.55735 -0.674141 0
M  V30 34969 H 3614.81 3.71 -1.24398 0
M  V30 34970 H 3614.44 3.94998 0.454165 0
M  V30 34971 N 3615.43 0.343284 1.53816 0
M  V30 34972 C 3616.68 -0.25281 2.00513 0
M  V30 34973 C 3617 -1.51089 1.23277 0
M  V30 34974 O 3616.27 -1.92929 0.339874 0
M  V30 34975 H 3614.85 -0.0964072 0.740753 0
M  V30 34976 H 3617.51 0.46438 1.89287 0
M  V30 34977 H 3616.61 -0.495445 3.08142 0
M  V30 34978 N 3616.91 -1.57436 0.0718977 0
M  V30 34979 C 3618.33 -1.5704 -0.284732 0
M  V30 34980 C 3618.53 -1.0813 -1.7003 0
M  V30 34981 O 3617.58 -0.747232 -2.4119 0
M  V30 34982 C 3618.9 -3.00552 -0.0942954 0
M  V30 34983 C 3620.44 -3.12571 -0.163824 0
M  V30 34984 C 3620.92 -4.58 -0.00166607 0
M  V30 34985 N 3622.41 -4.63165 -0.0572675 0
M  V30 34986 C 3623.14 -5.73383 0.0437857 0
M  V30 34987 N 3622.64 -6.92516 0.198365 0
M  V30 34988 N 3624.43 -5.62098 -0.0132867 0
M  V30 34989 H 3616.58 -1.87544 0.997053 0
M  V30 34990 H 3618.85 -0.864586 0.388838 0
M  V30 34991 H 3618.55 -3.40448 0.882505 0
M  V30 34992 H 3618.43 -3.67577 -0.846571 0
M  V30 34993 H 3620.81 -2.72562 -1.13111 0
M  V30 34994 H 3620.9 -2.48184 0.619556 0
M  V30 34995 H 3620.54 -4.98699 0.962387 0
M  V30 34996 H 3620.47 -5.20419 -0.804451 0
M  V30 34997 H 3622.96 -3.77494 -0.175146 0
M  V30 34998 H 3623.27 -7.72336 0.267615 0
M  V30 34999 H 3621.62 -6.94607 0.233728 0
M  V30 35000 H 3624.81 -4.67912 -0.132753 0
M  V30 35001 H 3624.98 -6.47963 0.0689215 0
M  V30 35002 N 3618.39 0.201658 -1.56305 0
M  V30 35003 C 3619.67 0.948565 -1.7106 0
M  V30 35004 C 3620.05 2.01641 -0.624829 0
M  V30 35005 O 3619.39 2.25563 0.365195 0
M  V30 35006 C 3619.6 1.54095 -3.13138 0
M  V30 35007 C 3620.95 2.0256 -3.73168 0
M  V30 35008 O 3621.98 1.63951 -3.16226 0
M  V30 35009 O 3620.83 2.73585 -4.73089 0
M  V30 35010 H 3617.93 0.444399 -0.697451 0
M  V30 35011 H 3620.47 0.191872 -1.68612 0
M  V30 35012 H 3619.25 0.770901 -3.83631 0
M  V30 35013 H 3618.87 2.36266 -3.19788 0
M  V30 35014 N 3619.87 1.50456 0.469128 0
M  V30 35015 C 3621.12 1.60783 1.21785 0
M  V30 35016 C 3621.43 0.31461 1.93053 0
M  V30 35017 O 3622.63 0.296821 2.69873 0
M  V30 35018 C 3621.09 2.83821 2.213 0
M  V30 35019 C 3620.7 4.20027 1.55826 0
M  V30 35020 C 3622.44 3.03494 2.96802 0
M  V30 35021 C 3620.35 5.34248 2.53639 0
M  V30 35022 H 3619.28 0.59876 0.45826 0
M  V30 35023 H 3621.93 1.76889 0.488128 0
M  V30 35024 H 3620.31 2.61279 2.97573 0
M  V30 35025 H 3621.49 4.52831 0.853292 0
M  V30 35026 H 3619.8 4.05974 0.925975 0
M  V30 35027 H 3622.4 3.86 3.70011 0
M  V30 35028 H 3622.74 2.15299 3.56303 0
M  V30 35029 H 3623.27 3.26227 2.27642 0
M  V30 35030 H 3620.01 6.24603 1.98874 0
M  V30 35031 H 3619.53 5.0586 3.22282 0
M  V30 35032 H 3621.21 5.64902 3.15428 0
M  V30 35033 N 3621.34 -0.722439 1.40066 0
M  V30 35034 C 3622.62 -1.47491 1.28475 0
M  V30 35035 C 3623 -2.10863 -0.100021 0
M  V30 35036 O 3622.35 -1.99601 -1.11229 0
M  V30 35037 C 3622.56 -2.51617 2.41847 0
M  V30 35038 C 3623.91 -3.17643 2.81758 0
M  V30 35039 O 3624.93 -2.61935 2.41389 0
M  V30 35040 O 3623.79 -4.18478 3.5148 0
M  V30 35041 H 3620.88 -0.655547 0.504169 0
M  V30 35042 H 3623.43 -0.755196 1.5197 0
M  V30 35043 H 3622.2 -2.03257 3.34369 0
M  V30 35044 H 3621.83 -3.31132 2.20085 0
M  V30 35045 N 3622.82 -1.2545 -0.953947 0
M  V30 35046 C 3623.73 -1.07637 -2.0845 0
M  V30 35047 C 3624.75 -0.0133246 -1.73995 0
M  V30 35048 O 3625.93 -0.214402 -2.00256 0
M  V30 35049 C 3622.99 -0.697815 -3.39605 0
M  V30 35050 C 3622.05 -1.83888 -3.87923 0
M  V30 35051 C 3621.28 -1.47828 -5.12818 0
M  V30 35052 O 3621.51 -0.374243 -5.69171 0
M  V30 35053 O 3620.44 -2.3087 -5.55862 0
M  V30 35054 H 3624.27 -2.02451 -2.26379 0
M  V30 35055 H 3621.85 -1.04394 -1.06875 0
M  V30 35056 H 3623.73 -0.498852 -4.18437 0
M  V30 35057 H 3622.41 0.221051 -3.22944 0
M  V30 35058 H 3621.32 -2.0927 -3.10092 0
M  V30 35059 H 3622.65 -2.73701 -4.09083 0
M  V30 35060 N 3624.3 1.15667 -1.07047 0
M  V30 35061 C 3625.54 1.88048 -0.801078 0
M  V30 35062 C 3625.91 1.80275 0.660682 0
M  V30 35063 O 3627.11 2.47656 1.04499 0
M  V30 35064 C 3625.38 3.33251 -1.29146 0
M  V30 35065 S 3626.94 4.234 -1.15228 0
M  V30 35066 H 3623.75 0.648999 -0.290381 0
M  V30 35067 H 3626.36 1.39572 -1.36894 0
M  V30 35068 H 3625.06 3.36451 -2.35009 0
M  V30 35069 H 3624.59 3.8678 -0.718673 0
M  V30 35070 H 3626.61 4.96122 -0.0878932 0
M  V30 35071 N 3625.78 0.854133 1.32447 0
M  V30 35072 C 3626.73 0.296382 2.28889 0
M  V30 35073 C 3627.7 -0.596351 1.55025 0
M  V30 35074 O 3628.88 -0.531373 1.83251 0
M  V30 35075 C 3626.02 -0.509669 3.41316 0
M  V30 35076 C 3625.13 0.408796 4.30061 0
M  V30 35077 C 3624.27 -0.409835 5.29617 0
M  V30 35078 C 3623.31 0.50606 6.10004 0
M  V30 35079 N 3622.45 -0.27536 7.0156 0
M  V30 35080 H 3627.29 1.12405 2.75987 0
M  V30 35081 H 3624.82 0.565741 1.35786 0
M  V30 35082 H 3626.78 -0.992625 4.05219 0
M  V30 35083 H 3625.41 -1.30217 2.9537 0
M  V30 35084 H 3624.46 1.01014 3.66743 0
M  V30 35085 H 3625.77 1.11174 4.86253 0
M  V30 35086 H 3624.93 -0.955978 5.99121 0
M  V30 35087 H 3623.67 -1.14615 4.74041 0
M  V30 35088 H 3622.67 1.06409 5.39404 0
M  V30 35089 H 3623.9 1.24097 6.67665 0
M  V30 35090 H 3621.84 -0.994773 6.48414 0
M  V30 35091 H 3621.76 0.368559 7.55101 0
M  V30 35092 H 3623.03 -0.803245 7.7535 0
M  V30 35093 N 3627.26 -1.45231 0.61202 0
M  V30 35094 C 3628.5 -2.02506 0.109108 0
M  V30 35095 C 3628.84 -1.47883 -1.25874 0
M  V30 35096 O 3628.11 -0.655272 -1.8313 0
M  V30 35097 C 3628.39 -3.60022 0.074992 0
M  V30 35098 C 3628.25 -4.24969 1.47382 0
M  V30 35099 C 3629.57 -4.35845 -0.610526 0
M  V30 35100 H 3626.69 -0.735852 0.041123 0
M  V30 35101 H 3629.33 -1.73033 0.78484 0
M  V30 35102 H 3627.48 -3.85263 -0.500443 0
M  V30 35103 H 3629.15 -4.10898 2.09667 0
M  V30 35104 H 3627.39 -3.83199 2.03325 0
M  V30 35105 H 3628.06 -5.33895 1.40215 0
M  V30 35106 H 3630.54 -4.15923 -0.121372 0
M  V30 35107 H 3629.42 -5.45572 -0.603518 0
M  V30 35108 H 3629.68 -4.09041 -1.67743 0
M  V30 35109 N 3628.74 -0.351436 -1.53632 0
M  V30 35110 C 3629.67 0.544913 -2.21599 0
M  V30 35111 C 3630.65 1.09413 -1.20281 0
M  V30 35112 O 3631.83 1.15292 -1.49131 0
M  V30 35113 C 3628.96 1.75042 -2.89962 0
M  V30 35114 C 3628 1.32995 -4.05234 0
M  V30 35115 S 3628.84 0.34311 -5.344 0
M  V30 35116 C 3629.99 1.55527 -6.06269 0
M  V30 35117 H 3630.23 -0.032355 -2.97282 0
M  V30 35118 H 3627.76 -0.135517 -1.53804 0
M  V30 35119 H 3629.72 2.44198 -3.29966 0
M  V30 35120 H 3628.38 2.29892 -2.14029 0
M  V30 35121 H 3627.57 2.22899 -4.52031 0
M  V30 35122 H 3627.17 0.717776 -3.67048 0
M  V30 35123 H 3629.46 2.48854 -6.30141 0
M  V30 35124 H 3630.41 1.12895 -6.99042 0
M  V30 35125 H 3630.82 1.75491 -5.36529 0
M  V30 35126 N 3630.21 1.57396 -0.0802459 0
M  V30 35127 C 3631.62 1.81167 0.451151 0
M  V30 35128 C 3631.98 0.994793 1.6911 0
M  V30 35129 O 3631.1 0.219777 2.15281 0
M  V30 35130 C 3631.7 3.28595 0.825266 0
M  V30 35131 C 3630.25 3.53183 1.30148 0
M  V30 35132 C 3629.4 2.75771 0.290797 0
M  V30 35133 H 3632.35 1.55725 -0.305856 0
M  V30 35134 H 3632.37 3.41107 1.68602 0
M  V30 35135 H 3631.89 3.88023 -0.0773801 0
M  V30 35136 H 3629.99 2.9907 2.22234 0
M  V30 35137 H 3630.1 4.61862 1.27357 0
M  V30 35138 H 3628.46 2.42787 0.769851 0
M  V30 35139 H 3629.25 3.3794 -0.604269 0
M  V30 35140 N 3631.69 -0.193366 1.56409 0
M  V30 35141 C 3632.64 -1.25911 1.95574 0
M  V30 35142 C 3633.63 -1.47026 0.841409 0
M  V30 35143 O 3634.84 -1.47867 1.02642 0
M  V30 35144 H 3631.21 -0.42275 0.621922 0
M  V30 35145 H 3633.19 -0.901777 2.84448 0
M  V30 35146 C 3631.93 -2.59608 2.31298 0
M  V30 35147 H 3631.26 -2.44177 3.16572 0
M  V30 35148 H 3632.7 -3.32921 2.62564 0
M  V30 35149 C 3631.16 -3.16729 1.14823 0
M  V30 35150 O 3631.69 -3.99454 0.424175 0
M  V30 35151 N 3629.89 -2.75499 0.924584 0
M  V30 35152 H 3629.44 -2.08331 1.51512 0
M  V30 35153 H 3629.4 -3.14056 0.147061 0
M  V30 35154 N 3633.17 -1.50702 -0.461142 0
M  V30 35155 C 3634.1 -1.73226 -1.56573 0
M  V30 35156 C 3635.08 -0.581429 -1.59854 0
M  V30 35157 O 3636.27 -0.821633 -1.75963 0
M  V30 35158 C 3633.4 -1.83553 -2.94832 0
M  V30 35159 C 3632.35 -2.9882 -3.06416 0
M  V30 35160 C 3631.68 -2.94301 -4.4642 0
M  V30 35161 C 3632.98 -4.39175 -2.82706 0
M  V30 35162 H 3634.67 -2.65712 -1.37977 0
M  V30 35163 H 3632.22 -1.27863 -0.662339 0
M  V30 35164 H 3634.17 -1.97893 -3.72043 0
M  V30 35165 H 3632.89 -0.876962 -3.14606 0
M  V30 35166 H 3631.55 -2.84146 -2.31639 0
M  V30 35167 H 3631.2 -1.9627 -4.63127 0
M  V30 35168 H 3630.9 -3.7169 -4.55105 0
M  V30 35169 H 3632.42 -3.10704 -5.25638 0
M  V30 35170 H 3633.84 -4.54323 -3.49662 0
M  V30 35171 H 3632.23 -5.18089 -3.02826 0
M  V30 35172 H 3633.3 -4.50856 -1.78484 0
M  V30 35173 N 3634.65 0.715001 -1.40447 0
M  V30 35174 C 3635.89 1.48732 -1.40208 0
M  V30 35175 C 3636.25 1.92 -0.00365722 0
M  V30 35176 O 3637.45 2.68514 0.12386 0
M  V30 35177 C 3635.72 2.6801 -2.36444 0
M  V30 35178 S 3637.28 3.57409 -2.54567 0
M  V30 35179 H 3634.1 0.508498 -0.496942 0
M  V30 35180 H 3636.7 0.836056 -1.76721 0
M  V30 35181 H 3635.41 2.34395 -3.36879 0
M  V30 35182 H 3634.94 3.38047 -2.01216 0
M  V30 35183 H 3636.95 4.62458 -1.79852 0
M  V30 35184 N 3636.13 1.25954 0.947281 0
M  V30 35185 C 3637.35 1.13898 1.72728 0
M  V30 35186 C 3637.77 -0.306455 1.86296 0
M  V30 35187 O 3637.13 -1.21028 1.36596 0
M  V30 35188 C 3637.18 1.7961 3.13724 0
M  V30 35189 O 3636.9 3.18504 3.0081 0
M  V30 35190 C 3638.4 1.7343 4.07967 0
M  V30 35191 H 3635.62 0.39692 0.541014 0
M  V30 35192 H 3638.16 1.66458 1.18794 0
M  V30 35193 H 3636.32 1.31003 3.64578 0
M  V30 35194 H 3636.73 3.50929 3.89807 0
M  V30 35195 H 3638.21 2.24056 5.04483 0
M  V30 35196 H 3638.68 0.699557 4.33593 0
M  V30 35197 H 3639.29 2.21559 3.63031 0
M  V30 35198 N 3637.6 -1.15097 1.07659 0
M  V30 35199 C 3638.55 -2.22003 0.694082 0
M  V30 35200 C 3639.55 -1.66784 -0.296578 0
M  V30 35201 O 3640.75 -1.79288 -0.159957 0
M  V30 35202 H 3637.13 -0.723124 0.206386 0
M  V30 35203 H 3639.1 -2.51542 1.60528 0
M  V30 35204 C 3637.85 -3.47522 0.111306 0
M  V30 35205 H 3637.17 -3.90336 0.864745 0
M  V30 35206 H 3638.61 -4.23834 -0.11863 0
M  V30 35207 C 3637.07 -3.16707 -1.14884 0
M  V30 35208 O 3637.6 -3.33793 -2.23484 0
M  V30 35209 N 3635.81 -2.70725 -1.05622 0
M  V30 35210 H 3635.35 -2.57022 -0.172418 0
M  V30 35211 H 3635.31 -2.50482 -1.90016 0
M  V30 35212 N 3639.08 -0.861145 -1.31993 0
M  V30 35213 C 3640.33 -0.466789 -1.96635 0
M  V30 35214 C 3640.65 0.982299 -1.68451 0
M  V30 35215 O 3639.92 1.68739 -0.995187 0
M  V30 35216 H 3638.5 -0.169625 -0.727486 0
M  V30 35217 H 3641.16 -1.099 -1.6096 0
M  V30 35218 H 3640.26 -0.617214 -3.05936 0
M  V30 35219 N 3640.56 1.44905 -0.619713 0
M  V30 35220 C 3641.49 2.28829 0.130276 0
M  V30 35221 C 3642.51 1.4064 0.820014 0
M  V30 35222 O 3643.69 1.64901 0.683372 0
M  V30 35223 C 3640.79 3.16711 1.20612 0
M  V30 35224 C 3639.97 4.3325 0.601134 0
M  V30 35225 C 3639.03 5.0225 1.56945 0
M  V30 35226 O 3638.05 5.58646 1.09102 0
M  V30 35227 N 3639.25 5.02649 2.90386 0
M  V30 35228 H 3642.02 2.93837 -0.589919 0
M  V30 35229 H 3639.58 1.55226 -0.460055 0
M  V30 35230 H 3641.57 3.59736 1.85398 0
M  V30 35231 H 3640.14 2.53531 1.82868 0
M  V30 35232 H 3639.36 3.93557 -0.225084 0
M  V30 35233 H 3640.65 5.08491 0.177382 0
M  V30 35234 H 3640.05 4.58142 3.31847 0
M  V30 35235 H 3638.61 5.49499 3.50562 0
M  V30 35236 N 3642.04 0.359579 1.53443 0
M  V30 35237 C 3643.28 -0.232133 2.03078 0
M  V30 35238 C 3643.64 -1.4648 1.24127 0
M  V30 35239 O 3644.84 -2.13174 1.63738 0
M  V30 35240 C 3643.11 -0.522829 3.53555 0
M  V30 35241 S 3644.67 -1.08907 4.2507 0
M  V30 35242 H 3641.49 -0.0680193 0.707739 0
M  V30 35243 H 3644.09 0.501055 1.8897 0
M  V30 35244 H 3642.8 0.381884 4.08619 0
M  V30 35245 H 3642.33 -1.28525 3.71813 0
M  V30 35246 H 3644.34 -2.37374 4.35738 0
M  V30 35247 N 3643.52 -1.57351 0.0885919 0
M  V30 35248 C 3644.77 -1.93292 -0.576296 0
M  V30 35249 C 3645.08 -0.971964 -1.69742 0
M  V30 35250 O 3646.28 -1.22484 -2.42301 0
M  V30 35251 C 3644.74 -3.43424 -1.07649 0
M  V30 35252 C 3644.35 -4.47998 0.0145276 0
M  V30 35253 C 3646.09 -3.88337 -1.71448 0
M  V30 35254 C 3644 -5.89277 -0.500654 0
M  V30 35255 H 3642.93 -0.721482 -0.219043 0
M  V30 35256 H 3645.58 -1.8277 0.163543 0
M  V30 35257 H 3643.96 -3.49076 -1.86982 0
M  V30 35258 H 3645.14 -4.53981 0.789776 0
M  V30 35259 H 3643.45 -4.12654 0.557309 0
M  V30 35260 H 3646.05 -4.91284 -2.11054 0
M  V30 35261 H 3646.39 -3.26626 -2.58111 0
M  V30 35262 H 3646.92 -3.85359 -0.987091 0
M  V30 35263 H 3643.66 -6.54673 0.329203 0
M  V30 35264 H 3643.18 -5.86778 -1.24305 0
M  V30 35265 H 3644.86 -6.39661 -0.971709 0
M  V30 35266 N 3644.99 0.185069 -1.5651 0
M  V30 35267 C 3645.94 1.24872 -1.96239 0
M  V30 35268 C 3646.94 1.46578 -0.849195 0
M  V30 35269 O 3648.14 1.4732 -1.03425 0
M  V30 35270 H 3644.52 0.419446 -0.624155 0
M  V30 35271 H 3646.49 0.88668 -2.84922 0
M  V30 35272 C 3645.24 2.58378 -2.32671 0
M  V30 35273 H 3644.56 2.42495 -3.17862 0
M  V30 35274 H 3646 3.31524 -2.64326 0
M  V30 35275 C 3644.46 3.16116 -1.16501 0
M  V30 35276 O 3644.99 3.99224 -0.445353 0
M  V30 35277 N 3643.2 2.75005 -0.939182 0
M  V30 35278 H 3642.74 2.07525 -1.52615 0
M  V30 35279 H 3642.7 3.13973 -0.163714 0
M  V30 35280 N 3646.47 1.50945 0.453144 0
M  V30 35281 C 3647.7 1.66613 1.22669 0
M  V30 35282 C 3648.12 0.356847 1.85397 0
M  V30 35283 O 3647.47 -0.663092 1.70027 0
M  V30 35284 C 3647.52 2.77038 2.32233 0
M  V30 35285 O 3647.24 4.02892 1.72074 0
M  V30 35286 C 3648.75 3.03837 3.22797 0
M  V30 35287 H 3645.97 0.559552 0.370327 0
M  V30 35288 H 3648.51 1.97273 0.538849 0
M  V30 35289 H 3646.66 2.49022 2.96761 0
M  V30 35290 H 3647.08 4.64099 2.44361 0
M  V30 35291 H 3648.55 3.84723 3.95844 0
M  V30 35292 H 3649.03 2.15614 3.82632 0
M  V30 35293 H 3649.64 3.33453 2.63987 0
M  V30 35294 N 3647.95 -0.707543 1.40825 0
M  V30 35295 C 3648.88 -1.83146 1.36135 0
M  V30 35296 C 3649.86 -1.60959 0.230452 0
M  V30 35297 O 3651.05 -1.83865 0.415424 0
M  V30 35298 C 3648.17 -3.19625 1.1206 0
M  V30 35299 C 3647.22 -3.60626 2.27709 0
M  V30 35300 S 3648.05 -3.66811 3.9014 0
M  V30 35301 C 3649.21 -5.06036 3.68345 0
M  V30 35302 H 3649.44 -1.86845 2.31249 0
M  V30 35303 H 3646.97 -0.875103 1.27206 0
M  V30 35304 H 3648.93 -3.98419 0.988556 0
M  V30 35305 H 3647.59 -3.1355 0.185864 0
M  V30 35306 H 3646.79 -4.59742 2.06527 0
M  V30 35307 H 3646.39 -2.8911 2.37259 0
M  V30 35308 H 3648.68 -5.9319 3.2731 0
M  V30 35309 H 3649.62 -5.32256 4.67021 0
M  V30 35310 H 3650.03 -4.77009 3.01865 0
M  V30 35311 N 3649.43 -1.26454 -0.940588 0
M  V30 35312 C 3650.68 -1.11812 -1.68352 0
M  V30 35313 C 3651 0.339003 -1.92031 0
M  V30 35314 O 3650.27 1.23901 -1.51741 0
M  V30 35315 H 3648.85 -0.410788 -0.623909 0
M  V30 35316 H 3651.51 -1.58791 -1.13011 0
M  V30 35317 H 3650.61 -1.63733 -2.65703 0
M  V30 35318 N 3650.91 1.14525 -1.08268 0
M  V30 35319 C 3652.13 1.89935 -0.833028 0
M  V30 35320 C 3652.56 1.7797 0.608954 0
M  V30 35321 O 3651.91 1.1189 1.42655 0
M  V30 35322 C 3651.96 3.37949 -1.25788 0
M  V30 35323 O 3651.07 4.10368 -0.408926 0
M  V30 35324 H 3650.41 0.590999 -0.302681 0
M  V30 35325 H 3652.94 1.44974 -1.44373 0
M  V30 35326 H 3652.95 3.88761 -1.23811 0
M  V30 35327 H 3651.62 3.45976 -2.3081 0
M  V30 35328 H 3650.2 3.6964 -0.491985 0
M  V30 35329 N 3652.39 0.868133 1.31534 0
M  V30 35330 C 3653.63 0.478155 1.96774 0
M  V30 35331 C 3653.96 -0.96917 1.68634 0
M  V30 35332 O 3653.22 -1.69718 0.974387 0
M  V30 35333 C 3653.51 0.679814 3.50875 0
M  V30 35334 C 3653.18 2.09965 3.99031 0
M  V30 35335 C 3651.84 2.48795 4.11892 0
M  V30 35336 C 3654.19 3.02571 4.24382 0
M  V30 35337 C 3651.52 3.79476 4.47454 0
M  V30 35338 C 3653.87 4.32765 4.61408 0
M  V30 35339 C 3652.54 4.71512 4.72475 0
M  V30 35340 H 3651.81 0.174969 0.720046 0
M  V30 35341 H 3654.46 1.10077 1.56701 0
M  V30 35342 H 3652.76 -0.0259485 3.91791 0
M  V30 35343 H 3654.46 0.357925 3.99399 0
M  V30 35344 H 3651.05 1.78818 3.89515 0
M  V30 35345 H 3655.23 2.73799 4.13942 0
M  V30 35346 H 3650.49 4.0926 4.5422 0
M  V30 35347 H 3654.66 5.04575 4.79976 0
M  V30 35348 H 3652.29 5.72814 4.99788 0
M  V30 35349 N 3653.86 -1.44574 0.627389 0
M  V30 35350 C 3655.28 -1.56893 0.29269 0
M  V30 35351 C 3655.48 -1.61554 -1.20426 0
M  V30 35352 O 3654.54 -1.55654 -1.98816 0
M  V30 35353 C 3655.85 -2.84237 0.981317 0
M  V30 35354 C 3657.4 -2.97943 0.959105 0
M  V30 35355 C 3657.87 -4.28084 1.62812 0
M  V30 35356 N 3659.36 -4.34889 1.59454 0
M  V30 35357 C 3660.1 -5.34299 2.08116 0
M  V30 35358 N 3659.59 -6.40134 2.64953 0
M  V30 35359 N 3661.39 -5.25783 1.98767 0
M  V30 35360 H 3653.54 -1.39792 1.59913 0
M  V30 35361 H 3655.8 -0.669643 0.671031 0
M  V30 35362 H 3655.51 -2.86765 2.03615 0
M  V30 35363 H 3655.38 -3.73643 0.516768 0
M  V30 35364 H 3657.77 -2.94971 -0.0872384 0
M  V30 35365 H 3657.85 -2.09895 1.46211 0
M  V30 35366 H 3657.49 -4.31816 2.6739 0
M  V30 35367 H 3657.42 -5.14983 1.09998 0
M  V30 35368 H 3659.91 -3.5902 1.17954 0
M  V30 35369 H 3660.23 -7.12267 2.99827 0
M  V30 35370 H 3658.57 -6.4083 2.69002 0
M  V30 35371 H 3661.76 -4.42012 1.54088 0
M  V30 35372 H 3661.94 -6.03103 2.37003 0
M  V30 35373 N 3655.34 -0.367711 -1.5325 0
M  V30 35374 C 3656.58 0.22136 -2.03198 0
M  V30 35375 C 3656.95 1.4582 -1.24902 0
M  V30 35376 O 3658.15 2.12303 -1.64867 0
M  V30 35377 C 3656.42 0.504072 -3.53827 0
M  V30 35378 S 3657.98 1.06651 -4.25642 0
M  V30 35379 H 3654.79 0.064265 -0.70809 0
M  V30 35380 H 3657.4 -0.51107 -1.88702 0
M  V30 35381 H 3656.1 -0.403549 -4.08411 0
M  V30 35382 H 3655.63 1.26552 -3.72489 0
M  V30 35383 H 3657.65 2.3506 -4.36991 0
M  V30 35384 N 3656.82 1.57302 -0.0969353 0
M  V30 35385 C 3658.07 1.94419 0.566339 0
M  V30 35386 C 3658.39 0.978799 1.68077 0
M  V30 35387 O 3657.65 -0.001287 1.957 0
M  V30 35388 C 3657.95 3.38063 1.15966 0
M  V30 35389 C 3657.61 4.50584 0.16884 0
M  V30 35390 C 3656.28 4.81088 -0.103671 0
M  V30 35391 C 3658.63 5.18722 -0.507604 0
M  V30 35392 C 3655.96 5.77058 -1.05929 0
M  V30 35393 C 3658.31 6.15718 -1.45171 0
M  V30 35394 C 3656.97 6.44626 -1.73243 0
M  V30 35395 H 3656.24 0.711431 0.207238 0
M  V30 35396 H 3658.89 1.90716 -0.173159 0
M  V30 35397 H 3657.19 3.38354 1.97545 0
M  V30 35398 H 3658.89 3.64084 1.68059 0
M  V30 35399 H 3655.48 4.26809 0.391426 0
M  V30 35400 H 3659.67 4.9533 -0.310214 0
M  V30 35401 H 3654.92 5.9777 -1.28377 0
M  V30 35402 H 3659.1 6.6761 -1.98167 0
M  V30 35403 H 3656.72 7.188 -2.47449 0
M  V30 35404 N 3658.3 -0.176766 1.56606 0
M  V30 35405 C 3659.54 -0.900826 1.83479 0
M  V30 35406 C 3659.9 -1.79665 0.677083 0
M  V30 35407 O 3661.1 -2.5579 0.826136 0
M  V30 35408 C 3659.37 -1.68012 3.15447 0
M  V30 35409 S 3660.93 -2.45369 3.63785 0
M  V30 35410 H 3657.75 -0.301812 0.643763 0
M  V30 35411 H 3660.35 -0.162853 1.94821 0
M  V30 35412 H 3659.06 -1.01295 3.97703 0
M  V30 35413 H 3658.59 -2.45957 3.07032 0
M  V30 35414 H 3660.6 -3.69954 3.30678 0
M  V30 35415 N 3659.78 -1.51183 -0.445132 0
M  V30 35416 C 3660.72 -1.71934 -1.53972 0
M  V30 35417 C 3661.69 -0.560893 -1.56343 0
M  V30 35418 O 3662.88 -0.794444 -1.73474 0
M  V30 35419 C 3660.02 -1.84321 -2.91753 0
M  V30 35420 C 3659.13 -3.11834 -2.98971 0
M  V30 35421 C 3658.27 -3.14863 -4.27826 0
M  V30 35422 C 3657.3 -4.36722 -4.28882 0
M  V30 35423 N 3656.44 -4.37344 -5.49249 0
M  V30 35424 H 3661.28 -2.65371 -1.35582 0
M  V30 35425 H 3658.82 -1.31525 -0.658764 0
M  V30 35426 H 3660.78 -1.89485 -3.71687 0
M  V30 35427 H 3659.41 -0.943001 -3.08719 0
M  V30 35428 H 3658.46 -3.16018 -2.11748 0
M  V30 35429 H 3659.77 -4.01765 -2.95612 0
M  V30 35430 H 3658.92 -3.18899 -5.16128 0
M  V30 35431 H 3657.66 -2.22808 -4.3383 0
M  V30 35432 H 3656.67 -4.3287 -3.38974 0
M  V30 35433 H 3657.89 -5.30033 -4.24549 0
M  V30 35434 H 3655.84 -3.48155 -5.55989 0
M  V30 35435 H 3655.76 -5.21074 -5.47739 0
M  V30 35436 H 3657.02 -4.45563 -6.39605 0
M  V30 35437 N 3661.25 0.700065 -1.41198 0
M  V30 35438 C 3662.5 1.46225 -1.40521 0
M  V30 35439 C 3662.83 1.94196 -0.0126449 0
M  V30 35440 O 3662.11 1.69225 0.958807 0
M  V30 35441 C 3662.39 2.67733 -2.40813 0
M  V30 35442 C 3662.24 2.25557 -3.89158 0
M  V30 35443 C 3663.56 3.69923 -2.38422 0
M  V30 35444 H 3660.68 0.530375 -0.511733 0
M  V30 35445 H 3663.32 0.797724 -1.72442 0
M  V30 35446 H 3661.47 3.2443 -2.13723 0
M  V30 35447 H 3663.15 1.74222 -4.27135 0
M  V30 35448 H 3661.39 1.57388 -4.04242 0
M  V30 35449 H 3662.06 3.12723 -4.54872 0
M  V30 35450 H 3664.54 3.2289 -2.62452 0
M  V30 35451 H 3663.41 4.52558 -3.10617 0
M  V30 35452 H 3663.67 4.19306 -1.40123 0
M  V30 35453 N 3662.73 1.26951 0.933869 0
M  V30 35454 C 3663.98 1.12704 1.67757 0
M  V30 35455 C 3664.3 -0.328815 1.92208 0
M  V30 35456 O 3663.57 -1.23094 1.52396 0
M  V30 35457 H 3662.15 0.414091 0.621722 0
M  V30 35458 H 3664.81 1.59388 1.12167 0
M  V30 35459 H 3663.91 1.6514 2.64831 0
M  V30 35460 N 3664.21 -1.13949 1.08873 0
M  V30 35461 C 3665.44 -1.88676 0.841724 0
M  V30 35462 C 3665.85 -1.79091 -0.610182 0
M  V30 35463 O 3665.19 -1.1514 -1.43138 0
M  V30 35464 C 3665.25 -3.39204 1.19083 0
M  V30 35465 C 3664.92 -3.72572 2.64649 0
M  V30 35466 C 3665.91 -3.72291 3.62899 0
M  V30 35467 C 3663.6 -4.02405 3.00625 0
M  V30 35468 C 3665.59 -4.01373 4.95155 0
M  V30 35469 C 3663.28 -4.3115 4.33074 0
M  V30 35470 C 3664.28 -4.30618 5.30148 0
M  V30 35471 O 3663.97 -4.58663 6.60215 0
M  V30 35472 H 3663.7 -0.604337 0.302907 0
M  V30 35473 H 3666.25 -1.45207 1.45273 0
M  V30 35474 H 3664.48 -3.83149 0.522852 0
M  V30 35475 H 3666.17 -3.95246 0.923875 0
M  V30 35476 H 3666.94 -3.49325 3.36448 0
M  V30 35477 H 3662.82 -4.01969 2.25703 0
M  V30 35478 H 3666.36 -4.00874 5.70917 0
M  V30 35479 H 3662.26 -4.53587 4.5927 0
M  V30 35480 H 3663.02 -4.76358 6.65602 0
M  V30 35481 N 3665.69 -0.875096 -1.31072 0
M  V30 35482 C 3666.92 -0.503214 -2.00687 0
M  V30 35483 C 3667.33 0.905685 -1.65659 0
M  V30 35484 O 3666.69 1.59411 -0.888496 0
M  V30 35485 C 3666.74 -0.656722 -3.55485 0
M  V30 35486 O 3666.46 -2.01014 -3.89262 0
M  V30 35487 C 3667.96 -0.286528 -4.42373 0
M  V30 35488 H 3665.18 -0.195523 -0.641881 0
M  V30 35489 H 3667.72 -1.17767 -1.67186 0
M  V30 35490 H 3665.88 -0.0297533 -3.87389 0
M  V30 35491 H 3666.29 -2.02161 -4.83974 0
M  V30 35492 H 3667.77 -0.444872 -5.50204 0
M  V30 35493 H 3668.24 0.774713 -4.32313 0
M  V30 35494 H 3668.85 -0.88941 -4.15896 0
M  V30 35495 N 3667.17 1.44239 -0.635047 0
M  V30 35496 C 3668.39 2.06368 -0.148296 0
M  V30 35497 C 3668.81 1.47484 1.17872 0
M  V30 35498 O 3668.17 0.599199 1.72383 0
M  V30 35499 C 3668.22 3.61486 -0.0315826 0
M  V30 35500 O 3667.94 4.18177 -1.30612 0
M  V30 35501 C 3669.44 4.40656 0.483401 0
M  V30 35502 H 3666.66 0.666034 -0.0814837 0
M  V30 35503 H 3669.2 1.85045 -0.870559 0
M  V30 35504 H 3667.36 3.82058 0.641141 0
M  V30 35505 H 3667.77 5.11659 -1.1535 0
M  V30 35506 H 3669.25 5.49601 0.514068 0
M  V30 35507 H 3669.72 4.12382 1.51122 0
M  V30 35508 H 3670.33 4.25013 -0.156206 0
M  V30 35509 N 3668.64 0.375833 1.53053 0
M  V30 35510 C 3669.92 -0.267536 1.93762 0
M  V30 35511 C 3670.3 -1.65519 1.31022 0
M  V30 35512 O 3669.65 -2.23547 0.473178 0
M  V30 35513 C 3669.86 -0.307443 3.47643 0
M  V30 35514 C 3671.21 -0.542877 4.21115 0
M  V30 35515 O 3672.23 -0.388223 3.54078 0
M  V30 35516 O 3671.09 -0.844805 5.39931 0
M  V30 35517 H 3668.18 -0.162846 0.810808 0
M  V30 35518 H 3670.73 0.429362 1.64178 0
M  V30 35519 H 3669.5 0.665068 3.85607 0
M  V30 35520 H 3669.13 -1.04982 3.8349 0
M  V30 35521 N 3670.12 -1.57248 0.105276 0
M  V30 35522 C 3671.37 -1.93892 -0.555763 0
M  V30 35523 C 3671.68 -0.989913 -1.68701 0
M  V30 35524 O 3672.89 -1.25047 -2.40989 0
M  V30 35525 C 3671.35 -3.44546 -1.04 0
M  V30 35526 C 3670.95 -4.47957 0.0620429 0
M  V30 35527 C 3672.7 -3.90134 -1.6732 0
M  V30 35528 C 3670.61 -5.89775 -0.438125 0
M  V30 35529 H 3669.54 -0.723765 -0.211378 0
M  V30 35530 H 3672.19 -1.82586 0.182919 0
M  V30 35531 H 3670.57 -3.51039 -1.83269 0
M  V30 35532 H 3671.74 -4.53118 0.837882 0
M  V30 35533 H 3670.06 -4.12039 0.601046 0
M  V30 35534 H 3672.65 -4.93495 -2.05831 0
M  V30 35535 H 3673 -3.29345 -2.54632 0
M  V30 35536 H 3673.53 -3.86384 -0.946163 0
M  V30 35537 H 3670.27 -6.54287 0.398621 0
M  V30 35538 H 3669.79 -5.88063 -1.18075 0
M  V30 35539 H 3671.47 -6.40656 -0.903809 0
M  V30 35540 N 3671.6 0.168458 -1.56697 0
M  V30 35541 C 3672.83 0.904162 -1.86654 0
M  V30 35542 C 3673.25 1.74911 -0.691937 0
M  V30 35543 O 3672.61 1.77711 0.35894 0
M  V30 35544 C 3672.66 1.75437 -3.15047 0
M  V30 35545 O 3671.76 2.8563 -2.97471 0
M  V30 35546 H 3671.1 0.253117 -0.613863 0
M  V30 35547 H 3673.63 0.165737 -2.03928 0
M  V30 35548 H 3673.64 2.15372 -3.46524 0
M  V30 35549 H 3672.32 1.13374 -4.00149 0
M  V30 35550 H 3670.89 2.49257 -2.77354 0
M  V30 35551 N 3673.08 1.51417 0.437109 0
M  V30 35552 C 3674.33 1.63773 1.18418 0
M  V30 35553 C 3674.65 0.356315 1.91717 0
M  V30 35554 O 3673.92 -0.627831 1.85567 0
M  V30 35555 H 3672.5 0.60358 0.440114 0
M  V30 35556 H 3675.16 1.88348 0.501122 0
M  V30 35557 H 3674.26 2.46549 1.91363 0
M  V30 35558 N 3674.56 -0.692567 1.41567 0
M  V30 35559 C 3675.78 -1.4813 1.44448 0
M  V30 35560 C 3676.2 -1.88732 0.0506199 0
M  V30 35561 O 3675.56 -1.56982 -0.930751 0
M  V30 35562 C 3675.61 -2.74191 2.35587 0
M  V30 35563 O 3675.33 -2.35298 3.69549 0
M  V30 35564 C 3676.83 -3.67908 2.47303 0
M  V30 35565 H 3674.05 -0.456388 0.491885 0
M  V30 35566 H 3676.59 -0.852467 1.85885 0
M  V30 35567 H 3674.75 -3.33305 1.97451 0
M  V30 35568 H 3675.16 -3.16577 4.18186 0
M  V30 35569 H 3676.64 -4.53136 3.15233 0
M  V30 35570 H 3677.11 -4.126 1.50524 0
M  V30 35571 H 3677.72 -3.14697 2.86088 0
M  V30 35572 N 3676.03 -1.27445 -0.927123 0
M  V30 35573 C 3677.26 -1.16742 -1.71424 0
M  V30 35574 C 3677.68 0.27203 -1.86123 0
M  V30 35575 O 3677.04 1.197 -1.36167 0
M  V30 35576 C 3677.09 -1.85667 -3.09128 0
M  V30 35577 O 3676.19 -1.15502 -3.95895 0
M  V30 35578 H 3675.54 -0.405992 -0.52542 0
M  V30 35579 H 3678.07 -1.68525 -1.16019 0
M  V30 35580 H 3678.08 -1.93048 -3.59439 0
M  V30 35581 H 3676.75 -2.90379 -2.97747 0
M  V30 35582 H 3675.33 -1.16194 -3.54335 0
M  V30 35583 N 3677.51 1.1337 -1.09476 0
M  V30 35584 C 3678.75 1.86307 -0.840786 0
M  V30 35585 C 3679.12 1.81636 0.622295 0
M  V30 35586 O 3680.32 2.49817 0.992221 0
M  V30 35587 C 3678.59 3.30436 -1.36186 0
M  V30 35588 S 3680.15 4.20861 -1.24183 0
M  V30 35589 H 3676.97 0.642694 -0.304082 0
M  V30 35590 H 3679.57 1.36636 -1.39824 0
M  V30 35591 H 3678.27 3.3139 -2.42092 0
M  V30 35592 H 3677.8 3.85168 -0.800553 0
M  V30 35593 H 3679.82 4.95824 -0.193108 0
M  V30 35594 N 3678.99 0.882035 1.30606 0
M  V30 35595 C 3680.24 0.495072 1.9553 0
M  V30 35596 C 3680.55 -0.96002 1.7042 0
M  V30 35597 O 3681.76 -1.45369 2.29303 0
M  V30 35598 C 3680.21 0.834444 3.50093 0
M  V30 35599 C 3679.82 2.30711 3.84027 0
M  V30 35600 C 3681.57 0.516537 4.21346 0
M  V30 35601 C 3679.47 2.58826 5.31755 0
M  V30 35602 H 3678.4 0.181412 0.731851 0
M  V30 35603 H 3681.05 1.0766 1.48598 0
M  V30 35604 H 3679.44 0.182031 3.95581 0
M  V30 35605 H 3680.61 3.00359 3.49458 0
M  V30 35606 H 3678.93 2.59225 3.2587 0
M  V30 35607 H 3681.52 0.703669 5.3005 0
M  V30 35608 H 3681.87 -0.543862 4.12732 0
M  V30 35609 H 3682.4 1.12601 3.81531 0
M  V30 35610 H 3679.14 3.63596 5.45416 0
M  V30 35611 H 3678.66 1.93784 5.67633 0
M  V30 35612 H 3680.34 2.44176 5.99155 0
M  V30 35613 N 3680.47 -1.439 0.642688 0
M  V30 35614 C 3681.75 -1.95427 0.0822059 0
M  V30 35615 C 3682.13 -1.58433 -1.39507 0
M  V30 35616 O 3681.47 -0.864156 -2.11529 0
M  V30 35617 C 3681.68 -3.47555 0.317291 0
M  V30 35618 C 3683.03 -4.24047 0.216621 0
M  V30 35619 O 3684.06 -3.55327 0.249278 0
M  V30 35620 O 3682.91 -5.46342 0.131365 0
M  V30 35621 H 3680.01 -0.826851 -0.0156791 0
M  V30 35622 H 3682.55 -1.53893 0.715195 0
M  V30 35623 H 3681.33 -3.67571 1.34191 0
M  V30 35624 H 3680.95 -3.96063 -0.349278 0
M  V30 35625 N 3681.95 -0.383945 -1.52852 0
M  V30 35626 C 3682.88 0.44535 -2.29214 0
M  V30 35627 C 3683.86 1.06813 -1.32382 0
M  V30 35628 O 3685.04 1.08191 -1.61271 0
M  V30 35629 C 3682.17 1.57567 -3.09499 0
M  V30 35630 C 3681.13 1.07921 -4.1417 0
M  V30 35631 C 3680.45 2.30119 -4.82648 0
M  V30 35632 C 3681.75 0.150943 -5.22082 0
M  V30 35633 H 3683.45 -0.191773 -2.98785 0
M  V30 35634 H 3680.99 -0.0936724 -1.43695 0
M  V30 35635 H 3682.95 2.16261 -3.61676 0
M  V30 35636 H 3681.67 2.2403 -2.37651 0
M  V30 35637 H 3680.33 0.514846 -3.62967 0
M  V30 35638 H 3679.98 2.9508 -4.07353 0
M  V30 35639 H 3679.68 1.97565 -5.53391 0
M  V30 35640 H 3681.2 2.89465 -5.37627 0
M  V30 35641 H 3682.62 0.645903 -5.6965 0
M  V30 35642 H 3681.01 -0.0845887 -6.0004 0
M  V30 35643 H 3682.08 -0.801703 -4.78227 0
M  V30 35644 N 3683.43 1.5719 -0.113614 0
M  V30 35645 C 3684.7 1.86523 0.588954 0
M  V30 35646 C 3685.08 1.01382 1.85162 0
M  V30 35647 O 3684.43 0.0912589 2.28318 0
M  V30 35648 C 3684.64 3.37551 0.886574 0
M  V30 35649 C 3685.99 4.06029 1.24198 0
M  V30 35650 O 3687.01 3.42539 0.977008 0
M  V30 35651 O 3685.87 5.18092 1.73905 0
M  V30 35652 H 3682.97 0.771974 0.296624 0
M  V30 35653 H 3685.51 1.69056 -0.147711 0
M  V30 35654 H 3684.28 3.91299 -0.00842299 0
M  V30 35655 H 3683.91 3.60429 1.67858 0
M  V30 35656 N 3684.9 -0.160146 1.56784 0
M  V30 35657 C 3685.81 -1.2178 2.00517 0
M  V30 35658 C 3686.83 -1.4779 0.918367 0
M  V30 35659 O 3688.01 -1.59719 1.22686 0
M  V30 35660 C 3685.07 -2.53439 2.36579 0
M  V30 35661 C 3684.13 -2.35192 3.59143 0
M  V30 35662 C 3683.36 -3.60573 3.93475 0
M  V30 35663 O 3683.59 -4.66215 3.28634 0
M  V30 35664 O 3682.52 -3.54018 4.8678 0
M  V30 35665 H 3686.35 -0.876556 2.90775 0
M  V30 35666 H 3683.93 -0.367871 1.448 0
M  V30 35667 H 3685.81 -3.31085 2.60693 0
M  V30 35668 H 3684.49 -2.87119 1.49479 0
M  V30 35669 H 3683.4 -1.5554 3.40232 0
M  V30 35670 H 3684.73 -2.06432 4.46819 0
M  V30 35671 N 3686.38 -1.51647 -0.429072 0
M  V30 35672 C 3687.62 -1.66388 -1.18719 0
M  V30 35673 C 3687.99 -0.375914 -1.88284 0
M  V30 35674 O 3689.19 -0.399195 -2.65819 0
M  V30 35675 C 3687.46 -2.83928 -2.17071 0
M  V30 35676 S 3689.02 -3.19043 -3.01259 0
M  V30 35677 H 3685.83 -0.586116 -0.402478 0
M  V30 35678 H 3688.44 -1.89579 -0.477487 0
M  V30 35679 H 3687.14 -3.75938 -1.64618 0
M  V30 35680 H 3686.67 -2.6295 -2.9261 0
M  V30 35681 H 3688.69 -2.66118 -4.18803 0
M  V30 35682 N 3687.86 0.685049 -1.41932 0
M  V30 35683 C 3689.08 1.47863 -1.45435 0
M  V30 35684 C 3689.51 1.87991 -0.0641633 0
M  V30 35685 O 3688.87 1.55327 0.935054 0
M  V30 35686 C 3688.92 2.71073 -2.37806 0
M  V30 35687 O 3688.02 3.68959 -1.84235 0
M  V30 35688 H 3687.36 0.444619 -0.493164 0
M  V30 35689 H 3689.89 0.841144 -1.8651 0
M  V30 35690 H 3689.9 3.19262 -2.54039 0
M  V30 35691 H 3688.58 2.41205 -3.38811 0
M  V30 35692 H 3687.15 3.27942 -1.77506 0
M  V30 35693 N 3689.34 1.27935 0.920351 0
M  V30 35694 C 3690.27 1.07093 2.02642 0
M  V30 35695 C 3691.28 0.0247027 1.62781 0
M  V30 35696 O 3692.47 0.267055 1.76491 0
M  V30 35697 C 3689.57 0.603978 3.33475 0
M  V30 35698 C 3688.74 1.72414 4.01985 0
M  V30 35699 C 3687.8 1.25168 5.11096 0
M  V30 35700 O 3686.83 1.95271 5.34657 0
M  V30 35701 N 3688.03 0.111299 5.80393 0
M  V30 35702 H 3690.8 2.02344 2.21082 0
M  V30 35703 H 3688.36 1.19599 1.09122 0
M  V30 35704 H 3690.35 0.27165 4.03787 0
M  V30 35705 H 3688.92 -0.255502 3.11554 0
M  V30 35706 H 3688.14 2.22639 3.25309 0
M  V30 35707 H 3689.43 2.47573 4.44505 0
M  V30 35708 H 3688.83 -0.473647 5.63714 0
M  V30 35709 H 3687.38 -0.161798 6.51599 0
M  V30 35710 N 3690.82 -1.12788 1.10076 0
M  V30 35711 C 3692.04 -1.88586 0.863139 0
M  V30 35712 C 3692.47 -1.78916 -0.580564 0
M  V30 35713 O 3691.82 -1.14145 -1.40857 0
M  V30 35714 C 3691.87 -3.35906 1.31148 0
M  V30 35715 O 3690.98 -4.09665 0.47416 0
M  V30 35716 H 3690.32 -0.586109 0.312045 0
M  V30 35717 H 3692.85 -1.42659 1.46661 0
M  V30 35718 H 3692.86 -3.86742 1.2998 0
M  V30 35719 H 3691.53 -3.42261 2.36285 0
M  V30 35720 H 3690.11 -3.68811 0.55073 0
M  V30 35721 N 3692.29 -0.888949 -1.30136 0
M  V30 35722 C 3693.7 -0.559377 -1.78123 0
M  V30 35723 C 3694.06 0.924602 -1.73048 0
M  V30 35724 O 3693.18 1.72262 -1.30977 0
M  V30 35725 C 3693.78 -1.00862 -3.23438 0
M  V30 35726 C 3692.33 -0.730396 -3.69245 0
M  V30 35727 C 3691.48 -1.18937 -2.50498 0
M  V30 35728 H 3694.43 -1.07277 -1.1695 0
M  V30 35729 H 3694.45 -0.339285 -3.78984 0
M  V30 35730 H 3693.97 -2.08871 -3.271 0
M  V30 35731 H 3692.07 0.337534 -3.71068 0
M  V30 35732 H 3692.18 -1.32074 -4.60536 0
M  V30 35733 H 3690.54 -0.608612 -2.47322 0
M  V30 35734 H 3691.33 -2.27728 -2.56895 0
M  V30 35735 N 3693.77 1.43557 -0.65031 0
M  V30 35736 C 3694.72 2.3076 0.0430574 0
M  V30 35737 C 3695.69 1.44584 0.817604 0
M  V30 35738 O 3696.87 1.73458 0.794794 0
M  V30 35739 C 3694.01 3.30126 1.00551 0
M  V30 35740 C 3693.13 4.31401 0.227372 0
M  V30 35741 C 3692.26 5.17851 1.18336 0
M  V30 35742 C 3691.3 6.10821 0.395489 0
M  V30 35743 N 3690.44 6.89905 1.30292 0
M  V30 35744 H 3695.28 2.89505 -0.706452 0
M  V30 35745 H 3692.81 1.42623 -0.360143 0
M  V30 35746 H 3694.77 3.86243 1.5771 0
M  V30 35747 H 3693.4 2.73037 1.72193 0
M  V30 35748 H 3692.45 3.77603 -0.460458 0
M  V30 35749 H 3693.77 4.97309 -0.385403 0
M  V30 35750 H 3692.92 5.78579 1.82568 0
M  V30 35751 H 3691.66 4.52062 1.83005 0
M  V30 35752 H 3690.66 5.49184 -0.260196 0
M  V30 35753 H 3691.89 6.78652 -0.246752 0
M  V30 35754 H 3689.84 6.26767 1.93646 0
M  V30 35755 H 3689.75 7.52324 0.744636 0
M  V30 35756 H 3691.02 7.5514 1.93347 0
M  V30 35757 N 3695.25 0.392045 1.52646 0
M  V30 35758 C 3696.66 -0.0813763 1.86523 0
M  V30 35759 C 3697.01 -1.45916 1.31161 0
M  V30 35760 O 3696.14 -2.06594 0.644044 0
M  V30 35761 C 3696.73 -0.154441 3.38448 0
M  V30 35762 C 3695.29 -0.572162 3.72026 0
M  V30 35763 C 3694.44 0.264142 2.76039 0
M  V30 35764 H 3697.39 0.609811 1.46516 0
M  V30 35765 H 3697.41 -0.973044 3.67848 0
M  V30 35766 H 3696.92 0.848462 3.78712 0
M  V30 35767 H 3695.02 -1.58233 3.37332 0
M  V30 35768 H 3695.14 -0.328407 4.77973 0
M  V30 35769 H 3693.5 -0.270998 2.53254 0
M  V30 35770 H 3694.28 1.26508 3.19141 0
M  V30 35771 N 3696.73 -1.57127 0.121948 0
M  V30 35772 C 3697.97 -1.97182 -0.538388 0
M  V30 35773 C 3698.33 -1.00397 -1.63659 0
M  V30 35774 O 3699.53 -1.29401 -2.35603 0
M  V30 35775 C 3697.8 -3.41485 -1.05463 0
M  V30 35776 S 3699.36 -4.03553 -1.72308 0
M  V30 35777 H 3696.18 -0.689152 -0.174901 0
M  V30 35778 H 3698.78 -1.94393 0.207728 0
M  V30 35779 H 3697.49 -4.09673 -0.244225 0
M  V30 35780 H 3697.02 -3.47931 -1.83596 0
M  V30 35781 H 3699.03 -3.94553 -3.00903 0
M  V30 35782 N 3698.21 0.151829 -1.56867 0
M  V30 35783 C 3699.15 1.20681 -1.98844 0
M  V30 35784 C 3700.15 1.44744 -0.880095 0
M  V30 35785 O 3701.35 1.45093 -1.06527 0
M  V30 35786 H 3697.73 0.406112 -0.632911 0
M  V30 35787 H 3699.7 0.826044 -2.86739 0
M  V30 35788 C 3698.45 2.53385 -2.381 0
M  V30 35789 H 3697.77 2.35698 -3.22934 0
M  V30 35790 H 3699.21 3.25842 -2.71298 0
M  V30 35791 C 3697.67 3.13573 -1.2318 0
M  V30 35792 O 3698.2 3.98189 -0.529934 0
M  V30 35793 N 3696.41 2.72951 -0.997303 0
M  V30 35794 H 3695.95 2.04241 -1.56982 0
M  V30 35795 H 3695.91 3.13556 -0.230276 0
M  V30 35796 N 3699.68 1.51872 0.421024 0
M  V30 35797 C 3700.91 1.68932 1.18935 0
M  V30 35798 C 3701.32 0.393231 1.85068 0
M  V30 35799 O 3700.67 -0.639617 1.72205 0
M  V30 35800 C 3700.73 2.76016 2.30338 0
M  V30 35801 C 3700.39 4.18129 1.84438 0
M  V30 35802 C 3701.39 5.02368 1.33873 0
M  V30 35803 C 3699.07 4.64308 1.91633 0
M  V30 35804 C 3701.07 6.30855 0.911101 0
M  V30 35805 C 3698.75 5.92787 1.48482 0
M  V30 35806 C 3699.75 6.75889 0.983041 0
M  V30 35807 O 3699.44 8.01963 0.557712 0
M  V30 35808 H 3699.17 0.569697 0.363898 0
M  V30 35809 H 3701.73 1.99144 0.503054 0
M  V30 35810 H 3699.96 2.41154 3.02294 0
M  V30 35811 H 3701.65 2.81792 2.92144 0
M  V30 35812 H 3702.41 4.67888 1.27696 0
M  V30 35813 H 3698.29 3.99736 2.29634 0
M  V30 35814 H 3701.83 6.95669 0.518755 0
M  V30 35815 H 3697.73 6.26778 1.54334 0
M  V30 35816 H 3698.5 8.15653 0.682095 0
M  V30 35817 N 3701.16 -0.677513 1.42294 0
M  V30 35818 C 3702.41 -1.43332 1.41912 0
M  V30 35819 C 3702.72 -1.95563 0.0379854 0
M  V30 35820 O 3703.93 -2.71356 -0.088436 0
M  V30 35821 C 3702.39 -2.59271 2.49613 0
M  V30 35822 C 3701.99 -2.1375 3.93719 0
M  V30 35823 C 3703.74 -3.36798 2.58393 0
M  V30 35824 C 3701.65 -3.26756 4.92935 0
M  V30 35825 H 3700.58 -0.538451 0.527813 0
M  V30 35826 H 3703.23 -0.733762 1.68191 0
M  V30 35827 H 3701.61 -3.31581 2.16494 0
M  V30 35828 H 3702.78 -1.48611 4.36178 0
M  V30 35829 H 3701.1 -1.49168 3.88764 0
M  V30 35830 H 3703.69 -4.20955 3.29698 0
M  V30 35831 H 3704.04 -3.83207 1.6266 0
M  V30 35832 H 3704.57 -2.71556 2.90693 0
M  V30 35833 H 3701.31 -2.85341 5.90136 0
M  V30 35834 H 3700.83 -3.90686 4.5511 0
M  V30 35835 H 3702.51 -3.92264 5.14527 0
M  V30 35836 N 3702.64 -1.28421 -0.913554 0
M  V30 35837 C 3703.88 -1.16839 -1.67714 0
M  V30 35838 C 3704.24 0.278418 -1.89971 0
M  V30 35839 O 3705.45 0.516948 -2.63782 0
M  V30 35840 C 3703.72 -1.9451 -2.99834 0
M  V30 35841 S 3705.28 -1.99304 -3.90926 0
M  V30 35842 H 3702.09 -0.416856 -0.57598 0
M  V30 35843 H 3704.7 -1.62523 -1.08658 0
M  V30 35844 H 3703.4 -2.98793 -2.81338 0
M  V30 35845 H 3702.93 -1.49376 -3.63937 0
M  V30 35846 H 3704.95 -1.09969 -4.83861 0
M  V30 35847 N 3704.12 1.12202 -1.10672 0
M  V30 35848 C 3705.07 2.18005 -0.757783 0
M  V30 35849 C 3706.04 1.63939 0.267032 0
M  V30 35850 O 3707.22 1.90242 0.145755 0
M  V30 35851 C 3704.36 3.44529 -0.19844 0
M  V30 35852 C 3703.47 4.12637 -1.27885 0
M  V30 35853 C 3702.61 5.26818 -0.680893 0
M  V30 35854 C 3701.65 5.86797 -1.74171 0
M  V30 35855 N 3700.78 6.92387 -1.16384 0
M  V30 35856 H 3705.62 2.47199 -1.66422 0
M  V30 35857 H 3703.16 1.21363 -0.831237 0
M  V30 35858 H 3705.12 4.16952 0.143765 0
M  V30 35859 H 3703.75 3.15744 0.671223 0
M  V30 35860 H 3702.8 3.38368 -1.73814 0
M  V30 35861 H 3704.11 4.53281 -2.08177 0
M  V30 35862 H 3703.27 6.06015 -0.288279 0
M  V30 35863 H 3702.01 4.87459 0.153435 0
M  V30 35864 H 3701.01 5.06285 -2.14372 0
M  V30 35865 H 3702.24 6.28226 -2.57893 0
M  V30 35866 H 3700.18 6.5506 -0.351014 0
M  V30 35867 H 3700.1 7.31642 -1.90356 0
M  V30 35868 H 3701.37 7.75406 -0.797851 0
M  V30 35869 N 3705.6 0.895838 1.29663 0
M  V30 35870 C 3706.54 0.360444 2.2979 0
M  V30 35871 C 3707.54 -0.538356 1.60618 0
M  V30 35872 O 3708.74 -0.421585 1.74993 0
M  V30 35873 H 3705.12 0.0979249 0.745597 0
M  V30 35874 H 3707.09 1.21836 2.72394 0
M  V30 35875 C 3705.84 -0.40039 3.45387 0
M  V30 35876 H 3705.16 0.281985 3.98804 0
M  V30 35877 H 3706.6 -0.73993 4.17494 0
M  V30 35878 C 3705.06 -1.6016 2.96396 0
M  V30 35879 O 3705.59 -2.70092 2.97343 0
M  V30 35880 N 3703.8 -1.44245 2.52273 0
M  V30 35881 H 3703.34 -0.548098 2.51702 0
M  V30 35882 H 3703.3 -2.24749 2.19853 0
M  V30 35883 N 3707.07 -1.43211 0.657914 0
M  V30 35884 C 3708.3 -2.06106 0.181108 0
M  V30 35885 C 3708.72 -1.49341 -1.15511 0
M  V30 35886 O 3708.07 -0.626548 -1.71408 0
M  V30 35887 C 3708.13 -3.6139 0.0890879 0
M  V30 35888 O 3707.85 -4.16046 1.37249 0
M  V30 35889 C 3709.35 -4.4137 -0.413235 0
M  V30 35890 H 3706.57 -0.664653 0.0920694 0
M  V30 35891 H 3709.11 -1.83636 0.899888 0
M  V30 35892 H 3707.27 -3.83029 -0.580278 0
M  V30 35893 H 3707.68 -5.09759 1.23476 0
M  V30 35894 H 3709.15 -5.50349 -0.426566 0
M  V30 35895 H 3709.63 -4.14734 -1.44542 0
M  V30 35896 H 3710.24 -4.24711 0.223802 0
M  V30 35897 N 3708.55 -0.400135 -1.52436 0
M  V30 35898 C 3709.46 0.436835 -2.30497 0
M  V30 35899 C 3710.48 1.06173 -1.37853 0
M  V30 35900 O 3711.65 1.06519 -1.70926 0
M  V30 35901 C 3708.72 1.5432 -3.10461 0
M  V30 35902 C 3707.78 0.942294 -4.18831 0
M  V30 35903 C 3707.01 1.99593 -4.94973 0
M  V30 35904 O 3707.24 3.2127 -4.71319 0
M  V30 35905 O 3706.17 1.60718 -5.80046 0
M  V30 35906 H 3710 -0.199396 -3.03045 0
M  V30 35907 H 3707.58 -0.163567 -1.48502 0
M  V30 35908 H 3709.46 2.18568 -3.60286 0
M  V30 35909 H 3708.14 2.16419 -2.40716 0
M  V30 35910 H 3707.05 0.262765 -3.73176 0
M  V30 35911 H 3708.38 0.365355 -4.90842 0
M  V30 35912 N 3710.03 1.57061 -0.13028 0
M  V30 35913 C 3711.28 1.9519 0.523935 0
M  V30 35914 C 3711.6 1.01517 1.66491 0
M  V30 35915 O 3710.87 0.0735538 1.95762 0
M  V30 35916 H 3709.45 0.720681 0.196541 0
M  V30 35917 H 3712.11 1.93852 -0.201864 0
M  V30 35918 H 3711.21 2.98505 0.911104 0
M  V30 35919 N 3711.51 -0.143508 1.56945 0
M  V30 35920 C 3712.73 -0.874352 1.88069 0
M  V30 35921 C 3713.16 -1.73788 0.719676 0
M  V30 35922 O 3712.52 -1.7826 -0.330622 0
M  V30 35923 C 3712.57 -1.70402 3.17798 0
M  V30 35924 O 3711.67 -2.80862 3.01978 0
M  V30 35925 H 3711.01 -0.243319 0.617812 0
M  V30 35926 H 3713.54 -0.133273 2.04165 0
M  V30 35927 H 3713.55 -2.09832 3.49906 0
M  V30 35928 H 3712.23 -1.06994 4.01902 0
M  V30 35929 H 3710.8 -2.44813 2.81284 0
M  V30 35930 N 3712.99 -1.52093 -0.412964 0
M  V30 35931 C 3714.22 -1.69561 -1.18037 0
M  V30 35932 C 3714.63 -0.40304 -1.84857 0
M  V30 35933 O 3713.97 0.630476 -1.72542 0
M  V30 35934 C 3714.03 -2.77234 -2.28871 0
M  V30 35935 C 3713.69 -4.19101 -1.82218 0
M  V30 35936 C 3714.69 -5.03071 -1.31207 0
M  V30 35937 C 3712.38 -4.65318 -1.89168 0
M  V30 35938 C 3714.37 -6.31329 -0.877632 0
M  V30 35939 C 3712.06 -5.93566 -1.45336 0
M  V30 35940 C 3713.06 -6.764 -0.947183 0
M  V30 35941 O 3712.74 -8.02248 -0.515174 0
M  V30 35942 H 3712.48 -0.571618 -0.360872 0
M  V30 35943 H 3715.03 -1.99408 -0.492486 0
M  V30 35944 H 3713.26 -2.42754 -3.01011 0
M  V30 35945 H 3714.95 -2.83338 -2.90645 0
M  V30 35946 H 3715.71 -4.68558 -1.25213 0
M  V30 35947 H 3711.59 -4.00949 -2.27511 0
M  V30 35948 H 3715.14 -6.95934 -0.481855 0
M  V30 35949 H 3711.03 -6.27588 -1.51008 0
M  V30 35950 H 3711.8 -8.16003 -0.638829 0
M  V30 35951 N 3714.47 0.669957 -1.42651 0
M  V30 35952 C 3715.4 1.79549 -1.4246 0
M  V30 35953 C 3716.41 1.59564 -0.322994 0
M  V30 35954 O 3717.6 1.68593 -0.586388 0
M  V30 35955 C 3714.7 3.16729 -1.20566 0
M  V30 35956 C 3713.87 3.63521 -2.43252 0
M  V30 35957 C 3712.93 4.79448 -2.16831 0
M  V30 35958 O 3711.96 4.89745 -2.90067 0
M  V30 35959 N 3713.16 5.68495 -1.17446 0
M  V30 35960 H 3715.92 1.80196 -2.39477 0
M  V30 35961 H 3713.49 0.85322 -1.37593 0
M  V30 35962 H 3715.48 3.91946 -1.008 0
M  V30 35963 H 3714.05 3.10952 -0.320552 0
M  V30 35964 H 3713.27 2.78929 -2.78554 0
M  V30 35965 H 3714.56 3.91526 -3.24938 0
M  V30 35966 H 3713.95 5.62833 -0.568835 0
M  V30 35967 H 3712.51 6.43503 -1.03666 0
M  V30 35968 N 3715.94 1.28904 0.90673 0
M  V30 35969 C 3717.18 1.17727 1.67092 0
M  V30 35970 C 3717.55 -0.26834 1.90116 0
M  V30 35971 O 3718.75 -0.502951 2.64053 0
M  V30 35972 C 3717.02 1.96097 2.98799 0
M  V30 35973 S 3718.58 2.01375 3.89864 0
M  V30 35974 H 3715.4 0.419904 0.573761 0
M  V30 35975 H 3718 1.63097 1.07794 0
M  V30 35976 H 3716.7 3.00281 2.79749 0
M  V30 35977 H 3716.23 1.51304 3.6314 0
M  V30 35978 H 3718.25 1.12533 4.83271 0
M  V30 35979 N 3717.42 -1.11614 1.11266 0
M  V30 35980 C 3718.65 -1.8766 0.883093 0
M  V30 35981 C 3719.07 -1.79522 -0.561554 0
M  V30 35982 O 3718.43 -1.15632 -1.39638 0
M  V30 35983 C 3718.48 -3.34496 1.34703 0
M  V30 35984 O 3717.58 -4.09139 0.517584 0
M  V30 35985 H 3716.92 -0.582767 0.318244 0
M  V30 35986 H 3719.45 -1.41096 1.48166 0
M  V30 35987 H 3719.46 -3.85341 1.34075 0
M  V30 35988 H 3718.14 -3.39735 2.39902 0
M  V30 35989 H 3716.71 -3.68206 0.589816 0
M  V30 35990 N 3718.9 -0.902701 -1.29186 0
M  V30 35991 C 3720.14 -0.537105 -1.97217 0
M  V30 35992 C 3720.5 0.900393 -1.69579 0
M  V30 35993 O 3721.7 1.37301 -2.31088 0
M  V30 35994 C 3719.98 -0.824857 -3.47751 0
M  V30 35995 S 3721.53 -0.564019 -4.3516 0
M  V30 35996 H 3718.35 -0.199148 -0.68254 0
M  V30 35997 H 3720.95 -1.16578 -1.56939 0
M  V30 35998 H 3719.66 -1.86922 -3.6536 0
M  V30 35999 H 3719.19 -0.184411 -3.92968 0
M  V30 36000 H 3721.2 0.589611 -4.92685 0
M  V30 36001 N 3720.38 1.4286 -0.6655 0
M  V30 36002 C 3721.79 1.84849 -0.262283 0
M  V30 36003 C 3722.14 1.55709 1.19369 0
M  V30 36004 O 3721.26 1.01222 1.91267 0
M  V30 36005 C 3721.86 3.35535 -0.469248 0
M  V30 36006 C 3720.42 3.76208 -0.120238 0
M  V30 36007 C 3719.57 2.66505 -0.7662 0
M  V30 36008 H 3722.52 1.32838 -0.868319 0
M  V30 36009 H 3722.54 3.79457 0.281504 0
M  V30 36010 H 3722.05 3.56711 -1.52901 0
M  V30 36011 H 3720.15 3.6064 0.936442 0
M  V30 36012 H 3720.26 4.75883 -0.554271 0
M  V30 36013 H 3718.63 2.53927 -0.198337 0
M  V30 36014 H 3719.41 2.90507 -1.82923 0
M  V30 36015 N 3721.86 0.408213 1.52221 0
M  V30 36016 C 3723.27 0.0590482 1.59491 0
M  V30 36017 C 3723.47 -1.42851 1.42112 0
M  V30 36018 O 3722.53 -2.19524 1.24761 0
M  V30 36019 C 3723.84 0.553145 2.95569 0
M  V30 36020 C 3725.39 0.511041 3.088 0
M  V30 36021 C 3725.86 0.981632 4.47357 0
M  V30 36022 N 3727.35 0.938415 4.53595 0
M  V30 36023 C 3728.09 1.27374 5.59074 0
M  V30 36024 N 3727.59 1.68047 6.7211 0
M  V30 36025 N 3729.38 1.19377 5.49277 0
M  V30 36026 H 3721.53 1.37643 1.61765 0
M  V30 36027 H 3723.79 0.565385 0.760949 0
M  V30 36028 H 3723.5 1.59282 3.13564 0
M  V30 36029 H 3723.37 -0.0376966 3.77181 0
M  V30 36030 H 3725.76 -0.519586 2.9049 0
M  V30 36031 H 3725.84 1.13792 2.29096 0
M  V30 36032 H 3725.48 2.01058 4.6641 0
M  V30 36033 H 3725.41 0.33157 5.25555 0
M  V30 36034 H 3727.91 0.639363 3.72452 0
M  V30 36035 H 3728.22 1.91947 7.48583 0
M  V30 36036 H 3726.56 1.7195 6.73393 0
M  V30 36037 H 3729.75 0.874881 4.59852 0
M  V30 36038 H 3729.93 1.4584 6.31375 0
M  V30 36039 N 3723.33 -1.56989 0.138607 0
M  V30 36040 C 3724.58 -1.95466 -0.513576 0
M  V30 36041 C 3724.9 -1.02399 -1.6595 0
M  V30 36042 O 3724.17 -0.0839345 -1.9572 0
M  V30 36043 H 3722.75 -0.721713 -0.192716 0
M  V30 36044 H 3725.41 -1.93742 0.212141 0
M  V30 36045 H 3724.51 -2.98984 -0.895261 0
M  V30 36046 N 3724.81 0.135183 -1.57019 0
M  V30 36047 C 3726.04 0.859154 -1.87889 0
M  V30 36048 C 3726.45 1.7471 -0.726162 0
M  V30 36049 O 3725.79 1.81018 0.312752 0
M  V30 36050 C 3725.85 1.75776 -3.13597 0
M  V30 36051 C 3725.52 1.04578 -4.44874 0
M  V30 36052 C 3726.52 0.394128 -5.18404 0
M  V30 36053 C 3724.2 1.03177 -4.91589 0
M  V30 36054 C 3726.19 -0.262017 -6.36861 0
M  V30 36055 C 3723.88 0.371816 -6.09968 0
M  V30 36056 C 3724.88 -0.273937 -6.8245 0
M  V30 36057 O 3724.57 -0.923397 -7.98579 0
M  V30 36058 H 3724.3 0.253177 -0.626799 0
M  V30 36059 H 3726.85 0.129073 -2.04994 0
M  V30 36060 H 3725.08 2.52908 -2.92531 0
M  V30 36061 H 3726.77 2.35472 -3.30617 0
M  V30 36062 H 3727.54 0.396681 -4.83375 0
M  V30 36063 H 3723.42 1.52381 -4.35087 0
M  V30 36064 H 3726.96 -0.766636 -6.93375 0
M  V30 36065 H 3722.86 0.366971 -6.44456 0
M  V30 36066 H 3723.63 -0.826247 -8.14319 0
M  V30 36067 N 3726.29 1.5231 0.404892 0
M  V30 36068 C 3727.54 1.66824 1.15316 0
M  V30 36069 C 3727.87 0.399075 1.90055 0
M  V30 36070 O 3727.14 -0.602646 1.84928 0
M  V30 36071 C 3727.43 2.89302 2.14421 0
M  V30 36072 C 3727.28 4.26278 1.4355 0
M  V30 36073 C 3728.6 3.07307 3.15041 0
M  V30 36074 H 3725.72 0.607094 0.417858 0
M  V30 36075 H 3728.36 1.84874 0.438382 0
M  V30 36076 H 3726.51 2.74044 2.75377 0
M  V30 36077 H 3728.18 4.53273 0.856819 0
M  V30 36078 H 3726.43 4.27486 0.73744 0
M  V30 36079 H 3727.1 5.08033 2.15886 0
M  V30 36080 H 3729.57 3.21491 2.64164 0
M  V30 36081 H 3728.45 3.9451 3.81645 0
M  V30 36082 H 3728.71 2.2081 3.83008 0
M  V30 36083 N 3727.77 -0.662382 1.43004 0
M  V30 36084 C 3728.7 -1.78737 1.50251 0
M  V30 36085 C 3729.68 -1.66291 0.357963 0
M  V30 36086 O 3730.86 -1.85525 0.573952 0
M  V30 36087 C 3727.99 -3.17112 1.41624 0
M  V30 36088 C 3726.95 -3.4431 2.54234 0
M  V30 36089 C 3726.27 -4.82389 2.30662 0
M  V30 36090 C 3727.57 -3.39965 3.96511 0
M  V30 36091 H 3729.27 -1.72929 2.44409 0
M  V30 36092 H 3726.81 -0.830548 1.17635 0
M  V30 36093 H 3728.77 -3.95558 1.45299 0
M  V30 36094 H 3727.49 -3.23627 0.439662 0
M  V30 36095 H 3726.15 -2.6823 2.49896 0
M  V30 36096 H 3725.8 -4.85569 1.31268 0
M  V30 36097 H 3725.5 -5.01548 3.06142 0
M  V30 36098 H 3727.02 -5.63104 2.36106 0
M  V30 36099 H 3728.44 -4.08361 4.02385 0
M  V30 36100 H 3726.83 -3.7066 4.71944 0
M  V30 36101 H 3727.9 -2.3831 4.22299 0
M  V30 36102 N 3729.25 -1.29383 -0.899882 0
M  V30 36103 C 3730.18 -1.10303 -2.00912 0
M  V30 36104 C 3731.19 -0.0505966 -1.62721 0
M  V30 36105 O 3732.38 -0.295099 -1.76044 0
M  V30 36106 C 3729.48 -0.656954 -3.32472 0
M  V30 36107 C 3728.65 -1.78787 -3.99192 0
M  V30 36108 C 3727.71 -1.33283 -5.0904 0
M  V30 36109 O 3726.74 -2.03752 -5.31483 0
M  V30 36110 N 3727.94 -0.203621 -5.80143 0
M  V30 36111 H 3730.71 -2.05835 -2.17834 0
M  V30 36112 H 3728.27 -1.2132 -1.07205 0
M  V30 36113 H 3730.26 -0.335854 -4.03304 0
M  V30 36114 H 3728.83 0.205904 -3.11921 0
M  V30 36115 H 3728.05 -2.27786 -3.21725 0
M  V30 36116 H 3729.34 -2.54614 -4.4051 0
M  V30 36117 H 3728.73 0.383905 -5.64396 0
M  V30 36118 H 3727.29 0.0581137 -6.51774 0
M  V30 36119 N 3730.72 1.11022 -1.11856 0
M  V30 36120 C 3731.63 2.20765 -0.793719 0
M  V30 36121 C 3732.65 1.72667 0.214965 0
M  V30 36122 O 3733.83 2.01338 0.0500622 0
M  V30 36123 C 3730.89 3.45823 -0.246436 0
M  V30 36124 C 3729.95 4.08687 -1.31428 0
M  V30 36125 C 3729.19 5.27775 -0.793014 0
M  V30 36126 O 3729.41 5.69163 0.375392 0
M  V30 36127 O 3728.34 5.81338 -1.55981 0
M  V30 36128 H 3732.17 2.50973 -1.71015 0
M  V30 36129 H 3729.75 1.19642 -0.894773 0
M  V30 36130 H 3731.64 4.21365 0.0541891 0
M  V30 36131 H 3730.31 3.17257 0.642647 0
M  V30 36132 H 3729.22 3.34857 -1.66798 0
M  V30 36133 H 3730.55 4.41443 -2.17691 0
M  V30 36134 N 3732.2 0.90954 1.28706 0
M  V30 36135 C 3733.48 0.459618 1.90123 0
M  V30 36136 C 3733.86 -1.06135 1.82479 0
M  V30 36137 O 3733.21 -1.90756 1.25795 0
M  V30 36138 C 3733.42 0.985247 3.34804 0
M  V30 36139 C 3734.77 1.03482 4.11797 0
M  V30 36140 O 3735.79 0.933597 3.43748 0
M  V30 36141 O 3734.65 1.18834 5.33424 0
M  V30 36142 H 3731.74 0.144962 0.814196 0
M  V30 36143 H 3734.29 1.00005 1.37103 0
M  V30 36144 H 3733.06 2.02923 3.34571 0
M  V30 36145 H 3732.68 0.425398 3.95318 0
M  V30 36146 N 3733.68 -1.42505 0.673067 0
M  V30 36147 C 3734.93 -2.01165 0.194227 0
M  V30 36148 C 3735.25 -1.53479 -1.20288 0
M  V30 36149 O 3734.52 -0.755736 -1.80736 0
M  V30 36150 H 3733.1 -0.743824 0.0688153 0
M  V30 36151 H 3735.76 -1.74445 0.869187 0
M  V30 36152 H 3734.86 -3.11495 0.194166 0
M  V30 36153 N 3735.16 -0.41628 -1.52003 0
M  V30 36154 C 3736.11 0.405684 -2.27207 0
M  V30 36155 C 3737.08 1.03496 -1.29915 0
M  V30 36156 O 3738.26 1.05787 -1.58788 0
M  V30 36157 C 3735.4 1.51252 -3.10188 0
M  V30 36158 C 3734.51 0.903465 -4.22447 0
M  V30 36159 C 3733.65 1.9836 -4.92775 0
M  V30 36160 C 3732.69 1.35185 -5.96985 0
M  V30 36161 N 3731.82 2.37244 -6.60802 0
M  V30 36162 H 3736.66 -0.242035 -2.97015 0
M  V30 36163 H 3734.2 -0.131199 -1.46514 0
M  V30 36164 H 3736.16 2.1653 -3.5661 0
M  V30 36165 H 3734.79 2.13017 -2.42536 0
M  V30 36166 H 3733.84 0.13954 -3.80144 0
M  V30 36167 H 3735.15 0.402049 -4.97177 0
M  V30 36168 H 3734.31 2.71348 -5.42637 0
M  V30 36169 H 3733.05 2.51869 -4.17628 0
M  V30 36170 H 3732.05 0.607335 -5.46435 0
M  V30 36171 H 3733.28 0.824363 -6.74078 0
M  V30 36172 H 3731.22 2.89872 -5.88481 0
M  V30 36173 H 3731.14 1.91934 -7.3123 0
M  V30 36174 H 3732.41 3.0978 -7.15302 0
M  V30 36175 N 3736.64 1.56914 -0.146931 0
M  V30 36176 C 3737.86 2.00487 0.511146 0
M  V30 36177 C 3738.28 1.02702 1.58423 0
M  V30 36178 O 3737.64 0.0240199 1.82484 0
M  V30 36179 C 3737.69 3.43977 1.11185 0
M  V30 36180 O 3737.41 4.38024 0.0816324 0
M  V30 36181 C 3738.91 4.02827 1.85054 0
M  V30 36182 H 3736.13 0.657673 0.133067 0
M  V30 36183 H 3738.67 2.03069 -0.241493 0
M  V30 36184 H 3736.83 3.42246 1.81511 0
M  V30 36185 H 3737.24 5.21899 0.521718 0
M  V30 36186 H 3738.72 5.05226 2.22376 0
M  V30 36187 H 3739.19 3.43535 2.73643 0
M  V30 36188 H 3739.8 4.08188 1.19427 0
M  V30 36189 N 3738.11 -0.126854 1.57089 0
M  V30 36190 C 3739.35 -0.841998 1.86252 0
M  V30 36191 C 3739.72 -1.7742 0.733899 0
M  V30 36192 O 3740.92 -2.53032 0.907095 0
M  V30 36193 C 3739.19 -1.57891 3.20633 0
M  V30 36194 S 3740.75 -2.33671 3.71407 0
M  V30 36195 H 3737.57 -0.281178 0.653039 0
M  V30 36196 H 3740.17 -0.10079 1.9524 0
M  V30 36197 H 3738.87 -0.885912 4.00724 0
M  V30 36198 H 3738.4 -2.36064 3.14702 0
M  V30 36199 H 3740.42 -3.59247 3.42281 0
M  V30 36200 N 3739.59 -1.52523 -0.396809 0
M  V30 36201 C 3740.54 -1.76745 -1.48424 0
M  V30 36202 C 3741.51 -0.610348 -1.5448 0
M  V30 36203 O 3742.69 -0.849231 -1.70859 0
M  V30 36204 C 3739.83 -1.9351 -2.85741 0
M  V30 36205 C 3738.95 -3.21188 -2.88899 0
M  V30 36206 C 3738.08 -3.28314 -4.17592 0
M  V30 36207 C 3737.12 -4.50146 -4.14771 0
M  V30 36208 N 3736.26 -4.54597 -5.35057 0
M  V30 36209 H 3741.1 -2.6955 -1.27071 0
M  V30 36210 H 3738.64 -1.33554 -0.616587 0
M  V30 36211 H 3740.59 -2.01214 -3.65471 0
M  V30 36212 H 3739.22 -1.04074 -3.05562 0
M  V30 36213 H 3738.28 -3.22594 -2.01587 0
M  V30 36214 H 3739.59 -4.10966 -2.82681 0
M  V30 36215 H 3738.74 -3.35158 -5.05721 0
M  V30 36216 H 3737.48 -2.36497 -4.26521 0
M  V30 36217 H 3736.49 -4.43435 -3.25031 0
M  V30 36218 H 3737.71 -5.43272 -4.07471 0
M  V30 36219 H 3735.66 -3.65667 -5.44631 0
M  V30 36220 H 3735.57 -5.38236 -5.30884 0
M  V30 36221 H 3736.84 -4.65686 -6.25106 0
M  V30 36222 N 3741.07 0.654789 -1.43354 0
M  V30 36223 C 3742.35 1.41193 -1.35366 0
M  V30 36224 C 3742.73 2.111 -0.000698629 0
M  V30 36225 O 3742.08 2.0468 1.01579 0
M  V30 36226 C 3742.29 2.39792 -2.53576 0
M  V30 36227 C 3743.63 3.03839 -2.96593 0
M  V30 36228 O 3744.66 2.50119 -2.53612 0
M  V30 36229 O 3743.52 4.01232 -3.71046 0
M  V30 36230 H 3740.61 0.630746 -0.534872 0
M  V30 36231 H 3743.16 0.681829 -1.554 0
M  V30 36232 H 3741.93 1.87072 -3.43686 0
M  V30 36233 H 3741.55 3.20254 -2.35633 0
M  V30 36234 N 3742.55 1.29858 0.893007 0
M  V30 36235 C 3743.48 1.1812 2.0142 0
M  V30 36236 C 3744.46 0.0737786 1.6994 0
M  V30 36237 O 3745.65 0.254421 1.92526 0
M  V30 36238 C 3742.78 0.863901 3.36384 0
M  V30 36239 C 3741.73 1.92838 3.82096 0
M  V30 36240 C 3741.06 1.46424 5.14261 0
M  V30 36241 C 3742.36 3.33826 4.01693 0
M  V30 36242 H 3744.05 2.11917 2.11498 0
M  V30 36243 H 3741.6 1.02026 1.01621 0
M  V30 36244 H 3743.55 0.76847 4.14334 0
M  V30 36245 H 3742.27 -0.109758 3.26416 0
M  V30 36246 H 3740.93 2.01331 3.06368 0
M  V30 36247 H 3740.58 0.479071 5.00713 0
M  V30 36248 H 3740.28 2.17618 5.45817 0
M  V30 36249 H 3741.8 1.38244 5.94744 0
M  V30 36250 H 3743.22 3.28137 4.70105 0
M  V30 36251 H 3741.61 4.03037 4.44614 0
M  V30 36252 H 3742.68 3.76309 3.05809 0
M  V30 36253 N 3744.03 -1.10427 1.12443 0
M  V30 36254 C 3745.3 -1.78883 0.791223 0
M  V30 36255 C 3745.68 -1.98478 -0.719009 0
M  V30 36256 O 3745.03 -1.57789 -1.65272 0
M  V30 36257 C 3745.24 -3.11874 1.56638 0
M  V30 36258 C 3746.59 -3.86749 1.75243 0
M  V30 36259 O 3747.61 -3.21595 1.5315 0
M  V30 36260 O 3746.47 -5.0369 2.12033 0
M  V30 36261 H 3743.57 -0.775306 0.287801 0
M  V30 36262 H 3746.11 -1.17076 1.22846 0
M  V30 36263 H 3744.89 -2.93032 2.59322 0
M  V30 36264 H 3744.51 -3.814 1.12339 0
M  V30 36265 N 3745.51 -0.916353 -1.28221 0
M  V30 36266 C 3746.42 -0.411922 -2.30955 0
M  V30 36267 C 3747.43 0.501724 -1.6661 0
M  V30 36268 O 3748.61 0.387282 -1.97641 0
M  V30 36269 C 3745.67 0.337497 -3.45053 0
M  V30 36270 C 3744.73 -0.609684 -4.24949 0
M  V30 36271 C 3743.97 0.104065 -5.33599 0
M  V30 36272 O 3744.19 1.32536 -5.54789 0
M  V30 36273 O 3743.12 -0.561956 -5.99271 0
M  V30 36274 H 3746.95 -1.26466 -2.76116 0
M  V30 36275 H 3744.53 -0.68127 -1.32963 0
M  V30 36276 H 3746.42 0.760649 -4.14478 0
M  V30 36277 H 3745.09 1.16602 -3.0197 0
M  V30 36278 H 3744 -1.08229 -3.58102 0
M  V30 36279 H 3745.33 -1.4051 -4.71718 0
M  V30 36280 N 3746.98 1.42146 -0.680615 0
M  V30 36281 C 3748.22 2.03326 -0.209258 0
M  V30 36282 C 3748.59 1.5268 1.16416 0
M  V30 36283 O 3749.79 2.05686 1.73051 0
M  V30 36284 C 3748.06 3.56536 -0.248394 0
M  V30 36285 S 3749.62 4.3854 0.151109 0
M  V30 36286 H 3746.44 0.705839 -0.085508 0
M  V30 36287 H 3749.04 1.73807 -0.895064 0
M  V30 36288 H 3747.74 3.90893 -1.25023 0
M  V30 36289 H 3747.27 3.90736 0.457055 0
M  V30 36290 H 3749.29 4.76539 1.38293 0
M  V30 36291 N 3748.46 0.424336 1.5178 0
M  V30 36292 C 3749.39 -0.429235 2.25145 0
M  V30 36293 C 3750.41 -0.997366 1.28672 0
M  V30 36294 O 3751.6 -0.893719 1.54515 0
M  V30 36295 C 3748.7 -1.61104 2.98159 0
M  V30 36296 C 3747.87 -1.1641 4.21625 0
M  V30 36297 C 3746.93 -2.21454 4.77331 0
M  V30 36298 O 3745.95 -1.8142 5.39514 0
M  V30 36299 N 3747.16 -3.53795 4.60227 0
M  V30 36300 H 3749.92 0.19949 2.99035 0
M  V30 36301 H 3747.48 0.252521 1.59919 0
M  V30 36302 H 3749.47 -2.30972 3.32316 0
M  V30 36303 H 3748.04 -2.14537 2.2736 0
M  V30 36304 H 3747.26 -0.292965 3.9311 0
M  V30 36305 H 3748.55 -0.842678 5.01773 0
M  V30 36306 H 3747.95 -3.89061 4.10668 0
M  V30 36307 H 3746.51 -4.19596 4.98781 0
M  V30 36308 N 3749.94 -1.56833 0.15525 0
M  V30 36309 C 3751.17 -2.00755 -0.500506 0
M  V30 36310 C 3751.58 -1.0354 -1.57876 0
M  V30 36311 O 3750.94 -0.0336971 -1.82469 0
M  V30 36312 C 3750.99 -3.44562 -1.09359 0
M  V30 36313 O 3750.71 -4.38061 -0.0584018 0
M  V30 36314 C 3752.21 -4.03803 -1.82916 0
M  V30 36315 H 3749.43 -0.65837 -0.129577 0
M  V30 36316 H 3751.98 -2.02938 0.252259 0
M  V30 36317 H 3750.13 -3.43204 -1.79694 0
M  V30 36318 H 3750.55 -5.22168 -0.494033 0
M  V30 36319 H 3752.02 -5.06398 -2.19694 0
M  V30 36320 H 3752.5 -3.44981 -2.71817 0
M  V30 36321 H 3753.1 -4.08815 -1.17261 0
M  V30 36322 N 3751.42 0.118521 -1.57154 0
M  V30 36323 C 3752.36 1.14535 -2.00376 0
M  V30 36324 C 3753.33 1.41123 -0.875989 0
M  V30 36325 O 3754.52 1.5298 -1.14025 0
M  V30 36326 C 3751.66 2.46662 -2.41354 0
M  V30 36327 C 3750.77 2.27006 -3.67549 0
M  V30 36328 C 3749.91 3.52367 -3.97506 0
M  V30 36329 C 3748.95 3.2787 -5.16883 0
M  V30 36330 N 3748.08 4.45435 -5.42708 0
M  V30 36331 H 3752.92 0.769771 -2.87886 0
M  V30 36332 H 3750.46 0.368597 -1.42407 0
M  V30 36333 H 3752.42 3.23741 -2.6315 0
M  V30 36334 H 3751.05 2.82112 -1.56885 0
M  V30 36335 H 3750.1 1.40842 -3.53366 0
M  V30 36336 H 3751.41 2.04881 -4.5478 0
M  V30 36337 H 3750.57 4.37864 -4.19953 0
M  V30 36338 H 3749.31 3.77523 -3.08752 0
M  V30 36339 H 3748.31 2.40764 -4.9428 0
M  V30 36340 H 3749.54 3.04084 -6.07215 0
M  V30 36341 H 3747.48 4.70711 -4.5691 0
M  V30 36342 H 3747.4 4.26417 -6.24263 0
M  V30 36343 H 3748.67 5.32064 -5.69674 0
M  V30 36344 N 3752.9 1.52731 0.388715 0
M  V30 36345 C 3753.83 1.73784 1.49438 0
M  V30 36346 C 3754.84 0.618311 1.50601 0
M  V30 36347 O 3756.03 0.894013 1.54498 0
M  V30 36348 C 3753.13 1.78171 2.88285 0
M  V30 36349 C 3752.3 3.07483 3.11083 0
M  V30 36350 C 3751.36 3.03414 4.29914 0
M  V30 36351 O 3750.39 3.77277 4.26205 0
M  V30 36352 N 3751.59 2.22619 5.36117 0
M  V30 36353 H 3754.35 2.6918 1.31766 0
M  V30 36354 H 3751.92 1.51222 0.578231 0
M  V30 36355 H 3753.91 1.72955 3.65881 0
M  V30 36356 H 3752.48 0.901606 2.99316 0
M  V30 36357 H 3751.7 3.26187 2.2135 0
M  V30 36358 H 3752.99 3.92986 3.23171 0
M  V30 36359 H 3752.38 1.62076 5.41985 0
M  V30 36360 H 3750.94 2.23242 6.12377 0
M  V30 36361 N 3754.37 -0.647178 1.43699 0
M  V30 36362 C 3755.32 -1.75315 1.45769 0
M  V30 36363 C 3756.31 -1.57576 0.325388 0
M  V30 36364 O 3757.5 -1.67585 0.569593 0
M  V30 36365 C 3754.63 -3.13933 1.38928 0
M  V30 36366 C 3753.71 -3.37199 2.57211 0
M  V30 36367 N 3754.11 -3.30909 3.82535 0
M  V30 36368 C 3752.4 -3.6794 2.52064 0
M  V30 36369 C 3753.1 -3.54423 4.61259 0
M  V30 36370 N 3752.08 -3.76527 3.92082 0
M  V30 36371 H 3755.88 -1.68886 2.4053 0
M  V30 36372 H 3753.4 -0.849068 1.38436 0
M  V30 36373 H 3755.39 -3.93224 1.38494 0
M  V30 36374 H 3754.05 -3.2154 0.45192 0
M  V30 36375 H 3755.06 -3.10185 4.14736 0
M  V30 36376 H 3751.74 -3.82625 1.67045 0
M  V30 36377 H 3753.13 -3.55287 5.70281 0
M  V30 36378 N 3755.85 -1.3033 -0.886108 0
M  V30 36379 C 3756.8 -1.1652 -2.0131 0
M  V30 36380 C 3757.79 -0.0773729 -1.69223 0
M  V30 36381 O 3759 -0.238143 -1.78418 0
M  V30 36382 H 3755.38 -0.360324 -0.660054 0
M  V30 36383 H 3757.35 -2.11904 -2.10093 0
M  V30 36384 C 3756.1 -0.872651 -3.36571 0
M  V30 36385 H 3755.42 -1.70179 -3.61772 0
M  V30 36386 H 3756.86 -0.816123 -4.16071 0
M  V30 36387 C 3755.32 0.424406 -3.34216 0
M  V30 36388 O 3755.85 1.44628 -3.74761 0
M  V30 36389 N 3754.05 0.435156 -2.87323 0
M  V30 36390 H 3753.6 -0.396896 -2.54524 0
M  V30 36391 H 3753.56 1.30295 -2.8613 0
M  V30 36392 N 3757.33 1.0983 -1.13028 0
M  V30 36393 C 3758.57 1.83537 -0.899632 0
M  V30 36394 C 3758.93 1.83523 0.564194 0
M  V30 36395 O 3760.14 2.52847 0.912242 0
M  V30 36396 C 3758.41 3.25936 -1.46629 0
M  V30 36397 S 3759.97 4.16697 -1.3751 0
M  V30 36398 H 3756.78 0.632694 -0.324375 0
M  V30 36399 H 3759.39 1.32119 -1.441 0
M  V30 36400 H 3758.09 3.2352 -2.52513 0
M  V30 36401 H 3757.62 3.82427 -0.922686 0
M  V30 36402 H 3759.64 4.94959 -0.350753 0
M  V30 36403 N 3758.81 0.92314 1.27734 0
M  V30 36404 C 3759.74 0.376021 2.26094 0
M  V30 36405 C 3760.75 -0.490735 1.55228 0
M  V30 36406 O 3761.94 -0.304096 1.75891 0
M  V30 36407 C 3759.04 -0.480283 3.3548 0
M  V30 36408 C 3758.22 0.366126 4.35865 0
M  V30 36409 C 3757.27 -0.426788 5.24466 0
M  V30 36410 O 3756.3 0.163925 5.68964 0
M  V30 36411 N 3757.5 -1.72767 5.54195 0
M  V30 36412 H 3760.27 1.22152 2.73677 0
M  V30 36413 H 3757.83 0.790081 1.41313 0
M  V30 36414 H 3759.82 -1.01769 3.91695 0
M  V30 36415 H 3758.39 -1.22652 2.87533 0
M  V30 36416 H 3757.61 1.08486 3.78978 0
M  V30 36417 H 3758.9 0.944937 4.99948 0
M  V30 36418 H 3758.3 -2.22999 5.19892 0
M  V30 36419 H 3756.85 -2.21171 6.13129 0
M  V30 36420 N 3760.29 -1.41783 0.688143 0
M  V30 36421 C 3761.53 -2.01345 0.215979 0
M  V30 36422 C 3761.86 -1.54468 -1.18194 0
M  V30 36423 O 3761.12 -0.743406 -1.8103 0
M  V30 36424 C 3761.42 -3.5676 0.21381 0
M  V30 36425 C 3761.08 -4.23119 1.55823 0
M  V30 36426 C 3759.74 -4.40961 1.92631 0
M  V30 36427 C 3762.1 -4.60396 2.44305 0
M  V30 36428 C 3759.42 -4.93354 3.1752 0
M  V30 36429 C 3761.78 -5.14175 3.6852 0
M  V30 36430 C 3760.44 -5.30229 4.0548 0
M  V30 36431 H 3759.71 -0.736773 0.0790323 0
M  V30 36432 H 3762.36 -1.69783 0.885767 0
M  V30 36433 H 3760.66 -3.88068 -0.539515 0
M  V30 36434 H 3762.36 -4.00644 -0.168933 0
M  V30 36435 H 3758.95 -4.09601 1.26193 0
M  V30 36436 H 3763.13 -4.46273 2.1715 0
M  V30 36437 H 3758.39 -5.03967 3.4616 0
M  V30 36438 H 3762.56 -5.42001 4.37274 0
M  V30 36439 H 3760.19 -5.7059 5.02326 0
M  V30 36440 N 3761.76 -0.432379 -1.51553 0
M  V30 36441 C 3762.69 0.372202 -2.30514 0
M  V30 36442 C 3763.68 1.02547 -1.35713 0
M  V30 36443 O 3764.86 1.03006 -1.64631 0
M  V30 36444 C 3761.99 1.47641 -3.14356 0
M  V30 36445 C 3760.94 0.9469 -4.17394 0
M  V30 36446 C 3760.27 2.14648 -4.89725 0
M  V30 36447 C 3761.57 -0.0152295 -5.22298 0
M  V30 36448 H 3763.26 -0.286732 -2.98024 0
M  V30 36449 H 3760.81 -0.13934 -1.43324 0
M  V30 36450 H 3762.76 2.04645 -3.68373 0
M  V30 36451 H 3761.49 2.16356 -2.44658 0
M  V30 36452 H 3760.15 0.39911 -3.64421 0
M  V30 36453 H 3759.79 2.81971 -4.16535 0
M  V30 36454 H 3759.49 1.79859 -5.59397 0
M  V30 36455 H 3761.02 2.72214 -5.46564 0
M  V30 36456 H 3762.43 0.464346 -5.71416 0
M  V30 36457 H 3760.83 -0.275444 -5.99468 0
M  V30 36458 H 3761.9 -0.953441 -4.75434 0
M  V30 36459 N 3763.24 1.56749 -0.163565 0
M  V30 36460 C 3764.48 1.9854 0.485919 0
M  V30 36461 C 3764.85 1.04701 1.6094 0
M  V30 36462 O 3766.05 1.35602 2.3209 0
M  V30 36463 C 3764.32 3.44161 0.963723 0
M  V30 36464 S 3765.88 4.0798 1.61548 0
M  V30 36465 H 3762.7 0.693547 0.156568 0
M  V30 36466 H 3765.3 1.93774 -0.259195 0
M  V30 36467 H 3764 4.10176 0.135522 0
M  V30 36468 H 3763.53 3.52677 1.74306 0
M  V30 36469 H 3765.55 4.02392 2.90336 0
M  V30 36470 N 3764.72 -0.110185 1.57214 0
M  V30 36471 C 3765.97 -0.817616 1.85588 0
M  V30 36472 C 3766.3 -1.79109 0.750567 0
M  V30 36473 O 3765.57 -1.92978 -0.24283 0
M  V30 36474 C 3765.86 -1.55973 3.24568 0
M  V30 36475 C 3765.71 -0.60526 4.45709 0
M  V30 36476 C 3767.03 -2.51387 3.61238 0
M  V30 36477 H 3764.15 -0.295782 0.675042 0
M  V30 36478 H 3766.79 -0.0816207 1.89825 0
M  V30 36479 H 3764.94 -2.18713 3.21087 0
M  V30 36480 H 3766.61 0.0139705 4.61298 0
M  V30 36481 H 3764.86 0.0825407 4.33721 0
M  V30 36482 H 3765.53 -1.16134 5.39645 0
M  V30 36483 H 3768 -1.98748 3.65566 0
M  V30 36484 H 3766.88 -3.00338 4.59443 0
M  V30 36485 H 3767.14 -3.34456 2.89122 0
M  V30 36486 N 3766.2 -1.52935 -0.38061 0
M  V30 36487 C 3767.15 -1.78959 -1.48581 0
M  V30 36488 C 3768.14 -0.657929 -1.56101 0
M  V30 36489 O 3769.35 -0.840578 -1.59167 0
M  V30 36490 H 3765.72 -0.56639 -0.494678 0
M  V30 36491 H 3767.69 -2.71494 -1.23828 0
M  V30 36492 C 3766.44 -1.98296 -2.85611 0
M  V30 36493 H 3765.76 -2.84809 -2.80578 0
M  V30 36494 H 3767.2 -2.20491 -3.6216 0
M  V30 36495 C 3765.66 -0.757822 -3.28266 0
M  V30 36496 O 3766.19 0.0607301 -4.01654 0
M  V30 36497 N 3764.4 -0.585536 -2.8464 0
M  V30 36498 H 3763.95 -1.25278 -2.25085 0
M  V30 36499 H 3763.9 0.232816 -3.13537 0
M  V30 36500 N 3767.68 0.639548 -1.4404 0
M  V30 36501 C 3768.9 1.42667 -1.49846 0
M  V30 36502 C 3769.32 1.88414 -0.120632 0
M  V30 36503 O 3768.68 1.60328 0.871847 0
M  V30 36504 C 3768.73 2.65259 -2.45601 0
M  V30 36505 O 3768.45 2.21421 -3.78027 0
M  V30 36506 C 3769.95 3.58476 -2.60787 0
M  V30 36507 H 3767.17 0.437817 -0.508485 0
M  V30 36508 H 3769.71 0.782889 -1.88921 0
M  V30 36509 H 3767.87 3.25747 -2.09685 0
M  V30 36510 H 3768.28 3.00838 -4.29647 0
M  V30 36511 H 3769.76 4.41124 -3.31834 0
M  V30 36512 H 3770.23 4.0673 -1.65734 0
M  V30 36513 H 3770.84 3.03862 -2.9757 0
M  V30 36514 N 3769.15 1.30798 0.879184 0
M  V30 36515 C 3770.08 1.2025 2.00156 0
M  V30 36516 C 3771.07 0.0917989 1.69852 0
M  V30 36517 O 3772.25 0.274826 1.92246 0
M  V30 36518 C 3769.38 0.899531 3.35449 0
M  V30 36519 C 3768.33 1.96879 3.8003 0
M  V30 36520 C 3767.66 1.5187 5.12679 0
M  V30 36521 C 3768.96 3.38068 3.9813 0
M  V30 36522 H 3770.65 2.14148 2.09239 0
M  V30 36523 H 3768.2 1.03098 1.00533 0
M  V30 36524 H 3770.15 0.812372 4.13495 0
M  V30 36525 H 3768.88 -0.0751316 3.26514 0
M  V30 36526 H 3767.54 2.04569 3.04216 0
M  V30 36527 H 3767.18 0.532151 5.00177 0
M  V30 36528 H 3766.88 2.23395 5.43478 0
M  V30 36529 H 3768.41 1.44544 5.93245 0
M  V30 36530 H 3769.82 3.33105 4.66599 0
M  V30 36531 H 3768.22 4.0773 4.40314 0
M  V30 36532 H 3769.29 3.79532 3.01801 0
M  V30 36533 N 3770.63 -1.09229 1.13608 0
M  V30 36534 C 3771.88 -1.81088 0.89731 0
M  V30 36535 C 3772.2 -1.86236 -0.578034 0
M  V30 36536 O 3771.47 -1.34938 -1.42016 0
M  V30 36537 H 3770.05 -0.670656 0.328983 0
M  V30 36538 H 3772.71 -1.321 1.43302 0
M  V30 36539 H 3771.81 -2.842 1.28984 0
M  V30 36540 N 3772.11 -0.929901 -1.27242 0
M  V30 36541 C 3773.36 -0.570365 -1.93885 0
M  V30 36542 C 3773.68 0.891625 -1.73422 0
M  V30 36543 O 3772.95 1.63226 -1.08323 0
M  V30 36544 H 3771.53 -0.207949 -0.717472 0
M  V30 36545 H 3774.19 -1.18277 -1.54908 0
M  V30 36546 H 3773.29 -0.778516 -3.02234 0
M  V30 36547 N 3773.59 1.41416 -0.695653 0
M  V30 36548 C 3774.84 2.01228 -0.226654 0
M  V30 36549 C 3775.16 1.55093 1.17374 0
M  V30 36550 O 3774.42 0.752996 1.80634 0
M  V30 36551 C 3774.72 3.56641 -0.232727 0
M  V30 36552 C 3774.38 4.22287 -1.58065 0
M  V30 36553 C 3773.05 4.39933 -1.94967 0
M  V30 36554 C 3775.4 4.59094 -2.46743 0
M  V30 36555 C 3772.73 4.91663 -3.20132 0
M  V30 36556 C 3775.08 5.12214 -3.71241 0
M  V30 36557 C 3773.74 5.28071 -4.08286 0
M  V30 36558 H 3773.01 0.736344 -0.0829385 0
M  V30 36559 H 3775.66 1.69311 -0.894758 0
M  V30 36560 H 3773.96 3.88348 0.518927 0
M  V30 36561 H 3775.66 4.00728 0.147684 0
M  V30 36562 H 3772.25 4.08926 -1.28363 0
M  V30 36563 H 3776.44 4.45115 -2.19514 0
M  V30 36564 H 3771.69 5.02125 -3.48828 0
M  V30 36565 H 3775.87 5.39674 -4.40142 0
M  V30 36566 H 3773.49 5.67918 -5.05345 0
M  V30 36567 N 3775.07 0.44041 1.51321 0
M  V30 36568 C 3776.3 -0.123613 2.0653 0
M  V30 36569 C 3776.71 -1.36195 1.30753 0
M  V30 36570 O 3776.07 -1.78752 0.367963 0
M  V30 36571 C 3776.12 -0.442739 3.58779 0
M  V30 36572 O 3775.84 0.746451 4.31694 0
M  V30 36573 C 3777.34 -1.0571 4.30512 0
M  V30 36574 H 3774.56 -0.00656287 0.670968 0
M  V30 36575 H 3777.1 0.620376 1.94863 0
M  V30 36576 H 3775.26 -1.13663 3.7035 0
M  V30 36577 H 3775.67 0.472558 5.22367 0
M  V30 36578 H 3777.15 -1.23037 5.38113 0
M  V30 36579 H 3777.62 -2.03896 3.89003 0
M  V30 36580 H 3778.23 -0.4025 4.23391 0
M  V30 36581 N 3776.55 -1.5666 0.171876 0
M  V30 36582 C 3777.79 -1.98795 -0.475384 0
M  V30 36583 C 3778.15 -1.05553 -1.60382 0
M  V30 36584 O 3779.35 -1.36831 -2.31367 0
M  V30 36585 C 3777.62 -3.44668 -0.945458 0
M  V30 36586 S 3779.18 -4.08831 -1.59382 0
M  V30 36587 H 3776 -0.694368 -0.152888 0
M  V30 36588 H 3778.6 -1.93634 0.269468 0
M  V30 36589 H 3777.3 -4.10242 -0.113767 0
M  V30 36590 H 3776.84 -3.53596 -1.72434 0
M  V30 36591 H 3778.85 -4.03926 -2.88198 0
M  V30 36592 N 3778.02 0.101846 -1.57271 0
M  V30 36593 C 3778.97 1.12403 -2.01579 0
M  V30 36594 C 3779.94 1.40186 -0.890908 0
M  V30 36595 O 3781.13 1.51762 -1.15641 0
M  V30 36596 C 3778.27 2.44088 -2.43957 0
M  V30 36597 C 3777.38 2.23095 -3.69936 0
M  V30 36598 C 3776.51 3.48131 -4.01221 0
M  V30 36599 C 3775.55 3.22369 -5.20331 0
M  V30 36600 N 3774.69 4.39654 -5.47402 0
M  V30 36601 H 3779.53 0.739193 -2.88687 0
M  V30 36602 H 3777.07 0.353472 -1.4279 0
M  V30 36603 H 3779.02 3.20932 -2.66569 0
M  V30 36604 H 3777.65 2.80432 -1.59868 0
M  V30 36605 H 3776.71 1.37086 -3.5484 0
M  V30 36606 H 3778.02 2.00046 -4.56928 0
M  V30 36607 H 3777.17 4.33385 -4.24573 0
M  V30 36608 H 3775.91 3.74227 -3.12738 0
M  V30 36609 H 3774.92 2.35508 -4.96806 0
M  V30 36610 H 3776.14 2.97626 -6.10406 0
M  V30 36611 H 3774.09 4.65839 -4.61877 0
M  V30 36612 H 3774 4.19772 -6.28751 0
M  V30 36613 H 3775.27 5.25992 -5.75285 0
M  V30 36614 N 3779.5 1.53135 0.372494 0
M  V30 36615 C 3780.74 1.7068 1.12462 0
M  V30 36616 C 3781.11 0.445536 1.86759 0
M  V30 36617 O 3782.31 0.497577 2.64155 0
M  V30 36618 C 3780.58 2.91789 2.06384 0
M  V30 36619 S 3782.14 3.30005 2.8921 0
M  V30 36620 H 3778.95 0.60065 0.380448 0
M  V30 36621 H 3781.56 1.91221 0.406797 0
M  V30 36622 H 3780.26 3.81788 1.50552 0
M  V30 36623 H 3779.79 2.73629 2.82649 0
M  V30 36624 H 3781.81 2.81478 4.08637 0
M  V30 36625 N 3780.98 -0.6319 1.44377 0
M  V30 36626 C 3782.39 -1.21351 1.41883 0
M  V30 36627 C 3782.74 -1.95743 0.133784 0
M  V30 36628 O 3781.87 -2.02394 -0.765883 0
M  V30 36629 C 3782.46 -2.20727 2.57031 0
M  V30 36630 C 3781.02 -2.74317 2.57734 0
M  V30 36631 C 3780.17 -1.49303 2.33675 0
M  V30 36632 H 3783.12 -0.422623 1.52969 0
M  V30 36633 H 3783.14 -3.03315 2.2974 0
M  V30 36634 H 3782.65 -1.66555 3.50544 0
M  V30 36635 H 3780.75 -3.32495 1.68161 0
M  V30 36636 H 3780.87 -3.20409 3.56195 0
M  V30 36637 H 3779.23 -1.77407 1.82753 0
M  V30 36638 H 3780.01 -0.970337 3.29301 0
M  V30 36639 N 3782.46 -1.31262 -0.872235 0
M  V30 36640 C 3783.87 -1.1874 -1.44075 0
M  V30 36641 C 3784.22 0.207003 -1.95105 0
M  V30 36642 O 3783.34 1.1046 -1.86085 0
M  V30 36643 C 3783.94 -2.14952 -2.6188 0
M  V30 36644 C 3782.5 -2.0637 -3.14783 0
M  V30 36645 C 3781.65 -2.04309 -1.87491 0
M  V30 36646 H 3784.6 -1.43347 -0.680986 0
M  V30 36647 H 3784.62 -1.73779 -3.38498 0
M  V30 36648 H 3784.13 -3.16429 -2.24709 0
M  V30 36649 H 3782.23 -1.08079 -3.56581 0
M  V30 36650 H 3782.34 -2.95368 -3.7722 0
M  V30 36651 H 3780.71 -1.49292 -2.06359 0
M  V30 36652 H 3781.49 -3.07539 -1.52561 0
M  V30 36653 N 3783.94 1.08625 -1.14186 0
M  V30 36654 C 3785.18 1.80609 -0.906901 0
M  V30 36655 C 3785.5 1.8654 0.568149 0
M  V30 36656 O 3784.77 1.35689 1.41298 0
M  V30 36657 H 3783.35 0.668902 -0.332535 0
M  V30 36658 H 3786.02 1.31339 -1.44001 0
M  V30 36659 H 3785.11 2.83512 -1.30489 0
M  V30 36660 N 3785.41 0.936635 1.26747 0
M  V30 36661 C 3786.66 0.581788 1.93963 0
M  V30 36662 C 3786.99 -0.878418 1.73534 0
M  V30 36663 O 3786.24 -1.64314 1.06298 0
M  V30 36664 C 3786.54 0.86485 3.46778 0
M  V30 36665 C 3786.21 2.30821 3.8734 0
M  V30 36666 C 3784.87 2.70278 3.98124 0
M  V30 36667 C 3787.22 3.24641 4.07747 0
M  V30 36668 C 3784.55 4.02661 4.2671 0
M  V30 36669 C 3786.9 4.56615 4.37819 0
M  V30 36670 C 3785.57 4.95894 4.46817 0
M  V30 36671 H 3784.84 0.212891 0.709759 0
M  V30 36672 H 3787.48 1.18229 1.50646 0
M  V30 36673 H 3785.79 0.181768 3.91378 0
M  V30 36674 H 3787.49 0.569135 3.96941 0
M  V30 36675 H 3784.08 1.99214 3.79489 0
M  V30 36676 H 3788.26 2.95356 3.98847 0
M  V30 36677 H 3783.52 4.32762 4.31888 0
M  V30 36678 H 3787.69 5.29308 4.52555 0
M  V30 36679 H 3785.32 5.98502 4.68721 0
M  V30 36680 N 3786.89 -1.41045 0.703143 0
M  V30 36681 C 3788.12 -2.05425 0.246588 0
M  V30 36682 C 3788.54 -1.5294 -1.10701 0
M  V30 36683 O 3787.89 -0.680762 -1.69328 0
M  V30 36684 C 3787.94 -3.60924 0.204016 0
M  V30 36685 O 3787.66 -4.11469 1.50415 0
M  V30 36686 C 3789.17 -4.42461 -0.272608 0
M  V30 36687 H 3786.39 -0.661388 0.113168 0
M  V30 36688 H 3788.93 -1.8068 0.957855 0
M  V30 36689 H 3787.08 -3.84682 -0.458126 0
M  V30 36690 H 3787.5 -5.05572 1.39631 0
M  V30 36691 H 3788.97 -5.51428 -0.251261 0
M  V30 36692 H 3789.45 -4.19122 -1.31274 0
M  V30 36693 H 3790.06 -4.23784 0.358807 0
M  V30 36694 N 3788.37 -0.448429 -1.51086 0
M  V30 36695 C 3789.3 0.393362 -2.25799 0
M  V30 36696 C 3790.32 0.976769 -1.30242 0
M  V30 36697 O 3791.5 0.869024 -1.55917 0
M  V30 36698 C 3788.6 1.5634 -3.00684 0
M  V30 36699 C 3787.78 1.09688 -4.23423 0
M  V30 36700 C 3786.84 2.13832 -4.80793 0
M  V30 36701 O 3785.86 1.72814 -5.42332 0
M  V30 36702 N 3787.06 3.46429 -4.65798 0
M  V30 36703 H 3789.83 -0.247039 -2.9868 0
M  V30 36704 H 3787.39 -0.27793 -1.59497 0
M  V30 36705 H 3789.38 2.25656 -3.35949 0
M  V30 36706 H 3787.95 2.10893 -2.30745 0
M  V30 36707 H 3787.17 0.230387 -3.93526 0
M  V30 36708 H 3788.46 0.762744 -5.0305 0
M  V30 36709 H 3787.86 3.82479 -4.16805 0
M  V30 36710 H 3786.42 4.11607 -5.05394 0
M  V30 36711 N 3789.85 1.56567 -0.180181 0
M  V30 36712 C 3790.8 2.14992 0.759107 0
M  V30 36713 C 3791.78 1.08656 1.1867 0
M  V30 36714 O 3792.97 1.34757 1.14759 0
M  V30 36715 C 3790.1 2.80117 1.98468 0
M  V30 36716 C 3789.19 3.93623 1.57867 0
M  V30 36717 N 3789.58 4.98038 0.882737 0
M  V30 36718 C 3787.88 4.04947 1.86905 0
M  V30 36719 C 3788.58 5.77694 0.681471 0
M  V30 36720 N 3787.56 5.29603 1.22563 0
M  V30 36721 H 3791.36 2.93086 0.218522 0
M  V30 36722 H 3788.87 1.62387 0.0201717 0
M  V30 36723 H 3790.87 3.20356 2.66791 0
M  V30 36724 H 3789.53 2.03506 2.53013 0
M  V30 36725 H 3790.54 5.15079 0.539816 0
M  V30 36726 H 3787.22 3.39449 2.43065 0
M  V30 36727 H 3788.61 6.71773 0.130483 0
M  V30 36728 N 3791.33 -0.0935042 1.57322 0
M  V30 36729 C 3792.28 -1.11973 1.9861 0
M  V30 36730 C 3793.26 -1.35684 0.864786 0
M  V30 36731 O 3794.45 -1.36349 1.12862 0
M  V30 36732 C 3791.58 -2.43952 2.41541 0
M  V30 36733 C 3790.67 -2.23608 3.60361 0
M  V30 36734 N 3791.06 -1.73136 4.75245 0
M  V30 36735 C 3789.36 -2.54168 3.66489 0
M  V30 36736 C 3790.06 -1.67099 5.57183 0
M  V30 36737 N 3789.03 -2.12371 5.00399 0
M  V30 36738 H 3792.84 -0.722463 2.84882 0
M  V30 36739 H 3790.35 -0.300908 1.59588 0
M  V30 36740 H 3792.35 -3.18209 2.69349 0
M  V30 36741 H 3791.01 -2.84415 1.56646 0
M  V30 36742 H 3792.02 -1.42311 4.97964 0
M  V30 36743 H 3788.69 -2.98145 2.9226 0
M  V30 36744 H 3790.08 -1.29114 6.59378 0
M  V30 36745 N 3792.8 -1.5333 -0.364368 0
M  V30 36746 C 3794.03 -1.73481 -1.12747 0
M  V30 36747 C 3794.45 -0.464332 -1.83001 0
M  V30 36748 O 3793.8 0.562833 -1.73604 0
M  V30 36749 C 3793.86 -2.90107 -2.15686 0
M  V30 36750 O 3793.58 -4.12239 -1.48291 0
M  V30 36751 C 3795.08 -3.22141 -3.04533 0
M  V30 36752 H 3792.3 -0.580192 -0.337073 0
M  V30 36753 H 3794.84 -2.00079 -0.422917 0
M  V30 36754 H 3793 -2.659 -2.81737 0
M  V30 36755 H 3793.41 -4.77556 -2.16887 0
M  V30 36756 H 3794.88 -4.07147 -3.7274 0
M  V30 36757 H 3795.36 -2.37556 -3.6941 0
M  V30 36758 H 3795.97 -3.48277 -2.44097 0
M  V30 36759 N 3794.28 0.624234 -1.4471 0
M  V30 36760 C 3795.25 1.71777 -1.51741 0
M  V30 36761 C 3796.25 1.55779 -0.398673 0
M  V30 36762 O 3797.44 1.61149 -0.661553 0
M  V30 36763 C 3794.57 3.10917 -1.39797 0
M  V30 36764 H 3795.76 1.66916 -2.49157 0
M  V30 36765 H 3793.31 0.838507 -1.31904 0
M  V30 36766 H 3794.05 3.21369 -0.435011 0
M  V30 36767 H 3793.83 3.23936 -2.20925 0
M  V30 36768 H 3795.32 3.90603 -1.47713 0
M  V30 36769 N 3795.76 1.31723 0.865262 0
M  V30 36770 C 3797 1.22983 1.63262 0
M  V30 36771 C 3797.36 -0.20772 1.90873 0
M  V30 36772 O 3798.57 -0.41869 2.65519 0
M  V30 36773 C 3796.84 2.05504 2.92409 0
M  V30 36774 S 3798.4 2.13676 3.8326 0
M  V30 36775 H 3795.21 0.437946 0.560111 0
M  V30 36776 H 3797.82 1.66444 1.02551 0
M  V30 36777 H 3796.52 3.09029 2.70054 0
M  V30 36778 H 3796.05 1.6278 3.58143 0
M  V30 36779 H 3798.07 1.27851 4.79446 0
M  V30 36780 N 3797.24 -1.08018 1.14761 0
M  V30 36781 C 3798.49 -1.79861 0.912854 0
M  V30 36782 C 3798.8 -1.87357 -0.56184 0
M  V30 36783 O 3800.01 -2.55654 -0.91397 0
M  V30 36784 C 3798.46 -3.2318 1.58375 0
M  V30 36785 C 3798.07 -3.23905 3.09498 0
M  V30 36786 C 3799.81 -3.99679 1.43028 0
M  V30 36787 C 3797.72 -4.61837 3.69406 0
M  V30 36788 H 3796.65 -0.674058 0.337879 0
M  V30 36789 H 3799.3 -1.21292 1.37697 0
M  V30 36790 H 3797.68 -3.819 1.04731 0
M  V30 36791 H 3798.86 -2.7487 3.69842 0
M  V30 36792 H 3797.17 -2.60902 3.24529 0
M  V30 36793 H 3799.77 -5.01609 1.85183 0
M  V30 36794 H 3800.11 -4.1459 0.376887 0
M  V30 36795 H 3800.65 -3.47438 1.9373 0
M  V30 36796 H 3797.39 -4.52129 4.74615 0
M  V30 36797 H 3796.91 -5.11138 3.13844 0
M  V30 36798 H 3798.58 -5.3081 3.69933 0
M  V30 36799 N 3798.72 -0.943344 -1.26249 0
M  V30 36800 C 3799.99 -0.509865 -1.88838 0
M  V30 36801 C 3800.37 1.0126 -1.85229 0
M  V30 36802 O 3799.72 1.87354 -1.30808 0
M  V30 36803 C 3799.93 -1.07367 -3.32074 0
M  V30 36804 C 3801.28 -1.14364 -4.08908 0
M  V30 36805 O 3802.3 -1.02441 -3.41151 0
M  V30 36806 O 3801.16 -1.32935 -5.30085 0
M  V30 36807 H 3798.26 -0.166498 -0.810066 0
M  V30 36808 H 3800.8 -1.03605 -1.34403 0
M  V30 36809 H 3799.57 -2.11722 -3.29074 0
M  V30 36810 H 3799.2 -0.53006 -3.94051 0
M  V30 36811 N 3800.2 1.4067 -0.710613 0
M  V30 36812 C 3801.14 2.32559 -0.0436549 0
M  V30 36813 C 3802.14 1.51774 0.752398 0
M  V30 36814 O 3803.34 1.67608 0.656326 0
M  V30 36815 H 3799.72 0.751985 0.00468544 0
M  V30 36816 H 3801.69 2.86466 -0.835449 0
M  V30 36817 C 3800.44 3.36698 0.867736 0
M  V30 36818 H 3799.76 3.98923 0.264597 0
M  V30 36819 H 3801.2 4.035 1.30245 0
M  V30 36820 C 3799.66 2.71781 1.9909 0
M  V30 36821 O 3800.19 2.57726 3.08124 0
M  V30 36822 N 3798.4 2.30242 1.77305 0
M  V30 36823 H 3797.94 2.41874 0.886282 0
M  V30 36824 H 3797.9 1.87144 2.52635 0
M  V30 36825 N 3801.67 0.456435 1.50846 0
M  V30 36826 C 3802.62 -0.359489 2.29805 0
M  V30 36827 C 3803.62 -1.00372 1.36462 0
M  V30 36828 O 3804.82 -0.936497 1.5372 0
M  V30 36829 H 3801.2 -0.134759 0.739827 0
M  V30 36830 H 3803.17 0.327061 2.96602 0
M  V30 36831 C 3801.92 -1.43736 3.166 0
M  V30 36832 H 3801.24 -0.951012 3.88324 0
M  V30 36833 H 3802.68 -1.98113 3.7487 0
M  V30 36834 C 3801.14 -2.43122 2.33224 0
M  V30 36835 O 3801.67 -3.48078 2.0051 0
M  V30 36836 N 3799.87 -2.14477 1.96082 0
M  V30 36837 H 3799.42 -1.29151 2.22885 0
M  V30 36838 H 3799.38 -2.81212 1.40597 0
M  V30 36839 N 3803.15 -1.56469 0.188482 0
M  V30 36840 C 3804.06 -2.22385 -0.747137 0
M  V30 36841 C 3805.08 -1.22083 -1.23983 0
M  V30 36842 O 3806.25 -1.548 -1.28837 0
M  V30 36843 C 3803.32 -2.86512 -1.95223 0
M  V30 36844 C 3802.38 -4.02064 -1.50475 0
M  V30 36845 C 3801.61 -4.63124 -2.6524 0
M  V30 36846 O 3801.84 -4.23095 -3.82553 0
M  V30 36847 O 3800.77 -5.52704 -2.38331 0
M  V30 36848 H 3804.6 -3.02932 -0.215803 0
M  V30 36849 H 3802.18 -1.49345 -0.0405094 0
M  V30 36850 H 3804.06 -3.27107 -2.65667 0
M  V30 36851 H 3802.74 -2.08948 -2.47229 0
M  V30 36852 H 3801.64 -3.66105 -0.769301 0
M  V30 36853 H 3802.98 -4.81272 -1.03142 0
M  V30 36854 N 3804.63 0.0851597 -1.5737 0
M  V30 36855 C 3805.87 0.79232 -1.88419 0
M  V30 36856 C 3806.23 1.75412 -0.780681 0
M  V30 36857 O 3807.43 2.50538 -0.973863 0
M  V30 36858 C 3805.71 1.49334 -3.24706 0
M  V30 36859 S 3807.26 2.23742 -3.77472 0
M  V30 36860 H 3804.08 0.263765 -0.660264 0
M  V30 36861 H 3806.68 0.0489905 -1.95439 0
M  V30 36862 H 3805.39 0.779355 -4.02932 0
M  V30 36863 H 3804.92 2.27637 -3.2085 0
M  V30 36864 H 3806.93 3.50046 -3.51685 0
M  V30 36865 N 3806.11 1.53521 0.356231 0
M  V30 36866 C 3807.36 1.6982 1.09571 0
M  V30 36867 C 3807.68 0.457439 1.89559 0
M  V30 36868 O 3806.95 -0.528583 1.88634 0
M  V30 36869 H 3805.53 0.626061 0.407501 0
M  V30 36870 H 3808.19 1.90739 0.400578 0
M  V30 36871 H 3807.28 2.56346 1.78025 0
M  V30 36872 N 3807.59 -0.616551 1.45039 0
M  V30 36873 C 3808.81 -1.40756 1.52324 0
M  V30 36874 C 3809.24 -1.8747 0.153783 0
M  V30 36875 O 3808.59 -1.59611 -0.85988 0
M  V30 36876 C 3808.64 -2.59418 2.50468 0
M  V30 36877 O 3807.75 -3.59749 2.01629 0
M  V30 36878 H 3807.09 -0.420583 0.513815 0
M  V30 36879 H 3809.62 -0.7512 1.90311 0
M  V30 36880 H 3809.63 -3.06778 2.68982 0
M  V30 36881 H 3808.3 -2.24765 3.49933 0
M  V30 36882 H 3806.88 -3.191 1.9295 0
M  V30 36883 N 3809.06 -1.3218 -0.858264 0
M  V30 36884 C 3810 -1.16639 -1.97302 0
M  V30 36885 C 3811.01 -0.10234 -1.62478 0
M  V30 36886 O 3812.2 -0.350957 -1.75016 0
M  V30 36887 C 3809.3 -0.762395 -3.30213 0
M  V30 36888 C 3808.47 -1.91397 -3.93301 0
M  V30 36889 C 3807.53 -1.49411 -5.04542 0
M  V30 36890 O 3806.56 -2.20557 -5.24731 0
M  V30 36891 N 3807.76 -0.388086 -5.79201 0
M  V30 36892 H 3810.52 -2.12661 -2.11176 0
M  V30 36893 H 3808.08 -1.24669 -1.03292 0
M  V30 36894 H 3810.08 -0.463992 -4.02031 0
M  V30 36895 H 3808.65 0.106565 -3.12418 0
M  V30 36896 H 3807.87 -2.37906 -3.14316 0
M  V30 36897 H 3809.15 -2.68499 -4.32187 0
M  V30 36898 H 3808.55 0.204153 -5.65332 0
M  V30 36899 H 3807.11 -0.149273 -6.51629 0
M  V30 36900 N 3810.54 1.07407 -1.15332 0
M  V30 36901 C 3811.95 1.61466 -0.937315 0
M  V30 36902 C 3812.3 1.89142 0.521512 0
M  V30 36903 O 3811.43 1.65646 1.3925 0
M  V30 36904 C 3812.02 2.93348 -1.69506 0
M  V30 36905 C 3810.58 3.44152 -1.52435 0
M  V30 36906 C 3809.73 2.18219 -1.71102 0
M  V30 36907 H 3812.68 0.905021 -1.30365 0
M  V30 36908 H 3812.7 3.62251 -1.16423 0
M  V30 36909 H 3812.21 2.73173 -2.75677 0
M  V30 36910 H 3810.31 3.69409 -0.486563 0
M  V30 36911 H 3810.43 4.20229 -2.30096 0
M  V30 36912 H 3808.79 2.27889 -1.13749 0
M  V30 36913 H 3809.57 2.0054 -2.78637 0
M  V30 36914 N 3812.02 0.950026 1.25747 0
M  V30 36915 C 3813.24 0.618882 1.97951 0
M  V30 36916 C 3813.67 -0.801164 1.70185 0
M  V30 36917 O 3813.03 -1.54105 0.955059 0
M  V30 36918 C 3813.08 0.878213 3.49742 0
M  V30 36919 O 3812.18 -0.045296 4.12375 0
M  V30 36920 H 3811.52 0.235783 0.620727 0
M  V30 36921 H 3814.05 1.27537 1.59986 0
M  V30 36922 H 3814.06 0.802637 4.00027 0
M  V30 36923 H 3812.74 1.91322 3.69281 0
M  V30 36924 H 3811.31 0.082092 3.7281 0
M  V30 36925 N 3813.5 -1.40291 0.718063 0
M  V30 36926 C 3814.43 -2.33356 0.0818777 0
M  V30 36927 C 3815.41 -1.53023 -0.742827 0
M  V30 36928 O 3816.59 -1.81481 -0.691249 0
M  V30 36929 C 3813.72 -3.37019 -0.838784 0
M  V30 36930 C 3812.68 -4.27833 -0.119514 0
M  V30 36931 C 3812 -5.22053 -1.15606 0
M  V30 36932 C 3813.3 -5.12088 1.02778 0
M  V30 36933 H 3815 -2.86806 0.859218 0
M  V30 36934 H 3812.54 -1.37901 0.41463 0
M  V30 36935 H 3814.5 -4.01065 -1.29325 0
M  V30 36936 H 3813.22 -2.8197 -1.64805 0
M  V30 36937 H 3811.88 -3.65243 0.315153 0
M  V30 36938 H 3811.53 -4.63308 -1.95844 0
M  V30 36939 H 3811.23 -5.83656 -0.679665 0
M  V30 36940 H 3812.75 -5.88976 -1.61057 0
M  V30 36941 H 3814.17 -5.69574 0.652561 0
M  V30 36942 H 3812.56 -5.82747 1.4327 0
M  V30 36943 H 3813.63 -4.4792 1.85731 0
M  V30 36944 N 3814.98 -0.464428 -1.50602 0
M  V30 36945 C 3816.22 0.0916857 -2.04194 0
M  V30 36946 C 3816.58 1.37581 -1.33923 0
M  V30 36947 O 3817.78 2.01388 -1.78034 0
M  V30 36948 C 3816.05 0.27803 -3.56317 0
M  V30 36949 S 3817.61 0.793658 -4.31563 0
M  V30 36950 H 3814.43 0.019103 -0.710743 0
M  V30 36951 H 3817.03 -0.630042 -1.85069 0
M  V30 36952 H 3815.74 -0.662466 -4.05018 0
M  V30 36953 H 3815.27 1.02606 -3.79783 0
M  V30 36954 H 3817.28 2.06793 -4.51055 0
M  V30 36955 N 3816.45 1.56367 -0.196777 0
M  V30 36956 C 3817.7 1.97237 0.440677 0
M  V30 36957 C 3818.02 1.08487 1.62035 0
M  V30 36958 O 3817.29 0.156517 1.95274 0
M  V30 36959 H 3815.87 0.728368 0.165797 0
M  V30 36960 H 3818.54 1.92821 -0.283901 0
M  V30 36961 H 3817.63 3.02101 0.783678 0
M  V30 36962 N 3817.93 -0.0768128 1.57413 0
M  V30 36963 C 3818.9 -1.07616 2.02364 0
M  V30 36964 C 3819.9 -1.31888 0.919902 0
M  V30 36965 O 3821.09 -1.27693 1.18491 0
M  V30 36966 C 3818.22 -2.42101 2.39999 0
M  V30 36967 H 3819.41 -0.688838 2.91882 0
M  V30 36968 H 3816.96 -0.322395 1.52939 0
M  V30 36969 H 3817.7 -2.85676 1.53493 0
M  V30 36970 H 3817.48 -2.25828 3.20537 0
M  V30 36971 H 3818.97 -3.13944 2.75371 0
M  V30 36972 N 3819.41 -1.53708 -0.348084 0
M  V30 36973 C 3820.36 -1.81378 -1.42726 0
M  V30 36974 C 3821.33 -0.659186 -1.5246 0
M  V30 36975 O 3822.51 -0.903159 -1.6807 0
M  V30 36976 C 3819.65 -2.02503 -2.7944 0
M  V30 36977 C 3818.77 -3.30216 -2.78534 0
M  V30 36978 C 3817.9 -3.41434 -4.06936 0
M  V30 36979 C 3816.94 -4.63114 -4.0024 0
M  V30 36980 N 3816.08 -4.71389 -5.20324 0
M  V30 36981 H 3820.92 -2.73456 -1.18431 0
M  V30 36982 H 3818.45 -1.35448 -0.573786 0
M  V30 36983 H 3820.41 -2.12739 -3.58884 0
M  V30 36984 H 3819.04 -1.13743 -3.02097 0
M  V30 36985 H 3818.09 -3.28844 -1.91221 0
M  V30 36986 H 3819.41 -4.19751 -2.69463 0
M  V30 36987 H 3818.56 -3.51078 -4.94802 0
M  V30 36988 H 3817.3 -2.49946 -4.18782 0
M  V30 36989 H 3816.3 -4.53551 -3.10759 0
M  V30 36990 H 3817.53 -5.5596 -3.89981 0
M  V30 36991 H 3815.47 -3.82809 -5.32722 0
M  V30 36992 H 3815.39 -5.54853 -5.13492 0
M  V30 36993 H 3816.66 -4.85337 -6.09974 0
M  V30 36994 N 3820.89 0.608851 -1.45364 0
M  V30 36995 C 3822.14 1.36519 -1.4902 0
M  V30 36996 C 3822.46 1.94547 -0.132791 0
M  V30 36997 O 3821.73 1.77086 0.837692 0
M  V30 36998 H 3820.31 0.506799 -0.548784 0
M  V30 36999 H 3822.97 0.715036 -1.8131 0
M  V30 37000 H 3822.07 2.18525 -2.2283 0
M  V30 37001 N 3822.37 1.32633 0.851242 0
M  V30 37002 C 3823.62 1.22741 1.60055 0
M  V30 37003 C 3823.93 -0.208491 1.94486 0
M  V30 37004 O 3825.13 -0.429314 2.68084 0
M  V30 37005 C 3823.59 2.1499 2.8863 0
M  V30 37006 C 3823.2 3.63681 2.61611 0
M  V30 37007 C 3824.94 2.13942 3.66646 0
M  V30 37008 C 3822.85 4.47882 3.86207 0
M  V30 37009 H 3821.78 0.455834 0.600609 0
M  V30 37010 H 3824.43 1.57617 0.939643 0
M  V30 37011 H 3822.81 1.73033 3.56196 0
M  V30 37012 H 3823.99 4.14002 2.02334 0
M  V30 37013 H 3822.3 3.66895 1.96919 0
M  V30 37014 H 3824.9 2.74086 4.59109 0
M  V30 37015 H 3825.24 1.13128 4.00634 0
M  V30 37016 H 3825.77 2.54197 3.05988 0
M  V30 37017 H 3822.51 5.49523 3.57358 0
M  V30 37018 H 3822.03 4.0231 4.44867 0
M  V30 37019 H 3823.71 4.61057 4.53912 0
M  V30 37020 N 3823.84 -1.06794 1.159 0
M  V30 37021 C 3825.08 -1.81088 0.947977 0
M  V30 37022 C 3825.45 -1.84955 -0.515337 0
M  V30 37023 O 3826.65 -2.55177 -0.844883 0
M  V30 37024 C 3824.92 -3.21934 1.5522 0
M  V30 37025 S 3826.48 -4.12905 1.48509 0
M  V30 37026 H 3823.3 -0.623871 0.341036 0
M  V30 37027 H 3825.9 -1.28252 1.47552 0
M  V30 37028 H 3824.6 -3.16712 2.61002 0
M  V30 37029 H 3824.13 -3.79846 1.02376 0
M  V30 37030 H 3826.15 -4.93855 0.481859 0
M  V30 37031 N 3825.32 -0.956681 -1.25241 0
M  V30 37032 C 3826.25 -0.435834 -2.25018 0
M  V30 37033 C 3827.27 0.449407 -1.56474 0
M  V30 37034 O 3828.46 0.257355 -1.76635 0
M  V30 37035 C 3825.56 0.391167 -3.36635 0
M  V30 37036 C 3824.73 -0.481559 -4.34741 0
M  V30 37037 C 3823.79 0.287585 -5.25414 0
M  V30 37038 O 3822.81 -0.314718 -5.68329 0
M  V30 37039 N 3824.02 1.58013 -5.5858 0
M  V30 37040 H 3826.78 -1.29365 -2.70342 0
M  V30 37041 H 3824.34 -0.82727 -1.39168 0
M  V30 37042 H 3826.33 0.913483 -3.94256 0
M  V30 37043 H 3824.9 1.14985 -2.90684 0
M  V30 37044 H 3824.12 -1.18496 -3.75969 0
M  V30 37045 H 3825.41 -1.07716 -4.97267 0
M  V30 37046 H 3824.81 2.09136 -5.25622 0
M  V30 37047 H 3823.37 2.04837 -6.18777 0
M  V30 37048 N 3826.8 1.39908 -0.725493 0
M  V30 37049 C 3827.75 2.325 -0.0683184 0
M  V30 37050 C 3828.74 1.52563 0.736258 0
M  V30 37051 O 3829.95 1.68294 0.638512 0
M  V30 37052 H 3826.32 0.751993 -0.00329064 0
M  V30 37053 H 3828.29 2.85564 -0.865786 0
M  V30 37054 C 3827.04 3.376 0.831976 0
M  V30 37055 H 3826.37 3.99182 0.222271 0
M  V30 37056 H 3827.81 4.04859 1.25958 0
M  V30 37057 C 3826.27 2.73877 1.96196 0
M  V30 37058 O 3826.8 2.60979 3.05373 0
M  V30 37059 N 3825 2.32109 1.74853 0
M  V30 37060 H 3824.55 2.428 0.860578 0
M  V30 37061 H 3824.51 1.89813 2.50636 0
M  V30 37062 N 3828.28 0.472408 1.50353 0
M  V30 37063 C 3829.51 -0.079777 2.06746 0
M  V30 37064 C 3829.92 -1.33391 1.33613 0
M  V30 37065 O 3829.28 -1.77931 0.405797 0
M  V30 37066 C 3829.33 -0.366537 3.59637 0
M  V30 37067 O 3829.05 0.837852 4.30014 0
M  V30 37068 C 3830.55 -0.965542 4.32657 0
M  V30 37069 H 3827.77 0.00767083 0.670956 0
M  V30 37070 H 3830.32 0.661569 1.93503 0
M  V30 37071 H 3828.47 -1.05782 3.72678 0
M  V30 37072 H 3828.88 0.583253 5.21247 0
M  V30 37073 H 3830.36 -1.11595 5.40602 0
M  V30 37074 H 3830.84 -1.95599 3.9324 0
M  V30 37075 H 3831.44 -0.312602 4.2415 0
M  V30 37076 N 3829.76 -1.5626 0.205067 0
M  V30 37077 C 3831.17 -1.84179 -0.305759 0
M  V30 37078 C 3831.52 -1.12603 -1.6067 0
M  V30 37079 O 3830.64 -0.390155 -2.12854 0
M  V30 37080 C 3831.24 -3.34114 -0.561538 0
M  V30 37081 C 3829.8 -3.62409 -1.01671 0
M  V30 37082 C 3828.95 -2.7721 -0.0707357 0
M  V30 37083 H 3831.9 -1.52802 0.428636 0
M  V30 37084 H 3831.92 -3.53426 -1.40963 0
M  V30 37085 H 3831.43 -3.86181 0.385478 0
M  V30 37086 H 3829.53 -3.15784 -1.97766 0
M  V30 37087 H 3829.64 -4.70522 -0.902524 0
M  V30 37088 H 3828.01 -2.48137 -0.574486 0
M  V30 37089 H 3828.79 -3.3207 0.870902 0
M  V30 37090 N 3831.24 0.0684638 -1.57451 0
M  V30 37091 C 3832.48 0.765472 -1.87043 0
M  V30 37092 C 3832.8 1.77946 -0.79752 0
M  V30 37093 O 3832.07 1.95131 0.173455 0
M  V30 37094 H 3830.65 0.285696 -0.690208 0
M  V30 37095 H 3833.32 0.0437614 -1.94851 0
M  V30 37096 H 3832.41 1.27961 -2.84662 0
M  V30 37097 N 3832.71 1.5389 0.339928 0
M  V30 37098 C 3833.94 1.75566 1.10414 0
M  V30 37099 C 3834.36 0.495188 1.81465 0
M  V30 37100 O 3833.72 -0.552385 1.7268 0
M  V30 37101 C 3833.77 2.9382 2.09051 0
M  V30 37102 O 3832.87 2.64221 3.1664 0
M  V30 37103 H 3832.21 0.582269 0.319153 0
M  V30 37104 H 3834.74 2.00864 0.389215 0
M  V30 37105 H 3834.75 3.2071 2.52209 0
M  V30 37106 H 3833.43 3.85237 1.56734 0
M  V30 37107 H 3832.01 2.4823 2.78274 0
M  V30 37108 N 3834.19 -0.601133 1.45685 0
M  V30 37109 C 3835.44 -1.35995 1.50038 0
M  V30 37110 C 3835.77 -1.93961 0.144679 0
M  V30 37111 O 3835.02 -1.75915 -0.857471 0
M  V30 37112 C 3835.32 -2.522 2.53239 0
M  V30 37113 C 3834.99 -2.12341 3.97771 0
M  V30 37114 C 3833.65 -2.01185 4.37125 0
M  V30 37115 C 3836 -1.81331 4.88639 0
M  V30 37116 C 3833.33 -1.5725 5.65234 0
M  V30 37117 C 3835.68 -1.38881 6.17167 0
M  V30 37118 C 3834.34 -1.26288 6.55445 0
M  V30 37119 H 3833.61 -0.497643 0.549029 0
M  V30 37120 H 3836.26 -0.678802 1.79066 0
M  V30 37121 H 3834.57 -3.25682 2.17804 0
M  V30 37122 H 3836.26 -3.10427 2.53843 0
M  V30 37123 H 3832.85 -2.21953 3.66654 0
M  V30 37124 H 3837.04 -1.88845 4.58968 0
M  V30 37125 H 3832.29 -1.46129 5.9368 0
M  V30 37126 H 3836.47 -1.13934 6.87017 0
M  V30 37127 H 3834.09 -0.920184 7.5461 0
M  V30 37128 N 3835.67 -1.33083 -0.844196 0
M  V30 37129 C 3836.89 -1.27408 -1.63652 0
M  V30 37130 C 3837.32 0.153113 -1.87476 0
M  V30 37131 O 3836.68 1.10798 -1.43504 0
M  V30 37132 C 3836.73 -2.0495 -2.96695 0
M  V30 37133 O 3835.83 -1.40446 -3.87748 0
M  V30 37134 H 3835.17 -0.438585 -0.498537 0
M  V30 37135 H 3837.7 -1.75562 -1.05067 0
M  V30 37136 H 3837.71 -2.15516 -3.46434 0
M  V30 37137 H 3836.39 -3.08726 -2.78677 0
M  V30 37138 H 3834.96 -1.38493 -3.46228 0
M  V30 37139 N 3837.15 1.06178 -1.16464 0
M  V30 37140 C 3838.39 1.80582 -0.957568 0
M  V30 37141 C 3838.75 1.85225 0.505522 0
M  V30 37142 O 3839.95 2.55621 0.831339 0
M  V30 37143 C 3838.22 3.21107 -1.56925 0
M  V30 37144 S 3839.78 4.12111 -1.50697 0
M  V30 37145 H 3836.6 0.622054 -0.34434 0
M  V30 37146 H 3839.2 1.27468 -1.4823 0
M  V30 37147 H 3837.91 3.15323 -2.62678 0
M  V30 37148 H 3837.44 3.79298 -1.04389 0
M  V30 37149 H 3839.45 4.93592 -0.508043 0
M  V30 37150 N 3838.63 0.96331 1.24732 0
M  V30 37151 C 3839.54 0.497356 2.29267 0
M  V30 37152 C 3840.55 -0.439542 1.68357 0
M  V30 37153 O 3841.73 -0.313662 1.98943 0
M  V30 37154 C 3838.79 -0.209201 3.46068 0
M  V30 37155 C 3837.85 0.766981 4.22393 0
M  V30 37156 C 3837.09 0.094048 5.33617 0
M  V30 37157 O 3837.31 -1.11854 5.59325 0
M  V30 37158 O 3836.24 0.783985 5.96772 0
M  V30 37159 H 3840.07 1.36626 2.71232 0
M  V30 37160 H 3837.65 0.730149 1.30343 0
M  V30 37161 H 3839.54 -0.606294 4.17016 0
M  V30 37162 H 3838.21 -1.05314 3.06089 0
M  V30 37163 H 3837.12 1.21445 3.53839 0
M  V30 37164 H 3838.45 1.57921 4.66178 0
M  V30 37165 N 3840.1 -1.39522 0.732902 0
M  V30 37166 C 3841.34 -2.02409 0.284577 0
M  V30 37167 C 3841.71 -1.56896 -1.1067 0
M  V30 37168 O 3842.91 -2.11967 -1.65298 0
M  V30 37169 C 3841.18 -3.55368 0.380548 0
M  V30 37170 S 3842.74 -4.38798 0.011756 0
M  V30 37171 H 3839.56 -0.70218 0.111646 0
M  V30 37172 H 3842.16 -1.70365 0.958954 0
M  V30 37173 H 3840.86 -3.85984 1.39444 0
M  V30 37174 H 3840.39 -3.92163 -0.311721 0
M  V30 37175 H 3842.41 -4.81343 -1.20511 0
M  V30 37176 N 3841.58 -0.480375 -1.501 0
M  V30 37177 C 3842.51 0.345378 -2.26583 0
M  V30 37178 C 3843.53 0.948923 -1.32285 0
M  V30 37179 O 3844.72 0.835756 -1.57726 0
M  V30 37180 C 3841.82 1.49927 -3.03933 0
M  V30 37181 C 3840.99 1.00682 -4.25655 0
M  V30 37182 C 3840.05 2.03585 -4.85221 0
M  V30 37183 O 3839.07 1.61271 -5.45876 0
M  V30 37184 N 3840.28 3.3647 -4.73041 0
M  V30 37185 H 3843.04 -0.310338 -2.98089 0
M  V30 37186 H 3840.6 -0.311699 -1.58871 0
M  V30 37187 H 3842.59 2.18479 -3.4066 0
M  V30 37188 H 3841.16 2.05951 -2.35166 0
M  V30 37189 H 3840.38 0.146863 -3.93926 0
M  V30 37190 H 3841.67 0.655868 -5.04555 0
M  V30 37191 H 3841.07 3.73551 -4.24824 0
M  V30 37192 H 3839.63 4.00795 -5.14011 0
M  V30 37193 N 3843.06 1.56149 -0.213351 0
M  V30 37194 C 3844.48 1.58965 0.142188 0
M  V30 37195 C 3844.68 1.22999 1.59604 0
M  V30 37196 O 3843.73 0.961349 2.33483 0
M  V30 37197 C 3845.04 3.0018 -0.176685 0
M  V30 37198 C 3846.59 3.12777 -0.11826 0
M  V30 37199 C 3847.07 4.56155 -0.410694 0
M  V30 37200 N 3848.56 4.61799 -0.359968 0
M  V30 37201 C 3849.29 5.7066 -0.559845 0
M  V30 37202 N 3848.79 6.87918 -0.821055 0
M  V30 37203 N 3850.58 5.59935 -0.492844 0
M  V30 37204 H 3842.73 1.77805 -1.16186 0
M  V30 37205 H 3845 0.826067 -0.4651 0
M  V30 37206 H 3844.7 3.3112 -1.18544 0
M  V30 37207 H 3844.58 3.73706 0.51219 0
M  V30 37208 H 3846.96 2.81639 0.88112 0
M  V30 37209 H 3847.04 2.41598 -0.840489 0
M  V30 37210 H 3846.69 4.88009 -1.40747 0
M  V30 37211 H 3846.62 5.25548 0.332633 0
M  V30 37212 H 3849.11 3.77538 -0.165436 0
M  V30 37213 H 3849.42 7.6679 -0.96189 0
M  V30 37214 H 3847.77 6.89682 -0.858157 0
M  V30 37215 H 3850.96 4.67207 -0.289063 0
M  V30 37216 H 3851.13 6.44711 -0.652025 0
M  V30 37217 N 3844.54 -0.0601128 1.57485 0
M  V30 37218 C 3845.79 -0.755542 1.87446 0
M  V30 37219 C 3846.11 -1.7752 0.806946 0
M  V30 37220 O 3845.38 -1.9522 -0.163105 0
M  V30 37221 H 3843.96 -0.282032 0.691713 0
M  V30 37222 H 3846.62 -0.0334274 1.94871 0
M  V30 37223 H 3845.72 -1.2645 2.85336 0
M  V30 37224 N 3846.02 -1.54068 -0.331762 0
M  V30 37225 C 3847.26 -1.71881 -1.07066 0
M  V30 37226 C 3847.59 -0.488172 -1.88274 0
M  V30 37227 O 3846.85 0.530097 -1.88384 0
M  V30 37228 C 3847.15 -2.94146 -2.0301 0
M  V30 37229 C 3846.81 -4.29256 -1.38021 0
M  V30 37230 C 3845.47 -4.6599 -1.20028 0
M  V30 37231 C 3847.83 -5.1314 -0.913074 0
M  V30 37232 C 3845.15 -5.84214 -0.539561 0
M  V30 37233 C 3847.51 -6.3204 -0.266218 0
M  V30 37234 C 3846.17 -6.67459 -0.0740614 0
M  V30 37235 H 3845.44 -0.628957 -0.391784 0
M  V30 37236 H 3848.09 -1.88299 -0.348672 0
M  V30 37237 H 3846.39 -2.7238 -2.81632 0
M  V30 37238 H 3848.09 -3.05121 -2.60196 0
M  V30 37239 H 3844.68 -4.00351 -1.53027 0
M  V30 37240 H 3848.86 -4.85283 -1.0399 0
M  V30 37241 H 3844.12 -6.10222 -0.379408 0
M  V30 37242 H 3848.29 -6.96323 0.103791 0
M  V30 37243 H 3845.92 -7.58926 0.439944 0
M  V30 37244 N 3847.49 0.593399 -1.46002 0
M  V30 37245 C 3848.72 1.38315 -1.54544 0
M  V30 37246 C 3849.14 1.87202 -0.183588 0
M  V30 37247 O 3848.5 1.60959 0.834379 0
M  V30 37248 C 3848.55 2.55401 -2.54564 0
M  V30 37249 O 3847.65 3.56496 -2.07327 0
M  V30 37250 H 3847 0.412355 -0.520441 0
M  V30 37251 H 3849.53 0.720828 -1.91482 0
M  V30 37252 H 3849.54 3.0246 -2.73829 0
M  V30 37253 H 3848.21 2.1917 -3.53465 0
M  V30 37254 H 3846.79 3.1599 -1.98003 0
M  V30 37255 N 3848.97 1.33529 0.837127 0
M  V30 37256 C 3849.9 1.26557 1.96229 0
M  V30 37257 C 3850.88 0.14579 1.69474 0
M  V30 37258 O 3852.07 0.335849 1.91274 0
M  V30 37259 C 3849.2 1.0058 3.32417 0
M  V30 37260 C 3848.15 2.0887 3.73574 0
M  V30 37261 C 3847.48 1.68104 5.07588 0
M  V30 37262 C 3848.78 3.50563 3.87173 0
M  V30 37263 H 3850.47 2.20697 2.0232 0
M  V30 37264 H 3848.02 1.06244 0.972019 0
M  V30 37265 H 3849.97 0.943511 4.10702 0
M  V30 37266 H 3848.7 0.0287842 3.26587 0
M  V30 37267 H 3847.35 2.14144 2.97553 0
M  V30 37268 H 3847 0.691009 4.98231 0
M  V30 37269 H 3846.7 2.40573 5.36096 0
M  V30 37270 H 3848.23 1.63345 5.88346 0
M  V30 37271 H 3849.64 3.4778 4.55765 0
M  V30 37272 H 3848.04 4.21531 4.2712 0
M  V30 37273 H 3849.11 3.88941 2.89573 0
M  V30 37274 N 3850.45 -1.05559 1.17026 0
M  V30 37275 C 3851.73 -1.75366 0.866381 0
M  V30 37276 C 3852.11 -2.01349 -0.634181 0
M  V30 37277 O 3851.46 -1.64657 -1.58431 0
M  V30 37278 C 3851.67 -3.0495 1.69725 0
M  V30 37279 C 3853.01 -3.78969 1.91489 0
M  V30 37280 O 3854.04 -3.1481 1.66652 0
M  V30 37281 O 3852.9 -4.94244 2.33206 0
M  V30 37282 H 3849.99 -0.762402 0.320426 0
M  V30 37283 H 3852.54 -1.11761 1.27701 0
M  V30 37284 H 3851.31 -2.8177 2.71517 0
M  V30 37285 H 3850.93 -3.76292 1.28414 0
M  V30 37286 N 3851.93 -0.969911 -1.2422 0
M  V30 37287 C 3852.89 -0.506725 -2.23528 0
M  V30 37288 C 3853.89 0.397941 -1.55798 0
M  V30 37289 O 3855.08 0.193093 -1.73127 0
M  V30 37290 C 3852.21 0.265884 -3.39862 0
M  V30 37291 H 3853.41 -1.38468 -2.6602 0
M  V30 37292 H 3850.96 -0.754722 -1.36871 0
M  V30 37293 H 3851.69 1.16084 -3.02812 0
M  V30 37294 H 3851.48 -0.383355 -3.90221 0
M  V30 37295 H 3852.97 0.578902 -4.13568 0
M  V30 37296 N 3853.41 1.39131 -0.740291 0
M  V30 37297 C 3854.63 2.04699 -0.300966 0
M  V30 37298 C 3855.05 1.55821 1.06607 0
M  V30 37299 O 3854.41 0.725417 1.67463 0
M  V30 37300 C 3854.46 3.60256 -0.299637 0
M  V30 37301 O 3854.18 4.07336 -1.61272 0
M  V30 37302 C 3855.68 4.43028 0.155201 0
M  V30 37303 H 3852.9 0.658155 -0.130664 0
M  V30 37304 H 3855.44 1.78077 -1.00542 0
M  V30 37305 H 3853.6 3.85761 0.355973 0
M  V30 37306 H 3854.01 5.01693 -1.52986 0
M  V30 37307 H 3855.49 5.519 0.104971 0
M  V30 37308 H 3855.96 4.22456 1.20116 0
M  V30 37309 H 3856.57 4.22683 -0.47104 0
M  V30 37310 N 3854.88 0.488329 1.49844 0
M  V30 37311 C 3856.13 -0.0605427 2.02009 0
M  V30 37312 C 3856.45 -1.38651 1.37117 0
M  V30 37313 O 3855.72 -1.88811 0.522215 0
M  V30 37314 H 3854.3 -0.0253642 0.746569 0
M  V30 37315 H 3856.97 0.642683 1.83999 0
M  V30 37316 H 3856.06 -0.199487 3.11462 0
M  V30 37317 N 3856.36 -1.56034 0.221629 0
M  V30 37318 C 3857.29 -2.23284 -0.683132 0
M  V30 37319 C 3858.27 -1.20458 -1.20099 0
M  V30 37320 O 3859.46 -1.49043 -1.24498 0
M  V30 37321 C 3856.59 -2.9128 -1.89137 0
M  V30 37322 C 3855.54 -4.00578 -1.50735 0
M  V30 37323 C 3854.87 -4.55871 -2.79438 0
M  V30 37324 C 3856.17 -5.17624 -0.697297 0
M  V30 37325 H 3857.86 -2.9915 -0.122435 0
M  V30 37326 H 3855.41 -1.43885 -0.0574479 0
M  V30 37327 H 3857.36 -3.37018 -2.52976 0
M  V30 37328 H 3856.09 -2.12862 -2.47704 0
M  V30 37329 H 3854.74 -3.55572 -0.89243 0
M  V30 37330 H 3854.39 -3.74183 -3.36149 0
M  V30 37331 H 3854.09 -5.29637 -2.54477 0
M  V30 37332 H 3855.62 -5.04327 -3.44219 0
M  V30 37333 H 3857.03 -5.59743 -1.23939 0
M  V30 37334 H 3855.43 -5.97622 -0.54477 0
M  V30 37335 H 3856.5 -4.83995 0.296066 0
M  V30 37336 N 3857.84 0.0517601 -1.57515 0
M  V30 37337 C 3858.79 1.07791 -2.06116 0
M  V30 37338 C 3859.78 1.38853 -0.970365 0
M  V30 37339 O 3860.99 1.38025 -1.15538 0
M  V30 37340 H 3857.36 0.365039 -0.657458 0
M  V30 37341 H 3859.33 0.642017 -2.91412 0
M  V30 37342 C 3858.08 2.3773 -2.53732 0
M  V30 37343 H 3857.41 2.14683 -3.3727 0
M  V30 37344 H 3858.85 3.07929 -2.91471 0
M  V30 37345 C 3857.31 3.05105 -1.42873 0
M  V30 37346 O 3857.84 3.94013 -0.782095 0
M  V30 37347 N 3856.04 2.66056 -1.16887 0
M  V30 37348 H 3855.59 1.93844 -1.69654 0
M  V30 37349 H 3855.55 3.11456 -0.429219 0
M  V30 37350 N 3859.32 1.54242 0.323587 0
M  V30 37351 C 3860.56 1.74171 1.06975 0
M  V30 37352 C 3860.92 0.504726 1.85247 0
M  V30 37353 O 3862.12 0.581364 2.62438 0
M  V30 37354 C 3860.4 2.98207 1.96996 0
M  V30 37355 S 3861.95 3.39039 2.78565 0
M  V30 37356 H 3858.77 0.61245 0.361146 0
M  V30 37357 H 3861.37 1.92418 0.345756 0
M  V30 37358 H 3860.08 3.86385 1.38329 0
M  V30 37359 H 3859.61 2.82483 2.73801 0
M  V30 37360 H 3861.62 2.94336 3.99475 0
M  V30 37361 N 3860.8 -0.585648 1.46314 0
M  V30 37362 C 3861.71 -1.72283 1.59235 0
M  V30 37363 C 3862.72 -1.67364 0.475941 0
M  V30 37364 O 3863.9 -1.87326 0.73966 0
M  V30 37365 C 3860.96 -3.08783 1.57652 0
M  V30 37366 C 3860.03 -3.24988 2.80502 0
M  V30 37367 C 3859.26 -4.54975 2.78986 0
M  V30 37368 O 3859.48 -5.3868 1.87562 0
M  V30 37369 O 3858.42 -4.74365 3.70488 0
M  V30 37370 H 3862.24 -1.6433 2.554 0
M  V30 37371 H 3859.83 -0.752346 1.29074 0
M  V30 37372 H 3861.71 -3.90067 1.59455 0
M  V30 37373 H 3860.38 -3.17179 0.646456 0
M  V30 37374 H 3859.29 -2.43208 2.84255 0
M  V30 37375 H 3860.62 -3.2148 3.72708 0
M  V30 37376 N 3862.28 -1.33971 -0.830033 0
M  V30 37377 C 3863.55 -1.16516 -1.5711 0
M  V30 37378 C 3863.93 0.265038 -2.0943 0
M  V30 37379 O 3863.28 1.26536 -1.90265 0
M  V30 37380 C 3863.49 -2.21374 -2.69804 0
M  V30 37381 C 3864.84 -2.55986 -3.38757 0
M  V30 37382 O 3865.86 -2.20109 -2.80054 0
M  V30 37383 O 3864.72 -3.17588 -4.44748 0
M  V30 37384 H 3861.82 -0.451219 -0.693058 0
M  V30 37385 H 3864.36 -1.45581 -0.872022 0
M  V30 37386 H 3863.13 -3.17403 -2.28847 0
M  V30 37387 H 3862.76 -1.93445 -3.47368 0
M  V30 37388 N 3863.75 1.04937 -1.17584 0
M  V30 37389 C 3865 1.78248 -0.96724 0
M  V30 37390 C 3865.33 1.87581 0.502678 0
M  V30 37391 O 3864.61 1.37748 1.37316 0
M  V30 37392 C 3864.89 3.21999 -1.61211 0
M  V30 37393 C 3864.74 3.20662 -3.1543 0
M  V30 37394 C 3866.06 4.19897 -1.31812 0
M  V30 37395 H 3863.18 0.64707 -0.352802 0
M  V30 37396 H 3865.82 1.22637 -1.45121 0
M  V30 37397 H 3863.97 3.69484 -1.20058 0
M  V30 37398 H 3865.65 2.81233 -3.65658 0
M  V30 37399 H 3863.89 2.58932 -3.48047 0
M  V30 37400 H 3864.56 4.22131 -3.55681 0
M  V30 37401 H 3867.04 3.80919 -1.67452 0
M  V30 37402 H 3865.91 5.18716 -1.79514 0
M  V30 37403 H 3866.17 4.41451 -0.239382 0
M  V30 37404 N 3865.23 0.976485 1.23703 0
M  V30 37405 C 3866.51 0.559752 1.8742 0
M  V30 37406 C 3866.89 -0.963133 1.87848 0
M  V30 37407 O 3866.24 -1.8382 1.3573 0
M  V30 37408 C 3866.45 1.16133 3.29111 0
M  V30 37409 C 3867.79 1.25165 4.05732 0
M  V30 37410 O 3868.82 1.1145 3.38316 0
M  V30 37411 O 3867.68 1.46943 5.26375 0
M  V30 37412 H 3864.77 0.187917 0.805367 0
M  V30 37413 H 3867.32 1.07132 1.31609 0
M  V30 37414 H 3866.09 2.20372 3.23345 0
M  V30 37415 H 3865.71 0.634349 3.92507 0
M  V30 37416 N 3866.71 -1.38737 0.747659 0
M  V30 37417 C 3867.62 -2.34303 0.11792 0
M  V30 37418 C 3868.64 -1.58969 -0.70746 0
M  V30 37419 O 3869.81 -1.91194 -0.632991 0
M  V30 37420 C 3866.88 -3.3806 -0.769164 0
M  V30 37421 C 3865.94 -4.29243 0.0699113 0
M  V30 37422 C 3865.17 -5.28044 -0.774928 0
M  V30 37423 O 3865.39 -5.33692 -2.01319 0
M  V30 37424 O 3864.33 -6.01578 -0.196872 0
M  V30 37425 H 3868.15 -2.89839 0.907023 0
M  V30 37426 H 3865.74 -1.40481 0.508478 0
M  V30 37427 H 3867.62 -4.01606 -1.27634 0
M  V30 37428 H 3866.3 -2.8489 -1.53686 0
M  V30 37429 H 3865.2 -3.68878 0.622901 0
M  V30 37430 H 3866.54 -4.85653 0.800125 0
M  V30 37431 N 3868.19 -0.496268 -1.49583 0
M  V30 37432 C 3869.43 0.0483525 -2.04343 0
M  V30 37433 C 3869.79 1.3471 -1.36811 0
M  V30 37434 O 3870.99 1.97566 -1.82266 0
M  V30 37435 C 3869.26 0.202387 -3.56827 0
M  V30 37436 S 3870.82 0.701939 -4.33149 0
M  V30 37437 H 3867.64 0.00402282 -0.710989 0
M  V30 37438 H 3870.24 -0.669157 -1.83691 0
M  V30 37439 H 3868.95 -0.748227 -4.03522 0
M  V30 37440 H 3868.48 0.945276 -3.81874 0
M  V30 37441 H 3870.49 1.97179 -4.5534 0
M  V30 37442 N 3869.67 1.55914 -0.2299 0
M  V30 37443 C 3870.94 1.90377 0.448974 0
M  V30 37444 C 3871.32 1.14838 1.77131 0
M  V30 37445 O 3870.67 0.260368 2.27012 0
M  V30 37446 C 3870.88 3.43198 0.633744 0
M  V30 37447 C 3872.23 4.14124 0.93738 0
M  V30 37448 O 3873.25 3.48843 0.720229 0
M  V30 37449 O 3872.11 5.29564 1.34995 0
M  V30 37450 H 3869.21 0.79185 0.238543 0
M  V30 37451 H 3871.75 1.67495 -0.272705 0
M  V30 37452 H 3870.52 3.90159 -0.298656 0
M  V30 37453 H 3870.15 3.71888 1.4066 0
M  V30 37454 N 3871.14 -0.043406 1.5754 0
M  V30 37455 C 3872.39 -0.735618 1.88237 0
M  V30 37456 C 3872.71 -1.76654 0.825729 0
M  V30 37457 O 3871.98 -1.95382 -0.14239 0
M  V30 37458 H 3870.56 -0.274679 0.694666 0
M  V30 37459 H 3873.22 -0.0127568 1.94896 0
M  V30 37460 H 3872.32 -1.23416 2.86661 0
M  V30 37461 N 3872.62 -1.54412 -0.315402 0
M  V30 37462 C 3873.57 -1.851 -1.40857 0
M  V30 37463 C 3874.56 -0.723544 -1.5317 0
M  V30 37464 O 3875.77 -0.90733 -1.55459 0
M  V30 37465 H 3872.14 -0.586862 -0.47021 0
M  V30 37466 H 3874.12 -2.76502 -1.12202 0
M  V30 37467 C 3872.86 -2.10232 -2.76944 0
M  V30 37468 H 3872.19 -2.96453 -2.68246 0
M  V30 37469 H 3873.63 -2.35653 -3.52482 0
M  V30 37470 C 3872.09 -0.896369 -3.24757 0
M  V30 37471 O 3872.62 -0.10968 -4.0155 0
M  V30 37472 N 3870.82 -0.705735 -2.819 0
M  V30 37473 H 3870.37 -1.34712 -2.19569 0
M  V30 37474 H 3870.33 0.0996252 -3.14242 0
M  V30 37475 N 3874.1 0.57788 -1.46623 0
M  V30 37476 C 3875.05 1.68161 -1.53967 0
M  V30 37477 C 3876.03 1.55844 -0.400198 0
M  V30 37478 O 3877.23 1.64676 -0.648901 0
M  V30 37479 C 3874.36 3.06947 -1.53748 0
M  V30 37480 C 3873.44 3.24543 -2.73006 0
M  V30 37481 N 3873.83 3.12281 -3.97887 0
M  V30 37482 C 3872.13 3.55495 -2.69332 0
M  V30 37483 C 3872.83 3.32012 -4.77643 0
M  V30 37484 N 3871.81 3.57391 -4.096 0
M  V30 37485 H 3875.61 1.57218 -2.48314 0
M  V30 37486 H 3873.12 0.782052 -1.4233 0
M  V30 37487 H 3875.12 3.86168 -1.57097 0
M  V30 37488 H 3873.78 3.19017 -0.604816 0
M  V30 37489 H 3874.79 2.90044 -4.29063 0
M  V30 37490 H 3871.47 3.7422 -1.8511 0
M  V30 37491 H 3872.86 3.27674 -5.86583 0
M  V30 37492 N 3875.58 1.34409 0.822917 0
M  V30 37493 C 3876.99 1.14091 1.11604 0
M  V30 37494 C 3877.19 -0.057581 2.01418 0
M  V30 37495 O 3876.25 -0.733103 2.41623 0
M  V30 37496 C 3877.56 2.43614 1.76274 0
M  V30 37497 C 3879.11 2.4967 1.88769 0
M  V30 37498 C 3879.59 3.79195 2.56856 0
M  V30 37499 N 3881.08 3.80356 2.64355 0
M  V30 37500 C 3881.81 4.77297 3.17766 0
M  V30 37501 N 3881.31 5.8462 3.71741 0
M  V30 37502 N 3883.1 4.64752 3.16167 0
M  V30 37503 H 3875.25 2.11199 0.225518 0
M  V30 37504 H 3877.52 0.933951 0.162605 0
M  V30 37505 H 3877.22 3.31405 1.17744 0
M  V30 37506 H 3877.1 2.56954 2.76142 0
M  V30 37507 H 3879.48 1.62319 2.46448 0
M  V30 37508 H 3879.56 2.40259 0.878037 0
M  V30 37509 H 3879.21 4.66937 1.99831 0
M  V30 37510 H 3879.14 3.8589 3.58325 0
M  V30 37511 H 3881.63 3.02801 2.26097 0
M  V30 37512 H 3881.94 6.54604 4.10747 0
M  V30 37513 H 3880.29 5.88334 3.69985 0
M  V30 37514 H 3883.48 3.80056 2.73267 0
M  V30 37515 H 3883.65 5.40468 3.57488 0
M  V30 37516 N 3877.06 -1.04312 1.18139 0
M  V30 37517 C 3878.3 -1.79036 0.986176 0
M  V30 37518 C 3878.66 -1.86006 -0.47599 0
M  V30 37519 O 3879.86 -2.56911 -0.790566 0
M  V30 37520 C 3878.13 -3.18569 1.62013 0
M  V30 37521 S 3879.69 -4.09662 1.57234 0
M  V30 37522 H 3876.51 -0.616497 0.354192 0
M  V30 37523 H 3879.11 -1.25093 1.5024 0
M  V30 37524 H 3877.82 -3.11104 2.67661 0
M  V30 37525 H 3877.35 -3.77589 1.1041 0
M  V30 37526 H 3879.36 -4.92722 0.586505 0
M  V30 37527 N 3878.53 -0.983032 -1.23184 0
M  V30 37528 C 3879.47 -0.483466 -2.24043 0
M  V30 37529 C 3880.48 0.416115 -1.57392 0
M  V30 37530 O 3881.67 0.21983 -1.77141 0
M  V30 37531 C 3878.77 0.319674 -3.37389 0
M  V30 37532 C 3877.94 -0.573666 -4.33622 0
M  V30 37533 C 3877 0.176073 -5.25905 0
M  V30 37534 O 3876.03 -0.435198 -5.67534 0
M  V30 37535 N 3877.23 1.46129 -5.61806 0
M  V30 37536 H 3879.99 -1.3507 -2.67537 0
M  V30 37537 H 3877.55 -0.856603 -1.37382 0
M  V30 37538 H 3879.55 0.82965 -3.96105 0
M  V30 37539 H 3878.12 1.08794 -2.93057 0
M  V30 37540 H 3877.34 -1.26444 -3.73371 0
M  V30 37541 H 3878.62 -1.18239 -4.94871 0
M  V30 37542 H 3878.02 1.9794 -5.2994 0
M  V30 37543 H 3876.58 1.91666 -6.22983 0
M  V30 37544 N 3880.01 1.38338 -0.755006 0
M  V30 37545 C 3880.96 2.27763 -0.103907 0
M  V30 37546 C 3881.95 1.45271 0.691751 0
M  V30 37547 O 3883.14 1.67992 0.557473 0
M  V30 37548 C 3880.27 3.34149 0.787363 0
M  V30 37549 C 3879.35 4.24097 -0.0152206 0
M  V30 37550 N 3879.74 4.94731 -1.05236 0
M  V30 37551 C 3878.04 4.45499 0.211374 0
M  V30 37552 C 3878.74 5.60998 -1.53806 0
M  V30 37553 N 3877.72 5.36864 -0.853112 0
M  V30 37554 H 3881.52 2.79838 -0.898216 0
M  V30 37555 H 3879.04 1.51257 -0.591181 0
M  V30 37556 H 3881.03 3.97103 1.26945 0
M  V30 37557 H 3879.69 2.83632 1.58061 0
M  V30 37558 H 3880.7 4.97646 -1.43418 0
M  V30 37559 H 3877.38 4.05887 0.977848 0
M  V30 37560 H 3878.77 6.27496 -2.40204 0
M  V30 37561 N 3881.49 0.504194 1.49317 0
M  V30 37562 C 3882.74 -0.0391135 2.02062 0
M  V30 37563 C 3883.06 -1.37189 1.38579 0
M  V30 37564 O 3882.33 -1.88247 0.542212 0
M  V30 37565 H 3880.91 -0.0174444 0.746796 0
M  V30 37566 H 3883.57 0.662162 1.83307 0
M  V30 37567 H 3882.67 -0.166441 3.11656 0
M  V30 37568 N 3882.97 -1.5579 0.238166 0
M  V30 37569 C 3884.21 -2.00632 -0.39064 0
M  V30 37570 C 3884.57 -1.1226 -1.55761 0
M  V30 37571 O 3885.77 -1.46521 -2.25356 0
M  V30 37572 C 3884.04 -3.48368 -0.798422 0
M  V30 37573 S 3885.6 -4.15223 -1.41899 0
M  V30 37574 H 3882.42 -0.700227 -0.1233 0
M  V30 37575 H 3885.02 -1.92317 0.351352 0
M  V30 37576 H 3883.73 -4.10356 0.0603331 0
M  V30 37577 H 3883.26 -3.60591 -1.57281 0
M  V30 37578 H 3885.27 -4.15786 -2.70807 0
M  V30 37579 N 3884.45 0.0350506 -1.57561 0
M  V30 37580 C 3885.38 1.06498 -2.02955 0
M  V30 37581 C 3886.39 1.32825 -0.941354 0
M  V30 37582 O 3887.58 1.30417 -1.21875 0
M  V30 37583 C 3884.68 2.40796 -2.38475 0
M  V30 37584 C 3883.85 2.33911 -3.696 0
M  V30 37585 C 3882.91 3.5061 -3.92377 0
M  V30 37586 O 3881.94 3.30374 -4.6351 0
M  V30 37587 N 3883.14 4.72269 -3.37553 0
M  V30 37588 H 3885.91 0.678118 -2.91927 0
M  V30 37589 H 3883.47 0.223102 -1.60355 0
M  V30 37590 H 3885.46 3.17576 -2.50854 0
M  V30 37591 H 3884.03 2.71349 -1.55204 0
M  V30 37592 H 3883.25 1.4227 -3.67631 0
M  V30 37593 H 3884.54 2.26447 -4.55631 0
M  V30 37594 H 3883.93 4.91611 -2.79884 0
M  V30 37595 H 3882.49 5.46434 -3.55321 0
M  V30 37596 N 3885.92 1.54577 0.307209 0
M  V30 37597 C 3886.87 1.85845 1.39873 0
M  V30 37598 C 3887.87 0.731657 1.52785 0
M  V30 37599 O 3889.07 0.915561 1.54976 0
M  V30 37600 H 3885.45 0.589347 0.467091 0
M  V30 37601 H 3887.42 2.77093 1.10734 0
M  V30 37602 C 3886.17 2.11697 2.75825 0
M  V30 37603 H 3885.49 2.97871 2.6667 0
M  V30 37604 H 3886.93 2.37519 3.51227 0
M  V30 37605 C 3885.39 0.913579 3.24277 0
M  V30 37606 O 3885.92 0.130973 4.01486 0
M  V30 37607 N 3884.13 0.720675 2.81522 0
M  V30 37608 H 3883.67 1.35874 2.18851 0
M  V30 37609 H 3883.63 -0.0829587 3.14291 0
M  V30 37610 N 3887.4 -0.570096 1.46927 0
M  V30 37611 C 3888.65 -1.3241 1.52153 0
M  V30 37612 C 3888.96 -1.94743 0.182945 0
M  V30 37613 O 3890.17 -2.71264 0.113093 0
M  V30 37614 C 3888.63 -2.40041 2.68157 0
M  V30 37615 C 3888.23 -1.83956 4.0849 0
M  V30 37616 C 3889.98 -3.16704 2.82664 0
M  V30 37617 C 3887.89 -2.89291 5.15815 0
M  V30 37618 H 3886.82 -0.497816 0.5663 0
M  V30 37619 H 3889.47 -0.60698 1.7317 0
M  V30 37620 H 3887.85 -3.14609 2.40494 0
M  V30 37621 H 3889.02 -1.15846 4.46 0
M  V30 37622 H 3887.34 -1.1992 3.98758 0
M  V30 37623 H 3889.93 -3.95339 3.60015 0
M  V30 37624 H 3890.28 -3.70086 1.90637 0
M  V30 37625 H 3890.81 -2.49245 3.10035 0
M  V30 37626 H 3887.55 -2.4078 6.09676 0
M  V30 37627 H 3887.07 -3.5585 4.82836 0
M  V30 37628 H 3888.75 -3.53017 5.42207 0
M  V30 37629 N 3888.88 -1.34844 -0.815777 0
M  V30 37630 C 3889.81 -1.29662 -1.9419 0
M  V30 37631 C 3890.79 -0.172733 -1.69221 0
M  V30 37632 O 3891.98 -0.366236 -1.90715 0
M  V30 37633 C 3889.11 -1.05855 -3.30775 0
M  V30 37634 C 3888.06 -2.14787 -3.70203 0
M  V30 37635 C 3887.39 -1.76158 -5.04849 0
M  V30 37636 C 3888.69 -3.56678 -3.81547 0
M  V30 37637 H 3890.38 -2.23888 -1.98783 0
M  V30 37638 H 3887.93 -1.07777 -0.954994 0
M  V30 37639 H 3889.88 -1.00873 -4.09149 0
M  V30 37640 H 3888.6 -0.0807378 -3.265 0
M  V30 37641 H 3887.26 -2.1885 -2.94109 0
M  V30 37642 H 3886.91 -0.770186 -4.97069 0
M  V30 37643 H 3886.61 -2.49071 -5.32201 0
M  V30 37644 H 3888.14 -1.72684 -5.85673 0
M  V30 37645 H 3889.55 -3.54987 -4.50174 0
M  V30 37646 H 3887.95 -4.28273 -4.20359 0
M  V30 37647 H 3889.02 -3.93499 -2.83349 0
M  V30 37648 N 3890.36 1.03684 -1.1869 0
M  V30 37649 C 3891.61 1.766 -0.982687 0
M  V30 37650 C 3891.93 1.88782 0.48852 0
M  V30 37651 O 3891.2 1.4156 1.35416 0
M  V30 37652 H 3889.78 0.654196 -0.360606 0
M  V30 37653 H 3892.44 1.25113 -1.49442 0
M  V30 37654 H 3891.54 2.77722 -1.42396 0
M  V30 37655 N 3891.84 0.989551 1.22661 0
M  V30 37656 C 3893.09 0.66222 1.90943 0
M  V30 37657 C 3893.41 -0.807868 1.77478 0
M  V30 37658 O 3892.68 -1.57872 1.15988 0
M  V30 37659 H 3891.26 0.241944 0.706733 0
M  V30 37660 H 3893.92 1.25534 1.49088 0
M  V30 37661 H 3893.01 0.921829 2.98176 0
M  V30 37662 N 3893.32 -1.37936 0.762332 0
M  V30 37663 C 3894.55 -2.03899 0.33301 0
M  V30 37664 C 3894.95 -1.57622 -1.04651 0
M  V30 37665 O 3894.3 -0.748533 -1.67758 0
M  V30 37666 C 3894.36 -3.58353 0.286907 0
M  V30 37667 C 3894.02 -4.27722 1.60943 0
M  V30 37668 C 3895.02 -4.52493 2.5602 0
M  V30 37669 C 3892.7 -4.6574 1.88128 0
M  V30 37670 C 3894.7 -5.14325 3.76495 0
M  V30 37671 C 3892.39 -5.27295 3.08875 0
M  V30 37672 C 3893.38 -5.51524 4.02878 0
M  V30 37673 O 3893.07 -6.11794 5.215 0
M  V30 37674 H 3892.8 -0.661584 0.138863 0
M  V30 37675 H 3895.36 -1.77439 1.03463 0
M  V30 37676 H 3893.59 -3.83821 -0.471018 0
M  V30 37677 H 3895.28 -4.0574 -0.114075 0
M  V30 37678 H 3896.04 -4.23543 2.36297 0
M  V30 37679 H 3891.92 -4.46221 1.15791 0
M  V30 37680 H 3895.47 -5.33153 4.49882 0
M  V30 37681 H 3891.36 -5.55668 3.28487 0
M  V30 37682 H 3892.13 -6.30278 5.22199 0
M  V30 37683 N 3894.79 -0.512106 -1.49048 0
M  V30 37684 C 3896.21 -0.168778 -1.58705 0
M  V30 37685 C 3896.41 1.32722 -1.51615 0
M  V30 37686 O 3895.47 2.10408 -1.39587 0
M  V30 37687 C 3896.78 -0.755442 -2.91056 0
M  V30 37688 C 3898.33 -0.722552 -3.04546 0
M  V30 37689 C 3898.8 -1.28747 -4.39532 0
M  V30 37690 N 3900.29 -1.24866 -4.46052 0
M  V30 37691 C 3901.03 -1.65584 -5.48971 0
M  V30 37692 N 3900.52 -2.13948 -6.58937 0
M  V30 37693 N 3902.32 -1.56932 -5.39749 0
M  V30 37694 H 3894.47 -1.4846 -1.51899 0
M  V30 37695 H 3896.73 -0.616462 -0.720193 0
M  V30 37696 H 3896.44 -1.80504 -3.01846 0
M  V30 37697 H 3896.31 -0.222225 -3.76545 0
M  V30 37698 H 3898.7 0.31824 -2.93379 0
M  V30 37699 H 3898.78 -1.29304 -2.20713 0
M  V30 37700 H 3898.42 -2.32711 -4.51451 0
M  V30 37701 H 3898.35 -0.692826 -5.22022 0
M  V30 37702 H 3900.84 -0.894418 -3.67163 0
M  V30 37703 H 3901.16 -2.43059 -7.33582 0
M  V30 37704 H 3899.5 -2.1793 -6.59948 0
M  V30 37705 H 3902.69 -1.18958 -4.52732 0
M  V30 37706 H 3902.87 -1.88987 -6.19829 0
M  V30 37707 N 3896.27 1.55662 -0.246424 0
M  V30 37708 C 3897.51 2.00837 0.379994 0
M  V30 37709 C 3897.88 1.13085 1.55164 0
M  V30 37710 O 3899.08 1.47714 2.24575 0
M  V30 37711 C 3897.35 3.48786 0.779936 0
M  V30 37712 S 3898.91 4.1597 1.39695 0
M  V30 37713 H 3895.72 0.700871 0.119584 0
M  V30 37714 H 3898.33 1.92128 -0.361546 0
M  V30 37715 H 3897.03 4.10318 -0.0820945 0
M  V30 37716 H 3896.56 3.6142 1.55367 0
M  V30 37717 H 3898.58 4.17216 2.68598 0
M  V30 37718 N 3897.75 -0.0266943 1.57577 0
M  V30 37719 C 3899 -0.715612 1.89006 0
M  V30 37720 C 3899.32 -1.75769 0.844419 0
M  V30 37721 O 3898.59 -1.95522 -0.121659 0
M  V30 37722 H 3897.17 -0.267296 0.69754 0
M  V30 37723 H 3899.83 0.00791522 1.94898 0
M  V30 37724 H 3898.93 -1.20369 2.87954 0
M  V30 37725 N 3899.23 -1.54738 -0.299007 0
M  V30 37726 C 3900.47 -1.75851 -1.04191 0
M  V30 37727 C 3900.83 -0.534133 -1.84421 0
M  V30 37728 O 3902.03 -0.623042 -2.6148 0
M  V30 37729 C 3900.3 -3.01303 -1.92227 0
M  V30 37730 S 3901.86 -3.43427 -2.73136 0
M  V30 37731 H 3898.68 -0.618118 -0.351357 0
M  V30 37732 H 3901.28 -1.92944 -0.3151 0
M  V30 37733 H 3899.99 -3.88537 -1.32165 0
M  V30 37734 H 3899.52 -2.86803 -2.69272 0
M  V30 37735 H 3901.53 -3.00654 -3.94742 0
M  V30 37736 N 3900.71 0.562296 -1.47228 0
M  V30 37737 C 3902.12 1.14443 -1.47511 0
M  V30 37738 C 3902.47 1.94882 -0.227024 0
M  V30 37739 O 3901.59 2.05817 0.668446 0
M  V30 37740 C 3902.19 2.08212 -2.6727 0
M  V30 37741 C 3900.75 2.61708 -2.70529 0
M  V30 37742 C 3899.89 1.37984 -2.40532 0
M  V30 37743 H 3902.84 0.349158 -1.54811 0
M  V30 37744 H 3902.87 2.92008 -2.4395 0
M  V30 37745 H 3902.38 1.4964 -3.58091 0
M  V30 37746 H 3900.48 3.24093 -1.83833 0
M  V30 37747 H 3900.59 3.03049 -3.71077 0
M  V30 37748 H 3898.96 1.68486 -1.9101 0
M  V30 37749 H 3899.74 0.812118 -3.33556 0
M  V30 37750 N 3902.18 1.35274 0.808615 0
M  V30 37751 C 3903.12 1.23882 1.92837 0
M  V30 37752 C 3904.13 0.162572 1.61986 0
M  V30 37753 O 3905.32 0.415671 1.73593 0
M  V30 37754 C 3902.42 0.884426 3.27156 0
M  V30 37755 C 3901.59 2.05862 3.85927 0
M  V30 37756 C 3900.65 1.68033 4.98649 0
M  V30 37757 O 3899.68 2.3988 5.16184 0
M  V30 37758 N 3900.88 0.602785 5.77362 0
M  V30 37759 H 3903.64 2.20353 2.03137 0
M  V30 37760 H 3901.2 1.28417 0.985933 0
M  V30 37761 H 3903.2 0.612884 4.00032 0
M  V30 37762 H 3901.77 0.00946079 3.12599 0
M  V30 37763 H 3900.99 2.49408 3.05269 0
M  V30 37764 H 3902.27 2.84355 4.21924 0
M  V30 37765 H 3901.67 0.00580685 5.657 0
M  V30 37766 H 3900.23 0.391018 6.50626 0
M  V30 37767 N 3903.66 -1.03053 1.19239 0
M  V30 37768 C 3904.91 -1.76077 0.992039 0
M  V30 37769 C 3905.23 -1.89038 -0.478501 0
M  V30 37770 O 3904.5 -1.42276 -1.34664 0
M  V30 37771 H 3903.08 -0.652274 0.36407 0
M  V30 37772 H 3905.74 -1.24318 1.50103 0
M  V30 37773 H 3904.84 -2.76963 1.43867 0
M  V30 37774 N 3905.14 -0.996042 -1.22134 0
M  V30 37775 C 3906.37 -0.691203 -1.94695 0
M  V30 37776 C 3906.78 0.748718 -1.73755 0
M  V30 37777 O 3906.12 1.51724 -1.03563 0
M  V30 37778 C 3906.18 -0.921213 -3.47497 0
M  V30 37779 C 3905.85 -2.34623 -3.92175 0
M  V30 37780 C 3906.84 -3.32593 -3.99598 0
M  V30 37781 C 3904.53 -2.68149 -4.24737 0
M  V30 37782 C 3906.52 -4.62161 -4.3896 0
M  V30 37783 C 3904.21 -3.97937 -4.63778 0
M  V30 37784 C 3905.21 -4.94754 -4.70859 0
M  V30 37785 O 3904.9 -6.22221 -5.09015 0
M  V30 37786 H 3904.63 -0.254592 -0.626226 0
M  V30 37787 H 3907.18 -1.3344 -1.5615 0
M  V30 37788 H 3905.41 -0.220837 -3.86069 0
M  V30 37789 H 3907.1 -0.611141 -4.01273 0
M  V30 37790 H 3907.87 -3.08024 -3.74628 0
M  V30 37791 H 3903.75 -1.93492 -4.18428 0
M  V30 37792 H 3907.29 -5.37729 -4.44402 0
M  V30 37793 H 3903.19 -4.22293 -4.88199 0
M  V30 37794 H 3903.96 -6.26204 -5.27078 0
M  V30 37795 N 3906.62 1.37529 -0.769636 0
M  V30 37796 C 3907.87 1.98987 -0.329696 0
M  V30 37797 C 3908.18 1.61788 1.09928 0
M  V30 37798 O 3909.39 2.16333 1.6405 0
M  V30 37799 C 3907.84 3.55848 -0.538523 0
M  V30 37800 C 3907.45 4.01988 -1.97762 0
M  V30 37801 C 3909.19 4.2419 -0.1621 0
M  V30 37802 C 3907.1 5.5155 -2.13416 0
M  V30 37803 H 3906.03 0.744466 -0.119527 0
M  V30 37804 H 3908.68 1.57087 -0.948464 0
M  V30 37805 H 3907.06 3.95717 0.14967 0
M  V30 37806 H 3908.24 3.73369 -2.70059 0
M  V30 37807 H 3906.55 3.46421 -2.31044 0
M  V30 37808 H 3909.15 5.34079 -0.257601 0
M  V30 37809 H 3909.49 4.06733 0.88737 0
M  V30 37810 H 3910.03 3.89616 -0.802761 0
M  V30 37811 H 3906.77 5.73932 -3.16674 0
M  V30 37812 H 3906.29 5.8186 -1.45599 0
M  V30 37813 H 3907.96 6.17489 -1.93176 0
M  V30 37814 N 3908.1 0.520003 1.48774 0
M  V30 37815 C 3909.03 -0.285182 2.27419 0
M  V30 37816 C 3910.04 -0.913517 1.34754 0
M  V30 37817 O 3911.23 -0.793644 1.59886 0
M  V30 37818 C 3908.33 -1.41816 3.07801 0
M  V30 37819 C 3907.5 -0.893607 4.28175 0
M  V30 37820 C 3906.56 -1.90649 4.90448 0
M  V30 37821 O 3905.59 -1.46742 5.4996 0
M  V30 37822 N 3906.79 -3.2381 4.81796 0
M  V30 37823 H 3909.56 0.389262 2.97161 0
M  V30 37824 H 3907.12 0.353712 1.57989 0
M  V30 37825 H 3909.11 -2.0937 3.46332 0
M  V30 37826 H 3907.68 -1.99643 2.40544 0
M  V30 37827 H 3906.9 -0.0423686 3.94177 0
M  V30 37828 H 3908.19 -0.521863 5.06117 0
M  V30 37829 H 3907.58 -3.62157 4.34579 0
M  V30 37830 H 3906.14 -3.87026 5.24456 0
M  V30 37831 N 3909.57 -1.55529 0.254676 0
M  V30 37832 C 3910.52 -2.18369 -0.655667 0
M  V30 37833 C 3911.51 -1.14194 -1.13351 0
M  V30 37834 O 3912.7 -1.40079 -1.08199 0
M  V30 37835 C 3909.83 -2.89267 -1.84877 0
M  V30 37836 C 3908.92 -4.00706 -1.38907 0
M  V30 37837 N 3909.31 -5.01682 -0.644112 0
M  V30 37838 C 3907.6 -4.13404 -1.67372 0
M  V30 37839 C 3908.31 -5.80288 -0.40507 0
M  V30 37840 N 3907.28 -5.34847 -0.971557 0
M  V30 37841 H 3911.08 -2.93795 -0.0784381 0
M  V30 37842 H 3908.6 -1.62299 0.0573285 0
M  V30 37843 H 3910.59 -3.3272 -2.51203 0
M  V30 37844 H 3909.25 -2.15345 -2.43015 0
M  V30 37845 H 3910.27 -5.17068 -0.29345 0
M  V30 37846 H 3906.94 -3.50659 -2.26593 0
M  V30 37847 H 3908.33 -6.71631 0.190177 0
M  V30 37848 N 3911.05 0.0183372 -1.57589 0
M  V30 37849 C 3912.28 0.717416 -1.93744 0
M  V30 37850 C 3912.69 1.68842 -0.853757 0
M  V30 37851 O 3912.03 1.82839 0.177616 0
M  V30 37852 C 3912.1 1.5203 -3.25772 0
M  V30 37853 C 3911.76 0.712901 -4.51405 0
M  V30 37854 C 3912.76 0.00850322 -5.19899 0
M  V30 37855 C 3910.44 0.664277 -4.97888 0
M  V30 37856 C 3912.44 -0.733703 -6.33163 0
M  V30 37857 C 3910.12 -0.0816677 -6.11045 0
M  V30 37858 C 3911.12 -0.779408 -6.78538 0
M  V30 37859 O 3910.81 -1.51322 -7.8953 0
M  V30 37860 H 3910.54 0.205985 -0.643853 0
M  V30 37861 H 3913.09 -0.0233421 -2.05387 0
M  V30 37862 H 3911.32 2.30512 -3.10485 0
M  V30 37863 H 3913.01 2.10299 -3.47173 0
M  V30 37864 H 3913.78 0.0370321 -4.84986 0
M  V30 37865 H 3909.66 1.19688 -4.45192 0
M  V30 37866 H 3913.2 -1.27885 -6.85778 0
M  V30 37867 H 3909.1 -0.112082 -6.45403 0
M  V30 37868 H 3909.87 -1.42801 -8.05947 0
M  V30 37869 N 3912.53 1.54894 0.290797 0
M  V30 37870 C 3913.46 1.82936 1.38084 0
M  V30 37871 C 3914.48 0.712836 1.46364 0
M  V30 37872 O 3915.66 0.990458 1.485 0
M  V30 37873 C 3912.76 1.96144 2.7637 0
M  V30 37874 C 3911.94 3.26644 2.90899 0
M  V30 37875 C 3911 3.30141 4.09748 0
M  V30 37876 O 3910.02 4.03618 4.01349 0
M  V30 37877 N 3911.22 2.56263 5.20874 0
M  V30 37878 H 3913.99 2.77015 1.1438 0
M  V30 37879 H 3911.55 1.54593 0.480889 0
M  V30 37880 H 3913.54 1.95874 3.54141 0
M  V30 37881 H 3912.11 1.09013 2.92976 0
M  V30 37882 H 3911.33 3.39603 2.00158 0
M  V30 37883 H 3912.62 4.12743 2.97524 0
M  V30 37884 H 3912.02 1.96217 5.3058 0
M  V30 37885 H 3910.58 2.61735 5.9694 0
M  V30 37886 N 3914.01 -0.55448 1.47524 0
M  V30 37887 C 3915.25 -1.31115 1.555 0
M  V30 37888 C 3915.61 -1.91189 0.215561 0
M  V30 37889 O 3914.9 -1.75047 -0.779041 0
M  V30 37890 C 3915.1 -2.44016 2.61134 0
M  V30 37891 C 3914.93 -1.95006 4.0522 0
M  V30 37892 C 3913.7 -1.78724 4.72637 0
M  V30 37893 C 3915.89 -1.49293 4.92155 0
M  V30 37894 N 3913.88 -1.24082 6.01229 0
M  V30 37895 C 3915.25 -1.06434 6.10796 0
M  V30 37896 C 3917.3 -1.37369 4.78575 0
M  V30 37897 C 3916 -0.528374 7.17357 0
M  V30 37898 C 3918.03 -0.851736 5.85234 0
M  V30 37899 C 3917.39 -0.433094 7.03067 0
M  V30 37900 H 3913.49 -0.471712 0.623708 0
M  V30 37901 H 3916.08 -0.62819 1.84287 0
M  V30 37902 H 3914.25 -3.09839 2.3421 0
M  V30 37903 H 3915.98 -3.1102 2.58938 0
M  V30 37904 H 3912.73 -2.0152 4.28587 0
M  V30 37905 H 3913.16 -0.988414 6.69746 0
M  V30 37906 H 3917.8 -1.68347 3.87839 0
M  V30 37907 H 3915.52 -0.206228 8.07837 0
M  V30 37908 H 3919.1 -0.762996 5.76775 0
M  V30 37909 H 3917.98 -0.0354684 7.84192 0
M  V30 37910 N 3915.49 -1.35701 -0.80143 0
M  V30 37911 C 3916.43 -1.29087 -1.93493 0
M  V30 37912 C 3917.43 -0.184836 -1.68389 0
M  V30 37913 O 3918.63 -0.351128 -1.76542 0
M  V30 37914 H 3915.01 -0.401571 -0.635802 0
M  V30 37915 H 3916.98 -2.24837 -1.96191 0
M  V30 37916 C 3915.73 -1.08493 -3.3034 0
M  V30 37917 H 3915.05 -1.92842 -3.50217 0
M  V30 37918 H 3916.49 -1.07908 -4.10039 0
M  V30 37919 C 3914.95 0.210998 -3.36239 0
M  V30 37920 O 3915.48 1.20501 -3.832 0
M  V30 37921 N 3913.69 0.251549 -2.89509 0
M  V30 37922 H 3913.23 -0.55796 -2.51485 0
M  V30 37923 H 3913.19 1.11834 -2.93837 0
M  V30 37924 N 3916.96 1.02419 -1.19783 0
M  V30 37925 C 3917.9 2.10894 -0.897581 0
M  V30 37926 C 3918.91 1.62417 0.111616 0
M  V30 37927 O 3920.1 1.78107 -0.118412 0
M  V30 37928 C 3917.2 3.37359 -0.322773 0
M  V30 37929 C 3916.37 4.15004 -1.38167 0
M  V30 37930 C 3915.43 5.19779 -0.819553 0
M  V30 37931 O 3914.46 5.49123 -1.4984 0
M  V30 37932 N 3915.66 5.79289 0.374823 0
M  V30 37933 H 3918.42 2.3724 -1.83132 0
M  V30 37934 H 3915.98 1.18748 -1.10047 0
M  V30 37935 H 3917.98 4.04644 0.0672334 0
M  V30 37936 H 3916.55 3.08323 0.515346 0
M  V30 37937 H 3915.77 3.428 -1.94633 0
M  V30 37938 H 3917.05 4.63665 -2.09504 0
M  V30 37939 H 3916.45 5.57772 0.943758 0
M  V30 37940 H 3915.01 6.47959 0.706554 0
M  V30 37941 N 3918.44 1.0025 1.21604 0
M  V30 37942 C 3919.68 0.692125 1.92325 0
M  V30 37943 C 3920.05 -0.762789 1.76197 0
M  V30 37944 O 3921.25 -1.18503 2.41268 0
M  V30 37945 C 3919.52 1.09859 3.40097 0
M  V30 37946 S 3921.08 0.908036 4.29302 0
M  V30 37947 H 3917.9 0.252756 0.664556 0
M  V30 37948 H 3920.5 1.28681 1.47179 0
M  V30 37949 H 3919.2 2.15365 3.49351 0
M  V30 37950 H 3918.73 0.4961 3.90259 0
M  V30 37951 H 3920.75 -0.196234 4.95812 0
M  V30 37952 N 3919.92 -1.37119 0.776919 0
M  V30 37953 C 3921.17 -1.99859 0.344099 0
M  V30 37954 C 3921.5 -1.6153 -1.07803 0
M  V30 37955 O 3920.78 -0.863993 -1.74257 0
M  V30 37956 C 3921.06 -3.56701 0.493574 0
M  V30 37957 C 3920.91 -4.04923 1.95849 0
M  V30 37958 C 3922.23 -4.39989 -0.0990197 0
M  V30 37959 H 3919.35 -0.726062 0.126502 0
M  V30 37960 H 3921.99 -1.6272 0.980927 0
M  V30 37961 H 3920.14 -3.8847 -0.0485661 0
M  V30 37962 H 3921.81 -3.83698 2.56074 0
M  V30 37963 H 3920.06 -3.56925 2.4655 0
M  V30 37964 H 3920.73 -5.13943 2.01411 0
M  V30 37965 H 3923.2 -4.14508 0.363618 0
M  V30 37966 H 3922.08 -5.48888 0.0356713 0
M  V30 37967 H 3922.34 -4.25787 -1.18987 0
M  V30 37968 N 3921.4 -0.527886 -1.48496 0
M  V30 37969 C 3922.68 0.0712705 -1.9547 0
M  V30 37970 C 3923.06 1.51499 -1.47007 0
M  V30 37971 O 3922.4 2.17653 -0.695647 0
M  V30 37972 C 3922.61 -0.043816 -3.48972 0
M  V30 37973 C 3923.96 0.116517 -4.2444 0
M  V30 37974 O 3924.99 0.0300805 -3.56187 0
M  V30 37975 O 3923.85 0.297395 -5.4569 0
M  V30 37976 H 3920.94 0.0804595 -0.823077 0
M  V30 37977 H 3923.49 -0.592335 -1.59027 0
M  V30 37978 H 3922.26 -1.04958 -3.76961 0
M  V30 37979 H 3921.88 0.658734 -3.92105 0
M  V30 37980 N 3922.88 1.55391 -0.26292 0
M  V30 37981 C 3923.79 2.25696 0.640184 0
M  V30 37982 C 3924.8 1.27859 1.18017 0
M  V30 37983 O 3925.98 1.6077 1.21305 0
M  V30 37984 C 3923.04 2.955 1.81331 0
M  V30 37985 C 3922.11 4.08786 1.31121 0
M  V30 37986 C 3921.34 4.75251 2.42841 0
M  V30 37987 O 3921.56 4.40865 3.61931 0
M  V30 37988 O 3920.5 5.63446 2.11689 0
M  V30 37989 H 3924.32 3.03617 0.0710247 0
M  V30 37990 H 3921.91 1.49368 -0.0307912 0
M  V30 37991 H 3923.79 3.3941 2.49758 0
M  V30 37992 H 3922.46 2.20506 2.36978 0
M  V30 37993 H 3921.37 3.69358 0.593751 0
M  V30 37994 H 3922.7 4.85645 0.800625 0
M  V30 37995 N 3924.36 -0.00997961 1.57597 0
M  V30 37996 C 3925.3 -1.02288 2.08902 0
M  V30 37997 C 3926.3 -1.36232 1.00684 0
M  V30 37998 O 3927.5 -1.34913 1.19157 0
M  V30 37999 H 3923.88 -0.34748 0.666905 0
M  V30 38000 H 3925.85 -0.564529 2.93011 0
M  V30 38001 C 3924.6 -2.30919 2.59946 0
M  V30 38002 H 3923.92 -2.05666 3.42844 0
M  V30 38003 H 3925.36 -3.00093 2.99533 0
M  V30 38004 C 3923.82 -3.01209 1.50912 0
M  V30 38005 O 3924.35 -3.91801 0.886285 0
M  V30 38006 N 3922.56 -2.62863 1.239 0
M  V30 38007 H 3922.1 -1.89278 1.74733 0
M  V30 38008 H 3922.06 -3.10209 0.511645 0
M  V30 38009 N 3925.83 -1.55046 -0.282578 0
M  V30 38010 C 3926.74 -1.90351 -1.37126 0
M  V30 38011 C 3927.76 -0.799666 -1.54536 0
M  V30 38012 O 3928.94 -1.09785 -1.68847 0
M  V30 38013 C 3926 -2.1598 -2.71207 0
M  V30 38014 C 3925.06 -3.39597 -2.62626 0
M  V30 38015 C 3924.29 -3.63994 -3.90313 0
M  V30 38016 O 3924.52 -2.91069 -4.90546 0
M  V30 38017 O 3923.45 -4.57525 -3.91094 0
M  V30 38018 H 3927.28 -2.83007 -1.10184 0
M  V30 38019 H 3924.86 -1.4147 -0.480268 0
M  V30 38020 H 3926.74 -2.33932 -3.50505 0
M  V30 38021 H 3925.42 -1.26508 -2.97955 0
M  V30 38022 H 3924.33 -3.2699 -1.81737 0
M  V30 38023 H 3925.66 -4.29258 -2.40829 0
M  V30 38024 N 3927.31 0.546649 -1.47816 0
M  V30 38025 C 3928.55 1.314 -1.56568 0
M  V30 38026 C 3928.92 1.90652 -0.227134 0
M  V30 38027 O 3930.12 2.68131 -0.189553 0
M  V30 38028 C 3928.39 2.38664 -2.66034 0
M  V30 38029 S 3929.95 3.25346 -2.94441 0
M  V30 38030 H 3926.76 0.447193 -0.552756 0
M  V30 38031 H 3929.37 0.624656 -1.85252 0
M  V30 38032 H 3928.07 1.93586 -3.61874 0
M  V30 38033 H 3927.6 3.12326 -2.39199 0
M  V30 38034 H 3929.62 4.38378 -2.32463 0
M  V30 38035 N 3928.79 1.36124 0.794222 0
M  V30 38036 C 3930.01 1.33394 1.58811 0
M  V30 38037 C 3930.44 -0.0834269 1.87915 0
M  V30 38038 O 3929.8 -1.05396 1.47517 0
M  V30 38039 C 3929.85 2.15821 2.88884 0
M  V30 38040 O 3928.95 1.5474 3.82268 0
M  V30 38041 H 3928.29 0.456785 0.481916 0
M  V30 38042 H 3930.82 1.79341 0.984787 0
M  V30 38043 H 3930.83 2.28225 3.38197 0
M  V30 38044 H 3929.51 3.18857 2.67027 0
M  V30 38045 H 3928.08 1.51248 3.4085 0
M  V30 38046 N 3930.27 -1.01782 1.20325 0
M  V30 38047 C 3931.22 -2.12414 0.947791 0
M  V30 38048 C 3932.21 -1.69102 -0.100413 0
M  V30 38049 O 3933.42 -1.79931 0.0498345 0
M  V30 38050 H 3929.79 -0.694183 0.28916 0
M  V30 38051 H 3931.76 -2.31145 1.88718 0
M  V30 38052 C 3930.51 -3.43864 0.51509 0
M  V30 38053 H 3929.83 -3.77616 1.31325 0
M  V30 38054 H 3931.27 -4.22334 0.37555 0
M  V30 38055 C 3929.73 -3.27927 -0.772355 0
M  V30 38056 O 3930.26 -3.57539 -1.83109 0
M  V30 38057 N 3928.47 -2.8118 -0.733899 0
M  V30 38058 H 3928.02 -2.57282 0.127947 0
M  V30 38059 H 3927.97 -2.70899 -1.59566 0
M  V30 38060 N 3931.75 -1.00894 -1.21071 0
M  V30 38061 C 3933.16 -0.726607 -1.71981 0
M  V30 38062 C 3933.51 0.755454 -1.81073 0
M  V30 38063 O 3932.63 1.58993 -1.46799 0
M  V30 38064 C 3933.23 -1.31231 -3.12352 0
M  V30 38065 C 3931.79 -1.07901 -3.60603 0
M  V30 38066 C 3930.93 -1.42271 -2.38021 0
M  V30 38067 H 3933.88 -1.17936 -1.06192 0
M  V30 38068 H 3933.91 -0.698965 -3.74025 0
M  V30 38069 H 3933.42 -2.39097 -3.05703 0
M  V30 38070 H 3931.52 -0.0176823 -3.72596 0
M  V30 38071 H 3931.63 -1.75368 -4.45851 0
M  V30 38072 H 3930 -0.841573 -2.40395 0
M  V30 38073 H 3930.78 -2.51177 -2.34019 0
M  V30 38074 N 3933.22 1.36705 -0.78418 0
M  V30 38075 C 3934.17 2.32001 -0.166868 0
M  V30 38076 C 3935.17 1.55549 0.670888 0
M  V30 38077 O 3936.37 1.70851 0.566558 0
M  V30 38078 H 3932.75 0.751177 -0.0351823 0
M  V30 38079 H 3934.72 2.81635 -0.986124 0
M  V30 38080 C 3933.47 3.40824 0.68804 0
M  V30 38081 H 3932.79 3.99765 0.0527641 0
M  V30 38082 H 3934.23 4.09837 1.08673 0
M  V30 38083 C 3932.69 2.81952 1.84403 0
M  V30 38084 O 3933.22 2.73696 2.94029 0
M  V30 38085 N 3931.43 2.39317 1.64851 0
M  V30 38086 H 3930.97 2.46231 0.756824 0
M  V30 38087 H 3930.93 2.00272 2.4236 0
M  V30 38088 N 3934.7 0.535753 1.48214 0
M  V30 38089 C 3935.67 -0.213172 2.28207 0
M  V30 38090 C 3936.67 -0.862499 1.35711 0
M  V30 38091 O 3937.86 -0.72166 1.58549 0
M  V30 38092 C 3934.99 -1.30911 3.14762 0
M  V30 38093 H 3936.18 0.489215 2.95883 0
M  V30 38094 H 3933.73 0.291899 1.5355 0
M  V30 38095 H 3934.47 -2.04457 2.5173 0
M  V30 38096 H 3934.25 -0.848566 3.82808 0
M  V30 38097 H 3935.74 -1.83573 3.75088 0
M  V30 38098 N 3936.18 -1.5525 0.271158 0
M  V30 38099 C 3937.42 -2.01416 -0.347995 0
M  V30 38100 C 3937.78 -1.15539 -1.53345 0
M  V30 38101 O 3938.99 -1.51268 -2.22197 0
M  V30 38102 C 3937.26 -3.49983 -0.724348 0
M  V30 38103 S 3938.82 -4.1814 -1.33059 0
M  V30 38104 H 3935.63 -0.702685 -0.108419 0
M  V30 38105 H 3938.24 -1.91528 0.392066 0
M  V30 38106 H 3936.94 -4.10135 0.147362 0
M  V30 38107 H 3936.47 -3.63846 -1.49597 0
M  V30 38108 H 3938.49 -4.21437 -2.61927 0
M  V30 38109 N 3937.66 0.00162173 -1.576 0
M  V30 38110 C 3938.91 0.685452 -1.90121 0
M  V30 38111 C 3939.23 1.74403 -0.872275 0
M  V30 38112 O 3938.5 1.95691 0.0905376 0
M  V30 38113 H 3937.08 0.256165 -0.701704 0
M  V30 38114 H 3939.74 -0.0389209 -1.94861 0
M  V30 38115 H 3938.84 1.15773 -2.89833 0
M  V30 38116 N 3939.14 1.55194 0.274352 0
M  V30 38117 C 3940.36 1.80091 1.02868 0
M  V30 38118 C 3940.79 0.571708 1.79201 0
M  V30 38119 O 3940.14 -0.478648 1.74868 0
M  V30 38120 C 3940.19 3.02422 1.96401 0
M  V30 38121 O 3939.3 2.77413 3.05149 0
M  V30 38122 H 3938.64 0.595281 0.29417 0
M  V30 38123 H 3941.17 2.02334 0.303672 0
M  V30 38124 H 3941.18 3.31118 2.3838 0
M  V30 38125 H 3939.85 3.91538 1.40254 0
M  V30 38126 H 3938.43 2.59809 2.67495 0
M  V30 38127 N 3940.61 -0.538802 1.48104 0
M  V30 38128 C 3941.58 -1.62638 1.61498 0
M  V30 38129 C 3942.58 -1.5319 0.488819 0
M  V30 38130 O 3943.77 -1.57018 0.754383 0
M  V30 38131 C 3940.9 -3.02238 1.57687 0
M  V30 38132 H 3942.09 -1.52105 2.58465 0
M  V30 38133 H 3939.65 -0.760177 1.36569 0
M  V30 38134 H 3940.38 -3.18286 0.621638 0
M  V30 38135 H 3940.17 -3.10505 2.39436 0
M  V30 38136 H 3941.66 -3.81326 1.70235 0
M  V30 38137 N 3942.09 -1.36544 -0.786992 0
M  V30 38138 C 3943.32 -1.34234 -1.58101 0
M  V30 38139 C 3943.74 0.0734601 -1.87957 0
M  V30 38140 O 3943.1 1.04612 -1.48074 0
M  V30 38141 C 3943.15 -2.1735 -2.87735 0
M  V30 38142 O 3942.25 -1.56765 -3.81442 0
M  V30 38143 H 3941.59 -0.459335 -0.479487 0
M  V30 38144 H 3944.12 -1.79861 -0.975262 0
M  V30 38145 H 3944.13 -2.30016 -3.36982 0
M  V30 38146 H 3942.81 -3.20268 -2.65332 0
M  V30 38147 H 3941.39 -1.53053 -3.40043 0
M  V30 38148 N 3943.57 1.01143 -1.20863 0
M  V30 38149 C 3944.81 1.76359 -1.0333 0
M  V30 38150 C 3945.17 1.87203 0.426506 0
M  V30 38151 O 3946.38 2.58917 0.722173 0
M  V30 38152 C 3944.65 3.14162 -1.70403 0
M  V30 38153 S 3946.21 4.05349 -1.6804 0
M  V30 38154 H 3943.02 0.60689 -0.370413 0
M  V30 38155 H 3945.63 1.21066 -1.53503 0
M  V30 38156 H 3944.33 3.03898 -2.75815 0
M  V30 38157 H 3943.86 3.74529 -1.20382 0
M  V30 38158 H 3945.88 4.90993 -0.716935 0
M  V30 38159 N 3945.05 1.01535 1.20534 0
M  V30 38160 C 3946.28 0.722089 1.9357 0
M  V30 38161 C 3946.69 -0.72098 1.74924 0
M  V30 38162 O 3946.03 -1.50058 1.05964 0
M  V30 38163 C 3946.09 0.976381 3.45987 0
M  V30 38164 C 3945.76 2.40832 3.88393 0
M  V30 38165 C 3946.75 3.38908 3.94256 0
M  V30 38166 C 3944.44 2.74873 4.20417 0
M  V30 38167 C 3946.43 4.69086 4.31552 0
M  V30 38168 C 3944.12 4.05264 4.57388 0
M  V30 38169 C 3945.12 5.02182 4.62928 0
M  V30 38170 O 3944.8 6.3024 4.99051 0
M  V30 38171 H 3944.54 0.264522 0.622097 0
M  V30 38172 H 3947.09 1.35908 1.54007 0
M  V30 38173 H 3945.32 0.282229 3.85669 0
M  V30 38174 H 3947.01 0.674903 4.0025 0
M  V30 38175 H 3947.78 3.13945 3.6968 0
M  V30 38176 H 3943.65 2.00124 4.15297 0
M  V30 38177 H 3947.2 5.44731 4.35791 0
M  V30 38178 H 3943.1 4.30007 4.81419 0
M  V30 38179 H 3943.86 6.3451 5.17048 0
M  V30 38180 N 3946.53 -1.36288 0.791419 0
M  V30 38181 C 3947.47 -2.31909 0.179169 0
M  V30 38182 C 3948.47 -1.55902 -0.66263 0
M  V30 38183 O 3949.67 -1.71149 -0.557489 0
M  V30 38184 H 3946.05 -0.750979 0.0391654 0
M  V30 38185 H 3948.02 -2.81108 1.00105 0
M  V30 38186 C 3946.77 -3.41185 -0.669956 0
M  V30 38187 H 3946.09 -3.99788 -0.0315628 0
M  V30 38188 H 3947.53 -4.10407 -1.06499 0
M  V30 38189 C 3945.99 -2.82926 -1.82905 0
M  V30 38190 O 3946.52 -2.75252 -2.92574 0
M  V30 38191 N 3944.73 -2.40187 -1.6358 0
M  V30 38192 H 3944.27 -2.46629 -0.743755 0
M  V30 38193 H 3944.23 -2.01555 -2.41294 0
M  V30 38194 N 3948.01 -0.543606 -1.47928 0
M  V30 38195 C 3949.23 -0.0189551 -2.06891 0
M  V30 38196 C 3949.65 1.26864 -1.39825 0
M  V30 38197 O 3949.01 1.75793 -0.490228 0
M  V30 38198 C 3949.06 0.194532 -3.60976 0
M  V30 38199 O 3948.78 -1.04206 -4.25526 0
M  V30 38200 C 3950.28 0.758016 -4.36771 0
M  V30 38201 H 3947.5 -0.0396743 -0.669826 0
M  V30 38202 H 3950.04 -0.753139 -1.90126 0
M  V30 38203 H 3948.2 0.878803 -3.77301 0
M  V30 38204 H 3948.61 -0.831282 -5.17871 0
M  V30 38205 H 3950.09 0.85675 -5.45311 0
M  V30 38206 H 3950.56 1.76614 -4.02125 0
M  V30 38207 H 3951.17 0.109878 -4.25158 0
M  V30 38208 N 3949.48 1.55104 -0.279387 0
M  V30 38209 C 3950.41 2.25665 0.599791 0
M  V30 38210 C 3951.39 1.24833 1.15546 0
M  V30 38211 O 3952.58 1.53561 1.1888 0
M  V30 38212 C 3949.71 2.98099 1.78196 0
M  V30 38213 C 3948.66 4.05897 1.35764 0
M  V30 38214 C 3947.99 4.65928 2.62326 0
M  V30 38215 C 3949.29 5.19856 0.504704 0
M  V30 38216 H 3950.98 2.99398 0.0113235 0
M  V30 38217 H 3948.53 1.43999 0.00400618 0
M  V30 38218 H 3950.48 3.46175 2.40294 0
M  V30 38219 H 3949.21 2.21909 2.39633 0
M  V30 38220 H 3947.87 3.58639 0.759847 0
M  V30 38221 H 3947.51 3.86401 3.2203 0
M  V30 38222 H 3947.21 5.38717 2.34644 0
M  V30 38223 H 3948.74 5.16755 3.25264 0
M  V30 38224 H 3950.15 5.63957 1.03079 0
M  V30 38225 H 3948.55 5.99232 0.322591 0
M  V30 38226 H 3949.62 4.82563 -0.475493 0
M  V30 38227 N 3950.96 0.0067362 1.57599 0
M  V30 38228 C 3952.21 -0.67536 1.90482 0
M  V30 38229 C 3952.53 -1.73938 0.881512 0
M  V30 38230 O 3951.8 -1.95736 -0.0801583 0
M  V30 38231 H 3950.38 -0.25244 0.703053 0
M  V30 38232 H 3953.04 0.0492543 1.94838 0
M  V30 38233 H 3952.14 -1.14234 2.90443 0
M  V30 38234 N 3952.44 -1.55337 -0.266118 0
M  V30 38235 C 3953.66 -1.80634 -1.01911 0
M  V30 38236 C 3954.09 -0.581203 -1.78896 0
M  V30 38237 O 3953.45 0.469368 -1.75119 0
M  V30 38238 C 3953.5 -3.03459 -1.94795 0
M  V30 38239 O 3952.6 -2.79027 -3.03673 0
M  V30 38240 H 3951.94 -0.596833 -0.291009 0
M  V30 38241 H 3954.47 -2.02492 -0.292937 0
M  V30 38242 H 3954.48 -3.32378 -2.3662 0
M  V30 38243 H 3953.16 -3.92276 -1.38175 0
M  V30 38244 H 3951.73 -2.61224 -2.66113 0
M  V30 38245 N 3953.92 0.53094 -1.48387 0
M  V30 38246 C 3955.15 1.30968 -1.59784 0
M  V30 38247 C 3955.56 1.87448 -0.256863 0
M  V30 38248 O 3954.9 1.67068 0.763815 0
M  V30 38249 C 3954.96 2.49902 -2.58436 0
M  V30 38250 C 3954.62 2.14517 -4.03524 0
M  V30 38251 C 3955.62 1.70246 -4.91236 0
M  V30 38252 C 3953.31 2.25069 -4.49054 0
M  V30 38253 C 3955.3 1.36992 -6.22505 0
M  V30 38254 C 3952.99 1.91427 -5.80344 0
M  V30 38255 C 3953.99 1.47459 -6.66892 0
M  V30 38256 O 3953.67 1.14258 -7.95739 0
M  V30 38257 H 3953.41 0.404578 -0.541565 0
M  V30 38258 H 3955.96 0.647315 -1.94933 0
M  V30 38259 H 3954.19 3.19117 -2.18406 0
M  V30 38260 H 3955.88 3.11965 -2.59678 0
M  V30 38261 H 3956.64 1.61564 -4.57299 0
M  V30 38262 H 3952.52 2.58247 -3.81876 0
M  V30 38263 H 3956.07 1.02601 -6.90014 0
M  V30 38264 H 3951.96 1.99749 -6.13816 0
M  V30 38265 H 3952.73 1.27664 -8.08483 0
M  V30 38266 N 3955.4 1.36959 0.779739 0
M  V30 38267 C 3956.34 1.32074 1.89275 0
M  V30 38268 C 3957.31 0.187689 1.65036 0
M  V30 38269 O 3958.5 0.375769 1.87063 0
M  V30 38270 C 3955.64 1.12558 3.26228 0
M  V30 38271 C 3954.75 2.35023 3.62475 0
M  V30 38272 C 3953.89 2.08443 4.88595 0
M  V30 38273 C 3952.92 3.26817 5.17549 0
M  V30 38274 N 3952.06 2.99839 6.34855 0
M  V30 38275 H 3956.9 2.27239 1.92786 0
M  V30 38276 H 3954.44 1.12928 0.942636 0
M  V30 38277 H 3956.4 0.992666 4.05218 0
M  V30 38278 H 3955.03 0.210444 3.22113 0
M  V30 38279 H 3954.08 2.59084 2.78532 0
M  V30 38280 H 3955.39 3.2333 3.79814 0
M  V30 38281 H 3954.54 1.92137 5.75472 0
M  V30 38282 H 3953.28 1.17462 4.73343 0
M  V30 38283 H 3952.29 3.43671 4.2915 0
M  V30 38284 H 3953.51 4.18638 5.34714 0
M  V30 38285 H 3951.46 2.11479 6.20977 0
M  V30 38286 H 3951.38 3.81687 6.52573 0
M  V30 38287 H 3952.64 2.87133 7.24689 0
M  V30 38288 N 3956.87 -1.00501 1.21398 0
M  V30 38289 C 3958.11 -1.75808 1.04264 0
M  V30 38290 C 3958.48 -1.87426 -0.416572 0
M  V30 38291 O 3959.68 -2.59297 -0.708432 0
M  V30 38292 C 3957.95 -3.13254 1.72066 0
M  V30 38293 S 3959.51 -4.04452 1.70188 0
M  V30 38294 H 3956.33 -0.604917 0.373626 0
M  V30 38295 H 3958.93 -1.2025 1.54143 0
M  V30 38296 H 3957.63 -3.02431 2.77423 0
M  V30 38297 H 3957.16 -3.73885 1.22366 0
M  V30 38298 H 3959.18 -4.90606 0.742964 0
M  V30 38299 N 3958.35 -1.02172 -1.19994 0
M  V30 38300 C 3959.31 -0.601075 -2.21178 0
M  V30 38301 C 3960.31 0.331503 -1.57346 0
M  V30 38302 O 3961.5 0.119491 -1.7379 0
M  V30 38303 C 3958.64 0.121498 -3.40683 0
M  V30 38304 H 3959.83 -1.49626 -2.59908 0
M  V30 38305 H 3957.38 -0.812094 -1.33547 0
M  V30 38306 H 3958.12 1.03136 -3.07463 0
M  V30 38307 H 3957.9 -0.548516 -3.88244 0
M  V30 38308 H 3959.39 0.402973 -4.15651 0
M  V30 38309 N 3959.83 1.35866 -0.798635 0
M  V30 38310 C 3961.07 2.00821 -0.380825 0
M  V30 38311 C 3961.43 1.61997 1.03058 0
M  V30 38312 O 3962.63 2.19612 1.54997 0
M  V30 38313 C 3960.91 3.53148 -0.549666 0
M  V30 38314 S 3962.46 4.38243 -0.221099 0
M  V30 38315 H 3959.28 0.696053 -0.145021 0
M  V30 38316 H 3961.88 1.65596 -1.03915 0
M  V30 38317 H 3960.59 3.78891 -1.57701 0
M  V30 38318 H 3960.12 3.93204 0.12426 0
M  V30 38319 H 3962.13 4.86545 0.974081 0
M  V30 38320 N 3961.31 0.551443 1.47638 0
M  V30 38321 C 3962.72 0.116546 1.86336 0
M  V30 38322 C 3963.07 -1.3121 1.45871 0
M  V30 38323 O 3962.19 -1.98615 0.859138 0
M  V30 38324 C 3962.79 0.20473 3.38181 0
M  V30 38325 C 3961.35 -0.175095 3.75993 0
M  V30 38326 C 3960.5 0.554891 2.71691 0
M  V30 38327 H 3963.45 0.761496 1.39237 0
M  V30 38328 H 3963.47 -0.578148 3.76082 0
M  V30 38329 H 3962.98 1.24462 3.67601 0
M  V30 38330 H 3961.08 -1.21632 3.52188 0
M  V30 38331 H 3961.19 0.179452 4.78764 0
M  V30 38332 H 3959.56 -0.00136298 2.547 0
M  V30 38333 H 3960.34 1.59583 3.03954 0
M  V30 38334 N 3962.79 -1.54953 0.287609 0
M  V30 38335 C 3964.01 -2.04735 -0.331406 0
M  V30 38336 C 3964.44 -1.16412 -1.4775 0
M  V30 38337 O 3963.79 -0.165329 -1.80545 0
M  V30 38338 C 3963.84 -3.52106 -0.778061 0
M  V30 38339 O 3962.95 -3.66843 -1.88415 0
M  V30 38340 H 3962.29 -0.660651 -0.0666057 0
M  V30 38341 H 3964.82 -2.00126 0.425551 0
M  V30 38342 H 3964.83 -3.93707 -1.07048 0
M  V30 38343 H 3963.5 -4.15856 0.0603915 0
M  V30 38344 H 3962.08 -3.37147 -1.59332 0
M  V30 38345 N 3964.26 -0.0150939 -1.57593 0
M  V30 38346 C 3965.51 0.665249 -1.90837 0
M  V30 38347 C 3965.83 1.73468 -0.890724 0
M  V30 38348 O 3965.1 1.95776 0.0697769 0
M  V30 38349 H 3963.68 0.248708 -0.704381 0
M  V30 38350 H 3966.35 -0.0595863 -1.94809 0
M  V30 38351 H 3965.44 1.12692 -2.91044 0
M  V30 38352 N 3965.74 1.55476 0.257876 0
M  V30 38353 C 3966.99 1.76793 0.987439 0
M  V30 38354 C 3967.32 0.577444 1.85731 0
M  V30 38355 O 3966.57 -0.439613 1.90698 0
M  V30 38356 C 3966.87 3.03497 1.88744 0
M  V30 38357 C 3966.54 4.35353 1.17384 0
M  V30 38358 C 3965.2 4.71186 0.976579 0
M  V30 38359 C 3967.55 5.16912 0.667208 0
M  V30 38360 C 3964.88 5.86123 0.260211 0
M  V30 38361 C 3967.23 6.3259 -0.0356395 0
M  V30 38362 C 3965.9 6.67052 -0.244476 0
M  V30 38363 H 3965.17 0.646933 0.361329 0
M  V30 38364 H 3967.81 1.89748 0.258435 0
M  V30 38365 H 3966.12 2.85507 2.68315 0
M  V30 38366 H 3967.81 3.17188 2.45342 0
M  V30 38367 H 3964.4 4.07196 1.33751 0
M  V30 38368 H 3968.59 4.89692 0.807185 0
M  V30 38369 H 3963.84 6.11337 0.0878316 0
M  V30 38370 H 3968.02 6.95034 -0.435897 0
M  V30 38371 H 3965.65 7.55963 -0.801536 0
M  V30 38372 N 3967.22 -0.523064 1.48667 0
M  V30 38373 C 3968.45 -1.30784 1.60967 0
M  V30 38374 C 3968.87 -1.86113 0.272696 0
M  V30 38375 O 3968.23 -1.64757 -0.756633 0
M  V30 38376 C 3968.28 -2.42964 2.6646 0
M  V30 38377 O 3967.38 -3.46198 2.241 0
M  V30 38378 H 3966.72 -0.387055 0.539523 0
M  V30 38379 H 3969.25 -0.628649 1.94703 0
M  V30 38380 H 3969.26 -2.89051 2.87948 0
M  V30 38381 H 3967.94 -2.02056 3.63519 0
M  V30 38382 H 3966.51 -3.06183 2.12853 0
M  V30 38383 N 3968.7 -1.37371 -0.772465 0
M  V30 38384 C 3969.95 -1.3254 -1.531 0
M  V30 38385 C 3970.27 0.0903267 -1.9429 0
M  V30 38386 O 3969.53 1.06339 -1.64288 0
M  V30 38387 C 3969.83 -2.20971 -2.80903 0
M  V30 38388 C 3969.49 -3.69255 -2.58769 0
M  V30 38389 C 3968.16 -4.09667 -2.52441 0
M  V30 38390 C 3970.51 -4.632 -2.38946 0
M  V30 38391 C 3967.84 -5.4214 -2.24279 0
M  V30 38392 C 3970.19 -5.9591 -2.12307 0
M  V30 38393 C 3968.85 -6.35427 -2.04423 0
M  V30 38394 H 3968.12 -0.484997 -0.560231 0
M  V30 38395 H 3970.77 -1.69571 -0.889829 0
M  V30 38396 H 3969.07 -1.76932 -3.49575 0
M  V30 38397 H 3970.77 -2.14547 -3.38778 0
M  V30 38398 H 3967.36 -3.37205 -2.64557 0
M  V30 38399 H 3971.54 -4.32839 -2.42825 0
M  V30 38400 H 3966.8 -5.71721 -2.16669 0
M  V30 38401 H 3970.97 -6.68259 -1.95967 0
M  V30 38402 H 3968.6 -7.38002 -1.82365 0
M  V30 38403 N 3970.18 0.998553 -1.21929 0
M  V30 38404 C 3971.45 1.71033 -0.949064 0
M  V30 38405 C 3971.83 2.04145 0.537393 0
M  V30 38406 O 3971.18 1.72028 1.50394 0
M  V30 38407 C 3971.39 2.96505 -1.84081 0
M  V30 38408 C 3972.74 3.69401 -2.09352 0
M  V30 38409 O 3973.76 3.065 -1.81483 0
M  V30 38410 O 3972.62 4.82555 -2.56521 0
M  V30 38411 H 3969.72 0.746246 -0.356436 0
M  V30 38412 H 3972.26 1.0554 -1.32888 0
M  V30 38413 H 3971.03 2.68494 -2.84651 0
M  V30 38414 H 3970.66 3.69736 -1.46221 0
M  V30 38415 N 3971.65 1.02807 1.1945 0
M  V30 38416 C 3972.59 0.566285 2.22094 0
M  V30 38417 C 3973.6 -0.357414 1.58828 0
M  V30 38418 O 3974.79 -0.153934 1.77835 0
M  V30 38419 C 3971.89 -0.194234 3.38343 0
M  V30 38420 C 3971.06 0.734207 4.31194 0
M  V30 38421 C 3970.12 0.0192351 5.26196 0
M  V30 38422 O 3969.15 0.645535 5.65528 0
M  V30 38423 N 3970.35 -1.25177 5.66843 0
M  V30 38424 H 3973.11 1.44907 2.6234 0
M  V30 38425 H 3970.67 0.907002 1.34108 0
M  V30 38426 H 3972.67 -0.682066 3.98911 0
M  V30 38427 H 3971.24 -0.978421 2.96893 0
M  V30 38428 H 3970.46 1.40214 3.6842 0
M  V30 38429 H 3971.74 1.36525 4.90141 0
M  V30 38430 H 3971.14 -1.78135 5.36921 0
M  V30 38431 H 3969.7 -1.68412 6.29667 0
M  V30 38432 N 3973.13 -1.35441 0.805829 0
M  V30 38433 C 3974.38 -1.9879 0.385843 0
M  V30 38434 C 3974.71 -1.63929 -1.04678 0
M  V30 38435 O 3973.96 -0.894155 -1.74079 0
M  V30 38436 C 3974.26 -3.53664 0.515397 0
M  V30 38437 C 3973.93 -4.08391 1.91122 0
M  V30 38438 C 3972.59 -4.23049 2.2931 0
M  V30 38439 C 3974.94 -4.38034 2.82445 0
M  V30 38440 C 3972.27 -4.64669 3.5819 0
M  V30 38441 C 3974.62 -4.81093 4.1077 0
M  V30 38442 C 3973.29 -4.93956 4.48958 0
M  V30 38443 H 3972.56 -0.727425 0.14119 0
M  V30 38444 H 3975.2 -1.61666 1.02647 0
M  V30 38445 H 3973.51 -3.91244 -0.208684 0
M  V30 38446 H 3975.2 -4.00634 0.171222 0
M  V30 38447 H 3971.79 -3.97433 1.60453 0
M  V30 38448 H 3975.98 -4.26264 2.54191 0
M  V30 38449 H 3971.23 -4.72817 3.87626 0
M  V30 38450 H 3975.41 -5.02992 4.81635 0
M  V30 38451 H 3973.04 -5.25964 5.48877 0
M  V30 38452 N 3974.61 -0.559265 -1.47343 0
M  V30 38453 C 3975.84 -0.0389228 -2.07363 0
M  V30 38454 C 3976.26 1.24628 -1.40889 0
M  V30 38455 O 3975.62 1.74704 -0.48457 0
M  V30 38456 C 3975.67 0.137831 -3.60336 0
M  V30 38457 O 3974.77 1.19993 -3.94557 0
M  V30 38458 H 3974.11 -0.052248 -0.661941 0
M  V30 38459 H 3976.64 -0.775534 -1.89332 0
M  V30 38460 H 3976.65 0.35139 -4.06484 0
M  V30 38461 H 3975.33 -0.800848 -4.08117 0
M  V30 38462 H 3973.9 0.966694 -3.60152 0
M  V30 38463 N 3976.09 1.54799 -0.295822 0
M  V30 38464 C 3977.31 2.04908 0.320544 0
M  V30 38465 C 3977.74 1.17193 1.4713 0
M  V30 38466 O 3977.1 0.174901 1.80454 0
M  V30 38467 C 3977.14 3.52514 0.759377 0
M  V30 38468 O 3976.25 3.67837 1.86467 0
M  V30 38469 H 3975.59 0.660995 0.0631012 0
M  V30 38470 H 3978.12 1.99897 -0.436158 0
M  V30 38471 H 3978.13 3.94269 1.04958 0
M  V30 38472 H 3976.8 4.15818 -0.0824445 0
M  V30 38473 H 3975.38 3.37987 1.57541 0
M  V30 38474 N 3977.57 0.0234513 1.57583 0
M  V30 38475 C 3978.53 -0.945288 2.08799 0
M  V30 38476 C 3979.53 -1.25771 1.00192 0
M  V30 38477 O 3980.72 -1.19899 1.26372 0
M  V30 38478 C 3977.85 -2.26348 2.5491 0
M  V30 38479 H 3979.05 -0.501818 2.95672 0
M  V30 38480 H 3976.6 -0.224479 1.5468 0
M  V30 38481 H 3977.33 -2.75336 1.7135 0
M  V30 38482 H 3977.12 -2.04986 3.3425 0
M  V30 38483 H 3978.61 -2.95796 2.94779 0
M  V30 38484 N 3979.05 -1.5561 -0.249627 0
M  V30 38485 C 3980.29 -1.79077 -0.985435 0
M  V30 38486 C 3980.65 -0.592535 -1.82628 0
M  V30 38487 O 3981.85 -0.705915 -2.59365 0
M  V30 38488 C 3980.12 -3.07266 -1.82544 0
M  V30 38489 S 3981.68 -3.51943 -2.62071 0
M  V30 38490 H 3978.5 -0.628983 -0.331514 0
M  V30 38491 H 3981.1 -1.93849 -0.253557 0
M  V30 38492 H 3979.8 -3.92545 -1.19737 0
M  V30 38493 H 3979.34 -2.95225 -2.60011 0
M  V30 38494 H 3981.35 -3.13061 -3.84977 0
M  V30 38495 N 3980.52 0.515172 -1.48942 0
M  V30 38496 C 3981.47 1.61479 -1.60961 0
M  V30 38497 C 3982.46 1.54006 -0.465937 0
M  V30 38498 O 3983.65 1.61776 -0.718162 0
M  V30 38499 C 3980.78 3.0015 -1.66629 0
M  V30 38500 C 3979.86 3.12672 -2.86526 0
M  V30 38501 N 3980.26 2.95124 -4.10774 0
M  V30 38502 C 3978.55 3.43751 -2.84167 0
M  V30 38503 C 3979.25 3.11455 -4.91295 0
M  V30 38504 N 3978.23 3.39697 -4.2439 0
M  V30 38505 H 3982.03 1.46545 -2.54759 0
M  V30 38506 H 3979.55 0.720981 -1.45518 0
M  V30 38507 H 3981.54 3.79158 -1.73335 0
M  V30 38508 H 3980.2 3.16165 -0.739578 0
M  V30 38509 H 3981.21 2.71585 -4.40978 0
M  V30 38510 H 3977.89 3.66032 -2.00816 0
M  V30 38511 H 3979.28 3.025 -5.99953 0
M  V30 38512 N 3982 1.37779 0.765169 0
M  V30 38513 C 3983.28 1.23879 1.51372 0
M  V30 38514 C 3983.66 -0.164815 2.10456 0
M  V30 38515 O 3983.01 -1.17314 1.96086 0
M  V30 38516 C 3983.22 2.33995 2.58935 0
M  V30 38517 C 3984.56 2.71857 3.26157 0
M  V30 38518 O 3985.59 2.3322 2.69234 0
M  V30 38519 O 3984.45 3.38445 4.29089 0
M  V30 38520 H 3981.54 0.483772 0.670741 0
M  V30 38521 H 3984.09 1.49576 0.801571 0
M  V30 38522 H 3982.86 3.2796 2.13443 0
M  V30 38523 H 3982.48 2.09798 3.37743 0
M  V30 38524 N 3983.48 -0.992073 1.22457 0
M  V30 38525 C 3984.73 -1.7343 1.05118 0
M  V30 38526 C 3985.06 -1.89766 -0.412608 0
M  V30 38527 O 3984.33 -1.44143 -1.30587 0
M  V30 38528 C 3984.62 -3.1394 1.7639 0
M  V30 38529 C 3984.47 -3.05247 3.3037 0
M  V30 38530 C 3985.79 -4.1313 1.51696 0
M  V30 38531 H 3982.91 -0.629501 0.383272 0
M  V30 38532 H 3985.55 -1.15574 1.50807 0
M  V30 38533 H 3983.7 -3.63335 1.3755 0
M  V30 38534 H 3985.37 -2.63467 3.78659 0
M  V30 38535 H 3983.61 -2.42032 3.60004 0
M  V30 38536 H 3984.29 -4.04681 3.75417 0
M  V30 38537 H 3986.76 -3.72495 1.85436 0
M  V30 38538 H 3985.64 -5.0956 2.04058 0
M  V30 38539 H 3985.9 -4.39807 0.449731 0
M  V30 38540 N 3984.96 -1.03439 -1.18904 0
M  V30 38541 C 3985.91 -0.613597 -2.24361 0
M  V30 38542 C 3986.9 0.356512 -1.65606 0
M  V30 38543 O 3988.11 0.224488 -1.78595 0
M  V30 38544 H 3984.48 -0.180183 -0.730095 0
M  V30 38545 H 3986.45 -1.51355 -2.57166 0
M  V30 38546 C 3985.2 0.0140514 -3.47697 0
M  V30 38547 H 3984.52 -0.723463 -3.932 0
M  V30 38548 H 3985.96 0.271349 -4.23131 0
M  V30 38549 C 3984.42 1.26226 -3.1236 0
M  V30 38550 O 3984.95 2.35373 -3.25519 0
M  V30 38551 N 3983.16 1.15314 -2.66742 0
M  V30 38552 H 3982.71 0.264965 -2.56234 0
M  V30 38553 H 3982.66 1.98922 -2.43469 0
M  V30 38554 N 3986.44 1.35011 -0.813001 0
M  V30 38555 C 3987.35 2.33474 -0.229575 0
M  V30 38556 C 3988.36 1.62163 0.630808 0
M  V30 38557 O 3989.54 1.93996 0.541049 0
M  V30 38558 C 3986.6 3.41345 0.606995 0
M  V30 38559 C 3985.66 4.28421 -0.274629 0
M  V30 38560 C 3984.9 5.3114 0.522109 0
M  V30 38561 O 3985.12 5.42689 1.75626 0
M  V30 38562 O 3984.05 6.01832 -0.0903724 0
M  V30 38563 H 3987.88 2.85182 -1.04428 0
M  V30 38564 H 3985.46 1.37895 -0.574924 0
M  V30 38565 H 3987.35 4.07238 1.08328 0
M  V30 38566 H 3986.02 2.91898 1.39919 0
M  V30 38567 H 3984.93 3.65486 -0.798188 0
M  V30 38568 H 3986.26 4.81282 -1.03093 0
M  V30 38569 N 3987.91 0.567071 1.47044 0
M  V30 38570 C 3989.15 0.0491972 2.04341 0
M  V30 38571 C 3989.52 -1.28029 1.43083 0
M  V30 38572 O 3990.72 -1.88645 1.91485 0
M  V30 38573 C 3988.99 -0.0319104 3.57386 0
M  V30 38574 S 3990.55 -0.494478 4.36005 0
M  V30 38575 H 3987.37 0.0299039 0.710371 0
M  V30 38576 H 3989.97 0.756036 1.8029 0
M  V30 38577 H 3988.67 0.9399 3.99492 0
M  V30 38578 H 3988.2 -0.762002 3.8595 0
M  V30 38579 H 3990.22 -1.7523 4.64229 0
M  V30 38580 N 3989.39 -1.5464 0.304027 0
M  V30 38581 C 3990.62 -2.05075 -0.309673 0
M  V30 38582 C 3991.04 -1.17972 -1.46507 0
M  V30 38583 O 3990.4 -0.184469 -1.80359 0
M  V30 38584 C 3990.45 -3.52911 -0.740672 0
M  V30 38585 O 3989.55 -3.6882 -1.84514 0
M  V30 38586 H 3988.89 -0.66132 -0.0595949 0
M  V30 38587 H 3991.42 -1.99663 0.446753 0
M  V30 38588 H 3991.43 -3.9482 -1.02866 0
M  V30 38589 H 3990.11 -4.15769 0.104495 0
M  V30 38590 H 3988.68 -3.38818 -1.55747 0
M  V30 38591 N 3990.87 -0.0318079 -1.57568 0
M  V30 38592 C 3992.09 0.659919 -1.96621 0
M  V30 38593 C 3992.52 1.64713 -0.908363 0
M  V30 38594 O 3991.88 1.8083 0.130459 0
M  V30 38595 C 3991.93 1.34027 -3.34767 0
M  V30 38596 O 3991.03 2.4556 -3.31321 0
M  V30 38597 H 3990.37 0.173149 -0.641027 0
M  V30 38598 H 3992.9 -0.094459 -2.04382 0
M  V30 38599 H 3992.91 1.69644 -3.71059 0
M  V30 38600 H 3991.59 0.616644 -4.11303 0
M  V30 38601 H 3990.16 2.12035 -3.0675 0
M  V30 38602 N 3992.35 1.55741 0.241371 0
M  V30 38603 C 3993.57 1.82233 0.990248 0
M  V30 38604 C 3994 0.60959 1.77948 0
M  V30 38605 O 3993.36 -0.441449 1.75843 0
M  V30 38606 C 3993.4 3.0652 1.89942 0
M  V30 38607 O 3992.51 2.83823 2.99196 0
M  V30 38608 H 3991.85 0.601387 0.281477 0
M  V30 38609 H 3994.38 2.02932 0.260686 0
M  V30 38610 H 3994.39 3.361 2.31303 0
M  V30 38611 H 3993.06 3.94424 1.31917 0
M  V30 38612 H 3991.64 2.65425 2.61924 0
M  V30 38613 N 3993.83 -0.507266 1.49213 0
M  V30 38614 C 3994.77 -1.6095 1.6542 0
M  V30 38615 C 3995.74 -1.58529 0.495765 0
M  V30 38616 O 3996.93 -1.76611 0.722033 0
M  V30 38617 C 3994.07 -2.99125 1.721 0
M  V30 38618 C 3993.18 -3.11609 2.99205 0
M  V30 38619 C 3992.32 -4.40479 2.96903 0
M  V30 38620 C 3991.36 -4.46574 4.18614 0
M  V30 38621 N 3990.49 -5.66864 4.14258 0
M  V30 38622 H 3995.33 -1.46439 2.59537 0
M  V30 38623 H 3992.87 -0.712586 1.28688 0
M  V30 38624 H 3994.83 -3.79204 1.73954 0
M  V30 38625 H 3993.46 -3.12354 0.814539 0
M  V30 38626 H 3992.51 -2.24634 3.06991 0
M  V30 38627 H 3993.82 -3.11973 3.89197 0
M  V30 38628 H 3992.98 -5.28873 2.97285 0
M  V30 38629 H 3991.71 -4.42672 2.04678 0
M  V30 38630 H 3990.72 -3.56583 4.18483 0
M  V30 38631 H 3991.94 -4.46103 5.12025 0
M  V30 38632 H 3989.89 -5.6991 3.24867 0
M  V30 38633 H 3989.81 -5.68817 4.97979 0
M  V30 38634 H 3991.08 -6.57482 4.18734 0
M  V30 38635 N 3995.3 -1.38182 -0.757851 0
M  V30 38636 C 3996.25 -1.35177 -1.89288 0
M  V30 38637 C 3997.25 -0.238314 -1.67715 0
M  V30 38638 O 3998.45 -0.407115 -1.75336 0
M  V30 38639 H 3994.83 -0.421596 -0.622705 0
M  V30 38640 H 3996.8 -2.30964 -1.88939 0
M  V30 38641 C 3995.55 -1.18948 -3.26721 0
M  V30 38642 H 3994.87 -2.03886 -3.43905 0
M  V30 38643 H 3996.31 -1.20898 -4.06398 0
M  V30 38644 C 3994.77 0.103919 -3.3674 0
M  V30 38645 O 3995.3 1.08249 -3.8684 0
M  V30 38646 N 3993.51 0.159316 -2.90163 0
M  V30 38647 H 3993.05 -0.637685 -2.49582 0
M  V30 38648 H 3993.01 1.02429 -2.97247 0
M  V30 38649 N 3996.78 0.985565 -1.22981 0
M  V30 38650 C 3998.19 1.54068 -1.0545 0
M  V30 38651 C 3998.54 1.92489 0.379774 0
M  V30 38652 O 3997.67 1.75518 1.26579 0
M  V30 38653 C 3998.26 2.79967 -1.90799 0
M  V30 38654 C 3996.82 3.31896 -1.77544 0
M  V30 38655 C 3995.97 2.04926 -1.86817 0
M  V30 38656 H 3998.92 0.805826 -1.36719 0
M  V30 38657 H 3998.94 3.52617 -1.42973 0
M  V30 38658 H 3998.45 2.51972 -2.95181 0
M  V30 38659 H 3996.56 3.64783 -0.759242 0
M  V30 38660 H 3996.67 4.02003 -2.60634 0
M  V30 38661 H 3995.03 2.18823 -1.30339 0
M  V30 38662 H 3995.82 1.79319 -2.92745 0
M  V30 38663 N 3998.26 1.04068 1.18353 0
M  V30 38664 C 3999.5 0.752961 1.90026 0
M  V30 38665 C 3999.86 -0.706347 1.78535 0
M  V30 38666 O 4001.07 -1.10768 2.44916 0
M  V30 38667 C 3999.34 1.20623 3.36429 0
M  V30 38668 S 4000.9 1.04416 4.26196 0
M  V30 38669 H 3997.71 0.273771 0.656179 0
M  V30 38670 H 4000.32 1.33298 1.4301 0
M  V30 38671 H 3999.02 2.2637 3.42323 0
M  V30 38672 H 3998.55 0.620007 3.88484 0
M  V30 38673 H 4000.57 -0.0383955 4.96185 0
M  V30 38674 N 3999.74 -1.34578 0.820149 0
M  V30 38675 C 4000.69 -2.31477 0.22832 0
M  V30 38676 C 4001.68 -1.57273 -0.629411 0
M  V30 38677 O 4002.89 -1.72293 -0.521061 0
M  V30 38678 H 3999.26 -0.74998 0.055086 0
M  V30 38679 H 4001.23 -2.78921 1.06045 0
M  V30 38680 C 3999.98 -3.42529 -0.597435 0
M  V30 38681 H 3999.3 -3.99765 0.0532452 0
M  V30 38682 H 4000.74 -4.12574 -0.977692 0
M  V30 38683 C 3999.2 -2.86742 -1.76863 0
M  V30 38684 O 3999.73 -2.81396 -2.86669 0
M  V30 38685 N 3997.94 -2.43603 -1.58448 0
M  V30 38686 H 3997.49 -2.48151 -0.691274 0
M  V30 38687 H 3997.44 -2.06628 -2.36965 0
M  V30 38688 N 4001.22 -0.574861 -1.46742 0
M  V30 38689 C 4002.45 -0.0627444 -2.06505 0
M  V30 38690 C 4002.85 1.24417 -1.42537 0
M  V30 38691 O 4002.2 1.76125 -0.522074 0
M  V30 38692 C 4002.26 0.185511 -3.59021 0
M  V30 38693 C 4001.92 -1.03462 -4.45134 0
M  V30 38694 C 4002.92 -1.9447 -4.82159 0
M  V30 38695 C 4000.61 -1.25426 -4.86388 0
M  V30 38696 C 4002.6 -3.05795 -5.59257 0
M  V30 38697 C 4000.29 -2.37058 -5.63246 0
M  V30 38698 C 4001.28 -3.27073 -5.99594 0
M  V30 38699 O 4000.97 -4.36767 -6.749 0
M  V30 38700 H 4000.7 -0.050905 -0.674081 0
M  V30 38701 H 4003.26 -0.793001 -1.89475 0
M  V30 38702 H 4001.49 0.970288 -3.74329 0
M  V30 38703 H 4003.18 0.645171 -4.0074 0
M  V30 38704 H 4003.94 -1.78713 -4.50873 0
M  V30 38705 H 3999.82 -0.56274 -4.57552 0
M  V30 38706 H 4003.37 -3.7608 -5.87545 0
M  V30 38707 H 3999.26 -2.52781 -5.93946 0
M  V30 38708 H 4000.03 -4.35036 -6.93315 0
M  V30 38709 N 4002.69 1.54476 -0.312224 0
M  V30 38710 C 4003.94 1.99962 0.293157 0
M  V30 38711 C 4004.26 1.20208 1.53542 0
M  V30 38712 O 4003.53 0.300935 1.93575 0
M  V30 38713 H 4002.11 0.73866 0.111312 0
M  V30 38714 H 4004.78 1.90184 -0.426149 0
M  V30 38715 H 4003.87 3.07082 0.557428 0
M  V30 38716 N 4004.17 0.0401637 1.57549 0
M  V30 38717 C 4005.41 -0.640088 1.94119 0
M  V30 38718 C 4005.78 -1.68654 0.917604 0
M  V30 38719 O 4006.98 -2.42007 1.16987 0
M  V30 38720 C 4005.25 -1.23059 3.35546 0
M  V30 38721 S 4006.81 -1.93038 3.94058 0
M  V30 38722 H 4003.63 -0.210463 0.679136 0
M  V30 38723 H 4006.23 0.10647 1.9521 0
M  V30 38724 H 4004.93 -0.4567 4.07851 0
M  V30 38725 H 4004.46 -2.01421 3.37925 0
M  V30 38726 H 4006.48 -3.20992 3.78389 0
M  V30 38727 N 4005.65 -1.55866 -0.233109 0
M  V30 38728 C 4006.88 -1.82756 -0.98057 0
M  V30 38729 C 4007.3 -0.619019 -1.77623 0
M  V30 38730 O 4006.66 0.432117 -1.76075 0
M  V30 38731 C 4006.71 -3.07523 -1.88314 0
M  V30 38732 O 4005.81 -2.85406 -2.97687 0
M  V30 38733 H 4005.15 -0.602872 -0.278284 0
M  V30 38734 H 4007.68 -2.03068 -0.24992 0
M  V30 38735 H 4007.69 -3.37322 -2.29517 0
M  V30 38736 H 4006.37 -3.95119 -1.29824 0
M  V30 38737 H 4004.94 -2.6681 -2.60513 0
M  V30 38738 N 4007.13 0.499346 -1.4948 0
M  V30 38739 C 4008.08 1.62155 -1.66759 0
M  V30 38740 C 4009.07 1.60779 -0.533513 0
M  V30 38741 O 4010.28 1.65268 -0.713196 0
M  V30 38742 H 4006.65 0.537562 -0.525862 0
M  V30 38743 H 4008.62 1.44734 -2.6095 0
M  V30 38744 C 4007.37 3.0028 -1.75293 0
M  V30 38745 H 4006.7 3.02044 -2.61934 0
M  V30 38746 H 4008.14 3.78332 -1.91417 0
M  V30 38747 C 4006.59 3.33197 -0.498114 0
M  V30 38748 O 4007.12 3.99942 0.375457 0
M  V30 38749 N 4005.33 2.88354 -0.360564 0
M  V30 38750 H 4004.88 2.34214 -1.07245 0
M  V30 38751 H 4004.84 3.10746 0.477926 0
M  V30 38752 N 4008.61 1.38582 0.750513 0
M  V30 38753 C 4009.84 1.38199 1.53976 0
M  V30 38754 C 4010.25 -0.0274645 1.8878 0
M  V30 38755 O 4009.61 -0.994867 1.52999 0
M  V30 38756 C 4009.66 2.24048 2.83699 0
M  V30 38757 O 4009.38 3.59503 2.50378 0
M  V30 38758 C 4010.88 2.31878 3.77819 0
M  V30 38759 H 4008.1 0.472593 0.476337 0
M  V30 38760 H 4010.64 1.82201 0.928602 0
M  V30 38761 H 4008.8 1.835 3.41184 0
M  V30 38762 H 4009.21 4.04738 3.33598 0
M  V30 38763 H 4010.69 2.96226 4.65783 0
M  V30 38764 H 4011.16 1.33334 4.18472 0
M  V30 38765 H 4011.77 2.7283 3.26257 0
M  V30 38766 N 4010.09 -0.979029 1.23502 0
M  V30 38767 C 4011 -2.10576 1.03416 0
M  V30 38768 C 4012.01 -1.73986 -0.0217338 0
M  V30 38769 O 4013.19 -2.00647 0.174012 0
M  V30 38770 C 4010.25 -3.40942 0.629252 0
M  V30 38771 C 4009.31 -3.91549 1.76034 0
M  V30 38772 C 4008.55 -5.15692 1.37466 0
M  V30 38773 O 4008.77 -5.69809 0.259494 0
M  V30 38774 O 4007.7 -5.60401 2.19624 0
M  V30 38775 H 4011.53 -2.30412 1.97849 0
M  V30 38776 H 4009.11 -1.08956 1.0222 0
M  V30 38777 H 4011 -4.19357 0.414446 0
M  V30 38778 H 4009.67 -3.22433 -0.286072 0
M  V30 38779 H 4008.58 -3.14245 2.0298 0
M  V30 38780 H 4009.91 -4.14514 2.65403 0
M  V30 38781 N 4011.56 -1.04695 -1.178 0
M  V30 38782 C 4012.81 -0.752567 -1.87566 0
M  V30 38783 C 4013.13 0.722271 -1.8113 0
M  V30 38784 O 4012.4 1.52159 -1.23388 0
M  V30 38785 H 4010.98 -0.275388 -0.694385 0
M  V30 38786 H 4013.64 -1.32504 -1.42929 0
M  V30 38787 H 4012.74 -1.06304 -2.93438 0
M  V30 38788 N 4013.04 1.34141 -0.827275 0
M  V30 38789 C 4014.29 1.9776 -0.416595 0
M  V30 38790 C 4014.61 1.65897 1.02485 0
M  V30 38791 O 4013.88 0.951921 1.71217 0
M  V30 38792 H 4012.46 0.731567 -0.151056 0
M  V30 38793 H 4015.12 1.63705 -1.05768 0
M  V30 38794 H 4014.22 3.07408 -0.539155 0
M  V30 38795 N 4014.52 0.582635 1.46435 0
M  V30 38796 C 4015.75 0.073695 2.06469 0
M  V30 38797 C 4016.16 -1.2366 1.43195 0
M  V30 38798 O 4015.5 -1.75846 0.531407 0
M  V30 38799 C 4015.56 -0.166468 3.59114 0
M  V30 38800 C 4015.23 1.05822 4.44579 0
M  V30 38801 C 4016.22 1.97024 4.81121 0
M  V30 38802 C 4013.91 1.28004 4.85716 0
M  V30 38803 C 4015.9 3.08757 5.57627 0
M  V30 38804 C 4013.59 2.40042 5.61981 0
M  V30 38805 C 4014.59 3.30248 5.97851 0
M  V30 38806 O 4014.28 4.4034 6.72574 0
M  V30 38807 H 4014.01 0.0544791 0.673801 0
M  V30 38808 H 4016.56 0.803039 1.89051 0
M  V30 38809 H 4014.79 -0.950423 3.74838 0
M  V30 38810 H 4016.48 -0.62391 4.01076 0
M  V30 38811 H 4017.25 1.81102 4.49919 0
M  V30 38812 H 4013.13 0.586997 4.57248 0
M  V30 38813 H 4016.67 3.79191 5.85543 0
M  V30 38814 H 4012.57 2.55927 5.92597 0
M  V30 38815 H 4013.33 4.38706 6.90999 0
M  V30 38816 N 4016 -1.54309 0.320412 0
M  V30 38817 C 4016.93 -2.27176 -0.539749 0
M  V30 38818 C 4017.91 -1.27852 -1.12195 0
M  V30 38819 O 4019.09 -1.56659 -1.14767 0
M  V30 38820 C 4016.22 -3.02719 -1.7023 0
M  V30 38821 C 4015.18 -4.09353 -1.24955 0
M  V30 38822 C 4014.5 -4.7272 -2.4988 0
M  V30 38823 C 4015.8 -5.21011 -0.366696 0
M  V30 38824 H 4017.5 -2.99323 0.0680605 0
M  V30 38825 H 4015.04 -1.43959 0.0341741 0
M  V30 38826 H 4017 -3.52424 -2.31031 0
M  V30 38827 H 4015.72 -2.28184 -2.33665 0
M  V30 38828 H 4014.38 -3.60527 -0.664493 0
M  V30 38829 H 4014.03 -3.94803 -3.11672 0
M  V30 38830 H 4013.73 -5.44749 -2.20279 0
M  V30 38831 H 4015.25 -5.25197 -3.11449 0
M  V30 38832 H 4016.67 -5.66492 -0.880902 0
M  V30 38833 H 4015.06 -5.99877 -0.163601 0
M  V30 38834 H 4016.13 -4.81133 0.603269 0
M  V30 38835 N 4017.48 -0.0485183 -1.57525 0
M  V30 38836 C 4018.72 0.629784 -1.94456 0
M  V30 38837 C 4019.08 1.68165 -0.926535 0
M  V30 38838 O 4020.28 2.41383 -1.18269 0
M  V30 38839 C 4018.55 1.21278 -3.36194 0
M  V30 38840 S 4020.11 1.90946 -3.95076 0
M  V30 38841 H 4016.93 0.206858 -0.680243 0
M  V30 38842 H 4019.53 -0.116821 -1.95151 0
M  V30 38843 H 4018.23 0.435064 -4.08087 0
M  V30 38844 H 4017.77 1.99626 -3.38988 0
M  V30 38845 H 4019.78 3.18981 -3.80086 0
M  V30 38846 N 4018.95 1.55988 0.224839 0
M  V30 38847 C 4020.2 1.78495 0.94784 0
M  V30 38848 C 4020.52 0.616446 1.85 0
M  V30 38849 O 4019.79 -0.366813 1.92435 0
M  V30 38850 H 4018.37 0.658344 0.352976 0
M  V30 38851 H 4021.03 1.93448 0.237485 0
M  V30 38852 H 4020.13 2.70512 1.55659 0
M  V30 38853 N 4020.43 -0.491412 1.49743 0
M  V30 38854 C 4021.67 -1.25498 1.61337 0
M  V30 38855 C 4022.04 -1.89677 0.297737 0
M  V30 38856 O 4023.24 -2.67243 0.288937 0
M  V30 38857 C 4021.51 -2.28626 2.74709 0
M  V30 38858 S 4023.07 -3.14193 3.06313 0
M  V30 38859 H 4019.88 -0.42637 0.568972 0
M  V30 38860 H 4022.49 -0.55547 1.87443 0
M  V30 38861 H 4021.19 -1.80022 3.68809 0
M  V30 38862 H 4020.72 -3.03233 2.50626 0
M  V30 38863 H 4022.74 -4.29448 2.48573 0
M  V30 38864 N 4021.91 -1.38978 -0.743153 0
M  V30 38865 C 4023.32 -1.31932 -1.32102 0
M  V30 38866 C 4023.67 0.0200986 -1.9619 0
M  V30 38867 O 4022.8 0.922211 -1.95766 0
M  V30 38868 C 4023.39 -2.38934 -2.402 0
M  V30 38869 C 4021.95 -2.35433 -2.9368 0
M  V30 38870 C 4021.1 -2.2125 -1.67164 0
M  V30 38871 H 4024.05 -1.49185 -0.541256 0
M  V30 38872 H 4024.07 -2.05252 -3.20393 0
M  V30 38873 H 4023.58 -3.36406 -1.93526 0
M  V30 38874 H 4021.68 -1.41574 -3.44656 0
M  V30 38875 H 4021.8 -3.29977 -3.47349 0
M  V30 38876 H 4020.16 -1.68281 -1.9119 0
M  V30 38877 H 4020.94 -3.2068 -1.22554 0
M  V30 38878 N 4023.39 0.972465 -1.2402 0
M  V30 38879 C 4024.8 1.52941 -1.07079 0
M  V30 38880 C 4025.15 1.92881 0.359337 0
M  V30 38881 O 4024.28 1.76851 1.2471 0
M  V30 38882 C 4024.87 2.77927 -1.93758 0
M  V30 38883 C 4023.43 3.29995 -1.81054 0
M  V30 38884 C 4022.58 2.02933 -1.8898 0
M  V30 38885 H 4025.53 0.79128 -1.37566 0
M  V30 38886 H 4025.55 3.51081 -1.46705 0
M  V30 38887 H 4025.06 2.48827 -2.97837 0
M  V30 38888 H 4023.16 3.63957 -0.797889 0
M  V30 38889 H 4023.27 3.99216 -2.64883 0
M  V30 38890 H 4021.64 2.17429 -1.32653 0
M  V30 38891 H 4022.42 1.76204 -2.94631 0
M  V30 38892 N 4024.87 1.05318 1.17243 0
M  V30 38893 C 4026.11 0.762504 1.87164 0
M  V30 38894 C 4026.44 -0.712655 1.81511 0
M  V30 38895 O 4025.71 -1.51502 1.24193 0
M  V30 38896 H 4024.29 0.279066 0.692915 0
M  V30 38897 H 4026.95 1.3326 1.42224 0
M  V30 38898 H 4026.04 1.07859 2.9287 0
M  V30 38899 N 4026.34 -1.33701 0.834377 0
M  V30 38900 C 4027.57 -2.01847 0.440624 0
M  V30 38901 C 4027.98 -1.62948 -0.961484 0
M  V30 38902 O 4027.33 -0.836406 -1.63554 0
M  V30 38903 C 4027.39 -3.56329 0.476459 0
M  V30 38904 C 4027.05 -4.1859 1.8339 0
M  V30 38905 C 4028.05 -4.38286 2.79646 0
M  V30 38906 C 4025.73 -4.55113 2.12551 0
M  V30 38907 C 4027.73 -4.93645 4.03229 0
M  V30 38908 C 4025.41 -5.10181 3.36391 0
M  V30 38909 C 4026.41 -5.29392 4.31547 0
M  V30 38910 O 4026.1 -5.83291 5.53197 0
M  V30 38911 H 4025.83 -0.653293 0.173737 0
M  V30 38912 H 4028.39 -1.71705 1.12723 0
M  V30 38913 H 4026.62 -3.85778 -0.266901 0
M  V30 38914 H 4028.31 -4.05774 0.10116 0
M  V30 38915 H 4029.07 -4.10422 2.58416 0
M  V30 38916 H 4024.95 -4.39456 1.39281 0
M  V30 38917 H 4028.49 -5.08556 4.77511 0
M  V30 38918 H 4024.39 -5.37474 3.5748 0
M  V30 38919 H 4025.16 -6.01711 5.54875 0
M  V30 38920 N 4027.82 -0.590393 -1.46124 0
M  V30 38921 C 4029.05 -0.0846435 -2.06427 0
M  V30 38922 C 4029.46 1.22899 -1.43849 0
M  V30 38923 O 4028.8 1.75562 -0.540725 0
M  V30 38924 C 4028.87 0.147421 -3.59198 0
M  V30 38925 C 4028.53 -1.08178 -4.44012 0
M  V30 38926 C 4029.53 -1.99573 -4.80069 0
M  V30 38927 C 4027.21 -1.30578 -4.85031 0
M  V30 38928 C 4029.21 -3.1171 -5.55982 0
M  V30 38929 C 4026.89 -2.43019 -5.607 0
M  V30 38930 C 4027.89 -3.33414 -5.96091 0
M  V30 38931 O 4027.58 -4.439 -6.70229 0
M  V30 38932 H 4027.31 -0.0580517 -0.673503 0
M  V30 38933 H 4029.86 -0.813053 -1.88623 0
M  V30 38934 H 4028.09 0.930531 -3.75337 0
M  V30 38935 H 4029.78 0.602631 -4.01402 0
M  V30 38936 H 4030.55 -1.83485 -4.48952 0
M  V30 38937 H 4026.43 -0.611238 -4.5693 0
M  V30 38938 H 4029.97 -3.82291 -5.83524 0
M  V30 38939 H 4025.87 -2.59066 -5.91232 0
M  V30 38940 H 4026.64 -4.42365 -6.88662 0
M  V30 38941 N 4029.3 1.54136 -0.328591 0
M  V30 38942 C 4030.72 1.59582 0.0238792 0
M  V30 38943 C 4030.92 1.34499 1.50041 0
M  V30 38944 O 4029.97 1.13189 2.25709 0
M  V30 38945 C 4031.29 2.98043 -0.398865 0
M  V30 38946 C 4032.83 3.11038 -0.349944 0
M  V30 38947 C 4033.31 4.51852 -0.747927 0
M  V30 38948 N 4034.8 4.57857 -0.701528 0
M  V30 38949 C 4035.53 5.64935 -0.981604 0
M  V30 38950 N 4035.03 6.79932 -1.32907 0
M  V30 38951 N 4036.82 5.54737 -0.906832 0
M  V30 38952 H 4028.97 1.68697 -1.29055 0
M  V30 38953 H 4031.24 0.789291 -0.525094 0
M  V30 38954 H 4030.94 3.21414 -1.42779 0
M  V30 38955 H 4030.82 3.76476 0.233573 0
M  V30 38956 H 4033.2 2.87399 0.66978 0
M  V30 38957 H 4033.29 2.34698 -1.01738 0
M  V30 38958 H 4032.93 4.76224 -1.76559 0
M  V30 38959 H 4032.86 5.26568 -0.0581225 0
M  V30 38960 H 4035.35 3.7527 -0.445029 0
M  V30 38961 H 4035.66 7.57543 -1.52803 0
M  V30 38962 H 4034.01 6.81416 -1.36738 0
M  V30 38963 H 4037.2 4.63775 -0.634829 0
M  V30 38964 H 4037.37 6.38099 -1.12846 0
M  V30 38965 N 4030.78 0.0568716 1.57497 0
M  V30 38966 C 4032.02 -0.616546 1.93201 0
M  V30 38967 C 4032.36 -1.70157 0.935966 0
M  V30 38968 O 4031.63 -1.94464 -0.0371663 0
M  V30 38969 C 4031.92 -1.20736 3.39256 0
M  V30 38970 C 4031.77 -0.130002 4.49612 0
M  V30 38971 C 4033.09 -2.11731 3.85821 0
M  V30 38972 H 4030.21 -0.222656 0.702562 0
M  V30 38973 H 4032.85 0.119799 1.89622 0
M  V30 38974 H 4031 -1.83491 3.42437 0
M  V30 38975 H 4032.67 0.502252 4.58558 0
M  V30 38976 H 4030.91 0.541243 4.3041 0
M  V30 38977 H 4031.58 -0.58351 5.48907 0
M  V30 38978 H 4034.06 -1.5893 3.84552 0
M  V30 38979 H 4032.94 -2.5001 4.88657 0
M  V30 38980 H 4033.2 -3.01969 3.22905 0
M  V30 38981 N 4032.26 -1.56105 -0.216564 0
M  V30 38982 C 4033.5 -1.78995 -0.938361 0
M  V30 38983 C 4033.83 -0.626248 -1.8467 0
M  V30 38984 O 4033.1 0.356602 -1.92627 0
M  V30 38985 H 4031.68 -0.660207 -0.34948 0
M  V30 38986 H 4034.34 -1.93571 -0.227222 0
M  V30 38987 H 4033.43 -2.71334 -1.54222 0
M  V30 38988 N 4033.73 0.483463 -1.50001 0
M  V30 38989 C 4034.67 1.60013 -1.64099 0
M  V30 38990 C 4035.68 1.54173 -0.522924 0
M  V30 38991 O 4036.87 1.59786 -0.795649 0
M  V30 38992 C 4033.97 2.98863 -1.59795 0
M  V30 38993 C 4033.14 3.29703 -2.87428 0
M  V30 38994 C 4032.2 4.48047 -2.75936 0
M  V30 38995 O 4031.23 4.48964 -3.49886 0
M  V30 38996 N 4032.43 5.48989 -1.88658 0
M  V30 38997 H 4035.19 1.48341 -2.60413 0
M  V30 38998 H 4032.75 0.671665 -1.4731 0
M  V30 38999 H 4034.75 3.7598 -1.49737 0
M  V30 39000 H 4033.32 3.04368 -0.712666 0
M  V30 39001 H 4032.54 2.41315 -3.11706 0
M  V30 39002 H 4033.82 3.47113 -3.72008 0
M  V30 39003 H 4033.22 5.5106 -1.27867 0
M  V30 39004 H 4031.78 6.25139 -1.84511 0
M  V30 39005 N 4035.21 1.39371 0.735772 0
M  V30 39006 C 4036.46 1.36282 1.49236 0
M  V30 39007 C 4036.78 -0.0408316 1.94957 0
M  V30 39008 O 4036.05 -0.99193 1.68931 0
M  V30 39009 H 4034.63 0.501515 0.553617 0
M  V30 39010 H 4037.29 1.74229 0.873518 0
M  V30 39011 H 4036.39 2.02503 2.37485 0
M  V30 39012 N 4036.69 -0.965875 1.24534 0
M  V30 39013 C 4037.64 -2.04591 1.0063 0
M  V30 39014 C 4038.63 -1.60813 -0.0529016 0
M  V30 39015 O 4039.82 -1.76266 0.161051 0
M  V30 39016 C 4036.95 -3.37746 0.614999 0
M  V30 39017 C 4036.03 -3.88081 1.71038 0
M  V30 39018 N 4036.42 -4.11332 2.94347 0
M  V30 39019 C 4034.72 -4.1676 1.58831 0
M  V30 39020 C 4035.42 -4.52637 3.65369 0
M  V30 39021 N 4034.4 -4.57917 2.92939 0
M  V30 39022 H 4038.2 -2.20545 1.9426 0
M  V30 39023 H 4035.71 -1.14981 1.14687 0
M  V30 39024 H 4037.71 -4.14728 0.42498 0
M  V30 39025 H 4036.37 -3.23177 -0.314092 0
M  V30 39026 H 4037.38 -3.9873 3.30507 0
M  V30 39027 H 4034.06 -4.11115 0.727376 0
M  V30 39028 H 4035.45 -4.79024 4.71154 0
M  V30 39029 N 4038.17 -1.05938 -1.16683 0
M  V30 39030 C 4039.41 -0.783098 -1.88804 0
M  V30 39031 C 4039.77 0.677854 -1.79636 0
M  V30 39032 O 4040.97 1.06857 -2.46647 0
M  V30 39033 C 4039.25 -1.2596 -3.34468 0
M  V30 39034 S 4040.8 -1.11183 -4.24481 0
M  V30 39035 H 4037.62 -0.284175 -0.65174 0
M  V30 39036 H 4040.22 -1.35556 -1.40871 0
M  V30 39037 H 4038.93 -2.31787 -3.38678 0
M  V30 39038 H 4038.46 -0.681733 -3.87448 0
M  V30 39039 H 4040.47 -0.0405481 -4.96183 0
M  V30 39040 N 4039.65 1.33256 -0.841456 0
M  V30 39041 C 4040.89 1.9799 -0.439062 0
M  V30 39042 C 4041.23 1.6649 0.999737 0
M  V30 39043 O 4040.5 0.946149 1.69936 0
M  V30 39044 C 4040.78 3.5394 -0.663199 0
M  V30 39045 C 4040.64 3.95118 -2.14946 0
M  V30 39046 C 4041.96 4.3996 -0.111017 0
M  V30 39047 H 4039.08 0.7192 -0.160999 0
M  V30 39048 H 4041.72 1.57855 -1.05745 0
M  V30 39049 H 4039.87 3.88259 -0.136833 0
M  V30 39050 H 4041.54 3.71043 -2.74089 0
M  V30 39051 H 4039.78 3.44755 -2.63299 0
M  V30 39052 H 4040.45 5.03748 -2.25703 0
M  V30 39053 H 4042.93 4.12301 -0.560971 0
M  V30 39054 H 4041.81 5.48093 -0.297512 0
M  V30 39055 H 4042.07 4.30979 0.98537 0
M  V30 39056 N 4041.13 0.598134 1.45809 0
M  V30 39057 C 4042.35 0.0938879 2.07187 0
M  V30 39058 C 4042.78 -1.20848 1.44143 0
M  V30 39059 O 4042.13 -1.73358 0.53072 0
M  V30 39060 C 4042.18 -0.0422452 3.60575 0
M  V30 39061 O 4041.29 -1.09489 3.976 0
M  V30 39062 H 4040.63 0.0697798 0.660323 0
M  V30 39063 H 4043.16 0.825459 1.87209 0
M  V30 39064 H 4043.17 -0.243495 4.07273 0
M  V30 39065 H 4041.84 0.908772 4.0585 0
M  V30 39066 H 4040.42 -0.870866 3.62588 0
M  V30 39067 N 4042.6 -1.5396 0.33676 0
M  V30 39068 C 4043.85 -2.00404 -0.261308 0
M  V30 39069 C 4044.17 -1.22635 -1.5161 0
M  V30 39070 O 4043.44 -0.331693 -1.93072 0
M  V30 39071 H 4042.02 -0.740337 -0.0995464 0
M  V30 39072 H 4044.68 -1.89482 0.456352 0
M  V30 39073 H 4043.78 -3.0793 -0.508503 0
M  V30 39074 N 4044.08 -0.0652232 -1.57465 0
M  V30 39075 C 4045.01 0.94009 -2.07936 0
M  V30 39076 C 4045.99 1.29523 -0.982989 0
M  V30 39077 O 4047.18 1.40567 -1.25592 0
M  V30 39078 C 4044.3 2.2501 -2.53156 0
M  V30 39079 C 4043.35 2.04701 -3.74166 0
M  V30 39080 S 4044.18 1.31241 -5.19169 0
M  V30 39081 C 4045.34 2.63535 -5.67715 0
M  V30 39082 H 4045.57 0.510604 -2.92882 0
M  V30 39083 H 4043.1 0.147386 -1.53695 0
M  V30 39084 H 4045.06 3.00304 -2.79871 0
M  V30 39085 H 4043.72 2.65084 -1.68491 0
M  V30 39086 H 4042.92 3.01634 -4.03773 0
M  V30 39087 H 4042.52 1.37544 -3.4779 0
M  V30 39088 H 4044.81 3.59651 -5.74158 0
M  V30 39089 H 4045.75 2.38546 -6.66709 0
M  V30 39090 H 4046.16 2.70439 -4.95503 0
M  V30 39091 N 4045.56 1.56218 0.208282 0
M  V30 39092 C 4046.81 1.7949 0.928855 0
M  V30 39093 C 4047.13 0.636033 1.84336 0
M  V30 39094 O 4046.4 -0.346382 1.92813 0
M  V30 39095 H 4044.98 0.662051 0.345973 0
M  V30 39096 H 4047.64 1.93689 0.216954 0
M  V30 39097 H 4046.74 2.72148 1.52781 0
M  V30 39098 N 4047.04 -0.475502 1.50256 0
M  V30 39099 C 4048.28 -1.2279 1.61024 0
M  V30 39100 C 4048.61 -1.92037 0.308541 0
M  V30 39101 O 4047.87 -1.82549 -0.705298 0
M  V30 39102 C 4048.17 -2.2983 2.73702 0
M  V30 39103 C 4047.83 -1.77866 4.14336 0
M  V30 39104 C 4046.49 -1.63415 4.52602 0
M  V30 39105 C 4048.85 -1.39267 5.02249 0
M  V30 39106 C 4046.17 -1.08781 5.76527 0
M  V30 39107 C 4048.53 -0.860759 6.26717 0
M  V30 39108 C 4047.19 -0.702842 6.63789 0
M  V30 39109 H 4046.46 -0.449322 0.589229 0
M  V30 39110 H 4049.11 -0.5246 1.84174 0
M  V30 39111 H 4047.41 -3.06051 2.44622 0
M  V30 39112 H 4049.11 -2.87797 2.79238 0
M  V30 39113 H 4045.7 -1.9008 3.84145 0
M  V30 39114 H 4049.88 -1.49268 4.73321 0
M  V30 39115 H 4045.14 -0.952881 6.03929 0
M  V30 39116 H 4049.31 -0.552987 6.94201 0
M  V30 39117 H 4046.94 -0.277337 7.59694 0
M  V30 39118 N 4048.52 -1.39759 -0.72837 0
M  V30 39119 C 4049.46 -1.39162 -1.86378 0
M  V30 39120 C 4050.46 -0.273835 -1.67172 0
M  V30 39121 O 4051.66 -0.444215 -1.74433 0
M  V30 39122 H 4048.04 -0.434709 -0.613622 0
M  V30 39123 H 4050.01 -2.3492 -1.83997 0
M  V30 39124 C 4048.76 -1.25851 -3.24125 0
M  V30 39125 H 4048.08 -2.11135 -3.39503 0
M  V30 39126 H 4049.52 -1.29491 -4.03743 0
M  V30 39127 C 4047.98 0.0324684 -3.36884 0
M  V30 39128 O 4048.51 1.00019 -3.89049 0
M  V30 39129 N 4046.72 0.0977323 -2.90436 0
M  V30 39130 H 4046.26 -0.690482 -2.48174 0
M  V30 39131 H 4046.22 0.961013 -2.99352 0
M  V30 39132 N 4049.99 0.959257 -1.25044 0
M  V30 39133 C 4050.94 2.05521 -1.05024 0
M  V30 39134 C 4051.91 1.66054 0.0391648 0
M  V30 39135 O 4053.1 1.9044 -0.117113 0
M  V30 39136 C 4050.24 3.38532 -0.670106 0
M  V30 39137 C 4049.35 3.91143 -1.83388 0
M  V30 39138 C 4048.48 5.12459 -1.39853 0
M  V30 39139 C 4047.52 5.57288 -2.53172 0
M  V30 39140 N 4046.66 6.69818 -2.10447 0
M  V30 39141 H 4051.5 2.21979 -1.9882 0
M  V30 39142 H 4049.04 1.08785 -0.990159 0
M  V30 39143 H 4050.99 4.14971 -0.430694 0
M  V30 39144 H 4049.62 3.21973 0.230867 0
M  V30 39145 H 4048.68 3.11266 -2.18672 0
M  V30 39146 H 4049.99 4.20365 -2.68504 0
M  V30 39147 H 4049.14 5.96301 -1.1185 0
M  V30 39148 H 4047.88 4.84941 -0.518025 0
M  V30 39149 H 4046.89 4.72015 -2.81926 0
M  V30 39150 H 4048.11 5.86816 -3.41794 0
M  V30 39151 H 4046.06 6.44018 -1.24805 0
M  V30 39152 H 4045.97 6.98534 -2.89113 0
M  V30 39153 H 4047.24 7.5708 -1.85606 0
M  V30 39154 N 4051.47 1.06556 1.16119 0
M  V30 39155 C 4052.72 0.782312 1.86345 0
M  V30 39156 C 4053.04 -0.693363 1.82257 0
M  V30 39157 O 4052.31 -1.50176 1.25793 0
M  V30 39158 H 4050.89 0.2864 0.689916 0
M  V30 39159 H 4053.55 1.34761 1.40803 0
M  V30 39160 H 4052.65 1.10959 2.9171 0
M  V30 39161 N 4052.95 -1.32808 0.848511 0
M  V30 39162 C 4053.88 -2.27876 0.245987 0
M  V30 39163 C 4054.9 -1.52164 -0.578784 0
M  V30 39164 O 4056.08 -1.73862 -0.404278 0
M  V30 39165 C 4053.18 -3.3218 -0.671525 0
M  V30 39166 C 4052.36 -4.37246 0.116035 0
M  V30 39167 C 4051.42 -5.21163 -0.726296 0
M  V30 39168 O 4050.44 -5.68969 -0.162021 0
M  V30 39169 N 4051.64 -5.43397 -2.04206 0
M  V30 39170 H 4054.41 -2.8022 1.06286 0
M  V30 39171 H 4051.97 -1.45604 0.707897 0
M  V30 39172 H 4053.96 -3.85228 -1.24023 0
M  V30 39173 H 4052.53 -2.80041 -1.38909 0
M  V30 39174 H 4051.75 -3.84567 0.866152 0
M  V30 39175 H 4053.04 -5.04538 0.657214 0
M  V30 39176 H 4052.44 -5.06275 -2.52392 0
M  V30 39177 H 4051 -5.99464 -2.55904 0
M  V30 39178 N 4054.43 -0.605858 -1.45489 0
M  V30 39179 C 4055.66 -0.106533 -2.06325 0
M  V30 39180 C 4056.07 1.21366 -1.45145 0
M  V30 39181 O 4055.41 1.74978 -0.559315 0
M  V30 39182 C 4055.47 0.109315 -3.59334 0
M  V30 39183 C 4055.14 -1.12881 -4.4284 0
M  V30 39184 C 4056.13 -2.04653 -4.77926 0
M  V30 39185 C 4053.82 -1.35715 -4.83618 0
M  V30 39186 C 4055.81 -3.17589 -5.52644 0
M  V30 39187 C 4053.5 -2.48952 -5.58091 0
M  V30 39188 C 4054.5 -3.39717 -5.92521 0
M  V30 39189 O 4054.18 -4.50984 -6.65484 0
M  V30 39190 H 4053.92 -0.0651918 -0.672849 0
M  V30 39191 H 4056.47 -0.833013 -1.8775 0
M  V30 39192 H 4054.7 0.890669 -3.76303 0
M  V30 39193 H 4056.39 0.560023 -4.02018 0
M  V30 39194 H 4057.16 -1.88237 -4.46981 0
M  V30 39195 H 4053.03 -0.659667 -4.56256 0
M  V30 39196 H 4056.58 -3.88458 -5.79436 0
M  V30 39197 H 4052.48 -2.65322 -5.88451 0
M  V30 39198 H 4053.24 -4.49644 -6.83932 0
M  V30 39199 N 4055.91 1.53779 -0.34492 0
M  V30 39200 C 4056.84 2.28006 0.503539 0
M  V30 39201 C 4057.82 1.29621 1.10147 0
M  V30 39202 O 4059 1.58465 1.1226 0
M  V30 39203 C 4056.13 3.05389 1.65393 0
M  V30 39204 C 4055.09 4.1129 1.18427 0
M  V30 39205 C 4054.41 4.76635 2.42328 0
M  V30 39206 C 4055.71 5.21529 0.283761 0
M  V30 39207 H 4057.41 2.99176 -0.115672 0
M  V30 39208 H 4054.95 1.43887 -0.0570725 0
M  V30 39209 H 4056.91 3.56055 2.25395 0
M  V30 39210 H 4055.63 2.31873 2.30006 0
M  V30 39211 H 4054.29 3.61539 0.607052 0
M  V30 39212 H 4053.94 3.99712 3.05351 0
M  V30 39213 H 4053.64 5.48184 2.11584 0
M  V30 39214 H 4055.16 5.30086 3.03054 0
M  V30 39215 H 4056.57 5.67822 0.790666 0
M  V30 39216 H 4054.97 6.00061 0.0681455 0
M  V30 39217 H 4056.04 4.80112 -0.679737 0
M  V30 39218 N 4057.38 0.0735731 1.57428 0
M  V30 39219 C 4058.61 -0.607556 1.98302 0
M  V30 39220 C 4059.03 -1.62247 0.951714 0
M  V30 39221 O 4058.39 -1.81112 -0.082469 0
M  V30 39222 C 4058.44 -1.25104 3.38203 0
M  V30 39223 O 4057.54 -2.3669 3.37716 0
M  V30 39224 H 4056.89 -0.156092 0.645392 0
M  V30 39225 H 4059.42 0.148614 2.0406 0
M  V30 39226 H 4059.43 -1.59746 3.75427 0
M  V30 39227 H 4058.1 -0.507377 4.12794 0
M  V30 39228 H 4056.68 -2.03827 3.12264 0
M  V30 39229 N 4058.86 -1.56326 -0.199995 0
M  V30 39230 C 4059.79 -1.97181 -1.25068 0
M  V30 39231 C 4060.77 -0.843056 -1.47738 0
M  V30 39232 O 4061.96 -1.10702 -1.59558 0
M  V30 39233 C 4059.09 -2.3071 -2.59596 0
M  V30 39234 C 4058.04 -3.46278 -2.51546 0
M  V30 39235 C 4057.37 -3.6547 -3.90302 0
M  V30 39236 C 4058.67 -4.80613 -2.04472 0
M  V30 39237 H 4060.36 -2.85198 -0.911188 0
M  V30 39238 H 4057.91 -1.37213 -0.436875 0
M  V30 39239 H 4059.86 -2.57885 -3.33276 0
M  V30 39240 H 4058.59 -1.39571 -2.95275 0
M  V30 39241 H 4057.24 -3.19186 -1.80322 0
M  V30 39242 H 4056.89 -2.71669 -4.23326 0
M  V30 39243 H 4056.59 -4.43213 -3.85792 0
M  V30 39244 H 4058.12 -3.95016 -4.65612 0
M  V30 39245 H 4059.53 -5.06851 -2.67908 0
M  V30 39246 H 4057.93 -5.61791 -2.10975 0
M  V30 39247 H 4059 -4.74524 -0.997745 0
M  V30 39248 N 4060.34 0.467527 -1.50506 0
M  V30 39249 C 4061.62 1.22868 -1.52193 0
M  V30 39250 C 4062 2.09384 -0.268653 0
M  V30 39251 O 4061.35 2.15918 0.747764 0
M  V30 39252 C 4061.56 2.05664 -2.81963 0
M  V30 39253 C 4062.9 2.63733 -3.32761 0
M  V30 39254 O 4063.93 2.15904 -2.83309 0
M  V30 39255 O 4062.79 3.50888 -4.18975 0
M  V30 39256 H 4059.88 0.55775 -0.610609 0
M  V30 39257 H 4062.43 0.479057 -1.62798 0
M  V30 39258 H 4061.2 1.41933 -3.64651 0
M  V30 39259 H 4060.82 2.87754 -2.74379 0
M  V30 39260 N 4061.82 1.40143 0.720948 0
M  V30 39261 C 4063.05 1.41434 1.5101 0
M  V30 39262 C 4063.46 0.0125848 1.88796 0
M  V30 39263 O 4062.82 -0.96219 1.55075 0
M  V30 39264 C 4062.87 2.30015 2.78882 0
M  V30 39265 O 4062.59 3.64733 2.42696 0
M  V30 39266 C 4064.09 2.3984 3.72816 0
M  V30 39267 H 4061.31 0.48259 0.466205 0
M  V30 39268 H 4063.86 1.8413 0.889745 0
M  V30 39269 H 4062.01 1.90695 3.37215 0
M  V30 39270 H 4062.42 4.11723 3.24938 0
M  V30 39271 H 4063.9 3.0604 4.59395 0
M  V30 39272 H 4064.38 1.42181 4.15549 0
M  V30 39273 H 4064.98 2.79689 3.20397 0
M  V30 39274 N 4063.3 -0.952612 1.25551 0
M  V30 39275 C 4064.21 -2.08335 1.07859 0
M  V30 39276 C 4065.22 -1.73993 0.0151761 0
M  V30 39277 O 4066.4 -2.00233 0.216533 0
M  V30 39278 C 4063.46 -3.3953 0.701429 0
M  V30 39279 C 4062.52 -3.87727 1.843 0
M  V30 39280 C 4061.76 -5.12661 1.48374 0
M  V30 39281 O 4061.98 -5.69131 0.3803 0
M  V30 39282 O 4060.91 -5.55616 2.31462 0
M  V30 39283 H 4064.74 -2.26163 2.02692 0
M  V30 39284 H 4062.33 -1.06764 1.04508 0
M  V30 39285 H 4064.21 -4.18384 0.503304 0
M  V30 39286 H 4062.88 -3.22968 -0.217615 0
M  V30 39287 H 4061.79 -3.09869 2.096 0
M  V30 39288 H 4063.12 -4.08791 2.74136 0
M  V30 39289 N 4064.77 -1.0717 -1.15553 0
M  V30 39290 C 4066.02 -0.794927 -1.86571 0
M  V30 39291 C 4066.35 0.677244 -1.82008 0
M  V30 39292 O 4065.63 1.49688 -1.24192 0
M  V30 39293 C 4065.91 -1.30143 -3.3576 0
M  V30 39294 C 4065.76 -2.83802 -3.48965 0
M  V30 39295 C 4067.08 -0.916478 -4.30452 0
M  V30 39296 H 4064.2 -0.290242 -0.677443 0
M  V30 39297 H 4066.84 -1.32916 -1.35769 0
M  V30 39298 H 4064.99 -0.846982 -3.79155 0
M  V30 39299 H 4066.67 -3.37522 -3.14446 0
M  V30 39300 H 4064.91 -3.22092 -2.90585 0
M  V30 39301 H 4065.58 -3.1431 -4.53777 0
M  V30 39302 H 4068.06 -1.30804 -3.95006 0
M  V30 39303 H 4066.93 -1.29824 -5.33326 0
M  V30 39304 H 4067.19 0.177772 -4.41742 0
M  V30 39305 N 4066.25 1.32356 -0.855542 0
M  V30 39306 C 4067.53 1.91861 -0.380609 0
M  V30 39307 C 4067.91 1.77934 1.1359 0
M  V30 39308 O 4067.26 1.178 1.95795 0
M  V30 39309 C 4067.47 3.38592 -0.845962 0
M  V30 39310 C 4068.82 4.15724 -0.863659 0
M  V30 39311 O 4069.84 3.47314 -0.790658 0
M  V30 39312 O 4068.7 5.37881 -0.966752 0
M  V30 39313 H 4065.79 0.819494 -0.111171 0
M  V30 39314 H 4068.34 1.41121 -0.942501 0
M  V30 39315 H 4067.11 3.42676 -1.88915 0
M  V30 39316 H 4066.73 3.96739 -0.26157 0
M  V30 39317 N 4067.73 0.613565 1.45166 0
M  V30 39318 C 4068.64 -0.103446 2.34372 0
M  V30 39319 C 4069.66 -0.854146 1.51593 0
M  V30 39320 O 4070.83 -0.810382 1.84377 0
M  V30 39321 C 4067.9 -1.08438 3.29306 0
M  V30 39322 C 4066.96 -0.334981 4.27991 0
M  V30 39323 C 4066.19 -1.26918 5.18389 0
M  V30 39324 O 4066.42 -2.50725 5.12341 0
M  V30 39325 O 4065.35 -0.76301 5.97044 0
M  V30 39326 H 4069.18 0.629798 2.97098 0
M  V30 39327 H 4066.76 0.373805 1.44648 0
M  V30 39328 H 4068.64 -1.64919 3.87788 0
M  V30 39329 H 4067.32 -1.79854 2.69136 0
M  V30 39330 H 4066.22 0.272444 3.73107 0
M  V30 39331 H 4067.56 0.338813 4.91032 0
M  V30 39332 N 4069.21 -1.53594 0.353071 0
M  V30 39333 C 4070.12 -2.29045 -0.507507 0
M  V30 39334 C 4071.14 -1.34523 -1.10361 0
M  V30 39335 O 4072.31 -1.67569 -1.11725 0
M  V30 39336 C 4069.38 -3.05569 -1.63794 0
M  V30 39337 C 4068.44 -4.15735 -1.07064 0
M  V30 39338 C 4067.67 -4.88601 -2.1472 0
M  V30 39339 O 4067.89 -4.61217 -3.35611 0
M  V30 39340 O 4066.83 -5.74829 -1.78479 0
M  V30 39341 H 4070.65 -3.03515 0.106113 0
M  V30 39342 H 4068.24 -1.48935 0.117825 0
M  V30 39343 H 4070.12 -3.53394 -2.29544 0
M  V30 39344 H 4068.8 -2.33948 -2.23719 0
M  V30 39345 H 4067.7 -3.72192 -0.377395 0
M  V30 39346 H 4069.04 -4.89487 -0.516119 0
M  V30 39347 N 4070.69 -0.0819208 -1.57387 0
M  V30 39348 C 4071.64 0.899348 -2.1451 0
M  V30 39349 C 4072.63 1.3013 -1.08455 0
M  V30 39350 O 4073.84 1.27736 -1.2682 0
M  V30 39351 H 4070.21 0.308006 -0.686029 0
M  V30 39352 H 4072.18 0.392734 -2.95804 0
M  V30 39353 C 4070.93 2.1537 -2.72967 0
M  V30 39354 H 4070.25 1.85327 -3.54251 0
M  V30 39355 H 4071.69 2.82119 -3.1652 0
M  V30 39356 C 4070.15 2.91898 -1.68217 0
M  V30 39357 O 4070.68 3.85967 -1.11321 0
M  V30 39358 N 4068.89 2.55192 -1.39015 0
M  V30 39359 H 4068.44 1.78768 -1.85472 0
M  V30 39360 H 4068.39 3.06698 -0.691636 0
M  V30 39361 N 4072.17 1.5643 0.191702 0
M  V30 39362 C 4073.13 1.93954 1.22124 0
M  V30 39363 C 4074.13 0.821009 1.38261 0
M  V30 39364 O 4075.32 1.08838 1.36015 0
M  V30 39365 C 4072.45 2.21655 2.59001 0
M  V30 39366 H 4073.64 2.86064 0.900408 0
M  V30 39367 H 4071.2 1.50172 0.433356 0
M  V30 39368 H 4071.93 1.32194 2.96134 0
M  V30 39369 H 4071.72 3.03168 2.4866 0
M  V30 39370 H 4073.21 2.51679 3.33237 0
M  V30 39371 N 4073.64 -0.459538 1.50751 0
M  V30 39372 C 4074.57 -1.56389 1.73392 0
M  V30 39373 C 4075.55 -1.59792 0.58313 0
M  V30 39374 O 4076.74 -1.75875 0.823505 0
M  V30 39375 C 4073.87 -2.94636 1.83866 0
M  V30 39376 C 4072.82 -3.06098 2.99146 0
M  V30 39377 C 4072.15 -4.46107 2.94776 0
M  V30 39378 C 4073.45 -2.82238 4.39476 0
M  V30 39379 H 4075.14 -1.37694 2.65858 0
M  V30 39380 H 4072.69 -0.660978 1.27934 0
M  V30 39381 H 4074.64 -3.71832 1.98289 0
M  V30 39382 H 4073.37 -3.14513 0.880309 0
M  V30 39383 H 4072.03 -2.31337 2.84392 0
M  V30 39384 H 4071.67 -4.62918 1.96763 0
M  V30 39385 H 4071.37 -4.54709 3.72174 0
M  V30 39386 H 4072.9 -5.25307 3.11263 0
M  V30 39387 H 4074.31 -3.49178 4.54695 0
M  V30 39388 H 4072.71 -3.02274 5.18411 0
M  V30 39389 H 4073.78 -1.78004 4.51046 0
M  V30 39390 N 4075.12 -1.40523 -0.713506 0
M  V30 39391 C 4076.35 -1.42426 -1.50763 0
M  V30 39392 C 4076.77 -0.0262748 -1.88082 0
M  V30 39393 O 4076.13 0.966158 -1.53411 0
M  V30 39394 C 4076.18 -2.32296 -2.75809 0
M  V30 39395 O 4075.28 -1.76764 -3.72596 0
M  V30 39396 H 4074.62 -0.484106 -0.454464 0
M  V30 39397 H 4077.15 -1.84777 -0.878551 0
M  V30 39398 H 4077.16 -2.47555 -3.24315 0
M  V30 39399 H 4075.84 -3.33883 -2.47982 0
M  V30 39400 H 4074.41 -1.70863 -3.31452 0
M  V30 39401 N 4076.6 0.94594 -1.26054 0
M  V30 39402 C 4078.01 1.50636 -1.10299 0
M  V30 39403 C 4078.36 1.936 0.318343 0
M  V30 39404 O 4077.49 1.79457 1.20931 0
M  V30 39405 C 4078.08 2.73755 -1.99609 0
M  V30 39406 C 4076.64 3.2608 -1.88013 0
M  V30 39407 C 4075.79 1.98879 -1.93242 0
M  V30 39408 H 4078.74 0.761922 -1.39214 0
M  V30 39409 H 4078.76 3.4789 -1.54119 0
M  V30 39410 H 4078.27 2.42453 -3.03048 0
M  V30 39411 H 4076.37 3.62182 -0.87491 0
M  V30 39412 H 4076.49 3.93508 -2.73291 0
M  V30 39413 H 4074.85 2.14566 -1.37235 0
M  V30 39414 H 4075.63 1.69914 -2.98302 0
M  V30 39415 N 4078.08 1.07781 1.14983 0
M  V30 39416 C 4078.99 0.713615 2.23483 0
M  V30 39417 C 4080 -0.277073 1.7178 0
M  V30 39418 O 4081.18 -0.122614 2.01026 0
M  V30 39419 C 4078.24 0.121603 3.46487 0
M  V30 39420 C 4077.31 1.16609 4.1316 0
M  V30 39421 C 4076.54 0.602231 5.30291 0
M  V30 39422 O 4076.76 -0.580336 5.6744 0
M  V30 39423 O 4075.7 1.34922 5.86583 0
M  V30 39424 H 4079.52 1.61857 2.56975 0
M  V30 39425 H 4077.11 0.851059 1.2279 0
M  V30 39426 H 4078.99 -0.20606 4.20896 0
M  V30 39427 H 4077.66 -0.756603 3.14734 0
M  V30 39428 H 4076.57 1.54618 3.40653 0
M  V30 39429 H 4077.9 2.01635 4.49004 0
M  V30 39430 N 4079.56 -1.31901 0.862549 0
M  V30 39431 C 4080.52 -2.26985 0.317876 0
M  V30 39432 C 4081.52 -1.51921 -0.526932 0
M  V30 39433 O 4082.71 -1.70903 -0.337306 0
M  V30 39434 C 4079.84 -3.36444 -0.549381 0
M  V30 39435 H 4081.03 -2.76675 1.15719 0
M  V30 39436 H 4078.59 -1.42707 0.637526 0
M  V30 39437 H 4079.32 -2.92034 -1.41019 0
M  V30 39438 H 4079.11 -3.92061 0.0554331 0
M  V30 39439 H 4080.6 -4.07272 -0.922987 0
M  V30 39440 N 4081.03 -0.621255 -1.44838 0
M  V30 39441 C 4082.27 -0.125003 -2.04017 0
M  V30 39442 C 4082.64 1.2263 -1.47736 0
M  V30 39443 O 4083.84 1.81408 -1.98354 0
M  V30 39444 C 4082.11 -0.100753 -3.57258 0
M  V30 39445 S 4083.67 0.332317 -4.3754 0
M  V30 39446 H 4080.49 -0.0562483 -0.708772 0
M  V30 39447 H 4083.09 -0.822429 -1.77359 0
M  V30 39448 H 4081.79 -1.08752 -3.95729 0
M  V30 39449 H 4081.32 0.618234 -3.88512 0
M  V30 39450 H 4083.34 1.57879 -4.70413 0
M  V30 39451 N 4082.51 1.53405 -0.361211 0
M  V30 39452 C 4083.74 2.05311 0.230394 0
M  V30 39453 C 4084.15 1.23477 1.43353 0
M  V30 39454 O 4083.49 0.267335 1.81744 0
M  V30 39455 C 4083.56 3.52773 0.692179 0
M  V30 39456 C 4083.22 4.55301 -0.393677 0
M  V30 39457 C 4084.22 5.04844 -1.24213 0
M  V30 39458 C 4081.9 4.9925 -0.552668 0
M  V30 39459 C 4083.9 5.96933 -2.23496 0
M  V30 39460 C 4081.58 5.91146 -1.54887 0
M  V30 39461 C 4082.58 6.39877 -2.38845 0
M  V30 39462 O 4082.27 7.29961 -3.36766 0
M  V30 39463 H 4082 0.674495 0.0450891 0
M  V30 39464 H 4084.55 1.98797 -0.516622 0
M  V30 39465 H 4082.78 3.56811 1.49073 0
M  V30 39466 H 4084.47 3.87561 1.2063 0
M  V30 39467 H 4085.24 4.71641 -1.13047 0
M  V30 39468 H 4081.12 4.6091 0.0910388 0
M  V30 39469 H 4084.66 6.34892 -2.89065 0
M  V30 39470 H 4080.56 6.23763 -1.66102 0
M  V30 39471 H 4081.33 7.47946 -3.32444 0
M  V30 39472 N 4083.99 0.0902663 1.57341 0
M  V30 39473 C 4084.9 -0.884742 2.17277 0
M  V30 39474 C 4085.92 -1.31374 1.14091 0
M  V30 39475 O 4087.09 -1.38265 1.4644 0
M  V30 39476 C 4084.16 -2.12757 2.73743 0
M  V30 39477 C 4083.22 -1.75323 3.91868 0
M  V30 39478 C 4082.45 -2.93682 4.45631 0
M  V30 39479 O 4082.67 -4.08262 3.98344 0
M  V30 39480 O 4081.61 -2.72428 5.36719 0
M  V30 39481 H 4085.43 -0.404817 3.0099 0
M  V30 39482 H 4083.02 -0.133822 1.48799 0
M  V30 39483 H 4084.9 -2.85602 3.09854 0
M  V30 39484 H 4083.58 -2.59812 1.93079 0
M  V30 39485 H 4082.48 -0.996736 3.60577 0
M  V30 39486 H 4083.82 -1.33036 4.7388 0
M  V30 39487 N 4085.47 -1.56529 -0.183403 0
M  V30 39488 C 4086.71 -1.83095 -0.908596 0
M  V30 39489 C 4087.07 -0.669461 -1.79951 0
M  V30 39490 O 4088.27 -0.815285 -2.56138 0
M  V30 39491 C 4086.54 -3.14732 -1.69347 0
M  V30 39492 S 4088.1 -3.62742 -2.46909 0
M  V30 39493 H 4084.92 -0.642478 -0.304538 0
M  V30 39494 H 4087.52 -1.9475 -0.171111 0
M  V30 39495 H 4086.23 -3.9727 -1.0298 0
M  V30 39496 H 4085.76 -3.05987 -2.47256 0
M  V30 39497 H 4087.77 -3.29107 -3.71353 0
M  V30 39498 N 4086.95 0.451537 -1.50993 0
M  V30 39499 C 4087.89 1.547 -1.71279 0
M  V30 39500 C 4088.86 1.5658 -0.55426 0
M  V30 39501 O 4090.05 1.73809 -0.787083 0
M  V30 39502 C 4087.19 2.92531 -1.83083 0
M  V30 39503 C 4086.3 3.0029 -3.10564 0
M  V30 39504 C 4085.44 4.29157 -3.13046 0
M  V30 39505 C 4084.48 4.3073 -4.349 0
M  V30 39506 N 4083.61 5.51098 -4.35012 0
M  V30 39507 H 4088.45 1.36706 -2.64794 0
M  V30 39508 H 4085.99 0.664333 -1.31244 0
M  V30 39509 H 4087.95 3.72487 -1.87908 0
M  V30 39510 H 4086.58 3.09116 -0.929906 0
M  V30 39511 H 4085.63 2.13085 -3.15117 0
M  V30 39512 H 4086.94 2.97313 -4.00508 0
M  V30 39513 H 4086.1 5.17475 -3.16709 0
M  V30 39514 H 4084.83 4.3477 -2.20967 0
M  V30 39515 H 4083.84 3.40806 -4.31429 0
M  V30 39516 H 4085.06 4.26792 -5.28229 0
M  V30 39517 H 4083.01 5.5746 -3.45795 0
M  V30 39518 H 4082.93 5.49943 -5.18747 0
M  V30 39519 H 4084.2 6.41488 -4.42847 0
M  V30 39520 N 4088.42 1.409 0.706044 0
M  V30 39521 C 4089.67 1.38995 1.46162 0
M  V30 39522 C 4089.99 -0.0014235 1.956 0
M  V30 39523 O 4091.19 -0.14309 2.71123 0
M  V30 39524 C 4089.65 2.44338 2.64247 0
M  V30 39525 C 4089.26 3.89333 2.21639 0
M  V30 39526 C 4091 2.51555 3.41936 0
M  V30 39527 C 4088.91 4.86251 3.36621 0
M  V30 39528 H 4087.84 0.516857 0.548976 0
M  V30 39529 H 4090.49 1.66678 0.767499 0
M  V30 39530 H 4088.87 2.0977 3.35876 0
M  V30 39531 H 4090.04 4.33096 1.57368 0
M  V30 39532 H 4088.36 3.8568 1.56971 0
M  V30 39533 H 4090.96 3.2115 4.27512 0
M  V30 39534 H 4091.3 1.54906 3.86406 0
M  V30 39535 H 4091.83 2.85162 2.77358 0
M  V30 39536 H 4088.57 5.84267 2.97173 0
M  V30 39537 H 4088.09 4.47146 3.99776 0
M  V30 39538 H 4089.77 5.0652 4.0255 0
M  V30 39539 N 4089.9 -0.939242 1.26554 0
M  V30 39540 C 4090.85 -2.05956 1.08096 0
M  V30 39541 C 4091.84 -1.69398 0.00733257 0
M  V30 39542 O 4093.05 -1.7925 0.164163 0
M  V30 39543 H 4089.43 -0.674389 0.332722 0
M  V30 39544 H 4091.4 -2.18676 2.03036 0
M  V30 39545 C 4090.15 -3.39892 0.732732 0
M  V30 39546 H 4089.47 -3.685 1.55074 0
M  V30 39547 H 4090.91 -4.1909 0.643378 0
M  V30 39548 C 4089.37 -3.32175 -0.562242 0
M  V30 39549 O 4089.9 -3.6846 -1.6 0
M  V30 39550 N 4088.1 -2.85278 -0.553593 0
M  V30 39551 H 4087.65 -2.55948 0.29131 0
M  V30 39552 H 4087.61 -2.80498 -1.42015 0
M  V30 39553 N 4091.38 -1.08389 -1.14409 0
M  V30 39554 C 4092.63 -0.811859 -1.85076 0
M  V30 39555 C 4092.95 0.66428 -1.83337 0
M  V30 39556 O 4092.22 1.48156 -1.28166 0
M  V30 39557 H 4090.8 -0.29734 -0.685272 0
M  V30 39558 H 4093.46 -1.36984 -1.38641 0
M  V30 39559 H 4092.56 -1.15586 -2.89907 0
M  V30 39560 N 4092.86 1.31442 -0.869532 0
M  V30 39561 C 4094.09 2.00607 -0.493985 0
M  V30 39562 C 4094.5 1.6544 0.917944 0
M  V30 39563 O 4093.84 0.879475 1.61279 0
M  V30 39564 C 4093.9 3.5494 -0.570766 0
M  V30 39565 C 4093.57 4.1358 -1.94423 0
M  V30 39566 C 4094.56 4.30717 -2.91168 0
M  V30 39567 C 4092.25 4.49317 -2.24543 0
M  V30 39568 C 4094.24 4.82781 -4.16175 0
M  V30 39569 C 4091.93 5.01082 -3.49799 0
M  V30 39570 C 4092.93 5.17765 -4.45431 0
M  V30 39571 O 4092.61 5.68419 -5.68468 0
M  V30 39572 H 4092.35 0.648457 -0.190997 0
M  V30 39573 H 4094.9 1.68656 -1.17236 0
M  V30 39574 H 4093.13 3.8635 0.164525 0
M  V30 39575 H 4094.82 4.05363 -0.208708 0
M  V30 39576 H 4095.59 4.03426 -2.69207 0
M  V30 39577 H 4091.46 4.35609 -1.50884 0
M  V30 39578 H 4095.01 4.95717 -4.90826 0
M  V30 39579 H 4090.91 5.27807 -3.71604 0
M  V30 39580 H 4091.67 5.86788 -5.70633 0
M  V30 39581 N 4094.34 0.628927 1.44507 0
M  V30 39582 C 4095.56 0.137814 2.06942 0
M  V30 39583 C 4095.99 -1.17764 1.46674 0
M  V30 39584 O 4095.34 -1.72193 0.567372 0
M  V30 39585 C 4095.39 0.0342476 3.60584 0
M  V30 39586 O 4094.5 -1.01031 3.99833 0
M  V30 39587 H 4093.84 0.0837705 0.658695 0
M  V30 39588 H 4096.37 0.864983 1.85416 0
M  V30 39589 H 4096.38 -0.157051 4.07698 0
M  V30 39590 H 4095.05 0.994654 4.03831 0
M  V30 39591 H 4093.63 -0.79376 3.64354 0
M  V30 39592 N 4095.82 -1.53211 0.369342 0
M  V30 39593 C 4096.76 -2.25852 -0.475359 0
M  V30 39594 C 4097.73 -1.26671 -1.07442 0
M  V30 39595 O 4098.92 -1.5546 -1.1062 0
M  V30 39596 C 4096.06 -3.0539 -1.60719 0
M  V30 39597 C 4095.17 -4.19469 -1.03294 0
M  V30 39598 C 4094.31 -4.86442 -2.13419 0
M  V30 39599 C 4093.34 -5.92546 -1.53479 0
M  V30 39600 N 4092.48 -6.53195 -2.57451 0
M  V30 39601 H 4097.32 -2.97619 0.150586 0
M  V30 39602 H 4094.86 -1.46848 0.0860835 0
M  V30 39603 H 4096.82 -3.49783 -2.27394 0
M  V30 39604 H 4095.45 -2.35871 -2.20374 0
M  V30 39605 H 4094.5 -3.79535 -0.256371 0
M  V30 39606 H 4095.81 -4.95706 -0.554743 0
M  V30 39607 H 4094.96 -5.34037 -2.87906 0
M  V30 39608 H 4093.7 -4.09686 -2.64592 0
M  V30 39609 H 4092.71 -5.44309 -0.77508 0
M  V30 39610 H 4093.93 -6.71224 -1.03126 0
M  V30 39611 H 4091.88 -5.79289 -3.07831 0
M  V30 39612 H 4091.8 -7.24982 -2.14329 0
M  V30 39613 H 4093.06 -7.05438 -3.31629 0
M  V30 39614 N 4097.29 -0.0986092 -1.57291 0
M  V30 39615 C 4098.24 0.859062 -2.14217 0
M  V30 39616 C 4099.21 1.27743 -1.06165 0
M  V30 39617 O 4100.4 1.35856 -1.33969 0
M  V30 39618 C 4097.54 2.11147 -2.72967 0
M  V30 39619 C 4096.65 1.74332 -3.95262 0
M  V30 39620 C 4095.78 2.94386 -4.42166 0
M  V30 39621 C 4094.82 2.53713 -5.57042 0
M  V30 39622 N 4093.96 3.66613 -5.98781 0
M  V30 39623 H 4098.8 0.366769 -2.95734 0
M  V30 39624 H 4096.34 0.169362 -1.46122 0
M  V30 39625 H 4098.29 2.84499 -3.0515 0
M  V30 39626 H 4096.92 2.5787 -1.94172 0
M  V30 39627 H 4095.98 0.909355 -3.69371 0
M  V30 39628 H 4097.29 1.40428 -4.78625 0
M  V30 39629 H 4096.44 3.75986 -4.76151 0
M  V30 39630 H 4095.18 3.31503 -3.57711 0
M  V30 39631 H 4094.19 1.70541 -5.22681 0
M  V30 39632 H 4095.41 2.17737 -6.43248 0
M  V30 39633 H 4093.36 4.03442 -5.17272 0
M  V30 39634 H 4093.27 3.36566 -6.76949 0
M  V30 39635 H 4094.54 4.48713 -6.37398 0
M  V30 39636 N 4098.77 1.56624 0.175099 0
M  V30 39637 C 4100.05 1.72646 0.919394 0
M  V30 39638 C 4100.43 0.658964 2.00551 0
M  V30 39639 O 4099.78 -0.326857 2.2615 0
M  V30 39640 C 4099.99 3.15709 1.48758 0
M  V30 39641 C 4101.33 3.76553 1.96197 0
M  V30 39642 O 4102.36 3.18963 1.5856 0
M  V30 39643 O 4101.22 4.77665 2.65516 0
M  V30 39644 H 4098.31 0.704894 0.432497 0
M  V30 39645 H 4100.86 1.68913 0.163225 0
M  V30 39646 H 4099.63 3.84884 0.705676 0
M  V30 39647 H 4099.25 3.23752 2.30804 0
M  V30 39648 N 4100.25 -0.443523 1.5123 0
M  V30 39649 C 4101.47 -1.22067 1.67673 0
M  V30 39650 C 4101.9 -1.84406 0.370967 0
M  V30 39651 O 4101.26 -1.68536 -0.668235 0
M  V30 39652 C 4101.31 -2.28498 2.78964 0
M  V30 39653 O 4100.41 -3.33832 2.42136 0
M  V30 39654 H 4099.75 -0.357911 0.559281 0
M  V30 39655 H 4102.28 -0.524557 1.97761 0
M  V30 39656 H 4102.29 -2.73381 3.02865 0
M  V30 39657 H 4100.97 -1.82502 3.73719 0
M  V30 39658 H 4099.54 -2.94469 2.28784 0
M  V30 39659 N 4101.73 -1.41272 -0.698562 0
M  V30 39660 C 4103.14 -1.23676 -1.00878 0
M  V30 39661 C 4103.34 -0.123996 -2.01118 0
M  V30 39662 O 4102.4 0.512584 -2.47242 0
M  V30 39663 C 4103.71 -2.58495 -1.53625 0
M  V30 39664 C 4105.26 -2.65652 -1.65524 0
M  V30 39665 C 4105.74 -4.00781 -2.21672 0
M  V30 39666 N 4107.23 -4.02612 -2.29037 0
M  V30 39667 C 4107.96 -5.03968 -2.73503 0
M  V30 39668 N 4107.46 -6.15715 -3.17596 0
M  V30 39669 N 4109.25 -4.9133 -2.7304 0
M  V30 39670 H 4101.4 -2.12372 -0.0344515 0
M  V30 39671 H 4103.66 -0.944797 -0.0778575 0
M  V30 39672 H 4103.37 -3.4066 -0.874279 0
M  V30 39673 H 4103.24 -2.80772 -2.51886 0
M  V30 39674 H 4105.63 -1.83848 -2.30833 0
M  V30 39675 H 4105.71 -2.47188 -0.658158 0
M  V30 39676 H 4105.36 -4.83032 -1.56979 0
M  V30 39677 H 4105.29 -4.16584 -3.22127 0
M  V30 39678 H 4107.78 -3.21928 -1.97917 0
M  V30 39679 H 4108.09 -6.88927 -3.50143 0
M  V30 39680 H 4106.44 -6.19255 -3.15512 0
M  V30 39681 H 4109.63 -4.03116 -2.3794 0
M  V30 39682 H 4109.8 -5.70459 -3.07376 0
M  V30 39683 N 4103.21 0.932517 -1.27051 0
M  V30 39684 C 4104.14 2.03655 -1.05154 0
M  V30 39685 C 4105.15 1.62797 -0.00916858 0
M  V30 39686 O 4106.34 1.76738 -0.250201 0
M  V30 39687 C 4103.44 3.34036 -0.572129 0
M  V30 39688 C 4102.61 4.03612 -1.6857 0
M  V30 39689 C 4101.67 5.12267 -1.20285 0
M  V30 39690 O 4100.7 5.36496 -1.9016 0
M  V30 39691 N 4101.9 5.80473 -0.0559119 0
M  V30 39692 H 4104.66 2.23002 -2.00225 0
M  V30 39693 H 4102.23 1.10258 -1.18553 0
M  V30 39694 H 4104.22 4.04028 -0.233107 0
M  V30 39695 H 4102.79 3.11296 0.28522 0
M  V30 39696 H 4102.01 3.27418 -2.19524 0
M  V30 39697 H 4103.3 4.46847 -2.43321 0
M  V30 39698 H 4102.69 5.63236 0.527417 0
M  V30 39699 H 4101.25 6.51415 0.223968 0
M  V30 39700 N 4104.68 1.08995 1.13833 0
M  V30 39701 C 4105.63 0.725336 2.19106 0
M  V30 39702 C 4106.6 -0.291339 1.63525 0
M  V30 39703 O 4107.79 -0.173981 1.90005 0
M  V30 39704 C 4104.93 0.147272 3.44786 0
M  V30 39705 C 4104.04 1.21745 4.1449 0
M  V30 39706 C 4103.17 0.602611 5.27771 0
M  V30 39707 C 4102.21 1.65441 5.89318 0
M  V30 39708 N 4101.35 1.06092 6.94038 0
M  V30 39709 H 4106.19 1.62734 2.49643 0
M  V30 39710 H 4103.73 0.813129 1.22583 0
M  V30 39711 H 4105.68 -0.205646 4.16693 0
M  V30 39712 H 4104.31 -0.718022 3.14713 0
M  V30 39713 H 4103.37 1.68772 3.40911 0
M  V30 39714 H 4104.68 2.01425 4.56322 0
M  V30 39715 H 4103.83 0.198284 6.06376 0
M  V30 39716 H 4102.57 -0.225782 4.87177 0
M  V30 39717 H 4101.58 2.06833 5.09412 0
M  V30 39718 H 4102.8 2.48539 6.31985 0
M  V30 39719 H 4100.75 0.253731 6.55509 0
M  V30 39720 H 4100.66 1.79474 7.34388 0
M  V30 39721 H 4101.93 0.682654 7.76505 0
M  V30 39722 N 4106.16 -1.30979 0.87649 0
M  V30 39723 C 4107.58 -1.49101 0.56931 0
M  V30 39724 C 4107.78 -1.80532 -0.895017 0
M  V30 39725 O 4106.83 -1.88786 -1.67679 0
M  V30 39726 C 4108.15 -2.6203 1.47515 0
M  V30 39727 C 4109.69 -2.75913 1.47787 0
M  V30 39728 C 4110.17 -3.91946 2.36944 0
M  V30 39729 N 4111.66 -3.99243 2.3486 0
M  V30 39730 C 4112.4 -4.88314 3.00561 0
M  V30 39731 N 4111.89 -5.82241 3.75456 0
M  V30 39732 N 4113.68 -4.81613 2.89836 0
M  V30 39733 H 4105.84 -1.08847 1.8239 0
M  V30 39734 H 4108.1 -0.538447 0.780243 0
M  V30 39735 H 4107.8 -2.456 2.51741 0
M  V30 39736 H 4107.68 -3.58318 1.17847 0
M  V30 39737 H 4110.07 -2.91753 0.443164 0
M  V30 39738 H 4110.15 -1.80272 1.81482 0
M  V30 39739 H 4109.79 -3.76863 3.40495 0
M  V30 39740 H 4109.72 -4.86908 2.0057 0
M  V30 39741 H 4112.21 -3.32046 1.80426 0
M  V30 39742 H 4112.52 -6.4695 4.22701 0
M  V30 39743 H 4110.87 -5.82199 3.79564 0
M  V30 39744 H 4114.06 -4.07212 2.30859 0
M  V30 39745 H 4114.23 -5.50823 3.41319 0
M  V30 39746 N 4107.64 -0.636582 -1.44171 0
M  V30 39747 C 4108.86 -0.148787 -2.06866 0
M  V30 39748 C 4109.29 1.16984 -1.47297 0
M  V30 39749 O 4108.65 1.7189 -0.576496 0
M  V30 39750 C 4108.7 -0.0533698 -3.60561 0
M  V30 39751 O 4107.8 0.989093 -4.00363 0
M  V30 39752 H 4107.14 -0.0872626 -0.658241 0
M  V30 39753 H 4109.67 -0.874804 -1.84955 0
M  V30 39754 H 4109.68 0.135428 -4.07775 0
M  V30 39755 H 4108.36 -1.01606 -4.03298 0
M  V30 39756 H 4106.93 0.774426 -3.6477 0
M  V30 39757 N 4109.12 1.53013 -0.377462 0
M  V30 39758 C 4110.37 2.00607 0.209677 0
M  V30 39759 C 4110.68 1.26853 1.48888 0
M  V30 39760 O 4111.89 1.65097 2.15535 0
M  V30 39761 C 4110.34 3.57391 0.424208 0
M  V30 39762 C 4109.95 4.40034 -0.841059 0
M  V30 39763 C 4111.69 4.13308 0.968355 0
M  V30 39764 C 4109.6 5.88395 -0.595458 0
M  V30 39765 H 4108.53 0.749514 0.0821304 0
M  V30 39766 H 4111.18 1.76612 -0.498036 0
M  V30 39767 H 4109.56 3.77587 1.19348 0
M  V30 39768 H 4110.74 4.31608 -1.61403 0
M  V30 39769 H 4109.05 3.9528 -1.30929 0
M  V30 39770 H 4111.65 5.21796 1.16762 0
M  V30 39771 H 4111.99 3.6865 1.93398 0
M  V30 39772 H 4112.53 3.96956 0.258955 0
M  V30 39773 H 4109.26 6.37352 -1.53175 0
M  V30 39774 H 4108.78 5.99639 0.138798 0
M  V30 39775 H 4110.46 6.46607 -0.22548 0
M  V30 39776 N 4110.6 0.106949 1.57237 0
M  V30 39777 C 4111.55 -0.85857 2.11217 0
M  V30 39778 C 4112.53 -1.2361 1.03002 0
M  V30 39779 O 4113.72 -1.2092 1.29257 0
M  V30 39780 C 4110.85 -2.11319 2.70553 0
M  V30 39781 C 4109.94 -1.76057 3.8583 0
M  V30 39782 N 4110.33 -1.1141 4.93378 0
M  V30 39783 C 4108.63 -2.05592 3.95788 0
M  V30 39784 C 4109.33 -0.950214 5.73887 0
M  V30 39785 N 4108.3 -1.47135 5.23309 0
M  V30 39786 H 4112.11 -0.355004 2.91748 0
M  V30 39787 H 4109.62 -0.0959007 1.62117 0
M  V30 39788 H 4111.62 -2.81445 3.07562 0
M  V30 39789 H 4110.28 -2.62231 1.91481 0
M  V30 39790 H 4111.29 -0.779504 5.12 0
M  V30 39791 H 4107.96 -2.58635 3.27741 0
M  V30 39792 H 4109.35 -0.443712 6.70433 0
M  V30 39793 N 4112.07 -1.56715 -0.166791 0
M  V30 39794 C 4112.98 -1.99999 -1.22628 0
M  V30 39795 C 4114 -0.912094 -1.48178 0
M  V30 39796 O 4115.18 -1.22007 -1.60238 0
M  V30 39797 C 4112.24 -2.35503 -2.54439 0
M  V30 39798 C 4111.3 -3.58142 -2.36712 0
M  V30 39799 C 4110.54 -3.91943 -3.62238 0
M  V30 39800 O 4110.76 -3.26654 -4.67604 0
M  V30 39801 O 4109.69 -4.85275 -3.56078 0
M  V30 39802 H 4113.52 -2.90401 -0.888874 0
M  V30 39803 H 4111.1 -1.44643 -0.374006 0
M  V30 39804 H 4112.99 -2.59287 -3.32187 0
M  V30 39805 H 4111.66 -1.48261 -2.87751 0
M  V30 39806 H 4110.57 -3.3957 -1.56981 0
M  V30 39807 H 4111.9 -4.45939 -2.08324 0
M  V30 39808 N 4113.55 0.435497 -1.51463 0
M  V30 39809 C 4114.96 1.0153 -1.5668 0
M  V30 39810 C 4115.31 1.92257 -0.391371 0
M  V30 39811 O 4114.44 2.10742 0.49161 0
M  V30 39812 C 4115.03 1.84812 -2.83954 0
M  V30 39813 C 4113.59 2.37839 -2.91736 0
M  V30 39814 C 4112.74 1.17102 -2.51361 0
M  V30 39815 H 4115.69 0.216698 -1.57214 0
M  V30 39816 H 4115.71 2.70282 -2.6782 0
M  V30 39817 H 4115.22 1.18753 -3.69485 0
M  V30 39818 H 4113.33 3.07347 -2.10639 0
M  V30 39819 H 4113.44 2.7051 -3.95425 0
M  V30 39820 H 4111.8 1.51691 -2.04602 0
M  V30 39821 H 4112.59 0.526506 -3.39239 0
M  V30 39822 N 4115.03 1.41641 0.69106 0
M  V30 39823 C 4116.31 1.31729 1.44592 0
M  V30 39824 C 4116.69 -0.0530253 2.11033 0
M  V30 39825 O 4116.04 -1.06755 2.02029 0
M  V30 39826 C 4116.25 2.47392 2.46167 0
M  V30 39827 C 4117.59 2.88764 3.11288 0
M  V30 39828 O 4118.62 2.47164 2.56492 0
M  V30 39829 O 4117.48 3.60715 4.10545 0
M  V30 39830 H 4114.57 0.518647 0.644154 0
M  V30 39831 H 4117.12 1.53615 0.721157 0
M  V30 39832 H 4115.89 3.38813 1.95758 0
M  V30 39833 H 4115.51 2.27407 3.26147 0
M  V30 39834 N 4116.51 -0.925766 1.27543 0
M  V30 39835 C 4117.92 -1.48862 1.12681 0
M  V30 39836 C 4118.27 -1.94082 -0.287502 0
M  V30 39837 O 4117.4 -1.81358 -1.18061 0
M  V30 39838 C 4117.99 -2.70544 2.03939 0
M  V30 39839 C 4116.55 -3.23047 1.93177 0
M  V30 39840 C 4115.7 -1.95779 1.96382 0
M  V30 39841 H 4118.65 -0.739678 1.40408 0
M  V30 39842 H 4118.67 -3.45394 1.59634 0
M  V30 39843 H 4118.18 -2.37601 3.06867 0
M  V30 39844 H 4116.28 -3.60745 0.932419 0
M  V30 39845 H 4116.39 -3.8911 2.79517 0
M  V30 39846 H 4114.76 -2.12356 1.40631 0
M  V30 39847 H 4115.54 -1.65147 3.00967 0
M  V30 39848 N 4117.99 -1.09597 -1.13253 0
M  V30 39849 C 4119.21 -0.85496 -1.88409 0
M  V30 39850 C 4119.63 0.593917 -1.79215 0
M  V30 39851 O 4118.99 1.40893 -1.15997 0
M  V30 39852 C 4119.04 -1.28359 -3.37944 0
M  V30 39853 O 4118.76 -2.67564 -3.46902 0
M  V30 39854 C 4120.26 -1.07522 -4.30063 0
M  V30 39855 H 4117.48 -0.307466 -0.596411 0
M  V30 39856 H 4120.02 -1.45841 -1.43355 0
M  V30 39857 H 4118.18 -0.723997 -3.80575 0
M  V30 39858 H 4118.59 -2.85678 -4.39873 0
M  V30 39859 H 4120.07 -1.42437 -5.33306 0
M  V30 39860 H 4120.54 -0.0131383 -4.39198 0
M  V30 39861 H 4121.15 -1.62084 -3.93203 0
M  V30 39862 N 4119.46 1.30512 -0.883424 0
M  V30 39863 C 4120.43 2.26451 -0.353947 0
M  V30 39864 C 4121.43 1.5274 0.502696 0
M  V30 39865 O 4122.62 1.71418 0.310074 0
M  V30 39866 C 4119.75 3.37276 0.495787 0
M  V30 39867 H 4120.94 2.74799 -1.20106 0
M  V30 39868 H 4118.5 1.41675 -0.660149 0
M  V30 39869 H 4119.23 2.94241 1.36355 0
M  V30 39870 H 4119.02 3.91923 -0.1178 0
M  V30 39871 H 4120.51 4.08689 0.858077 0
M  V30 39872 N 4120.94 0.644219 1.43832 0
M  V30 39873 C 4122.19 0.15419 2.02213 0
M  V30 39874 C 4122.52 -1.22548 1.5065 0
M  V30 39875 O 4121.8 -1.81624 0.695902 0
M  V30 39876 C 4122.08 0.15517 3.59766 0
M  V30 39877 C 4121.93 1.56812 4.21581 0
M  V30 39878 C 4123.25 -0.513288 4.37097 0
M  V30 39879 H 4120.37 0.0575042 0.734753 0
M  V30 39880 H 4123.01 0.823189 1.71241 0
M  V30 39881 H 4121.16 -0.4145 3.86282 0
M  V30 39882 H 4122.83 2.18768 4.06126 0
M  V30 39883 H 4121.08 2.11811 3.78575 0
M  V30 39884 H 4121.75 1.52073 5.30639 0
M  V30 39885 H 4124.22 -0.0286937 4.1609 0
M  V30 39886 H 4123.1 -0.48184 5.46781 0
M  V30 39887 H 4123.36 -1.5859 4.12676 0
M  V30 39888 N 4122.42 -1.52811 0.385571 0
M  V30 39889 C 4123.33 -2.3007 -0.458809 0
M  V30 39890 C 4124.35 -1.36833 -1.07483 0
M  V30 39891 O 4125.52 -1.69901 -1.08145 0
M  V30 39892 C 4122.59 -3.08975 -1.57275 0
M  V30 39893 C 4121.65 -4.17913 -0.982217 0
M  V30 39894 C 4120.88 -4.93046 -2.04307 0
M  V30 39895 O 4121.1 -4.68232 -3.25753 0
M  V30 39896 O 4120.04 -5.78486 -1.66246 0
M  V30 39897 H 4123.86 -3.03221 0.17047 0
M  V30 39898 H 4121.45 -1.48651 0.14939 0
M  V30 39899 H 4123.33 -3.58184 -2.21996 0
M  V30 39900 H 4122.01 -2.3864 -2.18706 0
M  V30 39901 H 4120.91 -3.72908 -0.298363 0
M  V30 39902 H 4122.25 -4.90471 -0.412175 0
M  V30 39903 N 4123.9 -0.115287 -1.57178 0
M  V30 39904 C 4124.83 0.86669 -2.12182 0
M  V30 39905 C 4125.84 1.23247 -1.06367 0
M  V30 39906 O 4127.03 1.18207 -1.33751 0
M  V30 39907 C 4124.13 2.1697 -2.6034 0
M  V30 39908 C 4123.31 1.97618 -3.90213 0
M  V30 39909 C 4122.36 3.11614 -4.24008 0
M  V30 39910 O 4121.39 2.84691 -4.92889 0
M  V30 39911 N 4122.59 4.37946 -3.8103 0
M  V30 39912 H 4125.36 0.396783 -2.97062 0
M  V30 39913 H 4122.92 0.069245 -1.61752 0
M  V30 39914 H 4124.91 2.9222 -2.79981 0
M  V30 39915 H 4123.48 2.55321 -1.80361 0
M  V30 39916 H 4122.7 1.06582 -3.79518 0
M  V30 39917 H 4123.99 1.81988 -4.7514 0
M  V30 39918 H 4123.39 4.62696 -3.25467 0
M  V30 39919 H 4121.94 5.10079 -4.05786 0
M  V30 39920 N 4125.38 1.56801 0.158477 0
M  V30 39921 C 4126.63 1.81906 0.871376 0
M  V30 39922 C 4126.94 0.694664 1.82849 0
M  V30 39923 O 4128.15 0.830999 2.5847 0
M  V30 39924 C 4126.6 3.22373 1.60011 0
M  V30 39925 C 4126.21 4.42717 0.685987 0
M  V30 39926 C 4127.95 3.56761 2.30048 0
M  V30 39927 C 4125.86 5.74206 1.41569 0
M  V30 39928 H 4124.79 0.67837 0.329136 0
M  V30 39929 H 4127.44 1.83079 0.124184 0
M  V30 39930 H 4125.82 3.15554 2.39252 0
M  V30 39931 H 4127 4.60746 -0.0703755 0
M  V30 39932 H 4125.31 4.16292 0.0946268 0
M  V30 39933 H 4127.91 4.52251 2.8526 0
M  V30 39934 H 4128.25 2.82261 3.05998 0
M  V30 39935 H 4128.79 3.6519 1.57737 0
M  V30 39936 H 4125.52 6.5177 0.698268 0
M  V30 39937 H 4125.04 5.60132 2.14505 0
M  V30 39938 H 4126.72 6.16607 1.95972 0
M  V30 39939 N 4126.86 -0.427458 1.51692 0
M  V30 39940 C 4128.08 -1.20282 1.68958 0
M  V30 39941 C 4128.51 -1.84002 0.390505 0
M  V30 39942 O 4127.86 -1.69235 -0.650322 0
M  V30 39943 C 4127.91 -2.25527 2.81372 0
M  V30 39944 O 4127.02 -3.31245 2.45663 0
M  V30 39945 H 4126.36 -0.351959 0.563046 0
M  V30 39946 H 4128.89 -0.503553 1.98307 0
M  V30 39947 H 4128.9 -2.70153 3.05747 0
M  V30 39948 H 4127.57 -1.78528 3.75633 0
M  V30 39949 H 4126.15 -2.92026 2.31895 0
M  V30 39950 N 4128.33 -1.42005 -0.683539 0
M  V30 39951 C 4129.26 -1.47581 -1.80948 0
M  V30 39952 C 4130.24 -0.333237 -1.66804 0
M  V30 39953 O 4131.43 -0.546347 -1.86356 0
M  V30 39954 C 4128.56 -1.36901 -3.19179 0
M  V30 39955 C 4127.51 -2.49095 -3.48046 0
M  V30 39956 C 4126.84 -2.23475 -4.8576 0
M  V30 39957 C 4128.14 -3.91421 -3.45814 0
M  V30 39958 H 4129.83 -2.41815 -1.76539 0
M  V30 39959 H 4127.38 -1.16389 -0.84792 0
M  V30 39960 H 4129.33 -1.39411 -3.97671 0
M  V30 39961 H 4128.06 -0.39157 -3.24244 0
M  V30 39962 H 4126.72 -2.45887 -2.7191 0
M  V30 39963 H 4126.36 -1.24046 -4.87465 0
M  V30 39964 H 4126.06 -2.98663 -5.06038 0
M  V30 39965 H 4127.59 -2.27721 -5.66547 0
M  V30 39966 H 4129 -3.96279 -4.1429 0
M  V30 39967 H 4127.4 -4.6639 -3.77625 0
M  V30 39968 H 4128.47 -4.18714 -2.44553 0
M  V30 39969 N 4129.81 0.918989 -1.28033 0
M  V30 39970 C 4130.72 2.05402 -1.13345 0
M  V30 39971 C 4131.74 1.73892 -0.0613021 0
M  V30 39972 O 4132.91 1.99588 -0.269545 0
M  V30 39973 C 4129.98 3.37551 -0.791203 0
M  V30 39974 C 4129.04 3.82704 -1.94515 0
M  V30 39975 C 4128.27 5.08546 -1.61914 0
M  V30 39976 O 4128.5 5.67922 -0.531061 0
M  V30 39977 O 4127.43 5.49284 -2.46111 0
M  V30 39978 H 4131.26 2.2071 -2.08617 0
M  V30 39979 H 4128.84 1.03955 -1.07302 0
M  V30 39980 H 4130.72 4.16902 -0.614054 0
M  V30 39981 H 4129.4 3.23431 0.131909 0
M  V30 39982 H 4128.3 3.04203 -2.17742 0
M  V30 39983 H 4129.64 4.01379 -2.84878 0
M  V30 39984 N 4131.29 1.10196 1.12671 0
M  V30 39985 C 4132.51 0.865146 1.88494 0
M  V30 39986 C 4132.94 -0.578659 1.78978 0
M  V30 39987 O 4132.3 -1.40735 1.14295 0
M  V30 39988 C 4132.35 1.31505 3.35766 0
M  V30 39989 O 4131.45 0.478519 4.09614 0
M  V30 39990 H 4130.79 0.312668 0.585777 0
M  V30 39991 H 4133.32 1.46813 1.42503 0
M  V30 39992 H 4133.33 1.30392 3.86603 0
M  V30 39993 H 4132.01 2.36649 3.42009 0
M  V30 39994 H 4130.58 0.554654 3.68752 0
M  V30 39995 N 4132.77 -1.30042 0.890333 0
M  V30 39996 C 4134.01 -1.96224 0.512243 0
M  V30 39997 C 4134.35 -1.70086 -0.937257 0
M  V30 39998 O 4133.62 -1.00857 -1.66307 0
M  V30 39999 C 4133.9 -3.51235 0.794105 0
M  V30 40000 C 4133.76 -3.86868 2.29462 0
M  V30 40001 C 4135.08 -4.39245 0.274229 0
M  V30 40002 H 4132.2 -0.712729 0.187581 0
M  V30 40003 H 4134.84 -1.53821 1.1153 0
M  V30 40004 H 4132.99 -3.87484 0.280839 0
M  V30 40005 H 4134.66 -3.60615 2.87671 0
M  V30 40006 H 4132.9 -3.34746 2.75913 0
M  V30 40007 H 4133.57 -4.95024 2.44243 0
M  V30 40008 H 4136.05 -4.09935 0.713607 0
M  V30 40009 H 4134.93 -5.46611 0.500729 0
M  V30 40010 H 4135.19 -4.34339 -0.824736 0
M  V30 40011 N 4134.25 -0.651838 -1.43488 0
M  V30 40012 C 4135.52 -0.0946478 -1.95371 0
M  V30 40013 C 4135.9 1.38495 -1.59318 0
M  V30 40014 O 4135.25 2.10975 -0.877607 0
M  V30 40015 C 4135.46 -0.339414 -3.47346 0
M  V30 40016 C 4136.81 -0.243618 -4.23901 0
M  V30 40017 O 4137.83 -0.271898 -3.55161 0
M  V30 40018 O 4136.69 -0.166151 -5.46247 0
M  V30 40019 H 4133.79 0.0104138 -0.826934 0
M  V30 40020 H 4136.33 -0.724979 -1.53434 0
M  V30 40021 H 4135.1 -1.36528 -3.66709 0
M  V30 40022 H 4134.73 0.324053 -3.96277 0
M  V30 40023 N 4135.72 1.52604 -0.39367 0
M  V30 40024 C 4136.66 2.23017 0.483595 0
M  V30 40025 C 4137.63 1.23253 1.06054 0
M  V30 40026 O 4138.82 1.52254 1.11135 0
M  V30 40027 C 4135.95 2.94679 1.6698 0
M  V30 40028 C 4134.99 4.08748 1.21769 0
M  V30 40029 S 4135.82 5.35143 0.195608 0
M  V30 40030 C 4136.98 6.10327 1.38749 0
M  V30 40031 H 4137.21 2.9708 -0.114324 0
M  V30 40032 H 4134.75 1.53372 -0.17788 0
M  V30 40033 H 4136.7 3.36575 2.35006 0
M  V30 40034 H 4135.37 2.20287 2.23902 0
M  V30 40035 H 4134.56 4.58006 2.10349 0
M  V30 40036 H 4134.16 3.68887 0.616282 0
M  V30 40037 H 4136.45 6.36764 2.31381 0
M  V30 40038 H 4137.4 7.0189 0.935745 0
M  V30 40039 H 4137.8 5.41164 1.60628 0
M  V30 40040 N 4137.2 0.12362 1.57114 0
M  V30 40041 C 4138.48 -0.577066 1.86894 0
M  V30 40042 C 4138.86 -1.84512 1.02559 0
M  V30 40043 O 4138.21 -2.28255 0.105795 0
M  V30 40044 C 4138.42 -0.865063 3.38109 0
M  V30 40045 C 4139.76 -1.21611 4.06812 0
M  V30 40046 O 4140.79 -0.955177 3.43154 0
M  V30 40047 O 4139.65 -1.70603 5.19189 0
M  V30 40048 H 4136.74 -0.291702 0.773847 0
M  V30 40049 H 4139.29 0.158472 1.68958 0
M  V30 40050 H 4138.06 0.0333384 3.91286 0
M  V30 40051 H 4137.68 -1.6556 3.61491 0
M  V30 40052 N 4138.68 -1.56883 -0.15016 0
M  V30 40053 C 4139.9 -1.87696 -0.882317 0
M  V30 40054 C 4140.33 -0.712302 -1.74092 0
M  V30 40055 O 4139.69 0.338176 -1.78118 0
M  V30 40056 C 4139.74 -3.17073 -1.71748 0
M  V30 40057 O 4138.84 -3.00784 -2.82139 0
M  V30 40058 H 4138.18 -0.616775 -0.245936 0
M  V30 40059 H 4140.71 -2.04107 -0.141927 0
M  V30 40060 H 4140.72 -3.49014 -2.11313 0
M  V30 40061 H 4139.4 -4.01445 -1.08697 0
M  V30 40062 H 4137.97 -2.80244 -2.46003 0
M  V30 40063 N 4140.16 0.419408 -1.51917 0
M  V30 40064 C 4141.57 0.998624 -1.57748 0
M  V30 40065 C 4141.92 1.91831 -0.41174 0
M  V30 40066 O 4141.05 2.11251 0.469231 0
M  V30 40067 C 4141.64 1.8179 -2.85898 0
M  V30 40068 C 4140.2 2.34731 -2.94242 0
M  V30 40069 C 4139.35 1.14429 -2.52589 0
M  V30 40070 H 4142.3 0.200012 -1.57435 0
M  V30 40071 H 4142.32 2.67427 -2.70672 0
M  V30 40072 H 4141.83 1.14828 -3.70724 0
M  V30 40073 H 4139.93 3.05096 -2.13887 0
M  V30 40074 H 4140.04 2.66301 -3.98272 0
M  V30 40075 H 4138.41 1.49513 -2.06199 0
M  V30 40076 H 4139.19 0.490496 -3.39778 0
M  V30 40077 N 4141.64 1.42366 0.675998 0
M  V30 40078 C 4142.88 1.42983 1.43818 0
M  V30 40079 C 4143.22 0.0456043 1.94146 0
M  V30 40080 O 4142.49 -0.929946 1.70828 0
M  V30 40081 C 4142.77 2.45322 2.63607 0
M  V30 40082 C 4142.63 3.92931 2.18919 0
M  V30 40083 C 4143.95 2.44666 3.65823 0
M  V30 40084 H 4141.06 0.520662 0.521613 0
M  V30 40085 H 4143.71 1.73772 0.76834 0
M  V30 40086 H 4141.86 2.19199 3.20756 0
M  V30 40087 H 4143.53 4.30031 1.66947 0
M  V30 40088 H 4141.77 4.06855 1.50504 0
M  V30 40089 H 4142.44 4.60114 3.04957 0
M  V30 40090 H 4144.92 2.67895 3.18389 0
M  V30 40091 H 4143.79 3.18253 4.4722 0
M  V30 40092 H 4144.06 1.4722 4.16868 0
M  V30 40093 N 4143.11 -0.912187 1.28518 0
M  V30 40094 C 4144.06 -2.03617 1.1244 0
M  V30 40095 C 4145.06 -1.69345 0.0432628 0
M  V30 40096 O 4146.26 -1.78861 0.202148 0
M  V30 40097 H 4142.64 -0.667179 0.346952 0
M  V30 40098 H 4144.61 -2.1432 2.07629 0
M  V30 40099 C 4143.36 -3.38261 0.804663 0
M  V30 40100 H 4142.68 -3.65128 1.62855 0
M  V30 40101 H 4144.12 -4.17631 0.732129 0
M  V30 40102 C 4142.58 -3.33293 -0.491656 0
M  V30 40103 O 4143.11 -3.71771 -1.52149 0
M  V30 40104 N 4141.32 -2.86388 -0.492957 0
M  V30 40105 H 4140.86 -2.55272 0.345535 0
M  V30 40106 H 4140.82 -2.83447 -1.36033 0
M  V30 40107 N 4144.59 -1.10792 -1.12085 0
M  V30 40108 C 4145.53 -0.703958 -2.17071 0
M  V30 40109 C 4146.5 0.296543 -1.59873 0
M  V30 40110 O 4147.69 0.194566 -1.87493 0
M  V30 40111 C 4144.81 -0.0392814 -3.38677 0
M  V30 40112 C 4143.86 -1.00385 -4.14518 0
M  V30 40113 S 4144.69 -2.52303 -4.72338 0
M  V30 40114 C 4145.85 -1.87116 -5.97276 0
M  V30 40115 H 4146.08 -1.59329 -2.51001 0
M  V30 40116 H 4143.62 -0.925284 -1.23604 0
M  V30 40117 H 4145.57 0.337878 -4.09107 0
M  V30 40118 H 4144.23 0.826906 -3.0302 0
M  V30 40119 H 4143.43 -0.486097 -5.0165 0
M  V30 40120 H 4143.03 -1.3231 -3.49814 0
M  V30 40121 H 4145.32 -1.20358 -6.66724 0
M  V30 40122 H 4146.26 -2.7222 -6.53683 0
M  V30 40123 H 4146.67 -1.33414 -5.48508 0
M  V30 40124 N 4146.07 1.29568 -0.897217 0
M  V30 40125 C 4147.02 2.27791 -0.371475 0
M  V30 40126 C 4147.99 1.56902 0.545059 0
M  V30 40127 O 4149.17 1.84899 0.470837 0
M  V30 40128 C 4146.31 3.42807 0.397176 0
M  V30 40129 C 4145.43 4.28485 -0.54997 0
M  V30 40130 C 4144.56 5.30678 0.235487 0
M  V30 40131 C 4143.6 6.08011 -0.706343 0
M  V30 40132 N 4142.74 7.02086 0.0445529 0
M  V30 40133 H 4147.58 2.72142 -1.21419 0
M  V30 40134 H 4145.11 1.33852 -0.610079 0
M  V30 40135 H 4147.07 4.08264 0.858861 0
M  V30 40136 H 4145.7 2.99491 1.20436 0
M  V30 40137 H 4144.75 3.63224 -1.13017 0
M  V30 40138 H 4146.07 4.82335 -1.27101 0
M  V30 40139 H 4145.22 6.0194 0.758483 0
M  V30 40140 H 4143.96 4.77553 0.989673 0
M  V30 40141 H 4142.96 5.35614 -1.24086 0
M  V30 40142 H 4144.19 6.63224 -1.45982 0
M  V30 40143 H 4142.13 6.51334 0.781051 0
M  V30 40144 H 4142.05 7.53481 -0.616621 0
M  V30 40145 H 4143.32 7.77572 0.547893 0
M  V30 40146 N 4147.55 0.659438 1.4314 0
M  V30 40147 C 4148.8 0.175369 2.01739 0
M  V30 40148 C 4149.12 -1.21283 1.52055 0
M  V30 40149 O 4148.38 -1.82491 0.706782 0
M  V30 40150 C 4148.68 0.141888 3.57118 0
M  V30 40151 C 4148.34 1.47267 4.26173 0
M  V30 40152 C 4147.01 1.83708 4.44753 0
M  V30 40153 C 4149.36 2.3498 4.65225 0
M  V30 40154 C 4146.69 3.07516 4.99651 0
M  V30 40155 C 4149.04 3.58085 5.21496 0
M  V30 40156 C 4147.7 3.94715 5.3829 0
M  V30 40157 H 4146.97 0.0641721 0.738216 0
M  V30 40158 H 4149.62 0.85138 1.71534 0
M  V30 40159 H 4147.92 -0.617591 3.86902 0
M  V30 40160 H 4149.62 -0.249619 4.00222 0
M  V30 40161 H 4146.21 1.17915 4.12061 0
M  V30 40162 H 4150.39 2.08115 4.50557 0
M  V30 40163 H 4145.65 3.35936 5.10839 0
M  V30 40164 H 4149.82 4.26265 5.50701 0
M  V30 40165 H 4147.45 4.90728 5.80594 0
M  V30 40166 N 4149.03 -1.52393 0.401757 0
M  V30 40167 C 4149.97 -2.2836 -0.442102 0
M  V30 40168 C 4150.97 -1.32755 -1.05226 0
M  V30 40169 O 4152.17 -1.50244 -0.991306 0
M  V30 40170 H 4148.55 -0.734488 -0.161343 0
M  V30 40171 H 4150.52 -2.97588 0.219921 0
M  V30 40172 C 4149.27 -3.11212 -1.55056 0
M  V30 40173 H 4148.59 -3.84643 -1.09039 0
M  V30 40174 H 4150.03 -3.67484 -2.11498 0
M  V30 40175 C 4148.49 -2.24307 -2.51372 0
M  V30 40176 O 4149.02 -1.87831 -3.55081 0
M  V30 40177 N 4147.23 -1.88222 -2.21407 0
M  V30 40178 H 4146.77 -2.18084 -1.37103 0
M  V30 40179 H 4146.73 -1.30367 -2.86097 0
M  V30 40180 N 4150.5 -0.131951 -1.57047 0
M  V30 40181 C 4151.43 0.809821 -2.19007 0
M  V30 40182 C 4152.42 1.26797 -1.13386 0
M  V30 40183 O 4153.6 1.32825 -1.41673 0
M  V30 40184 C 4150.73 2.055 -2.79977 0
M  V30 40185 C 4149.68 1.73417 -3.91293 0
M  V30 40186 C 4149.01 3.05074 -4.39129 0
M  V30 40187 C 4150.31 0.992445 -5.12784 0
M  V30 40188 H 4152 0.293469 -2.97958 0
M  V30 40189 H 4149.55 0.139714 -1.43321 0
M  V30 40190 H 4151.5 2.71852 -3.21985 0
M  V30 40191 H 4150.23 2.59482 -1.98334 0
M  V30 40192 H 4148.89 1.0945 -3.4988 0
M  V30 40193 H 4148.53 3.57016 -3.54328 0
M  V30 40194 H 4148.23 2.84376 -5.14202 0
M  V30 40195 H 4149.76 3.72522 -4.83797 0
M  V30 40196 H 4151.17 1.55775 -5.51731 0
M  V30 40197 H 4149.57 0.885958 -5.93524 0
M  V30 40198 H 4150.64 -0.018539 -4.84896 0
M  V30 40199 N 4151.98 1.5696 0.141838 0
M  V30 40200 C 4153.21 1.88162 0.87235 0
M  V30 40201 C 4153.63 0.721525 1.73711 0
M  V30 40202 O 4152.99 -0.328725 1.78295 0
M  V30 40203 C 4153.04 3.17979 1.70064 0
M  V30 40204 O 4152.14 3.02276 2.8054 0
M  V30 40205 H 4151.48 0.618071 0.242661 0
M  V30 40206 H 4154.01 2.0418 0.1311 0
M  V30 40207 H 4154.02 3.5013 2.0946 0
M  V30 40208 H 4152.7 4.02015 1.06566 0
M  V30 40209 H 4151.28 2.81545 2.44514 0
M  V30 40210 N 4153.46 -0.411345 1.52137 0
M  V30 40211 C 4154.41 -1.50008 1.71702 0
M  V30 40212 C 4155.39 -1.5043 0.570922 0
M  V30 40213 O 4156.59 -1.56444 0.8279 0
M  V30 40214 C 4153.72 -2.87958 1.86909 0
M  V30 40215 C 4152.8 -2.92191 3.07384 0
M  V30 40216 N 4153.19 -2.66125 4.30129 0
M  V30 40217 C 4151.49 -3.23359 3.07172 0
M  V30 40218 C 4152.19 -2.7687 5.11583 0
M  V30 40219 N 4151.17 -3.09655 4.46783 0
M  V30 40220 H 4154.97 -1.28647 2.64248 0
M  V30 40221 H 4152.48 -0.619024 1.50139 0
M  V30 40222 H 4154.48 -3.66316 1.99042 0
M  V30 40223 H 4153.14 -3.10319 0.955621 0
M  V30 40224 H 4154.15 -2.40562 4.5864 0
M  V30 40225 H 4150.83 -3.51329 2.25554 0
M  V30 40226 H 4152.22 -2.60452 6.19366 0
M  V30 40227 N 4154.94 -1.42722 -0.668439 0
M  V30 40228 C 4155.87 -1.49492 -1.79372 0
M  V30 40229 C 4156.85 -0.35091 -1.66441 0
M  V30 40230 O 4158.04 -0.566082 -1.85766 0
M  V30 40231 C 4155.17 -1.40278 -3.17709 0
M  V30 40232 C 4154.12 -2.52772 -3.45384 0
M  V30 40233 C 4153.45 -2.28615 -4.83363 0
M  V30 40234 C 4154.75 -3.95067 -3.41643 0
M  V30 40235 H 4156.44 -2.43674 -1.73964 0
M  V30 40236 H 4153.99 -1.17281 -0.835527 0
M  V30 40237 H 4155.94 -1.43621 -3.9617 0
M  V30 40238 H 4154.66 -0.425939 -3.23811 0
M  V30 40239 H 4153.32 -2.48757 -2.69287 0
M  V30 40240 H 4152.97 -1.29209 -4.86121 0
M  V30 40241 H 4152.67 -3.04014 -5.02841 0
M  V30 40242 H 4154.19 -2.33717 -5.641 0
M  V30 40243 H 4155.61 -4.00651 -4.10063 0
M  V30 40244 H 4154 -4.70368 -3.72657 0
M  V30 40245 H 4155.07 -4.21285 -2.40098 0
M  V30 40246 N 4156.42 0.905358 -1.29 0
M  V30 40247 C 4157.67 1.65204 -1.16413 0
M  V30 40248 C 4157.99 1.92892 0.285918 0
M  V30 40249 O 4157.26 1.55101 1.19669 0
M  V30 40250 H 4155.84 0.612343 -0.427837 0
M  V30 40251 H 4158.5 1.08589 -1.61847 0
M  V30 40252 H 4157.59 2.61087 -1.70998 0
M  V30 40253 N 4157.9 1.11385 1.11495 0
M  V30 40254 C 4159.12 0.885089 1.87566 0
M  V30 40255 C 4159.55 -0.559644 1.79582 0
M  V30 40256 O 4158.9 -1.39515 1.15781 0
M  V30 40257 C 4158.95 1.35059 3.34352 0
M  V30 40258 O 4158.06 0.521937 4.09084 0
M  V30 40259 H 4157.4 0.318864 0.582428 0
M  V30 40260 H 4159.93 1.48316 1.40938 0
M  V30 40261 H 4159.94 1.34485 3.85198 0
M  V30 40262 H 4158.61 2.40263 3.3948 0
M  V30 40263 H 4157.19 0.593734 3.68143 0
M  V30 40264 N 4159.37 -1.2909 0.904076 0
M  V30 40265 C 4160.32 -2.27591 0.38355 0
M  V30 40266 C 4161.29 -1.57189 -0.536731 0
M  V30 40267 O 4162.48 -1.85146 -0.461025 0
M  V30 40268 C 4159.62 -3.43013 -0.37899 0
M  V30 40269 C 4158.73 -4.28187 0.572686 0
M  V30 40270 C 4157.86 -5.30795 -0.207341 0
M  V30 40271 C 4156.9 -6.07628 0.738577 0
M  V30 40272 N 4156.04 -7.021 -0.00731897 0
M  V30 40273 H 4160.88 -2.71495 1.2286 0
M  V30 40274 H 4158.42 -1.33527 0.617169 0
M  V30 40275 H 4160.37 -4.08714 -0.837198 0
M  V30 40276 H 4159 -3.00126 -1.18846 0
M  V30 40277 H 4158.06 -3.62619 1.14942 0
M  V30 40278 H 4159.37 -4.81654 1.29657 0
M  V30 40279 H 4158.52 -6.02334 -0.72655 0
M  V30 40280 H 4157.26 -4.78071 -0.964333 0
M  V30 40281 H 4156.27 -5.34949 1.26925 0
M  V30 40282 H 4157.49 -6.62441 1.49497 0
M  V30 40283 H 4155.44 -6.51739 -0.746498 0
M  V30 40284 H 4155.35 -7.53144 0.656571 0
M  V30 40285 H 4156.62 -7.77852 -0.506648 0
M  V30 40286 N 4160.85 -0.66702 -1.42789 0
M  V30 40287 C 4161.76 0.0163893 -2.34594 0
M  V30 40288 C 4162.78 0.797294 -1.54658 0
M  V30 40289 O 4163.95 0.741393 -1.87257 0
M  V30 40290 C 4161.02 0.96141 -3.33103 0
M  V30 40291 C 4160.08 0.175904 -4.28939 0
M  V30 40292 C 4159.31 1.07591 -5.22743 0
M  V30 40293 O 4159.54 2.31537 -5.21293 0
M  V30 40294 O 4158.47 0.540896 -5.99465 0
M  V30 40295 H 4162.3 -0.73963 -2.94556 0
M  V30 40296 H 4159.88 -0.427233 -1.43161 0
M  V30 40297 H 4161.76 1.50413 -3.93642 0
M  V30 40298 H 4160.44 1.69742 -2.75626 0
M  V30 40299 H 4159.34 -0.410732 -3.71838 0
M  V30 40300 H 4160.68 -0.520823 -4.89437 0
M  V30 40301 N 4162.33 1.52178 -0.409833 0
M  V30 40302 C 4163.28 2.23857 0.43268 0
M  V30 40303 C 4164.26 1.25017 1.01289 0
M  V30 40304 O 4165.46 1.50252 0.935591 0
M  V30 40305 C 4162.58 3.06397 1.54842 0
M  V30 40306 C 4161.67 4.12647 0.978947 0
M  V30 40307 N 4162.06 5.05617 0.136194 0
M  V30 40308 C 4160.36 4.28143 1.24938 0
M  V30 40309 C 4161.06 5.81419 -0.180706 0
M  V30 40310 N 4160.04 5.41908 0.428617 0
M  V30 40311 H 4163.84 2.93094 -0.217493 0
M  V30 40312 H 4161.35 1.60899 -0.220297 0
M  V30 40313 H 4163.35 3.56301 2.1646 0
M  V30 40314 H 4162.01 2.38698 2.20121 0
M  V30 40315 H 4163.02 5.17397 -0.228166 0
M  V30 40316 H 4159.7 3.71674 1.9017 0
M  V30 40317 H 4161.09 6.66311 -0.864817 0
M  V30 40318 N 4163.81 0.140278 1.56974 0
M  V30 40319 C 4165.06 -0.512435 1.95082 0
M  V30 40320 C 4165.37 -1.66454 1.02725 0
M  V30 40321 O 4166.58 -2.38143 1.30384 0
M  V30 40322 C 4165.03 -0.962996 3.46777 0
M  V30 40323 C 4164.64 0.161812 4.47708 0
M  V30 40324 C 4166.38 -1.58588 3.93764 0
M  V30 40325 C 4164.29 -0.306642 5.90604 0
M  V30 40326 H 4163.22 -0.195204 0.728294 0
M  V30 40327 H 4165.87 0.223546 1.82133 0
M  V30 40328 H 4164.25 -1.75404 3.55035 0
M  V30 40329 H 4165.43 0.938608 4.51139 0
M  V30 40330 H 4163.74 0.69268 4.10598 0
M  V30 40331 H 4166.34 -1.94787 4.97958 0
M  V30 40332 H 4166.68 -2.47232 3.34936 0
M  V30 40333 H 4167.22 -0.85986 3.88396 0
M  V30 40334 H 4163.95 0.544267 6.53237 0
M  V30 40335 H 4163.47 -1.04946 5.90548 0
M  V30 40336 H 4165.15 -0.760876 6.4251 0
M  V30 40337 N 4165.29 -1.57033 -0.133512 0
M  V30 40338 C 4166.22 -2.02308 -1.16592 0
M  V30 40339 C 4167.2 -0.904958 -1.4403 0
M  V30 40340 O 4168.38 -1.17369 -1.54719 0
M  V30 40341 C 4165.51 -2.41513 -2.49577 0
M  V30 40342 C 4164.47 -3.56636 -2.36633 0
M  V30 40343 C 4163.79 -3.81695 -3.7445 0
M  V30 40344 C 4165.09 -4.88853 -1.83903 0
M  V30 40345 H 4166.79 -2.88806 -0.789406 0
M  V30 40346 H 4164.33 -1.38942 -0.378285 0
M  V30 40347 H 4166.28 -2.71789 -3.22039 0
M  V30 40348 H 4165.01 -1.51969 -2.8909 0
M  V30 40349 H 4163.67 -3.26547 -1.66622 0
M  V30 40350 H 4163.32 -2.89379 -4.11423 0
M  V30 40351 H 4163.02 -4.59177 -3.66647 0
M  V30 40352 H 4164.54 -4.14409 -4.48439 0
M  V30 40353 H 4165.95 -5.17758 -2.46169 0
M  V30 40354 H 4164.35 -5.70234 -1.86957 0
M  V30 40355 H 4165.42 -4.78329 -0.795585 0
M  V30 40356 N 4166.76 0.403271 -1.52353 0
M  V30 40357 C 4167.67 1.51628 -1.79014 0
M  V30 40358 C 4168.69 1.6033 -0.676042 0
M  V30 40359 O 4169.87 1.76934 -0.962089 0
M  V30 40360 C 4166.93 2.87306 -1.94051 0
M  V30 40361 C 4165.99 2.88443 -3.17961 0
M  V30 40362 C 4165.22 4.1765 -3.32271 0
M  V30 40363 O 4165.45 5.11857 -2.51712 0
M  V30 40364 O 4164.38 4.25762 -4.25453 0
M  V30 40365 H 4168.21 1.32034 -2.73497 0
M  V30 40366 H 4165.79 0.589709 -1.37269 0
M  V30 40367 H 4167.67 3.67767 -2.05731 0
M  V30 40368 H 4166.35 3.06957 -1.02757 0
M  V30 40369 H 4165.26 2.06815 -3.11734 0
M  V30 40370 H 4166.59 2.73743 -4.09054 0
M  V30 40371 N 4168.24 1.43075 0.66086 0
M  V30 40372 C 4169.17 1.50441 1.78577 0
M  V30 40373 C 4170.15 0.359732 1.66253 0
M  V30 40374 O 4171.34 0.575926 1.85464 0
M  V30 40375 C 4168.47 1.41961 3.16961 0
M  V30 40376 C 4167.42 2.546 3.44039 0
M  V30 40377 C 4166.75 2.31175 4.82143 0
M  V30 40378 C 4168.05 3.96873 3.39543 0
M  V30 40379 H 4169.74 2.44593 1.72669 0
M  V30 40380 H 4167.29 1.17723 0.829296 0
M  V30 40381 H 4169.24 1.4572 3.95403 0
M  V30 40382 H 4167.96 0.443105 3.2358 0
M  V30 40383 H 4166.62 2.50181 2.67964 0
M  V30 40384 H 4166.27 1.31785 4.85429 0
M  V30 40385 H 4165.97 3.06676 5.01222 0
M  V30 40386 H 4167.5 2.36705 5.62853 0
M  V30 40387 H 4168.91 4.0282 4.07933 0
M  V30 40388 H 4167.31 4.72338 3.70158 0
M  V30 40389 H 4168.38 4.22552 2.37861 0
M  V30 40390 N 4169.72 -0.898504 1.29478 0
M  V30 40391 C 4171.14 -1.17951 1.07516 0
M  V30 40392 C 4171.34 -2.00758 -0.172779 0
M  V30 40393 O 4170.39 -2.37031 -0.870208 0
M  V30 40394 C 4171.71 -1.8993 2.33125 0
M  V30 40395 C 4173.25 -2.02751 2.38456 0
M  V30 40396 C 4173.73 -2.7814 3.63871 0
M  V30 40397 N 4175.22 -2.85694 3.646 0
M  V30 40398 C 4175.95 -3.44566 4.58325 0
M  V30 40399 N 4175.45 -4.04596 5.62383 0
M  V30 40400 N 4177.24 -3.42252 4.45893 0
M  V30 40401 H 4169.39 -0.346039 2.09562 0
M  V30 40402 H 4171.66 -0.215798 0.923112 0
M  V30 40403 H 4171.36 -1.3652 3.24122 0
M  V30 40404 H 4171.24 -2.90398 2.40726 0
M  V30 40405 H 4173.62 -2.55335 1.47946 0
M  V30 40406 H 4173.71 -1.01412 2.34839 0
M  V30 40407 H 4173.35 -2.26231 4.54733 0
M  V30 40408 H 4173.28 -3.79826 3.64746 0
M  V30 40409 H 4175.77 -2.43059 2.89363 0
M  V30 40410 H 4176.08 -4.47544 6.3002 0
M  V30 40411 H 4174.43 -4.03054 5.66191 0
M  V30 40412 H 4177.62 -2.94574 3.63791 0
M  V30 40413 H 4177.79 -3.87839 5.1912 0
M  V30 40414 N 4171.2 -1.11974 -1.10903 0
M  V30 40415 C 4172.61 -0.88722 -1.64272 0
M  V30 40416 C 4172.96 0.579427 -1.87449 0
M  V30 40417 O 4172.09 1.44278 -1.61285 0
M  V30 40418 C 4172.68 -1.60405 -2.98422 0
M  V30 40419 C 4171.24 -1.41781 -3.48676 0
M  V30 40420 C 4170.39 -1.6431 -2.23377 0
M  V30 40421 H 4173.34 -1.2752 -0.944681 0
M  V30 40422 H 4173.36 -1.05228 -3.6566 0
M  V30 40423 H 4172.87 -2.67147 -2.81521 0
M  V30 40424 H 4170.97 -0.372737 -3.70731 0
M  V30 40425 H 4171.08 -2.17065 -4.27106 0
M  V30 40426 H 4169.45 -1.06687 -2.31279 0
M  V30 40427 H 4170.23 -2.72339 -2.09013 0
M  V30 40428 N 4172.68 1.28609 -0.910909 0
M  V30 40429 C 4173.64 2.25649 -0.401901 0
M  V30 40430 C 4174.64 1.53772 0.470185 0
M  V30 40431 O 4175.83 1.72037 0.273644 0
M  V30 40432 C 4172.96 3.38251 0.424134 0
M  V30 40433 H 4174.15 2.7219 -1.25908 0
M  V30 40434 H 4171.71 1.40243 -0.690052 0
M  V30 40435 H 4172.44 2.97067 1.30083 0
M  V30 40436 H 4172.23 3.91585 -0.200906 0
M  V30 40437 H 4173.72 4.10417 0.771195 0
M  V30 40438 N 4174.15 0.674583 1.42433 0
M  V30 40439 C 4175.4 0.193971 2.00765 0
M  V30 40440 C 4175.72 -1.20648 1.53959 0
M  V30 40441 O 4176.92 -1.78345 2.04708 0
M  V30 40442 C 4175.38 0.295925 3.58681 0
M  V30 40443 C 4174.99 1.70041 4.14475 0
M  V30 40444 C 4176.73 -0.125985 4.24313 0
M  V30 40445 C 4174.64 1.75515 5.64755 0
M  V30 40446 H 4173.57 0.0687575 0.750858 0
M  V30 40447 H 4176.22 0.839734 1.63159 0
M  V30 40448 H 4174.6 -0.417725 3.93791 0
M  V30 40449 H 4175.77 2.44113 3.90827 0
M  V30 40450 H 4174.09 2.07015 3.61294 0
M  V30 40451 H 4176.69 -0.105237 5.34596 0
M  V30 40452 H 4177.03 -1.1612 3.99777 0
M  V30 40453 H 4177.56 0.53665 3.94164 0
M  V30 40454 H 4174.3 2.77017 5.94089 0
M  V30 40455 H 4173.82 1.05798 5.90395 0
M  V30 40456 H 4175.5 1.50849 6.29169 0
M  V30 40457 N 4175.63 -1.51958 0.417898 0
M  V30 40458 C 4176.56 -2.24961 -0.438775 0
M  V30 40459 C 4177.58 -1.28248 -1.00281 0
M  V30 40460 O 4178.77 -1.54135 -0.900261 0
M  V30 40461 C 4175.87 -2.97473 -1.62366 0
M  V30 40462 C 4175.04 -4.21128 -1.18196 0
M  V30 40463 C 4174.1 -4.76388 -2.23475 0
M  V30 40464 O 4173.12 -5.3874 -1.83706 0
M  V30 40465 N 4174.33 -4.58723 -3.55743 0
M  V30 40466 H 4177.09 -2.99117 0.186812 0
M  V30 40467 H 4174.65 -1.60024 0.245739 0
M  V30 40468 H 4176.64 -3.31334 -2.32379 0
M  V30 40469 H 4175.21 -2.26449 -2.15499 0
M  V30 40470 H 4174.43 -3.92982 -0.309626 0
M  V30 40471 H 4175.72 -5.01412 -0.863941 0
M  V30 40472 H 4175.12 -4.09015 -3.90798 0
M  V30 40473 H 4173.68 -4.96998 -4.21706 0
M  V30 40474 N 4177.11 -0.1486 -1.56898 0
M  V30 40475 C 4178.52 0.371959 -1.82957 0
M  V30 40476 C 4178.87 1.64625 -1.06738 0
M  V30 40477 O 4178 2.14122 -0.313166 0
M  V30 40478 C 4178.59 0.681624 -3.31872 0
M  V30 40479 C 4177.15 1.1467 -3.58508 0
M  V30 40480 C 4176.3 0.170626 -2.76775 0
M  V30 40481 H 4179.25 -0.373271 -1.54248 0
M  V30 40482 H 4179.27 1.53612 -3.48114 0
M  V30 40483 H 4178.78 -0.246006 -3.8732 0
M  V30 40484 H 4176.88 2.09021 -3.08449 0
M  V30 40485 H 4177 1.07157 -4.66963 0
M  V30 40486 H 4175.36 0.663568 -2.45904 0
M  V30 40487 H 4176.14 -0.750622 -3.34993 0
M  V30 40488 N 4178.59 1.57102 0.125182 0
M  V30 40489 C 4179.52 2.02924 1.15517 0
M  V30 40490 C 4180.5 0.912584 1.43548 0
M  V30 40491 O 4181.68 1.18188 1.54095 0
M  V30 40492 C 4178.81 2.42833 2.48293 0
M  V30 40493 C 4177.77 3.57885 2.34738 0
M  V30 40494 C 4177.09 3.83676 3.72421 0
M  V30 40495 C 4178.39 4.89821 1.81308 0
M  V30 40496 H 4180.09 2.8922 0.774078 0
M  V30 40497 H 4177.63 1.39141 0.370911 0
M  V30 40498 H 4179.59 2.73493 3.20593 0
M  V30 40499 H 4178.31 1.535 2.8828 0
M  V30 40500 H 4176.97 3.27426 1.64888 0
M  V30 40501 H 4176.62 2.91557 4.09882 0
M  V30 40502 H 4176.32 4.61115 3.64206 0
M  V30 40503 H 4177.84 4.16781 4.46235 0
M  V30 40504 H 4179.26 5.19056 2.4342 0
M  V30 40505 H 4177.65 5.71218 1.83931 0
M  V30 40506 H 4178.72 4.78744 0.770207 0
M  V30 40507 N 4180.07 -0.395186 1.52565 0
M  V30 40508 C 4181.01 -1.50282 1.77534 0
M  V30 40509 C 4182.01 -1.56722 0.643003 0
M  V30 40510 O 4183.21 -1.59962 0.825352 0
M  V30 40511 H 4179.59 -0.50006 0.561644 0
M  V30 40512 H 4181.56 -1.26414 2.703 0
M  V30 40513 C 4180.31 -2.87491 1.95562 0
M  V30 40514 H 4179.63 -2.83283 2.82119 0
M  V30 40515 H 4181.07 -3.64247 2.17025 0
M  V30 40516 C 4179.53 -3.28974 0.726463 0
M  V30 40517 O 4180.06 -4.01578 -0.099054 0
M  V30 40518 N 4178.27 -2.85186 0.558349 0
M  V30 40519 H 4177.81 -2.2627 1.23124 0
M  V30 40520 H 4177.77 -3.133 -0.262724 0
M  V30 40521 N 4181.54 -1.43423 -0.653263 0
M  V30 40522 C 4182.49 -1.48846 -1.78739 0
M  V30 40523 C 4183.49 -0.362064 -1.65486 0
M  V30 40524 O 4184.69 -0.536053 -1.71833 0
M  V30 40525 H 4181.07 -0.466625 -0.589716 0
M  V30 40526 H 4183.04 -2.44343 -1.71286 0
M  V30 40527 C 4181.79 -1.42855 -3.16998 0
M  V30 40528 H 4181.11 -2.28834 -3.27834 0
M  V30 40529 H 4182.55 -1.50711 -3.96311 0
M  V30 40530 C 4181.01 -0.146152 -3.36583 0
M  V30 40531 O 4181.54 0.792561 -3.93804 0
M  V30 40532 N 4179.75 -0.0563587 -2.90545 0
M  V30 40533 H 4179.29 -0.821063 -2.44165 0
M  V30 40534 H 4179.25 0.800982 -3.04026 0
M  V30 40535 N 4183.02 0.891625 -1.29953 0
M  V30 40536 C 4183.97 1.98376 -1.12388 0
M  V30 40537 C 4184.96 1.60848 -0.040947 0
M  V30 40538 O 4186.15 1.75027 -0.263545 0
M  V30 40539 C 4183.28 3.33586 -0.810868 0
M  V30 40540 C 4182.36 3.77449 -1.93373 0
M  V30 40541 N 4182.75 3.93471 -3.17828 0
M  V30 40542 C 4181.05 4.06791 -1.82859 0
M  V30 40543 C 4181.75 4.30565 -3.91137 0
M  V30 40544 N 4180.73 4.40059 -3.19139 0
M  V30 40545 H 4184.53 2.08844 -2.06788 0
M  V30 40546 H 4182.05 1.08099 -1.21195 0
M  V30 40547 H 4184.04 4.11545 -0.666056 0
M  V30 40548 H 4182.7 3.24459 0.125136 0
M  V30 40549 H 4183.71 3.78782 -3.53192 0
M  V30 40550 H 4180.39 4.06175 -0.965831 0
M  V30 40551 H 4181.78 4.50739 -4.98281 0
M  V30 40552 N 4184.5 1.12561 1.10308 0
M  V30 40553 C 4185.75 0.876431 1.81663 0
M  V30 40554 C 4186.06 -0.599474 1.86187 0
M  V30 40555 O 4187.27 -0.965292 2.5376 0
M  V30 40556 C 4185.73 1.51831 3.26305 0
M  V30 40557 C 4185.33 3.0291 3.30075 0
M  V30 40558 C 4187.08 1.34946 4.0248 0
M  V30 40559 C 4184.98 3.60026 4.69186 0
M  V30 40560 H 4183.91 0.32423 0.680728 0
M  V30 40561 H 4186.57 1.35225 1.24042 0
M  V30 40562 H 4184.95 0.970154 3.83932 0
M  V30 40563 H 4186.12 3.64229 2.82265 0
M  V30 40564 H 4184.44 3.19206 2.67388 0
M  V30 40565 H 4187.03 1.75039 5.05238 0
M  V30 40566 H 4187.38 0.293281 4.15266 0
M  V30 40567 H 4187.91 1.86691 3.51271 0
M  V30 40568 H 4184.65 4.65409 4.616 0
M  V30 40569 H 4184.17 3.03482 5.17358 0
M  V30 40570 H 4185.85 3.59163 5.38155 0
M  V30 40571 N 4185.98 -1.28124 0.917717 0
M  V30 40572 C 4187.4 -1.47214 0.616457 0
M  V30 40573 C 4187.6 -1.83288 -0.837129 0
M  V30 40574 O 4186.65 -1.94025 -1.61588 0
M  V30 40575 C 4187.96 -2.57205 1.55776 0
M  V30 40576 C 4189.51 -2.71071 1.56491 0
M  V30 40577 C 4189.99 -3.8421 2.49293 0
M  V30 40578 N 4191.48 -3.91569 2.47443 0
M  V30 40579 C 4192.21 -4.78505 3.15944 0
M  V30 40580 N 4191.71 -5.70001 3.9379 0
M  V30 40581 N 4193.5 -4.72148 3.05012 0
M  V30 40582 H 4185.65 -1.0299 1.8576 0
M  V30 40583 H 4187.92 -0.513351 0.796978 0
M  V30 40584 H 4187.62 -2.37467 2.59427 0
M  V30 40585 H 4187.5 -3.54388 1.29187 0
M  V30 40586 H 4189.88 -2.90196 0.535759 0
M  V30 40587 H 4189.96 -1.74407 1.87126 0
M  V30 40588 H 4189.61 -3.65839 3.52312 0
M  V30 40589 H 4189.54 -4.8028 2.15959 0
M  V30 40590 H 4192.03 -3.26138 1.90899 0
M  V30 40591 H 4192.34 -6.33174 4.43069 0
M  V30 40592 H 4190.69 -5.69829 3.97895 0
M  V30 40593 H 4193.88 -3.99662 2.43697 0
M  V30 40594 H 4194.05 -5.39685 3.5867 0
M  V30 40595 N 4187.46 -0.682127 -1.42073 0
M  V30 40596 C 4188.69 -0.215752 -2.0547 0
M  V30 40597 C 4189.1 1.13502 -1.51374 0
M  V30 40598 O 4188.44 1.71767 -0.651281 0
M  V30 40599 C 4188.5 -0.0813135 -3.59408 0
M  V30 40600 C 4188.16 -1.36196 -4.36233 0
M  V30 40601 C 4189.16 -2.29699 -4.66406 0
M  V30 40602 C 4186.85 -1.6116 -4.75744 0
M  V30 40603 C 4188.84 -3.46437 -5.35033 0
M  V30 40604 C 4186.53 -2.78186 -5.4411 0
M  V30 40605 C 4187.53 -3.70648 -5.7368 0
M  V30 40606 O 4187.21 -4.85626 -6.40642 0
M  V30 40607 H 4186.95 -0.100766 -0.668448 0
M  V30 40608 H 4189.5 -0.931364 -1.8307 0
M  V30 40609 H 4187.73 0.689947 -3.80495 0
M  V30 40610 H 4189.42 0.346135 -4.04421 0
M  V30 40611 H 4190.18 -2.11666 -4.36374 0
M  V30 40612 H 4186.06 -0.900591 -4.52118 0
M  V30 40613 H 4189.61 -4.18627 -5.5803 0
M  V30 40614 H 4185.5 -2.96142 -5.73559 0
M  V30 40615 H 4186.27 -4.85266 -6.59135 0
M  V30 40616 N 4188.94 1.51735 -0.425951 0
M  V30 40617 C 4190.18 2.02284 0.144521 0
M  V30 40618 C 4190.51 1.31015 1.43349 0
M  V30 40619 O 4189.79 0.421558 1.89877 0
M  V30 40620 C 4190.07 3.58142 0.374987 0
M  V30 40621 C 4189.93 4.40042 -0.931831 0
M  V30 40622 C 4191.24 4.24815 1.14979 0
M  V30 40623 H 4188.36 0.73523 0.0510503 0
M  V30 40624 H 4191.01 1.81476 -0.562717 0
M  V30 40625 H 4189.16 3.76003 0.977429 0
M  V30 40626 H 4190.83 4.33856 -1.56738 0
M  V30 40627 H 4189.07 4.05582 -1.53903 0
M  V30 40628 H 4189.74 5.47221 -0.724757 0
M  V30 40629 H 4192.22 4.11155 0.639593 0
M  V30 40630 H 4191.09 5.33772 1.2798 0
M  V30 40631 H 4191.35 3.84904 2.17489 0
M  V30 40632 N 4190.41 0.156919 1.56817 0
M  V30 40633 C 4191.66 -0.491715 1.95615 0
M  V30 40634 C 4191.98 -1.65355 1.04484 0
M  V30 40635 O 4193.18 -2.36747 1.32902 0
M  V30 40636 C 4191.64 -0.926161 3.47779 0
M  V30 40637 C 4191.25 0.209288 4.47511 0
M  V30 40638 C 4192.99 -1.54403 3.95424 0
M  V30 40639 C 4190.9 -0.243983 5.90897 0
M  V30 40640 H 4189.83 -0.187468 0.730323 0
M  V30 40641 H 4192.48 0.242851 1.81886 0
M  V30 40642 H 4190.86 -1.71628 3.56875 0
M  V30 40643 H 4192.03 0.986405 4.50119 0
M  V30 40644 H 4190.35 0.73619 4.0984 0
M  V30 40645 H 4192.95 -1.89495 4.99996 0
M  V30 40646 H 4193.29 -2.43666 3.37539 0
M  V30 40647 H 4193.82 -0.818617 3.89286 0
M  V30 40648 H 4190.56 0.613521 6.52623 0
M  V30 40649 H 4190.08 -0.986765 5.91627 0
M  V30 40650 H 4191.76 -0.692687 6.43281 0
M  V30 40651 N 4191.89 -1.57166 -0.116849 0
M  V30 40652 C 4193.12 -1.89526 -0.842305 0
M  V30 40653 C 4193.54 -0.749069 -1.72541 0
M  V30 40654 O 4192.9 0.300318 -1.78795 0
M  V30 40655 C 4192.95 -3.20644 -1.64984 0
M  V30 40656 O 4192.05 -3.06701 -2.75696 0
M  V30 40657 H 4191.39 -0.621853 -0.232798 0
M  V30 40658 H 4193.92 -2.04362 -0.0986007 0
M  V30 40659 H 4193.93 -3.53418 -2.03863 0
M  V30 40660 H 4192.61 -4.0366 -1.00157 0
M  V30 40661 H 4191.18 -2.85399 -2.40004 0
M  V30 40662 N 4193.37 0.38709 -1.52772 0
M  V30 40663 C 4194.3 1.49253 -1.73943 0
M  V30 40664 C 4195.31 1.50535 -0.619913 0
M  V30 40665 O 4196.5 1.54403 -0.895657 0
M  V30 40666 C 4193.6 2.88095 -1.78478 0
M  V30 40667 C 4192.78 3.10756 -3.07814 0
M  V30 40668 C 4191.84 4.29591 -3.03871 0
M  V30 40669 O 4190.86 4.25803 -3.7773 0
M  V30 40670 N 4192.06 5.35879 -2.23189 0
M  V30 40671 H 4194.83 1.31479 -2.6932 0
M  V30 40672 H 4192.39 0.576622 -1.51283 0
M  V30 40673 H 4194.38 3.65696 -1.73344 0
M  V30 40674 H 4192.95 2.99219 -0.90479 0
M  V30 40675 H 4192.17 2.21003 -3.26422 0
M  V30 40676 H 4193.46 3.22752 -3.9333 0
M  V30 40677 H 4192.86 5.41812 -1.62653 0
M  V30 40678 H 4191.41 6.1214 -2.23894 0
M  V30 40679 N 4194.85 1.43768 0.645648 0
M  V30 40680 C 4196.1 1.45497 1.40267 0
M  V30 40681 C 4196.42 0.0832366 1.94822 0
M  V30 40682 O 4195.69 -0.882488 1.74897 0
M  V30 40683 H 4194.27 0.535708 0.520602 0
M  V30 40684 H 4196.93 1.79431 0.760947 0
M  V30 40685 H 4196.02 2.17196 2.24125 0
M  V30 40686 N 4196.33 -0.884721 1.30424 0
M  V30 40687 C 4197.27 -2.01186 1.16734 0
M  V30 40688 C 4198.27 -1.69215 0.0791736 0
M  V30 40689 O 4199.47 -1.78392 0.240041 0
M  V30 40690 H 4195.85 -0.65967 0.361026 0
M  V30 40691 H 4197.82 -2.09867 2.12128 0
M  V30 40692 C 4196.57 -3.36478 0.876232 0
M  V30 40693 H 4195.89 -3.61591 1.70564 0
M  V30 40694 H 4197.33 -4.15984 0.82055 0
M  V30 40695 C 4195.79 -3.34261 -0.420849 0
M  V30 40696 O 4196.32 -3.74915 -1.44229 0
M  V30 40697 N 4194.53 -2.8737 -0.432099 0
M  V30 40698 H 4194.07 -2.54482 0.399604 0
M  V30 40699 H 4194.03 -2.86269 -1.2999 0
M  V30 40700 N 4197.8 -1.13144 -1.09709 0
M  V30 40701 C 4199.08 -0.802597 -1.78375 0
M  V30 40702 C 4199.46 0.706357 -1.98932 0
M  V30 40703 O 4198.81 1.64264 -1.58838 0
M  V30 40704 C 4199.02 -1.58621 -3.10871 0
M  V30 40705 C 4200.37 -1.77702 -3.85626 0
M  V30 40706 O 4201.39 -1.55195 -3.20613 0
M  V30 40707 O 4200.25 -2.15236 -5.0233 0
M  V30 40708 H 4197.34 -0.292732 -0.773458 0
M  V30 40709 H 4199.89 -1.23589 -1.16292 0
M  V30 40710 H 4198.66 -2.61182 -2.91375 0
M  V30 40711 H 4198.28 -1.14765 -3.80677 0
M  V30 40712 N 4199.28 1.27635 -0.924498 0
M  V30 40713 C 4200.56 1.89574 -0.481775 0
M  V30 40714 C 4200.94 1.83705 1.03998 0
M  V30 40715 O 4200.29 1.28013 1.89275 0
M  V30 40716 C 4200.5 3.33632 -1.02425 0
M  V30 40717 C 4201.85 4.10561 -1.08281 0
M  V30 40718 O 4202.87 3.42635 -0.97365 0
M  V30 40719 O 4201.73 5.32 -1.25051 0
M  V30 40720 H 4198.82 0.812449 -0.154454 0
M  V30 40721 H 4201.37 1.35926 -1.01598 0
M  V30 40722 H 4200.14 3.3218 -2.06814 0
M  V30 40723 H 4199.76 3.94794 -0.471504 0
M  V30 40724 N 4200.76 0.689652 1.41709 0
M  V30 40725 C 4201.99 0.225461 2.06171 0
M  V30 40726 C 4202.41 -1.11437 1.51537 0
M  V30 40727 O 4201.77 -1.69632 0.639895 0
M  V30 40728 C 4201.82 0.187153 3.60114 0
M  V30 40729 O 4200.92 -0.839819 4.03758 0
M  V30 40730 H 4200.26 0.111633 0.654549 0
M  V30 40731 H 4202.79 0.942846 1.81581 0
M  V30 40732 H 4202.8 0.0160086 4.07997 0
M  V30 40733 H 4201.48 1.16504 3.99249 0
M  V30 40734 H 4200.05 -0.638511 3.67393 0
M  V30 40735 N 4202.24 -1.51507 0.433991 0
M  V30 40736 C 4203.48 -2.02358 -0.133791 0
M  V30 40737 C 4203.82 -1.31773 -1.42652 0
M  V30 40738 O 4203.09 -0.431622 -1.8965 0
M  V30 40739 C 4203.38 -3.58336 -0.355989 0
M  V30 40740 C 4203.23 -4.39542 0.955154 0
M  V30 40741 C 4204.55 -4.25419 -1.12724 0
M  V30 40742 H 4201.67 -0.73549 -0.0471505 0
M  V30 40743 H 4204.31 -1.81175 0.572333 0
M  V30 40744 H 4202.46 -3.76516 -0.957475 0
M  V30 40745 H 4204.13 -4.33019 1.59036 0
M  V30 40746 H 4202.37 -4.0476 1.56051 0
M  V30 40747 H 4203.04 -5.46829 0.753767 0
M  V30 40748 H 4205.52 -4.11488 -0.61778 0
M  V30 40749 H 4204.4 -5.34443 -1.25148 0
M  V30 40750 H 4204.66 -3.86052 -2.15445 0
M  V30 40751 N 4203.72 -0.165233 -1.56731 0
M  V30 40752 C 4204.96 0.481276 -1.96698 0
M  V30 40753 C 4205.29 1.63662 -1.05095 0
M  V30 40754 O 4204.55 1.95521 -0.0837979 0
M  V30 40755 C 4204.85 1.01159 -3.42785 0
M  V30 40756 C 4204.51 -0.0272177 -4.50892 0
M  V30 40757 C 4203.17 -0.312734 -4.80183 0
M  V30 40758 C 4205.53 -0.732647 -5.16025 0
M  V30 40759 C 4202.85 -1.30917 -5.71907 0
M  V30 40760 C 4205.21 -1.71803 -6.08824 0
M  V30 40761 C 4203.87 -2.01105 -6.36485 0
M  V30 40762 H 4203.14 0.176111 -0.719768 0
M  V30 40763 H 4205.79 -0.255912 -1.89782 0
M  V30 40764 H 4204.09 1.82648 -3.46622 0
M  V30 40765 H 4205.79 1.52071 -3.71046 0
M  V30 40766 H 4202.38 0.205493 -4.28107 0
M  V30 40767 H 4206.56 -0.525273 -4.93512 0
M  V30 40768 H 4201.82 -1.54244 -5.91624 0
M  V30 40769 H 4205.99 -2.27005 -6.58363 0
M  V30 40770 H 4203.62 -2.78466 -7.07362 0
M  V30 40771 N 4205.19 1.57226 0.108512 0
M  V30 40772 C 4206.61 1.52756 0.462352 0
M  V30 40773 C 4206.81 0.879881 1.81274 0
M  V30 40774 O 4205.87 0.466671 2.4815 0
M  V30 40775 C 4207.18 2.97505 0.437188 0
M  V30 40776 C 4208.73 3.0865 0.519998 0
M  V30 40777 C 4209.2 4.5498 0.525118 0
M  V30 40778 N 4210.69 4.59475 0.586258 0
M  V30 40779 C 4211.43 5.70126 0.61184 0
M  V30 40780 N 4210.92 6.90245 0.594434 0
M  V30 40781 N 4212.72 5.58263 0.65564 0
M  V30 40782 H 4204.87 1.9771 -0.776169 0
M  V30 40783 H 4207.13 0.903362 -0.287473 0
M  V30 40784 H 4206.84 3.48303 -0.487613 0
M  V30 40785 H 4206.71 3.55493 1.26114 0
M  V30 40786 H 4209.1 2.57848 1.43522 0
M  V30 40787 H 4209.18 2.53638 -0.331839 0
M  V30 40788 H 4208.82 5.0643 -0.386102 0
M  V30 40789 H 4208.75 5.07815 1.39398 0
M  V30 40790 H 4211.24 3.73018 0.605448 0
M  V30 40791 H 4211.56 7.70334 0.616867 0
M  V30 40792 H 4209.9 6.92727 0.561693 0
M  V30 40793 H 4213.09 4.63328 0.666675 0
M  V30 40794 H 4213.27 6.44505 0.672109 0
M  V30 40795 N 4206.67 -0.378982 1.52975 0
M  V30 40796 C 4207.92 -1.12025 1.6773 0
M  V30 40797 C 4208.23 -1.90845 0.428661 0
M  V30 40798 O 4209.44 -2.67635 0.456508 0
M  V30 40799 C 4207.9 -2.04061 2.96458 0
M  V30 40800 C 4207.5 -1.30616 4.28536 0
M  V30 40801 C 4209.25 -2.78262 3.20579 0
M  V30 40802 C 4207.16 -2.21476 5.48363 0
M  V30 40803 H 4206.09 -0.421906 0.624909 0
M  V30 40804 H 4208.74 -0.382257 1.79474 0
M  V30 40805 H 4207.12 -2.81537 2.78483 0
M  V30 40806 H 4208.29 -0.582963 4.57098 0
M  V30 40807 H 4206.61 -0.683335 4.10755 0
M  V30 40808 H 4209.2 -3.46443 4.07285 0
M  V30 40809 H 4209.55 -3.42893 2.36072 0
M  V30 40810 H 4210.08 -2.07874 3.39165 0
M  V30 40811 H 4206.82 -1.61443 6.35308 0
M  V30 40812 H 4206.34 -2.91683 5.241 0
M  V30 40813 H 4208.02 -2.81336 5.82631 0
M  V30 40814 N 4208.15 -1.44108 -0.638015 0
M  V30 40815 C 4209.1 -1.46882 -1.74384 0
M  V30 40816 C 4210.08 -0.335415 -1.57365 0
M  V30 40817 O 4211.28 -0.580252 -1.67219 0
M  V30 40818 C 4208.41 -1.40924 -3.13042 0
M  V30 40819 C 4207.49 -2.59353 -3.35555 0
M  V30 40820 N 4207.88 -3.84634 -3.28466 0
M  V30 40821 C 4206.18 -2.54402 -3.66327 0
M  V30 40822 C 4206.88 -4.63506 -3.51479 0
M  V30 40823 N 4205.86 -3.94472 -3.74023 0
M  V30 40824 H 4209.66 -2.416 -1.67351 0
M  V30 40825 H 4207.17 -1.38974 -0.840237 0
M  V30 40826 H 4209.17 -1.40995 -3.92334 0
M  V30 40827 H 4207.83 -0.472385 -3.21245 0
M  V30 40828 H 4208.84 -4.16702 -3.07538 0
M  V30 40829 H 4205.52 -1.69478 -3.81554 0
M  V30 40830 H 4206.91 -5.72532 -3.51649 0
M  V30 40831 N 4209.63 0.877792 -1.30891 0
M  V30 40832 C 4210.56 1.99011 -1.13698 0
M  V30 40833 C 4211.57 1.62612 -0.0782083 0
M  V30 40834 O 4212.76 1.75518 -0.324937 0
M  V30 40835 C 4209.86 3.31309 -0.71329 0
M  V30 40836 C 4209.04 3.96099 -1.85537 0
M  V30 40837 C 4208.09 5.06705 -1.41904 0
M  V30 40838 O 4207.12 5.27948 -2.12743 0
M  V30 40839 N 4208.32 5.79714 -0.30206 0
M  V30 40840 H 4211.09 2.14309 -2.09503 0
M  V30 40841 H 4208.65 1.05131 -1.23122 0
M  V30 40842 H 4210.64 4.02676 -0.404259 0
M  V30 40843 H 4209.21 3.12226 0.152932 0
M  V30 40844 H 4208.43 3.17813 -2.33214 0
M  V30 40845 H 4209.72 4.36125 -2.62054 0
M  V30 40846 H 4209.12 5.64966 0.288054 0
M  V30 40847 H 4207.67 6.51779 -0.0525213 0
M  V30 40848 N 4211.11 1.13725 1.09108 0
M  V30 40849 C 4212.52 0.876133 1.33402 0
M  V30 40850 C 4212.72 -0.486572 1.95537 0
M  V30 40851 O 4211.78 -1.2324 2.20382 0
M  V30 40852 C 4213.09 2.00329 2.24251 0
M  V30 40853 C 4214.64 2.03576 2.37752 0
M  V30 40854 C 4215.11 3.15564 3.31939 0
M  V30 40855 N 4216.61 3.15095 3.39513 0
M  V30 40856 C 4217.34 3.98387 4.12402 0
M  V30 40857 N 4216.84 4.91701 4.8806 0
M  V30 40858 N 4218.63 3.86474 4.0816 0
M  V30 40859 H 4210.78 2.01505 0.67153 0
M  V30 40860 H 4213.04 0.877647 0.358385 0
M  V30 40861 H 4212.75 2.98598 1.85828 0
M  V30 40862 H 4212.62 1.92025 3.24664 0
M  V30 40863 H 4215.01 1.05918 2.75437 0
M  V30 40864 H 4215.09 2.15952 1.37107 0
M  V30 40865 H 4214.74 4.13463 2.94976 0
M  V30 40866 H 4214.67 3.00425 4.32495 0
M  V30 40867 H 4217.16 2.47505 2.85569 0
M  V30 40868 H 4217.47 5.51736 5.41117 0
M  V30 40869 H 4215.81 4.95704 4.87137 0
M  V30 40870 H 4219.01 3.12898 3.48155 0
M  V30 40871 H 4219.18 4.51614 4.64703 0
M  V30 40872 N 4212.58 -1.27143 0.931254 0
M  V30 40873 C 4213.53 -2.28709 0.423676 0
M  V30 40874 C 4214.53 -1.62041 -0.493857 0
M  V30 40875 O 4215.73 -1.76089 -0.373167 0
M  V30 40876 H 4212.11 -0.742613 0.118449 0
M  V30 40877 H 4214.08 -2.6893 1.29302 0
M  V30 40878 C 4212.83 -3.4636 -0.30499 0
M  V30 40879 H 4212.15 -3.97875 0.391856 0
M  V30 40880 H 4213.59 -4.19375 -0.624516 0
M  V30 40881 C 4212.05 -3.007 -1.51925 0
M  V30 40882 O 4212.58 -3.04679 -2.6179 0
M  V30 40883 N 4210.79 -2.56155 -1.37233 0
M  V30 40884 H 4210.33 -2.53117 -0.478478 0
M  V30 40885 H 4210.29 -2.25967 -2.18601 0
M  V30 40886 N 4214.06 -0.697157 -1.41342 0
M  V30 40887 C 4215.31 -0.228343 -2.00806 0
M  V30 40888 C 4215.63 1.17665 -1.55499 0
M  V30 40889 O 4214.9 1.79427 -0.786304 0
M  V30 40890 H 4213.48 -0.0814304 -0.742548 0
M  V30 40891 H 4216.14 -0.898671 -1.72945 0
M  V30 40892 H 4215.24 -0.247009 -3.11121 0
M  V30 40893 N 4215.54 1.51274 -0.44202 0
M  V30 40894 C 4216.47 2.30747 0.357517 0
M  V30 40895 C 4217.45 1.36364 1.01681 0
M  V30 40896 O 4218.64 1.65284 1.01955 0
M  V30 40897 C 4215.77 3.15289 1.45636 0
M  V30 40898 C 4214.72 4.17989 0.920304 0
M  V30 40899 C 4214.05 4.91082 2.11525 0
M  V30 40900 C 4215.35 5.22277 -0.0484859 0
M  V30 40901 H 4217.04 2.97835 -0.305702 0
M  V30 40902 H 4214.59 1.43233 -0.148464 0
M  V30 40903 H 4216.54 3.69668 2.02295 0
M  V30 40904 H 4215.26 2.46031 2.14794 0
M  V30 40905 H 4213.92 3.64668 0.375898 0
M  V30 40906 H 4213.57 4.18322 2.79313 0
M  V30 40907 H 4213.27 5.6053 1.76293 0
M  V30 40908 H 4214.8 5.48286 2.68729 0
M  V30 40909 H 4216.21 5.717 0.427952 0
M  V30 40910 H 4214.61 5.9928 -0.313609 0
M  V30 40911 H 4215.68 4.74817 -0.983694 0
M  V30 40912 N 4217.02 0.173543 1.56642 0
M  V30 40913 C 4218.24 -0.480214 2.01764 0
M  V30 40914 C 4218.67 -1.55866 1.05297 0
M  V30 40915 O 4218.03 -1.8127 0.0328787 0
M  V30 40916 C 4218.08 -1.03343 3.45475 0
M  V30 40917 O 4217.18 -2.14733 3.52084 0
M  V30 40918 H 4216.52 -0.114732 0.654013 0
M  V30 40919 H 4219.05 0.278087 2.02701 0
M  V30 40920 H 4219.06 -1.35547 3.84826 0
M  V30 40921 H 4217.74 -0.243829 4.15185 0
M  V30 40922 H 4216.31 -1.83556 3.24595 0
M  V30 40923 N 4218.5 -1.57281 -0.100172 0
M  V30 40924 C 4219.73 -1.89756 -0.817088 0
M  V30 40925 C 4220.14 -0.764899 -1.73049 0
M  V30 40926 O 4219.48 0.272352 -1.8167 0
M  V30 40927 C 4219.54 -3.17435 -1.68747 0
M  V30 40928 C 4219.2 -4.47093 -0.946422 0
M  V30 40929 C 4220.2 -5.19153 -0.278554 0
M  V30 40930 C 4217.89 -4.93765 -0.922008 0
M  V30 40931 C 4219.88 -6.3612 0.403815 0
M  V30 40932 C 4217.57 -6.10645 -0.235851 0
M  V30 40933 C 4218.57 -6.81671 0.425888 0
M  V30 40934 O 4218.25 -7.96324 1.10105 0
M  V30 40935 H 4217.99 -0.632283 -0.239152 0
M  V30 40936 H 4220.54 -2.05231 -0.0833778 0
M  V30 40937 H 4218.77 -2.98092 -2.46329 0
M  V30 40938 H 4220.46 -3.3578 -2.28049 0
M  V30 40939 H 4221.22 -4.84139 -0.288909 0
M  V30 40940 H 4217.1 -4.38374 -1.42652 0
M  V30 40941 H 4220.65 -6.91495 0.920898 0
M  V30 40942 H 4216.54 -6.45114 -0.223325 0
M  V30 40943 H 4217.31 -8.12276 1.00743 0
M  V30 40944 N 4219.98 0.370864 -1.53174 0
M  V30 40945 C 4220.91 1.46013 -1.82215 0
M  V30 40946 C 4221.89 1.56121 -0.675301 0
M  V30 40947 O 4223.07 1.70775 -0.924644 0
M  V30 40948 C 4220.2 2.83415 -2.00732 0
M  V30 40949 C 4219.16 2.88136 -3.16483 0
M  V30 40950 C 4218.48 4.28161 -3.20284 0
M  V30 40951 C 4219.78 2.56135 -4.55183 0
M  V30 40952 H 4221.48 1.2196 -2.73434 0
M  V30 40953 H 4219.02 0.585265 -1.3157 0
M  V30 40954 H 4220.97 3.59639 -2.19631 0
M  V30 40955 H 4219.7 3.08845 -1.06218 0
M  V30 40956 H 4218.36 2.14362 -2.97396 0
M  V30 40957 H 4218.01 4.50659 -2.23418 0
M  V30 40958 H 4217.71 4.32237 -3.98052 0
M  V30 40959 H 4219.23 5.06266 -3.4136 0
M  V30 40960 H 4220.64 3.22074 -4.7428 0
M  V30 40961 H 4219.04 2.71535 -5.35153 0
M  V30 40962 H 4220.11 1.51404 -4.60657 0
M  V30 40963 N 4221.45 1.44444 0.630363 0
M  V30 40964 C 4222.4 1.47805 1.73602 0
M  V30 40965 C 4223.39 0.343755 1.57185 0
M  V30 40966 O 4224.58 0.589112 1.66909 0
M  V30 40967 C 4221.71 1.42583 3.1229 0
M  V30 40968 C 4220.79 2.61129 3.34175 0
M  V30 40969 N 4221.19 3.86371 3.26422 0
M  V30 40970 C 4219.48 2.56341 3.64973 0
M  V30 40971 C 4220.18 4.65363 3.49015 0
M  V30 40972 N 4219.16 3.9645 3.71925 0
M  V30 40973 H 4222.96 2.42485 1.66068 0
M  V30 40974 H 4220.48 1.39418 0.832855 0
M  V30 40975 H 4222.47 1.43074 3.91581 0
M  V30 40976 H 4221.13 0.489415 3.2099 0
M  V30 40977 H 4222.14 4.18327 3.05324 0
M  V30 40978 H 4218.82 1.71499 3.8065 0
M  V30 40979 H 4220.21 5.74389 3.48607 0
M  V30 40980 N 4222.93 -0.870838 1.31355 0
M  V30 40981 C 4224.16 -1.65661 1.23951 0
M  V30 40982 C 4224.57 -1.87787 -0.19532 0
M  V30 40983 O 4223.93 -1.4354 -1.12705 0
M  V30 40984 C 4223.98 -3.02508 1.97917 0
M  V30 40985 O 4223.7 -2.81371 3.358 0
M  V30 40986 C 4225.2 -3.96952 1.97343 0
M  V30 40987 H 4222.42 -0.516496 0.428337 0
M  V30 40988 H 4224.97 -1.08703 1.73216 0
M  V30 40989 H 4223.12 -3.56158 1.52415 0
M  V30 40990 H 4223.54 -3.68286 3.73451 0
M  V30 40991 H 4225.01 -4.90292 2.53609 0
M  V30 40992 H 4225.49 -4.28675 0.955727 0
M  V30 40993 H 4226.09 -3.49238 2.4272 0
M  V30 40994 N 4224.41 -1.14302 -1.08503 0
M  V30 40995 C 4225.37 -0.831851 -2.13572 0
M  V30 40996 C 4226.37 0.163064 -1.59971 0
M  V30 40997 O 4227.56 -0.0651662 -1.74078 0
M  V30 40998 C 4224.69 -0.239855 -3.40055 0
M  V30 40999 H 4225.89 -1.76301 -2.42607 0
M  V30 41000 H 4223.44 -0.948912 -1.24199 0
M  V30 41001 H 4224.18 0.700065 -3.16654 0
M  V30 41002 H 4223.96 -0.956455 -3.80256 0
M  V30 41003 H 4225.45 -0.0393272 -4.17581 0
M  V30 41004 N 4225.89 1.26648 -0.937984 0
M  V30 41005 C 4226.83 2.26494 -0.443757 0
M  V30 41006 C 4227.8 1.58557 0.494866 0
M  V30 41007 O 4228.99 1.86304 0.411774 0
M  V30 41008 C 4226.13 3.43897 0.287914 0
M  V30 41009 C 4225.24 4.26518 -0.686011 0
M  V30 41010 C 4224.38 5.31158 0.0665369 0
M  V30 41011 C 4223.42 6.05456 -0.899419 0
M  V30 41012 N 4222.55 7.01872 -0.178833 0
M  V30 41013 H 4227.39 2.68142 -1.30015 0
M  V30 41014 H 4224.93 1.31844 -0.652354 0
M  V30 41015 H 4226.89 4.1079 0.72854 0
M  V30 41016 H 4225.52 3.03171 1.10847 0
M  V30 41017 H 4224.57 3.59444 -1.24515 0
M  V30 41018 H 4225.88 4.78047 -1.42381 0
M  V30 41019 H 4225.04 6.04048 0.566596 0
M  V30 41020 H 4223.78 4.8046 0.837242 0
M  V30 41021 H 4222.78 5.31395 -1.41063 0
M  V30 41022 H 4224.01 6.58244 -1.67008 0
M  V30 41023 H 4221.95 6.53489 0.573438 0
M  V30 41024 H 4221.87 7.51138 -0.856023 0
M  V30 41025 H 4223.14 7.78922 0.300237 0
M  V30 41026 N 4227.37 0.704643 1.4097 0
M  V30 41027 C 4228.31 0.0450729 2.30756 0
M  V30 41028 C 4229.28 -0.761809 1.476 0
M  V30 41029 O 4230.47 -0.727992 1.76366 0
M  V30 41030 C 4227.61 -0.878744 3.33725 0
M  V30 41031 C 4226.72 -0.0625072 4.31955 0
M  V30 41032 C 4225.86 -0.984797 5.21992 0
M  V30 41033 C 4224.89 -0.162003 6.11886 0
M  V30 41034 N 4224.03 -1.03858 6.94376 0
M  V30 41035 H 4228.87 0.816464 2.86597 0
M  V30 41036 H 4226.41 0.414331 1.41144 0
M  V30 41037 H 4228.37 -1.42849 3.91982 0
M  V30 41038 H 4227 -1.61643 2.79412 0
M  V30 41039 H 4226.05 0.604282 3.7557 0
M  V30 41040 H 4227.36 0.574984 4.95475 0
M  V30 41041 H 4226.51 -1.60346 5.85127 0
M  V30 41042 H 4225.25 -1.65613 4.5872 0
M  V30 41043 H 4224.26 0.469672 5.4779 0
M  V30 41044 H 4225.48 0.505666 6.77215 0
M  V30 41045 H 4223.43 -1.69576 6.33703 0
M  V30 41046 H 4223.35 -0.456873 7.54618 0
M  V30 41047 H 4224.61 -1.64377 7.61971 0
M  V30 41048 N 4228.84 -1.51038 0.450036 0
M  V30 41049 C 4229.79 -2.28054 -0.354972 0
M  V30 41050 C 4230.76 -1.32188 -1.00576 0
M  V30 41051 O 4231.95 -1.61105 -1.02224 0
M  V30 41052 C 4229.09 -3.1348 -1.44305 0
M  V30 41053 C 4228.2 -4.24355 -0.809139 0
M  V30 41054 C 4227.33 -4.97071 -1.87334 0
M  V30 41055 C 4226.37 -5.99848 -1.21854 0
M  V30 41056 N 4225.51 -6.65923 -2.22465 0
M  V30 41057 H 4230.35 -2.96403 0.308136 0
M  V30 41058 H 4227.89 -1.46185 0.163803 0
M  V30 41059 H 4229.85 -3.61344 -2.08533 0
M  V30 41060 H 4228.48 -2.47221 -2.07562 0
M  V30 41061 H 4227.53 -3.8036 -0.0548269 0
M  V30 41062 H 4228.84 -4.97949 -0.291201 0
M  V30 41063 H 4227.99 -5.48547 -2.59193 0
M  V30 41064 H 4226.73 -4.23135 -2.42503 0
M  V30 41065 H 4225.74 -5.47653 -0.485464 0
M  V30 41066 H 4226.96 -6.75747 -0.674005 0
M  V30 41067 H 4224.91 -5.94792 -2.76691 0
M  V30 41068 H 4224.83 -7.35324 -1.75598 0
M  V30 41069 H 4226.09 -7.22025 -2.93769 0
M  V30 41070 N 4230.32 -0.181847 -1.56547 0
M  V30 41071 C 4231.25 0.739735 -2.21473 0
M  V30 41072 C 4232.23 1.23126 -1.17363 0
M  V30 41073 O 4233.42 1.28251 -1.45827 0
M  V30 41074 C 4230.55 1.96489 -2.86373 0
M  V30 41075 C 4229.5 1.60881 -3.96612 0
M  V30 41076 C 4228.83 2.90949 -4.48612 0
M  V30 41077 C 4230.13 0.828804 -5.15682 0
M  V30 41078 H 4231.82 0.198527 -2.98741 0
M  V30 41079 H 4229.37 0.0940473 -1.43693 0
M  V30 41080 H 4231.32 2.61471 -3.30471 0
M  V30 41081 H 4230.05 2.53041 -2.06489 0
M  V30 41082 H 4228.7 0.982631 -3.53185 0
M  V30 41083 H 4228.35 3.45563 -3.65507 0
M  V30 41084 H 4228.05 2.67873 -5.22989 0
M  V30 41085 H 4229.58 3.56942 -4.95404 0
M  V30 41086 H 4230.99 1.38144 -5.56407 0
M  V30 41087 H 4229.39 0.696685 -5.96042 0
M  V30 41088 H 4230.46 -0.172796 -4.84592 0
M  V30 41089 N 4231.8 1.57332 0.09183 0
M  V30 41090 C 4232.73 1.97547 1.14239 0
M  V30 41091 C 4233.71 0.84919 1.38663 0
M  V30 41092 O 4234.9 1.10977 1.52369 0
M  V30 41093 C 4232.02 2.29503 2.4909 0
M  V30 41094 C 4231.07 3.51933 2.40926 0
M  V30 41095 S 4231.9 5.03528 1.82263 0
M  V30 41096 C 4233.06 5.38665 3.18733 0
M  V30 41097 H 4233.29 2.86346 0.799583 0
M  V30 41098 H 4230.82 1.51465 0.299631 0
M  V30 41099 H 4232.78 2.48591 3.26669 0
M  V30 41100 H 4231.44 1.41269 2.80538 0
M  V30 41101 H 4230.64 3.71746 3.40325 0
M  V30 41102 H 4230.24 3.32373 1.71477 0
M  V30 41103 H 4232.53 5.3551 4.15012 0
M  V30 41104 H 4233.47 6.39656 3.03721 0
M  V30 41105 H 4233.88 4.66125 3.18415 0
M  V30 41106 N 4233.28 -0.362736 1.53369 0
M  V30 41107 C 4234.69 -0.939388 1.61346 0
M  V30 41108 C 4235.04 -1.90171 0.482653 0
M  V30 41109 O 4234.17 -2.12847 -0.390503 0
M  V30 41110 C 4234.76 -1.71054 2.92448 0
M  V30 41111 C 4233.32 -2.23649 3.02751 0
M  V30 41112 C 4232.47 -1.04976 2.56662 0
M  V30 41113 H 4235.42 -0.141443 1.58068 0
M  V30 41114 H 4235.44 -2.57197 2.80411 0
M  V30 41115 H 4234.95 -1.00989 3.7473 0
M  V30 41116 H 4233.05 -2.96947 2.25063 0
M  V30 41117 H 4233.16 -2.51336 4.07881 0
M  V30 41118 H 4231.53 -1.41757 2.11606 0
M  V30 41119 H 4232.31 -0.364051 3.41364 0
M  V30 41120 N 4234.76 -1.44777 -0.622694 0
M  V30 41121 C 4236 -1.47711 -1.37935 0
M  V30 41122 C 4236.33 -0.114221 -1.94665 0
M  V30 41123 O 4235.6 0.854552 -1.76279 0
M  V30 41124 H 4234.18 -0.543923 -0.512013 0
M  V30 41125 H 4236.84 -1.80619 -0.732305 0
M  V30 41126 H 4235.93 -2.20734 -2.20642 0
M  V30 41127 N 4236.23 0.863859 -1.31815 0
M  V30 41128 C 4237.46 1.65002 -1.24828 0
M  V30 41129 C 4237.88 1.87888 0.185358 0
M  V30 41130 O 4237.23 1.44136 1.11942 0
M  V30 41131 C 4237.29 3.01454 -1.99519 0
M  V30 41132 O 4237.01 2.79587 -3.37288 0
M  V30 41133 C 4238.51 3.959 -1.99445 0
M  V30 41134 H 4235.73 0.514217 -0.43107 0
M  V30 41135 H 4238.27 1.07783 -1.7379 0
M  V30 41136 H 4236.43 3.55344 -1.54302 0
M  V30 41137 H 4236.84 3.663 -3.75399 0
M  V30 41138 H 4238.31 4.8894 -2.56206 0
M  V30 41139 H 4238.79 4.28162 -0.978447 0
M  V30 41140 H 4239.4 3.47946 -2.44569 0
M  V30 41141 N 4237.71 1.14875 1.07895 0
M  V30 41142 C 4238.94 0.94251 1.83849 0
M  V30 41143 C 4239.35 -0.512454 1.82128 0
M  V30 41144 O 4238.69 -1.36703 1.22711 0
M  V30 41145 C 4238.76 1.3725 3.32269 0
M  V30 41146 C 4238.42 2.84407 3.57718 0
M  V30 41147 C 4239.42 3.82498 3.52124 0
M  V30 41148 C 4237.1 3.21944 3.85561 0
M  V30 41149 C 4239.1 5.16133 3.74013 0
M  V30 41150 C 4236.78 4.55753 4.07103 0
M  V30 41151 C 4237.78 5.52656 4.01323 0
M  V30 41152 O 4237.47 6.84049 4.22294 0
M  V30 41153 H 4237.2 0.33514 0.587075 0
M  V30 41154 H 4239.75 1.52911 1.3714 0
M  V30 41155 H 4237.98 0.729257 3.79761 0
M  V30 41156 H 4239.67 1.13623 3.89672 0
M  V30 41157 H 4240.44 3.54844 3.30622 0
M  V30 41158 H 4236.32 2.47107 3.89177 0
M  V30 41159 H 4239.86 5.91757 3.69417 0
M  V30 41160 H 4235.76 4.83124 4.2809 0
M  V30 41161 H 4236.53 6.90385 4.39672 0
M  V30 41162 N 4239.19 -1.26148 0.944687 0
M  V30 41163 C 4240.42 -1.97673 0.610991 0
M  V30 41164 C 4240.83 -1.70313 -0.814788 0
M  V30 41165 O 4240.19 -0.973391 -1.54374 0
M  V30 41166 C 4240.24 -3.51414 0.847974 0
M  V30 41167 O 4239.96 -3.77824 2.21768 0
M  V30 41168 C 4241.46 -4.40177 0.525302 0
M  V30 41169 H 4238.68 -0.63037 0.229944 0
M  V30 41170 H 4241.23 -1.60573 1.26635 0
M  V30 41171 H 4239.38 -3.86661 0.239173 0
M  V30 41172 H 4239.8 -4.72335 2.28034 0
M  V30 41173 H 4241.27 -5.46994 0.74172 0
M  V30 41174 H 4241.75 -4.3587 -0.539826 0
M  V30 41175 H 4242.35 -4.10479 1.11299 0
M  V30 41176 N 4240.67 -0.712109 -1.40594 0
M  V30 41177 C 4241.6 -0.0719848 -2.33389 0
M  V30 41178 C 4242.58 0.749307 -1.52707 0
M  V30 41179 O 4243.76 0.698936 -1.81186 0
M  V30 41180 C 4240.89 0.853063 -3.3666 0
M  V30 41181 C 4239.85 0.137649 -4.27779 0
M  V30 41182 C 4239.17 1.17818 -5.21558 0
M  V30 41183 C 4240.47 -1.00606 -5.12519 0
M  V30 41184 H 4242.17 -0.847052 -2.87168 0
M  V30 41185 H 4239.71 -0.408781 -1.38076 0
M  V30 41186 H 4241.67 1.31024 -4.00513 0
M  V30 41187 H 4240.39 1.65999 -2.81269 0
M  V30 41188 H 4239.05 -0.299667 -3.65373 0
M  V30 41189 H 4238.7 1.97806 -4.62474 0
M  V30 41190 H 4238.4 0.7044 -5.83363 0
M  V30 41191 H 4239.92 1.63553 -5.88288 0
M  V30 41192 H 4241.34 -0.62841 -5.69846 0
M  V30 41193 H 4239.73 -1.40799 -5.83349 0
M  V30 41194 H 4240.8 -1.8383 -4.48703 0
M  V30 41195 N 4242.15 1.50797 -0.45804 0
M  V30 41196 C 4243.06 2.31997 0.348518 0
M  V30 41197 C 4244.07 1.41806 1.00832 0
M  V30 41198 O 4245.25 1.74868 0.999161 0
M  V30 41199 C 4242.31 3.16127 1.42354 0
M  V30 41200 C 4241.37 4.22123 0.781706 0
M  V30 41201 C 4240.61 5.02232 1.80551 0
M  V30 41202 O 4240.83 4.83241 3.03042 0
M  V30 41203 O 4239.76 5.85759 1.38456 0
M  V30 41204 H 4243.59 3.02063 -0.314946 0
M  V30 41205 H 4241.18 1.47769 -0.220143 0
M  V30 41206 H 4243.06 3.68367 2.04654 0
M  V30 41207 H 4241.73 2.48803 2.07071 0
M  V30 41208 H 4240.64 3.73907 0.120104 0
M  V30 41209 H 4241.97 4.91879 0.177696 0
M  V30 41210 N 4243.63 0.190147 1.56449 0
M  V30 41211 C 4244.87 -0.450111 1.96614 0
M  V30 41212 C 4245.19 -1.63102 1.07968 0
M  V30 41213 O 4246.39 -2.33875 1.37894 0
M  V30 41214 C 4244.85 -0.852184 3.49665 0
M  V30 41215 C 4244.46 0.304165 4.46966 0
M  V30 41216 C 4246.2 -1.4598 3.9861 0
M  V30 41217 C 4244.11 -0.118591 5.91281 0
M  V30 41218 H 4243.04 -0.171935 0.734135 0
M  V30 41219 H 4245.69 0.281377 1.8133 0
M  V30 41220 H 4244.07 -1.6402 3.60435 0
M  V30 41221 H 4245.25 1.08166 4.47925 0
M  V30 41222 H 4243.56 0.822958 4.08187 0
M  V30 41223 H 4246.16 -1.78847 5.03903 0
M  V30 41224 H 4246.5 -2.36452 3.42631 0
M  V30 41225 H 4247.03 -0.73586 3.90935 0
M  V30 41226 H 4243.77 0.751814 6.51174 0
M  V30 41227 H 4243.29 -0.86105 5.93587 0
M  V30 41228 H 4244.97 -0.556082 6.44606 0
M  V30 41229 N 4245.1 -1.57379 -0.083485 0
M  V30 41230 C 4246.33 -1.90888 -0.798073 0
M  V30 41231 C 4246.75 -0.78499 -1.71707 0
M  V30 41232 O 4246.1 0.242374 -1.80883 0
M  V30 41233 C 4246.15 -3.24084 -1.60162 0
M  V30 41234 O 4245.88 -4.3215 -0.719579 0
M  V30 41235 C 4247.38 -3.71532 -2.41825 0
M  V30 41236 H 4244.6 -0.631235 -0.22756 0
M  V30 41237 H 4247.14 -2.0442 -0.0572475 0
M  V30 41238 H 4245.3 -3.12115 -2.29484 0
M  V30 41239 H 4245.71 -5.0871 -1.27728 0
M  V30 41240 H 4247.18 -4.67392 -2.93681 0
M  V30 41241 H 4247.66 -2.99953 -3.20819 0
M  V30 41242 H 4248.27 -3.86406 -1.77681 0
M  V30 41243 N 4246.58 0.354597 -1.53559 0
M  V30 41244 C 4247.81 1.12084 -1.74505 0
M  V30 41245 C 4248.23 1.81929 -0.477849 0
M  V30 41246 O 4247.59 1.72145 0.568837 0
M  V30 41247 C 4247.64 2.11845 -2.91811 0
M  V30 41248 O 4246.74 3.19147 -2.61187 0
M  V30 41249 H 4246.08 0.324695 -0.579197 0
M  V30 41250 H 4248.61 0.408365 -2.00483 0
M  V30 41251 H 4248.62 2.55258 -3.18288 0
M  V30 41252 H 4247.3 1.60403 -3.83723 0
M  V30 41253 H 4245.87 2.8063 -2.45563 0
M  V30 41254 N 4248.06 1.45105 0.615008 0
M  V30 41255 C 4249.31 1.48009 1.37026 0
M  V30 41256 C 4249.62 0.122974 1.95213 0
M  V30 41257 O 4250.83 0.029624 2.71484 0
M  V30 41258 C 4249.28 2.60649 2.48174 0
M  V30 41259 C 4248.89 4.0264 1.9643 0
M  V30 41260 C 4250.64 2.72792 3.25246 0
M  V30 41261 C 4248.54 5.06675 3.05016 0
M  V30 41262 H 4247.47 0.550724 0.514995 0
M  V30 41263 H 4250.12 1.71222 0.659944 0
M  V30 41264 H 4248.51 2.30706 3.21855 0
M  V30 41265 H 4249.68 4.42227 1.29506 0
M  V30 41266 H 4247.99 3.94882 1.32125 0
M  V30 41267 H 4250.59 3.47688 4.06223 0
M  V30 41268 H 4250.93 1.79166 3.75773 0
M  V30 41269 H 4251.47 3.02224 2.58661 0
M  V30 41270 H 4248.21 6.01984 2.59414 0
M  V30 41271 H 4247.73 4.71665 3.7053 0
M  V30 41272 H 4249.41 5.31095 3.69523 0
M  V30 41273 N 4249.54 -0.856857 1.32271 0
M  V30 41274 C 4250.95 -1.4268 1.20414 0
M  V30 41275 C 4251.3 -1.95333 -0.184219 0
M  V30 41276 O 4250.42 -1.87361 -1.08281 0
M  V30 41277 C 4251.02 -2.59354 2.17993 0
M  V30 41278 C 4249.58 -3.12353 2.10029 0
M  V30 41279 C 4248.73 -1.85094 2.06484 0
M  V30 41280 H 4251.68 -0.664211 1.44132 0
M  V30 41281 H 4251.7 -3.36447 1.77718 0
M  V30 41282 H 4251.21 -2.21001 3.1903 0
M  V30 41283 H 4249.31 -3.55295 1.12233 0
M  V30 41284 H 4249.42 -3.73747 2.9975 0
M  V30 41285 H 4247.79 -2.04602 1.5169 0
M  V30 41286 H 4248.57 -1.48961 3.09298 0
M  V30 41287 N 4251.02 -1.15446 -1.07285 0
M  V30 41288 C 4251.95 -0.874818 -2.16493 0
M  V30 41289 C 4252.93 0.174853 -1.69199 0
M  V30 41290 O 4254.11 0.0290821 -1.94178 0
M  V30 41291 C 4251.24 -0.364079 -3.45386 0
M  V30 41292 C 4250.2 -1.3505 -4.06135 0
M  V30 41293 C 4249.52 -0.698583 -5.30117 0
M  V30 41294 C 4250.82 -2.71673 -4.46084 0
M  V30 41295 H 4252.52 -1.78806 -2.40143 0
M  V30 41296 H 4250.06 -0.861144 -1.15414 0
M  V30 41297 H 4252.01 -0.155984 -4.21111 0
M  V30 41298 H 4250.74 0.584633 -3.21325 0
M  V30 41299 H 4249.4 -1.54497 -3.32455 0
M  V30 41300 H 4249.05 0.256298 -5.02347 0
M  V30 41301 H 4248.75 -1.35689 -5.71719 0
M  V30 41302 H 4250.27 -0.500278 -6.08547 0
M  V30 41303 H 4251.68 -2.56068 -5.12935 0
M  V30 41304 H 4250.08 -3.33884 -4.98639 0
M  V30 41305 H 4251.15 -3.27686 -3.57421 0
M  V30 41306 N 4252.49 1.25646 -0.951364 0
M  V30 41307 C 4253.72 1.9706 -0.620564 0
M  V30 41308 C 4254.13 1.70943 0.810872 0
M  V30 41309 O 4253.47 0.980262 1.55359 0
M  V30 41310 C 4253.54 3.50592 -0.795339 0
M  V30 41311 C 4253.2 4.00378 -2.20332 0
M  V30 41312 C 4254.2 4.11328 -3.1797 0
M  V30 41313 C 4251.88 4.34128 -2.52663 0
M  V30 41314 C 4253.88 4.55336 -4.46036 0
M  V30 41315 C 4251.56 4.77822 -3.80958 0
M  V30 41316 C 4252.56 4.88389 -4.77457 0
M  V30 41317 O 4252.25 5.31116 -6.03466 0
M  V30 41318 H 4251.98 0.634997 -0.23185 0
M  V30 41319 H 4254.54 1.60859 -1.27724 0
M  V30 41320 H 4252.77 3.86614 -0.081512 0
M  V30 41321 H 4254.45 4.03215 -0.466081 0
M  V30 41322 H 4255.22 3.85489 -2.94318 0
M  V30 41323 H 4251.1 4.25131 -1.78281 0
M  V30 41324 H 4254.64 4.63499 -5.21359 0
M  V30 41325 H 4250.54 5.03106 -4.04419 0
M  V30 41326 H 4251.31 5.4931 -6.06795 0
M  V30 41327 N 4253.97 0.719555 1.40215 0
M  V30 41328 C 4254.92 0.0695451 2.30695 0
M  V30 41329 C 4255.89 -0.746112 1.48399 0
M  V30 41330 O 4257.07 -0.709246 1.77128 0
M  V30 41331 C 4254.21 -0.843298 3.34638 0
M  V30 41332 C 4253.33 -0.0166891 4.31997 0
M  V30 41333 C 4252.46 -0.929378 5.23007 0
M  V30 41334 C 4251.5 -0.0970948 6.12023 0
M  V30 41335 N 4250.64 -0.964875 6.95438 0
M  V30 41336 H 4255.48 0.846816 2.85715 0
M  V30 41337 H 4253.01 0.429278 1.40697 0
M  V30 41338 H 4254.97 -1.38684 3.93475 0
M  V30 41339 H 4253.6 -1.58671 2.81111 0
M  V30 41340 H 4252.65 0.644082 3.74908 0
M  V30 41341 H 4253.97 0.627503 4.94837 0
M  V30 41342 H 4253.12 -1.54131 5.86795 0
M  V30 41343 H 4251.86 -1.60738 4.6045 0
M  V30 41344 H 4250.86 0.527746 5.47261 0
M  V30 41345 H 4252.09 0.577466 6.7664 0
M  V30 41346 H 4250.04 -1.62846 6.35466 0
M  V30 41347 H 4249.95 -0.37681 7.5506 0
M  V30 41348 H 4251.22 -1.56286 7.63672 0
M  V30 41349 N 4255.45 -1.50552 0.466031 0
M  V30 41350 C 4256.4 -2.28418 -0.330764 0
M  V30 41351 C 4257.37 -1.33247 -0.991684 0
M  V30 41352 O 4258.55 -1.6218 -1.00509 0
M  V30 41353 C 4255.69 -3.14993 -1.40972 0
M  V30 41354 C 4254.8 -4.25189 -0.764085 0
M  V30 41355 C 4253.94 -4.9903 -1.82051 0
M  V30 41356 C 4252.98 -6.01107 -1.15484 0
M  V30 41357 N 4252.12 -6.68245 -2.15389 0
M  V30 41358 H 4256.96 -2.96059 0.339556 0
M  V30 41359 H 4254.49 -1.46003 0.179299 0
M  V30 41360 H 4256.45 -3.63536 -2.04689 0
M  V30 41361 H 4255.08 -2.49408 -2.04928 0
M  V30 41362 H 4254.13 -3.80397 -0.0144815 0
M  V30 41363 H 4255.44 -4.9823 -0.23837 0
M  V30 41364 H 4254.6 -5.51265 -2.5336 0
M  V30 41365 H 4253.34 -4.25683 -2.38002 0
M  V30 41366 H 4252.34 -5.48137 -0.427351 0
M  V30 41367 H 4253.57 -6.76424 -0.602295 0
M  V30 41368 H 4251.51 -5.97694 -2.70367 0
M  V30 41369 H 4251.43 -7.37145 -1.67789 0
M  V30 41370 H 4252.7 -7.251 -2.86095 0
M  V30 41371 N 4256.93 -0.198441 -1.56346 0
M  V30 41372 C 4257.87 0.72109 -2.19246 0
M  V30 41373 C 4258.84 1.20733 -1.14074 0
M  V30 41374 O 4260.03 1.27061 -1.42338 0
M  V30 41375 C 4257.17 1.9336 -2.85842 0
M  V30 41376 C 4256.28 1.48842 -4.05549 0
M  V30 41377 C 4255.42 2.6567 -4.59992 0
M  V30 41378 C 4254.46 2.17774 -5.7205 0
M  V30 41379 N 4253.59 3.27791 -6.20884 0
M  V30 41380 H 4258.43 0.177951 -2.97468 0
M  V30 41381 H 4255.97 0.0760911 -1.46903 0
M  V30 41382 H 4257.93 2.64516 -3.22625 0
M  V30 41383 H 4256.56 2.45 -2.10178 0
M  V30 41384 H 4255.61 0.672608 -3.74406 0
M  V30 41385 H 4256.92 1.09705 -4.86586 0
M  V30 41386 H 4256.08 3.44943 -4.99098 0
M  V30 41387 H 4254.82 3.08083 -3.78069 0
M  V30 41388 H 4253.82 1.36955 -5.32469 0
M  V30 41389 H 4255.05 1.76388 -6.55793 0
M  V30 41390 H 4252.99 3.69729 -5.41883 0
M  V30 41391 H 4252.91 2.92833 -6.96983 0
M  V30 41392 H 4254.18 4.07269 -6.64644 0
M  V30 41393 N 4258.41 1.57421 0.0751377 0
M  V30 41394 C 4259.32 2.06808 1.10759 0
M  V30 41395 C 4260.33 0.996935 1.42609 0
M  V30 41396 O 4261.51 1.31142 1.52852 0
M  V30 41397 C 4258.57 2.49937 2.40276 0
M  V30 41398 C 4257.63 3.71334 2.15429 0
M  V30 41399 C 4256.87 4.12396 3.3877 0
M  V30 41400 O 4257.09 3.53361 4.47763 0
M  V30 41401 O 4256.02 5.0521 3.2718 0
M  V30 41402 H 4259.85 2.95089 0.71805 0
M  V30 41403 H 4257.44 1.46577 0.289039 0
M  V30 41404 H 4259.32 2.78214 3.16505 0
M  V30 41405 H 4257.99 1.64785 2.78617 0
M  V30 41406 H 4256.9 3.48145 1.36916 0
M  V30 41407 H 4258.23 4.57327 1.8197 0
M  V30 41408 N 4259.88 -0.346449 1.53745 0
M  V30 41409 C 4260.81 -1.43096 1.84515 0
M  V30 41410 C 4261.8 -1.55027 0.700053 0
M  V30 41411 O 4262.98 -1.69282 0.951696 0
M  V30 41412 C 4260.11 -2.80186 2.05215 0
M  V30 41413 C 4259.06 -2.83064 3.21027 0
M  V30 41414 C 4258.39 -4.23012 3.27055 0
M  V30 41415 C 4259.69 -2.48862 4.59201 0
M  V30 41416 H 4261.38 -1.17594 2.7534 0
M  V30 41417 H 4258.93 -0.564259 1.32484 0
M  V30 41418 H 4260.88 -3.56099 2.25325 0
M  V30 41419 H 4259.61 -3.07116 1.11118 0
M  V30 41420 H 4258.27 -2.09604 3.00769 0
M  V30 41421 H 4257.91 -4.47047 2.30559 0
M  V30 41422 H 4257.61 -4.2585 4.04878 0
M  V30 41423 H 4259.14 -5.00771 3.49372 0
M  V30 41424 H 4260.55 -3.14488 4.79344 0
M  V30 41425 H 4258.95 -2.62987 5.39405 0
M  V30 41426 H 4260.02 -1.44056 4.63007 0
M  V30 41427 N 4261.36 -1.45429 -0.607304 0
M  V30 41428 C 4262.31 -1.54122 -1.71799 0
M  V30 41429 C 4263.28 -0.387099 -1.61526 0
M  V30 41430 O 4264.46 -0.600582 -1.81101 0
M  V30 41431 C 4261.6 -1.51415 -3.10109 0
M  V30 41432 C 4260.72 -2.77381 -3.31186 0
M  V30 41433 C 4259.85 -2.66343 -4.59603 0
M  V30 41434 C 4258.89 -3.87361 -4.73939 0
M  V30 41435 N 4258.03 -3.74856 -5.93656 0
M  V30 41436 H 4262.87 -2.49007 -1.63705 0
M  V30 41437 H 4260.41 -1.23559 -0.798229 0
M  V30 41438 H 4262.36 -1.47833 -3.9013 0
M  V30 41439 H 4260.99 -0.600805 -3.1716 0
M  V30 41440 H 4260.05 -2.91048 -2.44939 0
M  V30 41441 H 4261.36 -3.67141 -3.37652 0
M  V30 41442 H 4260.51 -2.60729 -5.47819 0
M  V30 41443 H 4259.25 -1.74182 -4.55535 0
M  V30 41444 H 4258.26 -3.93334 -3.84146 0
M  V30 41445 H 4259.48 -4.80588 -4.79804 0
M  V30 41446 H 4257.43 -2.85464 -5.90632 0
M  V30 41447 H 4257.34 -4.58252 -6.01283 0
M  V30 41448 H 4258.61 -3.73175 -6.84369 0
M  V30 41449 N 4262.84 0.84983 -1.32724 0
M  V30 41450 C 4263.79 1.9588 -1.22064 0
M  V30 41451 C 4264.76 1.65788 -0.101708 0
M  V30 41452 O 4265.94 1.88763 -0.278091 0
M  V30 41453 C 4263.08 3.31634 -0.954602 0
M  V30 41454 C 4262.2 3.74194 -2.15877 0
M  V30 41455 C 4261.33 4.98763 -1.82781 0
M  V30 41456 C 4260.37 5.33827 -2.99492 0
M  V30 41457 N 4259.51 6.49573 -2.66457 0
M  V30 41458 H 4264.35 2.0433 -2.16918 0
M  V30 41459 H 4261.88 1.00002 -1.07879 0
M  V30 41460 H 4263.84 4.09828 -0.780835 0
M  V30 41461 H 4262.47 3.22772 -0.0428377 0
M  V30 41462 H 4261.52 2.91614 -2.44266 0
M  V30 41463 H 4262.84 3.96097 -3.03164 0
M  V30 41464 H 4261.99 5.84676 -1.61984 0
M  V30 41465 H 4260.73 4.78806 -0.927151 0
M  V30 41466 H 4259.73 4.46423 -3.20915 0
M  V30 41467 H 4260.96 5.55738 -3.90297 0
M  V30 41468 H 4258.9 6.31124 -1.78937 0
M  V30 41469 H 4258.82 6.71518 -3.47274 0
M  V30 41470 H 4260.09 7.38626 -2.49101 0
M  V30 41471 N 4264.32 1.16013 1.06671 0
M  V30 41472 C 4265.25 0.886287 2.16026 0
M  V30 41473 C 4266.23 -0.165877 1.69289 0
M  V30 41474 O 4267.41 -0.0187839 1.94191 0
M  V30 41475 C 4264.54 0.38239 3.45188 0
M  V30 41476 C 4263.5 1.37202 4.05413 0
M  V30 41477 C 4262.82 0.726687 5.29739 0
M  V30 41478 C 4264.12 2.74035 4.44637 0
M  V30 41479 H 4265.82 1.80077 2.39192 0
M  V30 41480 H 4263.36 0.867252 1.14955 0
M  V30 41481 H 4265.32 0.178314 4.21023 0
M  V30 41482 H 4264.04 -0.567584 3.2163 0
M  V30 41483 H 4262.7 1.56258 3.31631 0
M  V30 41484 H 4262.35 -0.229653 5.02475 0
M  V30 41485 H 4262.05 1.38719 5.70991 0
M  V30 41486 H 4263.57 0.532543 6.08273 0
M  V30 41487 H 4264.99 2.58784 5.1157 0
M  V30 41488 H 4263.38 3.36524 4.96862 0
M  V30 41489 H 4264.45 3.29577 3.55678 0
M  V30 41490 N 4265.8 -1.25139 0.958014 0
M  V30 41491 C 4266.71 -2.29476 0.487633 0
M  V30 41492 C 4267.72 -1.68169 -0.446675 0
M  V30 41493 O 4268.9 -1.98808 -0.322092 0
M  V30 41494 C 4265.96 -3.45976 -0.223869 0
M  V30 41495 C 4265.02 -4.22714 0.749068 0
M  V30 41496 C 4264.26 -5.33652 0.0714267 0
M  V30 41497 O 4264.48 -5.58846 -1.14224 0
M  V30 41498 O 4263.41 -5.97099 0.75868 0
M  V30 41499 H 4267.24 -2.71809 1.35475 0
M  V30 41500 H 4264.83 -1.30651 0.724617 0
M  V30 41501 H 4266.71 -4.16755 -0.623966 0
M  V30 41502 H 4265.38 -3.0564 -1.06611 0
M  V30 41503 H 4264.29 -3.54351 1.19944 0
M  V30 41504 H 4265.62 -4.66843 1.55943 0
M  V30 41505 N 4267.27 -0.726981 -1.39831 0
M  V30 41506 C 4268.18 -0.0831249 -2.34453 0
M  V30 41507 C 4269.2 0.730981 -1.57901 0
M  V30 41508 O 4270.38 0.661304 -1.90233 0
M  V30 41509 C 4267.44 0.819265 -3.36881 0
M  V30 41510 C 4266.5 -0.00618205 -4.293 0
M  V30 41511 C 4265.74 0.853232 -5.26836 0
M  V30 41512 O 4265.96 2.09219 -5.30644 0
M  V30 41513 O 4264.89 0.286156 -6.01219 0
M  V30 41514 H 4268.72 -0.863896 -2.91154 0
M  V30 41515 H 4266.3 -0.487568 -1.4122 0
M  V30 41516 H 4268.19 1.33582 -3.99667 0
M  V30 41517 H 4266.86 1.57899 -2.82577 0
M  V30 41518 H 4265.77 -0.568072 -3.69762 0
M  V30 41519 H 4267.1 -0.727942 -4.86787 0
M  V30 41520 N 4268.75 1.50303 -0.474008 0
M  V30 41521 C 4269.98 2.07246 0.0798368 0
M  V30 41522 C 4270.4 1.33524 1.32488 0
M  V30 41523 O 4269.76 0.383774 1.77192 0
M  V30 41524 C 4269.81 3.58957 0.343863 0
M  V30 41525 O 4268.91 3.87042 1.42381 0
M  V30 41526 H 4268.25 0.663847 -0.0142725 0
M  V30 41527 H 4270.78 1.93461 -0.665888 0
M  V30 41528 H 4270.79 4.03806 0.583487 0
M  V30 41529 H 4269.47 4.12032 -0.565927 0
M  V30 41530 H 4268.05 3.54028 1.17126 0
M  V30 41531 N 4270.23 0.20673 1.56238 0
M  V30 41532 C 4271.18 -0.726043 2.20978 0
M  V30 41533 C 4272.17 -1.211 1.18453 0
M  V30 41534 O 4273.38 -1.17255 1.3657 0
M  V30 41535 H 4269.75 -0.252517 0.708336 0
M  V30 41536 H 4271.72 -0.156431 2.9799 0
M  V30 41537 C 4270.47 -1.92998 2.89218 0
M  V30 41538 H 4269.8 -1.5659 3.67858 0
M  V30 41539 H 4271.24 -2.56075 3.37938 0
M  V30 41540 C 4269.7 -2.77608 1.90881 0
M  V30 41541 O 4270.23 -3.759 1.4164 0
M  V30 41542 N 4268.43 -2.43339 1.58854 0
M  V30 41543 H 4267.98 -1.63464 1.99091 0
M  V30 41544 H 4267.94 -3.00232 0.933167 0
M  V30 41545 N 4271.71 -1.57458 -0.0667882 0
M  V30 41546 C 4272.62 -2.07392 -1.09661 0
M  V30 41547 C 4273.63 -1.00448 -1.42078 0
M  V30 41548 O 4274.81 -1.31951 -1.52154 0
M  V30 41549 C 4271.88 -2.51207 -2.38947 0
M  V30 41550 C 4270.94 -3.72471 -2.13456 0
M  V30 41551 C 4270.17 -4.14187 -3.36578 0
M  V30 41552 O 4270.39 -3.55731 -4.45883 0
M  V30 41553 O 4269.33 -5.06938 -3.24496 0
M  V30 41554 H 4273.15 -2.95466 -0.702391 0
M  V30 41555 H 4270.74 -1.46729 -0.281262 0
M  V30 41556 H 4272.62 -2.79888 -3.15025 0
M  V30 41557 H 4271.29 -1.66261 -2.77739 0
M  V30 41558 H 4270.2 -3.48866 -1.35068 0
M  V30 41559 H 4271.53 -4.58285 -1.79542 0
M  V30 41560 N 4273.19 0.33829 -1.53926 0
M  V30 41561 C 4274.46 1.09528 -1.62059 0
M  V30 41562 C 4274.84 2.06353 -0.44514 0
M  V30 41563 O 4274.19 2.21479 0.562081 0
M  V30 41564 C 4274.4 1.81028 -2.98379 0
M  V30 41565 C 4275.75 2.34582 -3.53916 0
M  V30 41566 O 4276.77 1.91116 -3.00588 0
M  V30 41567 O 4275.63 3.14117 -4.47206 0
M  V30 41568 H 4272.73 0.503994 -0.655682 0
M  V30 41569 H 4275.27 0.339361 -1.66272 0
M  V30 41570 H 4274.05 1.10518 -3.75368 0
M  V30 41571 H 4273.67 2.63465 -2.97779 0
M  V30 41572 N 4274.67 1.45749 0.599583 0
M  V30 41573 C 4275.94 1.40658 1.35922 0
M  V30 41574 C 4276.32 0.0812914 2.10943 0
M  V30 41575 O 4275.67 -0.936908 2.08409 0
M  V30 41576 C 4275.88 2.62546 2.29936 0
M  V30 41577 C 4277.23 3.07976 2.92294 0
M  V30 41578 O 4278.25 2.62976 2.40255 0
M  V30 41579 O 4277.11 3.86094 3.86774 0
M  V30 41580 H 4274.21 0.558563 0.609866 0
M  V30 41581 H 4276.75 1.5789 0.622004 0
M  V30 41582 H 4275.52 3.50577 1.73814 0
M  V30 41583 H 4275.15 2.47688 3.11025 0
M  V30 41584 N 4276.14 -0.84278 1.33173 0
M  V30 41585 C 4277.37 -1.62759 1.27253 0
M  V30 41586 C 4277.78 -1.88526 -0.159544 0
M  V30 41587 O 4277.12 -1.46304 -1.11089 0
M  V30 41588 C 4277.19 -3.00398 1.97488 0
M  V30 41589 C 4276.85 -2.97618 3.46803 0
M  V30 41590 C 4277.85 -2.73614 4.42076 0
M  V30 41591 C 4275.53 -3.17878 3.8892 0
M  V30 41592 C 4277.53 -2.69891 5.77441 0
M  V30 41593 C 4275.21 -3.13781 5.2439 0
M  V30 41594 C 4276.21 -2.89817 6.18462 0
M  V30 41595 O 4275.9 -2.85616 7.51451 0
M  V30 41596 H 4275.63 -0.51328 0.439908 0
M  V30 41597 H 4278.19 -1.05819 1.76044 0
M  V30 41598 H 4276.42 -3.59176 1.43282 0
M  V30 41599 H 4278.1 -3.61228 1.85119 0
M  V30 41600 H 4278.87 -2.57717 4.10862 0
M  V30 41601 H 4274.75 -3.35552 3.16111 0
M  V30 41602 H 4278.29 -2.51106 6.50839 0
M  V30 41603 H 4274.19 -3.29226 5.5523 0
M  V30 41604 H 4274.96 -3.01486 7.60952 0
M  V30 41605 N 4277.62 -1.16577 -1.06054 0
M  V30 41606 C 4278.55 -0.897731 -2.15553 0
M  V30 41607 C 4279.53 0.156897 -1.69375 0
M  V30 41608 O 4280.72 0.00848526 -1.94198 0
M  V30 41609 C 4277.85 -0.400691 -3.44981 0
M  V30 41610 C 4276.8 -1.3935 -4.04679 0
M  V30 41611 C 4276.13 -0.75477 -5.29346 0
M  V30 41612 C 4277.43 -2.76389 -4.43177 0
M  V30 41613 H 4279.12 -1.81343 -2.38233 0
M  V30 41614 H 4276.67 -0.873337 -1.14494 0
M  V30 41615 H 4278.62 -0.20064 -4.20922 0
M  V30 41616 H 4277.34 0.550519 -3.21927 0
M  V30 41617 H 4276 -1.58015 -3.30797 0
M  V30 41618 H 4275.65 0.203003 -5.0259 0
M  V30 41619 H 4275.35 -1.41745 -5.70247 0
M  V30 41620 H 4276.88 -0.564794 -6.07982 0
M  V30 41621 H 4278.29 -2.61494 -5.1019 0
M  V30 41622 H 4276.69 -3.39154 -4.9507 0
M  V30 41623 H 4277.76 -3.31459 -3.53925 0
M  V30 41624 N 4279.1 1.2463 -0.964637 0
M  V30 41625 C 4280.03 2.27837 -0.511131 0
M  V30 41626 C 4281.01 1.64104 0.447663 0
M  V30 41627 O 4282.2 1.91121 0.344452 0
M  V30 41628 C 4279.33 3.4671 0.202406 0
M  V30 41629 C 4278.28 4.2269 -0.672107 0
M  V30 41630 C 4277.61 5.34421 0.172748 0
M  V30 41631 C 4278.91 4.84324 -1.95519 0
M  V30 41632 H 4280.6 2.66023 -1.37376 0
M  V30 41633 H 4278.15 1.27881 -0.662006 0
M  V30 41634 H 4280.1 4.18043 0.530869 0
M  V30 41635 H 4278.82 3.07541 1.09936 0
M  V30 41636 H 4277.48 3.53153 -0.983796 0
M  V30 41637 H 4277.13 4.91493 1.06976 0
M  V30 41638 H 4276.83 5.86174 -0.409149 0
M  V30 41639 H 4278.35 6.08583 0.49595 0
M  V30 41640 H 4279.77 5.47747 -1.6925 0
M  V30 41641 H 4278.16 5.46296 -2.48356 0
M  V30 41642 H 4279.23 4.05949 -2.65204 0
M  V30 41643 N 4280.58 0.734386 1.39444 0
M  V30 41644 C 4281.83 0.281503 2.0013 0
M  V30 41645 C 4282.15 -1.13501 1.58564 0
M  V30 41646 O 4281.42 -1.77279 0.833599 0
M  V30 41647 H 4280 0.101089 0.740128 0
M  V30 41648 H 4282.66 0.944208 1.70501 0
M  V30 41649 H 4281.75 0.32941 3.10357 0
M  V30 41650 N 4282.06 -1.50049 0.481972 0
M  V30 41651 C 4282.97 -2.32522 -0.311565 0
M  V30 41652 C 4283.98 -1.43392 -0.985635 0
M  V30 41653 O 4285.16 -1.76435 -0.971215 0
M  V30 41654 C 4282.22 -3.18351 -1.37307 0
M  V30 41655 C 4281.28 -4.23313 -0.714451 0
M  V30 41656 C 4280.52 -5.05041 -1.72538 0
M  V30 41657 O 4280.74 -4.88001 -2.95316 0
M  V30 41658 O 4279.67 -5.87888 -1.2912 0
M  V30 41659 H 4283.5 -3.01523 0.362962 0
M  V30 41660 H 4281.08 -1.474 0.243624 0
M  V30 41661 H 4282.97 -3.71577 -1.98768 0
M  V30 41662 H 4281.64 -2.52066 -2.03087 0
M  V30 41663 H 4280.55 -3.74051 -0.0606029 0
M  V30 41664 H 4281.88 -4.921 -0.0994195 0
M  V30 41665 N 4283.53 -0.215012 -1.56126 0
M  V30 41666 C 4284.46 0.692591 -2.22992 0
M  V30 41667 C 4285.44 1.20609 -1.19948 0
M  V30 41668 O 4286.63 1.25128 -1.48514 0
M  V30 41669 C 4283.76 1.90371 -2.90476 0
M  V30 41670 C 4282.71 1.52432 -3.99936 0
M  V30 41671 C 4282.04 2.81367 -4.54683 0
M  V30 41672 C 4283.34 0.719234 -5.17324 0
M  V30 41673 H 4285.03 0.135115 -2.99095 0
M  V30 41674 H 4282.58 0.0635468 -1.4386 0
M  V30 41675 H 4284.53 2.54402 -3.35942 0
M  V30 41676 H 4283.26 2.48604 -2.1181 0
M  V30 41677 H 4281.92 0.907495 -3.5519 0
M  V30 41678 H 4281.56 3.37732 -3.72755 0
M  V30 41679 H 4281.26 2.5672 -5.28554 0
M  V30 41680 H 4282.79 3.46353 -5.02863 0
M  V30 41681 H 4284.2 1.2631 -5.59212 0
M  V30 41682 H 4282.6 0.570098 -5.97386 0
M  V30 41683 H 4283.67 -0.275546 -4.84116 0
M  V30 41684 N 4285.01 1.57492 0.0584368 0
M  V30 41685 C 4286.26 1.87526 0.753547 0
M  V30 41686 C 4286.58 0.808834 1.77434 0
M  V30 41687 O 4285.85 -0.161027 1.95237 0
M  V30 41688 H 4284.43 0.692013 0.281296 0
M  V30 41689 H 4287.09 1.94875 0.0313536 0
M  V30 41690 H 4286.19 2.85471 1.26146 0
M  V30 41691 N 4286.49 -0.330122 1.54104 0
M  V30 41692 C 4287.4 -1.42915 1.86045 0
M  V30 41693 C 4288.42 -1.56922 0.751767 0
M  V30 41694 O 4289.59 -1.72143 1.04541 0
M  V30 41695 C 4286.66 -2.77721 2.07538 0
M  V30 41696 C 4285.72 -2.72945 3.3136 0
M  V30 41697 C 4284.95 -4.01321 3.51819 0
M  V30 41698 O 4285.17 -4.99264 2.75846 0
M  V30 41699 O 4284.11 -4.04978 4.45282 0
M  V30 41700 H 4287.93 -1.18834 2.79485 0
M  V30 41701 H 4285.52 -0.523544 1.39926 0
M  V30 41702 H 4287.4 -3.57533 2.23043 0
M  V30 41703 H 4286.08 -3.01705 1.17286 0
M  V30 41704 H 4284.98 -1.91706 3.21247 0
M  V30 41705 H 4286.32 -2.53915 4.21649 0
M  V30 41706 N 4287.97 -1.46065 -0.591845 0
M  V30 41707 C 4288.93 -1.55529 -1.68354 0
M  V30 41708 C 4289.93 -0.433275 -1.54853 0
M  V30 41709 O 4291.12 -0.697286 -1.59636 0
M  V30 41710 C 4288.25 -1.46688 -3.07726 0
M  V30 41711 H 4289.45 -2.52813 -1.61324 0
M  V30 41712 H 4287 -1.33739 -0.808917 0
M  V30 41713 H 4287.73 -0.506489 -3.2032 0
M  V30 41714 H 4287.52 -2.28086 -3.18935 0
M  V30 41715 H 4289.01 -1.56377 -3.87216 0
M  V30 41716 N 4289.45 0.835705 -1.33618 0
M  V30 41717 C 4290.38 1.96094 -1.26765 0
M  V30 41718 C 4291.36 1.69458 -0.147593 0
M  V30 41719 O 4292.54 1.91238 -0.337884 0
M  V30 41720 C 4289.67 3.3231 -1.00933 0
M  V30 41721 C 4288.63 3.73351 -2.09268 0
M  V30 41722 C 4287.95 5.07408 -1.68644 0
M  V30 41723 C 4289.25 3.868 -3.50975 0
M  V30 41724 H 4290.95 2.02085 -2.20912 0
M  V30 41725 H 4288.49 0.970888 -1.06347 0
M  V30 41726 H 4290.45 4.10601 -0.947881 0
M  V30 41727 H 4289.17 3.26584 -0.0322597 0
M  V30 41728 H 4287.83 2.97325 -2.1446 0
M  V30 41729 H 4287.48 4.98157 -0.696311 0
M  V30 41730 H 4287.18 5.35839 -2.41143 0
M  V30 41731 H 4288.7 5.88172 -1.63971 0
M  V30 41732 H 4290.11 4.55395 -3.48265 0
M  V30 41733 H 4288.51 4.26671 -4.21986 0
M  V30 41734 H 4289.58 2.89159 -3.89249 0
M  V30 41735 N 4290.92 1.17138 1.05434 0
M  V30 41736 C 4292.34 0.918131 1.30547 0
M  V30 41737 C 4292.54 -0.424118 1.96986 0
M  V30 41738 O 4291.6 -1.16166 2.24191 0
M  V30 41739 C 4292.91 2.07362 2.17765 0
M  V30 41740 C 4294.46 2.11037 2.31155 0
M  V30 41741 C 4294.93 3.25965 3.21731 0
M  V30 41742 N 4296.42 3.25737 3.29317 0
M  V30 41743 C 4297.16 4.11306 3.99519 0
M  V30 41744 N 4296.65 5.06979 4.7217 0
M  V30 41745 N 4298.45 3.99263 3.95658 0
M  V30 41746 H 4290.6 2.03539 0.607082 0
M  V30 41747 H 4292.86 0.888604 0.330282 0
M  V30 41748 H 4292.57 3.04359 1.76235 0
M  V30 41749 H 4292.44 2.02256 3.1839 0
M  V30 41750 H 4294.83 1.14628 2.71927 0
M  V30 41751 H 4294.91 2.20205 1.30167 0
M  V30 41752 H 4294.55 4.22638 2.81673 0
M  V30 41753 H 4294.48 3.14033 4.22719 0
M  V30 41754 H 4296.97 2.56465 2.7755 0
M  V30 41755 H 4297.29 5.68672 5.2329 0
M  V30 41756 H 4295.63 5.10951 4.7112 0
M  V30 41757 H 4298.82 3.23816 3.38024 0
M  V30 41758 H 4299 4.66169 4.501 0
M  V30 41759 N 4292.4 -1.24116 0.971232 0
M  V30 41760 C 4293.34 -2.23742 0.448868 0
M  V30 41761 C 4294.31 -1.55385 -0.478977 0
M  V30 41762 O 4295.5 -1.83997 -0.409541 0
M  V30 41763 C 4292.62 -3.3687 -0.351646 0
M  V30 41764 C 4291.67 -4.2333 0.518999 0
M  V30 41765 S 4292.5 -4.98289 1.96134 0
M  V30 41766 C 4293.66 -6.14873 1.16971 0
M  V30 41767 H 4293.89 -2.67704 1.29313 0
M  V30 41768 H 4291.43 -1.33452 0.77653 0
M  V30 41769 H 4293.38 -4.02479 -0.807529 0
M  V30 41770 H 4292.04 -2.91459 -1.17092 0
M  V30 41771 H 4291.24 -5.03909 -0.0958034 0
M  V30 41772 H 4290.84 -3.62741 0.910753 0
M  V30 41773 H 4293.13 -6.76156 0.426477 0
M  V30 41774 H 4294.07 -6.80721 1.95 0
M  V30 41775 H 4294.48 -5.60236 0.692531 0
M  V30 41776 N 4293.88 -0.741771 -1.39052 0
M  V30 41777 C 4295.3 -0.418079 -1.54027 0
M  V30 41778 C 4295.5 1.07026 -1.70727 0
M  V30 41779 O 4294.55 1.85637 -1.71159 0
M  V30 41780 C 4295.87 -1.20701 -2.75412 0
M  V30 41781 C 4297.41 -1.19591 -2.89252 0
M  V30 41782 C 4297.89 -1.96755 -4.13583 0
M  V30 41783 N 4299.38 -1.93956 -4.20637 0
M  V30 41784 C 4300.11 -2.50465 -5.15805 0
M  V30 41785 N 4299.61 -3.1564 -6.1672 0
M  V30 41786 N 4301.4 -2.40461 -5.0807 0
M  V30 41787 H 4293.55 -1.7065 -1.26461 0
M  V30 41788 H 4295.82 -0.722775 -0.613433 0
M  V30 41789 H 4295.52 -2.26045 -2.69437 0
M  V30 41790 H 4295.4 -0.81597 -3.68269 0
M  V30 41791 H 4297.78 -0.150573 -2.94716 0
M  V30 41792 H 4297.87 -1.62638 -1.9744 0
M  V30 41793 H 4297.51 -3.01294 -4.08882 0
M  V30 41794 H 4297.44 -1.5111 -5.04453 0
M  V30 41795 H 4299.93 -1.46481 -3.48356 0
M  V30 41796 H 4300.24 -3.56209 -6.8581 0
M  V30 41797 H 4298.59 -3.19732 -6.17087 0
M  V30 41798 H 4301.78 -1.89181 -4.28168 0
M  V30 41799 H 4301.95 -2.84799 -5.8206 0
M  V30 41800 N 4295.36 1.49792 -0.489923 0
M  V30 41801 C 4296.29 2.31767 0.283925 0
M  V30 41802 C 4297.27 1.3953 0.972909 0
M  V30 41803 O 4298.45 1.68444 0.966453 0
M  V30 41804 C 4295.58 3.19763 1.35532 0
M  V30 41805 C 4294.54 4.20705 0.786858 0
M  V30 41806 C 4293.86 4.97563 1.95795 0
M  V30 41807 C 4295.16 5.21859 -0.21462 0
M  V30 41808 H 4296.86 2.96712 -0.400302 0
M  V30 41809 H 4294.4 1.42688 -0.193957 0
M  V30 41810 H 4296.36 3.75917 1.90432 0
M  V30 41811 H 4295.08 2.5274 2.06858 0
M  V30 41812 H 4293.74 3.65679 0.259691 0
M  V30 41813 H 4293.39 4.26996 2.65863 0
M  V30 41814 H 4293.09 5.65855 1.58371 0
M  V30 41815 H 4294.61 5.56558 2.51149 0
M  V30 41816 H 4296.03 5.72773 0.245854 0
M  V30 41817 H 4294.42 5.97979 -0.504107 0
M  V30 41818 H 4295.49 4.71447 -1.13426 0
M  V30 41819 N 4296.84 0.223289 1.5601 0
M  V30 41820 C 4297.77 -0.718464 2.17648 0
M  V30 41821 C 4298.78 -1.15627 1.14604 0
M  V30 41822 O 4299.97 -1.08712 1.41576 0
M  V30 41823 C 4297.07 -1.9852 2.74669 0
M  V30 41824 C 4296.24 -1.70267 4.02899 0
M  V30 41825 C 4295.3 -2.81665 4.44467 0
M  V30 41826 O 4294.33 -2.50061 5.1133 0
M  V30 41827 N 4295.53 -4.10657 4.10294 0
M  V30 41828 H 4298.3 -0.191201 2.99089 0
M  V30 41829 H 4295.86 0.0423469 1.61845 0
M  V30 41830 H 4297.85 -2.72238 2.99447 0
M  V30 41831 H 4296.42 -2.4229 1.97521 0
M  V30 41832 H 4295.64 -0.801847 3.85959 0
M  V30 41833 H 4296.93 -1.48824 4.86548 0
M  V30 41834 H 4296.32 -4.39176 3.56568 0
M  V30 41835 H 4294.88 -4.80914 4.39961 0
M  V30 41836 N 4298.31 -1.5752 -0.0500839 0
M  V30 41837 C 4299.56 -1.87477 -0.743995 0
M  V30 41838 C 4299.88 -0.818975 -1.77629 0
M  V30 41839 O 4301.08 -1.00708 -2.52131 0
M  V30 41840 C 4299.54 -3.3263 -1.37424 0
M  V30 41841 C 4299.15 -4.46391 -0.379379 0
M  V30 41842 C 4300.89 -3.71761 -2.04925 0
M  V30 41843 C 4298.8 -5.82594 -1.01677 0
M  V30 41844 H 4297.73 -0.699432 -0.281623 0
M  V30 41845 H 4300.38 -1.835 0.00223053 0
M  V30 41846 H 4298.76 -3.31286 -2.16946 0
M  V30 41847 H 4299.93 -4.59167 0.387607 0
M  V30 41848 H 4298.25 -4.15955 0.192373 0
M  V30 41849 H 4300.85 -4.70828 -2.53427 0
M  V30 41850 H 4301.19 -3.0267 -2.85826 0
M  V30 41851 H 4301.72 -3.75189 -1.32205 0
M  V30 41852 H 4298.46 -6.55032 -0.247618 0
M  V30 41853 H 4297.98 -5.73578 -1.7541 0
M  V30 41854 H 4299.66 -6.28642 -1.5303 0
M  V30 41855 N 4299.79 0.321945 -1.54277 0
M  V30 41856 C 4300.72 1.41741 -1.80117 0
M  V30 41857 C 4301.74 1.47771 -0.683203 0
M  V30 41858 O 4302.93 1.50465 -0.960338 0
M  V30 41859 C 4300.03 2.80266 -1.90536 0
M  V30 41860 C 4299.2 2.97421 -3.20717 0
M  V30 41861 C 4298.26 4.16316 -3.21818 0
M  V30 41862 O 4297.28 4.09399 -3.9545 0
M  V30 41863 N 4298.49 5.25931 -2.45717 0
M  V30 41864 H 4301.25 1.19938 -2.74654 0
M  V30 41865 H 4298.81 0.511938 -1.53593 0
M  V30 41866 H 4300.8 3.58015 -1.88699 0
M  V30 41867 H 4299.37 2.95113 -1.03089 0
M  V30 41868 H 4298.59 2.06959 -3.35502 0
M  V30 41869 H 4299.88 3.05779 -4.06665 0
M  V30 41870 H 4299.28 5.34426 -1.85487 0
M  V30 41871 H 4297.84 6.02093 -2.49655 0
M  V30 41872 N 4301.27 1.46377 0.58409 0
M  V30 41873 C 4302.2 1.59696 1.70351 0
M  V30 41874 C 4303.18 0.447353 1.64112 0
M  V30 41875 O 4304.37 0.673426 1.8215 0
M  V30 41876 C 4301.5 1.58563 3.0899 0
M  V30 41877 C 4300.45 2.72479 3.30059 0
M  V30 41878 C 4299.78 2.56407 4.69211 0
M  V30 41879 C 4301.08 4.14313 3.18028 0
M  V30 41880 H 4302.77 2.53402 1.59461 0
M  V30 41881 H 4300.32 1.21953 0.765728 0
M  V30 41882 H 4302.27 1.66475 3.87123 0
M  V30 41883 H 4300.99 0.614005 3.20776 0
M  V30 41884 H 4299.65 2.64034 2.54326 0
M  V30 41885 H 4299.3 1.57331 4.77761 0
M  V30 41886 H 4299 3.32813 4.84261 0
M  V30 41887 H 4300.52 2.66208 5.49514 0
M  V30 41888 H 4301.94 4.23877 3.86007 0
M  V30 41889 H 4300.34 4.91295 3.446 0
M  V30 41890 H 4301.41 4.34566 2.15128 0
M  V30 41891 N 4302.75 -0.828607 1.34059 0
M  V30 41892 C 4303.98 -1.614 1.28972 0
M  V30 41893 C 4304.39 -1.88685 -0.139539 0
M  V30 41894 O 4303.73 -1.47474 -1.09531 0
M  V30 41895 C 4303.79 -2.98286 2.00663 0
M  V30 41896 C 4303.46 -2.93923 3.4994 0
M  V30 41897 C 4304.45 -2.6891 4.44953 0
M  V30 41898 C 4302.14 -3.13735 3.9227 0
M  V30 41899 C 4304.13 -2.63751 5.80271 0
M  V30 41900 C 4301.82 -3.08201 5.27689 0
M  V30 41901 C 4302.82 -2.83242 6.21501 0
M  V30 41902 O 4302.51 -2.7763 7.54438 0
M  V30 41903 H 4302.24 -0.508586 0.445328 0
M  V30 41904 H 4304.79 -1.03946 1.77157 0
M  V30 41905 H 4303.02 -3.57636 1.47084 0
M  V30 41906 H 4304.71 -3.59244 1.8894 0
M  V30 41907 H 4305.48 -2.53344 4.13572 0
M  V30 41908 H 4301.36 -3.3218 3.19652 0
M  V30 41909 H 4304.9 -2.44189 6.53466 0
M  V30 41910 H 4300.8 -3.23318 5.58691 0
M  V30 41911 H 4301.56 -2.93398 7.64107 0
M  V30 41912 O 4304.27 -1.29363 -0.966826 0
M  V30 41913 H 4304.96 -1.10166 -1.59321 0
M  V30 END ATOM
M  V30 BEGIN BOND
M  V30 END BOND
M  V30 END CTAB
M  END
$$$$
