drugbank_target|P35527 Keratin, type I cytoskeletal 9 (DB01593; DB09130; DB14487; DB14533; DB14548)
 OpenBabel12092121073D

  0  0  0     0  0            999 V3000
M  V30 BEGIN CTAB
M  V30 COUNTS 8379 8435 0 0 0
M  V30 BEGIN ATOM
M  V30 1 H -0.908 1.98254 -0.117106 0
M  V30 2 N 0 1.576 0 0
M  V30 3 C 0.933 2.03868 1.02534 0
M  V30 4 C 1.911 0.928543 1.3348 0
M  V30 5 O 3.095 1.19667 1.45644 0
M  V30 6 C 0.222 2.43627 2.35294 0
M  V30 7 C -0.732 3.65373 2.2001 0
M  V30 8 S 0.101 5.13292 1.52614 0
M  V30 9 C 1.257 5.56322 2.86805 0
M  V30 10 H 1.49 2.90518 0.631377 0
M  V30 11 H -0.977 1.52953 0.210867 0
M  V30 12 H 0.981 2.67203 3.11629 0
M  V30 13 H -0.358 1.57376 2.7183 0
M  V30 14 H -1.165 3.90944 3.18086 0
M  V30 15 H -1.563 3.418 1.51819 0
M  V30 16 H 0.729 5.58782 3.83104 0
M  V30 17 H 1.672 6.56266 2.65933 0
M  V30 18 H 2.08 4.83886 2.90714 0
M  V30 19 N 1.4781 -0.272755 1.55222 0
M  V30 20 C 2.7031 -1.02683 1.80197 0
M  V30 21 C 3.1281 -1.79142 0.573551 0
M  V30 22 O 2.4861 -1.74917 -0.476849 0
M  V30 23 C 2.5341 -1.9609 3.02624 0
M  V30 24 O 1.6381 -3.04863 2.77727 0
M  V30 25 H 0.9791 -0.293557 0.595584 0
M  V30 26 H 3.5091 -0.30159 2.02365 0
M  V30 27 H 3.5191 -2.38039 3.31363 0
M  V30 28 H 2.1941 -1.39851 3.91682 0
M  V30 29 H 0.7711 -2.67228 2.60084 0
M  V30 30 N 2.9562 -1.48159 -0.537278 0
M  V30 31 C 4.1962 -1.57397 -1.30405 0
M  V30 32 C 4.5602 -0.239202 -1.90504 0
M  V30 33 O 5.7612 -0.206528 -2.68005 0
M  V30 34 C 4.0322 -2.6754 -2.36974 0
M  V30 35 S 5.5912 -2.96496 -3.23475 0
M  V30 36 H 2.4092 -0.555577 -0.443684 0
M  V30 37 H 5.0112 -1.85644 -0.612912 0
M  V30 38 H 3.7152 -3.63092 -1.91291 0
M  V30 39 H 3.2462 -2.41172 -3.10805 0
M  V30 40 H 5.2612 -2.35234 -4.36897 0
M  V30 41 N 4.4343 0.785586 -1.36625 0
M  V30 42 C 5.8503 1.08419 -1.17122 0
M  V30 43 C 6.0503 2.015 0.00208491 0
M  V30 44 O 5.1063 2.43551 0.666278 0
M  V30 45 C 6.4193 1.69498 -2.48377 0
M  V30 46 C 7.9673 1.81821 -2.54775 0
M  V30 47 C 8.4423 2.46315 -3.86126 0
M  V30 48 N 9.9333 2.53779 -3.87492 0
M  V30 49 C 10.6683 3.045 -4.85868 0
M  V30 50 N 10.1643 3.55499 -5.94637 0
M  V30 51 N 11.9573 3.03247 -4.73284 0
M  V30 52 H 4.1083 0.167264 -2.1174 0
M  V30 53 H 6.3713 0.13682 -0.938075 0
M  V30 54 H 6.0773 1.08571 -3.34522 0
M  V30 55 H 5.9513 2.6896 -2.64462 0
M  V30 56 H 8.3383 2.41884 -1.69045 0
M  V30 57 H 8.4193 0.811532 -2.42586 0
M  V30 58 H 8.0633 1.86895 -4.72263 0
M  V30 59 H 7.9933 3.47561 -3.95612 0
M  V30 60 H 10.4843 2.17672 -3.08913 0
M  V30 61 H 10.7973 3.92562 -6.65669 0
M  V30 62 H 9.1423 3.5364 -5.98301 0
M  V30 63 H 12.3333 2.62696 -3.87438 0
M  V30 64 H 12.5063 3.42467 -5.50109 0
M  V30 65 N 5.9124 1.20967 1.01018 0
M  V30 66 C 6.8444 0.922059 2.09835 0
M  V30 67 C 7.8574 -0.0927106 1.62536 0
M  V30 68 O 9.0464 0.139127 1.77957 0
M  V30 69 C 6.1464 0.362004 3.36961 0
M  V30 70 C 5.3194 1.42986 4.13369 0
M  V30 71 C 4.3784 0.879976 5.1879 0
M  V30 72 O 3.4044 1.56219 5.47343 0
M  V30 73 N 4.6064 -0.307396 5.79686 0
M  V30 74 H 7.3714 1.8588 2.35093 0
M  V30 75 H 4.9324 1.11422 1.1746 0
M  V30 76 H 6.9244 -0.0201474 4.04695 0
M  V30 77 H 5.4944 -0.479437 3.08902 0
M  V30 78 H 4.7144 1.98608 3.40512 0
M  V30 79 H 6.0024 2.14885 4.61196 0
M  V30 80 H 5.4004 -0.878796 5.58832 0
M  V30 81 H 3.9574 -0.631115 6.48737 0
M  V30 82 N 7.3905 -1.2043 1.01659 0
M  V30 83 C 8.6375 -1.89797 0.705917 0
M  V30 84 C 8.9655 -1.78848 -0.764439 0
M  V30 85 O 8.2205 -1.16694 -1.57102 0
M  V30 86 C 8.5195 -3.40464 1.08714 0
M  V30 87 C 8.1855 -3.71614 2.5537 0
M  V30 88 C 6.8475 -3.79826 2.95441 0
M  V30 89 C 9.1995 -3.85915 3.50313 0
M  V30 90 C 6.5275 -3.99797 4.29394 0
M  V30 91 C 8.8795 -4.07396 4.83954 0
M  V30 92 C 7.5435 -4.13837 5.23732 0
M  V30 93 H 6.8135 -0.694518 0.258313 0
M  V30 94 H 9.4605 -1.42691 1.27717 0
M  V30 95 H 7.7655 -3.89385 0.434309 0
M  V30 96 H 9.4625 -3.92433 0.824461 0
M  V30 97 H 6.0525 -3.65822 2.23321 0
M  V30 98 H 10.2365 -3.78926 3.20513 0
M  V30 99 H 5.4925 -4.03018 4.59768 0
M  V30 100 H 9.6665 -4.17404 5.57447 0
M  V30 101 H 7.2935 -4.29064 6.27541 0
M  V30 102 N 8.8686 -0.792821 -1.36206 0
M  V30 103 C 10.0936 -0.377701 -2.03932 0
M  V30 104 C 10.5186 0.998947 -1.59382 0
M  V30 105 O 9.8766 1.64421 -0.763903 0
M  V30 106 C 9.9246 -0.453635 -3.57735 0
M  V30 107 O 9.0286 0.538151 -4.08874 0
M  V30 108 H 8.3696 -0.159855 -0.644471 0
M  V30 109 H 10.8996 -1.07488 -1.7409 0
M  V30 110 H 10.9096 -0.318464 -4.06755 0
M  V30 111 H 9.5846 -1.45784 -3.89512 0
M  V30 112 H 8.1616 0.364359 -3.71116 0
M  V30 113 N 10.3467 1.47872 -0.545128 0
M  V30 114 C 11.5717 2.07391 -0.0190611 0
M  V30 115 C 11.9967 1.39688 1.25971 0
M  V30 116 O 11.3547 0.467816 1.7516 0
M  V30 117 C 11.4027 3.60188 0.172335 0
M  V30 118 O 10.5067 3.9339 1.23766 0
M  V30 119 H 9.8477 0.662411 -0.0459059 0
M  V30 120 H 12.3777 1.90066 -0.757365 0
M  V30 121 H 12.3877 4.06129 0.390305 0
M  V30 122 H 11.0627 4.08865 -0.761725 0
M  V30 123 H 9.6397 3.5921 1.00114 0
M  V30 124 N 11.8248 0.280983 1.55075 0
M  V30 125 C 13.0498 -0.340154 2.04592 0
M  V30 126 C 13.4748 -1.48246 1.15779 0
M  V30 127 O 12.8328 -1.80614 0.15761 0
M  V30 128 C 12.8808 -0.793104 3.5177 0
M  V30 129 O 11.9848 -1.89981 3.66034 0
M  V30 130 H 11.3258 -0.0694289 0.66036 0
M  V30 131 H 13.8558 0.416993 2.00306 0
M  V30 132 H 13.8658 -1.08729 3.93245 0
M  V30 133 H 12.5408 0.0426163 4.15878 0
M  V30 134 H 11.1178 -1.60771 3.36463 0
M  V30 135 N 13.3029 -1.57598 0.00835791 0
M  V30 136 C 14.5329 -1.94931 -0.684496 0
M  V30 137 C 14.9409 -0.882233 -1.67372 0
M  V30 138 O 14.2839 0.146621 -1.83114 0
M  V30 139 C 14.3459 -3.283 -1.4649 0
M  V30 140 C 14.0099 -4.52548 -0.63634 0
M  V30 141 C 15.0069 -5.19839 0.0795586 0
M  V30 142 C 12.6919 -4.98942 -0.579849 0
M  V30 143 C 14.6859 -6.3183 0.840843 0
M  V30 144 C 12.3729 -6.10819 0.185155 0
M  V30 145 C 13.3709 -6.77121 0.894227 0
M  V30 146 O 13.0589 -7.86853 1.64673 0
M  V30 147 H 12.7909 -0.647249 -0.19505 0
M  V30 148 H 15.3449 -2.05318 0.0581272 0
M  V30 149 H 13.5749 -3.14345 -2.2522 0
M  V30 150 H 15.2639 -3.50685 -2.04389 0
M  V30 151 H 16.0299 -4.84979 0.0451202 0
M  V30 152 H 11.9089 -4.47155 -1.1213 0
M  V30 153 H 15.4529 -6.83513 1.39483 0
M  V30 154 H 11.3499 -6.4512 0.221384 0
M  V30 155 H 12.1179 -8.03412 1.56432 0
M  V30 156 N 14.781 0.264519 -1.55364 0
M  V30 157 C 15.711 1.33121 -1.91836 0
M  V30 158 C 16.692 1.51101 -0.781192 0
M  V30 159 O 17.877 1.64003 -1.04003 0
M  V30 160 C 15.007 2.68921 -2.19769 0
M  V30 161 C 13.961 2.65661 -3.35571 0
M  V30 162 C 13.287 4.05093 -3.49004 0
M  V30 163 C 14.587 2.24187 -4.71739 0
M  V30 164 H 16.281 1.02844 -2.81182 0
M  V30 165 H 13.827 0.493286 -1.35287 0
M  V30 166 H 15.78 3.43663 -2.43872 0
M  V30 167 H 14.504 3.00799 -1.27231 0
M  V30 168 H 13.163 1.93377 -3.1145 0
M  V30 169 H 12.811 4.34206 -2.53917 0
M  V30 170 H 12.511 4.03804 -4.26868 0
M  V30 171 H 14.035 4.81561 -3.75408 0
M  V30 172 H 15.449 2.88654 -4.9533 0
M  V30 173 H 13.846 2.34044 -5.52579 0
M  V30 174 H 14.916 1.19327 -4.69988 0
M  V30 175 N 16.2591 1.48442 0.529413 0
M  V30 176 C 17.4841 1.60406 1.31471 0
M  V30 177 C 17.9091 0.264738 1.86228 0
M  V30 178 O 17.2671 -0.763668 1.64432 0
M  V30 179 C 17.3151 2.65419 2.44101 0
M  V30 180 O 16.4191 2.22618 3.47153 0
M  V30 181 H 15.7601 0.537863 0.389357 0
M  V30 182 H 18.2901 1.94432 0.636965 0
M  V30 183 H 18.3001 2.86709 2.90279 0
M  V30 184 H 16.9751 3.62652 2.03608 0
M  V30 185 H 15.5521 2.11543 3.0709 0
M  V30 186 N 17.7372 -0.778329 1.37039 0
M  V30 187 C 19.1532 -1.07796 1.17695 0
M  V30 188 C 19.3532 -2.01498 0.00860115 0
M  V30 189 O 18.4092 -2.43901 -0.653352 0
M  V30 190 C 19.7222 -1.68178 2.49272 0
M  V30 191 C 21.2702 -1.80467 2.55735 0
M  V30 192 C 21.7452 -2.44263 3.87427 0
M  V30 193 N 23.2362 -2.51721 3.88833 0
M  V30 194 C 23.9712 -3.01919 4.87476 0
M  V30 195 N 23.4672 -3.5234 5.96513 0
M  V30 196 N 25.2602 -3.00733 4.74885 0
M  V30 197 H 17.4112 -0.156032 2.11826 0
M  V30 198 H 19.6742 -0.131844 0.938787 0
M  V30 199 H 19.3802 -1.06796 3.35093 0
M  V30 200 H 19.2542 -2.67554 2.65885 0
M  V30 201 H 21.6412 -2.40984 1.70325 0
M  V30 202 H 21.7222 -0.798656 2.43013 0
M  V30 203 H 21.3662 -1.84388 4.73248 0
M  V30 204 H 21.2962 -3.45458 3.9745 0
M  V30 205 H 23.7872 -2.1603 3.10063 0
M  V30 206 H 24.1002 -3.89027 6.67741 0
M  V30 207 H 22.4452 -3.50462 6.00168 0
M  V30 208 H 25.6362 -2.60638 3.88826 0
M  V30 209 H 25.8092 -3.39545 5.51918 0
M  V30 210 N 19.2153 -1.21501 -1.00376 0
M  V30 211 C 20.4403 -1.05977 -1.78279 0
M  V30 212 C 20.8653 0.385994 -1.84097 0
M  V30 213 O 20.2233 1.27849 -1.28547 0
M  V30 214 C 20.2713 -1.66302 -3.19963 0
M  V30 215 O 19.3753 -0.909333 -4.0225 0
M  V30 216 H 18.7163 -0.372906 -0.549397 0
M  V30 217 H 21.2463 -1.6107 -1.26165 0
M  V30 218 H 21.2563 -1.70574 -3.70632 0
M  V30 219 H 19.9313 -2.71515 -3.15043 0
M  V30 220 H 18.5083 -0.941795 -3.60811 0
M  V30 221 N 20.6934 1.19889 -1.02296 0
M  V30 222 C 21.9414 1.89046 -0.714558 0
M  V30 223 C 22.2624 1.79636 0.758681 0
M  V30 224 O 21.5324 1.20292 1.54618 0
M  V30 225 H 20.1124 0.699802 -0.261317 0
M  V30 226 H 22.7744 1.45574 -1.29592 0
M  V30 227 H 21.8704 2.95524 -1.0036 0
M  V30 228 N 22.1715 0.800033 1.35784 0
M  V30 229 C 23.4195 0.376597 1.9856 0
M  V30 230 C 23.7405 -1.05812 1.63795 0
M  V30 231 O 23.0105 -1.73103 0.917171 0
M  V30 232 H 21.5905 0.136261 0.734467 0
M  V30 233 H 24.2525 1.02442 1.65806 0
M  V30 234 H 23.3485 0.477002 3.08433 0
M  V30 235 N 23.6496 -1.47581 0.552962 0
M  V30 236 C 24.8976 -2.02082 0.0272703 0
M  V30 237 C 25.2186 -1.4301 -1.32563 0
M  V30 238 O 24.4886 -0.603745 -1.86365 0
M  V30 239 H 23.0686 -0.746966 0.00709182 0
M  V30 240 H 25.7306 -1.81033 0.722008 0
M  V30 241 H 24.8266 -3.12034 -0.0639951 0
M  V30 242 N 25.1277 -0.289203 -1.54924 0
M  V30 243 C 26.3757 0.322879 -1.99504 0
M  V30 244 C 26.6967 1.55313 -1.1791 0
M  V30 245 O 25.9667 1.94001 -0.272097 0
M  V30 246 H 24.5467 0.122291 -0.736922 0
M  V30 247 H 27.2087 -0.397802 -1.90797 0
M  V30 248 H 26.3047 0.603061 -3.06218 0
M  V30 249 N 26.6058 1.57591 -0.0167156 0
M  V30 250 C 27.8538 1.90906 0.663285 0
M  V30 251 C 28.1748 0.892509 1.73376 0
M  V30 252 O 27.4448 -0.0677623 1.95783 0
M  V30 253 H 26.0248 0.704637 0.247983 0
M  V30 254 H 28.6868 1.94803 -0.0615909 0
M  V30 255 H 27.7828 2.9116 1.12393 0
M  V30 256 N 28.0839 -0.256276 1.55502 0
M  V30 257 C 29.3319 -0.983672 1.76545 0
M  V30 258 C 29.6529 -1.86206 0.578982 0
M  V30 259 O 28.9229 -1.91656 -0.405577 0
M  V30 260 H 27.5029 -0.366191 0.651086 0
M  V30 261 H 30.1649 -0.276479 1.92929 0
M  V30 262 H 29.2609 -1.61087 2.67315 0
M  V30 263 N 29.562 -1.4872 -0.521534 0
M  V30 264 C 30.81 -1.56857 -1.27437 0
M  V30 265 C 31.131 -0.247982 -1.93417 0
M  V30 266 O 30.401 0.731151 -1.81744 0
M  V30 267 H 28.981 -0.577885 -0.473347 0
M  V30 268 H 31.643 -1.85233 -0.606205 0
M  V30 269 H 30.739 -2.35402 -2.0492 0
M  V30 270 N 31.0401 0.771051 -1.3745 0
M  V30 271 C 31.9701 1.89827 -1.3597 0
M  V30 272 C 32.9511 1.68562 -0.228216 0
M  V30 273 O 34.1361 1.8941 -0.428675 0
M  V30 274 C 31.2661 3.2712 -1.16662 0
M  V30 275 C 30.2201 3.6295 -2.2683 0
M  V30 276 C 29.5461 4.98791 -1.92644 0
M  V30 277 C 30.8461 3.69627 -3.69017 0
M  V30 278 H 32.5401 1.91323 -2.30295 0
M  V30 279 H 30.0861 0.919082 -1.10855 0
M  V30 280 H 32.0391 4.05615 -1.14256 0
M  V30 281 H 30.7631 3.26059 -0.187926 0
M  V30 282 H 29.4221 2.86763 -2.28392 0
M  V30 283 H 29.0701 4.94271 -0.933021 0
M  V30 284 H 28.7701 5.23733 -2.66416 0
M  V30 285 H 30.2941 5.79685 -1.91826 0
M  V30 286 H 31.7081 4.38273 -3.69581 0
M  V30 287 H 30.1051 4.06067 -4.41848 0
M  V30 288 H 31.1751 2.70273 -4.02592 0
M  V30 289 N 32.5182 1.22032 0.997298 0
M  V30 290 C 33.7662 1.04016 1.73278 0
M  V30 291 C 34.0872 -0.426255 1.90284 0
M  V30 292 O 33.3572 -1.30694 1.45931 0
M  V30 293 H 31.9372 0.381897 0.642 0
M  V30 294 H 34.5992 1.5347 1.20137 0
M  V30 295 H 33.6952 1.51441 2.72896 0
M  V30 296 N 33.9963 -1.19345 1.0293 0
M  V30 297 C 35.2213 -1.93538 0.745511 0
M  V30 298 C 35.6463 -1.75007 -0.689511 0
M  V30 299 O 35.0043 -1.05265 -1.47611 0
M  V30 300 C 35.0523 -3.43336 1.10239 0
M  V30 301 O 34.1563 -4.11806 0.221289 0
M  V30 302 H 33.4973 -0.604193 0.275404 0
M  V30 303 H 36.0273 -1.5141 1.37609 0
M  V30 304 H 36.0373 -3.94004 1.05947 0
M  V30 305 H 34.7123 -3.56146 2.14786 0
M  V30 306 H 33.2893 -3.715 0.322842 0
M  V30 307 N 35.4744 -0.807222 -1.35358 0
M  V30 308 C 36.7224 -0.387122 -1.98358 0
M  V30 309 C 37.0434 1.04942 -1.64354 0
M  V30 310 O 36.3134 1.72615 -0.926339 0
M  V30 311 H 34.8934 -0.140154 -0.733734 0
M  V30 312 H 37.5554 -1.0332 -1.6526 0
M  V30 313 H 36.6514 -0.493352 -3.08176 0
M  V30 314 N 36.9525 1.47285 -0.560781 0
M  V30 315 C 38.2005 2.02064 -0.0379868 0
M  V30 316 C 38.5215 1.43711 1.31803 0
M  V30 317 O 37.7915 0.61362 1.86042 0
M  V30 318 H 36.3715 0.746918 -0.0110531 0
M  V30 319 H 39.0335 1.80648 -0.731598 0
M  V30 320 H 38.1295 3.12064 0.0474463 0
M  V30 321 N 38.4306 0.297415 1.54768 0
M  V30 322 C 39.6556 -0.318435 2.04941 0
M  V30 323 C 40.0806 -1.4701 1.17345 0
M  V30 324 O 39.4386 -1.80436 0.176758 0
M  V30 325 C 39.4866 -0.755749 3.52592 0
M  V30 326 O 38.5906 -1.86088 3.68028 0
M  V30 327 H 37.9316 -0.062421 0.661059 0
M  V30 328 H 40.4616 0.438215 1.99852 0
M  V30 329 H 40.4716 -1.04552 3.94376 0
M  V30 330 H 39.1466 0.0867233 4.1581 0
M  V30 331 H 37.7236 -1.57193 3.38149 0
M  V30 332 N 39.9087 -1.5758 0.0250728 0
M  V30 333 C 41.1577 -1.90811 -0.653767 0
M  V30 334 C 41.4707 -0.90273 -1.73523 0
M  V30 335 O 42.6767 -1.12614 -2.47043 0
M  V30 336 C 41.1327 -3.38804 -1.21409 0
M  V30 337 C 40.7407 -4.47692 -0.166126 0
M  V30 338 C 42.4847 -3.81108 -1.86967 0
M  V30 339 C 40.3917 -5.86779 -0.737856 0
M  V30 340 H 39.3217 -0.712063 -0.247956 0
M  V30 341 H 41.9727 -1.83281 0.0897137 0
M  V30 342 H 40.3547 -3.41252 -2.00905 0
M  V30 343 H 41.5287 -4.56797 0.606079 0
M  V30 344 H 39.8437 -4.14565 0.390466 0
M  V30 345 H 42.4407 -4.82375 -2.30692 0
M  V30 346 H 42.7837 -3.15953 -2.71071 0
M  V30 347 H 43.3167 -3.81065 -1.14167 0
M  V30 348 H 40.0557 -6.55468 0.0649577 0
M  V30 349 H 39.5757 -5.81288 -1.47864 0
M  V30 350 H 41.2547 -6.35223 -1.22884 0
M  V30 351 N 41.3868 0.248026 -1.55636 0
M  V30 352 C 42.8028 0.596483 -1.48035 0
M  V30 353 C 43.0028 1.88386 -0.715039 0
M  V30 354 O 42.0588 2.51319 -0.243944 0
M  V30 355 C 43.3718 0.700258 -2.92433 0
M  V30 356 C 44.9198 0.792659 -3.02797 0
M  V30 357 C 45.3948 0.928005 -4.485 0
M  V30 358 N 46.8858 0.992903 -4.52433 0
M  V30 359 C 47.6208 1.11687 -5.62418 0
M  V30 360 N 47.1168 1.20645 -6.82214 0
M  V30 361 N 48.9098 1.14994 -5.50212 0
M  V30 362 H 41.0608 -0.597109 -2.03834 0
M  V30 363 H 43.3238 -0.205925 -0.925364 0
M  V30 364 H 43.0298 -0.175658 -3.51261 0
M  V30 365 H 42.9038 1.57255 -3.42857 0
M  V30 366 H 45.2908 1.65903 -2.4405 0
M  V30 367 H 45.3718 -0.104762 -2.55585 0
M  V30 368 H 45.0158 0.0661971 -5.07857 0
M  V30 369 H 44.9458 1.84045 -4.93391 0
M  V30 370 H 47.4368 0.935064 -3.66149 0
M  V30 371 H 47.7498 1.30008 -7.61786 0
M  V30 372 H 46.0948 1.17605 -6.84977 0
M  V30 373 H 49.2858 1.07643 -4.55555 0
M  V30 374 H 49.4588 1.24311 -6.35965 0
M  V30 375 N 42.8649 1.48995 0.513639 0
M  V30 376 C 44.0899 1.61792 1.29762 0
M  V30 377 C 44.5149 0.284475 1.85936 0
M  V30 378 O 43.8729 -0.746185 1.65232 0
M  V30 379 C 43.9209 2.67993 2.41272 0
M  V30 380 O 43.0249 2.26287 3.44772 0
M  V30 381 H 42.3659 0.541963 0.38363 0
M  V30 382 H 44.8959 1.95097 0.616307 0
M  V30 383 H 44.9059 2.89772 2.87221 0
M  V30 384 H 43.5809 3.64791 1.9975 0
M  V30 385 H 42.1579 2.14788 3.04829 0
M  V30 386 N 44.343 -0.763751 1.37857 0
M  V30 387 C 45.568 -1.55805 1.36893 0
M  V30 388 C 45.993 -1.88054 -0.0416135 0
M  V30 389 O 45.351 -1.49825 -1.02089 0
M  V30 390 C 45.399 -2.84012 2.22192 0
M  V30 391 O 44.503 -3.78732 1.63204 0
M  V30 392 H 43.844 -0.471638 0.46739 0
M  V30 393 H 46.374 -0.944657 1.81487 0
M  V30 394 H 46.384 -3.33037 2.35691 0
M  V30 395 H 45.059 -2.59869 3.24716 0
M  V30 396 H 43.636 -3.37402 1.58791 0
M  V30 397 N 45.8211 -1.22559 -0.990812 0
M  V30 398 C 47.0511 -1.07623 -1.76355 0
M  V30 399 C 47.4591 0.37601 -1.85426 0
M  V30 400 O 46.8021 1.27228 -1.32509 0
M  V30 401 C 46.8641 -1.61507 -3.21179 0
M  V30 402 C 46.5281 -3.10146 -3.35646 0
M  V30 403 C 47.5251 -4.07553 -3.22796 0
M  V30 404 C 45.2101 -3.49644 -3.60631 0
M  V30 405 C 47.2041 -5.42442 -3.34716 0
M  V30 406 C 44.8911 -4.84682 -3.72192 0
M  V30 407 C 45.8891 -5.8089 -3.59243 0
M  V30 408 O 45.5771 -7.13476 -3.70415 0
M  V30 409 H 45.3091 -0.377745 -0.560611 0
M  V30 410 H 47.8631 -1.62658 -1.25425 0
M  V30 411 H 46.0931 -1.00881 -3.73309 0
M  V30 412 H 47.7821 -1.42202 -3.80175 0
M  V30 413 H 48.5481 -3.78381 -3.03403 0
M  V30 414 H 44.4271 -2.75282 -3.69785 0
M  V30 415 H 47.9711 -6.17518 -3.24526 0
M  V30 416 H 43.8681 -5.13534 -3.91092 0
M  V30 417 H 44.6361 -7.21083 -3.87275 0
M  V30 418 N 47.2992 1.18797 -1.03562 0
M  V30 419 C 48.5242 1.9314 -0.755764 0
M  V30 420 C 48.9492 1.7537 0.68022 0
M  V30 421 O 48.3072 1.06046 1.47051 0
M  V30 422 C 48.3552 3.42747 -1.12058 0
M  V30 423 O 47.4592 4.11683 -0.243124 0
M  V30 424 H 46.8002 0.602724 -0.278604 0
M  V30 425 H 49.3302 1.50678 -1.3841 0
M  V30 426 H 49.3402 3.93437 -1.08035 0
M  V30 427 H 48.0152 3.55002 -2.16672 0
M  V30 428 H 46.5922 3.71323 -0.342539 0
M  V30 429 N 48.7773 0.814389 1.34928 0
M  V30 430 C 50.1933 0.499084 1.51596 0
M  V30 431 C 50.3933 -0.978319 1.76157 0
M  V30 432 O 49.4493 -1.76309 1.80752 0
M  V30 433 C 50.7623 1.35121 2.68631 0
M  V30 434 C 52.3103 1.34746 2.82511 0
M  V30 435 C 52.7853 2.18388 4.0258 0
M  V30 436 N 54.2763 2.15966 4.09772 0
M  V30 437 C 55.0113 2.77437 5.01813 0
M  V30 438 N 54.5073 3.47866 5.99134 0
M  V30 439 N 56.3003 2.67037 4.94619 0
M  V30 440 H 48.4513 1.7711 1.17243 0
M  V30 441 H 50.7143 0.754256 0.574284 0
M  V30 442 H 50.4203 2.40001 2.57085 0
M  V30 443 H 50.2943 1.00991 3.63429 0
M  V30 444 H 52.6813 0.30648 2.93504 0
M  V30 445 H 52.7623 1.72869 1.88547 0
M  V30 446 H 52.4063 3.2253 3.92347 0
M  V30 447 H 52.3363 1.77621 4.9574 0
M  V30 448 H 54.8273 1.64729 3.40107 0
M  V30 449 H 55.1403 3.92038 6.65977 0
M  V30 450 H 53.4853 3.51972 5.99284 0
M  V30 451 H 56.6763 2.11597 4.17546 0
M  V30 452 H 56.8493 3.15232 5.66156 0
M  V30 453 N 50.2554 -1.46986 0.568584 0
M  V30 454 C 51.5024 -2.02441 0.0487986 0
M  V30 455 C 51.8304 -1.44169 -1.30559 0
M  V30 456 O 51.0854 -0.591213 -1.86556 0
M  V30 457 C 51.3844 -3.57306 -0.081836 0
M  V30 458 C 51.0504 -4.34552 1.20313 0
M  V30 459 C 49.7124 -4.55376 1.5552 0
M  V30 460 C 52.0644 -4.79016 2.05411 0
M  V30 461 C 49.3924 -5.17913 2.7565 0
M  V30 462 C 51.7444 -5.42879 3.24754 0
M  V30 463 C 50.4084 -5.61933 3.60261 0
M  V30 464 H 49.6784 -0.740785 0.0178567 0
M  V30 465 H 52.3254 -1.76525 0.742384 0
M  V30 466 H 50.6304 -3.8228 -0.858463 0
M  V30 467 H 52.3274 -3.97876 -0.499546 0
M  V30 468 H 48.9174 -4.18631 0.919014 0
M  V30 469 H 53.1014 -4.62696 1.79516 0
M  V30 470 H 48.3574 -5.30858 3.03315 0
M  V30 471 H 52.5314 -5.76293 3.90973 0
M  V30 472 H 50.1584 -6.10161 4.53439 0
M  V30 473 N 51.7335 -0.305618 -1.54608 0
M  V30 474 C 52.9585 0.307562 -2.05107 0
M  V30 475 C 53.3835 1.46385 -1.18123 0
M  V30 476 O 52.7415 1.8034 -0.186324 0
M  V30 477 C 52.7895 0.73704 -3.52987 0
M  V30 478 O 51.8935 1.84134 -3.6901 0
M  V30 479 H 51.2345 0.0589143 -0.661381 0
M  V30 480 H 53.7645 -0.448807 -1.99617 0
M  V30 481 H 53.7745 1.02459 -3.94925 0
M  V30 482 H 52.4495 -0.108773 -4.15758 0
M  V30 483 H 51.0265 1.55398 -3.38978 0
M  V30 484 N 53.2116 1.57565 -0.0334293 0
M  V30 485 C 54.4366 1.96689 0.657895 0
M  V30 486 C 54.8616 0.910057 1.64619 0
M  V30 487 O 54.2196 -0.128598 1.80843 0
M  V30 488 C 54.2676 3.34905 1.33683 0
M  V30 489 O 53.3716 3.31574 2.45219 0
M  V30 490 H 52.7126 0.641205 0.172489 0
M  V30 491 H 55.2426 2.04372 -0.0965621 0
M  V30 492 H 55.2526 3.71234 1.69262 0
M  V30 493 H 53.9276 4.11366 0.612411 0
M  V30 494 H 52.5046 3.06968 2.11719 0
M  V30 495 N 54.6897 -0.239769 1.55765 0
M  V30 496 C 55.9147 -0.988373 1.82335 0
M  V30 497 C 56.3397 -1.77886 0.611421 0
M  V30 498 O 55.6977 -1.75889 -0.439639 0
M  V30 499 C 55.7457 -1.89627 3.06715 0
M  V30 500 O 54.8497 -2.98904 2.84131 0
M  V30 501 H 54.1907 -0.280858 0.601677 0
M  V30 502 H 56.7207 -0.258597 2.02959 0
M  V30 503 H 56.7307 -2.30957 3.36338 0
M  V30 504 H 55.4057 -1.31511 3.9456 0
M  V30 505 H 53.9827 -2.61651 2.65694 0
M  V30 506 N 56.1678 -1.49265 -0.50573 0
M  V30 507 C 57.4158 -1.582 -1.25766 0
M  V30 508 C 57.7368 -0.268482 -1.93143 0
M  V30 509 O 57.0068 0.711833 -1.8251 0
M  V30 510 H 55.5868 -0.582873 -0.467191 0
M  V30 511 H 58.2488 -1.85865 -0.586525 0
M  V30 512 H 57.3448 -2.37563 -2.02412 0
M  V30 513 N 57.6459 0.756429 -1.3826 0
M  V30 514 C 58.8939 1.51248 -1.34047 0
M  V30 515 C 59.2149 1.94875 0.0698372 0
M  V30 516 O 58.4849 1.67436 1.01696 0
M  V30 517 H 57.0649 0.561018 -0.493222 0
M  V30 518 H 59.7269 0.899347 -1.7291 0
M  V30 519 H 58.8229 2.40472 -1.98947 0
M  V30 520 N 59.124 1.23083 0.984299 0
M  V30 521 C 60.372 1.05848 1.72165 0
M  V30 522 C 60.693 -0.406049 1.90726 0
M  V30 523 O 59.963 -1.29139 1.47309 0
M  V30 524 H 58.543 0.388685 0.637913 0
M  V30 525 H 61.205 1.54736 1.18503 0
M  V30 526 H 60.301 1.54327 2.71274 0
M  V30 527 N 60.6021 -1.18246 1.0419 0
M  V30 528 C 61.8501 -1.87886 0.744543 0
M  V30 529 C 62.1711 -1.8082 -0.730006 0
M  V30 530 O 61.4411 -1.22736 -1.52685 0
M  V30 531 H 60.0211 -0.695556 0.272417 0
M  V30 532 H 62.6831 -1.43494 1.31892 0
M  V30 533 H 61.7791 -2.9389 1.05049 0
M  V30 534 N 62.0802 -0.821533 -1.34494 0
M  V30 535 C 63.3282 -0.408139 -1.97936 0
M  V30 536 C 63.6492 1.03193 -1.65457 0
M  V30 537 O 62.9192 1.71622 -0.944595 0
M  V30 538 H 61.4992 -0.147928 -0.732206 0
M  V30 539 H 64.1612 -1.05067 -1.64155 0
M  V30 540 H 63.2572 -0.52601 -3.07635 0
M  V30 541 N 63.5583 1.46682 -0.576371 0
M  V30 542 C 64.8063 2.02013 -0.0594163 0
M  V30 543 C 65.1273 1.45101 1.30271 0
M  V30 544 O 64.3973 0.633317 1.8538 0
M  V30 545 H 62.9773 0.746759 -0.0189745 0
M  V30 546 H 65.6393 1.79862 -0.750717 0
M  V30 547 H 64.7353 3.12097 0.014345 0
M  V30 548 N 65.0364 0.313813 1.54444 0
M  V30 549 C 66.2844 -0.291099 1.99993 0
M  V30 550 C 66.6054 -1.53418 1.20366 0
M  V30 551 O 65.8754 -1.93544 0.302927 0
M  V30 552 H 64.4554 -0.110552 0.738774 0
M  V30 553 H 67.1174 0.428106 1.9014 0
M  V30 554 H 66.2134 -0.554268 3.07139 0
M  V30 555 N 66.5145 -1.57545 0.0417849 0
M  V30 556 C 67.9305 -1.56467 -0.314704 0
M  V30 557 C 68.1305 -1.04859 -1.72066 0
M  V30 558 O 67.1865 -0.700983 -2.42575 0
M  V30 559 C 68.4995 -3.00317 -0.15174 0
M  V30 560 C 70.0475 -3.12201 -0.223553 0
M  V30 561 C 70.5225 -4.57913 -0.0892295 0
M  V30 562 N 72.0135 -4.6297 -0.145808 0
M  V30 563 C 72.7485 -5.73362 -0.0658459 0
M  V30 564 N 72.2445 -6.92769 0.0659282 0
M  V30 565 N 74.0375 -5.6197 -0.12075 0
M  V30 566 H 66.1885 -1.89416 0.961014 0
M  V30 567 H 68.4515 -0.871862 0.372237 0
M  V30 568 H 68.1575 -3.42073 0.817254 0
M  V30 569 H 68.0315 -3.65892 -0.916692 0
M  V30 570 H 70.4185 -2.70349 -1.18301 0
M  V30 571 H 70.4995 -2.49323 0.571994 0
M  V30 572 H 70.1435 -5.00448 0.866867 0
M  V30 573 H 70.0735 -5.18786 -0.903802 0
M  V30 574 H 72.5645 -3.7709 -0.247286 0
M  V30 575 H 72.8775 -7.72707 0.119905 0
M  V30 576 H 71.2225 -6.94927 0.100885 0
M  V30 577 H 74.4135 -4.67572 -0.222187 0
M  V30 578 H 74.5865 -6.47977 -0.0549735 0
M  V30 579 N 67.9926 0.231505 -1.5589 0
M  V30 580 C 69.2396 0.957352 -1.78441 0
M  V30 581 C 69.5676 1.84726 -0.60882 0
M  V30 582 O 68.8226 1.91416 0.40725 0
M  V30 583 C 69.1216 1.83577 -3.0665 0
M  V30 584 C 68.7876 1.09993 -4.37278 0
M  V30 585 C 67.4496 0.896629 -4.72773 0
M  V30 586 C 69.8016 0.579558 -5.17968 0
M  V30 587 C 67.1296 0.160896 -5.86479 0
M  V30 588 C 69.4816 -0.142783 -6.32439 0
M  V30 589 C 68.1456 -0.357427 -6.66542 0
M  V30 590 H 67.4156 0.35032 -0.65296 0
M  V30 591 H 70.0626 0.226259 -1.90159 0
M  V30 592 H 68.3676 2.63441 -2.90011 0
M  V30 593 H 70.0646 2.39934 -3.21298 0
M  V30 594 H 66.6546 1.26835 -4.09403 0
M  V30 595 H 70.8386 0.724125 -4.90989 0
M  V30 596 H 66.0946 -0.0157293 -6.11398 0
M  V30 597 H 70.2686 -0.553559 -6.94196 0
M  V30 598 H 67.8956 -0.929466 -7.54497 0
M  V30 599 N 69.4707 1.49531 0.497807 0
M  V30 600 C 70.6957 1.63159 1.28039 0
M  V30 601 C 71.1207 0.30418 1.85624 0
M  V30 602 O 70.4787 -0.728618 1.66015 0
M  V30 603 C 70.5267 2.70537 2.38416 0
M  V30 604 O 69.6307 2.29931 3.42353 0
M  V30 605 H 68.9717 0.546001 0.377861 0
M  V30 606 H 71.5017 1.9574 0.59558 0
M  V30 607 H 71.5117 2.92802 2.84132 0
M  V30 608 H 70.1867 3.6689 1.95869 0
M  V30 609 H 68.7637 2.18009 3.02533 0
M  V30 610 N 70.9488 -0.749086 1.3866 0
M  V30 611 C 72.1738 -1.54344 1.38538 0
M  V30 612 C 72.5988 -1.88088 -0.0216655 0
M  V30 613 O 71.9568 -1.50899 -1.00494 0
M  V30 614 C 72.0048 -2.8164 2.25192 0
M  V30 615 O 71.1088 -3.7698 1.67212 0
M  V30 616 H 70.4498 -0.466654 0.472367 0
M  V30 617 H 72.9798 -0.925355 1.82478 0
M  V30 618 H 72.9898 -3.30519 2.3921 0
M  V30 619 H 71.6648 -2.56411 3.27454 0
M  V30 620 H 70.2418 -3.35699 1.6236 0
M  V30 621 N 72.4269 -1.23603 -0.977757 0
M  V30 622 C 73.6519 -1.09735 -1.75991 0
M  V30 623 C 74.0769 0.346858 -1.84874 0
M  V30 624 O 73.4349 1.25093 -1.3123 0
M  V30 625 C 73.4829 -1.73051 -3.16363 0
M  V30 626 O 72.5869 -0.994452 -4.0023 0
M  V30 627 H 71.9279 -0.384476 -0.541364 0
M  V30 628 H 74.4579 -1.6371 -1.2272 0
M  V30 629 H 74.4679 -1.78398 -3.66931 0
M  V30 630 H 73.1429 -2.78137 -3.09213 0
M  V30 631 H 71.7199 -1.01812 -3.58732 0
M  V30 632 N 73.905 1.17692 -1.04816 0
M  V30 633 C 75.13 1.92327 -0.776207 0
M  V30 634 C 75.555 1.76082 0.661581 0
M  V30 635 O 74.913 1.076 1.45917 0
M  V30 636 C 74.961 3.41539 -1.15687 0
M  V30 637 O 74.065 4.11402 -0.286775 0
M  V30 638 H 73.406 0.599735 -0.284981 0
M  V30 639 H 75.936 1.49201 -1.4 0
M  V30 640 H 75.946 3.92269 -1.12202 0
M  V30 641 H 74.621 3.52684 -2.20425 0
M  V30 642 H 73.198 3.70939 -0.381903 0
M  V30 643 N 75.3831 0.828654 1.34056 0
M  V30 644 C 76.6311 0.41863 1.97717 0
M  V30 645 C 76.9521 -1.02314 1.66002 0
M  V30 646 O 76.2221 -1.71119 0.953683 0
M  V30 647 H 74.8021 0.151809 0.731412 0
M  V30 648 H 77.4641 1.05936 1.63596 0
M  V30 649 H 76.5601 0.542318 3.07352 0
M  V30 650 N 76.8612 -1.46375 0.584142 0
M  V30 651 C 78.0912 -2.06461 0.0758195 0
M  V30 652 C 78.4992 -1.43322 -1.23512 0
M  V30 653 O 77.8422 -0.533216 -1.75791 0
M  V30 654 C 77.9042 -3.59131 -0.162773 0
M  V30 655 C 77.5682 -4.4447 1.06279 0
M  V30 656 C 78.5652 -4.80918 1.97519 0
M  V30 657 C 76.2502 -4.85584 1.28504 0
M  V30 658 C 78.2442 -5.57309 3.09331 0
M  V30 659 C 75.9312 -5.61734 2.4062 0
M  V30 660 C 76.9292 -5.9751 3.30863 0
M  V30 661 O 76.6172 -6.72121 4.41032 0
M  V30 662 H 76.3492 -0.673745 0.0551725 0
M  V30 663 H 78.9032 -1.88969 0.804984 0
M  V30 664 H 77.1332 -3.74936 -0.946565 0
M  V30 665 H 78.8222 -4.0114 -0.619782 0
M  V30 666 H 79.5882 -4.49732 1.81565 0
M  V30 667 H 75.4672 -4.57187 0.591702 0
M  V30 668 H 79.0112 -5.85152 3.79793 0
M  V30 669 H 74.9082 -5.92334 2.56537 0
M  V30 670 H 75.6762 -6.90547 4.39417 0
M  V30 671 N 78.3393 -0.321999 -1.54275 0
M  V30 672 C 79.5873 0.280489 -2.00144 0
M  V30 673 C 79.9083 1.52777 -1.21178 0
M  V30 674 O 79.1783 1.9338 -0.313187 0
M  V30 675 H 77.7583 0.106632 -0.73935 0
M  V30 676 H 80.4203 -0.438184 -1.8991 0
M  V30 677 H 79.5163 0.537972 -3.07428 0
M  V30 678 N 79.8174 1.5752 -0.0501392 0
M  V30 679 C 81.0654 1.9227 0.622642 0
M  V30 680 C 81.3864 0.929083 1.71444 0
M  V30 681 O 80.6564 -0.0262186 1.95882 0
M  V30 682 H 79.2364 0.709739 0.232981 0
M  V30 683 H 81.8984 1.94628 -0.102898 0
M  V30 684 H 80.9944 2.93479 1.06191 0
M  V30 685 N 81.2955 -0.223234 1.56011 0
M  V30 686 C 82.5435 -0.946003 1.78592 0
M  V30 687 C 82.8645 -1.84936 0.618349 0
M  V30 688 O 82.1345 -1.92473 -0.364833 0
M  V30 689 H 80.7145 -0.352298 0.658707 0
M  V30 690 H 83.3765 -0.235494 1.93472 0
M  V30 691 H 82.4725 -1.55381 2.70672 0
M  V30 692 N 82.7736 -1.49793 -0.48987 0
M  V30 693 C 83.9986 -1.63836 -1.27172 0
M  V30 694 C 84.4236 -0.31402 -1.8546 0
M  V30 695 O 83.7816 0.719803 -1.66399 0
M  V30 696 C 83.8296 -2.71797 -2.36978 0
M  V30 697 O 82.9336 -2.31744 -3.41128 0
M  V30 698 H 82.2746 -0.547997 -0.37496 0
M  V30 699 H 84.8046 -1.96053 -0.585191 0
M  V30 700 H 84.8146 -2.94305 -2.82575 0
M  V30 701 H 83.4896 -3.67923 -1.93921 0
M  V30 702 H 82.0666 -2.1961 -3.01373 0
M  V30 703 N 84.2517 0.741722 -1.39055 0
M  V30 704 C 85.4767 1.53607 -1.39354 0
M  V30 705 C 85.9017 1.88096 0.0116905 0
M  V30 706 O 85.2597 1.5143 0.996924 0
M  V30 707 C 85.3077 2.80441 -2.26682 0
M  V30 708 O 84.4117 3.76088 -1.69208 0
M  V30 709 H 83.7527 0.464142 -0.474835 0
M  V30 710 H 86.2827 0.915665 -1.82967 0
M  V30 711 H 86.2927 3.29246 -2.40959 0
M  V30 712 H 84.9677 2.5467 -3.2881 0
M  V30 713 H 83.5447 3.34833 -1.64138 0
M  V30 714 N 85.7298 1.2412 0.971189 0
M  V30 715 C 87.1458 1.00584 1.23916 0
M  V30 716 C 87.3458 -0.287481 1.99439 0
M  V30 717 O 86.4018 -1.00454 2.31658 0
M  V30 718 C 87.7148 2.21864 2.0297 0
M  V30 719 C 89.2628 2.26452 2.16076 0
M  V30 720 C 89.7378 3.47343 2.98524 0
M  V30 721 N 91.2288 3.47639 3.06107 0
M  V30 722 C 91.9638 4.37837 3.70251 0
M  V30 723 N 91.4598 5.38286 4.36142 0
M  V30 724 N 93.2528 4.25558 3.67228 0
M  V30 725 H 85.4038 2.07236 0.465499 0
M  V30 726 H 87.6668 0.909236 0.268315 0
M  V30 727 H 87.3728 3.15771 1.54861 0
M  V30 728 H 87.2468 2.23698 3.03709 0
M  V30 729 H 89.6338 1.33078 2.6339 0
M  V30 730 H 89.7148 2.28645 1.14696 0
M  V30 731 H 89.3588 4.41029 2.51905 0
M  V30 732 H 89.2888 3.42393 4.00093 0
M  V30 733 H 91.7798 2.74966 2.59233 0
M  V30 734 H 92.0928 6.03352 4.82894 0
M  V30 735 H 90.4378 5.42176 4.34822 0
M  V30 736 H 93.6288 3.46322 3.14927 0
M  V30 737 H 93.8018 4.96054 4.16935 0
M  V30 738 N 87.2079 -1.17134 1.05439 0
M  V30 739 C 88.4539 -1.87733 0.767077 0
M  V30 740 C 88.7869 -1.8098 -0.704253 0
M  V30 741 O 88.0619 -1.21951 -1.5152 0
M  V30 742 C 88.3449 -3.37659 1.25133 0
M  V30 743 C 88.1979 -3.53149 2.78578 0
M  V30 744 C 89.5169 -4.31768 0.852324 0
M  V30 745 H 86.6359 -0.681687 0.280129 0
M  V30 746 H 89.2779 -1.37732 1.30881 0
M  V30 747 H 87.4279 -3.80373 0.790469 0
M  V30 748 H 89.0999 -3.19434 3.32806 0
M  V30 749 H 87.3429 -2.95345 3.17732 0
M  V30 750 H 88.0139 -4.58403 3.07523 0
M  V30 751 H 90.4899 -3.96909 1.24911 0
M  V30 752 H 89.3659 -5.35199 1.21873 0
M  V30 753 H 89.6269 -4.41429 -0.243485 0
M  V30 754 N 88.686 -0.835752 -1.33615 0
M  V30 755 C 89.926 -0.43599 -1.99696 0
M  V30 756 C 90.29 0.98557 -1.64774 0
M  V30 757 O 91.491 1.48889 -2.23798 0
M  V30 758 C 89.762 -0.646721 -3.515 0
M  V30 759 S 91.321 -0.341715 -4.37467 0
M  V30 760 H 88.139 -0.164136 -0.691795 0
M  V30 761 H 90.741 -1.08436 -1.62671 0
M  V30 762 H 89.445 -1.68077 -3.74404 0
M  V30 763 H 88.976 0.0159173 -3.93397 0
M  V30 764 H 90.991 0.839708 -4.89043 0
M  V30 765 N 90.1641 1.46063 -0.591896 0
M  V30 766 C 91.4121 2.01938 -0.0808391 0
M  V30 767 C 91.7331 1.46475 1.28725 0
M  V30 768 O 91.0031 0.652944 1.84698 0
M  V30 769 H 89.5831 0.746516 -0.0268938 0
M  V30 770 H 92.2451 1.79055 -0.769752 0
M  V30 771 H 91.3411 3.12094 -0.0187578 0
M  V30 772 N 91.6422 0.330177 1.54103 0
M  V30 773 C 93.0582 -0.0222371 1.59585 0
M  V30 774 C 93.2582 -1.49902 1.34654 0
M  V30 775 O 92.3142 -2.25592 1.13421 0
M  V30 776 C 93.6272 0.401932 2.98002 0
M  V30 777 C 95.1752 0.353145 3.11001 0
M  V30 778 C 95.6502 0.752576 4.51775 0
M  V30 779 N 97.1412 0.706239 4.57784 0
M  V30 780 C 97.8762 0.987417 5.64834 0
M  V30 781 N 97.3722 1.33607 6.79795 0
M  V30 782 N 99.1652 0.91254 5.54643 0
M  V30 783 H 91.3162 1.29228 1.68564 0
M  V30 784 H 93.5792 0.525906 0.78875 0
M  V30 785 H 93.2852 1.4311 3.21267 0
M  V30 786 H 93.1592 -0.229699 3.765 0
M  V30 787 H 95.5462 -0.666822 2.87467 0
M  V30 788 H 95.6272 1.0198 2.34593 0
M  V30 789 H 95.2712 1.77049 4.76042 0
M  V30 790 H 95.2012 0.0635409 5.26562 0
M  V30 791 H 97.6922 0.44889 3.75224 0
M  V30 792 H 98.0052 1.53582 7.57385 0
M  V30 793 H 96.3502 1.37439 6.81275 0
M  V30 794 H 99.5412 0.639601 4.6371 0
M  V30 795 H 99.7142 1.13503 6.37982 0
M  V30 796 N 93.1203 -1.57491 0.0584922 0
M  V30 797 C 94.3683 -1.92597 -0.612436 0
M  V30 798 C 94.6893 -0.938162 -1.70949 0
M  V30 799 O 93.9593 0.0158301 -1.95894 0
M  V30 800 H 92.5393 -0.710964 -0.229214 0
M  V30 801 H 95.2013 -1.94571 0.113218 0
M  V30 802 H 94.2973 -2.94038 -1.04633 0
M  V30 803 N 94.5984 0.214957 -1.56127 0
M  V30 804 C 95.8464 0.936518 -1.79091 0
M  V30 805 C 96.1674 1.84606 -0.628148 0
M  V30 806 O 95.4374 1.92664 0.35462 0
M  V30 807 H 94.0174 0.3488 -0.660566 0
M  V30 808 H 96.6794 0.22523 -1.93594 0
M  V30 809 H 95.7754 1.53943 -2.71492 0
M  V30 810 N 96.0765 1.50051 0.48192 0
M  V30 811 C 97.3245 1.60181 1.23234 0
M  V30 812 C 97.6455 0.299176 1.92691 0
M  V30 813 O 96.9155 -0.682708 1.83619 0
M  V30 814 H 95.4955 0.590232 0.457859 0
M  V30 815 H 98.1575 1.86775 0.556881 0
M  V30 816 H 97.2535 2.40753 1.98607 0
M  V30 817 N 97.5546 -0.734337 1.39446 0
M  V30 818 C 98.8026 -1.49096 1.36436 0
M  V30 819 C 99.1236 -1.94961 -0.0388255 0
M  V30 820 O 98.3936 -1.69033 -0.990191 0
M  V30 821 H 96.9736 -0.5531 0.502085 0
M  V30 822 H 99.6356 -0.871725 1.74319 0
M  V30 823 H 98.7316 -2.37276 2.02747 0
M  V30 824 N 99.0327 -1.24633 -0.964593 0
M  V30 825 C 100.258 -1.11596 -1.74818 0
M  V30 826 C 100.683 0.32723 -1.85232 0
M  V30 827 O 100.041 1.23695 -1.32549 0
M  V30 828 C 100.089 -1.76397 -3.1451 0
M  V30 829 O 99.1927 -1.03685 -3.99153 0
M  V30 830 H 98.5337 -0.390196 -0.537255 0
M  V30 831 H 101.064 -1.65002 -1.20977 0
M  V30 832 H 101.074 -1.8228 -3.65018 0
M  V30 833 H 99.7487 -2.81401 -3.06246 0
M  V30 834 H 98.3257 -1.05611 -3.57632 0
M  V30 835 N 100.511 1.16574 -1.06058 0
M  V30 836 C 101.758 1.87047 -0.775873 0
M  V30 837 C 102.086 1.81562 0.697534 0
M  V30 838 O 101.341 1.22445 1.52662 0
M  V30 839 C 101.64 3.36195 -1.21275 0
M  V30 840 C 101.306 3.6188 -2.68986 0
M  V30 841 C 99.9678 3.68599 -3.09335 0
M  V30 842 C 102.32 3.72648 -3.64394 0
M  V30 843 C 99.6478 3.83584 -4.43937 0
M  V30 844 C 102 3.89154 -4.98741 0
M  V30 845 C 100.664 3.94114 -5.3873 0
M  V30 846 H 99.9338 0.684452 -0.283912 0
M  V30 847 H 102.581 1.37853 -1.32925 0
M  V30 848 H 100.886 3.87505 -0.578528 0
M  V30 849 H 102.583 3.89103 -0.969542 0
M  V30 850 H 99.1728 3.57281 -2.36744 0
M  V30 851 H 103.357 3.66769 -3.34356 0
M  V30 852 H 98.6128 3.85677 -4.74409 0
M  V30 853 H 102.787 3.96427 -5.72554 0
M  V30 854 H 100.414 4.05478 -6.43033 0
M  V30 855 N 101.989 0.842826 1.3317 0
M  V30 856 C 103.237 0.439577 1.97262 0
M  V30 857 C 103.558 -1.00548 1.67078 0
M  V30 858 O 102.828 -1.70098 0.971779 0
M  V30 859 H 101.408 0.159558 0.72976 0
M  V30 860 H 104.07 1.07665 1.62463 0
M  V30 861 H 103.166 0.574886 3.0676 0
M  V30 862 N 103.467 -1.45747 0.599634 0
M  V30 863 C 104.697 -2.06369 0.0977132 0
M  V30 864 C 105.105 -1.44624 -1.21985 0
M  V30 865 O 104.448 -0.551831 -1.75216 0
M  V30 866 C 104.51 -3.59284 -0.124673 0
M  V30 867 C 104.174 -4.43318 1.10987 0
M  V30 868 C 105.171 -4.78796 2.02609 0
M  V30 869 C 102.856 -4.84194 1.33647 0
M  V30 870 C 104.85 -5.53997 3.15224 0
M  V30 871 C 102.537 -5.5915 2.46565 0
M  V30 872 C 103.535 -5.93968 3.37182 0
M  V30 873 O 103.223 -6.67405 4.48136 0
M  V30 874 H 102.955 -0.673122 0.0623153 0
M  V30 875 H 105.509 -1.88104 0.824981 0
M  V30 876 H 103.739 -3.75919 -0.906745 0
M  V30 877 H 105.428 -4.01775 -0.577201 0
M  V30 878 H 106.194 -4.47781 1.86325 0
M  V30 879 H 102.073 -4.56534 0.64016 0
M  V30 880 H 105.617 -5.81091 3.85978 0
M  V30 881 H 101.514 -5.89579 2.62805 0
M  V30 882 H 102.282 -6.85847 4.46717 0
M  V30 883 N 104.945 -0.338344 -1.53925 0
M  V30 884 C 106.17 0.263987 -2.05713 0
M  V30 885 C 106.595 1.43847 -1.21201 0
M  V30 886 O 105.953 1.79904 -0.224535 0
M  V30 887 C 106.001 0.662 -3.54471 0
M  V30 888 O 105.105 1.76265 -3.72833 0
M  V30 889 H 104.446 0.0448722 -0.662482 0
M  V30 890 H 106.976 -0.491048 -1.9862 0
M  V30 891 H 106.986 0.940594 -3.9701 0
M  V30 892 H 105.661 -0.196937 -4.15433 0
M  V30 893 H 104.238 1.48173 -3.42198 0
M  V30 894 N 106.423 1.57458 -0.0668435 0
M  V30 895 C 107.653 1.97337 0.611677 0
M  V30 896 C 108.061 0.943744 1.63982 0
M  V30 897 O 107.404 -0.0785584 1.83532 0
M  V30 898 C 107.466 3.33511 1.34205 0
M  V30 899 C 107.13 4.54598 0.467941 0
M  V30 900 C 108.127 5.19186 -0.272439 0
M  V30 901 C 105.812 5.0075 0.39427 0
M  V30 902 C 107.806 6.28274 -1.07476 0
M  V30 903 C 105.493 6.09711 -0.411729 0
M  V30 904 C 106.491 6.73335 -1.14492 0
M  V30 905 O 106.179 7.80199 -1.93763 0
M  V30 906 H 105.911 0.654042 0.170893 0
M  V30 907 H 108.465 2.04961 -0.134289 0
M  V30 908 H 106.695 3.22487 2.13398 0
M  V30 909 H 108.384 3.58029 1.91233 0
M  V30 910 H 109.15 4.84477 -0.225086 0
M  V30 911 H 105.029 4.51009 0.954569 0
M  V30 912 H 108.573 6.77866 -1.64755 0
M  V30 913 H 104.47 6.43854 -0.460664 0
M  V30 914 H 105.238 7.97053 -1.86142 0
M  V30 915 N 107.901 -0.206675 1.56239 0
M  V30 916 C 109.149 -0.927007 1.79586 0
M  V30 917 C 109.47 -1.8427 0.637929 0
M  V30 918 O 108.74 -1.92849 -0.344398 0
M  V30 919 H 107.32 -0.345292 0.662407 0
M  V30 920 H 109.982 -0.21496 1.93711 0
M  V30 921 H 109.078 -1.52501 2.72305 0
M  V30 922 N 109.379 -1.50304 -0.473955 0
M  V30 923 C 110.627 -1.60832 -1.22382 0
M  V30 924 C 110.948 -0.30939 -1.9253 0
M  V30 925 O 110.218 0.67296 -1.83978 0
M  V30 926 H 108.798 -0.592652 -0.454723 0
M  V30 927 H 111.46 -1.87068 -0.546968 0
M  V30 928 H 110.556 -2.41803 -1.97327 0
M  V30 929 N 110.857 0.726932 -1.39834 0
M  V30 930 C 112.105 1.4837 -1.37225 0
M  V30 931 C 112.426 1.94979 0.0284857 0
M  V30 932 O 111.696 1.69555 0.981213 0
M  V30 933 H 110.276 0.55043 -0.505011 0
M  V30 934 H 112.938 0.862468 -1.74778 0
M  V30 935 H 112.034 2.36198 -2.04003 0
M  V30 936 N 112.336 1.25143 0.95797 0
M  V30 937 C 113.561 1.12521 1.74223 0
M  V30 938 C 113.986 -0.317402 1.85403 0
M  V30 939 O 113.344 -1.2299 1.33204 0
M  V30 940 C 113.392 1.78062 3.1357 0
M  V30 941 O 112.496 1.058 3.98598 0
M  V30 942 H 111.837 0.39304 0.535178 0
M  V30 943 H 114.367 1.65641 1.201 0
M  V30 944 H 114.377 1.84213 3.64046 0
M  V30 945 H 113.052 2.83021 3.04749 0
M  V30 946 H 111.629 1.07506 3.57067 0
M  V30 947 N 113.814 -1.1601 1.06675 0
M  V30 948 C 115.062 -1.86264 0.784229 0
M  V30 949 C 115.383 -1.82328 -0.691488 0
M  V30 950 O 114.653 -1.25947 -1.50047 0
M  V30 951 H 113.233 -0.689621 0.28711 0
M  V30 952 H 115.895 -1.40664 1.34906 0
M  V30 953 H 114.991 -2.91595 1.11259 0
M  V30 954 N 115.292 -0.849877 -1.32721 0
M  V30 955 C 116.54 -0.450032 -1.97026 0
M  V30 956 C 116.861 0.996604 -1.67609 0
M  V30 957 O 116.131 1.6958 -0.980786 0
M  V30 958 H 114.711 -0.163426 -0.728904 0
M  V30 959 H 117.373 -1.08526 -1.6189 0
M  V30 960 H 116.469 -0.591146 -3.0645 0
M  V30 961 N 116.77 1.45427 -0.607355 0
M  V30 962 C 118.018 2.01841 -0.102253 0
M  V30 963 C 118.339 1.47832 1.27164 0
M  V30 964 O 117.609 0.672497 1.83995 0
M  V30 965 H 116.189 0.746188 -0.0348101 0
M  V30 966 H 118.851 1.78229 -0.7887 0
M  V30 967 H 117.947 3.12057 -0.0518585 0
M  V30 968 N 118.248 0.346503 1.53744 0
M  V30 969 C 119.495 -0.249104 2.00962 0
M  V30 970 C 119.823 -1.5032 1.23426 0
M  V30 971 O 119.078 -1.93217 0.310761 0
M  V30 972 C 119.377 -0.605809 3.52228 0
M  V30 973 C 119.043 0.551747 4.47512 0
M  V30 974 C 117.705 0.86941 4.73281 0
M  V30 975 C 120.057 1.32818 5.03993 0
M  V30 976 C 117.385 1.96582 5.52786 0
M  V30 977 C 119.737 2.41486 5.84694 0
M  V30 978 C 118.401 2.73808 6.08757 0
M  V30 979 H 117.671 -0.0911538 0.735372 0
M  V30 980 H 120.318 0.475027 1.85515 0
M  V30 981 H 118.623 -1.4107 3.65522 0
M  V30 982 H 120.32 -1.07858 3.86222 0
M  V30 983 H 116.91 0.294102 4.2759 0
M  V30 984 H 121.094 1.09602 4.84047 0
M  V30 985 H 116.35 2.22045 5.69654 0
M  V30 986 H 120.524 3.02078 6.27473 0
M  V30 987 H 118.151 3.58892 6.7015 0
M  V30 988 N 119.726 -1.57421 0.075193 0
M  V30 989 C 120.951 -1.98364 -0.605515 0
M  V30 990 C 121.376 -0.953383 -1.62149 0
M  V30 991 O 120.734 0.0806053 -1.81121 0
M  V30 992 C 120.782 -3.38332 -1.24756 0
M  V30 993 O 119.886 -3.37959 -2.36342 0
M  V30 994 H 119.227 -0.645553 -0.155428 0
M  V30 995 H 121.757 -2.04044 0.150714 0
M  V30 996 H 121.767 -3.75591 -1.5936 0
M  V30 997 H 120.442 -4.12846 -0.503129 0
M  V30 998 H 119.019 -3.12474 -2.03506 0
M  V30 999 N 121.204 0.198386 -1.56346 0
M  V30 1000 C 122.167 1.22952 -1.93431 0
M  V30 1001 C 123.167 1.38611 -0.815092 0
M  V30 1002 O 124.357 1.36479 -1.08255 0
M  V30 1003 C 121.489 2.59946 -2.20546 0
M  V30 1004 H 122.682 0.912626 -2.85677 0
M  V30 1005 H 120.235 0.43977 -1.49986 0
M  V30 1006 H 120.97 2.96696 -1.30927 0
M  V30 1007 H 120.755 2.49953 -3.02102 0
M  V30 1008 H 122.245 3.3431 -2.50253 0
M  V30 1009 N 122.682 1.50554 0.465978 0
M  V30 1010 C 123.907 1.65838 1.24549 0
M  V30 1011 C 124.332 0.343486 1.84937 0
M  V30 1012 O 123.69 -0.69324 1.67523 0
M  V30 1013 C 123.738 2.75533 2.32624 0
M  V30 1014 O 122.842 2.37142 3.37398 0
M  V30 1015 H 122.183 0.553893 0.366194 0
M  V30 1016 H 124.713 1.96959 0.553927 0
M  V30 1017 H 124.723 2.98763 2.77857 0
M  V30 1018 H 123.398 3.70962 1.88043 0
M  V30 1019 H 121.975 2.24377 2.97841 0
M  V30 1020 N 124.16 -0.719506 1.40217 0
M  V30 1021 C 125.385 -1.51371 1.4178 0
M  V30 1022 C 125.81 -1.88091 0.0182355 0
M  V30 1023 O 125.168 -1.52997 -0.972707 0
M  V30 1024 C 125.216 -2.768 2.31115 0
M  V30 1025 O 124.32 -3.73349 1.7517 0
M  V30 1026 H 123.661 -0.456529 0.482159 0
M  V30 1027 H 126.191 -0.88644 1.844 0
M  V30 1028 H 126.201 -3.25371 2.46167 0
M  V30 1029 H 124.876 -2.49407 3.3282 0
M  V30 1030 H 123.453 -3.32179 1.69444 0
M  V30 1031 N 125.638 -1.25649 -0.95132 0
M  V30 1032 C 126.568 -1.08808 -2.06599 0
M  V30 1033 C 127.549 0.00382547 -1.701 0
M  V30 1034 O 128.734 -0.166325 -1.93486 0
M  V30 1035 C 125.864 -0.709542 -3.39975 0
M  V30 1036 C 124.818 -1.75206 -3.90496 0
M  V30 1037 C 124.144 -1.22811 -5.20405 0
M  V30 1038 C 125.444 -3.15153 -4.16504 0
M  V30 1039 H 127.138 -2.02048 -2.20946 0
M  V30 1040 H 124.684 -0.972835 -1.06169 0
M  V30 1041 H 126.637 -0.578649 -4.17408 0
M  V30 1042 H 125.361 0.258556 -3.25575 0
M  V30 1043 H 124.02 -1.87145 -3.15234 0
M  V30 1044 H 123.668 -0.250145 -5.02378 0
M  V30 1045 H 123.368 -1.92492 -5.55176 0
M  V30 1046 H 124.892 -1.10968 -6.00432 0
M  V30 1047 H 126.306 -3.06349 -4.84586 0
M  V30 1048 H 124.703 -3.82333 -4.62538 0
M  V30 1049 H 125.773 -3.61966 -3.22658 0
M  V30 1050 N 127.117 1.15442 -1.07289 0
M  V30 1051 C 128.365 1.85845 -0.794096 0
M  V30 1052 C 128.686 1.82692 0.681809 0
M  V30 1053 O 127.956 1.26741 1.49377 0
M  V30 1054 H 126.536 0.688089 -0.290763 0
M  V30 1055 H 129.198 1.39947 -1.3565 0
M  V30 1056 H 128.294 2.91001 -1.12804 0
M  V30 1057 N 128.595 0.856903 1.32268 0
M  V30 1058 C 129.843 0.460474 1.96784 0
M  V30 1059 C 130.164 -0.987701 1.68135 0
M  V30 1060 O 129.434 -1.69058 0.989765 0
M  V30 1061 H 128.014 0.167289 0.728027 0
M  V30 1062 H 130.676 1.09383 1.61312 0
M  V30 1063 H 129.772 0.60739 3.06133 0
M  V30 1064 N 130.073 -1.45103 0.615059 0
M  V30 1065 C 131.321 -2.01784 0.112955 0
M  V30 1066 C 131.642 -1.48504 -1.26378 0
M  V30 1067 O 130.912 -0.682245 -1.83636 0
M  V30 1068 H 129.492 -0.745993 0.0387668 0
M  V30 1069 H 132.154 -1.77808 0.798141 0
M  V30 1070 H 131.25 -3.12025 0.0684069 0
M  V30 1071 N 131.551 -0.354651 -1.53558 0
M  V30 1072 C 132.798 0.238443 -2.01091 0
M  V30 1073 C 133.126 1.49663 -1.24222 0
M  V30 1074 O 132.381 1.93049 -0.321003 0
M  V30 1075 C 132.68 0.587121 -3.52545 0
M  V30 1076 C 132.346 -0.575472 -4.47213 0
M  V30 1077 C 131.008 -0.894497 -4.72813 0
M  V30 1078 C 133.36 -1.35489 -5.03281 0
M  V30 1079 C 130.688 -1.99511 -5.51736 0
M  V30 1080 C 133.04 -2.44583 -5.83405 0
M  V30 1081 C 131.704 -2.77033 -6.07296 0
M  V30 1082 H 130.974 0.0872526 -0.735845 0
M  V30 1083 H 133.621 -0.484859 -1.8526 0
M  V30 1084 H 131.926 1.39129 -3.66265 0
M  V30 1085 H 133.623 1.05809 -3.86789 0
M  V30 1086 H 130.213 -0.316774 -4.27428 0
M  V30 1087 H 134.397 -1.12167 -4.83459 0
M  V30 1088 H 129.653 -2.25063 -5.68469 0
M  V30 1089 H 133.827 -3.05401 -6.25862 0
M  V30 1090 H 131.454 -3.6244 -6.68237 0
M  V30 1091 N 133.029 1.57378 -0.0835403 0
M  V30 1092 C 134.277 1.93547 0.581718 0
M  V30 1093 C 134.598 0.96524 1.69435 0
M  V30 1094 O 133.868 0.0153369 1.95894 0
M  V30 1095 H 132.448 0.714521 0.217874 0
M  V30 1096 H 135.11 1.94366 -0.144158 0
M  V30 1097 H 134.206 2.95665 0.999423 0
M  V30 1098 N 134.507 -0.190092 1.56449 0
M  V30 1099 C 135.755 -0.907908 1.80559 0
M  V30 1100 C 136.076 -1.83583 0.657438 0
M  V30 1101 O 135.346 -1.93203 -0.323924 0
M  V30 1102 H 133.926 -0.338247 0.666032 0
M  V30 1103 H 136.588 -0.194403 1.93928 0
M  V30 1104 H 135.684 -1.49604 2.73907 0
M  V30 1105 N 135.985 -1.50799 -0.457987 0
M  V30 1106 C 137.233 -1.62121 -1.2067 0
M  V30 1107 C 137.554 -0.329793 -1.92191 0
M  V30 1108 O 136.824 0.653409 -1.84682 0
M  V30 1109 H 135.404 -0.597441 -0.448411 0
M  V30 1110 H 138.066 -1.87637 -0.527096 0
M  V30 1111 H 137.162 -2.43882 -1.94751 0
M  V30 1112 N 137.463 0.71206 -1.40597 0
M  V30 1113 C 138.688 1.50617 -1.42581 0
M  V30 1114 C 139.113 1.88079 -0.0282102 0
M  V30 1115 O 138.471 1.53511 0.964579 0
M  V30 1116 C 138.519 2.7557 -2.3258 0
M  V30 1117 O 137.623 3.72414 -1.77148 0
M  V30 1118 H 136.964 0.453966 -0.484573 0
M  V30 1119 H 139.494 0.876649 -1.84868 0
M  V30 1120 H 139.504 3.2406 -2.47889 0
M  V30 1121 H 138.179 2.47639 -3.34138 0
M  V30 1122 H 136.756 3.31276 -1.71204 0
M  V30 1123 N 138.941 1.26152 0.944643 0
M  V30 1124 C 140.357 1.03189 1.21754 0
M  V30 1125 C 140.557 -0.245112 2.00004 0
M  V30 1126 O 139.613 -0.955176 2.33736 0
M  V30 1127 C 140.926 2.26119 1.98219 0
M  V30 1128 C 142.474 2.30984 2.11224 0
M  V30 1129 C 142.949 3.53597 2.91089 0
M  V30 1130 N 144.44 3.54053 2.98664 0
M  V30 1131 C 145.175 4.45593 3.60881 0
M  V30 1132 N 144.671 5.47416 4.24626 0
M  V30 1133 N 146.464 4.33252 3.58119 0
M  V30 1134 H 138.615 2.08177 0.421437 0
M  V30 1135 H 140.878 0.914723 0.248969 0
M  V30 1136 H 140.584 3.18984 1.48128 0
M  V30 1137 H 140.458 2.3009 2.98895 0
M  V30 1138 H 142.845 1.38635 2.60508 0
M  V30 1139 H 142.926 2.31026 1.09821 0
M  V30 1140 H 142.57 4.46273 2.42493 0
M  V30 1141 H 142.5 3.50802 3.92741 0
M  V30 1142 H 144.991 2.80403 2.53343 0
M  V30 1143 H 145.304 6.13459 4.69987 0
M  V30 1144 H 143.649 5.51278 4.23223 0
M  V30 1145 H 146.84 3.52924 3.0751 0
M  V30 1146 H 147.013 5.04786 4.06319 0
M  V30 1147 N 140.419 -1.14872 1.07899 0
M  V30 1148 C 141.667 -1.85422 0.803941 0
M  V30 1149 C 141.988 -1.83051 -0.67211 0
M  V30 1150 O 141.258 -1.27532 -1.48703 0
M  V30 1151 H 139.838 -0.686537 0.294408 0
M  V30 1152 H 142.5 -1.39226 1.3639 0
M  V30 1153 H 141.596 -2.90399 1.14346 0
M  V30 1154 N 141.898 -0.863906 -1.31812 0
M  V30 1155 C 143.145 -0.471836 -1.96926 0
M  V30 1156 C 143.473 0.974578 -1.68322 0
M  V30 1157 O 142.728 1.7003 -0.968933 0
M  V30 1158 C 143.027 -0.668547 -3.51091 0
M  V30 1159 C 142.693 -2.08683 -3.99703 0
M  V30 1160 C 141.355 -2.47471 -4.12688 0
M  V30 1161 C 143.707 -3.01207 -4.25351 0
M  V30 1162 C 141.035 -3.78037 -4.4867 0
M  V30 1163 C 143.387 -4.31282 -4.62794 0
M  V30 1164 C 142.051 -4.69992 -4.73987 0
M  V30 1165 H 141.321 -0.172657 -0.720604 0
M  V30 1166 H 143.968 -1.09573 -1.57054 0
M  V30 1167 H 142.273 0.0385252 -3.91781 0
M  V30 1168 H 143.97 -0.345102 -3.99512 0
M  V30 1169 H 140.56 -1.77566 -3.90087 0
M  V30 1170 H 144.744 -2.72469 -4.14819 0
M  V30 1171 H 140 -4.078 -4.55532 0
M  V30 1172 H 144.174 -5.03031 -4.81594 0
M  V30 1173 H 141.801 -5.71207 -5.01624 0
M  V30 1174 N 143.376 1.44774 -0.622745 0
M  V30 1175 C 144.624 2.01721 -0.123655 0
M  V30 1176 C 144.945 1.49172 1.25589 0
M  V30 1177 O 144.215 0.691974 1.83272 0
M  V30 1178 H 142.795 0.745777 -0.0427225 0
M  V30 1179 H 145.457 1.77382 -0.807559 0
M  V30 1180 H 144.553 3.11984 -0.0849534 0
M  V30 1181 N 144.854 0.36279 1.53368 0
M  V30 1182 C 146.102 -0.227326 2.00817 0
M  V30 1183 C 146.423 -1.49511 1.25186 0
M  V30 1184 O 145.693 -1.92482 0.364348 0
M  V30 1185 H 144.273 -0.0869923 0.741917 0
M  V30 1186 H 146.935 0.488381 1.88682 0
M  V30 1187 H 146.031 -0.456273 3.08747 0
M  V30 1188 N 146.332 -1.57332 0.0918853 0
M  V30 1189 C 147.295 -2.12708 -0.85369 0
M  V30 1190 C 148.295 -1.05561 -1.213 0
M  V30 1191 O 149.485 -1.31461 -1.14296 0
M  V30 1192 C 146.617 -2.64503 -2.15061 0
M  V30 1193 H 147.81 -2.97573 -0.3729 0
M  V30 1194 H 145.363 -1.55509 -0.157072 0
M  V30 1195 H 146.098 -1.83149 -2.67632 0
M  V30 1196 H 145.883 -3.4284 -1.90272 0
M  V30 1197 H 147.373 -3.07351 -2.82711 0
M  V30 1198 N 147.81 0.181792 -1.56548 0
M  V30 1199 C 149.035 0.920019 -1.85877 0
M  V30 1200 C 149.46 1.75494 -0.677021 0
M  V30 1201 O 148.818 1.77399 0.374056 0
M  V30 1202 C 148.866 1.78112 -3.13542 0
M  V30 1203 O 147.97 2.88152 -2.95029 0
M  V30 1204 H 147.311 0.258334 -0.611686 0
M  V30 1205 H 149.841 0.183092 -2.03779 0
M  V30 1206 H 149.851 2.18314 -3.44678 0
M  V30 1207 H 148.526 1.16777 -3.99169 0
M  V30 1208 H 147.103 2.51609 -2.75222 0
M  V30 1209 N 149.288 1.51039 0.449983 0
M  V30 1210 C 150.536 1.62759 1.19808 0
M  V30 1211 C 150.857 0.339981 1.92013 0
M  V30 1212 O 150.127 -0.643606 1.85026 0
M  V30 1213 H 148.707 0.599811 0.445237 0
M  V30 1214 H 151.369 1.87914 0.517138 0
M  V30 1215 H 150.465 2.44911 1.93455 0
M  V30 1216 N 150.766 -0.704594 1.40972 0
M  V30 1217 C 152.014 -1.46169 1.39568 0
M  V30 1218 C 152.335 -1.95 0.00253745 0
M  V30 1219 O 151.605 -1.71095 -0.954114 0
M  V30 1220 H 150.185 -0.542326 0.513704 0
M  V30 1221 H 152.847 -0.834553 1.76128 0
M  V30 1222 H 151.943 -2.32922 2.07735 0
M  V30 1223 N 152.244 -1.26651 -0.937939 0
M  V30 1224 C 153.492 -1.12165 -1.68118 0
M  V30 1225 C 153.813 0.334983 -1.92101 0
M  V30 1226 O 153.083 1.23583 -1.52 0
M  V30 1227 H 151.663 -0.412093 -0.623048 0
M  V30 1228 H 154.325 -1.59027 -1.12678 0
M  V30 1229 H 153.421 -1.64289 -2.6536 0
M  V30 1230 N 153.722 1.14298 -1.08507 0
M  V30 1231 C 154.952 1.88945 -0.835663 0
M  V30 1232 C 155.36 1.78894 0.615928 0
M  V30 1233 O 154.703 1.1468 1.43506 0
M  V30 1234 C 154.765 3.39585 -1.17994 0
M  V30 1235 C 154.429 3.7342 -2.63451 0
M  V30 1236 C 155.426 3.73454 -3.61702 0
M  V30 1237 C 153.111 4.03368 -2.99332 0
M  V30 1238 C 155.105 4.02961 -4.93864 0
M  V30 1239 C 152.792 4.32538 -4.31687 0
M  V30 1240 C 153.79 4.32318 -5.28763 0
M  V30 1241 O 153.478 4.6078 -6.58739 0
M  V30 1242 H 153.21 0.605307 -0.300965 0
M  V30 1243 H 155.764 1.45673 -1.44806 0
M  V30 1244 H 153.994 3.83315 -0.51055 0
M  V30 1245 H 155.683 3.9554 -0.911182 0
M  V30 1246 H 156.449 3.50403 -3.35325 0
M  V30 1247 H 152.328 4.02692 -2.24411 0
M  V30 1248 H 155.872 4.02704 -5.69627 0
M  V30 1249 H 151.769 4.55059 -4.57812 0
M  V30 1250 H 152.537 4.78492 -6.64069 0
M  V30 1251 N 155.201 0.870884 1.31352 0
M  V30 1252 C 156.426 0.495957 2.01383 0
M  V30 1253 C 156.851 -0.904324 1.64935 0
M  V30 1254 O 156.209 -1.59687 0.858466 0
M  V30 1255 C 156.257 0.661433 3.54482 0
M  V30 1256 O 155.361 -0.298851 4.11316 0
M  V30 1257 H 154.702 0.197158 0.634054 0
M  V30 1258 H 157.232 1.17455 1.67527 0
M  V30 1259 H 157.242 0.555072 4.04207 0
M  V30 1260 H 155.917 1.68246 3.8035 0
M  V30 1261 H 154.494 -0.147368 3.72609 0
M  V30 1262 N 156.679 -1.44442 0.630414 0
M  V30 1263 C 157.904 -2.06927 0.139944 0
M  V30 1264 C 158.329 -1.46795 -1.17613 0
M  V30 1265 O 157.687 -0.569144 -1.72135 0
M  V30 1266 C 157.735 -3.6058 0.0379581 0
M  V30 1267 O 156.839 -3.99937 -1.0062 0
M  V30 1268 H 156.18 -0.658608 0.0844483 0
M  V30 1269 H 158.71 -1.85327 0.866891 0
M  V30 1270 H 158.72 -4.07714 -0.152856 0
M  V30 1271 H 157.395 -4.03728 0.998809 0
M  V30 1272 H 155.972 -3.64436 -0.79001 0
M  V30 1273 N 158.157 -0.370918 -1.53173 0
M  V30 1274 C 159.382 0.220293 -2.06227 0
M  V30 1275 C 159.807 1.41243 -1.24225 0
M  V30 1276 O 159.165 1.79387 -0.262645 0
M  V30 1277 C 159.213 0.586663 -3.55796 0
M  V30 1278 O 158.317 1.68317 -3.76488 0
M  V30 1279 H 157.658 0.0308099 -0.663285 0
M  V30 1280 H 160.188 -0.533068 -1.97534 0
M  V30 1281 H 160.198 0.85617 -3.98916 0
M  V30 1282 H 158.873 -0.285013 -4.14922 0
M  V30 1283 H 157.45 1.40881 -3.45264 0
M  V30 1284 N 159.635 1.57281 -0.100228 0
M  V30 1285 C 160.883 1.94153 0.561157 0
M  V30 1286 C 161.204 0.983157 1.68401 0
M  V30 1287 O 160.474 0.0361132 1.95867 0
M  V30 1288 H 159.054 0.716791 0.210283 0
M  V30 1289 H 161.716 1.94202 -0.164765 0
M  V30 1290 H 160.812 2.96709 0.968008 0
M  V30 1291 N 161.113 -0.173488 1.56642 0
M  V30 1292 C 162.361 -0.888706 1.81512 0
M  V30 1293 C 162.682 -1.82875 0.676872 0
M  V30 1294 O 161.952 -1.93536 -0.303414 0
M  V30 1295 H 160.532 -0.331164 0.669582 0
M  V30 1296 H 163.194 -0.173823 1.94123 0
M  V30 1297 H 162.29 -1.46691 2.75478 0
M  V30 1298 N 162.591 -1.51276 -0.441967 0
M  V30 1299 C 163.838 -1.63715 -1.19179 0
M  V30 1300 C 164.166 -0.351175 -1.91303 0
M  V30 1301 O 163.421 0.664524 -1.84072 0
M  V30 1302 C 163.72 -2.78746 -2.23686 0
M  V30 1303 C 163.386 -4.18189 -1.68607 0
M  V30 1304 C 162.048 -4.56125 -1.53308 0
M  V30 1305 C 164.4 -5.05222 -1.28062 0
M  V30 1306 C 161.728 -5.78804 -0.959317 0
M  V30 1307 C 164.08 -6.28476 -0.721162 0
M  V30 1308 C 162.744 -6.65188 -0.55504 0
M  V30 1309 H 162.014 -0.599076 -0.436106 0
M  V30 1310 H 164.661 -1.85296 -0.48351 0
M  V30 1311 H 162.966 -2.51369 -3.00535 0
M  V30 1312 H 164.663 -2.8557 -2.81515 0
M  V30 1313 H 161.253 -3.88277 -1.8149 0
M  V30 1314 H 165.437 -4.76524 -1.38704 0
M  V30 1315 H 160.693 -6.05899 -0.81833 0
M  V30 1316 H 164.867 -6.95259 -0.398458 0
M  V30 1317 H 162.494 -7.60123 -0.108311 0
M  V30 1318 N 164.069 0.697108 -1.41344 0
M  V30 1319 C 165.317 1.45426 -1.40341 0
M  V30 1320 C 165.638 1.94996 -0.0128787 0
M  V30 1321 O 164.908 1.71599 0.945027 0
M  V30 1322 H 163.488 0.539594 -0.516573 0
M  V30 1323 H 166.15 0.825201 -1.76569 0
M  V30 1324 H 165.246 2.31817 -2.08967 0
M  V30 1325 N 165.547 1.27147 0.931209 0
M  V30 1326 C 166.795 1.13055 1.6752 0
M  V30 1327 C 167.116 -0.324791 1.92276 0
M  V30 1328 O 166.386 -1.22775 1.52654 0
M  V30 1329 H 164.966 0.415391 0.620854 0
M  V30 1330 H 167.628 1.59623 1.11833 0
M  V30 1331 H 166.724 1.65694 2.64485 0
M  V30 1332 N 167.025 -1.13721 1.09112 0
M  V30 1333 C 168.273 -1.84559 0.823562 0
M  V30 1334 C 168.594 -1.83754 -0.652658 0
M  V30 1335 O 167.864 -1.29102 -1.47342 0
M  V30 1336 H 166.444 -0.683376 0.301673 0
M  V30 1337 H 169.106 -1.37771 1.37859 0
M  V30 1338 H 168.202 -2.8917 1.17419 0
M  V30 1339 N 168.503 -0.877838 -1.30888 0
M  V30 1340 C 169.75 -0.492696 -1.96415 0
M  V30 1341 C 170.078 0.956671 -1.69346 0
M  V30 1342 O 169.333 1.68993 -0.986913 0
M  V30 1343 C 169.632 -0.705748 -3.50363 0
M  V30 1344 C 169.298 -2.1291 -3.97467 0
M  V30 1345 C 167.96 -2.51834 -4.1004 0
M  V30 1346 C 170.312 -3.05702 -4.22132 0
M  V30 1347 C 167.64 -3.82775 -4.44635 0
M  V30 1348 C 169.992 -4.36166 -4.58194 0
M  V30 1349 C 168.656 -4.74993 -4.68975 0
M  V30 1350 H 167.926 -0.18029 -0.718733 0
M  V30 1351 H 170.573 -1.11233 -1.55883 0
M  V30 1352 H 168.878 -0.00303058 -3.918 0
M  V30 1353 H 170.575 -0.387456 -3.99124 0
M  V30 1354 H 167.165 -1.81694 -3.88182 0
M  V30 1355 H 171.349 -2.76853 -4.11906 0
M  V30 1356 H 166.605 -4.12609 -4.51181 0
M  V30 1357 H 170.779 -5.08111 -4.76231 0
M  V30 1358 H 168.406 -5.76495 -4.95537 0
M  V30 1359 N 169.982 1.44106 -0.638065 0
M  V30 1360 C 171.23 2.01579 -0.145043 0
M  V30 1361 C 171.551 1.50496 1.24 0
M  V30 1362 O 170.821 0.711374 1.82527 0
M  V30 1363 H 169.401 0.745282 -0.05063 0
M  V30 1364 H 172.063 1.76516 -0.826327 0
M  V30 1365 H 171.159 3.11877 -0.118039 0
M  V30 1366 N 171.46 0.379036 1.52974 0
M  V30 1367 C 172.708 -0.206014 2.01047 0
M  V30 1368 C 173.029 -1.48175 1.26765 0
M  V30 1369 O 172.299 -1.92085 0.384743 0
M  V30 1370 H 170.879 -0.0791184 0.742798 0
M  V30 1371 H 173.541 0.508366 1.88153 0
M  V30 1372 H 172.637 -0.423501 3.09213 0
M  V30 1373 N 172.938 -1.57226 0.108567 0
M  V30 1374 C 174.186 -1.94448 -0.550853 0
M  V30 1375 C 174.507 -0.992074 -1.67878 0
M  V30 1376 O 173.777 -0.0465 -1.95845 0
M  V30 1377 H 172.357 -0.717897 -0.206479 0
M  V30 1378 H 175.019 -1.94112 0.175062 0
M  V30 1379 H 174.115 -2.97218 -0.952259 0
M  V30 1380 N 174.416 0.165178 -1.56732 0
M  V30 1381 C 175.641 0.900253 -1.86843 0
M  V30 1382 C 176.066 1.74766 -0.695596 0
M  V30 1383 O 175.424 1.77786 0.35522 0
M  V30 1384 C 175.472 1.74777 -3.15413 0
M  V30 1385 O 174.576 2.85007 -2.98068 0
M  V30 1386 H 173.917 0.251832 -0.614391 0
M  V30 1387 H 176.447 0.161468 -2.03962 0
M  V30 1388 H 176.457 2.14646 -3.46974 0
M  V30 1389 H 175.132 1.12537 -4.00385 0
M  V30 1390 H 173.709 2.48676 -2.77875 0
M  V30 1391 N 175.894 1.51508 0.433938 0
M  V30 1392 C 177.142 1.6402 1.18075 0
M  V30 1393 C 177.463 0.360328 1.91642 0
M  V30 1394 O 176.733 -0.623945 1.85698 0
M  V30 1395 H 175.313 0.6045 0.43885 0
M  V30 1396 H 177.975 1.88452 0.497178 0
M  V30 1397 H 177.071 2.46949 1.90847 0
M  V30 1398 N 177.372 -0.689602 1.41712 0
M  V30 1399 C 178.62 -1.4468 1.4111 0
M  V30 1400 C 178.941 -1.94986 0.0232196 0
M  V30 1401 O 178.211 -1.72097 -0.935913 0
M  V30 1402 H 176.791 -0.536847 0.519427 0
M  V30 1403 H 179.453 -0.815825 1.77004 0
M  V30 1404 H 178.549 -2.30706 2.10193 0
M  V30 1405 N 178.85 -1.27639 -0.924453 0
M  V30 1406 C 180.098 -1.13941 -1.66918 0
M  V30 1407 C 180.419 0.314589 -1.92446 0
M  V30 1408 O 179.689 1.21964 -1.53303 0
M  V30 1409 H 178.269 -0.418678 -0.618642 0
M  V30 1410 H 180.931 -1.60213 -1.10985 0
M  V30 1411 H 180.027 -1.67094 -2.63602 0
M  V30 1412 N 180.328 1.1314 -1.09713 0
M  V30 1413 C 181.575 1.84484 -0.834987 0
M  V30 1414 C 181.903 1.83689 0.639418 0
M  V30 1415 O 181.158 1.2724 1.4869 0
M  V30 1416 C 181.457 3.32167 -1.3191 0
M  V30 1417 C 181.123 3.53139 -2.80363 0
M  V30 1418 C 179.785 3.58571 -3.20905 0
M  V30 1419 C 182.137 3.60866 -3.76065 0
M  V30 1420 C 179.465 3.69267 -4.55916 0
M  V30 1421 C 181.817 3.73089 -5.10869 0
M  V30 1422 C 180.481 3.76775 -5.50996 0
M  V30 1423 H 179.751 0.675073 -0.305544 0
M  V30 1424 H 182.398 1.33554 -1.37243 0
M  V30 1425 H 180.703 3.85469 -0.701517 0
M  V30 1426 H 182.4 3.85821 -1.09284 0
M  V30 1427 H 178.99 3.49569 -2.47991 0
M  V30 1428 H 183.174 3.55946 -3.45855 0
M  V30 1429 H 178.43 3.70388 -4.86438 0
M  V30 1430 H 182.604 3.78011 -5.84877 0
M  V30 1431 H 180.231 3.84815 -6.55608 0
M  V30 1432 N 181.806 0.884767 1.30421 0
M  V30 1433 C 183.054 0.502112 1.95763 0
M  V30 1434 C 183.375 -0.951815 1.70192 0
M  V30 1435 O 182.645 -1.6692 1.0254 0
M  V30 1436 H 181.225 0.182694 0.724315 0
M  V30 1437 H 183.887 1.1278 1.58955 0
M  V30 1438 H 182.983 0.672188 3.04775 0
M  V30 1439 N 183.284 -1.43765 0.645699 0
M  V30 1440 C 184.532 -2.01499 0.155731 0
M  V30 1441 C 184.853 -1.51151 -1.232 0
M  V30 1442 O 184.123 -0.721044 -1.82148 0
M  V30 1443 H 182.703 -0.745003 0.0545817 0
M  V30 1444 H 185.365 -1.76075 0.835677 0
M  V30 1445 H 184.461 -3.1181 0.134577 0
M  V30 1446 N 184.763 -0.387143 -1.52771 0
M  V30 1447 C 186.011 0.195349 -2.01154 0
M  V30 1448 C 186.332 1.475 -1.27549 0
M  V30 1449 O 185.602 1.91878 -0.394924 0
M  V30 1450 H 184.182 0.075178 -0.743207 0
M  V30 1451 H 186.844 -0.518337 -1.87881 0
M  V30 1452 H 185.94 0.407096 -3.09434 0
M  V30 1453 N 186.241 1.57166 -0.116904 0
M  V30 1454 C 187.471 1.99184 0.548586 0
M  V30 1455 C 187.879 0.995436 1.60897 0
M  V30 1456 O 187.222 -0.0201293 1.83689 0
M  V30 1457 C 187.284 3.37611 1.23526 0
M  V30 1458 C 186.948 4.55857 0.323077 0
M  V30 1459 C 187.945 5.18056 -0.437476 0
M  V30 1460 C 185.63 5.01751 0.234761 0
M  V30 1461 C 187.624 6.24536 -1.2741 0
M  V30 1462 C 185.311 6.08093 -0.605496 0
M  V30 1463 C 186.309 6.69352 -1.35856 0
M  V30 1464 O 185.997 7.7364 -2.18487 0
M  V30 1465 H 185.729 0.659148 0.149999 0
M  V30 1466 H 188.283 2.0443 -0.199428 0
M  V30 1467 H 186.513 3.29113 2.0303 0
M  V30 1468 H 188.202 3.63932 1.79745 0
M  V30 1469 H 188.968 4.83516 -0.379105 0
M  V30 1470 H 184.847 4.53817 0.810601 0
M  V30 1471 H 188.391 6.72281 -1.86237 0
M  V30 1472 H 184.288 6.42063 -0.665268 0
M  V30 1473 H 185.056 7.90727 -2.11406 0
M  V30 1474 N 187.719 -0.156864 1.56817 0
M  V30 1475 C 188.967 -0.869404 1.82444 0
M  V30 1476 C 189.288 -1.82147 0.69623 0
M  V30 1477 O 188.558 -1.93847 -0.28287 0
M  V30 1478 H 187.138 -0.324043 0.673056 0
M  V30 1479 H 189.8 -0.153224 1.94297 0
M  V30 1480 H 188.896 -1.43761 2.77019 0
M  V30 1481 N 189.197 -1.51736 -0.425897 0
M  V30 1482 C 190.422 -1.69082 -1.20108 0
M  V30 1483 C 190.847 -0.392398 -1.83962 0
M  V30 1484 O 190.205 0.64858 -1.69302 0
M  V30 1485 C 190.253 -2.81604 -2.25237 0
M  V30 1486 O 189.357 -2.46004 -3.30992 0
M  V30 1487 H 188.698 -0.563408 -0.35138 0
M  V30 1488 H 191.228 -1.98358 -0.501512 0
M  V30 1489 H 191.238 -3.06025 -2.69838 0
M  V30 1490 H 189.913 -3.75817 -1.78142 0
M  V30 1491 H 188.49 -2.32195 -2.91787 0
M  V30 1492 N 190.675 0.682077 -1.42076 0
M  V30 1493 C 191.923 1.4393 -1.41876 0
M  V30 1494 C 192.244 1.94971 -0.0335599 0
M  V30 1495 O 191.514 1.72591 0.926773 0
M  V30 1496 H 190.094 0.534085 -0.522267 0
M  V30 1497 H 192.756 0.806427 -1.77434 0
M  V30 1498 H 191.852 2.29588 -2.11414 0
M  V30 1499 N 192.153 1.28127 0.917671 0
M  V30 1500 C 193.4 1.15052 1.66641 0
M  V30 1501 C 193.728 -0.301677 1.92146 0
M  V30 1502 O 192.983 -1.23622 1.51711 0
M  V30 1503 C 193.282 1.89018 3.03327 0
M  V30 1504 C 192.948 3.38832 2.97496 0
M  V30 1505 C 191.61 3.79693 2.95613 0
M  V30 1506 C 193.962 4.34378 2.88036 0
M  V30 1507 C 191.29 5.14447 2.82066 0
M  V30 1508 C 193.642 5.69201 2.7603 0
M  V30 1509 C 192.306 6.09343 2.72502 0
M  V30 1510 H 191.576 0.421006 0.609783 0
M  V30 1511 H 194.223 1.58855 1.06945 0
M  V30 1512 H 192.528 1.37752 3.66785 0
M  V30 1513 H 194.225 1.76321 3.60156 0
M  V30 1514 H 190.815 3.06342 2.99754 0
M  V30 1515 H 194.999 4.03775 2.88581 0
M  V30 1516 H 190.255 5.44681 2.77728 0
M  V30 1517 H 194.429 6.42901 2.67678 0
M  V30 1518 H 192.056 7.13712 2.61762 0
M  V30 1519 N 193.631 -1.12557 1.10312 0
M  V30 1520 C 194.879 -1.83675 0.843091 0
M  V30 1521 C 195.2 -1.84435 -0.633131 0
M  V30 1522 O 194.47 -1.30657 -1.45964 0
M  V30 1523 H 193.05 -0.680138 0.308904 0
M  V30 1524 H 195.712 -1.36301 1.39313 0
M  V30 1525 H 194.808 -2.87908 1.2048 0
M  V30 1526 N 195.109 -0.891671 -1.2995 0
M  V30 1527 C 196.357 -0.512486 -1.95494 0
M  V30 1528 C 196.678 0.942776 -1.70695 0
M  V30 1529 O 195.948 1.66374 -1.03424 0
M  V30 1530 H 194.528 -0.186533 -0.723336 0
M  V30 1531 H 197.19 -1.13621 -1.58355 0
M  V30 1532 H 196.286 -0.688342 -3.04415 0
M  V30 1533 N 196.587 1.43421 -0.653314 0
M  V30 1534 C 197.834 2.01812 -0.166745 0
M  V30 1535 C 198.162 1.51535 1.21931 0
M  V30 1536 O 197.417 0.698975 1.82792 0
M  V30 1537 C 197.716 3.57176 -0.126623 0
M  V30 1538 C 197.382 4.26798 -1.45444 0
M  V30 1539 C 196.044 4.45534 -1.81805 0
M  V30 1540 C 198.396 4.66225 -2.32989 0
M  V30 1541 C 195.724 5.00961 -3.05377 0
M  V30 1542 C 198.076 5.23021 -3.55853 0
M  V30 1543 C 196.74 5.39973 -3.9241 0
M  V30 1544 H 196.01 0.738484 -0.0610162 0
M  V30 1545 H 198.657 1.71896 -0.84404 0
M  V30 1546 H 196.962 3.86634 0.634123 0
M  V30 1547 H 198.659 4.00112 0.266723 0
M  V30 1548 H 195.249 4.12561 -1.16153 0
M  V30 1549 H 199.433 4.51443 -2.06187 0
M  V30 1550 H 194.689 5.12271 -3.3375 0
M  V30 1551 H 198.863 5.52518 -4.23907 0
M  V30 1552 H 196.49 5.82687 -4.88242 0
M  V30 1553 N 198.065 0.39524 1.52563 0
M  V30 1554 C 199.313 -0.184678 2.01254 0
M  V30 1555 C 199.634 -1.46822 1.28329 0
M  V30 1556 O 198.904 -1.91666 0.405094 0
M  V30 1557 H 197.484 -0.0712355 0.743596 0
M  V30 1558 H 200.146 0.528293 1.87603 0
M  V30 1559 H 199.242 -0.390681 3.09645 0
M  V30 1560 N 199.544 -1.57102 0.125237 0
M  V30 1561 C 200.792 -1.95021 -0.530198 0
M  V30 1562 C 201.113 -1.00982 -1.66816 0
M  V30 1563 O 200.383 -0.0672693 -1.95784 0
M  V30 1564 H 198.963 -0.720046 -0.198853 0
M  V30 1565 H 201.625 -1.93916 0.19564 0
M  V30 1566 H 200.721 -2.98211 -0.920681 0
M  V30 1567 N 201.022 0.148545 -1.56898 0
M  V30 1568 C 202.269 0.861418 -1.83264 0
M  V30 1569 C 202.597 1.81239 -0.705883 0
M  V30 1570 O 201.852 1.93305 0.305212 0
M  V30 1571 C 202.151 1.67064 -3.1595 0
M  V30 1572 C 201.817 0.866591 -4.42494 0
M  V30 1573 C 200.479 0.644762 -4.76861 0
M  V30 1574 C 202.831 0.30418 -5.20312 0
M  V30 1575 C 200.159 -0.15021 -5.86508 0
M  V30 1576 C 202.511 -0.477824 -6.30793 0
M  V30 1577 C 201.175 -0.710244 -6.63711 0
M  V30 1578 H 200.445 0.315215 -0.670612 0
M  V30 1579 H 203.092 0.125142 -1.91091 0
M  V30 1580 H 201.397 2.47698 -3.03567 0
M  V30 1581 H 203.094 2.22566 -3.33565 0
M  V30 1582 H 199.684 1.04955 -4.15551 0
M  V30 1583 H 203.868 0.462844 -4.94137 0
M  V30 1584 H 199.124 -0.339796 -6.10455 0
M  V30 1585 H 203.298 -0.92076 -6.90286 0
M  V30 1586 H 200.925 -1.3281 -7.48509 0
M  V30 1587 N 202.5 1.5196 0.417844 0
M  V30 1588 C 203.748 1.65263 1.16329 0
M  V30 1589 C 204.069 0.380634 1.91249 0
M  V30 1590 O 203.339 -0.604214 1.86349 0
M  V30 1591 H 201.919 0.60912 0.432414 0
M  V30 1592 H 204.581 1.88969 0.477162 0
M  V30 1593 H 203.677 2.4896 1.88217 0
M  V30 1594 N 203.978 -0.674533 1.42435 0
M  V30 1595 C 205.226 -1.43175 1.42637 0
M  V30 1596 C 205.547 -1.94951 0.0438992 0
M  V30 1597 O 204.817 -1.7308 -0.917607 0
M  V30 1598 H 203.397 -0.531307 0.525092 0
M  V30 1599 H 206.059 -0.797006 1.77859 0
M  V30 1600 H 205.155 -2.28463 2.12629 0
M  V30 1601 N 205.456 -1.28612 -0.910864 0
M  V30 1602 C 206.704 -1.15705 -1.65701 0
M  V30 1603 C 207.025 0.29416 -1.92769 0
M  V30 1604 O 206.295 1.20331 -1.54588 0
M  V30 1605 H 204.875 -0.425216 -0.614167 0
M  V30 1606 H 207.537 -1.61381 -1.0928 0
M  V30 1607 H 206.633 -1.6988 -2.61815 0
M  V30 1608 N 206.934 1.1197 -1.10907 0
M  V30 1609 C 207.897 2.16031 -0.765707 0
M  V30 1610 C 208.897 1.59393 0.212235 0
M  V30 1611 O 210.087 1.74196 -0.0115441 0
M  V30 1612 C 207.219 3.40632 -0.135053 0
M  V30 1613 H 208.412 2.47919 -1.68748 0
M  V30 1614 H 205.965 1.27061 -0.910226 0
M  V30 1615 H 206.7 3.14348 0.797218 0
M  V30 1616 H 206.485 3.8302 -0.838937 0
M  V30 1617 H 207.975 4.17505 0.0892469 0
M  V30 1618 N 208.412 0.89855 1.29475 0
M  V30 1619 C 209.66 0.522847 1.9522 0
M  V30 1620 C 209.981 -0.93371 1.71192 0
M  V30 1621 O 209.251 -1.65823 1.04305 0
M  V30 1622 H 207.831 0.190366 0.722336 0
M  V30 1623 H 210.493 1.14459 1.5775 0
M  V30 1624 H 209.589 0.704476 3.04045 0
M  V30 1625 N 209.89 -1.43072 0.660911 0
M  V30 1626 C 211.138 -2.01323 0.177094 0
M  V30 1627 C 211.459 -1.5245 -1.2159 0
M  V30 1628 O 210.729 -0.740322 -1.81373 0
M  V30 1629 H 209.309 -0.744382 0.0624804 0
M  V30 1630 H 211.971 -1.75179 0.854305 0
M  V30 1631 H 211.067 -3.11649 0.167641 0
M  V30 1632 N 211.368 -0.403325 -1.52352 0
M  V30 1633 C 212.616 0.174003 -2.0135 0
M  V30 1634 C 212.937 1.46139 -1.29106 0
M  V30 1635 O 212.207 1.91448 -0.415253 0
M  V30 1636 H 210.787 0.0672911 -0.743963 0
M  V30 1637 H 213.449 -0.538235 -1.87321 0
M  V30 1638 H 212.545 0.374254 -3.09848 0
M  V30 1639 N 212.846 1.57033 -0.133567 0
M  V30 1640 C 214.123 1.87256 0.56522 0
M  V30 1641 C 214.503 1.03726 1.83859 0
M  V30 1642 O 213.851 0.120247 2.28183 0
M  V30 1643 C 214.061 3.3865 0.843636 0
M  V30 1644 C 215.409 4.07574 1.19032 0
M  V30 1645 O 216.433 3.43752 0.933429 0
M  V30 1646 O 215.292 5.20259 1.67312 0
M  V30 1647 H 212.386 0.775678 0.286796 0
M  V30 1648 H 214.932 1.68855 -0.169168 0
M  V30 1649 H 213.704 3.91257 -0.0581149 0
M  V30 1650 H 213.327 3.62532 1.63268 0
M  V30 1651 N 214.325 -0.140222 1.56975 0
M  V30 1652 C 215.573 -0.850005 1.83356 0
M  V30 1653 C 215.894 -1.81399 0.71551 0
M  V30 1654 O 215.164 -1.94136 -0.262294 0
M  V30 1655 H 213.744 -0.316886 0.676456 0
M  V30 1656 H 216.406 -0.132608 1.94448 0
M  V30 1657 H 215.502 -1.40814 2.78528 0
M  V30 1658 N 215.803 -1.52179 -0.40978 0
M  V30 1659 C 217.051 -1.65878 -1.15451 0
M  V30 1660 C 217.372 -0.390771 -1.91044 0
M  V30 1661 O 216.642 0.594323 -1.86667 0
M  V30 1662 H 215.222 -0.611405 -0.429177 0
M  V30 1663 H 217.884 -1.89219 -0.467134 0
M  V30 1664 H 216.98 -2.49954 -1.86894 0
M  V30 1665 N 217.281 0.66697 -1.42791 0
M  V30 1666 C 218.53 1.42278 -1.42968 0
M  V30 1667 C 218.843 1.9553 -0.0524489 0
M  V30 1668 O 220.049 2.71414 0.068363 0
M  V30 1669 C 218.505 2.57418 -2.51524 0
M  V30 1670 C 218.113 2.10832 -3.9529 0
M  V30 1671 C 219.857 3.34878 -2.60877 0
M  V30 1672 C 217.764 3.23101 -4.95338 0
M  V30 1673 H 216.694 0.534533 -0.531781 0
M  V30 1674 H 219.345 0.721302 -1.68729 0
M  V30 1675 H 217.727 3.29971 -2.18941 0
M  V30 1676 H 218.901 1.4538 -4.37266 0
M  V30 1677 H 217.216 1.46289 -3.89857 0
M  V30 1678 H 219.813 4.18505 -3.32802 0
M  V30 1679 H 220.156 3.81993 -1.6549 0
M  V30 1680 H 220.689 2.69398 -2.92693 0
M  V30 1681 H 217.428 2.80969 -5.9223 0
M  V30 1682 H 216.948 3.87309 -4.57987 0
M  V30 1683 H 218.627 3.88447 -5.17415 0
M  V30 1684 N 218.759 1.29093 0.90403 0
M  V30 1685 C 219.689 1.16401 2.02418 0
M  V30 1686 C 220.67 0.0593085 1.69997 0
M  V30 1687 O 221.855 0.238021 1.92736 0
M  V30 1688 C 218.985 0.835233 3.37107 0
M  V30 1689 C 217.939 1.89578 3.83724 0
M  V30 1690 C 217.265 1.42041 5.15489 0
M  V30 1691 C 218.565 3.30394 4.04521 0
M  V30 1692 H 220.259 2.10109 2.13295 0
M  V30 1693 H 217.805 1.01157 1.02486 0
M  V30 1694 H 219.758 0.733169 4.14973 0
M  V30 1695 H 218.482 -0.137543 3.2631 0
M  V30 1696 H 217.141 1.98715 3.08071 0
M  V30 1697 H 216.789 0.436426 5.01103 0
M  V30 1698 H 216.489 2.12964 5.4765 0
M  V30 1699 H 218.013 1.33176 5.959 0
M  V30 1700 H 219.427 3.24123 4.72882 0
M  V30 1701 H 217.824 3.99237 4.48029 0
M  V30 1702 H 218.894 3.73692 3.09002 0
M  V30 1703 N 220.237 -1.11381 1.11499 0
M  V30 1704 C 221.465 -1.86934 0.88675 0
M  V30 1705 C 221.88 -1.80195 -0.563476 0
M  V30 1706 O 221.237 -1.18367 -1.38908 0
M  V30 1707 C 221.288 -3.35722 1.34064 0
M  V30 1708 O 221.009 -3.4232 2.73401 0
M  V30 1709 C 222.51 -4.2818 1.14791 0
M  V30 1710 H 219.73 -0.591117 0.317523 0
M  V30 1711 H 222.274 -1.40865 1.48248 0
M  V30 1712 H 220.429 -3.79294 0.788355 0
M  V30 1713 H 220.843 -4.34971 2.93087 0
M  V30 1714 H 222.317 -5.30817 1.5145 0
M  V30 1715 H 222.794 -4.39113 0.0875279 0
M  V30 1716 H 223.4 -3.90402 1.68721 0
M  V30 1717 N 221.715 -0.905404 -1.28997 0
M  V30 1718 C 222.678 -0.392253 -2.25819 0
M  V30 1719 C 223.678 0.476753 -1.5357 0
M  V30 1720 O 224.868 0.280994 -1.71919 0
M  V30 1721 C 222 0.438588 -3.38067 0
M  V30 1722 H 223.193 -1.24743 -2.72725 0
M  V30 1723 H 220.746 -0.684051 -1.40536 0
M  V30 1724 H 221.481 1.31352 -2.96508 0
M  V30 1725 H 221.266 -0.184167 -3.91667 0
M  V30 1726 H 222.756 0.78873 -4.10084 0
M  V30 1727 N 223.193 1.4272 -0.668489 0
M  V30 1728 C 224.141 2.32586 0.0254857 0
M  V30 1729 C 225.135 1.49471 0.797176 0
M  V30 1730 O 226.341 1.65583 0.705853 0
M  V30 1731 H 222.716 0.751514 0.0270339 0
M  V30 1732 H 224.687 2.88823 -0.749936 0
M  V30 1733 C 223.436 3.3397 0.967427 0
M  V30 1734 H 222.759 3.97961 0.383048 0
M  V30 1735 H 224.199 3.9945 1.42181 0
M  V30 1736 C 222.658 2.65744 2.0708 0
M  V30 1737 O 223.188 2.48454 3.15648 0
M  V30 1738 N 221.394 2.2487 1.8407 0
M  V30 1739 H 220.941 2.39132 0.95778 0
M  V30 1740 H 220.899 1.79552 2.58086 0
M  V30 1741 N 224.671 0.411399 1.52136 0
M  V30 1742 C 225.581 -0.419774 2.30814 0
M  V30 1743 C 226.597 -1.0515 1.38634 0
M  V30 1744 O 227.773 -1.05252 1.71709 0
M  V30 1745 C 224.838 -1.52019 3.11594 0
M  V30 1746 C 223.899 -0.91129 4.19516 0
M  V30 1747 C 223.132 -1.95927 4.96436 0
M  V30 1748 O 223.355 -3.17775 4.73683 0
M  V30 1749 O 222.289 -1.56423 5.81219 0
M  V30 1750 H 226.115 0.221805 3.02889 0
M  V30 1751 H 223.7 0.174547 1.48377 0
M  V30 1752 H 225.582 -2.15898 3.61892 0
M  V30 1753 H 224.257 -2.14633 2.42311 0
M  V30 1754 H 223.164 -0.235157 3.7336 0
M  V30 1755 H 224.497 -0.32904 4.91099 0
M  V30 1756 N 226.149 -1.5696 0.141893 0
M  V30 1757 C 227.096 -2.16501 -0.799737 0
M  V30 1758 C 228.066 -1.09643 -1.24771 0
M  V30 1759 O 229.251 -1.3766 -1.32115 0
M  V30 1760 C 226.391 -2.78679 -2.03549 0
M  V30 1761 C 225.504 -3.99914 -1.6338 0
M  V30 1762 C 224.639 -4.50106 -2.82096 0
M  V30 1763 C 223.678 -5.63819 -2.38275 0
M  V30 1764 N 222.815 -6.08651 -3.49983 0
M  V30 1765 H 227.655 -2.96632 -0.285179 0
M  V30 1766 H 225.192 -1.46533 -0.129053 0
M  V30 1767 H 227.15 -3.1287 -2.75986 0
M  V30 1768 H 225.78 -2.012 -2.52425 0
M  V30 1769 H 224.832 -3.71735 -0.807279 0
M  V30 1770 H 226.144 -4.82311 -1.27192 0
M  V30 1771 H 225.298 -4.86325 -3.62729 0
M  V30 1772 H 224.037 -3.66706 -3.21525 0
M  V30 1773 H 223.042 -5.2718 -1.56081 0
M  V30 1774 H 224.267 -6.49 -1.99938 0
M  V30 1775 H 222.213 -5.28188 -3.89042 0
M  V30 1776 H 222.13 -6.85961 -3.17794 0
M  V30 1777 H 223.398 -6.49515 -4.30988 0
M  V30 1778 N 227.627 0.131896 -1.57047 0
M  V30 1779 C 228.852 0.860418 -1.8871 0
M  V30 1780 C 229.277 1.73251 -0.73251 0
M  V30 1781 O 228.635 1.785 0.317429 0
M  V30 1782 C 228.683 1.68047 -3.19049 0
M  V30 1783 O 227.787 2.7862 -3.04047 0
M  V30 1784 H 227.128 0.238743 -0.619595 0
M  V30 1785 H 229.658 0.118169 -2.04258 0
M  V30 1786 H 229.668 2.07238 -3.51449 0
M  V30 1787 H 228.343 1.04018 -4.02682 0
M  V30 1788 H 226.92 2.42726 -2.83088 0
M  V30 1789 N 229.106 1.52395 0.401703 0
M  V30 1790 C 230.334 1.70676 1.16949 0
M  V30 1791 C 230.749 0.419503 1.8408 0
M  V30 1792 O 230.106 -0.605061 1.72178 0
M  V30 1793 C 230.157 2.84753 2.22706 0
M  V30 1794 O 229.878 4.08495 1.58314 0
M  V30 1795 C 231.379 3.14608 3.12309 0
M  V30 1796 H 228.599 0.571787 0.351142 0
M  V30 1797 H 231.143 1.98987 0.471652 0
M  V30 1798 H 229.298 2.58941 2.88147 0
M  V30 1799 H 229.712 4.72117 2.28485 0
M  V30 1800 H 231.186 3.97923 3.82572 0
M  V30 1801 H 231.663 2.28464 3.75101 0
M  V30 1802 H 232.269 3.42212 2.52529 0
M  V30 1803 N 230.584 -0.659388 1.43143 0
M  V30 1804 C 231.517 -1.78425 1.42267 0
M  V30 1805 C 232.495 -1.60085 0.284894 0
M  V30 1806 O 233.679 -1.82351 0.477527 0
M  V30 1807 C 230.806 -3.15642 1.22833 0
M  V30 1808 C 229.852 -3.52698 2.39806 0
M  V30 1809 S 230.685 -3.53372 4.02353 0
M  V30 1810 C 231.841 -4.93256 3.85291 0
M  V30 1811 H 232.074 -1.78897 2.37452 0
M  V30 1812 H 229.607 -0.831469 1.301 0
M  V30 1813 H 231.565 -3.94838 1.12308 0
M  V30 1814 H 230.226 -3.12739 0.29207 0
M  V30 1815 H 229.419 -4.52475 2.21996 0
M  V30 1816 H 229.021 -2.80899 2.46925 0
M  V30 1817 H 231.313 -5.81751 3.47235 0
M  V30 1818 H 232.256 -5.16115 4.84799 0
M  V30 1819 H 232.664 -4.665 3.17865 0
M  V30 1820 N 232.062 -1.29571 -0.897171 0
M  V30 1821 C 232.994 -1.10724 -2.00681 0
M  V30 1822 C 234.007 -0.0540026 -1.6271 0
M  V30 1823 O 235.196 -0.298783 -1.75982 0
M  V30 1824 C 232.296 -0.663912 -3.32333 0
M  V30 1825 C 231.469 -1.79622 -3.98816 0
M  V30 1826 C 230.528 -1.34349 -5.0876 0
M  V30 1827 O 229.554 -2.04864 -5.31055 0
M  V30 1828 N 230.756 -0.215764 -5.80099 0
M  V30 1829 H 233.521 -2.06291 -2.17403 0
M  V30 1830 H 231.082 -1.21544 -1.06951 0
M  V30 1831 H 233.074 -0.344295 -4.03233 0
M  V30 1832 H 231.644 0.199375 -3.11964 0
M  V30 1833 H 230.864 -2.28459 -3.21248 0
M  V30 1834 H 232.152 -2.55535 -4.39976 0
M  V30 1835 H 231.55 0.372091 -5.64475 0
M  V30 1836 H 230.107 0.0444707 -6.51785 0
M  V30 1837 N 233.54 1.10788 -1.12088 0
M  V30 1838 C 234.45 2.20599 -0.798338 0
M  V30 1839 C 235.466 1.72712 0.21135 0
M  V30 1840 O 236.642 2.01348 0.0458477 0
M  V30 1841 C 233.707 3.45771 -0.253674 0
M  V30 1842 C 232.768 4.08411 -1.32283 0
M  V30 1843 C 232.001 5.27608 -0.80406 0
M  V30 1844 O 232.224 5.69241 0.363478 0
M  V30 1845 O 231.158 5.8101 -1.57198 0
M  V30 1846 H 234.984 2.50614 -1.7154 0
M  V30 1847 H 232.569 1.19454 -0.897275 0
M  V30 1848 H 234.451 4.21376 0.0453691 0
M  V30 1849 H 233.126 3.1739 0.636005 0
M  V30 1850 H 232.033 3.34507 -1.67499 0
M  V30 1851 H 233.366 4.40986 -2.18614 0
M  V30 1852 N 235.018 0.912232 1.28515 0
M  V30 1853 C 235.948 0.416403 2.29757 0
M  V30 1854 C 236.929 -0.515194 1.6211 0
M  V30 1855 O 238.114 -0.423253 1.89532 0
M  V30 1856 C 235.244 -0.34572 3.45575 0
M  V30 1857 C 234.198 0.496599 4.25109 0
M  V30 1858 C 233.524 -0.393771 5.33248 0
M  V30 1859 C 234.824 1.75307 4.92001 0
M  V30 1860 H 236.518 1.26249 2.7148 0
M  V30 1861 H 234.064 0.608515 1.30511 0
M  V30 1862 H 236.017 -0.703422 4.15488 0
M  V30 1863 H 234.741 -1.2257 3.02728 0
M  V30 1864 H 233.4 0.8368 3.56922 0
M  V30 1865 H 233.048 -1.27225 4.86644 0
M  V30 1866 H 232.748 0.166209 5.87365 0
M  V30 1867 H 234.272 -0.747389 6.06009 0
M  V30 1868 H 235.686 1.46437 5.54283 0
M  V30 1869 H 234.083 2.25534 5.56106 0
M  V30 1870 H 235.153 2.48176 4.16577 0
M  V30 1871 N 236.496 -1.42363 0.676048 0
M  V30 1872 C 237.444 -2.32596 -0.0131507 0
M  V30 1873 C 238.438 -1.49891 -0.789238 0
M  V30 1874 O 239.644 -1.65955 -0.697061 0
M  V30 1875 H 236.019 -0.751647 -0.0230481 0
M  V30 1876 H 237.99 -2.88421 0.765243 0
M  V30 1877 C 236.739 -3.34479 -0.949702 0
M  V30 1878 H 236.062 -3.98158 -0.361938 0
M  V30 1879 H 237.502 -4.00199 -1.4006 0
M  V30 1880 C 235.961 -2.66838 -2.05667 0
M  V30 1881 O 236.491 -2.50124 -3.14326 0
M  V30 1882 N 234.697 -2.25843 -1.82875 0
M  V30 1883 H 234.244 -2.39637 -0.945085 0
M  V30 1884 H 234.202 -1.80918 -2.5713 0
M  V30 1885 N 237.974 -0.419461 -1.51915 0
M  V30 1886 C 239.199 0.154572 -2.06823 0
M  V30 1887 C 239.624 1.3722 -1.28656 0
M  V30 1888 O 238.982 1.78461 -0.319583 0
M  V30 1889 C 239.03 0.473172 -3.57482 0
M  V30 1890 O 238.134 1.56255 -3.81652 0
M  V30 1891 H 237.475 0.0096924 -0.663929 0
M  V30 1892 H 240.005 -0.595642 -1.95738 0
M  V30 1893 H 240.015 0.728825 -4.01438 0
M  V30 1894 H 238.69 -0.416873 -4.13805 0
M  V30 1895 H 237.267 1.29825 -3.49571 0
M  V30 1896 N 239.452 1.56882 -0.150215 0
M  V30 1897 C 240.868 1.58263 0.20617 0
M  V30 1898 C 241.068 1.16464 1.64434 0
M  V30 1899 O 240.124 0.866422 2.3717 0
M  V30 1900 C 241.437 3.00649 -0.0555025 0
M  V30 1901 C 242.985 3.12999 0.00795388 0
M  V30 1902 C 243.46 4.5744 -0.226429 0
M  V30 1903 N 244.951 4.62875 -0.173469 0
M  V30 1904 C 245.686 5.72454 -0.329288 0
M  V30 1905 N 245.182 6.90669 -0.543005 0
M  V30 1906 N 246.975 5.61467 -0.266666 0
M  V30 1907 H 239.126 1.82345 -1.08922 0
M  V30 1908 H 241.389 0.844149 -0.431413 0
M  V30 1909 H 241.095 3.3563 -1.05096 0
M  V30 1910 H 240.969 3.71337 0.66246 0
M  V30 1911 H 243.356 2.77857 0.993966 0
M  V30 1912 H 243.437 2.4479 -0.742388 0
M  V30 1913 H 243.081 4.93287 -1.20956 0
M  V30 1914 H 243.011 5.2378 0.544274 0
M  V30 1915 H 245.502 3.77898 -0.0130709 0
M  V30 1916 H 245.815 7.70045 -0.651922 0
M  V30 1917 H 244.16 6.92581 -0.579366 0
M  V30 1918 H 247.351 4.67992 -0.100441 0
M  V30 1919 H 247.524 6.46816 -0.391535 0
M  V30 1920 N 240.93 -0.123565 1.57115 0
M  V30 1921 C 241.86 -1.15309 2.03042 0
M  V30 1922 C 242.841 -1.43454 0.914061 0
M  V30 1923 O 244.026 -1.53973 1.18347 0
M  V30 1924 C 241.156 -2.48043 2.43089 0
M  V30 1925 C 240.11 -2.3437 3.58127 0
M  V30 1926 C 239.436 -3.72026 3.84059 0
M  V30 1927 C 240.736 -1.80804 4.90007 0
M  V30 1928 H 242.43 -0.771102 2.893 0
M  V30 1929 H 239.976 -0.369479 1.39179 0
M  V30 1930 H 241.929 -3.20311 2.73823 0
M  V30 1931 H 240.653 -2.88122 1.53796 0
M  V30 1932 H 239.312 -1.64551 3.27595 0
M  V30 1933 H 238.96 -4.09582 2.91979 0
M  V30 1934 H 238.66 -3.63732 4.6149 0
M  V30 1935 H 240.184 -4.45806 4.1724 0
M  V30 1936 H 241.598 -2.42886 5.19307 0
M  V30 1937 H 239.995 -1.83343 5.71407 0
M  V30 1938 H 241.065 -0.76528 4.78823 0
M  V30 1939 N 242.408 -1.52605 -0.393616 0
M  V30 1940 C 243.371 -1.76415 -1.46323 0
M  V30 1941 C 244.371 -0.634126 -1.47768 0
M  V30 1942 O 245.561 -0.902142 -1.4902 0
M  V30 1943 C 242.693 -1.8607 -2.85641 0
M  V30 1944 H 243.886 -2.71916 -1.26498 0
M  V30 1945 H 241.439 -1.43257 -0.625073 0
M  V30 1946 H 242.174 -0.925378 -3.10817 0
M  V30 1947 H 241.959 -2.68235 -2.85993 0
M  V30 1948 H 243.449 -2.06179 -3.63153 0
M  V30 1949 N 243.887 0.651787 -1.4349 0
M  V30 1950 C 245.112 1.44434 -1.48841 0
M  V30 1951 C 245.537 1.8779 -0.107955 0
M  V30 1952 O 244.895 1.57464 0.898602 0
M  V30 1953 C 244.943 2.65458 -2.44059 0
M  V30 1954 O 244.047 3.64566 -1.92784 0
M  V30 1955 H 243.388 0.433005 -0.503391 0
M  V30 1956 H 245.918 0.797451 -1.88419 0
M  V30 1957 H 245.928 3.13255 -2.6141 0
M  V30 1958 H 244.603 2.33244 -3.4434 0
M  V30 1959 H 243.18 3.23716 -1.851 0
M  V30 1960 N 245.365 1.30045 0.890287 0
M  V30 1961 C 246.595 1.21296 1.67245 0
M  V30 1962 C 247.003 -0.227471 1.87828 0
M  V30 1963 O 246.346 -1.16296 1.422 0
M  V30 1964 C 246.408 1.86519 3.07329 0
M  V30 1965 C 246.072 3.35837 3.09939 0
M  V30 1966 C 247.069 4.31915 2.89389 0
M  V30 1967 C 244.754 3.77196 3.31706 0
M  V30 1968 C 246.748 5.67325 2.90552 0
M  V30 1969 C 244.435 5.12725 3.32499 0
M  V30 1970 C 245.433 6.076 3.11947 0
M  V30 1971 O 245.121 7.40655 3.12547 0
M  V30 1972 H 244.853 0.4211 0.528821 0
M  V30 1973 H 247.407 1.72111 1.12103 0
M  V30 1974 H 245.637 1.30228 3.64112 0
M  V30 1975 H 247.326 1.71963 3.67673 0
M  V30 1976 H 248.092 4.01294 2.72375 0
M  V30 1977 H 243.971 3.03796 3.4674 0
M  V30 1978 H 247.515 6.41354 2.74429 0
M  V30 1979 H 243.412 5.42988 3.49047 0
M  V30 1980 H 244.18 7.49577 3.28749 0
M  V30 1981 N 246.843 -1.10192 1.12674 0
M  V30 1982 C 247.773 -2.18652 0.819362 0
M  V30 1983 C 248.754 -1.68698 -0.217915 0
M  V30 1984 O 249.939 -1.94041 -0.0785581 0
M  V30 1985 C 247.069 -3.46202 0.27594 0
M  V30 1986 C 246.023 -4.09444 1.24656 0
M  V30 1987 C 245.349 -5.31725 0.563258 0
M  V30 1988 C 246.649 -4.52863 2.60217 0
M  V30 1989 H 248.343 -2.44622 1.72628 0
M  V30 1990 H 245.889 -1.17571 0.831451 0
M  V30 1991 H 247.842 -4.21372 0.0486149 0
M  V30 1992 H 246.566 -3.1973 -0.666331 0
M  V30 1993 H 245.225 -3.36284 1.45974 0
M  V30 1994 H 244.873 -5.0153 -0.384235 0
M  V30 1995 H 244.573 -5.74991 1.21075 0
M  V30 1996 H 246.097 -6.09624 0.34503 0
M  V30 1997 H 247.511 -5.19294 2.42913 0
M  V30 1998 H 245.908 -5.06986 3.21068 0
M  V30 1999 H 246.978 -3.65656 3.18471 0
M  V30 2000 N 248.321 -0.919034 -1.28029 0
M  V30 2001 C 249.598 -0.473668 -1.89778 0
M  V30 2002 C 249.978 1.04783 -1.83259 0
M  V30 2003 O 249.326 1.8982 -1.27202 0
M  V30 2004 C 249.536 -1.00998 -3.34066 0
M  V30 2005 C 250.884 -1.06525 -4.1102 0
M  V30 2006 O 251.908 -0.958996 -3.43048 0
M  V30 2007 O 250.767 -1.22776 -5.3253 0
M  V30 2008 H 247.861 -0.15098 -0.813101 0
M  V30 2009 H 250.407 -1.01016 -1.36359 0
M  V30 2010 H 249.179 -2.05392 -3.33061 0
M  V30 2011 H 248.802 -0.454626 -3.94992 0
M  V30 2012 N 249.799 1.42003 -0.683588 0
M  V30 2013 C 250.746 2.30798 -0.0107309 0
M  V30 2014 C 251.716 1.4645 0.783688 0
M  V30 2015 O 252.901 1.75263 0.754156 0
M  V30 2016 C 250.041 3.3238 0.928306 0
M  V30 2017 C 249.154 4.31814 0.126776 0
M  V30 2018 C 248.289 5.20468 1.06236 0
M  V30 2019 C 247.328 6.11577 0.253035 0
M  V30 2020 N 246.465 6.92754 1.14179 0
M  V30 2021 H 251.305 2.8778 -0.773727 0
M  V30 2022 H 248.842 1.41745 -0.393283 0
M  V30 2023 H 250.8 3.89813 1.48666 0
M  V30 2024 H 249.43 2.76976 1.65783 0
M  V30 2025 H 248.482 3.76427 -0.54833 0
M  V30 2026 H 249.794 4.96276 -0.501192 0
M  V30 2027 H 248.948 5.82677 1.69035 0
M  V30 2028 H 247.687 4.56204 1.7242 0
M  V30 2029 H 246.692 5.48428 -0.388108 0
M  V30 2030 H 247.917 6.77892 -0.404839 0
M  V30 2031 H 245.863 6.3111 1.78987 0
M  V30 2032 H 245.78 7.53855 0.569111 0
M  V30 2033 H 247.048 7.59441 1.75697 0
M  V30 2034 N 251.277 0.427512 1.51691 0
M  V30 2035 C 252.523 -0.142439 2.02299 0
M  V30 2036 C 252.856 -1.43214 1.31162 0
M  V30 2037 O 252.131 -1.89833 0.423511 0
M  V30 2038 C 252.414 -0.371301 3.58181 0
M  V30 2039 C 252.267 0.936358 4.39946 0
M  V30 2040 C 253.586 -1.14542 4.24933 0
M  V30 2041 H 250.705 -0.0502937 0.735282 0
M  V30 2042 H 253.347 0.564584 1.81418 0
M  V30 2043 H 251.497 -0.973559 3.76104 0
M  V30 2044 H 253.169 1.57184 4.33694 0
M  V30 2045 H 251.412 1.5432 4.05423 0
M  V30 2046 H 252.083 0.730388 5.47147 0
M  V30 2047 H 254.559 -0.635362 4.11221 0
M  V30 2048 H 253.435 -1.27431 5.33903 0
M  V30 2049 H 253.696 -2.17093 3.85127 0
M  V30 2050 N 252.755 -1.56801 0.158532 0
M  V30 2051 C 253.687 -2.14488 -0.807923 0
M  V30 2052 C 254.7 -1.09721 -1.20271 0
M  V30 2053 O 255.889 -1.36956 -1.14478 0
M  V30 2054 C 252.989 -2.66217 -2.09718 0
M  V30 2055 C 252.162 -3.95507 -1.86796 0
M  V30 2056 C 251.221 -4.3243 -2.99818 0
M  V30 2057 O 250.247 -5.00543 -2.71008 0
M  V30 2058 N 251.449 -3.92947 -4.27285 0
M  V30 2059 H 254.214 -2.98042 -0.314816 0
M  V30 2060 H 251.775 -1.61881 -0.0246692 0
M  V30 2061 H 253.767 -2.87924 -2.84398 0
M  V30 2062 H 252.337 -1.87324 -2.50257 0
M  V30 2063 H 251.557 -3.82309 -0.96089 0
M  V30 2064 H 252.845 -4.79972 -1.68833 0
M  V30 2065 H 252.243 -3.38087 -4.53557 0
M  V30 2066 H 250.8 -4.19681 -4.9871 0
M  V30 2067 N 254.233 0.115231 -1.57178 0
M  V30 2068 C 255.196 1.12526 -1.99676 0
M  V30 2069 C 256.196 1.34095 -0.88742 0
M  V30 2070 O 257.386 1.30548 -1.15337 0
M  V30 2071 C 254.518 2.4789 -2.34015 0
M  V30 2072 H 255.711 0.759912 -2.90113 0
M  V30 2073 H 253.264 0.359648 -1.52106 0
M  V30 2074 H 253.999 2.89339 -1.4647 0
M  V30 2075 H 253.784 2.33588 -3.14927 0
M  V30 2076 H 255.274 3.20575 -2.67622 0
M  V30 2077 N 255.711 1.52812 0.385517 0
M  V30 2078 C 256.641 1.80808 1.47752 0
M  V30 2079 C 257.622 0.660318 1.5676 0
M  V30 2080 O 258.807 0.908246 1.71652 0
M  V30 2081 C 255.937 1.98008 2.85324 0
M  V30 2082 C 254.891 3.13709 2.91154 0
M  V30 2083 C 254.217 3.16169 4.31209 0
M  V30 2084 C 255.517 4.52709 2.60483 0
M  V30 2085 H 257.211 2.72253 1.24573 0
M  V30 2086 H 254.757 1.31003 0.597839 0
M  V30 2087 H 256.71 2.16176 3.61726 0
M  V30 2088 H 255.434 1.03255 3.09848 0
M  V30 2089 H 254.093 2.95329 2.17201 0
M  V30 2090 H 253.741 2.19092 4.52778 0
M  V30 2091 H 253.441 3.93894 4.36029 0
M  V30 2092 H 254.965 3.36496 5.09512 0
M  V30 2093 H 256.379 4.71173 3.26602 0
M  V30 2094 H 254.776 5.32528 2.76648 0
M  V30 2095 H 255.846 4.59186 1.55809 0
M  V30 2096 N 257.189 -0.644168 1.43834 0
M  V30 2097 C 258.099 -1.78563 1.52159 0
M  V30 2098 C 259.115 -1.69147 0.408069 0
M  V30 2099 O 260.291 -1.90156 0.663524 0
M  V30 2100 C 257.356 -3.14888 1.45073 0
M  V30 2101 C 256.417 -3.36034 2.6717 0
M  V30 2102 C 255.65 -4.65855 2.60413 0
M  V30 2103 O 255.873 -5.45805 1.65689 0
M  V30 2104 O 254.807 -4.88918 3.5106 0
M  V30 2105 H 258.633 -1.74494 2.48567 0
M  V30 2106 H 256.218 -0.80378 1.25935 0
M  V30 2107 H 258.1 -3.96179 1.43597 0
M  V30 2108 H 256.775 -3.19528 0.518037 0
M  V30 2109 H 255.682 -2.54472 2.74217 0
M  V30 2110 H 257.015 -3.36247 3.59442 0
M  V30 2111 N 258.668 -1.30515 -0.883378 0
M  V30 2112 C 259.578 -1.18959 -2.02203 0
M  V30 2113 C 260.594 -0.109172 -1.73657 0
M  V30 2114 O 261.77 -0.324413 -1.9877 0
M  V30 2115 C 258.835 -0.883871 -3.35244 0
M  V30 2116 C 257.896 -2.04982 -3.77201 0
M  V30 2117 C 257.129 -1.75859 -5.03894 0
M  V30 2118 O 257.352 -0.687276 -5.66244 0
M  V30 2119 O 256.286 -2.61146 -5.42297 0
M  V30 2120 H 260.112 -2.14616 -2.1488 0
M  V30 2121 H 257.697 -1.10124 -1.0096 0
M  V30 2122 H 259.579 -0.728644 -4.15053 0
M  V30 2123 H 258.254 0.0427798 -3.23672 0
M  V30 2124 H 257.161 -2.26038 -2.9809 0
M  V30 2125 H 258.494 -2.95825 -3.93381 0
M  V30 2126 N 260.146 1.09593 -1.13257 0
M  V30 2127 C 261.109 2.14359 -0.811358 0
M  V30 2128 C 262.109 1.59808 0.178377 0
M  V30 2129 O 263.299 1.74132 -0.0484911 0
M  V30 2130 C 260.431 3.40269 -0.207276 0
M  V30 2131 H 261.624 2.44284 -1.73969 0
M  V30 2132 H 259.177 1.25102 -0.936973 0
M  V30 2133 H 259.912 3.15969 0.73036 0
M  V30 2134 H 259.697 3.81154 -0.919992 0
M  V30 2135 H 261.187 4.176 0.000667944 0
M  V30 2136 N 261.624 0.925811 1.2754 0
M  V30 2137 C 262.572 0.413897 2.28888 0
M  V30 2138 C 263.566 -0.500779 1.61829 0
M  V30 2139 O 264.772 -0.38069 1.75928 0
M  V30 2140 H 261.147 0.115274 0.743112 0
M  V30 2141 H 263.118 1.28151 2.69481 0
M  V30 2142 C 261.867 -0.319792 3.46226 0
M  V30 2143 H 261.19 0.374846 3.98039 0
M  V30 2144 H 262.63 -0.642435 4.19105 0
M  V30 2145 C 261.089 -1.53209 3.00048 0
M  V30 2146 O 261.619 -2.6309 3.03557 0
M  V30 2147 N 259.825 -1.38326 2.55566 0
M  V30 2148 H 259.372 -0.489292 2.5291 0
M  V30 2149 H 259.33 -2.19564 2.25031 0
M  V30 2150 N 263.102 -1.41638 0.69111 0
M  V30 2151 C 264.05 -2.32597 0.0115199 0
M  V30 2152 C 265.044 -1.5072 -0.773296 0
M  V30 2153 O 266.25 -1.66685 -0.67942 0
M  V30 2154 H 262.625 -0.751849 -0.0150746 0
M  V30 2155 H 264.596 -2.87593 0.795791 0
M  V30 2156 C 263.345 -3.35467 -0.914172 0
M  V30 2157 H 262.668 -3.9852 -0.319687 0
M  V30 2158 H 264.108 -4.01662 -1.35808 0
M  V30 2159 C 262.567 -2.69004 -2.02826 0
M  V30 2160 O 263.097 -2.53444 -3.11655 0
M  V30 2161 N 261.303 -2.2777 -1.80469 0
M  V30 2162 H 260.85 -2.40626 -0.919615 0
M  V30 2163 H 260.808 -1.83635 -2.55197 0
M  V30 2164 N 264.58 -0.43555 -1.51462 0
M  V30 2165 C 265.857 0.191364 -1.94662 0
M  V30 2166 C 266.237 1.60254 -1.37411 0
M  V30 2167 O 265.585 2.2152 -0.560458 0
M  V30 2168 C 265.795 0.17091 -3.48581 0
M  V30 2169 C 267.143 0.377357 -4.2292 0
M  V30 2170 O 268.167 0.249104 -3.55328 0
M  V30 2171 O 267.026 0.63247 -5.42828 0
M  V30 2172 H 264.12 0.130932 -0.816569 0
M  V30 2173 H 266.666 -0.4934 -1.62369 0
M  V30 2174 H 265.438 -0.815738 -3.82703 0
M  V30 2175 H 265.061 0.898659 -3.87311 0
M  V30 2176 N 266.058 1.56714 -0.166846 0
M  V30 2177 C 266.988 2.20754 0.760913 0
M  V30 2178 C 267.969 1.16178 1.24244 0
M  V30 2179 O 269.154 1.44592 1.29641 0
M  V30 2180 C 266.284 2.84478 1.99223 0
M  V30 2181 C 265.238 3.95053 1.64672 0
M  V30 2182 C 264.564 4.45805 2.95232 0
M  V30 2183 C 265.864 5.14865 0.878155 0
M  V30 2184 H 267.558 2.98537 0.22713 0
M  V30 2185 H 265.104 1.43596 0.107805 0
M  V30 2186 H 267.057 3.27951 2.64624 0
M  V30 2187 H 265.781 2.04056 2.55007 0
M  V30 2188 H 264.44 3.52228 1.01641 0
M  V30 2189 H 264.088 3.62181 3.49047 0
M  V30 2190 H 263.788 5.204 2.7287 0
M  V30 2191 H 265.312 4.91962 3.6167 0
M  V30 2192 H 266.726 5.55059 1.43466 0
M  V30 2193 H 265.123 5.95348 0.753738 0
M  V30 2194 H 266.193 4.84735 -0.126377 0
M  V30 2195 N 267.536 -0.106894 1.57237 0
M  V30 2196 C 268.446 -1.14911 2.0453 0
M  V30 2197 C 269.462 -1.44592 0.96795 0
M  V30 2198 O 270.638 -1.55468 1.2803 0
M  V30 2199 C 267.703 -2.45272 2.45036 0
M  V30 2200 C 266.764 -2.22879 3.66911 0
M  V30 2201 C 265.997 -3.47024 4.05475 0
M  V30 2202 O 266.22 -4.54804 3.44252 0
M  V30 2203 O 265.154 -3.3731 4.98504 0
M  V30 2204 H 268.98 -0.777461 2.9358 0
M  V30 2205 H 266.565 -0.318563 1.45964 0
M  V30 2206 H 268.447 -3.22055 2.71769 0
M  V30 2207 H 267.122 -2.81886 1.59129 0
M  V30 2208 H 266.029 -1.43915 3.45311 0
M  V30 2209 H 267.362 -1.91163 4.53561 0
M  V30 2210 N 269.014 -1.53014 -0.377408 0
M  V30 2211 C 269.962 -1.7927 -1.48206 0
M  V30 2212 C 270.956 -0.661195 -1.55963 0
M  V30 2213 O 272.162 -0.843908 -1.58991 0
M  V30 2214 H 268.537 -0.567425 -0.493491 0
M  V30 2215 H 270.508 -2.71753 -1.2326 0
M  V30 2216 C 269.257 -1.98894 -2.85196 0
M  V30 2217 H 268.58 -2.85395 -2.79981 0
M  V30 2218 H 270.02 -2.21249 -3.61698 0
M  V30 2219 C 268.479 -0.764691 -3.28107 0
M  V30 2220 O 269.009 0.0523226 -4.01666 0
M  V30 2221 N 267.215 -0.591493 -2.84517 0
M  V30 2222 H 266.762 -1.25749 -2.24822 0
M  V30 2223 H 266.72 0.226253 -3.13585 0
M  V30 2224 N 270.492 0.636531 -1.44174 0
M  V30 2225 C 271.439 1.74875 -1.50624 0
M  V30 2226 C 272.409 1.62275 -0.35442 0
M  V30 2227 O 273.594 1.82276 -0.563908 0
M  V30 2228 C 270.734 3.13102 -1.45125 0
M  V30 2229 C 269.847 3.36717 -2.7064 0
M  V30 2230 C 268.982 4.64885 -2.57013 0
M  V30 2231 C 268.021 4.8166 -3.77717 0
M  V30 2232 N 267.158 6.01101 -3.62798 0
M  V30 2233 H 271.998 1.68697 -2.45653 0
M  V30 2234 H 269.535 0.823004 -1.21922 0
M  V30 2235 H 271.493 3.93034 -1.39929 0
M  V30 2236 H 270.123 3.18308 -0.536671 0
M  V30 2237 H 269.175 2.50763 -2.86046 0
M  V30 2238 H 270.487 3.44993 -3.60252 0
M  V30 2239 H 269.641 5.52969 -2.49619 0
M  V30 2240 H 268.38 4.58957 -1.64953 0
M  V30 2241 H 267.385 3.92007 -3.85501 0
M  V30 2242 H 268.61 4.89406 -4.70807 0
M  V30 2243 H 266.556 5.96273 -2.73486 0
M  V30 2244 H 266.473 6.10409 -4.46023 0
M  V30 2245 H 267.741 6.91761 -3.59286 0
M  V30 2246 N 271.97 1.30982 0.876444 0
M  V30 2247 C 273.219 1.19658 1.62373 0
M  V30 2248 C 273.532 -0.245636 1.94052 0
M  V30 2249 O 274.738 -0.48049 2.67214 0
M  V30 2250 C 273.194 2.09433 2.92687 0
M  V30 2251 C 272.802 3.58613 2.68516 0
M  V30 2252 C 274.546 2.06893 3.70669 0
M  V30 2253 C 272.453 4.40416 3.94699 0
M  V30 2254 H 271.383 0.444268 0.609214 0
M  V30 2255 H 274.034 1.55791 0.969605 0
M  V30 2256 H 272.416 1.66191 3.59439 0
M  V30 2257 H 273.59 4.10058 2.10212 0
M  V30 2258 H 271.905 3.63063 2.03898 0
M  V30 2259 H 274.502 2.65258 4.64265 0
M  V30 2260 H 274.845 1.05448 4.02724 0
M  V30 2261 H 275.378 2.48301 3.10792 0
M  V30 2262 H 272.117 5.42591 3.67798 0
M  V30 2263 H 271.637 3.93731 4.52477 0
M  V30 2264 H 273.316 4.52294 4.62644 0
M  V30 2265 N 273.449 -1.08991 1.13837 0
M  V30 2266 C 274.381 -2.15606 0.777612 0
M  V30 2267 C 275.394 -1.61533 -0.202739 0
M  V30 2268 O 276.583 -1.78491 0.0181055 0
M  V30 2269 C 273.683 -3.3864 0.132623 0
M  V30 2270 C 272.856 -4.22115 1.1462 0
M  V30 2271 C 271.915 -5.23564 0.526074 0
M  V30 2272 O 270.941 -5.56678 1.18735 0
M  V30 2273 N 272.143 -5.76266 -0.699866 0
M  V30 2274 H 274.908 -2.47159 1.69506 0
M  V30 2275 H 272.469 -1.24747 1.03198 0
M  V30 2276 H 274.461 -4.03626 -0.29459 0
M  V30 2277 H 273.031 -3.04938 -0.687849 0
M  V30 2278 H 272.251 -3.53199 1.75055 0
M  V30 2279 H 273.539 -4.74709 1.83109 0
M  V30 2280 H 272.937 -5.51585 -1.25581 0
M  V30 2281 H 271.494 -6.42963 -1.06968 0
M  V30 2282 N 274.927 -0.932562 -1.27047 0
M  V30 2283 C 276.204 -0.49377 -1.89265 0
M  V30 2284 C 276.584 1.02833 -1.8436 0
M  V30 2285 O 275.932 1.88461 -1.29209 0
M  V30 2286 C 276.142 -1.04536 -3.32976 0
M  V30 2287 C 277.49 -1.10879 -4.09867 0
M  V30 2288 O 278.514 -0.995327 -3.42011 0
M  V30 2289 O 277.373 -1.28417 -5.31198 0
M  V30 2290 H 274.467 -0.159596 -0.811454 0
M  V30 2291 H 277.013 -1.02457 -1.3528 0
M  V30 2292 H 275.785 -2.08913 -3.30864 0
M  V30 2293 H 275.408 -0.496494 -3.94488 0
M  V30 2294 N 276.405 1.4127 -0.698611 0
M  V30 2295 C 277.651 2.01979 -0.239972 0
M  V30 2296 C 278.006 1.54353 1.14861 0
M  V30 2297 O 277.299 0.746218 1.76471 0
M  V30 2298 C 277.493 3.56592 -0.240192 0
M  V30 2299 C 277.322 4.19226 -1.62726 0
M  V30 2300 C 276.092 4.53389 -2.23084 0
M  V30 2301 C 278.29 4.45228 -2.57443 0
M  V30 2302 N 276.272 5.01327 -3.54323 0
M  V30 2303 C 277.643 4.94973 -3.73365 0
M  V30 2304 C 279.698 4.27243 -2.55671 0
M  V30 2305 C 278.401 5.28624 -4.878 0
M  V30 2306 C 280.427 4.61985 -3.69221 0
M  V30 2307 C 279.789 5.11904 -4.83873 0
M  V30 2308 H 275.888 0.770561 -0.133269 0
M  V30 2309 H 278.472 1.71767 -0.916748 0
M  V30 2310 H 276.643 3.86271 0.406082 0
M  V30 2311 H 278.375 4.04025 0.23356 0
M  V30 2312 H 275.13 4.39946 -1.75341 0
M  V30 2313 H 275.554 5.29697 -4.21604 0
M  V30 2314 H 280.196 3.87884 -1.68243 0
M  V30 2315 H 277.914 5.66905 -5.75885 0
M  V30 2316 H 281.5 4.49725 -3.69105 0
M  V30 2317 H 280.38 5.38282 -5.70282 0
M  V30 2318 N 277.883 0.443576 1.51229 0
M  V30 2319 C 279.113 -0.119117 2.06256 0
M  V30 2320 C 279.521 -1.36471 1.31043 0
M  V30 2321 O 278.864 -1.80034 0.365151 0
M  V30 2322 C 278.926 -0.500546 3.55998 0
M  V30 2323 C 278.59 0.639125 4.52509 0
M  V30 2324 C 279.587 1.51311 4.97394 0
M  V30 2325 C 277.272 0.821632 4.95535 0
M  V30 2326 C 279.266 2.55425 5.83984 0
M  V30 2327 C 276.953 1.86603 5.81913 0
M  V30 2328 C 277.951 2.73072 6.26036 0
M  V30 2329 O 277.639 3.75718 7.10698 0
M  V30 2330 H 277.371 -0.00857665 0.675946 0
M  V30 2331 H 279.925 0.623288 1.95715 0
M  V30 2332 H 278.155 -1.29575 3.64345 0
M  V30 2333 H 279.844 -0.995116 3.93513 0
M  V30 2334 H 280.61 1.38367 4.64844 0
M  V30 2335 H 276.489 0.158149 4.60729 0
M  V30 2336 H 280.033 3.22949 6.18344 0
M  V30 2337 H 275.93 1.99564 6.13876 0
M  V30 2338 H 276.698 3.72374 7.2889 0
M  V30 2339 N 279.361 -1.56624 0.175154 0
M  V30 2340 C 280.638 -1.88688 -0.515373 0
M  V30 2341 C 281.018 -1.08564 -1.81044 0
M  V30 2342 O 280.366 -0.180703 -2.27784 0
M  V30 2343 C 280.576 -3.40768 -0.753552 0
M  V30 2344 C 281.924 -4.10587 -1.08184 0
M  V30 2345 O 282.948 -3.46106 -0.841961 0
M  V30 2346 O 281.807 -5.24512 -1.53459 0
M  V30 2347 H 278.901 -0.78301 -0.26613 0
M  V30 2348 H 281.447 -1.68347 0.213877 0
M  V30 2349 H 280.219 -3.90965 0.161829 0
M  V30 2350 H 279.842 -3.66733 -1.53598 0
M  V30 2351 N 280.839 0.0985539 -1.57292 0
M  V30 2352 C 281.786 1.11981 -2.01814 0
M  V30 2353 C 282.756 1.39999 -0.89384 0
M  V30 2354 O 283.941 1.5152 -1.15958 0
M  V30 2355 C 281.081 2.43577 -2.44467 0
M  V30 2356 C 280.194 2.2232 -3.70402 0
M  V30 2357 C 279.329 3.4729 -4.01949 0
M  V30 2358 C 278.368 3.2128 -5.21005 0
M  V30 2359 N 277.505 4.38507 -5.48321 0
M  V30 2360 H 282.345 0.733149 -2.88841 0
M  V30 2361 H 279.882 0.350482 -1.42864 0
M  V30 2362 H 281.84 3.20373 -2.6724 0
M  V30 2363 H 280.47 2.80097 -1.60455 0
M  V30 2364 H 279.522 1.36343 -3.55126 0
M  V30 2365 H 280.834 1.99089 -4.57345 0
M  V30 2366 H 279.988 4.32495 -4.25479 0
M  V30 2367 H 278.727 3.73572 -3.13521 0
M  V30 2368 H 277.732 2.34468 -4.97298 0
M  V30 2369 H 278.957 2.96348 -6.11028 0
M  V30 2370 H 276.903 4.64871 -4.62851 0
M  V30 2371 H 276.82 4.18455 -6.29628 0
M  V30 2372 H 278.088 5.24787 -5.76385 0
M  V30 2373 N 282.317 1.53212 0.369288 0
M  V30 2374 C 283.264 1.79388 1.45219 0
M  V30 2375 C 284.234 0.638059 1.53356 0
M  V30 2376 O 285.419 0.879852 1.69302 0
M  V30 2377 C 282.559 1.98623 2.82211 0
M  V30 2378 C 281.672 3.26337 2.8307 0
M  V30 2379 C 280.807 3.35779 4.11614 0
M  V30 2380 C 279.846 4.5754 4.06601 0
M  V30 2381 N 278.983 4.64155 5.26787 0
M  V30 2382 H 283.823 2.71794 1.22198 0
M  V30 2383 H 281.36 1.34642 0.592444 0
M  V30 2384 H 283.318 2.07761 3.61789 0
M  V30 2385 H 281.948 1.09558 3.03639 0
M  V30 2386 H 281 3.26171 1.95747 0
M  V30 2387 H 282.312 4.15988 2.75237 0
M  V30 2388 H 281.466 3.44208 4.99606 0
M  V30 2389 H 280.205 2.44137 4.22195 0
M  V30 2390 H 279.21 4.49215 3.16996 0
M  V30 2391 H 280.435 5.50519 3.97625 0
M  V30 2392 H 278.381 3.75413 5.3796 0
M  V30 2393 H 278.298 5.47706 5.21109 0
M  V30 2394 H 279.566 4.76863 6.16621 0
M  V30 2395 N 283.795 -0.628877 1.44509 0
M  V30 2396 C 285.043 -1.38565 1.4712 0
M  V30 2397 C 285.364 -1.94712 0.105899 0
M  V30 2398 O 284.634 -1.75912 -0.862079 0
M  V30 2399 H 283.214 -0.514333 0.541729 0
M  V30 2400 H 285.876 -0.740018 1.80305 0
M  V30 2401 H 284.972 -2.21583 2.19789 0
M  V30 2402 N 285.273 -1.31445 -0.869486 0
M  V30 2403 C 286.684 -1.19042 -1.43826 0
M  V30 2404 C 287.035 0.202919 -1.95148 0
M  V30 2405 O 286.16 1.10071 -1.86315 0
M  V30 2406 C 286.755 -2.15499 -2.6143 0
M  V30 2407 C 285.314 -2.07028 -3.14351 0
M  V30 2408 C 284.461 -2.04701 -1.87063 0
M  V30 2409 H 287.412 -1.43489 -0.677984 0
M  V30 2410 H 287.433 -1.74488 -3.38134 0
M  V30 2411 H 286.945 -3.16899 -2.24046 0
M  V30 2412 H 285.046 -1.08825 -3.56354 0
M  V30 2413 H 285.159 -2.96157 -3.766 0
M  V30 2414 H 283.523 -1.49724 -2.06046 0
M  V30 2415 H 284.306 -3.07857 -1.51917 0
M  V30 2416 N 286.751 1.08385 -1.14413 0
M  V30 2417 C 287.714 2.13486 -0.834048 0
M  V30 2418 C 288.714 1.59988 0.161418 0
M  V30 2419 O 289.904 1.74071 -0.0669575 0
M  V30 2420 C 287.036 3.4003 -0.243354 0
M  V30 2421 H 288.229 2.42425 -1.7655 0
M  V30 2422 H 285.782 1.24101 -0.950189 0
M  V30 2423 H 286.517 3.16726 0.696807 0
M  V30 2424 H 286.302 3.80157 -0.960367 0
M  V30 2425 H 287.792 4.17577 -0.0436242 0
M  V30 2426 N 288.23 0.939286 1.26551 0
M  V30 2427 C 289.193 0.451987 2.24699 0
M  V30 2428 C 290.193 -0.435869 1.5478 0
M  V30 2429 O 291.383 -0.235314 1.72603 0
M  V30 2430 C 288.515 -0.348801 3.39111 0
M  V30 2431 H 289.708 1.3193 2.69322 0
M  V30 2432 H 287.261 0.721072 1.38673 0
M  V30 2433 H 287.996 -1.23444 2.99887 0
M  V30 2434 H 287.781 0.287945 3.91041 0
M  V30 2435 H 289.271 -0.679726 4.12031 0
M  V30 2436 N 289.708 -1.40897 0.706093 0
M  V30 2437 C 290.957 -2.00284 0.238574 0
M  V30 2438 C 291.27 -1.56604 -1.17194 0
M  V30 2439 O 292.476 -2.08624 -1.73748 0
M  V30 2440 C 290.932 -3.57934 0.375623 0
M  V30 2441 C 290.54 -4.10591 1.79217 0
M  V30 2442 C 292.284 -4.24488 -0.0315857 0
M  V30 2443 C 290.191 -5.60712 1.88032 0
M  V30 2444 H 289.121 -0.749144 0.0854398 0
M  V30 2445 H 291.772 -1.61251 0.875813 0
M  V30 2446 H 290.154 -3.94622 -0.330042 0
M  V30 2447 H 291.328 -3.85301 2.52745 0
M  V30 2448 H 289.643 -3.56601 2.15 0
M  V30 2449 H 292.24 -5.34698 0.0136842 0
M  V30 2450 H 292.583 -4.02261 -1.072 0
M  V30 2451 H 293.116 -3.92873 0.624181 0
M  V30 2452 H 289.855 -5.87781 2.90161 0
M  V30 2453 H 289.375 -5.87896 1.18903 0
M  V30 2454 H 291.054 -6.25658 1.64805 0
M  V30 2455 N 291.186 -0.45159 -1.50991 0
M  V30 2456 C 292.118 0.388634 -2.25881 0
M  V30 2457 C 293.131 0.974041 -1.30446 0
M  V30 2458 O 294.32 0.865758 -1.56099 0
M  V30 2459 C 291.42 1.5571 -3.01011 0
M  V30 2460 C 290.593 1.08801 -4.23652 0
M  V30 2461 C 289.652 2.12825 -4.8124 0
M  V30 2462 O 288.678 1.71678 -5.42693 0
M  V30 2463 N 289.88 3.45453 -4.66522 0
M  V30 2464 H 292.645 -0.25329 -2.98628 0
M  V30 2465 H 290.206 -0.281268 -1.59438 0
M  V30 2466 H 292.198 2.24952 -3.3642 0
M  V30 2467 H 290.768 2.10409 -2.31186 0
M  V30 2468 H 289.988 0.22215 -3.93574 0
M  V30 2469 H 291.276 0.752213 -5.03209 0
M  V30 2470 H 290.674 3.81605 -4.17605 0
M  V30 2471 H 289.231 4.10549 -5.06254 0
M  V30 2472 N 292.664 1.56529 -0.183458 0
M  V30 2473 C 293.611 2.18546 0.742055 0
M  V30 2474 C 294.581 1.12912 1.2182 0
M  V30 2475 O 295.766 1.41115 1.28418 0
M  V30 2476 C 292.906 2.83977 1.96089 0
M  V30 2477 C 292.019 4.04105 1.52719 0
M  V30 2478 C 291.154 4.57427 2.70063 0
M  V30 2479 C 290.193 5.69938 2.23243 0
M  V30 2480 N 289.33 6.17717 3.33722 0
M  V30 2481 H 294.17 2.97284 0.206432 0
M  V30 2482 H 291.707 1.46823 0.0901571 0
M  V30 2483 H 293.665 3.20077 2.67594 0
M  V30 2484 H 292.295 2.07822 2.47002 0
M  V30 2485 H 291.347 3.73745 0.708436 0
M  V30 2486 H 292.659 4.85513 1.1436 0
M  V30 2487 H 291.813 4.95772 3.49708 0
M  V30 2488 H 290.552 3.75101 3.11689 0
M  V30 2489 H 289.557 5.31133 1.42048 0
M  V30 2490 H 290.782 6.54073 1.82661 0
M  V30 2491 H 288.728 5.38317 3.74902 0
M  V30 2492 H 288.645 6.94146 2.99495 0
M  V30 2493 H 289.913 6.60713 4.13616 0
M  V30 2494 N 294.142 -0.090211 1.57342 0
M  V30 2495 C 295.09 -1.12792 2.03422 0
M  V30 2496 C 296.084 -1.41182 0.936166 0
M  V30 2497 O 297.29 -1.40805 1.12133 0
M  V30 2498 H 293.665 -0.380986 0.648347 0
M  V30 2499 H 295.636 -0.71299 2.89757 0
M  V30 2500 C 294.385 -2.43855 2.47851 0
M  V30 2501 H 293.708 -2.22855 3.31927 0
M  V30 2502 H 295.148 -3.14955 2.83865 0
M  V30 2503 C 293.607 -3.08503 1.3538 0
M  V30 2504 O 294.137 -3.95805 0.685641 0
M  V30 2505 N 292.343 -2.68831 1.10355 0
M  V30 2506 H 291.89 -1.97929 1.64869 0
M  V30 2507 H 291.848 -3.12412 0.353031 0
M  V30 2508 N 295.62 -1.53406 -0.361157 0
M  V30 2509 C 296.85 -1.73465 -1.1222 0
M  V30 2510 C 297.258 -0.465486 -1.83384 0
M  V30 2511 O 296.601 0.571611 -1.7458 0
M  V30 2512 C 296.663 -2.84834 -2.19339 0
M  V30 2513 C 296.327 -4.25038 -1.67903 0
M  V30 2514 C 297.324 -5.07231 -1.14074 0
M  V30 2515 C 295.009 -4.71464 -1.73282 0
M  V30 2516 C 297.003 -6.33942 -0.663068 0
M  V30 2517 C 294.69 -5.98153 -1.25127 0
M  V30 2518 C 295.688 -6.79223 -0.717296 0
M  V30 2519 O 295.376 -8.03533 -0.242865 0
M  V30 2520 H 295.108 -0.583526 -0.341283 0
M  V30 2521 H 297.662 -2.00964 -0.424591 0
M  V30 2522 H 295.892 -2.5282 -2.92607 0
M  V30 2523 H 297.581 -2.9303 -2.80871 0
M  V30 2524 H 298.347 -4.72534 -1.09254 0
M  V30 2525 H 294.226 -4.08432 -2.13786 0
M  V30 2526 H 297.77 -6.97167 -0.245612 0
M  V30 2527 H 293.667 -6.32347 -1.29642 0
M  V30 2528 H 294.435 -8.177 -0.361786 0
M  V30 2529 N 297.098 0.621204 -1.44841 0
M  V30 2530 C 298.323 1.41244 -1.51871 0
M  V30 2531 C 298.748 1.87519 -0.147764 0
M  V30 2532 O 298.106 1.59334 0.865 0
M  V30 2533 C 298.154 2.60221 -2.49634 0
M  V30 2534 O 297.258 3.60395 -2.00473 0
M  V30 2535 H 296.599 0.42223 -0.512463 0
M  V30 2536 H 299.129 0.757305 -1.90069 0
M  V30 2537 H 299.139 3.0764 -2.67996 0
M  V30 2538 H 297.814 2.25887 -3.4921 0
M  V30 2539 H 296.391 3.19717 -1.91925 0
M  V30 2540 N 298.576 1.31904 0.862503 0
M  V30 2541 C 299.987 1.19803 1.43193 0
M  V30 2542 C 300.338 -0.192567 1.95253 0
M  V30 2543 O 299.463 -1.09081 1.86896 0
M  V30 2544 C 300.058 2.16883 2.60283 0
M  V30 2545 C 298.617 2.08692 3.13248 0
M  V30 2546 C 297.764 2.05691 1.85975 0
M  V30 2547 H 300.715 1.43846 0.670365 0
M  V30 2548 H 300.736 1.76278 3.37204 0
M  V30 2549 H 300.248 3.18083 2.22363 0
M  V30 2550 H 298.349 1.10713 3.55771 0
M  V30 2551 H 298.462 2.9815 3.75025 0
M  V30 2552 H 296.826 1.50814 2.05249 0
M  V30 2553 H 297.609 3.08659 1.50282 0
M  V30 2554 N 300.054 -1.07777 1.14986 0
M  V30 2555 C 301.284 -1.83752 0.944402 0
M  V30 2556 C 301.692 -1.8218 -0.51058 0
M  V30 2557 O 301.035 -1.22852 -1.36576 0
M  V30 2558 C 301.097 -3.32128 1.37592 0
M  V30 2559 C 300.761 -3.57425 2.84775 0
M  V30 2560 C 301.758 -3.5173 3.8286 0
M  V30 2561 C 299.443 -3.8523 3.2234 0
M  V30 2562 C 301.437 -3.73482 5.16517 0
M  V30 2563 C 299.124 -4.06634 4.56171 0
M  V30 2564 C 300.122 -4.00754 5.53069 0
M  V30 2565 O 299.81 -4.2159 6.84483 0
M  V30 2566 H 299.542 -0.58673 0.335744 0
M  V30 2567 H 302.096 -1.36982 1.53052 0
M  V30 2568 H 300.326 -3.79686 0.733165 0
M  V30 2569 H 302.015 -3.89555 1.14024 0
M  V30 2570 H 302.781 -3.30256 3.55184 0
M  V30 2571 H 298.66 -3.88923 2.47508 0
M  V30 2572 H 302.204 -3.68808 5.92137 0
M  V30 2573 H 298.101 -4.27593 4.83564 0
M  V30 2574 H 298.869 -4.38961 6.90837 0
M  V30 2575 N 301.532 -0.945985 -1.26051 0
M  V30 2576 C 302.762 -0.612136 -1.97323 0
M  V30 2577 C 303.17 0.818171 -1.70595 0
M  V30 2578 O 302.513 1.55777 -0.973613 0
M  V30 2579 C 302.575 -0.780347 -3.50929 0
M  V30 2580 C 302.239 -2.18619 -4.01317 0
M  V30 2581 C 303.236 -3.16209 -4.12683 0
M  V30 2582 C 300.921 -2.50805 -4.35203 0
M  V30 2583 C 302.915 -4.44085 -4.57238 0
M  V30 2584 C 300.602 -3.78912 -4.79446 0
M  V30 2585 C 301.6 -4.75365 -4.90425 0
M  V30 2586 O 301.288 -6.01191 -5.3369 0
M  V30 2587 H 301.02 -0.229134 -0.635982 0
M  V30 2588 H 303.574 -1.27036 -1.61404 0
M  V30 2589 H 301.804 -0.0649864 -3.86645 0
M  V30 2590 H 303.493 -0.448842 -4.03411 0
M  V30 2591 H 304.259 -2.92668 -3.86744 0
M  V30 2592 H 300.138 -1.76463 -4.2589 0
M  V30 2593 H 303.682 -5.19373 -4.65723 0
M  V30 2594 H 299.579 -4.02265 -5.0483 0
M  V30 2595 H 300.347 -6.04442 -5.51899 0
M  V30 2596 N 303.011 1.40521 -0.713556 0
M  V30 2597 C 303.959 2.32549 -0.0485227 0
M  V30 2598 C 304.953 1.51931 0.74922 0
M  V30 2599 O 306.159 1.67745 0.652816 0
M  V30 2600 H 302.534 0.751994 0.00311138 0
M  V30 2601 H 304.505 2.86291 -0.841443 0
M  V30 2602 C 303.254 3.36879 0.860687 0
M  V30 2603 H 302.577 3.98978 0.256246 0
M  V30 2604 H 304.017 4.03772 1.294 0
M  V30 2605 C 302.476 2.72197 1.9852 0
M  V30 2606 O 303.006 2.5837 3.07584 0
M  V30 2607 N 301.212 2.30612 1.76823 0
M  V30 2608 H 300.759 2.42059 0.881217 0
M  V30 2609 H 300.717 1.87672 2.52243 0
M  V30 2610 N 304.489 0.459591 1.5075 0
M  V30 2611 C 305.717 -0.0973749 2.06671 0
M  V30 2612 C 306.132 -1.34524 1.32472 0
M  V30 2613 O 305.489 -1.7827 0.390634 0
M  V30 2614 C 305.54 -0.39714 3.59312 0
M  V30 2615 O 305.261 0.801214 4.30711 0
M  V30 2616 C 306.762 -1.00234 4.31819 0
M  V30 2617 H 303.982 0.00195854 0.670997 0
M  V30 2618 H 306.526 0.645072 1.94059 0
M  V30 2619 H 304.681 -1.08951 3.71764 0
M  V30 2620 H 305.095 0.538857 5.21725 0
M  V30 2621 H 306.569 -1.16193 5.39632 0
M  V30 2622 H 307.046 -1.98939 3.91561 0
M  V30 2623 H 307.652 -0.348699 4.23868 0
M  V30 2624 N 305.967 -1.56429 0.191757 0
M  V30 2625 C 307.216 -1.9666 -0.448088 0
M  V30 2626 C 307.529 -1.08136 -1.62991 0
M  V30 2627 O 308.735 -1.38135 -2.33733 0
M  V30 2628 C 307.191 -3.49753 -0.848585 0
M  V30 2629 C 306.799 -4.46935 0.308764 0
M  V30 2630 C 308.543 -3.9876 -1.4557 0
M  V30 2631 C 306.45 -5.91293 -0.112506 0
M  V30 2632 H 305.38 -0.734312 -0.171179 0
M  V30 2633 H 308.031 -1.81301 0.283242 0
M  V30 2634 H 306.413 -3.60604 -1.63649 0
M  V30 2635 H 307.587 -4.47813 1.08627 0
M  V30 2636 H 305.902 -4.08102 0.827158 0
M  V30 2637 H 308.499 -5.04086 -1.78328 0
M  V30 2638 H 308.842 -3.42875 -2.36099 0
M  V30 2639 H 309.375 -3.9101 -0.731836 0
M  V30 2640 H 306.114 -6.51097 0.758514 0
M  V30 2641 H 305.634 -5.93676 -0.854941 0
M  V30 2642 H 307.313 -6.44663 -0.549448 0
M  V30 2643 N 307.445 0.0818655 -1.57387 0
M  V30 2644 C 308.722 0.815343 -1.77796 0
M  V30 2645 C 309.102 1.96289 -0.77679 0
M  V30 2646 O 308.45 2.27691 0.192106 0
M  V30 2647 C 308.66 1.29765 -3.23978 0
M  V30 2648 C 310.008 1.7351 -3.8753 0
M  V30 2649 O 311.032 1.39356 -3.27808 0
M  V30 2650 O 309.891 2.36708 -4.92576 0
M  V30 2651 H 306.985 0.389914 -0.729312 0
M  V30 2652 H 309.531 0.0627213 -1.69584 0
M  V30 2653 H 308.303 0.47608 -3.88393 0
M  V30 2654 H 307.926 2.11189 -3.36875 0
M  V30 2655 N 308.923 1.53595 0.353017 0
M  V30 2656 C 310.2 1.61002 1.11075 0
M  V30 2657 C 310.58 0.425356 2.0677 0
M  V30 2658 O 309.928 -0.583267 2.2093 0
M  V30 2659 C 310.138 2.96631 1.83877 0
M  V30 2660 C 311.486 3.51653 2.37961 0
M  V30 2661 O 312.51 2.98743 1.93987 0
M  V30 2662 O 311.369 4.44177 3.18386 0
M  V30 2663 H 308.463 0.650825 0.510251 0
M  V30 2664 H 311.009 1.6594 0.35527 0
M  V30 2665 H 309.781 3.74293 1.14108 0
M  V30 2666 H 309.404 2.95242 2.66304 0
M  V30 2667 N 310.401 -0.613514 1.45168 0
M  V30 2668 C 311.331 -1.7354 1.56225 0
M  V30 2669 C 312.312 -1.64981 0.41414 0
M  V30 2670 O 313.497 -1.83472 0.636526 0
M  V30 2671 C 310.627 -3.12128 1.52295 0
M  V30 2672 C 309.581 -3.35491 2.65762 0
M  V30 2673 C 308.907 -4.74291 2.46885 0
M  V30 2674 C 310.207 -3.26325 4.0781 0
M  V30 2675 H 311.901 -1.64543 2.50132 0
M  V30 2676 H 309.447 -0.790185 1.20383 0
M  V30 2677 H 311.4 -3.90404 1.58628 0
M  V30 2678 H 310.124 -3.2195 0.549139 0
M  V30 2679 H 308.783 -2.59603 2.58847 0
M  V30 2680 H 308.431 -4.80839 1.47657 0
M  V30 2681 H 308.131 -4.9088 3.22972 0
M  V30 2682 H 309.655 -5.54775 2.55063 0
M  V30 2683 H 311.069 -3.94483 4.16 0
M  V30 2684 H 309.466 -3.54445 4.8424 0
M  V30 2685 H 310.536 -2.23855 4.30136 0
M  V30 2686 N 311.879 -1.3236 -0.855495 0
M  V30 2687 C 312.826 -1.21225 -1.964 0
M  V30 2688 C 313.796 -0.0946204 -1.6583 0
M  V30 2689 O 314.981 -0.27002 -1.8888 0
M  V30 2690 C 312.121 -0.940419 -3.32039 0
M  V30 2691 C 311.234 -2.14276 -3.75113 0
M  V30 2692 C 310.369 -1.80648 -4.9954 0
M  V30 2693 C 309.408 -2.97208 -5.35102 0
M  V30 2694 N 308.545 -2.63678 -6.50706 0
M  V30 2695 H 313.385 -2.16042 -2.05255 0
M  V30 2696 H 310.922 -1.07451 -1.00463 0
M  V30 2697 H 312.88 -0.763311 -4.10158 0
M  V30 2698 H 311.51 -0.0290413 -3.22787 0
M  V30 2699 H 310.562 -2.43017 -2.92655 0
M  V30 2700 H 311.874 -3.01468 -3.97389 0
M  V30 2701 H 311.028 -1.59484 -5.85363 0
M  V30 2702 H 309.767 -0.906678 -4.79198 0
M  V30 2703 H 308.772 -3.19004 -4.47791 0
M  V30 2704 H 309.997 -3.87918 -5.57401 0
M  V30 2705 H 307.943 -1.76238 -6.31883 0
M  V30 2706 H 307.86 -3.444 -6.72997 0
M  V30 2707 H 309.128 -2.45942 -7.39684 0
M  V30 2708 N 313.357 1.07166 -1.15556 0
M  V30 2709 C 314.634 1.76546 -0.842069 0
M  V30 2710 C 315.014 2.00453 0.661939 0
M  V30 2711 O 314.362 1.62452 1.60691 0
M  V30 2712 C 314.572 3.07266 -1.65495 0
M  V30 2713 C 315.92 3.81578 -1.86234 0
M  V30 2714 O 316.944 3.17083 -1.62287 0
M  V30 2715 O 315.803 4.97419 -2.26355 0
M  V30 2716 H 312.897 0.766756 -0.309862 0
M  V30 2717 H 315.443 1.13514 -1.26145 0
M  V30 2718 H 314.215 2.85494 -2.67598 0
M  V30 2719 H 313.838 3.7803 -1.23203 0
M  V30 2720 N 314.835 0.952656 1.25548 0
M  V30 2721 C 315.767 0.428609 2.25157 0
M  V30 2722 C 316.78 -0.454428 1.56329 0
M  V30 2723 O 317.969 -0.263023 1.76552 0
M  V30 2724 C 315.069 -0.401972 3.36508 0
M  V30 2725 C 314.242 0.467601 4.34893 0
M  V30 2726 C 313.301 -0.30445 5.25319 0
M  V30 2727 O 312.327 0.296473 5.68427 0
M  V30 2728 N 313.529 -1.59805 5.5807 0
M  V30 2729 H 316.294 1.28497 2.70756 0
M  V30 2730 H 313.855 0.822798 1.39433 0
M  V30 2731 H 315.847 -0.926134 3.9396 0
M  V30 2732 H 314.417 -1.15918 2.90313 0
M  V30 2733 H 313.637 1.17288 3.76347 0
M  V30 2734 H 314.925 1.06119 4.97611 0
M  V30 2735 H 314.323 -2.10823 5.24948 0
M  V30 2736 H 312.88 -2.06822 6.18116 0
M  V30 2737 N 316.313 -1.40141 0.720998 0
M  V30 2738 C 317.562 -2.0002 0.259804 0
M  V30 2739 C 317.875 -1.57839 -1.15526 0
M  V30 2740 O 319.081 -2.10455 -1.71525 0
M  V30 2741 C 317.537 -3.57516 0.413566 0
M  V30 2742 C 317.145 -4.08667 1.83562 0
M  V30 2743 C 318.889 -4.24498 0.0134387 0
M  V30 2744 C 316.796 -5.58686 1.93968 0
M  V30 2745 H 315.726 -0.748195 0.0933806 0
M  V30 2746 H 318.377 -1.60313 0.892866 0
M  V30 2747 H 316.759 -3.9495 -0.288169 0
M  V30 2748 H 317.933 -3.82598 2.56817 0
M  V30 2749 H 316.248 -3.543 2.1877 0
M  V30 2750 H 318.845 -5.34654 0.0703954 0
M  V30 2751 H 319.188 -4.03375 -1.02927 0
M  V30 2752 H 319.721 -3.92188 0.665815 0
M  V30 2753 H 316.46 -5.8467 2.96379 0
M  V30 2754 H 315.98 -5.86602 1.25131 0
M  V30 2755 H 317.659 -6.23875 1.71431 0
M  V30 2756 N 317.792 -0.46758 -1.50504 0
M  V30 2757 C 319.038 0.0887532 -2.02606 0
M  V30 2758 C 319.371 1.39686 -1.34913 0
M  V30 2759 O 318.646 1.88644 -0.473694 0
M  V30 2760 C 318.929 0.276206 -3.59039 0
M  V30 2761 C 318.782 -1.05267 -4.37309 0
M  V30 2762 C 320.101 1.03235 -4.27821 0
M  V30 2763 H 317.22 0.0307814 -0.736357 0
M  V30 2764 H 319.862 -0.612485 -1.79857 0
M  V30 2765 H 318.012 0.8735 -3.78553 0
M  V30 2766 H 319.684 -1.68628 -4.29374 0
M  V30 2767 H 317.927 -1.65015 -4.01189 0
M  V30 2768 H 318.598 -0.875197 -5.45018 0
M  V30 2769 H 321.074 0.526111 -4.12761 0
M  V30 2770 H 319.95 1.1323 -5.37094 0
M  V30 2771 H 320.211 2.06806 -3.90748 0
M  V30 2772 N 319.27 1.56325 -0.20005 0
M  V30 2773 C 320.547 1.89484 0.48529 0
M  V30 2774 C 320.927 1.1143 1.79294 0
M  V30 2775 O 320.275 0.216919 2.27468 0
M  V30 2776 C 320.485 3.41923 0.699243 0
M  V30 2777 C 321.833 4.12256 1.01638 0
M  V30 2778 O 322.857 3.47402 0.786792 0
M  V30 2779 O 321.716 5.26887 1.45095 0
M  V30 2780 H 318.81 0.787144 0.253639 0
M  V30 2781 H 321.356 1.67985 -0.240633 0
M  V30 2782 H 320.128 3.90658 -0.224008 0
M  V30 2783 H 319.751 3.69131 1.47744 0
M  V30 2784 N 320.748 -0.0735177 1.57428 0
M  V30 2785 C 321.678 -1.0879 2.06608 0
M  V30 2786 C 322.659 -1.40473 0.959237 0
M  V30 2787 O 323.844 -1.5013 1.23185 0
M  V30 2788 C 320.974 -2.40183 2.50857 0
M  V30 2789 C 319.928 -2.22858 3.65402 0
M  V30 2790 C 319.254 -3.59619 3.957 0
M  V30 2791 C 320.554 -1.65123 4.95511 0
M  V30 2792 H 322.248 -0.678673 2.91607 0
M  V30 2793 H 319.794 -0.325013 1.40284 0
M  V30 2794 H 321.747 -3.11437 2.83874 0
M  V30 2795 H 320.471 -2.83083 1.62885 0
M  V30 2796 H 319.13 -1.54045 3.32664 0
M  V30 2797 H 318.778 -4.00086 3.04861 0
M  V30 2798 H 318.478 -3.48866 4.72828 0
M  V30 2799 H 320.002 -4.32306 4.31212 0
M  V30 2800 H 321.416 -2.26241 5.26771 0
M  V30 2801 H 319.813 -1.65071 5.7695 0
M  V30 2802 H 320.883 -0.612559 4.81015 0
M  V30 2803 N 322.226 -1.5378 -0.344866 0
M  V30 2804 C 323.454 -1.74899 -1.10534 0
M  V30 2805 C 323.869 -0.487534 -1.82397 0
M  V30 2806 O 323.226 0.540741 -1.74305 0
M  V30 2807 C 323.277 -2.92822 -2.11984 0
M  V30 2808 O 322.998 -4.14089 -1.43044 0
M  V30 2809 C 324.499 -3.25982 -3.00417 0
M  V30 2810 H 321.719 -0.584426 -0.329678 0
M  V30 2811 H 324.263 -2.006 -0.397474 0
M  V30 2812 H 322.418 -2.69457 -2.78338 0
M  V30 2813 H 322.832 -4.80272 -2.10805 0
M  V30 2814 H 324.306 -4.11848 -3.67539 0
M  V30 2815 H 324.783 -2.42228 -3.66363 0
M  V30 2816 H 325.389 -3.51349 -2.39654 0
M  V30 2817 N 323.704 0.605807 -1.45491 0
M  V30 2818 C 324.95 1.36679 -1.49823 0
M  V30 2819 C 325.283 1.93693 -0.140175 0
M  V30 2820 O 324.558 1.75158 0.845581 0
M  V30 2821 C 324.841 2.51337 -2.57879 0
M  V30 2822 C 324.694 1.99508 -4.03134 0
M  V30 2823 C 326.013 3.53463 -2.62205 0
M  V30 2824 H 323.132 0.495617 -0.545466 0
M  V30 2825 H 325.774 0.682732 -1.7731 0
M  V30 2826 H 323.924 3.09691 -2.34571 0
M  V30 2827 H 325.596 1.45789 -4.37656 0
M  V30 2828 H 323.839 1.30496 -4.13707 0
M  V30 2829 H 324.51 2.82169 -4.74431 0
M  V30 2830 H 326.986 3.04953 -2.83095 0
M  V30 2831 H 325.862 4.31178 -3.39672 0
M  V30 2832 H 326.123 4.09197 -1.67363 0
M  V30 2833 N 325.182 1.32811 0.848464 0
M  V30 2834 C 326.43 1.23479 1.59991 0
M  V30 2835 C 326.751 -0.201853 1.93952 0
M  V30 2836 O 326.021 -1.12818 1.60153 0
M  V30 2837 H 324.601 0.454034 0.593179 0
M  V30 2838 H 327.263 1.66412 1.01455 0
M  V30 2839 H 326.359 1.82178 2.53412 0
M  V30 2840 N 326.66 -1.06551 1.16123 0
M  V30 2841 C 327.608 -2.16063 0.861371 0
M  V30 2842 C 328.602 -1.6856 -0.168517 0
M  V30 2843 O 329.808 -1.79986 -0.0227579 0
M  V30 2844 H 326.183 -0.705278 0.260934 0
M  V30 2845 H 328.154 -2.38567 1.79244 0
M  V30 2846 C 326.903 -3.45661 0.376018 0
M  V30 2847 H 326.226 -3.82604 1.15992 0
M  V30 2848 H 327.666 -4.23504 0.204951 0
M  V30 2849 C 326.125 -3.24546 -0.903954 0
M  V30 2850 O 326.655 -3.49865 -1.97377 0
M  V30 2851 N 324.861 -2.77992 -0.846679 0
M  V30 2852 H 324.408 -2.57589 0.0241017 0
M  V30 2853 H 324.366 -2.64244 -1.70359 0
M  V30 2854 N 328.138 -0.959301 -1.25041 0
M  V30 2855 C 329.086 -0.474437 -2.2771 0
M  V30 2856 C 330.08 0.457697 -1.631 0
M  V30 2857 O 331.286 0.333912 -1.76876 0
M  V30 2858 H 327.661 -0.134936 -0.739795 0
M  V30 2859 H 329.632 -1.35251 -2.65988 0
M  V30 2860 C 328.381 0.227884 -3.46952 0
M  V30 2861 H 327.704 -0.480248 -3.96905 0
M  V30 2862 H 329.144 0.531091 -4.20661 0
M  V30 2863 C 327.603 1.452 -3.04004 0
M  V30 2864 O 328.133 2.54949 -3.10426 0
M  V30 2865 N 326.339 1.31502 -2.59144 0
M  V30 2866 H 325.886 0.422065 -2.54119 0
M  V30 2867 H 325.844 2.13521 -2.30773 0
M  V30 2868 N 329.616 1.39756 -0.72842 0
M  V30 2869 C 330.563 2.30647 -0.0841519 0
M  V30 2870 C 331.533 1.48869 0.7367 0
M  V30 2871 O 332.718 1.77574 0.698015 0
M  V30 2872 C 329.858 3.35165 0.822091 0
M  V30 2873 C 328.971 4.31999 -0.0106663 0
M  V30 2874 C 328.106 5.23585 0.896241 0
M  V30 2875 C 327.145 6.12072 0.0583381 0
M  V30 2876 N 326.282 6.96035 0.920818 0
M  V30 2877 H 331.122 2.85173 -0.864891 0
M  V30 2878 H 328.659 1.40422 -0.438179 0
M  V30 2879 H 330.617 3.94345 1.36189 0
M  V30 2880 H 329.247 2.8211 1.56888 0
M  V30 2881 H 328.299 3.74492 -0.66781 0
M  V30 2882 H 329.611 4.9443 -0.658825 0
M  V30 2883 H 328.765 5.87759 1.50412 0
M  V30 2884 H 327.504 4.61459 1.57819 0
M  V30 2885 H 326.509 5.46916 -0.562389 0
M  V30 2886 H 327.734 6.76261 -0.6203 0
M  V30 2887 H 325.68 6.36485 1.58818 0
M  V30 2888 H 325.597 7.55284 0.32899 0
M  V30 2889 H 326.865 7.64646 1.51447 0
M  V30 2890 N 331.094 0.475555 1.50254 0
M  V30 2891 C 332.322 -0.0754493 2.06762 0
M  V30 2892 C 332.737 -1.33111 1.33891 0
M  V30 2893 O 332.094 -1.77846 0.40952 0
M  V30 2894 C 332.145 -0.359008 3.59713 0
M  V30 2895 O 331.866 0.846851 4.29837 0
M  V30 2896 C 333.367 -0.956484 4.32858 0
M  V30 2897 H 330.587 0.00907525 0.670939 0
M  V30 2898 H 333.131 0.665618 1.93364 0
M  V30 2899 H 331.286 -1.05001 3.72899 0
M  V30 2900 H 331.7 0.594162 5.21124 0
M  V30 2901 H 333.174 -1.10463 5.40834 0
M  V30 2902 H 333.651 -1.94775 3.93649 0
M  V30 2903 H 334.257 -0.303723 4.24214 0
M  V30 2904 N 332.573 -1.56217 0.208337 0
M  V30 2905 C 333.503 -2.22694 -0.702116 0
M  V30 2906 C 334.484 -1.19432 -1.2112 0
M  V30 2907 O 335.669 -1.47978 -1.25762 0
M  V30 2908 C 332.799 -2.8966 -1.9161 0
M  V30 2909 C 331.753 -3.9928 -1.5414 0
M  V30 2910 C 331.079 -4.53476 -2.83308 0
M  V30 2911 C 332.379 -5.17012 -0.741339 0
M  V30 2912 H 334.073 -2.99034 -0.147898 0
M  V30 2913 H 331.619 -1.43831 -0.0696951 0
M  V30 2914 H 333.572 -3.34852 -2.55836 0
M  V30 2915 H 332.296 -2.10746 -2.49507 0
M  V30 2916 H 330.955 -3.54799 -0.922668 0
M  V30 2917 H 330.603 -3.71308 -3.39322 0
M  V30 2918 H 330.303 -5.27451 -2.58976 0
M  V30 2919 H 331.827 -5.01378 -3.485 0
M  V30 2920 H 333.241 -5.58667 -1.28699 0
M  V30 2921 H 331.638 -5.97137 -0.595627 0
M  V30 2922 H 332.708 -4.8423 0.254851 0
M  V30 2923 N 334.051 0.0651679 -1.57465 0
M  V30 2924 C 334.981 1.07693 -2.07182 0
M  V30 2925 C 335.962 1.39962 -0.966673 0
M  V30 2926 O 337.147 1.49475 -1.2398 0
M  V30 2927 C 334.277 2.3885 -2.52127 0
M  V30 2928 C 333.231 2.20917 -3.66579 0
M  V30 2929 C 332.557 3.57515 -3.97601 0
M  V30 2930 C 333.857 1.62493 -4.9638 0
M  V30 2931 H 335.551 0.663199 -2.91962 0
M  V30 2932 H 333.097 0.317569 -1.40455 0
M  V30 2933 H 335.05 3.09928 -2.85522 0
M  V30 2934 H 333.774 2.82215 -1.64384 0
M  V30 2935 H 332.433 1.52279 -3.33477 0
M  V30 2936 H 332.081 3.98463 -3.06979 0
M  V30 2937 H 331.781 3.46353 -4.74672 0
M  V30 2938 H 333.305 4.30013 -4.33499 0
M  V30 2939 H 334.719 2.23445 -5.27963 0
M  V30 2940 H 333.116 1.62009 -5.77818 0
M  V30 2941 H 334.186 0.587041 -4.81333 0
M  V30 2942 N 335.529 1.53961 0.336706 0
M  V30 2943 C 336.806 1.62171 1.09361 0
M  V30 2944 C 337.186 0.447263 2.06307 0
M  V30 2945 O 336.534 -0.559802 2.21537 0
M  V30 2946 C 336.744 2.98565 1.80721 0
M  V30 2947 C 338.092 3.54157 2.34218 0
M  V30 2948 O 339.116 3.00784 1.90807 0
M  V30 2949 O 337.975 4.47528 3.13657 0
M  V30 2950 H 335.069 0.6562 0.503319 0
M  V30 2951 H 337.615 1.66307 0.33765 0
M  V30 2952 H 336.387 3.75482 1.10132 0
M  V30 2953 H 336.01 2.9805 2.63158 0
M  V30 2954 N 337.007 -0.598083 1.45811 0
M  V30 2955 C 338.256 -1.35295 1.49594 0
M  V30 2956 C 338.569 -1.95057 0.145679 0
M  V30 2957 O 339.775 -2.71431 0.0612099 0
M  V30 2958 C 338.231 -2.45124 2.63519 0
M  V30 2959 C 337.839 -1.91732 4.04899 0
M  V30 2960 C 339.583 -3.2205 2.76558 0
M  V30 2961 C 337.49 -2.991 5.1019 0
M  V30 2962 H 336.42 -0.508552 0.556679 0
M  V30 2963 H 339.071 -0.639977 1.71978 0
M  V30 2964 H 337.453 -3.19149 2.34435 0
M  V30 2965 H 338.627 -1.24352 4.43704 0
M  V30 2966 H 336.942 -1.27522 3.96393 0
M  V30 2967 H 339.539 -4.0215 3.52391 0
M  V30 2968 H 339.882 -3.73663 1.83526 0
M  V30 2969 H 340.415 -2.55127 3.05213 0
M  V30 2970 H 337.154 -2.52393 6.04961 0
M  V30 2971 H 336.674 -3.65017 4.75944 0
M  V30 2972 H 338.353 -3.63318 5.35359 0
M  V30 2973 N 338.485 -1.33259 -0.841409 0
M  V30 2974 C 339.762 -1.15174 -1.58096 0
M  V30 2975 C 340.142 0.282858 -2.09196 0
M  V30 2976 O 339.49 1.28151 -1.89181 0
M  V30 2977 C 339.7 -2.1907 -2.71679 0
M  V30 2978 C 341.048 -2.53093 -3.40924 0
M  V30 2979 O 342.072 -2.17717 -2.81918 0
M  V30 2980 O 340.931 -3.1379 -4.47435 0
M  V30 2981 H 338.025 -0.445303 -0.696875 0
M  V30 2982 H 340.571 -1.44833 -0.884385 0
M  V30 2983 H 339.343 -3.15443 -2.31541 0
M  V30 2984 H 338.966 -1.90481 -3.49002 0
M  V30 2985 N 339.963 1.05934 -1.16686 0
M  V30 2986 C 340.911 2.15603 -0.872817 0
M  V30 2987 C 341.905 1.68647 0.159576 0
M  V30 2988 O 343.111 1.79995 0.0132125 0
M  V30 2989 H 339.486 0.703885 -0.264671 0
M  V30 2990 H 341.457 2.37613 -1.80507 0
M  V30 2991 C 340.206 3.45457 -0.394344 0
M  V30 2992 H 339.529 3.81984 -1.18019 0
M  V30 2993 H 340.969 4.2339 -0.227408 0
M  V30 2994 C 339.428 3.25021 0.88673 0
M  V30 2995 O 339.958 3.50906 1.95519 0
M  V30 2996 N 338.164 2.78437 0.831925 0
M  V30 2997 H 337.711 2.57572 -0.0377619 0
M  V30 2998 H 337.669 2.65144 1.68956 0
M  V30 2999 N 341.441 0.965919 1.2453 0
M  V30 3000 C 342.669 0.644385 1.96609 0
M  V30 3001 C 343.084 -0.785823 1.71669 0
M  V30 3002 O 342.441 -1.52703 0.999399 0
M  V30 3003 C 342.492 0.907375 3.49927 0
M  V30 3004 O 342.213 2.28136 3.74013 0
M  V30 3005 C 343.714 0.599784 4.39224 0
M  V30 3006 H 340.934 0.240588 0.626385 0
M  V30 3007 H 343.478 1.29337 1.58405 0
M  V30 3008 H 341.633 0.304631 3.862 0
M  V30 3009 H 342.047 2.36002 4.68405 0
M  V30 3010 H 343.521 0.834263 5.45659 0
M  V30 3011 H 343.998 -0.465921 4.36722 0
M  V30 3012 H 344.604 1.18235 4.08535 0
M  V30 3013 N 342.919 -1.39368 0.735821 0
M  V30 3014 C 344.335 -1.54204 0.411492 0
M  V30 3015 C 344.535 -1.70268 -1.07755 0
M  V30 3016 O 343.591 -1.70364 -1.86366 0
M  V30 3017 C 344.904 -2.75925 1.19523 0
M  V30 3018 C 346.452 -2.89761 1.18354 0
M  V30 3019 C 346.927 -4.14421 1.94986 0
M  V30 3020 N 348.418 -4.21462 1.92156 0
M  V30 3021 C 349.153 -5.16871 2.48258 0
M  V30 3022 N 348.649 -6.18063 3.13001 0
M  V30 3023 N 350.442 -5.09093 2.38287 0
M  V30 3024 H 342.593 -1.27189 1.70108 0
M  V30 3025 H 344.856 -0.616517 0.720147 0
M  V30 3026 H 344.562 -2.70401 2.24892 0
M  V30 3027 H 344.436 -3.68614 0.800222 0
M  V30 3028 H 346.823 -2.94777 0.137975 0
M  V30 3029 H 346.904 -1.98133 1.61793 0
M  V30 3030 H 346.548 -4.10166 2.99543 0
M  V30 3031 H 346.478 -5.05095 1.48953 0
M  V30 3032 H 348.969 -3.48979 1.44991 0
M  V30 3033 H 349.282 -6.87326 3.53275 0
M  V30 3034 H 347.627 -6.18448 3.17091 0
M  V30 3035 H 350.818 -4.28973 1.8735 0
M  V30 3036 H 350.991 -5.83272 2.82308 0
M  V30 3037 N 344.397 -0.483516 -1.5 0
M  V30 3038 C 345.33 0.350427 -2.25493 0
M  V30 3039 C 346.308 0.985549 -1.29328 0
M  V30 3040 O 347.492 1.01906 -1.58579 0
M  V30 3041 C 344.619 1.49202 -3.04066 0
M  V30 3042 C 343.665 0.973036 -4.15252 0
M  V30 3043 S 344.498 -0.122237 -5.3536 0
M  V30 3044 C 345.654 1.02294 -6.17484 0
M  V30 3045 H 345.887 -0.290381 -2.95878 0
M  V30 3046 H 343.42 -0.268562 -1.52046 0
M  V30 3047 H 345.378 2.14623 -3.49925 0
M  V30 3048 H 344.039 2.10438 -2.33183 0
M  V30 3049 H 343.232 1.82804 -4.69679 0
M  V30 3050 H 342.834 0.396335 -3.71894 0
M  V30 3051 H 345.126 1.93195 -6.49371 0
M  V30 3052 H 346.069 0.517664 -7.06205 0
M  V30 3053 H 346.477 1.28238 -5.49741 0
M  V30 3054 N 345.875 1.56104 -0.216619 0
M  V30 3055 C 347.103 2.02563 0.421413 0
M  V30 3056 C 347.518 1.0965 1.53695 0
M  V30 3057 O 346.875 0.10521 1.82196 0
M  V30 3058 C 346.926 3.48584 0.957665 0
M  V30 3059 O 346.647 4.37953 -0.113389 0
M  V30 3060 C 348.148 4.10664 1.66943 0
M  V30 3061 H 345.368 0.662944 0.103665 0
M  V30 3062 H 347.912 2.01793 -0.331629 0
M  V30 3063 H 346.067 3.49985 1.661 0
M  V30 3064 H 346.481 5.23704 0.288932 0
M  V30 3065 H 347.955 5.14622 1.99671 0
M  V30 3066 H 348.432 3.55373 2.58083 0
M  V30 3067 H 349.038 4.13098 1.01142 0
M  V30 3068 N 347.353 -0.0568162 1.57498 0
M  V30 3069 C 348.283 -1.06593 2.0775 0
M  V30 3070 C 349.264 -1.39448 0.974082 0
M  V30 3071 O 350.449 -1.48815 1.24771 0
M  V30 3072 C 347.579 -2.37509 2.5339 0
M  V30 3073 C 346.533 -2.1897 3.67745 0
M  V30 3074 C 345.859 -3.55402 3.99492 0
M  V30 3075 C 347.159 -1.59859 4.97235 0
M  V30 3076 H 348.853 -0.647706 2.9231 0
M  V30 3077 H 346.399 -0.310116 1.40621 0
M  V30 3078 H 348.352 -3.08409 2.87162 0
M  V30 3079 H 347.076 -2.8134 1.65878 0
M  V30 3080 H 345.735 -1.50508 3.3428 0
M  V30 3081 H 345.383 -3.9683 3.09088 0
M  V30 3082 H 345.083 -3.43831 4.76502 0
M  V30 3083 H 346.607 -4.27708 4.35773 0
M  V30 3084 H 348.021 -2.20642 5.29141 0
M  V30 3085 H 346.418 -1.58942 5.78669 0
M  V30 3086 H 347.488 -0.561506 4.81638 0
M  V30 3087 N 348.832 -1.54138 -0.328536 0
M  V30 3088 C 350.109 -1.62749 -1.08499 0
M  V30 3089 C 350.489 -0.458198 -2.06067 0
M  V30 3090 O 349.837 0.548046 -2.2183 0
M  V30 3091 C 350.047 -2.99519 -1.79135 0
M  V30 3092 C 351.395 -3.55394 -2.32337 0
M  V30 3093 O 352.419 -3.01792 -1.89209 0
M  V30 3094 O 351.278 -4.49186 -3.11279 0
M  V30 3095 H 348.372 -0.65886 -0.499832 0
M  V30 3096 H 350.918 -1.66484 -0.328826 0
M  V30 3097 H 349.69 -3.76061 -1.08139 0
M  V30 3098 H 349.313 -2.99441 -2.61574 0
M  V30 3099 N 350.31 0.590341 -1.46126 0
M  V30 3100 C 351.587 1.35029 -1.41515 0
M  V30 3101 C 351.967 2.10888 -0.0946472 0
M  V30 3102 O 351.315 2.08998 0.923693 0
M  V30 3103 C 351.525 2.28269 -2.63997 0
M  V30 3104 C 352.873 2.90338 -3.09821 0
M  V30 3105 O 353.897 2.38585 -2.64492 0
M  V30 3106 O 352.756 3.84321 -3.88535 0
M  V30 3107 H 349.85 0.606317 -0.562413 0
M  V30 3108 H 352.396 0.611994 -1.58281 0
M  V30 3109 H 351.168 1.71591 -3.51671 0
M  V30 3110 H 350.791 3.0945 -2.49652 0
M  V30 3111 N 351.788 1.33704 0.83433 0
M  V30 3112 C 353.035 1.25417 1.58987 0
M  V30 3113 C 353.363 -0.178869 1.93676 0
M  V30 3114 O 352.618 -1.13723 1.59265 0
M  V30 3115 C 352.917 2.07926 2.90692 0
M  V30 3116 C 352.583 3.57066 2.75345 0
M  V30 3117 C 351.245 3.97724 2.70867 0
M  V30 3118 C 353.597 4.51817 2.59828 0
M  V30 3119 C 350.925 5.31344 2.48778 0
M  V30 3120 C 353.277 5.85604 2.39272 0
M  V30 3121 C 351.941 6.25439 2.33199 0
M  V30 3122 H 351.211 0.458934 0.581774 0
M  V30 3123 H 353.858 1.65335 0.966261 0
M  V30 3124 H 352.163 1.608 3.57282 0
M  V30 3125 H 353.86 1.98868 3.48213 0
M  V30 3126 H 350.45 3.24785 2.79665 0
M  V30 3127 H 354.634 4.21311 2.62319 0
M  V30 3128 H 349.89 5.61241 2.42526 0
M  V30 3129 H 354.064 6.58623 2.2625 0
M  V30 3130 H 351.691 7.28914 2.15843 0
M  V30 3131 N 353.266 -1.05314 1.17247 0
M  V30 3132 C 354.682 -1.30452 0.919473 0
M  V30 3133 C 354.882 -1.9703 -0.42209 0
M  V30 3134 O 353.938 -2.24311 -1.15935 0
M  V30 3135 C 355.251 -2.17551 2.07586 0
M  V30 3136 C 356.799 -2.30937 2.11275 0
M  V30 3137 C 357.274 -3.21396 3.26296 0
M  V30 3138 N 358.765 -3.28981 3.26076 0
M  V30 3139 C 359.5 -3.99095 4.11716 0
M  V30 3140 N 358.996 -4.71648 5.07465 0
M  V30 3141 N 360.789 -3.95247 3.9967 0
M  V30 3142 H 352.94 -0.604988 2.03602 0
M  V30 3143 H 355.203 -0.329368 0.888944 0
M  V30 3144 H 354.909 -1.75921 3.0454 0
M  V30 3145 H 354.783 -3.18182 2.02584 0
M  V30 3146 H 357.17 -2.71809 1.14907 0
M  V30 3147 H 357.251 -1.2994 2.20339 0
M  V30 3148 H 356.895 -2.81238 4.22927 0
M  V30 3149 H 356.825 -4.22395 3.14467 0
M  V30 3150 H 359.316 -2.77286 2.5675 0
M  V30 3151 H 359.629 -5.22705 5.6921 0
M  V30 3152 H 357.974 -4.70594 5.11435 0
M  V30 3153 H 361.165 -3.37691 3.24164 0
M  V30 3154 H 361.338 -4.4962 4.66632 0
M  V30 3155 N 354.744 -0.972509 -1.24016 0
M  V30 3156 C 355.993 -0.632603 -1.91523 0
M  V30 3157 C 356.306 0.836641 -1.76804 0
M  V30 3158 O 357.512 1.28728 -2.39043 0
M  V30 3159 C 355.968 -1.08082 -3.43287 0
M  V30 3160 C 355.576 -2.57386 -3.66683 0
M  V30 3161 C 357.32 -0.814288 -4.16617 0
M  V30 3162 C 355.227 -2.95915 -5.12043 0
M  V30 3163 H 354.157 -0.232898 -0.717129 0
M  V30 3164 H 356.808 -1.17936 -1.40582 0
M  V30 3165 H 355.19 -0.462339 -3.93292 0
M  V30 3166 H 356.364 -3.24405 -3.27258 0
M  V30 3167 H 354.679 -2.81701 -3.06649 0
M  V30 3168 H 357.276 -1.0781 -5.23718 0
M  V30 3169 H 357.619 0.24955 -4.15551 0
M  V30 3170 H 358.152 -1.39397 -3.72577 0
M  V30 3171 H 354.891 -4.0139 -5.18234 0
M  V30 3172 H 354.411 -2.33584 -5.52448 0
M  V30 3173 H 356.09 -2.86086 -5.80314 0
M  V30 3174 N 356.222 1.38976 -0.743202 0
M  V30 3175 C 357.169 2.30544 -0.10861 0
M  V30 3176 C 358.139 1.49642 0.720869 0
M  V30 3177 O 359.324 1.78304 0.679142 0
M  V30 3178 C 356.464 3.36018 0.786496 0
M  V30 3179 C 355.577 4.31963 -0.0564849 0
M  V30 3180 C 354.712 5.24506 0.840657 0
M  V30 3181 C 353.751 6.121 -0.00658363 0
M  V30 3182 N 352.888 6.96973 0.846943 0
M  V30 3183 H 357.728 2.8424 -0.895088 0
M  V30 3184 H 355.265 1.3995 -0.453048 0
M  V30 3185 H 357.223 3.95768 1.31999 0
M  V30 3186 H 355.853 2.83758 1.53887 0
M  V30 3187 H 354.905 3.73763 -0.707492 0
M  V30 3188 H 356.217 4.93703 -0.711229 0
M  V30 3189 H 355.371 5.89322 1.4417 0
M  V30 3190 H 354.11 4.63107 1.52916 0
M  V30 3191 H 353.115 5.46289 -0.620366 0
M  V30 3192 H 354.34 6.75565 -0.691992 0
M  V30 3193 H 352.286 6.38133 1.52059 0
M  V30 3194 H 352.203 7.5559 0.248864 0
M  V30 3195 H 353.471 7.6621 1.43328 0
M  V30 3196 N 357.7 0.491464 1.49741 0
M  V30 3197 C 358.947 -0.0564256 2.02421 0
M  V30 3198 C 359.275 -1.37872 1.37192 0
M  V30 3199 O 358.53 -1.89375 0.493508 0
M  V30 3200 C 358.829 -0.267329 3.56399 0
M  V30 3201 C 358.495 0.975775 4.40215 0
M  V30 3202 C 357.157 1.31655 4.62839 0
M  V30 3203 C 359.509 1.80251 4.89039 0
M  V30 3204 C 356.837 2.48375 5.31532 0
M  V30 3205 C 359.189 2.96116 5.59015 0
M  V30 3206 C 357.853 3.30585 5.79888 0
M  V30 3207 H 357.123 -0.0206476 0.740712 0
M  V30 3208 H 359.77 0.649686 1.80143 0
M  V30 3209 H 358.075 -1.05588 3.77304 0
M  V30 3210 H 359.772 -0.705549 3.94744 0
M  V30 3211 H 356.362 0.700315 4.2284 0
M  V30 3212 H 360.546 1.55239 4.71396 0
M  V30 3213 H 355.802 2.7533 5.45897 0
M  V30 3214 H 359.976 3.60509 5.95824 0
M  V30 3215 H 357.603 4.21132 6.32892 0
M  V30 3216 N 359.178 -1.55987 0.224894 0
M  V30 3217 C 360.088 -2.24066 -0.69511 0
M  V30 3218 C 361.104 -1.24939 -1.21104 0
M  V30 3219 O 362.28 -1.5776 -1.25195 0
M  V30 3220 C 359.345 -2.90983 -1.88493 0
M  V30 3221 C 358.406 -4.05462 -1.41064 0
M  V30 3222 C 357.639 -4.69179 -2.54375 0
M  V30 3223 O 357.862 -4.31895 -3.72589 0
M  V30 3224 O 356.796 -5.58108 -2.25386 0
M  V30 3225 H 360.622 -3.03353 -0.145149 0
M  V30 3226 H 358.207 -1.49399 -0.00569476 0
M  V30 3227 H 360.089 -3.33209 -2.57972 0
M  V30 3228 H 358.764 -2.14653 -2.42293 0
M  V30 3229 H 357.671 -3.67798 -0.683774 0
M  V30 3230 H 359.004 -4.83545 -0.918985 0
M  V30 3231 N 360.656 0.0484629 -1.57525 0
M  V30 3232 C 361.589 1.08755 -2.00618 0
M  V30 3233 C 362.567 1.36272 -0.887058 0
M  V30 3234 O 363.751 1.49255 -1.15131 0
M  V30 3235 C 360.878 2.42675 -2.36277 0
M  V30 3236 C 359.924 2.31142 -3.58435 0
M  V30 3237 S 360.757 1.68326 -5.08357 0
M  V30 3238 C 361.913 3.03776 -5.47239 0
M  V30 3239 H 362.146 0.720415 -2.88439 0
M  V30 3240 H 359.679 0.257801 -1.52233 0
M  V30 3241 H 361.637 3.19699 -2.57494 0
M  V30 3242 H 360.298 2.76541 -1.48942 0
M  V30 3243 H 359.491 3.29957 -3.80978 0
M  V30 3244 H 359.093 1.62258 -3.36969 0
M  V30 3245 H 361.385 4.00106 -5.46737 0
M  V30 3246 H 362.328 2.85988 -6.47778 0
M  V30 3247 H 362.736 3.05456 -4.74718 0
M  V30 3248 N 362.134 1.5431 0.320358 0
M  V30 3249 C 363.044 1.86946 1.41734 0
M  V30 3250 C 364.06 0.761689 1.56443 0
M  V30 3251 O 365.236 1.05629 1.71477 0
M  V30 3252 C 362.301 2.09293 2.76401 0
M  V30 3253 C 361.362 3.33082 2.70841 0
M  V30 3254 C 360.595 3.54353 3.99086 0
M  V30 3255 O 360.818 2.79002 4.97508 0
M  V30 3256 O 359.752 4.47838 4.0215 0
M  V30 3257 H 363.578 2.80232 1.17062 0
M  V30 3258 H 361.163 1.40255 0.514673 0
M  V30 3259 H 363.045 2.25303 3.56113 0
M  V30 3260 H 361.72 1.19194 3.00956 0
M  V30 3261 H 360.627 3.22454 1.89668 0
M  V30 3262 H 361.96 4.23249 2.5124 0
M  V30 3263 N 363.613 -0.582584 1.46437 0
M  V30 3264 C 364.545 -1.70618 1.53043 0
M  V30 3265 C 365.558 -1.57322 0.418769 0
M  V30 3266 O 366.747 -1.64744 0.687136 0
M  V30 3267 C 363.847 -3.08869 1.39474 0
M  V30 3268 C 363.02 -3.48166 2.64762 0
M  V30 3269 C 362.079 -4.65478 2.4539 0
M  V30 3270 O 361.105 -4.71333 3.19114 0
M  V30 3271 N 362.307 -5.60365 1.51564 0
M  V30 3272 H 365.072 -1.65405 2.49923 0
M  V30 3273 H 362.633 -0.768567 1.42494 0
M  V30 3274 H 364.625 -3.85143 1.24287 0
M  V30 3275 H 363.195 -3.08449 0.507758 0
M  V30 3276 H 362.415 -2.61598 2.9489 0
M  V30 3277 H 363.703 -3.71188 3.4799 0
M  V30 3278 H 363.101 -5.5837 0.907705 0
M  V30 3279 H 361.658 -6.36068 1.4234 0
M  V30 3280 N 365.091 -1.34144 -0.827227 0
M  V30 3281 C 366.039 -1.25364 -1.95925 0
M  V30 3282 C 367.033 -0.152608 -1.68711 0
M  V30 3283 O 368.239 -0.317311 -1.77181 0
M  V30 3284 H 364.614 -0.389342 -0.643364 0
M  V30 3285 H 366.585 -2.21045 -2.00454 0
M  V30 3286 C 365.334 -1.02158 -3.32354 0
M  V30 3287 H 364.657 -1.86111 -3.5384 0
M  V30 3288 H 366.097 -1.00048 -4.12027 0
M  V30 3289 C 364.556 0.275244 -3.35774 0
M  V30 3290 O 365.086 1.27806 -3.80826 0
M  V30 3291 N 363.292 0.306853 -2.88975 0
M  V30 3292 H 362.839 -0.509777 -2.52506 0
M  V30 3293 H 362.797 1.17432 -2.91646 0
M  V30 3294 N 366.569 1.04691 -1.17803 0
M  V30 3295 C 367.499 2.14494 -0.92275 0
M  V30 3296 C 368.48 1.69546 0.137179 0
M  V30 3297 O 369.665 1.94195 -0.0141108 0
M  V30 3298 C 366.795 3.44491 -0.440803 0
M  V30 3299 C 365.749 4.03031 -1.4405 0
M  V30 3300 C 365.075 5.28432 -0.81631 0
M  V30 3301 C 366.375 4.39932 -2.81527 0
M  V30 3302 H 368.069 2.36107 -1.84103 0
M  V30 3303 H 365.615 1.1347 -0.886599 0
M  V30 3304 H 367.568 4.2066 -0.249602 0
M  V30 3305 H 366.292 3.22546 0.513025 0
M  V30 3306 H 364.951 3.28937 -1.61853 0
M  V30 3307 H 364.599 5.02792 0.144511 0
M  V30 3308 H 364.299 5.68559 -1.48371 0
M  V30 3309 H 365.823 6.07284 -0.635496 0
M  V30 3310 H 367.237 5.07113 -2.67412 0
M  V30 3311 H 365.634 4.9109 -3.44892 0
M  V30 3312 H 366.704 3.50045 -3.35554 0
M  V30 3313 N 368.047 0.979072 1.23499 0
M  V30 3314 C 369.463 0.687475 1.44034 0
M  V30 3315 C 369.663 -0.746801 1.8715 0
M  V30 3316 O 368.719 -1.51939 2.0167 0
M  V30 3317 C 370.032 1.68127 2.49307 0
M  V30 3318 C 371.58 1.69516 2.63122 0
M  V30 3319 C 372.055 2.67723 3.71603 0
M  V30 3320 N 373.546 2.66233 3.79044 0
M  V30 3321 C 374.281 3.38891 4.62537 0
M  V30 3322 N 373.777 4.21103 5.50131 0
M  V30 3323 N 375.57 3.27661 4.56721 0
M  V30 3324 H 367.721 1.90559 0.938135 0
M  V30 3325 H 369.984 0.821051 0.473897 0
M  V30 3326 H 369.69 2.70693 2.2454 0
M  V30 3327 H 369.564 1.46306 3.4767 0
M  V30 3328 H 371.951 0.676561 2.8724 0
M  V30 3329 H 372.032 1.95404 1.65079 0
M  V30 3330 H 371.676 3.69724 3.48233 0
M  V30 3331 H 371.606 2.39111 4.69184 0
M  V30 3332 H 374.097 2.06568 3.16446 0
M  V30 3333 H 374.41 4.73403 6.10827 0
M  V30 3334 H 372.755 4.25195 5.49759 0
M  V30 3335 H 375.946 2.62887 3.87309 0
M  V30 3336 H 376.119 3.84547 5.21562 0
M  V30 3337 N 369.525 -1.3858 0.750561 0
M  V30 3338 C 370.457 -2.29057 0.0810714 0
M  V30 3339 C 371.47 -1.47596 -0.686973 0
M  V30 3340 O 372.659 -1.70495 -0.528563 0
M  V30 3341 C 369.759 -3.26475 -0.909247 0
M  V30 3342 C 368.932 -4.36945 -0.199478 0
M  V30 3343 C 367.991 -5.14572 -1.10011 0
M  V30 3344 O 367.017 -5.66321 -0.57177 0
M  V30 3345 N 368.219 -5.27262 -2.42849 0
M  V30 3346 H 370.984 -2.87153 0.858087 0
M  V30 3347 H 368.545 -1.50328 0.60109 0
M  V30 3348 H 370.537 -3.75285 -1.51471 0
M  V30 3349 H 369.107 -2.69298 -1.58736 0
M  V30 3350 H 368.327 -3.8981 0.586664 0
M  V30 3351 H 369.615 -5.07963 0.291783 0
M  V30 3352 H 369.013 -4.86763 -2.88233 0
M  V30 3353 H 367.57 -5.79456 -2.98453 0
M  V30 3354 N 371.003 -0.499398 -1.49478 0
M  V30 3355 C 372.251 0.0455996 -2.02049 0
M  V30 3356 C 372.572 1.37633 -1.38138 0
M  V30 3357 O 371.842 1.8842 -0.536166 0
M  V30 3358 H 370.422 0.0198416 -0.746736 0
M  V30 3359 H 373.084 -0.656274 -1.83519 0
M  V30 3360 H 372.18 0.176445 -3.11601 0
M  V30 3361 N 372.481 1.55866 -0.233164 0
M  V30 3362 C 373.727 1.98897 0.395959 0
M  V30 3363 C 374.06 1.12091 1.58585 0
M  V30 3364 O 373.335 0.181182 1.93654 0
M  V30 3365 C 373.618 3.50658 0.819224 0
M  V30 3366 C 373.471 4.48233 -0.375109 0
M  V30 3367 C 374.79 4.07135 1.67121 0
M  V30 3368 H 371.909 0.723102 0.142451 0
M  V30 3369 H 374.551 1.87082 -0.331725 0
M  V30 3370 H 372.701 3.60857 1.43925 0
M  V30 3371 H 374.373 4.50031 -1.01341 0
M  V30 3372 H 372.616 4.21624 -1.02058 0
M  V30 3373 H 373.287 5.51988 -0.0358328 0
M  V30 3374 H 375.763 3.99952 1.14795 0
M  V30 3375 H 374.639 5.13615 1.93625 0
M  V30 3376 H 374.9 3.54736 2.63846 0
M  V30 3377 N 373.959 -0.0401083 1.57549 0
M  V30 3378 C 375.236 -0.767917 1.79896 0
M  V30 3379 C 375.616 -1.9416 0.82856 0
M  V30 3380 O 374.964 -2.2812 -0.131671 0
M  V30 3381 C 375.174 -1.2113 3.27305 0
M  V30 3382 C 376.522 -1.63175 3.91994 0
M  V30 3383 O 377.546 -1.30616 3.31388 0
M  V30 3384 O 376.405 -2.23565 4.98679 0
M  V30 3385 H 373.499 -0.370441 0.739393 0
M  V30 3386 H 376.045 -0.017737 1.69691 0
M  V30 3387 H 374.817 -0.372937 3.89519 0
M  V30 3388 H 374.44 -2.02183 3.42356 0
M  V30 3389 N 375.437 -1.54477 -0.31217 0
M  V30 3390 C 376.4 -1.83923 -1.36766 0
M  V30 3391 C 377.4 -0.711563 -1.44199 0
M  V30 3392 O 378.59 -0.979866 -1.44029 0
M  V30 3393 C 375.722 -2.0095 -2.75376 0
M  V30 3394 H 376.915 -2.78239 -1.11906 0
M  V30 3395 H 374.468 -1.46369 -0.548257 0
M  V30 3396 H 375.203 -1.08883 -3.05475 0
M  V30 3397 H 374.988 -2.83018 -2.71373 0
M  V30 3398 H 376.478 -2.2514 -3.51713 0
M  V30 3399 N 376.915 0.57481 -1.46744 0
M  V30 3400 C 378.192 1.3352 -1.4294 0
M  V30 3401 C 378.572 2.10775 -0.117009 0
M  V30 3402 O 377.92 2.09966 0.901474 0
M  V30 3403 C 378.13 2.25456 -2.66403 0
M  V30 3404 C 379.478 2.87035 -3.12883 0
M  V30 3405 O 380.502 2.35766 -2.67007 0
M  V30 3406 O 379.361 3.80179 -3.92589 0
M  V30 3407 H 376.455 0.600318 -0.568812 0
M  V30 3408 H 379.001 0.595171 -1.58921 0
M  V30 3409 H 377.773 1.67851 -3.53471 0
M  V30 3410 H 377.396 3.06785 -2.52921 0
M  V30 3411 N 378.394 1.34581 0.820102 0
M  V30 3412 C 379.643 1.26437 1.57151 0
M  V30 3413 C 379.956 -0.163111 1.94919 0
M  V30 3414 O 381.162 -0.366722 2.69012 0
M  V30 3415 C 379.618 2.21658 2.83541 0
M  V30 3416 C 379.226 3.69679 2.53065 0
M  V30 3417 C 380.97 2.22428 3.61561 0
M  V30 3418 C 378.877 4.56761 3.75664 0
M  V30 3419 H 377.807 0.469707 0.589823 0
M  V30 3420 H 380.458 1.59763 0.902656 0
M  V30 3421 H 378.84 1.81287 3.52067 0
M  V30 3422 H 380.014 4.18605 1.92631 0
M  V30 3423 H 378.329 3.71384 1.88316 0
M  V30 3424 H 380.926 2.8471 4.52597 0
M  V30 3425 H 381.269 1.22434 3.97889 0
M  V30 3426 H 381.802 2.61259 2.99981 0
M  V30 3427 H 378.541 5.57702 3.44454 0
M  V30 3428 H 378.061 4.12568 4.35371 0
M  V30 3429 H 379.74 4.71509 4.43044 0
M  V30 3430 N 379.872 -1.04064 1.18357 0
M  V30 3431 C 380.82 -2.14187 0.907007 0
M  V30 3432 C 381.814 -1.68879 -0.132725 0
M  V30 3433 O 383.02 -1.79993 0.0154248 0
M  V30 3434 H 379.395 -0.699585 0.275835 0
M  V30 3435 H 381.366 -2.34711 1.84264 0
M  V30 3436 C 380.115 -3.44785 0.449254 0
M  V30 3437 H 379.438 -3.80058 1.24081 0
M  V30 3438 H 380.878 -4.22974 0.294737 0
M  V30 3439 C 379.337 -3.26391 -0.834909 0
M  V30 3440 O 379.867 -3.53973 -1.89911 0
M  V30 3441 N 378.073 -2.79726 -0.787523 0
M  V30 3442 H 377.62 -2.5748 0.0787347 0
M  V30 3443 H 377.578 -2.67798 -1.64716 0
M  V30 3444 N 381.35 -0.985608 -1.22978 0
M  V30 3445 C 382.598 -0.656087 -1.91154 0
M  V30 3446 C 382.919 0.813561 -1.77218 0
M  V30 3447 O 382.189 1.58244 -1.1548 0
M  V30 3448 H 380.769 -0.239674 -0.707506 0
M  V30 3449 H 383.431 -1.25054 -1.49491 0
M  V30 3450 H 382.527 -0.912253 -2.9847 0
M  V30 3451 N 382.828 1.3818 -0.7579 0
M  V30 3452 C 383.758 2.33027 -0.148597 0
M  V30 3453 C 384.739 1.55085 0.69875 0
M  V30 3454 O 385.924 1.83384 0.639053 0
M  V30 3455 C 383.054 3.3928 0.742034 0
M  V30 3456 C 382.008 4.28 -0.00291946 0
M  V30 3457 C 381.334 5.25146 1.00625 0
M  V30 3458 C 382.634 5.08938 -1.17385 0
M  V30 3459 H 384.328 2.84231 -0.940909 0
M  V30 3460 H 381.874 1.36659 -0.453908 0
M  V30 3461 H 383.827 4.046 1.17799 0
M  V30 3462 H 382.551 2.86569 1.56671 0
M  V30 3463 H 381.21 3.64192 -0.419504 0
M  V30 3464 H 380.858 4.68721 1.8251 0
M  V30 3465 H 380.558 5.85361 0.512428 0
M  V30 3466 H 382.082 5.93342 1.44143 0
M  V30 3467 H 383.496 5.67474 -0.815224 0
M  V30 3468 H 381.893 5.7841 -1.59882 0
M  V30 3469 H 382.963 4.42424 -1.98468 0
M  V30 3470 N 384.306 0.507319 1.49211 0
M  V30 3471 C 385.722 0.163682 1.58758 0
M  V30 3472 C 385.922 -1.33208 1.51188 0
M  V30 3473 O 384.978 -2.10855 1.38911 0
M  V30 3474 C 386.291 0.746095 2.91297 0
M  V30 3475 C 387.839 0.712773 3.04776 0
M  V30 3476 C 388.314 1.27336 4.39943 0
M  V30 3477 N 389.805 1.23433 4.46451 0
M  V30 3478 C 390.54 1.63821 5.495 0
M  V30 3479 N 390.036 2.11832 6.5962 0
M  V30 3480 N 391.829 1.55198 5.4025 0
M  V30 3481 H 383.98 1.47972 1.52375 0
M  V30 3482 H 386.243 0.614147 0.722168 0
M  V30 3483 H 385.949 1.79534 3.02424 0
M  V30 3484 H 385.823 0.210137 3.76614 0
M  V30 3485 H 388.21 -0.327656 2.93275 0
M  V30 3486 H 388.291 1.28595 2.21127 0
M  V30 3487 H 387.935 2.3126 4.52196 0
M  V30 3488 H 387.865 0.676066 5.22242 0
M  V30 3489 H 390.356 0.882627 3.67448 0
M  V30 3490 H 390.669 2.40703 7.34358 0
M  V30 3491 H 389.014 2.1581 6.60644 0
M  V30 3492 H 392.205 1.17505 4.53112 0
M  V30 3493 H 392.378 1.86997 6.20432 0
M  V30 3494 N 385.784 -1.5574 0.241426 0
M  V30 3495 C 386.716 -2.18469 -0.693091 0
M  V30 3496 C 387.729 -1.15942 -1.14286 0
M  V30 3497 O 388.918 -1.42832 -1.07058 0
M  V30 3498 C 386.018 -2.7696 -1.95311 0
M  V30 3499 C 385.191 -4.04853 -1.65568 0
M  V30 3500 C 384.25 -4.47715 -2.76474 0
M  V30 3501 O 383.276 -5.14205 -2.44094 0
M  V30 3502 N 384.478 -4.15044 -4.05855 0
M  V30 3503 H 387.243 -2.99292 -0.156388 0
M  V30 3504 H 384.804 -1.61784 0.0611752 0
M  V30 3505 H 386.796 -3.02594 -2.68736 0
M  V30 3506 H 385.366 -2.00326 -2.39975 0
M  V30 3507 H 384.586 -3.86865 -0.756886 0
M  V30 3508 H 385.874 -4.88246 -1.43153 0
M  V30 3509 H 385.272 -3.61654 -4.34998 0
M  V30 3510 H 383.829 -4.45526 -4.75762 0
M  V30 3511 N 387.262 0.0317525 -1.57568 0
M  V30 3512 C 388.508 0.724175 -1.8943 0
M  V30 3513 C 388.841 1.75149 -0.838836 0
M  V30 3514 O 388.116 1.93948 0.146422 0
M  V30 3515 C 388.399 1.39615 -3.31933 0
M  V30 3516 C 388.252 0.382537 -4.4817 0
M  V30 3517 C 389.571 2.33084 -3.73309 0
M  V30 3518 H 386.69 0.261797 -0.688935 0
M  V30 3519 H 389.332 -0.013017 -1.89996 0
M  V30 3520 H 387.482 2.02451 -3.31581 0
M  V30 3521 H 389.154 -0.243689 -4.60656 0
M  V30 3522 H 387.397 -0.29844 -4.32772 0
M  V30 3523 H 388.068 0.891145 -5.44759 0
M  V30 3524 H 390.544 1.80295 -3.7501 0
M  V30 3525 H 389.42 2.77084 -4.73831 0
M  V30 3526 H 389.681 3.19643 -3.05419 0
M  V30 3527 N 388.74 1.54641 0.303973 0
M  V30 3528 C 389.67 1.88386 1.3796 0
M  V30 3529 C 390.651 0.742485 1.5304 0
M  V30 3530 O 391.836 0.997959 1.66597 0
M  V30 3531 C 388.966 2.12854 2.74427 0
M  V30 3532 C 387.92 3.28702 2.74115 0
M  V30 3533 C 387.246 3.38582 4.13844 0
M  V30 3534 C 388.546 4.65881 2.3612 0
M  V30 3535 H 390.24 2.78474 1.09966 0
M  V30 3536 H 387.786 1.33988 0.527556 0
M  V30 3537 H 389.739 2.35047 3.49758 0
M  V30 3538 H 388.463 1.19535 3.03939 0
M  V30 3539 H 387.122 3.06428 2.0124 0
M  V30 3540 H 386.77 2.42784 4.40528 0
M  V30 3541 H 386.47 4.16453 4.14537 0
M  V30 3542 H 387.994 3.63031 4.90959 0
M  V30 3543 H 389.408 4.87823 3.01167 0
M  V30 3544 H 387.805 5.46444 2.48031 0
M  V30 3545 H 388.875 4.66799 1.3125 0
M  V30 3546 N 390.218 -0.567019 1.47046 0
M  V30 3547 C 391.495 -1.3276 1.43646 0
M  V30 3548 C 391.875 -2.1071 0.128186 0
M  V30 3549 O 391.223 -2.10441 -0.890326 0
M  V30 3550 C 391.433 -2.2404 2.67595 0
M  V30 3551 C 392.781 -2.85372 3.14401 0
M  V30 3552 O 393.805 -2.34346 2.68254 0
M  V30 3553 O 392.664 -3.78091 3.946 0
M  V30 3554 H 389.758 -0.597293 0.571988 0
M  V30 3555 H 392.304 -0.586735 1.59234 0
M  V30 3556 H 391.076 -1.65975 3.54356 0
M  V30 3557 H 390.699 -3.05439 2.54544 0
M  V30 3558 N 391.696 -1.35014 -0.812953 0
M  V30 3559 C 392.644 -1.27435 -1.94585 0
M  V30 3560 C 393.638 -0.170494 -1.6854 0
M  V30 3561 O 394.844 -0.336085 -1.76835 0
M  V30 3562 H 391.219 -0.396144 -0.639198 0
M  V30 3563 H 393.19 -2.23158 -1.98098 0
M  V30 3564 C 391.939 -1.05677 -3.31252 0
M  V30 3565 H 391.262 -1.89853 -3.51846 0
M  V30 3566 H 392.702 -1.04413 -4.10943 0
M  V30 3567 C 391.161 0.239615 -3.36047 0
M  V30 3568 O 391.691 1.23759 -3.8216 0
M  V30 3569 N 389.897 0.276186 -2.89285 0
M  V30 3570 H 389.444 -0.53653 -2.51951 0
M  V30 3571 H 389.402 1.14332 -2.92875 0
M  V30 3572 N 393.175 1.03435 -1.18907 0
M  V30 3573 C 394.105 2.13503 -0.945448 0
M  V30 3574 C 395.086 1.69682 0.119189 0
M  V30 3575 O 396.271 1.94169 -0.034707 0
M  V30 3576 C 393.401 3.44004 -0.477316 0
M  V30 3577 C 392.355 4.0148 -1.48316 0
M  V30 3578 C 391.681 5.27537 -0.872311 0
M  V30 3579 C 392.981 4.36921 -2.86177 0
M  V30 3580 H 394.675 2.34141 -1.86597 0
M  V30 3581 H 392.221 1.12523 -0.898584 0
M  V30 3582 H 394.174 4.20372 -0.294204 0
M  V30 3583 H 392.898 3.23072 0.478786 0
M  V30 3584 H 391.557 3.27201 -1.65332 0
M  V30 3585 H 391.205 5.02917 0.0911752 0
M  V30 3586 H 390.905 5.66954 -1.54393 0
M  V30 3587 H 392.429 6.06576 -0.699871 0
M  V30 3588 H 393.843 5.04248 -2.72776 0
M  V30 3589 H 392.24 4.87405 -3.50081 0
M  V30 3590 H 393.31 3.46466 -3.39248 0
M  V30 3591 N 394.653 0.992116 1.22453 0
M  V30 3592 C 395.881 0.685944 1.95198 0
M  V30 3593 C 396.296 -0.749233 1.73297 0
M  V30 3594 O 395.653 -1.50549 1.03156 0
M  V30 3595 C 395.704 0.981395 3.47924 0
M  V30 3596 O 395.425 2.36018 3.6909 0
M  V30 3597 C 396.926 0.692815 4.37853 0
M  V30 3598 H 394.146 0.253821 0.621141 0
M  V30 3599 H 396.69 1.32668 1.55626 0
M  V30 3600 H 394.845 0.386481 3.85467 0
M  V30 3601 H 395.259 2.45884 4.63294 0
M  V30 3602 H 396.733 0.949818 5.43767 0
M  V30 3603 H 397.21 -0.373181 4.37612 0
M  V30 3604 H 397.816 1.26874 4.05935 0
M  V30 3605 N 396.131 -1.37776 0.765217 0
M  V30 3606 C 397.064 -2.28008 0.0935025 0
M  V30 3607 C 398.042 -1.45985 -0.716047 0
M  V30 3608 O 399.226 -1.75331 -0.692203 0
M  V30 3609 C 396.353 -3.27228 -0.874052 0
M  V30 3610 C 395.399 -4.26239 -0.149307 0
M  V30 3611 S 396.232 -5.22827 1.15809 0
M  V30 3612 C 397.388 -6.256 0.193906 0
M  V30 3613 H 397.621 -2.84631 0.858637 0
M  V30 3614 H 395.154 -1.43952 0.558313 0
M  V30 3615 H 397.112 -3.84902 -1.42691 0
M  V30 3616 H 395.773 -2.69565 -1.61225 0
M  V30 3617 H 394.966 -4.96213 -0.88254 0
M  V30 3618 H 394.568 -3.7252 0.332366 0
M  V30 3619 H 396.86 -6.74508 -0.636011 0
M  V30 3620 H 397.803 -7.02838 0.861638 0
M  V30 3621 H 398.211 -5.64173 -0.191975 0
M  V30 3622 N 397.609 -0.515225 -1.4894 0
M  V30 3623 C 398.519 0.259774 -2.33157 0
M  V30 3624 C 399.535 0.953501 -1.45548 0
M  V30 3625 O 400.711 0.931735 -1.78552 0
M  V30 3626 C 397.776 1.30193 -3.21326 0
M  V30 3627 C 396.837 0.620129 -4.24797 0
M  V30 3628 C 396.07 1.61263 -5.08753 0
M  V30 3629 O 396.293 2.84389 -4.94448 0
M  V30 3630 O 395.227 1.16013 -5.90614 0
M  V30 3631 H 399.053 -0.429932 -3.00641 0
M  V30 3632 H 396.638 -0.276346 -1.46822 0
M  V30 3633 H 398.52 1.90455 -3.75905 0
M  V30 3634 H 397.195 1.97431 -2.56521 0
M  V30 3635 H 396.102 -0.0226019 -3.74093 0
M  V30 3636 H 397.435 -0.0100493 -4.92199 0
M  V30 3637 N 399.087 1.5561 -0.249682 0
M  V30 3638 C 400.034 2.21496 0.648694 0
M  V30 3639 C 401.004 1.17977 1.16921 0
M  V30 3640 O 402.189 1.46434 1.22318 0
M  V30 3641 C 399.329 2.92039 1.83868 0
M  V30 3642 C 398.442 4.10219 1.35442 0
M  V30 3643 C 397.577 4.6847 2.50419 0
M  V30 3644 C 396.616 5.78893 1.98869 0
M  V30 3645 N 395.753 6.31315 3.07223 0
M  V30 3646 H 400.593 2.97892 0.0801582 0
M  V30 3647 H 398.13 1.47074 0.0278031 0
M  V30 3648 H 400.088 3.31138 2.53778 0
M  V30 3649 H 398.718 2.18111 2.37965 0
M  V30 3650 H 397.77 3.76413 0.54928 0
M  V30 3651 H 399.082 4.89927 0.936649 0
M  V30 3652 H 398.236 5.10158 3.28366 0
M  V30 3653 H 396.975 3.87984 2.95499 0
M  V30 3654 H 395.98 5.3668 1.19393 0
M  V30 3655 H 397.205 6.61232 1.54755 0
M  V30 3656 H 395.151 5.53733 3.51732 0
M  V30 3657 H 395.068 7.06224 2.69784 0
M  V30 3658 H 396.336 6.77662 3.8522 0
M  V30 3659 N 400.565 -0.0233959 1.57583 0
M  V30 3660 C 401.79 -0.728376 1.94189 0
M  V30 3661 C 402.215 -1.67793 0.850119 0
M  V30 3662 O 401.573 -1.80262 -0.19371 0
M  V30 3663 C 401.621 -1.45669 3.29868 0
M  V30 3664 O 400.725 -2.57013 3.22518 0
M  V30 3665 H 400.066 -0.195493 0.63457 0
M  V30 3666 H 402.596 0.0228214 2.04587 0
M  V30 3667 H 402.606 -1.82535 3.6489 0
M  V30 3668 H 401.281 -0.760314 4.08891 0
M  V30 3669 H 399.858 -2.22648 2.99136 0
M  V30 3670 N 402.043 -1.548 -0.295768 0
M  V30 3671 C 403.32 -1.65014 -1.05023 0
M  V30 3672 C 403.7 -0.501805 -2.05049 0
M  V30 3673 O 403.048 0.500869 -2.22943 0
M  V30 3674 C 403.258 -3.03252 -1.72741 0
M  V30 3675 C 404.606 -3.60242 -2.24746 0
M  V30 3676 O 405.63 -3.05737 -1.82765 0
M  V30 3677 O 404.489 -4.55687 -3.01681 0
M  V30 3678 H 401.583 -0.669314 -0.485744 0
M  V30 3679 H 404.129 -1.67144 -0.293438 0
M  V30 3680 H 402.901 -3.7827 -1.00138 0
M  V30 3681 H 402.524 -3.04922 -2.55163 0
M  V30 3682 N 403.521 0.559213 -1.47345 0
M  V30 3683 C 404.451 1.67622 -1.62558 0
M  V30 3684 C 405.432 1.63331 -0.475087 0
M  V30 3685 O 406.617 1.80983 -0.704182 0
M  V30 3686 C 403.747 3.0626 -1.63774 0
M  V30 3687 C 402.701 3.25397 -2.7803 0
M  V30 3688 C 402.027 4.64801 -2.64318 0
M  V30 3689 C 403.327 3.10965 -4.19641 0
M  V30 3690 H 405.021 1.55146 -2.56067 0
M  V30 3691 H 402.567 0.744961 -1.23233 0
M  V30 3692 H 404.52 3.84247 -1.73008 0
M  V30 3693 H 403.244 3.1969 -0.66825 0
M  V30 3694 H 401.903 2.49817 -2.68304 0
M  V30 3695 H 401.551 4.75028 -1.65401 0
M  V30 3696 H 401.251 4.78555 -3.40968 0
M  V30 3697 H 402.775 5.44926 -2.75478 0
M  V30 3698 H 404.189 3.78772 -4.30354 0
M  V30 3699 H 402.586 3.36229 -4.97062 0
M  V30 3700 H 403.656 2.07736 -4.38148 0
M  V30 3701 N 404.999 1.35443 0.805782 0
M  V30 3702 C 405.909 1.30546 1.94923 0
M  V30 3703 C 406.925 0.210233 1.72725 0
M  V30 3704 O 408.101 0.43975 1.9654 0
M  V30 3705 C 405.166 1.07782 3.29521 0
M  V30 3706 C 404.227 2.26625 3.64609 0
M  V30 3707 C 403.46 2.04938 4.92784 0
M  V30 3708 O 403.683 1.01624 5.61274 0
M  V30 3709 O 402.617 2.9232 5.26149 0
M  V30 3710 H 406.443 2.26779 2.02002 0
M  V30 3711 H 404.028 1.15823 0.943682 0
M  V30 3712 H 405.91 0.969392 4.10098 0
M  V30 3713 H 404.585 0.146003 3.23371 0
M  V30 3714 H 403.492 2.43033 2.84404 0
M  V30 3715 H 404.825 3.18257 3.75464 0
M  V30 3716 N 406.477 -1.02803 1.19454 0
M  V30 3717 C 407.41 -2.107 0.876396 0
M  V30 3718 C 408.388 -1.61741 -0.166897 0
M  V30 3719 O 409.572 -1.88451 -0.0430195 0
M  V30 3720 C 406.699 -3.37262 0.311758 0
M  V30 3721 C 405.745 -4.05093 1.33424 0
M  V30 3722 S 406.578 -4.50498 2.89503 0
M  V30 3723 C 407.734 -5.80277 2.34584 0
M  V30 3724 H 407.967 -2.37362 1.79016 0
M  V30 3725 H 405.5 -1.15755 1.02177 0
M  V30 3726 H 407.458 -4.10499 -0.00748752 0
M  V30 3727 H 406.119 -3.08693 -0.58032 0
M  V30 3728 H 405.312 -4.9611 0.888302 0
M  V30 3729 H 404.914 -3.3803 1.60037 0
M  V30 3730 H 407.206 -6.54873 1.73633 0
M  V30 3731 H 408.149 -6.29651 3.23952 0
M  V30 3732 H 408.557 -5.3599 1.77131 0
M  V30 3733 N 407.956 -0.998596 -1.21925 0
M  V30 3734 C 408.888 -0.511879 -2.23411 0
M  V30 3735 C 409.901 0.396094 -1.57908 0
M  V30 3736 O 411.09 0.197316 -1.77406 0
M  V30 3737 C 408.19 0.276802 -3.37768 0
M  V30 3738 C 407.363 -0.628687 -4.32858 0
M  V30 3739 C 406.422 0.109272 -5.26087 0
M  V30 3740 O 405.448 -0.507237 -5.66935 0
M  V30 3741 N 406.65 1.38983 -5.63617 0
M  V30 3742 H 409.415 -1.38457 -2.658 0
M  V30 3743 H 406.976 -0.873981 -1.36283 0
M  V30 3744 H 408.968 0.77928 -3.97126 0
M  V30 3745 H 407.538 1.05063 -2.94415 0
M  V30 3746 H 406.758 -1.31175 -3.71735 0
M  V30 3747 H 408.046 -1.24514 -4.93329 0
M  V30 3748 H 407.444 1.91194 -5.32411 0
M  V30 3749 H 406.001 1.83739 -6.25367 0
M  V30 3750 N 409.434 1.37368 -0.772513 0
M  V30 3751 C 410.664 2.03647 -0.348082 0
M  V30 3752 C 411.072 1.58392 1.03482 0
M  V30 3753 O 410.415 0.760921 1.672 0
M  V30 3754 C 410.477 3.58131 -0.313404 0
M  V30 3755 C 410.141 4.2652 -1.64102 0
M  V30 3756 C 411.138 4.50587 -2.5936 0
M  V30 3757 C 408.823 4.64335 -1.91567 0
M  V30 3758 C 410.817 5.11526 -3.80289 0
M  V30 3759 C 408.504 5.24996 -3.12766 0
M  V30 3760 C 409.502 5.48529 -4.06946 0
M  V30 3761 O 409.19 6.07921 -5.26011 0
M  V30 3762 H 408.922 0.660538 -0.143753 0
M  V30 3763 H 411.476 1.76669 -1.04772 0
M  V30 3764 H 409.706 3.84159 0.442617 0
M  V30 3765 H 411.395 4.05813 0.0840613 0
M  V30 3766 H 412.161 4.21784 -2.39423 0
M  V30 3767 H 408.04 4.45353 -1.19088 0
M  V30 3768 H 411.584 5.29811 -4.53813 0
M  V30 3769 H 407.481 5.53223 -3.32588 0
M  V30 3770 H 408.249 6.26398 -5.26847 0
M  V30 3771 N 410.912 0.523116 1.48665 0
M  V30 3772 C 411.822 -0.247406 2.33292 0
M  V30 3773 C 412.838 -0.945769 1.46052 0
M  V30 3774 O 414.014 -0.922253 1.79043 0
M  V30 3775 C 411.079 -1.28487 3.22012 0
M  V30 3776 C 410.14 -0.597592 4.2512 0
M  V30 3777 C 409.373 -1.58563 5.09601 0
M  V30 3778 O 409.596 -2.81763 4.95949 0
M  V30 3779 O 408.53 -1.12879 5.91221 0
M  V30 3780 H 412.356 0.445869 3.00409 0
M  V30 3781 H 409.941 0.284128 1.46673 0
M  V30 3782 H 411.823 -1.88459 3.7691 0
M  V30 3783 H 410.498 -1.96068 2.57564 0
M  V30 3784 H 409.405 0.0424407 3.74076 0
M  V30 3785 H 410.738 0.0361517 4.92187 0
M  V30 3786 N 412.39 -1.55475 0.257931 0
M  V30 3787 C 413.618 -2.03609 -0.367559 0
M  V30 3788 C 414.033 -1.13687 -1.50734 0
M  V30 3789 O 413.39 -0.153479 -1.81853 0
M  V30 3790 C 413.441 -3.51001 -0.864908 0
M  V30 3791 O 413.162 -4.37499 0.229465 0
M  V30 3792 C 414.663 -4.14946 -1.55997 0
M  V30 3793 H 411.883 -0.665459 -0.0860521 0
M  V30 3794 H 414.427 -2.00843 0.385014 0
M  V30 3795 H 412.582 -3.54266 -1.56762 0
M  V30 3796 H 412.996 -5.24286 -0.14998 0
M  V30 3797 H 414.47 -5.19735 -1.85956 0
M  V30 3798 H 414.947 -3.6209 -2.4857 0
M  V30 3799 H 415.553 -4.15635 -0.901543 0
M  V30 3800 N 413.868 0.0150385 -1.57593 0
M  V30 3801 C 414.798 1.01047 -2.10503 0
M  V30 3802 C 415.779 1.36816 -1.01071 0
M  V30 3803 O 416.964 1.45455 -1.28672 0
M  V30 3804 C 414.094 2.30708 -2.59598 0
M  V30 3805 C 413.048 2.09142 -3.73421 0
M  V30 3806 C 412.374 3.44685 -4.08774 0
M  V30 3807 C 413.674 1.46619 -5.01298 0
M  V30 3808 H 415.368 0.569978 -2.93925 0
M  V30 3809 H 412.914 0.272724 -1.41394 0
M  V30 3810 H 414.867 3.00687 -2.95238 0
M  V30 3811 H 413.591 2.76843 -1.73279 0
M  V30 3812 H 412.25 1.41592 -3.38153 0
M  V30 3813 H 411.898 3.88495 -3.195 0
M  V30 3814 H 411.598 3.31077 -4.8545 0
M  V30 3815 H 413.122 4.16004 -4.4696 0
M  V30 3816 H 414.536 2.06535 -5.34805 0
M  V30 3817 H 412.933 1.43544 -5.82679 0
M  V30 3818 H 414.003 0.433611 -4.82957 0
M  V30 3819 N 415.346 1.54954 0.287554 0
M  V30 3820 C 416.278 1.83224 1.37701 0
M  V30 3821 C 417.291 0.715898 1.46215 0
M  V30 3822 O 418.48 0.993565 1.48292 0
M  V30 3823 C 415.58 1.96723 2.75959 0
M  V30 3824 C 414.753 3.27253 2.90215 0
M  V30 3825 C 413.812 3.30998 4.09056 0
M  V30 3826 O 412.838 4.04457 4.00503 0
M  V30 3827 N 414.04 2.57353 5.20336 0
M  V30 3828 H 416.805 2.77254 1.138 0
M  V30 3829 H 414.366 1.54694 0.477652 0
M  V30 3830 H 416.358 1.96615 3.5373 0
M  V30 3831 H 414.928 1.09626 2.92747 0
M  V30 3832 H 414.148 3.40022 1.99447 0
M  V30 3833 H 415.436 4.13365 2.96659 0
M  V30 3834 H 414.834 1.97327 5.30169 0
M  V30 3835 H 413.391 2.62984 5.96391 0
M  V30 3836 N 416.824 -0.551391 1.4764 0
M  V30 3837 C 417.734 -1.68525 1.63207 0
M  V30 3838 C 418.75 -1.6621 0.514815 0
M  V30 3839 O 419.926 -1.85551 0.783113 0
M  V30 3840 C 416.991 -3.05025 1.64805 0
M  V30 3841 C 416.052 -3.18362 2.88 0
M  V30 3842 C 415.285 -4.4835 2.89513 0
M  V30 3843 O 415.508 -5.34163 2.00065 0
M  V30 3844 O 414.442 -4.65602 3.81443 0
M  V30 3845 H 418.268 -1.58333 2.59161 0
M  V30 3846 H 415.853 -0.722063 1.30792 0
M  V30 3847 H 417.735 -3.86245 1.68502 0
M  V30 3848 H 416.41 -3.15587 0.720197 0
M  V30 3849 H 415.317 -2.36518 2.89845 0
M  V30 3850 H 416.65 -3.12707 3.80099 0
M  V30 3851 N 418.302 -1.35869 -0.798587 0
M  V30 3852 C 419.212 -1.31578 -1.94228 0
M  V30 3853 C 420.228 -0.21939 -1.72611 0
M  V30 3854 O 421.404 -0.450167 -1.96305 0
M  V30 3855 C 418.469 -1.09528 -3.28944 0
M  V30 3856 C 417.53 -2.28556 -3.63402 0
M  V30 3857 C 416.763 -2.07549 -4.9169 0
M  V30 3858 O 416.986 -1.046 -5.60727 0
M  V30 3859 O 415.92 -2.95106 -5.24591 0
M  V30 3860 H 419.746 -2.27847 -2.00796 0
M  V30 3861 H 417.331 -1.16322 -0.937526 0
M  V30 3862 H 419.213 -0.991127 -4.09579 0
M  V30 3863 H 417.888 -0.16315 -3.23289 0
M  V30 3864 H 416.795 -2.44538 -2.83112 0
M  V30 3865 H 418.128 -3.20244 -3.73771 0
M  V30 3866 N 419.78 1.02168 -1.19998 0
M  V30 3867 C 420.71 2.12488 -0.96804 0
M  V30 3868 C 421.691 1.69799 0.101185 0
M  V30 3869 O 422.876 1.94121 -0.0552993 0
M  V30 3870 C 420.006 3.43479 -0.513776 0
M  V30 3871 C 418.96 3.99884 -1.52566 0
M  V30 3872 C 418.286 5.26582 -0.928214 0
M  V30 3873 C 419.586 4.33861 -2.90795 0
M  V30 3874 H 421.28 2.32149 -1.89069 0
M  V30 3875 H 418.826 1.11564 -0.910468 0
M  V30 3876 H 420.779 4.20036 -0.338774 0
M  V30 3877 H 419.503 3.23561 0.444493 0
M  V30 3878 H 418.162 3.25429 -1.68794 0
M  V30 3879 H 417.81 5.02986 0.0378289 0
M  V30 3880 H 417.51 5.65284 -1.60397 0
M  V30 3881 H 419.034 6.05799 -0.764167 0
M  V30 3882 H 420.448 5.01327 -2.78109 0
M  V30 3883 H 418.845 4.83664 -3.55231 0
M  V30 3884 H 419.915 3.42848 -3.42904 0
M  V30 3885 N 421.258 1.00505 1.21394 0
M  V30 3886 C 422.191 0.51032 2.22421 0
M  V30 3887 C 423.169 -0.436 1.56645 0
M  V30 3888 O 424.353 -0.358709 1.85055 0
M  V30 3889 C 421.48 -0.258733 3.3771 0
M  V30 3890 C 420.526 0.635395 4.2174 0
M  V30 3891 S 421.359 2.09783 4.92698 0
M  V30 3892 C 422.515 1.33862 6.11418 0
M  V30 3893 H 422.748 1.36637 2.64041 0
M  V30 3894 H 420.281 0.812991 1.31262 0
M  V30 3895 H 422.239 -0.696372 4.0455 0
M  V30 3896 H 420.9 -1.0902 2.94573 0
M  V30 3897 H 420.093 0.0430189 5.03982 0
M  V30 3898 H 419.695 1.01031 3.60095 0
M  V30 3899 H 421.987 0.612541 6.74725 0
M  V30 3900 H 422.93 2.13675 6.75092 0
M  V30 3901 H 423.338 0.846568 5.58116 0
M  V30 3902 N 422.737 -1.36956 0.779787 0
M  V30 3903 C 423.7 -2.2851 0.177662 0
M  V30 3904 C 424.7 -1.48393 -0.619377 0
M  V30 3905 O 425.89 -1.68505 -0.441785 0
M  V30 3906 C 423.022 -3.32428 -0.755279 0
M  V30 3907 H 424.215 -2.83269 0.984823 0
M  V30 3908 H 421.768 -1.46358 0.548544 0
M  V30 3909 H 422.503 -2.82808 -1.58714 0
M  V30 3910 H 422.288 -3.91659 -0.185817 0
M  V30 3911 H 423.778 -4.00824 -1.17174 0
M  V30 3912 N 424.215 -0.530993 -1.48385 0
M  V30 3913 C 425.145 0.219985 -2.32461 0
M  V30 3914 C 426.126 0.934111 -1.42156 0
M  V30 3915 O 427.311 0.919694 -1.71042 0
M  V30 3916 C 424.441 1.26674 -3.23375 0
M  V30 3917 C 423.395 0.67069 -4.22712 0
M  V30 3918 C 422.721 1.82017 -5.02766 0
M  V30 3919 C 424.021 -0.358268 -5.2107 0
M  V30 3920 H 425.715 -0.48187 -2.95497 0
M  V30 3921 H 423.261 -0.233182 -1.42099 0
M  V30 3922 H 425.214 1.80006 -3.81019 0
M  V30 3923 H 423.938 1.99818 -2.58341 0
M  V30 3924 H 422.597 0.158878 -3.66256 0
M  V30 3925 H 422.245 2.54002 -4.34157 0
M  V30 3926 H 421.945 1.42727 -5.70003 0
M  V30 3927 H 423.469 2.35725 -5.63264 0
M  V30 3928 H 424.883 0.0880081 -5.73232 0
M  V30 3929 H 423.28 -0.66861 -5.96364 0
M  V30 3930 H 424.35 -1.26367 -4.68145 0
M  V30 3931 N 425.693 1.55336 -0.266172 0
M  V30 3932 C 426.64 2.22172 0.625165 0
M  V30 3933 C 427.61 1.19211 1.15663 0
M  V30 3934 O 428.795 1.47723 1.20758 0
M  V30 3935 C 425.935 2.93972 1.8076 0
M  V30 3936 C 425.048 4.11632 1.31084 0
M  V30 3937 C 424.183 4.71099 2.45436 0
M  V30 3938 C 423.222 5.8097 1.92718 0
M  V30 3939 N 422.359 6.34538 3.00509 0
M  V30 3940 H 427.199 2.9796 0.0485582 0
M  V30 3941 H 424.736 1.47095 0.0122024 0
M  V30 3942 H 426.694 3.33811 2.50251 0
M  V30 3943 H 425.324 2.20623 2.35638 0
M  V30 3944 H 424.376 3.76975 0.509326 0
M  V30 3945 H 425.688 4.90893 0.884633 0
M  V30 3946 H 424.842 5.13612 3.22936 0
M  V30 3947 H 423.581 3.91096 2.91368 0
M  V30 3948 H 422.586 5.37916 1.13695 0
M  V30 3949 H 423.811 6.62836 1.47733 0
M  V30 3950 H 421.757 5.57433 3.45839 0
M  V30 3951 H 421.674 7.09046 2.62279 0
M  V30 3952 H 422.942 6.81709 3.78011 0
M  V30 3953 N 427.171 -0.0066808 1.57599 0
M  V30 3954 C 428.118 -1.00024 2.08 0
M  V30 3955 C 429.088 -1.34549 0.973943 0
M  V30 3956 O 430.273 -1.44502 1.24595 0
M  V30 3957 C 427.413 -2.2891 2.58252 0
M  V30 3958 C 426.526 -2.00346 3.82734 0
M  V30 3959 C 425.661 -3.23265 4.21513 0
M  V30 3960 C 424.7 -2.90357 5.3885 0
M  V30 3961 N 423.837 -4.05793 5.72954 0
M  V30 3962 H 428.677 -0.563499 2.92624 0
M  V30 3963 H 426.214 -0.266592 1.44664 0
M  V30 3964 H 428.172 -3.04247 2.85464 0
M  V30 3965 H 426.802 -2.70265 1.76512 0
M  V30 3966 H 425.854 -1.15406 3.62471 0
M  V30 3967 H 427.166 -1.72086 4.68175 0
M  V30 3968 H 426.32 -4.06953 4.49971 0
M  V30 3969 H 425.059 -3.54657 3.34768 0
M  V30 3970 H 424.064 -2.05075 5.10122 0
M  V30 3971 H 425.289 -2.60219 6.27266 0
M  V30 3972 H 423.235 -4.37094 4.89167 0
M  V30 3973 H 423.152 -3.81034 6.52954 0
M  V30 3974 H 424.42 -4.90289 6.06001 0
M  V30 3975 N 428.649 -1.55105 -0.279332 0
M  V30 3976 C 429.597 -1.88333 -1.36505 0
M  V30 3977 C 430.591 -0.759043 -1.51443 0
M  V30 3978 O 431.797 -0.943312 -1.53302 0
M  V30 3979 H 428.172 -0.59766 -0.456406 0
M  V30 3980 H 430.143 -2.79041 -1.05728 0
M  V30 3981 C 428.892 -2.16628 -2.7197 0
M  V30 3982 H 428.215 -3.02624 -2.61264 0
M  V30 3983 H 429.655 -2.43803 -3.46895 0
M  V30 3984 C 428.114 -0.971807 -3.22579 0
M  V30 3985 O 428.644 -0.203228 -4.01186 0
M  V30 3986 N 426.85 -0.771238 -2.80179 0
M  V30 3987 H 426.397 -1.39792 -2.1637 0
M  V30 3988 H 426.355 0.0263667 -3.14389 0
M  V30 3989 N 430.127 0.543554 -1.4793 0
M  V30 3990 C 431.077 1.64527 -1.57844 0
M  V30 3991 C 432.061 1.54869 -0.436408 0
M  V30 3992 O 433.253 1.63119 -0.687101 0
M  V30 3993 C 430.382 3.03281 -1.6086 0
M  V30 3994 C 429.468 3.18093 -2.80495 0
M  V30 3995 N 429.859 3.02923 -4.05057 0
M  V30 3996 C 428.157 3.49121 -2.77543 0
M  V30 3997 C 428.858 3.20791 -4.85251 0
M  V30 3998 N 427.834 3.47749 -4.17818 0
M  V30 3999 H 431.636 1.51388 -2.5191 0
M  V30 4000 H 429.15 0.748671 -1.44113 0
M  V30 4001 H 431.147 3.82403 -1.66054 0
M  V30 4002 H 429.807 3.17521 -0.678996 0
M  V30 4003 H 430.818 2.79966 -4.35705 0
M  V30 4004 H 427.495 3.69804 -1.93781 0
M  V30 4005 H 428.885 3.13915 -5.9406 0
M  V30 4006 N 431.605 1.3629 0.791371 0
M  V30 4007 C 432.552 1.30458 1.90393 0
M  V30 4008 C 433.522 0.173632 1.6519 0
M  V30 4009 O 434.707 0.35983 1.87376 0
M  V30 4010 C 431.847 1.09777 3.27174 0
M  V30 4011 C 430.96 2.31929 3.64462 0
M  V30 4012 C 430.095 2.04276 4.90352 0
M  V30 4013 C 429.134 3.224 5.20312 0
M  V30 4014 N 428.271 2.94424 6.37385 0
M  V30 4015 H 433.111 2.25589 1.94714 0
M  V30 4016 H 430.648 1.12122 0.952216 0
M  V30 4017 H 432.606 0.958133 4.06049 0
M  V30 4018 H 431.236 0.183014 3.22281 0
M  V30 4019 H 430.288 2.56703 2.80727 0
M  V30 4020 H 431.6 3.20085 3.82553 0
M  V30 4021 H 430.754 1.87231 5.77087 0
M  V30 4022 H 429.493 1.13428 4.74326 0
M  V30 4023 H 428.498 3.40005 4.32061 0
M  V30 4024 H 429.723 4.14071 5.38258 0
M  V30 4025 H 427.669 2.06185 6.22755 0
M  V30 4026 H 427.586 3.76118 6.55798 0
M  V30 4027 H 428.854 2.80953 7.27108 0
M  V30 4028 N 433.083 -1.0153 1.20538 0
M  V30 4029 C 433.993 -2.13557 0.971113 0
M  V30 4030 C 435.009 -1.73845 -0.0734366 0
M  V30 4031 O 436.185 -2.01075 0.114299 0
M  V30 4032 C 433.25 -3.42661 0.527639 0
M  V30 4033 C 432.311 -3.96608 1.64319 0
M  V30 4034 C 431.544 -5.1955 1.22078 0
M  V30 4035 O 431.767 -5.70329 0.0900198 0
M  V30 4036 O 430.701 -5.66681 2.02871 0
M  V30 4037 H 434.527 -2.3619 1.90913 0
M  V30 4038 H 432.112 -1.11946 0.989362 0
M  V30 4039 H 433.994 -4.20404 0.289621 0
M  V30 4040 H 432.669 -3.21441 -0.381779 0
M  V30 4041 H 431.576 -3.20139 1.93551 0
M  V30 4042 H 432.909 -4.22219 2.52966 0
M  V30 4043 N 434.561 -1.01147 -1.20859 0
M  V30 4044 C 435.471 -0.58686 -2.27141 0
M  V30 4045 C 436.487 0.373198 -1.69951 0
M  V30 4046 O 437.663 0.235423 -2.00019 0
M  V30 4047 C 434.728 0.0733602 -3.46622 0
M  V30 4048 C 433.789 -0.931995 -4.19061 0
M  V30 4049 C 433.022 -0.303186 -5.32838 0
M  V30 4050 O 433.245 0.898395 -5.63281 0
M  V30 4051 O 432.179 -1.01735 -5.9324 0
M  V30 4052 H 436.005 -1.47155 -2.65667 0
M  V30 4053 H 433.59 -0.780689 -1.2738 0
M  V30 4054 H 435.472 0.442333 -4.19072 0
M  V30 4055 H 434.147 0.932329 -3.09983 0
M  V30 4056 H 433.054 -1.35224 -3.48805 0
M  V30 4057 H 434.387 -1.76076 -4.59628 0
M  V30 4058 N 436.039 1.36541 -0.78704 0
M  V30 4059 C 436.972 2.27831 -0.129765 0
M  V30 4060 C 437.95 1.47105 0.692732 0
M  V30 4061 O 439.134 1.7641 0.664222 0
M  V30 4062 C 436.261 3.28577 0.821883 0
M  V30 4063 C 435.307 4.26422 0.0814771 0
M  V30 4064 S 436.14 5.20919 -1.24112 0
M  V30 4065 C 437.296 6.25212 -0.293409 0
M  V30 4066 H 437.529 2.83229 -0.903811 0
M  V30 4067 H 435.062 1.43046 -0.581144 0
M  V30 4068 H 437.02 3.87123 1.3655 0
M  V30 4069 H 435.681 2.72096 1.56916 0
M  V30 4070 H 434.874 4.97554 0.803485 0
M  V30 4071 H 434.476 3.71944 -0.391589 0
M  V30 4072 H 436.768 6.75435 0.528622 0
M  V30 4073 H 437.711 7.01378 -0.973344 0
M  V30 4074 H 438.119 5.64407 0.102196 0
M  V30 4075 N 437.518 0.538854 1.48102 0
M  V30 4076 C 438.743 0.0102694 2.07397 0
M  V30 4077 C 439.168 -1.26562 1.39153 0
M  V30 4078 O 438.526 -1.75357 0.460387 0
M  V30 4079 C 438.574 -0.187602 3.60112 0
M  V30 4080 O 437.678 -1.25432 3.92862 0
M  V30 4081 H 437.019 0.0430975 0.6626 0
M  V30 4082 H 439.549 0.749301 1.90385 0
M  V30 4083 H 439.559 -0.407517 4.0596 0
M  V30 4084 H 438.234 0.744386 4.09184 0
M  V30 4085 H 436.811 -1.01636 3.58782 0
M  V30 4086 N 438.996 -1.55193 0.274407 0
M  V30 4087 C 439.928 -2.1989 -0.646595 0
M  V30 4088 C 440.941 -1.1834 -1.11801 0
M  V30 4089 O 442.13 -1.4507 -1.04004 0
M  V30 4090 C 439.23 -2.8104 -1.89393 0
M  V30 4091 C 438.403 -4.08274 -1.56943 0
M  V30 4092 C 437.462 -4.53478 -2.66916 0
M  V30 4093 O 436.488 -5.19267 -2.33132 0
M  V30 4094 N 437.69 -4.2356 -3.9696 0
M  V30 4095 H 440.455 -2.99556 -0.0928686 0
M  V30 4096 H 438.016 -1.61618 0.0954783 0
M  V30 4097 H 440.008 -3.08226 -2.62257 0
M  V30 4098 H 438.578 -2.05372 -2.35672 0
M  V30 4099 H 437.798 -3.88384 -0.674655 0
M  V30 4100 H 439.086 -4.91173 -1.32764 0
M  V30 4101 H 438.484 -3.70799 -4.27229 0
M  V30 4102 H 437.041 -4.55518 -4.66205 0
M  V30 4103 N 440.474 -0.00167713 -1.576 0
M  V30 4104 C 441.404 0.988091 -2.11563 0
M  V30 4105 C 442.385 1.35736 -1.02517 0
M  V30 4106 O 443.57 1.44082 -1.30208 0
M  V30 4107 C 440.7 2.27941 -2.62031 0
M  V30 4108 C 439.654 2.0517 -3.75619 0
M  V30 4109 C 438.98 3.4033 -4.12407 0
M  V30 4110 C 440.28 1.41294 -5.02825 0
M  V30 4111 H 441.974 0.538771 -2.94513 0
M  V30 4112 H 439.52 0.257712 -1.41675 0
M  V30 4113 H 441.473 2.97539 -2.9841 0
M  V30 4114 H 440.197 2.74989 -1.76205 0
M  V30 4115 H 438.856 1.37998 -3.39635 0
M  V30 4116 H 438.504 3.85085 -3.23603 0
M  V30 4117 H 438.204 3.25909 -4.88935 0
M  V30 4118 H 439.728 4.1124 -4.51347 0
M  V30 4119 H 441.142 2.00851 -5.36965 0
M  V30 4120 H 439.539 1.37356 -5.84169 0
M  V30 4121 H 440.609 0.382362 -4.8339 0
M  V30 4122 N 441.952 1.55251 0.271103 0
M  V30 4123 C 443.18 1.79974 1.02064 0
M  V30 4124 C 443.595 0.574003 1.79863 0
M  V30 4125 O 442.952 -0.456962 1.76686 0
M  V30 4126 C 443.003 3.02603 1.97772 0
M  V30 4127 O 442.724 4.20443 1.23124 0
M  V30 4128 C 444.225 3.39944 2.84522 0
M  V30 4129 H 441.445 0.599489 0.301419 0
M  V30 4130 H 443.989 2.02268 0.301313 0
M  V30 4131 H 442.144 2.8243 2.65165 0
M  V30 4132 H 442.558 4.89783 1.87651 0
M  V30 4133 H 444.032 4.28915 3.47471 0
M  V30 4134 H 444.509 2.59432 3.54389 0
M  V30 4135 H 445.115 3.62383 2.22618 0
M  V30 4136 N 443.43 -0.535701 1.48216 0
M  V30 4137 C 444.678 -1.28928 1.55634 0
M  V30 4138 C 444.999 -1.93645 0.229514 0
M  V30 4139 O 444.269 -1.81038 -0.74846 0
M  V30 4140 H 442.849 -0.47884 0.573342 0
M  V30 4141 H 445.511 -0.623853 1.84646 0
M  V30 4142 H 444.607 -2.07157 2.33436 0
M  V30 4143 N 444.908 -1.36708 -0.784132 0
M  V30 4144 C 445.84 -1.27333 -1.90575 0
M  V30 4145 C 446.853 -0.191706 -1.61667 0
M  V30 4146 O 448.042 -0.446854 -1.72816 0
M  V30 4147 C 445.142 -0.943177 -3.25511 0
M  V30 4148 C 444.315 -2.12776 -3.82158 0
M  V30 4149 C 443.374 -1.76983 -4.95544 0
M  V30 4150 O 442.4 -2.49134 -5.11782 0
M  V30 4151 N 443.602 -0.706624 -5.76183 0
M  V30 4152 H 446.367 -2.23974 -1.99138 0
M  V30 4153 H 443.928 -1.30171 -0.962656 0
M  V30 4154 H 445.92 -0.684799 -3.98864 0
M  V30 4155 H 444.49 -0.0657333 -3.12531 0
M  V30 4156 H 443.71 -2.54863 -3.0073 0
M  V30 4157 H 444.998 -2.91904 -4.16737 0
M  V30 4158 H 444.396 -0.107643 -5.65598 0
M  V30 4159 H 442.953 -0.50808 -6.49817 0
M  V30 4160 N 446.386 1.0089 -1.21074 0
M  V30 4161 C 447.334 2.11707 -0.963476 0
M  V30 4162 C 448.328 1.69172 0.0879032 0
M  V30 4163 O 449.534 1.79889 -0.0631415 0
M  V30 4164 H 445.909 0.692026 -0.294287 0
M  V30 4165 H 447.88 2.29743 -1.90422 0
M  V30 4166 C 446.629 3.43473 -0.540509 0
M  V30 4167 H 445.952 3.76634 -1.34114 0
M  V30 4168 H 447.392 4.22044 -0.406777 0
M  V30 4169 C 445.851 3.2849 0.748079 0
M  V30 4170 O 446.381 3.58883 1.8046 0
M  V30 4171 N 444.587 2.81715 0.713081 0
M  V30 4172 H 444.134 2.5718 -0.146973 0
M  V30 4173 H 444.092 2.72071 1.57558 0
M  V30 4174 N 447.864 1.01787 1.20321 0
M  V30 4175 C 449.089 0.727009 1.9424 0
M  V30 4176 C 449.514 -0.706179 1.74341 0
M  V30 4177 O 448.872 -1.48609 1.03852 0
M  V30 4178 C 448.92 1.06958 3.44372 0
M  V30 4179 O 448.024 0.181983 4.11998 0
M  V30 4180 H 447.365 0.269626 0.606793 0
M  V30 4181 H 449.895 1.36158 1.52716 0
M  V30 4182 H 449.905 1.02182 3.94997 0
M  V30 4183 H 448.58 2.11378 3.58179 0
M  V30 4184 H 447.157 0.287378 3.71791 0
M  V30 4185 N 449.342 -1.36122 0.79427 0
M  V30 4186 C 450.59 -1.98718 0.368177 0
M  V30 4187 C 450.911 -1.63345 -1.06506 0
M  V30 4188 O 450.181 -0.909825 -1.73491 0
M  V30 4189 H 448.761 -0.735038 0.133146 0
M  V30 4190 H 451.423 -1.66239 1.01739 0
M  V30 4191 H 450.519 -3.08633 0.463923 0
M  V30 4192 N 450.82 -0.546701 -1.47814 0
M  V30 4193 C 452.097 0.0464413 -1.95545 0
M  V30 4194 C 452.477 1.4962 -1.48919 0
M  V30 4195 O 451.825 2.16752 -0.723232 0
M  V30 4196 C 452.035 -0.0881298 -3.48889 0
M  V30 4197 C 453.383 0.0626059 -4.24554 0
M  V30 4198 O 454.407 -0.0151555 -3.56197 0
M  V30 4199 O 453.266 0.228071 -5.46024 0
M  V30 4200 H 450.36 0.0700004 -0.824032 0
M  V30 4201 H 452.906 -0.612482 -1.58262 0
M  V30 4202 H 451.678 -1.09737 -3.75597 0
M  V30 4203 H 451.301 0.608886 -3.9291 0
M  V30 4204 N 452.299 1.55045 -0.282633 0
M  V30 4205 C 453.545 2.00056 0.332481 0
M  V30 4206 C 453.878 1.1708 1.54939 0
M  V30 4207 O 453.153 0.2427 1.9298 0
M  V30 4208 C 453.436 3.53086 0.70725 0
M  V30 4209 C 453.289 4.46813 -0.517521 0
M  V30 4210 C 454.608 4.12245 1.54084 0
M  V30 4211 H 451.727 0.727268 0.119373 0
M  V30 4212 H 454.369 1.85932 -0.391076 0
M  V30 4213 H 452.519 3.65253 1.32372 0
M  V30 4214 H 454.191 4.46579 -1.15607 0
M  V30 4215 H 452.434 4.18163 -1.1542 0
M  V30 4216 H 453.105 5.51595 -0.211426 0
M  V30 4217 H 455.581 4.03401 1.02013 0
M  V30 4218 H 454.457 5.19515 1.77186 0
M  V30 4219 H 454.718 3.62951 2.52427 0
M  V30 4220 N 453.777 0.010035 1.57597 0
M  V30 4221 C 454.725 -0.996272 2.10184 0
M  V30 4222 C 455.719 -1.34942 1.02406 0
M  V30 4223 O 456.925 -1.33389 1.20861 0
M  V30 4224 H 453.3 -0.338982 0.671264 0
M  V30 4225 H 455.271 -0.527272 2.93705 0
M  V30 4226 C 454.02 -2.27599 2.62857 0
M  V30 4227 H 453.343 -2.01295 3.45428 0
M  V30 4228 H 454.783 -2.96265 3.0332 0
M  V30 4229 C 453.242 -2.99269 1.54725 0
M  V30 4230 O 453.772 -3.90644 0.93597 0
M  V30 4231 N 451.978 -2.61269 1.27228 0
M  V30 4232 H 451.525 -1.87043 1.77123 0
M  V30 4233 H 451.483 -3.09534 0.550999 0
M  V30 4234 N 455.255 -1.55392 -0.262866 0
M  V30 4235 C 456.501 -1.76737 -0.99458 0
M  V30 4236 C 456.834 -0.572453 -1.85571 0
M  V30 4237 O 456.109 0.429732 -1.89693 0
M  V30 4238 C 456.392 -3.07824 -1.8686 0
M  V30 4239 C 456.245 -4.3769 -1.03672 0
M  V30 4240 C 457.564 -3.35021 -2.85393 0
M  V30 4241 H 454.683 -0.643005 -0.360157 0
M  V30 4242 H 457.325 -1.88126 -0.266216 0
M  V30 4243 H 455.475 -2.98245 -2.48962 0
M  V30 4244 H 457.147 -4.59238 -0.43563 0
M  V30 4245 H 455.39 -4.32461 -0.340513 0
M  V30 4246 H 456.061 -5.25759 -1.6817 0
M  V30 4247 H 458.537 -3.44458 -2.33426 0
M  V30 4248 H 457.413 -4.27989 -3.43681 0
M  V30 4249 H 457.674 -2.55153 -3.61039 0
M  V30 4250 N 456.733 0.527833 -1.48498 0
M  V30 4251 C 457.643 1.65907 -1.65867 0
M  V30 4252 C 458.659 1.6537 -0.541192 0
M  V30 4253 O 459.835 1.84282 -0.812534 0
M  V30 4254 C 456.9 3.02364 -1.69637 0
M  V30 4255 C 455.961 3.1374 -2.93028 0
M  V30 4256 C 455.194 4.43688 -2.96609 0
M  V30 4257 O 455.417 5.30913 -2.08538 0
M  V30 4258 O 454.351 4.59475 -3.88802 0
M  V30 4259 H 458.177 1.5419 -2.61647 0
M  V30 4260 H 455.762 0.701163 -1.31924 0
M  V30 4261 H 457.644 3.83515 -1.74625 0
M  V30 4262 H 456.319 3.14401 -0.770312 0
M  V30 4263 H 455.226 2.31877 -2.93571 0
M  V30 4264 H 456.559 3.06621 -3.85026 0
M  V30 4265 N 458.211 1.37122 0.776871 0
M  V30 4266 C 459.46 1.31373 1.53049 0
M  V30 4267 C 459.773 -0.101016 1.95339 0
M  V30 4268 O 460.979 -0.280953 2.70042 0
M  V30 4269 C 459.435 2.30567 2.76346 0
M  V30 4270 C 459.043 3.77543 2.41175 0
M  V30 4271 C 460.787 2.33818 3.54301 0
M  V30 4272 C 458.694 4.68481 3.60943 0
M  V30 4273 H 457.624 0.488234 0.574581 0
M  V30 4274 H 460.275 1.62554 0.851372 0
M  V30 4275 H 458.657 1.92396 3.46121 0
M  V30 4276 H 459.831 4.24521 1.79216 0
M  V30 4277 H 458.146 3.77187 1.76405 0
M  V30 4278 H 460.743 2.98965 4.4331 0
M  V30 4279 H 461.086 1.3503 3.93793 0
M  V30 4280 H 461.619 2.7067 2.91518 0
M  V30 4281 H 458.358 5.68378 3.26537 0
M  V30 4282 H 457.878 4.2621 4.22025 0
M  V30 4283 H 459.557 4.85366 4.27819 0
M  V30 4284 N 459.689 -1.00246 1.21608 0
M  V30 4285 C 460.637 -2.11193 0.97469 0
M  V30 4286 C 461.631 -1.69216 -0.0789303 0
M  V30 4287 O 462.837 -1.79853 0.0726806 0
M  V30 4288 H 459.212 -0.690455 0.297953 0
M  V30 4289 H 461.183 -2.2873 1.91638 0
M  V30 4290 C 459.932 -3.43182 0.558717 0
M  V30 4291 H 459.255 -3.75918 1.3611 0
M  V30 4292 H 460.695 -4.21823 0.429154 0
M  V30 4293 C 459.154 -3.28882 -0.730648 0
M  V30 4294 O 459.684 -3.59835 -1.78554 0
M  V30 4295 N 457.89 -2.8209 -0.698131 0
M  V30 4296 H 457.437 -2.57099 0.16061 0
M  V30 4297 H 457.395 -2.72903 -1.56113 0
M  V30 4298 N 461.167 -1.02423 -1.1978 0
M  V30 4299 C 462.413 -0.719051 -1.89625 0
M  V30 4300 C 462.746 0.750083 -1.7913 0
M  V30 4301 O 462.021 1.54574 -1.18056 0
M  V30 4302 C 462.304 -1.16499 -3.40735 0
M  V30 4303 C 462.157 -2.695 -3.60125 0
M  V30 4304 C 463.476 -0.742166 -4.33797 0
M  V30 4305 H 460.595 -0.26269 -0.688595 0
M  V30 4306 H 463.237 -1.27333 -1.41018 0
M  V30 4307 H 461.387 -0.69341 -3.82262 0
M  V30 4308 H 463.059 -3.24569 -3.278 0
M  V30 4309 H 461.302 -3.10113 -3.03336 0
M  V30 4310 H 461.973 -2.95757 -4.66081 0
M  V30 4311 H 464.449 -1.1477 -3.99959 0
M  V30 4312 H 463.325 -1.08213 -5.38127 0
M  V30 4313 H 463.586 0.355747 -4.40666 0
M  V30 4314 N 462.645 1.35699 -0.801477 0
M  V30 4315 C 463.608 2.28199 -0.213994 0
M  V30 4316 C 464.608 1.49359 0.595691 0
M  V30 4317 O 465.798 1.69186 0.414921 0
M  V30 4318 C 462.93 3.33587 0.702297 0
M  V30 4319 H 464.123 2.81666 -1.02976 0
M  V30 4320 H 461.676 1.45467 -0.571759 0
M  V30 4321 H 462.411 2.85297 1.54195 0
M  V30 4322 H 462.196 3.91906 0.123484 0
M  V30 4323 H 463.686 4.02638 1.10783 0
M  V30 4324 N 464.123 0.554532 1.47522 0
M  V30 4325 C 465.534 0.120446 1.86311 0
M  V30 4326 C 465.885 -1.30904 1.46145 0
M  V30 4327 O 465.01 -1.98434 0.863294 0
M  V30 4328 C 465.605 0.211808 3.38137 0
M  V30 4329 C 464.164 -0.167224 3.76028 0
M  V30 4330 C 463.311 0.560576 2.71575 0
M  V30 4331 H 466.262 0.764408 1.39077 0
M  V30 4332 H 466.283 -0.570275 3.76202 0
M  V30 4333 H 465.795 1.25232 3.6734 0
M  V30 4334 H 463.896 -1.20894 3.52442 0
M  V30 4335 H 464.009 0.189473 4.78725 0
M  V30 4336 H 462.373 0.00396836 2.547 0
M  V30 4337 H 463.156 1.60219 3.0362 0
M  V30 4338 N 465.601 -1.54893 0.290851 0
M  V30 4339 C 466.849 -1.99538 -0.320756 0
M  V30 4340 C 467.17 -1.18075 -1.55188 0
M  V30 4341 O 466.44 -0.274162 -1.93972 0
M  V30 4342 H 465.02 -0.737052 -0.121507 0
M  V30 4343 H 467.682 -1.90755 0.399832 0
M  V30 4344 H 466.778 -3.06282 -0.599802 0
M  V30 4345 N 467.08 -0.0183926 -1.57589 0
M  V30 4346 C 468.027 0.967022 -2.09565 0
M  V30 4347 C 468.997 1.32983 -0.995225 0
M  V30 4348 O 470.182 1.42501 -1.26878 0
M  V30 4349 C 467.322 2.24772 -2.61861 0
M  V30 4350 C 466.435 1.94232 -3.85873 0
M  V30 4351 C 465.57 3.16518 -4.26603 0
M  V30 4352 C 464.609 2.81748 -5.43401 0
M  V30 4353 N 463.746 3.96626 -5.79338 0
M  V30 4354 H 468.586 0.516874 -2.93483 0
M  V30 4355 H 466.123 0.243544 -1.4507 0
M  V30 4356 H 468.081 2.99667 -2.90268 0
M  V30 4357 H 466.711 2.67423 -1.8079 0
M  V30 4358 H 465.763 1.09625 -3.64262 0
M  V30 4359 H 467.075 1.64616 -4.70853 0
M  V30 4360 H 466.229 3.99743 -4.56389 0
M  V30 4361 H 464.968 3.49286 -3.40368 0
M  V30 4362 H 463.973 1.96933 -5.1332 0
M  V30 4363 H 465.198 2.50207 -6.31327 0
M  V30 4364 H 463.144 4.29257 -4.96059 0
M  V30 4365 H 463.061 3.70598 -6.58933 0
M  V30 4366 H 464.329 4.80586 -6.13724 0
M  V30 4367 N 468.558 1.5553 0.254621 0
M  V30 4368 C 469.835 1.6774 1.00611 0
M  V30 4369 C 470.215 0.555993 2.03647 0
M  V30 4370 O 469.563 -0.441583 2.24193 0
M  V30 4371 C 469.773 3.07725 1.6464 0
M  V30 4372 C 471.121 3.66074 2.15116 0
M  V30 4373 O 472.145 3.10476 1.74595 0
M  V30 4374 O 471.004 4.63526 2.89493 0
M  V30 4375 H 468.098 0.681958 0.467828 0
M  V30 4376 H 470.644 1.67863 0.24902 0
M  V30 4377 H 469.416 3.80792 0.900734 0
M  V30 4378 H 469.039 3.1158 2.46989 0
M  V30 4379 N 470.036 -0.519951 1.48776 0
M  V30 4380 C 470.966 -1.63253 1.66945 0
M  V30 4381 C 471.947 -1.62014 0.518224 0
M  V30 4382 O 473.132 -1.79053 0.751919 0
M  V30 4383 C 470.262 -3.0181 1.71836 0
M  V30 4384 C 469.216 -3.17911 2.8656 0
M  V30 4385 C 468.542 -4.5763 2.76548 0
M  V30 4386 C 469.842 -2.99729 4.27738 0
M  V30 4387 H 471.536 -1.48302 2.6009 0
M  V30 4388 H 469.082 -0.712026 1.25165 0
M  V30 4389 H 471.035 -3.79525 1.83135 0
M  V30 4390 H 469.759 -3.17806 0.752775 0
M  V30 4391 H 468.418 -2.42616 2.74833 0
M  V30 4392 H 468.066 -4.70476 1.77937 0
M  V30 4393 H 467.766 -4.69346 3.53536 0
M  V30 4394 H 469.29 -5.37431 2.89828 0
M  V30 4395 H 470.704 -3.67228 4.40246 0
M  V30 4396 H 469.101 -3.22932 5.05801 0
M  V30 4397 H 470.171 -1.96047 4.43502 0
M  V30 4398 N 471.514 -1.37532 -0.769588 0
M  V30 4399 C 472.742 -1.36059 -1.55871 0
M  V30 4400 C 473.157 0.053544 -1.88724 0
M  V30 4401 O 472.514 1.01591 -1.5161 0
M  V30 4402 C 472.565 -2.20107 -2.86767 0
M  V30 4403 O 472.286 -3.56009 -2.55321 0
M  V30 4404 C 473.787 -2.26636 -3.80987 0
M  V30 4405 H 471.007 -0.465967 -0.482821 0
M  V30 4406 H 473.551 -1.80901 -0.953686 0
M  V30 4407 H 471.706 -1.78768 -3.43687 0
M  V30 4408 H 472.12 -4.0009 -3.39158 0
M  V30 4409 H 473.594 -2.89763 -4.69831 0
M  V30 4410 H 474.071 -1.2754 -4.20274 0
M  V30 4411 H 474.677 -2.68296 -3.29996 0
M  V30 4412 N 472.992 0.995999 -1.22138 0
M  V30 4413 C 473.939 2.08551 -0.988687 0
M  V30 4414 C 474.909 1.65864 0.0885021 0
M  V30 4415 O 476.094 1.90704 -0.0604589 0
M  V30 4416 C 473.234 3.40374 -0.569191 0
M  V30 4417 C 472.347 3.96421 -1.71681 0
M  V30 4418 C 471.482 5.1639 -1.2456 0
M  V30 4419 C 470.521 5.64567 -2.36497 0
M  V30 4420 N 469.658 6.75777 -1.90445 0
M  V30 4421 H 474.498 2.2779 -1.92135 0
M  V30 4422 H 472.035 1.1168 -0.957388 0
M  V30 4423 H 473.993 4.16068 -0.307166 0
M  V30 4424 H 472.623 3.21145 0.326462 0
M  V30 4425 H 471.675 3.17628 -2.09324 0
M  V30 4426 H 472.987 4.2816 -2.55891 0
M  V30 4427 H 472.141 5.99362 -0.940774 0
M  V30 4428 H 470.88 4.86266 -0.373662 0
M  V30 4429 H 469.885 4.80185 -2.67772 0
M  V30 4430 H 471.11 5.96716 -3.24202 0
M  V30 4431 H 469.056 6.47443 -1.05609 0
M  V30 4432 H 468.973 7.06818 -2.68223 0
M  V30 4433 H 470.241 7.62262 -1.63022 0
M  V30 4434 N 474.47 1.03057 1.19235 0
M  V30 4435 C 475.698 0.747697 1.92917 0
M  V30 4436 C 476.113 -0.69372 1.75593 0
M  V30 4437 O 475.47 -1.47191 1.07894 0
M  V30 4438 C 475.521 1.09159 3.44625 0
M  V30 4439 O 475.242 2.47641 3.61394 0
M  V30 4440 C 476.743 0.831763 4.35427 0
M  V30 4441 H 473.963 0.273453 0.612751 0
M  V30 4442 H 476.507 1.37552 1.51327 0
M  V30 4443 H 474.662 0.508919 3.84043 0
M  V30 4444 H 475.076 2.60499 4.55237 0
M  V30 4445 H 476.55 1.12233 5.4047 0
M  V30 4446 H 477.027 -0.233769 4.38577 0
M  V30 4447 H 477.633 1.39725 4.01693 0
M  V30 4448 N 475.948 -1.35272 0.808662 0
M  V30 4449 C 476.878 -2.32315 0.234981 0
M  V30 4450 C 477.859 -1.57572 -0.64071 0
M  V30 4451 O 479.044 -1.8563 -0.570551 0
M  V30 4452 C 476.174 -3.41801 -0.615601 0
M  V30 4453 C 475.128 -4.27694 0.161767 0
M  V30 4454 C 474.454 -5.28519 -0.810649 0
M  V30 4455 C 475.754 -5.04231 1.36193 0
M  V30 4456 H 477.448 -2.80543 1.04575 0
M  V30 4457 H 474.994 -1.3488 0.504315 0
M  V30 4458 H 476.947 -4.08693 -1.02702 0
M  V30 4459 H 475.671 -2.92186 -1.45928 0
M  V30 4460 H 474.33 -3.62384 0.554382 0
M  V30 4461 H 473.978 -4.75171 -1.64988 0
M  V30 4462 H 473.678 -5.8686 -0.294822 0
M  V30 4463 H 475.202 -5.98283 -1.22023 0
M  V30 4464 H 476.616 -5.64058 1.02528 0
M  V30 4465 H 475.013 -5.72077 1.81239 0
M  V30 4466 H 476.083 -4.34753 2.14751 0
M  V30 4467 N 477.426 -0.562348 -1.47226 0
M  V30 4468 C 478.374 0.195476 -2.31777 0
M  V30 4469 C 479.368 0.90433 -1.43242 0
M  V30 4470 O 480.574 0.825031 -1.59979 0
M  V30 4471 H 476.949 0.0819095 -0.747526 0
M  V30 4472 H 478.92 -0.536753 -2.93533 0
M  V30 4473 C 477.669 1.20902 -3.26003 0
M  V30 4474 H 476.992 0.672997 -3.94095 0
M  V30 4475 H 478.432 1.71006 -3.87986 0
M  V30 4476 C 476.891 2.25955 -2.49891 0
M  V30 4477 O 477.421 3.32969 -2.2471 0
M  V30 4478 N 475.627 2.00019 -2.1081 0
M  V30 4479 H 475.174 1.13006 -2.31489 0
M  V30 4480 H 475.132 2.70523 -1.60201 0
M  V30 4481 N 478.904 1.54736 -0.299062 0
M  V30 4482 C 480.181 1.92187 0.363802 0
M  V30 4483 C 480.561 1.22607 1.71845 0
M  V30 4484 O 479.909 0.361141 2.25628 0
M  V30 4485 C 480.119 3.45678 0.480377 0
M  V30 4486 C 481.467 4.17885 0.752147 0
M  V30 4487 O 482.491 3.51702 0.564264 0
M  V30 4488 O 481.35 5.35048 1.11294 0
M  V30 4489 H 478.444 0.801681 0.203066 0
M  V30 4490 H 480.99 1.66115 -0.346978 0
M  V30 4491 H 479.762 3.88443 -0.471999 0
M  V30 4492 H 479.385 3.77779 1.2397 0
M  V30 4493 N 480.382 0.0267497 1.57577 0
M  V30 4494 C 481.315 -0.99059 2.05579 0
M  V30 4495 C 482.293 -1.31884 0.951065 0
M  V30 4496 O 483.477 -1.43592 1.22121 0
M  V30 4497 C 480.604 -2.31125 2.47586 0
M  V30 4498 C 479.65 -2.13777 3.69055 0
M  V30 4499 S 480.483 -1.4388 5.15809 0
M  V30 4500 C 481.639 -2.77321 5.6111 0
M  V30 4501 H 481.872 -0.581976 2.91548 0
M  V30 4502 H 479.405 -0.184876 1.53289 0
M  V30 4503 H 481.363 -3.07049 2.72454 0
M  V30 4504 H 480.024 -2.6912 1.61967 0
M  V30 4505 H 479.217 -3.11405 3.96287 0
M  V30 4506 H 478.819 -1.45996 3.44327 0
M  V30 4507 H 481.111 -3.73565 5.65204 0
M  V30 4508 H 482.054 -2.54756 6.60685 0
M  V30 4509 H 482.462 -2.82459 4.88751 0
M  V30 4510 N 481.861 -1.55662 -0.24637 0
M  V30 4511 C 483.277 -1.48098 -0.594907 0
M  V30 4512 C 483.477 -0.717044 -1.8831 0
M  V30 4513 O 482.533 -0.246618 -2.51293 0
M  V30 4514 C 483.846 -2.92507 -0.697146 0
M  V30 4515 C 485.394 -3.02881 -0.789436 0
M  V30 4516 C 485.869 -4.48598 -0.923232 0
M  V30 4517 N 487.36 -4.52538 -0.988088 0
M  V30 4518 C 488.095 -5.62536 -1.11089 0
M  V30 4519 N 487.591 -6.82342 -1.19919 0
M  V30 4520 N 489.384 -5.50334 -1.14408 0
M  V30 4521 H 481.535 -2.0377 0.599278 0
M  V30 4522 H 483.798 -0.925145 0.20691 0
M  V30 4523 H 483.504 -3.51242 0.179396 0
M  V30 4524 H 483.378 -3.43024 -1.5689 0
M  V30 4525 H 485.765 -2.44226 -1.65643 0
M  V30 4526 H 485.846 -2.55574 0.107482 0
M  V30 4527 H 485.49 -5.07864 -0.0607927 0
M  V30 4528 H 485.42 -4.93587 -1.8352 0
M  V30 4529 H 487.911 -3.66248 -0.931167 0
M  V30 4530 H 488.224 -7.61924 -1.29197 0
M  V30 4531 H 486.569 -6.85102 -1.16876 0
M  V30 4532 H 489.76 -4.5567 -1.07158 0
M  V30 4533 H 489.933 -6.36096 -1.23634 0
M  V30 4534 N 483.339 0.512053 -1.4905 0
M  V30 4535 C 484.271 1.63121 -1.6101 0
M  V30 4536 C 485.284 1.55145 -0.493352 0
M  V30 4537 O 486.473 1.61278 -0.764955 0
M  V30 4538 C 483.573 3.01863 -1.54052 0
M  V30 4539 C 482.746 3.35138 -2.81072 0
M  V30 4540 C 481.805 4.5324 -2.67319 0
M  V30 4541 O 480.831 4.55571 -3.41238 0
M  V30 4542 N 482.033 5.52495 -1.78127 0
M  V30 4543 H 484.798 1.53292 -2.5753 0
M  V30 4544 H 482.359 0.699706 -1.45999 0
M  V30 4545 H 484.351 3.78774 -1.42521 0
M  V30 4546 H 482.921 3.05675 -0.654345 0
M  V30 4547 H 482.141 2.4723 -3.07036 0
M  V30 4548 H 483.429 3.54162 -3.65304 0
M  V30 4549 H 482.827 5.53403 -1.17308 0
M  V30 4550 H 481.384 6.28553 -1.72525 0
M  V30 4551 N 484.817 1.37938 0.762283 0
M  V30 4552 C 485.727 1.36681 1.90671 0
M  V30 4553 C 486.743 0.265078 1.71969 0
M  V30 4554 O 487.919 0.502055 1.95042 0
M  V30 4555 C 484.984 1.18211 3.25925 0
M  V30 4556 C 484.045 2.3811 3.57214 0
M  V30 4557 C 483.278 2.20512 4.86014 0
M  V30 4558 O 483.501 1.19429 5.57757 0
M  V30 4559 O 482.435 3.08911 5.16583 0
M  V30 4560 H 486.261 2.33091 1.94685 0
M  V30 4561 H 483.846 1.18767 0.906356 0
M  V30 4562 H 485.728 1.09937 4.06807 0
M  V30 4563 H 484.403 0.248807 3.22742 0
M  V30 4564 H 483.31 2.51958 2.76529 0
M  V30 4565 H 484.643 3.30041 3.65149 0
M  V30 4566 N 486.295 -0.989507 1.22664 0
M  V30 4567 C 487.525 -1.7624 1.0781 0
M  V30 4568 C 487.933 -1.85466 -0.374036 0
M  V30 4569 O 487.276 -1.32645 -1.27087 0
M  V30 4570 C 487.338 -3.21007 1.61849 0
M  V30 4571 C 487.002 -3.35316 3.10503 0
M  V30 4572 C 487.999 -3.22362 4.07896 0
M  V30 4573 C 485.684 -3.60258 3.50028 0
M  V30 4574 C 487.678 -3.34139 5.42798 0
M  V30 4575 C 485.365 -3.71676 4.85078 0
M  V30 4576 C 486.363 -3.58625 5.81272 0
M  V30 4577 O 486.051 -3.69655 7.1387 0
M  V30 4578 H 485.783 -0.560209 0.378341 0
M  V30 4579 H 488.337 -1.25252 1.62792 0
M  V30 4580 H 486.567 -3.73202 1.01279 0
M  V30 4581 H 488.256 -3.80024 1.42606 0
M  V30 4582 H 489.022 -3.03 3.78703 0
M  V30 4583 H 484.901 -3.69492 2.75675 0
M  V30 4584 H 488.445 -3.23869 6.17863 0
M  V30 4585 H 484.342 -3.90545 5.1395 0
M  V30 4586 H 485.11 -3.86507 7.21495 0
M  V30 4587 N 487.773 -1.03688 -1.18687 0
M  V30 4588 C 488.683 -0.634908 -2.25845 0
M  V30 4589 C 489.699 0.337065 -1.70704 0
M  V30 4590 O 490.875 0.192943 -2.00474 0
M  V30 4591 C 487.94 -0.000180054 -3.467 0
M  V30 4592 C 487.001 -1.02067 -4.1699 0
M  V30 4593 C 486.234 -0.41614 -5.32075 0
M  V30 4594 O 486.457 0.778712 -5.65059 0
M  V30 4595 O 485.391 -1.14296 -5.90948 0
M  V30 4596 H 489.217 -1.52757 -2.62486 0
M  V30 4597 H 486.802 -0.807533 -1.25695 0
M  V30 4598 H 488.684 0.353342 -4.19916 0
M  V30 4599 H 487.359 0.866367 -3.11891 0
M  V30 4600 H 486.266 -1.42592 -3.45859 0
M  V30 4601 H 487.599 -1.85786 -4.5579 0
M  V30 4602 N 489.251 1.34841 -0.815825 0
M  V30 4603 C 490.183 2.28409 -0.190265 0
M  V30 4604 C 491.196 1.50705 0.615771 0
M  V30 4605 O 492.385 1.72822 0.446616 0
M  V30 4606 C 489.485 3.30441 0.752446 0
M  V30 4607 C 488.658 4.37399 -0.00922152 0
M  V30 4608 C 487.717 5.19234 0.853351 0
M  V30 4609 O 486.743 5.68404 0.300919 0
M  V30 4610 N 487.945 5.38248 2.17416 0
M  V30 4611 H 490.71 2.82732 -0.994114 0
M  V30 4612 H 488.271 1.47289 -0.672129 0
M  V30 4613 H 490.263 3.82084 1.33394 0
M  V30 4614 H 488.833 2.76565 1.45707 0
M  V30 4615 H 488.053 3.86567 -0.771979 0
M  V30 4616 H 489.341 5.05992 -0.533807 0
M  V30 4617 H 488.739 4.99961 2.6468 0
M  V30 4618 H 487.296 5.93035 2.70467 0
M  V30 4619 N 490.729 0.570148 1.46925 0
M  V30 4620 C 491.659 -0.158274 2.32963 0
M  V30 4621 C 492.64 -0.896093 1.44583 0
M  V30 4622 O 493.825 -0.874022 1.7342 0
M  V30 4623 C 490.955 -1.18055 3.26619 0
M  V30 4624 C 489.909 -0.558379 4.24342 0
M  V30 4625 C 489.235 -1.68623 5.07415 0
M  V30 4626 C 490.535 0.496295 5.19937 0
M  V30 4627 H 492.229 0.560046 2.94115 0
M  V30 4628 H 489.775 0.270775 1.41431 0
M  V30 4629 H 491.728 -1.69841 3.85658 0
M  V30 4630 H 490.452 -1.92899 2.63548 0
M  V30 4631 H 489.111 -0.0617157 3.66548 0
M  V30 4632 H 488.759 -2.42402 4.40738 0
M  V30 4633 H 488.459 -1.27564 5.73586 0
M  V30 4634 H 489.983 -2.20709 5.69315 0
M  V30 4635 H 491.397 0.0640052 5.73264 0
M  V30 4636 H 489.794 0.82649 5.94381 0
M  V30 4637 H 490.864 1.38735 4.6463 0
M  V30 4638 N 492.207 -1.54576 0.307264 0
M  V30 4639 C 493.456 -1.99442 -0.300976 0
M  V30 4640 C 493.769 -1.19928 -1.5452 0
M  V30 4641 O 494.975 -1.55092 -2.22842 0
M  V30 4642 C 493.431 -3.55084 -0.586809 0
M  V30 4643 C 493.039 -4.43413 0.639438 0
M  V30 4644 C 494.783 -4.0846 -1.1559 0
M  V30 4645 C 492.69 -5.90499 0.326411 0
M  V30 4646 H 491.62 -0.744986 -0.116238 0
M  V30 4647 H 494.271 -1.787 0.416947 0
M  V30 4648 H 492.653 -3.71749 -1.36449 0
M  V30 4649 H 493.827 -4.38522 1.41545 0
M  V30 4650 H 492.142 -4.00842 1.1276 0
M  V30 4651 H 494.739 -5.15926 -1.40445 0
M  V30 4652 H 495.082 -3.59443 -2.10015 0
M  V30 4653 H 495.615 -3.95362 -0.439778 0
M  V30 4654 H 492.354 -6.43676 1.23939 0
M  V30 4655 H 491.874 -5.98382 -0.412212 0
M  V30 4656 H 493.553 -6.46962 -0.0697393 0
M  V30 4657 N 493.685 -0.035106 -1.57561 0
M  V30 4658 C 494.648 0.929819 -2.09492 0
M  V30 4659 C 495.648 1.25026 -1.01119 0
M  V30 4660 O 496.838 1.18961 -1.27255 0
M  V30 4661 C 493.97 2.24457 -2.56577 0
M  V30 4662 H 495.163 0.479935 -2.96035 0
M  V30 4663 H 492.716 0.213033 -1.54841 0
M  V30 4664 H 493.451 2.74061 -1.73382 0
M  V30 4665 H 493.236 2.02508 -3.35757 0
M  V30 4666 H 494.726 2.93607 -2.96959 0
M  V30 4667 N 495.163 1.55791 0.238111 0
M  V30 4668 C 496.11 1.9105 1.29493 0
M  V30 4669 C 497.08 0.765733 1.47397 0
M  V30 4670 O 498.265 1.02017 1.61236 0
M  V30 4671 C 495.405 2.21826 2.64362 0
M  V30 4672 C 494.518 3.49153 2.54394 0
M  V30 4673 C 493.653 3.69455 3.81676 0
M  V30 4674 C 492.692 4.90353 3.66361 0
M  V30 4675 N 491.829 5.07131 4.85554 0
M  V30 4676 H 496.669 2.81172 0.987233 0
M  V30 4677 H 494.206 1.39179 0.476203 0
M  V30 4678 H 496.164 2.37675 3.4288 0
M  V30 4679 H 494.794 1.34897 2.93262 0
M  V30 4680 H 493.846 3.41587 1.67399 0
M  V30 4681 H 495.158 4.37818 2.38991 0
M  V30 4682 H 494.312 3.85311 4.68636 0
M  V30 4683 H 493.051 2.7904 3.99985 0
M  V30 4684 H 492.056 4.74464 2.77784 0
M  V30 4685 H 493.281 5.82237 3.49538 0
M  V30 4686 H 491.227 4.19654 5.04209 0
M  V30 4687 H 491.144 5.89899 4.72816 0
M  V30 4688 H 492.412 5.27407 5.73988 0
M  V30 4689 N 496.642 -0.504142 1.49319 0
M  V30 4690 C 497.59 -1.62689 1.66238 0
M  V30 4691 C 498.584 -1.6095 0.528349 0
M  V30 4692 O 499.79 -1.65496 0.707887 0
M  V30 4693 H 496.165 -0.539247 0.524134 0
M  V30 4694 H 498.136 -1.45571 2.60484 0
M  V30 4695 C 496.885 -3.00841 1.74328 0
M  V30 4696 H 496.208 -3.02884 2.60963 0
M  V30 4697 H 497.648 -3.78945 1.90202 0
M  V30 4698 C 496.107 -3.33355 0.487416 0
M  V30 4699 O 496.637 -3.99819 -0.388294 0
M  V30 4700 N 494.843 -2.88469 0.351306 0
M  V30 4701 H 494.39 -2.34557 1.06492 0
M  V30 4702 H 494.348 -3.10591 -0.487899 0
M  V30 4703 N 498.12 -1.38341 -0.754957 0
M  V30 4704 C 499.536 -1.19508 -1.05783 0
M  V30 4705 C 499.736 -0.0428005 -2.01455 0
M  V30 4706 O 498.792 0.611861 -2.44975 0
M  V30 4707 C 500.105 -2.52091 -1.63923 0
M  V30 4708 C 501.653 -2.58762 -1.76101 0
M  V30 4709 C 502.128 -3.91517 -2.37652 0
M  V30 4710 N 503.619 -3.93049 -2.45085 0
M  V30 4711 C 504.354 -4.9253 -2.93602 0
M  V30 4712 N 503.85 -6.02408 -3.42165 0
M  V30 4713 N 505.643 -4.79921 -2.92629 0
M  V30 4714 H 497.794 -2.1206 -0.120056 0
M  V30 4715 H 500.057 -0.94089 -0.11589 0
M  V30 4716 H 499.763 -3.36858 -1.01093 0
M  V30 4717 H 499.637 -2.70388 -2.63003 0
M  V30 4718 H 502.024 -1.74391 -2.38058 0
M  V30 4719 H 502.105 -2.44333 -0.757294 0
M  V30 4720 H 501.749 -4.76309 -1.76329 0
M  V30 4721 H 501.679 -4.03256 -3.38662 0
M  V30 4722 H 504.17 -3.13685 -2.10736 0
M  V30 4723 H 504.483 -6.74248 -3.77637 0
M  V30 4724 H 502.828 -6.0603 -3.40225 0
M  V30 4725 H 506.019 -3.93194 -2.54001 0
M  V30 4726 H 506.192 -5.57601 -3.30128 0
M  V30 4727 N 499.598 0.982988 -1.23187 0
M  V30 4728 C 500.545 2.07491 -1.01075 0
M  V30 4729 C 501.515 1.65949 0.070905 0
M  V30 4730 O 502.7 1.90629 -0.0806822 0
M  V30 4731 C 499.84 3.39751 -0.605261 0
M  V30 4732 C 498.953 3.94578 -1.75876 0
M  V30 4733 C 498.088 5.15039 -1.3003 0
M  V30 4734 C 497.127 5.62027 -2.42472 0
M  V30 4735 N 496.264 6.73719 -1.97602 0
M  V30 4736 H 501.104 2.25739 -1.9454 0
M  V30 4737 H 498.641 1.10659 -0.969179 0
M  V30 4738 H 500.599 4.15719 -0.351279 0
M  V30 4739 H 499.229 3.21473 0.292382 0
M  V30 4740 H 498.281 3.1539 -2.12681 0
M  V30 4741 H 499.593 4.25422 -2.60418 0
M  V30 4742 H 498.747 5.9833 -1.00429 0
M  V30 4743 H 497.486 4.85843 -0.425216 0
M  V30 4744 H 496.491 4.77318 -2.7285 0
M  V30 4745 H 497.716 5.93244 -3.30512 0
M  V30 4746 H 495.662 6.46287 -1.1247 0
M  V30 4747 H 495.579 7.03934 -2.75705 0
M  V30 4748 H 496.847 7.6049 -1.71098 0
M  V30 4749 N 501.076 1.04316 1.18135 0
M  V30 4750 C 502.353 0.662166 1.84051 0
M  V30 4751 C 502.733 -0.858169 1.9287 0
M  V30 4752 O 502.081 -1.76062 1.45652 0
M  V30 4753 C 502.291 1.3409 3.22212 0
M  V30 4754 C 503.639 1.4733 3.9822 0
M  V30 4755 O 504.663 1.29921 3.31661 0
M  V30 4756 O 503.522 1.75722 5.17479 0
M  V30 4757 H 500.616 0.232005 0.79379 0
M  V30 4758 H 503.162 1.1422 1.25506 0
M  V30 4759 H 501.934 2.37853 3.10711 0
M  V30 4760 H 501.557 0.849649 3.88416 0
M  V30 4761 N 502.554 -1.34406 0.822964 0
M  V30 4762 C 503.803 -1.97542 0.407458 0
M  V30 4763 C 504.116 -1.65973 -1.035 0
M  V30 4764 O 505.322 -2.22598 -1.55442 0
M  V30 4765 C 503.778 -3.53463 0.677623 0
M  V30 4766 C 503.386 -3.93925 2.1337 0
M  V30 4767 C 505.13 -4.23229 0.328284 0
M  V30 4768 C 503.037 -5.42759 2.34876 0
M  V30 4769 H 501.967 -0.739207 0.148623 0
M  V30 4770 H 504.618 -1.53248 1.00932 0
M  V30 4771 H 503 -3.96 0.00558965 0
M  V30 4772 H 504.174 -3.62494 2.8449 0
M  V30 4773 H 502.489 -3.37097 2.44448 0
M  V30 4774 H 505.086 -5.32659 0.466794 0
M  V30 4775 H 505.429 -4.09899 -0.727224 0
M  V30 4776 H 505.962 -3.86169 0.954896 0
M  V30 4777 H 502.701 -5.61075 3.38932 0
M  V30 4778 H 502.221 -5.75704 1.68299 0
M  V30 4779 H 503.9 -6.0944 2.17236 0
M  V30 4780 N 504.032 -0.577932 -1.46621 0
M  V30 4781 C 504.942 0.160651 -2.34049 0
M  V30 4782 C 505.958 0.890911 -1.49462 0
M  V30 4783 O 507.134 0.855166 -1.82343 0
M  V30 4784 C 504.199 1.16447 -3.26559 0
M  V30 4785 C 503.26 0.4394 -4.27045 0
M  V30 4786 C 502.493 1.3954 -5.15135 0
M  V30 4787 O 502.716 2.63162 -5.06065 0
M  V30 4788 O 501.65 0.908585 -5.95003 0
M  V30 4789 H 505.476 -0.557057 -2.98547 0
M  V30 4790 H 503.061 -0.338369 -1.45518 0
M  V30 4791 H 504.943 1.7434 -3.83645 0
M  V30 4792 H 503.618 1.86373 -2.64663 0
M  V30 4793 H 502.525 -0.181247 -3.73661 0
M  V30 4794 H 503.858 -0.218799 -4.91713 0
M  V30 4795 N 505.51 1.54411 -0.315457 0
M  V30 4796 C 506.458 2.25514 0.569771 0
M  V30 4797 C 507.452 1.2663 1.12522 0
M  V30 4798 O 508.658 1.44434 1.07419 0
M  V30 4799 H 505.033 0.724257 0.202376 0
M  V30 4800 H 507.004 2.98354 -0.0522895 0
M  V30 4801 C 505.753 3.02004 1.72305 0
M  V30 4802 H 505.076 3.77906 1.30488 0
M  V30 4803 H 506.516 3.55014 2.31821 0
M  V30 4804 C 504.975 2.09822 2.63583 0
M  V30 4805 O 505.505 1.67574 3.65078 0
M  V30 4806 N 503.711 1.75478 2.31637 0
M  V30 4807 H 503.258 2.10032 1.49145 0
M  V30 4808 H 503.216 1.14079 2.92973 0
M  V30 4809 N 506.988 0.0434614 1.5754 0
M  V30 4810 C 507.92 -0.962586 2.08007 0
M  V30 4811 C 508.933 -1.27972 1.00634 0
M  V30 4812 O 510.122 -1.24186 1.28219 0
M  V30 4813 C 507.222 -2.28621 2.50171 0
M  V30 4814 C 506.395 -2.15214 3.80791 0
M  V30 4815 C 505.454 -3.30633 4.09351 0
M  V30 4816 O 504.48 -3.0688 4.79388 0
M  V30 4817 N 505.682 -4.54873 3.60654 0
M  V30 4818 H 508.447 -0.531891 2.94942 0
M  V30 4819 H 506.008 -0.142965 1.61268 0
M  V30 4820 H 508 -3.04689 2.66359 0
M  V30 4821 H 506.57 -2.63283 1.68525 0
M  V30 4822 H 505.79 -1.23785 3.74261 0
M  V30 4823 H 507.078 -2.03475 4.66343 0
M  V30 4824 H 506.476 -4.77063 3.04019 0
M  V30 4825 H 505.033 -5.2806 3.82094 0
M  V30 4826 N 508.466 -1.55915 -0.229846 0
M  V30 4827 C 509.696 -1.82352 -0.971152 0
M  V30 4828 C 510.104 -0.619231 -1.7878 0
M  V30 4829 O 509.447 0.421597 -1.78797 0
M  V30 4830 C 509.509 -3.02399 -1.9441 0
M  V30 4831 C 509.173 -4.37739 -1.31277 0
M  V30 4832 C 510.17 -5.15074 -0.706757 0
M  V30 4833 C 507.855 -4.84454 -1.32702 0
M  V30 4834 C 509.849 -6.37281 -0.123413 0
M  V30 4835 C 507.536 -6.06605 -0.739831 0
M  V30 4836 C 508.534 -6.82858 -0.139071 0
M  V30 4837 O 508.222 -8.027 0.439007 0
M  V30 4838 H 507.954 -0.61035 -0.290601 0
M  V30 4839 H 510.508 -2.03839 -0.252746 0
M  V30 4840 H 508.738 -2.76709 -2.70128 0
M  V30 4841 H 510.427 -3.15779 -2.55026 0
M  V30 4842 H 511.193 -4.80093 -0.688131 0
M  V30 4843 H 507.072 -4.25081 -1.78402 0
M  V30 4844 H 510.616 -6.96741 0.346124 0
M  V30 4845 H 506.513 -6.4106 -0.755841 0
M  V30 4846 H 507.281 -8.17824 0.332521 0
M  V30 4847 N 509.944 0.496216 -1.49584 0
M  V30 4848 C 510.854 1.62352 -1.69349 0
M  V30 4849 C 511.87 1.64184 -0.576147 0
M  V30 4850 O 513.046 1.82517 -0.85144 0
M  V30 4851 C 510.111 2.98698 -1.76013 0
M  V30 4852 C 509.172 3.07454 -2.99617 0
M  V30 4853 C 508.405 4.37296 -3.05953 0
M  V30 4854 O 508.628 5.2637 -2.19752 0
M  V30 4855 O 507.562 4.51124 -3.9846 0
M  V30 4856 H 511.388 1.48606 -2.64859 0
M  V30 4857 H 508.973 0.673022 -1.33382 0
M  V30 4858 H 510.855 3.79725 -1.82721 0
M  V30 4859 H 509.53 3.12696 -0.836828 0
M  V30 4860 H 508.437 2.25597 -2.98424 0
M  V30 4861 H 509.77 2.98385 -3.91443 0
M  V30 4862 N 511.423 1.38739 0.74761 0
M  V30 4863 C 512.651 1.38521 1.53686 0
M  V30 4864 C 513.066 -0.0235129 1.88785 0
M  V30 4865 O 512.423 -0.991662 1.53207 0
M  V30 4866 C 512.474 2.24641 2.83229 0
M  V30 4867 O 512.195 3.60026 2.49625 0
M  V30 4868 C 513.696 2.32669 3.77333 0
M  V30 4869 H 510.916 0.473589 0.475347 0
M  V30 4870 H 513.46 1.82395 0.924786 0
M  V30 4871 H 511.615 1.84213 3.40799 0
M  V30 4872 H 512.029 4.05435 3.3275 0
M  V30 4873 H 513.503 2.97201 4.65162 0
M  V30 4874 H 513.98 1.3421 4.18192 0
M  V30 4875 H 514.586 2.73512 3.25685 0
M  V30 4876 N 512.901 -0.976442 1.23707 0
M  V30 4877 C 513.833 -2.07212 0.979574 0
M  V30 4878 C 514.846 -1.6273 -0.0478528 0
M  V30 4879 O 516.035 -1.77506 0.18815 0
M  V30 4880 C 513.135 -3.35835 0.45479 0
M  V30 4881 C 512.308 -4.09268 1.54331 0
M  V30 4882 C 511.367 -5.16166 1.02271 0
M  V30 4883 O 510.393 -5.42827 1.71254 0
M  V30 4884 N 511.595 -5.80313 -0.147419 0
M  V30 4885 H 514.36 -2.29878 1.92292 0
M  V30 4886 H 511.921 -1.14343 1.14618 0
M  V30 4887 H 513.913 -4.04597 0.0914631 0
M  V30 4888 H 512.483 -3.10106 -0.394068 0
M  V30 4889 H 511.703 -3.34906 2.07923 0
M  V30 4890 H 512.991 -4.55095 2.27522 0
M  V30 4891 H 512.389 -5.61043 -0.724353 0
M  V30 4892 H 510.946 -6.50231 -0.451972 0
M  V30 4893 N 514.379 -1.04941 -1.1758 0
M  V30 4894 C 515.628 -0.753124 -1.87112 0
M  V30 4895 C 515.941 0.722507 -1.81767 0
M  V30 4896 O 517.147 1.13265 -2.46746 0
M  V30 4897 C 515.603 -1.29695 -3.35719 0
M  V30 4898 C 515.211 -2.80184 -3.49572 0
M  V30 4899 C 516.955 -1.07759 -4.10595 0
M  V30 4900 C 514.862 -3.2788 -4.92187 0
M  V30 4901 H 513.792 -0.278034 -0.700866 0
M  V30 4902 H 516.443 -1.26637 -1.32798 0
M  V30 4903 H 514.825 -0.711522 -3.89555 0
M  V30 4904 H 515.999 -3.44561 -3.05965 0
M  V30 4905 H 514.314 -3.00632 -2.88113 0
M  V30 4906 H 516.911 -1.40899 -5.15802 0
M  V30 4907 H 517.254 -0.0152302 -4.16297 0
M  V30 4908 H 517.787 -1.62809 -3.62957 0
M  V30 4909 H 514.526 -4.33535 -4.91658 0
M  V30 4910 H 514.046 -2.68245 -5.36475 0
M  V30 4911 H 515.725 -3.22412 -5.60945 0
M  V30 4912 N 515.857 1.33968 -0.830081 0
M  V30 4913 C 517.085 2.0228 -0.434773 0
M  V30 4914 C 517.5 1.62487 0.961419 0
M  V30 4915 O 516.857 0.833849 1.62337 0
M  V30 4916 C 516.908 3.5751 -0.535625 0
M  V30 4917 O 516.629 3.95864 -1.87679 0
M  V30 4918 C 518.13 4.43091 -0.136137 0
M  V30 4919 H 515.35 0.648151 -0.173613 0
M  V30 4920 H 517.894 1.71089 -1.12022 0
M  V30 4921 H 516.049 3.87266 0.101817 0
M  V30 4922 H 516.463 4.9056 -1.85609 0
M  V30 4923 H 517.937 5.51398 -0.257772 0
M  V30 4924 H 518.414 4.29433 0.921076 0
M  V30 4925 H 519.02 4.18677 -0.747662 0
M  V30 4926 N 517.335 0.585699 1.46312 0
M  V30 4927 C 518.267 -0.183687 2.28463 0
M  V30 4928 C 519.28 -0.85264 1.38686 0
M  V30 4929 O 520.469 -0.721701 1.6326 0
M  V30 4930 C 517.569 -1.27977 3.13808 0
M  V30 4931 C 516.742 -0.702164 4.31727 0
M  V30 4932 C 515.801 -1.68633 4.98447 0
M  V30 4933 O 514.827 -1.22121 5.55945 0
M  V30 4934 N 516.029 -3.02047 4.95729 0
M  V30 4935 H 518.794 0.521127 2.95134 0
M  V30 4936 H 516.355 0.423673 1.56258 0
M  V30 4937 H 518.347 -1.9375 3.55307 0
M  V30 4938 H 516.917 -1.8874 2.4919 0
M  V30 4939 H 516.137 0.1331 3.93975 0
M  V30 4940 H 517.425 -0.296101 5.07938 0
M  V30 4941 H 516.823 -3.42457 4.50266 0
M  V30 4942 H 515.38 -3.63301 5.41161 0
M  V30 4943 N 518.813 -1.54241 0.323641 0
M  V30 4944 C 520.062 -1.9975 -0.279806 0
M  V30 4945 C 520.375 -1.2156 -1.5324 0
M  V30 4946 O 521.581 -1.57447 -2.21185 0
M  V30 4947 C 520.037 -3.55686 -0.549115 0
M  V30 4948 C 519.645 -4.4271 0.686432 0
M  V30 4949 C 521.389 -4.09663 -1.11251 0
M  V30 4950 C 519.296 -5.90119 0.389022 0
M  V30 4951 H 518.226 -0.746177 -0.10833 0
M  V30 4952 H 520.877 -1.78248 0.435877 0
M  V30 4953 H 519.259 -3.73176 -1.32499 0
M  V30 4954 H 520.433 -4.36996 1.46188 0
M  V30 4955 H 518.748 -3.99623 1.17005 0
M  V30 4956 H 521.345 -5.17386 -1.34965 0
M  V30 4957 H 521.688 -3.61651 -2.06191 0
M  V30 4958 H 522.221 -3.95806 -0.39782 0
M  V30 4959 H 518.96 -6.42326 1.30759 0
M  V30 4960 H 518.48 -5.98785 -0.348722 0
M  V30 4961 H 520.159 -6.47 -0.0011164 0
M  V30 4962 N 520.291 -0.0518155 -1.57515 0
M  V30 4963 C 521.201 0.937539 -2.15052 0
M  V30 4964 C 522.217 1.34121 -1.10849 0
M  V30 4965 O 523.393 1.418 -1.4302 0
M  V30 4966 C 520.458 2.19379 -2.68466 0
M  V30 4967 C 519.519 1.84841 -3.87469 0
M  V30 4968 C 518.752 3.04477 -4.38326 0
M  V30 4969 O 518.975 4.17868 -3.88256 0
M  V30 4970 O 517.909 2.85453 -5.29906 0
M  V30 4971 H 521.735 0.478201 -2.99912 0
M  V30 4972 H 519.32 0.17012 -1.48428 0
M  V30 4973 H 521.202 2.93084 -3.02787 0
M  V30 4974 H 519.877 2.64449 -1.86677 0
M  V30 4975 H 518.784 1.08449 -3.58036 0
M  V30 4976 H 520.117 1.44569 -4.7049 0
M  V30 4977 N 521.769 1.56035 0.221574 0
M  V30 4978 C 522.719 1.8881 1.27807 0
M  V30 4979 C 523.703 0.751177 1.42289 0
M  V30 4980 O 524.895 1.01359 1.45104 0
M  V30 4981 C 522.024 2.20828 2.6285 0
M  V30 4982 C 521.11 3.40912 2.52269 0
M  V30 4983 N 521.501 4.59531 2.1134 0
M  V30 4984 C 519.799 3.44526 2.83228 0
M  V30 4985 C 520.5 5.41689 2.1201 0
M  V30 4986 N 519.476 4.814 2.52497 0
M  V30 4987 H 523.278 2.78036 0.952529 0
M  V30 4988 H 520.792 1.566 0.430134 0
M  V30 4989 H 522.789 2.42483 3.39127 0
M  V30 4990 H 521.449 1.32914 2.9625 0
M  V30 4991 H 522.46 4.8469 1.82472 0
M  V30 4992 H 519.137 2.66956 3.21 0
M  V30 4993 H 520.527 6.46643 1.82491 0
M  V30 4994 N 523.247 -0.488276 1.49845 0
M  V30 4995 C 524.157 -1.61451 1.70207 0
M  V30 4996 C 525.173 -1.63877 0.584846 0
M  V30 4997 O 526.349 -1.82063 0.861107 0
M  V30 4998 C 523.414 -2.9776 1.77594 0
M  V30 4999 C 522.475 -3.05861 3.01243 0
M  V30 5000 C 521.708 -4.35668 3.08268 0
M  V30 5001 O 521.931 -5.25197 2.22541 0
M  V30 5002 O 520.865 -4.49005 4.00847 0
M  V30 5003 H 524.691 -1.47199 2.65643 0
M  V30 5004 H 522.276 -0.665939 1.33737 0
M  V30 5005 H 524.158 -3.7875 1.84732 0
M  V30 5006 H 522.833 -3.12248 0.8534 0
M  V30 5007 H 521.74 -2.24012 2.99616 0
M  V30 5008 H 523.073 -2.96304 3.9302 0
M  V30 5009 N 524.725 -1.39134 -0.740242 0
M  V30 5010 C 525.971 -1.36273 -1.50192 0
M  V30 5011 C 526.304 0.0430136 -1.94152 0
M  V30 5012 O 525.579 1.00691 -1.66408 0
M  V30 5013 C 525.862 -2.33041 -2.74525 0
M  V30 5014 C 525.715 -3.82535 -2.36617 0
M  V30 5015 C 527.034 -2.27723 -3.76604 0
M  V30 5016 H 524.153 -0.496323 -0.544823 0
M  V30 5017 H 526.795 -1.70085 -0.846815 0
M  V30 5018 H 524.945 -2.04337 -3.30422 0
M  V30 5019 H 526.617 -4.21967 -1.86391 0
M  V30 5020 H 524.86 -3.99565 -1.68909 0
M  V30 5021 H 525.531 -4.45723 -3.2563 0
M  V30 5022 H 528.007 -2.53091 -3.30279 0
M  V30 5023 H 526.883 -2.97519 -4.61274 0
M  V30 5024 H 527.144 -1.28049 -4.2315 0
M  V30 5025 N 526.204 0.969867 -1.24223 0
M  V30 5026 C 527.429 1.75289 -1.10853 0
M  V30 5027 C 527.854 1.85091 0.335079 0
M  V30 5028 O 527.212 1.32024 1.24255 0
M  V30 5029 C 527.26 3.15255 -1.75062 0
M  V30 5030 O 526.364 3.99589 -1.01992 0
M  V30 5031 H 525.705 0.538904 -0.387915 0
M  V30 5032 H 528.235 1.21675 -1.64488 0
M  V30 5033 H 528.245 3.65787 -1.80731 0
M  V30 5034 H 526.92 3.07436 -2.801 0
M  V30 5035 H 525.497 3.58077 -1.04094 0
M  V30 5036 N 527.682 1.05563 1.17022 0
M  V30 5037 C 528.907 0.788437 1.91829 0
M  V30 5038 C 529.332 -0.650356 1.76499 0
M  V30 5039 O 528.69 -1.45229 1.08527 0
M  V30 5040 C 528.738 1.1786 3.40795 0
M  V30 5041 O 527.842 0.312965 4.11211 0
M  V30 5042 H 527.183 0.288794 0.597908 0
M  V30 5043 H 529.713 1.40948 1.48307 0
M  V30 5044 H 529.723 1.14697 3.91546 0
M  V30 5045 H 528.398 2.22666 3.51273 0
M  V30 5046 H 526.975 0.405515 3.70689 0
M  V30 5047 N 529.16 -1.33526 0.837174 0
M  V30 5048 C 530.385 -2.0258 0.444545 0
M  V30 5049 C 530.81 -1.6258 -0.946006 0
M  V30 5050 O 530.168 -0.817548 -1.6182 0
M  V30 5051 C 530.216 -3.5605 0.571006 0
M  V30 5052 O 529.32 -4.10422 -0.403431 0
M  V30 5053 H 528.661 -0.638866 0.180958 0
M  V30 5054 H 531.191 -1.70462 1.13154 0
M  V30 5055 H 531.201 -4.05488 0.452024 0
M  V30 5056 H 529.876 -3.84509 1.58512 0
M  V30 5057 H 528.453 -3.72113 -0.242147 0
M  V30 5058 N 530.638 -0.59345 -1.46 0
M  V30 5059 C 531.886 -0.082988 -2.0193 0
M  V30 5060 C 532.207 1.28569 -1.46612 0
M  V30 5061 O 531.477 1.84629 -0.654909 0
M  V30 5062 H 530.057 -0.0276882 -0.746487 0
M  V30 5063 H 532.719 -0.771657 -1.78973 0
M  V30 5064 H 531.815 -0.022079 -3.12092 0
M  V30 5065 N 532.116 1.54067 -0.331816 0
M  V30 5066 C 533.048 2.22139 0.564538 0
M  V30 5067 C 534.061 1.22408 1.07332 0
M  V30 5068 O 535.25 1.4883 0.985481 0
M  V30 5069 C 532.35 2.87876 1.78831 0
M  V30 5070 C 531.523 4.13817 1.41682 0
M  V30 5071 C 530.582 4.63072 2.49901 0
M  V30 5072 O 529.608 5.27562 2.13699 0
M  V30 5073 N 530.81 4.38001 3.80967 0
M  V30 5074 H 533.575 2.99694 -0.0183736 0
M  V30 5075 H 531.136 1.61153 -0.155396 0
M  V30 5076 H 533.128 3.17747 2.50637 0
M  V30 5077 H 531.698 2.13977 2.27887 0
M  V30 5078 H 530.918 3.9062 0.530044 0
M  V30 5079 H 532.206 4.95762 1.14443 0
M  V30 5080 H 531.604 3.864 4.13173 0
M  V30 5081 H 530.161 4.72507 4.48977 0
M  V30 5082 N 533.594 0.0601682 1.57485 0
M  V30 5083 C 534.504 -0.926121 2.15546 0
M  V30 5084 C 535.52 -1.33532 1.11558 0
M  V30 5085 O 536.696 -1.4104 1.4377 0
M  V30 5086 C 533.761 -2.17952 2.69625 0
M  V30 5087 C 532.822 -1.82783 3.88444 0
M  V30 5088 C 532.055 -3.02148 4.39935 0
M  V30 5089 O 532.278 -4.15803 3.90466 0
M  V30 5090 O 531.212 -2.82639 5.31412 0
M  V30 5091 H 535.038 -0.462289 3.00161 0
M  V30 5092 H 532.623 -0.162246 1.48516 0
M  V30 5093 H 534.505 -2.91474 3.04337 0
M  V30 5094 H 533.18 -2.63456 1.88077 0
M  V30 5095 H 532.087 -1.06549 3.58606 0
M  V30 5096 H 533.42 -1.42072 4.7125 0
M  V30 5097 N 535.072 -1.5615 -0.213296 0
M  V30 5098 C 536.318 -1.79812 -0.937849 0
M  V30 5099 C 536.651 -0.631201 -1.83656 0
M  V30 5100 O 535.926 0.369165 -1.90964 0
M  V30 5101 C 536.209 -3.13613 -1.76972 0
M  V30 5102 C 536.062 -4.40766 -0.89695 0
M  V30 5103 C 537.381 -3.43931 -2.7459 0
M  V30 5104 H 534.5 -0.654138 -0.339518 0
M  V30 5105 H 537.142 -1.88877 -0.20623 0
M  V30 5106 H 535.292 -3.06015 -2.39347 0
M  V30 5107 H 536.964 -4.60392 -0.289306 0
M  V30 5108 H 535.207 -4.33326 -0.202756 0
M  V30 5109 H 535.878 -5.30843 -1.51358 0
M  V30 5110 H 538.354 -3.5171 -2.22349 0
M  V30 5111 H 537.23 -4.38706 -3.29891 0
M  V30 5112 H 537.491 -2.6651 -3.52739 0
M  V30 5113 N 536.55 0.480323 -1.50102 0
M  V30 5114 C 537.482 1.59669 -1.64433 0
M  V30 5115 C 538.495 1.54063 -0.52615 0
M  V30 5116 O 539.684 1.59619 -0.798992 0
M  V30 5117 C 536.784 2.98527 -1.6042 0
M  V30 5118 C 535.957 3.291 -2.88117 0
M  V30 5119 C 535.016 4.47468 -2.76873 0
M  V30 5120 O 534.042 4.4823 -3.50825 0
M  V30 5121 N 535.244 5.48593 -1.89806 0
M  V30 5122 H 538.009 1.47795 -2.60723 0
M  V30 5123 H 535.57 0.66858 -1.4745 0
M  V30 5124 H 537.562 3.75666 -1.50523 0
M  V30 5125 H 536.132 3.04218 -0.719036 0
M  V30 5126 H 535.352 2.40662 -3.12211 0
M  V30 5127 H 536.64 3.46334 -3.72734 0
M  V30 5128 H 536.038 5.50791 -1.2902 0
M  V30 5129 H 534.595 6.24752 -1.85819 0
M  V30 5130 N 538.028 1.39524 0.732853 0
M  V30 5131 C 539.253 1.40329 1.52717 0
M  V30 5132 C 539.678 0.000286574 1.881 0
M  V30 5133 O 539.036 -0.987262 1.52062 0
M  V30 5134 C 539.084 2.28464 2.78992 0
M  V30 5135 O 538.188 1.716 3.75003 0
M  V30 5136 H 537.529 0.47778 0.461109 0
M  V30 5137 H 540.059 1.83546 0.903996 0
M  V30 5138 H 540.069 2.43051 3.27705 0
M  V30 5139 H 538.744 3.30425 2.52572 0
M  V30 5140 H 537.321 1.66267 3.33781 0
M  V30 5141 N 539.506 -0.963266 1.24736 0
M  V30 5142 C 540.731 -1.74699 1.11781 0
M  V30 5143 C 541.156 -1.85267 -0.325258 0
M  V30 5144 O 540.514 -1.32681 -1.23553 0
M  V30 5145 C 540.562 -3.14322 1.76731 0
M  V30 5146 O 539.666 -3.99043 1.04109 0
M  V30 5147 H 539.007 -0.53684 0.390767 0
M  V30 5148 H 541.537 -1.20801 1.65131 0
M  V30 5149 H 541.547 -3.64824 1.82668 0
M  V30 5150 H 540.222 -3.05946 2.81726 0
M  V30 5151 H 538.799 -3.5752 1.05991 0
M  V30 5152 N 540.985 -1.06182 -1.16461 0
M  V30 5153 C 541.948 -0.675723 -2.19013 0
M  V30 5154 C 542.948 0.277963 -1.58379 0
M  V30 5155 O 544.138 0.0604962 -1.74095 0
M  V30 5156 C 541.27 0.00591459 -3.40899 0
M  V30 5157 H 542.463 -1.58353 -2.54685 0
M  V30 5158 H 540.016 -0.856908 -1.30716 0
M  V30 5159 H 540.751 0.92652 -3.10783 0
M  V30 5160 H 540.536 -0.67984 -3.86161 0
M  V30 5161 H 542.026 0.26181 -4.16778 0
M  V30 5162 N 542.463 1.3308 -0.844243 0
M  V30 5163 C 543.41 2.29104 -0.279323 0
M  V30 5164 C 544.38 1.54577 0.607882 0
M  V30 5165 O 545.565 1.8285 0.545009 0
M  V30 5166 C 542.705 3.40927 0.53508 0
M  V30 5167 C 541.818 4.30354 -0.376749 0
M  V30 5168 C 540.953 5.29297 0.449276 0
M  V30 5169 C 539.992 6.10365 -0.460606 0
M  V30 5170 N 539.129 7.01335 0.327612 0
M  V30 5171 H 543.969 2.76817 -1.10346 0
M  V30 5172 H 541.506 1.36203 -0.555611 0
M  V30 5173 H 543.464 4.04469 1.02278 0
M  V30 5174 H 542.094 2.94391 1.32414 0
M  V30 5175 H 541.146 3.67485 -0.982791 0
M  V30 5176 H 542.458 4.87067 -1.07549 0
M  V30 5177 H 541.612 5.98392 1.00058 0
M  V30 5178 H 540.351 4.73174 1.18143 0
M  V30 5179 H 539.356 5.40182 -1.02388 0
M  V30 5180 H 540.581 6.68571 -1.1912 0
M  V30 5181 H 538.527 6.47655 1.04305 0
M  V30 5182 H 538.444 7.55355 -0.3123 0
M  V30 5183 H 539.712 7.74731 0.86098 0
M  V30 5184 N 543.941 0.601185 1.45683 0
M  V30 5185 C 544.851 -0.123395 2.34275 0
M  V30 5186 C 545.867 -0.86702 1.5086 0
M  V30 5187 O 547.043 -0.826049 1.8368 0
M  V30 5188 C 544.108 -1.11237 3.2837 0
M  V30 5189 C 543.169 -0.371405 4.2769 0
M  V30 5190 C 542.402 -1.31327 5.1729 0
M  V30 5191 O 542.625 -2.55078 5.10188 0
M  V30 5192 O 541.559 -0.813811 5.96373 0
M  V30 5193 H 545.385 0.604483 2.97623 0
M  V30 5194 H 542.97 0.361477 1.44961 0
M  V30 5195 H 544.852 -1.68214 3.8637 0
M  V30 5196 H 543.527 -1.82139 2.67595 0
M  V30 5197 H 542.434 0.24067 3.73325 0
M  V30 5198 H 543.767 0.296998 4.91303 0
M  V30 5199 N 545.419 -1.53889 0.339982 0
M  V30 5200 C 546.665 -2.01152 -0.258003 0
M  V30 5201 C 546.998 -1.22749 -1.50487 0
M  V30 5202 O 546.273 -0.314156 -1.91946 0
M  V30 5203 C 546.556 -3.55468 -0.575717 0
M  V30 5204 C 546.409 -4.44584 0.682996 0
M  V30 5205 C 547.728 -4.1768 -1.38677 0
M  V30 5206 H 544.847 -0.731198 -0.0922992 0
M  V30 5207 H 547.489 -1.84352 0.459814 0
M  V30 5208 H 545.639 -3.69914 -1.18725 0
M  V30 5209 H 547.311 -4.41981 1.32102 0
M  V30 5210 H 545.554 -4.13592 1.3086 0
M  V30 5211 H 546.225 -5.5043 0.416001 0
M  V30 5212 H 548.701 -4.0691 -0.869705 0
M  V30 5213 H 547.577 -5.25734 -1.57783 0
M  V30 5214 H 547.838 -3.72069 -2.38782 0
M  V30 5215 N 546.897 -0.0685191 -1.57451 0
M  V30 5216 C 548.125 0.610462 -1.97689 0
M  V30 5217 C 548.54 1.63346 -0.946758 0
M  V30 5218 O 547.897 1.82377 0.0669868 0
M  V30 5219 C 547.948 1.28196 -3.38006 0
M  V30 5220 O 547.669 0.299906 -4.37072 0
M  V30 5221 C 549.17 2.04907 -3.931 0
M  V30 5222 H 546.39 0.165689 -0.650222 0
M  V30 5223 H 548.934 -0.139953 -2.04021 0
M  V30 5224 H 547.089 1.98348 -3.32771 0
M  V30 5225 H 547.503 0.78126 -5.18649 0
M  V30 5226 H 548.977 2.47287 -4.93511 0
M  V30 5227 H 549.454 2.9043 -3.29465 0
M  V30 5228 H 550.06 1.39629 -4.01726 0
M  V30 5229 N 548.375 1.56261 0.205012 0
M  V30 5230 C 549.307 1.90266 1.27795 0
M  V30 5231 C 550.32 0.792397 1.42214 0
M  V30 5232 O 551.509 1.07077 1.42817 0
M  V30 5233 C 548.609 2.11074 2.65143 0
M  V30 5234 C 547.782 3.42176 2.7246 0
M  V30 5235 C 546.841 3.52216 3.90936 0
M  V30 5236 O 545.867 4.25119 3.78501 0
M  V30 5237 N 547.069 2.84573 5.05963 0
M  V30 5238 H 549.834 2.82896 0.989434 0
M  V30 5239 H 547.395 1.57008 0.394981 0
M  V30 5240 H 549.387 2.15089 3.4281 0
M  V30 5241 H 547.957 1.2499 2.86524 0
M  V30 5242 H 547.177 3.50116 1.81142 0
M  V30 5243 H 548.465 4.28509 2.74331 0
M  V30 5244 H 547.863 2.25152 5.18963 0
M  V30 5245 H 546.42 2.94228 5.81613 0
M  V30 5246 N 549.853 -0.472356 1.50355 0
M  V30 5247 C 550.783 -1.57859 1.72055 0
M  V30 5248 C 551.764 -1.60283 0.569505 0
M  V30 5249 O 552.949 -1.7657 0.808503 0
M  V30 5250 C 550.079 -2.96191 1.81351 0
M  V30 5251 C 549.033 -3.08633 2.96529 0
M  V30 5252 C 548.359 -4.486 2.90968 0
M  V30 5253 C 549.659 -2.85969 4.37057 0
M  V30 5254 H 551.353 -1.39953 2.64676 0
M  V30 5255 H 548.899 -0.671846 1.27367 0
M  V30 5256 H 550.852 -3.73507 1.95117 0
M  V30 5257 H 549.576 -3.15251 0.853502 0
M  V30 5258 H 548.235 -2.33749 2.82413 0
M  V30 5259 H 547.883 -4.64577 1.92815 0
M  V30 5260 H 547.583 -4.57861 3.68289 0
M  V30 5261 H 549.107 -5.27938 3.0678 0
M  V30 5262 H 550.521 -3.53036 4.51706 0
M  V30 5263 H 548.918 -3.06677 5.15819 0
M  V30 5264 H 549.988 -1.81838 4.49514 0
M  V30 5265 N 551.331 -1.39911 -0.725443 0
M  V30 5266 C 552.747 -1.21725 -1.03224 0
M  V30 5267 C 552.947 -0.0855224 -2.01318 0
M  V30 5268 O 552.003 0.55976 -2.46217 0
M  V30 5269 C 553.316 -2.55511 -1.58539 0
M  V30 5270 C 554.864 -2.62439 -1.70572 0
M  V30 5271 C 555.339 -3.9647 -2.29294 0
M  V30 5272 N 556.83 -3.98159 -2.36692 0
M  V30 5273 C 557.565 -4.98647 -2.83088 0
M  V30 5274 N 557.061 -6.0953 -3.2931 0
M  V30 5275 N 558.854 -4.8602 -2.82384 0
M  V30 5276 H 551.005 -2.12267 -0.075048 0
M  V30 5277 H 553.268 -0.943136 -0.0959066 0
M  V30 5278 H 552.974 -3.38926 -0.939249 0
M  V30 5279 H 552.848 -2.75905 -2.57208 0
M  V30 5280 H 555.235 -1.79401 -2.34306 0
M  V30 5281 H 555.316 -2.45885 -0.705297 0
M  V30 5282 H 554.96 -4.79942 -1.66186 0
M  V30 5283 H 554.89 -4.10349 -3.30032 0
M  V30 5284 H 557.381 -3.18085 -2.04035 0
M  V30 5285 H 557.694 -6.82106 -3.6325 0
M  V30 5286 H 556.039 -6.1311 -3.27294 0
M  V30 5287 H 559.23 -3.98493 -2.45603 0
M  V30 5288 H 559.403 -5.64478 -3.18226 0
M  V30 5289 N 552.809 0.956637 -1.25245 0
M  V30 5290 C 553.759 2.03841 -1.02141 0
M  V30 5291 C 554.743 1.60848 0.0410058 0
M  V30 5292 O 555.935 1.76142 -0.174084 0
M  V30 5293 C 553.064 3.37282 -0.639963 0
M  V30 5294 C 552.15 3.86805 -1.73903 0
M  V30 5295 N 552.541 4.09143 -2.97381 0
M  V30 5296 C 550.839 4.15574 -1.61909 0
M  V30 5297 C 551.54 4.49923 -3.68707 0
M  V30 5298 N 550.516 4.55737 -2.96318 0
M  V30 5299 H 554.318 2.19102 -1.95886 0
M  V30 5300 H 551.832 1.1413 -1.15534 0
M  V30 5301 H 553.829 4.14403 -0.455643 0
M  V30 5302 H 552.489 3.23401 0.29018 0
M  V30 5303 H 553.5 3.96275 -3.33447 0
M  V30 5304 H 550.177 4.10566 -0.757764 0
M  V30 5305 H 551.567 4.75526 -4.74684 0
M  V30 5306 N 554.287 1.06798 1.15896 0
M  V30 5307 C 555.535 0.786211 1.8618 0
M  V30 5308 C 555.856 -0.689547 1.82401 0
M  V30 5309 O 555.126 -1.49913 1.26107 0
M  V30 5310 H 553.706 0.287843 0.689315 0
M  V30 5311 H 556.368 1.35055 1.40521 0
M  V30 5312 H 555.464 1.1157 2.91477 0
M  V30 5313 N 555.766 -1.3263 0.851289 0
M  V30 5314 C 557.012 -1.9766 0.453694 0
M  V30 5315 C 557.345 -1.67225 -0.987396 0
M  V30 5316 O 556.62 -0.958693 -1.69232 0
M  V30 5317 C 556.903 -3.5344 0.68936 0
M  V30 5318 C 556.756 -3.93517 2.17862 0
M  V30 5319 C 558.075 -4.39866 0.143555 0
M  V30 5320 H 555.194 -0.717989 0.166314 0
M  V30 5321 H 557.836 -1.57068 1.06909 0
M  V30 5322 H 555.986 -3.88147 0.165546 0
M  V30 5323 H 557.658 -3.69006 2.76826 0
M  V30 5324 H 555.901 -3.42798 2.65841 0
M  V30 5325 H 556.572 -5.02065 2.29422 0
M  V30 5326 H 559.048 -4.11875 0.591451 0
M  V30 5327 H 557.924 -5.47858 0.338043 0
M  V30 5328 H 558.185 -4.31696 -0.953466 0
M  V30 5329 N 557.244 -0.608902 -1.45362 0
M  V30 5330 C 558.176 0.147318 -2.28726 0
M  V30 5331 C 559.189 0.830468 -1.40025 0
M  V30 5332 O 560.378 0.695636 -1.64387 0
M  V30 5333 C 557.478 1.22968 -3.15804 0
M  V30 5334 C 556.651 0.633391 -4.3279 0
M  V30 5335 C 555.71 1.60682 -5.01067 0
M  V30 5336 O 554.736 1.13261 -5.57818 0
M  V30 5337 N 555.938 2.94123 -5.00472 0
M  V30 5338 H 558.703 -0.568014 -2.94268 0
M  V30 5339 H 556.264 -0.448479 -1.55564 0
M  V30 5340 H 558.256 1.88072 -3.58345 0
M  V30 5341 H 556.826 1.84752 -2.52162 0
M  V30 5342 H 556.046 -0.195762 -3.93714 0
M  V30 5343 H 557.334 0.215255 -5.08344 0
M  V30 5344 H 556.732 3.3525 -4.55657 0
M  V30 5345 H 555.289 3.54646 -5.46872 0
M  V30 5346 N 558.722 1.53707 -0.348139 0
M  V30 5347 C 559.632 2.28881 0.514857 0
M  V30 5348 C 560.648 1.34168 1.10793 0
M  V30 5349 O 561.824 1.6721 1.12262 0
M  V30 5350 C 558.889 3.05042 1.64774 0
M  V30 5351 C 557.95 4.15389 1.08398 0
M  V30 5352 C 557.183 4.87909 2.16287 0
M  V30 5353 O 557.406 4.60137 3.3709 0
M  V30 5354 O 556.34 5.74254 1.80323 0
M  V30 5355 H 560.166 3.03547 -0.0963699 0
M  V30 5356 H 557.751 1.48972 -0.113043 0
M  V30 5357 H 559.633 3.52656 2.30677 0
M  V30 5358 H 558.308 2.33228 2.24469 0
M  V30 5359 H 557.215 3.72068 0.389341 0
M  V30 5360 H 558.548 4.89318 0.531829 0
M  V30 5361 N 560.2 0.0768682 1.57412 0
M  V30 5362 C 561.13 -0.886026 2.16037 0
M  V30 5363 C 562.111 -1.30691 1.08876 0
M  V30 5364 O 563.296 -1.37705 1.36934 0
M  V30 5365 C 560.426 -2.1518 2.72608 0
M  V30 5366 C 559.38 -1.87015 3.8498 0
M  V30 5367 C 558.706 -3.20266 4.28175 0
M  V30 5368 C 560.006 -1.17143 5.08994 0
M  V30 5369 H 561.7 -0.397642 2.96748 0
M  V30 5370 H 559.246 -0.189823 1.42743 0
M  V30 5371 H 561.199 -2.82962 3.12266 0
M  V30 5372 H 559.923 -2.66269 1.89125 0
M  V30 5373 H 558.582 -1.21636 3.45833 0
M  V30 5374 H 558.23 -3.69207 3.41607 0
M  V30 5375 H 557.93 -3.0221 5.03927 0
M  V30 5376 H 559.454 -3.89237 4.70454 0
M  V30 5377 H 560.868 -1.75003 5.45937 0
M  V30 5378 H 559.265 -1.09328 5.90057 0
M  V30 5379 H 560.335 -0.151295 4.84664 0
M  V30 5380 N 561.678 -1.56367 -0.196722 0
M  V30 5381 C 562.588 -1.97617 -1.2643 0
M  V30 5382 C 563.604 -0.883598 -1.49895 0
M  V30 5383 O 564.78 -1.18921 -1.62541 0
M  V30 5384 C 561.845 -2.30595 -2.58895 0
M  V30 5385 C 560.906 -3.53551 -2.43516 0
M  V30 5386 C 560.139 -3.84946 -3.69665 0
M  V30 5387 O 560.362 -3.17655 -4.73763 0
M  V30 5388 O 559.296 -4.78379 -3.65291 0
M  V30 5389 H 563.122 -2.88648 -0.944233 0
M  V30 5390 H 560.707 -1.43901 -0.401592 0
M  V30 5391 H 562.589 -2.52889 -3.37083 0
M  V30 5392 H 561.264 -1.42732 -2.90533 0
M  V30 5393 H 560.171 -3.36507 -1.63445 0
M  V30 5394 H 561.504 -4.41875 -2.16812 0
M  V30 5395 N 563.156 0.464375 -1.50603 0
M  V30 5396 C 564.405 1.21277 -1.61167 0
M  V30 5397 C 564.718 1.92953 -0.320704 0
M  V30 5398 O 565.924 2.69778 -0.30534 0
M  V30 5399 C 564.38 2.20403 -2.84518 0
M  V30 5400 C 563.988 1.54499 -4.20516 0
M  V30 5401 C 565.732 2.95843 -3.0443 0
M  V30 5402 C 563.639 2.51951 -5.35047 0
M  V30 5403 H 562.569 0.456367 -0.600204 0
M  V30 5404 H 565.22 0.48254 -1.77042 0
M  V30 5405 H 563.602 2.96746 -2.62217 0
M  V30 5406 H 564.776 0.83899 -4.53098 0
M  V30 5407 H 563.091 0.913152 -4.06264 0
M  V30 5408 H 565.688 3.6879 -3.87167 0
M  V30 5409 H 566.031 3.55622 -2.16423 0
M  V30 5410 H 566.564 2.26611 -3.26944 0
M  V30 5411 H 563.303 1.96901 -6.25228 0
M  V30 5412 H 562.823 3.20683 -5.06875 0
M  V30 5413 H 564.502 3.13643 -5.65895 0
M  V30 5414 N 564.634 1.40294 0.718013 0
M  V30 5415 C 565.544 1.42678 1.86226 0
M  V30 5416 C 566.56 0.319655 1.71039 0
M  V30 5417 O 567.736 0.563852 1.93346 0
M  V30 5418 C 564.801 1.2852 3.21999 0
M  V30 5419 C 563.862 2.49354 3.49458 0
M  V30 5420 C 563.095 2.35863 4.78753 0
M  V30 5421 O 563.318 1.37114 5.53675 0
M  V30 5422 O 562.252 3.25189 5.06494 0
M  V30 5423 H 566.078 2.39167 1.87171 0
M  V30 5424 H 563.663 1.2159 0.868112 0
M  V30 5425 H 565.545 1.22824 4.03103 0
M  V30 5426 H 564.22 0.351359 3.21787 0
M  V30 5427 H 563.127 2.60628 2.68373 0
M  V30 5428 H 564.46 3.41491 3.54464 0
M  V30 5429 N 566.112 -0.949982 1.2575 0
M  V30 5430 C 567.042 -2.06483 1.09028 0
M  V30 5431 C 568.023 -1.701 -0.00201532 0
M  V30 5432 O 569.208 -1.93469 0.168383 0
M  V30 5433 C 566.338 -3.39899 0.71316 0
M  V30 5434 C 565.292 -3.90309 1.75621 0
M  V30 5435 C 564.618 -5.20274 1.23365 0
M  V30 5436 C 565.918 -4.16169 3.15596 0
M  V30 5437 H 567.612 -2.20731 2.02283 0
M  V30 5438 H 565.158 -1.06066 0.973964 0
M  V30 5439 H 567.111 -4.17346 0.58309 0
M  V30 5440 H 565.835 -3.25602 -0.255091 0
M  V30 5441 H 564.494 -3.15035 1.8748 0
M  V30 5442 H 564.142 -5.02351 0.255491 0
M  V30 5443 H 563.842 -5.54971 1.93082 0
M  V30 5444 H 565.366 -6.00314 1.11607 0
M  V30 5445 H 566.78 -4.84259 3.06864 0
M  V30 5446 H 565.177 -4.62131 3.82825 0
M  V30 5447 H 566.247 -3.22273 3.6231 0
M  V30 5448 N 567.59 -1.07411 -1.15328 0
M  V30 5449 C 568.522 -0.652924 -2.19703 0
M  V30 5450 C 569.535 0.294869 -1.60107 0
M  V30 5451 O 570.724 0.0840932 -1.78302 0
M  V30 5452 C 567.824 0.061434 -3.38844 0
M  V30 5453 C 566.997 -0.902696 -4.27984 0
M  V30 5454 C 566.056 -0.225521 -5.25717 0
M  V30 5455 O 565.082 -0.86676 -5.62562 0
M  V30 5456 N 566.284 1.02858 -5.71315 0
M  V30 5457 H 569.049 -1.55081 -2.56457 0
M  V30 5458 H 566.61 -0.958883 -1.30449 0
M  V30 5459 H 568.602 0.525145 -4.01278 0
M  V30 5460 H 567.172 0.861269 -3.00501 0
M  V30 5461 H 566.392 -1.54551 -3.6264 0
M  V30 5462 H 567.68 -1.55636 -4.84412 0
M  V30 5463 H 567.078 1.56948 -5.43492 0
M  V30 5464 H 565.635 1.43596 -6.35786 0
M  V30 5465 N 569.068 1.32177 -0.85831 0
M  V30 5466 C 570.293 2.01847 -0.476718 0
M  V30 5467 C 570.718 1.64065 0.920021 0
M  V30 5468 O 570.076 0.843189 1.60499 0
M  V30 5469 C 570.124 3.55097 -0.627578 0
M  V30 5470 O 569.228 4.11012 0.338086 0
M  V30 5471 H 568.569 0.635907 -0.191099 0
M  V30 5472 H 571.099 1.68641 -1.15851 0
M  V30 5473 H 571.109 4.04718 -0.516476 0
M  V30 5474 H 569.784 3.81938 -1.64609 0
M  V30 5475 H 568.361 3.72451 0.182917 0
M  V30 5476 N 570.547 0.616602 1.45037 0
M  V30 5477 C 571.479 -0.135186 2.28801 0
M  V30 5478 C 572.492 -0.82303 1.40464 0
M  V30 5479 O 573.681 -0.686909 1.64754 0
M  V30 5480 C 570.781 -1.21292 3.16451 0
M  V30 5481 C 569.954 -0.61043 4.3312 0
M  V30 5482 C 569.013 -1.58022 5.01912 0
M  V30 5483 O 568.039 -1.10301 5.58411 0
M  V30 5484 N 569.241 -2.91464 5.02025 0
M  V30 5485 H 572.006 0.583612 2.93963 0
M  V30 5486 H 569.567 0.456723 1.55324 0
M  V30 5487 H 571.559 -1.86169 3.59337 0
M  V30 5488 H 570.129 -1.83412 2.53138 0
M  V30 5489 H 569.349 0.216638 3.93604 0
M  V30 5490 H 570.637 -0.188293 5.08451 0
M  V30 5491 H 570.035 -3.32829 4.57429 0
M  V30 5492 H 568.592 -3.51741 5.48745 0
M  V30 5493 N 572.025 -1.5352 0.356285 0
M  V30 5494 C 572.955 -2.28372 -0.486661 0
M  V30 5495 C 573.936 -1.30432 -1.09185 0
M  V30 5496 O 575.121 -1.59291 -1.11085 0
M  V30 5497 C 572.251 -3.06604 -1.63129 0
M  V30 5498 C 571.205 -4.12154 -1.15381 0
M  V30 5499 C 570.531 -4.78415 -2.38796 0
M  V30 5500 C 571.831 -5.21724 -0.245179 0
M  V30 5501 H 573.525 -2.99083 0.137797 0
M  V30 5502 H 571.071 -1.43841 0.0677134 0
M  V30 5503 H 573.024 -3.57712 -2.22755 0
M  V30 5504 H 571.748 -2.33568 -2.28284 0
M  V30 5505 H 570.407 -3.61978 -0.580294 0
M  V30 5506 H 570.055 -4.01959 -3.02387 0
M  V30 5507 H 569.755 -5.49734 -2.07524 0
M  V30 5508 H 571.279 -5.32313 -2.99125 0
M  V30 5509 H 572.693 -5.68391 -0.748646 0
M  V30 5510 H 571.09 -6.00095 -0.0237608 0
M  V30 5511 H 572.16 -4.79596 0.715229 0
M  V30 5512 N 573.503 -0.0852151 -1.57369 0
M  V30 5513 C 574.728 0.592872 -1.98746 0
M  V30 5514 C 575.153 1.61538 -0.963689 0
M  V30 5515 O 574.511 1.81168 0.069071 0
M  V30 5516 C 574.559 1.22599 -3.39119 0
M  V30 5517 O 573.663 2.34185 -3.39457 0
M  V30 5518 H 573.004 0.151314 -0.646529 0
M  V30 5519 H 575.534 -0.163703 -2.03944 0
M  V30 5520 H 575.544 1.56965 -3.76598 0
M  V30 5521 H 574.219 0.476831 -4.13158 0
M  V30 5522 H 572.796 2.01512 -3.13763 0
M  V30 5523 N 574.981 1.5647 0.188427 0
M  V30 5524 C 575.928 1.95073 1.23349 0
M  V30 5525 C 576.898 0.812238 1.44886 0
M  V30 5526 O 578.083 1.07095 1.57909 0
M  V30 5527 C 575.223 2.30124 2.57171 0
M  V30 5528 C 574.336 3.57069 2.43157 0
M  V30 5529 C 573.471 3.81411 3.69729 0
M  V30 5530 C 572.51 5.0176 3.50575 0
M  V30 5531 N 571.647 5.22321 4.69175 0
M  V30 5532 H 576.487 2.84171 0.89728 0
M  V30 5533 H 574.024 1.40623 0.431683 0
M  V30 5534 H 575.982 2.48463 3.35145 0
M  V30 5535 H 574.612 1.44159 2.88822 0
M  V30 5536 H 573.664 3.4674 1.56447 0
M  V30 5537 H 574.976 4.452 2.24942 0
M  V30 5538 H 574.13 4.00026 4.56141 0
M  V30 5539 H 572.869 2.91624 3.90905 0
M  V30 5540 H 571.874 4.83061 2.62549 0
M  V30 5541 H 573.099 5.93063 3.30837 0
M  V30 5542 H 571.045 4.35483 4.90602 0
M  V30 5543 H 570.962 6.04643 4.53809 0
M  V30 5544 H 572.23 5.45401 5.56919 0
M  V30 5545 N 576.459 -0.456382 1.50847 0
M  V30 5546 C 577.406 -1.55249 1.70782 0
M  V30 5547 C 578.376 -1.56757 0.549231 0
M  V30 5548 O 579.561 -1.74061 0.7815 0
M  V30 5549 C 576.701 -2.93118 1.82143 0
M  V30 5550 C 575.814 -3.01285 3.09598 0
M  V30 5551 C 574.949 -4.30159 3.11667 0
M  V30 5552 C 573.988 -4.32124 4.33515 0
M  V30 5553 N 573.125 -5.52492 4.3324 0
M  V30 5554 H 577.965 -1.37555 2.64353 0
M  V30 5555 H 575.502 -0.668543 1.3103 0
M  V30 5556 H 577.46 -3.73088 1.86711 0
M  V30 5557 H 576.09 -3.09413 0.919978 0
M  V30 5558 H 575.142 -2.14096 3.14431 0
M  V30 5559 H 576.454 -2.98597 3.99551 0
M  V30 5560 H 575.608 -5.18489 3.15046 0
M  V30 5561 H 574.347 -4.35477 2.1957 0
M  V30 5562 H 573.352 -3.42189 4.30333 0
M  V30 5563 H 574.577 -4.28485 5.26856 0
M  V30 5564 H 572.523 -5.58567 3.44004 0
M  V30 5565 H 572.44 -5.51605 5.16979 0
M  V30 5566 H 573.708 -6.42906 4.40786 0
M  V30 5567 N 577.937 -1.40673 -0.710563 0
M  V30 5568 C 578.9 -1.4108 -1.80635 0
M  V30 5569 C 579.9 -0.303783 -1.57904 0
M  V30 5570 O 581.09 -0.562937 -1.64853 0
M  V30 5571 C 578.222 -1.20748 -3.18799 0
M  V30 5572 H 579.415 -2.38612 -1.81671 0
M  V30 5573 H 576.968 -1.26595 -0.916704 0
M  V30 5574 H 577.703 -0.239964 -3.23411 0
M  V30 5575 H 577.488 -2.00941 -3.36698 0
M  V30 5576 H 578.978 -1.23833 -3.98817 0
M  V30 5577 N 579.415 0.9433 -1.26252 0
M  V30 5578 C 580.378 2.02326 -1.07689 0
M  V30 5579 C 581.378 1.60779 -0.0259174 0
M  V30 5580 O 582.568 1.72108 -0.269134 0
M  V30 5581 C 579.7 3.34886 -0.63752 0
M  V30 5582 H 580.893 2.20225 -2.0357 0
M  V30 5583 H 578.446 1.12197 -1.08819 0
M  V30 5584 H 579.181 3.22684 0.323377 0
M  V30 5585 H 578.966 3.66393 -1.39637 0
M  V30 5586 H 580.456 4.14231 -0.529418 0
M  V30 5587 N 580.893 1.08022 1.14757 0
M  V30 5588 C 581.823 0.728248 2.21853 0
M  V30 5589 C 582.804 -0.287486 1.67653 0
M  V30 5590 O 583.989 -0.158727 1.9355 0
M  V30 5591 C 581.119 0.132549 3.47047 0
M  V30 5592 C 580.073 1.07619 4.14249 0
M  V30 5593 C 579.399 0.342907 5.33599 0
M  V30 5594 C 580.699 2.41268 4.63235 0
M  V30 5595 H 582.393 1.62365 2.51551 0
M  V30 5596 H 579.939 0.782125 1.20908 0
M  V30 5597 H 581.892 -0.125665 4.21213 0
M  V30 5598 H 580.616 -0.797971 3.16702 0
M  V30 5599 H 579.275 1.31944 3.42033 0
M  V30 5600 H 578.923 -0.59129 4.99513 0
M  V30 5601 H 578.623 0.971955 5.79506 0
M  V30 5602 H 580.147 0.0926538 6.1053 0
M  V30 5603 H 581.561 2.21232 5.28894 0
M  V30 5604 H 579.958 2.9983 5.19829 0
M  V30 5605 H 581.028 3.03079 3.78512 0
M  V30 5606 N 582.371 -1.3172 0.865308 0
M  V30 5607 C 583.281 -2.32394 0.320935 0
M  V30 5608 C 584.297 -1.64511 -0.566746 0
M  V30 5609 O 585.473 -1.95969 -0.464575 0
M  V30 5610 C 582.538 -3.43462 -0.472701 0
M  V30 5611 C 581.599 -4.27015 0.442385 0
M  V30 5612 C 580.832 -5.32779 -0.313469 0
M  V30 5613 O 581.055 -5.49158 -1.54214 0
M  V30 5614 O 579.989 -6.01015 0.326257 0
M  V30 5615 H 583.815 -2.80868 1.15528 0
M  V30 5616 H 581.4 -1.35535 0.628545 0
M  V30 5617 H 583.282 -4.11172 -0.922781 0
M  V30 5618 H 581.957 -2.97159 -1.28367 0
M  V30 5619 H 580.864 -3.62075 0.940866 0
M  V30 5620 H 582.197 -4.76871 1.21882 0
M  V30 5621 N 583.85 -0.624285 -1.44708 0
M  V30 5622 C 584.797 0.0847135 -2.30644 0
M  V30 5623 C 585.767 0.843575 -1.43084 0
M  V30 5624 O 586.952 0.825982 -1.71995 0
M  V30 5625 C 584.091 1.06495 -3.28257 0
M  V30 5626 C 583.205 0.305224 -4.3092 0
M  V30 5627 C 582.34 1.27667 -5.1563 0
M  V30 5628 C 581.379 0.505706 -6.10007 0
M  V30 5629 N 580.516 1.42727 -6.8744 0
M  V30 5630 H 585.356 -0.654068 -2.90733 0
M  V30 5631 H 582.893 -0.334334 -1.4325 0
M  V30 5632 H 584.851 1.64658 -3.83332 0
M  V30 5633 H 583.481 1.77094 -2.69884 0
M  V30 5634 H 582.533 -0.392207 -3.78373 0
M  V30 5635 H 583.845 -0.295553 -4.97924 0
M  V30 5636 H 582.999 1.92984 -5.75189 0
M  V30 5637 H 581.738 1.91137 -4.48685 0
M  V30 5638 H 580.743 -0.160999 -5.49564 0
M  V30 5639 H 581.968 -0.124183 -6.78986 0
M  V30 5640 H 579.913 2.04931 -6.23169 0
M  V30 5641 H 579.831 0.880345 -7.50857 0
M  V30 5642 H 581.099 2.0695 -7.51526 0
M  V30 5643 N 585.328 1.53329 -0.364422 0
M  V30 5644 C 586.553 2.06132 0.229033 0
M  V30 5645 C 586.978 1.23625 1.41769 0
M  V30 5646 O 586.336 0.255038 1.79497 0
M  V30 5647 C 586.384 3.55544 0.60174 0
M  V30 5648 O 585.488 3.75771 1.69912 0
M  V30 5649 H 584.829 0.663148 0.0336213 0
M  V30 5650 H 587.359 1.97758 -0.524689 0
M  V30 5651 H 587.369 3.98549 0.873073 0
M  V30 5652 H 586.044 4.15039 -0.267421 0
M  V30 5653 H 584.621 3.44663 1.42343 0
M  V30 5654 N 586.806 0.0935595 1.57322 0
M  V30 5655 C 587.736 -0.863062 2.16964 0
M  V30 5656 C 588.717 -1.29528 1.10256 0
M  V30 5657 O 589.902 -1.36245 1.38387 0
M  V30 5658 C 587.032 -2.12276 2.74875 0
M  V30 5659 C 585.986 -1.82921 3.86942 0
M  V30 5660 C 585.312 -3.15707 4.31548 0
M  V30 5661 C 586.612 -1.11737 5.10208 0
M  V30 5662 H 588.306 -0.366145 2.97153 0
M  V30 5663 H 585.852 -0.174673 1.42937 0
M  V30 5664 H 587.805 -2.79634 3.1525 0
M  V30 5665 H 586.529 -2.64248 1.91938 0
M  V30 5666 H 585.188 -1.17961 3.47103 0
M  V30 5667 H 584.836 -3.65563 3.45504 0
M  V30 5668 H 584.536 -2.96849 5.07104 0
M  V30 5669 H 586.06 -3.84226 4.74555 0
M  V30 5670 H 587.474 -1.69203 5.47762 0
M  V30 5671 H 585.871 -1.03064 5.91183 0
M  V30 5672 H 586.941 -0.0998818 4.84797 0
M  V30 5673 N 588.284 -1.56567 -0.180126 0
M  V30 5674 C 589.194 -1.98947 -1.24327 0
M  V30 5675 C 590.21 -0.899446 -1.4895 0
M  V30 5676 O 591.386 -1.20639 -1.61271 0
M  V30 5677 C 588.451 -2.33328 -2.56435 0
M  V30 5678 C 587.512 -3.56114 -2.39752 0
M  V30 5679 C 586.745 -3.88845 -3.65561 0
M  V30 5680 O 586.968 -3.22662 -4.70368 0
M  V30 5681 O 585.902 -4.82226 -3.60197 0
M  V30 5682 H 589.728 -2.89634 -0.913565 0
M  V30 5683 H 587.313 -1.44319 -0.386306 0
M  V30 5684 H 589.195 -2.5645 -3.34382 0
M  V30 5685 H 587.87 -1.45806 -2.89002 0
M  V30 5686 H 586.777 -3.38221 -1.59866 0
M  V30 5687 H 588.11 -4.4415 -2.12113 0
M  V30 5688 N 589.762 0.448376 -1.51087 0
M  V30 5689 C 591.039 1.20926 -1.53741 0
M  V30 5690 C 591.419 2.09025 -0.295222 0
M  V30 5691 O 590.767 2.16851 0.720283 0
M  V30 5692 C 590.977 2.02067 -2.84552 0
M  V30 5693 C 592.325 2.59486 -3.36084 0
M  V30 5694 O 593.349 2.12289 -2.86028 0
M  V30 5695 O 592.208 3.45539 -4.23397 0
M  V30 5696 H 589.302 0.549951 -0.617643 0
M  V30 5697 H 591.848 0.458344 -1.63393 0
M  V30 5698 H 590.62 1.37291 -3.66425 0
M  V30 5699 H 590.243 2.84246 -2.78011 0
M  V30 5700 N 591.24 1.41047 0.703093 0
M  V30 5701 C 592.468 1.4334 1.49202 0
M  V30 5702 C 592.883 0.0365596 1.88765 0
M  V30 5703 O 592.24 -0.942419 1.56284 0
M  V30 5704 C 592.291 2.33538 2.75939 0
M  V30 5705 O 592.012 3.67786 2.38045 0
M  V30 5706 C 593.513 2.44555 3.6974 0
M  V30 5707 H 590.733 0.488472 0.460039 0
M  V30 5708 H 593.277 1.85245 0.86629 0
M  V30 5709 H 591.432 1.94962 3.34766 0
M  V30 5710 H 591.846 4.15816 3.19683 0
M  V30 5711 H 593.32 3.11849 4.55471 0
M  V30 5712 H 593.797 1.47447 4.1371 0
M  V30 5713 H 594.403 2.83735 3.16819 0
M  V30 5714 N 592.718 -0.936591 1.26751 0
M  V30 5715 C 593.665 -2.03597 1.08706 0
M  V30 5716 C 594.635 -1.66097 -0.00926542 0
M  V30 5717 O 595.82 -1.90199 0.151377 0
M  V30 5718 C 592.96 -3.3727 0.73094 0
M  V30 5719 C 592.073 -3.87778 1.90399 0
M  V30 5720 C 591.208 -5.09859 1.49056 0
M  V30 5721 C 590.247 -5.5264 2.63164 0
M  V30 5722 N 589.384 -6.65921 2.22471 0
M  V30 5723 H 594.224 -2.18364 2.02784 0
M  V30 5724 H 591.761 -1.06985 1.00958 0
M  V30 5725 H 593.719 -4.14128 0.505328 0
M  V30 5726 H 592.349 -3.22337 -0.172868 0
M  V30 5727 H 591.401 -3.07279 2.2424 0
M  V30 5728 H 592.713 -4.15464 2.76028 0
M  V30 5729 H 591.867 -5.9419 1.22567 0
M  V30 5730 H 590.606 -4.8393 0.60524 0
M  V30 5731 H 589.611 -4.66863 2.90377 0
M  V30 5732 H 590.836 -5.80568 3.52303 0
M  V30 5733 H 588.782 -6.41667 1.36379 0
M  V30 5734 H 588.699 -6.93216 3.01641 0
M  V30 5735 H 589.967 -7.53616 1.99205 0
M  V30 5736 N 594.196 -1.08629 -1.14182 0
M  V30 5737 C 595.144 -0.71284 -2.21408 0
M  V30 5738 C 596.138 0.282457 -1.67029 0
M  V30 5739 O 597.344 0.144783 -1.79417 0
M  V30 5740 H 593.719 -0.212497 -0.721352 0
M  V30 5741 H 595.69 -1.6265 -2.50175 0
M  V30 5742 C 594.439 -0.140704 -3.47415 0
M  V30 5743 H 593.762 -0.897739 -3.8959 0
M  V30 5744 H 595.202 0.0827677 -4.23919 0
M  V30 5745 C 593.661 1.122 -3.17668 0
M  V30 5746 O 594.191 2.20652 -3.35672 0
M  V30 5747 N 592.397 1.03328 -2.71609 0
M  V30 5748 H 591.944 0.150666 -2.57159 0
M  V30 5749 H 591.902 1.8789 -2.52081 0
M  V30 5750 N 595.674 1.31259 -0.872281 0
M  V30 5751 C 597.09 1.49283 -0.564521 0
M  V30 5752 C 597.29 1.80243 0.900807 0
M  V30 5753 O 596.346 1.88246 1.68284 0
M  V30 5754 C 597.659 2.62503 -1.46673 0
M  V30 5755 C 599.207 2.76386 -1.46901 0
M  V30 5756 C 599.682 3.92705 -2.35684 0
M  V30 5757 N 601.173 3.99995 -2.33577 0
M  V30 5758 C 601.908 4.89276 -2.98992 0
M  V30 5759 N 601.404 5.83443 -3.73585 0
M  V30 5760 N 603.197 4.82541 -2.88289 0
M  V30 5761 H 595.348 1.09432 -1.82039 0
M  V30 5762 H 597.611 0.540949 -0.77851 0
M  V30 5763 H 597.317 2.46407 -2.50951 0
M  V30 5764 H 597.191 3.58695 -1.16696 0
M  V30 5765 H 599.578 2.91894 -0.433796 0
M  V30 5766 H 599.659 1.80853 -1.80903 0
M  V30 5767 H 599.303 3.77954 -3.39283 0
M  V30 5768 H 599.233 4.87549 -1.99006 0
M  V30 5769 H 601.724 3.32624 -1.7936 0
M  V30 5770 H 602.037 6.48303 -4.20622 0
M  V30 5771 H 600.382 5.83415 -3.77694 0
M  V30 5772 H 603.573 4.07951 -2.2955 0
M  V30 5773 H 603.746 5.51916 -3.39549 0
M  V30 5774 N 597.152 0.631951 1.44375 0
M  V30 5775 C 598.382 0.143658 2.061 0
M  V30 5776 C 598.79 -1.18733 1.47306 0
M  V30 5777 O 598.133 -1.73943 0.590724 0
M  V30 5778 C 598.195 -0.0446102 3.59472 0
M  V30 5779 C 597.859 1.20835 4.40736 0
M  V30 5780 C 598.856 2.13224 4.74164 0
M  V30 5781 C 596.541 1.44399 4.81097 0
M  V30 5782 C 598.535 3.27487 5.46838 0
M  V30 5783 C 596.222 2.58959 5.53519 0
M  V30 5784 C 597.22 3.50329 5.86309 0
M  V30 5785 O 596.908 4.62891 6.57257 0
M  V30 5786 H 596.64 0.0772939 0.671567 0
M  V30 5787 H 599.194 0.866677 1.8622 0
M  V30 5788 H 597.424 -0.822783 3.77845 0
M  V30 5789 H 599.113 -0.487561 4.02961 0
M  V30 5790 H 599.879 1.96253 4.4352 0
M  V30 5791 H 595.758 0.741696 4.54994 0
M  V30 5792 H 599.302 3.98826 5.72349 0
M  V30 5793 H 595.199 2.75873 5.83579 0
M  V30 5794 H 595.967 4.61883 6.75726 0
M  V30 5795 N 598.631 -1.53133 0.372548 0
M  V30 5796 C 599.871 -2.03267 -0.214943 0
M  V30 5797 C 600.235 -1.25362 -1.45425 0
M  V30 5798 O 601.436 -1.65536 -2.11781 0
M  V30 5799 C 599.707 -3.53985 -0.492897 0
M  V30 5800 S 601.266 -4.25977 -1.05307 0
M  V30 5801 H 598.084 -0.708289 -0.062029 0
M  V30 5802 H 600.686 -1.88539 0.517025 0
M  V30 5803 H 599.39 -4.08282 0.416442 0
M  V30 5804 H 598.921 -3.72887 -1.25375 0
M  V30 5805 H 600.936 -4.37731 -2.33679 0
M  V30 5806 N 600.109 -0.101901 -1.5727 0
M  V30 5807 C 601.357 0.559091 -1.94213 0
M  V30 5808 C 601.678 1.68297 -0.984948 0
M  V30 5809 O 600.948 1.95863 -0.0381975 0
M  V30 5810 H 599.528 0.20952 -0.717015 0
M  V30 5811 H 602.19 -0.166831 -1.94185 0
M  V30 5812 H 601.286 0.96485 -2.96811 0
M  V30 5813 N 601.587 1.56661 0.17182 0
M  V30 5814 C 602.519 1.92934 1.2373 0
M  V30 5815 C 603.532 0.822385 1.40502 0
M  V30 5816 O 604.721 1.10083 1.40514 0
M  V30 5817 C 601.821 2.16651 2.60607 0
M  V30 5818 C 600.994 3.47878 2.6514 0
M  V30 5819 C 600.053 3.60429 3.83377 0
M  V30 5820 O 599.079 4.33051 3.69398 0
M  V30 5821 N 600.281 2.95241 4.99813 0
M  V30 5822 H 603.046 2.84931 0.929205 0
M  V30 5823 H 600.607 1.5781 0.361588 0
M  V30 5824 H 602.599 2.22312 3.38171 0
M  V30 5825 H 601.169 1.3104 2.83809 0
M  V30 5826 H 600.389 3.53879 1.73675 0
M  V30 5827 H 601.677 4.34232 2.6518 0
M  V30 5828 H 601.075 2.3611 5.14071 0
M  V30 5829 H 599.632 3.06499 5.75241 0
M  V30 5830 N 603.065 -0.440357 1.51323 0
M  V30 5831 C 603.995 -1.54174 1.75364 0
M  V30 5832 C 604.976 -1.59039 0.603375 0
M  V30 5833 O 606.161 -1.74815 0.845774 0
M  V30 5834 C 603.291 -2.92277 1.87593 0
M  V30 5835 C 602.245 -3.02274 3.03009 0
M  V30 5836 C 601.571 -4.42327 3.00418 0
M  V30 5837 C 602.871 -2.76634 4.43024 0
M  V30 5838 H 604.565 -1.34307 2.67585 0
M  V30 5839 H 602.111 -0.644678 1.28763 0
M  V30 5840 H 604.064 -3.69284 2.02995 0
M  V30 5841 H 602.788 -3.13369 0.920179 0
M  V30 5842 H 601.447 -2.27706 2.87307 0
M  V30 5843 H 601.095 -4.60382 2.02626 0
M  V30 5844 H 600.795 -4.49946 3.77918 0
M  V30 5845 H 602.319 -5.21312 3.17909 0
M  V30 5846 H 603.733 -3.43376 4.59093 0
M  V30 5847 H 602.13 -2.95666 5.22208 0
M  V30 5848 H 603.2 -1.72262 4.5327 0
M  V30 5849 N 604.543 -1.41418 -0.695603 0
M  V30 5850 C 605.475 -1.39195 -1.82092 0
M  V30 5851 C 606.488 -0.294132 -1.60121 0
M  V30 5852 O 607.677 -0.555854 -1.69625 0
M  V30 5853 C 604.777 -1.14828 -3.18854 0
M  V30 5854 C 603.95 -2.36649 -3.67853 0
M  V30 5855 C 603.009 -2.08139 -4.83285 0
M  V30 5856 O 602.035 -2.81177 -4.94902 0
M  V30 5857 N 603.237 -1.07162 -5.70523 0
M  V30 5858 H 606.002 -2.36185 -1.84491 0
M  V30 5859 H 603.563 -1.3603 -0.877923 0
M  V30 5860 H 605.555 -0.937075 -3.93702 0
M  V30 5861 H 604.125 -0.264358 -3.1148 0
M  V30 5862 H 603.345 -2.73472 -2.83913 0
M  V30 5863 H 604.633 -3.17816 -3.97329 0
M  V30 5864 H 604.031 -0.467124 -5.63768 0
M  V30 5865 H 602.588 -0.920311 -6.4527 0
M  V30 5866 N 606.021 0.929856 -1.27246 0
M  V30 5867 C 606.954 2.03069 -1.04106 0
M  V30 5868 C 607.932 1.62556 0.0378417 0
M  V30 5869 O 609.116 1.88197 -0.106869 0
M  V30 5870 C 606.243 3.33718 -0.578778 0
M  V30 5871 C 605.289 3.93209 -1.65193 0
M  V30 5872 S 606.122 4.26068 -3.24386 0
M  V30 5873 C 607.278 5.598 -2.79954 0
M  V30 5874 H 607.511 2.22386 -1.97311 0
M  V30 5875 H 605.044 1.07269 -1.11053 0
M  V30 5876 H 607.002 4.09261 -0.31874 0
M  V30 5877 H 605.663 3.12328 0.333182 0
M  V30 5878 H 604.856 4.87482 -1.27973 0
M  V30 5879 H 604.458 3.24243 -1.86393 0
M  V30 5880 H 606.75 6.39004 -2.25123 0
M  V30 5881 H 607.693 6.01917 -3.72963 0
M  V30 5882 H 608.101 5.20219 -2.19164 0
M  V30 5883 N 607.499 1.09233 1.13605 0
M  V30 5884 C 608.748 0.82205 1.84188 0
M  V30 5885 C 609.061 -0.654548 1.84323 0
M  V30 5886 O 610.267 -1.04029 2.50779 0
M  V30 5887 C 608.723 1.42066 3.30674 0
M  V30 5888 C 608.331 2.92965 3.38933 0
M  V30 5889 C 610.075 1.22924 4.06313 0
M  V30 5890 C 607.982 3.45922 4.79679 0
M  V30 5891 H 606.912 0.303854 0.690064 0
M  V30 5892 H 609.563 1.31479 1.28006 0
M  V30 5893 H 607.945 0.855613 3.86646 0
M  V30 5894 H 609.119 3.55679 2.92966 0
M  V30 5895 H 607.434 3.11118 2.76757 0
M  V30 5896 H 610.031 1.59945 5.10217 0
M  V30 5897 H 610.374 0.169726 4.15954 0
M  V30 5898 H 610.907 1.76168 3.56665 0
M  V30 5899 H 607.646 4.51484 4.75229 0
M  V30 5900 H 607.166 2.87971 5.26149 0
M  V30 5901 H 608.845 3.43009 5.48592 0
M  V30 5902 N 608.977 -1.30795 0.87923 0
M  V30 5903 C 609.909 -2.27241 0.299025 0
M  V30 5904 C 610.922 -1.53472 -0.543166 0
M  V30 5905 O 612.111 -1.74756 -0.363651 0
M  V30 5906 C 609.211 -3.33655 -0.593931 0
M  V30 5907 C 608.384 -4.36857 0.2179 0
M  V30 5908 C 607.443 -5.22715 -0.604646 0
M  V30 5909 O 606.469 -5.69192 -0.0293838 0
M  V30 5910 N 607.671 -5.48008 -1.91488 0
M  V30 5911 H 610.436 -2.77667 1.12788 0
M  V30 5912 H 607.997 -1.43914 0.741637 0
M  V30 5913 H 609.989 -3.88013 -1.15012 0
M  V30 5914 H 608.559 -2.83202 -1.32346 0
M  V30 5915 H 607.779 -3.82444 0.955536 0
M  V30 5916 H 609.067 -5.02869 0.774614 0
M  V30 5917 H 608.465 -5.1202 -2.40525 0
M  V30 5918 H 607.022 -6.05264 -2.41864 0
M  V30 5919 N 610.455 -0.639598 -1.44038 0
M  V30 5920 C 611.365 0.0612377 -2.3452 0
M  V30 5921 C 612.381 0.826717 -1.53106 0
M  V30 5922 O 613.557 0.777059 -1.85806 0
M  V30 5923 C 610.622 1.02492 -3.31204 0
M  V30 5924 C 609.683 0.25788 -4.28525 0
M  V30 5925 C 608.916 1.17566 -5.2059 0
M  V30 5926 O 609.139 2.41461 -5.16771 0
M  V30 5927 O 608.073 0.655407 -5.98321 0
M  V30 5928 H 611.899 -0.68318 -2.95916 0
M  V30 5929 H 609.484 -0.399784 -1.43952 0
M  V30 5930 H 611.366 1.57911 -3.90694 0
M  V30 5931 H 610.041 1.7498 -2.7233 0
M  V30 5932 H 608.948 -0.339566 -3.72556 0
M  V30 5933 H 610.281 -0.427154 -4.90343 0
M  V30 5934 N 611.933 1.52934 -0.380664 0
M  V30 5935 C 612.865 2.23822 0.493581 0
M  V30 5936 C 613.878 1.25761 1.03383 0
M  V30 5937 O 615.067 1.5189 0.937633 0
M  V30 5938 C 612.167 2.9342 1.69582 0
M  V30 5939 C 611.34 4.18115 1.28445 0
M  V30 5940 C 610.399 4.70788 2.35042 0
M  V30 5941 O 609.425 5.34093 1.96807 0
M  V30 5942 N 610.627 4.49899 3.66839 0
M  V30 5943 H 613.392 2.99484 -0.11371 0
M  V30 5944 H 610.953 1.60577 -0.206587 0
M  V30 5945 H 612.945 3.2556 2.40401 0
M  V30 5946 H 611.515 2.21119 2.20965 0
M  V30 5947 H 610.735 3.92109 0.405503 0
M  V30 5948 H 612.023 4.99152 0.986132 0
M  V30 5949 H 611.421 3.99349 4.0067 0
M  V30 5950 H 609.978 4.86551 4.33718 0
M  V30 5951 N 613.412 0.11024 1.57214 0
M  V30 5952 C 614.661 -0.549638 1.94067 0
M  V30 5953 C 614.974 -1.68388 0.995234 0
M  V30 5954 O 616.18 -2.40593 1.25807 0
M  V30 5955 C 614.636 -1.02912 3.44873 0
M  V30 5956 C 614.244 0.0761861 4.47935 0
M  V30 5957 C 615.988 -1.66087 3.9066 0
M  V30 5958 C 613.895 -0.419502 5.8991 0
M  V30 5959 H 612.825 -0.209092 0.724428 0
M  V30 5960 H 615.476 0.188683 1.82527 0
M  V30 5961 H 613.858 -1.82159 3.51616 0
M  V30 5962 H 615.032 0.852185 4.52851 0
M  V30 5963 H 613.347 0.614052 4.11847 0
M  V30 5964 H 615.944 -2.04272 4.94143 0
M  V30 5965 H 616.287 -2.53591 3.30148 0
M  V30 5966 H 616.82 -0.933959 3.86681 0
M  V30 5967 H 613.559 0.419277 6.54158 0
M  V30 5968 H 613.079 -1.16217 5.88433 0
M  V30 5969 H 614.758 -0.883577 6.40938 0
M  V30 5970 N 614.89 -1.56749 -0.16351 0
M  V30 5971 C 616.115 -1.86938 -0.898264 0
M  V30 5972 C 616.54 -0.697456 -1.74692 0
M  V30 5973 O 615.898 0.353327 -1.77824 0
M  V30 5974 C 615.946 -3.15599 -1.74441 0
M  V30 5975 O 615.05 -2.98371 -2.8469 0
M  V30 5976 H 614.391 -0.614659 -0.251178 0
M  V30 5977 H 616.921 -2.03979 -0.159298 0
M  V30 5978 H 616.931 -3.47202 -2.14277 0
M  V30 5979 H 615.606 -4.00505 -1.1211 0
M  V30 5980 H 614.183 -2.7814 -2.4838 0
M  V30 5981 N 616.368 0.432326 -1.51554 0
M  V30 5982 C 617.316 1.54572 -1.73811 0
M  V30 5983 C 618.31 1.58246 -0.604539 0
M  V30 5984 O 619.516 1.6193 -0.786041 0
M  V30 5985 H 615.891 0.513626 -0.549265 0
M  V30 5986 H 617.862 1.32977 -2.67132 0
M  V30 5987 C 616.611 2.92181 -1.88483 0
M  V30 5988 H 615.934 2.90088 -2.75116 0
M  V30 5989 H 617.374 3.69439 -2.08065 0
M  V30 5990 C 615.833 3.3065 -0.645909 0
M  V30 5991 O 616.363 4.01216 0.197093 0
M  V30 5992 N 614.569 2.86464 -0.488538 0
M  V30 5993 H 614.116 2.29209 -1.17562 0
M  V30 5994 H 614.074 3.12565 0.339156 0
M  V30 5995 N 617.846 1.41785 0.688094 0
M  V30 5996 C 618.776 1.47 1.8142 0
M  V30 5997 C 619.757 0.327881 1.6691 0
M  V30 5998 O 620.942 0.540362 1.86531 0
M  V30 5999 C 618.072 1.35876 3.19617 0
M  V30 6000 C 617.026 2.47976 3.48844 0
M  V30 6001 C 616.352 2.21915 4.86475 0
M  V30 6002 C 617.652 3.90309 3.47068 0
M  V30 6003 H 619.346 2.41247 1.77314 0
M  V30 6004 H 616.892 1.16116 0.851651 0
M  V30 6005 H 618.845 1.38134 3.98117 0
M  V30 6006 H 617.569 0.38116 3.24368 0
M  V30 6007 H 616.228 2.45013 2.72698 0
M  V30 6008 H 615.876 1.2248 4.8786 0
M  V30 6009 H 615.576 2.97037 5.06994 0
M  V30 6010 H 617.1 2.25901 5.67275 0
M  V30 6011 H 618.514 3.94947 4.1556 0
M  V30 6012 H 616.911 4.65175 3.7912 0
M  V30 6013 H 617.981 4.17927 2.45896 0
M  V30 6014 N 619.324 -0.923095 1.27737 0
M  V30 6015 C 620.234 -2.05765 1.12685 0
M  V30 6016 C 621.25 -1.73911 0.0557197 0
M  V30 6017 O 622.426 -1.99674 0.263137 0
M  V30 6018 C 619.491 -3.37804 0.780363 0
M  V30 6019 C 618.552 -3.83326 1.93286 0
M  V30 6020 C 617.785 -5.09064 1.60281 0
M  V30 6021 O 618.008 -5.6809 0.512828 0
M  V30 6022 O 616.942 -5.50071 2.44347 0
M  V30 6023 H 620.768 -2.21378 2.07907 0
M  V30 6024 H 618.353 -1.04299 1.06968 0
M  V30 6025 H 620.235 -4.17097 0.600668 0
M  V30 6026 H 618.91 -3.23387 -0.142291 0
M  V30 6027 H 617.817 -3.049 2.16764 0
M  V30 6028 H 619.15 -4.02292 2.83588 0
M  V30 6029 N 620.802 -1.09834 -1.13024 0
M  V30 6030 C 621.765 -0.745058 -2.16752 0
M  V30 6031 C 622.765 0.227435 -1.59183 0
M  V30 6032 O 623.955 0.0050786 -1.74199 0
M  V30 6033 C 621.087 -0.102543 -3.40746 0
M  V30 6034 H 622.28 -1.66375 -2.49518 0
M  V30 6035 H 619.833 -0.898061 -1.27924 0
M  V30 6036 H 620.568 0.827177 -3.13573 0
M  V30 6037 H 620.353 -0.80235 -3.83803 0
M  V30 6038 H 621.843 0.129082 -4.174 0
M  V30 6039 N 622.28 1.30327 -0.886154 0
M  V30 6040 C 623.212 2.27079 -0.311072 0
M  V30 6041 C 624.225 1.53758 0.53502 0
M  V30 6042 O 625.414 1.74947 0.354378 0
M  V30 6043 C 622.514 3.33965 0.576228 0
M  V30 6044 C 621.687 4.36735 -0.241064 0
M  V30 6045 C 620.746 5.23028 0.576916 0
M  V30 6046 O 619.772 5.692 -0.000802231 0
M  V30 6047 N 620.974 5.49016 1.88579 0
M  V30 6048 H 623.739 2.77065 -1.14259 0
M  V30 6049 H 621.3 1.43519 -0.749258 0
M  V30 6050 H 623.292 3.88618 1.12953 0
M  V30 6051 H 621.862 2.839 1.30842 0
M  V30 6052 H 621.082 3.81932 -0.975805 0
M  V30 6053 H 622.37 5.02451 -0.801272 0
M  V30 6054 H 621.768 5.13288 2.37806 0
M  V30 6055 H 620.325 6.06539 2.38651 0
M  V30 6056 N 623.758 0.647228 1.43697 0
M  V30 6057 C 625.007 0.155552 2.01099 0
M  V30 6058 C 625.32 -1.23569 1.51624 0
M  V30 6059 O 626.526 -1.82226 2.01261 0
M  V30 6060 C 624.982 0.227296 3.59182 0
M  V30 6061 C 624.59 1.62086 4.17651 0
M  V30 6062 C 626.334 -0.207085 4.23995 0
M  V30 6063 C 624.241 1.64685 5.68008 0
M  V30 6064 H 623.171 0.0543895 0.752036 0
M  V30 6065 H 625.822 0.808386 1.64734 0
M  V30 6066 H 624.204 -0.492937 3.9292 0
M  V30 6067 H 625.378 2.36597 3.95422 0
M  V30 6068 H 623.693 2.0007 3.65186 0
M  V30 6069 H 626.29 -0.207426 5.34298 0
M  V30 6070 H 626.633 -1.23742 3.97484 0
M  V30 6071 H 627.166 0.461193 3.95118 0
M  V30 6072 H 623.905 2.65608 5.99277 0
M  V30 6073 H 623.425 0.944914 5.9231 0
M  V30 6074 H 625.104 1.38792 6.31938 0
M  V30 6075 N 625.236 -1.5273 0.388769 0
M  V30 6076 C 626.464 -2.05992 -0.193677 0
M  V30 6077 C 626.879 -1.26053 -1.40557 0
M  V30 6078 O 626.236 -0.307049 -1.79898 0
M  V30 6079 C 626.287 -3.57068 -0.564321 0
M  V30 6080 O 626.008 -4.3398 0.599422 0
M  V30 6081 C 627.509 -4.26674 -1.20269 0
M  V30 6082 H 624.729 -0.670358 -0.0293445 0
M  V30 6083 H 627.273 -1.96857 0.553844 0
M  V30 6084 H 625.428 -3.66277 -1.26174 0
M  V30 6085 H 625.842 -5.2367 0.294895 0
M  V30 6086 H 627.316 -5.33625 -1.4124 0
M  V30 6087 H 627.793 -3.81854 -2.16989 0
M  V30 6088 H 628.399 -4.2178 -0.546047 0
M  V30 6089 N 626.714 -0.118576 -1.57153 0
M  V30 6090 C 627.991 0.583062 -1.86708 0
M  V30 6091 C 628.371 1.84841 -1.01967 0
M  V30 6092 O 627.719 2.28288 -0.0984673 0
M  V30 6093 C 627.929 0.875912 -3.3783 0
M  V30 6094 C 629.277 1.22916 -4.0642 0
M  V30 6095 O 630.301 0.966188 -3.42846 0
M  V30 6096 O 629.16 1.72269 -5.18638 0
M  V30 6097 H 626.254 0.294185 -0.772906 0
M  V30 6098 H 628.8 -0.153048 -1.69008 0
M  V30 6099 H 627.572 -0.0207776 -3.91294 0
M  V30 6100 H 627.195 1.66719 -3.60958 0
M  V30 6101 N 628.193 1.56834 0.155195 0
M  V30 6102 C 629.439 1.83169 0.870467 0
M  V30 6103 C 629.772 0.698929 1.81187 0
M  V30 6104 O 629.047 -0.298035 1.92203 0
M  V30 6105 C 629.33 3.19965 1.65211 0
M  V30 6106 C 629.183 4.43792 0.732744 0
M  V30 6107 C 630.502 3.53885 2.61636 0
M  V30 6108 H 627.621 0.666288 0.315006 0
M  V30 6109 H 630.263 1.89513 0.135988 0
M  V30 6110 H 628.413 3.14687 2.27825 0
M  V30 6111 H 630.085 4.61148 0.118236 0
M  V30 6112 H 628.328 4.3378 0.0417906 0
M  V30 6113 H 628.999 5.36095 1.31552 0
M  V30 6114 H 631.475 3.5972 2.09143 0
M  V30 6115 H 630.351 4.50648 3.13381 0
M  V30 6116 H 630.612 2.79418 3.42605 0
M  V30 6117 N 629.671 -0.424282 1.51781 0
M  V30 6118 C 631.087 -0.761768 1.40247 0
M  V30 6119 C 631.287 -1.95324 0.495041 0
M  V30 6120 O 630.343 -2.5246 -0.0448949 0
M  V30 6121 C 631.656 -1.0299 2.82513 0
M  V30 6122 C 633.204 -1.13354 2.91753 0
M  V30 6123 C 633.679 -1.43453 4.34954 0
M  V30 6124 N 635.17 -1.5035 4.3812 0
M  V30 6125 C 635.905 -1.75236 5.45967 0
M  V30 6126 N 635.401 -1.97827 6.63955 0
M  V30 6127 N 637.194 -1.77126 5.33463 0
M  V30 6128 H 629.345 0.360228 2.09323 0
M  V30 6129 H 631.608 0.0988128 0.942836 0
M  V30 6130 H 631.314 -0.226961 3.50967 0
M  V30 6131 H 631.188 -1.95411 3.22637 0
M  V30 6132 H 633.575 -1.92709 2.23489 0
M  V30 6133 H 633.656 -0.188041 2.55108 0
M  V30 6134 H 633.3 -0.646209 5.03772 0
M  V30 6135 H 633.23 -2.3923 4.69123 0
M  V30 6136 H 635.721 -1.34742 3.53062 0
M  V30 6137 H 636.034 -2.16223 7.41935 0
M  V30 6138 H 634.379 -1.95123 6.67047 0
M  V30 6139 H 637.57 -1.59005 4.40267 0
M  V30 6140 H 637.743 -1.96182 6.17589 0
M  V30 6141 N 631.149 -1.42148 -0.680565 0
M  V30 6142 C 632.081 -1.41119 -1.80605 0
M  V30 6143 C 633.094 -0.311099 -1.598 0
M  V30 6144 O 634.283 -0.573813 -1.69026 0
M  V30 6145 C 631.383 -1.18204 -3.17618 0
M  V30 6146 C 630.556 -2.40537 -3.65322 0
M  V30 6147 C 629.615 -2.13254 -4.8105 0
M  V30 6148 O 628.641 -2.8641 -4.91892 0
M  V30 6149 N 629.843 -1.13208 -5.69354 0
M  V30 6150 H 632.608 -2.38128 -1.81975 0
M  V30 6151 H 630.169 -1.36953 -0.863446 0
M  V30 6152 H 632.161 -0.97878 -3.92686 0
M  V30 6153 H 630.731 -0.29738 -3.11182 0
M  V30 6154 H 629.951 -2.76468 -2.80996 0
M  V30 6155 H 631.239 -3.22012 -3.93936 0
M  V30 6156 H 630.637 -0.526893 -5.63241 0
M  V30 6157 H 629.194 -0.988699 -6.44258 0
M  V30 6158 N 632.627 0.916307 -1.28225 0
M  V30 6159 C 633.537 2.05165 -1.13775 0
M  V30 6160 C 634.553 1.73879 -0.0649418 0
M  V30 6161 O 635.729 1.99531 -0.273722 0
M  V30 6162 C 632.794 3.37385 -0.798267 0
M  V30 6163 C 631.855 3.82296 -1.95316 0
M  V30 6164 C 631.088 5.08206 -1.62978 0
M  V30 6165 O 631.311 5.6781 -0.542948 0
M  V30 6166 O 630.245 5.48768 -2.47261 0
M  V30 6167 H 634.071 2.20273 -2.09078 0
M  V30 6168 H 631.656 1.0373 -1.07519 0
M  V30 6169 H 633.538 4.16773 -0.62278 0
M  V30 6170 H 632.213 3.23458 0.125139 0
M  V30 6171 H 631.12 3.03746 -2.18378 0
M  V30 6172 H 632.453 4.00782 -2.85718 0
M  V30 6173 N 634.105 1.10431 1.1244 0
M  V30 6174 C 635.354 0.841539 1.83306 0
M  V30 6175 C 635.667 -0.634961 1.85007 0
M  V30 6176 O 636.873 -1.01363 2.51869 0
M  V30 6177 C 635.329 1.45565 3.29149 0
M  V30 6178 C 634.937 2.96544 3.35806 0
M  V30 6179 C 636.681 1.27227 4.04986 0
M  V30 6180 C 634.588 3.5099 4.75983 0
M  V30 6181 H 633.518 0.311156 0.686803 0
M  V30 6182 H 636.169 1.32829 1.26604 0
M  V30 6183 H 634.551 0.896574 3.85717 0
M  V30 6184 H 635.725 3.58766 2.89177 0
M  V30 6185 H 634.04 3.14036 2.73442 0
M  V30 6186 H 636.637 1.65348 5.08492 0
M  V30 6187 H 636.98 0.213834 4.1575 0
M  V30 6188 H 637.513 1.79941 3.54776 0
M  V30 6189 H 634.252 4.56499 4.70413 0
M  V30 6190 H 633.772 2.93535 5.23065 0
M  V30 6191 H 635.451 3.48808 5.44924 0
M  V30 6192 N 635.583 -1.29855 0.893053 0
M  V30 6193 C 636.493 -2.31661 0.370157 0
M  V30 6194 C 637.509 -1.65677 -0.531723 0
M  V30 6195 O 638.685 -1.9691 -0.422902 0
M  V30 6196 C 635.75 -3.44388 -0.399741 0
M  V30 6197 C 634.811 -4.2598 0.532861 0
M  V30 6198 C 634.044 -5.33324 -0.200388 0
M  V30 6199 O 634.267 -5.52305 -1.42531 0
M  V30 6200 O 633.201 -6.00188 0.453668 0
M  V30 6201 H 637.027 -2.78354 1.2146 0
M  V30 6202 H 634.612 -1.34171 0.657153 0
M  V30 6203 H 636.494 -4.13037 -0.835358 0
M  V30 6204 H 635.169 -2.99815 -1.22035 0
M  V30 6205 H 634.076 -3.59998 1.01746 0
M  V30 6206 H 635.409 -4.74178 1.3197 0
M  V30 6207 N 637.061 -0.65484 -1.43351 0
M  V30 6208 C 638.301 -0.172514 -2.03671 0
M  V30 6209 C 638.665 1.19154 -1.50553 0
M  V30 6210 O 639.866 1.76737 -2.02528 0
M  V30 6211 C 638.137 -0.183982 -3.56926 0
M  V30 6212 S 639.696 0.230262 -4.38195 0
M  V30 6213 H 636.514 -0.0727503 -0.707268 0
M  V30 6214 H 639.116 -0.863537 -1.75395 0
M  V30 6215 H 637.82 -1.17945 -3.93087 0
M  V30 6216 H 637.351 0.527527 -3.89847 0
M  V30 6217 H 639.366 1.46874 -4.73965 0
M  V30 6218 N 638.539 1.52521 -0.396863 0
M  V30 6219 C 639.471 2.24333 0.469814 0
M  V30 6220 C 640.484 1.2685 1.02043 0
M  V30 6221 O 641.673 1.52876 0.92147 0
M  V30 6222 C 638.773 2.95202 1.66461 0
M  V30 6223 C 637.946 4.19454 1.24003 0
M  V30 6224 C 637.005 4.73255 2.30036 0
M  V30 6225 O 636.031 5.36151 1.91131 0
M  V30 6226 N 637.233 4.53765 3.62047 0
M  V30 6227 H 639.998 2.99347 -0.145468 0
M  V30 6228 H 637.559 1.60348 -0.223606 0
M  V30 6229 H 639.551 3.28092 2.36934 0
M  V30 6230 H 638.121 2.2345 2.18607 0
M  V30 6231 H 637.341 3.92517 0.363892 0
M  V30 6232 H 638.629 5.0017 0.933135 0
M  V30 6233 H 638.027 4.03576 3.96412 0
M  V30 6234 H 636.584 4.91124 4.28533 0
M  V30 6235 N 640.017 0.126909 1.57088 0
M  V30 6236 C 640.965 -0.837618 2.16995 0
M  V30 6237 C 641.959 -1.26974 1.12133 0
M  V30 6238 O 643.165 -1.24056 1.30423 0
M  V30 6239 H 639.54 -0.288256 0.694559 0
M  V30 6240 H 641.511 -0.307957 2.96807 0
M  V30 6241 C 640.26 -2.07474 2.79016 0
M  V30 6242 H 639.583 -1.75117 3.59408 0
M  V30 6243 H 641.023 -2.72949 3.24461 0
M  V30 6244 C 639.482 -2.86967 1.76498 0
M  V30 6245 O 640.012 -3.82625 1.22316 0
M  V30 6246 N 638.218 -2.51111 1.46258 0
M  V30 6247 H 637.765 -1.73389 1.90509 0
M  V30 6248 H 637.723 -3.04594 0.779085 0
M  V30 6249 N 641.495 -1.56914 -0.146875 0
M  V30 6250 C 642.427 -1.94878 -1.20645 0
M  V30 6251 C 643.44 -0.844633 -1.39175 0
M  V30 6252 O 644.629 -1.12304 -1.38744 0
M  V30 6253 C 641.729 -2.20769 -2.57127 0
M  V30 6254 C 640.902 -3.52053 -2.59572 0
M  V30 6255 C 639.961 -3.66482 -3.77594 0
M  V30 6256 O 638.987 -4.38873 -3.62462 0
M  V30 6257 N 640.189 -3.03156 -4.95052 0
M  V30 6258 H 642.954 -2.86374 -0.883757 0
M  V30 6259 H 640.515 -1.58366 -0.336436 0
M  V30 6260 H 642.507 -2.27664 -3.34591 0
M  V30 6261 H 641.077 -1.35538 -2.81688 0
M  V30 6262 H 640.297 -3.56598 -1.68023 0
M  V30 6263 H 641.585 -4.38396 -2.58238 0
M  V30 6264 H 640.983 -2.44258 -5.10249 0
M  V30 6265 H 639.54 -3.15611 -5.70292 0
M  V30 6266 N 642.974 0.416227 -1.52004 0
M  V30 6267 C 643.884 1.53147 -1.77717 0
M  V30 6268 C 644.9 1.609 -0.662368 0
M  V30 6269 O 646.076 1.77747 -0.946991 0
M  V30 6270 C 643.141 2.88948 -1.91598 0
M  V30 6271 C 642.202 2.9114 -3.15493 0
M  V30 6272 C 641.435 4.20464 -3.28703 0
M  V30 6273 O 641.658 5.13981 -2.47345 0
M  V30 6274 O 640.592 4.29368 -4.21813 0
M  V30 6275 H 644.418 1.34357 -2.72363 0
M  V30 6276 H 642.003 0.601373 -1.36762 0
M  V30 6277 H 643.885 3.69505 -2.02593 0
M  V30 6278 H 642.56 3.07821 -1.00141 0
M  V30 6279 H 641.467 2.09461 -3.09962 0
M  V30 6280 H 642.8 2.77216 -4.06709 0
M  V30 6281 N 644.452 1.42507 0.673017 0
M  V30 6282 C 645.682 1.46261 1.45916 0
M  V30 6283 C 646.09 0.0729724 1.89059 0
M  V30 6284 O 645.433 -0.922987 1.58829 0
M  V30 6285 C 645.495 2.32853 2.73898 0
M  V30 6286 C 645.159 3.80699 2.52819 0
M  V30 6287 C 646.156 4.72307 2.17306 0
M  V30 6288 C 643.841 4.24983 2.67758 0
M  V30 6289 C 645.835 6.06192 1.97003 0
M  V30 6290 C 643.522 5.58927 2.4707 0
M  V30 6291 C 644.52 6.49348 2.11746 0
M  V30 6292 O 644.208 7.80817 1.91259 0
M  V30 6293 H 643.94 0.499561 0.455428 0
M  V30 6294 H 646.494 1.87697 0.834196 0
M  V30 6295 H 644.724 1.86268 3.38882 0
M  V30 6296 H 646.413 2.28041 3.35786 0
M  V30 6297 H 647.179 4.39378 2.05359 0
M  V30 6298 H 643.058 3.54893 2.94231 0
M  V30 6299 H 646.602 6.76731 1.69355 0
M  V30 6300 H 642.499 5.91429 2.58615 0
M  V30 6301 H 643.267 7.92194 2.05843 0
M  V30 6302 N 645.93 -0.909495 1.28709 0
M  V30 6303 C 647.155 -1.69801 1.1909 0
M  V30 6304 C 647.58 -1.86479 -0.246388 0
M  V30 6305 O 646.938 -1.37802 -1.17815 0
M  V30 6306 C 646.986 -3.06543 1.89904 0
M  V30 6307 O 646.09 -3.94268 1.2094 0
M  V30 6308 H 645.431 -0.519783 0.413185 0
M  V30 6309 H 647.961 -1.13689 1.70106 0
M  V30 6310 H 647.971 -3.56748 1.97977 0
M  V30 6311 H 646.646 -2.93722 2.94449 0
M  V30 6312 H 645.223 -3.52702 1.2106 0
M  V30 6313 N 647.408 -1.11026 -1.11852 0
M  V30 6314 C 648.338 -0.786812 -2.19844 0
M  V30 6315 C 649.319 0.242935 -1.68356 0
M  V30 6316 O 650.504 0.107355 -1.93903 0
M  V30 6317 C 647.634 -0.224516 -3.46574 0
M  V30 6318 C 646.588 -1.18564 -4.1125 0
M  V30 6319 C 645.914 -0.484261 -5.32503 0
M  V30 6320 C 647.214 -2.53465 -4.56676 0
M  V30 6321 H 648.908 -1.68978 -2.47158 0
M  V30 6322 H 646.454 -0.813906 -1.18792 0
M  V30 6323 H 648.407 0.0139435 -4.21398 0
M  V30 6324 H 647.131 0.713722 -3.18706 0
M  V30 6325 H 645.79 -1.40966 -3.38414 0
M  V30 6326 H 645.438 0.458646 -5.00905 0
M  V30 6327 H 645.138 -1.12526 -5.76725 0
M  V30 6328 H 646.662 -0.254492 -6.10069 0
M  V30 6329 H 648.076 -2.35177 -5.22843 0
M  V30 6330 H 646.473 -3.13507 -5.11697 0
M  V30 6331 H 647.543 -3.13008 -3.70343 0
M  V30 6332 N 648.886 1.2938 -0.899927 0
M  V30 6333 C 649.816 2.30144 -0.39446 0
M  V30 6334 C 650.797 1.61611 0.530639 0
M  V30 6335 O 651.982 1.89119 0.441319 0
M  V30 6336 C 649.112 3.45229 0.37868 0
M  V30 6337 C 648.066 4.25564 -0.456012 0
M  V30 6338 C 647.392 5.32848 0.444637 0
M  V30 6339 C 648.692 4.93651 -1.70605 0
M  V30 6340 H 650.386 2.72673 -1.23653 0
M  V30 6341 H 647.932 1.31086 -0.596034 0
M  V30 6342 H 649.885 4.14797 0.743037 0
M  V30 6343 H 648.609 3.01545 1.25453 0
M  V30 6344 H 647.268 3.57704 -0.802704 0
M  V30 6345 H 646.916 4.85408 1.31863 0
M  V30 6346 H 646.616 5.87497 -0.110154 0
M  V30 6347 H 648.14 6.05268 0.805182 0
M  V30 6348 H 649.554 5.55655 -1.41141 0
M  V30 6349 H 647.951 5.58233 -2.20217 0
M  V30 6350 H 649.021 4.18926 -2.4419 0
M  V30 6351 N 650.364 0.662433 1.43002 0
M  V30 6352 C 651.294 -0.00979809 2.33498 0
M  V30 6353 C 652.275 -0.802329 1.49989 0
M  V30 6354 O 653.46 -0.761964 1.78627 0
M  V30 6355 C 650.59 -0.970446 3.33466 0
M  V30 6356 C 649.544 -0.287383 4.27034 0
M  V30 6357 C 648.87 -1.36012 5.17112 0
M  V30 6358 C 650.17 0.82595 5.15728 0
M  V30 6359 H 651.864 0.745959 2.89958 0
M  V30 6360 H 649.41 0.360172 1.39423 0
M  V30 6361 H 651.363 -1.44971 3.95679 0
M  V30 6362 H 650.087 -1.75748 2.75282 0
M  V30 6363 H 648.746 0.17152 3.66199 0
M  V30 6364 H 648.394 -2.13882 4.55262 0
M  V30 6365 H 648.094 -0.908276 5.80538 0
M  V30 6366 H 649.618 -1.84056 5.82199 0
M  V30 6367 H 651.032 0.42845 5.71697 0
M  V30 6368 H 649.429 1.20282 5.87922 0
M  V30 6369 H 650.499 1.68003 4.54866 0
M  V30 6370 N 651.842 -1.52309 0.404946 0
M  V30 6371 C 653.067 -2.06666 -0.1743 0
M  V30 6372 C 653.492 -1.27341 -1.38441 0
M  V30 6373 O 652.85 -0.302539 -1.78758 0
M  V30 6374 C 652.898 -3.57014 -0.507262 0
M  V30 6375 O 652.002 -3.80144 -1.59889 0
M  V30 6376 H 651.343 -0.663807 -0.0160273 0
M  V30 6377 H 653.873 -1.96297 0.576937 0
M  V30 6378 H 653.883 -4.00724 -0.767098 0
M  V30 6379 H 652.558 -4.14184 0.377368 0
M  V30 6380 H 651.135 -3.48316 -1.33155 0
M  V30 6381 N 653.32 -0.135238 -1.57019 0
M  V30 6382 C 654.569 0.518694 -1.94917 0
M  V30 6383 C 654.882 1.66783 -1.0219 0
M  V30 6384 O 656.088 2.38561 -1.29619 0
M  V30 6385 C 654.544 0.974123 -3.46466 0
M  V30 6386 C 654.152 -0.147439 -4.47757 0
M  V30 6387 C 655.896 1.59851 -3.93253 0
M  V30 6388 C 653.803 0.325599 -5.90503 0
M  V30 6389 H 652.733 0.19754 -0.727663 0
M  V30 6390 H 655.384 -0.217698 -1.82204 0
M  V30 6391 H 653.766 1.76542 -3.5447 0
M  V30 6392 H 654.94 -0.924122 -4.51438 0
M  V30 6393 H 653.255 -0.679496 -4.10818 0
M  V30 6394 H 655.852 1.96385 -4.9733 0
M  V30 6395 H 656.195 2.48306 -3.3414 0
M  V30 6396 H 656.728 0.872323 -3.88118 0
M  V30 6397 H 653.467 -0.523295 -6.53408 0
M  V30 6398 H 652.987 1.06841 -5.90208 0
M  V30 6399 H 654.666 0.781498 -6.42263 0
M  V30 6400 N 654.798 1.5699 0.138552 0
M  V30 6401 C 655.745 1.98899 1.17081 0
M  V30 6402 C 656.715 0.857922 1.42228 0
M  V30 6403 O 657.9 1.12065 1.54422 0
M  V30 6404 C 655.04 2.38189 2.4972 0
M  V30 6405 C 654.153 3.64624 2.31674 0
M  V30 6406 C 653.288 3.9298 3.57407 0
M  V30 6407 C 652.327 5.1266 3.34435 0
M  V30 6408 N 651.464 5.36983 4.5232 0
M  V30 6409 H 656.304 2.86881 0.80642 0
M  V30 6410 H 653.841 1.41925 0.386727 0
M  V30 6411 H 655.799 2.59 3.2707 0
M  V30 6412 H 654.429 1.53275 2.84089 0
M  V30 6413 H 653.481 3.51542 1.45337 0
M  V30 6414 H 654.793 4.52131 2.10664 0
M  V30 6415 H 653.947 4.14335 4.43183 0
M  V30 6416 H 652.686 3.03912 3.8143 0
M  V30 6417 H 651.691 4.9117 2.47048 0
M  V30 6418 H 652.916 6.03288 3.11802 0
M  V30 6419 H 650.862 4.50871 4.76499 0
M  V30 6420 H 650.779 6.18775 4.34343 0
M  V30 6421 H 652.047 5.62842 5.39285 0
M  V30 6422 N 656.276 -0.40816 1.52223 0
M  V30 6423 C 657.209 -1.51834 1.70357 0
M  V30 6424 C 658.187 -1.52973 0.551171 0
M  V30 6425 O 659.371 -1.71667 0.778642 0
M  V30 6426 C 656.498 -2.90362 1.74378 0
M  V30 6427 C 655.544 -3.0713 2.95928 0
M  V30 6428 S 656.377 -2.80342 4.56255 0
M  V30 6429 C 657.533 -4.21098 4.63063 0
M  V30 6430 H 657.766 -1.36223 2.64255 0
M  V30 6431 H 655.299 -0.599798 1.42274 0
M  V30 6432 H 657.257 -3.70199 1.77379 0
M  V30 6433 H 655.918 -3.03314 0.816063 0
M  V30 6434 H 655.111 -4.08482 2.95226 0
M  V30 6435 H 654.713 -2.3516 2.90819 0
M  V30 6436 H 657.005 -5.14749 4.40499 0
M  V30 6437 H 657.948 -4.26823 5.65002 0
M  V30 6438 H 658.356 -4.06114 3.92086 0
M  V30 6439 N 657.755 -1.42862 -0.66545 0
M  V30 6440 C 659.171 -1.25993 -0.979687 0
M  V30 6441 C 659.371 -0.170831 -2.00775 0
M  V30 6442 O 658.427 0.454827 -2.4837 0
M  V30 6443 C 659.74 -2.62005 -1.47559 0
M  V30 6444 C 661.288 -2.69437 -1.59288 0
M  V30 6445 C 661.763 -4.05838 -2.12272 0
M  V30 6446 N 663.254 -4.0784 -2.19592 0
M  V30 6447 C 663.989 -5.10205 -2.61684 0
M  V30 6448 N 663.485 -6.22949 -3.03161 0
M  V30 6449 N 665.278 -4.9756 -2.61516 0
M  V30 6450 H 657.429 -2.12395 0.0150493 0
M  V30 6451 H 659.692 -0.946355 -0.0558187 0
M  V30 6452 H 659.398 -3.42605 -0.794654 0
M  V30 6453 H 659.272 -2.86566 -2.45275 0
M  V30 6454 H 661.659 -1.89178 -2.26486 0
M  V30 6455 H 661.74 -2.48655 -0.600374 0
M  V30 6456 H 661.384 -4.86559 -1.4568 0
M  V30 6457 H 661.314 -4.23977 -3.12331 0
M  V30 6458 H 663.805 -3.26452 -1.90361 0
M  V30 6459 H 664.118 -6.96899 -3.33993 0
M  V30 6460 H 662.463 -6.2644 -3.00995 0
M  V30 6461 H 665.654 -4.08551 -2.28481 0
M  V30 6462 H 665.827 -5.77468 -2.93999 0
M  V30 6463 N 659.233 0.902656 -1.29189 0
M  V30 6464 C 660.163 2.02294 -1.16616 0
M  V30 6465 C 661.144 1.6999 -0.0611175 0
M  V30 6466 O 662.329 1.9271 -0.240072 0
M  V30 6467 C 659.459 3.37018 -0.83882 0
M  V30 6468 C 658.413 3.83522 -1.89986 0
M  V30 6469 C 657.739 5.15337 -1.42589 0
M  V30 6470 C 659.039 4.04169 -3.30824 0
M  V30 6471 H 660.733 2.13071 -2.10336 0
M  V30 6472 H 658.279 1.02378 -1.01266 0
M  V30 6473 H 660.232 4.14895 -0.737584 0
M  V30 6474 H 658.956 3.26325 0.134071 0
M  V30 6475 H 657.615 3.07859 -1.99043 0
M  V30 6476 H 657.263 5.01056 -0.441759 0
M  V30 6477 H 656.963 5.47423 -2.13547 0
M  V30 6478 H 658.487 5.95758 -1.3381 0
M  V30 6479 H 659.901 4.72537 -3.24626 0
M  V30 6480 H 658.298 4.47604 -3.99713 0
M  V30 6481 H 659.368 3.08604 -3.74021 0
M  V30 6482 N 660.711 1.11618 1.11262 0
M  V30 6483 C 661.621 0.78898 2.20935 0
M  V30 6484 C 662.637 -0.21867 1.7262 0
M  V30 6485 O 663.813 -0.0543826 2.01327 0
M  V30 6486 C 660.878 0.239014 3.45875 0
M  V30 6487 C 659.939 1.3055 4.08968 0
M  V30 6488 C 659.172 0.781687 5.27944 0
M  V30 6489 O 659.395 -0.387605 5.69082 0
M  V30 6490 O 658.329 1.54734 5.81671 0
M  V30 6491 H 662.155 1.70477 2.51339 0
M  V30 6492 H 659.74 0.892203 1.19834 0
M  V30 6493 H 661.622 -0.0632312 4.21353 0
M  V30 6494 H 660.297 -0.649454 3.17118 0
M  V30 6495 H 659.204 1.66079 3.35214 0
M  V30 6496 H 660.537 2.16743 4.41909 0
M  V30 6497 N 662.189 -1.289 0.906776 0
M  V30 6498 C 663.136 -2.2751 0.388313 0
M  V30 6499 C 664.106 -1.57301 -0.533439 0
M  V30 6500 O 665.291 -1.85243 -0.457148 0
M  V30 6501 C 662.431 -3.43091 -0.37181 0
M  V30 6502 C 661.544 -4.28066 0.581647 0
M  V30 6503 C 660.679 -5.30837 -0.19623 0
M  V30 6504 C 659.718 -6.07472 0.751294 0
M  V30 6505 N 658.855 -7.021 0.00737727 0
M  V30 6506 H 663.695 -2.71237 1.23428 0
M  V30 6507 H 661.232 -1.33397 0.619962 0
M  V30 6508 H 663.19 -4.08888 -0.828641 0
M  V30 6509 H 661.82 -3.00374 -1.18218 0
M  V30 6510 H 660.872 -3.62378 1.157 0
M  V30 6511 H 662.184 -4.81382 1.30665 0
M  V30 6512 H 661.338 -6.02485 -0.71394 0
M  V30 6513 H 660.077 -4.78272 -0.954324 0
M  V30 6514 H 659.082 -5.34682 1.28044 0
M  V30 6515 H 660.307 -6.62126 1.50883 0
M  V30 6516 H 658.253 -6.51894 -0.732854 0
M  V30 6517 H 658.17 -7.53004 0.672334 0
M  V30 6518 H 659.438 -7.77956 -0.490365 0
M  V30 6519 N 663.667 -0.670007 -1.42649 0
M  V30 6520 C 664.577 0.0114788 -2.34597 0
M  V30 6521 C 665.593 0.794055 -1.54825 0
M  V30 6522 O 666.769 0.737472 -1.87412 0
M  V30 6523 C 663.834 0.954436 -3.33304 0
M  V30 6524 C 662.895 0.166925 -4.28975 0
M  V30 6525 C 662.128 1.06497 -5.22967 0
M  V30 6526 O 662.351 2.30446 -5.21777 0
M  V30 6527 O 661.285 0.528347 -5.99577 0
M  V30 6528 H 665.111 -0.745794 -2.944 0
M  V30 6529 H 662.696 -0.430228 -1.43071 0
M  V30 6530 H 664.578 1.49589 -3.93956 0
M  V30 6531 H 663.253 1.69164 -2.7598 0
M  V30 6532 H 662.16 -0.418515 -3.71752 0
M  V30 6533 H 663.493 -0.531067 -4.89327 0
M  V30 6534 N 665.145 1.52092 -0.413018 0
M  V30 6535 C 666.394 2.01041 0.16287 0
M  V30 6536 C 666.707 1.30288 1.45892 0
M  V30 6537 O 667.913 1.70075 2.11629 0
M  V30 6538 C 666.369 3.58283 0.340806 0
M  V30 6539 C 665.977 4.37955 -0.943377 0
M  V30 6540 C 667.721 4.15452 0.871774 0
M  V30 6541 C 665.628 5.86847 -0.732417 0
M  V30 6542 H 664.558 0.751224 0.0646414 0
M  V30 6543 H 667.209 1.75404 -0.539059 0
M  V30 6544 H 665.591 3.80266 1.10516 0
M  V30 6545 H 666.765 4.2773 -1.71418 0
M  V30 6546 H 665.08 3.92122 -1.40105 0
M  V30 6547 H 667.677 5.24375 1.0457 0
M  V30 6548 H 668.02 3.73057 1.84755 0
M  V30 6549 H 668.553 3.97452 0.166377 0
M  V30 6550 H 665.292 6.33609 -1.67986 0
M  V30 6551 H 664.812 5.998 -0.000980058 0
M  V30 6552 H 666.491 6.45906 -0.376105 0
M  V30 6553 N 666.623 0.143563 1.56945 0
M  V30 6554 C 667.533 -0.810562 2.20152 0
M  V30 6555 C 668.549 -1.27431 1.1848 0
M  V30 6556 O 669.725 -1.33221 1.51044 0
M  V30 6557 C 666.79 -2.03353 2.80799 0
M  V30 6558 C 665.851 -1.61936 3.97587 0
M  V30 6559 C 665.084 -2.78403 4.55332 0
M  V30 6560 O 665.307 -3.94521 4.11958 0
M  V30 6561 O 664.241 -2.54073 5.45647 0
M  V30 6562 H 668.067 -0.30253 3.02189 0
M  V30 6563 H 665.652 -0.0832925 1.49168 0
M  V30 6564 H 667.534 -2.74932 3.19359 0
M  V30 6565 H 666.209 -2.53116 2.01777 0
M  V30 6566 H 665.116 -0.873904 3.6375 0
M  V30 6567 H 666.449 -1.16892 4.78118 0
M  V30 6568 N 668.101 -1.57061 -0.130224 0
M  V30 6569 C 669.329 -1.88432 -0.854456 0
M  V30 6570 C 669.744 -0.733608 -1.73964 0
M  V30 6571 O 669.101 0.296029 -1.80083 0
M  V30 6572 C 669.152 -3.1918 -1.69724 0
M  V30 6573 O 668.873 -4.2982 -0.847705 0
M  V30 6574 C 670.374 -3.6418 -2.5276 0
M  V30 6575 H 667.594 -0.624193 -0.246221 0
M  V30 6576 H 670.138 -2.04159 -0.11798 0
M  V30 6577 H 668.293 -3.05156 -2.3866 0
M  V30 6578 H 668.707 -5.04689 -1.42792 0
M  V30 6579 H 670.181 -4.58457 -3.07443 0
M  V30 6580 H 670.658 -2.90285 -3.29592 0
M  V30 6581 H 671.264 -3.80954 -1.89087 0
M  V30 6582 N 669.579 0.400081 -1.52437 0
M  V30 6583 C 670.809 1.16598 -1.70553 0
M  V30 6584 C 671.217 1.8451 -0.418665 0
M  V30 6585 O 670.56 1.73069 0.615855 0
M  V30 6586 C 670.622 2.26517 -2.7916 0
M  V30 6587 C 670.286 1.78666 -4.20628 0
M  V30 6588 C 671.283 1.26946 -5.04163 0
M  V30 6589 C 668.968 1.85225 -4.66902 0
M  V30 6590 C 670.962 0.824187 -6.32049 0
M  V30 6591 C 668.649 1.40309 -5.94774 0
M  V30 6592 C 669.647 0.889922 -6.77178 0
M  V30 6593 O 669.335 0.447281 -8.02655 0
M  V30 6594 H 669.067 0.356023 -0.574651 0
M  V30 6595 H 671.621 0.475598 -1.99818 0
M  V30 6596 H 669.851 2.98946 -2.45292 0
M  V30 6597 H 671.54 2.88237 -2.85787 0
M  V30 6598 H 672.306 1.21244 -4.69601 0
M  V30 6599 H 668.185 2.24111 -4.02859 0
M  V30 6600 H 671.729 0.422958 -6.96317 0
M  V30 6601 H 667.626 1.45693 -6.28843 0
M  V30 6602 H 668.394 0.569768 -8.16514 0
M  V30 6603 N 671.057 1.43213 0.657864 0
M  V30 6604 C 672.007 1.44459 1.76396 0
M  V30 6605 C 672.991 0.313641 1.57814 0
M  V30 6606 O 674.183 0.557094 1.68004 0
M  V30 6607 C 671.312 1.36586 3.14959 0
M  V30 6608 C 670.398 2.54692 3.39106 0
M  V30 6609 N 670.789 3.80059 3.33749 0
M  V30 6610 C 669.087 2.49316 3.69807 0
M  V30 6611 C 669.788 4.58606 3.57849 0
M  V30 6612 N 668.764 3.89267 3.79437 0
M  V30 6613 H 672.566 2.39265 1.70673 0
M  V30 6614 H 670.08 1.378 0.859357 0
M  V30 6615 H 672.077 1.35561 3.94245 0
M  V30 6616 H 670.737 0.427956 3.21867 0
M  V30 6617 H 671.748 4.12414 3.13266 0
M  V30 6618 H 668.425 1.6419 3.83859 0
M  V30 6619 H 669.815 5.67619 3.59525 0
M  V30 6620 N 672.536 -0.895792 1.29666 0
M  V30 6621 C 673.484 -2.02173 1.15017 0
M  V30 6622 C 674.478 -1.69276 0.0647651 0
M  V30 6623 O 675.684 -1.7859 0.224846 0
M  V30 6624 H 672.059 -0.662719 0.355397 0
M  V30 6625 H 674.03 -2.11666 2.10334 0
M  V30 6626 C 672.779 -3.37212 0.847555 0
M  V30 6627 H 672.102 -3.6303 1.67479 0
M  V30 6628 H 673.542 -4.16668 0.785106 0
M  V30 6629 C 672.001 -3.33891 -0.44929 0
M  V30 6630 O 672.531 -3.73673 -1.47415 0
M  V30 6631 N 670.737 -2.86991 -0.456547 0
M  V30 6632 H 670.284 -2.54813 0.377925 0
M  V30 6633 H 670.242 -2.85152 -1.32423 0
M  V30 6634 N 674.014 -1.12206 -1.10668 0
M  V30 6635 C 674.944 -0.810086 -2.18997 0
M  V30 6636 C 675.925 0.225065 -1.68604 0
M  V30 6637 O 677.11 0.086783 -1.94006 0
M  V30 6638 C 674.24 -0.261262 -3.46316 0
M  V30 6639 C 673.194 -1.2292 -4.09969 0
M  V30 6640 C 672.52 -0.540713 -5.31959 0
M  V30 6641 C 673.82 -2.58295 -4.53962 0
M  V30 6642 H 675.514 -1.7159 -2.45352 0
M  V30 6643 H 673.06 -0.82646 -1.17922 0
M  V30 6644 H 675.013 -0.0307522 -4.21389 0
M  V30 6645 H 673.737 0.679879 -3.19445 0
M  V30 6646 H 672.396 -1.44548 -3.369 0
M  V30 6647 H 672.044 0.405492 -5.01363 0
M  V30 6648 H 671.744 -1.18637 -5.75499 0
M  V30 6649 H 673.268 -0.319184 -6.09765 0
M  V30 6650 H 674.682 -2.40709 -5.20319 0
M  V30 6651 H 673.079 -3.18916 -5.08343 0
M  V30 6652 H 674.149 -3.16918 -3.67002 0
M  V30 6653 N 675.492 1.28418 -0.913599 0
M  V30 6654 C 676.422 2.29713 -0.418847 0
M  V30 6655 C 677.403 1.62165 0.513469 0
M  V30 6656 O 678.588 1.89576 0.421235 0
M  V30 6657 C 675.718 3.45612 0.342042 0
M  V30 6658 C 674.672 4.25056 -0.501123 0
M  V30 6659 C 673.998 5.3329 0.388097 0
M  V30 6660 C 675.298 4.91814 -1.75831 0
M  V30 6661 H 676.992 2.71346 -1.26538 0
M  V30 6662 H 674.538 1.30446 -0.609903 0
M  V30 6663 H 676.491 4.15562 0.699 0
M  V30 6664 H 675.215 3.02858 1.22248 0
M  V30 6665 H 673.874 3.56833 -0.840598 0
M  V30 6666 H 673.522 4.8678 1.26707 0
M  V30 6667 H 673.222 5.87347 -0.172459 0
M  V30 6668 H 674.746 6.06088 0.74094 0
M  V30 6669 H 676.16 5.54126 -1.47026 0
M  V30 6670 H 674.557 5.55866 -2.26126 0
M  V30 6671 H 675.627 4.16313 -2.4862 0
M  V30 6672 N 676.97 0.677563 1.42291 0
M  V30 6673 C 677.88 0.000962654 2.346 0
M  V30 6674 C 678.896 -0.785833 1.55244 0
M  V30 6675 O 680.072 -0.727523 1.87801 0
M  V30 6676 C 677.137 -0.936746 3.33805 0
M  V30 6677 C 676.198 -0.144173 4.29058 0
M  V30 6678 C 675.431 -1.03722 5.23524 0
M  V30 6679 O 675.654 -2.27675 5.22992 0
M  V30 6680 O 674.588 -0.496542 5.99848 0
M  V30 6681 H 678.414 0.761397 2.94001 0
M  V30 6682 H 675.999 0.43781 1.42841 0
M  V30 6683 H 677.881 -1.47497 3.94744 0
M  V30 6684 H 676.556 -1.67698 2.76874 0
M  V30 6685 H 675.463 0.438224 3.71524 0
M  V30 6686 H 676.796 0.55701 4.89038 0
M  V30 6687 N 678.448 -1.51871 0.421078 0
M  V30 6688 C 679.696 -2.01539 -0.150492 0
M  V30 6689 C 680.017 -1.30803 -1.44623 0
M  V30 6690 O 679.287 -0.437568 -1.90951 0
M  V30 6691 H 677.867 -0.744698 -0.0586041 0
M  V30 6692 H 680.529 -1.8668 0.560059 0
M  V30 6693 H 679.625 -3.10264 -0.338068 0
M  V30 6694 N 679.926 -0.151884 -1.56866 0
M  V30 6695 C 681.174 0.497021 -1.95893 0
M  V30 6696 C 681.495 1.65078 -1.03799 0
M  V30 6697 O 680.765 1.95642 -0.10049 0
M  V30 6698 H 679.345 0.186603 -0.723318 0
M  V30 6699 H 682.007 -0.228525 -1.93556 0
M  V30 6700 H 681.103 0.869933 -2.99731 0
M  V30 6701 N 681.404 1.57128 0.121893 0
M  V30 6702 C 682.336 1.96773 1.17529 0
M  V30 6703 C 683.349 0.866668 1.37814 0
M  V30 6704 O 684.538 1.14497 1.3694 0
M  V30 6705 C 681.638 2.24832 2.53582 0
M  V30 6706 C 680.811 3.56138 2.53939 0
M  V30 6707 C 679.87 3.72443 3.71716 0
M  V30 6708 O 678.896 4.44584 3.55434 0
M  V30 6709 N 680.098 3.10993 4.90167 0
M  V30 6710 H 682.863 2.87743 0.838086 0
M  V30 6711 H 680.424 1.58881 0.311199 0
M  V30 6712 H 682.416 2.32958 3.30927 0
M  V30 6713 H 680.986 1.40002 2.79496 0
M  V30 6714 H 680.206 3.59226 1.62329 0
M  V30 6715 H 681.494 4.42448 2.51231 0
M  V30 6716 H 680.892 2.52345 5.06299 0
M  V30 6717 H 679.449 3.24644 5.65198 0
M  V30 6718 N 682.882 -0.391992 1.52647 0
M  V30 6719 C 683.792 -1.503 1.80131 0
M  V30 6720 C 684.808 -1.59825 0.687882 0
M  V30 6721 O 685.984 -1.76218 0.975149 0
M  V30 6722 C 683.049 -2.85863 1.96171 0
M  V30 6723 C 682.11 -2.86084 3.20085 0
M  V30 6724 C 681.343 -4.15181 3.35351 0
M  V30 6725 O 681.566 -5.09981 2.55491 0
M  V30 6726 O 680.5 -4.22603 4.28591 0
M  V30 6727 H 684.326 -1.30007 2.74466 0
M  V30 6728 H 681.911 -0.579539 1.37701 0
M  V30 6729 H 683.793 -3.66236 2.08445 0
M  V30 6730 H 682.468 -3.06189 1.05025 0
M  V30 6731 H 681.375 -2.04504 3.13256 0
M  V30 6732 H 682.708 -2.7071 4.11068 0
M  V30 6733 N 684.36 -1.4356 -0.65026 0
M  V30 6734 C 685.637 -1.35811 -1.40765 0
M  V30 6735 C 686.017 -0.00736379 -2.11099 0
M  V30 6736 O 685.365 1.00932 -2.05 0
M  V30 6737 C 685.575 -2.54332 -2.3899 0
M  V30 6738 C 686.923 -2.97551 -3.02901 0
M  V30 6739 O 687.947 -2.544 -2.49317 0
M  V30 6740 O 686.806 -3.72311 -4.00059 0
M  V30 6741 H 683.9 -0.536861 -0.629054 0
M  V30 6742 H 686.446 -1.55615 -0.676919 0
M  V30 6743 H 685.218 -3.44274 -1.85986 0
M  V30 6744 H 684.841 -2.36643 -3.19509 0
M  V30 6745 N 685.838 0.888903 -1.30139 0
M  V30 6746 C 687.085 1.64037 -1.18736 0
M  V30 6747 C 687.413 1.92771 0.258801 0
M  V30 6748 O 686.668 1.54427 1.20212 0
M  V30 6749 C 686.967 2.99041 -1.95728 0
M  V30 6750 C 686.633 2.89874 -3.45375 0
M  V30 6751 C 685.295 2.87082 -3.86183 0
M  V30 6752 C 687.647 2.78289 -4.40687 0
M  V30 6753 C 684.975 2.70536 -5.20603 0
M  V30 6754 C 687.327 2.63282 -5.75209 0
M  V30 6755 C 685.991 2.58861 -6.15262 0
M  V30 6756 H 685.261 0.600253 -0.434485 0
M  V30 6757 H 687.908 1.0338 -1.61198 0
M  V30 6758 H 686.213 3.63626 -1.45888 0
M  V30 6759 H 687.91 3.56139 -1.843 0
M  V30 6760 H 684.5 2.92856 -3.12943 0
M  V30 6761 H 688.684 2.79516 -4.10103 0
M  V30 6762 H 683.94 2.65526 -5.50732 0
M  V30 6763 H 688.114 2.5329 -6.48704 0
M  V30 6764 H 685.741 2.45799 -7.19366 0
M  V30 6765 N 687.317 1.12792 1.10072 0
M  V30 6766 C 688.227 0.812369 2.20086 0
M  V30 6767 C 689.243 -0.200349 1.72843 0
M  V30 6768 O 690.419 -0.0330262 2.01373 0
M  V30 6769 C 687.484 0.275685 3.45602 0
M  V30 6770 C 686.545 1.34881 4.07561 0
M  V30 6771 C 685.778 0.837639 5.27086 0
M  V30 6772 O 686.001 -0.327224 5.69461 0
M  V30 6773 O 684.935 1.60894 5.79997 0
M  V30 6774 H 688.761 1.73133 2.49517 0
M  V30 6775 H 686.346 0.904863 1.18881 0
M  V30 6776 H 688.228 -0.0185375 4.21396 0
M  V30 6777 H 686.903 -0.615783 3.17789 0
M  V30 6778 H 685.81 1.69625 3.33434 0
M  V30 6779 H 687.143 2.21418 4.39585 0
M  V30 6780 N 688.795 -1.27931 0.920396 0
M  V30 6781 C 690.02 -1.99343 0.572478 0
M  V30 6782 C 690.445 -1.68267 -0.840696 0
M  V30 6783 O 689.803 -0.918805 -1.56294 0
M  V30 6784 C 689.851 -3.51698 0.796284 0
M  V30 6785 O 688.955 -4.12157 -0.141602 0
M  V30 6786 H 688.296 -0.626065 0.221221 0
M  V30 6787 H 690.826 -1.62921 1.23765 0
M  V30 6788 H 690.836 -4.01793 0.708984 0
M  V30 6789 H 689.511 -3.73649 1.82644 0
M  V30 6790 H 688.088 -3.729 -0.005007 0
M  V30 6791 N 690.273 -0.685099 -1.4193 0
M  V30 6792 C 691.498 -0.218842 -2.06242 0
M  V30 6793 C 691.923 1.11923 -1.51178 0
M  V30 6794 O 691.281 1.69837 -0.634446 0
M  V30 6795 C 691.329 -0.175592 -3.60172 0
M  V30 6796 O 690.433 0.852776 -4.03487 0
M  V30 6797 H 689.774 -0.109531 -0.654904 0
M  V30 6798 H 692.304 -0.937013 -1.81882 0
M  V30 6799 H 692.314 -0.00291151 -4.08 0
M  V30 6800 H 690.989 -1.15222 -3.99621 0
M  V30 6801 H 689.566 0.650301 -3.67186 0
M  V30 6802 N 691.751 1.51645 -0.429126 0
M  V30 6803 C 692.999 2.01616 0.139802 0
M  V30 6804 C 693.32 1.31568 1.43927 0
M  V30 6805 O 692.59 0.447688 1.90716 0
M  V30 6806 H 691.17 0.744998 0.054654 0
M  V30 6807 H 693.832 1.8638 -0.569952 0
M  V30 6808 H 692.928 3.10439 0.321609 0
M  V30 6809 N 693.229 0.160201 1.56784 0
M  V30 6810 C 694.192 -0.760405 2.16219 0
M  V30 6811 C 695.192 -1.16595 1.10735 0
M  V30 6812 O 696.382 -1.08472 1.36306 0
M  V30 6813 C 693.514 -2.03358 2.73603 0
M  V30 6814 H 694.707 -0.243173 2.98912 0
M  V30 6815 H 692.26 -0.0893139 1.56045 0
M  V30 6816 H 692.995 -2.59416 1.94612 0
M  V30 6817 H 692.78 -1.75186 3.50788 0
M  V30 6818 H 694.27 -2.69081 3.19351 0
M  V30 6819 N 694.707 -1.5719 -0.113559 0
M  V30 6820 C 695.955 -1.84772 -0.818761 0
M  V30 6821 C 696.276 -0.746196 -1.80158 0
M  V30 6822 O 695.546 0.229305 -1.94553 0
M  V30 6823 H 694.126 -0.681737 -0.305359 0
M  V30 6824 H 696.788 -1.94645 -0.0995845 0
M  V30 6825 H 695.884 -2.80878 -1.36067 0
M  V30 6826 N 696.185 0.383891 -1.52853 0
M  V30 6827 C 697.132 1.46924 -1.77995 0
M  V30 6828 C 698.102 1.53958 -0.623396 0
M  V30 6829 O 699.287 1.70134 -0.863657 0
M  V30 6830 C 696.427 2.84093 -1.95921 0
M  V30 6831 C 695.54 2.86171 -3.23621 0
M  V30 6832 C 694.675 4.14799 -3.31836 0
M  V30 6833 C 693.714 4.10948 -4.53639 0
M  V30 6834 N 692.851 5.31192 -4.59107 0
M  V30 6835 H 697.691 1.24786 -2.70615 0
M  V30 6836 H 695.228 0.605265 -1.34071 0
M  V30 6837 H 697.186 3.63755 -2.04299 0
M  V30 6838 H 695.816 3.04671 -1.06656 0
M  V30 6839 H 694.868 1.9885 -3.24288 0
M  V30 6840 H 696.18 2.79194 -4.13343 0
M  V30 6841 H 695.334 5.02867 -3.39425 0
M  V30 6842 H 694.073 4.24505 -2.40097 0
M  V30 6843 H 693.078 3.21268 -4.46169 0
M  V30 6844 H 694.303 4.0286 -5.467 0
M  V30 6845 H 692.249 5.41518 -3.70262 0
M  V30 6846 H 692.166 5.26311 -5.42708 0
M  V30 6847 H 693.434 6.21143 -4.70958 0
M  V30 6848 N 697.663 1.43903 0.642637 0
M  V30 6849 C 698.912 1.45362 1.39831 0
M  V30 6850 C 699.225 0.0856289 1.95412 0
M  V30 6851 O 700.431 -0.0222856 2.71491 0
M  V30 6852 C 698.887 2.55857 2.53111 0
M  V30 6853 C 698.495 3.98811 2.04092 0
M  V30 6854 C 700.239 2.66524 3.30402 0
M  V30 6855 C 698.146 5.00751 3.14647 0
M  V30 6856 H 697.076 0.540777 0.52543 0
M  V30 6857 H 699.727 1.69929 0.692559 0
M  V30 6858 H 698.109 2.2451 3.26207 0
M  V30 6859 H 699.283 4.3967 1.37938 0
M  V30 6860 H 697.598 3.92284 1.39651 0
M  V30 6861 H 700.195 3.39858 4.12796 0
M  V30 6862 H 700.538 1.71949 3.79129 0
M  V30 6863 H 701.071 2.97224 2.64392 0
M  V30 6864 H 697.81 5.96914 2.70876 0
M  V30 6865 H 697.33 4.64495 3.79479 0
M  V30 6866 H 699.009 5.23933 3.79609 0
M  V30 6867 N 699.141 -0.881989 1.30609 0
M  V30 6868 C 700.389 -1.63082 1.19368 0
M  V30 6869 C 700.71 -1.93376 -0.251147 0
M  V30 6870 O 699.98 -1.5723 -1.16857 0
M  V30 6871 H 698.56 -0.604542 0.438791 0
M  V30 6872 H 701.222 -1.05658 1.63776 0
M  V30 6873 H 700.318 -2.57966 1.7567 0
M  V30 6874 N 700.619 -1.13374 -1.09472 0
M  V30 6875 C 701.549 -0.833268 -2.18126 0
M  V30 6876 C 702.53 0.207169 -1.68834 0
M  V30 6877 O 703.715 0.0662012 -1.94087 0
M  V30 6878 C 700.845 -0.297979 -3.46019 0
M  V30 6879 C 699.799 -1.27261 -4.08642 0
M  V30 6880 C 699.125 -0.597104 -5.31356 0
M  V30 6881 C 700.425 -2.63095 -4.51197 0
M  V30 6882 H 702.119 -1.74182 -2.43518 0
M  V30 6883 H 699.665 -0.838921 -1.17039 0
M  V30 6884 H 701.618 -0.0754444 -4.21332 0
M  V30 6885 H 700.342 0.645959 -3.20148 0
M  V30 6886 H 699.001 -1.48113 -3.35348 0
M  V30 6887 H 698.649 0.352293 -5.01765 0
M  V30 6888 H 698.349 -1.24734 -5.74208 0
M  V30 6889 H 699.873 -0.38384 -6.09392 0
M  V30 6890 H 701.287 -2.46214 -5.17737 0
M  V30 6891 H 699.684 -3.2429 -5.04932 0
M  V30 6892 H 700.754 -3.20793 -3.6362 0
M  V30 6893 N 702.098 1.27442 -0.927168 0
M  V30 6894 C 703.346 1.94007 -0.566203 0
M  V30 6895 C 703.667 1.7323 0.895345 0
M  V30 6896 O 702.937 1.07973 1.63459 0
M  V30 6897 H 701.517 0.717917 -0.206409 0
M  V30 6898 H 704.179 1.55161 -1.17945 0
M  V30 6899 H 703.275 3.02401 -0.772028 0
M  V30 6900 N 703.576 0.692616 1.41565 0
M  V30 6901 C 704.824 0.221896 2.00878 0
M  V30 6902 C 705.145 -1.18164 1.5512 0
M  V30 6903 O 704.415 -1.79679 0.78054 0
M  V30 6904 H 702.995 0.0790463 0.742806 0
M  V30 6905 H 705.657 0.893115 1.73232 0
M  V30 6906 H 704.753 0.23702 3.11199 0
M  V30 6907 N 705.054 -1.51416 0.437162 0
M  V30 6908 C 706.47 -1.59349 0.0894459 0
M  V30 6909 C 706.67 -1.44809 -1.40116 0
M  V30 6910 O 705.726 -1.28924 -2.17106 0
M  V30 6911 C 707.039 -2.9446 0.609398 0
M  V30 6912 C 708.587 -3.07769 0.569824 0
M  V30 6913 C 709.062 -4.45404 1.06675 0
M  V30 6914 N 710.553 -4.51723 1.02473 0
M  V30 6915 C 711.288 -5.56544 1.3801 0
M  V30 6916 N 710.784 -6.68784 1.80831 0
M  V30 6917 N 712.577 -5.46901 1.29828 0
M  V30 6918 H 704.728 -1.59112 1.40703 0
M  V30 6919 H 706.991 -0.750031 0.579791 0
M  V30 6920 H 706.697 -3.1047 1.65231 0
M  V30 6921 H 706.571 -3.77184 0.0342236 0
M  V30 6922 H 708.958 -2.91428 -0.464107 0
M  V30 6923 H 709.039 -2.26885 1.1814 0
M  V30 6924 H 708.683 -4.62492 2.09914 0
M  V30 6925 H 708.613 -5.24827 0.431712 0
M  V30 6926 H 711.104 -3.71165 0.710258 0
M  V30 6927 H 711.417 -7.44787 2.06185 0
M  V30 6928 H 709.762 -6.69992 1.84757 0
M  V30 6929 H 712.953 -4.581 0.962397 0
M  V30 6930 H 713.126 -6.2848 1.57851 0
M  V30 6931 N 706.532 -0.168513 -1.56696 0
M  V30 6932 C 707.78 0.476216 -1.96409 0
M  V30 6933 C 708.101 1.63968 -1.05544 0
M  V30 6934 O 707.371 1.95525 -0.121235 0
M  V30 6935 H 705.951 0.178921 -0.725256 0
M  V30 6936 H 708.613 -0.249042 -1.93302 0
M  V30 6937 H 707.709 0.838094 -3.00637 0
M  V30 6938 N 708.01 1.57248 0.105221 0
M  V30 6939 C 709.258 1.85204 0.808951 0
M  V30 6940 C 709.579 0.75574 1.7976 0
M  V30 6941 O 708.849 -0.218984 1.94672 0
M  V30 6942 H 707.429 0.683346 0.301739 0
M  V30 6943 H 710.091 1.94695 0.0892605 0
M  V30 6944 H 709.187 2.81595 1.34575 0
M  V30 6945 N 709.488 -0.375779 1.53054 0
M  V30 6946 C 710.713 -1.14484 1.7294 0
M  V30 6947 C 711.138 -1.82572 0.452668 0
M  V30 6948 O 710.496 -1.71343 -0.592567 0
M  V30 6949 C 710.544 -2.15857 2.88857 0
M  V30 6950 O 709.648 -3.22725 2.56753 0
M  V30 6951 H 708.989 -0.332666 0.574656 0
M  V30 6952 H 711.519 -0.436025 1.999 0
M  V30 6953 H 711.529 -2.59631 3.14731 0
M  V30 6954 H 710.204 -1.65689 3.81471 0
M  V30 6955 H 708.781 -2.83996 2.41663 0
M  V30 6956 N 710.966 -1.44241 -0.634997 0
M  V30 6957 C 712.214 -1.46531 -1.39187 0
M  V30 6958 C 712.535 -0.0976441 -1.94755 0
M  V30 6959 O 711.805 0.869528 -1.75545 0
M  V30 6960 H 710.385 -0.539544 -0.516625 0
M  V30 6961 H 713.047 -1.79989 -0.747655 0
M  V30 6962 H 712.143 -2.18848 -2.22513 0
M  V30 6963 N 712.444 0.87505 -1.31075 0
M  V30 6964 C 713.692 1.62447 -1.20231 0
M  V30 6965 C 714.013 1.93506 0.240888 0
M  V30 6966 O 713.283 1.57847 1.16022 0
M  V30 6967 H 711.863 0.602207 -0.441991 0
M  V30 6968 H 714.525 1.04788 -1.64334 0
M  V30 6969 H 713.621 2.57031 -1.77036 0
M  V30 6970 N 713.922 1.13953 1.08869 0
M  V30 6971 C 715.147 0.928559 1.85452 0
M  V30 6972 C 715.572 -0.517642 1.80837 0
M  V30 6973 O 714.93 -1.36779 1.19001 0
M  V30 6974 C 714.978 1.42814 3.31114 0
M  V30 6975 O 714.082 0.617129 4.07756 0
M  V30 6976 H 713.423 0.33235 0.574839 0
M  V30 6977 H 715.953 1.5156 1.37443 0
M  V30 6978 H 715.963 1.43425 3.8196 0
M  V30 6979 H 714.638 2.48109 3.33788 0
M  V30 6980 H 713.215 0.679365 3.66659 0
M  V30 6981 N 715.4 -1.26948 0.933913 0
M  V30 6982 C 716.63 -1.97898 0.593279 0
M  V30 6983 C 717.038 -1.69806 -0.834412 0
M  V30 6984 O 716.381 -0.958704 -1.56699 0
M  V30 6985 C 716.443 -3.51657 0.746825 0
M  V30 6986 C 716.107 -4.03384 2.14779 0
M  V30 6987 C 717.104 -4.15682 3.12257 0
M  V30 6988 C 714.789 -4.37577 2.46641 0
M  V30 6989 C 716.783 -4.61455 4.39702 0
M  V30 6990 C 714.47 -4.8304 3.7432 0
M  V30 6991 C 715.468 -4.94939 4.70664 0
M  V30 6992 O 715.156 -5.39403 5.96071 0
M  V30 6993 H 714.888 -0.63814 0.223055 0
M  V30 6994 H 717.442 -1.62608 1.2549 0
M  V30 6995 H 715.672 -3.8669 0.0280889 0
M  V30 6996 H 717.361 -4.03821 0.410328 0
M  V30 6997 H 718.127 -3.89519 2.88964 0
M  V30 6998 H 714.006 -4.27554 1.72391 0
M  V30 6999 H 717.55 -4.70658 5.14905 0
M  V30 7000 H 713.447 -5.08646 3.97429 0
M  V30 7001 H 714.215 -5.57641 5.99148 0
M  V30 7002 N 716.879 -0.700114 -1.41195 0
M  V30 7003 C 718.127 -0.232546 -2.00758 0
M  V30 7004 C 718.448 1.1734 -1.55745 0
M  V30 7005 O 717.718 1.79262 -0.790058 0
M  V30 7006 H 716.298 -0.0829845 -0.742376 0
M  V30 7007 H 718.96 -0.902289 -1.72756 0
M  V30 7008 H 718.056 -0.253521 -3.11069 0
M  V30 7009 N 718.357 1.51182 -0.445186 0
M  V30 7010 C 719.773 1.59299 -0.0978954 0
M  V30 7011 C 719.973 1.4555 1.39346 0
M  V30 7012 O 719.029 1.30073 2.16419 0
M  V30 7013 C 720.342 2.94133 -0.625005 0
M  V30 7014 C 721.89 3.07463 -0.586137 0
M  V30 7015 C 722.365 4.44832 -1.09035 0
M  V30 7016 N 723.856 4.51173 -1.04867 0
M  V30 7017 C 724.591 5.55804 -1.40959 0
M  V30 7018 N 724.087 6.67816 -1.84375 0
M  V30 7019 N 725.88 5.46205 -1.32726 0
M  V30 7020 H 718.031 1.58363 -1.41544 0
M  V30 7021 H 720.294 0.746946 -0.58376 0
M  V30 7022 H 720 3.09589 -1.66876 0
M  V30 7023 H 719.874 3.77161 -0.0542262 0
M  V30 7024 H 722.261 2.9167 0.448646 0
M  V30 7025 H 722.342 2.26255 -1.19341 0
M  V30 7026 H 721.986 4.61372 -2.12364 0
M  V30 7027 H 721.916 5.24591 -0.459539 0
M  V30 7028 H 724.407 3.70783 -0.729932 0
M  V30 7029 H 724.72 7.43683 -2.10131 0
M  V30 7030 H 723.065 6.69003 -1.88308 0
M  V30 7031 H 726.256 4.57583 -0.986678 0
M  V30 7032 H 726.429 6.27634 -1.61182 0
M  V30 7033 N 719.835 0.176821 1.56605 0
M  V30 7034 C 721.083 -0.465793 1.96659 0
M  V30 7035 C 721.404 -1.63406 1.06412 0
M  V30 7036 O 720.674 -1.95457 0.131603 0
M  V30 7037 H 719.254 -0.175072 0.726195 0
M  V30 7038 H 721.916 0.25929 1.93168 0
M  V30 7039 H 721.012 -0.822138 3.01077 0
M  V30 7040 N 721.313 -1.57302 -0.09688 0
M  V30 7041 C 722.538 -1.9058 -0.818169 0
M  V30 7042 C 722.963 -0.770921 -1.71576 0
M  V30 7043 O 722.321 0.277588 -1.79162 0
M  V30 7044 C 722.369 -3.22714 -1.60898 0
M  V30 7045 O 721.473 -3.10178 -2.71779 0
M  V30 7046 H 720.814 -0.624759 -0.224882 0
M  V30 7047 H 723.344 -2.04471 -0.07264 0
M  V30 7048 H 723.354 -3.55978 -1.99358 0
M  V30 7049 H 722.029 -4.04899 -0.950227 0
M  V30 7050 H 720.606 -2.88424 -2.3636 0
M  V30 7051 N 722.791 0.367657 -1.53252 0
M  V30 7052 C 724.207 0.709191 -1.42978 0
M  V30 7053 C 724.407 1.93352 -0.567193 0
M  V30 7054 O 723.463 2.52453 -0.0488349 0
M  V30 7055 C 724.776 0.924338 -2.86141 0
M  V30 7056 C 726.324 1.02448 -2.95759 0
M  V30 7057 C 726.799 1.27211 -4.39979 0
M  V30 7058 N 728.29 1.33986 -4.43398 0
M  V30 7059 C 729.025 1.54852 -5.52095 0
M  V30 7060 N 728.521 1.73049 -6.7084 0
M  V30 7061 N 730.314 1.57205 -5.39669 0
M  V30 7062 H 722.465 -0.437669 -2.07842 0
M  V30 7063 H 724.728 -0.133737 -0.938519 0
M  V30 7064 H 724.434 0.0965455 -3.51567 0
M  V30 7065 H 724.308 1.83302 -3.29667 0
M  V30 7066 H 726.695 1.84282 -2.30487 0
M  V30 7067 H 726.776 0.0932301 -2.5563 0
M  V30 7068 H 726.42 0.458792 -5.05824 0
M  V30 7069 H 726.35 2.21654 -4.77679 0
M  V30 7070 H 728.841 1.21545 -3.5782 0
M  V30 7071 H 729.154 1.88538 -7.49449 0
M  V30 7072 H 727.499 1.70231 -6.7383 0
M  V30 7073 H 730.69 1.42555 -4.45865 0
M  V30 7074 H 730.863 1.73126 -6.24445 0
M  V30 7075 N 724.269 1.44576 0.627338 0
M  V30 7076 C 725.517 1.47267 1.38408 0
M  V30 7077 C 725.838 0.107971 1.94701 0
M  V30 7078 O 725.108 -0.860206 1.76004 0
M  V30 7079 H 723.688 0.542276 0.513756 0
M  V30 7080 H 726.35 1.80383 0.738099 0
M  V30 7081 H 725.446 2.20025 2.21349 0
M  V30 7082 N 725.747 -0.868086 1.31537 0
M  V30 7083 C 726.995 -1.61807 1.21091 0
M  V30 7084 C 727.316 -1.93631 -0.230623 0
M  V30 7085 O 726.586 -1.5846 -1.15183 0
M  V30 7086 H 725.166 -0.599854 0.445178 0
M  V30 7087 H 727.828 -1.03915 1.64887 0
M  V30 7088 H 726.924 -2.56088 1.78396 0
M  V30 7089 N 727.225 -1.14528 -1.08264 0
M  V30 7090 C 728.45 -0.938381 -1.84957 0
M  V30 7091 C 728.875 0.508044 -1.81109 0
M  V30 7092 O 728.233 1.36146 -1.19724 0
M  V30 7093 C 728.281 -1.44568 -3.30352 0
M  V30 7094 O 727.385 -0.638745 -4.07423 0
M  V30 7095 H 726.726 -0.335394 -0.573068 0
M  V30 7096 H 729.256 -1.52287 -1.36637 0
M  V30 7097 H 729.266 -1.45449 -3.81194 0
M  V30 7098 H 727.941 -2.49876 -3.32468 0
M  V30 7099 H 726.518 -0.698801 -3.66294 0
M  V30 7100 N 728.703 1.26451 -0.940633 0
M  V30 7101 C 729.951 1.93395 -0.586748 0
M  V30 7102 C 730.272 1.7417 0.876921 0
M  V30 7103 O 729.542 1.097 1.62304 0
M  V30 7104 H 728.122 0.715687 -0.214012 0
M  V30 7105 H 730.784 1.53902 -1.19584 0
M  V30 7106 H 729.88 3.01565 -0.804059 0
M  V30 7107 N 730.181 0.707592 1.40822 0
M  V30 7108 C 731.429 0.243189 2.00632 0
M  V30 7109 C 731.75 -1.16512 1.56365 0
M  V30 7110 O 731.02 -1.78841 0.799553 0
M  V30 7111 H 729.6 0.0869203 0.741926 0
M  V30 7112 H 732.262 0.911438 1.72275 0
M  V30 7113 H 731.358 0.270014 3.1093 0
M  V30 7114 N 731.66 -1.50943 0.453197 0
M  V30 7115 C 732.885 -2.07116 -0.108463 0
M  V30 7116 C 733.31 -1.31681 -1.3432 0
M  V30 7117 O 732.668 -0.359256 -1.77705 0
M  V30 7118 C 732.716 -3.58447 -0.393424 0
M  V30 7119 O 731.82 -3.85038 -1.47714 0
M  V30 7120 H 731.161 -0.66398 0.0050993 0
M  V30 7121 H 733.691 -1.94362 0.639095 0
M  V30 7122 H 733.701 -4.02961 -0.639222 0
M  V30 7123 H 732.376 -4.12774 0.508946 0
M  V30 7124 H 730.953 -3.52376 -1.22006 0
M  V30 7125 N 733.138 -0.185124 -1.56509 0
M  V30 7126 C 734.368 0.461469 -2.0138 0
M  V30 7127 C 734.776 1.56417 -1.06445 0
M  V30 7128 O 734.119 1.83603 -0.0597515 0
M  V30 7129 C 734.181 1.08731 -3.42663 0
M  V30 7130 C 733.845 0.124581 -4.5683 0
M  V30 7131 C 734.842 -0.662295 -5.15664 0
M  V30 7132 C 732.527 0.0163947 -5.02297 0
M  V30 7133 C 734.521 -1.54442 -6.18406 0
M  V30 7134 C 732.208 -0.869301 -6.04885 0
M  V30 7135 C 733.206 -1.64828 -6.62813 0
M  V30 7136 O 732.894 -2.51915 -7.63409 0
M  V30 7137 H 732.626 0.1212 -0.665046 0
M  V30 7138 H 735.18 -0.288119 -2.03369 0
M  V30 7139 H 733.41 1.8853 -3.37629 0
M  V30 7140 H 735.099 1.63753 -3.71403 0
M  V30 7141 H 735.865 -0.588963 -4.81411 0
M  V30 7142 H 731.744 0.61253 -4.56913 0
M  V30 7143 H 735.288 -2.15289 -6.63548 0
M  V30 7144 H 731.185 -0.943786 -6.38563 0
M  V30 7145 H 731.953 -2.45584 -7.80789 0
M  V30 7146 N 734.616 1.57351 0.0885366 0
M  V30 7147 C 735.864 1.86051 0.789262 0
M  V30 7148 C 736.185 0.774763 1.78948 0
M  V30 7149 O 735.455 -0.198324 1.94894 0
M  V30 7150 H 734.035 0.686508 0.294475 0
M  V30 7151 H 736.697 1.94779 0.0686055 0
M  V30 7152 H 735.793 2.83007 1.31581 0
M  V30 7153 N 736.094 -0.359525 1.53444 0
M  V30 7154 C 737.342 -1.09935 1.69584 0
M  V30 7155 C 737.663 -1.89656 0.453371 0
M  V30 7156 O 736.933 -1.8852 -0.53263 0
M  V30 7157 H 735.513 -0.408843 0.625185 0
M  V30 7158 H 738.175 -0.40467 1.90653 0
M  V30 7159 H 737.271 -1.78575 2.55964 0
M  V30 7160 N 737.572 -1.44907 -0.619662 0
M  V30 7161 C 738.82 -1.47999 -1.37625 0
M  V30 7162 C 739.141 -0.118295 -1.94641 0
M  V30 7163 O 738.411 0.85086 -1.76457 0
M  V30 7164 H 736.991 -0.544993 -0.510873 0
M  V30 7165 H 739.653 -1.80772 -0.728522 0
M  V30 7166 H 738.749 -2.21196 -2.20179 0
M  V30 7167 N 739.05 0.861098 -1.31996 0
M  V30 7168 C 740.298 1.61162 -1.21947 0
M  V30 7169 C 740.619 1.93751 0.220351 0
M  V30 7170 O 739.889 1.59069 1.14341 0
M  V30 7171 H 738.469 0.597485 -0.448353 0
M  V30 7172 H 741.131 1.03039 -1.65436 0
M  V30 7173 H 740.227 2.55138 -1.79752 0
M  V30 7174 N 740.528 1.15101 1.07655 0
M  V30 7175 C 741.753 0.948177 1.84457 0
M  V30 7176 C 742.178 -0.498432 1.81376 0
M  V30 7177 O 741.536 -1.35509 1.20445 0
M  V30 7178 C 741.584 1.46318 3.29581 0
M  V30 7179 O 740.688 0.660342 4.07079 0
M  V30 7180 H 740.029 0.338428 0.571281 0
M  V30 7181 H 742.559 1.5301 1.35828 0
M  V30 7182 H 742.569 1.47468 3.80417 0
M  V30 7183 H 741.244 2.51635 3.31138 0
M  V30 7184 H 739.821 0.718216 3.65918 0
M  V30 7185 N 742.006 -1.2595 0.947325 0
M  V30 7186 C 743.254 -1.93081 0.596996 0
M  V30 7187 C 743.575 -1.74632 -0.867672 0
M  V30 7188 O 742.845 -1.1056 -1.6172 0
M  V30 7189 H 741.425 -0.714542 0.217805 0
M  V30 7190 H 744.087 -1.53265 1.20398 0
M  V30 7191 H 743.183 -3.01134 0.82004 0
M  V30 7192 N 743.484 -0.715051 -1.40445 0
M  V30 7193 C 744.732 -0.253826 -2.005 0
M  V30 7194 C 745.053 1.15681 -1.5698 0
M  V30 7195 O 744.323 1.78414 -0.809027 0
M  V30 7196 H 742.903 -0.0908537 -0.741454 0
M  V30 7197 H 745.565 -0.920561 -1.7179 0
M  V30 7198 H 744.661 -0.286499 -3.10782 0
M  V30 7199 N 744.962 1.50701 -0.461195 0
M  V30 7200 C 746.21 2.01867 0.0970051 0
M  V30 7201 C 746.531 1.34591 1.41104 0
M  V30 7202 O 745.801 0.488041 1.89723 0
M  V30 7203 H 744.381 0.74599 0.0388392 0
M  V30 7204 H 747.043 1.85129 -0.609357 0
M  V30 7205 H 746.139 3.11051 0.255688 0
M  V30 7206 N 746.441 0.193421 1.56409 0
M  V30 7207 C 747.671 -0.450783 2.01622 0
M  V30 7208 C 748.079 -1.5585 1.07273 0
M  V30 7209 O 747.422 -1.83569 0.0694875 0
M  V30 7210 C 747.484 -1.06913 3.43235 0
M  V30 7211 C 747.148 -0.100352 4.5689 0
M  V30 7212 C 748.145 0.689633 5.15306 0
M  V30 7213 C 745.83 0.0102436 5.02299 0
M  V30 7214 C 747.824 1.5772 6.17579 0
M  V30 7215 C 745.511 0.901368 6.04416 0
M  V30 7216 C 746.509 1.68341 6.61929 0
M  V30 7217 O 746.197 2.5596 7.62063 0
M  V30 7218 H 745.929 -0.117671 0.66568 0
M  V30 7219 H 748.483 0.2989 2.03214 0
M  V30 7220 H 746.713 -1.86736 3.38624 0
M  V30 7221 H 748.402 -1.61781 3.72266 0
M  V30 7222 H 749.168 0.614485 4.81092 0
M  V30 7223 H 745.047 -0.58829 4.57231 0
M  V30 7224 H 748.591 2.18805 6.62397 0
M  V30 7225 H 744.488 0.977637 6.38054 0
M  V30 7226 H 745.256 2.49721 7.79475 0
M  V30 7227 N 747.919 -1.57396 -0.0801906 0
M  V30 7228 C 749.167 -1.86467 -0.779384 0
M  V30 7229 C 749.488 -0.784243 -1.78535 0
M  V30 7230 O 748.758 0.187986 -1.94996 0
M  V30 7231 H 747.338 -0.68806 -0.29083 0
M  V30 7232 H 750 -1.94813 -0.0582749 0
M  V30 7233 H 749.096 -2.83701 -1.30078 0
M  V30 7234 N 749.397 0.351382 -1.53633 0
M  V30 7235 C 750.645 1.09034 -1.70165 0
M  V30 7236 C 750.966 1.89413 -0.463422 0
M  V30 7237 O 750.236 1.888 0.522624 0
M  V30 7238 H 748.816 0.405522 -0.627344 0
M  V30 7239 H 751.478 0.394554 -1.90865 0
M  V30 7240 H 750.574 1.77215 -2.56907 0
M  V30 7241 N 750.875 1.45233 0.611969 0
M  V30 7242 C 752.123 1.48727 1.36838 0
M  V30 7243 C 752.444 0.128616 1.94575 0
M  V30 7244 O 751.714 -0.84149 1.76906 0
M  V30 7245 H 750.294 0.547695 0.507976 0
M  V30 7246 H 752.956 1.81156 0.718925 0
M  V30 7247 H 752.052 2.2236 2.19003 0
M  V30 7248 N 752.353 -0.854086 1.3245 0
M  V30 7249 C 753.578 -1.64597 1.26185 0
M  V30 7250 C 754.003 -1.87357 -0.167074 0
M  V30 7251 O 753.361 -1.42675 -1.11864 0
M  V30 7252 C 753.409 -2.98213 2.02734 0
M  V30 7253 O 752.513 -3.88784 1.37554 0
M  V30 7254 H 751.854 -0.50179 0.434859 0
M  V30 7255 H 754.384 -1.06372 1.74775 0
M  V30 7256 H 754.394 -3.4803 2.1293 0
M  V30 7257 H 753.069 -2.80969 3.06642 0
M  V30 7258 H 751.646 -3.4725 1.3591 0
M  V30 7259 N 753.831 -1.1567 -1.07043 0
M  V30 7260 C 755.079 -0.931673 -1.79344 0
M  V30 7261 C 755.4 0.542421 -1.87304 0
M  V30 7262 O 754.67 1.39418 -1.37621 0
M  V30 7263 H 753.25 -0.34171 -0.664262 0
M  V30 7264 H 755.912 -1.45795 -1.29344 0
M  V30 7265 H 755.008 -1.34379 -2.81689 0
M  V30 7266 N 755.309 1.25446 -0.953992 0
M  V30 7267 C 756.534 1.97755 -0.625129 0
M  V30 7268 C 756.959 1.70437 0.795787 0
M  V30 7269 O 756.317 0.95992 1.53803 0
M  V30 7270 C 756.365 3.49463 -0.889251 0
M  V30 7271 O 755.469 4.12387 0.0322757 0
M  V30 7272 H 754.81 0.61998 -0.237742 0
M  V30 7273 H 757.34 1.59582 -1.28041 0
M  V30 7274 H 757.35 3.99772 -0.815263 0
M  V30 7275 H 756.025 3.68676 -1.92487 0
M  V30 7276 H 754.602 3.72782 -0.0938625 0
M  V30 7277 N 756.787 0.722489 1.40064 0
M  V30 7278 C 758.203 0.396758 1.5459 0
M  V30 7279 C 758.403 -1.09375 1.69232 0
M  V30 7280 O 757.459 -1.87984 1.68578 0
M  V30 7281 C 758.772 1.16885 2.77053 0
M  V30 7282 C 760.32 1.15583 2.90877 0
M  V30 7283 C 760.795 1.91023 4.16262 0
M  V30 7284 N 762.286 1.88126 4.23276 0
M  V30 7285 C 763.021 2.43315 5.19216 0
M  V30 7286 N 762.517 3.07089 6.21022 0
M  V30 7287 N 764.31 2.33418 5.11344 0
M  V30 7288 H 756.461 1.68887 1.28806 0
M  V30 7289 H 758.724 0.714231 0.62336 0
M  V30 7290 H 758.43 2.22301 2.72534 0
M  V30 7291 H 758.304 0.765011 3.69361 0
M  V30 7292 H 760.691 0.10984 2.94896 0
M  V30 7293 H 760.772 1.59895 1.99668 0
M  V30 7294 H 760.416 2.95616 4.13006 0
M  V30 7295 H 760.346 1.44126 5.06493 0
M  V30 7296 H 762.837 1.41654 3.50346 0
M  V30 7297 H 763.15 3.467 6.90666 0
M  V30 7298 H 761.495 3.11175 6.21446 0
M  V30 7299 H 764.686 1.83248 4.30741 0
M  V30 7300 H 764.859 2.7673 5.85939 0
M  V30 7301 N 758.265 -1.50454 0.469181 0
M  V30 7302 C 759.513 -2.01916 -0.0862982 0
M  V30 7303 C 759.834 -1.35337 -1.40388 0
M  V30 7304 O 759.104 -0.498096 -1.89462 0
M  V30 7305 H 757.684 -0.746185 -0.0348825 0
M  V30 7306 H 760.346 -1.84804 0.619167 0
M  V30 7307 H 759.442 -3.11182 -0.239189 0
M  V30 7308 N 759.743 -0.201713 -1.56304 0
M  V30 7309 C 760.991 0.434447 -1.97375 0
M  V30 7310 C 761.312 1.61692 -1.08998 0
M  V30 7311 O 760.582 1.95223 -0.162682 0
M  V30 7312 H 759.162 0.163497 -0.728888 0
M  V30 7313 H 761.824 -0.289988 -1.92731 0
M  V30 7314 H 760.92 0.774136 -3.02347 0
M  V30 7315 N 761.222 1.57436 0.0718424 0
M  V30 7316 C 762.447 1.91858 0.787745 0
M  V30 7317 C 762.872 0.798119 1.70328 0
M  V30 7318 O 762.23 -0.24905 1.79581 0
M  V30 7319 C 762.278 3.25232 1.55744 0
M  V30 7320 O 761.382 3.14462 2.6681 0
M  V30 7321 H 760.723 0.628258 0.214914 0
M  V30 7322 H 763.253 2.04561 0.0401012 0
M  V30 7323 H 763.263 3.59105 1.9367 0
M  V30 7324 H 761.938 4.0636 0.885691 0
M  V30 7325 H 760.515 2.92148 2.31741 0
M  V30 7326 N 762.7 -0.34323 1.53817 0
M  V30 7327 C 763.948 -1.0813 1.70741 0
M  V30 7328 C 764.269 -1.89165 0.473461 0
M  V30 7329 O 763.539 -1.89075 -0.512605 0
M  V30 7330 H 762.119 -0.40219 0.629486 0
M  V30 7331 H 764.781 -0.384426 1.91071 0
M  V30 7332 H 763.877 -1.7585 2.57843 0
M  V30 7333 N 764.178 -1.45556 -0.604258 0
M  V30 7334 C 765.426 -1.4945 -1.36048 0
M  V30 7335 C 765.747 -0.138933 -1.94504 0
M  V30 7336 O 765.017 0.832097 -1.7735 0
M  V30 7337 H 763.597 -0.550381 -0.505064 0
M  V30 7338 H 766.259 -1.81535 -0.709308 0
M  V30 7339 H 765.355 -2.23519 -2.17821 0
M  V30 7340 N 765.656 0.84705 -1.32902 0
M  V30 7341 C 766.881 1.63925 -1.27056 0
M  V30 7342 C 767.306 1.87443 0.157136 0
M  V30 7343 O 766.664 1.43266 1.11106 0
M  V30 7344 C 766.712 2.97134 -2.04313 0
M  V30 7345 O 765.816 3.88049 -1.39614 0
M  V30 7346 H 765.157 0.499477 -0.437514 0
M  V30 7347 H 767.687 1.05443 -1.75336 0
M  V30 7348 H 767.697 3.46896 -2.14772 0
M  V30 7349 H 766.372 2.79339 -3.08128 0
M  V30 7350 H 764.949 3.46525 -1.3775 0
M  V30 7351 N 767.134 1.16236 1.06428 0
M  V30 7352 C 768.364 0.965782 1.82637 0
M  V30 7353 C 768.772 -0.489284 1.82764 0
M  V30 7354 O 768.115 -1.35133 1.24438 0
M  V30 7355 C 768.177 1.41458 3.30499 0
M  V30 7356 C 767.841 2.88926 3.54077 0
M  V30 7357 C 768.838 3.86939 3.47238 0
M  V30 7358 C 766.523 3.26814 3.81442 0
M  V30 7359 C 768.517 5.20841 3.67428 0
M  V30 7360 C 766.204 4.60886 4.01282 0
M  V30 7361 C 767.202 5.57708 3.94272 0
M  V30 7362 O 766.89 6.89357 4.13573 0
M  V30 7363 H 766.622 0.342569 0.582772 0
M  V30 7364 H 769.176 1.54641 1.35187 0
M  V30 7365 H 767.406 0.777426 3.78805 0
M  V30 7366 H 769.095 1.18563 3.88198 0
M  V30 7367 H 769.861 3.59014 3.26089 0
M  V30 7368 H 765.74 2.5203 3.86008 0
M  V30 7369 H 769.284 5.96401 3.61873 0
M  V30 7370 H 765.181 4.88522 4.21921 0
M  V30 7371 H 765.949 6.95913 4.30869 0
M  V30 7372 N 768.612 -1.24939 0.960631 0
M  V30 7373 C 769.86 -1.92437 0.617441 0
M  V30 7374 C 770.181 -1.75543 -0.849101 0
M  V30 7375 O 769.451 -1.12269 -1.60538 0
M  V30 7376 H 768.031 -0.712192 0.225371 0
M  V30 7377 H 770.693 -1.5198 1.22017 0
M  V30 7378 H 769.789 -3.00247 0.851933 0
M  V30 7379 N 770.09 -0.729906 -1.39679 0
M  V30 7380 C 771.338 -0.275077 -2.00219 0
M  V30 7381 C 771.659 1.1401 -1.58199 0
M  V30 7382 O 770.929 1.77546 -0.827904 0
M  V30 7383 H 769.509 -0.0987127 -0.740449 0
M  V30 7384 H 772.171 -0.93873 -1.70804 0
M  V30 7385 H 771.267 -0.319446 -3.10461 0
M  V30 7386 N 771.568 1.50203 -0.477153 0
M  V30 7387 C 772.816 2.01959 0.0755889 0
M  V30 7388 C 773.137 1.3608 1.39668 0
M  V30 7389 O 772.407 0.508136 1.89195 0
M  V30 7390 H 770.987 0.74636 0.0309248 0
M  V30 7391 H 773.649 1.84473 -0.628959 0
M  V30 7392 H 772.745 3.11305 0.222683 0
M  V30 7393 N 773.046 0.209999 1.56195 0
M  V30 7394 C 774.271 -0.433064 2.02828 0
M  V30 7395 C 774.696 -1.5337 1.08901 0
M  V30 7396 O 774.054 -1.81144 0.0751132 0
M  V30 7397 C 774.102 -0.952635 3.47789 0
M  V30 7398 O 773.206 -2.0647 3.56993 0
M  V30 7399 H 772.547 -0.0994594 0.656509 0
M  V30 7400 H 775.077 0.32525 2.01998 0
M  V30 7401 H 775.087 -1.26542 3.8788 0
M  V30 7402 H 773.762 -0.147007 4.1564 0
M  V30 7403 H 772.339 -1.75942 3.28784 0
M  V30 7404 N 774.524 -1.57472 -0.0634922 0
M  V30 7405 C 775.772 -1.87283 -0.759563 0
M  V30 7406 C 776.093 -0.803135 -1.77693 0
M  V30 7407 O 775.363 0.167293 -1.95184 0
M  V30 7408 H 773.943 -0.691106 -0.283516 0
M  V30 7409 H 776.605 -1.94864 -0.0376091 0
M  V30 7410 H 775.701 -2.85064 -1.27062 0
M  V30 7411 N 776.003 0.335068 -1.53997 0
M  V30 7412 C 777.228 1.09859 -1.75914 0
M  V30 7413 C 777.653 1.81308 -0.500915 0
M  V30 7414 O 777.011 1.72854 0.54693 0
M  V30 7415 C 777.059 2.08122 -2.94478 0
M  V30 7416 O 776.163 3.15805 -2.65219 0
M  V30 7417 H 775.504 0.317313 -0.583274 0
M  V30 7418 H 778.034 0.382872 -2.00986 0
M  V30 7419 H 778.044 2.51195 -3.21504 0
M  V30 7420 H 776.719 1.55517 -3.8573 0
M  V30 7421 H 775.296 2.77489 -2.49107 0
M  V30 7422 N 777.481 1.45874 0.596531 0
M  V30 7423 C 778.729 1.5017 1.35253 0
M  V30 7424 C 779.05 0.149246 1.94428 0
M  V30 7425 O 778.32 -0.82268 1.77789 0
M  V30 7426 H 776.9 0.553052 0.502138 0
M  V30 7427 H 779.562 1.81908 0.699671 0
M  V30 7428 H 778.658 2.24671 2.16632 0
M  V30 7429 N 778.959 -0.83999 1.33349 0
M  V30 7430 C 780.207 -1.59202 1.24496 0
M  V30 7431 C 780.528 -1.94077 -0.189499 0
M  V30 7432 O 779.798 -1.60868 -1.11796 0
M  V30 7433 H 778.378 -0.590276 0.457802 0
M  V30 7434 H 781.04 -1.00394 1.67054 0
M  V30 7435 H 780.136 -2.52247 1.83788 0
M  V30 7436 N 780.437 -1.16799 -1.0581 0
M  V30 7437 C 781.685 -0.950642 -1.78346 0
M  V30 7438 C 782.006 0.522524 -1.87869 0
M  V30 7439 O 781.276 1.3795 -1.39092 0
M  V30 7440 H 779.856 -0.348736 -0.6606 0
M  V30 7441 H 782.518 -1.47158 -1.27791 0
M  V30 7442 H 781.614 -1.37359 -2.80248 0
M  V30 7443 N 781.915 1.24427 -0.967243 0
M  V30 7444 C 783.14 1.9708 -0.646069 0
M  V30 7445 C 783.565 1.71272 0.777665 0
M  V30 7446 O 782.923 0.976179 1.52776 0
M  V30 7447 C 782.971 3.48501 -0.926266 0
M  V30 7448 O 782.075 4.12398 -0.0114653 0
M  V30 7449 H 781.416 0.617423 -0.244304 0
M  V30 7450 H 783.946 1.58215 -1.29727 0
M  V30 7451 H 783.956 3.98885 -0.857619 0
M  V30 7452 H 782.631 3.66613 -1.96386 0
M  V30 7453 H 781.208 3.72661 -0.133396 0
M  V30 7454 N 783.393 0.737304 1.3929 0
M  V30 7455 C 784.641 0.285691 2.00071 0
M  V30 7456 C 784.962 -1.13169 1.58801 0
M  V30 7457 O 784.232 -1.77104 0.837308 0
M  V30 7458 H 782.812 0.102638 0.739915 0
M  V30 7459 H 785.474 0.947775 1.70303 0
M  V30 7460 H 784.57 0.335906 3.10287 0
M  V30 7461 N 784.871 -1.49948 0.485112 0
M  V30 7462 C 786.119 -2.01996 -0.0648775 0
M  V30 7463 C 786.44 -1.36819 -1.38945 0
M  V30 7464 O 785.71 -0.518163 -1.88923 0
M  V30 7465 H 784.29 -0.746513 -0.0269662 0
M  V30 7466 H 786.952 -1.84136 0.638733 0
M  V30 7467 H 786.048 -3.11418 -0.20617 0
M  V30 7468 N 786.349 -0.21828 -1.56081 0
M  V30 7469 C 787.597 0.413488 -1.97825 0
M  V30 7470 C 787.918 1.60527 -1.10707 0
M  V30 7471 O 787.188 1.9504 -0.183378 0
M  V30 7472 H 785.768 0.155757 -0.730581 0
M  V30 7473 H 788.43 -0.310413 -1.92412 0
M  V30 7474 H 787.526 0.742024 -3.03151 0
M  V30 7475 N 787.827 1.57504 0.0551401 0
M  V30 7476 C 789.057 1.92015 0.762472 0
M  V30 7477 C 789.465 0.814088 1.7079 0
M  V30 7478 O 788.808 -0.220273 1.82375 0
M  V30 7479 C 788.87 3.22132 1.59598 0
M  V30 7480 C 788.534 4.49617 0.818141 0
M  V30 7481 C 789.531 5.19738 0.129933 0
M  V30 7482 C 787.216 4.96201 0.780387 0
M  V30 7483 C 789.21 6.34704 -0.585616 0
M  V30 7484 C 786.897 6.11069 0.0610756 0
M  V30 7485 C 787.895 6.80174 -0.62071 0
M  V30 7486 O 787.583 7.92849 -1.3284 0
M  V30 7487 H 787.315 0.638866 0.220967 0
M  V30 7488 H 789.869 2.05385 0.0246362 0
M  V30 7489 H 788.099 3.05016 2.37701 0
M  V30 7490 H 789.788 3.42166 2.18351 0
M  V30 7491 H 790.554 4.84767 0.150299 0
M  V30 7492 H 786.433 4.42275 1.30054 0
M  V30 7493 H 789.977 6.88578 -1.11833 0
M  V30 7494 H 785.874 6.45488 0.0386945 0
M  V30 7495 H 786.642 8.09062 -1.23938 0
M  V30 7496 N 789.305 -0.326896 1.54172 0
M  V30 7497 C 790.553 -1.06313 1.71878 0
M  V30 7498 C 790.874 -1.88652 0.493498 0
M  V30 7499 O 790.144 -1.89608 -0.492522 0
M  V30 7500 H 788.724 -0.39549 0.633716 0
M  V30 7501 H 791.386 -0.364139 1.91468 0
M  V30 7502 H 790.482 -1.73105 2.59694 0
M  V30 7503 N 790.784 -1.46188 -0.588786 0
M  V30 7504 C 792.032 -1.50885 -1.34455 0
M  V30 7505 C 792.353 -0.159555 -1.94346 0
M  V30 7506 O 791.623 0.813239 -1.78222 0
M  V30 7507 H 790.203 -0.555707 -0.499198 0
M  V30 7508 H 792.865 -1.82277 -0.690014 0
M  V30 7509 H 791.961 -2.25816 -2.15438 0
M  V30 7510 N 792.262 0.832906 -1.33792 0
M  V30 7511 C 793.51 1.58539 -1.25338 0
M  V30 7512 C 793.831 1.94175 0.179204 0
M  V30 7513 O 793.101 1.61458 1.10941 0
M  V30 7514 H 791.681 0.58784 -0.460926 0
M  V30 7515 H 794.343 0.995064 -1.67584 0
M  V30 7516 H 793.439 2.51268 -1.85123 0
M  V30 7517 N 793.74 1.17359 1.05189 0
M  V30 7518 C 794.965 0.98709 1.82404 0
M  V30 7519 C 795.39 -0.459848 1.82392 0
M  V30 7520 O 794.748 -1.32924 1.23292 0
M  V30 7521 C 794.796 1.53276 3.26403 0
M  V30 7522 O 793.9 0.746541 4.05587 0
M  V30 7523 H 793.241 0.35047 0.563974 0
M  V30 7524 H 795.771 1.55856 1.32552 0
M  V30 7525 H 795.781 1.55504 3.77203 0
M  V30 7526 H 794.456 2.58603 3.25726 0
M  V30 7527 H 793.033 0.795671 3.64312 0
M  V30 7528 N 795.218 -1.23913 0.973828 0
M  V30 7529 C 796.466 -1.91771 0.637817 0
M  V30 7530 C 796.787 -1.76434 -0.830435 0
M  V30 7531 O 796.057 -1.13965 -1.59339 0
M  V30 7532 H 794.637 -0.709761 0.232912 0
M  V30 7533 H 797.299 -1.50677 1.23622 0
M  V30 7534 H 796.395 -2.99327 0.883731 0
M  V30 7535 N 796.696 -0.74468 -1.38897 0
M  V30 7536 C 797.944 -0.296298 -1.99916 0
M  V30 7537 C 798.265 1.12325 -1.59399 0
M  V30 7538 O 797.535 1.76658 -0.846689 0
M  V30 7539 H 796.115 -0.106561 -0.73936 0
M  V30 7540 H 798.777 -0.956793 -1.69798 0
M  V30 7541 H 797.873 -0.352356 -3.10105 0
M  V30 7542 N 798.174 1.49689 -0.493057 0
M  V30 7543 C 799.422 2.02027 0.0541642 0
M  V30 7544 C 799.743 1.37554 1.38217 0
M  V30 7545 O 799.013 0.528174 1.88646 0
M  V30 7546 H 797.593 0.746646 0.0230069 0
M  V30 7547 H 800.255 1.83795 -0.648489 0
M  V30 7548 H 799.351 3.11523 0.189652 0
M  V30 7549 N 799.652 0.226554 1.55963 0
M  V30 7550 C 800.602 -0.694986 2.1715 0
M  V30 7551 C 801.586 -1.15394 1.12129 0
M  V30 7552 O 802.778 -1.1071 1.38102 0
M  V30 7553 C 799.907 -1.9007 2.85882 0
M  V30 7554 C 798.993 -1.46119 3.98133 0
M  V30 7555 N 799.384 -0.734584 5.00437 0
M  V30 7556 C 797.682 -1.74809 4.10314 0
M  V30 7557 C 798.383 -0.509773 5.79462 0
M  V30 7558 N 797.359 -1.06796 5.33006 0
M  V30 7559 H 801.161 -0.131469 2.93606 0
M  V30 7560 H 798.675 0.0280165 1.62376 0
M  V30 7561 H 800.672 -2.57169 3.28131 0
M  V30 7562 H 799.332 -2.46864 2.10923 0
M  V30 7563 H 800.343 -0.386757 5.16454 0
M  V30 7564 H 797.02 -2.32887 3.46511 0
M  V30 7565 H 798.41 0.0688847 6.71865 0
M  V30 7566 N 801.13 -1.57531 -0.0467866 0
M  V30 7567 C 802.355 -1.93087 -0.757123 0
M  V30 7568 C 802.78 -0.825116 -1.69037 0
M  V30 7569 O 802.138 0.220449 -1.79955 0
M  V30 7570 C 802.186 -3.27669 -1.5055 0
M  V30 7571 O 801.29 -3.18667 -2.61773 0
M  V30 7572 H 800.631 -0.631597 -0.204892 0
M  V30 7573 H 803.161 -2.04599 -0.00755232 0
M  V30 7574 H 803.171 -3.6214 -1.87932 0
M  V30 7575 H 801.846 -4.07717 -0.820931 0
M  V30 7576 H 800.423 -2.95798 -2.27064 0
M  V30 7577 N 802.608 0.318715 -1.54344 0
M  V30 7578 C 803.856 1.054 -1.72439 0
M  V30 7579 C 804.177 1.88388 -0.503495 0
M  V30 7580 O 803.447 1.89866 0.48246 0
M  V30 7581 H 802.027 0.392124 -0.635805 0
M  V30 7582 H 804.689 0.35398 -1.91659 0
M  V30 7583 H 803.785 1.71726 -2.60608 0
M  V30 7584 N 804.086 1.46499 0.581025 0
M  V30 7585 C 805.334 1.51596 1.33653 0
M  V30 7586 C 805.655 0.169859 1.94259 0
M  V30 7587 O 804.925 -0.803776 1.78651 0
M  V30 7588 H 803.505 0.558346 0.496244 0
M  V30 7589 H 806.167 1.8264 0.680338 0
M  V30 7590 H 805.263 2.26956 2.14237 0
M  V30 7591 N 805.565 -0.825799 1.34232 0
M  V30 7592 C 806.79 -1.61883 1.29648 0
M  V30 7593 C 807.215 -1.87669 -0.127295 0
M  V30 7594 O 806.573 -1.45016 -1.08813 0
M  V30 7595 C 806.621 -2.93846 2.09014 0
M  V30 7596 O 805.725 -3.85778 1.4577 0
M  V30 7597 H 805.066 -0.492454 0.445405 0
M  V30 7598 H 807.596 -1.02641 1.76992 0
M  V30 7599 H 807.606 -3.43435 2.20264 0
M  V30 7600 H 806.281 -2.74401 3.12533 0
M  V30 7601 H 804.858 -3.4429 1.43245 0
M  V30 7602 N 807.043 -1.17915 -1.04565 0
M  V30 7603 C 808.291 -0.969505 -1.77327 0
M  V30 7604 C 808.612 0.502569 -1.88412 0
M  V30 7605 O 807.882 1.36467 -1.40547 0
M  V30 7606 H 806.462 -0.355723 -0.656864 0
M  V30 7607 H 809.124 -1.48506 -1.26223 0
M  V30 7608 H 808.22 -1.40324 -2.78775 0
M  V30 7609 N 808.521 1.23394 -0.980386 0
M  V30 7610 C 809.769 1.91431 -0.647978 0
M  V30 7611 C 810.09 1.76871 0.821066 0
M  V30 7612 O 809.36 1.14808 1.58732 0
M  V30 7613 H 807.94 0.708516 -0.236673 0
M  V30 7614 H 810.602 1.50019 -1.2442 0
M  V30 7615 H 809.698 2.98854 -0.899592 0
M  V30 7616 N 809.999 0.752036 1.385 0
M  V30 7617 C 811.247 0.306895 1.99756 0
M  V30 7618 C 811.568 -1.11478 1.59992 0
M  V30 7619 O 810.838 -1.76206 0.856045 0
M  V30 7620 H 809.418 0.11048 0.738785 0
M  V30 7621 H 812.08 0.965785 1.69289 0
M  V30 7622 H 811.176 0.368797 3.09913 0
M  V30 7623 N 811.477 -1.49425 0.500989 0
M  V30 7624 C 812.427 -2.26061 -0.296698 0
M  V30 7625 C 813.411 -1.30906 -0.935541 0
M  V30 7626 O 814.603 -1.55628 -0.843142 0
M  V30 7627 C 811.732 -3.15189 -1.36055 0
M  V30 7628 C 810.818 -4.17806 -0.727952 0
M  V30 7629 N 811.209 -5.05516 0.169408 0
M  V30 7630 C 809.507 -4.34907 -0.988535 0
M  V30 7631 C 810.208 -5.79267 0.531509 0
M  V30 7632 N 809.184 -5.43507 -0.100564 0
M  V30 7633 H 812.986 -2.91246 0.394103 0
M  V30 7634 H 810.5 -1.59275 0.317065 0
M  V30 7635 H 812.497 -3.68724 -1.94547 0
M  V30 7636 H 811.157 -2.51556 -2.05303 0
M  V30 7637 H 812.168 -5.15075 0.540218 0
M  V30 7638 H 808.845 -3.82481 -1.67376 0
M  V30 7639 H 810.235 -6.59872 1.26564 0
M  V30 7640 N 812.955 -0.234822 -1.55841 0
M  V30 7641 C 814.18 0.400741 -2.03492 0
M  V30 7642 C 814.605 1.51618 -1.11327 0
M  V30 7643 O 813.963 1.81002 -0.103922 0
M  V30 7644 C 814.011 0.897184 -3.49261 0
M  V30 7645 O 813.115 2.00764 -3.60233 0
M  V30 7646 H 812.456 0.0890023 -0.658008 0
M  V30 7647 H 814.986 -0.357345 -2.01455 0
M  V30 7648 H 814.996 1.20356 -3.89844 0
M  V30 7649 H 813.671 0.0808639 -4.15821 0
M  V30 7650 H 812.248 1.70689 -3.31541 0
M  V30 7651 N 814.433 1.57553 0.0384317 0
M  V30 7652 C 815.681 1.88468 0.729672 0
M  V30 7653 C 816.002 0.831302 1.76393 0
M  V30 7654 O 815.272 -0.13622 1.95426 0
M  V30 7655 H 813.852 0.695529 0.272485 0
M  V30 7656 H 816.514 1.94899 0.0066032 0
M  V30 7657 H 815.61 2.8705 1.22511 0
M  V30 7658 N 815.911 -0.310526 1.54511 0
M  V30 7659 C 817.159 -1.04484 1.72996 0
M  V30 7660 C 817.48 -1.88118 0.513479 0
M  V30 7661 O 816.75 -1.90119 -0.472384 0
M  V30 7662 H 815.33 -0.388747 0.637875 0
M  V30 7663 H 817.992 -0.343811 1.91844 0
M  V30 7664 H 817.088 -1.70341 2.61515 0
M  V30 7665 N 817.389 -1.46805 -0.573248 0
M  V30 7666 C 818.614 -1.56433 -1.36175 0
M  V30 7667 C 819.039 -0.209336 -1.86932 0
M  V30 7668 O 818.397 0.812146 -1.62092 0
M  V30 7669 C 818.445 -2.58055 -2.51873 0
M  V30 7670 O 817.549 -2.12214 -3.53609 0
M  V30 7671 H 816.89 -0.526068 -0.405153 0
M  V30 7672 H 819.42 -1.92456 -0.694405 0
M  V30 7673 H 819.43 -2.77966 -2.98662 0
M  V30 7674 H 818.105 -3.56448 -2.14284 0
M  V30 7675 H 816.682 -2.02333 -3.13234 0
M  V30 7676 N 818.867 0.818669 -1.34668 0
M  V30 7677 C 820.115 1.57201 -1.27013 0
M  V30 7678 C 820.436 1.94354 0.158599 0
M  V30 7679 O 819.706 1.62626 1.09223 0
M  V30 7680 H 818.286 0.582919 -0.467135 0
M  V30 7681 H 820.948 0.977234 -1.6863 0
M  V30 7682 H 820.044 2.49291 -1.87778 0
M  V30 7683 N 820.346 1.18468 1.03938 0
M  V30 7684 C 821.594 0.978895 1.76811 0
M  V30 7685 C 821.915 -0.49257 1.88676 0
M  V30 7686 O 821.185 -1.3572 1.41269 0
M  V30 7687 H 819.765 0.359201 0.654968 0
M  V30 7688 H 822.427 1.49173 1.25433 0
M  V30 7689 H 821.523 1.418 2.78027 0
M  V30 7690 N 821.824 -1.22873 0.986916 0
M  V30 7691 C 822.772 -2.26597 0.525043 0
M  V30 7692 C 823.766 -1.64079 -0.421252 0
M  V30 7693 O 824.972 -1.77576 -0.294429 0
M  V30 7694 H 821.347 -0.736606 0.151381 0
M  V30 7695 H 823.318 -2.62909 1.41142 0
M  V30 7696 C 822.067 -3.47374 -0.150542 0
M  V30 7697 H 821.39 -3.95737 0.568541 0
M  V30 7698 H 822.83 -4.21739 -0.437256 0
M  V30 7699 C 821.289 -3.07163 -1.38392 0
M  V30 7700 O 821.819 -3.16028 -2.47971 0
M  V30 7701 N 820.025 -2.62009 -1.25697 0
M  V30 7702 H 819.572 -2.54996 -0.365355 0
M  V30 7703 H 819.53 -2.35472 -2.08327 0
M  V30 7704 N 823.302 -0.75937 -1.38099 0
M  V30 7705 C 824.532 -0.328634 -2.0397 0
M  V30 7706 C 824.94 1.04989 -1.57398 0
M  V30 7707 O 824.283 1.67918 -0.744932 0
M  V30 7708 C 824.345 -0.279216 -3.58414 0
M  V30 7709 C 824.009 -1.60025 -4.28067 0
M  V30 7710 C 825.006 -2.55048 -4.53041 0
M  V30 7711 C 822.691 -1.87128 -4.66142 0
M  V30 7712 C 824.685 -3.7539 -5.15132 0
M  V30 7713 C 822.372 -3.07742 -5.27956 0
M  V30 7714 C 823.37 -4.01694 -5.52387 0
M  V30 7715 O 823.058 -5.20186 -6.12912 0
M  V30 7716 H 822.79 -0.137443 -0.66188 0
M  V30 7717 H 825.344 -1.03082 -1.77661 0
M  V30 7718 H 823.574 0.479254 -3.83719 0
M  V30 7719 H 825.263 0.122781 -4.05714 0
M  V30 7720 H 826.029 -2.35387 -4.24049 0
M  V30 7721 H 821.908 -1.14833 -4.46469 0
M  V30 7722 H 825.452 -4.48737 -5.34117 0
M  V30 7723 H 821.349 -3.27294 -5.56371 0
M  V30 7724 H 822.117 -5.20846 -6.31397 0
M  V30 7725 N 824.78 1.49157 -0.508906 0
M  V30 7726 C 826.028 2.02073 0.0327335 0
M  V30 7727 C 826.349 1.39012 1.3675 0
M  V30 7728 O 825.619 0.548153 1.88075 0
M  V30 7729 H 824.199 0.746848 0.0150864 0
M  V30 7730 H 826.861 1.83097 -0.667946 0
M  V30 7731 H 825.957 3.11707 0.1566 0
M  V30 7732 N 826.258 0.243083 1.55714 0
M  V30 7733 C 827.506 -0.381964 1.98458 0
M  V30 7734 C 827.827 -1.58745 1.13247 0
M  V30 7735 O 827.097 -1.94723 0.214384 0
M  V30 7736 H 825.677 -0.144114 0.732967 0
M  V30 7737 H 828.339 0.340985 1.91894 0
M  V30 7738 H 827.435 -0.693702 3.04293 0
M  V30 7739 N 827.736 -1.57571 -0.0300757 0
M  V30 7740 C 828.984 -1.88852 -0.719666 0
M  V30 7741 C 829.305 -0.840645 -1.75949 0
M  V30 7742 O 828.575 0.125854 -1.95495 0
M  V30 7743 H 827.155 -0.696965 -0.268792 0
M  V30 7744 H 829.817 -1.949 0.00373285 0
M  V30 7745 H 828.913 -2.87695 -1.20987 0
M  V30 7746 N 829.214 0.302327 -1.54673 0
M  V30 7747 C 830.439 1.06103 -1.78205 0
M  V30 7748 C 830.864 1.80204 -0.53926 0
M  V30 7749 O 830.222 1.73975 0.510142 0
M  V30 7750 C 830.27 2.01829 -2.98827 0
M  V30 7751 O 829.374 3.10108 -2.71858 0
M  V30 7752 H 828.715 0.30487 -0.589873 0
M  V30 7753 H 831.245 0.340153 -2.01753 0
M  V30 7754 H 831.255 2.44319 -3.2676 0
M  V30 7755 H 829.93 1.473 -3.88942 0
M  V30 7756 H 828.507 2.72142 -2.54937 0
M  V30 7757 N 830.692 1.47107 0.565454 0
M  V30 7758 C 831.94 1.53005 1.32038 0
M  V30 7759 C 832.261 0.190453 1.94068 0
M  V30 7760 O 831.531 -0.784783 1.79494 0
M  V30 7761 H 830.111 0.563578 0.490294 0
M  V30 7762 H 832.773 1.83351 0.660928 0
M  V30 7763 H 831.869 2.29215 2.11818 0
M  V30 7764 N 832.17 -0.811516 1.35101 0
M  V30 7765 C 833.395 -1.60499 1.31358 0
M  V30 7766 C 833.82 -1.87793 -0.107383 0
M  V30 7767 O 833.178 -1.46161 -1.07268 0
M  V30 7768 C 833.226 -2.91612 2.12119 0
M  V30 7769 O 832.33 -3.84211 1.49853 0
M  V30 7770 H 831.671 -0.487702 0.450603 0
M  V30 7771 H 834.201 -1.00758 1.7807 0
M  V30 7772 H 834.211 -3.4108 2.23894 0
M  V30 7773 H 832.886 -2.71071 3.15426 0
M  V30 7774 H 831.463 -3.42751 1.46889 0
M  V30 7775 N 833.648 -1.19017 -1.03309 0
M  V30 7776 C 834.896 -0.988258 -1.76289 0
M  V30 7777 C 835.217 0.482557 -1.88935 0
M  V30 7778 O 834.487 1.34969 -1.41987 0
M  V30 7779 H 833.067 -0.36267 -0.653054 0
M  V30 7780 H 835.729 -1.49836 -1.2464 0
M  V30 7781 H 834.825 -1.43273 -2.77271 0
M  V30 7782 N 835.127 1.22348 -0.993418 0
M  V30 7783 C 836.375 1.90733 -0.668246 0
M  V30 7784 C 836.696 1.77732 0.802261 0
M  V30 7785 O 835.966 1.16486 1.57505 0
M  V30 7786 H 834.546 0.705966 -0.244174 0
M  V30 7787 H 837.208 1.48691 -1.26004 0
M  V30 7788 H 836.304 2.97883 -0.931239 0
M  V30 7789 N 836.605 0.766683 1.37694 0
M  V30 7790 C 837.853 0.328065 1.9942 0
M  V30 7791 C 838.174 -1.09775 1.61166 0
M  V30 7792 O 837.444 -1.75288 0.874686 0
M  V30 7793 H 836.024 0.11831 0.737572 0
M  V30 7794 H 838.686 0.983686 1.68255 0
M  V30 7795 H 837.782 0.401647 3.09505 0
M  V30 7796 N 838.083 -1.48885 0.516809 0
M  V30 7797 C 839.308 -2.0739 -0.0205201 0
M  V30 7798 C 839.733 -1.37259 -1.28614 0
M  V30 7799 O 839.091 -0.434304 -1.76021 0
M  V30 7800 C 839.139 -3.59793 -0.24104 0
M  V30 7801 O 838.243 -3.90957 -1.31251 0
M  V30 7802 H 837.584 -0.663167 0.0332564 0
M  V30 7803 H 840.114 -1.91477 0.720956 0
M  V30 7804 H 840.124 -4.0531 -0.467737 0
M  V30 7805 H 838.799 -4.10244 0.68356 0
M  V30 7806 H 837.376 -3.57234 -1.06951 0
M  V30 7807 N 839.561 -0.251338 -1.55583 0
M  V30 7808 C 840.809 0.371434 -1.98657 0
M  V30 7809 C 841.13 1.58143 -1.14087 0
M  V30 7810 O 840.4 1.94607 -0.224708 0
M  V30 7811 H 838.98 0.140225 -0.733721 0
M  V30 7812 H 841.642 -0.351157 -1.9171 0
M  V30 7813 H 840.738 0.677554 -3.04657 0
M  V30 7814 N 841.039 1.57585 0.0217189 0
M  V30 7815 C 842.287 1.89231 0.709641 0
M  V30 7816 C 842.608 0.849964 1.75501 0
M  V30 7817 O 841.878 -0.115485 1.95559 0
M  V30 7818 H 840.458 0.69838 0.265092 0
M  V30 7819 H 843.12 1.94895 -0.0140688 0
M  V30 7820 H 842.216 2.88333 1.19459 0
M  V30 7821 N 842.517 -0.29412 1.54831 0
M  V30 7822 C 843.765 -1.02643 1.74094 0
M  V30 7823 C 844.086 -1.87563 0.533402 0
M  V30 7824 O 843.356 -1.9061 -0.452192 0
M  V30 7825 H 841.936 -0.381959 0.641963 0
M  V30 7826 H 844.598 -0.323444 1.92197 0
M  V30 7827 H 843.694 -1.67558 2.63307 0
M  V30 7828 N 843.995 -1.47404 -0.557645 0
M  V30 7829 C 845.225 -1.57393 -1.33832 0
M  V30 7830 C 845.633 -0.222978 -1.87881 0
M  V30 7831 O 844.976 0.793854 -1.65661 0
M  V30 7832 C 845.038 -2.53882 -2.54528 0
M  V30 7833 C 844.702 -3.99585 -2.21767 0
M  V30 7834 C 845.699 -4.88082 -1.79087 0
M  V30 7835 C 843.384 -4.44917 -2.3314 0
M  V30 7836 C 845.378 -6.1993 -1.48209 0
M  V30 7837 C 843.065 -5.76793 -2.01874 0
M  V30 7838 C 844.063 -6.64121 -1.59476 0
M  V30 7839 O 843.751 -7.93546 -1.28607 0
M  V30 7840 H 843.483 -0.534172 -0.41429 0
M  V30 7841 H 846.037 -1.93733 -0.682404 0
M  V30 7842 H 844.267 -2.12609 -3.23009 0
M  V30 7843 H 845.956 -2.54003 -3.16603 0
M  V30 7844 H 846.722 -4.54307 -1.69794 0
M  V30 7845 H 842.601 -3.77152 -2.65099 0
M  V30 7846 H 846.145 -6.88049 -1.15043 0
M  V30 7847 H 842.042 -6.1011 -2.10799 0
M  V30 7848 H 842.81 -8.06046 -1.42241 0
M  V30 7849 N 845.473 0.80434 -1.35529 0
M  V30 7850 C 846.721 1.55845 -1.28673 0
M  V30 7851 C 847.042 1.94511 0.137976 0
M  V30 7852 O 846.312 1.63775 1.07492 0
M  V30 7853 H 844.892 0.577931 -0.473291 0
M  V30 7854 H 847.554 0.959293 -1.69657 0
M  V30 7855 H 846.65 2.47285 -1.90411 0
M  V30 7856 N 846.951 1.19563 1.02676 0
M  V30 7857 C 848.199 0.997593 1.75763 0
M  V30 7858 C 848.52 -0.47253 1.89188 0
M  V30 7859 O 847.79 -1.34214 1.42701 0
M  V30 7860 H 846.37 0.366128 0.651122 0
M  V30 7861 H 849.032 1.50495 1.23844 0
M  V30 7862 H 848.128 1.44741 2.76508 0
M  V30 7863 N 848.429 -1.21819 0.999893 0
M  V30 7864 C 849.677 -1.90375 0.678351 0
M  V30 7865 C 849.998 -1.78155 -0.792824 0
M  V30 7866 O 849.268 -1.17319 -1.56885 0
M  V30 7867 H 847.848 -0.704661 0.247915 0
M  V30 7868 H 850.51 -1.48021 1.2679 0
M  V30 7869 H 849.606 -2.97385 0.947023 0
M  V30 7870 N 849.908 -0.773975 -1.37286 0
M  V30 7871 C 851.133 -0.349561 -2.04433 0
M  V30 7872 C 851.558 1.02082 -1.5799 0
M  V30 7873 O 850.916 1.65458 -0.741172 0
M  V30 7874 C 850.964 -0.404292 -3.58326 0
M  V30 7875 O 850.068 0.594447 -4.08093 0
M  V30 7876 H 849.409 -0.150959 -0.646612 0
M  V30 7877 H 851.939 -1.05079 -1.75555 0
M  V30 7878 H 851.949 -0.262378 -4.07155 0
M  V30 7879 H 850.624 -1.40403 -3.91484 0
M  V30 7880 H 849.201 0.415468 -3.70578 0
M  V30 7881 N 851.386 1.48609 -0.524698 0
M  V30 7882 C 852.634 2.02097 0.0112991 0
M  V30 7883 C 852.955 1.40455 1.35268 0
M  V30 7884 O 852.225 0.56807 1.87483 0
M  V30 7885 H 850.805 0.746966 0.00716426 0
M  V30 7886 H 853.467 1.82378 -0.687329 0
M  V30 7887 H 852.563 3.11855 0.123531 0
M  V30 7888 N 852.864 0.259585 1.55447 0
M  V30 7889 C 854.089 -0.368317 2.04103 0
M  V30 7890 C 854.514 -1.49827 1.13725 0
M  V30 7891 O 853.872 -1.80814 0.132705 0
M  V30 7892 C 853.92 -0.841506 3.50644 0
M  V30 7893 O 853.024 -1.95008 3.63381 0
M  V30 7894 H 852.365 -0.0785227 0.659341 0
M  V30 7895 H 854.895 0.389349 2.00861 0
M  V30 7896 H 854.905 -1.14138 3.9171 0
M  V30 7897 H 853.58 -0.0147001 4.15897 0
M  V30 7898 H 852.157 -1.65393 3.34215 0
M  V30 7899 N 854.342 -1.57594 -0.0133615 0
M  V30 7900 C 855.758 -1.5527 -0.369255 0
M  V30 7901 C 855.958 -0.987751 -1.7563 0
M  V30 7902 O 855.014 -0.615683 -2.44879 0
M  V30 7903 C 856.327 -2.99602 -0.25672 0
M  V30 7904 C 857.875 -3.11227 -0.332647 0
M  V30 7905 C 858.35 -4.57321 -0.249387 0
M  V30 7906 N 859.841 -4.62177 -0.3077 0
M  V30 7907 C 860.576 -5.72781 -0.26641 0
M  V30 7908 N 860.072 -6.92575 -0.176494 0
M  V30 7909 N 861.865 -5.61204 -0.317295 0
M  V30 7910 H 854.016 -1.92662 0.894154 0
M  V30 7911 H 856.279 -0.884352 0.341505 0
M  V30 7912 H 855.985 -3.44723 0.697072 0
M  V30 7913 H 855.859 -3.6246 -1.04415 0
M  V30 7914 H 858.246 -2.66045 -1.27688 0
M  V30 7915 H 858.327 -2.51171 0.484412 0
M  V30 7916 H 857.971 -5.03174 0.691242 0
M  V30 7917 H 857.901 -5.15306 -1.08476 0
M  V30 7918 H 860.392 -3.75994 -0.379069 0
M  V30 7919 H 860.705 -7.72653 -0.150518 0
M  V30 7920 H 859.05 -6.94854 -0.142314 0
M  V30 7921 H 862.241 -4.66509 -0.385643 0
M  V30 7922 H 862.414 -6.47388 -0.28165 0
M  V30 7923 N 855.82 0.285905 -1.54985 0
M  V30 7924 C 857.068 1.01718 -1.74636 0
M  V30 7925 C 857.389 1.87277 -0.543342 0
M  V30 7926 O 856.659 1.90847 0.442078 0
M  V30 7927 H 855.239 0.378549 -0.643979 0
M  V30 7928 H 857.901 0.313247 -1.92366 0
M  V30 7929 H 856.997 1.66159 -2.64192 0
M  V30 7930 N 857.298 1.47698 0.54982 0
M  V30 7931 C 858.546 1.54397 1.30407 0
M  V30 7932 C 858.867 0.211026 1.93855 0
M  V30 7933 O 858.137 -0.765701 1.80316 0
M  V30 7934 H 856.717 0.568747 0.484289 0
M  V30 7935 H 859.379 1.84042 0.641444 0
M  V30 7936 H 858.475 2.31449 2.09375 0
M  V30 7937 N 858.776 -0.797141 1.35954 0
M  V30 7938 C 860.001 -1.59097 1.33053 0
M  V30 7939 C 860.426 -1.87897 -0.0874592 0
M  V30 7940 O 859.784 -1.47291 -1.05712 0
M  V30 7941 C 859.832 -2.89346 2.152 0
M  V30 7942 O 858.936 -3.826 1.5392 0
M  V30 7943 H 858.277 -0.482895 0.45575 0
M  V30 7944 H 860.807 -0.988633 1.79129 0
M  V30 7945 H 860.817 -3.38686 2.27499 0
M  V30 7946 H 859.492 -2.6771 3.18283 0
M  V30 7947 H 858.069 -3.41174 1.50516 0
M  V30 7948 N 860.254 -1.20106 -1.0204 0
M  V30 7949 C 861.502 -1.0069 -1.75231 0
M  V30 7950 C 861.823 0.462491 -1.89436 0
M  V30 7951 O 861.093 1.33455 -1.4341 0
M  V30 7952 H 859.673 -0.369576 -0.649171 0
M  V30 7953 H 862.335 -1.51149 -1.23044 0
M  V30 7954 H 861.431 -1.46205 -2.75736 0
M  V30 7955 N 861.732 1.21287 -1.00634 0
M  V30 7956 C 862.98 1.90013 -0.688438 0
M  V30 7957 C 863.301 1.78573 0.783365 0
M  V30 7958 O 862.571 1.1815 1.56261 0
M  V30 7959 H 861.151 0.703336 -0.251648 0
M  V30 7960 H 863.813 1.47346 -1.27574 0
M  V30 7961 H 862.909 2.96879 -0.962781 0
M  V30 7962 N 863.21 0.781244 1.36873 0
M  V30 7963 C 864.435 0.360398 2.04245 0
M  V30 7964 C 864.86 -1.01242 1.58529 0
M  V30 7965 O 864.218 -1.65063 0.749936 0
M  V30 7966 C 864.266 0.42329 3.58107 0
M  V30 7967 O 863.37 -0.572796 4.08403 0
M  V30 7968 H 862.711 0.154386 0.645803 0
M  V30 7969 H 865.241 1.06008 1.74996 0
M  V30 7970 H 865.251 0.283967 4.07011 0
M  V30 7971 H 863.926 1.42477 3.90734 0
M  V30 7972 H 862.503 -0.395809 3.70793 0
M  V30 7973 N 864.689 -1.48329 0.532571 0
M  V30 7974 C 865.639 -2.2664 -0.24868 0
M  V30 7975 C 866.623 -1.32861 -0.907563 0
M  V30 7976 O 867.815 -1.57382 -0.809942 0
M  V30 7977 C 864.944 -3.18004 -1.29339 0
M  V30 7978 C 864.03 -4.19256 -0.639166 0
M  V30 7979 N 864.421 -5.05043 0.276597 0
M  V30 7980 C 862.719 -4.36906 -0.896062 0
M  V30 7981 C 863.42 -5.78009 0.654261 0
M  V30 7982 N 862.396 -5.43598 0.0147447 0
M  V30 7983 H 866.198 -2.90344 0.455792 0
M  V30 7984 H 863.712 -1.58566 0.350778 0
M  V30 7985 H 865.709 -3.72767 -1.86682 0
M  V30 7986 H 864.369 -2.55855 -1.99921 0
M  V30 7987 H 865.38 -5.13813 0.649351 0
M  V30 7988 H 862.057 -3.85945 -1.59226 0
M  V30 7989 H 863.447 -6.57039 1.40532 0
M  V30 7990 N 866.167 -0.267825 -1.55308 0
M  V30 7991 C 867.415 0.350343 -1.9904 0
M  V30 7992 C 867.736 1.56924 -1.15758 0
M  V30 7993 O 867.006 1.94358 -0.245336 0
M  V30 7994 H 865.586 0.132435 -0.735167 0
M  V30 7995 H 868.248 -0.371471 -1.91327 0
M  V30 7996 H 867.344 0.645203 -3.05358 0
M  V30 7997 N 867.645 1.57599 0.00500368 0
M  V30 7998 C 868.893 1.89973 0.68953 0
M  V30 7999 C 869.214 0.868531 1.7459 0
M  V30 8000 O 868.484 -0.0947367 1.95671 0
M  V30 8001 H 867.064 0.701153 0.25767 0
M  V30 8002 H 869.726 1.94869 -0.0347392 0
M  V30 8003 H 868.822 2.89584 1.16394 0
M  V30 8004 N 869.123 -0.277682 1.55134 0
M  V30 8005 C 870.371 -1.00791 1.75173 0
M  V30 8006 C 870.692 -1.86987 0.553266 0
M  V30 8007 O 869.962 -1.91079 -0.43195 0
M  V30 8008 H 868.542 -0.375129 0.645978 0
M  V30 8009 H 871.204 -0.303041 1.9253 0
M  V30 8010 H 870.3 -1.64756 2.6507 0
M  V30 8011 N 870.601 -1.47988 -0.541979 0
M  V30 8012 C 871.826 -1.59286 -1.32826 0
M  V30 8013 C 872.251 -0.24894 -1.86445 0
M  V30 8014 O 871.609 0.777581 -1.63778 0
M  V30 8015 C 871.657 -2.6334 -2.46343 0
M  V30 8016 O 870.761 -2.19667 -3.49028 0
M  V30 8017 H 870.102 -0.534543 -0.393903 0
M  V30 8018 H 872.632 -1.93885 -0.653427 0
M  V30 8019 H 872.642 -2.84238 -2.92699 0
M  V30 8020 H 871.317 -3.60913 -2.06675 0
M  V30 8021 H 869.894 -2.08932 -3.08872 0
M  V30 8022 N 872.079 0.78992 -1.36375 0
M  V30 8023 C 873.327 1.54472 -1.30319 0
M  V30 8024 C 873.648 1.94647 0.117338 0
M  V30 8025 O 872.918 1.64906 1.05748 0
M  V30 8026 H 871.498 0.572879 -0.479394 0
M  V30 8027 H 874.16 0.941245 -1.70665 0
M  V30 8028 H 873.256 2.45252 -1.93024 0
M  V30 8029 N 873.557 1.20646 1.01402 0
M  V30 8030 C 874.804 1.01819 1.7504 0
M  V30 8031 C 875.132 -0.449386 1.89237 0
M  V30 8032 O 874.387 -1.34985 1.41695 0
M  V30 8033 C 874.686 1.64991 3.17037 0
M  V30 8034 C 874.352 3.14808 3.22811 0
M  V30 8035 C 873.014 3.55692 3.24094 0
M  V30 8036 C 875.366 4.108 3.2077 0
M  V30 8037 C 872.694 4.9109 3.2101 0
M  V30 8038 C 875.046 5.46147 3.19227 0
M  V30 8039 C 873.71 5.86441 3.18815 0
M  V30 8040 H 872.98 0.372582 0.640518 0
M  V30 8041 H 875.627 1.50108 1.18911 0
M  V30 8042 H 873.932 1.08971 3.76341 0
M  V30 8043 H 875.629 1.47937 3.72714 0
M  V30 8044 H 872.219 2.8224 3.2255 0
M  V30 8045 H 876.403 3.80246 3.18946 0
M  V30 8046 H 871.659 5.21569 3.19023 0
M  V30 8047 H 875.833 6.20272 3.166 0
M  V30 8048 H 873.46 6.91328 3.16179 0
M  V30 8049 N 875.035 -1.20752 1.01276 0
M  V30 8050 C 876.283 -1.89645 0.698505 0
M  V30 8051 C 876.604 -1.78986 -0.773883 0
M  V30 8052 O 875.874 -1.18977 -1.55632 0
M  V30 8053 H 874.454 -0.701992 0.255375 0
M  V30 8054 H 877.116 -1.46668 1.28353 0
M  V30 8055 H 876.212 -2.96364 0.978512 0
M  V30 8056 N 876.513 -0.788492 -1.36457 0
M  V30 8057 C 877.761 -0.359749 -1.98872 0
M  V30 8058 C 878.082 1.07197 -1.62892 0
M  V30 8059 O 877.352 1.73875 -0.902463 0
M  V30 8060 H 875.932 -0.130029 -0.735596 0
M  V30 8061 H 878.594 -1.01033 -1.66668 0
M  V30 8062 H 877.69 -0.450835 -3.08827 0
M  V30 8063 N 877.991 1.48044 -0.54043 0
M  V30 8064 C 878.901 2.33565 0.220163 0
M  V30 8065 C 879.917 1.47146 0.928659 0
M  V30 8066 O 881.093 1.80107 0.901295 0
M  V30 8067 C 878.158 3.2349 1.2472 0
M  V30 8068 C 877.219 4.25789 0.547938 0
M  V30 8069 C 876.452 5.11417 1.52605 0
M  V30 8070 O 876.675 4.99204 2.75956 0
M  V30 8071 O 875.609 5.92498 1.05972 0
M  V30 8072 H 879.435 2.99868 -0.480898 0
M  V30 8073 H 877.02 1.46332 -0.301226 0
M  V30 8074 H 878.902 3.79084 1.84047 0
M  V30 8075 H 877.577 2.59835 1.93048 0
M  V30 8076 H 876.484 3.74001 -0.0860941 0
M  V30 8077 H 877.817 4.92111 -0.0935896 0
M  V30 8078 N 879.47 0.276058 1.55163 0
M  V30 8079 C 880.695 -0.346648 2.04483 0
M  V30 8080 C 881.12 -1.48613 1.15308 0
M  V30 8081 O 880.478 -1.80663 0.151875 0
M  V30 8082 C 880.526 -0.804268 3.51517 0
M  V30 8083 O 879.63 -1.91143 3.65429 0
M  V30 8084 H 878.971 -0.0715251 0.660136 0
M  V30 8085 H 881.501 0.410631 2.00437 0
M  V30 8086 H 881.511 -1.09977 3.92898 0
M  V30 8087 H 880.186 0.0294123 4.1589 0
M  V30 8088 H 878.763 -1.61839 3.3595 0
M  V30 8089 N 880.948 -1.576 0.00335426 0
M  V30 8090 C 882.196 -1.90336 -0.679446 0
M  V30 8091 C 882.517 -0.877777 -1.74127 0
M  V30 8092 O 881.787 0.0843585 -1.95718 0
M  V30 8093 H 880.367 -0.702509 -0.253948 0
M  V30 8094 H 883.029 -1.94848 0.0450731 0
M  V30 8095 H 882.125 -2.90197 -1.14857 0
M  V30 8096 N 882.426 0.269451 -1.5528 0
M  V30 8097 C 883.674 0.998604 -1.75705 0
M  V30 8098 C 883.995 1.86691 -0.563175 0
M  V30 8099 O 883.265 1.91305 0.421811 0
M  V30 8100 H 881.845 0.371698 -0.647958 0
M  V30 8101 H 884.507 0.292826 -1.92688 0
M  V30 8102 H 883.603 1.63348 -2.6594 0
M  V30 8103 N 883.904 1.48273 0.534124 0
M  V30 8104 C 885.129 1.59988 1.31979 0
M  V30 8105 C 885.554 0.258824 1.86311 0
M  V30 8106 O 884.912 -0.768885 1.64188 0
M  V30 8107 C 884.96 2.64642 2.44943 0
M  V30 8108 O 884.064 2.21515 3.47858 0
M  V30 8109 H 883.405 0.536625 0.391063 0
M  V30 8110 H 885.935 1.94229 0.643135 0
M  V30 8111 H 885.945 2.85786 2.91187 0
M  V30 8112 H 884.62 3.62004 2.04758 0
M  V30 8113 H 883.197 2.10567 3.0776 0
M  V30 8114 N 885.382 -0.782676 1.36792 0
M  V30 8115 C 886.612 -1.56934 1.3437 0
M  V30 8116 C 887.02 -1.89049 -0.0754828 0
M  V30 8117 O 886.363 -1.51103 -1.04467 0
M  V30 8118 C 886.425 -2.91311 2.10661 0
M  V30 8119 C 886.089 -2.81889 3.59705 0
M  V30 8120 C 887.086 -2.53668 4.53815 0
M  V30 8121 C 884.771 -3.00254 4.02682 0
M  V30 8122 C 886.765 -2.43925 5.8888 0
M  V30 8123 C 884.452 -2.90132 5.37835 0
M  V30 8124 C 885.45 -2.62006 6.30747 0
M  V30 8125 O 885.138 -2.5189 7.63418 0
M  V30 8126 H 884.87 -0.493194 0.462316 0
M  V30 8127 H 887.424 -0.978791 1.80579 0
M  V30 8128 H 885.654 -3.52443 1.59125 0
M  V30 8129 H 887.343 -3.52632 2.01012 0
M  V30 8130 H 888.109 -2.39176 4.21924 0
M  V30 8131 H 883.988 -3.21151 3.30731 0
M  V30 8132 H 887.532 -2.21892 6.6137 0
M  V30 8133 H 883.429 -3.04189 5.69332 0
M  V30 8134 H 884.197 -2.67321 7.73616 0
M  V30 8135 N 886.86 -1.21182 -1.00761 0
M  V30 8136 C 888.108 -1.02543 -1.74153 0
M  V30 8137 C 888.429 0.442372 -1.89916 0
M  V30 8138 O 887.699 1.31927 -1.44818 0
M  V30 8139 H 886.279 -0.37644 -0.645214 0
M  V30 8140 H 888.941 -1.52446 -1.21434 0
M  V30 8141 H 888.037 -1.49122 -2.7417 0
M  V30 8142 N 888.338 1.20213 -1.01915 0
M  V30 8143 C 889.586 1.89272 -0.708552 0
M  V30 8144 C 889.907 1.79394 0.76438 0
M  V30 8145 O 889.177 1.198 1.54999 0
M  V30 8146 H 887.757 0.700628 -0.259094 0
M  V30 8147 H 890.419 1.45985 -1.29129 0
M  V30 8148 H 889.515 2.95841 -0.994215 0
M  V30 8149 N 889.816 0.795718 1.36037 0
M  V30 8150 C 891.064 0.370291 1.98679 0
M  V30 8151 C 891.385 -1.06332 1.63458 0
M  V30 8152 O 890.655 -1.73394 0.911671 0
M  V30 8153 H 889.235 0.133928 0.734896 0
M  V30 8154 H 891.897 1.01915 1.6613 0
M  V30 8155 H 890.993 0.467207 3.08583 0
M  V30 8156 N 891.294 -1.47756 0.548274 0
M  V30 8157 C 892.204 -2.33678 -0.207773 0
M  V30 8158 C 893.22 -1.47636 -0.920843 0
M  V30 8159 O 894.396 -1.80583 -0.89173 0
M  V30 8160 C 891.461 -3.24147 -1.23003 0
M  V30 8161 C 890.522 -4.26073 -0.52535 0
M  V30 8162 C 889.755 -5.12219 -1.4989 0
M  V30 8163 O 889.978 -5.0066 -2.73305 0
M  V30 8164 O 888.912 -5.93051 -1.02828 0
M  V30 8165 H 892.738 -2.99609 0.496794 0
M  V30 8166 H 890.323 -1.4617 0.308982 0
M  V30 8167 H 892.205 -3.80055 -1.82034 0
M  V30 8168 H 890.88 -2.60855 -1.91668 0
M  V30 8169 H 889.787 -3.7395 0.105927 0
M  V30 8170 H 891.12 -4.92054 0.119686 0
M  V30 8171 N 892.772 -0.284283 -1.55015 0
M  V30 8172 C 893.682 0.60906 -2.26556 0
M  V30 8173 C 894.698 1.16246 -1.29472 0
M  V30 8174 O 895.874 1.1908 -1.62425 0
M  V30 8175 C 892.939 1.77246 -2.97968 0
M  V30 8176 C 892 1.25482 -4.10552 0
M  V30 8177 C 891.233 2.36277 -4.78549 0
M  V30 8178 O 891.456 3.55829 -4.45805 0
M  V30 8179 O 890.39 2.03914 -5.66306 0
M  V30 8180 H 894.216 0.0292298 -3.03686 0
M  V30 8181 H 891.801 -0.0513466 -1.49312 0
M  V30 8182 H 893.683 2.45062 -3.42815 0
M  V30 8183 H 892.358 2.33921 -2.23747 0
M  V30 8184 H 891.265 0.542859 -3.7014 0
M  V30 8185 H 892.598 0.733708 -4.86701 0
M  V30 8186 N 894.251 1.57596 -0.0117121 0
M  V30 8187 C 895.214 2.08089 0.960816 0
M  V30 8188 C 896.214 0.992519 1.26514 0
M  V30 8189 O 897.404 1.25475 1.20837 0
M  V30 8190 C 894.536 2.53217 2.28241 0
M  V30 8191 H 895.729 2.9529 0.523829 0
M  V30 8192 H 893.282 1.54508 0.235995 0
M  V30 8193 H 894.017 1.69294 2.76604 0
M  V30 8194 H 893.802 3.32714 2.0747 0
M  V30 8195 H 895.292 2.92568 2.97983 0
M  V30 8196 N 895.729 -0.261212 1.5542 0
M  V30 8197 C 896.954 -1.01341 1.80955 0
M  V30 8198 C 897.379 -1.78711 0.586849 0
M  V30 8199 O 896.737 -1.75266 -0.463837 0
M  V30 8200 C 896.785 -1.93835 3.04073 0
M  V30 8201 O 895.889 -3.02791 2.79985 0
M  V30 8202 H 895.23 -0.289123 0.597749 0
M  V30 8203 H 897.76 -0.286543 2.02584 0
M  V30 8204 H 897.77 -2.3557 3.33123 0
M  V30 8205 H 896.445 -1.36936 3.9271 0
M  V30 8206 H 895.022 -2.65287 2.62063 0
M  V30 8207 N 897.207 -1.48554 -0.526253 0
M  V30 8208 C 898.455 -1.56452 -1.27935 0
M  V30 8209 C 898.776 -0.24184 -1.93495 0
M  V30 8210 O 898.046 0.736917 -1.81511 0
M  V30 8211 H 896.626 -0.576379 -0.47518 0
M  V30 8212 H 899.288 -1.85039 -0.612083 0
M  V30 8213 H 898.384 -2.34751 -2.05666 0
M  V30 8214 N 898.685 0.775411 -1.37205 0
M  V30 8215 C 899.91 1.5696 -1.35567 0
M  V30 8216 C 900.335 1.88012 0.0575554 0
M  V30 8217 O 899.693 1.48954 1.03355 0
M  V30 8218 C 899.741 2.85886 -2.19776 0
M  V30 8219 O 898.845 3.80103 -1.59987 0
M  V30 8220 H 898.186 0.475583 -0.463375 0
M  V30 8221 H 900.716 0.96001 -1.80679 0
M  V30 8222 H 900.726 3.35024 -2.32859 0
M  V30 8223 H 899.401 2.62613 -3.22502 0
M  V30 8224 H 897.978 3.38736 -1.55924 0
M  V30 8225 N 900.163 1.21714 1.00117 0
M  V30 8226 C 901.411 1.03465 1.73607 0
M  V30 8227 C 901.732 -0.432295 1.90148 0
M  V30 8228 O 901.002 -1.31157 1.45515 0
M  V30 8229 H 899.582 0.379857 0.643209 0
M  V30 8230 H 902.244 1.53088 1.20624 0
M  V30 8231 H 901.34 1.50574 2.73375 0
M  V30 8232 N 901.641 -1.19671 1.02551 0
M  V30 8233 C 902.889 -1.88894 0.71858 0
M  V30 8234 C 903.21 -1.79797 -0.754856 0
M  V30 8235 O 902.48 -1.20621 -1.54362 0
M  V30 8236 H 901.06 -0.699244 0.262806 0
M  V30 8237 H 903.722 -1.45298 1.29902 0
M  V30 8238 H 902.818 -2.95309 1.00989 0
M  V30 8239 N 903.119 -0.802921 -1.35613 0
M  V30 8240 C 904.367 -0.380822 -1.9848 0
M  V30 8241 C 904.688 1.05464 -1.6402 0
M  V30 8242 O 903.958 1.72908 -0.920854 0
M  V30 8243 H 902.538 -0.137824 -0.734176 0
M  V30 8244 H 905.2 -1.02795 -1.65587 0
M  V30 8245 H 904.296 -0.483565 -3.08331 0
M  V30 8246 N 904.597 1.47463 -0.556102 0
M  V30 8247 C 905.827 2.06568 -0.0364056 0
M  V30 8248 C 906.235 1.40939 1.26225 0
M  V30 8249 O 905.578 0.499572 1.76777 0
M  V30 8250 C 905.64 3.58755 0.231278 0
M  V30 8251 C 905.304 4.46417 -0.977776 0
M  V30 8252 C 906.301 4.846 -1.88305 0
M  V30 8253 C 903.986 4.87948 -1.19214 0
M  V30 8254 C 905.98 5.63111 -2.98639 0
M  V30 8255 C 903.667 5.66224 -2.29857 0
M  V30 8256 C 904.665 6.03716 -3.194 0
M  V30 8257 O 904.353 6.80415 -4.28125 0
M  V30 8258 H 904.085 0.674675 -0.042305 0
M  V30 8259 H 906.639 1.9047 -0.768775 0
M  V30 8260 H 904.869 3.73061 1.01794 0
M  V30 8261 H 906.558 3.99884 0.696221 0
M  V30 8262 H 907.324 4.53115 -1.72949 0
M  V30 8263 H 903.203 4.58233 -0.504347 0
M  V30 8264 H 906.747 5.92293 -3.68557 0
M  V30 8265 H 902.644 5.97121 -2.45186 0
M  V30 8266 H 903.412 6.98807 -4.26159 0
M  V30 8267 N 906.075 0.2925 1.54862 0
M  V30 8268 C 907.323 -0.318633 1.99572 0
M  V30 8269 C 907.644 -1.55062 1.1824 0
M  V30 8270 O 906.914 -1.93943 0.276226 0
M  V30 8271 H 905.494 -0.120722 0.737181 0
M  V30 8272 H 908.156 0.401862 1.90712 0
M  V30 8273 H 907.252 -0.596542 3.06346 0
M  V30 8274 N 907.553 -1.57587 0.0200696 0
M  V30 8275 C 908.801 -1.91046 -0.65922 0
M  V30 8276 C 909.122 -0.896197 -1.73186 0
M  V30 8277 O 908.392 0.0635952 -1.95797 0
M  V30 8278 H 906.972 -0.705163 -0.246483 0
M  V30 8279 H 909.634 -1.94789 0.0657368 0
M  V30 8280 H 908.73 -2.91399 -1.11773 0
M  V30 8281 N 909.032 0.252966 -1.55557 0
M  V30 8282 C 910.28 0.979912 -1.76754 0
M  V30 8283 C 910.601 1.86083 -0.582944 0
M  V30 8284 O 909.871 1.91742 0.401497 0
M  V30 8285 H 908.451 0.364805 -0.651864 0
M  V30 8286 H 911.113 0.272372 -1.92987 0
M  V30 8287 H 910.209 1.60518 -2.67657 0
M  V30 8288 N 910.51 1.48831 0.518367 0
M  V30 8289 C 911.735 1.61379 1.30275 0
M  V30 8290 C 912.16 0.278571 1.86026 0
M  V30 8291 O 911.518 -0.751427 1.64995 0
M  V30 8292 C 911.566 2.67225 2.42122 0
M  V30 8293 O 910.67 2.25192 3.45489 0
M  V30 8294 H 910.011 0.540742 0.385349 0
M  V30 8295 H 912.541 1.949 0.622498 0
M  V30 8296 H 912.551 2.88859 2.8814 0
M  V30 8297 H 911.226 3.64155 2.00907 0
M  V30 8298 H 909.803 2.13819 3.05509 0
M  V30 8299 N 911.988 -0.768124 1.37614 0
M  V30 8300 C 913.236 -1.52379 1.3276 0
M  V30 8301 C 913.557 -1.94809 -0.0863564 0
M  V30 8302 O 912.827 -1.66568 -1.03112 0
M  V30 8303 H 911.407 -0.565179 0.488448 0
M  V30 8304 H 914.069 -0.913974 1.72141 0
M  V30 8305 H 913.165 -2.4215 1.96901 0
M  V30 8306 N 913.466 -1.22244 -0.994698 0
M  V30 8307 C 914.413 -0.990906 -2.08446 0
M  V30 8308 C 915.383 0.086737 -1.65873 0
M  V30 8309 O 916.568 -0.0624882 -1.90698 0
M  V30 8310 C 913.708 -0.572813 -3.40313 0
M  V30 8311 C 912.821 -1.72103 -3.96238 0
M  V30 8312 C 911.956 -1.2511 -5.16257 0
M  V30 8313 C 910.995 -2.37098 -5.64315 0
M  V30 8314 N 910.132 -1.91164 -6.75574 0
M  V30 8315 H 914.972 -1.92377 -2.27585 0
M  V30 8316 H 912.509 -0.958576 -1.11578 0
M  V30 8317 H 914.467 -0.311594 -4.16035 0
M  V30 8318 H 913.097 0.323044 -3.21179 0
M  V30 8319 H 912.149 -2.09662 -3.17405 0
M  V30 8320 H 913.461 -2.56347 -4.27888 0
M  V30 8321 H 912.615 -0.947152 -5.99261 0
M  V30 8322 H 911.354 -0.378836 -4.86226 0
M  V30 8323 H 910.359 -2.68283 -4.799 0
M  V30 8324 H 911.584 -3.24837 -5.96371 0
M  V30 8325 H 909.53 -1.06298 -6.47331 0
M  V30 8326 H 909.447 -2.68975 -7.06533 0
M  V30 8327 H 910.715 -1.63833 -7.62088 0
M  V30 8328 N 914.944 1.19125 -1.03184 0
M  V30 8329 C 916.169 1.93379 -0.749628 0
M  V30 8330 C 916.594 1.75153 0.685785 0
M  V30 8331 O 915.952 1.05579 1.47386 0
M  V30 8332 C 916 3.43101 -1.1097 0
M  V30 8333 O 915.104 4.11758 -0.230053 0
M  V30 8334 H 914.445 0.603605 -0.276689 0
M  V30 8335 H 916.975 1.51116 -1.37931 0
M  V30 8336 H 916.985 3.93778 -1.06785 0
M  V30 8337 H 915.66 3.55688 -2.15544 0
M  V30 8338 H 914.237 3.7143 -0.330748 0
M  V30 8339 N 916.422 0.810101 1.35185 0
M  V30 8340 C 917.647 0.40364 2.03434 0
M  V30 8341 C 918.072 -0.97857 1.60641 0
M  V30 8342 O 917.43 -1.63435 0.784779 0
M  V30 8343 C 917.478 0.499154 3.57129 0
M  V30 8344 O 916.582 -0.486039 4.09526 0
M  V30 8345 H 915.923 0.168049 0.642383 0
M  V30 8346 H 918.453 1.09696 1.72708 0
M  V30 8347 H 918.463 0.370236 4.06317 0
M  V30 8348 H 917.138 1.50733 3.87624 0
M  V30 8349 H 915.715 -0.31707 3.7155 0
M  V30 8350 N 917.9 -1.47166 0.563914 0
M  V30 8351 C 918.85 -2.27116 -0.20055 0
M  V30 8352 C 919.834 -1.34756 -0.879177 0
M  V30 8353 O 921.026 -1.59064 -0.776377 0
M  V30 8354 C 918.155 -3.20676 -1.22565 0
M  V30 8355 C 917.241 -4.20517 -0.550092 0
M  V30 8356 N 917.632 -5.04343 0.383662 0
M  V30 8357 C 915.93 -4.38708 -0.803186 0
M  V30 8358 C 916.631 -5.76491 0.776718 0
M  V30 8359 N 915.607 -5.43444 0.130047 0
M  V30 8360 H 919.409 -2.89312 0.517275 0
M  V30 8361 H 916.923 -1.57787 0.384334 0
M  V30 8362 H 918.92 -3.76643 -1.78733 0
M  V30 8363 H 917.58 -2.60038 -1.94449 0
M  V30 8364 H 918.591 -5.1232 0.758192 0
M  V30 8365 H 915.268 -3.89235 -1.51003 0
M  V30 8366 H 916.658 -6.5391 1.54437 0
M  V30 8367 N 919.378 -0.300708 -1.54705 0
M  V30 8368 C 920.603 0.314073 -2.05008 0
M  V30 8369 C 921.028 1.46759 -1.17657 0
M  V30 8370 O 920.386 1.80398 -0.180598 0
M  V30 8371 C 920.434 0.748243 -3.52752 0
M  V30 8372 O 919.538 1.85305 -3.68424 0
M  V30 8373 H 918.879 0.0610139 -0.661191 0
M  V30 8374 H 921.409 -0.442467 -1.99758 0
M  V30 8375 H 921.419 1.03713 -3.94598 0
M  V30 8376 H 920.094 -0.095573 -4.1579 0
M  V30 8377 H 918.671 1.56473 -3.38483 0
M  V30 8378 O 920.895 1.60631 -0.167301 0
M  V30 8379 H 921.586 1.89022 0.42313 0
M  V30 END ATOM
M  V30 BEGIN BOND
M  V30 END BOND
M  V30 END CTAB
M  END
$$$$
