drugbank_target|P35520 Cystathionine beta-synthase (DB00114; DB00118; DB00133; DB00151)
 OpenBabel12092119293D

  0  0  0     0  0            999 V3000
M  V30 BEGIN CTAB
M  V30 COUNTS 8545 8629 0 0 0
M  V30 BEGIN ATOM
M  V30 1 H -0.908 1.98254 -0.117106 0
M  V30 2 N 0 1.576 0 0
M  V30 3 C 0.933 2.03868 1.02534 0
M  V30 4 C 1.911 0.928543 1.3348 0
M  V30 5 O 3.095 1.19667 1.45644 0
M  V30 6 C 0.222 2.43627 2.35294 0
M  V30 7 C -0.732 3.65373 2.2001 0
M  V30 8 S 0.101 5.13292 1.52614 0
M  V30 9 C 1.257 5.56322 2.86805 0
M  V30 10 H 1.49 2.90518 0.631377 0
M  V30 11 H -0.977 1.52953 0.210867 0
M  V30 12 H 0.981 2.67203 3.11629 0
M  V30 13 H -0.358 1.57376 2.7183 0
M  V30 14 H -1.165 3.90944 3.18086 0
M  V30 15 H -1.563 3.418 1.51819 0
M  V30 16 H 0.729 5.58782 3.83104 0
M  V30 17 H 1.672 6.56266 2.65933 0
M  V30 18 H 2.08 4.83886 2.90714 0
M  V30 19 N 1.4781 -0.272755 1.55222 0
M  V30 20 C 2.8891 -0.84378 1.66545 0
M  V30 21 C 3.2401 -1.87035 0.592641 0
M  V30 22 O 2.3651 -2.14761 -0.265818 0
M  V30 23 C 2.9601 -1.53723 3.01918 0
M  V30 24 C 1.5191 -2.05628 3.15268 0
M  V30 25 C 0.6661 -0.898424 2.62343 0
M  V30 26 H 3.6171 -0.0490998 1.58624 0
M  V30 27 H 3.6381 -2.40421 2.94921 0
M  V30 28 H 3.1501 -0.78983 3.79978 0
M  V30 29 H 1.2511 -2.83329 2.41983 0
M  V30 30 H 1.3641 -2.27142 4.21833 0
M  V30 31 H -0.2719 -1.29186 2.19506 0
M  V30 32 H 0.5111 -0.164528 3.42906 0
M  V30 33 N 2.9562 -1.48159 -0.537278 0
M  V30 34 C 4.1812 -1.59707 -1.32319 0
M  V30 35 C 4.6062 -0.254859 -1.86365 0
M  V30 36 O 3.9642 0.772378 -1.64024 0
M  V30 37 C 4.0122 -2.6412 -2.45505 0
M  V30 38 O 3.1162 -2.20774 -3.48328 0
M  V30 39 H 2.4572 -0.535791 -0.392204 0
M  V30 40 H 4.9872 -1.94092 -0.647268 0
M  V30 41 H 4.9972 -2.85166 -2.91795 0
M  V30 42 H 3.6722 -3.61567 -2.05528 0
M  V30 43 H 2.2492 -2.09911 -3.08207 0
M  V30 44 N 4.4343 0.785586 -1.36625 0
M  V30 45 C 5.3443 1.92964 -1.33425 0
M  V30 46 C 6.3603 1.72394 -0.235851 0
M  V30 47 O 7.5363 1.95866 -0.468878 0
M  V30 48 C 4.6013 3.27884 -1.12662 0
M  V30 49 C 3.6623 3.61204 -2.32013 0
M  V30 50 C 2.8953 4.89687 -2.12231 0
M  V30 51 O 3.1183 5.59704 -1.09945 0
M  V30 52 O 2.0523 5.21752 -3.00098 0
M  V30 53 H 5.8783 1.98613 -2.29753 0
M  V30 54 H 3.4633 0.926384 -1.17211 0
M  V30 55 H 5.3453 4.08614 -1.03016 0
M  V30 56 H 4.0203 3.23118 -0.193991 0
M  V30 57 H 2.9273 2.80765 -2.47228 0
M  V30 58 H 4.2603 3.70698 -3.23796 0
M  V30 59 N 5.9124 1.20967 1.01018 0
M  V30 60 C 7.1404 1.04956 1.78303 0
M  V30 61 C 7.5554 -0.400915 1.84494 0
M  V30 62 O 6.9124 -1.27826 1.30257 0
M  V30 63 C 6.9634 1.63403 3.22462 0
M  V30 64 O 6.6844 3.02775 3.16637 0
M  V30 65 C 8.1854 1.52432 4.16268 0
M  V30 66 H 5.4054 0.368858 0.560522 0
M  V30 67 H 7.9494 1.60193 1.27116 0
M  V30 68 H 6.1044 1.1227 3.70775 0
M  V30 69 H 6.5184 3.30626 4.07169 0
M  V30 70 H 7.9924 1.98078 5.15237 0
M  V30 71 H 8.4694 0.477875 4.36592 0
M  V30 72 H 9.0754 2.02787 3.73841 0
M  V30 73 N 7.3905 -1.2043 1.01659 0
M  V30 74 C 8.8015 -1.71517 0.737482 0
M  V30 75 C 9.1525 -1.81547 -0.743973 0
M  V30 76 O 8.2775 -1.47803 -1.58061 0
M  V30 77 C 8.8725 -3.11515 1.33206 0
M  V30 78 C 7.4315 -3.59912 1.10183 0
M  V30 79 C 6.5785 -2.37116 1.43776 0
M  V30 80 H 9.5295 -1.05444 1.18606 0
M  V30 81 H 9.5505 -3.73575 0.722636 0
M  V30 82 H 9.0625 -3.04182 2.41028 0
M  V30 83 H 7.1635 -3.72577 0.0412756 0
M  V30 84 H 7.2765 -4.44731 1.78188 0
M  V30 85 H 5.6405 -2.39857 0.856778 0
M  V30 86 H 6.4235 -2.32424 2.52654 0
M  V30 87 N 8.8686 -0.792821 -1.36206 0
M  V30 88 C 9.8006 -0.151469 -2.28699 0
M  V30 89 C 10.8136 0.641262 -1.49638 0
M  V30 90 O 12.0026 0.475885 -1.72039 0
M  V30 91 C 9.1026 0.808424 -3.29117 0
M  V30 92 C 8.2756 0.0650202 -4.37352 0
M  V30 93 C 7.3346 0.941358 -5.17711 0
M  V30 94 O 6.3606 0.397352 -5.67811 0
M  V30 95 N 7.5626 2.2652 -5.3448 0
M  V30 96 H 10.3276 -0.945982 -2.84379 0
M  V30 97 H 7.8886 -0.647032 -1.48409 0
M  V30 98 H 9.8806 1.3986 -3.79765 0
M  V30 99 H 8.4506 1.5038 -2.74052 0
M  V30 100 H 7.6706 -0.706255 -3.87822 0
M  V30 101 H 8.9586 -0.447847 -5.06825 0
M  V30 102 H 8.3566 2.73128 -4.95396 0
M  V30 103 H 6.9136 2.80493 -5.88359 0
M  V30 104 N 10.3467 1.47872 -0.545128 0
M  V30 105 C 11.3097 2.28337 0.198717 0
M  V30 106 C 12.3097 1.36255 0.853888 0
M  V30 107 O 13.4997 1.59003 0.711606 0
M  V30 108 C 10.6317 3.15585 1.28915 0
M  V30 109 H 11.8247 2.95567 -0.507941 0
M  V30 110 H 9.3777 1.53362 -0.301616 0
M  V30 111 H 10.1127 2.53019 2.02859 0
M  V30 112 H 9.8977 3.83337 0.824309 0
M  V30 113 H 11.3877 3.76243 1.81194 0
M  V30 114 N 11.8248 0.280983 1.55075 0
M  V30 115 C 12.7348 -0.61388 2.26426 0
M  V30 116 C 13.7508 -1.16521 1.29224 0
M  V30 117 O 14.9268 -1.19426 1.62171 0
M  V30 118 C 11.9918 -1.7788 2.9759 0
M  V30 119 C 11.0528 -1.26355 4.10284 0
M  V30 120 C 10.2858 -2.37295 4.78045 0
M  V30 121 O 10.5088 -3.56777 4.45047 0
M  V30 122 O 9.4428 -2.05119 5.65871 0
M  V30 123 H 13.2688 -0.0356932 3.03679 0
M  V30 124 H 10.8538 0.0481686 1.49322 0
M  V30 125 H 12.7358 -2.45791 3.42293 0
M  V30 126 H 11.4108 -2.34397 2.23249 0
M  V30 127 H 10.3178 -0.550735 3.70024 0
M  V30 128 H 11.6508 -0.744065 4.86543 0
M  V30 129 N 13.3029 -1.57598 0.00835791 0
M  V30 130 C 14.5489 -1.91211 -0.675732 0
M  V30 131 C 14.8819 -0.883139 -1.72958 0
M  V30 132 O 14.1569 0.097016 -1.94258 0
M  V30 133 C 14.4399 -3.35379 -1.31123 0
M  V30 134 C 14.2929 -4.48999 -0.268356 0
M  V30 135 C 15.6119 -3.7912 -2.23508 0
M  V30 136 H 12.7309 -0.695374 -0.244179 0
M  V30 137 H 15.3729 -1.89901 0.0613655 0
M  V30 138 H 13.5229 -3.36626 -1.93946 0
M  V30 139 H 15.1949 -4.59887 0.360844 0
M  V30 140 H 13.4379 -4.31873 0.408482 0
M  V30 141 H 14.1089 -5.46851 -0.752218 0
M  V30 142 H 16.5849 -3.79477 -1.70693 0
M  V30 143 H 15.4609 -4.80729 -2.64936 0
M  V30 144 H 15.7219 -3.13455 -3.11766 0
M  V30 145 N 14.781 0.264519 -1.55364 0
M  V30 146 C 16.029 0.993021 -1.76021 0
M  V30 147 C 16.35 1.86511 -0.569099 0
M  V30 148 O 15.62 1.91438 0.415735 0
M  V30 149 H 14.2 0.369639 -0.649135 0
M  V30 150 H 16.862 0.286707 -1.9278 0
M  V30 151 H 15.958 1.62502 -2.66457 0
M  V30 152 N 16.2591 1.48442 0.529413 0
M  V30 153 C 17.6701 1.5002 1.11134 0
M  V30 154 C 18.0211 0.27031 1.94329 0
M  V30 155 O 17.1461 -0.622507 2.07253 0
M  V30 156 C 17.7411 2.71834 2.02217 0
M  V30 157 C 16.3001 2.76283 2.55627 0
M  V30 158 C 15.4471 2.43542 1.326 0
M  V30 159 H 18.3981 1.5555 0.314641 0
M  V30 160 H 18.4191 2.50384 2.8651 0
M  V30 161 H 17.9311 3.61331 1.41639 0
M  V30 162 H 16.0321 1.90995 3.19924 0
M  V30 163 H 16.1451 3.77725 2.94721 0
M  V30 164 H 14.5091 1.94709 1.64196 0
M  V30 165 H 15.2921 3.3528 0.737734 0
M  V30 166 N 17.7372 -0.778329 1.37039 0
M  V30 167 C 18.9652 -1.56734 1.35063 0
M  V30 168 C 19.3802 -1.88686 -0.0655597 0
M  V30 169 O 18.7372 -1.5096 -1.02554 0
M  V30 170 C 18.7882 -2.88163 2.18276 0
M  V30 171 O 18.5092 -2.57583 3.54376 0
M  V30 172 C 20.0102 -3.82422 2.24206 0
M  V30 173 H 17.2302 -0.485778 0.462883 0
M  V30 174 H 19.7742 -0.965185 1.8029 0
M  V30 175 H 17.9292 -3.44818 1.76576 0
M  V30 176 H 18.3432 -3.41699 3.97922 0
M  V30 177 H 19.8172 -4.71667 2.86765 0
M  V30 178 H 20.2942 -4.21078 1.24861 0
M  V30 179 H 20.9002 -3.31697 2.6619 0
M  V30 180 N 19.2153 -1.21501 -1.00376 0
M  V30 181 C 20.4633 -1.03095 -1.73827 0
M  V30 182 C 20.7843 0.436341 -1.90055 0
M  V30 183 O 20.0543 1.31466 -1.45236 0
M  V30 184 H 18.6343 -0.378487 -0.644016 0
M  V30 185 H 21.2963 -1.52831 -1.20949 0
M  V30 186 H 20.3923 -1.49991 -2.73695 0
M  V30 187 N 20.6934 1.19889 -1.02296 0
M  V30 188 C 21.9334 1.91125 -0.724602 0
M  V30 189 C 22.2974 1.77464 0.732835 0
M  V30 190 O 23.4984 2.43241 1.144 0
M  V30 191 C 21.7694 3.38187 -1.15604 0
M  V30 192 S 23.3284 4.27702 -0.980621 0
M  V30 193 H 20.1464 0.66018 -0.263976 0
M  V30 194 H 22.7484 1.44978 -1.31155 0
M  V30 195 H 21.4524 3.45653 -2.21251 0
M  V30 196 H 20.9834 3.89363 -0.562131 0
M  V30 197 H 22.9984 4.96073 0.112225 0
M  V30 198 N 22.1715 0.800033 1.35784 0
M  V30 199 C 23.5825 0.439142 1.81462 0
M  V30 200 C 23.9335 -1.03813 1.66485 0
M  V30 201 O 23.0585 -1.80626 1.19177 0
M  V30 202 C 23.6535 0.790314 3.29453 0
M  V30 203 C 22.2125 0.482111 3.733 0
M  V30 204 C 21.3595 1.01938 2.57883 0
M  V30 205 H 24.3105 0.992254 1.23855 0
M  V30 206 H 24.3315 0.0853677 3.80404 0
M  V30 207 H 23.8435 1.86554 3.40322 0
M  V30 208 H 21.9445 -0.584652 3.67984 0
M  V30 209 H 22.0575 1.01015 4.6833 0
M  V30 210 H 20.4215 0.442043 2.50835 0
M  V30 211 H 21.2045 2.10059 2.71533 0
M  V30 212 N 23.6496 -1.47581 0.552962 0
M  V30 213 C 24.5996 -2.26961 -0.217423 0
M  V30 214 C 25.5836 -1.34099 -0.889168 0
M  V30 215 O 26.7756 -1.58483 -0.788176 0
M  V30 216 C 23.9046 -3.19756 -1.24944 0
M  V30 217 C 22.9906 -4.20097 -0.581327 0
M  V30 218 N 23.3816 -5.04614 0.346171 0
M  V30 219 C 21.6796 -4.38099 -0.835767 0
M  V30 220 C 22.3806 -5.77052 0.733854 0
M  V30 221 N 21.3566 -5.43526 0.0896567 0
M  V30 222 H 25.1586 -2.89688 0.495761 0
M  V30 223 H 22.6726 -1.58068 0.372597 0
M  V30 224 H 24.6696 -3.75305 -1.81527 0
M  V30 225 H 23.3296 -2.58585 -1.96376 0
M  V30 226 H 24.3406 -5.12869 0.720098 0
M  V30 227 H 21.0176 -3.88102 -1.53892 0
M  V30 228 H 22.4076 -6.5504 1.49574 0
M  V30 229 N 25.1277 -0.289203 -1.54924 0
M  V30 230 C 26.5437 0.0645403 -1.59469 0
M  V30 231 C 26.7437 1.53419 -1.30632 0
M  V30 232 O 25.7997 2.2852 -1.074 0
M  V30 233 C 27.1127 -0.32278 -2.98963 0
M  V30 234 C 28.6607 -0.270564 -3.11828 0
M  V30 235 C 29.1357 -0.632532 -4.53611 0
M  V30 236 N 30.6267 -0.584617 -4.59496 0
M  V30 237 C 31.3617 -0.837314 -5.67254 0
M  V30 238 N 30.8577 -1.15536 -6.83098 0
M  V30 239 N 32.6507 -0.765166 -5.56868 0
M  V30 240 H 24.8017 -1.24714 -1.71931 0
M  V30 241 H 27.0647 -0.504809 -0.802416 0
M  V30 242 H 26.7707 -1.34541 -3.24948 0
M  V30 243 H 26.6447 0.32944 -3.75759 0
M  V30 244 H 29.0317 0.742805 -2.85598 0
M  V30 245 H 29.1127 -0.957242 -2.37214 0
M  V30 246 H 28.7567 -1.64365 -4.80569 0
M  V30 247 H 28.6867 0.07609 -5.26545 0
M  V30 248 H 31.1777 -0.349248 -3.76283 0
M  V30 249 H 31.4907 -1.33447 -7.61191 0
M  V30 250 H 29.8357 -1.19328 -6.84679 0
M  V30 251 H 33.0267 -0.516432 -4.65243 0
M  V30 252 H 33.1997 -0.965477 -6.40767 0
M  V30 253 N 26.6058 1.57591 -0.0167156 0
M  V30 254 C 27.8308 1.9598 0.67872 0
M  V30 255 C 28.2558 0.892546 1.65575 0
M  V30 256 O 27.6138 -0.147772 1.80697 0
M  V30 257 C 27.6618 3.33468 1.37227 0
M  V30 258 O 26.7658 3.28954 2.48722 0
M  V30 259 H 26.1068 0.639339 0.17928 0
M  V30 260 H 28.6368 2.04463 -0.0748802 0
M  V30 261 H 28.6468 3.69417 1.7319 0
M  V30 262 H 27.3218 4.10694 0.656007 0
M  V30 263 H 25.8988 3.04705 2.14963 0
M  V30 264 N 28.0839 -0.256276 1.55502 0
M  V30 265 C 29.3319 -0.983672 1.76545 0
M  V30 266 C 29.6529 -1.86206 0.578982 0
M  V30 267 O 28.9229 -1.91656 -0.405577 0
M  V30 268 H 27.5029 -0.366191 0.651086 0
M  V30 269 H 30.1649 -0.276479 1.92929 0
M  V30 270 H 29.2609 -1.61087 2.67315 0
M  V30 271 N 29.562 -1.4872 -0.521534 0
M  V30 272 C 30.973 -1.50607 -1.10337 0
M  V30 273 C 31.324 -0.280612 -1.94183 0
M  V30 274 O 30.449 0.611507 -2.0758 0
M  V30 275 C 31.044 -2.72903 -2.00772 0
M  V30 276 C 29.603 -2.77634 -2.54158 0
M  V30 277 C 28.75 -2.44241 -1.31307 0
M  V30 278 H 31.701 -1.55714 -0.306388 0
M  V30 279 H 31.722 -2.519 -2.85178 0
M  V30 280 H 31.234 -3.62077 -1.39721 0
M  V30 281 H 29.335 -1.92689 -3.18907 0
M  V30 282 H 29.448 -3.79283 -2.92714 0
M  V30 283 H 27.812 -1.95577 -1.63161 0
M  V30 284 H 28.595 -3.35666 -0.719943 0
M  V30 285 N 31.0401 0.771051 -1.3745 0
M  V30 286 C 31.9901 1.87456 -1.29785 0
M  V30 287 C 32.9741 1.59827 -0.185541 0
M  V30 288 O 34.1661 1.71945 -0.419997 0
M  V30 289 C 31.2951 3.24935 -1.1078 0
M  V30 290 C 30.3811 3.58514 -2.26558 0
M  V30 291 N 30.7721 3.6327 -3.5195 0
M  V30 292 C 29.0701 3.88683 -2.18727 0
M  V30 293 C 29.7711 3.93616 -4.283 0
M  V30 294 N 28.7471 4.09551 -3.57448 0
M  V30 295 H 32.5491 1.89386 -2.24745 0
M  V30 296 H 30.0631 0.967531 -1.30432 0
M  V30 297 H 32.0601 4.03881 -1.03374 0
M  V30 298 H 30.7201 3.24268 -0.16738 0
M  V30 299 H 31.7311 3.45458 -3.85848 0
M  V30 300 H 28.4081 3.95834 -1.32746 0
M  V30 301 H 29.7981 4.04066 -5.36824 0
M  V30 302 N 32.5182 1.22032 0.997298 0
M  V30 303 C 33.7432 1.06921 1.77715 0
M  V30 304 C 34.1682 -0.376226 1.84299 0
M  V30 305 O 33.5262 -1.27165 1.29223 0
M  V30 306 C 33.5742 1.67996 3.19076 0
M  V30 307 O 32.6782 0.930653 4.01762 0
M  V30 308 H 32.0192 0.375814 0.547412 0
M  V30 309 H 34.5492 1.61737 1.25309 0
M  V30 310 H 34.5592 1.72538 3.69723 0
M  V30 311 H 33.2342 2.73182 3.13599 0
M  V30 312 H 31.8112 0.960917 3.60307 0
M  V30 313 N 33.9963 -1.19345 1.0293 0
M  V30 314 C 34.9593 -2.20793 0.615069 0
M  V30 315 C 35.9593 -1.57553 -0.321533 0
M  V30 316 O 37.1493 -1.73862 -0.108483 0
M  V30 317 C 34.2813 -3.40754 -0.0999222 0
M  V30 318 H 35.4743 -2.58955 1.51269 0
M  V30 319 H 33.0273 -1.3303 0.820534 0
M  V30 320 H 33.7623 -3.0811 -1.01187 0
M  V30 321 H 33.5473 -3.87889 0.57309 0
M  V30 322 H 35.0373 -4.15898 -0.376645 0
M  V30 323 N 35.4744 -0.807222 -1.35358 0
M  V30 324 C 36.4214 -0.216037 -2.29787 0
M  V30 325 C 37.3914 0.650278 -1.52842 0
M  V30 326 O 38.5764 0.595227 -1.81278 0
M  V30 327 C 35.7164 0.628893 -3.39321 0
M  V30 328 C 34.8294 -0.257927 -4.31229 0
M  V30 329 C 33.9644 0.595069 -5.27856 0
M  V30 330 C 33.0034 -0.292111 -6.11403 0
M  V30 331 N 32.1404 0.520895 -7.00165 0
M  V30 332 H 36.9804 -1.02671 -2.79755 0
M  V30 333 H 34.5174 -0.517839 -1.37684 0
M  V30 334 H 36.4754 1.13393 -4.01494 0
M  V30 335 H 35.1054 1.40482 -2.90628 0
M  V30 336 H 34.1574 -0.881076 -3.70056 0
M  V30 337 H 35.4694 -0.940759 -4.89848 0
M  V30 338 H 34.6234 1.16522 -5.95405 0
M  V30 339 H 33.3624 1.31146 -4.69736 0
M  V30 340 H 32.3674 -0.874525 -5.428 0
M  V30 341 H 33.5924 -1.00638 -6.71602 0
M  V30 342 H 31.5384 1.22125 -6.44532 0
M  V30 343 H 31.4554 -0.103877 -7.55929 0
M  V30 344 H 32.7234 1.0743 -7.72062 0
M  V30 345 N 36.9525 1.47285 -0.560781 0
M  V30 346 C 38.2005 2.02064 -0.0379868 0
M  V30 347 C 38.5215 1.43711 1.31803 0
M  V30 348 O 37.7915 0.61362 1.86042 0
M  V30 349 H 36.3715 0.746918 -0.0110531 0
M  V30 350 H 39.0335 1.80648 -0.731598 0
M  V30 351 H 38.1295 3.12064 0.0474463 0
M  V30 352 N 38.4306 0.297415 1.54768 0
M  V30 353 C 39.6556 -0.318435 2.04941 0
M  V30 354 C 40.0806 -1.4701 1.17345 0
M  V30 355 O 39.4386 -1.80436 0.176758 0
M  V30 356 C 39.4866 -0.755749 3.52592 0
M  V30 357 O 38.5906 -1.86088 3.68028 0
M  V30 358 H 37.9316 -0.062421 0.661059 0
M  V30 359 H 40.4616 0.438215 1.99852 0
M  V30 360 H 40.4716 -1.04552 3.94376 0
M  V30 361 H 39.1466 0.0867233 4.1581 0
M  V30 362 H 37.7236 -1.57193 3.38149 0
M  V30 363 N 39.9087 -1.5758 0.0250728 0
M  V30 364 C 40.8387 -2.13007 -0.956575 0
M  V30 365 C 41.8197 -1.0452 -1.342 0
M  V30 366 O 43.0047 -1.32332 -1.42133 0
M  V30 367 C 40.1347 -2.65386 -2.24026 0
M  V30 368 C 39.0887 -3.78623 -1.99571 0
M  V30 369 C 38.4147 -4.17414 -3.3417 0
M  V30 370 C 39.7147 -5.04867 -1.33814 0
M  V30 371 H 41.4087 -2.9528 -0.494991 0
M  V30 372 H 38.9547 -1.42042 -0.236651 0
M  V30 373 H 40.9077 -3.02794 -2.93076 0
M  V30 374 H 39.6317 -1.80268 -2.72343 0
M  V30 375 H 38.2907 -3.41646 -1.32941 0
M  V30 376 H 37.9387 -3.29284 -3.80238 0
M  V30 377 H 37.6387 -4.93719 -3.18615 0
M  V30 378 H 39.1627 -4.57402 -4.04495 0
M  V30 379 H 40.5767 -5.39888 -1.92857 0
M  V30 380 H 38.9737 -5.86144 -1.28669 0
M  V30 381 H 40.0437 -4.83904 -0.310561 0
M  V30 382 N 41.3868 0.248026 -1.55636 0
M  V30 383 C 42.2968 1.32859 -1.93354 0
M  V30 384 C 43.3128 1.52719 -0.833838 0
M  V30 385 O 44.4888 1.66363 -1.13513 0
M  V30 386 C 41.5538 2.66337 -2.21958 0
M  V30 387 C 40.6148 2.55008 -3.45354 0
M  V30 388 C 39.8478 3.82121 -3.72584 0
M  V30 389 O 40.0708 4.83951 -3.01907 0
M  V30 390 O 39.0048 3.80822 -4.6611 0
M  V30 391 H 42.8308 1.03862 -2.85388 0
M  V30 392 H 40.4158 0.448686 -1.42503 0
M  V30 393 H 42.2978 3.45216 -2.4167 0
M  V30 394 H 40.9728 2.95068 -1.33103 0
M  V30 395 H 39.8798 1.7442 -3.30951 0
M  V30 396 H 41.2128 2.31222 -4.34508 0
M  V30 397 N 42.8649 1.48995 0.513639 0
M  V30 398 C 43.8119 1.6473 1.61656 0
M  V30 399 C 44.7819 0.488984 1.58739 0
M  V30 400 O 45.9669 0.714478 1.76918 0
M  V30 401 C 43.1069 1.7082 2.99858 0
M  V30 402 C 42.2199 2.9787 3.12885 0
M  V30 403 C 41.3549 2.95017 4.41744 0
M  V30 404 C 40.3939 4.16702 4.48359 0
M  V30 405 N 39.5309 4.11832 5.68629 0
M  V30 406 H 44.3709 2.58909 1.47547 0
M  V30 407 H 41.9079 1.28382 0.71808 0
M  V30 408 H 43.8659 1.72331 3.79944 0
M  V30 409 H 42.4959 0.801181 3.12699 0
M  V30 410 H 41.5479 3.06029 2.25944 0
M  V30 411 H 42.8599 3.8786 3.13633 0
M  V30 412 H 42.0139 2.95021 5.30139 0
M  V30 413 H 40.7529 2.02784 4.43542 0
M  V30 414 H 39.7579 4.16955 3.58369 0
M  V30 415 H 40.9829 5.10113 4.48287 0
M  V30 416 H 38.9289 3.22428 5.71293 0
M  V30 417 H 38.8459 4.95543 5.7094 0
M  V30 418 H 40.1139 4.1592 6.59266 0
M  V30 419 N 44.343 -0.763751 1.37857 0
M  V30 420 C 45.591 -1.51957 1.33243 0
M  V30 421 C 45.912 -1.94835 -0.0801709 0
M  V30 422 O 45.182 -1.66894 -1.02582 0
M  V30 423 H 43.762 -0.563626 0.49024 0
M  V30 424 H 46.424 -0.908504 1.7243 0
M  V30 425 H 45.52 -2.41523 1.97669 0
M  V30 426 N 45.8211 -1.22559 -0.990812 0
M  V30 427 C 47.0461 -1.07862 -1.77145 0
M  V30 428 C 47.4711 0.366447 -1.84496 0
M  V30 429 O 46.8291 1.26478 -1.29896 0
M  V30 430 C 46.8771 -1.69686 -3.18181 0
M  V30 431 O 45.9811 -0.951946 -4.01263 0
M  V30 432 H 45.3221 -0.378712 -0.545411 0
M  V30 433 H 47.8521 -1.62399 -1.2445 0
M  V30 434 H 47.8621 -1.74496 -3.68802 0
M  V30 435 H 46.5371 -2.74841 -3.12146 0
M  V30 436 H 45.1141 -0.980011 -3.59792 0
M  V30 437 N 47.2992 1.18797 -1.03562 0
M  V30 438 C 48.7102 1.70322 -0.764676 0
M  V30 439 C 49.0612 1.82708 0.714996 0
M  V30 440 O 48.1862 1.50299 1.55689 0
M  V30 441 C 48.7812 3.09356 -1.38145 0
M  V30 442 C 47.3402 3.58114 -1.15895 0
M  V30 443 C 46.4872 2.34798 -1.4753 0
M  V30 444 H 49.4382 1.03543 -1.20268 0
M  V30 445 H 49.4592 3.72378 -0.781977 0
M  V30 446 H 48.9712 3.00309 -2.45837 0
M  V30 447 H 47.0722 3.72464 -0.100544 0
M  V30 448 H 47.1852 4.4184 -1.8524 0
M  V30 449 H 45.5492 2.38464 -0.894829 0
M  V30 450 H 46.3322 2.28375 -2.56319 0
M  V30 451 N 48.7773 0.814389 1.34928 0
M  V30 452 C 49.6873 0.231978 2.3345 0
M  V30 453 C 50.7033 -0.629139 1.62228 0
M  V30 454 O 51.8793 -0.539052 1.94052 0
M  V30 455 C 48.9443 -0.603482 3.41407 0
M  V30 456 C 48.0053 0.279037 4.28392 0
M  V30 457 C 47.2383 -0.516643 5.31193 0
M  V30 458 O 47.4613 -1.75068 5.4287 0
M  V30 459 O 46.3953 0.0965652 6.01823 0
M  V30 460 H 50.2213 1.04721 2.85074 0
M  V30 461 H 47.8063 0.576343 1.37836 0
M  V30 462 H 49.6883 -1.07908 4.0735 0
M  V30 463 H 48.3633 -1.39618 2.92042 0
M  V30 464 H 47.2703 0.801948 3.65403 0
M  V30 465 H 48.6033 1.03588 4.81176 0
M  V30 466 N 50.2554 -1.46986 0.568584 0
M  V30 467 C 51.5324 -1.95592 -0.0174074 0
M  V30 468 C 51.9124 -1.51124 -1.47393 0
M  V30 469 O 51.2604 -0.755329 -2.15655 0
M  V30 470 C 51.4704 -3.48719 0.139913 0
M  V30 471 C 52.8184 -4.246 0.000426376 0
M  V30 472 O 53.8424 -3.56135 0.0680316 0
M  V30 473 O 52.7014 -5.46302 -0.146988 0
M  V30 474 H 49.7954 -0.82498 -0.0577599 0
M  V30 475 H 52.3414 -1.57335 0.635909 0
M  V30 476 H 51.1134 -3.73927 1.15301 0
M  V30 477 H 50.7364 -3.93771 -0.550491 0
M  V30 478 N 51.7335 -0.305618 -1.54608 0
M  V30 479 C 52.6805 0.568421 -2.23691 0
M  V30 480 C 53.6505 1.12592 -1.22116 0
M  V30 481 O 54.8355 1.16959 -1.50749 0
M  V30 482 C 51.9755 1.7322 -2.98477 0
M  V30 483 C 51.0885 1.20566 -4.14835 0
M  V30 484 C 50.2235 2.33368 -4.77193 0
M  V30 485 C 49.2625 1.7787 -5.85686 0
M  V30 486 N 48.3995 2.84263 -6.4198 0
M  V30 487 H 53.2395 -0.0272867 -2.97988 0
M  V30 488 H 50.7765 -0.0252363 -1.47078 0
M  V30 489 H 52.7345 2.41675 -3.40072 0
M  V30 490 H 51.3645 2.29947 -2.26548 0
M  V30 491 H 50.4165 0.413223 -3.78149 0
M  V30 492 H 51.7285 0.759417 -4.92985 0
M  V30 493 H 50.8825 3.09761 -5.21664 0
M  V30 494 H 49.6215 2.8132 -3.98385 0
M  V30 495 H 48.6265 0.99968 -5.40635 0
M  V30 496 H 49.8515 1.30816 -6.66381 0
M  V30 497 H 47.7975 3.31541 -5.66053 0
M  V30 498 H 47.7145 2.44149 -7.15491 0
M  V30 499 H 48.9825 3.6054 -6.91109 0
M  V30 500 N 53.2116 1.57565 -0.0334293 0
M  V30 501 C 54.1216 2.13943 0.962572 0
M  V30 502 C 55.1376 1.09276 1.35406 0
M  V30 503 O 56.3136 1.41355 1.4346 0
M  V30 504 C 53.3786 2.65887 2.22497 0
M  V30 505 C 52.4396 3.85286 1.8935 0
M  V30 506 C 51.6726 4.34743 3.09571 0
M  V30 507 O 51.8956 3.83352 4.22371 0
M  V30 508 O 50.8296 5.26538 2.91618 0
M  V30 509 H 54.6556 2.99333 0.513169 0
M  V30 510 H 52.2406 1.4822 0.18743 0
M  V30 511 H 54.1226 2.99346 2.96598 0
M  V30 512 H 52.7976 1.83578 2.6661 0
M  V30 513 H 51.7046 3.56746 1.1262 0
M  V30 514 H 53.0376 4.68771 1.5005 0
M  V30 515 N 54.6897 -0.239769 1.55765 0
M  V30 516 C 55.6527 -1.28038 1.90103 0
M  V30 517 C 56.6527 -1.40723 0.778055 0
M  V30 518 O 57.8427 -1.39301 1.04599 0
M  V30 519 C 54.9747 -2.65702 2.13577 0
M  V30 520 H 56.1677 -0.988048 2.83157 0
M  V30 521 H 53.7207 -0.479382 1.48767 0
M  V30 522 H 54.4557 -3.00063 1.23015 0
M  V30 523 H 54.2407 -2.57875 2.95369 0
M  V30 524 H 55.7307 -3.40828 2.41301 0
M  V30 525 N 56.1678 -1.49265 -0.50573 0
M  V30 526 C 57.1148 -1.65585 -1.6078 0
M  V30 527 C 58.0848 -0.497396 -1.58478 0
M  V30 528 O 59.2698 -0.72385 -1.76536 0
M  V30 529 C 56.4098 -1.72408 -2.98948 0
M  V30 530 C 55.5228 -2.99525 -3.11301 0
M  V30 531 C 54.6578 -2.97356 -4.40174 0
M  V30 532 C 53.6968 -4.19074 -4.46143 0
M  V30 533 N 52.8338 -4.14841 -5.66437 0
M  V30 534 H 57.6738 -2.59688 -1.46172 0
M  V30 535 H 55.2108 -1.28761 -0.711261 0
M  V30 536 H 57.1688 -1.74344 -3.79025 0
M  V30 537 H 55.7988 -0.817753 -3.1227 0
M  V30 538 H 54.8508 -3.07222 -2.24318 0
M  V30 539 H 56.1628 -3.89518 -3.11572 0
M  V30 540 H 55.3168 -2.97829 -5.28567 0
M  V30 541 H 54.0558 -2.05133 -4.42461 0
M  V30 542 H 53.0608 -4.1885 -3.56153 0
M  V30 543 H 54.2858 -5.12483 -4.45575 0
M  V30 544 H 52.2318 -3.25453 -5.69575 0
M  V30 545 H 52.1488 -4.98564 -5.68304 0
M  V30 546 H 53.4168 -4.1941 -6.57051 0
M  V30 547 N 57.6459 0.756429 -1.3826 0
M  V30 548 C 58.5559 1.9009 -1.37488 0
M  V30 549 C 59.5719 1.71855 -0.272366 0
M  V30 550 O 60.7479 1.94827 -0.510318 0
M  V30 551 C 57.8129 3.25421 -1.19592 0
M  V30 552 C 56.8739 3.56202 -2.39622 0
M  V30 553 C 56.1069 4.85075 -2.2257 0
M  V30 554 O 56.3299 5.57246 -1.21793 0
M  V30 555 O 55.2639 5.15269 -3.11098 0
M  V30 556 H 59.0899 1.93695 -2.33914 0
M  V30 557 H 56.6749 0.901313 -1.1915 0
M  V30 558 H 58.5569 4.06337 -1.11661 0
M  V30 559 H 57.2319 3.22634 -0.262486 0
M  V30 560 H 56.1389 2.75458 -2.53128 0
M  V30 561 H 57.4719 3.63747 -3.31586 0
M  V30 562 N 59.124 1.23083 0.984299 0
M  V30 563 C 60.535 1.05609 1.5396 0
M  V30 564 C 60.886 -0.377793 1.92528 0
M  V30 565 O 60.011 -1.26398 1.75649 0
M  V30 566 C 60.606 1.91087 2.7977 0
M  V30 567 C 59.165 1.77885 3.31713 0
M  V30 568 C 58.312 1.87028 2.04733 0
M  V30 569 H 61.263 1.36802 0.804419 0
M  V30 570 H 61.284 1.43336 3.5247 0
M  V30 571 H 60.796 2.9544 2.51668 0
M  V30 572 H 58.897 0.762995 3.64704 0
M  V30 573 H 59.01 2.61047 4.01735 0
M  V30 574 H 57.374 1.30565 2.18689 0
M  V30 575 H 58.157 2.92929 1.79017 0
M  V30 576 N 60.6021 -1.18246 1.0419 0
M  V30 577 C 61.5321 -2.24127 0.654914 0
M  V30 578 C 62.5131 -1.66617 -0.342451 0
M  V30 579 O 63.6981 -1.92924 -0.222277 0
M  V30 580 C 60.8281 -3.47295 0.0183757 0
M  V30 581 C 59.7821 -4.17563 0.939414 0
M  V30 582 C 59.1081 -5.34438 0.167286 0
M  V30 583 C 60.4081 -4.70917 2.25908 0
M  V30 584 H 62.1021 -2.56753 1.54007 0
M  V30 585 H 59.6481 -1.23414 0.74195 0
M  V30 586 H 61.6011 -4.20572 -0.264082 0
M  V30 587 H 60.3251 -3.13907 -0.901664 0
M  V30 588 H 58.9841 -3.46186 1.20628 0
M  V30 589 H 58.6321 -4.97298 -0.7552 0
M  V30 590 H 58.3321 -5.82388 0.780901 0
M  V30 591 H 59.8561 -6.10504 -0.108125 0
M  V30 592 H 61.2701 -5.35882 2.03724 0
M  V30 593 H 59.6671 -5.29406 2.82577 0
M  V30 594 H 60.7371 -3.88272 2.9047 0
M  V30 595 N 62.0802 -0.821533 -1.34494 0
M  V30 596 C 63.3262 -0.418729 -1.99043 0
M  V30 597 C 63.6812 1.00672 -1.6396 0
M  V30 598 O 62.9742 1.69132 -0.900271 0
M  V30 599 C 63.1682 -0.556512 -3.53041 0
M  V30 600 C 62.9972 -1.9938 -4.03085 0
M  V30 601 C 61.7672 -2.62539 -4.31742 0
M  V30 602 C 63.9652 -2.96035 -4.20556 0
M  V30 603 N 61.9472 -3.97523 -4.67813 0
M  V30 604 C 63.3182 -4.15924 -4.59791 0
M  V30 605 C 65.3732 -2.9267 -4.02801 0
M  V30 606 C 64.0762 -5.32899 -4.83126 0
M  V30 607 C 66.1022 -4.08861 -4.27302 0
M  V30 608 C 65.4642 -5.275 -4.66822 0
M  V30 609 H 61.5632 -0.201299 -0.755647 0
M  V30 610 H 64.1472 -1.06594 -1.62929 0
M  V30 611 H 62.3182 0.0607924 -3.88352 0
M  V30 612 H 64.0502 -0.126842 -4.04501 0
M  V30 613 H 60.8052 -2.13789 -4.22601 0
M  V30 614 H 61.2292 -4.67061 -4.90085 0
M  V30 615 H 65.8712 -2.02088 -3.71376 0
M  V30 616 H 63.5892 -6.24041 -5.13418 0
M  V30 617 H 67.1752 -4.07654 -4.15101 0
M  V30 618 H 66.0552 -6.15913 -4.85408 0
M  V30 619 N 63.5583 1.46682 -0.576371 0
M  V30 620 C 64.8073 2.01619 -0.0572825 0
M  V30 621 C 65.1203 1.45417 1.30818 0
M  V30 622 O 66.3263 1.92133 1.91825 0
M  V30 623 C 64.7823 3.59863 -0.0518371 0
M  V30 624 C 64.3903 4.25059 -1.41523 0
M  V30 625 C 66.1343 4.2248 0.413639 0
M  V30 626 C 64.0413 5.75364 -1.36785 0
M  V30 627 H 62.9713 0.753794 -0.0176448 0
M  V30 628 H 65.6223 1.68481 -0.727076 0
M  V30 629 H 64.0043 3.90048 0.683994 0
M  V30 630 H 65.1783 4.06491 -2.17029 0
M  V30 631 H 63.4933 3.7451 -1.8202 0
M  V30 632 H 66.0903 5.3265 0.467779 0
M  V30 633 H 66.4333 3.90976 1.42982 0
M  V30 634 H 66.9663 3.96897 -0.267929 0
M  V30 635 H 63.7053 6.11518 -2.36063 0
M  V30 636 H 63.2253 5.96214 -0.654895 0
M  V30 637 H 64.9043 6.37955 -1.07805 0
M  V30 638 N 65.0364 0.313813 1.54444 0
M  V30 639 C 66.4524 -0.0391619 1.59552 0
M  V30 640 C 66.6524 -1.51322 1.33056 0
M  V30 641 O 65.7084 -2.26782 1.11022 0
M  V30 642 C 67.0214 0.370302 2.98411 0
M  V30 643 C 68.5694 0.320139 3.11358 0
M  V30 644 C 69.0444 0.704617 4.52547 0
M  V30 645 N 70.5354 0.657645 4.58508 0
M  V30 646 C 71.2704 0.927453 5.6585 0
M  V30 647 N 70.7664 1.26389 6.81174 0
M  V30 648 N 72.5594 0.853662 5.5558 0
M  V30 649 H 64.7104 1.27433 1.69925 0
M  V30 650 H 66.9734 0.517511 0.794284 0
M  V30 651 H 66.6794 1.39694 3.22767 0
M  V30 652 H 66.5534 -0.269619 3.76235 0
M  V30 653 H 68.9404 -0.697275 2.86744 0
M  V30 654 H 69.0214 0.99486 2.35661 0
M  V30 655 H 68.6654 1.7199 4.77893 0
M  V30 656 H 68.5954 0.00768843 5.26599 0
M  V30 657 H 71.0864 0.409067 3.75679 0
M  V30 658 H 71.3994 1.4554 7.58972 0
M  V30 659 H 69.7444 1.30206 6.82694 0
M  V30 660 H 72.9354 0.590383 4.64362 0
M  V30 661 H 73.1084 1.0673 6.3915 0
M  V30 662 N 66.5145 -1.57545 0.0417849 0
M  V30 663 C 67.9255 -1.80011 -0.495259 0
M  V30 664 C 68.2765 -0.953199 -1.71489 0
M  V30 665 O 67.4015 -0.167138 -2.15754 0
M  V30 666 C 67.9965 -3.26482 -0.905265 0
M  V30 667 C 66.5555 -3.499 -1.38734 0
M  V30 668 C 65.7025 -2.74979 -0.358056 0
M  V30 669 H 68.6535 -1.56425 0.267736 0
M  V30 670 H 68.6745 -3.36887 -1.76882 0
M  V30 671 H 68.1865 -3.88096 -0.017401 0
M  V30 672 H 66.2875 -2.93553 -2.29471 0
M  V30 673 H 66.4005 -4.58615 -1.38598 0
M  V30 674 H 64.7645 -2.40834 -0.828912 0
M  V30 675 H 65.5475 -3.39315 0.521561 0
M  V30 676 N 67.9926 0.231505 -1.5589 0
M  V30 677 C 69.2696 0.981096 -1.69215 0
M  V30 678 C 69.6496 2.02799 -0.586164 0
M  V30 679 O 68.9976 2.24823 0.408253 0
M  V30 680 C 69.2076 1.60054 -3.10135 0
M  V30 681 C 70.5556 2.09658 -3.69227 0
M  V30 682 O 71.5796 1.69967 -3.13033 0
M  V30 683 O 70.4386 2.8258 -4.67772 0
M  V30 684 H 67.5326 0.457653 -0.688827 0
M  V30 685 H 70.0786 0.224073 -1.68214 0
M  V30 686 H 68.8506 0.844105 -3.82087 0
M  V30 687 H 68.4736 2.42336 -3.15212 0
M  V30 688 N 69.4707 1.49531 0.497807 0
M  V30 689 C 70.4337 1.65916 1.58128 0
M  V30 690 C 71.4337 0.530825 1.51786 0
M  V30 691 O 72.6237 0.797342 1.54881 0
M  V30 692 C 69.7557 1.65951 2.9778 0
M  V30 693 H 70.9487 2.62556 1.44929 0
M  V30 694 H 68.5017 1.38611 0.722275 0
M  V30 695 H 69.2367 0.709065 3.16453 0
M  V30 696 H 69.0217 2.47897 3.03792 0
M  V30 697 H 70.5117 1.80673 3.76493 0
M  V30 698 N 70.9488 -0.749086 1.3866 0
M  V30 699 C 72.3598 -1.32664 1.31366 0
M  V30 700 C 72.7108 -1.96179 -0.028484 0
M  V30 701 O 71.8358 -1.9537 -0.93057 0
M  V30 702 C 72.4308 -2.41219 2.37905 0
M  V30 703 C 70.9898 -2.94684 2.34176 0
M  V30 704 C 70.1368 -1.68108 2.20533 0
M  V30 705 H 73.0878 -0.547628 1.48952 0
M  V30 706 H 73.1088 -3.21268 2.0388 0
M  V30 707 H 72.6208 -1.94962 3.35576 0
M  V30 708 H 70.7218 -3.45258 1.401 0
M  V30 709 H 70.8348 -3.48757 3.2849 0
M  V30 710 H 69.1988 -1.91907 1.67463 0
M  V30 711 H 69.9818 -1.23923 3.20153 0
M  V30 712 N 72.4269 -1.23603 -0.977757 0
M  V30 713 C 73.6519 -1.09735 -1.75991 0
M  V30 714 C 74.0769 0.346858 -1.84874 0
M  V30 715 O 73.4349 1.25093 -1.3123 0
M  V30 716 C 73.4829 -1.73051 -3.16363 0
M  V30 717 O 72.5869 -0.994452 -4.0023 0
M  V30 718 H 71.9279 -0.384476 -0.541364 0
M  V30 719 H 74.4579 -1.6371 -1.2272 0
M  V30 720 H 74.4679 -1.78398 -3.66931 0
M  V30 721 H 73.1429 -2.78137 -3.09213 0
M  V30 722 H 71.7199 -1.01812 -3.58732 0
M  V30 723 N 73.905 1.17692 -1.04816 0
M  V30 724 C 75.321 1.39863 -0.768794 0
M  V30 725 C 75.521 1.91118 0.638451 0
M  V30 726 O 74.577 2.10036 1.40146 0
M  V30 727 C 75.89 2.39274 -1.82122 0
M  V30 728 C 77.438 2.52987 -1.843 0
M  V30 729 C 77.913 3.55669 -2.88555 0
M  V30 730 N 79.404 3.63183 -2.87493 0
M  V30 731 C 80.139 4.42381 -3.64811 0
M  V30 732 N 79.635 5.25125 -4.51903 0
M  V30 733 N 81.428 4.37217 -3.53267 0
M  V30 734 H 73.579 0.82752 -1.95617 0
M  V30 735 H 75.842 0.426123 -0.846831 0
M  V30 736 H 75.548 2.08678 -2.83102 0
M  V30 737 H 75.422 3.38725 -1.65967 0
M  V30 738 H 77.809 2.82896 -0.839869 0
M  V30 739 H 77.89 1.53623 -2.04532 0
M  V30 740 H 77.534 3.26499 -3.89051 0
M  V30 741 H 77.464 4.54728 -2.65575 0
M  V30 742 H 79.955 3.04103 -2.24343 0
M  V30 743 H 80.268 5.82728 -5.07591 0
M  V30 744 H 78.613 5.24519 -4.55966 0
M  V30 745 H 81.804 3.71626 -2.84625 0
M  V30 746 H 81.977 4.98696 -4.13771 0
M  V30 747 N 75.3831 0.828654 1.34056 0
M  V30 748 C 76.6231 0.425394 1.99924 0
M  V30 749 C 76.9871 -0.994294 1.64249 0
M  V30 750 O 78.1881 -1.50074 2.23005 0
M  V30 751 C 76.4591 0.628071 3.51838 0
M  V30 752 S 78.0181 0.318511 4.37642 0
M  V30 753 H 74.8361 0.160465 0.692656 0
M  V30 754 H 77.4381 1.07572 1.63244 0
M  V30 755 H 76.1421 1.66089 3.7529 0
M  V30 756 H 75.6731 -0.0367799 3.93383 0
M  V30 757 H 77.6881 -0.865632 4.88591 0
M  V30 758 N 76.8612 -1.46375 0.584142 0
M  V30 759 C 78.0892 -2.06761 0.0759296 0
M  V30 760 C 78.5042 -1.43266 -1.22965 0
M  V30 761 O 77.8612 -0.538458 -1.74376 0
M  V30 762 C 77.9122 -3.61375 -0.0950384 0
M  V30 763 O 77.6332 -4.22495 1.15887 0
M  V30 764 C 79.1342 -4.38693 -0.637434 0
M  V30 765 H 76.3542 -0.668479 0.0581075 0
M  V30 766 H 78.8982 -1.8798 0.805218 0
M  V30 767 H 77.0532 -3.79578 -0.774554 0
M  V30 768 H 77.4672 -5.15385 0.973598 0
M  V30 769 H 78.9412 -5.47464 -0.706237 0
M  V30 770 H 79.4182 -4.06836 -1.65472 0
M  V30 771 H 80.0242 -4.25299 0.00725967 0
M  V30 772 N 78.3393 -0.321999 -1.54275 0
M  V30 773 C 79.5853 0.274234 -2.01543 0
M  V30 774 C 79.9403 1.499 -1.20614 0
M  V30 775 O 79.2333 1.89546 -0.279804 0
M  V30 776 C 79.4273 0.661769 -3.5122 0
M  V30 777 C 79.2563 -0.523892 -4.46638 0
M  V30 778 C 78.0263 -1.02251 -4.94846 0
M  V30 779 C 80.2243 -1.37558 -4.95563 0
M  V30 780 N 78.2063 -2.17274 -5.74165 0
M  V30 781 C 79.5773 -2.37301 -5.7279 0
M  V30 782 C 81.6323 -1.40353 -4.77709 0
M  V30 783 C 80.3353 -3.3964 -6.34064 0
M  V30 784 C 82.3613 -2.41562 -5.39817 0
M  V30 785 C 81.7233 -3.40031 -6.16894 0
M  V30 786 H 77.8223 0.0642367 -0.779357 0
M  V30 787 H 80.4063 -0.456683 -1.89268 0
M  V30 788 H 78.5773 1.36182 -3.63743 0
M  V30 789 H 80.3093 1.23934 -3.85256 0
M  V30 790 H 77.0643 -0.594046 -4.6986 0
M  V30 791 H 77.4883 -2.75289 -6.18502 0
M  V30 792 H 82.1303 -0.655907 -4.17681 0
M  V30 793 H 79.8483 -4.15309 -6.93213 0
M  V30 794 H 83.4343 -2.44524 -5.2792 0
M  V30 795 H 82.3143 -4.17063 -6.64099 0
M  V30 796 N 79.8174 1.5752 -0.0501392 0
M  V30 797 C 80.7494 2.08413 0.95376 0
M  V30 798 C 81.7624 1.01175 1.27544 0
M  V30 799 O 82.9514 1.28744 1.23641 0
M  V30 800 C 80.0514 2.51138 2.27559 0
M  V30 801 C 79.2244 3.817 2.13598 0
M  V30 802 C 78.2834 4.10749 3.28895 0
M  V30 803 O 77.3094 4.80685 3.04845 0
M  V30 804 N 78.5114 3.62579 4.5334 0
M  V30 805 H 81.2764 2.95165 0.519383 0
M  V30 806 H 78.8374 1.61327 0.136127 0
M  V30 807 H 80.8294 2.67648 3.03557 0
M  V30 808 H 79.3994 1.6964 2.62567 0
M  V30 809 H 78.6194 3.74782 1.22197 0
M  V30 810 H 79.9074 4.67201 2.01496 0
M  V30 811 H 79.3054 3.06039 4.75769 0
M  V30 812 H 77.8624 3.84329 5.26436 0
M  V30 813 N 81.2955 -0.223234 1.56011 0
M  V30 814 C 82.2255 -1.27988 1.95298 0
M  V30 815 C 83.2065 -1.48976 0.820979 0
M  V30 816 O 84.3915 -1.61188 1.08315 0
M  V30 817 C 81.5215 -2.63 2.26822 0
M  V30 818 C 80.4755 -2.56671 3.42497 0
M  V30 819 C 79.8015 -3.95697 3.59622 0
M  V30 820 C 81.1015 -2.11601 4.77517 0
M  V30 821 H 82.7955 -0.953525 2.8381 0
M  V30 822 H 80.3415 -0.457244 1.36548 0
M  V30 823 H 82.2945 -3.37077 2.52898 0
M  V30 824 H 81.0185 -2.9732 1.35161 0
M  V30 825 H 79.6775 -1.85051 3.16467 0
M  V30 826 H 79.3255 -4.27322 2.6534 0
M  V30 827 H 79.0255 -3.92345 4.37424 0
M  V30 828 H 80.5495 -4.71438 3.88044 0
M  V30 829 H 81.9635 -2.7542 5.02809 0
M  V30 830 H 80.3605 -2.19311 5.5859 0
M  V30 831 H 81.4305 -1.06824 4.72987 0
M  V30 832 N 82.7736 -1.49793 -0.48987 0
M  V30 833 C 84.0216 -1.59525 -1.24081 0
M  V30 834 C 84.3426 -0.288953 -1.92847 0
M  V30 835 O 83.6126 0.692436 -1.83254 0
M  V30 836 H 82.1926 -0.587796 -0.460983 0
M  V30 837 H 84.8546 -1.86477 -0.566778 0
M  V30 838 H 83.9506 -2.39696 -1.99881 0
M  V30 839 N 84.2517 0.741722 -1.39055 0
M  V30 840 C 85.6677 1.04638 -1.20512 0
M  V30 841 C 85.8677 2.01405 -0.0620218 0
M  V30 842 O 84.9237 2.45547 0.588457 0
M  V30 843 C 86.2367 1.6151 -2.53643 0
M  V30 844 C 87.7847 1.73623 -2.6043 0
M  V30 845 C 88.2597 2.33906 -3.93767 0
M  V30 846 N 89.7507 2.41323 -3.9537 0
M  V30 847 C 90.4857 2.88888 -4.95309 0
M  V30 848 N 89.9817 3.36401 -6.05645 0
M  V30 849 N 91.7747 2.88037 -4.82692 0
M  V30 850 H 83.9257 0.0998155 -2.12165 0
M  V30 851 H 86.1887 0.106907 -0.941953 0
M  V30 852 H 85.8947 0.978739 -3.37807 0
M  V30 853 H 85.7687 2.60411 -2.72885 0
M  V30 854 H 88.1557 2.36384 -1.76655 0
M  V30 855 H 88.2367 0.733945 -2.45045 0
M  V30 856 H 87.8807 1.71776 -4.7797 0
M  V30 857 H 87.8107 3.34799 -4.06469 0
M  V30 858 H 90.3017 2.07734 -3.15682 0
M  V30 859 H 90.6147 3.71186 -6.77821 0
M  V30 860 H 88.9597 3.34427 -6.09248 0
M  V30 861 H 92.1507 2.50237 -3.95599 0
M  V30 862 H 92.3237 3.24792 -5.60726 0
M  V30 863 N 85.7298 1.2412 0.971189 0
M  V30 864 C 87.1408 1.07236 1.52831 0
M  V30 865 C 87.4918 -0.357352 1.92918 0
M  V30 866 O 86.6168 -1.24528 1.76979 0
M  V30 867 C 87.2118 1.94043 2.77728 0
M  V30 868 C 85.7708 1.81394 3.29808 0
M  V30 869 C 84.9178 1.89189 2.02738 0
M  V30 870 H 87.8688 1.37648 0.789864 0
M  V30 871 H 87.8898 1.47066 3.5093 0
M  V30 872 H 87.4018 2.98093 2.4852 0
M  V30 873 H 85.5028 0.801634 3.63874 0
M  V30 874 H 85.6158 2.65294 3.98944 0
M  V30 875 H 83.9798 1.32877 2.17292 0
M  V30 876 H 84.7628 2.94812 1.759 0
M  V30 877 N 87.2079 -1.17134 1.05439 0
M  V30 878 C 88.1709 -2.19439 0.661764 0
M  V30 879 C 89.1709 -1.58199 -0.288042 0
M  V30 880 O 90.3609 -1.74053 -0.0715803 0
M  V30 881 C 87.4929 -3.40889 -0.0276209 0
M  V30 882 H 88.6859 -2.55688 1.56728 0
M  V30 883 H 86.2389 -1.31259 0.848567 0
M  V30 884 H 86.9739 -3.10187 -0.94629 0
M  V30 885 H 86.7589 -3.86586 0.655238 0
M  V30 886 H 88.2489 -4.16603 -0.288342 0
M  V30 887 N 88.686 -0.835752 -1.33615 0
M  V30 888 C 89.911 -0.442389 -2.02627 0
M  V30 889 C 90.336 0.947735 -1.62479 0
M  V30 890 O 89.694 1.61907 -0.815826 0
M  V30 891 C 89.742 -0.567216 -3.56111 0
M  V30 892 O 88.846 0.407799 -4.10379 0
M  V30 893 H 88.187 -0.180278 -0.639059 0
M  V30 894 H 90.717 -1.12972 -1.70583 0
M  V30 895 H 90.727 -0.447708 -4.05536 0
M  V30 896 H 89.402 -1.58103 -3.84677 0
M  V30 897 H 87.979 0.246107 -3.72087 0
M  V30 898 N 90.1641 1.46063 -0.591896 0
M  V30 899 C 91.0741 2.34192 0.13831 0
M  V30 900 C 92.0901 1.50305 0.876608 0
M  V30 901 O 93.2661 1.8315 0.837728 0
M  V30 902 C 90.3311 3.27656 1.13326 0
M  V30 903 C 89.3921 4.27445 0.39863 0
M  V30 904 C 88.6251 5.16443 1.34618 0
M  V30 905 O 88.8481 5.08553 2.58321 0
M  V30 906 O 87.7821 5.95843 0.851768 0
M  V30 907 H 91.6081 2.98002 -0.58552 0
M  V30 908 H 89.1931 1.45188 -0.352239 0
M  V30 909 H 91.0751 3.85291 1.70671 0
M  V30 910 H 89.7501 2.6643 1.83839 0
M  V30 911 H 88.6571 3.73471 -0.216895 0
M  V30 912 H 89.9901 4.91482 -0.265709 0
M  V30 913 N 91.6422 0.330177 1.54103 0
M  V30 914 C 92.8672 -0.274893 2.0557 0
M  V30 915 C 93.2922 -1.44487 1.20437 0
M  V30 916 O 92.6502 -1.80021 0.214991 0
M  V30 917 C 92.6982 -0.68079 3.54115 0
M  V30 918 O 91.8022 -1.7824 3.71893 0
M  V30 919 H 91.1432 -0.0483849 0.662235 0
M  V30 920 H 93.6732 0.480508 1.98878 0
M  V30 921 H 93.6832 -0.961635 3.96505 0
M  V30 922 H 92.3582 0.174903 4.15532 0
M  V30 923 H 90.9352 -1.49985 3.41407 0
M  V30 924 N 93.1203 -1.57491 0.0584922 0
M  V30 925 C 94.5313 -1.80526 -0.476138 0
M  V30 926 C 94.8823 -0.971334 -1.70469 0
M  V30 927 O 94.0073 -0.190012 -2.15564 0
M  V30 928 C 94.6023 -3.27424 -0.870587 0
M  V30 929 C 93.1613 -3.51351 -1.35015 0
M  V30 930 C 92.3083 -2.75343 -0.32887 0
M  V30 931 H 95.2593 -1.56133 0.284312 0
M  V30 932 H 95.2803 -3.38745 -1.73299 0
M  V30 933 H 94.7923 -3.88093 0.0237627 0
M  V30 934 H 92.8933 -2.95971 -2.26345 0
M  V30 935 H 93.0063 -4.60059 -1.33726 0
M  V30 936 H 91.3703 -2.417 -0.803321 0
M  V30 937 H 92.1533 -3.38743 0.557521 0
M  V30 938 N 94.5984 0.214957 -1.56127 0
M  V30 939 C 95.5484 1.27006 -1.8935 0
M  V30 940 C 96.5324 1.41969 -0.757202 0
M  V30 941 O 97.7244 1.44673 -1.01973 0
M  V30 942 C 94.8534 2.61911 -2.2194 0
M  V30 943 C 93.9394 2.50822 -3.41978 0
M  V30 944 N 94.3304 2.09391 -4.60423 0
M  V30 945 C 92.6284 2.81765 -3.45723 0
M  V30 946 C 93.3294 2.09712 -5.42582 0
M  V30 947 N 92.3054 2.50454 -4.82466 0
M  V30 948 H 96.1074 0.940734 -2.78437 0
M  V30 949 H 93.6214 0.423492 -1.56781 0
M  V30 950 H 95.6184 3.38096 -2.43919 0
M  V30 951 H 94.2784 2.95684 -1.34169 0
M  V30 952 H 95.2894 1.80416 -4.85459 0
M  V30 953 H 91.9664 3.19865 -2.68314 0
M  V30 954 H 93.3564 1.79748 -6.4741 0
M  V30 955 N 96.0765 1.50051 0.48192 0
M  V30 956 C 97.0265 1.64512 1.5786 0
M  V30 957 C 98.0105 0.500073 1.52932 0
M  V30 958 O 99.2025 0.753964 1.60139 0
M  V30 959 C 96.3315 1.73263 2.9637 0
M  V30 960 C 95.4175 2.93409 3.06222 0
M  V30 961 N 95.8085 4.17236 2.85915 0
M  V30 962 C 94.1065 2.91742 3.37346 0
M  V30 963 C 94.8075 4.981 3.00451 0
M  V30 964 N 93.7835 4.3184 3.30174 0
M  V30 965 H 97.5855 2.57955 1.40842 0
M  V30 966 H 95.0995 1.47086 0.688439 0
M  V30 967 H 97.0965 1.81724 3.75209 0
M  V30 968 H 95.7565 0.809711 3.14442 0
M  V30 969 H 96.7675 4.46909 2.6171 0
M  V30 970 H 93.4445 2.08907 3.61475 0
M  V30 971 H 94.8345 6.06532 2.89082 0
M  V30 972 N 97.5546 -0.734337 1.39446 0
M  V30 973 C 98.5046 -1.83949 1.34709 0
M  V30 974 C 99.4886 -1.59279 0.227851 0
M  V30 975 O 100.681 -1.70771 0.465438 0
M  V30 976 C 97.8096 -3.21884 1.19356 0
M  V30 977 C 96.8956 -3.52381 2.35984 0
M  V30 978 N 97.2866 -3.53811 3.61457 0
M  V30 979 C 95.5846 -3.82747 2.28956 0
M  V30 980 C 96.2856 -3.82122 4.38586 0
M  V30 981 N 95.2616 -3.9993 3.68181 0
M  V30 982 H 99.0636 -1.83361 2.29687 0
M  V30 983 H 96.5776 -0.932609 1.32952 0
M  V30 984 H 98.5746 -4.00998 1.14046 0
M  V30 985 H 97.2346 -3.23711 0.253295 0
M  V30 986 H 98.2456 -3.35107 3.94872 0
M  V30 987 H 94.9226 -3.92175 1.43194 0
M  V30 988 H 96.3126 -3.89691 5.47349 0
M  V30 989 N 99.0327 -1.24633 -0.964593 0
M  V30 990 C 100.261 -1.11501 -1.74285 0
M  V30 991 C 100.676 0.332165 -1.85855 0
M  V30 992 O 100.033 1.22903 -1.34911 0
M  V30 993 C 100.084 -1.75258 -3.16175 0
M  V30 994 O 99.8047 -3.14318 -3.05182 0
M  V30 995 C 101.306 -1.67776 -4.10324 0
M  V30 996 H 98.5257 -0.389407 -0.546446 0
M  V30 997 H 101.07 -1.64801 -1.21083 0
M  V30 998 H 99.2247 -1.25954 -3.66353 0
M  V30 999 H 99.6387 -3.4551 -3.94618 0
M  V30 1000 H 101.113 -2.17064 -5.0753 0
M  V30 1001 H 101.59 -0.639584 -4.34518 0
M  V30 1002 H 102.196 -2.16522 -3.66058 0
M  V30 1003 N 100.511 1.16574 -1.06058 0
M  V30 1004 C 101.474 2.19085 -0.673392 0
M  V30 1005 C 102.474 1.5835 0.279648 0
M  V30 1006 O 103.664 1.74088 0.0623488 0
M  V30 1007 C 100.796 3.40899 0.00954234 0
M  V30 1008 H 101.989 2.54853 -1.58081 0
M  V30 1009 H 99.5418 1.30808 -0.855516 0
M  V30 1010 H 100.277 3.10684 0.929826 0
M  V30 1011 H 100.062 3.86233 -0.67573 0
M  V30 1012 H 101.552 4.1675 0.266245 0
M  V30 1013 N 101.989 0.842826 1.3317 0
M  V30 1014 C 103.4 0.496651 1.79973 0
M  V30 1015 C 103.751 -0.984641 1.69703 0
M  V30 1016 O 102.876 -1.76743 1.24863 0
M  V30 1017 C 103.471 0.894727 3.26772 0
M  V30 1018 C 102.03 0.600629 3.71577 0
M  V30 1019 C 101.177 1.10091 2.5451 0
M  V30 1020 H 104.128 1.03116 1.20635 0
M  V30 1021 H 104.149 0.206347 3.7994 0
M  V30 1022 H 103.661 1.97287 3.34215 0
M  V30 1023 H 101.762 -0.467284 3.69658 0
M  V30 1024 H 101.875 1.15863 4.64879 0
M  V30 1025 H 100.239 0.52162 2.49301 0
M  V30 1026 H 101.022 2.18591 2.64713 0
M  V30 1027 N 103.467 -1.45747 0.599634 0
M  V30 1028 C 104.43 -2.28917 -0.113835 0
M  V30 1029 C 105.43 -1.3933 -0.802729 0
M  V30 1030 O 106.62 -1.61534 -0.652103 0
M  V30 1031 C 103.752 -3.20152 -1.17114 0
M  V30 1032 H 104.945 -2.93478 0.617289 0
M  V30 1033 H 102.498 -1.52137 0.358327 0
M  V30 1034 H 103.233 -2.60374 -1.93329 0
M  V30 1035 H 103.018 -3.86133 -0.681468 0
M  V30 1036 H 104.508 -3.82708 -1.67105 0
M  V30 1037 N 104.945 -0.338344 -1.53925 0
M  V30 1038 C 105.892 0.520845 -2.24846 0
M  V30 1039 C 106.862 1.09976 -1.24477 0
M  V30 1040 O 108.047 1.13735 -1.53196 0
M  V30 1041 C 105.187 1.6685 -3.02084 0
M  V30 1042 C 104.3 1.11739 -4.17299 0
M  V30 1043 C 103.435 2.23193 -4.82036 0
M  V30 1044 C 102.474 1.65407 -5.89328 0
M  V30 1045 N 101.611 2.70582 -6.47866 0
M  V30 1046 H 106.451 -0.0904881 -2.97863 0
M  V30 1047 H 103.988 -0.0564282 -1.46992 0
M  V30 1048 H 105.946 2.34407 -3.45122 0
M  V30 1049 H 104.576 2.2509 -2.31375 0
M  V30 1050 H 103.628 0.332919 -3.7894 0
M  V30 1051 H 104.94 0.654677 -4.94485 0
M  V30 1052 H 104.094 2.98626 -5.28117 0
M  V30 1053 H 102.833 2.72807 -4.04262 0
M  V30 1054 H 101.838 0.884779 -5.42634 0
M  V30 1055 H 103.063 1.16652 -6.69006 0
M  V30 1056 H 101.009 3.1946 -5.72959 0
M  V30 1057 H 100.926 2.28917 -7.20509 0
M  V30 1058 H 102.194 3.45799 -6.98601 0
M  V30 1059 N 106.423 1.57458 -0.0668435 0
M  V30 1060 C 107.648 1.9804 0.616027 0
M  V30 1061 C 108.073 0.944771 1.62652 0
M  V30 1062 O 107.431 -0.0902094 1.81075 0
M  V30 1063 C 107.479 3.37665 1.26549 0
M  V30 1064 O 106.583 3.36701 2.38131 0
M  V30 1065 H 105.924 0.644719 0.158849 0
M  V30 1066 H 108.454 2.04121 -0.139891 0
M  V30 1067 H 108.464 3.7474 1.6135 0
M  V30 1068 H 107.139 4.12573 0.525016 0
M  V30 1069 H 105.716 3.1139 2.0516 0
M  V30 1070 N 107.901 -0.206675 1.56239 0
M  V30 1071 C 109.312 -0.772383 1.69974 0
M  V30 1072 C 109.663 -1.84353 0.671436 0
M  V30 1073 O 108.788 -2.15695 -0.174491 0
M  V30 1074 C 109.383 -1.40779 3.08167 0
M  V30 1075 C 107.942 -1.92072 3.23706 0
M  V30 1076 C 107.089 -0.786347 2.65917 0
M  V30 1077 H 110.04 0.0182223 1.5869 0
M  V30 1078 H 110.061 -2.27696 3.04852 0
M  V30 1079 H 109.573 -0.627958 3.82986 0
M  V30 1080 H 107.674 -2.7281 2.53782 0
M  V30 1081 H 107.787 -2.09046 4.31087 0
M  V30 1082 H 106.151 -1.1976 2.24788 0
M  V30 1083 H 106.934 -0.0189416 3.43295 0
M  V30 1084 N 109.379 -1.50304 -0.473955 0
M  V30 1085 C 110.326 -1.68959 -1.57231 0
M  V30 1086 C 111.296 -0.530899 -1.57387 0
M  V30 1087 O 112.481 -0.761133 -1.74961 0
M  V30 1088 C 109.621 -1.7871 -2.95223 0
M  V30 1089 C 108.734 -3.06061 -3.04878 0
M  V30 1090 C 107.869 -3.06626 -4.33767 0
M  V30 1091 C 106.908 -4.28443 -4.37154 0
M  V30 1092 N 106.045 -4.26763 -5.5751 0
M  V30 1093 H 110.885 -2.6273 -1.40631 0
M  V30 1094 H 108.422 -1.30241 -0.683789 0
M  V30 1095 H 110.38 -1.82344 -3.75242 0
M  V30 1096 H 109.01 -0.883806 -3.10465 0
M  V30 1097 H 108.062 -3.11911 -2.17751 0
M  V30 1098 H 109.374 -3.96039 -3.0324 0
M  V30 1099 H 108.528 -3.08973 -5.22131 0
M  V30 1100 H 107.267 -2.14473 -4.3801 0
M  V30 1101 H 106.272 -4.2631 -3.47188 0
M  V30 1102 H 107.497 -5.2182 -4.34605 0
M  V30 1103 H 105.443 -3.37462 -5.62544 0
M  V30 1104 H 105.36 -5.10507 -5.57601 0
M  V30 1105 H 106.628 -4.33253 -6.48006 0
M  V30 1106 N 110.857 0.726932 -1.39834 0
M  V30 1107 C 112.106 1.48214 -1.36805 0
M  V30 1108 C 112.419 1.95576 0.0305291 0
M  V30 1109 O 113.625 2.7088 0.183417 0
M  V30 1110 C 112.081 2.67854 -2.40379 0
M  V30 1111 C 111.689 2.27408 -3.85992 0
M  V30 1112 C 113.433 3.45641 -2.46439 0
M  V30 1113 C 111.34 3.43819 -4.81189 0
M  V30 1114 H 110.27 0.556606 -0.508631 0
M  V30 1115 H 112.921 0.792216 -1.65518 0
M  V30 1116 H 111.303 3.3896 -2.04749 0
M  V30 1117 H 112.477 1.63795 -4.30706 0
M  V30 1118 H 110.792 1.62692 -3.83302 0
M  V30 1119 H 113.389 4.32244 -3.14753 0
M  V30 1120 H 113.732 3.88669 -1.49139 0
M  V30 1121 H 114.265 2.8157 -2.81004 0
M  V30 1122 H 111.004 3.05834 -5.79781 0
M  V30 1123 H 110.524 4.06385 -4.41148 0
M  V30 1124 H 112.203 4.10043 -5.00474 0
M  V30 1125 N 112.336 1.25143 0.95797 0
M  V30 1126 C 113.266 1.07711 2.07173 0
M  V30 1127 C 114.247 -0.0128462 1.70095 0
M  V30 1128 O 115.432 0.156061 1.93572 0
M  V30 1129 C 112.562 0.691503 3.40346 0
M  V30 1130 C 111.516 1.73132 3.9142 0
M  V30 1131 C 110.842 1.20049 5.21049 0
M  V30 1132 C 112.142 3.1294 4.1817 0
M  V30 1133 H 113.836 2.00873 2.22014 0
M  V30 1134 H 111.382 0.967191 1.06684 0
M  V30 1135 H 113.335 0.556505 4.17709 0
M  V30 1136 H 112.059 -0.275819 3.25433 0
M  V30 1137 H 110.718 1.8547 3.16222 0
M  V30 1138 H 110.366 0.223499 5.02503 0
M  V30 1139 H 110.066 1.89545 5.56189 0
M  V30 1140 H 111.59 1.07782 6.01012 0
M  V30 1141 H 113.004 3.03775 4.86203 0
M  V30 1142 H 111.401 3.79875 4.64559 0
M  V30 1143 H 112.471 3.6025 3.24573 0
M  V30 1144 N 113.814 -1.1601 1.06675 0
M  V30 1145 C 115.225 -1.68235 0.809565 0
M  V30 1146 C 115.576 -1.8454 -0.666303 0
M  V30 1147 O 114.701 -1.54374 -1.5165 0
M  V30 1148 C 115.296 -3.05585 1.46299 0
M  V30 1149 C 113.855 -3.54915 1.25349 0
M  V30 1150 C 113.002 -2.30804 1.53703 0
M  V30 1151 H 115.953 -1.00318 1.22971 0
M  V30 1152 H 115.974 -3.70174 0.880431 0
M  V30 1153 H 115.486 -2.93686 2.53713 0
M  V30 1154 H 113.587 -3.72067 0.199261 0
M  V30 1155 H 113.7 -4.36774 1.9689 0
M  V30 1156 H 112.064 -2.36007 0.957739 0
M  V30 1157 H 112.847 -2.21499 2.62284 0
M  V30 1158 N 115.292 -0.849877 -1.32721 0
M  V30 1159 C 116.569 -0.372405 -1.92022 0
M  V30 1160 C 116.949 1.1435 -1.77447 0
M  V30 1161 O 116.297 1.96296 -1.16962 0
M  V30 1162 C 116.507 -0.831482 -3.3895 0
M  V30 1163 C 117.855 -0.845882 -4.16089 0
M  V30 1164 O 118.879 -0.775806 -3.47649 0
M  V30 1165 O 117.738 -0.943753 -5.38289 0
M  V30 1166 H 114.832 -0.107667 -0.819961 0
M  V30 1167 H 117.378 -0.93646 -1.41522 0
M  V30 1168 H 116.15 -1.87448 -3.4348 0
M  V30 1169 H 115.773 -0.24461 -3.96847 0
M  V30 1170 N 116.77 1.45427 -0.607355 0
M  V30 1171 C 118.019 2.01452 -0.100036 0
M  V30 1172 C 118.332 1.48159 1.27704 0
M  V30 1173 O 119.538 1.96159 1.87707 0
M  V30 1174 C 117.994 3.59672 -0.128158 0
M  V30 1175 C 117.602 4.21962 -1.50507 0
M  V30 1176 C 119.346 4.23262 0.323932 0
M  V30 1177 C 117.253 5.72333 -1.48959 0
M  V30 1178 H 116.183 0.75325 -0.0336299 0
M  V30 1179 H 118.834 1.66901 -0.76265 0
M  V30 1180 H 117.216 3.91411 0.601105 0
M  V30 1181 H 118.39 4.01796 -2.25602 0
M  V30 1182 H 116.705 3.70565 -1.89923 0
M  V30 1183 H 119.302 5.33522 0.354691 0
M  V30 1184 H 119.645 3.93921 1.34656 0
M  V30 1185 H 120.178 3.96239 -0.352056 0
M  V30 1186 H 116.917 6.06373 -2.48981 0
M  V30 1187 H 116.437 5.94691 -0.781214 0
M  V30 1188 H 118.116 6.35525 -1.21313 0
M  V30 1189 N 118.248 0.346503 1.53744 0
M  V30 1190 C 119.178 -0.501193 2.28058 0
M  V30 1191 C 120.159 -1.10014 1.29734 0
M  V30 1192 O 121.344 -1.12097 1.58581 0
M  V30 1193 C 118.474 -1.65078 3.05559 0
M  V30 1194 C 117.428 -1.18003 4.11411 0
M  V30 1195 C 116.754 -2.41837 4.76884 0
M  V30 1196 C 118.054 -0.278394 5.21558 0
M  V30 1197 H 119.748 0.11875 2.99164 0
M  V30 1198 H 117.294 0.0585531 1.43881 0
M  V30 1199 H 119.247 -2.25028 3.56287 0
M  V30 1200 H 117.971 -2.29767 2.32109 0
M  V30 1201 H 116.63 -0.603331 3.61601 0
M  V30 1202 H 116.278 -3.0494 4.00026 0
M  V30 1203 H 115.978 -2.1102 5.48402 0
M  V30 1204 H 117.502 -3.02508 5.30397 0
M  V30 1205 H 118.916 -0.784823 5.67903 0
M  V30 1206 H 117.313 -0.0619707 6.00068 0
M  V30 1207 H 118.383 0.684677 4.80042 0
M  V30 1208 N 119.726 -1.57421 0.075193 0
M  V30 1209 C 120.673 -2.12915 -0.890843 0
M  V30 1210 C 121.643 -1.04252 -1.29309 0
M  V30 1211 O 122.828 -1.31933 -1.37834 0
M  V30 1212 C 119.968 -2.69795 -2.15186 0
M  V30 1213 C 119.081 -3.92624 -1.80194 0
M  V30 1214 C 118.216 -4.37736 -3.00933 0
M  V30 1215 C 117.255 -5.53205 -2.61974 0
M  V30 1216 N 116.392 -5.9326 -3.75483 0
M  V30 1217 H 121.232 -2.95156 -0.410735 0
M  V30 1218 H 118.769 -1.45854 -0.191086 0
M  V30 1219 H 120.727 -3.00883 -2.89008 0
M  V30 1220 H 119.357 -1.90313 -2.60731 0
M  V30 1221 H 118.409 -3.67977 -0.964218 0
M  V30 1222 H 119.721 -4.76482 -1.47534 0
M  V30 1223 H 118.875 -4.70503 -3.8303 0
M  V30 1224 H 117.614 -3.52739 -3.36789 0
M  V30 1225 H 116.619 -5.20086 -1.783 0
M  V30 1226 H 117.844 -6.39936 -2.27284 0
M  V30 1227 H 115.79 -5.11212 -4.11094 0
M  V30 1228 H 115.707 -6.71865 -3.46602 0
M  V30 1229 H 116.975 -6.30651 -4.58148 0
M  V30 1230 N 121.204 0.198386 -1.56346 0
M  V30 1231 C 122.151 1.24589 -1.94284 0
M  V30 1232 C 123.121 1.454 -0.802997 0
M  V30 1233 O 124.306 1.58588 -1.06087 0
M  V30 1234 C 121.446 2.58631 -2.28482 0
M  V30 1235 C 120.559 2.45426 -3.55514 0
M  V30 1236 C 119.694 3.7215 -3.79049 0
M  V30 1237 C 118.733 3.53763 -4.99518 0
M  V30 1238 N 117.87 4.72491 -5.19323 0
M  V30 1239 H 122.71 0.915356 -2.83593 0
M  V30 1240 H 120.247 0.440629 -1.40346 0
M  V30 1241 H 122.205 3.3672 -2.46324 0
M  V30 1242 H 120.835 2.89734 -1.42317 0
M  V30 1243 H 119.887 1.58652 -3.45737 0
M  V30 1244 H 121.199 2.27772 -4.43758 0
M  V30 1245 H 120.353 4.58679 -3.97113 0
M  V30 1246 H 119.092 3.92754 -2.89129 0
M  V30 1247 H 118.097 2.65619 -4.8138 0
M  V30 1248 H 119.322 3.34607 -5.90944 0
M  V30 1249 H 117.268 4.93365 -4.3235 0
M  V30 1250 H 117.185 4.5765 -6.01741 0
M  V30 1251 H 118.453 5.6038 -5.41843 0
M  V30 1252 N 122.682 1.50554 0.465978 0
M  V30 1253 C 123.931 1.61038 1.21448 0
M  V30 1254 C 124.244 0.31865 1.92987 0
M  V30 1255 O 125.45 0.302469 2.6981 0
M  V30 1256 C 123.906 2.84283 2.20706 0
M  V30 1257 C 123.514 4.20352 1.54946 0
M  V30 1258 C 125.258 3.04115 2.96166 0
M  V30 1259 C 123.165 5.34778 2.5252 0
M  V30 1260 H 122.095 0.599718 0.457005 0
M  V30 1261 H 124.746 1.7699 0.484424 0
M  V30 1262 H 123.128 2.61901 2.97025 0
M  V30 1263 H 124.302 4.53008 0.843811 0
M  V30 1264 H 122.617 4.06167 0.917475 0
M  V30 1265 H 125.214 3.86774 3.69202 0
M  V30 1266 H 125.557 2.16045 3.55852 0
M  V30 1267 H 126.09 3.26702 2.26959 0
M  V30 1268 H 122.829 6.25018 1.97566 0
M  V30 1269 H 122.349 5.06534 3.21222 0
M  V30 1270 H 124.028 5.65561 3.14245 0
M  V30 1271 N 124.16 -0.719506 1.40217 0
M  V30 1272 C 125.408 -1.47641 1.3801 0
M  V30 1273 C 125.729 -1.94992 -0.018145 0
M  V30 1274 O 124.999 -1.70073 -0.972207 0
M  V30 1275 H 123.579 -0.547744 0.507923 0
M  V30 1276 H 126.241 -0.853187 1.75233 0
M  V30 1277 H 125.337 -2.35112 2.05253 0
M  V30 1278 N 125.638 -1.25649 -0.95132 0
M  V30 1279 C 126.915 -1.01361 -1.67288 0
M  V30 1280 C 127.295 0.459135 -2.06046 0
M  V30 1281 O 126.643 1.43723 -1.7764 0
M  V30 1282 C 126.853 -1.95256 -2.89268 0
M  V30 1283 C 128.201 -2.23289 -3.61147 0
M  V30 1284 O 129.225 -1.93041 -2.99355 0
M  V30 1285 O 128.084 -2.74741 -4.72419 0
M  V30 1286 H 125.178 -0.38464 -0.732107 0
M  V30 1287 H 127.724 -1.36817 -1.00395 0
M  V30 1288 H 126.496 -2.94685 -2.57442 0
M  V30 1289 H 126.119 -1.60218 -3.6389 0
M  V30 1290 N 127.117 1.15442 -1.07289 0
M  V30 1291 C 128.345 1.90096 -0.81676 0
M  V30 1292 C 128.76 1.7798 0.629966 0
M  V30 1293 O 128.117 1.1313 1.43206 0
M  V30 1294 C 128.168 3.40466 -1.21512 0
M  V30 1295 O 127.889 3.52232 -2.60508 0
M  V30 1296 C 129.39 4.32145 -0.988198 0
M  V30 1297 H 126.61 0.602495 -0.295366 0
M  V30 1298 H 129.154 1.4627 -1.42918 0
M  V30 1299 H 127.309 3.81958 -0.647039 0
M  V30 1300 H 127.723 4.45549 -2.76742 0
M  V30 1301 H 129.197 5.36072 -1.31645 0
M  V30 1302 H 129.674 4.39135 0.0755063 0
M  V30 1303 H 130.28 3.96395 -1.54115 0
M  V30 1304 N 128.595 0.856903 1.32268 0
M  V30 1305 C 130.006 0.515711 1.79436 0
M  V30 1306 C 130.357 -0.966586 1.70738 0
M  V30 1307 O 129.482 -1.75409 1.26731 0
M  V30 1308 C 130.077 0.929335 3.25805 0
M  V30 1309 C 128.636 0.640006 3.70919 0
M  V30 1310 C 127.783 1.12784 2.53328 0
M  V30 1311 H 130.734 1.04389 1.19535 0
M  V30 1312 H 130.755 0.246633 3.797 0
M  V30 1313 H 130.267 2.00821 3.32103 0
M  V30 1314 H 128.368 -0.428051 3.70133 0
M  V30 1315 H 128.481 1.20788 4.63624 0
M  V30 1316 H 126.845 0.548033 2.48734 0
M  V30 1317 H 127.628 2.21387 2.62379 0
M  V30 1318 N 130.073 -1.45103 0.615059 0
M  V30 1319 C 131.006 -2.27717 -0.148408 0
M  V30 1320 C 131.984 -1.37584 -0.866572 0
M  V30 1321 O 133.168 -1.67017 -0.87393 0
M  V30 1322 C 130.295 -3.16136 -1.21557 0
M  V30 1323 C 129.341 -4.22263 -0.599712 0
M  V30 1324 S 130.174 -5.3215 0.598081 0
M  V30 1325 C 131.33 -6.24137 -0.469484 0
M  V30 1326 H 131.563 -2.92121 0.552483 0
M  V30 1327 H 129.096 -1.49054 0.402778 0
M  V30 1328 H 131.054 -3.67633 -1.82638 0
M  V30 1329 H 129.715 -2.50982 -1.88857 0
M  V30 1330 H 128.908 -4.84081 -1.4029 0
M  V30 1331 H 128.51 -3.73945 -0.063876 0
M  V30 1332 H 130.802 -6.63984 -1.34652 0
M  V30 1333 H 131.745 -7.0801 0.112725 0
M  V30 1334 H 132.153 -5.58971 -0.788168 0
M  V30 1335 N 131.551 -0.354651 -1.53558 0
M  V30 1336 C 132.797 0.238797 -2.01389 0
M  V30 1337 C 133.13 1.49309 -1.2418 0
M  V30 1338 O 132.405 1.91638 -0.332457 0
M  V30 1339 C 132.688 0.541771 -3.56001 0
M  V30 1340 C 132.541 -0.725388 -4.43912 0
M  V30 1341 C 133.86 1.34685 -4.18984 0
M  V30 1342 H 130.979 0.0853177 -0.732045 0
M  V30 1343 H 133.621 -0.477384 -1.83905 0
M  V30 1344 H 131.771 1.15189 -3.71031 0
M  V30 1345 H 133.443 -1.36313 -4.407 0
M  V30 1346 H 131.686 -1.34801 -4.12324 0
M  V30 1347 H 132.357 -0.468505 -5.50008 0
M  V30 1348 H 134.833 0.830837 -4.07721 0
M  V30 1349 H 133.709 1.52759 -5.27215 0
M  V30 1350 H 133.97 2.35221 -3.74331 0
M  V30 1351 N 133.029 1.57378 -0.0835403 0
M  V30 1352 C 134.445 1.57246 0.273109 0
M  V30 1353 C 134.645 1.09385 1.69225 0
M  V30 1354 O 133.701 0.765051 2.40631 0
M  V30 1355 C 135.014 3.00614 0.0720628 0
M  V30 1356 C 136.562 3.12684 0.1407 0
M  V30 1357 C 137.037 4.57989 -0.0322094 0
M  V30 1358 N 138.528 4.63194 0.0230085 0
M  V30 1359 C 139.263 5.73335 -0.0861941 0
M  V30 1360 N 138.759 6.9235 -0.24958 0
M  V30 1361 N 140.552 5.62093 -0.0282886 0
M  V30 1362 H 132.703 1.86801 -1.0109 0
M  V30 1363 H 134.966 0.861687 -0.395222 0
M  V30 1364 H 134.672 3.39786 -0.907662 0
M  V30 1365 H 134.546 3.68193 0.81936 0
M  V30 1366 H 136.933 2.73391 1.11092 0
M  V30 1367 H 137.014 2.47719 -0.637896 0
M  V30 1368 H 136.658 4.97973 -0.999247 0
M  V30 1369 H 136.588 5.21 0.765937 0
M  V30 1370 H 139.079 3.77613 0.14722 0
M  V30 1371 H 139.392 7.72117 -0.324733 0
M  V30 1372 H 137.737 6.94415 -0.285097 0
M  V30 1373 H 140.928 4.67997 0.0981408 0
M  V30 1374 H 141.101 6.47895 -0.116845 0
M  V30 1375 N 134.507 -0.190092 1.56449 0
M  V30 1376 C 135.756 -0.907912 1.80111 0
M  V30 1377 C 136.069 -1.84214 0.657619 0
M  V30 1378 O 137.275 -2.60094 0.778663 0
M  V30 1379 C 135.731 -1.66485 3.19078 0
M  V30 1380 C 135.339 -0.7752 4.41242 0
M  V30 1381 C 137.083 -2.37201 3.52045 0
M  V30 1382 C 134.99 -1.53129 5.71231 0
M  V30 1383 H 133.92 -0.34276 0.671589 0
M  V30 1384 H 136.571 -0.161109 1.82791 0
M  V30 1385 H 134.953 -2.45572 3.10661 0
M  V30 1386 H 136.127 -0.0226298 4.60794 0
M  V30 1387 H 134.442 -0.178627 4.16017 0
M  V30 1388 H 137.039 -2.94329 4.46402 0
M  V30 1389 H 137.382 -3.11632 2.76028 0
M  V30 1390 H 137.915 -1.65075 3.61932 0
M  V30 1391 H 134.654 -0.82967 6.50228 0
M  V30 1392 H 134.174 -2.25767 5.55688 0
M  V30 1393 H 135.853 -2.08377 6.12526 0
M  V30 1394 N 135.985 -1.50799 -0.457987 0
M  V30 1395 C 136.933 -1.71162 -1.575 0
M  V30 1396 C 137.927 -0.577592 -1.59249 0
M  V30 1397 O 139.133 -0.758443 -1.63241 0
M  V30 1398 H 135.508 -0.540468 -0.522875 0
M  V30 1399 H 137.479 -2.64837 -1.37492 0
M  V30 1400 C 136.228 -1.83496 -2.95338 0
M  V30 1401 H 135.551 -2.70153 -2.94716 0
M  V30 1402 H 136.991 -2.01765 -3.72917 0
M  V30 1403 C 135.45 -0.589694 -3.31699 0
M  V30 1404 O 135.98 0.265163 -4.00824 0
M  V30 1405 N 134.186 -0.439845 -2.87252 0
M  V30 1406 H 133.733 -1.13655 -2.31172 0
M  V30 1407 H 133.691 0.392159 -3.11945 0
M  V30 1408 N 137.463 0.71206 -1.40597 0
M  V30 1409 C 138.41 1.82613 -1.41142 0
M  V30 1410 C 139.38 1.63925 -0.267903 0
M  V30 1411 O 140.565 1.85009 -0.466495 0
M  V30 1412 C 137.705 3.20354 -1.28324 0
M  V30 1413 C 136.818 3.50589 -2.52411 0
M  V30 1414 C 135.953 4.77855 -2.32009 0
M  V30 1415 C 134.992 5.01005 -3.51654 0
M  V30 1416 N 134.129 6.19487 -3.30425 0
M  V30 1417 H 138.969 1.81482 -2.36365 0
M  V30 1418 H 136.506 0.886475 -1.17388 0
M  V30 1419 H 138.464 3.99899 -1.18899 0
M  V30 1420 H 137.094 3.20705 -0.367189 0
M  V30 1421 H 136.146 2.65573 -2.72351 0
M  V30 1422 H 137.458 3.63604 -3.41458 0
M  V30 1423 H 136.612 5.65424 -2.19956 0
M  V30 1424 H 135.351 4.67056 -1.40392 0
M  V30 1425 H 134.356 4.1189 -3.64179 0
M  V30 1426 H 135.581 5.13674 -4.44202 0
M  V30 1427 H 133.527 6.09932 -2.41494 0
M  V30 1428 H 133.444 6.33194 -4.13039 0
M  V30 1429 H 134.712 7.09834 -3.22113 0
M  V30 1430 N 138.941 1.26152 0.944643 0
M  V30 1431 C 140.19 1.10883 1.68487 0
M  V30 1432 C 140.503 -0.348153 1.92477 0
M  V30 1433 O 141.709 -0.621459 2.64292 0
M  V30 1434 C 140.165 1.93624 3.03377 0
M  V30 1435 C 139.773 3.43875 2.87148 0
M  V30 1436 C 141.517 1.86954 3.81115 0
M  V30 1437 C 139.424 4.18875 4.1749 0
M  V30 1438 H 138.354 0.41135 0.631907 0
M  V30 1439 H 141.005 1.50433 1.05082 0
M  V30 1440 H 139.387 1.46904 3.67743 0
M  V30 1441 H 140.561 3.98338 2.31653 0
M  V30 1442 H 138.876 3.51744 2.22856 0
M  V30 1443 H 141.473 2.40275 4.77673 0
M  V30 1444 H 141.816 0.839518 4.07747 0
M  V30 1445 H 142.349 2.31477 3.23517 0
M  V30 1446 H 139.088 5.22332 3.96043 0
M  V30 1447 H 138.608 3.69193 4.72712 0
M  V30 1448 H 140.287 4.27134 4.85968 0
M  V30 1449 N 140.419 -1.14872 1.07899 0
M  V30 1450 C 141.667 -1.85422 0.803941 0
M  V30 1451 C 141.988 -1.83051 -0.67211 0
M  V30 1452 O 141.258 -1.27532 -1.48703 0
M  V30 1453 H 139.838 -0.686537 0.294408 0
M  V30 1454 H 142.5 -1.39226 1.3639 0
M  V30 1455 H 141.596 -2.90399 1.14346 0
M  V30 1456 N 141.898 -0.863906 -1.31812 0
M  V30 1457 C 142.845 -0.313303 -2.28664 0
M  V30 1458 C 143.815 0.584868 -1.55462 0
M  V30 1459 O 145 0.517805 -1.83639 0
M  V30 1460 C 142.14 0.48441 -3.41683 0
M  V30 1461 C 141.253 -0.440594 -4.29747 0
M  V30 1462 C 140.388 0.370652 -5.29905 0
M  V30 1463 C 139.427 -0.551164 -6.09613 0
M  V30 1464 N 138.564 0.223462 -7.01744 0
M  V30 1465 H 143.404 -1.14444 -2.75148 0
M  V30 1466 H 140.941 -0.575769 -1.35364 0
M  V30 1467 H 142.899 0.962627 -4.05943 0
M  V30 1468 H 141.529 1.28029 -2.96325 0
M  V30 1469 H 140.581 -1.03724 -3.65986 0
M  V30 1470 H 141.893 -1.14767 -4.85417 0
M  V30 1471 H 141.047 0.911638 -5.99812 0
M  V30 1472 H 139.786 1.11105 -4.74876 0
M  V30 1473 H 138.791 -1.10396 -5.38603 0
M  V30 1474 H 140.016 -1.29032 -6.66729 0
M  V30 1475 H 137.962 0.946787 -6.49132 0
M  V30 1476 H 137.879 -0.424399 -7.54808 0
M  V30 1477 H 139.147 0.745876 -7.75923 0
M  V30 1478 N 143.376 1.44774 -0.622745 0
M  V30 1479 C 144.323 2.30635 0.0871679 0
M  V30 1480 C 145.293 1.42994 0.845097 0
M  V30 1481 O 146.478 1.71907 0.827812 0
M  V30 1482 C 143.618 3.28144 1.06844 0
M  V30 1483 C 142.731 4.30888 0.309809 0
M  V30 1484 C 141.866 5.15494 1.28215 0
M  V30 1485 C 140.905 6.09953 0.512198 0
M  V30 1486 N 140.042 6.87287 1.43458 0
M  V30 1487 H 144.882 2.90803 -0.650974 0
M  V30 1488 H 142.419 1.43286 -0.33281 0
M  V30 1489 H 144.377 3.83157 1.65066 0
M  V30 1490 H 143.007 2.69695 1.77382 0
M  V30 1491 H 142.059 3.78414 -0.388181 0
M  V30 1492 H 143.371 4.97955 -0.290254 0
M  V30 1493 H 142.525 5.74983 1.93596 0
M  V30 1494 H 141.264 4.48481 1.91614 0
M  V30 1495 H 140.269 5.49581 -0.155151 0
M  V30 1496 H 141.494 6.78999 -0.116958 0
M  V30 1497 H 139.44 6.2295 2.05594 0
M  V30 1498 H 139.357 7.50763 0.888335 0
M  V30 1499 H 140.625 7.51306 2.07749 0
M  V30 1500 N 144.854 0.36279 1.53368 0
M  V30 1501 C 146.101 -0.227776 2.01215 0
M  V30 1502 C 146.429 -1.49003 1.25014 0
M  V30 1503 O 145.684 -1.92876 0.331236 0
M  V30 1504 C 145.983 -0.568417 3.52851 0
M  V30 1505 C 145.649 0.59918 4.46901 0
M  V30 1506 C 144.311 0.919559 4.72332 0
M  V30 1507 C 146.663 1.38156 5.02556 0
M  V30 1508 C 143.991 2.02434 5.5067 0
M  V30 1509 C 146.343 2.47674 5.821 0
M  V30 1510 C 145.007 2.8025 6.05819 0
M  V30 1511 H 144.277 -0.083349 0.736297 0
M  V30 1512 H 146.924 0.494677 1.85001 0
M  V30 1513 H 145.229 -1.37185 3.66998 0
M  V30 1514 H 146.926 -1.03756 3.87344 0
M  V30 1515 H 143.516 0.339437 4.27254 0
M  V30 1516 H 147.7 1.14729 4.82857 0
M  V30 1517 H 142.956 2.28075 5.67267 0
M  V30 1518 H 147.13 3.08716 6.24234 0
M  V30 1519 H 144.757 3.65979 6.66306 0
M  V30 1520 N 146.332 -1.57332 0.0918853 0
M  V30 1521 C 147.58 -1.93853 -0.571446 0
M  V30 1522 C 147.901 -0.974212 -1.6892 0
M  V30 1523 O 147.171 -0.0257254 -1.95883 0
M  V30 1524 H 145.751 -0.715666 -0.214082 0
M  V30 1525 H 148.413 -1.94287 0.154464 0
M  V30 1526 H 147.509 -2.96191 -0.983729 0
M  V30 1527 N 147.81 0.181792 -1.56548 0
M  V30 1528 C 148.74 1.22765 -1.98623 0
M  V30 1529 C 149.721 1.46747 -0.860189 0
M  V30 1530 O 150.906 1.58259 -1.12551 0
M  V30 1531 C 148.036 2.56894 -2.33715 0
M  V30 1532 C 146.99 2.475 -3.49182 0
M  V30 1533 C 146.316 3.86023 -3.69986 0
M  V30 1534 C 147.616 1.98866 -4.82959 0
M  V30 1535 H 149.31 0.877942 -2.86239 0
M  V30 1536 H 146.856 0.42088 -1.37712 0
M  V30 1537 H 148.809 3.30253 -2.61746 0
M  V30 1538 H 147.533 2.93632 -1.42997 0
M  V30 1539 H 146.192 1.76596 -3.21262 0
M  V30 1540 H 145.84 4.20136 -2.76576 0
M  V30 1541 H 145.54 3.80609 -4.47672 0
M  V30 1542 H 147.064 4.60984 -4.00407 0
M  V30 1543 H 148.478 2.61992 -5.09934 0
M  V30 1544 H 146.875 2.04424 -5.64208 0
M  V30 1545 H 147.945 0.942465 -4.75653 0
M  V30 1546 N 149.288 1.51039 0.449983 0
M  V30 1547 C 150.235 1.71439 1.54523 0
M  V30 1548 C 151.205 0.555871 1.56522 0
M  V30 1549 O 152.39 0.788871 1.73728 0
M  V30 1550 C 149.53 1.83384 2.92343 0
M  V30 1551 C 148.643 3.10873 2.9997 0
M  V30 1552 C 147.778 3.13488 4.28834 0
M  V30 1553 C 146.817 4.35343 4.30282 0
M  V30 1554 N 145.954 4.35579 5.5065 0
M  V30 1555 H 150.794 2.64934 1.36433 0
M  V30 1556 H 148.331 1.31312 0.662982 0
M  V30 1557 H 150.289 1.88291 3.72293 0
M  V30 1558 H 148.919 0.933086 3.0902 0
M  V30 1559 H 147.971 3.15336 2.12761 0
M  V30 1560 H 149.283 4.00814 2.96901 0
M  V30 1561 H 148.437 3.17241 5.17149 0
M  V30 1562 H 147.176 2.21414 4.34543 0
M  V30 1563 H 146.181 4.3178 3.40362 0
M  V30 1564 H 147.406 5.28668 4.26248 0
M  V30 1565 H 145.352 3.46369 5.57104 0
M  V30 1566 H 145.269 5.19313 5.49409 0
M  V30 1567 H 146.537 4.43507 6.41032 0
M  V30 1568 N 150.766 -0.704594 1.40972 0
M  V30 1569 C 152.006 -1.47691 1.41304 0
M  V30 1570 C 152.37 -1.91992 0.0178582 0
M  V30 1571 O 153.571 -2.68599 -0.103996 0
M  V30 1572 C 151.842 -2.66254 2.38419 0
M  V30 1573 S 153.401 -3.55516 2.57204 0
M  V30 1574 H 150.219 -0.504808 0.500689 0
M  V30 1575 H 152.821 -0.822962 1.77335 0
M  V30 1576 H 151.525 -2.31897 3.38603 0
M  V30 1577 H 151.056 -3.3655 2.03711 0
M  V30 1578 H 153.071 -4.61115 1.83268 0
M  V30 1579 N 152.244 -1.26651 -0.937939 0
M  V30 1580 C 153.154 -1.10276 -2.07066 0
M  V30 1581 C 154.17 -0.0354197 -1.73964 0
M  V30 1582 O 155.346 -0.239816 -1.99967 0
M  V30 1583 C 152.411 -0.740887 -3.38691 0
M  V30 1584 C 151.472 -1.88799 -3.85556 0
M  V30 1585 C 150.705 -1.54329 -5.10899 0
M  V30 1586 O 150.928 -0.446494 -5.6865 0
M  V30 1587 O 149.862 -2.37911 -5.52885 0
M  V30 1588 H 153.688 -2.05309 -2.23789 0
M  V30 1589 H 151.273 -1.05743 -1.0554 0
M  V30 1590 H 153.155 -0.55195 -4.1777 0
M  V30 1591 H 151.83 0.180022 -3.23199 0
M  V30 1592 H 150.737 -2.13191 -3.07409 0
M  V30 1593 H 152.07 -2.78874 -4.05574 0
M  V30 1594 N 153.722 1.14298 -1.08507 0
M  V30 1595 C 154.652 2.21542 -0.737646 0
M  V30 1596 C 155.633 1.67773 0.280377 0
M  V30 1597 O 156.818 1.93616 0.150521 0
M  V30 1598 C 153.948 3.46988 -0.147259 0
M  V30 1599 C 152.902 4.13789 -1.09374 0
M  V30 1600 C 152.228 5.33449 -0.365524 0
M  V30 1601 C 153.528 4.62208 -2.4323 0
M  V30 1602 H 155.222 2.5086 -1.6343 0
M  V30 1603 H 152.768 1.20576 -0.787243 0
M  V30 1604 H 154.721 4.21262 0.107808 0
M  V30 1605 H 153.445 3.17037 0.784538 0
M  V30 1606 H 152.104 3.4147 -1.33393 0
M  V30 1607 H 151.752 4.99759 0.57011 0
M  V30 1608 H 151.452 5.79088 -0.996512 0
M  V30 1609 H 152.976 6.10485 -0.118534 0
M  V30 1610 H 154.39 5.27952 -2.23472 0
M  V30 1611 H 152.787 5.18553 -3.02031 0
M  V30 1612 H 153.857 3.77224 -3.04681 0
M  V30 1613 N 155.201 0.870884 1.31352 0
M  V30 1614 C 156.131 0.343096 2.30966 0
M  V30 1615 C 157.112 -0.566507 1.60389 0
M  V30 1616 O 158.297 -0.483336 1.88089 0
M  V30 1617 C 155.427 -0.455487 3.443 0
M  V30 1618 C 154.381 0.361103 4.26474 0
M  V30 1619 C 153.707 -0.563221 5.31725 0
M  V30 1620 C 155.007 1.59566 4.97329 0
M  V30 1621 H 156.701 1.17548 2.75359 0
M  V30 1622 H 154.247 0.566686 1.32381 0
M  V30 1623 H 156.2 -0.83525 4.13039 0
M  V30 1624 H 154.924 -1.32139 2.98675 0
M  V30 1625 H 153.583 0.722825 3.59403 0
M  V30 1626 H 153.231 -1.42643 4.82351 0
M  V30 1627 H 152.931 -0.0207409 5.87596 0
M  V30 1628 H 154.455 -0.939808 6.03324 0
M  V30 1629 H 155.869 1.28728 5.58661 0
M  V30 1630 H 154.266 2.07728 5.63 0
M  V30 1631 H 155.336 2.34798 4.24262 0
M  V30 1632 N 156.679 -1.44442 0.630414 0
M  V30 1633 C 157.642 -2.29107 -0.0652523 0
M  V30 1634 C 158.642 -1.41002 -0.772995 0
M  V30 1635 O 159.832 -1.62881 -0.617692 0
M  V30 1636 C 156.964 -3.22564 -1.10296 0
M  V30 1637 H 158.157 -2.92103 0.679401 0
M  V30 1638 H 155.71 -1.51343 0.390517 0
M  V30 1639 H 156.445 -2.64416 -1.87762 0
M  V30 1640 H 156.23 -3.87491 -0.59941 0
M  V30 1641 H 157.72 -3.86167 -1.5895 0
M  V30 1642 N 158.157 -0.370918 -1.53173 0
M  V30 1643 C 159.104 0.473035 -2.259 0
M  V30 1644 C 160.074 1.07311 -1.26781 0
M  V30 1645 O 161.259 1.1046 -1.55574 0
M  V30 1646 C 158.399 1.60405 -3.05556 0
M  V30 1647 C 157.512 1.02863 -4.19575 0
M  V30 1648 C 156.647 2.12918 -4.86661 0
M  V30 1649 C 155.686 1.52869 -5.92704 0
M  V30 1650 N 154.823 2.56779 -6.53459 0
M  V30 1651 H 159.663 -0.153649 -2.97604 0
M  V30 1652 H 157.2 -0.0875946 -1.46839 0
M  V30 1653 H 159.158 2.27034 -3.50016 0
M  V30 1654 H 157.788 2.20131 -2.36097 0
M  V30 1655 H 156.84 0.252465 -3.79561 0
M  V30 1656 H 158.152 0.549642 -4.95762 0
M  V30 1657 H 157.306 2.87356 -5.34333 0
M  V30 1658 H 156.045 2.6417 -4.09958 0
M  V30 1659 H 155.05 0.769479 -5.44389 0
M  V30 1660 H 156.275 1.02435 -6.7133 0
M  V30 1661 H 154.221 3.07235 -5.79606 0
M  V30 1662 H 154.138 2.13583 -7.25202 0
M  V30 1663 H 155.406 3.30903 -7.05779 0
M  V30 1664 N 159.635 1.57281 -0.100228 0
M  V30 1665 C 160.875 1.96419 0.56558 0
M  V30 1666 C 161.239 0.981265 1.65031 0
M  V30 1667 O 162.44 1.26133 2.37369 0
M  V30 1668 C 160.711 3.39996 1.10171 0
M  V30 1669 S 162.27 4.01134 1.77867 0
M  V30 1670 H 159.088 0.68667 0.184406 0
M  V30 1671 H 161.69 1.94662 -0.180851 0
M  V30 1672 H 160.394 4.09296 0.300803 0
M  V30 1673 H 159.925 3.45361 1.88385 0
M  V30 1674 H 161.94 3.90358 3.06326 0
M  V30 1675 N 161.113 -0.173488 1.56642 0
M  V30 1676 C 162.023 -1.23482 1.99473 0
M  V30 1677 C 163.039 -1.48567 0.905752 0
M  V30 1678 O 164.215 -1.60758 1.21321 0
M  V30 1679 C 161.28 -2.55444 2.34413 0
M  V30 1680 C 160.341 -2.38241 3.57127 0
M  V30 1681 C 159.574 -3.63909 3.90392 0
M  V30 1682 O 159.797 -4.68996 3.24653 0
M  V30 1683 O 158.731 -3.58149 4.83749 0
M  V30 1684 H 162.557 -0.901279 2.90018 0
M  V30 1685 H 160.142 -0.380185 1.44482 0
M  V30 1686 H 162.024 -3.33292 2.57865 0
M  V30 1687 H 160.699 -2.88382 1.4703 0
M  V30 1688 H 159.606 -1.58431 3.38896 0
M  V30 1689 H 160.939 -2.10228 4.45045 0
M  V30 1690 N 162.591 -1.51276 -0.441967 0
M  V30 1691 C 163.838 -1.63715 -1.19179 0
M  V30 1692 C 164.166 -0.351175 -1.91303 0
M  V30 1693 O 163.421 0.664524 -1.84072 0
M  V30 1694 C 163.72 -2.78746 -2.23686 0
M  V30 1695 C 163.386 -4.18189 -1.68607 0
M  V30 1696 C 162.048 -4.56125 -1.53308 0
M  V30 1697 C 164.4 -5.05222 -1.28062 0
M  V30 1698 C 161.728 -5.78804 -0.959317 0
M  V30 1699 C 164.08 -6.28476 -0.721162 0
M  V30 1700 C 162.744 -6.65188 -0.55504 0
M  V30 1701 H 162.014 -0.599076 -0.436106 0
M  V30 1702 H 164.661 -1.85296 -0.48351 0
M  V30 1703 H 162.966 -2.51369 -3.00535 0
M  V30 1704 H 164.663 -2.8557 -2.81515 0
M  V30 1705 H 161.253 -3.88277 -1.8149 0
M  V30 1706 H 165.437 -4.76524 -1.38704 0
M  V30 1707 H 160.693 -6.05899 -0.81833 0
M  V30 1708 H 164.867 -6.95259 -0.398458 0
M  V30 1709 H 162.494 -7.60123 -0.108311 0
M  V30 1710 N 164.069 0.697108 -1.41344 0
M  V30 1711 C 165.316 1.45714 -1.40619 0
M  V30 1712 C 165.644 1.94494 -0.0147907 0
M  V30 1713 O 164.899 1.69794 0.973066 0
M  V30 1714 C 165.198 2.68553 -2.35826 0
M  V30 1715 C 164.864 2.38438 -3.82698 0
M  V30 1716 C 163.526 2.29936 -4.22709 0
M  V30 1717 C 165.878 2.13567 -4.75435 0
M  V30 1718 C 163.206 1.94656 -5.53467 0
M  V30 1719 C 165.558 1.79797 -6.06511 0
M  V30 1720 C 164.222 1.69789 -6.45545 0
M  V30 1721 H 163.492 0.533206 -0.51456 0
M  V30 1722 H 166.139 0.796901 -1.74131 0
M  V30 1723 H 164.444 3.39503 -1.95563 0
M  V30 1724 H 166.141 3.2669 -2.32539 0
M  V30 1725 H 162.731 2.4595 -3.51008 0
M  V30 1726 H 166.915 2.19082 -4.45328 0
M  V30 1727 H 162.171 1.8546 -5.82593 0
M  V30 1728 H 166.345 1.59572 -6.77872 0
M  V30 1729 H 163.972 1.4222 -7.46778 0
M  V30 1730 N 165.547 1.27147 0.931209 0
M  V30 1731 C 166.495 1.09398 2.05268 0
M  V30 1732 C 167.489 0.0180591 1.6939 0
M  V30 1733 O 168.695 0.17551 1.79142 0
M  V30 1734 H 165.07 0.336986 0.672268 0
M  V30 1735 H 167.041 2.04416 2.17386 0
M  V30 1736 C 165.79 0.75424 3.39421 0
M  V30 1737 H 165.113 1.57404 3.67511 0
M  V30 1738 H 166.553 0.669903 4.18674 0
M  V30 1739 C 165.012 -0.541197 3.32525 0
M  V30 1740 O 165.542 -1.57664 3.69466 0
M  V30 1741 N 163.748 -0.535517 2.85623 0
M  V30 1742 H 163.295 0.307511 2.55758 0
M  V30 1743 H 163.253 -1.40236 2.81392 0
M  V30 1744 N 167.025 -1.13721 1.09112 0
M  V30 1745 C 167.988 -2.17222 0.731241 0
M  V30 1746 C 168.988 -1.59035 -0.237566 0
M  V30 1747 O 170.178 -1.74192 -0.0161704 0
M  V30 1748 C 167.31 -3.40804 0.0808443 0
M  V30 1749 H 168.503 -2.50573 1.64783 0
M  V30 1750 H 166.056 -1.28493 0.889897 0
M  V30 1751 H 166.791 -3.1304 -0.847127 0
M  V30 1752 H 166.576 -3.84306 0.777896 0
M  V30 1753 H 168.066 -4.1731 -0.155657 0
M  V30 1754 N 168.503 -0.877838 -1.30888 0
M  V30 1755 C 169.751 -0.491723 -1.96027 0
M  V30 1756 C 170.072 0.960827 -1.69685 0
M  V30 1757 O 169.342 1.67462 -1.01654 0
M  V30 1758 H 167.922 -0.17885 -0.725273 0
M  V30 1759 H 170.584 -1.11935 -1.59551 0
M  V30 1760 H 169.68 -0.656016 -3.05128 0
M  V30 1761 N 169.982 1.44106 -0.638065 0
M  V30 1762 C 171.23 2.01579 -0.145043 0
M  V30 1763 C 171.551 1.50496 1.24 0
M  V30 1764 O 170.821 0.711374 1.82527 0
M  V30 1765 H 169.401 0.745282 -0.05063 0
M  V30 1766 H 172.063 1.76516 -0.826327 0
M  V30 1767 H 171.159 3.11877 -0.118039 0
M  V30 1768 N 171.46 0.379036 1.52974 0
M  V30 1769 C 172.685 -0.209353 2.06341 0
M  V30 1770 C 173.11 -1.40583 1.24972 0
M  V30 1771 O 172.468 -1.79246 0.272155 0
M  V30 1772 C 172.516 -0.567786 3.56102 0
M  V30 1773 O 171.62 -1.66318 3.77375 0
M  V30 1774 H 170.961 -0.0272919 0.663439 0
M  V30 1775 H 173.491 0.543536 1.97248 0
M  V30 1776 H 173.501 -0.835003 3.99364 0
M  V30 1777 H 172.176 0.307013 4.14765 0
M  V30 1778 H 170.753 -1.39048 3.46006 0
M  V30 1779 N 172.938 -1.57226 0.108567 0
M  V30 1780 C 174.184 -1.95121 -0.552761 0
M  V30 1781 C 174.517 -0.991345 -1.66991 0
M  V30 1782 O 173.792 -0.0267211 -1.94482 0
M  V30 1783 C 174.075 -3.43039 -1.09528 0
M  V30 1784 C 173.928 -4.49797 0.0177332 0
M  V30 1785 C 175.247 -3.92567 -1.98945 0
M  V30 1786 H 172.366 -0.709496 -0.199461 0
M  V30 1787 H 175.008 -1.89126 0.182011 0
M  V30 1788 H 173.158 -3.48279 -1.72146 0
M  V30 1789 H 174.83 -4.56661 0.652584 0
M  V30 1790 H 173.073 -4.284 0.682309 0
M  V30 1791 H 173.744 -5.50528 -0.402919 0
M  V30 1792 H 176.22 -3.89565 -1.46214 0
M  V30 1793 H 175.096 -4.96605 -2.33827 0
M  V30 1794 H 175.357 -3.32648 -2.91201 0
M  V30 1795 N 174.416 0.165178 -1.56732 0
M  V30 1796 C 175.363 1.2044 -1.96883 0
M  V30 1797 C 176.333 1.43664 -0.833657 0
M  V30 1798 O 177.518 1.56302 -1.09427 0
M  V30 1799 C 174.658 2.53727 -2.33916 0
M  V30 1800 C 173.771 2.3783 -3.6064 0
M  V30 1801 C 172.906 3.64026 -3.86857 0
M  V30 1802 C 171.945 3.43088 -5.06909 0
M  V30 1803 N 171.082 4.61369 -5.29229 0
M  V30 1804 H 175.922 0.854996 -2.85471 0
M  V30 1805 H 173.459 0.41076 -1.41249 0
M  V30 1806 H 175.417 3.31419 -2.53411 0
M  V30 1807 H 174.047 2.8665 -1.48431 0
M  V30 1808 H 173.099 1.51282 -3.49024 0
M  V30 1809 H 174.411 2.18308 -4.4849 0
M  V30 1810 H 173.565 4.50152 -4.06753 0
M  V30 1811 H 172.304 3.86533 -2.97394 0
M  V30 1812 H 171.309 2.55349 -4.86906 0
M  V30 1813 H 172.534 3.21997 -5.97909 0
M  V30 1814 H 170.48 4.84084 -4.42718 0
M  V30 1815 H 170.397 4.44783 -6.11313 0
M  V30 1816 H 171.665 5.48761 -5.53608 0
M  V30 1817 N 175.894 1.51508 0.433938 0
M  V30 1818 C 177.171 1.54888 1.19453 0
M  V30 1819 C 177.551 0.315154 2.08734 0
M  V30 1820 O 176.899 -0.699558 2.17528 0
M  V30 1821 C 177.109 2.86467 1.99342 0
M  V30 1822 C 178.457 3.38545 2.56267 0
M  V30 1823 O 179.481 2.88041 2.0955 0
M  V30 1824 O 178.34 4.26675 3.41483 0
M  V30 1825 H 175.434 0.622863 0.544032 0
M  V30 1826 H 177.98 1.63823 0.442732 0
M  V30 1827 H 176.752 3.67718 1.33788 0
M  V30 1828 H 176.375 2.8071 2.8158 0
M  V30 1829 N 177.372 -0.689602 1.41712 0
M  V30 1830 C 178.788 -1.00093 1.24312 0
M  V30 1831 C 178.988 -2.01036 0.136729 0
M  V30 1832 O 178.044 -2.47562 -0.496918 0
M  V30 1833 C 179.357 -1.51985 2.59463 0
M  V30 1834 C 180.905 -1.63838 2.66695 0
M  V30 1835 C 181.38 -2.1913 4.02177 0
M  V30 1836 N 182.871 -2.26483 4.04054 0
M  V30 1837 C 183.606 -2.70306 5.0569 0
M  V30 1838 N 183.102 -3.13691 6.17713 0
M  V30 1839 N 184.895 -2.69923 4.9305 0
M  V30 1840 H 177.046 -0.0210029 2.1239 0
M  V30 1841 H 179.309 -0.0718733 0.945272 0
M  V30 1842 H 179.015 -0.85269 3.41207 0
M  V30 1843 H 178.889 -2.50103 2.82362 0
M  V30 1844 H 181.276 -2.29664 1.85306 0
M  V30 1845 H 181.357 -0.642492 2.476 0
M  V30 1846 H 181.001 -1.53918 4.84016 0
M  V30 1847 H 180.931 -3.19482 4.18615 0
M  V30 1848 H 183.422 -1.95874 3.23174 0
M  V30 1849 H 183.735 -3.45773 6.9113 0
M  V30 1850 H 182.08 -3.11585 6.21241 0
M  V30 1851 H 185.271 -2.35382 4.04614 0
M  V30 1852 H 185.444 -3.03758 5.72394 0
M  V30 1853 N 178.85 -1.27639 -0.924453 0
M  V30 1854 C 180.099 -1.13549 -1.66702 0
M  V30 1855 C 180.412 0.317487 -1.93006 0
M  V30 1856 O 181.618 0.579333 -2.65247 0
M  V30 1857 C 180.074 -1.98426 -3.00259 0
M  V30 1858 C 179.682 -3.484 -2.81641 0
M  V30 1859 C 181.426 -1.92993 -3.78092 0
M  V30 1860 C 179.333 -4.25464 -4.10773 0
M  V30 1861 H 178.263 -0.421351 -0.625283 0
M  V30 1862 H 180.914 -1.52085 -1.02676 0
M  V30 1863 H 179.296 -1.52736 -3.6536 0
M  V30 1864 H 180.47 -4.01973 -2.25287 0
M  V30 1865 H 178.785 -3.55245 -2.17232 0
M  V30 1866 H 181.382 -2.47844 -4.7379 0
M  V30 1867 H 181.725 -0.904281 -4.0636 0
M  V30 1868 H 182.258 -2.36595 -3.19793 0
M  V30 1869 H 178.997 -5.28566 -3.87683 0
M  V30 1870 H 178.517 -3.76667 -4.66779 0
M  V30 1871 H 180.196 -4.34812 -4.79111 0
M  V30 1872 N 180.328 1.1314 -1.09713 0
M  V30 1873 C 181.553 1.88862 -0.857081 0
M  V30 1874 C 181.978 1.78729 0.586304 0
M  V30 1875 O 181.336 1.13692 1.41222 0
M  V30 1876 C 181.384 3.36325 -1.30069 0
M  V30 1877 O 180.488 4.09815 -0.461007 0
M  V30 1878 H 179.829 0.587108 -0.310162 0
M  V30 1879 H 182.359 1.43129 -1.46203 0
M  V30 1880 H 182.369 3.87157 -1.28738 0
M  V30 1881 H 181.044 3.43017 -2.35185 0
M  V30 1882 H 179.621 3.68986 -0.538888 0
M  V30 1883 N 181.806 0.884767 1.30421 0
M  V30 1884 C 182.736 0.367574 2.30589 0
M  V30 1885 C 183.717 -0.549464 1.60981 0
M  V30 1886 O 184.902 -0.46336 1.88591 0
M  V30 1887 C 182.032 -0.418944 3.44764 0
M  V30 1888 C 180.986 0.406316 4.26067 0
M  V30 1889 C 180.312 -0.506793 5.32293 0
M  V30 1890 C 181.612 1.64832 4.95608 0
M  V30 1891 H 183.306 1.20462 2.74097 0
M  V30 1892 H 180.852 0.580695 1.31772 0
M  V30 1893 H 182.805 -0.791395 4.13902 0
M  V30 1894 H 181.529 -1.28964 3.0006 0
M  V30 1895 H 180.188 0.760903 3.58617 0
M  V30 1896 H 179.836 -1.37519 4.83836 0
M  V30 1897 H 179.536 0.0415828 5.87585 0
M  V30 1898 H 181.06 -0.875764 6.04287 0
M  V30 1899 H 182.474 1.34646 5.57264 0
M  V30 1900 H 180.871 2.13688 5.60765 0
M  V30 1901 H 181.941 2.39284 4.21748 0
M  V30 1902 N 183.284 -1.43765 0.645699 0
M  V30 1903 C 184.7 -1.56509 0.312591 0
M  V30 1904 C 184.9 -1.6307 -1.18365 0
M  V30 1905 O 183.956 -1.58167 -1.96824 0
M  V30 1906 C 185.269 -2.82968 1.01733 0
M  V30 1907 C 186.817 -2.96701 0.996865 0
M  V30 1908 C 187.292 -4.25982 1.68236 0
M  V30 1909 N 188.783 -4.32829 1.64964 0
M  V30 1910 C 189.518 -5.31613 2.14885 0
M  V30 1911 N 189.014 -6.36718 2.73061 0
M  V30 1912 N 190.807 -5.23217 2.05428 0
M  V30 1913 H 182.958 -1.3775 1.61675 0
M  V30 1914 H 185.221 -0.661067 0.679481 0
M  V30 1915 H 184.927 -2.84156 2.0724 0
M  V30 1916 H 184.801 -3.72957 0.564177 0
M  V30 1917 H 187.188 -2.95058 -0.0497719 0
M  V30 1918 H 187.269 -2.08022 1.48865 0
M  V30 1919 H 186.913 -4.28386 2.72852 0
M  V30 1920 H 186.843 -5.13545 1.16529 0
M  V30 1921 H 189.334 -3.57493 1.22503 0
M  V30 1922 H 189.647 -7.08401 3.08848 0
M  V30 1923 H 187.992 -6.37362 2.77118 0
M  V30 1924 H 191.183 -4.40019 1.59689 0
M  V30 1925 H 191.356 -6.00045 2.44643 0
M  V30 1926 N 184.763 -0.387143 -1.52771 0
M  V30 1927 C 185.696 0.493123 -2.22808 0
M  V30 1928 C 186.674 1.0658 -1.22798 0
M  V30 1929 O 187.858 1.11785 -1.51777 0
M  V30 1930 C 184.985 1.68238 -2.93962 0
M  V30 1931 C 184.031 1.23515 -4.08223 0
M  V30 1932 S 184.864 0.21848 -5.35054 0
M  V30 1933 C 186.02 1.41357 -6.09729 0
M  V30 1934 H 186.253 -0.101625 -2.97126 0
M  V30 1935 H 183.786 -0.171323 -1.53447 0
M  V30 1936 H 185.744 2.36443 -3.35567 0
M  V30 1937 H 184.405 2.24842 -2.19328 0
M  V30 1938 H 183.598 2.12304 -4.57103 0
M  V30 1939 H 183.2 0.632044 -3.68621 0
M  V30 1940 H 185.492 2.34101 -6.3577 0
M  V30 1941 H 186.435 0.965736 -7.01484 0
M  V30 1942 H 186.843 1.6294 -5.40473 0
M  V30 1943 N 186.241 1.57166 -0.116904 0
M  V30 1944 C 187.49 1.94298 0.541407 0
M  V30 1945 C 187.803 1.00236 1.67964 0
M  V30 1946 O 189.009 1.26826 2.40057 0
M  V30 1947 C 187.465 3.45306 1.01449 0
M  V30 1948 C 187.073 4.47899 -0.0951738 0
M  V30 1949 C 188.817 3.91361 1.6443 0
M  V30 1950 C 186.724 5.90083 0.394491 0
M  V30 1951 H 185.654 0.725308 0.206019 0
M  V30 1952 H 188.305 1.82446 -0.196419 0
M  V30 1953 H 186.687 3.52385 1.80667 0
M  V30 1954 H 187.861 4.52486 -0.871374 0
M  V30 1955 H 186.176 4.11583 -0.631505 0
M  V30 1956 H 188.773 4.95004 2.02176 0
M  V30 1957 H 189.116 3.3122 2.52189 0
M  V30 1958 H 189.649 3.87073 0.917559 0
M  V30 1959 H 186.388 6.53974 -0.447004 0
M  V30 1960 H 185.908 5.88921 1.13722 0
M  V30 1961 H 187.587 6.41307 0.856399 0
M  V30 1962 N 187.719 -0.156864 1.56817 0
M  V30 1963 C 188.629 -1.2136 2.00771 0
M  V30 1964 C 189.645 -1.47598 0.921459 0
M  V30 1965 O 190.821 -1.59462 1.2302 0
M  V30 1966 C 187.886 -2.52943 2.37109 0
M  V30 1967 C 186.947 -2.34439 3.59634 0
M  V30 1968 C 186.18 -3.59748 3.94229 0
M  V30 1969 O 186.403 -4.65526 3.29609 0
M  V30 1970 O 185.337 -3.52998 4.8752 0
M  V30 1971 H 189.163 -0.870468 2.90958 0
M  V30 1972 H 186.748 -0.36484 1.44877 0
M  V30 1973 H 188.63 -3.30538 2.61386 0
M  V30 1974 H 187.305 -2.86806 1.5008 0
M  V30 1975 H 186.212 -1.54828 3.40557 0
M  V30 1976 H 187.545 -2.05496 4.4725 0
M  V30 1977 N 189.197 -1.51736 -0.425897 0
M  V30 1978 C 190.474 -1.55519 -1.1863 0
M  V30 1979 C 190.854 -0.326219 -2.08564 0
M  V30 1980 O 190.202 0.688012 -2.17896 0
M  V30 1981 C 190.412 -2.87521 -1.9782 0
M  V30 1982 C 191.76 -3.39899 -2.54468 0
M  V30 1983 O 192.784 -2.89148 -2.08019 0
M  V30 1984 O 191.643 -4.2848 -3.39215 0
M  V30 1985 H 188.737 -0.625739 -0.540721 0
M  V30 1986 H 191.283 -1.64055 -0.434038 0
M  V30 1987 H 190.055 -3.68422 -1.31836 0
M  V30 1988 H 189.678 -2.822 -2.80088 0
M  V30 1989 N 190.675 0.682077 -1.42076 0
M  V30 1990 C 191.638 1.77756 -1.44691 0
M  V30 1991 C 192.638 1.5726 -0.335535 0
M  V30 1992 O 193.828 1.63686 -0.596037 0
M  V30 1993 C 190.96 3.16301 -1.27146 0
M  V30 1994 H 192.153 1.76826 -2.42224 0
M  V30 1995 H 189.706 0.891012 -1.28416 0
M  V30 1996 H 190.441 3.22862 -0.305075 0
M  V30 1997 H 190.226 3.32581 -2.07683 0
M  V30 1998 H 191.716 3.96241 -1.31843 0
M  V30 1999 N 192.153 1.28127 0.917671 0
M  V30 2000 C 193.063 1.13556 2.05286 0
M  V30 2001 C 194.079 0.0630914 1.73886 0
M  V30 2002 O 195.255 0.271598 1.9956 0
M  V30 2003 C 192.32 0.794676 3.3747 0
M  V30 2004 C 191.381 1.94909 3.82504 0
M  V30 2005 C 190.614 1.62437 5.0838 0
M  V30 2006 O 190.837 0.536905 5.67867 0
M  V30 2007 O 189.771 2.46677 5.4903 0
M  V30 2008 H 193.597 2.08844 2.20495 0
M  V30 2009 H 191.182 1.07409 1.03845 0
M  V30 2010 H 193.064 0.618344 4.16839 0
M  V30 2011 H 191.739 -0.128581 3.23445 0
M  V30 2012 H 190.646 2.18055 3.03978 0
M  V30 2013 H 191.979 2.85291 4.01086 0
M  V30 2014 N 193.631 -1.12557 1.10312 0
M  V30 2015 C 195.047 -1.36036 0.834649 0
M  V30 2016 C 195.247 -1.93946 -0.546539 0
M  V30 2017 O 194.303 -2.16484 -1.29966 0
M  V30 2018 C 195.616 -2.30312 1.9333 0
M  V30 2019 C 197.164 -2.43906 1.9616 0
M  V30 2020 C 197.639 -3.41496 3.05195 0
M  V30 2021 N 199.13 -3.49053 3.04494 0
M  V30 2022 C 199.865 -4.24471 3.85502 0
M  V30 2023 N 199.361 -5.02966 4.76442 0
M  V30 2024 N 201.154 -4.19864 3.73725 0
M  V30 2025 H 193.305 -0.733246 1.99342 0
M  V30 2026 H 195.568 -0.385234 0.866198 0
M  V30 2027 H 195.274 -1.94933 2.92735 0
M  V30 2028 H 195.148 -3.30421 1.81939 0
M  V30 2029 H 197.535 -2.78567 0.973886 0
M  V30 2030 H 197.616 -1.4369 2.11629 0
M  V30 2031 H 197.26 -3.07565 4.04186 0
M  V30 2032 H 197.19 -4.41539 2.86968 0
M  V30 2033 H 199.681 -2.93053 2.38596 0
M  V30 2034 H 199.994 -5.57846 5.34815 0
M  V30 2035 H 198.339 -5.02167 4.80472 0
M  V30 2036 H 201.53 -3.57623 3.02032 0
M  V30 2037 H 201.703 -4.78386 4.37093 0
M  V30 2038 N 195.109 -0.891671 -1.2995 0
M  V30 2039 C 196.386 -0.433307 -1.9074 0
M  V30 2040 C 196.766 1.08646 -1.80995 0
M  V30 2041 O 196.114 1.92476 -1.23147 0
M  V30 2042 C 196.324 -0.938895 -3.36134 0
M  V30 2043 C 197.672 -0.977829 -4.13187 0
M  V30 2044 O 198.696 -0.886015 -3.45005 0
M  V30 2045 O 197.555 -1.11453 -5.35015 0
M  V30 2046 H 194.649 -0.133699 -0.816121 0
M  V30 2047 H 197.195 -0.981011 -1.38471 0
M  V30 2048 H 195.967 -1.98281 -3.37343 0
M  V30 2049 H 195.59 -0.37074 -3.95868 0
M  V30 2050 N 196.587 1.43421 -0.653314 0
M  V30 2051 C 197.835 2.01414 -0.166415 0
M  V30 2052 C 198.156 1.51803 1.22397 0
M  V30 2053 O 197.426 0.730693 1.81763 0
M  V30 2054 H 196.006 0.744703 -0.0585319 0
M  V30 2055 H 198.668 1.75629 -0.845003 0
M  V30 2056 H 197.764 3.11734 -0.151111 0
M  V30 2057 N 198.065 0.39524 1.52563 0
M  V30 2058 C 199.293 -0.184943 2.06072 0
M  V30 2059 C 199.708 -1.40021 1.26647 0
M  V30 2060 O 199.065 -1.79767 0.314672 0
M  V30 2061 C 199.116 -0.549179 3.57304 0
M  V30 2062 O 198.837 0.617813 4.33722 0
M  V30 2063 C 200.338 -1.18459 4.2718 0
M  V30 2064 H 197.558 -0.0265025 0.670476 0
M  V30 2065 H 200.102 0.562184 1.96621 0
M  V30 2066 H 198.257 -1.2462 3.66809 0
M  V30 2067 H 198.671 0.317091 5.23541 0
M  V30 2068 H 200.145 -1.38976 5.34219 0
M  V30 2069 H 200.622 -2.15368 3.82771 0
M  V30 2070 H 201.228 -0.528163 4.22008 0
M  V30 2071 N 199.544 -1.57102 0.125237 0
M  V30 2072 C 200.474 -2.18659 -0.819174 0
M  V30 2073 C 201.455 -1.12843 -1.27281 0
M  V30 2074 O 202.64 -1.41104 -1.33429 0
M  V30 2075 C 199.77 -2.79096 -2.06695 0
M  V30 2076 C 198.724 -3.90548 -1.75088 0
M  V30 2077 C 198.05 -4.37821 -3.06948 0
M  V30 2078 C 199.35 -5.12356 -1.01435 0
M  V30 2079 H 201.044 -2.9783 -0.306202 0
M  V30 2080 H 198.59 -1.4326 -0.145839 0
M  V30 2081 H 200.543 -3.2082 -2.73226 0
M  V30 2082 H 199.267 -1.97223 -2.60328 0
M  V30 2083 H 197.926 -3.49409 -1.10944 0
M  V30 2084 H 197.574 -3.52799 -3.58527 0
M  V30 2085 H 197.274 -5.12982 -2.86571 0
M  V30 2086 H 198.798 -4.822 -3.74587 0
M  V30 2087 H 200.212 -5.5106 -1.58132 0
M  V30 2088 H 198.609 -5.9314 -0.911319 0
M  V30 2089 H 199.679 -4.849 -0.00218681 0
M  V30 2090 N 201.022 0.148545 -1.56898 0
M  V30 2091 C 201.969 1.18345 -1.98149 0
M  V30 2092 C 202.939 1.42772 -0.848848 0
M  V30 2093 O 204.124 1.55132 -1.11079 0
M  V30 2094 C 201.264 2.51231 -2.36594 0
M  V30 2095 C 200.377 2.33991 -3.63142 0
M  V30 2096 C 199.512 3.59902 -3.90697 0
M  V30 2097 C 198.551 3.37692 -5.1052 0
M  V30 2098 N 197.688 4.5573 -5.34092 0
M  V30 2099 H 202.528 0.82467 -2.86362 0
M  V30 2100 H 200.065 0.395756 -1.41676 0
M  V30 2101 H 202.023 3.28713 -2.56912 0
M  V30 2102 H 200.653 2.85059 -1.51463 0
M  V30 2103 H 199.705 1.47572 -3.50609 0
M  V30 2104 H 201.017 2.13539 -4.5078 0
M  V30 2105 H 200.171 4.45813 -4.11505 0
M  V30 2106 H 198.91 3.83357 -3.01477 0
M  V30 2107 H 197.915 2.5017 -4.89587 0
M  V30 2108 H 199.14 3.15637 -6.0129 0
M  V30 2109 H 197.086 4.79361 -4.47827 0
M  V30 2110 H 197.003 4.38274 -6.15996 0
M  V30 2111 H 198.271 5.42858 -5.59397 0
M  V30 2112 N 202.5 1.5196 0.417844 0
M  V30 2113 C 203.911 1.57851 0.997 0
M  V30 2114 C 204.262 0.413714 1.91789 0
M  V30 2115 O 203.387 -0.467057 2.113 0
M  V30 2116 C 203.982 2.86085 1.81496 0
M  V30 2117 C 202.541 2.94483 2.34428 0
M  V30 2118 C 201.688 2.52707 1.14169 0
M  V30 2119 H 204.639 1.57455 0.198392 0
M  V30 2120 H 204.66 2.70947 2.67148 0
M  V30 2121 H 204.172 3.70842 1.14446 0
M  V30 2122 H 202.273 2.142 3.04875 0
M  V30 2123 H 202.386 3.98546 2.65891 0
M  V30 2124 H 200.75 2.06353 1.49301 0
M  V30 2125 H 201.533 3.39828 0.486999 0
M  V30 2126 N 203.978 -0.674533 1.42435 0
M  V30 2127 C 205.226 -1.43175 1.42637 0
M  V30 2128 C 205.547 -1.94951 0.0438992 0
M  V30 2129 O 204.817 -1.7308 -0.917607 0
M  V30 2130 H 203.397 -0.531307 0.525092 0
M  V30 2131 H 206.059 -0.797006 1.77859 0
M  V30 2132 H 205.155 -2.28463 2.12629 0
M  V30 2133 N 205.456 -1.28612 -0.910864 0
M  V30 2134 C 206.733 -1.06632 -1.63979 0
M  V30 2135 C 207.113 0.393351 -2.07403 0
M  V30 2136 O 206.461 1.37999 -1.82122 0
M  V30 2137 C 206.671 -2.0436 -2.8291 0
M  V30 2138 C 208.019 -2.34666 -3.5386 0
M  V30 2139 O 209.043 -2.02467 -2.93062 0
M  V30 2140 O 207.902 -2.89631 -4.63439 0
M  V30 2141 H 204.996 -0.407737 -0.7195 0
M  V30 2142 H 207.542 -1.39942 -0.959914 0
M  V30 2143 H 206.314 -3.02727 -2.47936 0
M  V30 2144 H 205.937 -1.71714 -3.58609 0
M  V30 2145 N 206.934 1.1197 -1.10907 0
M  V30 2146 C 208.162 1.87402 -0.876824 0
M  V30 2147 C 208.577 1.79894 0.573025 0
M  V30 2148 O 207.934 1.17629 1.39534 0
M  V30 2149 C 207.985 3.36428 -1.32282 0
M  V30 2150 O 207.706 3.43765 -2.71582 0
M  V30 2151 C 209.207 4.28783 -1.12518 0
M  V30 2152 H 206.427 0.592793 -0.314384 0
M  V30 2153 H 208.971 1.41649 -1.47499 0
M  V30 2154 H 207.126 3.79706 -0.768229 0
M  V30 2155 H 207.54 4.3652 -2.90776 0
M  V30 2156 H 209.014 5.31613 -1.48633 0
M  V30 2157 H 209.491 4.39153 -0.0642394 0
M  V30 2158 H 210.097 3.91291 -1.66648 0
M  V30 2159 N 208.412 0.89855 1.29475 0
M  V30 2160 C 209.661 0.519863 1.94885 0
M  V30 2161 C 209.974 -0.9383 1.71625 0
M  V30 2162 O 211.18 -1.42445 2.31131 0
M  V30 2163 C 209.636 0.878836 3.49005 0
M  V30 2164 C 209.244 2.35569 3.81066 0
M  V30 2165 C 210.988 0.570004 4.20656 0
M  V30 2166 C 208.895 2.65558 5.28425 0
M  V30 2167 H 207.825 0.190692 0.729488 0
M  V30 2168 H 210.476 1.09539 1.47219 0
M  V30 2169 H 208.858 0.232253 3.95318 0
M  V30 2170 H 210.032 3.04773 3.45616 0
M  V30 2171 H 208.347 2.63343 3.22552 0
M  V30 2172 H 210.944 0.770925 5.29113 0
M  V30 2173 H 211.287 -0.491404 4.1339 0
M  V30 2174 H 211.82 1.17438 3.8007 0
M  V30 2175 H 208.559 3.70493 5.40754 0
M  V30 2176 H 208.079 2.00977 5.65127 0
M  V30 2177 H 209.758 2.51765 5.96006 0
M  V30 2178 N 209.89 -1.43072 0.660911 0
M  V30 2179 C 211.139 -2.00942 0.174735 0
M  V30 2180 C 211.452 -1.52797 -1.22117 0
M  V30 2181 O 212.658 -2.02991 -1.80297 0
M  V30 2182 C 211.114 -3.58948 0.261559 0
M  V30 2183 C 210.722 -4.16085 1.66064 0
M  V30 2184 C 212.466 -4.24173 -0.166617 0
M  V30 2185 C 210.373 -5.6641 1.70098 0
M  V30 2186 H 209.303 -0.751483 0.0615631 0
M  V30 2187 H 211.954 -1.63955 0.824069 0
M  V30 2188 H 210.336 -3.93372 -0.455421 0
M  V30 2189 H 211.51 -3.93147 2.40359 0
M  V30 2190 H 209.825 -3.6326 2.03546 0
M  V30 2191 H 212.422 -5.34471 -0.156433 0
M  V30 2192 H 212.765 -3.98647 -1.19943 0
M  V30 2193 H 213.298 -3.94659 0.498875 0
M  V30 2194 H 210.037 -5.96715 2.71315 0
M  V30 2195 H 209.557 -5.91382 1.00139 0
M  V30 2196 H 211.236 -6.30585 1.44816 0
M  V30 2197 N 211.368 -0.403325 -1.52352 0
M  V30 2198 C 212.278 0.432009 -2.30588 0
M  V30 2199 C 213.294 1.05884 -1.38075 0
M  V30 2200 O 214.47 1.06161 -1.71148 0
M  V30 2201 C 211.535 1.53669 -3.10784 0
M  V30 2202 C 210.596 0.933525 -4.19027 0
M  V30 2203 C 209.829 1.98557 -4.9539 0
M  V30 2204 O 210.052 3.20283 -4.71991 0
M  V30 2205 O 208.986 1.59504 -5.80381 0
M  V30 2206 H 212.812 -0.205739 -3.03002 0
M  V30 2207 H 210.397 -0.166675 -1.48467 0
M  V30 2208 H 212.279 2.17814 -3.60742 0
M  V30 2209 H 210.954 2.15915 -2.41169 0
M  V30 2210 H 209.861 0.254954 -3.7323 0
M  V30 2211 H 211.194 0.35508 -4.90918 0
M  V30 2212 N 212.846 1.57033 -0.133567 0
M  V30 2213 C 214.257 1.82593 0.389464 0
M  V30 2214 C 214.608 1.05156 1.6564 0
M  V30 2215 O 213.733 0.292644 2.14412 0
M  V30 2216 C 214.328 3.31204 0.713377 0
M  V30 2217 C 212.887 3.57393 1.18098 0
M  V30 2218 C 212.034 2.76598 0.197126 0
M  V30 2219 H 214.985 1.54598 -0.358481 0
M  V30 2220 H 215.006 3.46627 1.56939 0
M  V30 2221 H 214.518 3.87537 -0.2089 0
M  V30 2222 H 212.619 3.06433 2.11966 0
M  V30 2223 H 212.732 4.65915 1.11624 0
M  V30 2224 H 211.096 2.45257 0.687088 0
M  V30 2225 H 211.879 3.35697 -0.718504 0
M  V30 2226 N 214.325 -0.140222 1.56975 0
M  V30 2227 C 215.553 -0.866437 1.87884 0
M  V30 2228 C 215.968 -1.74428 0.722517 0
M  V30 2229 O 215.325 -1.79891 -0.30749 0
M  V30 2230 C 215.376 -1.71753 3.18093 0
M  V30 2231 O 215.097 -0.875056 4.29272 0
M  V30 2232 C 216.598 -2.55074 3.62563 0
M  V30 2233 H 213.818 -0.25019 0.622612 0
M  V30 2234 H 216.362 -0.130977 2.0408 0
M  V30 2235 H 214.517 -2.40598 3.03631 0
M  V30 2236 H 214.931 -1.46002 5.03769 0
M  V30 2237 H 216.405 -3.10356 4.5649 0
M  V30 2238 H 216.882 -3.31434 2.88181 0
M  V30 2239 H 217.488 -1.91509 3.79743 0
M  V30 2240 N 215.803 -1.52179 -0.40978 0
M  V30 2241 C 217.028 -1.70347 -1.18308 0
M  V30 2242 C 217.453 -0.411887 -1.83535 0
M  V30 2243 O 216.811 0.630587 -1.6998 0
M  V30 2244 C 216.859 -2.83977 -2.22238 0
M  V30 2245 O 215.963 -2.495 -3.28365 0
M  V30 2246 H 215.304 -0.567103 -0.345384 0
M  V30 2247 H 217.834 -1.98879 -0.480445 0
M  V30 2248 H 217.844 -3.0887 -2.66577 0
M  V30 2249 H 216.519 -3.77685 -1.74146 0
M  V30 2250 H 215.096 -2.35277 -2.89308 0
M  V30 2251 N 217.281 0.66697 -1.42791 0
M  V30 2252 C 218.529 1.42417 -1.43394 0
M  V30 2253 C 218.85 1.94925 -0.0542373 0
M  V30 2254 O 218.12 1.73564 0.908415 0
M  V30 2255 H 216.7 0.528515 -0.527902 0
M  V30 2256 H 219.362 0.787562 -1.78279 0
M  V30 2257 H 218.458 2.27333 -2.13837 0
M  V30 2258 N 218.759 1.29093 0.90403 0
M  V30 2259 C 219.707 1.13727 2.02901 0
M  V30 2260 C 220.701 0.0539853 1.69314 0
M  V30 2261 O 221.907 0.213469 1.7873 0
M  V30 2262 H 218.282 0.35117 0.664969 0
M  V30 2263 H 220.253 2.08982 2.13001 0
M  V30 2264 C 219.002 0.826066 3.37745 0
M  V30 2265 H 218.325 1.65164 3.64089 0
M  V30 2266 H 219.765 0.758559 4.17159 0
M  V30 2267 C 218.224 -0.470541 3.33598 0
M  V30 2268 O 218.754 -1.49792 3.72727 0
M  V30 2269 N 216.96 -0.474812 2.86695 0
M  V30 2270 H 216.507 0.361692 2.55048 0
M  V30 2271 H 216.465 -1.34236 2.84303 0
M  V30 2272 N 220.237 -1.11381 1.11499 0
M  V30 2273 C 221.465 -1.86934 0.88675 0
M  V30 2274 C 221.88 -1.80195 -0.563476 0
M  V30 2275 O 221.237 -1.18367 -1.38908 0
M  V30 2276 C 221.288 -3.35722 1.34064 0
M  V30 2277 O 221.009 -3.4232 2.73401 0
M  V30 2278 C 222.51 -4.2818 1.14791 0
M  V30 2279 H 219.73 -0.591117 0.317523 0
M  V30 2280 H 222.274 -1.40865 1.48248 0
M  V30 2281 H 220.429 -3.79294 0.788355 0
M  V30 2282 H 220.843 -4.34971 2.93087 0
M  V30 2283 H 222.317 -5.30817 1.5145 0
M  V30 2284 H 222.794 -4.39113 0.0875279 0
M  V30 2285 H 223.4 -3.90402 1.68721 0
M  V30 2286 N 221.715 -0.905404 -1.28997 0
M  V30 2287 C 222.963 -0.533192 -1.9494 0
M  V30 2288 C 223.284 0.924618 -1.71685 0
M  V30 2289 O 222.554 1.65268 -1.05183 0
M  V30 2290 H 221.134 -0.194194 -0.721317 0
M  V30 2291 H 223.796 -1.15294 -1.57141 0
M  V30 2292 H 222.892 -0.72059 -3.03667 0
M  V30 2293 N 223.193 1.4272 -0.668489 0
M  V30 2294 C 224.442 2.00846 -0.185389 0
M  V30 2295 C 224.755 1.53442 1.21305 0
M  V30 2296 O 225.961 2.03944 1.79218 0
M  V30 2297 C 224.417 3.58805 -0.280591 0
M  V30 2298 C 224.025 4.15198 -1.68268 0
M  V30 2299 C 225.769 4.24255 0.14412 0
M  V30 2300 C 223.676 5.655 -1.73099 0
M  V30 2301 H 222.606 0.751145 -0.0655475 0
M  V30 2302 H 225.257 1.63516 -0.832752 0
M  V30 2303 H 223.639 3.93608 0.434553 0
M  V30 2304 H 224.813 3.91866 -2.42441 0
M  V30 2305 H 223.128 3.62176 -2.05469 0
M  V30 2306 H 225.725 5.34547 0.128086 0
M  V30 2307 H 226.068 3.99277 1.17827 0
M  V30 2308 H 226.601 3.94389 -0.519798 0
M  V30 2309 H 223.34 5.95268 -2.74475 0
M  V30 2310 H 222.86 5.90842 -1.03274 0
M  V30 2311 H 224.539 6.29808 -1.48158 0
M  V30 2312 N 224.671 0.411399 1.52136 0
M  V30 2313 C 225.919 -0.163322 2.01439 0
M  V30 2314 C 226.24 -1.45453 1.29879 0
M  V30 2315 O 225.51 -1.91225 0.4254 0
M  V30 2316 H 224.09 -0.0633447 0.744309 0
M  V30 2317 H 226.752 0.548161 1.87033 0
M  V30 2318 H 225.848 -0.357817 3.10042 0
M  V30 2319 N 226.149 -1.5696 0.141893 0
M  V30 2320 C 227.079 -2.19516 -0.795936 0
M  V30 2321 C 228.06 -1.14187 -1.26077 0
M  V30 2322 O 229.245 -1.42511 -1.31925 0
M  V30 2323 C 226.375 -2.81272 -2.03723 0
M  V30 2324 C 225.329 -3.92384 -1.70936 0
M  V30 2325 C 224.655 -4.41052 -3.02287 0
M  V30 2326 C 225.955 -5.13403 -0.959954 0
M  V30 2327 H 227.649 -2.98138 -0.274596 0
M  V30 2328 H 225.195 -1.43406 -0.130636 0
M  V30 2329 H 227.148 -3.237 -2.69808 0
M  V30 2330 H 225.872 -1.99973 -2.58221 0
M  V30 2331 H 224.531 -3.50566 -1.07232 0
M  V30 2332 H 224.179 -3.56582 -3.54765 0
M  V30 2333 H 223.879 -5.15993 -2.81114 0
M  V30 2334 H 225.403 -4.86146 -3.69451 0
M  V30 2335 H 226.817 -5.52706 -1.52279 0
M  V30 2336 H 225.214 -5.94073 -0.848357 0
M  V30 2337 H 226.284 -4.84875 0.0492434 0
M  V30 2338 N 227.627 0.131896 -1.57047 0
M  V30 2339 C 228.59 1.14638 -1.98471 0
M  V30 2340 C 229.59 1.35029 -0.873148 0
M  V30 2341 O 230.78 1.31764 -1.13946 0
M  V30 2342 C 227.912 2.50358 -2.31373 0
M  V30 2343 H 229.105 0.79064 -2.8929 0
M  V30 2344 H 226.658 0.375761 -1.51716 0
M  V30 2345 H 227.393 2.90876 -1.43393 0
M  V30 2346 H 227.178 2.36915 -3.12432 0
M  V30 2347 H 228.668 3.23395 -2.64207 0
M  V30 2348 N 229.106 1.52395 0.401703 0
M  V30 2349 C 230.036 1.79231 1.49661 0
M  V30 2350 C 231.017 0.643654 1.57452 0
M  V30 2351 O 232.202 0.889989 1.72606 0
M  V30 2352 C 229.332 1.94971 2.87409 0
M  V30 2353 C 228.286 3.10604 2.94465 0
M  V30 2354 C 227.612 3.11577 4.34538 0
M  V30 2355 C 228.912 4.49921 2.6527 0
M  V30 2356 H 230.606 2.70917 1.27454 0
M  V30 2357 H 228.152 1.30362 0.6117 0
M  V30 2358 H 230.105 2.12328 3.63999 0
M  V30 2359 H 228.829 0.999632 3.10926 0
M  V30 2360 H 227.488 2.93009 2.20321 0
M  V30 2361 H 227.136 2.14277 4.55076 0
M  V30 2362 H 226.836 3.89247 4.40183 0
M  V30 2363 H 228.36 3.31073 5.13053 0
M  V30 2364 H 229.774 4.67683 3.31581 0
M  V30 2365 H 228.171 5.29564 2.82281 0
M  V30 2366 H 229.241 4.57507 1.60671 0
M  V30 2367 N 230.584 -0.659388 1.43143 0
M  V30 2368 C 231.547 -1.75432 1.47501 0
M  V30 2369 C 232.547 -1.56707 0.360512 0
M  V30 2370 O 233.737 -1.62717 0.622002 0
M  V30 2371 C 230.869 -3.14239 1.32162 0
M  V30 2372 H 232.062 -1.7295 2.45006 0
M  V30 2373 H 229.615 -0.870469 1.29817 0
M  V30 2374 H 230.35 -3.22336 0.356401 0
M  V30 2375 H 230.135 -3.29235 2.12948 0
M  V30 2376 H 231.625 -3.94094 1.3813 0
M  V30 2377 N 232.062 -1.29571 -0.897171 0
M  V30 2378 C 233.025 -1.14913 -1.98312 0
M  V30 2379 C 234.025 -0.0838629 -1.60581 0
M  V30 2380 O 235.215 -0.331006 -1.71026 0
M  V30 2381 C 232.347 -0.757835 -3.3237 0
M  V30 2382 H 233.54 -2.11377 -2.12743 0
M  V30 2383 H 231.093 -1.12793 -1.08201 0
M  V30 2384 H 231.828 0.206837 -3.2364 0
M  V30 2385 H 231.613 -1.52755 -3.61121 0
M  V30 2386 H 233.103 -0.678408 -4.12053 0
M  V30 2387 N 233.54 1.10788 -1.12088 0
M  V30 2388 C 234.503 2.15207 -0.788577 0
M  V30 2389 C 235.503 1.59609 0.195317 0
M  V30 2390 O 236.693 1.74174 -0.0300193 0
M  V30 2391 C 233.825 3.4047 -0.171174 0
M  V30 2392 H 235.018 2.46116 -1.71368 0
M  V30 2393 H 232.571 1.26089 -0.923652 0
M  V30 2394 H 233.306 3.15176 0.763832 0
M  V30 2395 H 233.091 3.82109 -0.879514 0
M  V30 2396 H 234.581 4.17576 0.04496 0
M  V30 2397 N 235.018 0.912232 1.28515 0
M  V30 2398 C 236.264 0.545405 1.95328 0
M  V30 2399 C 236.597 -0.908313 1.71649 0
M  V30 2400 O 235.872 -1.64575 1.03659 0
M  V30 2401 C 236.155 0.853483 3.4984 0
M  V30 2402 C 236.008 2.35982 3.82926 0
M  V30 2403 C 237.327 0.348589 4.38717 0
M  V30 2404 H 234.446 0.199626 0.709449 0
M  V30 2405 H 237.088 1.1412 1.5191 0
M  V30 2406 H 235.238 0.34643 3.86952 0
M  V30 2407 H 236.91 2.93738 3.55691 0
M  V30 2408 H 235.153 2.81543 3.30024 0
M  V30 2409 H 235.824 2.52593 4.90816 0
M  V30 2410 H 238.3 0.78294 4.08668 0
M  V30 2411 H 237.176 0.593242 5.45685 0
M  V30 2412 H 237.437 -0.751049 4.35674 0
M  V30 2413 N 236.496 -1.42363 0.676048 0
M  V30 2414 C 237.912 -1.55811 0.345718 0
M  V30 2415 C 238.112 -1.65544 -1.14879 0
M  V30 2416 O 237.168 -1.62306 -1.93424 0
M  V30 2417 C 238.481 -2.80746 1.07713 0
M  V30 2418 C 240.029 -2.9452 1.05958 0
M  V30 2419 C 240.504 -4.22318 1.77233 0
M  V30 2420 N 241.995 -4.29233 1.74108 0
M  V30 2421 C 242.73 -5.26935 2.26113 0
M  V30 2422 N 242.226 -6.30783 2.86505 0
M  V30 2423 N 244.019 -5.18741 2.1648 0
M  V30 2424 H 236.17 -1.34289 1.6456 0
M  V30 2425 H 238.433 -0.646506 0.69335 0
M  V30 2426 H 238.139 -2.79696 2.13221 0
M  V30 2427 H 238.013 -3.71676 0.64316 0
M  V30 2428 H 240.4 -2.95097 0.0128255 0
M  V30 2429 H 240.481 -2.04817 1.53244 0
M  V30 2430 H 240.125 -4.22502 2.81877 0
M  V30 2431 H 240.055 -5.10958 1.27396 0
M  V30 2432 H 242.546 -3.54814 1.30059 0
M  V30 2433 H 242.859 -7.01691 3.23805 0
M  V30 2434 H 241.204 -6.31341 2.90575 0
M  V30 2435 H 244.395 -4.36533 1.68987 0
M  V30 2436 H 244.568 -5.94721 2.57316 0
M  V30 2437 N 237.974 -0.419461 -1.51915 0
M  V30 2438 C 239.222 0.152637 -2.01523 0
M  V30 2439 C 239.543 1.44762 -1.30649 0
M  V30 2440 O 238.813 1.90997 -0.435535 0
M  V30 2441 H 237.393 0.0593966 -0.744635 0
M  V30 2442 H 240.055 -0.558073 -1.86739 0
M  V30 2443 H 239.151 0.341369 -3.10227 0
M  V30 2444 N 239.452 1.56882 -0.150215 0
M  V30 2445 C 240.682 2.00302 0.506213 0
M  V30 2446 C 241.09 1.02934 1.58749 0
M  V30 2447 O 240.433 0.0188384 1.8369 0
M  V30 2448 C 240.495 3.40156 1.16337 0
M  V30 2449 C 240.159 4.56439 0.226311 0
M  V30 2450 C 241.156 5.17012 -0.547265 0
M  V30 2451 C 238.841 5.02136 0.128279 0
M  V30 2452 C 240.835 6.21693 -1.40629 0
M  V30 2453 C 238.522 6.06672 -0.734345 0
M  V30 2454 C 239.52 6.6632 -1.50023 0
M  V30 2455 O 239.208 7.68831 -2.34848 0
M  V30 2456 H 238.94 0.662182 0.135984 0
M  V30 2457 H 241.494 2.03961 -0.242746 0
M  V30 2458 H 239.724 3.33346 1.96004 0
M  V30 2459 H 241.413 3.67663 1.71985 0
M  V30 2460 H 242.179 4.82603 -0.48158 0
M  V30 2461 H 238.058 4.55435 0.714157 0
M  V30 2462 H 241.602 6.68179 -2.00455 0
M  V30 2463 H 237.499 6.40507 -0.801309 0
M  V30 2464 H 238.267 7.86065 -2.28131 0
M  V30 2465 N 240.93 -0.123565 1.57115 0
M  V30 2466 C 242.346 -0.476961 1.52306 0
M  V30 2467 C 242.546 -1.82109 0.86248 0
M  V30 2468 O 241.602 -2.48586 0.442884 0
M  V30 2469 C 242.915 -0.465661 2.97073 0
M  V30 2470 C 244.463 -0.549534 3.08138 0
M  V30 2471 C 244.938 -0.568669 4.54456 0
M  V30 2472 N 246.429 -0.630237 4.58892 0
M  V30 2473 C 247.164 -0.666415 5.69514 0
M  V30 2474 N 246.66 -0.660514 6.89644 0
M  V30 2475 N 248.453 -0.709077 5.5761 0
M  V30 2476 H 240.604 0.757198 1.98445 0
M  V30 2477 H 242.867 0.278808 0.906074 0
M  V30 2478 H 242.573 0.454232 3.48754 0
M  V30 2479 H 242.447 -1.29513 3.54269 0
M  V30 2480 H 244.834 -1.45985 2.56461 0
M  V30 2481 H 244.915 0.307532 2.53945 0
M  V30 2482 H 244.559 0.337581 5.06777 0
M  V30 2483 H 244.489 -1.44256 5.06456 0
M  V30 2484 H 246.98 -0.641146 3.72421 0
M  V30 2485 H 247.293 -0.690616 7.69708 0
M  V30 2486 H 245.638 -0.628012 6.92157 0
M  V30 2487 H 248.829 -0.711019 4.62668 0
M  V30 2488 H 249.002 -0.733804 6.43832 0
M  V30 2489 N 242.408 -1.52605 -0.393616 0
M  V30 2490 C 243.648 -1.6911 -1.1481 0
M  V30 2491 C 244.012 -0.41969 -1.87357 0
M  V30 2492 O 245.213 -0.461034 -2.64817 0
M  V30 2493 C 243.484 -2.88909 -2.10395 0
M  V30 2494 S 245.043 -3.25977 -2.93742 0
M  V30 2495 H 241.861 -0.595337 -0.38871 0
M  V30 2496 H 244.463 -1.90641 -0.433178 0
M  V30 2497 H 243.167 -3.79672 -1.55812 0
M  V30 2498 H 242.698 -2.69698 -2.86403 0
M  V30 2499 H 244.713 -2.75806 -4.12487 0
M  V30 2500 N 243.887 0.651787 -1.4349 0
M  V30 2501 C 245.136 1.40754 -1.44469 0
M  V30 2502 C 245.449 1.95463 -0.0731845 0
M  V30 2503 O 246.655 2.71471 0.0395721 0
M  V30 2504 C 245.111 2.54735 -2.5424 0
M  V30 2505 C 244.719 2.06628 -3.97504 0
M  V30 2506 C 246.463 3.32092 -2.64414 0
M  V30 2507 C 244.37 3.17829 -4.98737 0
M  V30 2508 H 243.3 0.528862 -0.53742 0
M  V30 2509 H 245.951 0.703365 -1.69485 0
M  V30 2510 H 244.333 3.2763 -2.22428 0
M  V30 2511 H 245.507 1.40734 -4.38783 0
M  V30 2512 H 243.822 1.42146 -3.91387 0
M  V30 2513 H 246.419 4.14952 -3.37223 0
M  V30 2514 H 246.762 3.80217 -1.69532 0
M  V30 2515 H 247.295 2.66279 -2.95534 0
M  V30 2516 H 244.034 2.74671 -5.95177 0
M  V30 2517 H 243.554 3.82429 -4.62069 0
M  V30 2518 H 245.233 3.82937 -5.21505 0
M  V30 2519 N 245.365 1.30045 0.890287 0
M  V30 2520 C 246.614 1.17929 1.63633 0
M  V30 2521 C 246.927 -0.266204 1.9378 0
M  V30 2522 O 248.133 -0.508804 2.6669 0
M  V30 2523 C 246.589 2.06317 2.94892 0
M  V30 2524 C 246.197 3.55745 2.72305 0
M  V30 2525 C 247.941 2.0295 3.72843 0
M  V30 2526 C 245.848 4.36205 3.99348 0
M  V30 2527 H 244.778 0.437782 0.613892 0
M  V30 2528 H 247.429 1.54754 0.986075 0
M  V30 2529 H 245.811 1.6237 3.61182 0
M  V30 2530 H 246.985 4.07805 2.1455 0
M  V30 2531 H 245.3 3.6088 2.07737 0
M  V30 2532 H 247.897 2.60319 4.67053 0
M  V30 2533 H 248.24 1.0117 4.0382 0
M  V30 2534 H 248.773 2.4499 3.13408 0
M  V30 2535 H 245.512 5.38659 3.73533 0
M  V30 2536 H 245.032 3.8891 4.56628 0
M  V30 2537 H 246.711 4.47362 4.67415 0
M  V30 2538 N 246.843 -1.10192 1.12674 0
M  V30 2539 C 248.089 -1.82475 0.884915 0
M  V30 2540 C 248.422 -1.85093 -0.58773 0
M  V30 2541 O 247.697 -1.3134 -1.43457 0
M  V30 2542 C 247.98 -3.29018 1.46353 0
M  V30 2543 C 247.833 -3.34718 3.00473 0
M  V30 2544 C 249.152 -4.25473 1.12519 0
M  V30 2545 H 246.271 -0.662492 0.322915 0
M  V30 2546 H 248.913 -1.2913 1.39375 0
M  V30 2547 H 247.063 -3.74576 1.03077 0
M  V30 2548 H 248.735 -2.97622 3.52447 0
M  V30 2549 H 246.978 -2.74541 3.35872 0
M  V30 2550 H 247.649 -4.37918 3.36053 0
M  V30 2551 H 250.125 -3.88161 1.499 0
M  V30 2552 H 249.001 -5.26365 1.55663 0
M  V30 2553 H 249.262 -4.42084 0.0377407 0
M  V30 2554 N 248.321 -0.919034 -1.28029 0
M  V30 2555 C 249.254 -0.355887 -2.25408 0
M  V30 2556 C 250.232 0.542874 -1.5327 0
M  V30 2557 O 251.416 0.485338 -1.82145 0
M  V30 2558 C 248.543 0.490759 -3.35126 0
M  V30 2559 C 247.589 -0.343358 -4.25116 0
M  V30 2560 S 248.422 -1.75344 -5.05979 0
M  V30 2561 C 249.578 -0.914244 -6.19187 0
M  V30 2562 H 249.811 -1.18123 -2.72826 0
M  V30 2563 H 247.344 -0.720636 -1.36551 0
M  V30 2564 H 249.302 0.973404 -3.98792 0
M  V30 2565 H 247.963 1.29054 -2.86363 0
M  V30 2566 H 247.156 0.304266 -5.03081 0
M  V30 2567 H 246.758 -0.759851 -3.662 0
M  V30 2568 H 249.05 -0.146282 -6.77342 0
M  V30 2569 H 249.993 -1.66661 -6.88208 0
M  V30 2570 H 250.401 -0.460082 -5.62622 0
M  V30 2571 N 249.799 1.42003 -0.683588 0
M  V30 2572 C 251.21 1.84501 -0.285736 0
M  V30 2573 C 251.561 1.57213 1.17382 0
M  V30 2574 O 250.686 1.03642 1.89966 0
M  V30 2575 C 251.281 3.34912 -0.511821 0
M  V30 2576 C 249.84 3.76025 -0.168005 0
M  V30 2577 C 248.987 2.6551 -0.799983 0
M  V30 2578 H 251.938 1.31724 -0.885119 0
M  V30 2579 H 251.959 3.79784 0.233292 0
M  V30 2580 H 251.471 3.54741 -1.57418 0
M  V30 2581 H 249.572 3.61801 0.890567 0
M  V30 2582 H 249.685 4.75141 -0.614661 0
M  V30 2583 H 248.049 2.53654 -0.230568 0
M  V30 2584 H 248.832 2.8816 -1.86597 0
M  V30 2585 N 251.277 0.427512 1.51691 0
M  V30 2586 C 252.187 -0.39527 2.31246 0
M  V30 2587 C 253.203 -1.03674 1.39742 0
M  V30 2588 O 254.379 -1.03425 1.72816 0
M  V30 2589 C 251.444 -1.48706 3.13189 0
M  V30 2590 C 250.505 -0.866743 4.20459 0
M  V30 2591 C 249.738 -1.90651 4.98486 0
M  V30 2592 O 249.961 -3.12733 4.77026 0
M  V30 2593 O 248.895 -1.5025 5.82845 0
M  V30 2594 H 252.721 0.253918 3.02637 0
M  V30 2595 H 250.306 0.190274 1.48183 0
M  V30 2596 H 252.188 -2.12047 3.64162 0
M  V30 2597 H 250.863 -2.12051 2.44573 0
M  V30 2598 H 249.77 -0.195544 3.73589 0
M  V30 2599 H 251.103 -0.276934 4.9142 0
M  V30 2600 N 252.755 -1.56801 0.158532 0
M  V30 2601 C 253.702 -2.17337 -0.776729 0
M  V30 2602 C 254.672 -1.1096 -1.23601 0
M  V30 2603 O 255.857 -1.39054 -1.30647 0
M  V30 2604 C 252.997 -2.80822 -2.00582 0
M  V30 2605 C 252.11 -4.01624 -1.59129 0
M  V30 2606 C 251.245 -4.53072 -2.77306 0
M  V30 2607 C 250.284 -5.66314 -2.32282 0
M  V30 2608 N 249.421 -6.12329 -3.43508 0
M  V30 2609 H 254.261 -2.96918 -0.253701 0
M  V30 2610 H 251.798 -1.46661 -0.113504 0
M  V30 2611 H 253.756 -3.15779 -2.72652 0
M  V30 2612 H 252.386 -2.03866 -2.50277 0
M  V30 2613 H 251.438 -3.72571 -0.767806 0
M  V30 2614 H 252.75 -4.83633 -1.2207 0
M  V30 2615 H 251.904 -4.90145 -3.57551 0
M  V30 2616 H 250.643 -3.70095 -3.17617 0
M  V30 2617 H 249.648 -5.28806 -1.5048 0
M  V30 2618 H 250.873 -6.51085 -1.93043 0
M  V30 2619 H 248.819 -5.32284 -3.83418 0
M  V30 2620 H 248.736 -6.89293 -3.105 0
M  V30 2621 H 250.004 -6.5405 -4.24075 0
M  V30 2622 N 254.233 0.115231 -1.57178 0
M  V30 2623 C 255.166 1.17166 -1.95825 0
M  V30 2624 C 256.144 1.39912 -0.828463 0
M  V30 2625 O 257.328 1.54004 -1.08697 0
M  V30 2626 C 254.455 2.52478 -2.25771 0
M  V30 2627 C 253.501 2.46136 -3.48309 0
M  V30 2628 S 254.334 1.89736 -5.0076 0
M  V30 2629 C 255.49 3.26713 -5.33863 0
M  V30 2630 H 255.723 0.842103 -2.85124 0
M  V30 2631 H 253.256 0.322136 -1.51002 0
M  V30 2632 H 255.214 3.30332 -2.43702 0
M  V30 2633 H 253.875 2.82609 -1.37079 0
M  V30 2634 H 253.068 3.45819 -3.66641 0
M  V30 2635 H 252.67 1.76404 -3.29784 0
M  V30 2636 H 254.962 4.22935 -5.29275 0
M  V30 2637 H 255.905 3.13205 -6.35065 0
M  V30 2638 H 256.313 3.25316 -4.61335 0
M  V30 2639 N 255.711 1.52812 0.385517 0
M  V30 2640 C 256.936 1.72207 1.15583 0
M  V30 2641 C 257.361 0.441034 1.82857 0
M  V30 2642 O 256.719 -0.603465 1.70962 0
M  V30 2643 C 256.767 2.87476 2.17692 0
M  V30 2644 O 255.871 2.54693 3.24354 0
M  V30 2645 H 255.212 0.572526 0.336319 0
M  V30 2646 H 257.742 1.99618 0.448744 0
M  V30 2647 H 257.752 3.13072 2.6163 0
M  V30 2648 H 256.427 3.80408 1.68115 0
M  V30 2649 H 255.004 2.3985 2.85529 0
M  V30 2650 N 257.189 -0.644168 1.43834 0
M  V30 2651 C 258.414 -1.43642 1.49605 0
M  V30 2652 C 258.839 -1.8773 0.117913 0
M  V30 2653 O 258.197 -1.57938 -0.890239 0
M  V30 2654 C 258.245 -2.6416 2.45463 0
M  V30 2655 O 257.349 -3.63538 1.94714 0
M  V30 2656 H 256.69 -0.430329 0.50568 0
M  V30 2657 H 259.22 -0.787448 1.8884 0
M  V30 2658 H 259.23 -3.11864 2.63068 0
M  V30 2659 H 257.905 -2.31414 3.45572 0
M  V30 2660 H 256.482 -3.2273 1.86814 0
M  V30 2661 N 258.668 -1.30515 -0.883378 0
M  V30 2662 C 259.578 -1.18959 -2.02203 0
M  V30 2663 C 260.594 -0.109172 -1.73657 0
M  V30 2664 O 261.77 -0.324413 -1.9877 0
M  V30 2665 C 258.835 -0.883871 -3.35244 0
M  V30 2666 C 257.896 -2.04982 -3.77201 0
M  V30 2667 C 257.129 -1.75859 -5.03894 0
M  V30 2668 O 257.352 -0.687276 -5.66244 0
M  V30 2669 O 256.286 -2.61146 -5.42297 0
M  V30 2670 H 260.112 -2.14616 -2.1488 0
M  V30 2671 H 257.697 -1.10124 -1.0096 0
M  V30 2672 H 259.579 -0.728644 -4.15053 0
M  V30 2673 H 258.254 0.0427798 -3.23672 0
M  V30 2674 H 257.161 -2.26038 -2.9809 0
M  V30 2675 H 258.494 -2.95825 -3.93381 0
M  V30 2676 N 260.146 1.09593 -1.13257 0
M  V30 2677 C 261.093 2.1618 -0.808381 0
M  V30 2678 C 262.063 1.64517 0.228754 0
M  V30 2679 O 263.248 1.9053 0.101381 0
M  V30 2680 C 260.388 3.43973 -0.278675 0
M  V30 2681 C 259.501 4.09545 -1.37466 0
M  V30 2682 C 258.636 5.25088 -0.803479 0
M  V30 2683 C 257.675 5.82579 -1.87799 0
M  V30 2684 N 256.812 6.89486 -1.32488 0
M  V30 2685 H 261.652 2.43254 -1.72138 0
M  V30 2686 H 259.189 1.19392 -0.859294 0
M  V30 2687 H 261.147 4.17174 0.0465583 0
M  V30 2688 H 259.777 3.17223 0.597459 0
M  V30 2689 H 258.829 3.34226 -1.81652 0
M  V30 2690 H 260.141 4.48307 -2.18684 0
M  V30 2691 H 259.295 6.05178 -0.429427 0
M  V30 2692 H 258.034 4.87684 0.0397956 0
M  V30 2693 H 257.039 5.01152 -2.26113 0
M  V30 2694 H 258.264 6.22045 -2.72463 0
M  V30 2695 H 256.21 6.54064 -0.503575 0
M  V30 2696 H 256.127 7.27007 -2.07355 0
M  V30 2697 H 257.395 7.73336 -0.978336 0
M  V30 2698 N 261.624 0.925811 1.2754 0
M  V30 2699 C 262.87 0.566092 1.94739 0
M  V30 2700 C 263.203 -0.890057 1.72603 0
M  V30 2701 O 262.478 -1.63467 1.05399 0
M  V30 2702 C 262.761 0.89054 3.48915 0
M  V30 2703 C 262.614 2.4003 3.80402 0
M  V30 2704 C 263.933 0.395101 4.38323 0
M  V30 2705 H 261.052 0.20714 0.707292 0
M  V30 2706 H 263.694 1.15725 1.50691 0
M  V30 2707 H 261.844 0.387452 3.86563 0
M  V30 2708 H 263.516 2.97494 3.52555 0
M  V30 2709 H 261.759 2.85028 3.2702 0
M  V30 2710 H 262.43 2.57785 4.8811 0
M  V30 2711 H 264.906 0.826241 4.07814 0
M  V30 2712 H 263.782 0.651086 5.45025 0
M  V30 2713 H 264.043 -0.704798 4.36446 0
M  V30 2714 N 263.102 -1.41638 0.69111 0
M  V30 2715 C 264.379 -1.95036 0.148421 0
M  V30 2716 C 264.759 -1.63072 -1.34055 0
M  V30 2717 O 264.107 -0.93538 -2.08478 0
M  V30 2718 C 264.317 -3.46279 0.434951 0
M  V30 2719 C 265.665 -4.23069 0.360275 0
M  V30 2720 O 266.689 -3.54277 0.369613 0
M  V30 2721 O 265.548 -5.45583 0.316534 0
M  V30 2722 H 262.642 -0.826908 0.0123654 0
M  V30 2723 H 265.188 -1.5138 0.766963 0
M  V30 2724 H 263.96 -3.6281 1.46576 0
M  V30 2725 H 263.583 -3.97019 -0.214787 0
M  V30 2726 N 264.58 -0.43555 -1.51462 0
M  V30 2727 C 265.826 0.131709 -2.02372 0
M  V30 2728 C 266.159 1.42516 -1.3192 0
M  V30 2729 O 265.434 1.89606 -0.433573 0
M  V30 2730 C 265.717 0.352301 -3.58373 0
M  V30 2731 C 265.57 -0.959676 -4.39443 0
M  V30 2732 C 266.889 1.12286 -4.25535 0
M  V30 2733 H 264.008 0.0463936 -0.735538 0
M  V30 2734 H 266.65 -0.574197 -1.81116 0
M  V30 2735 H 264.8 0.9536 -3.76615 0
M  V30 2736 H 266.472 -1.59482 -4.32855 0
M  V30 2737 H 264.715 -1.56468 -4.04599 0
M  V30 2738 H 265.386 -0.759394 -5.46752 0
M  V30 2739 H 267.862 0.613545 -4.11552 0
M  V30 2740 H 266.738 1.24598 -5.34571 0
M  V30 2741 H 266.999 2.15048 -3.86273 0
M  V30 2742 N 266.058 1.56714 -0.166846 0
M  V30 2743 C 266.988 2.20754 0.760913 0
M  V30 2744 C 267.969 1.16178 1.24244 0
M  V30 2745 O 269.154 1.44592 1.29641 0
M  V30 2746 C 266.284 2.84478 1.99223 0
M  V30 2747 C 265.238 3.95053 1.64672 0
M  V30 2748 C 264.564 4.45805 2.95232 0
M  V30 2749 C 265.864 5.14865 0.878155 0
M  V30 2750 H 267.558 2.98537 0.22713 0
M  V30 2751 H 265.104 1.43596 0.107805 0
M  V30 2752 H 267.057 3.27951 2.64624 0
M  V30 2753 H 265.781 2.04056 2.55007 0
M  V30 2754 H 264.44 3.52228 1.01641 0
M  V30 2755 H 264.088 3.62181 3.49047 0
M  V30 2756 H 263.788 5.204 2.7287 0
M  V30 2757 H 265.312 4.91962 3.6167 0
M  V30 2758 H 266.726 5.55059 1.43466 0
M  V30 2759 H 265.123 5.95348 0.753738 0
M  V30 2760 H 266.193 4.84735 -0.126377 0
M  V30 2761 N 267.536 -0.106894 1.57237 0
M  V30 2762 C 268.952 -0.46078 1.52804 0
M  V30 2763 C 269.152 -1.81184 0.881746 0
M  V30 2764 O 268.208 -2.48102 0.469224 0
M  V30 2765 C 269.521 -0.434127 2.9755 0
M  V30 2766 C 271.069 -0.516821 3.08704 0
M  V30 2767 C 271.544 -0.520436 4.55033 0
M  V30 2768 N 273.035 -0.58153 4.59535 0
M  V30 2769 C 273.77 -0.605973 5.70189 0
M  V30 2770 N 273.266 -0.587331 6.90306 0
M  V30 2771 N 275.059 -0.649895 5.5833 0
M  V30 2772 H 267.21 0.778203 1.9763 0
M  V30 2773 H 269.473 0.288403 0.903066 0
M  V30 2774 H 269.179 0.491197 3.48253 0
M  V30 2775 H 269.053 -1.25748 3.55622 0
M  V30 2776 H 271.44 -1.43256 2.57995 0
M  V30 2777 H 271.521 0.334449 2.53604 0
M  V30 2778 H 271.165 0.391313 5.0639 0
M  V30 2779 H 271.095 -1.38876 5.07958 0
M  V30 2780 H 273.586 -0.60161 3.73081 0
M  V30 2781 H 273.899 -0.60894 7.70397 0
M  V30 2782 H 272.244 -0.554564 6.92784 0
M  V30 2783 H 275.435 -0.661907 4.63397 0
M  V30 2784 H 275.608 -0.665476 6.44574 0
M  V30 2785 N 269.014 -1.53014 -0.377408 0
M  V30 2786 C 269.977 -1.77957 -1.44444 0
M  V30 2787 C 270.977 -0.649763 -1.47087 0
M  V30 2788 O 272.167 -0.917897 -1.48055 0
M  V30 2789 C 269.299 -1.89089 -2.83651 0
M  V30 2790 H 270.492 -2.73243 -1.23606 0
M  V30 2791 H 268.045 -1.43912 -0.609844 0
M  V30 2792 H 268.78 -0.958293 -3.09818 0
M  V30 2793 H 268.565 -2.71254 -2.83132 0
M  V30 2794 H 270.055 -2.1002 -3.60945 0
M  V30 2795 N 270.492 0.636531 -1.44174 0
M  V30 2796 C 271.422 1.76003 -1.53444 0
M  V30 2797 C 272.403 1.65619 -0.387841 0
M  V30 2798 O 273.588 1.84461 -0.607257 0
M  V30 2799 C 270.718 3.14511 -1.4731 0
M  V30 2800 C 269.672 3.39677 -2.60391 0
M  V30 2801 C 268.998 4.78159 -2.39308 0
M  V30 2802 C 270.298 3.32772 -4.02567 0
M  V30 2803 H 271.992 1.68501 -2.47483 0
M  V30 2804 H 269.538 0.809237 -1.19111 0
M  V30 2805 H 271.491 3.92878 -1.52397 0
M  V30 2806 H 270.215 3.22783 -0.49785 0
M  V30 2807 H 268.874 2.63688 -2.54684 0
M  V30 2808 H 268.522 4.83128 -1.39988 0
M  V30 2809 H 268.222 4.95956 -3.15122 0
M  V30 2810 H 269.746 5.58762 -2.46205 0
M  V30 2811 H 271.16 4.01051 -4.09672 0
M  V30 2812 H 269.557 3.62104 -4.7854 0
M  V30 2813 H 270.627 2.30669 -4.2652 0
M  V30 2814 N 271.97 1.30982 0.876444 0
M  V30 2815 C 273.218 1.20058 1.62575 0
M  V30 2816 C 273.539 -0.242947 1.93481 0
M  V30 2817 O 272.809 -1.1619 1.57724 0
M  V30 2818 H 271.389 0.44135 0.602677 0
M  V30 2819 H 274.051 1.64222 1.04962 0
M  V30 2820 H 273.147 1.76762 2.57219 0
M  V30 2821 N 273.449 -1.08991 1.13837 0
M  V30 2822 C 274.412 -2.13925 0.822715 0
M  V30 2823 C 275.412 -1.599 -0.1699 0
M  V30 2824 O 276.602 -1.74104 0.0577251 0
M  V30 2825 C 273.734 -3.40155 0.225318 0
M  V30 2826 H 274.927 -2.43358 1.75262 0
M  V30 2827 H 272.48 -1.24603 0.943594 0
M  V30 2828 H 273.215 -3.16352 -0.713594 0
M  V30 2829 H 273 -3.80661 0.940193 0
M  V30 2830 H 274.49 -4.17594 0.0214784 0
M  V30 2831 N 274.927 -0.932562 -1.27047 0
M  V30 2832 C 275.837 -0.441219 -2.30414 0
M  V30 2833 C 276.853 0.480525 -1.67233 0
M  V30 2834 O 278.029 0.362151 -1.98117 0
M  V30 2835 C 275.094 0.293651 -3.45454 0
M  V30 2836 C 274.155 -0.663601 -4.2414 0
M  V30 2837 C 273.388 0.0362932 -5.33688 0
M  V30 2838 O 273.611 1.2548 -5.56427 0
M  V30 2839 O 272.545 -0.638015 -5.98509 0
M  V30 2840 H 276.371 -1.29962 -2.74488 0
M  V30 2841 H 273.956 -0.6981 -1.32087 0
M  V30 2842 H 275.838 0.707951 -4.15411 0
M  V30 2843 H 274.513 1.12758 -3.03426 0
M  V30 2844 H 273.42 -1.12768 -3.56699 0
M  V30 2845 H 274.753 -1.46489 -4.69896 0
M  V30 2846 N 276.405 1.4127 -0.698611 0
M  V30 2847 C 277.654 2.00408 -0.227949 0
M  V30 2848 C 277.967 1.55981 1.18023 0
M  V30 2849 O 279.173 2.07699 1.74852 0
M  V30 2850 C 277.629 3.58129 -0.356636 0
M  V30 2851 C 277.237 4.11536 -1.77037 0
M  V30 2852 C 278.981 4.24466 0.0540969 0
M  V30 2853 C 276.888 5.61701 -1.85055 0
M  V30 2854 H 275.818 0.749586 -0.0814657 0
M  V30 2855 H 278.469 1.61713 -0.867249 0
M  V30 2856 H 276.851 3.94442 0.350965 0
M  V30 2857 H 278.025 3.86636 -2.50698 0
M  V30 2858 H 276.34 3.57736 -2.13105 0
M  V30 2859 H 278.937 5.34698 0.0146723 0
M  V30 2860 H 279.28 4.01687 1.09332 0
M  V30 2861 H 279.813 3.93198 -0.603337 0
M  V30 2862 H 276.552 5.89312 -2.8704 0
M  V30 2863 H 276.072 5.88519 -1.15783 0
M  V30 2864 H 277.751 6.26524 -1.61484 0
M  V30 2865 N 277.883 0.443576 1.51229 0
M  V30 2866 C 279.129 -0.120975 2.02439 0
M  V30 2867 C 279.462 -1.41815 1.32674 0
M  V30 2868 O 278.737 -1.89373 0.443622 0
M  V30 2869 C 279.02 -0.333291 3.58554 0
M  V30 2870 C 278.873 0.982968 4.38928 0
M  V30 2871 C 280.192 -1.10028 4.26124 0
M  V30 2872 H 277.311 -0.0424923 0.735774 0
M  V30 2873 H 279.953 0.583794 1.80809 0
M  V30 2874 H 278.103 -0.933614 3.77115 0
M  V30 2875 H 279.775 1.61775 4.32003 0
M  V30 2876 H 278.018 1.58611 4.03763 0
M  V30 2877 H 278.689 0.788379 5.46341 0
M  V30 2878 H 281.165 -0.591711 4.11871 0
M  V30 2879 H 280.041 -1.21761 5.35225 0
M  V30 2880 H 280.302 -2.12996 3.87408 0
M  V30 2881 N 279.361 -1.56624 0.175154 0
M  V30 2882 C 280.777 -1.58571 -0.180966 0
M  V30 2883 C 280.977 -1.19065 -1.6256 0
M  V30 2884 O 280.033 -0.904044 -2.35761 0
M  V30 2885 C 281.346 -3.00522 0.103326 0
M  V30 2886 C 282.894 -3.12972 0.0418426 0
M  V30 2887 C 283.369 -4.57022 0.299175 0
M  V30 2888 N 284.86 -4.62541 0.247086 0
M  V30 2889 C 285.595 -5.71857 0.420318 0
M  V30 2890 N 285.091 -6.89717 0.652816 0
M  V30 2891 N 286.884 -5.60972 0.355957 0
M  V30 2892 H 279.035 -1.80589 1.11809 0
M  V30 2893 H 281.298 -0.837178 0.444788 0
M  V30 2894 H 281.004 -3.33916 1.10422 0
M  V30 2895 H 280.878 -3.72344 -0.603299 0
M  V30 2896 H 283.265 -2.79403 -0.949636 0
M  V30 2897 H 283.346 -2.43578 0.781238 0
M  V30 2898 H 282.99 -4.913 1.28788 0
M  V30 2899 H 282.92 -5.24579 -0.460876 0
M  V30 2900 H 285.411 -3.77829 0.0731895 0
M  V30 2901 H 285.724 -7.68911 0.774347 0
M  V30 2902 H 284.069 -6.91572 0.689476 0
M  V30 2903 H 287.26 -4.67773 0.174882 0
M  V30 2904 H 287.433 -6.46111 0.494388 0
M  V30 2905 N 280.839 0.0985539 -1.57292 0
M  V30 2906 C 282.067 0.816318 -1.90115 0
M  V30 2907 C 282.482 1.72451 -0.768509 0
M  V30 2908 O 281.839 1.80643 0.259687 0
M  V30 2909 C 281.89 1.63259 -3.22535 0
M  V30 2910 O 281.611 0.760934 -4.31441 0
M  V30 2911 C 283.112 2.45372 -3.69199 0
M  V30 2912 H 280.332 0.233595 -0.629027 0
M  V30 2913 H 282.876 0.0768229 -2.04356 0
M  V30 2914 H 281.031 2.32463 -3.09903 0
M  V30 2915 H 281.445 1.32595 -5.07463 0
M  V30 2916 H 282.919 2.98144 -4.64558 0
M  V30 2917 H 283.396 3.23677 -2.96867 0
M  V30 2918 H 284.002 1.81373 -3.84687 0
M  V30 2919 N 282.317 1.53212 0.369288 0
M  V30 2920 C 283.728 1.60943 0.946276 0
M  V30 2921 C 284.079 0.47452 1.90375 0
M  V30 2922 O 283.204 -0.399597 2.12679 0
M  V30 2923 C 283.799 2.91715 1.72302 0
M  V30 2924 C 282.358 3.01792 2.24941 0
M  V30 2925 C 281.505 2.56211 1.06072 0
M  V30 2926 H 284.456 1.58007 0.148198 0
M  V30 2927 H 284.477 2.79309 2.58393 0
M  V30 2928 H 283.989 3.74295 1.0259 0
M  V30 2929 H 282.09 2.23791 2.97906 0
M  V30 2930 H 282.203 4.06803 2.53077 0
M  V30 2931 H 280.567 2.10998 1.4266 0
M  V30 2932 H 281.35 3.41206 0.378639 0
M  V30 2933 N 283.795 -0.628877 1.44509 0
M  V30 2934 C 285.023 -1.41554 1.50897 0
M  V30 2935 C 285.438 -1.8832 0.134564 0
M  V30 2936 O 284.795 -1.60969 -0.859965 0
M  V30 2937 C 284.846 -2.63435 2.47556 0
M  V30 2938 O 284.567 -2.18619 3.79654 0
M  V30 2939 C 286.068 -3.56537 2.63431 0
M  V30 2940 H 283.288 -0.434044 0.511709 0
M  V30 2941 H 285.832 -0.768895 1.89495 0
M  V30 2942 H 283.987 -3.24187 2.12089 0
M  V30 2943 H 284.401 -2.97652 4.31861 0
M  V30 2944 H 285.875 -4.38657 3.35088 0
M  V30 2945 H 286.352 -4.05493 1.68738 0
M  V30 2946 H 286.958 -3.01653 2.9981 0
M  V30 2947 N 285.273 -1.31445 -0.869486 0
M  V30 2948 C 286.221 -1.19067 -1.99814 0
M  V30 2949 C 287.215 -0.0988569 -1.69111 0
M  V30 2950 O 288.421 -0.260781 -1.78101 0
M  V30 2951 H 284.796 -0.368677 -0.655425 0
M  V30 2952 H 286.767 -2.14555 -2.07385 0
M  V30 2953 C 285.516 -0.915323 -3.35436 0
M  V30 2954 H 284.839 -1.74759 -3.59582 0
M  V30 2955 H 286.279 -0.868895 -4.15001 0
M  V30 2956 C 284.738 0.381928 -3.34728 0
M  V30 2957 O 285.268 1.39857 -3.76567 0
M  V30 2958 N 283.474 0.398633 -2.87853 0
M  V30 2959 H 283.021 -0.429186 -2.54 0
M  V30 2960 H 282.979 1.26651 -2.87762 0
M  V30 2961 N 286.751 1.08385 -1.14413 0
M  V30 2962 C 287.714 2.13486 -0.834048 0
M  V30 2963 C 288.714 1.59988 0.161418 0
M  V30 2964 O 289.904 1.74071 -0.0669575 0
M  V30 2965 C 287.036 3.4003 -0.243354 0
M  V30 2966 H 288.229 2.42425 -1.7655 0
M  V30 2967 H 285.782 1.24101 -0.950189 0
M  V30 2968 H 286.517 3.16726 0.696807 0
M  V30 2969 H 286.302 3.80157 -0.960367 0
M  V30 2970 H 287.792 4.17577 -0.0436242 0
M  V30 2971 N 288.23 0.939286 1.26551 0
M  V30 2972 C 289.646 0.641304 1.46149 0
M  V30 2973 C 289.846 -0.805964 1.84679 0
M  V30 2974 O 288.902 -1.58278 1.96734 0
M  V30 2975 C 290.215 1.6011 2.54529 0
M  V30 2976 C 291.763 1.6106 2.68382 0
M  V30 2977 C 292.238 2.55765 3.79932 0
M  V30 2978 N 293.729 2.5404 3.87322 0
M  V30 2979 C 294.464 3.24004 4.73085 0
M  V30 2980 N 293.96 4.03388 5.63249 0
M  V30 2981 N 295.753 3.12965 4.66914 0
M  V30 2982 H 287.904 1.87478 0.998285 0
M  V30 2983 H 290.167 0.805559 0.499779 0
M  V30 2984 H 289.873 2.63412 2.33039 0
M  V30 2985 H 289.747 1.35171 3.52149 0
M  V30 2986 H 292.134 0.584835 2.89247 0
M  V30 2987 H 292.215 1.90053 1.71212 0
M  V30 2988 H 291.859 3.58458 3.5982 0
M  V30 2989 H 291.789 2.24063 4.76554 0
M  V30 2990 H 294.28 1.96396 3.22858 0
M  V30 2991 H 294.593 4.5373 6.25579 0
M  V30 2992 H 292.938 4.07489 5.63008 0
M  V30 2993 H 296.129 2.50432 3.95476 0
M  V30 2994 H 296.302 3.67759 5.33533 0
M  V30 2995 N 289.708 -1.40897 0.706093 0
M  V30 2996 C 290.955 -2.01054 0.241531 0
M  V30 2997 C 291.283 -1.55956 -1.16223 0
M  V30 2998 O 290.538 -0.766336 -1.80072 0
M  V30 2999 C 290.837 -3.5646 0.259099 0
M  V30 3000 C 290.503 -4.21106 1.61184 0
M  V30 3001 C 289.165 -4.38479 1.98216 0
M  V30 3002 C 291.517 -4.57256 2.50132 0
M  V30 3003 C 288.845 -4.89282 3.2376 0
M  V30 3004 C 291.197 -5.09454 3.7502 0
M  V30 3005 C 289.861 -5.25037 4.12181 0
M  V30 3006 H 289.131 -0.73571 0.0883825 0
M  V30 3007 H 291.778 -1.68645 0.907257 0
M  V30 3008 H 290.083 -3.88721 -0.490189 0
M  V30 3009 H 291.78 -4.00826 -0.11804 0
M  V30 3010 H 288.37 -4.07966 1.31384 0
M  V30 3011 H 292.554 -4.43479 2.228 0
M  V30 3012 H 287.81 -4.99531 3.52532 0
M  V30 3013 H 291.984 -5.36404 4.44121 0
M  V30 3014 H 289.611 -5.64164 5.09532 0
M  V30 3015 N 291.186 -0.45159 -1.50991 0
M  V30 3016 C 292.463 0.170707 -1.94854 0
M  V30 3017 C 292.843 1.58788 -1.39103 0
M  V30 3018 O 292.191 2.20913 -0.583921 0
M  V30 3019 C 292.401 0.133929 -3.48743 0
M  V30 3020 C 293.749 0.33248 -4.23296 0
M  V30 3021 O 294.773 0.211403 -3.55572 0
M  V30 3022 O 293.632 0.57486 -5.43468 0
M  V30 3023 H 290.726 0.122264 -0.817912 0
M  V30 3024 H 293.272 -0.510594 -1.61836 0
M  V30 3025 H 292.044 -0.856283 -3.81816 0
M  V30 3026 H 291.667 0.857529 -3.88242 0
M  V30 3027 N 292.664 1.56529 -0.183458 0
M  V30 3028 C 293.889 2.02064 0.467428 0
M  V30 3029 C 294.314 1.06282 1.55196 0
M  V30 3030 O 293.672 0.0443565 1.81246 0
M  V30 3031 C 293.72 3.46122 1.01153 0
M  V30 3032 O 292.824 3.53437 2.12499 0
M  V30 3033 H 292.165 0.654726 0.110588 0
M  V30 3034 H 294.695 2.02521 -0.290917 0
M  V30 3035 H 294.705 3.85676 1.33108 0
M  V30 3036 H 293.38 4.15331 0.217533 0
M  V30 3037 H 291.957 3.2575 1.81497 0
M  V30 3038 N 294.142 -0.090211 1.57342 0
M  V30 3039 C 295.553 -0.644173 1.75235 0
M  V30 3040 C 295.904 -1.78865 0.806335 0
M  V30 3041 O 295.029 -2.16395 -0.0140128 0
M  V30 3042 C 295.624 -1.17532 3.1776 0
M  V30 3043 C 294.183 -1.67531 3.37061 0
M  V30 3044 C 293.33 -0.58693 2.71017 0
M  V30 3045 H 296.281 0.135884 1.58117 0
M  V30 3046 H 296.302 -2.04455 3.20902 0
M  V30 3047 H 295.814 -0.342138 3.86589 0
M  V30 3048 H 293.915 -2.53234 2.73319 0
M  V30 3049 H 294.028 -1.76493 4.45406 0
M  V30 3050 H 292.392 -1.02756 2.33052 0
M  V30 3051 H 293.175 0.235758 3.4249 0
M  V30 3052 N 295.62 -1.53406 -0.361157 0
M  V30 3053 C 296.53 -1.83122 -1.4664 0
M  V30 3054 C 297.546 -0.719943 -1.58407 0
M  V30 3055 O 298.722 -1.01046 -1.74218 0
M  V30 3056 C 295.787 -2.01891 -2.81853 0
M  V30 3057 C 294.848 -3.25784 -2.79577 0
M  V30 3058 C 294.081 -3.43648 -4.0834 0
M  V30 3059 O 294.304 -2.65714 -5.0473 0
M  V30 3060 O 293.238 -4.37018 -4.13883 0
M  V30 3061 H 297.064 -2.7703 -1.24451 0
M  V30 3062 H 294.649 -1.38841 -0.551678 0
M  V30 3063 H 296.531 -2.15782 -3.61962 0
M  V30 3064 H 295.206 -1.11173 -3.0401 0
M  V30 3065 H 294.113 -3.17312 -1.98151 0
M  V30 3066 H 295.446 -4.16439 -2.62373 0
M  V30 3067 N 297.098 0.621204 -1.44841 0
M  V30 3068 C 298.323 1.41244 -1.51871 0
M  V30 3069 C 298.748 1.87519 -0.147764 0
M  V30 3070 O 298.106 1.59334 0.865 0
M  V30 3071 C 298.154 2.60221 -2.49634 0
M  V30 3072 O 297.258 3.60395 -2.00473 0
M  V30 3073 H 296.599 0.42223 -0.512463 0
M  V30 3074 H 299.129 0.757305 -1.90069 0
M  V30 3075 H 299.139 3.0764 -2.67996 0
M  V30 3076 H 297.814 2.25887 -3.4921 0
M  V30 3077 H 296.391 3.19717 -1.91925 0
M  V30 3078 N 298.576 1.31904 0.862503 0
M  V30 3079 C 299.526 1.16772 1.95827 0
M  V30 3080 C 300.51 0.0767098 1.60717 0
M  V30 3081 O 301.702 0.302407 1.74398 0
M  V30 3082 C 298.831 0.884858 3.317 0
M  V30 3083 C 297.917 2.0172 3.73055 0
M  V30 3084 N 298.308 3.265 3.86305 0
M  V30 3085 C 296.606 1.91861 4.02623 0
M  V30 3086 C 297.307 4.00616 4.2176 0
M  V30 3087 N 296.283 3.28847 4.32852 0
M  V30 3088 H 300.085 2.11382 2.04193 0
M  V30 3089 H 297.599 1.2357 1.05377 0
M  V30 3090 H 299.596 0.757419 4.09962 0
M  V30 3091 H 298.256 -0.0529448 3.24657 0
M  V30 3092 H 299.267 3.61529 3.70833 0
M  V30 3093 H 295.944 1.05593 4.03926 0
M  V30 3094 H 297.334 5.08182 4.39546 0
M  V30 3095 N 300.054 -1.07777 1.14986 0
M  V30 3096 C 301.3 -1.80557 0.923422 0
M  V30 3097 C 301.633 -1.86298 -0.548337 0
M  V30 3098 O 300.908 -1.34354 -1.40639 0
M  V30 3099 C 301.191 -3.25839 1.53299 0
M  V30 3100 C 301.044 -3.28269 3.07505 0
M  V30 3101 C 302.363 -4.22991 1.21518 0
M  V30 3102 H 299.482 -0.655493 0.336894 0
M  V30 3103 H 302.124 -1.26144 1.42083 0
M  V30 3104 H 300.274 -3.72306 1.10999 0
M  V30 3105 H 301.946 -2.90079 3.58681 0
M  V30 3106 H 300.189 -2.67355 3.4162 0
M  V30 3107 H 300.86 -4.30691 3.45266 0
M  V30 3108 H 303.336 -3.84894 1.581 0
M  V30 3109 H 302.212 -5.22945 1.66793 0
M  V30 3110 H 302.473 -4.41904 0.131505 0
M  V30 3111 N 301.532 -0.945985 -1.26051 0
M  V30 3112 C 302.78 -0.594941 -1.93145 0
M  V30 3113 C 303.101 0.86953 -1.7454 0
M  V30 3114 O 302.371 1.61838 -1.10387 0
M  V30 3115 H 300.951 -0.217044 -0.714773 0
M  V30 3116 H 303.613 -1.20235 -1.53393 0
M  V30 3117 H 302.709 -0.816835 -3.01221 0
M  V30 3118 N 303.011 1.40521 -0.713556 0
M  V30 3119 C 304.257 2.01221 -0.252564 0
M  V30 3120 C 304.59 1.56444 1.1506 0
M  V30 3121 O 303.865 0.783597 1.78017 0
M  V30 3122 C 304.148 3.58582 -0.330332 0
M  V30 3123 C 304.001 4.13437 -1.77173 0
M  V30 3124 C 305.32 4.39079 0.299641 0
M  V30 3125 H 302.439 0.731077 -0.0932471 0
M  V30 3126 H 305.081 1.67026 -0.905673 0
M  V30 3127 H 303.231 3.87844 0.225737 0
M  V30 3128 H 304.903 3.9498 -2.38303 0
M  V30 3129 H 303.146 3.67801 -2.3001 0
M  V30 3130 H 303.817 5.22597 -1.77755 0
M  V30 3131 H 306.293 4.15735 -0.174139 0
M  V30 3132 H 305.169 5.4848 0.214771 0
M  V30 3133 H 305.43 4.19915 1.38288 0
M  V30 3134 N 304.489 0.459591 1.5075 0
M  V30 3135 C 305.452 -0.329093 2.26825 0
M  V30 3136 C 306.452 -0.930481 1.31144 0
M  V30 3137 O 307.642 -0.801453 1.54669 0
M  V30 3138 C 304.774 -1.46768 3.07688 0
M  V30 3139 H 305.967 0.337924 2.9799 0
M  V30 3140 H 303.52 0.213336 1.54837 0
M  V30 3141 H 304.255 -2.17009 2.40993 0
M  V30 3142 H 304.04 -1.04238 3.77991 0
M  V30 3143 H 305.53 -2.02433 3.65254 0
M  V30 3144 N 305.967 -1.56429 0.191757 0
M  V30 3145 C 307.213 -1.98541 -0.441943 0
M  V30 3146 C 307.568 -1.07646 -1.59468 0
M  V30 3147 O 306.861 -0.120191 -1.91223 0
M  V30 3148 C 307.055 -3.44449 -0.953384 0
M  V30 3149 C 306.884 -4.49456 0.148262 0
M  V30 3150 C 305.654 -5.01668 0.604781 0
M  V30 3151 C 307.852 -5.05336 0.95602 0
M  V30 3152 N 305.834 -5.90334 1.6846 0
M  V30 3153 C 307.205 -5.9064 1.88531 0
M  V30 3154 C 309.26 -4.87779 0.998811 0
M  V30 3155 C 307.963 -6.60264 2.85383 0
M  V30 3156 C 309.989 -5.58139 1.95537 0
M  V30 3157 C 309.351 -6.43187 2.8721 0
M  V30 3158 H 305.45 -0.771247 -0.129236 0
M  V30 3159 H 308.034 -1.92426 0.296682 0
M  V30 3160 H 306.205 -3.5107 -1.66146 0
M  V30 3161 H 307.937 -3.73533 -1.55741 0
M  V30 3162 H 304.692 -4.73183 0.198736 0
M  V30 3163 H 305.116 -6.39371 2.22561 0
M  V30 3164 H 309.758 -4.21705 0.304048 0
M  V30 3165 H 307.476 -7.25538 3.55837 0
M  V30 3166 H 311.062 -5.46532 1.99484 0
M  V30 3167 H 309.942 -6.96674 3.60022 0
M  V30 3168 N 307.445 0.0818655 -1.57387 0
M  V30 3169 C 308.861 0.436412 -1.53517 0
M  V30 3170 C 309.061 1.79758 -0.910459 0
M  V30 3171 O 308.117 2.47324 -0.508636 0
M  V30 3172 C 309.43 0.386734 -2.98203 0
M  V30 3173 C 310.978 0.467644 -3.09487 0
M  V30 3174 C 311.453 0.447978 -4.55804 0
M  V30 3175 N 312.944 0.508348 -4.60402 0
M  V30 3176 C 313.679 0.515184 -5.71081 0
M  V30 3177 N 313.175 0.477435 -6.91153 0
M  V30 3178 N 314.968 0.560988 -5.59294 0
M  V30 3179 H 307.119 -0.809546 -1.96367 0
M  V30 3180 H 309.382 -0.302733 -0.898363 0
M  V30 3181 H 309.088 -0.546539 -3.47427 0
M  V30 3182 H 308.962 1.20075 -3.57578 0
M  V30 3183 H 311.349 1.39134 -2.60242 0
M  V30 3184 H 311.43 -0.374753 -2.5304 0
M  V30 3185 H 311.074 -0.471826 -5.05704 0
M  V30 3186 H 311.004 1.30777 -5.10103 0
M  V30 3187 H 313.495 0.54218 -3.7399 0
M  V30 3188 H 313.808 0.486299 -7.71268 0
M  V30 3189 H 312.153 0.444278 -6.93579 0
M  V30 3190 H 315.344 0.5881 -4.64391 0
M  V30 3191 H 315.517 0.562846 -6.45551 0
M  V30 3192 N 308.923 1.53595 0.353017 0
M  V30 3193 C 309.853 1.83902 1.43883 0
M  V30 3194 C 310.834 0.693421 1.55324 0
M  V30 3195 O 312.019 0.944452 1.69687 0
M  V30 3196 C 309.149 2.04016 2.8106 0
M  V30 3197 C 308.103 3.19814 2.84434 0
M  V30 3198 C 307.429 3.25244 4.24406 0
M  V30 3199 C 308.729 4.58133 2.50822 0
M  V30 3200 H 310.423 2.74835 1.1877 0
M  V30 3201 H 307.969 1.32242 0.569917 0
M  V30 3202 H 309.922 2.238 3.57059 0
M  V30 3203 H 308.646 1.09804 3.07588 0
M  V30 3204 H 307.305 2.9987 2.10887 0
M  V30 3205 H 306.953 2.28646 4.48029 0
M  V30 3206 H 306.653 4.03054 4.27576 0
M  V30 3207 H 308.177 3.47228 5.0226 0
M  V30 3208 H 309.591 4.77995 3.16534 0
M  V30 3209 H 307.988 5.38276 2.6529 0
M  V30 3210 H 309.058 4.62387 1.46034 0
M  V30 3211 N 310.401 -0.613514 1.45168 0
M  V30 3212 C 311.348 -1.72456 1.53387 0
M  V30 3213 C 312.318 -1.6169 0.380191 0
M  V30 3214 O 313.503 -1.81356 0.592836 0
M  V30 3215 C 310.643 -3.10753 1.50088 0
M  V30 3216 C 309.756 -3.32368 2.75963 0
M  V30 3217 C 308.891 -4.60737 2.64376 0
M  V30 3218 C 307.93 -4.7559 3.85332 0
M  V30 3219 N 307.067 -5.95253 3.72315 0
M  V30 3220 H 311.907 -1.64768 2.48305 0
M  V30 3221 H 309.444 -0.803503 1.23216 0
M  V30 3222 H 311.402 -3.90758 1.46164 0
M  V30 3223 H 310.032 -3.17413 0.587243 0
M  V30 3224 H 309.084 -2.4618 2.89999 0
M  V30 3225 H 310.396 -3.39218 3.65695 0
M  V30 3226 H 309.55 -5.48928 2.58385 0
M  V30 3227 H 308.289 -4.56275 1.72233 0
M  V30 3228 H 307.294 -3.85824 3.91688 0
M  V30 3229 H 308.519 -4.81854 4.78533 0
M  V30 3230 H 306.465 -5.91847 2.82937 0
M  V30 3231 H 306.382 -6.03236 4.55677 0
M  V30 3232 H 307.65 -6.85958 3.70246 0
M  V30 3233 N 311.879 -1.3236 -0.855495 0
M  V30 3234 C 312.827 -1.2118 -1.9854 0
M  V30 3235 C 313.821 -0.116788 -1.68997 0
M  V30 3236 O 315.027 -0.279657 -1.77814 0
M  V30 3237 H 311.402 -0.375608 -0.651477 0
M  V30 3238 H 313.373 -2.16743 -2.05098 0
M  V30 3239 C 312.122 -0.950849 -3.34446 0
M  V30 3240 H 311.445 -1.78563 -3.57708 0
M  V30 3241 H 312.885 -0.912863 -4.14057 0
M  V30 3242 C 311.344 0.346404 -3.35114 0
M  V30 3243 O 311.874 1.35855 -3.7803 0
M  V30 3244 N 310.08 0.36808 -2.88259 0
M  V30 3245 H 309.627 -0.456102 -2.5353 0
M  V30 3246 H 309.585 1.23591 -2.89089 0
M  V30 3247 N 313.357 1.07166 -1.15556 0
M  V30 3248 C 314.267 2.17947 -0.868116 0
M  V30 3249 C 315.283 1.73297 0.156297 0
M  V30 3250 O 316.459 2.01392 -0.0182327 0
M  V30 3251 C 313.524 3.44789 -0.36355 0
M  V30 3252 C 312.585 4.03996 -1.45209 0
M  V30 3253 C 311.818 5.24783 -0.971508 0
M  V30 3254 O 312.041 5.70109 0.182194 0
M  V30 3255 O 310.975 5.75715 -1.75603 0
M  V30 3256 H 314.801 2.4503 -1.79427 0
M  V30 3257 H 312.386 1.16539 -0.934824 0
M  V30 3258 H 314.268 4.21307 -0.0887113 0
M  V30 3259 H 312.943 3.19253 0.534708 0
M  V30 3260 H 311.85 3.29009 -1.78056 0
M  V30 3261 H 313.183 4.33808 -2.32533 0
M  V30 3262 N 314.835 0.952656 1.25548 0
M  V30 3263 C 316.084 0.602053 1.92505 0
M  V30 3264 C 316.397 -0.864663 1.75451 0
M  V30 3265 O 317.603 -1.32514 2.36965 0
M  V30 3266 C 316.059 1.02607 3.44963 0
M  V30 3267 C 315.667 2.51519 3.70732 0
M  V30 3268 C 317.411 0.747905 4.1786 0
M  V30 3269 C 315.318 2.87732 5.16686 0
M  V30 3270 H 314.248 0.22146 0.720744 0
M  V30 3271 H 316.899 1.15684 1.42441 0
M  V30 3272 H 315.281 0.399712 3.93978 0
M  V30 3273 H 316.455 3.19157 3.32378 0
M  V30 3274 H 314.77 2.76786 3.11092 0
M  V30 3275 H 317.367 0.994647 5.25367 0
M  V30 3276 H 317.71 -0.315629 4.15102 0
M  V30 3277 H 318.243 1.33452 3.74747 0
M  V30 3278 H 314.982 3.93095 5.24554 0
M  V30 3279 H 314.502 2.24765 5.56094 0
M  V30 3280 H 316.181 2.76817 5.84792 0
M  V30 3281 N 316.313 -1.40141 0.720998 0
M  V30 3282 C 317.724 -1.83678 0.334553 0
M  V30 3283 C 318.075 -1.6027 -1.13173 0
M  V30 3284 O 317.2 -1.08643 -1.87152 0
M  V30 3285 C 317.795 -3.33437 0.600437 0
M  V30 3286 C 316.354 -3.75447 0.267642 0
M  V30 3287 C 315.501 -2.63296 0.870097 0
M  V30 3288 H 318.452 -1.29331 0.919732 0
M  V30 3289 H 318.473 -3.80269 -0.132517 0
M  V30 3290 H 317.985 -3.50442 1.66768 0
M  V30 3291 H 316.086 -3.64035 -0.794329 0
M  V30 3292 H 316.199 -4.73344 0.74042 0
M  V30 3293 H 314.563 -2.52954 0.297739 0
M  V30 3294 H 315.346 -2.83112 1.94172 0
M  V30 3295 N 317.792 -0.46758 -1.50504 0
M  V30 3296 C 318.74 0.342482 -2.30065 0
M  V30 3297 C 319.734 0.993596 -1.37201 0
M  V30 3298 O 320.94 0.925102 -1.54408 0
M  V30 3299 H 317.315 0.129283 -0.740803 0
M  V30 3300 H 319.286 -0.34899 -2.96352 0
M  V30 3301 C 318.035 1.4139 -3.17654 0
M  V30 3302 H 317.358 0.922264 -3.89017 0
M  V30 3303 H 318.798 1.95335 -3.76325 0
M  V30 3304 C 317.257 2.4139 -2.35016 0
M  V30 3305 O 317.787 3.46586 -2.03079 0
M  V30 3306 N 315.993 2.13021 -1.97662 0
M  V30 3307 H 315.54 1.27499 -2.23834 0
M  V30 3308 H 315.498 2.80164 -1.42673 0
M  V30 3309 N 319.27 1.56325 -0.20005 0
M  V30 3310 C 320.495 2.02548 0.44597 0
M  V30 3311 C 320.92 1.07922 1.5406 0
M  V30 3312 O 320.278 0.0635775 1.81188 0
M  V30 3313 C 320.326 3.47175 0.974761 0
M  V30 3314 O 319.43 3.55671 2.08739 0
M  V30 3315 H 318.771 0.655862 0.103638 0
M  V30 3316 H 321.301 2.02201 -0.312381 0
M  V30 3317 H 321.311 3.87067 1.2901 0
M  V30 3318 H 319.986 4.15538 0.17347 0
M  V30 3319 H 318.563 3.27657 1.78032 0
M  V30 3320 N 320.748 -0.0735177 1.57428 0
M  V30 3321 C 321.698 -1.09442 2.00016 0
M  V30 3322 C 322.682 -1.34575 0.881947 0
M  V30 3323 O 323.874 -1.34905 1.14585 0
M  V30 3324 C 321.003 -2.40865 2.4462 0
M  V30 3325 C 320.089 -2.19014 3.63172 0
M  V30 3326 N 320.48 -1.67087 4.77405 0
M  V30 3327 C 318.778 -2.49494 3.69688 0
M  V30 3328 C 319.479 -1.6001 5.5926 0
M  V30 3329 N 318.455 -2.05999 5.03056 0
M  V30 3330 H 322.257 -0.686227 2.85776 0
M  V30 3331 H 319.771 -0.280617 1.59957 0
M  V30 3332 H 321.768 -3.14763 2.73368 0
M  V30 3333 H 320.428 -2.82403 1.60246 0
M  V30 3334 H 321.439 -1.35975 4.99731 0
M  V30 3335 H 318.116 -2.94409 2.96023 0
M  V30 3336 H 319.506 -1.2073 6.60964 0
M  V30 3337 N 322.226 -1.5378 -0.344866 0
M  V30 3338 C 323.475 -1.7018 -1.08267 0
M  V30 3339 C 323.788 -0.471 -1.89845 0
M  V30 3340 O 324.994 -0.515917 -2.66553 0
M  V30 3341 C 323.45 -3.00923 -1.97417 0
M  V30 3342 C 323.058 -4.31335 -1.21053 0
M  V30 3343 C 324.802 -3.26688 -2.71063 0
M  V30 3344 C 322.709 -5.53153 -2.09225 0
M  V30 3345 H 321.639 -0.634138 -0.407903 0
M  V30 3346 H 324.29 -1.8028 -0.342246 0
M  V30 3347 H 322.672 -2.84676 -2.75274 0
M  V30 3348 H 323.846 -4.58281 -0.481159 0
M  V30 3349 H 322.161 -4.12173 -0.591813 0
M  V30 3350 H 324.758 -4.1489 -3.37299 0
M  V30 3351 H 325.101 -2.43639 -3.37558 0
M  V30 3352 H 325.634 -3.43705 -2.0028 0
M  V30 3353 H 322.373 -6.38741 -1.47274 0
M  V30 3354 H 321.893 -5.30458 -2.79955 0
M  V30 3355 H 323.572 -5.88744 -2.68308 0
M  V30 3356 N 323.704 0.605807 -1.45491 0
M  V30 3357 C 324.634 1.72709 -1.57143 0
M  V30 3358 C 325.615 1.6476 -0.422884 0
M  V30 3359 O 326.8 1.83132 -0.646247 0
M  V30 3360 C 323.93 3.11316 -1.53948 0
M  V30 3361 C 322.884 3.34077 -2.67537 0
M  V30 3362 C 322.21 4.72975 -2.49397 0
M  V30 3363 C 323.51 3.24158 -4.09535 0
M  V30 3364 H 325.204 1.63214 -2.51001 0
M  V30 3365 H 322.75 0.78379 -1.208 0
M  V30 3366 H 324.703 3.89557 -1.60696 0
M  V30 3367 H 323.427 3.21655 -0.566205 0
M  V30 3368 H 322.086 2.58227 -2.6022 0
M  V30 3369 H 321.734 4.8005 -1.50205 0
M  V30 3370 H 321.434 4.8916 -3.25571 0
M  V30 3371 H 322.958 5.53414 -2.58002 0
M  V30 3372 H 324.372 3.92271 -4.18086 0
M  V30 3373 H 322.769 3.51872 -4.86113 0
M  V30 3374 H 323.839 2.2157 -4.31317 0
M  V30 3375 N 325.182 1.32811 0.848464 0
M  V30 3376 C 326.459 1.14334 1.58704 0
M  V30 3377 C 326.839 -0.293948 2.09043 0
M  V30 3378 O 326.187 -1.29153 1.88499 0
M  V30 3379 C 326.397 2.17626 2.72837 0
M  V30 3380 C 327.745 2.51282 3.42261 0
M  V30 3381 O 328.769 2.16219 2.83068 0
M  V30 3382 O 327.628 3.11413 4.49093 0
M  V30 3383 H 324.722 0.441601 0.699226 0
M  V30 3384 H 327.268 1.44362 0.892053 0
M  V30 3385 H 326.04 3.14211 2.3321 0
M  V30 3386 H 325.663 1.88628 3.50008 0
M  V30 3387 N 326.66 -1.06551 1.16123 0
M  V30 3388 C 327.592 -2.13908 0.823171 0
M  V30 3389 C 328.605 -1.61926 -0.16843 0
M  V30 3390 O 329.794 -1.78412 0.055962 0
M  V30 3391 C 326.894 -3.38283 0.204424 0
M  V30 3392 C 326.067 -4.19589 1.23548 0
M  V30 3393 C 325.126 -5.2233 0.637011 0
M  V30 3394 O 324.152 -5.54034 1.30516 0
M  V30 3395 N 325.354 -5.77621 -0.577474 0
M  V30 3396 H 328.119 -2.43508 1.74711 0
M  V30 3397 H 325.68 -1.2253 1.05821 0
M  V30 3398 H 327.672 -4.0416 -0.208909 0
M  V30 3399 H 326.242 -3.06329 -0.623012 0
M  V30 3400 H 325.462 -3.49406 1.82507 0
M  V30 3401 H 326.75 -4.70718 1.93137 0
M  V30 3402 H 326.148 -5.54125 -1.13853 0
M  V30 3403 H 324.705 -6.45087 -0.933053 0
M  V30 3404 N 328.138 -0.959301 -1.25041 0
M  V30 3405 C 329.368 -0.63303 -1.96663 0
M  V30 3406 C 329.776 0.800031 -1.71453 0
M  V30 3407 O 329.119 1.54736 -0.99008 0
M  V30 3408 C 329.181 -0.817523 -3.50081 0
M  V30 3409 C 328.845 -2.22863 -3.98975 0
M  V30 3410 C 329.842 -3.20569 -4.09306 0
M  V30 3411 C 327.527 -2.55407 -4.32519 0
M  V30 3412 C 329.521 -4.4891 -4.52503 0
M  V30 3413 C 327.208 -3.83976 -4.754 0
M  V30 3414 C 328.206 -4.8054 -4.85356 0
M  V30 3415 O 327.894 -6.06817 -5.27284 0
M  V30 3416 H 327.626 -0.235866 -0.633516 0
M  V30 3417 H 330.18 -1.2874 -1.60047 0
M  V30 3418 H 328.41 -0.105992 -3.86555 0
M  V30 3419 H 330.099 -0.491604 -4.02912 0
M  V30 3420 H 330.865 -2.96753 -3.83618 0
M  V30 3421 H 326.744 -1.8097 -4.23994 0
M  V30 3422 H 330.288 -5.24283 -4.60188 0
M  V30 3423 H 326.185 -4.07596 -5.00535 0
M  V30 3424 H 326.953 -6.10262 -5.45457 0
M  V30 3425 N 329.616 1.39756 -0.72842 0
M  V30 3426 C 331.032 1.5442 -0.403308 0
M  V30 3427 C 331.232 1.69694 1.08656 0
M  V30 3428 O 330.288 1.69373 1.87267 0
M  V30 3429 C 331.601 2.76555 -1.18058 0
M  V30 3430 C 333.149 2.90384 -1.16815 0
M  V30 3431 C 333.624 4.15449 -1.92785 0
M  V30 3432 N 335.115 4.22475 -1.89918 0
M  V30 3433 C 335.85 5.1818 -2.45514 0
M  V30 3434 N 335.346 6.19714 -3.09719 0
M  V30 3435 N 337.139 5.1035 -2.35584 0
M  V30 3436 H 329.29 1.28089 -1.69431 0
M  V30 3437 H 331.553 0.620327 -0.716867 0
M  V30 3438 H 331.259 2.7159 -2.23455 0
M  V30 3439 H 331.133 3.69033 -0.780662 0
M  V30 3440 H 333.52 2.94846 -0.12234 0
M  V30 3441 H 333.601 1.98988 -1.6074 0
M  V30 3442 H 333.245 4.11749 -2.97364 0
M  V30 3443 H 333.175 5.05877 -1.46272 0
M  V30 3444 H 335.666 3.49743 -1.43138 0
M  V30 3445 H 335.979 6.8919 -3.49625 0
M  V30 3446 H 334.324 6.20121 -3.13807 0
M  V30 3447 H 337.515 4.2996 -1.85072 0
M  V30 3448 H 337.688 5.84761 -2.79211 0
M  V30 3449 N 331.094 0.475555 1.50254 0
M  V30 3450 C 332.042 -0.330276 2.30243 0
M  V30 3451 C 333.036 -0.986306 1.37726 0
M  V30 3452 O 334.242 -0.9169 1.54897 0
M  V30 3453 H 330.617 -0.125353 0.741479 0
M  V30 3454 H 332.588 0.364702 2.96163 0
M  V30 3455 C 331.337 -1.39704 3.18399 0
M  V30 3456 H 330.66 -0.901621 3.89501 0
M  V30 3457 H 332.1 -1.93336 3.77355 0
M  V30 3458 C 330.559 -2.4014 2.36293 0
M  V30 3459 O 331.089 -3.45504 2.04914 0
M  V30 3460 N 329.295 -2.1197 1.98789 0
M  V30 3461 H 328.842 -1.2631 2.24507 0
M  V30 3462 H 328.8 -2.79403 1.44157 0
M  V30 3463 N 332.573 -1.56217 0.208337 0
M  V30 3464 C 333.536 -2.18455 -0.693557 0
M  V30 3465 C 334.536 -1.14268 -1.13135 0
M  V30 3466 O 335.726 -1.39577 -1.0423 0
M  V30 3467 C 332.858 -2.79727 -1.94848 0
M  V30 3468 H 334.051 -2.99519 -0.15114 0
M  V30 3469 H 331.604 -1.56245 -0.041287 0
M  V30 3470 H 332.339 -2.02497 -2.53309 0
M  V30 3471 H 332.124 -3.56009 -1.64316 0
M  V30 3472 H 333.614 -3.27475 -2.59133 0
M  V30 3473 N 334.051 0.0651679 -1.57465 0
M  V30 3474 C 335.276 0.779605 -1.9219 0
M  V30 3475 C 335.701 1.69988 -0.805333 0
M  V30 3476 O 335.059 1.79685 0.241435 0
M  V30 3477 C 335.107 1.54364 -3.2589 0
M  V30 3478 O 334.211 2.65474 -3.1559 0
M  V30 3479 H 333.552 0.212249 -0.629163 0
M  V30 3480 H 336.082 0.0314294 -2.04576 0
M  V30 3481 H 336.092 1.92146 -3.59922 0
M  V30 3482 H 334.767 0.868457 -4.06732 0
M  V30 3483 H 333.344 2.30501 -2.93128 0
M  V30 3484 N 335.529 1.53961 0.336706 0
M  V30 3485 C 336.477 1.83136 1.43401 0
M  V30 3486 C 337.471 0.702313 1.54156 0
M  V30 3487 O 338.677 0.885765 1.56698 0
M  V30 3488 H 335.052 0.580309 0.478273 0
M  V30 3489 H 337.023 2.74925 1.16012 0
M  V30 3490 C 335.772 2.06385 2.79822 0
M  V30 3491 H 335.095 2.92718 2.72316 0
M  V30 3492 H 336.535 2.30761 3.55704 0
M  V30 3493 C 334.994 0.851414 3.25964 0
M  V30 3494 O 335.524 0.0541904 4.01663 0
M  V30 3495 N 333.73 0.66672 2.82848 0
M  V30 3496 H 333.277 1.31665 2.21409 0
M  V30 3497 H 333.235 -0.143032 3.14074 0
M  V30 3498 N 337.007 -0.598083 1.45811 0
M  V30 3499 C 338.418 -1.18011 1.44673 0
M  V30 3500 C 338.769 -1.95378 0.179364 0
M  V30 3501 O 337.894 -2.04124 -0.718509 0
M  V30 3502 C 338.489 -2.14677 2.62105 0
M  V30 3503 C 337.048 -2.68236 2.64057 0
M  V30 3504 C 336.195 -1.43816 2.37091 0
M  V30 3505 H 339.146 -0.38686 1.53913 0
M  V30 3506 H 339.167 -2.97878 2.36746 0
M  V30 3507 H 338.679 -1.5834 3.5433 0
M  V30 3508 H 336.78 -3.28486 1.75864 0
M  V30 3509 H 336.893 -3.12021 3.63566 0
M  V30 3510 H 335.257 -1.731 1.86838 0
M  V30 3511 H 336.04 -0.893333 3.31473 0
M  V30 3512 N 338.485 -1.33259 -0.841409 0
M  V30 3513 C 339.415 -1.25926 -1.96634 0
M  V30 3514 C 340.396 -0.140349 -1.6952 0
M  V30 3515 O 341.581 -0.329707 -1.91381 0
M  V30 3516 C 338.711 -0.99512 -3.32738 0
M  V30 3517 C 337.665 -2.0767 -3.74242 0
M  V30 3518 C 336.991 -1.66474 -5.08125 0
M  V30 3519 C 338.291 -3.49318 -3.88297 0
M  V30 3520 H 339.985 -2.20046 -2.03027 0
M  V30 3521 H 337.531 -1.05931 -0.975425 0
M  V30 3522 H 339.484 -0.930323 -4.11002 0
M  V30 3523 H 338.208 -0.0183004 -3.26595 0
M  V30 3524 H 336.867 -2.13187 -2.98239 0
M  V30 3525 H 336.515 -0.675012 -4.9845 0
M  V30 3526 H 336.215 -2.3885 -5.36865 0
M  V30 3527 H 337.739 -1.61455 -5.88867 0
M  V30 3528 H 339.153 -3.46316 -4.56879 0
M  V30 3529 H 337.55 -4.20158 -4.28471 0
M  V30 3530 H 338.62 -3.8801 -2.9082 0
M  V30 3531 N 339.963 1.05934 -1.16686 0
M  V30 3532 C 340.926 2.11669 -0.879144 0
M  V30 3533 C 341.926 1.60294 0.127445 0
M  V30 3534 O 343.116 1.7389 -0.103865 0
M  V30 3535 C 340.248 3.39438 -0.315425 0
M  V30 3536 H 341.441 2.38626 -1.81653 0
M  V30 3537 H 338.994 1.22058 -0.976299 0
M  V30 3538 H 339.729 3.18132 0.629468 0
M  V30 3539 H 339.514 3.78034 -1.04079 0
M  V30 3540 H 341.004 4.17391 -0.132189 0
M  V30 3541 N 341.441 0.965919 1.2453 0
M  V30 3542 C 342.391 0.465731 2.23193 0
M  V30 3543 C 343.375 -0.451277 1.54442 0
M  V30 3544 O 344.567 -0.282489 1.74731 0
M  V30 3545 C 341.696 -0.244511 3.42428 0
M  V30 3546 C 340.782 0.691222 4.18429 0
M  V30 3547 N 341.173 1.82771 4.71623 0
M  V30 3548 C 339.471 0.501649 4.4317 0
M  V30 3549 C 340.172 2.41285 5.29298 0
M  V30 3550 N 339.148 1.69819 5.16394 0
M  V30 3551 H 342.95 1.33291 2.61937 0
M  V30 3552 H 340.464 0.824789 1.39896 0
M  V30 3553 H 342.461 -0.620056 4.12263 0
M  V30 3554 H 341.121 -1.10815 3.05205 0
M  V30 3555 H 342.132 2.20929 4.68413 0
M  V30 3556 H 338.809 -0.318177 4.16286 0
M  V30 3557 H 340.199 3.37181 5.8117 0
M  V30 3558 N 342.919 -1.39368 0.735821 0
M  V30 3559 C 344.149 -2.04498 0.293967 0
M  V30 3560 C 344.557 -1.55593 -1.07645 0
M  V30 3561 O 343.9 -0.716324 -1.69158 0
M  V30 3562 C 343.962 -3.58836 0.218342 0
M  V30 3563 C 343.626 -4.30721 1.52736 0
M  V30 3564 C 344.623 -4.57305 2.47322 0
M  V30 3565 C 342.308 -4.69251 1.79189 0
M  V30 3566 C 344.302 -5.21429 3.66593 0
M  V30 3567 C 341.989 -5.33104 2.98737 0
M  V30 3568 C 342.987 -5.59125 3.9226 0
M  V30 3569 O 342.675 -6.21653 5.09708 0
M  V30 3570 H 342.407 -0.664118 0.126189 0
M  V30 3571 H 344.961 -1.79385 1.00051 0
M  V30 3572 H 343.191 -3.8285 -0.544314 0
M  V30 3573 H 344.88 -4.05447 -0.191626 0
M  V30 3574 H 345.646 -4.27983 2.28156 0
M  V30 3575 H 341.525 -4.48354 1.07239 0
M  V30 3576 H 345.069 -5.41656 4.39607 0
M  V30 3577 H 340.966 -5.61846 3.17803 0
M  V30 3578 H 341.734 -6.40146 5.10054 0
M  V30 3579 N 344.397 -0.483516 -1.5 0
M  V30 3580 C 345.674 0.129337 -1.95172 0
M  V30 3581 C 346.054 1.55802 -1.4244 0
M  V30 3582 O 345.402 2.19625 -0.630649 0
M  V30 3583 C 345.612 0.0599251 -3.48949 0
M  V30 3584 C 346.96 0.242617 -4.23906 0
M  V30 3585 O 347.984 0.135933 -3.55941 0
M  V30 3586 O 346.843 0.459454 -5.44565 0
M  V30 3587 H 343.937 0.104887 -0.820322 0
M  V30 3588 H 346.483 -0.544807 -1.60717 0
M  V30 3589 H 345.255 -0.937079 -3.79914 0
M  V30 3590 H 344.878 0.774984 -3.89974 0
M  V30 3591 N 345.875 1.56104 -0.216619 0
M  V30 3592 C 347.103 2.02563 0.421413 0
M  V30 3593 C 347.518 1.0965 1.53695 0
M  V30 3594 O 346.875 0.10521 1.82196 0
M  V30 3595 C 346.926 3.48584 0.957665 0
M  V30 3596 O 346.647 4.37953 -0.113389 0
M  V30 3597 C 348.148 4.10664 1.66943 0
M  V30 3598 H 345.368 0.662944 0.103665 0
M  V30 3599 H 347.912 2.01793 -0.331629 0
M  V30 3600 H 346.067 3.49985 1.661 0
M  V30 3601 H 346.481 5.23704 0.288932 0
M  V30 3602 H 347.955 5.14622 1.99671 0
M  V30 3603 H 348.432 3.55373 2.58083 0
M  V30 3604 H 349.038 4.13098 1.01142 0
M  V30 3605 N 347.353 -0.0568162 1.57498 0
M  V30 3606 C 348.581 -0.765626 1.92213 0
M  V30 3607 C 348.996 -1.70353 0.813961 0
M  V30 3608 O 348.353 -1.81268 -0.211701 0
M  V30 3609 C 348.404 -1.5465 3.2675 0
M  V30 3610 O 348.125 -0.646278 4.33307 0
M  V30 3611 C 349.626 -2.35497 3.75574 0
M  V30 3612 H 346.846 -0.216835 0.634999 0
M  V30 3613 H 349.39 -0.0226146 2.04487 0
M  V30 3614 H 347.545 -2.24165 3.15957 0
M  V30 3615 H 347.959 -1.19093 5.108 0
M  V30 3616 H 349.433 -2.85722 4.72299 0
M  V30 3617 H 349.91 -3.15692 3.05344 0
M  V30 3618 H 350.516 -1.7111 3.8936 0
M  V30 3619 N 348.832 -1.54138 -0.328536 0
M  V30 3620 C 349.795 -1.82462 -1.38709 0
M  V30 3621 C 350.795 -0.696229 -1.44946 0
M  V30 3622 O 351.985 -0.964535 -1.4506 0
M  V30 3623 C 349.117 -1.98018 -2.77492 0
M  V30 3624 H 350.31 -2.77037 -1.14851 0
M  V30 3625 H 347.863 -1.45779 -0.563751 0
M  V30 3626 H 348.598 -1.05637 -3.06613 0
M  V30 3627 H 348.383 -2.80124 -2.74359 0
M  V30 3628 H 349.873 -2.21396 -3.54081 0
M  V30 3629 N 350.31 0.590341 -1.46126 0
M  V30 3630 C 351.587 1.35029 -1.41515 0
M  V30 3631 C 351.967 2.10888 -0.0946472 0
M  V30 3632 O 351.315 2.08998 0.923693 0
M  V30 3633 C 351.525 2.28269 -2.63997 0
M  V30 3634 C 352.873 2.90338 -3.09821 0
M  V30 3635 O 353.897 2.38585 -2.64492 0
M  V30 3636 O 352.756 3.84321 -3.88535 0
M  V30 3637 H 349.85 0.606317 -0.562413 0
M  V30 3638 H 352.396 0.611994 -1.58281 0
M  V30 3639 H 351.168 1.71591 -3.51671 0
M  V30 3640 H 350.791 3.0945 -2.49652 0
M  V30 3641 N 351.788 1.33704 0.83433 0
M  V30 3642 C 352.698 1.26382 1.97648 0
M  V30 3643 C 353.714 0.173548 1.73132 0
M  V30 3644 O 354.89 0.397962 1.97429 0
M  V30 3645 C 351.955 1.00769 3.31733 0
M  V30 3646 C 351.016 2.1884 3.69334 0
M  V30 3647 C 350.249 1.9444 4.9702 0
M  V30 3648 O 350.472 0.896961 5.63303 0
M  V30 3649 O 349.406 2.81093 5.32231 0
M  V30 3650 H 353.232 2.22444 2.06767 0
M  V30 3651 H 350.817 1.13795 0.968037 0
M  V30 3652 H 352.699 0.882186 4.12062 0
M  V30 3653 H 351.374 0.0773783 3.23608 0
M  V30 3654 H 350.281 2.36946 2.89495 0
M  V30 3655 H 351.614 3.10221 3.82131 0
M  V30 3656 N 353.266 -1.05314 1.17247 0
M  V30 3657 C 354.515 -1.77685 0.954521 0
M  V30 3658 C 354.828 -1.88616 -0.518025 0
M  V30 3659 O 356.034 -2.57714 -0.854144 0
M  V30 3660 C 354.49 -3.19402 1.65863 0
M  V30 3661 C 354.098 -3.16605 3.16963 0
M  V30 3662 C 355.842 -3.96237 1.52303 0
M  V30 3663 C 353.749 -4.53103 3.80068 0
M  V30 3664 H 352.679 -0.666 0.353496 0
M  V30 3665 H 355.33 -1.1805 1.40486 0
M  V30 3666 H 353.712 -3.79355 1.13602 0
M  V30 3667 H 354.886 -2.66176 3.76148 0
M  V30 3668 H 353.201 -2.53268 3.30521 0
M  V30 3669 H 355.798 -4.97157 1.96822 0
M  V30 3670 H 356.141 -4.136 0.473401 0
M  V30 3671 H 356.674 -3.42829 2.01775 0
M  V30 3672 H 353.413 -4.40946 4.85023 0
M  V30 3673 H 352.933 -5.03686 3.2567 0
M  V30 3674 H 354.612 -5.22045 3.82202 0
M  V30 3675 N 354.744 -0.972509 -1.24016 0
M  V30 3676 C 355.674 -0.525548 -2.27509 0
M  V30 3677 C 356.655 0.437262 -1.64384 0
M  V30 3678 O 357.84 0.332343 -1.91335 0
M  V30 3679 C 354.97 0.180448 -3.46831 0
M  V30 3680 C 353.924 -0.698859 -4.22256 0
M  V30 3681 C 353.25 0.138903 -5.3452 0
M  V30 3682 C 354.55 -1.98582 -4.83076 0
M  V30 3683 H 356.244 -1.39058 -2.65148 0
M  V30 3684 H 353.79 -0.67009 -1.27459 0
M  V30 3685 H 355.743 0.504387 -4.18371 0
M  V30 3686 H 354.467 1.07987 -3.08231 0
M  V30 3687 H 353.126 -1.00614 -3.52523 0
M  V30 3688 H 352.774 1.03862 -4.9216 0
M  V30 3689 H 352.474 -0.446259 -5.85903 0
M  V30 3690 H 353.998 0.457404 -6.08884 0
M  V30 3691 H 355.412 -1.72715 -5.46665 0
M  V30 3692 H 353.809 -2.5181 -5.44713 0
M  V30 3693 H 354.879 -2.67769 -4.04262 0
M  V30 3694 N 356.222 1.38976 -0.743202 0
M  V30 3695 C 357.154 2.29096 -0.0689228 0
M  V30 3696 C 358.167 1.47229 0.694791 0
M  V30 3697 O 359.356 1.70212 0.537597 0
M  V30 3698 C 356.456 3.25988 0.926548 0
M  V30 3699 C 355.629 4.36833 0.222647 0
M  V30 3700 C 354.688 5.13981 1.12739 0
M  V30 3701 O 353.714 5.6601 0.601795 0
M  V30 3702 N 354.916 5.25966 2.45641 0
M  V30 3703 H 357.681 2.87604 -0.842846 0
M  V30 3704 H 355.242 1.50645 -0.593109 0
M  V30 3705 H 357.234 3.74476 1.5346 0
M  V30 3706 H 355.804 2.68453 1.60162 0
M  V30 3707 H 355.024 3.90116 -0.565983 0
M  V30 3708 H 356.312 5.0811 -0.264841 0
M  V30 3709 H 355.71 4.85228 2.9081 0
M  V30 3710 H 354.267 5.77865 3.01522 0
M  V30 3711 N 357.7 0.491464 1.49741 0
M  V30 3712 C 358.632 -0.328609 2.26832 0
M  V30 3713 C 359.645 -0.939113 1.32983 0
M  V30 3714 O 360.834 -0.824067 1.58339 0
M  V30 3715 C 357.934 -1.47675 3.05033 0
M  V30 3716 C 357.107 -0.975305 4.26388 0
M  V30 3717 C 356.166 -1.99991 4.86714 0
M  V30 3718 O 355.192 -1.57229 5.47054 0
M  V30 3719 N 356.394 -3.32962 4.75517 0
M  V30 3720 H 359.159 0.332377 2.97851 0
M  V30 3721 H 356.72 0.323441 1.58636 0
M  V30 3722 H 358.712 -2.15954 3.42266 0
M  V30 3723 H 357.282 -2.04206 2.36683 0
M  V30 3724 H 356.502 -0.117723 3.94024 0
M  V30 3725 H 357.79 -0.618531 5.05026 0
M  V30 3726 H 357.188 -3.70399 4.27576 0
M  V30 3727 H 355.745 -3.96982 5.16961 0
M  V30 3728 N 359.178 -1.55987 0.224894 0
M  V30 3729 C 360.418 -2.00293 -0.407706 0
M  V30 3730 C 360.782 -1.1093 -1.56711 0
M  V30 3731 O 361.983 -1.44597 -2.26595 0
M  V30 3732 C 360.254 -3.47675 -0.82805 0
M  V30 3733 S 361.813 -4.14 -1.45429 0
M  V30 3734 H 358.631 -0.699152 -0.129256 0
M  V30 3735 H 361.233 -1.92609 0.334967 0
M  V30 3736 H 359.937 -4.10392 0.0253964 0
M  V30 3737 H 359.468 -3.59239 -1.60345 0
M  V30 3738 H 361.483 -4.13465 -2.74337 0
M  V30 3739 N 360.656 0.0484629 -1.57525 0
M  V30 3740 C 361.933 0.777447 -1.79486 0
M  V30 3741 C 362.313 1.94597 -0.818251 0
M  V30 3742 O 361.661 2.28047 0.143767 0
M  V30 3743 C 361.871 1.22864 -3.26658 0
M  V30 3744 C 363.219 1.65251 -3.91123 0
M  V30 3745 O 364.243 1.32372 -3.3069 0
M  V30 3746 O 363.102 2.26207 -4.97486 0
M  V30 3747 H 360.196 0.374357 -0.737419 0
M  V30 3748 H 362.742 0.0267359 -1.69679 0
M  V30 3749 H 361.514 0.393589 -3.89316 0
M  V30 3750 H 361.137 2.03996 -3.41279 0
M  V30 3751 N 362.134 1.5431 0.320358 0
M  V30 3752 C 363.382 1.72327 1.05583 0
M  V30 3753 C 363.703 0.50149 1.88441 0
M  V30 3754 O 362.973 -0.48448 1.89815 0
M  V30 3755 H 361.553 0.635387 0.3928 0
M  V30 3756 H 364.215 1.91621 0.356019 0
M  V30 3757 H 363.311 2.60426 1.72003 0
M  V30 3758 N 363.613 -0.582584 1.46437 0
M  V30 3759 C 364.56 -1.69164 1.5701 0
M  V30 3760 C 365.53 -1.60847 0.414403 0
M  V30 3761 O 366.715 -1.80058 0.631171 0
M  V30 3762 C 363.855 -3.075 1.56646 0
M  V30 3763 C 362.968 -3.2644 2.82951 0
M  V30 3764 C 362.103 -4.55026 2.7409 0
M  V30 3765 C 361.142 -4.6731 3.95333 0
M  V30 3766 N 360.279 -5.87221 3.84858 0
M  V30 3767 H 365.119 -1.59464 2.51744 0
M  V30 3768 H 362.656 -0.777186 1.24893 0
M  V30 3769 H 364.614 -3.8757 1.5442 0
M  V30 3770 H 363.244 -3.16096 0.654439 0
M  V30 3771 H 362.296 -2.39974 2.95155 0
M  V30 3772 H 363.608 -3.31385 3.72808 0
M  V30 3773 H 362.762 -5.43324 2.6997 0
M  V30 3774 H 361.501 -4.52519 1.81873 0
M  V30 3775 H 360.506 -3.77429 3.99784 0
M  V30 3776 H 361.731 -4.71595 4.88646 0
M  V30 3777 H 359.677 -5.85712 2.95427 0
M  V30 3778 H 359.594 -5.93435 4.6837 0
M  V30 3779 H 360.862 -6.7795 3.84713 0
M  V30 3780 N 365.091 -1.34144 -0.827227 0
M  V30 3781 C 366.021 -1.28005 -1.95287 0
M  V30 3782 C 367.002 -0.158321 -1.69362 0
M  V30 3783 O 368.187 -0.349987 -1.9102 0
M  V30 3784 C 365.317 -1.03036 -3.31664 0
M  V30 3785 C 364.271 -2.11628 -3.72019 0
M  V30 3786 C 363.597 -1.71854 -5.0633 0
M  V30 3787 C 364.897 -3.53417 -3.8457 0
M  V30 3788 H 366.591 -2.22187 -2.00682 0
M  V30 3789 H 364.137 -1.0696 -0.964135 0
M  V30 3790 H 366.09 -0.973863 -4.09993 0
M  V30 3791 H 364.814 -0.0529391 -3.26557 0
M  V30 3792 H 363.473 -2.16339 -2.95961 0
M  V30 3793 H 363.121 -0.727841 -4.97706 0
M  V30 3794 H 362.821 -2.44531 -5.34302 0
M  V30 3795 H 364.345 -1.67692 -5.87122 0
M  V30 3796 H 365.759 -3.51142 -4.5318 0
M  V30 3797 H 364.156 -4.24679 -4.2399 0
M  V30 3798 H 365.226 -3.91072 -2.86689 0
M  V30 3799 N 366.569 1.04691 -1.17803 0
M  V30 3800 C 367.846 1.7472 -0.879328 0
M  V30 3801 C 368.226 2.01812 0.619271 0
M  V30 3802 O 367.574 1.65824 1.57209 0
M  V30 3803 C 367.784 3.03686 -1.71976 0
M  V30 3804 C 369.132 3.77542 -1.94286 0
M  V30 3805 O 370.156 3.13569 -1.68976 0
M  V30 3806 O 369.015 4.92506 -2.36855 0
M  V30 3807 H 366.109 0.760011 -0.326056 0
M  V30 3808 H 368.655 1.10813 -1.28525 0
M  V30 3809 H 367.427 2.79754 -2.73594 0
M  V30 3810 H 367.05 3.75332 -1.31194 0
M  V30 3811 N 368.047 0.979072 1.23499 0
M  V30 3812 C 368.98 0.463027 2.23453 0
M  V30 3813 C 369.958 -0.469128 1.55685 0
M  V30 3814 O 371.142 -0.397882 1.84253 0
M  V30 3815 C 368.269 -0.330308 3.37086 0
M  V30 3816 C 367.315 0.545795 4.22993 0
M  V30 3817 S 368.148 1.99285 4.97037 0
M  V30 3818 C 369.304 1.20862 6.1412 0
M  V30 3819 H 369.537 1.31005 2.6688 0
M  V30 3820 H 367.07 0.784965 1.32957 0
M  V30 3821 H 369.028 -0.782027 4.02982 0
M  V30 3822 H 367.689 -1.15244 2.92194 0
M  V30 3823 H 366.882 -0.0638928 5.03959 0
M  V30 3824 H 366.484 0.933705 3.62157 0
M  V30 3825 H 368.776 0.469284 6.75873 0
M  V30 3826 H 369.719 1.99307 6.79472 0
M  V30 3827 H 370.127 0.727992 5.59786 0
M  V30 3828 N 369.525 -1.3858 0.750561 0
M  V30 3829 C 370.455 -2.33102 0.136237 0
M  V30 3830 C 371.436 -1.54713 -0.706965 0
M  V30 3831 O 372.621 -1.83043 -0.648769 0
M  V30 3832 C 369.751 -3.38882 -0.760017 0
M  V30 3833 C 368.705 -4.27995 -0.0197785 0
M  V30 3834 C 368.031 -5.24605 -1.03408 0
M  V30 3835 C 369.331 -5.09554 1.14684 0
M  V30 3836 H 371.025 -2.84726 0.925822 0
M  V30 3837 H 368.571 -1.36898 0.446654 0
M  V30 3838 H 370.524 -4.0397 -1.19943 0
M  V30 3839 H 369.248 -2.85734 -1.58189 0
M  V30 3840 H 367.907 -3.64409 0.400184 0
M  V30 3841 H 367.555 -4.67746 -1.84994 0
M  V30 3842 H 367.255 -5.85081 -0.543464 0
M  V30 3843 H 368.779 -5.9257 -1.47288 0
M  V30 3844 H 370.193 -5.67899 0.785118 0
M  V30 3845 H 368.59 -5.7925 1.56812 0
M  V30 3846 H 369.66 -4.4347 1.96118 0
M  V30 3847 N 371.003 -0.499398 -1.49478 0
M  V30 3848 C 372.249 0.0457576 -2.02748 0
M  V30 3849 C 372.582 1.36793 -1.37846 0
M  V30 3850 O 371.857 1.87596 -0.513601 0
M  V30 3851 C 372.14 0.199986 -3.59544 0
M  V30 3852 C 371.993 -1.1452 -4.34977 0
M  V30 3853 C 373.312 0.94137 -4.29914 0
M  V30 3854 H 370.431 0.0151552 -0.736844 0
M  V30 3855 H 373.073 -0.650498 -1.78518 0
M  V30 3856 H 371.223 0.793007 -3.8032 0
M  V30 3857 H 372.895 -1.77697 -4.25701 0
M  V30 3858 H 371.138 -1.73488 -3.97598 0
M  V30 3859 H 371.809 -0.990607 -5.43039 0
M  V30 3860 H 374.285 0.43844 -4.13784 0
M  V30 3861 H 373.161 1.01812 -5.39375 0
M  V30 3862 H 373.422 1.98471 -3.95046 0
M  V30 3863 N 372.481 1.55866 -0.233164 0
M  V30 3864 C 373.444 2.1953 0.658715 0
M  V30 3865 C 374.444 1.16053 1.11303 0
M  V30 3866 O 375.634 1.41218 1.01996 0
M  V30 3867 C 372.766 2.82791 1.90373 0
M  V30 3868 H 373.959 2.99721 0.10347 0
M  V30 3869 H 371.512 1.56291 0.0164245 0
M  V30 3870 H 372.247 2.06501 2.50056 0
M  V30 3871 H 372.032 3.58578 1.58632 0
M  V30 3872 H 373.522 3.31556 2.53891 0
M  V30 3873 N 373.959 -0.0401083 1.57549 0
M  V30 3874 C 375.184 -0.748931 1.93406 0
M  V30 3875 C 375.609 -1.68686 0.832274 0
M  V30 3876 O 374.967 -1.80047 -0.212818 0
M  V30 3877 C 375.015 -1.4916 3.28304 0
M  V30 3878 O 374.119 -2.6042 3.19774 0
M  V30 3879 H 373.46 -0.202212 0.63246 0
M  V30 3880 H 375.99 0.00112086 2.046 0
M  V30 3881 H 376 -1.86395 3.62934 0
M  V30 3882 H 374.675 -0.80364 4.08062 0
M  V30 3883 H 373.252 -2.25808 2.96758 0
M  V30 3884 N 375.437 -1.54477 -0.31217 0
M  V30 3885 C 376.683 -1.73483 -1.0503 0
M  V30 3886 C 377.016 -0.513125 -1.87298 0
M  V30 3887 O 376.291 0.489864 -1.8823 0
M  V30 3888 C 376.574 -3.01723 -1.96558 0
M  V30 3889 C 376.427 -4.3417 -1.17545 0
M  V30 3890 C 377.746 -3.25772 -2.95907 0
M  V30 3891 H 374.865 -0.631222 -0.380432 0
M  V30 3892 H 377.507 -1.87184 -0.325932 0
M  V30 3893 H 375.657 -2.90174 -2.58324 0
M  V30 3894 H 377.329 -4.5762 -0.581513 0
M  V30 3895 H 375.572 -4.31159 -0.477925 0
M  V30 3896 H 376.243 -5.20143 -1.84811 0
M  V30 3897 H 378.719 -3.36857 -2.44267 0
M  V30 3898 H 377.595 -4.16838 -3.57123 0
M  V30 3899 H 377.856 -2.43537 -3.68974 0
M  V30 3900 N 376.915 0.57481 -1.46744 0
M  V30 3901 C 378.163 1.33009 -1.52161 0
M  V30 3902 C 378.484 1.94185 -0.178092 0
M  V30 3903 O 377.754 1.7899 0.796196 0
M  V30 3904 H 376.334 0.493873 -0.560445 0
M  V30 3905 H 378.996 0.672589 -1.82927 0
M  V30 3906 H 378.092 2.13273 -2.27862 0
M  V30 3907 N 378.394 1.34581 0.820102 0
M  V30 3908 C 379.622 1.3018 1.60813 0
M  V30 3909 C 380.037 -0.123551 1.88395 0
M  V30 3910 O 379.394 -1.07148 1.47735 0
M  V30 3911 C 379.445 2.09312 2.94739 0
M  V30 3912 O 379.166 3.46288 2.68358 0
M  V30 3913 C 380.667 2.1234 3.89136 0
M  V30 3914 H 377.887 0.447726 0.499782 0
M  V30 3915 H 380.431 1.77237 1.02017 0
M  V30 3916 H 378.586 1.65889 3.50085 0
M  V30 3917 H 379 3.87227 3.53774 0
M  V30 3918 H 380.474 2.72126 4.80262 0
M  V30 3919 H 380.951 1.11854 4.24718 0
M  V30 3920 H 381.557 2.55864 3.39726 0
M  V30 3921 N 379.872 -1.04064 1.18357 0
M  V30 3922 C 381.12 -1.76915 0.977013 0
M  V30 3923 C 381.441 -1.88624 -0.494577 0
M  V30 3924 O 380.711 -1.41125 -1.3587 0
M  V30 3925 H 379.291 -0.65535 0.358504 0
M  V30 3926 H 381.953 -1.25592 1.49039 0
M  V30 3927 H 381.049 -2.78178 1.41504 0
M  V30 3928 N 381.35 -0.985608 -1.22978 0
M  V30 3929 C 382.598 -0.656087 -1.91154 0
M  V30 3930 C 382.919 0.813561 -1.77218 0
M  V30 3931 O 382.189 1.58244 -1.1548 0
M  V30 3932 H 380.769 -0.239674 -0.707506 0
M  V30 3933 H 383.431 -1.25054 -1.49491 0
M  V30 3934 H 382.527 -0.912253 -2.9847 0
M  V30 3935 N 382.828 1.3818 -0.7579 0
M  V30 3936 C 384.056 2.04301 -0.326937 0
M  V30 3937 C 384.471 1.57163 1.0462 0
M  V30 3938 O 383.828 0.746626 1.66529 0
M  V30 3939 C 383.879 3.59846 -0.345363 0
M  V30 3940 O 383.6 4.05256 -1.66432 0
M  V30 3941 C 385.101 4.4319 0.098927 0
M  V30 3942 H 382.321 0.656443 -0.139012 0
M  V30 3943 H 384.865 1.76786 -1.02796 0
M  V30 3944 H 383.02 3.86182 0.306955 0
M  V30 3945 H 383.434 4.99709 -1.59345 0
M  V30 3946 H 384.908 5.51989 0.0348745 0
M  V30 3947 H 385.385 4.23947 1.14741 0
M  V30 3948 H 385.991 4.22051 -0.52468 0
M  V30 3949 N 384.306 0.507319 1.49211 0
M  V30 3950 C 385.555 -0.0368315 2.01666 0
M  V30 3951 C 385.868 -1.37459 1.39156 0
M  V30 3952 O 387.074 -2.00579 1.82976 0
M  V30 3953 C 385.53 -0.116089 3.59713 0
M  V30 3954 C 385.138 1.2154 4.31198 0
M  V30 3955 C 386.882 -0.610268 4.2009 0
M  V30 3956 C 384.789 1.09796 5.81119 0
M  V30 3957 H 383.719 -0.0175376 0.753796 0
M  V30 3958 H 386.37 0.647691 1.71689 0
M  V30 3959 H 384.752 -0.8652 3.86433 0
M  V30 3960 H 385.926 1.9783 4.16173 0
M  V30 3961 H 384.241 1.64352 3.82593 0
M  V30 3962 H 386.838 -0.715742 5.29888 0
M  V30 3963 H 387.181 -1.61064 3.8388 0
M  V30 3964 H 387.714 0.0824916 3.97714 0
M  V30 3965 H 384.453 2.0728 6.21864 0
M  V30 3966 H 383.973 0.376058 5.9862 0
M  V30 3967 H 385.652 0.779281 6.4229 0
M  V30 3968 N 385.784 -1.5574 0.241426 0
M  V30 3969 C 387.012 -2.03208 -0.389134 0
M  V30 3970 C 387.427 -1.12082 -1.51931 0
M  V30 3971 O 386.784 -0.134183 -1.82006 0
M  V30 3972 C 386.835 -3.50064 -0.902087 0
M  V30 3973 O 386.556 -4.37717 0.18305 0
M  V30 3974 C 388.057 -4.13268 -1.60389 0
M  V30 3975 H 385.277 -0.664509 -0.0931053 0
M  V30 3976 H 387.821 -2.0124 0.36369 0
M  V30 3977 H 385.976 -3.52583 -1.60511 0
M  V30 3978 H 386.39 -5.24097 -0.205579 0
M  V30 3979 H 387.864 -5.17733 -1.91458 0
M  V30 3980 H 388.341 -3.59434 -2.52397 0
M  V30 3981 H 388.947 -4.14655 -0.945576 0
M  V30 3982 N 387.262 0.0317525 -1.57568 0
M  V30 3983 C 388.51 0.721676 -1.88776 0
M  V30 3984 C 388.831 1.76039 -0.838772 0
M  V30 3985 O 388.101 1.95482 0.127935 0
M  V30 3986 H 386.681 0.269534 -0.696678 0
M  V30 3987 H 389.343 -0.00165879 -1.949 0
M  V30 3988 H 388.439 1.21293 -2.87566 0
M  V30 3989 N 388.74 1.54641 0.303973 0
M  V30 3990 C 389.989 1.7299 1.03717 0
M  V30 3991 C 390.302 0.521168 1.88529 0
M  V30 3992 O 391.508 0.586408 2.65092 0
M  V30 3993 C 389.964 3.06051 1.89369 0
M  V30 3994 C 389.572 4.34393 1.09574 0
M  V30 3995 C 391.316 3.3376 2.62306 0
M  V30 3996 C 389.223 5.58506 1.94486 0
M  V30 3997 H 388.153 0.64473 0.390947 0
M  V30 3998 H 390.804 1.81124 0.294328 0
M  V30 3999 H 389.186 2.91874 2.67629 0
M  V30 4000 H 390.36 4.59396 0.359485 0
M  V30 4001 H 388.675 4.13597 0.482324 0
M  V30 4002 H 391.272 4.23687 3.26181 0
M  V30 4003 H 391.615 2.52503 3.3098 0
M  V30 4004 H 392.148 3.48894 1.91097 0
M  V30 4005 H 388.887 6.42422 1.30287 0
M  V30 4006 H 388.407 5.37694 2.65792 0
M  V30 4007 H 390.086 5.95651 2.52605 0
M  V30 4008 N 390.218 -0.567019 1.47046 0
M  V30 4009 C 391.181 -1.65696 1.58359 0
M  V30 4010 C 392.181 -1.54097 0.459441 0
M  V30 4011 O 393.371 -1.58432 0.724225 0
M  V30 4012 C 390.503 -3.05197 1.51879 0
M  V30 4013 H 391.696 -1.57019 2.5551 0
M  V30 4014 H 389.249 -0.786148 1.3509 0
M  V30 4015 H 389.984 -3.19417 0.560673 0
M  V30 4016 H 389.769 -3.15025 2.33455 0
M  V30 4017 H 391.259 -3.84511 1.62913 0
M  V30 4018 N 391.696 -1.35014 -0.812953 0
M  V30 4019 C 393.112 -1.14914 -1.10757 0
M  V30 4020 C 393.312 0.0426818 -2.01455 0
M  V30 4021 O 392.368 0.715212 -2.42159 0
M  V30 4022 C 393.681 -2.44911 -1.74468 0
M  V30 4023 C 395.229 -2.5106 -1.86917 0
M  V30 4024 C 395.704 -3.81085 -2.54044 0
M  V30 4025 N 397.195 -3.82301 -2.61535 0
M  V30 4026 C 397.93 -4.79634 -3.14227 0
M  V30 4027 N 397.426 -5.87353 -3.67407 0
M  V30 4028 N 399.219 -4.67078 -3.12721 0
M  V30 4029 H 391.37 -2.1136 -0.20989 0
M  V30 4030 H 393.633 -0.935128 -0.155692 0
M  V30 4031 H 393.339 -3.32267 -1.15289 0
M  V30 4032 H 393.213 -2.58989 -2.74234 0
M  V30 4033 H 395.6 -1.64137 -2.45241 0
M  V30 4034 H 395.681 -2.40901 -0.860242 0
M  V30 4035 H 395.325 -4.68402 -1.96372 0
M  V30 4036 H 395.255 -3.88529 -3.55461 0
M  V30 4037 H 397.746 -3.04465 -2.23851 0
M  V30 4038 H 398.059 -6.57624 -4.05894 0
M  V30 4039 H 396.404 -5.91054 -3.65623 0
M  V30 4040 H 399.595 -3.82067 -2.70449 0
M  V30 4041 H 399.768 -5.43098 -3.53481 0
M  V30 4042 N 393.175 1.03435 -1.18907 0
M  V30 4043 C 394.122 2.11591 -0.921837 0
M  V30 4044 C 395.092 1.65499 0.141226 0
M  V30 4045 O 396.277 1.908 0.000242829 0
M  V30 4046 C 393.417 3.42012 -0.460616 0
M  V30 4047 C 392.53 4.01682 -1.58982 0
M  V30 4048 C 391.665 5.20091 -1.08069 0
M  V30 4049 C 390.704 5.71805 -2.18416 0
M  V30 4050 N 389.841 6.81494 -1.68849 0
M  V30 4051 H 394.681 2.33787 -1.8479 0
M  V30 4052 H 392.218 1.1467 -0.921373 0
M  V30 4053 H 394.176 4.16834 -0.174642 0
M  V30 4054 H 392.806 3.19944 0.428467 0
M  V30 4055 H 391.858 3.24127 -1.99113 0
M  V30 4056 H 393.17 4.36084 -2.4214 0
M  V30 4057 H 392.324 6.02051 -0.749615 0
M  V30 4058 H 391.063 4.87209 -0.218771 0
M  V30 4059 H 390.068 4.88461 -2.5236 0
M  V30 4060 H 391.293 6.06728 -3.05054 0
M  V30 4061 H 389.239 6.50475 -0.849572 0
M  V30 4062 H 389.156 7.14994 -2.45601 0
M  V30 4063 H 390.424 7.67063 -1.38689 0
M  V30 4064 N 394.653 0.992116 1.22453 0
M  V30 4065 C 395.583 0.561677 2.26644 0
M  V30 4066 C 396.564 -0.411055 1.65059 0
M  V30 4067 O 397.749 -0.301861 1.9184 0
M  V30 4068 C 394.879 -0.125247 3.47074 0
M  V30 4069 C 393.833 0.765948 4.21091 0
M  V30 4070 C 393.159 -0.0538484 5.34673 0
M  V30 4071 C 394.459 2.06242 4.79856 0
M  V30 4072 H 396.153 1.43259 2.62902 0
M  V30 4073 H 393.699 0.690283 1.26377 0
M  V30 4074 H 395.652 -0.437764 4.1912 0
M  V30 4075 H 394.376 -1.03069 3.0991 0
M  V30 4076 H 393.035 1.0621 3.50878 0
M  V30 4077 H 392.683 -0.960188 4.9375 0
M  V30 4078 H 392.383 0.539415 5.85119 0
M  V30 4079 H 393.907 -0.360477 6.09535 0
M  V30 4080 H 395.321 1.8139 5.43848 0
M  V30 4081 H 393.718 2.60444 5.40638 0
M  V30 4082 H 394.788 2.74167 3.99951 0
M  V30 4083 N 396.131 -1.37776 0.765217 0
M  V30 4084 C 397.078 -2.30342 0.145274 0
M  V30 4085 C 398.048 -1.5077 -0.696971 0
M  V30 4086 O 399.233 -1.79362 -0.650689 0
M  V30 4087 C 396.373 -3.37227 -0.732939 0
M  V30 4088 C 395.486 -4.31819 0.125199 0
M  V30 4089 C 394.621 -5.25777 -0.757107 0
M  V30 4090 C 393.66 -6.12012 0.103963 0
M  V30 4091 N 392.797 -6.98232 -0.735953 0
M  V30 4092 H 397.637 -2.8278 0.940195 0
M  V30 4093 H 395.174 -1.39211 0.475255 0
M  V30 4094 H 397.132 -3.97818 -1.25686 0
M  V30 4095 H 395.762 -2.86171 -1.49353 0
M  V30 4096 H 394.814 -3.7259 0.766865 0
M  V30 4097 H 396.126 -4.92509 0.789683 0
M  V30 4098 H 395.28 -5.91541 -1.34776 0
M  V30 4099 H 394.019 -4.65481 -1.45529 0
M  V30 4100 H 393.024 -5.45233 0.707197 0
M  V30 4101 H 394.249 -6.74379 0.799381 0
M  V30 4102 H 392.195 -6.40472 -1.41887 0
M  V30 4103 H 392.112 -7.55891 -0.128624 0
M  V30 4104 H 393.38 -7.68393 -1.31121 0
M  V30 4105 N 397.609 -0.515225 -1.4894 0
M  V30 4106 C 398.519 0.259774 -2.33157 0
M  V30 4107 C 399.535 0.953501 -1.45548 0
M  V30 4108 O 400.711 0.931735 -1.78552 0
M  V30 4109 C 397.776 1.30193 -3.21326 0
M  V30 4110 C 396.837 0.620129 -4.24797 0
M  V30 4111 C 396.07 1.61263 -5.08753 0
M  V30 4112 O 396.293 2.84389 -4.94448 0
M  V30 4113 O 395.227 1.16013 -5.90614 0
M  V30 4114 H 399.053 -0.429932 -3.00641 0
M  V30 4115 H 396.638 -0.276346 -1.46822 0
M  V30 4116 H 398.52 1.90455 -3.75905 0
M  V30 4117 H 397.195 1.97431 -2.56521 0
M  V30 4118 H 396.102 -0.0226019 -3.74093 0
M  V30 4119 H 397.435 -0.0100493 -4.92199 0
M  V30 4120 N 399.087 1.5561 -0.249682 0
M  V30 4121 C 400.034 2.21496 0.648694 0
M  V30 4122 C 401.004 1.17977 1.16921 0
M  V30 4123 O 402.189 1.46434 1.22318 0
M  V30 4124 C 399.329 2.92039 1.83868 0
M  V30 4125 C 398.442 4.10219 1.35442 0
M  V30 4126 C 397.577 4.6847 2.50419 0
M  V30 4127 C 396.616 5.78893 1.98869 0
M  V30 4128 N 395.753 6.31315 3.07223 0
M  V30 4129 H 400.593 2.97892 0.0801582 0
M  V30 4130 H 398.13 1.47074 0.0278031 0
M  V30 4131 H 400.088 3.31138 2.53778 0
M  V30 4132 H 398.718 2.18111 2.37965 0
M  V30 4133 H 397.77 3.76413 0.54928 0
M  V30 4134 H 399.082 4.89927 0.936649 0
M  V30 4135 H 398.236 5.10158 3.28366 0
M  V30 4136 H 396.975 3.87984 2.95499 0
M  V30 4137 H 395.98 5.3668 1.19393 0
M  V30 4138 H 397.205 6.61232 1.54755 0
M  V30 4139 H 395.151 5.53733 3.51732 0
M  V30 4140 H 395.068 7.06224 2.69784 0
M  V30 4141 H 396.336 6.77662 3.8522 0
M  V30 4142 N 400.565 -0.0233959 1.57583 0
M  V30 4143 C 401.805 -0.71784 1.9138 0
M  V30 4144 C 402.169 -1.72216 0.848853 0
M  V30 4145 O 403.37 -2.46527 1.07134 0
M  V30 4146 C 401.641 -1.36489 3.30311 0
M  V30 4147 S 403.2 -2.0877 3.85954 0
M  V30 4148 H 400.018 -0.237676 0.670098 0
M  V30 4149 H 402.62 0.0276709 1.9548 0
M  V30 4150 H 401.324 -0.620782 4.05678 0
M  V30 4151 H 400.855 -2.14883 3.29528 0
M  V30 4152 H 402.87 -3.35988 3.65139 0
M  V30 4153 N 402.043 -1.548 -0.295768 0
M  V30 4154 C 403.454 -1.65274 -0.868411 0
M  V30 4155 C 403.805 -0.56481 -1.87894 0
M  V30 4156 O 402.93 0.29767 -2.14343 0
M  V30 4157 C 403.525 -2.99603 -1.58188 0
M  V30 4158 C 402.084 -3.12181 -2.10286 0
M  V30 4159 C 401.231 -2.6098 -0.93727 0
M  V30 4160 H 404.182 -1.58534 -0.0726422 0
M  V30 4161 H 404.203 -2.91319 -2.44772 0
M  V30 4162 H 403.715 -3.78764 -0.846151 0
M  V30 4163 H 401.816 -2.3775 -2.8689 0
M  V30 4164 H 401.929 -4.18415 -2.33379 0
M  V30 4165 H 400.293 -2.17564 -1.32431 0
M  V30 4166 H 401.076 -3.42623 -0.215414 0
M  V30 4167 N 403.521 0.559213 -1.47345 0
M  V30 4168 C 404.769 1.31388 -1.53563 0
M  V30 4169 C 405.09 1.93985 -0.198678 0
M  V30 4170 O 404.36 1.79825 0.777167 0
M  V30 4171 H 402.94 0.487901 -0.565652 0
M  V30 4172 H 405.602 0.65315 -1.8363 0
M  V30 4173 H 404.698 2.10844 -2.30111 0
M  V30 4174 N 404.999 1.35443 0.805782 0
M  V30 4175 C 406.239 1.30127 1.57627 0
M  V30 4176 C 406.603 -0.122567 1.91608 0
M  V30 4177 O 407.804 -0.300107 2.67119 0
M  V30 4178 C 406.075 2.18314 2.82973 0
M  V30 4179 S 407.634 2.30521 3.7337 0
M  V30 4180 H 404.452 0.462439 0.540066 0
M  V30 4181 H 407.054 1.70843 0.95042 0
M  V30 4182 H 405.758 3.20741 2.56034 0
M  V30 4183 H 405.289 1.78558 3.50543 0
M  V30 4184 H 407.304 1.49062 4.73281 0
M  V30 4185 N 406.477 -1.02803 1.19454 0
M  V30 4186 C 407.893 -1.28473 0.946937 0
M  V30 4187 C 408.093 -1.97881 -0.380202 0
M  V30 4188 O 407.149 -2.26719 -1.11151 0
M  V30 4189 C 408.462 -2.13099 2.12154 0
M  V30 4190 C 410.01 -2.26404 2.16126 0
M  V30 4191 C 410.485 -3.14402 3.33039 0
M  V30 4192 N 411.976 -3.21991 3.32981 0
M  V30 4193 C 412.711 -3.90272 4.20089 0
M  V30 4194 N 412.207 -4.60777 5.17355 0
M  V30 4195 N 414 -3.8668 4.07964 0
M  V30 4196 H 406.151 -0.561665 2.04839 0
M  V30 4197 H 408.414 -0.310438 0.89573 0
M  V30 4198 H 408.12 -1.69422 3.08203 0
M  V30 4199 H 407.994 -3.13813 2.09287 0
M  V30 4200 H 410.381 -2.69311 1.20647 0
M  V30 4201 H 410.462 -1.25237 2.23045 0
M  V30 4202 H 410.106 -2.72204 4.28798 0
M  V30 4203 H 410.036 -4.1563 3.23356 0
M  V30 4204 H 412.527 -2.71778 2.62574 0
M  V30 4205 H 412.84 -5.10513 5.80169 0
M  V30 4206 H 411.185 -4.5964 5.21302 0
M  V30 4207 H 414.376 -3.30739 3.31254 0
M  V30 4208 H 414.549 -4.39621 4.76064 0
M  V30 4209 N 407.956 -0.998596 -1.21925 0
M  V30 4210 C 409.205 -0.673085 -1.90138 0
M  V30 4211 C 409.518 0.79895 -1.78539 0
M  V30 4212 O 410.724 1.23628 -2.4172 0
M  V30 4213 C 409.18 -1.15339 -3.40918 0
M  V30 4214 C 408.788 -2.65106 -3.61141 0
M  V30 4215 C 410.532 -0.902476 -4.14796 0
M  V30 4216 C 408.439 -3.0671 -5.05651 0
M  V30 4217 H 407.369 -0.248057 -0.712028 0
M  V30 4218 H 410.02 -1.20891 -1.38049 0
M  V30 4219 H 408.402 -0.545658 -3.92223 0
M  V30 4220 H 409.576 -3.31274 -3.20304 0
M  V30 4221 H 407.891 -2.88142 -3.00605 0
M  V30 4222 H 410.488 -1.18895 -5.21314 0
M  V30 4223 H 410.831 0.161349 -4.15987 0
M  V30 4224 H 411.364 -1.47269 -3.69536 0
M  V30 4225 H 408.103 -4.12292 -5.09603 0
M  V30 4226 H 407.623 -2.45249 -5.47369 0
M  V30 4227 H 409.302 -2.9833 -5.74115 0
M  V30 4228 N 409.434 1.37368 -0.772513 0
M  V30 4229 C 410.683 1.98918 -0.333861 0
M  V30 4230 C 410.996 1.62017 1.09589 0
M  V30 4231 O 412.202 2.16676 1.63596 0
M  V30 4232 C 410.658 3.55735 -0.545971 0
M  V30 4233 C 410.266 4.01573 -1.98603 0
M  V30 4234 C 412.01 4.24156 -0.170979 0
M  V30 4235 C 409.917 5.51102 -2.1457 0
M  V30 4236 H 408.847 0.744214 -0.121085 0
M  V30 4237 H 411.498 1.56888 -0.95175 0
M  V30 4238 H 409.88 3.95748 0.141387 0
M  V30 4239 H 411.054 3.72803 -2.7084 0
M  V30 4240 H 409.369 3.45937 -2.31769 0
M  V30 4241 H 411.966 5.34024 -0.26878 0
M  V30 4242 H 412.309 4.06917 0.878855 0
M  V30 4243 H 412.842 3.89447 -0.810914 0
M  V30 4244 H 409.581 5.73268 -3.17875 0
M  V30 4245 H 409.101 5.81554 -1.46817 0
M  V30 4246 H 410.78 6.17083 -1.94468 0
M  V30 4247 N 410.912 0.523116 1.48665 0
M  V30 4248 C 412.16 -0.0134497 2.02096 0
M  V30 4249 C 412.481 -1.35418 1.40311 0
M  V30 4250 O 411.751 -1.87543 0.566074 0
M  V30 4251 H 410.331 -0.00795915 0.746958 0
M  V30 4252 H 412.993 0.685388 1.82451 0
M  V30 4253 H 412.089 -0.126849 3.11842 0
M  V30 4254 N 412.39 -1.55475 0.257931 0
M  V30 4255 C 413.636 -1.99502 -0.364266 0
M  V30 4256 C 413.969 -1.146 -1.56782 0
M  V30 4257 O 413.244 -0.211968 -1.93342 0
M  V30 4258 C 413.527 -3.51917 -0.763333 0
M  V30 4259 C 413.38 -4.4758 0.446371 0
M  V30 4260 C 414.699 -4.09742 -1.60623 0
M  V30 4261 H 411.818 -0.725277 -0.130929 0
M  V30 4262 H 414.46 -1.8653 0.361446 0
M  V30 4263 H 412.61 -3.63101 -1.38166 0
M  V30 4264 H 414.282 -4.48362 1.08487 0
M  V30 4265 H 412.525 -4.19947 1.08753 0
M  V30 4266 H 413.196 -5.51862 0.123645 0
M  V30 4267 H 415.672 -4.01727 -1.08418 0
M  V30 4268 H 414.548 -5.16631 -1.85429 0
M  V30 4269 H 414.809 -3.58889 -2.58169 0
M  V30 4270 N 413.868 0.0150385 -1.57593 0
M  V30 4271 C 415.145 0.7392 -1.81094 0
M  V30 4272 C 415.525 1.92817 -0.859344 0
M  V30 4273 O 414.873 2.28301 0.095362 0
M  V30 4274 C 415.083 1.15907 -3.29191 0
M  V30 4275 C 416.431 1.56918 -3.9454 0
M  V30 4276 O 417.455 1.25328 -3.33424 0
M  V30 4277 O 416.314 2.15604 -5.02173 0
M  V30 4278 H 413.408 0.358631 -0.745193 0
M  V30 4279 H 415.954 -0.00926156 -1.69697 0
M  V30 4280 H 414.726 0.310921 -3.90063 0
M  V30 4281 H 414.349 1.96711 -3.45529 0
M  V30 4282 N 415.346 1.54954 0.287554 0
M  V30 4283 C 416.757 1.65732 0.859634 0
M  V30 4284 C 417.108 0.574767 1.87592 0
M  V30 4285 O 416.233 -0.286299 2.14498 0
M  V30 4286 C 416.828 3.00438 1.56597 0
M  V30 4287 C 415.387 3.13292 2.08627 0
M  V30 4288 C 414.534 2.61473 0.923416 0
M  V30 4289 H 417.485 1.5857 0.0642338 0
M  V30 4290 H 417.506 2.92613 2.43224 0
M  V30 4291 H 417.018 3.79207 0.826053 0
M  V30 4292 H 415.119 2.39268 2.85625 0
M  V30 4293 H 415.232 4.19647 2.31157 0
M  V30 4294 H 413.596 2.18264 1.31275 0
M  V30 4295 H 414.379 3.42733 0.197241 0
M  V30 4296 N 416.824 -0.551391 1.4764 0
M  V30 4297 C 417.734 -1.68525 1.63207 0
M  V30 4298 C 418.75 -1.6621 0.514815 0
M  V30 4299 O 419.926 -1.85551 0.783113 0
M  V30 4300 C 416.991 -3.05025 1.64805 0
M  V30 4301 C 416.052 -3.18362 2.88 0
M  V30 4302 C 415.285 -4.4835 2.89513 0
M  V30 4303 O 415.508 -5.34163 2.00065 0
M  V30 4304 O 414.442 -4.65602 3.81443 0
M  V30 4305 H 418.268 -1.58333 2.59161 0
M  V30 4306 H 415.853 -0.722063 1.30792 0
M  V30 4307 H 417.735 -3.86245 1.68502 0
M  V30 4308 H 416.41 -3.15587 0.720197 0
M  V30 4309 H 415.317 -2.36518 2.89845 0
M  V30 4310 H 416.65 -3.12707 3.80099 0
M  V30 4311 N 418.302 -1.35869 -0.798587 0
M  V30 4312 C 419.55 -1.29332 -1.55298 0
M  V30 4313 C 419.871 0.129729 -1.94568 0
M  V30 4314 O 419.141 1.06796 -1.6423 0
M  V30 4315 H 417.721 -0.475737 -0.57592 0
M  V30 4316 H 420.383 -1.70062 -0.952093 0
M  V30 4317 H 419.479 -1.91458 -2.46476 0
M  V30 4318 N 419.78 1.02168 -1.19998 0
M  V30 4319 C 421.005 1.79833 -1.03319 0
M  V30 4320 C 421.43 1.83504 0.413281 0
M  V30 4321 O 420.788 1.26635 1.29743 0
M  V30 4322 C 420.836 3.22396 -1.61533 0
M  V30 4323 O 419.94 4.03555 -0.849519 0
M  V30 4324 H 419.281 0.554872 -0.364709 0
M  V30 4325 H 421.811 1.28542 -1.59179 0
M  V30 4326 H 421.821 3.73124 -1.65054 0
M  V30 4327 H 420.496 3.19039 -2.66809 0
M  V30 4328 H 419.073 3.62169 -0.888129 0
M  V30 4329 N 421.258 1.00505 1.21394 0
M  V30 4330 C 422.507 0.683159 1.89778 0
M  V30 4331 C 422.82 -0.789471 1.7896 0
M  V30 4332 O 424.026 -1.22344 2.42372 0
M  V30 4333 C 422.482 1.17146 3.40301 0
M  V30 4334 C 422.09 2.67017 3.5973 0
M  V30 4335 C 423.834 0.924461 4.14311 0
M  V30 4336 C 421.741 3.09387 5.04017 0
M  V30 4337 H 420.671 0.25183 0.710702 0
M  V30 4338 H 423.322 1.21622 1.37406 0
M  V30 4339 H 421.704 0.566451 3.91928 0
M  V30 4340 H 422.878 3.32968 3.18542 0
M  V30 4341 H 421.193 2.89732 2.99073 0
M  V30 4342 H 423.79 1.21658 5.20676 0
M  V30 4343 H 424.133 -0.139286 4.16067 0
M  V30 4344 H 424.666 1.49226 3.6875 0
M  V30 4345 H 421.405 4.14989 5.07409 0
M  V30 4346 H 420.925 2.48149 5.46061 0
M  V30 4347 H 422.604 3.01371 5.72525 0
M  V30 4348 N 422.737 -1.36956 0.779787 0
M  V30 4349 C 423.667 -2.32761 0.185651 0
M  V30 4350 C 424.648 -1.56177 -0.673989 0
M  V30 4351 O 425.833 -1.84378 -0.609797 0
M  V30 4352 C 422.963 -3.40418 -0.687964 0
M  V30 4353 C 421.917 -4.27941 0.0710102 0
M  V30 4354 C 421.243 -5.26681 -0.922573 0
M  V30 4355 C 422.543 -5.07006 1.25467 0
M  V30 4356 H 424.237 -2.82698 0.986008 0
M  V30 4357 H 421.783 -1.3592 0.475592 0
M  V30 4358 H 423.736 -4.06423 -1.11348 0
M  V30 4359 H 422.46 -2.89025 -1.52093 0
M  V30 4360 H 421.119 -3.63478 0.47739 0
M  V30 4361 H 420.767 -4.71565 -1.7503 0
M  V30 4362 H 420.467 -5.86103 -0.419237 0
M  V30 4363 H 421.991 -5.9556 -1.34686 0
M  V30 4364 H 423.405 -5.66105 0.905401 0
M  V30 4365 H 421.802 -5.75793 1.69063 0
M  V30 4366 H 422.872 -4.3921 2.05481 0
M  V30 4367 N 424.215 -0.530993 -1.48385 0
M  V30 4368 C 425.178 0.220497 -2.28137 0
M  V30 4369 C 426.178 0.866851 -1.35434 0
M  V30 4370 O 427.368 0.726746 -1.58316 0
M  V30 4371 C 424.5 1.31921 -3.1434 0
M  V30 4372 H 425.693 -0.479714 -2.96038 0
M  V30 4373 H 423.246 -0.286968 -1.53643 0
M  V30 4374 H 423.981 2.05264 -2.51072 0
M  V30 4375 H 423.766 0.86085 -3.82533 0
M  V30 4376 H 425.256 1.84776 -3.74497 0
M  V30 4377 N 425.693 1.55336 -0.266172 0
M  V30 4378 C 426.603 2.2583 0.635458 0
M  V30 4379 C 427.619 1.28106 1.17749 0
M  V30 4380 O 428.795 1.61024 1.20968 0
M  V30 4381 C 425.86 2.95879 1.80712 0
M  V30 4382 C 424.921 4.09059 1.30265 0
M  V30 4383 C 424.154 4.75759 2.41846 0
M  V30 4384 O 424.377 4.41622 3.61007 0
M  V30 4385 O 423.311 5.63888 2.1051 0
M  V30 4386 H 427.137 3.03631 0.0646693 0
M  V30 4387 H 424.722 1.49361 -0.0339177 0
M  V30 4388 H 426.604 3.39932 2.49047 0
M  V30 4389 H 425.279 2.21002 2.36516 0
M  V30 4390 H 424.186 3.69482 0.586019 0
M  V30 4391 H 425.519 4.85811 0.790458 0
M  V30 4392 N 427.171 -0.0066808 1.57599 0
M  V30 4393 C 428.582 -0.550379 1.78403 0
M  V30 4394 C 428.933 -1.74339 0.900014 0
M  V30 4395 O 428.058 -2.16166 0.100713 0
M  V30 4396 C 428.653 -1.00523 3.23544 0
M  V30 4397 C 427.212 -1.49428 3.45468 0
M  V30 4398 C 426.359 -0.442444 2.73748 0
M  V30 4399 H 429.31 0.219508 1.57175 0
M  V30 4400 H 429.331 -1.87157 3.31289 0
M  V30 4401 H 428.843 -0.136735 3.87859 0
M  V30 4402 H 426.944 -2.3839 2.86358 0
M  V30 4403 H 427.057 -1.52635 4.54136 0
M  V30 4404 H 425.421 -0.902578 2.38171 0
M  V30 4405 H 426.204 0.416973 3.40758 0
M  V30 4406 N 428.649 -1.55105 -0.279332 0
M  V30 4407 C 429.559 -1.90638 -1.36727 0
M  V30 4408 C 430.575 -0.802899 -1.54368 0
M  V30 4409 O 431.751 -1.10138 -1.68616 0
M  V30 4410 C 428.816 -2.16547 -2.70755 0
M  V30 4411 C 427.877 -3.40146 -2.61915 0
M  V30 4412 C 427.11 -3.6481 -3.8955 0
M  V30 4413 O 427.333 -2.92095 -4.89935 0
M  V30 4414 O 426.267 -4.58343 -3.90135 0
M  V30 4415 H 430.093 -2.83237 -1.09591 0
M  V30 4416 H 427.678 -1.4157 -0.477306 0
M  V30 4417 H 429.56 -2.34665 -3.50014 0
M  V30 4418 H 428.235 -1.27131 -2.9769 0
M  V30 4419 H 427.142 -3.2737 -1.81052 0
M  V30 4420 H 428.475 -4.29761 -2.3993 0
M  V30 4421 N 430.127 0.543554 -1.4793 0
M  V30 4422 C 431.037 1.67657 -1.64098 0
M  V30 4423 C 432.053 1.65934 -0.523622 0
M  V30 4424 O 433.229 1.85133 -0.792943 0
M  V30 4425 C 430.294 3.04146 -1.66421 0
M  V30 4426 C 429.355 3.16831 -2.89684 0
M  V30 4427 C 428.588 4.46809 -2.91886 0
M  V30 4428 O 428.811 5.33095 -2.02895 0
M  V30 4429 O 427.745 4.63573 -3.83906 0
M  V30 4430 H 431.571 1.56957 -2.59997 0
M  V30 4431 H 429.156 0.715116 -1.31173 0
M  V30 4432 H 431.038 3.85346 -1.70548 0
M  V30 4433 H 429.713 3.152 -0.736923 0
M  V30 4434 H 428.62 2.34977 -2.91095 0
M  V30 4435 H 429.953 3.10687 -3.81752 0
M  V30 4436 N 431.605 1.3629 0.791371 0
M  V30 4437 C 432.535 1.33137 1.91825 0
M  V30 4438 C 433.516 0.203168 1.68882 0
M  V30 4439 O 434.701 0.400509 1.90025 0
M  V30 4440 C 431.831 1.11793 3.28816 0
M  V30 4441 C 430.785 2.21417 3.66277 0
M  V30 4442 C 430.111 1.85218 5.01596 0
M  V30 4443 C 431.411 3.63489 3.75064 0
M  V30 4444 H 433.105 2.2743 1.9472 0
M  V30 4445 H 430.651 1.09479 0.935437 0
M  V30 4446 H 432.604 1.08222 4.07266 0
M  V30 4447 H 431.328 0.139501 3.26302 0
M  V30 4448 H 429.987 2.2411 2.90121 0
M  V30 4449 H 429.635 0.859544 4.95602 0
M  V30 4450 H 429.335 2.58611 5.27631 0
M  V30 4451 H 430.859 1.832 5.82469 0
M  V30 4452 H 432.273 3.63034 4.43711 0
M  V30 4453 H 430.67 4.35771 4.12582 0
M  V30 4454 H 431.74 3.98536 2.76219 0
M  V30 4455 N 433.083 -1.0153 1.20538 0
M  V30 4456 C 434.031 -2.12215 0.952235 0
M  V30 4457 C 435.025 -1.69123 -0.0968735 0
M  V30 4458 O 436.231 -1.7992 0.0536006 0
M  V30 4459 H 432.606 -0.693576 0.290613 0
M  V30 4460 H 434.577 -2.3075 1.89201 0
M  V30 4461 C 433.326 -3.43755 0.522287 0
M  V30 4462 H 432.649 -3.7734 1.32115 0
M  V30 4463 H 434.089 -4.22254 0.384389 0
M  V30 4464 C 432.548 -3.28088 -0.765489 0
M  V30 4465 O 433.078 -3.57921 -1.8236 0
M  V30 4466 N 431.284 -2.81333 -0.728011 0
M  V30 4467 H 430.831 -2.57255 0.133332 0
M  V30 4468 H 430.789 -2.71232 -1.58999 0
M  V30 4469 N 434.561 -1.01147 -1.20859 0
M  V30 4470 C 435.493 -0.535546 -2.22855 0
M  V30 4471 C 436.506 0.379323 -1.58319 0
M  V30 4472 O 437.695 0.178489 -1.77605 0
M  V30 4473 C 434.795 0.240962 -3.38042 0
M  V30 4474 C 433.968 -0.674562 -4.32167 0
M  V30 4475 C 433.027 0.053467 -5.26173 0
M  V30 4476 O 432.053 -0.567339 -5.66366 0
M  V30 4477 N 433.255 1.32997 -5.65059 0
M  V30 4478 H 436.02 -1.41268 -2.64317 0
M  V30 4479 H 433.581 -0.888386 -1.35349 0
M  V30 4480 H 435.573 0.737115 -3.97931 0
M  V30 4481 H 434.143 1.01935 -2.95513 0
M  V30 4482 H 433.363 -1.35111 -3.70322 0
M  V30 4483 H 434.651 -1.2974 -4.91981 0
M  V30 4484 H 434.049 1.85536 -5.34409 0
M  V30 4485 H 432.606 1.77095 -6.2728 0
M  V30 4486 N 436.039 1.36541 -0.78704 0
M  V30 4487 C 437.267 2.03561 -0.370199 0
M  V30 4488 C 437.682 1.59347 1.01263 0
M  V30 4489 O 437.039 0.781781 1.64907 0
M  V30 4490 C 437.09 3.59033 -0.421614 0
M  V30 4491 O 436.811 4.01634 -1.7499 0
M  V30 4492 C 438.312 4.433 0.00489763 0
M  V30 4493 H 435.532 0.653346 -0.152904 0
M  V30 4494 H 438.076 1.74566 -1.06522 0
M  V30 4495 H 436.231 3.86746 0.224971 0
M  V30 4496 H 436.645 4.96217 -1.69909 0
M  V30 4497 H 438.119 5.51939 -0.0822184 0
M  V30 4498 H 438.596 4.26285 1.05723 0
M  V30 4499 H 439.202 4.20843 -0.614085 0
M  V30 4500 N 437.518 0.538854 1.48102 0
M  V30 4501 C 438.428 -0.222648 2.33541 0
M  V30 4502 C 439.444 -0.930225 1.47047 0
M  V30 4503 O 440.62 -0.903211 1.80011 0
M  V30 4504 C 437.685 -1.25064 3.23357 0
M  V30 4505 C 436.746 -0.552469 4.2573 0
M  V30 4506 C 435.979 -1.53149 5.11254 0
M  V30 4507 O 436.202 -2.76487 4.9891 0
M  V30 4508 O 435.136 -1.06602 5.92385 0
M  V30 4509 H 438.962 0.477707 2.99919 0
M  V30 4510 H 436.547 0.299669 1.46364 0
M  V30 4511 H 438.429 -1.8445 3.78888 0
M  V30 4512 H 437.104 -1.93325 2.59629 0
M  V30 4513 H 436.011 0.082114 3.7401 0
M  V30 4514 H 437.344 0.0883526 4.92121 0
M  V30 4515 N 438.996 -1.55193 0.274407 0
M  V30 4516 C 439.928 -2.1989 -0.646595 0
M  V30 4517 C 440.941 -1.1834 -1.11801 0
M  V30 4518 O 442.13 -1.4507 -1.04004 0
M  V30 4519 C 439.23 -2.8104 -1.89393 0
M  V30 4520 C 438.403 -4.08274 -1.56943 0
M  V30 4521 C 437.462 -4.53478 -2.66916 0
M  V30 4522 O 436.488 -5.19267 -2.33132 0
M  V30 4523 N 437.69 -4.2356 -3.9696 0
M  V30 4524 H 440.455 -2.99556 -0.0928686 0
M  V30 4525 H 438.016 -1.61618 0.0954783 0
M  V30 4526 H 440.008 -3.08226 -2.62257 0
M  V30 4527 H 438.578 -2.05372 -2.35672 0
M  V30 4528 H 437.798 -3.88384 -0.674655 0
M  V30 4529 H 439.086 -4.91173 -1.32764 0
M  V30 4530 H 438.484 -3.70799 -4.27229 0
M  V30 4531 H 437.041 -4.55518 -4.66205 0
M  V30 4532 N 440.474 -0.00167713 -1.576 0
M  V30 4533 C 441.702 0.693759 -1.94922 0
M  V30 4534 C 442.117 1.67215 -0.876626 0
M  V30 4535 O 441.474 1.81929 0.144279 0
M  V30 4536 C 441.525 1.42416 -3.32265 0
M  V30 4537 O 441.246 0.485014 -4.35407 0
M  V30 4538 C 442.747 2.21395 -3.84056 0
M  V30 4539 H 439.967 0.193118 -0.642609 0
M  V30 4540 H 442.511 -0.0532952 -2.04431 0
M  V30 4541 H 440.666 2.12284 -3.24059 0
M  V30 4542 H 441.08 1.00053 -5.14868 0
M  V30 4543 H 442.554 2.67996 -4.82578 0
M  V30 4544 H 443.031 3.04142 -3.16851 0
M  V30 4545 H 443.637 1.56542 -3.95443 0
M  V30 4546 N 441.952 1.55251 0.271103 0
M  V30 4547 C 443.18 1.79974 1.02064 0
M  V30 4548 C 443.595 0.574003 1.79863 0
M  V30 4549 O 442.952 -0.456962 1.76686 0
M  V30 4550 C 443.003 3.02603 1.97772 0
M  V30 4551 O 442.724 4.20443 1.23124 0
M  V30 4552 C 444.225 3.39944 2.84522 0
M  V30 4553 H 441.445 0.599489 0.301419 0
M  V30 4554 H 443.989 2.02268 0.301313 0
M  V30 4555 H 442.144 2.8243 2.65165 0
M  V30 4556 H 442.558 4.89783 1.87651 0
M  V30 4557 H 444.032 4.28915 3.47471 0
M  V30 4558 H 444.509 2.59432 3.54389 0
M  V30 4559 H 445.115 3.62383 2.22618 0
M  V30 4560 N 443.43 -0.535701 1.48216 0
M  V30 4561 C 444.66 -1.3148 1.59363 0
M  V30 4562 C 445.068 -1.8753 0.250844 0
M  V30 4563 O 444.411 -1.66821 -0.769174 0
M  V30 4564 C 444.473 -2.50731 2.57632 0
M  V30 4565 C 444.137 -2.15811 4.02833 0
M  V30 4566 C 445.134 -1.71822 4.90686 0
M  V30 4567 C 442.819 -2.26509 4.48329 0
M  V30 4568 C 444.813 -1.3899 6.22062 0
M  V30 4569 C 442.5 -1.93289 5.79726 0
M  V30 4570 C 443.498 -1.49599 6.66415 0
M  V30 4571 O 443.186 -1.16812 7.95368 0
M  V30 4572 H 442.918 -0.406315 0.540263 0
M  V30 4573 H 445.472 -0.653569 1.94725 0
M  V30 4574 H 443.702 -3.19817 2.1738 0
M  V30 4575 H 445.391 -3.12797 2.58675 0
M  V30 4576 H 446.157 -1.63031 4.56778 0
M  V30 4577 H 442.036 -2.59471 3.81045 0
M  V30 4578 H 445.58 -1.04816 6.89681 0
M  V30 4579 H 441.477 -2.01718 6.13172 0
M  V30 4580 H 442.245 -1.30259 8.08069 0
M  V30 4581 N 444.908 -1.36708 -0.784132 0
M  V30 4582 C 445.818 -1.3363 -1.92822 0
M  V30 4583 C 446.834 -0.237686 -1.72369 0
M  V30 4584 O 448.01 -0.470962 -1.95816 0
M  V30 4585 C 445.075 -1.13011 -3.27764 0
M  V30 4586 C 444.136 -2.32397 -3.60957 0
M  V30 4587 C 443.369 -2.12752 -4.89461 0
M  V30 4588 O 443.592 -1.10541 -5.59586 0
M  V30 4589 O 442.526 -3.00653 -5.21432 0
M  V30 4590 H 446.352 -2.29964 -1.98369 0
M  V30 4591 H 443.937 -1.1731 -0.925136 0
M  V30 4592 H 445.819 -1.03451 -4.08504 0
M  V30 4593 H 444.494 -0.19743 -3.23097 0
M  V30 4594 H 443.401 -2.47527 -2.80502 0
M  V30 4595 H 444.734 -3.2419 -3.70354 0
M  V30 4596 N 446.386 1.0089 -1.21074 0
M  V30 4597 C 447.632 1.74866 -1.02712 0
M  V30 4598 C 447.965 1.89178 0.438787 0
M  V30 4599 O 447.24 1.42325 1.32567 0
M  V30 4600 C 447.523 3.16347 -1.72036 0
M  V30 4601 C 447.376 3.09782 -3.26121 0
M  V30 4602 C 448.695 4.15187 -1.45973 0
M  V30 4603 H 445.814 0.634736 -0.374539 0
M  V30 4604 H 448.456 1.17646 -1.49196 0
M  V30 4605 H 446.606 3.65201 -1.32517 0
M  V30 4606 H 448.278 2.68673 -3.74983 0
M  V30 4607 H 446.521 2.46982 -3.56626 0
M  V30 4608 H 447.192 4.09829 -3.6979 0
M  V30 4609 H 449.668 3.75022 -1.80272 0
M  V30 4610 H 448.544 5.12331 -1.96999 0
M  V30 4611 H 448.805 4.40386 -0.388924 0
M  V30 4612 N 447.864 1.01787 1.20321 0
M  V30 4613 C 448.774 0.598898 2.26827 0
M  V30 4614 C 449.79 -0.36418 1.70146 0
M  V30 4615 O 450.966 -0.224812 2.00141 0
M  V30 4616 C 448.031 -0.0549769 3.46656 0
M  V30 4617 C 447.092 0.954205 4.18561 0
M  V30 4618 C 446.325 0.331439 5.3267 0
M  V30 4619 O 446.548 -0.86851 5.63749 0
M  V30 4620 O 445.482 1.0488 5.92692 0
M  V30 4621 H 449.308 1.48562 2.64883 0
M  V30 4622 H 446.893 0.787434 1.26964 0
M  V30 4623 H 448.775 -0.420102 4.19301 0
M  V30 4624 H 447.45 -0.915876 3.10473 0
M  V30 4625 H 446.357 1.37072 3.48083 0
M  V30 4626 H 447.69 1.78511 4.58688 0
M  V30 4627 N 449.342 -1.36122 0.79427 0
M  V30 4628 C 450.59 -1.98718 0.368177 0
M  V30 4629 C 450.911 -1.63345 -1.06506 0
M  V30 4630 O 450.181 -0.909825 -1.73491 0
M  V30 4631 H 448.761 -0.735038 0.133146 0
M  V30 4632 H 451.423 -1.66239 1.01739 0
M  V30 4633 H 450.519 -3.08633 0.463923 0
M  V30 4634 N 450.82 -0.546701 -1.47814 0
M  V30 4635 C 452.069 -0.0166497 -2.01693 0
M  V30 4636 C 452.382 1.33721 -1.42752 0
M  V30 4637 O 453.588 1.95658 -1.8823 0
M  V30 4638 C 452.044 0.0206769 -3.59894 0
M  V30 4639 C 451.652 -1.3293 -4.27824 0
M  V30 4640 C 453.396 0.498674 -4.21561 0
M  V30 4641 C 451.303 -1.25165 -5.78003 0
M  V30 4642 H 450.233 -0.0024541 -0.753996 0
M  V30 4643 H 452.884 -0.692984 -1.69912 0
M  V30 4644 H 451.266 0.76244 -3.88591 0
M  V30 4645 H 452.44 -2.08795 -4.10781 0
M  V30 4646 H 450.755 -1.74438 -3.78101 0
M  V30 4647 H 453.352 0.575 -5.31599 0
M  V30 4648 H 453.695 1.5083 -3.88016 0
M  V30 4649 H 454.228 -0.18791 -3.97356 0
M  V30 4650 H 450.967 -2.23695 -6.1615 0
M  V30 4651 H 450.487 -0.53464 -5.97412 0
M  V30 4652 H 452.166 -0.949299 -6.39998 0
M  V30 4653 N 452.299 1.55045 -0.282633 0
M  V30 4654 C 453.547 1.99365 0.331334 0
M  V30 4655 C 453.868 1.1725 1.55812 0
M  V30 4656 O 453.138 0.263871 1.94115 0
M  V30 4657 H 451.718 0.736397 0.125414 0
M  V30 4658 H 454.38 1.90964 -0.389711 0
M  V30 4659 H 453.476 3.0596 0.616036 0
M  V30 4660 N 453.777 0.010035 1.57597 0
M  V30 4661 C 455.007 -0.682422 1.95004 0
M  V30 4662 C 455.415 -1.67278 0.884014 0
M  V30 4663 O 454.758 -1.83129 -0.144672 0
M  V30 4664 C 454.82 -1.46141 3.28456 0
M  V30 4665 C 454.484 -0.631523 4.52615 0
M  V30 4666 C 455.481 0.0850905 5.1983 0
M  V30 4667 C 453.166 -0.574539 4.99003 0
M  V30 4668 C 455.16 0.847566 6.3174 0
M  V30 4669 C 452.847 0.191655 6.10799 0
M  V30 4670 C 453.845 0.901432 6.77025 0
M  V30 4671 O 453.533 1.65511 7.86677 0
M  V30 4672 H 453.265 -0.194361 0.647456 0
M  V30 4673 H 455.819 0.060312 2.05311 0
M  V30 4674 H 454.049 -2.24885 3.14585 0
M  V30 4675 H 455.738 -2.04016 3.50902 0
M  V30 4676 H 456.504 0.0502812 4.84974 0
M  V30 4677 H 452.383 -1.11654 4.47274 0
M  V30 4678 H 455.927 1.4021 6.83364 0
M  V30 4679 H 451.824 0.228249 6.45096 0
M  V30 4680 H 452.592 1.57287 8.03245 0
M  V30 4681 N 455.255 -1.55392 -0.262866 0
M  V30 4682 C 456.532 -1.67204 -1.01499 0
M  V30 4683 C 456.912 -0.545186 -2.03939 0
M  V30 4684 O 456.26 0.453467 -2.23955 0
M  V30 4685 C 456.47 -3.06847 -1.6627 0
M  V30 4686 C 457.818 -3.64928 -2.17054 0
M  V30 4687 O 458.842 -3.09545 -1.76239 0
M  V30 4688 O 457.701 -4.61984 -2.91947 0
M  V30 4689 H 454.795 -0.679467 -0.471438 0
M  V30 4690 H 457.341 -1.67729 -0.257918 0
M  V30 4691 H 456.113 -3.80309 -0.920915 0
M  V30 4692 H 455.736 -3.10266 -2.48638 0
M  V30 4693 N 456.733 0.527833 -1.48498 0
M  V30 4694 C 457.98 1.28354 -1.56625 0
M  V30 4695 C 458.308 1.93 -0.241096 0
M  V30 4696 O 457.563 1.79967 0.768798 0
M  V30 4697 C 457.862 2.39275 -2.65485 0
M  V30 4698 C 457.528 1.92268 -4.07853 0
M  V30 4699 C 456.19 1.79166 -4.46602 0
M  V30 4700 C 458.542 1.56771 -4.97064 0
M  V30 4701 C 455.87 1.28905 -5.72364 0
M  V30 4702 C 458.222 1.07972 -6.23318 0
M  V30 4703 C 456.886 0.934887 -6.60921 0
M  V30 4704 H 456.156 0.469682 -0.573131 0
M  V30 4705 H 458.803 0.588781 -1.82224 0
M  V30 4706 H 457.108 3.1443 -2.33754 0
M  V30 4707 H 458.805 2.974 -2.68988 0
M  V30 4708 H 455.395 2.03417 -3.77252 0
M  V30 4709 H 459.579 1.65753 -4.67803 0
M  V30 4710 H 454.835 1.16381 -6.00221 0
M  V30 4711 H 459.009 0.795775 -6.91838 0
M  V30 4712 H 456.636 0.543231 -7.58257 0
M  V30 4713 N 458.211 1.37122 0.776871 0
M  V30 4714 C 459.46 1.31373 1.53049 0
M  V30 4715 C 459.773 -0.101016 1.95339 0
M  V30 4716 O 460.979 -0.280953 2.70042 0
M  V30 4717 C 459.435 2.30567 2.76346 0
M  V30 4718 C 459.043 3.77543 2.41175 0
M  V30 4719 C 460.787 2.33818 3.54301 0
M  V30 4720 C 458.694 4.68481 3.60943 0
M  V30 4721 H 457.624 0.488234 0.574581 0
M  V30 4722 H 460.275 1.62554 0.851372 0
M  V30 4723 H 458.657 1.92396 3.46121 0
M  V30 4724 H 459.831 4.24521 1.79216 0
M  V30 4725 H 458.146 3.77187 1.76405 0
M  V30 4726 H 460.743 2.98965 4.4331 0
M  V30 4727 H 461.086 1.3503 3.93793 0
M  V30 4728 H 461.619 2.7067 2.91518 0
M  V30 4729 H 458.358 5.68378 3.26537 0
M  V30 4730 H 457.878 4.2621 4.22025 0
M  V30 4731 H 459.557 4.85366 4.27819 0
M  V30 4732 N 459.689 -1.00246 1.21608 0
M  V30 4733 C 461.1 -1.55511 1.03312 0
M  V30 4734 C 461.451 -1.91946 -0.406332 0
M  V30 4735 O 460.576 -1.73753 -1.28992 0
M  V30 4736 C 461.171 -2.82576 1.86913 0
M  V30 4737 C 459.73 -3.34318 1.72941 0
M  V30 4738 C 458.877 -2.07487 1.83968 0
M  V30 4739 H 461.828 -0.824638 1.35593 0
M  V30 4740 H 461.849 -3.54559 1.38087 0
M  V30 4741 H 461.361 -2.56026 2.91672 0
M  V30 4742 H 459.462 -3.65797 0.70877 0
M  V30 4743 H 459.575 -4.05566 2.55055 0
M  V30 4744 H 457.939 -2.20603 1.27304 0
M  V30 4745 H 458.722 -1.83346 2.9024 0
M  V30 4746 N 461.167 -1.02423 -1.1978 0
M  V30 4747 C 462.395 -0.737456 -1.93311 0
M  V30 4748 C 462.81 0.703023 -1.75223 0
M  V30 4749 O 462.167 1.47761 -1.07112 0
M  V30 4750 C 462.218 -1.0733 -3.45199 0
M  V30 4751 O 461.939 -2.4572 -3.62702 0
M  V30 4752 C 463.44 -0.80866 -4.35862 0
M  V30 4753 H 460.66 -0.2702 -0.614193 0
M  V30 4754 H 463.204 -1.36747 -1.52054 0
M  V30 4755 H 461.359 -0.488545 -3.84307 0
M  V30 4756 H 461.773 -2.58081 -4.56612 0
M  V30 4757 H 463.247 -1.09365 -5.41057 0
M  V30 4758 H 463.724 0.257025 -4.38447 0
M  V30 4759 H 464.33 -1.37592 -4.02428 0
M  V30 4760 N 462.645 1.35699 -0.801477 0
M  V30 4761 C 463.891 1.99208 -0.380022 0
M  V30 4762 C 464.224 1.63445 1.04878 0
M  V30 4763 O 463.499 0.895223 1.72673 0
M  V30 4764 C 463.782 3.55755 -0.557708 0
M  V30 4765 C 463.635 4.01332 -2.03107 0
M  V30 4766 C 464.954 4.40096 0.0197968 0
M  V30 4767 H 462.073 0.723667 -0.139552 0
M  V30 4768 H 464.715 1.60928 -1.01006 0
M  V30 4769 H 462.865 3.88494 -0.0213741 0
M  V30 4770 H 464.537 3.79026 -2.62939 0
M  V30 4771 H 462.78 3.52429 -2.52936 0
M  V30 4772 H 463.451 5.10234 -2.1063 0
M  V30 4773 H 465.927 4.13786 -0.438179 0
M  V30 4774 H 464.803 5.48735 -0.134477 0
M  V30 4775 H 465.064 4.2786 1.11303 0
M  V30 4776 N 464.123 0.554532 1.47522 0
M  V30 4777 C 465.053 -0.182974 2.32782 0
M  V30 4778 C 466.034 -0.911377 1.43624 0
M  V30 4779 O 467.219 -0.892366 1.72483 0
M  V30 4780 C 464.349 -1.21513 3.25349 0
M  V30 4781 C 463.303 -0.603355 4.23726 0
M  V30 4782 C 462.629 -1.73995 5.05598 0
M  V30 4783 C 463.929 0.441121 5.20434 0
M  V30 4784 H 465.623 0.52882 2.94693 0
M  V30 4785 H 463.169 0.255759 1.41711 0
M  V30 4786 H 465.122 -1.73922 3.83835 0
M  V30 4787 H 463.846 -1.95683 2.61487 0
M  V30 4788 H 462.505 -0.10059 3.66462 0
M  V30 4789 H 462.153 -2.47063 4.38143 0
M  V30 4790 H 461.853 -1.3364 5.72201 0
M  V30 4791 H 463.377 -2.26735 5.66942 0
M  V30 4792 H 464.791 0.00319931 5.733 0
M  V30 4793 H 463.188 0.763402 5.95224 0
M  V30 4794 H 464.258 1.33799 4.66075 0
M  V30 4795 N 465.601 -1.54893 0.290851 0
M  V30 4796 C 466.878 -1.91991 -0.373989 0
M  V30 4797 C 467.258 -1.21694 -1.72493 0
M  V30 4798 O 466.606 -0.34917 -2.25816 0
M  V30 4799 C 466.816 -3.45419 -0.498703 0
M  V30 4800 C 468.164 -4.1748 -0.774298 0
M  V30 4801 O 469.188 -3.51398 -0.582908 0
M  V30 4802 O 468.047 -5.3445 -1.14129 0
M  V30 4803 H 465.141 -0.800593 -0.207315 0
M  V30 4804 H 467.687 -1.66297 0.338164 0
M  V30 4805 H 466.459 -3.88688 0.451392 0
M  V30 4806 H 466.082 -3.77117 -1.25972 0
M  V30 4807 N 467.08 -0.0183926 -1.57589 0
M  V30 4808 C 468.496 0.337897 -1.55982 0
M  V30 4809 C 468.696 1.73604 -1.02294 0
M  V30 4810 O 467.752 2.43589 -0.664895 0
M  V30 4811 C 469.065 0.196305 -3.00059 0
M  V30 4812 C 470.613 0.269875 -3.11834 0
M  V30 4813 C 471.088 0.157197 -4.5773 0
M  V30 4814 N 472.579 0.214521 -4.62703 0
M  V30 4815 C 473.314 0.150955 -5.73201 0
M  V30 4816 N 472.81 0.0369212 -6.9279 0
M  V30 4817 N 474.603 0.204162 -5.61729 0
M  V30 4818 H 466.754 -0.93279 -1.90821 0
M  V30 4819 H 469.017 -0.359253 -0.877292 0
M  V30 4820 H 468.723 -0.766383 -3.43248 0
M  V30 4821 H 468.597 0.970908 -3.6449 0
M  V30 4822 H 470.984 1.22302 -2.68563 0
M  V30 4823 H 471.065 -0.534918 -2.50144 0
M  V30 4824 H 470.709 -0.792479 -5.01679 0
M  V30 4825 H 470.639 0.980717 -5.17387 0
M  V30 4826 H 473.13 0.303238 -3.76681 0
M  V30 4827 H 473.443 -0.00518321 -7.728 0
M  V30 4828 H 471.788 0.0022886 -6.95 0
M  V30 4829 H 474.979 0.291575 -4.67191 0
M  V30 4830 H 475.152 0.15116 -6.47824 0
M  V30 4831 N 468.558 1.5553 0.254621 0
M  V30 4832 C 469.786 1.81046 1.00149 0
M  V30 4833 C 470.201 0.593047 1.79244 0
M  V30 4834 O 469.558 -0.438196 1.77161 0
M  V30 4835 C 469.609 3.04684 1.94551 0
M  V30 4836 O 469.33 4.21725 1.18658 0
M  V30 4837 C 470.831 3.42943 2.80901 0
M  V30 4838 H 468.051 0.602653 0.295044 0
M  V30 4839 H 470.595 2.02576 0.279842 0
M  V30 4840 H 468.75 2.85226 2.62154 0
M  V30 4841 H 469.164 4.91746 1.82445 0
M  V30 4842 H 470.638 4.32576 3.42902 0
M  V30 4843 H 471.115 2.63176 3.51617 0
M  V30 4844 H 471.721 3.64724 2.18762 0
M  V30 4845 N 470.036 -0.519951 1.48776 0
M  V30 4846 C 471.282 -1.27711 1.57536 0
M  V30 4847 C 471.615 -1.92547 0.252866 0
M  V30 4848 O 470.89 -1.7979 -0.742021 0
M  V30 4849 C 471.173 -2.35875 2.72094 0
M  V30 4850 C 471.026 -1.75664 4.1408 0
M  V30 4851 C 472.345 -3.37575 2.82367 0
M  V30 4852 H 469.464 -0.462971 0.573434 0
M  V30 4853 H 472.106 -0.578194 1.80989 0
M  V30 4854 H 470.256 -2.95488 2.52228 0
M  V30 4855 H 471.928 -1.20025 4.45412 0
M  V30 4856 H 470.171 -1.06154 4.20611 0
M  V30 4857 H 470.842 -2.54029 4.90075 0
M  V30 4858 H 473.318 -2.87929 3.00393 0
M  V30 4859 H 472.194 -4.1064 3.64233 0
M  V30 4860 H 472.455 -3.98743 1.90936 0
M  V30 4861 N 471.514 -1.37532 -0.769588 0
M  V30 4862 C 472.76 -1.33057 -1.53048 0
M  V30 4863 C 473.093 0.0841865 -1.94017 0
M  V30 4864 O 472.368 1.04198 -1.64235 0
M  V30 4865 C 472.651 -2.27166 -2.79406 0
M  V30 4866 C 472.504 -3.77429 -2.44677 0
M  V30 4867 C 473.823 -2.19683 -3.81349 0
M  V30 4868 H 470.942 -0.484655 -0.555228 0
M  V30 4869 H 473.584 -1.68251 -0.882702 0
M  V30 4870 H 471.734 -1.97283 -3.34682 0
M  V30 4871 H 473.406 -4.17918 -1.953 0
M  V30 4872 H 471.649 -3.95892 -1.77346 0
M  V30 4873 H 472.32 -4.38716 -3.35011 0
M  V30 4874 H 474.796 -2.46029 -3.35573 0
M  V30 4875 H 473.672 -2.87668 -4.67481 0
M  V30 4876 H 473.933 -1.19045 -4.25771 0
M  V30 4877 N 472.992 0.995999 -1.22138 0
M  V30 4878 C 474.269 1.70834 -0.952642 0
M  V30 4879 C 474.649 2.04257 0.533119 0
M  V30 4880 O 473.997 1.72343 1.50034 0
M  V30 4881 C 474.207 2.96119 -1.84701 0
M  V30 4882 C 475.555 3.68962 -2.10124 0
M  V30 4883 O 476.579 3.0612 -1.82124 0
M  V30 4884 O 475.438 4.82017 -2.57531 0
M  V30 4885 H 472.532 0.745498 -0.357997 0
M  V30 4886 H 475.078 1.05262 -1.33109 0
M  V30 4887 H 473.85 2.67898 -2.85213 0
M  V30 4888 H 473.473 3.6943 -1.46995 0
M  V30 4889 N 474.47 1.03057 1.19235 0
M  V30 4890 C 475.417 0.612832 2.22515 0
M  V30 4891 C 476.387 -0.374224 1.61829 0
M  V30 4892 O 477.572 -0.270501 1.88873 0
M  V30 4893 C 474.712 -0.028475 3.45088 0
M  V30 4894 C 473.825 1.00483 4.20151 0
M  V30 4895 C 472.96 0.333102 5.30155 0
M  V30 4896 C 471.999 1.3522 5.96977 0
M  V30 4897 N 471.136 0.70616 6.9854 0
M  V30 4898 H 475.976 1.49812 2.57605 0
M  V30 4899 H 473.513 0.749658 1.26564 0
M  V30 4900 H 475.471 -0.417548 4.15105 0
M  V30 4901 H 474.101 -0.877334 3.10649 0
M  V30 4902 H 473.153 1.51194 3.49062 0
M  V30 4903 H 474.465 1.77929 4.65986 0
M  V30 4904 H 473.619 -0.110725 6.06599 0
M  V30 4905 H 472.358 -0.473547 4.85396 0
M  V30 4906 H 471.363 1.80627 5.19282 0
M  V30 4907 H 472.588 2.16037 6.4382 0
M  V30 4908 H 470.534 -0.0803667 6.55951 0
M  V30 4909 H 470.451 1.41848 7.42573 0
M  V30 4910 H 471.719 0.286391 7.78974 0
M  V30 4911 N 475.948 -1.35272 0.808662 0
M  V30 4912 C 477.194 -1.99434 0.399717 0
M  V30 4913 C 477.549 -1.62992 -1.02232 0
M  V30 4914 O 476.842 -0.884091 -1.69983 0
M  V30 4915 C 477.036 -3.53556 0.522798 0
M  V30 4916 C 476.865 -4.04969 1.95525 0
M  V30 4917 C 475.635 -4.34228 2.58407 0
M  V30 4918 C 477.833 -4.23362 2.92009 0
M  V30 4919 N 475.815 -4.71585 3.93041 0
M  V30 4920 C 477.186 -4.63739 4.11517 0
M  V30 4921 C 479.241 -4.05576 2.88813 0
M  V30 4922 C 477.944 -4.88189 5.28265 0
M  V30 4923 C 479.97 -4.31184 4.04765 0
M  V30 4924 C 479.332 -4.71834 5.23022 0
M  V30 4925 H 475.431 -0.757534 0.19408 0
M  V30 4926 H 478.015 -1.63939 1.05034 0
M  V30 4927 H 476.186 -3.88277 -0.0978471 0
M  V30 4928 H 477.918 -4.04604 0.0882378 0
M  V30 4929 H 474.673 -4.24621 2.09747 0
M  V30 4930 H 475.097 -4.9452 4.62363 0
M  V30 4931 H 479.739 -3.73288 1.98535 0
M  V30 4932 H 477.457 -5.1935 6.19113 0
M  V30 4933 H 481.043 -4.18972 4.03675 0
M  V30 4934 H 479.923 -4.91263 6.11253 0
M  V30 4935 N 477.426 -0.562348 -1.47226 0
M  V30 4936 C 478.673 -0.0402165 -2.0246 0
M  V30 4937 C 479.001 1.31169 -1.43614 0
M  V30 4938 O 478.256 1.86805 -0.5833 0
M  V30 4939 C 478.555 0.0969817 -3.57268 0
M  V30 4940 C 478.221 -1.1847 -4.35058 0
M  V30 4941 C 476.883 -1.53588 -4.56031 0
M  V30 4942 C 479.235 -2.03378 -4.79882 0
M  V30 4943 C 476.563 -2.73452 -5.19077 0
M  V30 4944 C 478.915 -3.2245 -5.44251 0
M  V30 4945 C 477.579 -3.57876 -5.63455 0
M  V30 4946 H 476.849 -0.0147163 -0.740854 0
M  V30 4947 H 479.496 -0.734895 -1.76838 0
M  V30 4948 H 477.801 0.87466 -3.81912 0
M  V30 4949 H 479.498 0.516408 -3.97661 0
M  V30 4950 H 476.088 -0.90126 -4.19017 0
M  V30 4951 H 480.272 -1.77553 -4.63453 0
M  V30 4952 H 475.528 -3.01062 -5.32139 0
M  V30 4953 H 479.702 -3.88526 -5.77945 0
M  V30 4954 H 477.329 -4.50849 -6.12078 0
M  V30 4955 N 478.904 1.54736 -0.299062 0
M  V30 4956 C 479.851 2.23448 0.577899 0
M  V30 4957 C 480.821 1.21637 1.13109 0
M  V30 4958 O 482.006 1.50252 1.17597 0
M  V30 4959 C 479.146 2.9774 1.74484 0
M  V30 4960 C 478.259 4.1432 1.22323 0
M  V30 4961 C 477.394 4.76199 2.35388 0
M  V30 4962 C 476.433 5.84927 1.80351 0
M  V30 4963 N 475.57 6.4077 2.86982 0
M  V30 4964 H 480.41 2.97996 -0.0146545 0
M  V30 4965 H 477.947 1.47088 -0.0190013 0
M  V30 4966 H 479.905 3.39045 2.43114 0
M  V30 4967 H 478.535 2.25572 2.30905 0
M  V30 4968 H 477.587 3.7797 0.429249 0
M  V30 4969 H 478.899 4.92659 0.780309 0
M  V30 4970 H 478.053 5.20346 3.11969 0
M  V30 4971 H 476.792 3.97188 2.83006 0
M  V30 4972 H 475.797 5.40207 1.02259 0
M  V30 4973 H 477.022 6.65821 1.3364 0
M  V30 4974 H 474.968 5.64643 3.33938 0
M  V30 4975 H 474.885 7.1445 2.4718 0
M  V30 4976 H 476.153 6.89574 3.63466 0
M  V30 4977 N 480.382 0.0267497 1.57577 0
M  V30 4978 C 481.607 -0.666227 1.96408 0
M  V30 4979 C 482.032 -1.65004 0.903071 0
M  V30 4980 O 481.39 -1.80787 -0.136263 0
M  V30 4981 C 481.438 -1.35101 3.34335 0
M  V30 4982 O 480.542 -2.46623 3.30531 0
M  V30 4983 H 479.883 -0.175206 0.640468 0
M  V30 4984 H 482.413 0.0878977 2.04411 0
M  V30 4985 H 482.423 -1.70834 3.70513 0
M  V30 4986 H 481.098 -0.629844 4.11103 0
M  V30 4987 H 479.675 -2.13019 3.06068 0
M  V30 4988 N 481.861 -1.55662 -0.24637 0
M  V30 4989 C 482.809 -1.91186 -1.3248 0
M  V30 4990 C 483.803 -0.790996 -1.49799 0
M  V30 4991 O 485.009 -0.975617 -1.51267 0
M  V30 4992 H 481.384 -0.607207 -0.443626 0
M  V30 4993 H 483.355 -2.81221 -0.997853 0
M  V30 4994 C 482.104 -2.22349 -2.67313 0
M  V30 4995 H 481.427 -3.08097 -2.54786 0
M  V30 4996 H 482.867 -2.51107 -3.41645 0
M  V30 4997 C 481.326 -1.04001 -3.20446 0
M  V30 4998 O 481.856 -0.28828 -4.00664 0
M  V30 4999 N 480.062 -0.830494 -2.7848 0
M  V30 5000 H 479.609 -1.4435 -2.13356 0
M  V30 5001 H 479.567 -0.0403258 -3.14374 0
M  V30 5002 N 483.339 0.512053 -1.4905 0
M  V30 5003 C 484.616 1.27337 -1.48474 0
M  V30 5004 C 484.996 2.1009 -0.206301 0
M  V30 5005 O 484.344 2.136 0.811609 0
M  V30 5006 C 484.554 2.13954 -2.75726 0
M  V30 5007 C 485.902 2.73507 -3.24776 0
M  V30 5008 O 486.926 2.24229 -2.76767 0
M  V30 5009 O 485.785 3.63186 -4.08361 0
M  V30 5010 H 482.879 0.575652 -0.593762 0
M  V30 5011 H 485.425 0.527232 -1.61302 0
M  V30 5012 H 484.197 1.52709 -3.60272 0
M  V30 5013 H 483.82 2.95782 -2.65705 0
M  V30 5014 N 484.817 1.37938 0.762283 0
M  V30 5015 C 485.727 1.36681 1.90671 0
M  V30 5016 C 486.743 0.265078 1.71969 0
M  V30 5017 O 487.919 0.502055 1.95042 0
M  V30 5018 C 484.984 1.18211 3.25925 0
M  V30 5019 C 484.045 2.3811 3.57214 0
M  V30 5020 C 483.278 2.20512 4.86014 0
M  V30 5021 O 483.501 1.19429 5.57757 0
M  V30 5022 O 482.435 3.08911 5.16583 0
M  V30 5023 H 486.261 2.33091 1.94685 0
M  V30 5024 H 483.846 1.18767 0.906356 0
M  V30 5025 H 485.728 1.09937 4.06807 0
M  V30 5026 H 484.403 0.248807 3.22742 0
M  V30 5027 H 483.31 2.51958 2.76529 0
M  V30 5028 H 484.643 3.30041 3.65149 0
M  V30 5029 N 486.295 -0.989507 1.22664 0
M  V30 5030 C 487.205 -2.11449 1.01619 0
M  V30 5031 C 488.221 -1.73962 -0.036545 0
M  V30 5032 O 489.397 -2.00788 0.156924 0
M  V30 5033 C 486.462 -3.41465 0.600204 0
M  V30 5034 C 485.523 -3.93033 1.72695 0
M  V30 5035 C 484.756 -5.16844 1.33071 0
M  V30 5036 O 484.979 -5.7001 0.210975 0
M  V30 5037 O 483.913 -5.6225 2.14845 0
M  V30 5038 H 487.739 -2.32088 1.9588 0
M  V30 5039 H 485.324 -1.09823 1.01289 0
M  V30 5040 H 487.206 -4.19695 0.37873 0
M  V30 5041 H 485.881 -3.22178 -0.313511 0
M  V30 5042 H 484.788 -3.15961 2.00298 0
M  V30 5043 H 486.121 -4.16758 2.61865 0
M  V30 5044 N 487.773 -1.03688 -1.18687 0
M  V30 5045 C 488.736 -0.629115 -2.20397 0
M  V30 5046 C 489.736 0.311495 -1.57754 0
M  V30 5047 O 490.926 0.0974107 -1.73927 0
M  V30 5048 C 488.058 0.0782231 -3.4081 0
M  V30 5049 H 489.251 -1.52915 -2.57987 0
M  V30 5050 H 486.804 -0.828988 -1.32505 0
M  V30 5051 H 487.539 0.992233 -3.08748 0
M  V30 5052 H 487.324 -0.597776 -3.87517 0
M  V30 5053 H 488.814 0.350156 -4.16129 0
M  V30 5054 N 489.251 1.34841 -0.815825 0
M  V30 5055 C 490.498 1.98499 -0.400535 0
M  V30 5056 C 490.826 1.64699 1.03463 0
M  V30 5057 O 490.081 0.907006 1.73412 0
M  V30 5058 C 490.38 3.53273 -0.541541 0
M  V30 5059 C 490.046 4.06966 -1.94138 0
M  V30 5060 C 488.708 4.21341 -2.32433 0
M  V30 5061 C 491.06 4.35933 -2.85677 0
M  V30 5062 C 488.388 4.62007 -3.61617 0
M  V30 5063 C 490.74 4.78042 -4.14317 0
M  V30 5064 C 489.404 4.90622 -4.52599 0
M  V30 5065 H 488.674 0.72636 -0.146566 0
M  V30 5066 H 491.321 1.60902 -1.0384 0
M  V30 5067 H 489.626 3.91387 0.179741 0
M  V30 5068 H 491.323 4.00497 -0.20085 0
M  V30 5069 H 487.913 3.96235 -1.63388 0
M  V30 5070 H 492.097 4.24372 -2.57337 0
M  V30 5071 H 487.353 4.69937 -3.91113 0
M  V30 5072 H 491.527 4.99415 -4.85342 0
M  V30 5073 H 489.154 5.2189 -5.52752 0
M  V30 5074 N 490.729 0.570148 1.46925 0
M  V30 5075 C 491.957 0.0561966 2.06824 0
M  V30 5076 C 492.372 -1.24326 1.42086 0
M  V30 5077 O 491.729 -1.74882 0.521794 0
M  V30 5078 C 491.78 -0.129517 3.61268 0
M  V30 5079 O 491.501 1.1185 4.23581 0
M  V30 5080 C 493.002 -0.679266 4.38065 0
M  V30 5081 H 490.222 0.0517261 0.669003 0
M  V30 5082 H 492.766 0.787243 1.8874 0
M  V30 5083 H 490.921 -0.810739 3.78822 0
M  V30 5084 H 491.335 0.924375 5.1629 0
M  V30 5085 H 492.809 -0.758445 5.46765 0
M  V30 5086 H 493.286 -1.69346 4.05239 0
M  V30 5087 H 493.892 -0.0333237 4.25287 0
M  V30 5088 N 492.207 -1.54576 0.307264 0
M  V30 5089 C 493.454 -2.00263 -0.300167 0
M  V30 5090 C 493.782 -1.19561 -1.53413 0
M  V30 5091 O 493.037 -0.261487 -1.93945 0
M  V30 5092 C 493.336 -3.50572 -0.695253 0
M  V30 5093 C 493.002 -4.48771 0.437679 0
M  V30 5094 C 491.664 -4.7534 0.748681 0
M  V30 5095 C 494.016 -5.0721 1.19949 0
M  V30 5096 C 491.344 -5.5761 1.8245 0
M  V30 5097 C 493.696 -5.90651 2.26527 0
M  V30 5098 C 492.36 -6.15528 2.58227 0
M  V30 5099 H 491.63 -0.732814 -0.109839 0
M  V30 5100 H 494.277 -1.86664 0.427661 0
M  V30 5101 H 492.582 -3.61814 -1.50326 0
M  V30 5102 H 494.279 -3.83352 -1.17653 0
M  V30 5103 H 490.869 -4.282 0.185187 0
M  V30 5104 H 495.053 -4.86679 0.972474 0
M  V30 5105 H 490.309 -5.75121 2.07476 0
M  V30 5106 H 494.483 -6.34957 2.86011 0
M  V30 5107 H 492.11 -6.79066 3.4172 0
M  V30 5108 N 493.685 -0.035106 -1.57561 0
M  V30 5109 C 494.648 0.929819 -2.09492 0
M  V30 5110 C 495.648 1.25026 -1.01119 0
M  V30 5111 O 496.838 1.18961 -1.27255 0
M  V30 5112 C 493.97 2.24457 -2.56577 0
M  V30 5113 H 495.163 0.479935 -2.96035 0
M  V30 5114 H 492.716 0.213033 -1.54841 0
M  V30 5115 H 493.451 2.74061 -1.73382 0
M  V30 5116 H 493.236 2.02508 -3.35757 0
M  V30 5117 H 494.726 2.93607 -2.96959 0
M  V30 5118 N 495.163 1.55791 0.238111 0
M  V30 5119 C 496.579 1.48411 0.587045 0
M  V30 5120 C 496.779 0.72702 1.87927 0
M  V30 5121 O 495.835 0.259942 2.51158 0
M  V30 5122 C 497.148 2.92873 0.681623 0
M  V30 5123 C 498.696 3.03295 0.773363 0
M  V30 5124 C 499.171 4.49082 0.899428 0
M  V30 5125 N 500.662 4.53056 0.964075 0
M  V30 5126 C 501.397 5.63117 1.08104 0
M  V30 5127 N 500.893 6.82969 1.16299 0
M  V30 5128 N 502.686 5.50933 1.11488 0
M  V30 5129 H 494.837 2.0345 -0.610076 0
M  V30 5130 H 497.1 0.924034 -0.211813 0
M  V30 5131 H 496.806 3.51142 -0.19802 0
M  V30 5132 H 496.68 3.43851 1.55069 0
M  V30 5133 H 499.067 2.45101 1.64346 0
M  V30 5134 H 499.148 2.55513 -0.121034 0
M  V30 5135 H 498.792 5.07889 0.0338586 0
M  V30 5136 H 498.722 4.94553 1.809 0
M  V30 5137 H 501.213 3.66737 0.91173 0
M  V30 5138 H 501.526 7.62598 1.25155 0
M  V30 5139 H 499.871 6.85712 1.13241 0
M  V30 5140 H 503.062 4.56231 1.0474 0
M  V30 5141 H 503.235 6.36743 1.20259 0
M  V30 5142 N 496.642 -0.504142 1.49319 0
M  V30 5143 C 497.575 -1.62361 1.60356 0
M  V30 5144 C 498.553 -1.56169 0.45277 0
M  V30 5145 O 499.737 -1.76271 0.667892 0
M  V30 5146 C 496.864 -3.00864 1.55559 0
M  V30 5147 C 495.91 -3.25328 2.75797 0
M  V30 5148 S 496.743 -3.08791 4.37503 0
M  V30 5149 C 497.899 -4.49695 4.35345 0
M  V30 5150 H 498.132 -1.52753 2.55056 0
M  V30 5151 H 495.665 -0.689065 1.38171 0
M  V30 5152 H 497.623 -3.8073 1.53477 0
M  V30 5153 H 496.284 -3.0789 0.621515 0
M  V30 5154 H 495.477 -4.2643 2.68651 0
M  V30 5155 H 495.079 -2.53179 2.75275 0
M  V30 5156 H 497.371 -5.41721 4.06871 0
M  V30 5157 H 498.314 -4.61891 5.36714 0
M  V30 5158 H 498.722 -4.30227 3.65465 0
M  V30 5159 N 498.12 -1.38341 -0.754957 0
M  V30 5160 C 499.05 -1.38176 -1.88227 0
M  V30 5161 C 500.031 -0.247873 -1.68284 0
M  V30 5162 O 501.216 -0.45075 -1.88896 0
M  V30 5163 C 498.346 -1.20471 -3.25736 0
M  V30 5164 C 497.3 -2.3105 -3.60278 0
M  V30 5165 C 496.626 -1.98452 -4.96509 0
M  V30 5166 C 497.926 -3.73305 -3.65295 0
M  V30 5167 H 499.62 -2.32512 -1.88622 0
M  V30 5168 H 497.166 -1.1192 -0.906082 0
M  V30 5169 H 499.119 -1.18982 -4.04254 0
M  V30 5170 H 497.843 -0.225965 -3.25817 0
M  V30 5171 H 496.502 -2.31723 -2.84078 0
M  V30 5172 H 496.15 -0.990641 -4.93148 0
M  V30 5173 H 495.85 -2.7251 -5.20588 0
M  V30 5174 H 497.374 -1.98578 -5.77407 0
M  V30 5175 H 498.788 -3.7467 -4.3393 0
M  V30 5176 H 497.185 -4.46557 -4.00883 0
M  V30 5177 H 498.255 -4.05719 -2.65556 0
M  V30 5178 N 499.598 0.982988 -1.23187 0
M  V30 5179 C 500.847 1.71817 -1.05649 0
M  V30 5180 C 501.16 1.91315 0.407176 0
M  V30 5181 O 502.366 2.62256 0.702436 0
M  V30 5182 C 500.822 3.09188 -1.84203 0
M  V30 5183 C 500.43 2.97586 -3.34882 0
M  V30 5184 C 502.174 3.86684 -1.75146 0
M  V30 5185 C 500.081 4.30173 -4.05839 0
M  V30 5186 H 499.011 0.644258 -0.391724 0
M  V30 5187 H 501.662 1.09659 -1.4713 0
M  V30 5188 H 500.044 3.72087 -1.35527 0
M  V30 5189 H 501.218 2.43793 -3.91026 0
M  V30 5190 H 499.533 2.33567 -3.44725 0
M  V30 5191 H 502.13 4.84836 -2.25473 0
M  V30 5192 H 502.473 4.10136 -0.713737 0
M  V30 5193 H 503.006 3.30482 -2.21419 0
M  V30 5194 H 499.745 4.11918 -5.09906 0
M  V30 5195 H 499.265 4.83841 -3.54482 0
M  V30 5196 H 500.944 4.98873 -4.11989 0
M  V30 5197 N 501.076 1.04316 1.18135 0
M  V30 5198 C 502.039 0.640794 2.2006 0
M  V30 5199 C 503.039 -0.303124 1.57917 0
M  V30 5200 O 504.229 -0.0881855 1.73977 0
M  V30 5201 C 501.361 -0.060148 3.40847 0
M  V30 5202 H 502.554 1.54281 2.57172 0
M  V30 5203 H 500.107 0.836004 1.32063 0
M  V30 5204 H 500.842 -0.975845 3.0927 0
M  V30 5205 H 500.627 0.618319 3.87194 0
M  V30 5206 H 502.117 -0.328082 4.16309 0
M  V30 5207 N 502.554 -1.34406 0.822964 0
M  V30 5208 C 503.486 -2.28305 0.202375 0
M  V30 5209 C 504.499 -1.5103 -0.60777 0
M  V30 5210 O 505.688 -1.73057 -0.437444 0
M  V30 5211 C 502.788 -3.30836 -0.734911 0
M  V30 5212 C 501.961 -4.37388 0.0324177 0
M  V30 5213 C 501.02 -5.1968 -0.825803 0
M  V30 5214 O 500.046 -5.68556 -0.270771 0
M  V30 5215 N 501.248 -5.39393 -2.14558 0
M  V30 5216 H 504.013 -2.82201 1.00909 0
M  V30 5217 H 501.574 -1.4693 0.67993 0
M  V30 5218 H 503.566 -3.82786 -1.31365 0
M  V30 5219 H 502.136 -2.77334 -1.44238 0
M  V30 5220 H 501.356 -3.86152 0.792469 0
M  V30 5221 H 502.644 -5.05702 0.560633 0
M  V30 5222 H 502.042 -5.01357 -2.62025 0
M  V30 5223 H 500.599 -5.94461 -2.67318 0
M  V30 5224 N 504.032 -0.577932 -1.46621 0
M  V30 5225 C 504.942 0.160651 -2.34049 0
M  V30 5226 C 505.958 0.890911 -1.49462 0
M  V30 5227 O 507.134 0.855166 -1.82343 0
M  V30 5228 C 504.199 1.16447 -3.26559 0
M  V30 5229 C 503.26 0.4394 -4.27045 0
M  V30 5230 C 502.493 1.3954 -5.15135 0
M  V30 5231 O 502.716 2.63162 -5.06065 0
M  V30 5232 O 501.65 0.908585 -5.95003 0
M  V30 5233 H 505.476 -0.557057 -2.98547 0
M  V30 5234 H 503.061 -0.338369 -1.45518 0
M  V30 5235 H 504.943 1.7434 -3.83645 0
M  V30 5236 H 503.618 1.86373 -2.64663 0
M  V30 5237 H 502.525 -0.181247 -3.73661 0
M  V30 5238 H 503.858 -0.218799 -4.91713 0
M  V30 5239 N 505.51 1.54411 -0.315457 0
M  V30 5240 C 506.758 2.00023 0.288971 0
M  V30 5241 C 507.079 1.20529 1.5329 0
M  V30 5242 O 506.349 0.304986 1.93511 0
M  V30 5243 H 504.929 0.738891 0.109766 0
M  V30 5244 H 507.591 1.90094 -0.430129 0
M  V30 5245 H 506.687 3.07198 0.550999 0
M  V30 5246 N 506.988 0.0434614 1.5754 0
M  V30 5247 C 507.918 -0.931651 2.14109 0
M  V30 5248 C 508.899 -1.32971 1.06079 0
M  V30 5249 O 510.084 -1.40579 1.33982 0
M  V30 5250 C 507.214 -2.20914 2.67982 0
M  V30 5251 C 506.168 -1.95139 3.80926 0
M  V30 5252 C 505.494 -3.29276 4.21285 0
M  V30 5253 C 506.794 -1.27913 5.06395 0
M  V30 5254 H 508.488 -0.460497 2.95837 0
M  V30 5255 H 506.034 -0.220058 1.42309 0
M  V30 5256 H 507.987 -2.89522 3.06194 0
M  V30 5257 H 506.711 -2.70221 1.83434 0
M  V30 5258 H 505.37 -1.28945 3.43175 0
M  V30 5259 H 505.018 -3.76369 3.33699 0
M  V30 5260 H 504.718 -3.12831 4.97404 0
M  V30 5261 H 506.242 -3.99129 4.62091 0
M  V30 5262 H 507.656 -1.86544 5.42102 0
M  V30 5263 H 506.053 -1.2182 5.87605 0
M  V30 5264 H 507.123 -0.254066 4.84234 0
M  V30 5265 N 508.466 -1.55915 -0.229846 0
M  V30 5266 C 509.396 -1.94754 -1.28815 0
M  V30 5267 C 510.377 -0.814657 -1.49323 0
M  V30 5268 O 511.562 -1.07631 -1.61645 0
M  V30 5269 C 508.692 -2.25705 -2.63959 0
M  V30 5270 C 507.646 -3.41406 -2.5812 0
M  V30 5271 C 506.972 -3.57941 -3.97218 0
M  V30 5272 C 508.272 -4.76616 -2.13623 0
M  V30 5273 H 509.966 -2.83404 -0.965547 0
M  V30 5274 H 507.512 -1.36353 -0.463028 0
M  V30 5275 H 509.465 -2.51467 -3.38146 0
M  V30 5276 H 508.189 -1.339 -2.9789 0
M  V30 5277 H 506.848 -3.1568 -1.86391 0
M  V30 5278 H 506.496 -2.63526 -4.28443 0
M  V30 5279 H 506.196 -4.35757 -3.94195 0
M  V30 5280 H 507.72 -3.86042 -4.73079 0
M  V30 5281 H 509.134 -5.01637 -2.77549 0
M  V30 5282 H 507.531 -5.57655 -2.21677 0
M  V30 5283 H 508.601 -4.7253 -1.08829 0
M  V30 5284 N 509.944 0.496216 -1.49584 0
M  V30 5285 C 511.184 1.26015 -1.60933 0
M  V30 5286 C 511.548 1.89772 -0.291646 0
M  V30 5287 O 512.749 2.67334 -0.280357 0
M  V30 5288 C 511.02 2.29506 -2.73974 0
M  V30 5289 S 512.579 3.15175 -3.05303 0
M  V30 5290 H 509.397 0.428194 -0.567601 0
M  V30 5291 H 511.999 0.561484 -1.87263 0
M  V30 5292 H 510.703 1.81205 -3.68229 0
M  V30 5293 H 510.234 3.04036 -2.49651 0
M  V30 5294 H 512.249 4.30244 -2.47193 0
M  V30 5295 N 511.423 1.38739 0.74761 0
M  V30 5296 C 512.671 1.35007 1.50391 0
M  V30 5297 C 512.992 -0.0574274 1.94915 0
M  V30 5298 O 512.262 -1.00628 1.6808 0
M  V30 5299 H 510.842 0.496784 0.557866 0
M  V30 5300 H 513.504 1.73479 0.888319 0
M  V30 5301 H 512.6 2.00474 2.392 0
M  V30 5302 N 512.901 -0.976442 1.23707 0
M  V30 5303 C 514.149 -1.71487 1.06942 0
M  V30 5304 C 514.47 -1.9098 -0.393897 0
M  V30 5305 O 513.74 -1.48128 -1.28198 0
M  V30 5306 H 512.32 -0.635425 0.392739 0
M  V30 5307 H 514.982 -1.17515 1.55487 0
M  V30 5308 H 514.078 -2.70286 1.56051 0
M  V30 5309 N 514.379 -1.04941 -1.1758 0
M  V30 5310 C 515.604 -0.778253 -1.92245 0
M  V30 5311 C 516.029 0.659707 -1.76152 0
M  V30 5312 O 515.387 1.45803 -1.07755 0
M  V30 5313 C 515.435 -1.16051 -3.41416 0
M  V30 5314 O 514.539 -0.291153 -4.11371 0
M  V30 5315 H 513.88 -0.285619 -0.599431 0
M  V30 5316 H 516.41 -1.40159 -1.49052 0
M  V30 5317 H 516.42 -1.12619 -3.92149 0
M  V30 5318 H 515.095 -2.208 -3.52449 0
M  V30 5319 H 513.672 -0.385851 -3.70898 0
M  V30 5320 N 515.857 1.33968 -0.830081 0
M  V30 5321 C 516.82 2.27694 -0.26235 0
M  V30 5322 C 517.82 1.50589 0.563876 0
M  V30 5323 O 519.01 1.70028 0.378941 0
M  V30 5324 C 516.142 3.35002 0.63138 0
M  V30 5325 H 517.335 2.79419 -1.08928 0
M  V30 5326 H 514.888 1.44221 -0.602486 0
M  V30 5327 H 515.623 2.88504 1.48109 0
M  V30 5328 H 515.408 3.92079 0.0403276 0
M  V30 5329 H 516.898 4.04897 1.02217 0
M  V30 5330 N 517.335 0.585699 1.46312 0
M  V30 5331 C 518.583 0.072278 2.01971 0
M  V30 5332 C 518.904 -1.29345 1.45928 0
M  V30 5333 O 518.174 -1.84973 0.645109 0
M  V30 5334 H 516.754 0.023729 0.746623 0
M  V30 5335 H 519.416 0.762155 1.7938 0
M  V30 5336 H 518.512 0.00552767 3.121 0
M  V30 5337 N 518.813 -1.54241 0.323641 0
M  V30 5338 C 520.038 -2.05452 -0.283605 0
M  V30 5339 C 520.463 -1.19823 -1.44997 0
M  V30 5340 O 519.821 -0.207358 -1.8011 0
M  V30 5341 C 519.869 -3.53823 -0.695795 0
M  V30 5342 O 518.973 -3.71134 -1.79815 0
M  V30 5343 H 518.314 -0.662024 -0.0511917 0
M  V30 5344 H 520.844 -1.99079 0.472073 0
M  V30 5345 H 520.854 -3.96094 -0.978434 0
M  V30 5346 H 519.529 -4.15602 0.157287 0
M  V30 5347 H 518.106 -3.40768 -1.51431 0
M  V30 5348 N 520.291 -0.0518155 -1.57515 0
M  V30 5349 C 521.519 0.631395 -1.9703 0
M  V30 5350 C 521.934 1.64341 -0.92938 0
M  V30 5351 O 521.291 1.82296 0.0863266 0
M  V30 5352 C 521.342 1.31774 -3.36627 0
M  V30 5353 O 521.063 0.346247 -4.3673 0
M  V30 5354 C 522.564 2.09065 -3.90905 0
M  V30 5355 H 519.784 0.172576 -0.648428 0
M  V30 5356 H 522.328 -0.118306 -2.04158 0
M  V30 5357 H 520.483 2.01867 -3.30649 0
M  V30 5358 H 520.897 0.836226 -5.17791 0
M  V30 5359 H 522.371 2.52508 -4.9086 0
M  V30 5360 H 522.848 2.93908 -3.26366 0
M  V30 5361 H 523.454 1.43882 -4.00223 0
M  V30 5362 N 521.769 1.56035 0.221574 0
M  V30 5363 C 523.015 1.79312 0.947372 0
M  V30 5364 C 523.348 0.621453 1.83988 0
M  V30 5365 O 522.623 -0.379287 1.90766 0
M  V30 5366 C 522.906 3.1267 1.78633 0
M  V30 5367 C 522.759 4.40284 0.920312 0
M  V30 5368 C 524.078 3.4247 2.7641 0
M  V30 5369 H 521.197 0.652328 0.342982 0
M  V30 5370 H 523.839 1.88765 0.216244 0
M  V30 5371 H 521.989 3.04741 2.40967 0
M  V30 5372 H 523.661 4.60232 0.313718 0
M  V30 5373 H 521.904 4.33212 0.225734 0
M  V30 5374 H 522.575 5.30033 1.54171 0
M  V30 5375 H 525.051 3.50526 2.24211 0
M  V30 5376 H 523.927 4.3695 3.32213 0
M  V30 5377 H 524.188 2.64635 3.54148 0
M  V30 5378 N 523.247 -0.488276 1.49845 0
M  V30 5379 C 524.21 -1.57069 1.66919 0
M  V30 5380 C 525.21 -1.51445 0.540479 0
M  V30 5381 O 526.4 -1.5437 0.807188 0
M  V30 5382 C 523.532 -2.96718 1.67844 0
M  V30 5383 H 524.725 -1.43254 2.63474 0
M  V30 5384 H 522.278 -0.713435 1.39068 0
M  V30 5385 H 523.013 -3.15996 0.7292 0
M  V30 5386 H 522.798 -3.02208 2.49826 0
M  V30 5387 H 524.288 -3.75335 1.83066 0
M  V30 5388 N 524.725 -1.39134 -0.740242 0
M  V30 5389 C 525.971 -1.36273 -1.50192 0
M  V30 5390 C 526.304 0.0430136 -1.94152 0
M  V30 5391 O 525.579 1.00691 -1.66408 0
M  V30 5392 C 525.862 -2.33041 -2.74525 0
M  V30 5393 C 525.715 -3.82535 -2.36617 0
M  V30 5394 C 527.034 -2.27723 -3.76604 0
M  V30 5395 H 524.153 -0.496323 -0.544823 0
M  V30 5396 H 526.795 -1.70085 -0.846815 0
M  V30 5397 H 524.945 -2.04337 -3.30422 0
M  V30 5398 H 526.617 -4.21967 -1.86391 0
M  V30 5399 H 524.86 -3.99565 -1.68909 0
M  V30 5400 H 525.531 -4.45723 -3.2563 0
M  V30 5401 H 528.007 -2.53091 -3.30279 0
M  V30 5402 H 526.883 -2.97519 -4.61274 0
M  V30 5403 H 527.144 -1.28049 -4.2315 0
M  V30 5404 N 526.204 0.969867 -1.24223 0
M  V30 5405 C 527.167 2.04564 -1.03373 0
M  V30 5406 C 528.167 1.60798 0.00819206 0
M  V30 5407 O 529.357 1.72641 -0.232567 0
M  V30 5408 C 526.489 3.36163 -0.566343 0
M  V30 5409 H 527.682 2.24494 -1.98853 0
M  V30 5410 H 525.235 1.1448 -1.06415 0
M  V30 5411 H 525.97 3.21925 0.391751 0
M  V30 5412 H 525.755 3.69273 -1.31834 0
M  V30 5413 H 527.245 4.1526 -0.441435 0
M  V30 5414 N 527.682 1.05563 1.17022 0
M  V30 5415 C 528.928 0.769074 1.87652 0
M  V30 5416 C 529.261 -0.702326 1.81055 0
M  V30 5417 O 528.536 -1.5139 1.22112 0
M  V30 5418 C 528.819 1.25492 3.37526 0
M  V30 5419 C 528.672 2.78953 3.52853 0
M  V30 5420 C 529.991 0.856919 4.31677 0
M  V30 5421 H 527.11 0.280854 0.681388 0
M  V30 5422 H 529.752 1.31027 1.37593 0
M  V30 5423 H 527.902 0.794516 3.80289 0
M  V30 5424 H 529.574 3.33146 3.19079 0
M  V30 5425 H 527.817 3.18046 2.95007 0
M  V30 5426 H 528.488 3.08011 4.58076 0
M  V30 5427 H 530.964 1.25334 3.96775 0
M  V30 5428 H 529.84 1.22443 5.35069 0
M  V30 5429 H 530.101 -0.238787 4.41455 0
M  V30 5430 N 529.16 -1.33526 0.837174 0
M  V30 5431 C 530.107 -2.29248 0.267169 0
M  V30 5432 C 531.077 -1.54252 -0.616071 0
M  V30 5433 O 532.262 -1.82559 -0.554699 0
M  V30 5434 C 529.402 -3.40638 -0.553152 0
M  V30 5435 C 528.515 -4.30548 0.353921 0
M  V30 5436 C 527.65 -5.29051 -0.477339 0
M  V30 5437 C 526.689 -6.106 0.42823 0
M  V30 5438 N 525.826 -7.01152 -0.364801 0
M  V30 5439 H 530.666 -2.77398 1.08877 0
M  V30 5440 H 528.203 -1.36496 0.54838 0
M  V30 5441 H 530.161 -4.03921 -1.04422 0
M  V30 5442 H 528.791 -2.93685 -1.33973 0
M  V30 5443 H 527.843 -3.68001 0.963289 0
M  V30 5444 H 529.155 -4.87631 1.04964 0
M  V30 5445 H 528.309 -5.97853 -1.0323 0
M  V30 5446 H 527.048 -4.72541 -1.2065 0
M  V30 5447 H 526.053 -5.40718 0.995219 0
M  V30 5448 H 527.278 -6.69193 1.15573 0
M  V30 5449 H 525.224 -6.47092 -1.07738 0
M  V30 5450 H 525.141 -7.5551 0.272238 0
M  V30 5451 H 526.409 -7.74263 -0.902054 0
M  V30 5452 N 530.638 -0.59345 -1.46 0
M  V30 5453 C 531.601 0.123538 -2.28867 0
M  V30 5454 C 532.601 0.808628 -1.38989 0
M  V30 5455 O 533.791 0.658945 -1.61256 0
M  V30 5456 C 530.923 1.1847 -3.19653 0
M  V30 5457 H 532.116 -0.604843 -2.93737 0
M  V30 5458 H 529.669 -0.351875 -1.52288 0
M  V30 5459 H 530.404 1.94431 -2.59552 0
M  V30 5460 H 530.189 0.69783 -3.8584 0
M  V30 5461 H 531.679 1.68726 -3.81997 0
M  V30 5462 N 532.116 1.54067 -0.331816 0
M  V30 5463 C 533.079 2.23275 0.517768 0
M  V30 5464 C 534.079 1.22897 1.03697 0
M  V30 5465 O 535.269 1.47419 0.928084 0
M  V30 5466 C 532.401 2.94326 1.72004 0
M  V30 5467 H 533.594 2.99773 -0.0873507 0
M  V30 5468 H 531.147 1.56079 -0.0830042 0
M  V30 5469 H 531.882 2.21986 2.36417 0
M  V30 5470 H 531.667 3.67941 1.35507 0
M  V30 5471 H 533.157 3.47031 2.32291 0
M  V30 5472 N 533.594 0.0601682 1.57485 0
M  V30 5473 C 534.526 -0.94047 2.09016 0
M  V30 5474 C 535.539 -1.26897 1.01985 0
M  V30 5475 O 536.728 -1.22819 1.29529 0
M  V30 5476 C 533.828 -2.25955 2.52582 0
M  V30 5477 C 533.001 -2.11163 3.83052 0
M  V30 5478 C 532.06 -3.26273 4.12835 0
M  V30 5479 O 531.086 -3.01779 4.82616 0
M  V30 5480 N 532.288 -4.51022 3.65458 0
M  V30 5481 H 535.053 -0.500578 2.9549 0
M  V30 5482 H 532.614 -0.125852 1.6141 0
M  V30 5483 H 534.606 -3.01846 2.69575 0
M  V30 5484 H 533.176 -2.61481 1.71308 0
M  V30 5485 H 532.396 -1.19808 3.75552 0
M  V30 5486 H 533.684 -1.98517 4.68475 0
M  V30 5487 H 533.082 -4.73811 3.09062 0
M  V30 5488 H 531.639 -5.23978 3.87673 0
M  V30 5489 N 535.072 -1.5615 -0.213296 0
M  V30 5490 C 535.982 -1.96265 -1.28519 0
M  V30 5491 C 536.998 -0.86765 -1.50824 0
M  V30 5492 O 538.174 -1.17191 -1.63793 0
M  V30 5493 C 535.239 -2.27836 -2.61327 0
M  V30 5494 C 534.3 -3.50949 -2.47252 0
M  V30 5495 C 533.533 -3.81004 -3.73727 0
M  V30 5496 O 533.756 -3.12612 -4.77106 0
M  V30 5497 O 532.69 -4.74477 -3.70344 0
M  V30 5498 H 536.516 -2.87631 -0.974795 0
M  V30 5499 H 534.101 -1.43467 -0.416832 0
M  V30 5500 H 535.983 -2.49299 -3.39747 0
M  V30 5501 H 534.658 -1.39643 -2.9203 0
M  V30 5502 H 533.565 -3.34754 -1.67004 0
M  V30 5503 H 534.898 -4.39551 -2.21486 0
M  V30 5504 N 536.55 0.480323 -1.50102 0
M  V30 5505 C 537.48 1.58769 -1.71215 0
M  V30 5506 C 538.461 1.60583 -0.560997 0
M  V30 5507 O 539.646 1.76996 -0.799127 0
M  V30 5508 C 536.776 2.97148 -1.79778 0
M  V30 5509 C 535.73 3.10201 -2.94888 0
M  V30 5510 C 535.056 4.50137 -2.88584 0
M  V30 5511 C 536.356 2.88283 -4.35534 0
M  V30 5512 H 538.05 1.41354 -2.6393 0
M  V30 5513 H 535.596 0.678591 -1.27008 0
M  V30 5514 H 537.549 3.74536 -1.93133 0
M  V30 5515 H 536.273 3.15699 -0.836772 0
M  V30 5516 H 534.932 2.35244 -2.81169 0
M  V30 5517 H 534.58 4.65593 -1.90349 0
M  V30 5518 H 534.28 4.59808 -3.65856 0
M  V30 5519 H 535.804 5.29558 -3.03976 0
M  V30 5520 H 537.218 3.55427 -4.49827 0
M  V30 5521 H 535.615 3.09408 -5.14186 0
M  V30 5522 H 536.685 1.84219 -4.48544 0
M  V30 5523 N 538.028 1.39524 0.732853 0
M  V30 5524 C 538.96 1.34318 1.85718 0
M  V30 5525 C 539.973 0.251576 1.60844 0
M  V30 5526 O 541.162 0.510685 1.71039 0
M  V30 5527 C 538.262 1.06334 3.21786 0
M  V30 5528 C 537.435 2.26813 3.73998 0
M  V30 5529 C 536.494 1.95253 4.88634 0
M  V30 5530 O 535.52 2.67957 5.02183 0
M  V30 5531 N 536.722 0.919984 5.73164 0
M  V30 5532 H 539.487 2.3121 1.90688 0
M  V30 5533 H 537.048 1.33654 0.91368 0
M  V30 5534 H 539.04 0.832363 3.96048 0
M  V30 5535 H 537.61 0.181682 3.12072 0
M  V30 5536 H 536.83 2.65849 2.91064 0
M  V30 5537 H 538.118 3.0717 4.05616 0
M  V30 5538 H 537.516 0.317487 5.64808 0
M  V30 5539 H 536.073 0.748905 6.47483 0
M  V30 5540 N 539.506 -0.963266 1.24736 0
M  V30 5541 C 540.416 -2.09246 1.06082 0
M  V30 5542 C 541.432 -1.74 0.000363101 0
M  V30 5543 O 542.608 -2.0041 0.199479 0
M  V30 5544 C 539.673 -3.40115 0.672498 0
M  V30 5545 C 538.734 -3.89282 1.80993 0
M  V30 5546 C 537.967 -5.13905 1.44004 0
M  V30 5547 O 538.19 -5.69434 0.331835 0
M  V30 5548 O 537.124 -5.57566 2.26723 0
M  V30 5549 H 540.95 -2.27881 2.00759 0
M  V30 5550 H 538.535 -1.07649 1.03595 0
M  V30 5551 H 540.417 -4.18797 0.467668 0
M  V30 5552 H 539.092 -3.22771 -0.245102 0
M  V30 5553 H 537.999 -3.11642 2.06955 0
M  V30 5554 H 539.332 -4.1111 2.70646 0
M  V30 5555 N 540.985 -1.06182 -1.16461 0
M  V30 5556 C 542.233 -0.776326 -1.86595 0
M  V30 5557 C 542.554 0.69921 -1.82033 0
M  V30 5558 O 541.824 1.50579 -1.2531 0
M  V30 5559 H 540.404 -0.284184 -0.690832 0
M  V30 5560 H 543.066 -1.34308 -1.41235 0
M  V30 5561 H 542.162 -1.10022 -2.92064 0
M  V30 5562 N 542.463 1.3308 -0.844243 0
M  V30 5563 C 543.395 2.27954 -0.238671 0
M  V30 5564 C 544.408 1.51978 0.583665 0
M  V30 5565 O 545.597 1.73731 0.409857 0
M  V30 5566 C 542.697 3.31963 0.682185 0
M  V30 5567 C 541.87 4.37281 -0.101998 0
M  V30 5568 C 540.929 5.20928 0.743022 0
M  V30 5569 O 539.955 5.68914 0.180285 0
M  V30 5570 N 541.157 5.42738 2.0595 0
M  V30 5571 H 543.922 2.8056 -1.05386 0
M  V30 5572 H 541.483 1.4583 -0.70322 0
M  V30 5573 H 543.475 3.84828 1.25259 0
M  V30 5574 H 542.045 2.79594 1.39808 0
M  V30 5575 H 541.265 3.84843 -0.853802 0
M  V30 5576 H 542.553 5.04746 -0.641015 0
M  V30 5577 H 541.951 5.05463 2.54016 0
M  V30 5578 H 540.508 5.98639 2.57827 0
M  V30 5579 N 543.941 0.601185 1.45683 0
M  V30 5580 C 545.357 0.264315 1.57396 0
M  V30 5581 C 545.557 -1.23324 1.59353 0
M  V30 5582 O 544.613 -2.01594 1.52039 0
M  V30 5583 C 545.926 0.929839 2.85962 0
M  V30 5584 C 547.474 0.905156 2.99626 0
M  V30 5585 C 547.949 1.55057 4.30954 0
M  V30 5586 N 549.44 1.51576 4.37697 0
M  V30 5587 C 550.175 1.98436 5.37969 0
M  V30 5588 N 549.671 2.53352 6.44813 0
M  V30 5589 N 551.464 1.89242 5.29286 0
M  V30 5590 H 543.615 1.57363 1.42656 0
M  V30 5591 H 545.878 0.658831 0.681649 0
M  V30 5592 H 545.584 1.98404 2.90394 0
M  V30 5593 H 545.458 0.449224 3.74515 0
M  V30 5594 H 547.845 -0.14048 2.94765 0
M  V30 5595 H 547.926 1.42397 2.12501 0
M  V30 5596 H 547.57 2.5955 4.36573 0
M  V30 5597 H 547.5 1.00682 5.16886 0
M  V30 5598 H 549.991 1.11452 3.61091 0
M  V30 5599 H 550.304 2.86918 7.17564 0
M  V30 5600 H 548.649 2.57388 6.45582 0
M  V30 5601 H 551.84 1.46083 4.44722 0
M  V30 5602 H 552.013 2.26075 6.07284 0
M  V30 5603 N 545.419 -1.53889 0.339982 0
M  V30 5604 C 546.659 -2.02765 -0.258011 0
M  V30 5605 C 547.023 -1.22249 -1.48051 0
M  V30 5606 O 548.224 -1.61007 -2.15245 0
M  V30 5607 C 546.495 -3.5286 -0.567872 0
M  V30 5608 S 548.054 -4.23647 -1.14318 0
M  V30 5609 H 544.872 -0.706814 -0.0770389 0
M  V30 5610 H 547.474 -1.89594 0.476917 0
M  V30 5611 H 546.178 -4.09073 0.329745 0
M  V30 5612 H 545.709 -3.70144 -1.33256 0
M  V30 5613 H 547.724 -4.32676 -2.42911 0
M  V30 5614 N 546.897 -0.0685191 -1.57451 0
M  V30 5615 C 548.143 0.602239 -1.93652 0
M  V30 5616 C 548.476 1.6946 -0.948526 0
M  V30 5617 O 547.751 1.94487 0.022782 0
M  V30 5618 C 548.034 1.18223 -3.4014 0
M  V30 5619 C 547.887 0.0967431 -4.49696 0
M  V30 5620 C 549.206 2.08872 -3.87377 0
M  V30 5621 H 546.325 0.217453 -0.70419 0
M  V30 5622 H 548.967 -0.133821 -1.89528 0
M  V30 5623 H 547.117 1.80953 -3.43785 0
M  V30 5624 H 548.789 -0.536155 -4.58174 0
M  V30 5625 H 547.032 -0.573063 -4.29998 0
M  V30 5626 H 547.703 0.542894 -5.49324 0
M  V30 5627 H 550.179 1.56081 -3.85717 0
M  V30 5628 H 549.055 2.46389 -4.90493 0
M  V30 5629 H 549.316 2.99572 -3.25129 0
M  V30 5630 N 548.375 1.56261 0.205012 0
M  V30 5631 C 549.621 1.80306 0.9283 0
M  V30 5632 C 549.954 0.640932 1.83319 0
M  V30 5633 O 549.229 -0.359032 1.91158 0
M  V30 5634 C 549.512 3.14547 1.75306 0
M  V30 5635 C 549.365 4.41236 0.873562 0
M  V30 5636 C 550.684 3.45382 2.72762 0
M  V30 5637 H 547.803 0.655929 0.336044 0
M  V30 5638 H 550.445 1.88984 0.196211 0
M  V30 5639 H 548.595 3.0728 2.37721 0
M  V30 5640 H 550.267 4.60539 0.264887 0
M  V30 5641 H 548.51 4.33427 0.179773 0
M  V30 5642 H 549.181 5.31639 1.48541 0
M  V30 5643 H 551.657 3.52884 2.20481 0
M  V30 5644 H 550.533 4.40449 3.2756 0
M  V30 5645 H 550.794 2.68377 3.51321 0
M  V30 5646 N 549.853 -0.472356 1.50355 0
M  V30 5647 C 551.102 -1.2213 1.60522 0
M  V30 5648 C 551.415 -1.9312 0.310466 0
M  V30 5649 O 552.621 -2.69936 0.291029 0
M  V30 5650 C 551.077 -2.21909 2.83345 0
M  V30 5651 C 550.685 -1.56727 4.19691 0
M  V30 5652 C 552.429 -2.97453 3.02856 0
M  V30 5653 C 550.336 -2.54785 5.33703 0
M  V30 5654 H 549.266 -0.459543 0.597776 0
M  V30 5655 H 551.917 -0.491922 1.76783 0
M  V30 5656 H 550.299 -2.98133 2.60639 0
M  V30 5657 H 551.473 -0.863007 4.52646 0
M  V30 5658 H 549.788 -0.934685 4.05774 0
M  V30 5659 H 552.385 -3.70838 3.85205 0
M  V30 5660 H 552.728 -3.56764 2.14534 0
M  V30 5661 H 553.261 -2.28342 3.25737 0
M  V30 5662 H 550 -2.00214 6.24175 0
M  V30 5663 H 549.52 -3.23367 5.05167 0
M  V30 5664 H 551.199 -3.16639 5.64224 0
M  V30 5665 N 551.331 -1.39911 -0.725443 0
M  V30 5666 C 552.261 -1.42138 -1.85254 0
M  V30 5667 C 553.242 -0.283513 -1.67721 0
M  V30 5668 O 554.427 -0.490717 -1.87898 0
M  V30 5669 C 551.557 -1.27354 -3.23107 0
M  V30 5670 C 550.511 -2.3864 -3.55296 0
M  V30 5671 C 549.837 -2.08939 -4.92188 0
M  V30 5672 C 551.137 -3.8097 -3.57295 0
M  V30 5673 H 552.831 -2.36461 -1.83648 0
M  V30 5674 H 550.377 -1.13817 -0.882138 0
M  V30 5675 H 552.33 -1.2753 -4.01639 0
M  V30 5676 H 551.054 -0.295025 -3.25265 0
M  V30 5677 H 549.713 -2.37696 -2.79099 0
M  V30 5678 H 549.361 -1.09502 -4.90936 0
M  V30 5679 H 549.061 -2.83491 -5.14691 0
M  V30 5680 H 550.585 -2.10781 -5.73065 0
M  V30 5681 H 551.999 -3.8379 -4.25885 0
M  V30 5682 H 550.396 -4.5496 -3.9132 0
M  V30 5683 H 551.466 -4.11261 -2.5689 0
M  V30 5684 N 552.809 0.956637 -1.25245 0
M  V30 5685 C 554.22 1.51569 -1.09012 0
M  V30 5686 C 554.571 1.93322 0.334813 0
M  V30 5687 O 553.696 1.78421 1.22454 0
M  V30 5688 C 554.291 2.75444 -1.97271 0
M  V30 5689 C 552.85 3.27669 -1.8523 0
M  V30 5690 C 551.997 2.00517 -1.91542 0
M  V30 5691 H 554.948 0.773746 -1.3856 0
M  V30 5692 H 554.969 3.4919 -1.51151 0
M  V30 5693 H 554.481 2.45024 -3.00973 0
M  V30 5694 H 552.582 3.62914 -0.844045 0
M  V30 5695 H 552.695 3.9582 -2.69932 0
M  V30 5696 H 551.059 2.15727 -1.35404 0
M  V30 5697 H 551.842 1.72448 -2.96844 0
M  V30 5698 N 554.287 1.06798 1.15896 0
M  V30 5699 C 555.564 0.701057 1.82605 0
M  V30 5700 C 555.944 -0.817066 1.94646 0
M  V30 5701 O 555.292 -1.72933 1.49353 0
M  V30 5702 C 555.502 1.40895 3.19296 0
M  V30 5703 C 556.85 1.55744 3.95005 0
M  V30 5704 O 557.874 1.36927 3.28831 0
M  V30 5705 O 556.733 1.86658 5.13635 0
M  V30 5706 H 553.827 0.248791 0.78869 0
M  V30 5707 H 556.373 1.16857 1.23055 0
M  V30 5708 H 555.145 2.4439 3.05596 0
M  V30 5709 H 554.768 0.931847 3.86526 0
M  V30 5710 N 555.766 -1.3263 0.851289 0
M  V30 5711 C 556.991 -2.02097 0.466006 0
M  V30 5712 C 557.416 -1.63574 -0.928709 0
M  V30 5713 O 556.774 -0.834665 -1.60944 0
M  V30 5714 C 556.822 -3.55425 0.608737 0
M  V30 5715 O 555.926 -4.10827 -0.359878 0
M  V30 5716 H 555.267 -0.636911 0.187724 0
M  V30 5717 H 557.797 -1.69253 1.14955 0
M  V30 5718 H 557.807 -4.04986 0.495006 0
M  V30 5719 H 556.482 -3.82806 1.62581 0
M  V30 5720 H 555.059 -3.72349 -0.202666 0
M  V30 5721 N 557.244 -0.608902 -1.45362 0
M  V30 5722 C 558.49 -0.104762 -2.02529 0
M  V30 5723 C 558.823 1.26191 -1.47613 0
M  V30 5724 O 558.098 1.8327 -0.65134 0
M  V30 5725 C 558.381 -0.0672661 -3.60037 0
M  V30 5726 C 558.234 -1.4647 -4.25284 0
M  V30 5727 C 559.553 0.619877 -4.35713 0
M  V30 5728 H 556.672 -0.0395438 -0.735938 0
M  V30 5729 H 559.314 -0.781126 -1.73201 0
M  V30 5730 H 557.464 0.50871 -3.85155 0
M  V30 5731 H 559.136 -2.08785 -4.11347 0
M  V30 5732 H 557.379 -2.02502 -3.83634 0
M  V30 5733 H 558.05 -1.39069 -5.34195 0
M  V30 5734 H 560.526 0.130297 -4.15896 0
M  V30 5735 H 559.402 0.615224 -5.45441 0
M  V30 5736 H 559.663 1.68621 -4.0868 0
M  V30 5737 N 558.722 1.53707 -0.348139 0
M  V30 5738 C 560.138 1.596 0.00361134 0
M  V30 5739 C 560.338 1.36394 1.4832 0
M  V30 5740 O 559.394 1.16046 2.24253 0
M  V30 5741 C 560.707 2.97512 -0.436682 0
M  V30 5742 C 562.255 3.10568 -0.389416 0
M  V30 5743 C 562.73 4.50866 -0.805249 0
M  V30 5744 N 564.221 4.56929 -0.759616 0
M  V30 5745 C 564.956 5.63643 -1.05327 0
M  V30 5746 N 564.452 6.78189 -1.41531 0
M  V30 5747 N 566.245 5.5354 -0.977207 0
M  V30 5748 H 558.396 1.67044 -1.31187 0
M  V30 5749 H 560.659 0.782559 -0.535075 0
M  V30 5750 H 560.365 3.19575 -1.46849 0
M  V30 5751 H 560.239 3.76742 0.185744 0
M  V30 5752 H 562.626 2.88226 0.633228 0
M  V30 5753 H 562.707 2.33387 -1.04711 0
M  V30 5754 H 562.351 4.73943 -1.82593 0
M  V30 5755 H 562.281 5.26452 -0.124989 0
M  V30 5756 H 564.772 3.74675 -0.49265 0
M  V30 5757 H 565.085 7.55541 -1.62411 0
M  V30 5758 H 563.43 6.79624 -1.45381 0
M  V30 5759 H 566.621 4.62932 -0.693675 0
M  V30 5760 H 566.794 6.36614 -1.2094 0
M  V30 5761 N 560.2 0.0768682 1.57412 0
M  V30 5762 C 561.148 -0.906229 2.1422 0
M  V30 5763 C 562.142 -1.30477 1.08037 0
M  V30 5764 O 563.348 -1.28143 1.2641 0
M  V30 5765 H 559.723 -0.310207 0.685037 0
M  V30 5766 H 561.694 -0.402228 2.95677 0
M  V30 5767 C 560.443 -2.16245 2.72274 0
M  V30 5768 H 559.766 -1.86463 3.53655 0
M  V30 5769 H 561.206 -2.83134 3.15613 0
M  V30 5770 C 559.665 -2.92437 1.67279 0
M  V30 5771 O 560.195 -3.86322 1.10081 0
M  V30 5772 N 558.401 -2.55637 1.38195 0
M  V30 5773 H 557.948 -1.79363 1.84897 0
M  V30 5774 H 557.906 -3.06919 0.681787 0
M  V30 5775 N 561.678 -1.56367 -0.196722 0
M  V30 5776 C 562.908 -1.84371 -0.932254 0
M  V30 5777 C 563.316 -0.657013 -1.77426 0
M  V30 5778 O 562.659 0.383576 -1.79651 0
M  V30 5779 C 562.721 -3.06454 -1.87952 0
M  V30 5780 C 562.385 -4.40425 -1.21962 0
M  V30 5781 C 563.382 -5.16457 -0.597343 0
M  V30 5782 C 561.067 -4.8716 -1.22396 0
M  V30 5783 C 563.061 -6.37399 0.0117913 0
M  V30 5784 C 560.748 -6.08038 -0.610995 0
M  V30 5785 C 561.746 -6.83 0.00580487 0
M  V30 5786 O 561.434 -8.01589 0.609173 0
M  V30 5787 H 561.166 -0.616377 -0.277589 0
M  V30 5788 H 563.72 -2.04329 -0.209452 0
M  V30 5789 H 561.95 -2.82377 -2.64197 0
M  V30 5790 H 563.639 -3.21118 -2.48271 0
M  V30 5791 H 564.405 -4.81445 -0.586142 0
M  V30 5792 H 560.284 -4.2877 -1.69345 0
M  V30 5793 H 563.828 -6.9585 0.493836 0
M  V30 5794 H 559.725 -6.42519 -0.619693 0
M  V30 5795 H 560.493 -8.16935 0.505919 0
M  V30 5796 N 563.156 0.464375 -1.50603 0
M  V30 5797 C 564.089 1.58052 -1.64605 0
M  V30 5798 C 565.067 1.54914 -0.494016 0
M  V30 5799 O 566.251 1.74438 -0.714393 0
M  V30 5800 C 563.378 2.96634 -1.63481 0
M  V30 5801 C 562.424 3.17901 -2.84325 0
M  V30 5802 S 563.257 2.97083 -4.45536 0
M  V30 5803 C 564.413 4.37994 -4.47115 0
M  V30 5804 H 564.646 1.45937 -2.59017 0
M  V30 5805 H 562.179 0.652189 -1.39949 0
M  V30 5806 H 564.137 3.76527 -1.63517 0
M  V30 5807 H 562.798 3.06134 -0.702928 0
M  V30 5808 H 561.991 4.19158 -2.79862 0
M  V30 5809 H 561.593 2.45792 -2.81891 0
M  V30 5810 H 563.885 5.30743 -4.21091 0
M  V30 5811 H 564.828 4.47499 -5.48772 0
M  V30 5812 H 565.236 4.20386 -3.76743 0
M  V30 5813 N 564.634 1.40294 0.718013 0
M  V30 5814 C 565.862 1.4175 1.50714 0
M  V30 5815 C 566.277 0.0165366 1.88793 0
M  V30 5816 O 565.634 -0.958942 1.55276 0
M  V30 5817 C 565.685 2.30598 2.784 0
M  V30 5818 O 565.406 3.6524 2.41932 0
M  V30 5819 C 566.907 2.4062 3.72313 0
M  V30 5820 H 564.127 0.483565 0.465194 0
M  V30 5821 H 566.671 1.84316 0.885889 0
M  V30 5822 H 564.826 1.91401 3.36815 0
M  V30 5823 H 565.24 4.12402 3.24076 0
M  V30 5824 H 566.714 3.07001 4.58753 0
M  V30 5825 H 567.191 1.4305 4.15251 0
M  V30 5826 H 567.797 2.80359 3.19811 0
M  V30 5827 N 566.112 -0.949982 1.2575 0
M  V30 5828 C 567.059 -2.04738 1.06541 0
M  V30 5829 C 568.029 -1.66078 -0.0268818 0
M  V30 5830 O 569.214 -1.90348 0.131196 0
M  V30 5831 C 566.354 -3.38027 0.695127 0
M  V30 5832 C 565.467 -3.89776 1.86276 0
M  V30 5833 C 564.602 -5.11411 1.4364 0
M  V30 5834 C 563.641 -5.554 2.57287 0
M  V30 5835 N 562.778 -6.68244 2.15395 0
M  V30 5836 H 567.618 -2.20502 2.00457 0
M  V30 5837 H 565.155 -1.0805 0.998178 0
M  V30 5838 H 567.113 -4.14641 0.461375 0
M  V30 5839 H 565.743 -3.22135 -0.207046 0
M  V30 5840 H 564.795 -3.0964 2.20969 0
M  V30 5841 H 566.107 -4.18368 2.71606 0
M  V30 5842 H 565.261 -5.95457 1.16257 0
M  V30 5843 H 564 -4.84545 0.553879 0
M  V30 5844 H 563.005 -4.69916 2.85409 0
M  V30 5845 H 564.23 -5.84272 3.46125 0
M  V30 5846 H 562.176 -6.43078 1.29565 0
M  V30 5847 H 562.093 -6.96377 2.94272 0
M  V30 5848 H 563.361 -7.55687 1.91201 0
M  V30 5849 N 567.59 -1.07411 -1.15328 0
M  V30 5850 C 568.837 -0.797649 -1.86128 0
M  V30 5851 C 569.165 0.676298 -1.82364 0
M  V30 5852 O 568.42 1.51223 -1.24218 0
M  V30 5853 C 568.719 -1.25191 -3.34757 0
M  V30 5854 C 568.385 -2.73191 -3.58716 0
M  V30 5855 C 567.047 -3.13616 -3.64964 0
M  V30 5856 C 569.399 -3.68718 -3.6837 0
M  V30 5857 C 566.727 -4.48383 -3.78377 0
M  V30 5858 C 569.079 -5.03248 -3.83306 0
M  V30 5859 C 567.743 -5.43293 -3.878 0
M  V30 5860 H 567.013 -0.29188 -0.681092 0
M  V30 5861 H 569.66 -1.34524 -1.36292 0
M  V30 5862 H 567.965 -0.623712 -3.86804 0
M  V30 5863 H 569.662 -1.01489 -3.87945 0
M  V30 5864 H 566.252 -2.40898 -3.54494 0
M  V30 5865 H 570.436 -3.38614 -3.62842 0
M  V30 5866 H 565.692 -4.78877 -3.80114 0
M  V30 5867 H 569.866 -5.77142 -3.89718 0
M  V30 5868 H 567.493 -6.47721 -3.97946 0
M  V30 5869 N 569.068 1.32177 -0.85831 0
M  V30 5870 C 569.998 2.31282 -0.321041 0
M  V30 5871 C 570.979 1.59841 0.581786 0
M  V30 5872 O 572.164 1.87619 0.501262 0
M  V30 5873 C 569.294 3.4385 0.48832 0
M  V30 5874 C 568.248 4.26799 -0.320391 0
M  V30 5875 C 567.574 5.31164 0.613934 0
M  V30 5876 C 568.874 4.98829 -1.54813 0
M  V30 5877 H 570.568 2.76469 -1.14915 0
M  V30 5878 H 568.114 1.32916 -0.554028 0
M  V30 5879 H 570.067 4.12224 0.874626 0
M  V30 5880 H 568.791 2.97401 1.34983 0
M  V30 5881 H 567.45 3.60077 -0.688497 0
M  V30 5882 H 567.098 4.80967 1.47239 0
M  V30 5883 H 566.798 5.8755 0.0768097 0
M  V30 5884 H 568.322 6.024 0.997336 0
M  V30 5885 H 569.736 5.59864 -1.23392 0
M  V30 5886 H 568.133 5.64957 -2.02346 0
M  V30 5887 H 569.203 4.26483 -2.30739 0
M  V30 5888 N 570.547 0.616602 1.45037 0
M  V30 5889 C 571.772 0.120192 2.07051 0
M  V30 5890 C 572.197 -1.19008 1.45666 0
M  V30 5891 O 571.555 -1.7267 0.552692 0
M  V30 5892 C 571.603 0.00354901 3.606 0
M  V30 5893 O 570.707 -1.04431 3.98958 0
M  V30 5894 H 570.048 0.0781599 0.659384 0
M  V30 5895 H 572.578 0.849167 1.86146 0
M  V30 5896 H 572.588 -0.191754 4.07549 0
M  V30 5897 H 571.263 0.960239 4.04663 0
M  V30 5898 H 569.84 -0.824749 3.63665 0
M  V30 5899 N 572.025 -1.5352 0.356285 0
M  V30 5900 C 573.302 -1.93405 -0.292223 0
M  V30 5901 C 573.682 -1.28901 -1.67176 0
M  V30 5902 O 573.03 -0.444632 -2.24132 0
M  V30 5903 C 573.24 -3.47223 -0.35175 0
M  V30 5904 C 574.588 -4.20389 -0.596534 0
M  V30 5905 O 575.612 -3.53554 -0.433344 0
M  V30 5906 O 574.471 -5.3881 -0.913589 0
M  V30 5907 H 571.565 -0.808666 -0.173172 0
M  V30 5908 H 574.111 -1.64713 0.408391 0
M  V30 5909 H 572.883 -3.86423 0.615841 0
M  V30 5910 H 572.506 -3.8212 -1.09864 0
M  V30 5911 N 573.503 -0.0852151 -1.57369 0
M  V30 5912 C 574.919 0.271436 -1.57275 0
M  V30 5913 C 575.119 1.69109 -1.09565 0
M  V30 5914 O 574.175 2.40549 -0.767611 0
M  V30 5915 C 575.488 0.0688638 -3.00621 0
M  V30 5916 C 577.036 0.137373 -3.12698 0
M  V30 5917 C 577.511 -0.0370832 -4.57985 0
M  V30 5918 N 579.002 0.0180794 -4.63196 0
M  V30 5919 C 579.737 -0.0922953 -5.73326 0
M  V30 5920 N 579.233 -0.256948 -6.92323 0
M  V30 5921 N 581.026 -0.0342702 -5.6209 0
M  V30 5922 H 573.177 -1.01288 -1.86693 0
M  V30 5923 H 575.44 -0.396138 -0.861266 0
M  V30 5924 H 575.146 -0.911277 -3.39689 0
M  V30 5925 H 575.02 0.815442 -3.6828 0
M  V30 5926 H 577.407 1.10801 -2.73509 0
M  V30 5927 H 577.488 -0.640532 -2.47651 0
M  V30 5928 H 577.132 -1.00455 -4.97867 0
M  V30 5929 H 577.062 0.760392 -5.21081 0
M  V30 5930 H 579.553 0.143202 -3.77629 0
M  V30 5931 H 579.866 -0.332949 -7.72082 0
M  V30 5932 H 578.211 -0.292487 -6.94384 0
M  V30 5933 H 581.402 0.0931605 -4.68007 0
M  V30 5934 H 581.575 -0.12374 -6.47882 0
M  V30 5935 N 574.981 1.5647 0.188427 0
M  V30 5936 C 576.227 1.82181 0.904534 0
M  V30 5937 C 576.582 0.663258 1.80606 0
M  V30 5938 O 575.875 -0.341231 1.88537 0
M  V30 5939 C 576.069 3.11596 1.7505 0
M  V30 5940 C 575.898 4.39928 0.932372 0
M  V30 5941 C 574.668 5.01554 0.61417 0
M  V30 5942 C 576.866 5.13527 0.281936 0
M  V30 5943 N 574.848 6.13499 -0.221896 0
M  V30 5944 C 576.219 6.18603 -0.416037 0
M  V30 5945 C 578.274 4.97505 0.198345 0
M  V30 5946 C 576.977 7.09394 -1.18965 0
M  V30 5947 C 579.003 5.88725 -0.561887 0
M  V30 5948 C 578.365 6.93251 -1.24828 0
M  V30 5949 H 574.464 0.717858 0.310168 0
M  V30 5950 H 577.048 1.93932 0.172757 0
M  V30 5951 H 575.219 3.01068 2.45383 0
M  V30 5952 H 576.951 3.25369 2.4066 0
M  V30 5953 H 573.706 4.64174 0.940187 0
M  V30 5954 H 574.13 6.74065 -0.629735 0
M  V30 5955 H 578.772 4.16716 0.714665 0
M  V30 5956 H 576.49 7.8964 -1.71737 0
M  V30 5957 H 580.076 5.78401 -0.628009 0
M  V30 5958 H 578.956 7.62618 -1.82712 0
M  V30 5959 N 576.459 -0.456382 1.50847 0
M  V30 5960 C 577.392 -1.57177 1.65441 0
M  V30 5961 C 578.37 -1.54649 0.502224 0
M  V30 5962 O 579.554 -1.74057 0.723633 0
M  V30 5963 C 576.681 -2.95763 1.65052 0
M  V30 5964 C 575.727 -3.16389 2.86007 0
M  V30 5965 S 576.56 -2.94716 4.47105 0
M  V30 5966 C 577.716 -4.35617 4.49432 0
M  V30 5967 H 577.949 -1.44561 2.59787 0
M  V30 5968 H 575.482 -0.644758 1.40293 0
M  V30 5969 H 577.44 -3.75654 1.65512 0
M  V30 5970 H 576.101 -3.05756 0.719153 0
M  V30 5971 H 575.294 -4.17667 2.82081 0
M  V30 5972 H 574.896 -2.44293 2.8319 0
M  V30 5973 H 577.188 -5.28503 4.239 0
M  V30 5974 H 578.131 -4.44582 5.51137 0
M  V30 5975 H 578.539 -4.18382 3.78967 0
M  V30 5976 N 577.937 -1.40673 -0.710563 0
M  V30 5977 C 578.867 -1.44095 -1.83736 0
M  V30 5978 C 579.848 -0.301286 -1.67411 0
M  V30 5979 O 581.033 -0.510618 -1.87367 0
M  V30 5980 C 578.163 -1.30773 -3.21738 0
M  V30 5981 C 577.117 -2.42395 -3.52745 0
M  V30 5982 C 576.443 -2.14147 -4.89944 0
M  V30 5983 C 577.743 -3.84738 -3.53234 0
M  V30 5984 H 579.437 -2.38396 -1.81129 0
M  V30 5985 H 576.983 -1.14746 -0.870017 0
M  V30 5986 H 578.936 -1.31783 -4.00264 0
M  V30 5987 H 577.66 -0.329507 -3.24934 0
M  V30 5988 H 576.319 -2.40643 -2.76562 0
M  V30 5989 H 575.967 -1.14703 -4.89747 0
M  V30 5990 H 575.667 -2.88934 -5.11655 0
M  V30 5991 H 577.191 -2.16848 -5.70797 0
M  V30 5992 H 578.605 -3.88286 -4.2179 0
M  V30 5993 H 577.002 -4.59085 -3.86473 0
M  V30 5994 H 578.072 -4.13962 -2.52514 0
M  V30 5995 N 579.415 0.9433 -1.26252 0
M  V30 5996 C 580.347 2.04542 -1.03417 0
M  V30 5997 C 581.36 1.62799 0.0046911 0
M  V30 5998 O 582.549 1.76944 -0.235146 0
M  V30 5999 C 579.649 3.34511 -0.543671 0
M  V30 6000 C 578.822 4.05033 -1.65128 0
M  V30 6001 C 577.881 5.13273 -1.1592 0
M  V30 6002 O 576.907 5.38095 -1.85586 0
M  V30 6003 N 578.109 5.805 -0.00649279 0
M  V30 6004 H 580.874 2.24699 -1.98319 0
M  V30 6005 H 578.435 1.11264 -1.1761 0
M  V30 6006 H 580.427 4.04212 -0.198703 0
M  V30 6007 H 578.997 3.11042 0.311711 0
M  V30 6008 H 578.217 3.29275 -2.16729 0
M  V30 6009 H 579.505 4.48903 -2.39508 0
M  V30 6010 H 578.903 5.62767 0.575347 0
M  V30 6011 H 577.46 6.51201 0.279416 0
M  V30 6012 N 580.893 1.08022 1.14757 0
M  V30 6013 C 581.84 0.706657 2.19716 0
M  V30 6014 C 582.81 -0.30525 1.63271 0
M  V30 6015 O 583.995 -0.19015 1.8985 0
M  V30 6016 C 581.135 0.117914 3.44898 0
M  V30 6017 C 580.248 1.18212 4.15512 0
M  V30 6018 C 579.383 0.557659 5.28265 0
M  V30 6019 C 578.422 1.60418 5.90705 0
M  V30 6020 N 577.559 1.0018 6.94916 0
M  V30 6021 H 582.399 1.60603 2.51019 0
M  V30 6022 H 579.936 0.802664 1.23271 0
M  V30 6023 H 581.894 -0.241112 4.16503 0
M  V30 6024 H 580.524 -0.744788 3.1409 0
M  V30 6025 H 579.576 1.65863 3.42335 0
M  V30 6026 H 580.888 1.97533 4.5802 0
M  V30 6027 H 580.042 0.146654 6.06523 0
M  V30 6028 H 578.781 -0.267249 4.86967 0
M  V30 6029 H 577.786 2.02489 5.11154 0
M  V30 6030 H 579.011 2.43149 6.34078 0
M  V30 6031 H 576.957 0.197917 6.55701 0
M  V30 6032 H 576.874 1.73216 7.35889 0
M  V30 6033 H 578.142 0.616523 7.77058 0
M  V30 6034 N 582.371 -1.3172 0.865308 0
M  V30 6035 C 583.619 -1.96487 0.472995 0
M  V30 6036 C 583.94 -1.68761 -0.976975 0
M  V30 6037 O 583.21 -1.00051 -1.68424 0
M  V30 6038 H 581.79 -0.726947 0.171922 0
M  V30 6039 H 584.452 -1.60612 1.10407 0
M  V30 6040 H 583.548 -3.0574 0.62687 0
M  V30 6041 N 583.85 -0.624285 -1.44708 0
M  V30 6042 C 585.096 -0.126051 -2.02107 0
M  V30 6043 C 585.425 1.2496 -1.49048 0
M  V30 6044 O 584.68 1.84163 -0.662005 0
M  V30 6045 C 584.979 -0.0546353 -3.57358 0
M  V30 6046 C 584.644 -1.36815 -4.29642 0
M  V30 6047 C 583.307 -1.72792 -4.49106 0
M  V30 6048 C 585.659 -2.23549 -4.70824 0
M  V30 6049 C 582.986 -2.95222 -5.07012 0
M  V30 6050 C 585.339 -3.45243 -5.30085 0
M  V30 6051 C 584.003 -3.81452 -5.47769 0
M  V30 6052 H 583.273 -0.0461252 -0.739563 0
M  V30 6053 H 585.92 -0.809236 -1.73562 0
M  V30 6054 H 584.225 0.711891 -3.85278 0
M  V30 6055 H 585.922 0.347282 -3.99493 0
M  V30 6056 H 582.512 -1.07817 -4.14817 0
M  V30 6057 H 586.696 -1.9705 -4.55505 0
M  V30 6058 H 581.952 -3.23361 -5.18891 0
M  V30 6059 H 586.125 -4.12689 -5.60946 0
M  V30 6060 H 583.753 -4.76403 -5.92405 0
M  V30 6061 N 585.328 1.53329 -0.364422 0
M  V30 6062 C 586.258 2.28627 0.474543 0
M  V30 6063 C 587.239 1.31009 1.08492 0
M  V30 6064 O 588.424 1.59878 1.10239 0
M  V30 6065 C 585.554 3.07465 1.61501 0
M  V30 6066 C 584.508 4.1276 1.13194 0
M  V30 6067 C 583.834 4.79674 2.36255 0
M  V30 6068 C 585.134 5.21847 0.217507 0
M  V30 6069 H 586.828 2.99005 -0.153656 0
M  V30 6070 H 584.374 1.43803 -0.0753406 0
M  V30 6071 H 586.327 3.58889 2.20855 0
M  V30 6072 H 585.051 2.34775 2.27042 0
M  V30 6073 H 583.71 3.62281 0.56109 0
M  V30 6074 H 583.358 4.03557 3.00251 0
M  V30 6075 H 583.058 5.50827 2.04606 0
M  V30 6076 H 584.582 5.33892 2.96297 0
M  V30 6077 H 585.996 5.6878 0.718493 0
M  V30 6078 H 584.393 6.00099 -0.00806408 0
M  V30 6079 H 585.463 4.7921 -0.740653 0
M  V30 6080 N 586.806 0.0935595 1.57322 0
M  V30 6081 C 587.753 -0.865935 2.1394 0
M  V30 6082 C 588.723 -1.28083 1.05754 0
M  V30 6083 O 589.908 -1.36285 1.33533 0
M  V30 6084 C 587.048 -2.12023 2.72287 0
M  V30 6085 C 586.161 -1.756 3.94701 0
M  V30 6086 C 585.296 -2.95804 4.41218 0
M  V30 6087 C 584.335 -2.555 5.56225 0
M  V30 6088 N 583.472 -3.68534 5.97601 0
M  V30 6089 H 588.312 -0.376261 2.95615 0
M  V30 6090 H 585.849 -0.174052 1.46067 0
M  V30 6091 H 587.807 -2.85477 3.04235 0
M  V30 6092 H 586.437 -2.58492 1.93343 0
M  V30 6093 H 585.489 -0.921208 3.69077 0
M  V30 6094 H 586.801 -1.41964 4.78171 0
M  V30 6095 H 585.955 -3.77513 4.74941 0
M  V30 6096 H 584.694 -3.32649 3.56645 0
M  V30 6097 H 583.699 -1.72218 5.22131 0
M  V30 6098 H 584.924 -2.19801 6.42545 0
M  V30 6099 H 582.87 -4.051 5.15974 0
M  V30 6100 H 582.787 -3.38737 6.75865 0
M  V30 6101 H 584.055 -4.50757 6.35955 0
M  V30 6102 N 588.284 -1.56567 -0.180126 0
M  V30 6103 C 589.194 -1.98947 -1.24327 0
M  V30 6104 C 590.21 -0.899446 -1.4895 0
M  V30 6105 O 591.386 -1.20639 -1.61271 0
M  V30 6106 C 588.451 -2.33328 -2.56435 0
M  V30 6107 C 587.512 -3.56114 -2.39752 0
M  V30 6108 C 586.745 -3.88845 -3.65561 0
M  V30 6109 O 586.968 -3.22662 -4.70368 0
M  V30 6110 O 585.902 -4.82226 -3.60197 0
M  V30 6111 H 589.728 -2.89634 -0.913565 0
M  V30 6112 H 587.313 -1.44319 -0.386306 0
M  V30 6113 H 589.195 -2.5645 -3.34382 0
M  V30 6114 H 587.87 -1.45806 -2.89002 0
M  V30 6115 H 586.777 -3.38221 -1.59866 0
M  V30 6116 H 588.11 -4.4415 -2.12113 0
M  V30 6117 N 589.762 0.448376 -1.51087 0
M  V30 6118 C 590.672 1.56882 -1.74428 0
M  V30 6119 C 591.688 1.62268 -0.62809 0
M  V30 6120 O 592.864 1.79716 -0.909075 0
M  V30 6121 C 589.929 2.92947 -1.85426 0
M  V30 6122 C 588.99 2.97766 -3.09247 0
M  V30 6123 C 588.223 4.27341 -3.19711 0
M  V30 6124 O 588.446 5.19112 -2.36387 0
M  V30 6125 O 587.38 4.38219 -4.12611 0
M  V30 6126 H 591.206 1.40104 -2.69452 0
M  V30 6127 H 588.791 0.630247 -1.35456 0
M  V30 6128 H 590.673 3.73719 -1.94709 0
M  V30 6129 H 589.348 3.09876 -0.935887 0
M  V30 6130 H 588.255 2.15989 -3.0545 0
M  V30 6131 H 589.588 2.8578 -4.00738 0
M  V30 6132 N 591.24 1.41047 0.703093 0
M  V30 6133 C 592.517 1.30493 1.45708 0
M  V30 6134 C 592.897 -0.0709892 2.10981 0
M  V30 6135 O 592.245 -1.08471 2.01113 0
M  V30 6136 C 592.455 2.45287 2.48265 0
M  V30 6137 C 593.803 2.86104 3.13735 0
M  V30 6138 O 594.827 2.44971 2.58587 0
M  V30 6139 O 593.686 3.57206 4.13601 0
M  V30 6140 H 590.78 0.513144 0.648546 0
M  V30 6141 H 593.326 1.52995 0.734208 0
M  V30 6142 H 592.098 3.37135 1.98635 0
M  V30 6143 H 591.721 2.24622 3.28071 0
M  V30 6144 N 592.718 -0.936591 1.26751 0
M  V30 6145 C 593.648 -2.05315 1.11212 0
M  V30 6146 C 594.629 -1.70092 0.0160262 0
M  V30 6147 O 595.814 -1.93279 0.188894 0
M  V30 6148 C 592.944 -3.39123 0.749171 0
M  V30 6149 C 591.898 -3.88425 1.79751 0
M  V30 6150 C 591.224 -5.18936 1.28876 0
M  V30 6151 C 592.524 -4.12798 3.19992 0
M  V30 6152 H 594.218 -2.18573 2.04613 0
M  V30 6153 H 591.764 -1.05027 0.985159 0
M  V30 6154 H 593.717 -4.16704 0.627323 0
M  V30 6155 H 592.441 -3.25855 -0.220543 0
M  V30 6156 H 591.1 -3.13028 1.90811 0
M  V30 6157 H 590.748 -5.02051 0.308757 0
M  V30 6158 H 590.448 -5.52892 1.98958 0
M  V30 6159 H 591.972 -5.99096 1.17967 0
M  V30 6160 H 593.386 -4.80977 3.11983 0
M  V30 6161 H 591.783 -4.58044 3.87705 0
M  V30 6162 H 592.853 -3.18412 3.65707 0
M  V30 6163 N 594.196 -1.08629 -1.14182 0
M  V30 6164 C 595.424 -0.838889 -1.8913 0
M  V30 6165 C 595.839 0.609153 -1.78703 0
M  V30 6166 O 595.196 1.41876 -1.14794 0
M  V30 6167 C 595.247 -1.25477 -3.39025 0
M  V30 6168 O 594.968 -2.64601 -3.49167 0
M  V30 6169 C 596.469 -1.03856 -4.30963 0
M  V30 6170 H 593.689 -0.302377 -0.599007 0
M  V30 6171 H 596.233 -1.44615 -1.44592 0
M  V30 6172 H 594.388 -0.691571 -3.81177 0
M  V30 6173 H 594.802 -2.81922 -4.42289 0
M  V30 6174 H 596.276 -1.37892 -5.345 0
M  V30 6175 H 596.753 0.0242522 -4.39193 0
M  V30 6176 H 597.359 -1.58731 -3.94569 0
M  V30 6177 N 595.674 1.31259 -0.872281 0
M  V30 6178 C 596.584 2.32221 -0.333255 0
M  V30 6179 C 597.6 1.6481 0.558013 0
M  V30 6180 O 598.776 1.96212 0.454175 0
M  V30 6181 C 595.841 3.43708 0.454479 0
M  V30 6182 C 594.902 4.26774 -0.465024 0
M  V30 6183 C 594.135 5.32937 0.28521 0
M  V30 6184 O 594.358 5.49968 1.513 0
M  V30 6185 O 593.292 6.00834 -0.358126 0
M  V30 6186 H 597.118 2.80252 -1.17016 0
M  V30 6187 H 594.703 1.352 -0.635724 0
M  V30 6188 H 596.585 4.11656 0.900963 0
M  V30 6189 H 595.26 2.97836 1.26789 0
M  V30 6190 H 594.167 3.61571 -0.960055 0
M  V30 6191 H 595.5 4.76217 -1.2441 0
M  V30 6192 N 597.152 0.631951 1.44375 0
M  V30 6193 C 598.099 -0.0724807 2.30686 0
M  V30 6194 C 599.069 -0.835975 1.43529 0
M  V30 6195 O 600.254 -0.816849 1.7243 0
M  V30 6196 C 597.394 -1.04753 3.28817 0
M  V30 6197 C 596.507 -0.282367 4.31076 0
M  V30 6198 C 595.642 -1.2493 5.163 0
M  V30 6199 C 594.681 -0.473349 6.10267 0
M  V30 6200 N 593.818 -1.39079 6.88187 0
M  V30 6201 H 598.658 0.669477 2.90383 0
M  V30 6202 H 596.195 0.341927 1.43071 0
M  V30 6203 H 598.153 -1.62623 3.842 0
M  V30 6204 H 596.783 -1.75661 2.70819 0
M  V30 6205 H 595.835 0.412268 3.78159 0
M  V30 6206 H 597.147 0.321955 4.9776 0
M  V30 6207 H 596.301 -1.89931 5.76204 0
M  V30 6208 H 595.04 -1.88755 4.49692 0
M  V30 6209 H 594.045 0.190142 5.49471 0
M  V30 6210 H 595.27 0.16019 6.78911 0
M  V30 6211 H 593.216 -2.01623 6.24247 0
M  V30 6212 H 593.133 -0.840513 7.51313 0
M  V30 6213 H 594.401 -2.02961 7.52613 0
M  V30 6214 N 598.631 -1.53133 0.372548 0
M  V30 6215 C 599.578 -2.25951 -0.470631 0
M  V30 6216 C 600.548 -1.26895 -1.07176 0
M  V30 6217 O 601.733 -1.55691 -1.10294 0
M  V30 6218 C 598.873 -3.05726 -1.6008 0
M  V30 6219 C 597.986 -4.19684 -1.02416 0
M  V30 6220 C 597.121 -4.86888 -2.124 0
M  V30 6221 C 596.16 -5.92866 -1.52238 0
M  V30 6222 N 595.297 -6.53732 -2.56084 0
M  V30 6223 H 600.137 -2.97587 0.156816 0
M  V30 6224 H 597.674 -1.4683 0.0891571 0
M  V30 6225 H 599.632 -3.50258 -2.26661 0
M  V30 6226 H 598.262 -2.36331 -2.1988 0
M  V30 6227 H 597.314 -3.79588 -0.248426 0
M  V30 6228 H 598.626 -4.95821 -0.544366 0
M  V30 6229 H 597.78 -5.34638 -2.86787 0
M  V30 6230 H 596.519 -4.10239 -2.63734 0
M  V30 6231 H 595.524 -5.4447 -0.763685 0
M  V30 6232 H 596.749 -6.71439 -1.0172 0
M  V30 6233 H 594.695 -5.79932 -3.06618 0
M  V30 6234 H 594.612 -7.25429 -2.12811 0
M  V30 6235 H 595.88 -7.0613 -3.30152 0
M  V30 6236 N 600.109 -0.101901 -1.5727 0
M  V30 6237 C 601.52 0.426173 -1.81771 0
M  V30 6238 C 601.871 1.67725 -1.01797 0
M  V30 6239 O 600.996 2.14958 -0.249386 0
M  V30 6240 C 601.591 0.779962 -3.297 0
M  V30 6241 C 600.15 1.25275 -3.54941 0
M  V30 6242 C 599.297 0.252814 -2.76145 0
M  V30 6243 H 602.248 -0.32726 -1.55289 0
M  V30 6244 H 602.269 1.63891 -3.43395 0
M  V30 6245 H 601.781 -0.130778 -3.8788 0
M  V30 6246 H 599.882 2.18097 -3.021 0
M  V30 6247 H 599.995 1.20988 -4.63572 0
M  V30 6248 H 598.359 0.736362 -2.43823 0
M  V30 6249 H 599.142 -0.650724 -3.37076 0
M  V30 6250 N 601.587 1.56661 0.17182 0
M  V30 6251 C 602.833 1.8313 0.88516 0
M  V30 6252 C 603.188 0.682376 1.79893 0
M  V30 6253 O 602.481 -0.321215 1.88888 0
M  V30 6254 C 602.675 3.13435 1.71736 0
M  V30 6255 C 602.504 4.40892 0.885659 0
M  V30 6256 C 601.274 5.02177 0.560939 0
M  V30 6257 C 603.472 5.13797 0.227454 0
M  V30 6258 N 601.454 6.13229 -0.286953 0
M  V30 6259 C 602.825 6.18127 -0.481625 0
M  V30 6260 C 604.88 4.97687 0.145567 0
M  V30 6261 C 603.583 7.08092 -1.26482 0
M  V30 6262 C 605.609 5.88096 -0.624298 0
M  V30 6263 C 604.971 6.91888 -1.32174 0
M  V30 6264 H 601.07 0.721107 0.302536 0
M  V30 6265 H 603.654 1.94104 0.152178 0
M  V30 6266 H 601.825 3.03653 2.42176 0
M  V30 6267 H 603.557 3.27903 2.37196 0
M  V30 6268 H 600.312 4.65145 0.890902 0
M  V30 6269 H 600.736 6.73359 -0.701193 0
M  V30 6270 H 605.378 4.17451 0.670426 0
M  V30 6271 H 603.096 7.87774 -1.80103 0
M  V30 6272 H 606.682 5.77702 -0.689321 0
M  V30 6273 H 605.562 7.60637 -1.90791 0
M  V30 6274 N 603.065 -0.440357 1.51323 0
M  V30 6275 C 604.311 -1.18874 1.65047 0
M  V30 6276 C 604.666 -1.88988 0.360742 0
M  V30 6277 O 603.959 -1.80479 -0.643272 0
M  V30 6278 C 604.153 -2.2339 2.78984 0
M  V30 6279 C 603.982 -1.63534 4.18911 0
M  V30 6280 C 602.752 -1.42158 4.84891 0
M  V30 6281 C 604.95 -1.11324 5.02107 0
M  V30 6282 N 602.932 -0.778679 6.08942 0
M  V30 6283 C 604.303 -0.595421 6.17134 0
M  V30 6284 C 606.358 -1.00471 4.87658 0
M  V30 6285 C 605.061 0.0202557 7.19297 0
M  V30 6286 C 607.087 -0.402928 5.90026 0
M  V30 6287 C 606.449 0.10436 7.04323 0
M  V30 6288 H 602.548 -0.422771 0.657866 0
M  V30 6289 H 605.132 -0.485814 1.88542 0
M  V30 6290 H 603.303 -2.91074 2.57158 0
M  V30 6291 H 605.035 -2.90366 2.81904 0
M  V30 6292 H 601.79 -1.68247 4.42707 0
M  V30 6293 H 602.214 -0.474755 6.75333 0
M  V30 6294 H 606.856 -1.38278 3.99548 0
M  V30 6295 H 604.574 0.410468 8.07057 0
M  V30 6296 H 608.16 -0.320897 5.80914 0
M  V30 6297 H 607.04 0.562697 7.82179 0
M  V30 6298 N 604.543 -1.41418 -0.695603 0
M  V30 6299 C 605.789 -1.41983 -1.45645 0
M  V30 6300 C 606.144 -0.0282216 -1.92379 0
M  V30 6301 O 605.437 0.945916 -1.66622 0
M  V30 6302 C 605.631 -2.36112 -2.68302 0
M  V30 6303 C 605.46 -3.84288 -2.33566 0
M  V30 6304 C 604.23 -4.52971 -2.23932 0
M  V30 6305 C 606.428 -4.75264 -1.96543 0
M  V30 6306 N 604.41 -5.86276 -1.82081 0
M  V30 6307 C 605.781 -5.97517 -1.6545 0
M  V30 6308 C 607.836 -4.62911 -1.83352 0
M  V30 6309 C 606.539 -7.08793 -1.22492 0
M  V30 6310 C 608.565 -5.74149 -1.41799 0
M  V30 6311 C 607.927 -6.95501 -1.11617 0
M  V30 6312 H 604.026 -0.574771 -0.530247 0
M  V30 6313 H 606.61 -1.77289 -0.804788 0
M  V30 6314 H 604.781 -2.02902 -3.31188 0
M  V30 6315 H 606.513 -2.27397 -3.34773 0
M  V30 6316 H 603.268 -4.06909 -2.42327 0
M  V30 6317 H 603.692 -6.56926 -1.63638 0
M  V30 6318 H 608.334 -3.69588 -2.05341 0
M  V30 6319 H 606.052 -8.01982 -0.992482 0
M  V30 6320 H 609.638 -5.66595 -1.32143 0
M  V30 6321 H 608.518 -7.80114 -0.799493 0
M  V30 6322 N 606.021 0.929856 -1.27246 0
M  V30 6323 C 606.971 2.01629 -1.06442 0
M  V30 6324 C 607.955 1.60899 0.00687842 0
M  V30 6325 O 609.147 1.75733 -0.211407 0
M  V30 6326 C 606.276 3.35849 -0.711361 0
M  V30 6327 C 605.362 3.8303 -1.82069 0
M  V30 6328 N 605.753 4.02743 -3.05993 0
M  V30 6329 C 604.051 4.12046 -1.70687 0
M  V30 6330 C 604.752 4.42001 -3.78167 0
M  V30 6331 N 603.728 4.4935 -3.05918 0
M  V30 6332 H 607.53 2.14898 -2.00489 0
M  V30 6333 H 605.044 1.11654 -1.17929 0
M  V30 6334 H 607.041 4.13343 -0.543442 0
M  V30 6335 H 605.701 3.23944 0.221517 0
M  V30 6336 H 606.712 3.89112 -3.41778 0
M  V30 6337 H 603.389 4.08866 -0.844681 0
M  V30 6338 H 604.779 4.6535 -4.84664 0
M  V30 6339 N 607.499 1.09233 1.13605 0
M  V30 6340 C 608.429 0.751738 2.21068 0
M  V30 6341 C 609.41 -0.269688 1.67948 0
M  V30 6342 O 610.595 -0.13819 1.93708 0
M  V30 6343 C 607.725 0.16935 3.46887 0
M  V30 6344 C 606.679 1.12007 4.13084 0
M  V30 6345 C 606.005 0.399483 5.33206 0
M  V30 6346 C 607.305 2.46168 4.6065 0
M  V30 6347 H 608.999 1.65024 2.49815 0
M  V30 6348 H 606.545 0.794905 1.20072 0
M  V30 6349 H 608.498 -0.0809824 4.21322 0
M  V30 6350 H 607.222 -0.764335 3.1753 0
M  V30 6351 H 605.881 1.35564 3.40614 0
M  V30 6352 H 605.529 -0.538277 5.00112 0
M  V30 6353 H 605.229 1.03337 5.78442 0
M  V30 6354 H 606.753 0.157403 6.10397 0
M  V30 6355 H 608.167 2.26829 5.26518 0
M  V30 6356 H 606.564 3.05326 5.1662 0
M  V30 6357 H 607.634 3.07076 3.75276 0
M  V30 6358 N 608.977 -1.30795 0.87923 0
M  V30 6359 C 610.393 -1.48981 0.57243 0
M  V30 6360 C 610.593 -1.80719 -0.891236 0
M  V30 6361 O 609.649 -1.89136 -1.67283 0
M  V30 6362 C 610.962 -2.61721 1.48063 0
M  V30 6363 C 612.51 -2.75603 1.48365 0
M  V30 6364 C 612.985 -3.91449 2.37763 0
M  V30 6365 N 614.476 -3.98751 2.35695 0
M  V30 6366 C 615.211 -4.87684 3.01583 0
M  V30 6367 N 614.707 -5.81454 3.76674 0
M  V30 6368 N 616.5 -4.81005 2.90844 0
M  V30 6369 H 608.651 -1.08465 1.82617 0
M  V30 6370 H 610.914 -0.536813 0.781368 0
M  V30 6371 H 610.62 -2.45073 2.52254 0
M  V30 6372 H 610.494 -3.58071 1.18596 0
M  V30 6373 H 612.881 -2.9166 0.44927 0
M  V30 6374 H 612.962 -1.79891 1.81859 0
M  V30 6375 H 612.606 -3.76149 3.41283 0
M  V30 6376 H 612.536 -4.86487 2.01589 0
M  V30 6377 H 615.027 -3.31668 1.81121 0
M  V30 6378 H 615.34 -6.46063 4.24054 0
M  V30 6379 H 613.685 -5.81403 3.80782 0
M  V30 6380 H 616.876 -4.06728 2.31711 0
M  V30 6381 H 617.049 -5.50107 3.42471 0
M  V30 6382 N 610.455 -0.639598 -1.44038 0
M  V30 6383 C 611.701 -0.147698 -2.02261 0
M  V30 6384 C 612.034 1.23031 -1.50256 0
M  V30 6385 O 611.309 1.81847 -0.690068 0
M  V30 6386 C 611.592 -0.14362 -3.59813 0
M  V30 6387 C 611.445 -1.55458 -4.22082 0
M  V30 6388 C 612.764 0.527317 -4.36929 0
M  V30 6389 H 609.883 -0.0551453 -0.734934 0
M  V30 6390 H 612.525 -0.817688 -1.71505 0
M  V30 6391 H 610.675 0.426898 -3.86147 0
M  V30 6392 H 612.347 -2.17464 -4.06826 0
M  V30 6393 H 610.59 -2.10594 -3.79253 0
M  V30 6394 H 611.261 -1.50369 -5.31124 0
M  V30 6395 H 613.737 0.0420504 -4.16079 0
M  V30 6396 H 612.613 0.499389 -5.46624 0
M  V30 6397 H 612.874 1.59914 -4.12165 0
M  V30 6398 N 611.933 1.52934 -0.380664 0
M  V30 6399 C 612.865 2.23822 0.493581 0
M  V30 6400 C 613.878 1.25761 1.03383 0
M  V30 6401 O 615.067 1.5189 0.937633 0
M  V30 6402 C 612.167 2.9342 1.69582 0
M  V30 6403 C 611.34 4.18115 1.28445 0
M  V30 6404 C 610.399 4.70788 2.35042 0
M  V30 6405 O 609.425 5.34093 1.96807 0
M  V30 6406 N 610.627 4.49899 3.66839 0
M  V30 6407 H 613.392 2.99484 -0.11371 0
M  V30 6408 H 610.953 1.60577 -0.206587 0
M  V30 6409 H 612.945 3.2556 2.40401 0
M  V30 6410 H 611.515 2.21119 2.20965 0
M  V30 6411 H 610.735 3.92109 0.405503 0
M  V30 6412 H 612.023 4.99152 0.986132 0
M  V30 6413 H 611.421 3.99349 4.0067 0
M  V30 6414 H 609.978 4.86551 4.33718 0
M  V30 6415 N 613.412 0.11024 1.57214 0
M  V30 6416 C 614.322 -0.857077 2.18383 0
M  V30 6417 C 615.338 -1.29915 1.1575 0
M  V30 6418 O 616.514 -1.36394 1.48184 0
M  V30 6419 C 613.579 -2.09264 2.76423 0
M  V30 6420 C 612.64 -1.70333 3.94063 0
M  V30 6421 C 611.873 -2.87999 4.49324 0
M  V30 6422 O 612.096 -4.0317 4.03497 0
M  V30 6423 O 611.03 -2.6559 5.40135 0
M  V30 6424 H 614.856 -0.366561 3.0148 0
M  V30 6425 H 612.441 -0.114914 1.48957 0
M  V30 6426 H 614.323 -2.81644 3.13456 0
M  V30 6427 H 612.998 -2.57339 1.96363 0
M  V30 6428 H 611.905 -0.950864 3.61814 0
M  V30 6429 H 613.238 -1.27007 4.75531 0
M  V30 6430 N 614.89 -1.56749 -0.16351 0
M  V30 6431 C 615.82 -2.00042 -1.20438 0
M  V30 6432 C 616.801 -0.877256 -1.45733 0
M  V30 6433 O 617.986 -1.1439 -1.56935 0
M  V30 6434 C 615.116 -2.36697 -2.54149 0
M  V30 6435 C 614.07 -3.52046 -2.43408 0
M  V30 6436 C 613.396 -3.74466 -3.81679 0
M  V30 6437 C 614.696 -4.85247 -1.93216 0
M  V30 6438 H 616.39 -2.87244 -0.844477 0
M  V30 6439 H 613.936 -1.38194 -0.40478 0
M  V30 6440 H 615.889 -2.65582 -3.27176 0
M  V30 6441 H 614.613 -1.46414 -2.91943 0
M  V30 6442 H 613.272 -3.23301 -1.72834 0
M  V30 6443 H 612.92 -2.81461 -4.1688 0
M  V30 6444 H 612.62 -4.52084 -3.75359 0
M  V30 6445 H 614.144 -4.0576 -4.5628 0
M  V30 6446 H 615.558 -5.12957 -2.56023 0
M  V30 6447 H 613.955 -5.66556 -1.97825 0
M  V30 6448 H 615.025 -4.7672 -0.88689 0
M  V30 6449 N 616.368 0.432326 -1.51554 0
M  V30 6450 C 617.616 1.17901 -1.64146 0
M  V30 6451 C 617.937 1.91604 -0.362367 0
M  V30 6452 O 617.207 1.85764 0.621968 0
M  V30 6453 H 615.787 0.438206 -0.604966 0
M  V30 6454 H 618.449 0.495172 -1.88505 0
M  V30 6455 H 617.545 1.90584 -2.47152 0
M  V30 6456 N 617.846 1.41785 0.688094 0
M  V30 6457 C 618.776 1.47 1.8142 0
M  V30 6458 C 619.757 0.327881 1.6691 0
M  V30 6459 O 620.942 0.540362 1.86531 0
M  V30 6460 C 618.072 1.35876 3.19617 0
M  V30 6461 C 617.026 2.47976 3.48844 0
M  V30 6462 C 616.352 2.21915 4.86475 0
M  V30 6463 C 617.652 3.90309 3.47068 0
M  V30 6464 H 619.346 2.41247 1.77314 0
M  V30 6465 H 616.892 1.16116 0.851651 0
M  V30 6466 H 618.845 1.38134 3.98117 0
M  V30 6467 H 617.569 0.38116 3.24368 0
M  V30 6468 H 616.228 2.45013 2.72698 0
M  V30 6469 H 615.876 1.2248 4.8786 0
M  V30 6470 H 615.576 2.97037 5.06994 0
M  V30 6471 H 617.1 2.25901 5.67275 0
M  V30 6472 H 618.514 3.94947 4.1556 0
M  V30 6473 H 616.911 4.65175 3.7912 0
M  V30 6474 H 617.981 4.17927 2.45896 0
M  V30 6475 N 619.324 -0.923095 1.27737 0
M  V30 6476 C 620.549 -1.71054 1.17283 0
M  V30 6477 C 620.974 -1.86208 -0.266153 0
M  V30 6478 O 620.332 -1.36545 -1.1927 0
M  V30 6479 C 620.38 -3.0854 1.86642 0
M  V30 6480 O 619.484 -3.95528 1.16752 0
M  V30 6481 H 618.825 -0.524136 0.407649 0
M  V30 6482 H 621.355 -1.15487 1.6889 0
M  V30 6483 H 621.365 -3.58828 1.94182 0
M  V30 6484 H 620.04 -2.96828 2.91317 0
M  V30 6485 H 618.617 -3.53967 1.17312 0
M  V30 6486 N 620.802 -1.09834 -1.13024 0
M  V30 6487 C 621.765 -0.745058 -2.16752 0
M  V30 6488 C 622.765 0.227435 -1.59183 0
M  V30 6489 O 623.955 0.0050786 -1.74199 0
M  V30 6490 C 621.087 -0.102543 -3.40746 0
M  V30 6491 H 622.28 -1.66375 -2.49518 0
M  V30 6492 H 619.833 -0.898061 -1.27924 0
M  V30 6493 H 620.568 0.827177 -3.13573 0
M  V30 6494 H 620.353 -0.80235 -3.83803 0
M  V30 6495 H 621.843 0.129082 -4.174 0
M  V30 6496 N 622.28 1.30327 -0.886154 0
M  V30 6497 C 623.691 1.78243 -0.555554 0
M  V30 6498 C 624.042 1.72849 0.928314 0
M  V30 6499 O 623.167 1.30607 1.72542 0
M  V30 6500 C 623.762 3.23654 -1.00168 0
M  V30 6501 C 622.321 3.69401 -0.722471 0
M  V30 6502 C 621.468 2.50753 -1.18399 0
M  V30 6503 H 624.419 1.1718 -1.07026 0
M  V30 6504 H 624.44 3.79056 -0.331152 0
M  V30 6505 H 623.952 3.27548 -2.08169 0
M  V30 6506 H 622.053 3.70995 0.345496 0
M  V30 6507 H 622.166 4.60818 -1.31085 0
M  V30 6508 H 620.53 2.47452 -0.603303 0
M  V30 6509 H 621.313 2.57383 -2.27176 0
M  V30 6510 N 623.758 0.647228 1.43697 0
M  V30 6511 C 624.688 -0.0345631 2.33474 0
M  V30 6512 C 625.669 -0.818193 1.4913 0
M  V30 6513 O 626.854 -0.780867 1.77809 0
M  V30 6514 C 623.984 -1.00576 3.32418 0
M  V30 6515 C 622.938 -0.33266 4.26705 0
M  V30 6516 C 622.264 -1.41489 5.1564 0
M  V30 6517 C 623.564 0.771204 5.16575 0
M  V30 6518 H 625.258 0.715163 2.90733 0
M  V30 6519 H 622.804 0.345364 1.39797 0
M  V30 6520 H 624.757 -1.49159 3.94119 0
M  V30 6521 H 623.481 -1.78657 2.73403 0
M  V30 6522 H 622.14 0.13267 3.6636 0
M  V30 6523 H 621.788 -2.18698 4.52968 0
M  V30 6524 H 621.488 -0.969799 5.79542 0
M  V30 6525 H 623.012 -1.9022 5.80214 0
M  V30 6526 H 624.426 0.36779 5.72119 0
M  V30 6527 H 622.823 1.1404 5.89165 0
M  V30 6528 H 623.893 1.63169 4.56622 0
M  V30 6529 N 625.236 -1.5273 0.388769 0
M  V30 6530 C 626.464 -2.05992 -0.193677 0
M  V30 6531 C 626.879 -1.26053 -1.40557 0
M  V30 6532 O 626.236 -0.307049 -1.79898 0
M  V30 6533 C 626.287 -3.57068 -0.564321 0
M  V30 6534 O 626.008 -4.3398 0.599422 0
M  V30 6535 C 627.509 -4.26674 -1.20269 0
M  V30 6536 H 624.729 -0.670358 -0.0293445 0
M  V30 6537 H 627.273 -1.96857 0.553844 0
M  V30 6538 H 625.428 -3.66277 -1.26174 0
M  V30 6539 H 625.842 -5.2367 0.294895 0
M  V30 6540 H 627.316 -5.33625 -1.4124 0
M  V30 6541 H 627.793 -3.81854 -2.16989 0
M  V30 6542 H 628.399 -4.2178 -0.546047 0
M  V30 6543 N 626.714 -0.118576 -1.57153 0
M  V30 6544 C 627.96 0.540326 -1.95469 0
M  V30 6545 C 628.293 1.66356 -1.00196 0
M  V30 6546 O 627.568 1.94461 -0.039104 0
M  V30 6547 C 627.851 1.07342 -3.43729 0
M  V30 6548 C 627.704 -0.0463732 -4.49776 0
M  V30 6549 C 629.023 1.96442 -3.93826 0
M  V30 6550 H 626.142 0.19494 -0.710751 0
M  V30 6551 H 628.784 -0.19405 -1.89006 0
M  V30 6552 H 626.934 1.69925 -3.49368 0
M  V30 6553 H 628.606 -0.681648 -4.56236 0
M  V30 6554 H 626.849 -0.709574 -4.27957 0
M  V30 6555 H 627.52 0.367856 -5.50773 0
M  V30 6556 H 629.996 1.43731 -3.90488 0
M  V30 6557 H 628.872 2.3066 -4.98084 0
M  V30 6558 H 629.133 2.89077 -3.34495 0
M  V30 6559 N 628.193 1.56834 0.155195 0
M  V30 6560 C 629.123 2.00678 1.19376 0
M  V30 6561 C 630.104 0.884973 1.45266 0
M  V30 6562 O 631.289 1.1522 1.56326 0
M  V30 6563 C 628.419 2.38042 2.5289 0
M  V30 6564 C 627.373 3.53332 2.41538 0
M  V30 6565 C 626.699 3.76485 3.79688 0
M  V30 6566 C 627.999 4.86265 1.9064 0
M  V30 6567 H 629.693 2.87688 0.829232 0
M  V30 6568 H 627.239 1.38407 0.397445 0
M  V30 6569 H 629.192 2.67314 3.25763 0
M  V30 6570 H 627.916 1.4796 2.91162 0
M  V30 6571 H 626.575 3.24213 1.71117 0
M  V30 6572 H 626.223 2.83667 4.15382 0
M  V30 6573 H 625.923 4.54068 3.72956 0
M  V30 6574 H 627.447 4.08174 4.54122 0
M  V30 6575 H 628.861 5.14308 2.53299 0
M  V30 6576 H 627.258 5.67597 1.94818 0
M  V30 6577 H 628.328 4.77184 0.861596 0
M  V30 6578 N 629.671 -0.424282 1.51781 0
M  V30 6579 C 631.082 -1.00368 1.57427 0
M  V30 6580 C 631.433 -1.91962 0.40558 0
M  V30 6581 O 630.558 -2.111 -0.47601 0
M  V30 6582 C 631.153 -1.82707 2.85313 0
M  V30 6583 C 629.712 -2.35675 2.93487 0
M  V30 6584 C 628.859 -1.1524 2.5222 0
M  V30 6585 H 631.81 -0.205064 1.5737 0
M  V30 6586 H 631.831 -2.68294 2.69812 0
M  V30 6587 H 631.343 -1.16017 3.70353 0
M  V30 6588 H 629.444 -3.05781 2.12906 0
M  V30 6589 H 629.557 -2.67578 3.97415 0
M  V30 6590 H 627.921 -1.50174 2.05718 0
M  V30 6591 H 628.704 -0.5014 3.39619 0
M  V30 6592 N 631.149 -1.42148 -0.680565 0
M  V30 6593 C 632.377 -1.45696 -1.46902 0
M  V30 6594 C 632.792 -0.0665858 -1.88683 0
M  V30 6595 O 632.149 0.917436 -1.57764 0
M  V30 6596 C 632.2 -2.37898 -2.72188 0
M  V30 6597 O 631.921 -3.71526 -2.32163 0
M  V30 6598 C 633.422 -2.50407 -3.65802 0
M  V30 6599 H 630.642 -0.495729 -0.45221 0
M  V30 6600 H 633.186 -1.866 -0.836709 0
M  V30 6601 H 631.341 -2.00263 -3.31622 0
M  V30 6602 H 631.755 -4.20849 -3.13027 0
M  V30 6603 H 633.229 -3.19056 -4.50452 0
M  V30 6604 H 633.706 -1.5401 -4.11312 0
M  V30 6605 H 634.312 -2.8874 -3.12265 0
M  V30 6606 N 632.627 0.916307 -1.28225 0
M  V30 6607 C 633.876 1.65975 -1.14608 0
M  V30 6608 C 634.189 1.93204 0.305191 0
M  V30 6609 O 635.395 2.65611 0.562432 0
M  V30 6610 C 633.851 2.98989 -2.00333 0
M  V30 6611 C 633.459 2.79417 -3.50186 0
M  V30 6612 C 635.203 3.76856 -1.95397 0
M  V30 6613 C 633.11 4.08056 -4.28071 0
M  V30 6614 H 632.04 0.622587 -0.425324 0
M  V30 6615 H 634.691 1.01705 -1.52736 0
M  V30 6616 H 633.073 3.6438 -1.5506 0
M  V30 6617 H 634.247 2.22723 -4.034 0
M  V30 6618 H 632.562 2.14966 -3.56621 0
M  V30 6619 H 635.159 4.72203 -2.50856 0
M  V30 6620 H 635.502 4.05776 -0.930137 0
M  V30 6621 H 636.035 3.1828 -2.38626 0
M  V30 6622 H 632.774 3.8431 -5.31024 0
M  V30 6623 H 632.294 4.64371 -3.79631 0
M  V30 6624 H 633.973 4.76333 -4.37854 0
M  V30 6625 N 634.105 1.10431 1.1244 0
M  V30 6626 C 635.333 0.868872 1.87772 0
M  V30 6627 C 635.748 -0.580645 1.7965 0
M  V30 6628 O 635.105 -1.40031 1.17036 0
M  V30 6629 C 635.156 1.30855 3.36986 0
M  V30 6630 O 634.877 2.70123 3.44914 0
M  V30 6631 C 636.378 1.107 4.29256 0
M  V30 6632 H 633.598 0.311868 0.59412 0
M  V30 6633 H 636.142 1.46897 1.42273 0
M  V30 6634 H 634.297 0.752126 3.80029 0
M  V30 6635 H 634.711 2.88923 4.37748 0
M  V30 6636 H 636.185 1.46378 5.32238 0
M  V30 6637 H 636.662 0.0456228 4.39176 0
M  V30 6638 H 637.268 1.64988 3.91994 0
M  V30 6639 N 635.583 -1.29855 0.893053 0
M  V30 6640 C 636.823 -1.97612 0.522399 0
M  V30 6641 C 637.187 -1.68903 -0.913 0
M  V30 6642 O 638.388 -2.30059 -1.39019 0
M  V30 6643 C 636.659 -3.48356 0.79893 0
M  V30 6644 S 638.218 -4.35568 0.531588 0
M  V30 6645 H 635.036 -0.684005 0.194058 0
M  V30 6646 H 637.638 -1.57803 1.15406 0
M  V30 6647 H 636.342 -3.66743 1.84196 0
M  V30 6648 H 635.873 -3.93094 0.155133 0
M  V30 6649 H 637.888 -4.92232 -0.626295 0
M  V30 6650 N 637.061 -0.65484 -1.43351 0
M  V30 6651 C 638.309 -0.168559 -2.01396 0
M  V30 6652 C 638.63 1.22235 -1.51933 0
M  V30 6653 O 637.9 1.81685 -0.732627 0
M  V30 6654 H 636.48 -0.0593244 -0.744641 0
M  V30 6655 H 639.142 -0.846871 -1.75539 0
M  V30 6656 H 638.238 -0.154428 -3.11718 0
M  V30 6657 N 638.539 1.52521 -0.396863 0
M  V30 6658 C 639.489 2.2348 0.451722 0
M  V30 6659 C 640.473 1.2415 1.0235 0
M  V30 6660 O 641.665 1.4945 0.948348 0
M  V30 6661 C 638.794 3.05067 1.57445 0
M  V30 6662 C 637.88 4.11799 1.01404 0
M  V30 6663 N 638.271 5.05482 0.179234 0
M  V30 6664 C 636.569 4.27064 1.28578 0
M  V30 6665 C 637.27 5.81552 -0.131202 0
M  V30 6666 N 636.246 5.41523 0.474735 0
M  V30 6667 H 640.048 2.93269 -0.192534 0
M  V30 6668 H 637.562 1.61081 -0.206591 0
M  V30 6669 H 639.559 3.54446 2.19485 0
M  V30 6670 H 638.219 2.36816 2.22145 0
M  V30 6671 H 639.23 5.17573 -0.18411 0
M  V30 6672 H 635.907 3.70042 1.93327 0
M  V30 6673 H 637.297 6.67023 -0.808061 0
M  V30 6674 N 640.017 0.126909 1.57088 0
M  V30 6675 C 641.245 -0.53667 1.99819 0
M  V30 6676 C 641.66 -1.5972 1.00673 0
M  V30 6677 O 641.017 -1.825 0.000747365 0
M  V30 6678 C 641.068 -1.15563 3.42531 0
M  V30 6679 O 640.789 -0.137483 4.37884 0
M  V30 6680 C 642.29 -1.90176 4.00435 0
M  V30 6681 H 639.51 -0.141443 0.655923 0
M  V30 6682 H 642.054 0.215578 2.03361 0
M  V30 6683 H 640.209 -1.85861 3.39904 0
M  V30 6684 H 640.623 -0.588229 5.21191 0
M  V30 6685 H 642.097 -2.28801 5.02349 0
M  V30 6686 H 642.574 -2.78002 3.40017 0
M  V30 6687 H 643.18 -1.24623 4.06632 0
M  V30 6688 N 641.495 -1.56914 -0.146875 0
M  V30 6689 C 642.744 -1.82546 -0.857898 0
M  V30 6690 C 643.057 -0.708169 -1.8233 0
M  V30 6691 O 644.263 -0.850093 -2.57848 0
M  V30 6692 C 642.719 -3.23548 -1.57623 0
M  V30 6693 C 642.327 -4.43212 -0.653224 0
M  V30 6694 C 644.071 -3.58453 -2.27402 0
M  V30 6695 C 641.978 -5.75237 -1.37318 0
M  V30 6696 H 640.908 -0.680786 -0.32411 0
M  V30 6697 H 643.559 -1.83166 -0.110639 0
M  V30 6698 H 641.941 -3.17315 -2.36912 0
M  V30 6699 H 643.115 -4.60682 0.104452 0
M  V30 6700 H 641.43 -4.16351 -0.0638336 0
M  V30 6701 H 644.027 -4.54349 -2.81907 0
M  V30 6702 H 644.37 -2.84516 -3.03901 0
M  V30 6703 H 644.903 -3.66347 -1.55032 0
M  V30 6704 H 641.642 -6.52269 -0.650041 0
M  V30 6705 H 641.162 -5.61703 -2.10357 0
M  V30 6706 H 642.841 -6.18039 -1.91406 0
M  V30 6707 N 642.974 0.416227 -1.52004 0
M  V30 6708 C 643.884 1.53147 -1.77717 0
M  V30 6709 C 644.9 1.609 -0.662368 0
M  V30 6710 O 646.076 1.77747 -0.946991 0
M  V30 6711 C 643.141 2.88948 -1.91598 0
M  V30 6712 C 642.202 2.9114 -3.15493 0
M  V30 6713 C 641.435 4.20464 -3.28703 0
M  V30 6714 O 641.658 5.13981 -2.47345 0
M  V30 6715 O 640.592 4.29368 -4.21813 0
M  V30 6716 H 644.418 1.34357 -2.72363 0
M  V30 6717 H 642.003 0.601373 -1.36762 0
M  V30 6718 H 643.885 3.69505 -2.02593 0
M  V30 6719 H 642.56 3.07821 -1.00141 0
M  V30 6720 H 641.467 2.09461 -3.09962 0
M  V30 6721 H 642.8 2.77216 -4.06709 0
M  V30 6722 N 644.452 1.42507 0.673017 0
M  V30 6723 C 645.701 1.42364 1.42883 0
M  V30 6724 C 646.014 0.0441598 1.9555 0
M  V30 6725 O 647.22 -0.0798679 2.71382 0
M  V30 6726 C 645.676 2.5043 2.58482 0
M  V30 6727 C 645.284 3.94392 2.12506 0
M  V30 6728 C 647.028 2.59455 3.35981 0
M  V30 6729 C 644.935 4.93964 3.25198 0
M  V30 6730 H 643.865 0.52951 0.536782 0
M  V30 6731 H 646.516 1.68422 0.728448 0
M  V30 6732 H 644.898 2.1754 3.30896 0
M  V30 6733 H 646.072 4.36645 1.47233 0
M  V30 6734 H 644.387 3.89233 1.4794 0
M  V30 6735 H 646.984 3.31025 4.19912 0
M  V30 6736 H 647.327 1.63869 3.82691 0
M  V30 6737 H 647.86 2.91549 2.70637 0
M  V30 6738 H 644.599 5.91034 2.83477 0
M  V30 6739 H 644.119 4.56341 3.89247 0
M  V30 6740 H 645.798 5.15763 3.90637 0
M  V30 6741 N 645.93 -0.909495 1.28709 0
M  V30 6742 C 646.86 -2.0291 1.15542 0
M  V30 6743 C 647.841 -1.7002 0.0521017 0
M  V30 6744 O 649.026 -1.92835 0.229849 0
M  V30 6745 C 646.156 -3.37458 0.820935 0
M  V30 6746 C 645.11 -3.84524 1.87949 0
M  V30 6747 C 644.436 -5.16086 1.39854 0
M  V30 6748 C 645.736 -4.05918 3.28676 0
M  V30 6749 H 647.43 -2.14183 2.09203 0
M  V30 6750 H 644.976 -1.02913 1.00722 0
M  V30 6751 H 646.929 -4.1528 0.715571 0
M  V30 6752 H 645.653 -3.26249 -0.151374 0
M  V30 6753 H 644.312 -3.08911 1.97408 0
M  V30 6754 H 643.96 -5.01284 0.41518 0
M  V30 6755 H 643.66 -5.48547 2.1064 0
M  V30 6756 H 645.184 -5.96459 1.30649 0
M  V30 6757 H 646.598 -4.74252 3.22115 0
M  V30 6758 H 644.995 -4.49717 3.97334 0
M  V30 6759 H 646.065 -3.10583 3.72379 0
M  V30 6760 N 647.408 -1.11026 -1.11852 0
M  V30 6761 C 648.824 -0.843294 -1.35502 0
M  V30 6762 C 649.024 0.534179 -1.9429 0
M  V30 6763 O 648.08 1.28585 -2.17307 0
M  V30 6764 C 649.393 -1.94793 -2.29077 0
M  V30 6765 C 650.941 -1.97709 -2.42652 0
M  V30 6766 C 651.416 -3.07364 -3.39546 0
M  V30 6767 N 652.907 -3.0671 -3.47107 0
M  V30 6768 C 653.642 -3.88197 -4.22008 0
M  V30 6769 N 653.138 -4.79635 -4.99922 0
M  V30 6770 N 654.931 -3.76391 -4.17476 0
M  V30 6771 H 647.082 -1.99805 -0.720538 0
M  V30 6772 H 649.345 -0.868633 -0.379711 0
M  V30 6773 H 649.051 -2.93971 -1.93065 0
M  V30 6774 H 648.925 -1.84039 -3.29256 0
M  V30 6775 H 651.312 -0.991604 -2.77941 0
M  V30 6776 H 651.393 -2.1254 -1.4234 0
M  V30 6777 H 651.037 -4.06136 -3.04985 0
M  V30 6778 H 650.967 -2.89774 -4.39703 0
M  V30 6779 H 653.458 -2.40457 -2.91528 0
M  V30 6780 H 653.771 -5.38357 -5.54429 0
M  V30 6781 H 652.116 -4.8366 -4.99097 0
M  V30 6782 H 655.307 -3.04303 -3.55693 0
M  V30 6783 H 655.48 -4.40131 -4.75593 0
M  V30 6784 N 648.886 1.2938 -0.899927 0
M  V30 6785 C 649.796 2.31462 -0.382437 0
M  V30 6786 C 650.812 1.65956 0.522929 0
M  V30 6787 O 651.988 1.97131 0.412454 0
M  V30 6788 C 649.053 3.44595 0.381472 0
M  V30 6789 C 648.114 4.25692 -0.555444 0
M  V30 6790 C 647.347 5.33422 0.172102 0
M  V30 6791 O 647.57 5.53053 1.396 0
M  V30 6792 O 646.504 5.99939 -0.485491 0
M  V30 6793 H 650.33 2.77706 -1.22934 0
M  V30 6794 H 647.915 1.33821 -0.664259 0
M  V30 6795 H 649.797 4.13474 0.813442 0
M  V30 6796 H 648.472 3.00458 1.20443 0
M  V30 6797 H 647.379 3.59453 -1.03653 0
M  V30 6798 H 648.712 4.73471 -1.34483 0
M  V30 6799 N 650.364 0.662433 1.43002 0
M  V30 6800 C 651.311 -0.0235324 2.30788 0
M  V30 6801 C 652.281 -0.805342 1.4527 0
M  V30 6802 O 653.466 -0.78009 1.74124 0
M  V30 6803 C 650.606 -0.977545 3.30965 0
M  V30 6804 C 649.719 -0.190865 4.31578 0
M  V30 6805 C 648.854 -1.13951 5.18834 0
M  V30 6806 C 647.893 -0.343796 6.11134 0
M  V30 6807 N 647.03 -1.2445 6.90982 0
M  V30 6808 H 651.87 0.730921 2.88897 0
M  V30 6809 H 649.407 0.372197 1.42313 0
M  V30 6810 H 651.365 -1.54437 3.87563 0
M  V30 6811 H 649.995 -1.69877 2.74484 0
M  V30 6812 H 649.047 0.492388 3.772 0
M  V30 6813 H 650.359 0.427464 4.96965 0
M  V30 6814 H 649.513 -1.77666 5.80103 0
M  V30 6815 H 648.252 -1.79174 4.53595 0
M  V30 6816 H 647.257 0.30665 5.48944 0
M  V30 6817 H 648.482 0.304161 6.78419 0
M  V30 6818 H 646.428 -1.88336 6.28383 0
M  V30 6819 H 646.345 -0.680959 7.52927 0
M  V30 6820 H 647.613 -1.86952 7.56749 0
M  V30 6821 N 651.842 -1.52309 0.404946 0
M  V30 6822 C 653.09 -2.01368 -0.17186 0
M  V30 6823 C 653.411 -1.29261 -1.46002 0
M  V30 6824 O 652.681 -0.41729 -1.91404 0
M  V30 6825 H 651.261 -0.744034 -0.0664993 0
M  V30 6826 H 653.923 -1.87263 0.540228 0
M  V30 6827 H 653.019 -3.09888 -0.370957 0
M  V30 6828 N 653.32 -0.135238 -1.57019 0
M  V30 6829 C 654.567 0.518794 -1.95742 0
M  V30 6830 C 654.895 1.65642 -1.01947 0
M  V30 6831 O 654.15 1.95645 -0.0464016 0
M  V30 6832 C 654.449 1.07694 -3.40788 0
M  V30 6833 C 654.115 0.058992 -4.50861 0
M  V30 6834 C 652.777 -0.220872 -4.80693 0
M  V30 6835 C 655.129 -0.633856 -5.17331 0
M  V30 6836 C 652.457 -1.19959 -5.74305 0
M  V30 6837 C 654.809 -1.60131 -6.11997 0
M  V30 6838 C 653.473 -1.889 -6.40213 0
M  V30 6839 H 652.743 0.18984 -0.716269 0
M  V30 6840 H 655.39 -0.219581 -1.90237 0
M  V30 6841 H 653.695 1.89241 -3.43067 0
M  V30 6842 H 655.392 1.59137 -3.68071 0
M  V30 6843 H 651.982 0.287304 -4.27636 0
M  V30 6844 H 656.166 -0.430823 -4.94427 0
M  V30 6845 H 651.422 -1.42905 -5.94465 0
M  V30 6846 H 655.596 -2.14376 -6.62583 0
M  V30 6847 H 653.223 -2.64891 -7.12556 0
M  V30 6848 N 654.798 1.5699 0.138552 0
M  V30 6849 C 656.075 1.74741 0.87891 0
M  V30 6850 C 656.455 0.705522 1.98961 0
M  V30 6851 O 655.803 -0.274066 2.2685 0
M  V30 6852 C 656.013 3.1909 1.4136 0
M  V30 6853 C 657.361 3.81023 1.87368 0
M  V30 6854 O 658.385 3.22571 1.51084 0
M  V30 6855 O 657.244 4.83722 2.54312 0
M  V30 6856 H 654.338 0.714781 0.415953 0
M  V30 6857 H 656.884 1.69248 0.123817 0
M  V30 6858 H 655.656 3.86424 0.61579 0
M  V30 6859 H 655.279 3.29043 2.23196 0
M  V30 6860 N 656.276 -0.40816 1.52223 0
M  V30 6861 C 657.208 -1.51642 1.71864 0
M  V30 6862 C 658.221 -1.51378 0.599056 0
M  V30 6863 O 659.41 -1.55626 0.874239 0
M  V30 6864 C 656.51 -2.90534 1.74481 0
M  V30 6865 C 655.683 -3.14979 3.03491 0
M  V30 6866 C 654.742 -4.33749 2.97907 0
M  V30 6867 O 653.768 -4.30982 3.71811 0
M  V30 6868 N 654.97 -5.38912 2.15764 0
M  V30 6869 H 657.735 -1.35188 2.67478 0
M  V30 6870 H 655.296 -0.597468 1.50472 0
M  V30 6871 H 657.288 -3.68056 1.68275 0
M  V30 6872 H 655.858 -3.00441 0.863363 0
M  V30 6873 H 655.078 -2.25492 3.23337 0
M  V30 6874 H 656.366 -3.28156 3.88833 0
M  V30 6875 H 655.764 -5.44008 1.55152 0
M  V30 6876 H 654.321 -6.15174 2.15415 0
M  V30 6877 N 657.755 -1.42862 -0.66545 0
M  V30 6878 C 658.718 -1.46756 -1.76055 0
M  V30 6879 C 659.718 -0.353866 -1.56858 0
M  V30 6880 O 660.908 -0.615099 -1.62979 0
M  V30 6881 C 658.04 -1.30829 -3.14796 0
M  V30 6882 H 659.233 -2.44271 -1.73987 0
M  V30 6883 H 656.786 -1.29447 -0.875965 0
M  V30 6884 H 657.521 -0.342733 -3.22484 0
M  V30 6885 H 657.306 -2.11551 -3.30134 0
M  V30 6886 H 658.796 -1.36458 -3.94676 0
M  V30 6887 N 659.233 0.902656 -1.29189 0
M  V30 6888 C 660.644 1.46809 -1.15343 0
M  V30 6889 C 660.995 1.94568 0.252517 0
M  V30 6890 O 660.12 1.83454 1.14777 0
M  V30 6891 C 660.715 2.66829 -2.08776 0
M  V30 6892 C 659.274 3.19518 -1.98961 0
M  V30 6893 C 658.421 1.92212 -1.99874 0
M  V30 6894 H 661.372 0.714282 -1.41717 0
M  V30 6895 H 661.393 3.42465 -1.65826 0
M  V30 6896 H 660.905 2.32039 -3.11094 0
M  V30 6897 H 659.006 3.59008 -0.99721 0
M  V30 6898 H 659.119 3.84016 -2.86477 0
M  V30 6899 H 657.483 2.0979 -1.44431 0
M  V30 6900 H 658.266 1.59702 -3.03891 0
M  V30 6901 N 660.711 1.11618 1.11262 0
M  V30 6902 C 661.957 0.867463 1.83311 0
M  V30 6903 C 662.29 -0.605366 1.84524 0
M  V30 6904 O 661.565 -1.44704 1.29965 0
M  V30 6905 C 661.848 1.43207 3.30399 0
M  V30 6906 C 661.701 2.97265 3.3757 0
M  V30 6907 C 663.02 1.08454 4.26528 0
M  V30 6908 H 660.139 0.316578 0.665543 0
M  V30 6909 H 662.781 1.38137 1.30454 0
M  V30 6910 H 660.931 0.994982 3.75543 0
M  V30 6911 H 662.603 3.49591 3.00971 0
M  V30 6912 H 660.846 3.33237 2.77733 0
M  V30 6913 H 661.517 3.31859 4.41105 0
M  V30 6914 H 663.993 1.4619 3.89574 0
M  V30 6915 H 662.869 1.50633 5.27826 0
M  V30 6916 H 663.13 -0.00444568 4.421 0
M  V30 6917 N 662.189 -1.289 0.906776 0
M  V30 6918 C 663.435 -1.95558 0.53712 0
M  V30 6919 C 663.768 -1.71262 -0.915582 0
M  V30 6920 O 663.043 -1.02961 -1.65013 0
M  V30 6921 C 663.326 -3.50198 0.838645 0
M  V30 6922 C 663.179 -3.83923 2.34357 0
M  V30 6923 C 664.498 -4.38861 0.329988 0
M  V30 6924 H 661.617 -0.710289 0.196617 0
M  V30 6925 H 664.259 -1.52392 1.13475 0
M  V30 6926 H 662.409 -3.87096 0.330024 0
M  V30 6927 H 664.081 -3.56933 2.92227 0
M  V30 6928 H 662.324 -3.31215 2.80141 0
M  V30 6929 H 662.995 -4.91883 2.5051 0
M  V30 6930 H 665.471 -4.08996 0.765609 0
M  V30 6931 H 664.347 -5.45931 0.570105 0
M  V30 6932 H 664.608 -4.35352 -0.769511 0
M  V30 6933 N 663.667 -0.670007 -1.42649 0
M  V30 6934 C 664.944 -0.119451 -1.95235 0
M  V30 6935 C 665.324 1.36461 -1.61064 0
M  V30 6936 O 664.672 2.09843 -0.904329 0
M  V30 6937 C 664.882 -0.383498 -3.46887 0
M  V30 6938 C 666.23 -0.297431 -4.23557 0
M  V30 6939 O 667.254 -0.31698 -3.54787 0
M  V30 6940 O 666.113 -0.235507 -5.45992 0
M  V30 6941 H 663.207 -8.85474e-05 -0.827 0
M  V30 6942 H 665.753 -0.744406 -1.52501 0
M  V30 6943 H 664.525 -1.41174 -3.64946 0
M  V30 6944 H 664.148 0.273702 -3.96657 0
M  V30 6945 N 665.145 1.52092 -0.413018 0
M  V30 6946 C 666.055 2.30858 0.417318 0
M  V30 6947 C 667.071 1.38746 1.05003 0
M  V30 6948 O 668.247 1.71821 1.05069 0
M  V30 6949 C 665.312 3.11756 1.51687 0
M  V30 6950 C 664.373 4.19613 0.906825 0
M  V30 6951 C 663.606 4.96644 1.95399 0
M  V30 6952 O 663.829 4.7402 3.17271 0
M  V30 6953 O 662.763 5.81385 1.55805 0
M  V30 6954 H 666.589 3.02865 -0.225028 0
M  V30 6955 H 664.174 1.48358 -0.176126 0
M  V30 6956 H 666.056 3.62122 2.15512 0
M  V30 6957 H 664.731 2.42539 2.14375 0
M  V30 6958 H 663.638 3.73385 0.231183 0
M  V30 6959 H 664.971 4.91134 0.323814 0
M  V30 6960 N 666.623 0.143563 1.56945 0
M  V30 6961 C 667.586 -0.783295 2.154 0
M  V30 6962 C 668.586 -1.17763 1.09492 0
M  V30 6963 O 669.776 -1.09912 1.35148 0
M  V30 6964 C 666.908 -2.06248 2.7143 0
M  V30 6965 H 668.101 -0.274863 2.98638 0
M  V30 6966 H 665.654 -0.105859 1.55941 0
M  V30 6967 H 666.389 -2.61466 1.91849 0
M  V30 6968 H 666.174 -1.78897 3.4891 0
M  V30 6969 H 667.664 -2.72453 3.16479 0
M  V30 6970 N 668.101 -1.57061 -0.130224 0
M  V30 6971 C 669.349 -1.83893 -0.838313 0
M  V30 6972 C 669.67 -0.727046 -1.80939 0
M  V30 6973 O 668.94 0.249927 -1.94299 0
M  V30 6974 H 667.52 -0.67846 -0.312573 0
M  V30 6975 H 670.182 -1.94529 -0.120224 0
M  V30 6976 H 669.278 -2.79419 -1.39038 0
M  V30 6977 N 669.579 0.400081 -1.52437 0
M  V30 6978 C 670.825 1.14788 -1.67187 0
M  V30 6979 C 671.158 1.89928 -0.405074 0
M  V30 6980 O 670.433 1.85118 0.596804 0
M  V30 6981 C 670.716 2.13507 -2.89977 0
M  V30 6982 C 670.569 1.42204 -4.2673 0
M  V30 6983 C 671.888 3.14069 -3.083 0
M  V30 6984 H 669.007 0.415939 -0.608411 0
M  V30 6985 H 671.649 0.432542 -1.85011 0
M  V30 6986 H 669.799 2.7451 -2.74912 0
M  V30 6987 H 671.471 0.842503 -4.53541 0
M  V30 6988 H 669.714 0.723939 -4.27717 0
M  V30 6989 H 670.385 2.14281 -5.08712 0
M  V30 6990 H 672.861 2.63148 -3.22323 0
M  V30 6991 H 671.737 3.80398 -3.95713 0
M  V30 6992 H 671.998 3.82309 -2.22018 0
M  V30 6993 N 671.057 1.43213 0.657864 0
M  V30 6994 C 672.306 1.43871 1.41365 0
M  V30 6995 C 672.619 0.064898 1.95492 0
M  V30 6996 O 673.825 -0.0510796 2.71452 0
M  V30 6997 C 672.281 2.53158 2.55811 0
M  V30 6998 C 671.889 3.96624 2.08311 0
M  V30 6999 C 673.633 2.63004 3.3321 0
M  V30 7000 C 671.54 4.97385 3.1994 0
M  V30 7001 H 670.47 0.535174 0.531136 0
M  V30 7002 H 673.121 1.69185 0.710543 0
M  V30 7003 H 671.503 2.21037 3.2857 0
M  V30 7004 H 672.677 4.38182 1.42593 0
M  V30 7005 H 670.992 3.90781 1.43804 0
M  V30 7006 H 673.589 3.3546 4.16378 0
M  V30 7007 H 673.932 1.67918 3.80932 0
M  V30 7008 H 674.465 2.94403 2.67529 0
M  V30 7009 H 671.204 5.94007 2.77192 0
M  V30 7010 H 670.724 4.60444 3.84385 0
M  V30 7011 H 672.403 5.19877 3.85145 0
M  V30 7012 N 672.536 -0.895792 1.29666 0
M  V30 7013 C 673.466 -2.01673 1.17688 0
M  V30 7014 C 674.447 -1.69955 0.0701317 0
M  V30 7015 O 675.632 -1.9258 0.250289 0
M  V30 7016 C 672.762 -3.36568 0.856681 0
M  V30 7017 C 671.716 -3.82509 1.92017 0
M  V30 7018 C 671.042 -5.14574 1.4532 0
M  V30 7019 C 672.342 -4.02409 3.32963 0
M  V30 7020 H 674.036 -2.11953 2.11463 0
M  V30 7021 H 671.582 -1.01839 1.01807 0
M  V30 7022 H 673.535 -4.14498 0.759577 0
M  V30 7023 H 672.259 -3.26391 -0.116763 0
M  V30 7024 H 670.918 -3.068 2.00673 0
M  V30 7025 H 670.566 -5.00815 0.468325 0
M  V30 7026 H 670.266 -5.46283 2.16447 0
M  V30 7027 H 671.79 -5.9504 1.36968 0
M  V30 7028 H 673.204 -4.70808 3.27127 0
M  V30 7029 H 671.601 -4.45478 4.02082 0
M  V30 7030 H 672.671 -3.06616 3.75652 0
M  V30 7031 N 674.014 -1.12206 -1.10668 0
M  V30 7032 C 675.262 -0.874144 -1.82217 0
M  V30 7033 C 675.583 0.601736 -1.85484 0
M  V30 7034 O 674.853 1.43725 -1.33116 0
M  V30 7035 H 673.433 -0.320404 -0.674797 0
M  V30 7036 H 676.095 -1.41606 -1.33917 0
M  V30 7037 H 675.191 -1.25349 -2.85822 0
M  V30 7038 N 675.492 1.28418 -0.913599 0
M  V30 7039 C 676.425 2.25557 -0.346328 0
M  V30 7040 C 677.403 1.53038 0.549366 0
M  V30 7041 O 678.587 1.81937 0.493055 0
M  V30 7042 C 675.714 3.34915 0.504961 0
M  V30 7043 C 674.76 4.25257 -0.325334 0
M  V30 7044 S 675.593 5.06718 -1.73198 0
M  V30 7045 C 676.749 6.19569 -0.887988 0
M  V30 7046 H 676.982 2.73325 -1.16965 0
M  V30 7047 H 674.515 1.36855 -0.714841 0
M  V30 7048 H 676.473 3.98376 0.990301 0
M  V30 7049 H 675.134 2.85814 1.30267 0
M  V30 7050 H 674.327 5.02947 0.325589 0
M  V30 7051 H 673.929 3.66519 -0.744321 0
M  V30 7052 H 676.221 6.77398 -0.117568 0
M  V30 7053 H 677.164 6.88908 -1.63742 0
M  V30 7054 H 677.572 5.62812 -0.436228 0
M  V30 7055 N 676.97 0.677563 1.42291 0
M  V30 7056 C 678.216 0.201272 2.01799 0
M  V30 7057 C 678.549 -1.19004 1.53465 0
M  V30 7058 O 677.824 -1.79953 0.738039 0
M  V30 7059 C 678.107 0.238968 3.59306 0
M  V30 7060 C 677.96 1.66594 4.17812 0
M  V30 7061 C 679.279 -0.411287 4.38174 0
M  V30 7062 H 676.398 0.0746114 0.733214 0
M  V30 7063 H 679.04 0.862872 1.69276 0
M  V30 7064 H 677.19 -0.324368 3.87144 0
M  V30 7065 H 678.862 2.28173 4.00917 0
M  V30 7066 H 677.105 2.20576 3.73536 0
M  V30 7067 H 677.776 1.64398 5.26951 0
M  V30 7068 H 680.252 0.0682804 4.16044 0
M  V30 7069 H 679.128 -0.354286 5.47755 0
M  V30 7070 H 679.389 -1.4893 4.1626 0
M  V30 7071 N 678.448 -1.51871 0.421078 0
M  V30 7072 C 679.676 -2.06356 -0.14994 0
M  V30 7073 C 680.091 -1.29006 -1.37851 0
M  V30 7074 O 679.448 -0.345139 -1.79207 0
M  V30 7075 C 679.499 -3.58185 -0.488454 0
M  V30 7076 O 679.22 -4.32611 0.691341 0
M  V30 7077 C 680.721 -4.29129 -1.11191 0
M  V30 7078 H 677.941 -0.67083 -0.0151186 0
M  V30 7079 H 680.485 -1.95638 0.595476 0
M  V30 7080 H 678.64 -3.68871 -1.18376 0
M  V30 7081 H 679.054 -5.22927 0.405906 0
M  V30 7082 H 680.528 -5.36501 -1.29889 0
M  V30 7083 H 681.005 -3.86371 -2.0884 0
M  V30 7084 H 681.611 -4.22843 -0.456458 0
M  V30 7085 N 679.926 -0.151884 -1.56866 0
M  V30 7086 C 680.856 0.781943 -2.20018 0
M  V30 7087 C 681.837 1.25347 -1.14987 0
M  V30 7088 O 683.022 1.31015 -1.43348 0
M  V30 7089 C 680.152 2.01928 -2.82564 0
M  V30 7090 C 679.106 1.68434 -3.93464 0
M  V30 7091 C 678.432 2.99472 -4.42968 0
M  V30 7092 C 679.732 0.927244 -5.14003 0
M  V30 7093 H 681.426 0.255607 -2.98307 0
M  V30 7094 H 678.972 0.121502 -1.43486 0
M  V30 7095 H 680.925 2.67741 -3.25411 0
M  V30 7096 H 679.649 2.56943 -2.01614 0
M  V30 7097 H 678.308 1.04998 -3.51242 0
M  V30 7098 H 677.956 3.52488 -3.58834 0
M  V30 7099 H 677.656 2.77823 -5.17772 0
M  V30 7100 H 679.18 3.66348 -4.88489 0
M  V30 7101 H 680.594 1.48756 -5.53665 0
M  V30 7102 H 678.991 0.810513 -5.94601 0
M  V30 7103 H 680.061 -0.0801163 -4.84834 0
M  V30 7104 N 681.404 1.57128 0.121893 0
M  V30 7105 C 682.652 1.84335 0.828548 0
M  V30 7106 C 682.973 0.736632 1.80551 0
M  V30 7107 O 682.243 -0.23962 1.94429 0
M  V30 7108 H 680.823 0.680108 0.30897 0
M  V30 7109 H 683.485 1.9459 0.109906 0
M  V30 7110 H 682.581 2.80152 1.37554 0
M  V30 7111 N 682.882 -0.391992 1.52647 0
M  V30 7112 C 683.83 -1.4991 1.77848 0
M  V30 7113 C 684.824 -1.56587 0.646282 0
M  V30 7114 O 686.03 -1.59789 0.828698 0
M  V30 7115 H 682.405 -0.498883 0.56269 0
M  V30 7116 H 684.376 -1.25847 2.70564 0
M  V30 7117 C 683.125 -2.87081 1.96163 0
M  V30 7118 H 682.448 -2.82692 2.82711 0
M  V30 7119 H 683.888 -3.63792 2.17787 0
M  V30 7120 C 682.347 -3.28822 0.733348 0
M  V30 7121 O 682.877 -4.01598 -0.0906481 0
M  V30 7122 N 681.083 -2.85068 0.564317 0
M  V30 7123 H 680.63 -2.26012 1.23598 0
M  V30 7124 H 680.588 -3.13355 -0.256166 0
M  V30 7125 N 684.36 -1.4356 -0.65026 0
M  V30 7126 C 685.293 -1.434 -1.77515 0
M  V30 7127 C 686.271 -0.295082 -1.599 0
M  V30 7128 O 687.455 -0.489128 -1.82043 0
M  V30 7129 C 684.582 -1.2484 -3.14853 0
M  V30 7130 C 683.628 -2.42046 -3.51163 0
M  V30 7131 S 684.461 -4.04595 -3.50803 0
M  V30 7132 C 685.617 -3.88424 -4.90793 0
M  V30 7133 H 685.85 -2.38586 -1.77381 0
M  V30 7134 H 683.383 -1.30627 -0.823169 0
M  V30 7135 H 685.341 -1.14819 -3.94115 0
M  V30 7136 H 684.002 -0.311977 -3.12547 0
M  V30 7137 H 683.195 -2.24873 -4.51052 0
M  V30 7138 H 682.797 -2.48708 -2.79321 0
M  V30 7139 H 685.089 -3.50932 -5.79528 0
M  V30 7140 H 686.032 -4.88076 -5.13018 0
M  V30 7141 H 686.44 -3.20829 -4.64467 0
M  V30 7142 N 685.838 0.888903 -1.30139 0
M  V30 7143 C 686.768 2.01046 -1.18755 0
M  V30 7144 C 687.749 1.69916 -0.0791438 0
M  V30 7145 O 688.934 1.92445 -0.260498 0
M  V30 7146 C 686.064 3.36109 -0.874518 0
M  V30 7147 C 685.018 3.81486 -1.94043 0
M  V30 7148 C 684.344 5.13796 -1.48047 0
M  V30 7149 C 685.644 4.00637 -3.35093 0
M  V30 7150 H 687.338 2.10828 -2.12584 0
M  V30 7151 H 684.884 1.01298 -1.02346 0
M  V30 7152 H 686.837 4.14089 -0.781548 0
M  V30 7153 H 685.561 3.26449 0.0994519 0
M  V30 7154 H 684.22 3.05731 -2.02297 0
M  V30 7155 H 683.868 5.0056 -0.494878 0
M  V30 7156 H 683.568 5.45127 -2.19341 0
M  V30 7157 H 685.092 5.94305 -1.40121 0
M  V30 7158 H 686.506 4.69067 -3.2962 0
M  V30 7159 H 684.903 4.43339 -4.04438 0
M  V30 7160 H 685.973 3.0462 -3.77273 0
M  V30 7161 N 687.317 1.12792 1.10072 0
M  V30 7162 C 688.542 0.908838 1.86427 0
M  V30 7163 C 688.967 -0.536793 1.80278 0
M  V30 7164 O 688.325 -1.38033 1.17543 0
M  V30 7165 C 688.373 1.39295 3.3261 0
M  V30 7166 O 687.477 0.573846 4.08388 0
M  V30 7167 H 686.818 0.326234 0.578331 0
M  V30 7168 H 689.348 1.50094 1.39043 0
M  V30 7169 H 689.358 1.39366 3.83459 0
M  V30 7170 H 688.033 2.44555 3.36401 0
M  V30 7171 H 686.61 0.640438 3.67359 0
M  V30 7172 N 688.795 -1.27931 0.920396 0
M  V30 7173 C 690.02 -1.99343 0.572478 0
M  V30 7174 C 690.445 -1.68267 -0.840696 0
M  V30 7175 O 689.803 -0.918805 -1.56294 0
M  V30 7176 C 689.851 -3.51698 0.796284 0
M  V30 7177 O 688.955 -4.12157 -0.141602 0
M  V30 7178 H 688.296 -0.626065 0.221221 0
M  V30 7179 H 690.826 -1.62921 1.23765 0
M  V30 7180 H 690.836 -4.01793 0.708984 0
M  V30 7181 H 689.511 -3.73649 1.82644 0
M  V30 7182 H 688.088 -3.729 -0.005007 0
M  V30 7183 N 690.273 -0.685099 -1.4193 0
M  V30 7184 C 691.203 -0.0273506 -2.33484 0
M  V30 7185 C 692.184 0.778366 -1.51246 0
M  V30 7186 O 693.369 0.733449 -1.79817 0
M  V30 7187 C 690.499 0.917272 -3.34968 0
M  V30 7188 C 689.453 0.21941 -4.27437 0
M  V30 7189 C 688.779 1.27768 -5.1921 0
M  V30 7190 C 690.079 -0.907894 -5.14349 0
M  V30 7191 H 691.773 -0.791994 -2.88735 0
M  V30 7192 H 689.319 -0.382308 -1.38832 0
M  V30 7193 H 691.272 1.38657 -3.97935 0
M  V30 7194 H 689.996 1.71346 -2.78043 0
M  V30 7195 H 688.655 -0.229757 -3.65879 0
M  V30 7196 H 688.303 2.06612 -4.58607 0
M  V30 7197 H 688.003 0.815803 -5.81909 0
M  V30 7198 H 689.527 1.7477 -5.85054 0
M  V30 7199 H 690.941 -0.519348 -5.70943 0
M  V30 7200 H 689.338 -1.2962 -5.85934 0
M  V30 7201 H 690.408 -1.75218 -4.52136 0
M  V30 7202 N 691.751 1.51645 -0.429126 0
M  V30 7203 C 692.681 2.30434 0.377148 0
M  V30 7204 C 693.662 1.35493 1.02838 0
M  V30 7205 O 694.847 1.6441 1.03359 0
M  V30 7206 C 691.977 3.14038 1.48315 0
M  V30 7207 C 690.931 4.1719 0.955855 0
M  V30 7208 C 690.257 4.89263 2.15698 0
M  V30 7209 C 691.557 5.223 -0.00402136 0
M  V30 7210 H 693.251 2.98085 -0.280336 0
M  V30 7211 H 690.797 1.43354 -0.136265 0
M  V30 7212 H 692.75 3.67933 2.05435 0
M  V30 7213 H 691.474 2.44193 2.16881 0
M  V30 7214 H 690.133 3.64335 0.406929 0
M  V30 7215 H 689.781 4.15929 2.82864 0
M  V30 7216 H 689.481 5.59009 1.81059 0
M  V30 7217 H 691.005 5.45978 2.73387 0
M  V30 7218 H 692.419 5.71315 0.476607 0
M  V30 7219 H 690.816 5.99525 -0.26258 0
M  V30 7220 H 691.886 4.75638 -0.943236 0
M  V30 7221 N 693.229 0.160201 1.56784 0
M  V30 7222 C 694.192 -0.760405 2.16219 0
M  V30 7223 C 695.192 -1.16595 1.10735 0
M  V30 7224 O 696.382 -1.08472 1.36306 0
M  V30 7225 C 693.514 -2.03358 2.73603 0
M  V30 7226 H 694.707 -0.243173 2.98912 0
M  V30 7227 H 692.26 -0.0893139 1.56045 0
M  V30 7228 H 692.995 -2.59416 1.94612 0
M  V30 7229 H 692.78 -1.75186 3.50788 0
M  V30 7230 H 694.27 -2.69081 3.19351 0
M  V30 7231 N 694.707 -1.5719 -0.113559 0
M  V30 7232 C 695.955 -1.84772 -0.818761 0
M  V30 7233 C 696.276 -0.746196 -1.80158 0
M  V30 7234 O 695.546 0.229305 -1.94553 0
M  V30 7235 H 694.126 -0.681737 -0.305359 0
M  V30 7236 H 696.788 -1.94645 -0.0995845 0
M  V30 7237 H 695.884 -2.80878 -1.36067 0
M  V30 7238 N 696.185 0.383891 -1.52853 0
M  V30 7239 C 697.132 1.46924 -1.77995 0
M  V30 7240 C 698.102 1.53958 -0.623396 0
M  V30 7241 O 699.287 1.70134 -0.863657 0
M  V30 7242 C 696.427 2.84093 -1.95921 0
M  V30 7243 C 695.54 2.86171 -3.23621 0
M  V30 7244 C 694.675 4.14799 -3.31836 0
M  V30 7245 C 693.714 4.10948 -4.53639 0
M  V30 7246 N 692.851 5.31192 -4.59107 0
M  V30 7247 H 697.691 1.24786 -2.70615 0
M  V30 7248 H 695.228 0.605265 -1.34071 0
M  V30 7249 H 697.186 3.63755 -2.04299 0
M  V30 7250 H 695.816 3.04671 -1.06656 0
M  V30 7251 H 694.868 1.9885 -3.24288 0
M  V30 7252 H 696.18 2.79194 -4.13343 0
M  V30 7253 H 695.334 5.02867 -3.39425 0
M  V30 7254 H 694.073 4.24505 -2.40097 0
M  V30 7255 H 693.078 3.21268 -4.46169 0
M  V30 7256 H 694.303 4.0286 -5.467 0
M  V30 7257 H 692.249 5.41518 -3.70262 0
M  V30 7258 H 692.166 5.26311 -5.42708 0
M  V30 7259 H 693.434 6.21143 -4.70958 0
M  V30 7260 N 697.663 1.43903 0.642637 0
M  V30 7261 C 698.909 1.46296 1.40447 0
M  V30 7262 C 699.242 0.0908361 1.93987 0
M  V30 7263 O 698.517 -0.889884 1.72949 0
M  V30 7264 C 698.8 2.51399 2.57819 0
M  V30 7265 C 698.653 3.97926 2.09702 0
M  V30 7266 C 699.972 2.53125 3.60022 0
M  V30 7267 H 697.091 0.532676 0.509338 0
M  V30 7268 H 699.733 1.75515 0.727635 0
M  V30 7269 H 697.883 2.26614 3.1556 0
M  V30 7270 H 699.555 4.33804 1.5688 0
M  V30 7271 H 697.798 4.10252 1.40982 0
M  V30 7272 H 698.469 4.67096 2.94152 0
M  V30 7273 H 700.945 2.75242 3.12059 0
M  V30 7274 H 699.821 3.28589 4.39682 0
M  V30 7275 H 700.082 1.56895 4.13324 0
M  V30 7276 N 699.141 -0.881989 1.30609 0
M  V30 7277 C 700.073 -1.99375 1.13058 0
M  V30 7278 C 701.086 -1.62636 0.0729879 0
M  V30 7279 O 702.275 -1.75621 0.319301 0
M  V30 7280 C 699.375 -3.31536 0.702651 0
M  V30 7281 C 698.548 -3.96693 1.84265 0
M  V30 7282 C 697.607 -5.07158 1.40277 0
M  V30 7283 O 696.633 -5.28628 2.11048 0
M  V30 7284 N 697.835 -5.79808 0.283449 0
M  V30 7285 H 700.6 -2.14981 2.08814 0
M  V30 7286 H 698.161 -1.05526 1.22784 0
M  V30 7287 H 700.153 -4.02804 0.391331 0
M  V30 7288 H 698.723 -3.12175 -0.162954 0
M  V30 7289 H 697.943 -3.1856 2.32192 0
M  V30 7290 H 699.231 -4.36964 2.60653 0
M  V30 7291 H 698.629 -5.64871 -0.306189 0
M  V30 7292 H 697.186 -6.51792 0.0315985 0
M  V30 7293 N 700.619 -1.13374 -1.09472 0
M  V30 7294 C 702.03 -0.90801 -1.63132 0
M  V30 7295 C 702.381 0.555576 -1.8817 0
M  V30 7296 O 701.506 1.42218 -1.63104 0
M  V30 7297 C 702.101 -1.64182 -2.96361 0
M  V30 7298 C 700.66 -1.46197 -3.46848 0
M  V30 7299 C 699.807 -1.67134 -2.21273 0
M  V30 7300 H 702.758 -1.2871 -0.928411 0
M  V30 7301 H 702.779 -1.09863 -3.64294 0
M  V30 7302 H 702.291 -2.707 -2.78106 0
M  V30 7303 H 700.392 -0.419788 -3.70228 0
M  V30 7304 H 700.505 -2.22472 -4.24315 0
M  V30 7305 H 698.869 -1.09616 -2.29905 0
M  V30 7306 H 699.652 -2.74971 -2.05538 0
M  V30 7307 N 702.098 1.27442 -0.927168 0
M  V30 7308 C 703.323 1.99036 -0.583042 0
M  V30 7309 C 703.748 1.68711 0.83176 0
M  V30 7310 O 703.106 0.927081 1.55804 0
M  V30 7311 C 703.154 3.51271 -0.814925 0
M  V30 7312 O 702.258 4.12226 0.119742 0
M  V30 7313 H 701.599 0.624883 -0.224538 0
M  V30 7314 H 704.129 1.62263 -1.24628 0
M  V30 7315 H 704.139 4.01411 -0.730282 0
M  V30 7316 H 702.814 3.72676 -1.84623 0
M  V30 7317 H 701.391 3.72897 -0.0147688 0
M  V30 7318 N 703.576 0.692616 1.41565 0
M  V30 7319 C 704.853 0.150496 1.9502 0
M  V30 7320 C 705.233 -1.33881 1.63215 0
M  V30 7321 O 704.581 -2.08378 0.937598 0
M  V30 7322 C 704.791 0.438636 3.46233 0
M  V30 7323 C 706.139 0.364777 4.2303 0
M  V30 7324 O 707.163 0.373383 3.54238 0
M  V30 7325 O 706.022 0.32234 5.45549 0
M  V30 7326 H 703.116 0.0132454 0.826894 0
M  V30 7327 H 705.662 0.768574 1.51298 0
M  V30 7328 H 704.434 1.46962 3.62654 0
M  V30 7329 H 704.057 -0.210562 3.97042 0
M  V30 7330 N 705.054 -1.51416 0.437162 0
M  V30 7331 C 705.986 -2.255 -0.410171 0
M  V30 7332 C 706.999 -1.29511 -0.986444 0
M  V30 7333 O 708.188 -1.55266 -0.880614 0
M  V30 7334 C 705.288 -2.99511 -1.58575 0
M  V30 7335 C 704.461 -4.22595 -1.12839 0
M  V30 7336 C 703.52 -4.79187 -2.17407 0
M  V30 7337 O 702.546 -5.4103 -1.76849 0
M  V30 7338 N 703.748 -4.63204 -3.49889 0
M  V30 7339 H 706.513 -2.98856 0.224783 0
M  V30 7340 H 704.074 -1.59699 0.266041 0
M  V30 7341 H 706.066 -3.34258 -2.28152 0
M  V30 7342 H 704.636 -2.29167 -2.12606 0
M  V30 7343 H 703.856 -3.93344 -0.259695 0
M  V30 7344 H 705.144 -5.02468 -0.800196 0
M  V30 7345 H 704.542 -4.13945 -3.85573 0
M  V30 7346 H 703.099 -5.02313 -4.15361 0
M  V30 7347 N 706.532 -0.168513 -1.56696 0
M  V30 7348 C 707.778 0.477865 -1.9709 0
M  V30 7349 C 708.111 1.63084 -1.05438 0
M  V30 7350 O 707.386 1.94238 -0.10095 0
M  V30 7351 C 707.669 0.963521 -3.4697 0
M  V30 7352 C 707.522 -0.189443 -4.49401 0
M  V30 7353 C 708.841 1.83813 -3.99876 0
M  V30 7354 H 705.96 0.172229 -0.716593 0
M  V30 7355 H 708.602 -0.254083 -1.88293 0
M  V30 7356 H 706.752 1.58724 -3.54597 0
M  V30 7357 H 708.424 -0.826451 -4.53836 0
M  V30 7358 H 706.667 -0.845366 -4.25483 0
M  V30 7359 H 707.338 0.192446 -5.51664 0
M  V30 7360 H 709.814 1.31235 -3.94863 0
M  V30 7361 H 708.69 2.14697 -5.0517 0
M  V30 7362 H 708.951 2.78289 -3.43523 0
M  V30 7363 N 708.01 1.57248 0.105221 0
M  V30 7364 C 709.258 1.85204 0.808951 0
M  V30 7365 C 709.579 0.75574 1.7976 0
M  V30 7366 O 708.849 -0.218984 1.94672 0
M  V30 7367 H 707.429 0.683346 0.301739 0
M  V30 7368 H 710.091 1.94695 0.0892605 0
M  V30 7369 H 709.187 2.81595 1.34575 0
M  V30 7370 N 709.488 -0.375779 1.53054 0
M  V30 7371 C 710.435 -1.45978 1.78771 0
M  V30 7372 C 711.405 -1.53625 0.631552 0
M  V30 7373 O 712.59 -1.69674 0.872667 0
M  V30 7374 C 709.73 -2.8305 1.97425 0
M  V30 7375 C 708.843 -2.84451 3.25134 0
M  V30 7376 C 707.978 -4.13034 3.34031 0
M  V30 7377 C 707.017 -4.08536 4.55812 0
M  V30 7378 N 706.154 -5.2875 4.61918 0
M  V30 7379 H 710.994 -1.23349 2.71273 0
M  V30 7380 H 708.531 -0.598147 1.3439 0
M  V30 7381 H 710.489 -3.62666 2.06225 0
M  V30 7382 H 709.119 -3.04101 1.0827 0
M  V30 7383 H 708.171 -1.97127 3.25338 0
M  V30 7384 H 709.483 -2.76998 4.14818 0
M  V30 7385 H 708.637 -5.0106 3.42087 0
M  V30 7386 H 707.376 -4.23226 2.42345 0
M  V30 7387 H 706.381 -3.18897 4.47867 0
M  V30 7388 H 707.606 -3.99955 5.48828 0
M  V30 7389 H 705.552 -5.39547 3.73129 0
M  V30 7390 H 705.469 -5.23426 5.45492 0
M  V30 7391 H 706.737 -6.18637 4.74245 0
M  V30 7392 N 710.966 -1.44241 -0.634997 0
M  V30 7393 C 712.212 -1.47038 -1.39669 0
M  V30 7394 C 712.545 -0.101122 -1.93937 0
M  V30 7395 O 711.82 0.880699 -1.73418 0
M  V30 7396 C 712.103 -2.52763 -2.56482 0
M  V30 7397 C 711.956 -3.99032 -2.07589 0
M  V30 7398 C 713.275 -2.55031 -3.58674 0
M  V30 7399 H 710.394 -0.53537 -0.506506 0
M  V30 7400 H 713.036 -1.75898 -0.718317 0
M  V30 7401 H 711.186 -2.28284 -3.14354 0
M  V30 7402 H 712.858 -4.3463 -1.54577 0
M  V30 7403 H 711.101 -4.10994 -1.38804 0
M  V30 7404 H 711.772 -4.68649 -2.91671 0
M  V30 7405 H 714.248 -2.76893 -3.10595 0
M  V30 7406 H 713.124 -3.30916 -4.37934 0
M  V30 7407 H 713.385 -1.59085 -4.12486 0
M  V30 7408 N 712.444 0.87505 -1.31075 0
M  V30 7409 C 713.693 1.62245 -1.19831 0
M  V30 7410 C 714.006 1.94078 0.24357 0
M  V30 7411 O 715.212 2.67265 0.477646 0
M  V30 7412 C 713.668 2.92464 -2.09744 0
M  V30 7413 C 713.276 2.68134 -3.58898 0
M  V30 7414 C 715.02 3.70449 -2.07287 0
M  V30 7415 C 712.927 3.9423 -4.40836 0
M  V30 7416 H 711.857 0.608741 -0.444916 0
M  V30 7417 H 714.508 0.967947 -1.55894 0
M  V30 7418 H 712.89 3.59262 -1.66574 0
M  V30 7419 H 714.064 2.09776 -4.10281 0
M  V30 7420 H 712.379 2.03511 -3.6328 0
M  V30 7421 H 714.976 4.63983 -2.65752 0
M  V30 7422 H 715.319 4.02611 -1.05876 0
M  V30 7423 H 715.852 3.10528 -2.48631 0
M  V30 7424 H 712.591 3.67221 -5.42982 0
M  V30 7425 H 712.111 4.52058 -3.94213 0
M  V30 7426 H 713.79 4.62162 -4.52786 0
M  V30 7427 N 713.922 1.13953 1.08869 0
M  V30 7428 C 715.152 0.926825 1.84644 0
M  V30 7429 C 715.56 -0.527941 1.81685 0
M  V30 7430 O 714.903 -1.37742 1.21543 0
M  V30 7431 C 714.965 1.34416 3.33426 0
M  V30 7432 C 714.629 2.81351 3.60126 0
M  V30 7433 C 715.626 3.79486 3.55368 0
M  V30 7434 C 713.311 3.1865 3.88288 0
M  V30 7435 C 715.305 5.1293 3.78393 0
M  V30 7436 C 712.992 4.5227 4.10968 0
M  V30 7437 C 713.99 5.4922 4.06013 0
M  V30 7438 O 713.678 6.80429 4.28102 0
M  V30 7439 H 713.41 0.33013 0.589907 0
M  V30 7440 H 715.964 1.51738 1.38436 0
M  V30 7441 H 714.194 0.696901 3.80368 0
M  V30 7442 H 715.883 1.10302 3.90626 0
M  V30 7443 H 716.649 3.52017 3.3363 0
M  V30 7444 H 712.528 2.43785 3.91267 0
M  V30 7445 H 716.072 5.88591 3.74442 0
M  V30 7446 H 711.969 4.79462 4.32188 0
M  V30 7447 H 712.737 6.86617 4.45533 0
M  V30 7448 N 715.4 -1.26948 0.933913 0
M  V30 7449 C 716.347 -2.26635 0.436484 0
M  V30 7450 C 717.317 -1.58397 -0.499953 0
M  V30 7451 O 718.502 -1.86171 -0.417753 0
M  V30 7452 C 715.642 -3.43803 -0.298951 0
M  V30 7453 C 714.755 -4.26736 0.672316 0
M  V30 7454 C 713.89 -5.31134 -0.0835872 0
M  V30 7455 C 712.929 -6.05742 0.879979 0
M  V30 7456 N 712.066 -7.01926 0.156301 0
M  V30 7457 H 716.906 -2.68558 1.29154 0
M  V30 7458 H 714.443 -1.32052 0.648118 0
M  V30 7459 H 716.401 -4.10554 -0.741723 0
M  V30 7460 H 715.031 -3.02814 -1.1182 0
M  V30 7461 H 714.083 -3.59842 1.23361 0
M  V30 7462 H 715.395 -4.78502 1.40846 0
M  V30 7463 H 714.549 -6.03863 -0.585984 0
M  V30 7464 H 713.288 -4.80188 -0.852661 0
M  V30 7465 H 712.293 -5.31846 1.39357 0
M  V30 7466 H 713.518 -6.58777 1.64894 0
M  V30 7467 H 711.464 -6.53301 -0.594413 0
M  V30 7468 H 711.381 -7.51409 0.831906 0
M  V30 7469 H 712.649 -7.78821 -0.325239 0
M  V30 7470 N 716.879 -0.700114 -1.41195 0
M  V30 7471 C 717.811 0.00155823 -2.292 0
M  V30 7472 C 718.824 0.739736 -1.45023 0
M  V30 7473 O 720.013 0.589684 -1.68478 0
M  V30 7474 C 717.113 1.02635 -3.22985 0
M  V30 7475 C 716.286 0.356871 -4.35942 0
M  V30 7476 C 715.345 1.28491 -5.10271 0
M  V30 7477 O 714.371 0.775562 -5.63892 0
M  V30 7478 N 715.573 2.61699 -5.18164 0
M  V30 7479 H 718.338 -0.754008 -2.9006 0
M  V30 7480 H 715.899 -0.546504 -1.52397 0
M  V30 7481 H 717.891 1.64902 -3.6958 0
M  V30 7482 H 716.461 1.68341 -2.63401 0
M  V30 7483 H 715.681 -0.445753 -3.91672 0
M  V30 7484 H 716.969 -0.108469 -5.08684 0
M  V30 7485 H 716.367 3.05594 -4.76056 0
M  V30 7486 H 714.924 3.19149 -5.6832 0
M  V30 7487 N 718.357 1.51182 -0.445186 0
M  V30 7488 C 719.604 2.02152 0.118645 0
M  V30 7489 C 719.932 1.32888 1.42025 0
M  V30 7490 O 719.187 0.435041 1.90803 0
M  V30 7491 C 719.486 3.55408 0.376797 0
M  V30 7492 C 719.152 4.43008 -0.839945 0
M  V30 7493 C 717.814 4.66669 -1.17361 0
M  V30 7494 C 720.166 4.9435 -1.65127 0
M  V30 7495 C 717.494 5.38919 -2.31913 0
M  V30 7496 C 719.846 5.67857 -2.78786 0
M  V30 7497 C 718.51 5.89779 -3.12597 0
M  V30 7498 H 717.78 0.739727 0.0434152 0
M  V30 7499 H 720.427 1.82055 -0.593984 0
M  V30 7500 H 718.732 3.73879 1.1714 0
M  V30 7501 H 720.429 3.92388 0.826602 0
M  V30 7502 H 717.019 4.24793 -0.569958 0
M  V30 7503 H 721.203 4.75947 -1.4067 0
M  V30 7504 H 716.459 5.54105 -2.58413 0
M  V30 7505 H 720.633 6.06628 -3.42017 0
M  V30 7506 H 718.26 6.45542 -4.01471 0
M  V30 7507 N 719.835 0.176821 1.56605 0
M  V30 7508 C 720.782 -0.751312 2.18229 0
M  V30 7509 C 721.752 -1.22297 1.12395 0
M  V30 7510 O 722.937 -1.29015 1.40569 0
M  V30 7511 C 720.077 -1.97291 2.83143 0
M  V30 7512 C 719.19 -1.54431 4.03454 0
M  V30 7513 C 718.325 -2.72 4.56278 0
M  V30 7514 C 717.364 -2.25657 5.68986 0
M  V30 7515 N 716.501 -3.36338 6.16296 0
M  V30 7516 H 721.341 -0.219033 2.97194 0
M  V30 7517 H 718.878 -0.0963803 1.46784 0
M  V30 7518 H 720.836 -2.68949 3.1894 0
M  V30 7519 H 719.466 -2.4788 2.06773 0
M  V30 7520 H 718.518 -0.724273 3.73441 0
M  V30 7521 H 719.83 -1.16417 4.85024 0
M  V30 7522 H 718.984 -3.51806 4.94285 0
M  V30 7523 H 717.723 -3.13277 3.73777 0
M  V30 7524 H 716.728 -1.44299 5.30526 0
M  V30 7525 H 717.953 -1.85432 6.53293 0
M  V30 7526 H 715.899 -3.7718 5.36723 0
M  V30 7527 H 715.816 -3.02435 6.9287 0
M  V30 7528 H 717.084 -4.16413 6.58954 0
M  V30 7529 N 721.313 -1.57302 -0.09688 0
M  V30 7530 C 722.245 -1.98618 -1.14384 0
M  V30 7531 C 723.258 -0.888483 -1.36418 0
M  V30 7532 O 724.447 -1.16661 -1.35101 0
M  V30 7533 C 721.547 -2.28838 -2.49973 0
M  V30 7534 C 720.72 -3.60132 -2.48241 0
M  V30 7535 C 719.779 -3.7831 -3.65743 0
M  V30 7536 O 718.805 -4.50183 -3.48316 0
M  V30 7537 N 720.007 -3.18752 -4.85157 0
M  V30 7538 H 722.772 -2.8904 -0.792202 0
M  V30 7539 H 720.333 -1.59356 -0.285883 0
M  V30 7540 H 722.325 -2.38193 -3.27179 0
M  V30 7541 H 720.895 -1.44431 -2.77233 0
M  V30 7542 H 720.115 -3.61763 -1.56593 0
M  V30 7543 H 721.403 -4.46389 -2.4416 0
M  V30 7544 H 720.801 -2.60368 -5.0222 0
M  V30 7545 H 719.358 -3.33595 -5.59962 0
M  V30 7546 N 722.791 0.367657 -1.53252 0
M  V30 7547 C 724.04 1.10782 -1.68554 0
M  V30 7548 C 724.353 1.90523 -0.442765 0
M  V30 7549 O 725.559 2.6729 -0.47629 0
M  V30 7550 C 724.015 2.01863 -2.97959 0
M  V30 7551 C 723.623 1.27443 -4.29491 0
M  V30 7552 C 725.367 2.75883 -3.22628 0
M  V30 7553 C 723.274 2.17414 -5.49987 0
M  V30 7554 H 722.204 0.417272 -0.628013 0
M  V30 7555 H 724.855 0.368971 -1.79752 0
M  V30 7556 H 723.237 2.7947 -2.80558 0
M  V30 7557 H 724.411 0.549138 -4.57516 0
M  V30 7558 H 722.726 0.652935 -4.11249 0
M  V30 7559 H 725.323 3.43421 -4.09837 0
M  V30 7560 H 725.666 3.41138 -2.38601 0
M  V30 7561 H 726.199 2.0536 -3.40693 0
M  V30 7562 H 722.938 1.5674 -6.36485 0
M  V30 7563 H 722.458 2.87799 -5.26243 0
M  V30 7564 H 724.137 2.77019 -5.84696 0
M  V30 7565 N 724.269 1.44576 0.627338 0
M  V30 7566 C 725.685 1.28546 0.945938 0
M  V30 7567 C 725.885 0.224003 2.00251 0
M  V30 7568 O 724.941 -0.388817 2.49488 0
M  V30 7569 C 726.254 2.65825 1.40561 0
M  V30 7570 C 727.802 2.73566 1.52088 0
M  V30 7571 C 728.277 4.11323 2.01438 0
M  V30 7572 N 729.768 4.13519 2.08702 0
M  V30 7573 C 730.503 5.16964 2.48065 0
M  V30 7574 N 729.999 6.30768 2.86538 0
M  V30 7575 N 731.792 5.04319 2.48232 0
M  V30 7576 H 723.943 2.1228 -0.0713567 0
M  V30 7577 H 726.206 0.947503 0.0307081 0
M  V30 7578 H 725.912 3.44591 0.703539 0
M  V30 7579 H 725.786 2.92969 2.37591 0
M  V30 7580 H 728.173 1.95116 2.21391 0
M  V30 7581 H 728.254 2.50159 0.534237 0
M  V30 7582 H 727.898 4.9025 1.32729 0
M  V30 7583 H 727.828 4.32109 3.0098 0
M  V30 7584 H 730.319 3.31385 1.81638 0
M  V30 7585 H 730.632 7.0551 3.15398 0
M  V30 7586 H 728.977 6.342 2.84281 0
M  V30 7587 H 732.168 4.14465 2.17569 0
M  V30 7588 H 732.341 5.85059 2.78585 0
M  V30 7589 N 725.747 -0.868086 1.31537 0
M  V30 7590 C 726.677 -1.99131 1.21939 0
M  V30 7591 C 727.658 -1.69768 0.106166 0
M  V30 7592 O 728.843 -1.92006 0.291081 0
M  V30 7593 C 725.973 -3.34676 0.927879 0
M  V30 7594 C 724.927 -3.7835 2.00088 0
M  V30 7595 C 724.253 -5.11375 1.56203 0
M  V30 7596 C 725.553 -3.95256 3.41424 0
M  V30 7597 H 727.247 -2.07419 2.15911 0
M  V30 7598 H 724.793 -0.996569 1.03945 0
M  V30 7599 H 726.746 -4.12793 0.847327 0
M  V30 7600 H 725.47 -3.26565 -0.0475042 0
M  V30 7601 H 724.129 -3.02474 2.07135 0
M  V30 7602 H 723.777 -4.99709 0.57445 0
M  V30 7603 H 723.477 -5.41568 2.27985 0
M  V30 7604 H 725.001 -5.92001 1.49558 0
M  V30 7605 H 726.415 -4.63764 3.3704 0
M  V30 7606 H 724.812 -4.36849 4.1144 0
M  V30 7607 H 725.882 -2.98579 3.82072 0
M  V30 7608 N 727.225 -1.14528 -1.08264 0
M  V30 7609 C 728.453 -0.937964 -1.84418 0
M  V30 7610 C 728.868 0.51357 -1.81681 0
M  V30 7611 O 728.225 1.35591 -1.22153 0
M  V30 7612 C 728.276 -1.43272 -3.31897 0
M  V30 7613 O 727.997 -2.82738 -3.34651 0
M  V30 7614 C 729.498 -1.26555 -4.24851 0
M  V30 7615 H 726.718 -0.333704 -0.582136 0
M  V30 7616 H 729.262 -1.52076 -1.36723 0
M  V30 7617 H 727.417 -0.892653 -3.76975 0
M  V30 7618 H 727.831 -3.04971 -4.26724 0
M  V30 7619 H 729.305 -1.66031 -5.26439 0
M  V30 7620 H 729.782 -0.208589 -4.38704 0
M  V30 7621 H 730.388 -1.79423 -3.856 0
M  V30 7622 N 728.703 1.26451 -0.940633 0
M  V30 7623 C 729.98 1.88947 -0.505811 0
M  V30 7624 C 730.36 1.85011 1.01657 0
M  V30 7625 O 729.708 1.30406 1.87634 0
M  V30 7626 C 729.918 3.32304 -1.06654 0
M  V30 7627 C 731.266 4.09153 -1.13486 0
M  V30 7628 O 732.29 3.41371 -1.01708 0
M  V30 7629 O 731.149 5.30369 -1.31797 0
M  V30 7630 H 728.243 0.810422 -0.164759 0
M  V30 7631 H 730.789 1.34625 -1.03316 0
M  V30 7632 H 729.561 3.29527 -2.11015 0
M  V30 7633 H 729.184 3.94164 -0.521603 0
M  V30 7634 N 730.181 0.707592 1.40822 0
M  V30 7635 C 731.409 0.253073 2.05346 0
M  V30 7636 C 731.824 -1.10218 1.53289 0
M  V30 7637 O 731.181 -1.69112 0.686105 0
M  V30 7638 C 731.232 0.215411 3.60858 0
M  V30 7639 O 730.953 1.51714 4.10992 0
M  V30 7640 C 732.454 -0.258636 4.42545 0
M  V30 7641 H 729.674 0.115256 0.661027 0
M  V30 7642 H 732.218 0.963555 1.80377 0
M  V30 7643 H 730.373 -0.445978 3.84824 0
M  V30 7644 H 730.787 1.41226 5.05129 0
M  V30 7645 H 732.261 -0.233849 5.51504 0
M  V30 7646 H 732.738 -1.2995 4.19535 0
M  V30 7647 H 733.344 0.372186 4.23668 0
M  V30 7648 N 731.66 -1.50943 0.453197 0
M  V30 7649 C 732.59 -2.31005 -0.34044 0
M  V30 7650 C 733.571 -1.37112 -1.00669 0
M  V30 7651 O 734.756 -1.66033 -1.0073 0
M  V30 7652 C 731.886 -3.16358 -1.433 0
M  V30 7653 C 730.84 -4.18658 -0.889363 0
M  V30 7654 C 730.166 -4.92633 -2.07887 0
M  V30 7655 C 731.466 -5.22227 0.0871142 0
M  V30 7656 H 733.16 -2.97601 0.327723 0
M  V30 7657 H 730.706 -1.43119 0.159054 0
M  V30 7658 H 732.659 -3.71155 -1.99555 0
M  V30 7659 H 731.383 -2.47613 -2.12968 0
M  V30 7660 H 730.042 -3.64936 -0.348915 0
M  V30 7661 H 729.69 -4.20376 -2.76211 0
M  V30 7662 H 729.39 -5.61819 -1.72143 0
M  V30 7663 H 730.914 -5.50258 -2.64666 0
M  V30 7664 H 732.328 -5.72001 -0.385656 0
M  V30 7665 H 730.725 -5.99032 0.357926 0
M  V30 7666 H 731.795 -4.74077 1.01879 0
M  V30 7667 N 733.138 -0.185124 -1.56509 0
M  V30 7668 C 734.386 0.455357 -1.96903 0
M  V30 7669 C 734.707 1.62839 -1.07277 0
M  V30 7670 O 733.977 1.95385 -0.141966 0
M  V30 7671 H 732.557 0.171218 -0.727113 0
M  V30 7672 H 735.219 -0.26953 -1.93027 0
M  V30 7673 H 734.315 0.80616 -3.01509 0
M  V30 7674 N 734.616 1.57351 0.0885366 0
M  V30 7675 C 736.032 1.53331 0.442916 0
M  V30 7676 C 736.232 0.902831 1.80142 0
M  V30 7677 O 735.288 0.498147 2.47537 0
M  V30 7678 C 736.601 2.98036 0.399372 0
M  V30 7679 C 738.149 3.09286 0.480759 0
M  V30 7680 C 738.624 4.5561 0.467296 0
M  V30 7681 N 740.115 4.60182 0.52786 0
M  V30 7682 C 740.85 5.70857 0.539388 0
M  V30 7683 N 740.346 6.90944 0.506729 0
M  V30 7684 N 742.139 5.59051 0.584691 0
M  V30 7685 H 734.29 1.96709 -0.801215 0
M  V30 7686 H 736.553 0.899639 -0.298922 0
M  V30 7687 H 736.259 3.47656 -0.531806 0
M  V30 7688 H 736.133 3.57066 1.21589 0
M  V30 7689 H 738.52 2.5965 1.40236 0
M  V30 7690 H 738.601 2.53197 -0.364023 0
M  V30 7691 H 738.245 5.05899 -0.450384 0
M  V30 7692 H 738.175 5.09544 1.32938 0
M  V30 7693 H 740.666 3.73757 0.558028 0
M  V30 7694 H 740.979 7.71055 0.518989 0
M  V30 7695 H 739.324 6.93384 0.473675 0
M  V30 7696 H 742.515 4.64138 0.607781 0
M  V30 7697 H 742.688 6.45307 0.590206 0
M  V30 7698 N 736.094 -0.359525 1.53444 0
M  V30 7699 C 737.024 -1.44662 1.8329 0
M  V30 7700 C 738.005 -1.55617 0.68683 0
M  V30 7701 O 739.19 -1.70086 0.93725 0
M  V30 7702 C 736.32 -2.81923 2.02822 0
M  V30 7703 C 735.274 -2.85787 3.18606 0
M  V30 7704 C 734.6 -4.25781 3.23442 0
M  V30 7705 C 735.9 -2.52762 4.57065 0
M  V30 7706 H 737.594 -1.19934 2.74329 0
M  V30 7707 H 735.14 -0.575517 1.31999 0
M  V30 7708 H 737.093 -3.58005 2.22285 0
M  V30 7709 H 735.817 -3.08051 1.085 0
M  V30 7710 H 734.476 -2.12157 2.98973 0
M  V30 7711 H 734.124 -4.48994 2.26745 0
M  V30 7712 H 733.824 -4.29281 4.01238 0
M  V30 7713 H 735.348 -5.03727 3.45096 0
M  V30 7714 H 736.762 -3.18557 4.76649 0
M  V30 7715 H 735.159 -2.67569 5.37147 0
M  V30 7716 H 736.229 -1.47993 4.61764 0
M  V30 7717 N 737.572 -1.44907 -0.619662 0
M  V30 7718 C 738.797 -1.52021 -1.41083 0
M  V30 7719 C 739.222 -0.14976 -1.87503 0
M  V30 7720 O 738.58 0.863303 -1.59426 0
M  V30 7721 C 738.628 -2.49911 -2.59955 0
M  V30 7722 O 737.732 -2.00857 -3.60181 0
M  V30 7723 H 737.073 -0.512912 -0.421684 0
M  V30 7724 H 739.603 -1.90149 -0.755282 0
M  V30 7725 H 739.613 -2.68323 -3.07354 0
M  V30 7726 H 738.288 -3.4945 -2.25516 0
M  V30 7727 H 736.865 -1.92265 -3.19513 0
M  V30 7728 N 739.05 0.861098 -1.31996 0
M  V30 7729 C 740 1.95703 -1.1698 0
M  V30 7730 C 740.984 1.60709 -0.0784201 0
M  V30 7731 O 742.176 1.74365 -0.304262 0
M  V30 7732 C 739.305 3.31606 -0.888388 0
M  V30 7733 C 738.391 3.7284 -2.02117 0
M  V30 7734 N 738.782 3.85957 -3.26911 0
M  V30 7735 C 737.08 4.02419 -1.92289 0
M  V30 7736 C 737.781 4.21333 -4.01065 0
M  V30 7737 N 736.757 4.32502 -3.29307 0
M  V30 7738 H 740.559 2.03968 -2.11599 0
M  V30 7739 H 738.073 1.05245 -1.23682 0
M  V30 7740 H 740.07 4.09881 -0.761782 0
M  V30 7741 H 738.73 3.24662 0.0494898 0
M  V30 7742 H 739.741 3.70449 -3.61923 0
M  V30 7743 H 736.418 4.03814 -1.06022 0
M  V30 7744 H 737.808 4.39005 -5.08649 0
M  V30 7745 N 740.528 1.15101 1.07655 0
M  V30 7746 C 741.777 0.918528 1.79572 0
M  V30 7747 C 742.09 -0.555922 1.87534 0
M  V30 7748 O 743.296 -0.905893 2.55941 0
M  V30 7749 C 741.752 1.59394 3.22679 0
M  V30 7750 C 741.36 3.1052 3.22927 0
M  V30 7751 C 743.104 1.44289 3.99225 0
M  V30 7752 C 741.011 3.70862 4.60668 0
M  V30 7753 H 739.941 0.340006 0.672987 0
M  V30 7754 H 742.592 1.38079 1.20857 0
M  V30 7755 H 740.974 1.05936 3.81567 0
M  V30 7756 H 742.148 3.70708 2.737 0
M  V30 7757 H 740.463 3.25351 2.59876 0
M  V30 7758 H 743.06 1.86766 5.01022 0
M  V30 7759 H 743.403 0.389975 4.14469 0
M  V30 7760 H 743.936 1.94826 3.46825 0
M  V30 7761 H 740.675 4.7604 4.50628 0
M  V30 7762 H 740.195 3.15456 5.10145 0
M  V30 7763 H 741.874 3.71607 5.29639 0
M  V30 7764 N 742.006 -1.2595 0.947325 0
M  V30 7765 C 742.936 -2.28521 0.479604 0
M  V30 7766 C 743.917 -1.63469 -0.470293 0
M  V30 7767 O 745.102 -1.90627 -0.370824 0
M  V30 7768 C 742.232 -3.46397 -0.250289 0
M  V30 7769 C 741.186 -4.23578 0.613643 0
M  V30 7770 C 740.512 -5.34131 -0.246568 0
M  V30 7771 C 741.812 -4.86979 1.88809 0
M  V30 7772 H 743.506 -2.67895 1.33688 0
M  V30 7773 H 741.052 -1.28783 0.644274 0
M  V30 7774 H 743.005 -4.17269 -0.588576 0
M  V30 7775 H 741.729 -3.05993 -1.14175 0
M  V30 7776 H 740.388 -3.54478 0.93491 0
M  V30 7777 H 740.036 -4.89968 -1.13756 0
M  V30 7778 H 739.736 -5.86683 0.328123 0
M  V30 7779 H 741.26 -6.07839 -0.579986 0
M  V30 7780 H 742.674 -5.50034 1.61666 0
M  V30 7781 H 741.071 -5.49675 2.40784 0
M  V30 7782 H 742.141 -4.09575 2.5957 0
M  V30 7783 N 743.484 -0.715051 -1.40445 0
M  V30 7784 C 744.394 -0.0631624 -2.34515 0
M  V30 7785 C 745.41 0.744397 -1.57273 0
M  V30 7786 O 746.586 0.677475 -1.89663 0
M  V30 7787 C 743.651 0.847915 -3.36172 0
M  V30 7788 C 742.712 0.0303655 -4.29289 0
M  V30 7789 C 741.945 0.898051 -5.2609 0
M  V30 7790 O 742.168 2.13729 -5.28844 0
M  V30 7791 O 741.102 0.337328 -6.00954 0
M  V30 7792 H 744.928 -0.839078 -2.91879 0
M  V30 7793 H 742.513 -0.475527 -1.4163 0
M  V30 7794 H 744.395 1.3698 -3.98515 0
M  V30 7795 H 743.07 1.60299 -2.81222 0
M  V30 7796 H 741.977 -0.536573 -3.70232 0
M  V30 7797 H 743.31 -0.686474 -4.87389 0
M  V30 7798 N 744.962 1.50701 -0.461195 0
M  V30 7799 C 745.895 2.24948 0.383863 0
M  V30 7800 C 746.873 1.27851 1.00464 0
M  V30 7801 O 748.057 1.57049 1.04249 0
M  V30 7802 C 745.184 3.01818 1.537 0
M  V30 7803 C 744.23 4.13762 1.03457 0
M  V30 7804 S 745.063 5.35483 -0.0427485 0
M  V30 7805 C 746.219 6.15898 1.11449 0
M  V30 7806 H 746.452 2.96277 -0.246425 0
M  V30 7807 H 743.985 1.52428 -0.245961 0
M  V30 7808 H 745.943 3.467 2.19794 0
M  V30 7809 H 744.604 2.30034 2.13877 0
M  V30 7810 H 743.797 4.66914 1.89757 0
M  V30 7811 H 743.399 3.71265 0.4515 0
M  V30 7812 H 745.691 6.46431 2.02813 0
M  V30 7813 H 746.634 7.05359 0.622444 0
M  V30 7814 H 747.042 5.47777 1.36385 0
M  V30 7815 N 746.441 0.193421 1.56409 0
M  V30 7816 C 747.718 -0.493318 1.89277 0
M  V30 7817 C 748.098 -1.79765 1.10669 0
M  V30 7818 O 747.446 -2.27558 0.207274 0
M  V30 7819 C 747.656 -0.713732 3.41624 0
M  V30 7820 C 749.004 -1.03385 4.11821 0
M  V30 7821 O 750.028 -0.801511 3.47065 0
M  V30 7822 O 748.887 -1.47327 5.26267 0
M  V30 7823 H 745.981 -0.256973 0.786062 0
M  V30 7824 H 748.527 0.23351 1.68086 0
M  V30 7825 H 747.299 0.207446 3.9075 0
M  V30 7826 H 746.922 -1.49308 3.68501 0
M  V30 7827 N 747.919 -1.57396 -0.0801906 0
M  V30 7828 C 748.869 -1.9955 -1.10289 0
M  V30 7829 C 749.853 -0.876234 -1.34948 0
M  V30 7830 O 751.045 -1.14012 -1.35389 0
M  V30 7831 C 748.174 -2.43596 -2.419 0
M  V30 7832 C 747.26 -3.6224 -2.20551 0
M  V30 7833 N 747.651 -4.76693 -1.69109 0
M  V30 7834 C 745.949 -3.68627 -2.51059 0
M  V30 7835 C 746.65 -5.58577 -1.62379 0
M  V30 7836 N 745.626 -5.02178 -2.0813 0
M  V30 7837 H 749.428 -2.85483 -0.698335 0
M  V30 7838 H 746.942 -1.59837 -0.287395 0
M  V30 7839 H 748.939 -2.72031 -3.15919 0
M  V30 7840 H 747.599 -1.59047 -2.8308 0
M  V30 7841 H 748.61 -4.9915 -1.38092 0
M  V30 7842 H 745.287 -2.94772 -2.95661 0
M  V30 7843 H 746.677 -6.60447 -1.2353 0
M  V30 7844 N 749.397 0.351382 -1.53633 0
M  V30 7845 C 750.644 1.0925 -1.70502 0
M  V30 7846 C 750.972 1.88881 -0.464123 0
M  V30 7847 O 750.227 1.87693 0.554077 0
M  V30 7848 C 750.526 2.06744 -2.91533 0
M  V30 7849 C 750.192 1.43484 -4.27461 0
M  V30 7850 C 748.854 1.2596 -4.64422 0
M  V30 7851 C 751.206 0.978436 -5.11934 0
M  V30 7852 C 748.534 0.614017 -5.83478 0
M  V30 7853 C 750.886 0.346795 -6.31649 0
M  V30 7854 C 749.55 0.15917 -6.6731 0
M  V30 7855 H 748.82 0.399773 -0.623909 0
M  V30 7856 H 751.467 0.372656 -1.87839 0
M  V30 7857 H 749.772 2.85082 -2.68767 0
M  V30 7858 H 751.469 2.64066 -3.01778 0
M  V30 7859 H 748.059 1.5812 -3.98367 0
M  V30 7860 H 752.243 1.1017 -4.83918 0
M  V30 7861 H 747.499 0.457194 -6.09688 0
M  V30 7862 H 751.673 -0.0149864 -6.96398 0
M  V30 7863 H 749.3 -0.343129 -7.59425 0
M  V30 7864 N 750.875 1.45233 0.611969 0
M  V30 7865 C 751.838 1.53189 1.70487 0
M  V30 7866 C 752.838 0.411839 1.55437 0
M  V30 7867 O 754.028 0.675164 1.60584 0
M  V30 7868 C 751.16 1.42422 3.09723 0
M  V30 7869 H 752.353 2.5056 1.64802 0
M  V30 7870 H 749.906 1.32609 0.827318 0
M  V30 7871 H 750.641 0.462185 3.2099 0
M  V30 7872 H 750.426 2.23658 3.22055 0
M  V30 7873 H 751.916 1.51012 3.89339 0
M  V30 7874 N 752.353 -0.854086 1.3245 0
M  V30 7875 C 753.283 -1.97827 1.24044 0
M  V30 7876 C 754.264 -1.69646 0.124166 0
M  V30 7877 O 755.449 -1.91687 0.31143 0
M  V30 7878 C 752.579 -3.33673 0.963324 0
M  V30 7879 C 751.533 -3.76207 2.04089 0
M  V30 7880 C 750.859 -5.0969 1.61618 0
M  V30 7881 C 752.159 -3.91612 3.45597 0
M  V30 7882 H 753.853 -2.05118 2.18099 0
M  V30 7883 H 751.399 -0.985489 1.04996 0
M  V30 7884 H 753.352 -4.11871 0.891061 0
M  V30 7885 H 752.076 -3.26597 -0.0128649 0
M  V30 7886 H 750.735 -3.0026 2.10332 0
M  V30 7887 H 750.383 -4.99072 0.627418 0
M  V30 7888 H 750.083 -5.3912 2.33717 0
M  V30 7889 H 751.607 -5.90381 1.55829 0
M  V30 7890 H 753.021 -4.60163 3.4194 0
M  V30 7891 H 751.418 -4.3246 4.16051 0
M  V30 7892 H 752.488 -2.9451 3.85217 0
M  V30 7893 N 753.831 -1.1567 -1.07043 0
M  V30 7894 C 755.077 -0.9349 -1.79965 0
M  V30 7895 C 755.41 0.536464 -1.86643 0
M  V30 7896 O 754.685 1.39781 -1.35247 0
M  V30 7897 C 754.968 -1.55371 -3.24857 0
M  V30 7898 C 754.821 -3.09589 -3.26305 0
M  V30 7899 C 756.14 -1.24209 -4.22209 0
M  V30 7900 H 753.259 -0.341061 -0.653335 0
M  V30 7901 H 755.901 -1.42883 -1.25237 0
M  V30 7902 H 754.051 -1.13368 -3.71591 0
M  V30 7903 H 755.723 -3.60521 -2.87789 0
M  V30 7904 H 753.966 -3.43315 -2.65174 0
M  V30 7905 H 754.637 -3.48002 -4.28484 0
M  V30 7906 H 757.113 -1.60548 -3.8388 0
M  V30 7907 H 755.989 -1.70119 -5.21872 0
M  V30 7908 H 756.25 -0.15964 -4.41812 0
M  V30 7909 N 755.309 1.25446 -0.953992 0
M  V30 7910 C 756.555 1.9343 -0.60933 0
M  V30 7911 C 756.888 1.74542 0.851388 0
M  V30 7912 O 756.163 1.09014 1.61078 0
M  V30 7913 C 756.446 3.46844 -0.968041 0
M  V30 7914 C 756.299 3.74961 -2.48444 0
M  V30 7915 C 757.618 4.37334 -0.492641 0
M  V30 7916 H 754.737 0.702502 -0.222844 0
M  V30 7917 H 757.379 1.48076 -1.19053 0
M  V30 7918 H 755.529 3.85604 -0.473465 0
M  V30 7919 H 757.201 3.45841 -3.05273 0
M  V30 7920 H 755.444 3.20589 -2.92241 0
M  V30 7921 H 756.115 4.82246 -2.68594 0
M  V30 7922 H 758.591 4.05873 -0.916878 0
M  V30 7923 H 757.467 5.43439 -0.772331 0
M  V30 7924 H 757.728 4.37908 0.607403 0
M  V30 7925 N 756.787 0.722489 1.40064 0
M  V30 7926 C 757.737 0.0506801 2.27944 0
M  V30 7927 C 758.721 -0.725493 1.43615 0
M  V30 7928 O 759.913 -0.596559 1.66644 0
M  V30 7929 C 757.042 -0.865195 3.32219 0
M  V30 7930 C 756.128 -0.0838393 4.24017 0
M  V30 7931 N 756.519 0.936516 4.97054 0
M  V30 7932 C 754.817 -0.315371 4.44884 0
M  V30 7933 C 755.518 1.4066 5.64437 0
M  V30 7934 N 754.494 0.727485 5.3871 0
M  V30 7935 H 758.296 0.832609 2.8186 0
M  V30 7936 H 755.81 0.555691 1.52597 0
M  V30 7937 H 757.807 -1.36186 3.94029 0
M  V30 7938 H 756.467 -1.64642 2.79862 0
M  V30 7939 H 757.478 1.31755 5.0086 0
M  V30 7940 H 754.155 -1.07238 4.03492 0
M  V30 7941 H 755.545 2.25482 6.32936 0
M  V30 7942 N 758.265 -1.50454 0.469181 0
M  V30 7943 C 759.175 -2.32248 -0.331349 0
M  V30 7944 C 760.191 -1.42548 -0.997807 0
M  V30 7945 O 761.367 -1.75602 -0.9862 0
M  V30 7946 C 758.432 -3.17171 -1.40012 0
M  V30 7947 C 757.493 -4.2269 -0.750463 0
M  V30 7948 C 756.726 -5.03554 -1.76831 0
M  V30 7949 O 756.949 -4.85469 -2.99459 0
M  V30 7950 O 755.883 -5.86767 -1.3412 0
M  V30 7951 H 759.709 -3.01821 0.337279 0
M  V30 7952 H 757.294 -1.47602 0.231066 0
M  V30 7953 H 759.176 -3.69871 -2.01924 0
M  V30 7954 H 757.851 -2.50328 -2.05226 0
M  V30 7955 H 756.758 -3.73986 -0.0924446 0
M  V30 7956 H 758.091 -4.91997 -0.14131 0
M  V30 7957 N 759.743 -0.201713 -1.56304 0
M  V30 7958 C 760.675 0.748466 -2.16635 0
M  V30 7959 C 761.688 1.172 -1.12996 0
M  V30 7960 O 762.877 1.10658 -1.40061 0
M  V30 7961 C 759.977 2.02296 -2.719 0
M  V30 7962 C 759.15 1.75818 -4.00508 0
M  V30 7963 C 758.209 2.87779 -4.40533 0
M  V30 7964 O 757.235 2.57101 -5.07826 0
M  V30 7965 N 758.437 4.16287 -4.04581 0
M  V30 7966 H 761.202 0.232505 -2.98797 0
M  V30 7967 H 758.763 -0.0199822 -1.61888 0
M  V30 7968 H 760.755 2.7635 -2.95657 0
M  V30 7969 H 759.325 2.44996 -1.94154 0
M  V30 7970 H 758.545 0.855095 -3.84814 0
M  V30 7971 H 759.833 1.55532 -4.84445 0
M  V30 7972 H 759.231 4.44061 -3.50466 0
M  V30 7973 H 757.788 4.86946 -4.33274 0
M  V30 7974 N 761.222 1.57436 0.0718424 0
M  V30 7975 C 762.471 1.86431 0.769826 0
M  V30 7976 C 762.784 0.794355 1.78744 0
M  V30 7977 O 763.99 0.972148 2.53499 0
M  V30 7978 C 762.446 3.307 1.42006 0
M  V30 7979 C 762.054 4.45824 0.441017 0
M  V30 7980 C 763.798 3.68894 2.10041 0
M  V30 7981 C 761.705 5.81134 1.09717 0
M  V30 7982 H 760.635 0.695474 0.291259 0
M  V30 7983 H 763.286 1.83485 0.0231224 0
M  V30 7984 H 761.668 3.28257 2.21502 0
M  V30 7985 H 762.842 4.59659 -0.32413 0
M  V30 7986 H 761.157 4.16181 -0.134886 0
M  V30 7987 H 763.754 4.67281 2.59908 0
M  V30 7988 H 764.097 2.98692 2.89981 0
M  V30 7989 H 764.63 3.73326 1.37376 0
M  V30 7990 H 761.369 6.54628 0.338095 0
M  V30 7991 H 760.889 5.711 1.83317 0
M  V30 7992 H 762.568 6.26468 1.617 0
M  V30 7993 N 762.7 -0.34323 1.53817 0
M  V30 7994 C 763.632 -1.44216 1.78141 0
M  V30 7995 C 764.645 -1.48701 0.662721 0
M  V30 7996 O 765.834 -1.51778 0.939458 0
M  V30 7997 C 762.934 -2.82872 1.86646 0
M  V30 7998 C 762.107 -3.01824 3.16577 0
M  V30 7999 C 761.166 -4.20723 3.16036 0
M  V30 8000 O 760.192 -4.14824 3.89756 0
M  V30 8001 N 761.394 -5.29276 2.38427 0
M  V30 8002 H 764.159 -1.23721 2.72971 0
M  V30 8003 H 761.72 -0.53311 1.52871 0
M  V30 8004 H 763.712 -3.60588 1.83735 0
M  V30 8005 H 762.282 -2.96509 0.990014 0
M  V30 8006 H 761.502 -2.11575 3.3261 0
M  V30 8007 H 762.79 -3.11369 4.02402 0
M  V30 8008 H 762.188 -5.36938 1.78085 0
M  V30 8009 H 760.745 -6.05484 2.41313 0
M  V30 8010 N 764.178 -1.45556 -0.604258 0
M  V30 8011 C 765.408 -1.53056 -1.38771 0
M  V30 8012 C 765.816 -0.163092 -1.88496 0
M  V30 8013 O 765.159 0.846157 -1.63052 0
M  V30 8014 C 765.221 -2.45656 -2.62476 0
M  V30 8015 C 764.885 -3.92328 -2.34367 0
M  V30 8016 C 765.882 -4.82137 -1.94525 0
M  V30 8017 C 763.567 -4.37275 -2.47177 0
M  V30 8018 C 765.561 -6.14901 -1.67856 0
M  V30 8019 C 763.248 -5.70079 -2.20122 0
M  V30 8020 C 764.246 -6.58711 -1.80524 0
M  V30 8021 O 763.934 -7.89053 -1.53788 0
M  V30 8022 H 763.666 -0.520721 -0.431075 0
M  V30 8023 H 766.22 -1.91464 -0.743693 0
M  V30 8024 H 764.45 -2.02225 -3.29609 0
M  V30 8025 H 766.139 -2.43802 -3.24523 0
M  V30 8026 H 766.905 -4.48675 -1.84162 0
M  V30 8027 H 762.784 -3.68527 -2.76964 0
M  V30 8028 H 766.328 -6.8404 -1.36874 0
M  V30 8029 H 762.225 -6.03095 -2.30102 0
M  V30 8030 H 762.993 -8.01113 -1.67812 0
M  V30 8031 N 765.656 0.84705 -1.32902 0
M  V30 8032 C 766.606 1.94451 -1.19049 0
M  V30 8033 C 767.59 1.60617 -0.095461 0
M  V30 8034 O 768.782 1.74033 -0.322739 0
M  V30 8035 C 765.911 3.30645 -0.923509 0
M  V30 8036 C 764.997 3.70675 -2.0606 0
M  V30 8037 N 765.388 3.82468 -3.30986 0
M  V30 8038 C 763.686 4.00357 -1.96547 0
M  V30 8039 C 764.387 4.17056 -4.05511 0
M  V30 8040 N 763.363 4.28985 -3.33876 0
M  V30 8041 H 767.165 2.01713 -2.1375 0
M  V30 8042 H 764.679 1.03928 -1.24791 0
M  V30 8043 H 766.676 4.0905 -0.805212 0
M  V30 8044 H 765.336 3.24697 0.0150523 0
M  V30 8045 H 766.347 3.66589 -3.65832 0
M  V30 8046 H 763.024 4.02666 -1.10299 0
M  V30 8047 H 764.414 4.33585 -5.13277 0
M  V30 8048 N 767.134 1.16236 1.06428 0
M  V30 8049 C 768.359 0.967688 1.83441 0
M  V30 8050 C 768.784 -0.479167 1.81894 0
M  V30 8051 O 768.142 -1.34224 1.21875 0
M  V30 8052 C 768.19 1.49806 3.2801 0
M  V30 8053 O 767.294 0.703481 4.06356 0
M  V30 8054 H 766.635 0.344468 0.56766 0
M  V30 8055 H 769.165 1.54442 1.34197 0
M  V30 8056 H 769.175 1.51495 3.78831 0
M  V30 8057 H 767.85 2.55133 3.2845 0
M  V30 8058 H 766.427 0.756986 3.65136 0
M  V30 8059 N 768.612 -1.24939 0.960631 0
M  V30 8060 C 769.84 -1.96881 0.636045 0
M  V30 8061 C 770.255 -1.71334 -0.793093 0
M  V30 8062 O 769.612 -0.992917 -1.53125 0
M  V30 8063 C 769.663 -3.50309 0.892533 0
M  V30 8064 O 769.384 -3.74977 2.26548 0
M  V30 8065 C 770.885 -4.39474 0.581159 0
M  V30 8066 H 768.105 -0.627399 0.237931 0
M  V30 8067 H 770.649 -1.58952 1.28664 0
M  V30 8068 H 768.804 -3.86326 0.288257 0
M  V30 8069 H 769.218 -4.69401 2.34014 0
M  V30 8070 H 770.692 -5.46008 0.811125 0
M  V30 8071 H 771.169 -4.3652 -0.48443 0
M  V30 8072 H 771.775 -4.09032 1.16502 0
M  V30 8073 N 770.09 -0.729906 -1.39679 0
M  V30 8074 C 771.338 -0.275077 -2.00219 0
M  V30 8075 C 771.659 1.1401 -1.58199 0
M  V30 8076 O 770.929 1.77546 -0.827904 0
M  V30 8077 H 769.509 -0.0987127 -0.740449 0
M  V30 8078 H 772.171 -0.93873 -1.70804 0
M  V30 8079 H 771.267 -0.319446 -3.10461 0
M  V30 8080 N 771.568 1.50203 -0.477153 0
M  V30 8081 C 772.515 2.28656 0.31386 0
M  V30 8082 C 773.485 1.33977 0.981802 0
M  V30 8083 O 774.67 1.62919 0.993072 0
M  V30 8084 C 771.81 3.16027 1.38639 0
M  V30 8085 C 770.923 4.25743 0.732615 0
M  V30 8086 C 770.058 5.00363 1.78355 0
M  V30 8087 C 769.097 6.01945 1.11035 0
M  V30 8088 N 768.234 6.6982 2.10441 0
M  V30 8089 H 773.074 2.958 -0.361445 0
M  V30 8090 H 770.611 1.45867 -0.190093 0
M  V30 8091 H 772.569 3.6504 2.01994 0
M  V30 8092 H 771.199 2.50917 2.03077 0
M  V30 8093 H 770.251 3.80398 -0.0136546 0
M  V30 8094 H 771.563 4.98393 0.201513 0
M  V30 8095 H 770.717 5.53124 2.49276 0
M  V30 8096 H 769.456 4.27432 2.34847 0
M  V30 8097 H 768.461 5.48438 0.386797 0
M  V30 8098 H 769.686 6.76851 0.552248 0
M  V30 8099 H 767.632 5.99677 2.65939 0
M  V30 8100 H 767.549 7.38366 1.62332 0
M  V30 8101 H 768.817 7.27196 2.80724 0
M  V30 8102 N 773.046 0.209999 1.56195 0
M  V30 8103 C 774.271 -0.433064 2.02828 0
M  V30 8104 C 774.696 -1.5337 1.08901 0
M  V30 8105 O 774.054 -1.81144 0.0751132 0
M  V30 8106 C 774.102 -0.952635 3.47789 0
M  V30 8107 O 773.206 -2.0647 3.56993 0
M  V30 8108 H 772.547 -0.0994594 0.656509 0
M  V30 8109 H 775.077 0.32525 2.01998 0
M  V30 8110 H 775.087 -1.26542 3.8788 0
M  V30 8111 H 773.762 -0.147007 4.1564 0
M  V30 8112 H 772.339 -1.75942 3.28784 0
M  V30 8113 N 774.524 -1.57472 -0.0634922 0
M  V30 8114 C 775.749 -1.92273 -0.77756 0
M  V30 8115 C 776.174 -0.807141 -1.69902 0
M  V30 8116 O 775.532 0.239523 -1.79711 0
M  V30 8117 C 775.58 -3.26054 -1.54017 0
M  V30 8118 O 774.684 -3.15873 -2.65138 0
M  V30 8119 H 774.025 -0.629389 -0.211579 0
M  V30 8120 H 776.555 -2.04579 -0.0292523 0
M  V30 8121 H 776.565 -3.60127 -1.91763 0
M  V30 8122 H 775.24 -4.06824 -0.864128 0
M  V30 8123 H 773.817 -2.93373 -2.30189 0
M  V30 8124 N 776.003 0.335068 -1.53997 0
M  V30 8125 C 776.935 1.4327 -1.78903 0
M  V30 8126 C 777.948 1.48347 -0.670598 0
M  V30 8127 O 779.137 1.51277 -0.947494 0
M  V30 8128 C 776.237 2.81878 -1.88144 0
M  V30 8129 C 775.41 3.00141 -3.18174 0
M  V30 8130 C 774.469 4.19041 -3.18263 0
M  V30 8131 O 773.495 4.12751 -3.9195 0
M  V30 8132 N 774.697 5.28004 -2.41231 0
M  V30 8133 H 777.462 1.22272 -2.73623 0
M  V30 8134 H 775.023 0.524996 -1.53152 0
M  V30 8135 H 777.015 3.59609 -1.85644 0
M  V30 8136 H 775.585 2.9598 -1.00572 0
M  V30 8137 H 774.805 2.09808 -3.33728 0
M  V30 8138 H 776.093 3.0923 -4.04047 0
M  V30 8139 H 775.491 5.35986 -1.8093 0
M  V30 8140 H 774.048 6.04196 -2.44521 0
M  V30 8141 N 777.481 1.45874 0.596531 0
M  V30 8142 C 778.897 1.30524 0.918459 0
M  V30 8143 C 779.097 0.266429 1.99731 0
M  V30 8144 O 778.153 -0.335809 2.50257 0
M  V30 8145 C 779.466 2.68747 1.3489 0
M  V30 8146 C 781.014 2.7673 1.46251 0
M  V30 8147 C 781.489 4.15504 1.92667 0
M  V30 8148 N 782.98 4.17853 1.99883 0
M  V30 8149 C 783.715 5.22109 2.37044 0
M  V30 8150 N 783.211 6.36704 2.73094 0
M  V30 8151 N 785.004 5.09471 2.37479 0
M  V30 8152 H 777.155 2.12081 -0.116368 0
M  V30 8153 H 779.418 0.947941 0.0106033 0
M  V30 8154 H 779.124 3.46006 0.630288 0
M  V30 8155 H 778.998 2.97942 2.31323 0
M  V30 8156 H 781.385 1.99768 2.17202 0
M  V30 8157 H 781.466 2.51236 0.481054 0
M  V30 8158 H 781.11 4.92956 1.223 0
M  V30 8159 H 781.04 4.38396 2.91747 0
M  V30 8160 H 783.531 3.35163 1.74568 0
M  V30 8161 H 783.844 7.12041 3.00362 0
M  V30 8162 H 782.189 6.40087 2.70764 0
M  V30 8163 H 785.38 4.18987 2.08728 0
M  V30 8164 H 785.553 5.90837 2.66112 0
M  V30 8165 N 778.959 -0.83999 1.33349 0
M  V30 8166 C 779.891 -1.95678 1.19344 0
M  V30 8167 C 780.904 -1.62322 0.124692 0
M  V30 8168 O 782.093 -1.74516 0.375012 0
M  V30 8169 C 779.193 -3.29133 0.807771 0
M  V30 8170 C 778.366 -3.9063 1.96792 0
M  V30 8171 C 777.425 -5.02438 1.56341 0
M  V30 8172 O 776.451 -5.21646 2.27759 0
M  V30 8173 N 777.653 -5.78612 0.467767 0
M  V30 8174 H 780.418 -2.08229 2.15548 0
M  V30 8175 H 777.979 -1.01566 1.26079 0
M  V30 8176 H 779.971 -4.01355 0.519282 0
M  V30 8177 H 778.541 -3.12535 -0.063555 0
M  V30 8178 H 777.761 -3.11011 2.4221 0
M  V30 8179 H 779.049 -4.2845 2.74422 0
M  V30 8180 H 778.447 -5.65559 -0.126324 0
M  V30 8181 H 777.004 -6.51362 0.238945 0
M  V30 8182 N 780.437 -1.16799 -1.0581 0
M  V30 8183 C 781.37 -0.822491 -2.12862 0
M  V30 8184 C 782.348 0.208006 -1.61264 0
M  V30 8185 O 783.532 0.0909652 -1.8828 0
M  V30 8186 C 780.659 -0.225826 -3.37946 0
M  V30 8187 C 779.705 -1.23071 -4.08357 0
M  V30 8188 S 780.538 -2.77944 -4.5772 0
M  V30 8189 C 781.694 -2.19741 -5.86059 0
M  V30 8190 H 781.927 -1.72917 -2.41841 0
M  V30 8191 H 779.46 -0.991982 -1.18318 0
M  V30 8192 H 781.418 0.111955 -4.10347 0
M  V30 8193 H 780.079 0.658692 -3.07116 0
M  V30 8194 H 779.272 -0.761758 -4.9821 0
M  V30 8195 H 778.874 -1.51383 -3.41993 0
M  V30 8196 H 781.166 -1.5691 -6.59079 0
M  V30 8197 H 782.109 -3.07823 -6.37692 0
M  V30 8198 H 782.517 -1.63433 -5.40324 0
M  V30 8199 N 781.915 1.24427 -0.967243 0
M  V30 8200 C 783.161 1.92772 -0.629812 0
M  V30 8201 C 783.494 1.75436 0.832827 0
M  V30 8202 O 782.769 1.10716 1.59913 0
M  V30 8203 C 783.052 3.45798 -1.00477 0
M  V30 8204 C 782.905 3.72304 -2.52407 0
M  V30 8205 C 784.224 4.36787 -0.538999 0
M  V30 8206 H 781.343 0.700099 -0.230282 0
M  V30 8207 H 783.985 1.46805 -1.20616 0
M  V30 8208 H 782.135 3.8508 -0.514336 0
M  V30 8209 H 783.807 3.42584 -3.08924 0
M  V30 8210 H 782.05 3.17472 -2.95625 0
M  V30 8211 H 782.721 4.7937 -2.73693 0
M  V30 8212 H 785.197 4.04877 -0.959874 0
M  V30 8213 H 784.073 5.4259 -0.829926 0
M  V30 8214 H 784.334 4.38527 0.560923 0
M  V30 8215 N 783.393 0.737304 1.3929 0
M  V30 8216 C 784.64 0.286257 2.00467 0
M  V30 8217 C 784.968 -1.1272 1.58507 0
M  V30 8218 O 784.223 -1.7832 0.806257 0
M  V30 8219 C 784.522 0.338438 3.55794 0
M  V30 8220 C 784.188 1.70524 4.17411 0
M  V30 8221 C 782.85 2.07934 4.33955 0
M  V30 8222 C 785.202 2.60256 4.51571 0
M  V30 8223 C 782.53 3.34578 4.81948 0
M  V30 8224 C 784.882 3.86275 5.00974 0
M  V30 8225 C 783.546 4.23774 5.15725 0
M  V30 8226 H 782.816 0.104749 0.733559 0
M  V30 8227 H 785.463 0.944598 1.66582 0
M  V30 8228 H 783.768 -0.403478 3.89717 0
M  V30 8229 H 785.465 -0.0287255 4.0099 0
M  V30 8230 H 782.055 1.40439 4.04938 0
M  V30 8231 H 786.239 2.32624 4.38406 0
M  V30 8232 H 781.495 3.63572 4.91554 0
M  V30 8233 H 785.669 4.5596 5.26378 0
M  V30 8234 H 783.296 5.21972 5.52674 0
M  V30 8235 N 784.871 -1.49948 0.485112 0
M  V30 8236 C 786.119 -2.01996 -0.0648775 0
M  V30 8237 C 786.44 -1.36819 -1.38945 0
M  V30 8238 O 785.71 -0.518163 -1.88923 0
M  V30 8239 H 784.29 -0.746513 -0.0269662 0
M  V30 8240 H 786.952 -1.84136 0.638733 0
M  V30 8241 H 786.048 -3.11418 -0.20617 0
M  V30 8242 N 786.349 -0.21828 -1.56081 0
M  V30 8243 C 787.595 0.414921 -1.9851 0
M  V30 8244 C 787.928 1.59648 -1.10573 0
M  V30 8245 O 787.203 1.93818 -0.162695 0
M  V30 8246 C 787.486 0.852647 -3.4986 0
M  V30 8247 C 787.339 -0.33232 -4.48571 0
M  V30 8248 C 788.658 1.70998 -4.05521 0
M  V30 8249 H 785.777 0.149344 -0.72171 0
M  V30 8250 H 788.419 -0.313858 -1.8739 0
M  V30 8251 H 786.569 1.47362 -3.59467 0
M  V30 8252 H 788.241 -0.970418 -4.50977 0
M  V30 8253 H 786.484 -0.980302 -4.22578 0
M  V30 8254 H 787.155 0.0168407 -5.51997 0
M  V30 8255 H 789.631 1.18606 -3.98838 0
M  V30 8256 H 788.507 1.98517 -5.11744 0
M  V30 8257 H 788.768 2.67219 -3.52202 0
M  V30 8258 N 787.827 1.57504 0.0551401 0
M  V30 8259 C 789.073 1.88334 0.752216 0
M  V30 8260 C 789.406 0.812742 1.76375 0
M  V30 8261 O 788.681 -0.175198 1.93709 0
M  V30 8262 C 788.964 3.29824 1.44528 0
M  V30 8263 C 788.817 4.47553 0.449026 0
M  V30 8264 C 790.136 3.69808 2.38601 0
M  V30 8265 H 787.255 0.684973 0.271995 0
M  V30 8266 H 789.897 1.89994 0.0151895 0
M  V30 8267 H 788.047 3.28539 2.07351 0
M  V30 8268 H 789.719 4.60967 -0.175277 0
M  V30 8269 H 787.962 4.33168 -0.234162 0
M  V30 8270 H 788.633 5.43376 0.971917 0
M  V30 8271 H 791.109 3.72293 1.85842 0
M  V30 8272 H 789.985 4.69665 2.84088 0
M  V30 8273 H 790.246 3.00641 3.24141 0
M  V30 8274 N 789.305 -0.326896 1.54172 0
M  V30 8275 C 790.533 -1.08486 1.76177 0
M  V30 8276 C 790.948 -1.81815 0.508788 0
M  V30 8277 O 790.305 -1.74924 -0.520362 0
M  V30 8278 C 790.356 -2.08552 2.95276 0
M  V30 8279 O 790.077 -1.38202 4.15731 0
M  V30 8280 C 791.578 -2.96593 3.29466 0
M  V30 8281 H 788.798 -0.322835 0.588233 0
M  V30 8282 H 791.342 -0.374036 2.0105 0
M  V30 8283 H 789.497 -2.75174 2.72687 0
M  V30 8284 H 789.911 -2.05186 4.827 0
M  V30 8285 H 791.385 -3.62708 4.16109 0
M  V30 8286 H 791.862 -3.63511 2.46487 0
M  V30 8287 H 792.468 -2.35537 3.54122 0
M  V30 8288 N 790.784 -1.46188 -0.588786 0
M  V30 8289 C 791.747 -1.55882 -1.68029 0
M  V30 8290 C 792.747 -0.436515 -1.54762 0
M  V30 8291 O 793.937 -0.700626 -1.59489 0
M  V30 8292 C 791.069 -1.47332 -3.07418 0
M  V30 8293 H 792.262 -2.5315 -1.60795 0
M  V30 8294 H 789.815 -1.33908 -0.806116 0
M  V30 8295 H 790.55 -0.513193 -3.20214 0
M  V30 8296 H 790.335 -2.28753 -3.18456 0
M  V30 8297 H 791.825 -1.57187 -3.86887 0
M  V30 8298 N 792.262 0.832906 -1.33792 0
M  V30 8299 C 793.511 1.58351 -1.24932 0
M  V30 8300 C 793.824 1.94754 0.181703 0
M  V30 8301 O 795.03 2.6865 0.392375 0
M  V30 8302 C 793.486 2.85643 -2.18943 0
M  V30 8303 C 793.094 2.56581 -3.67247 0
M  V30 8304 C 794.838 3.63667 -2.18968 0
M  V30 8305 C 792.745 3.80006 -4.53155 0
M  V30 8306 H 791.675 0.594278 -0.464058 0
M  V30 8307 H 794.326 0.91786 -1.58895 0
M  V30 8308 H 792.708 3.53781 -1.77919 0
M  V30 8309 H 793.882 1.96617 -4.16747 0
M  V30 8310 H 792.197 1.91851 -3.6957 0
M  V30 8311 H 794.794 4.55293 -2.80379 0
M  V30 8312 H 795.137 3.99039 -1.18631 0
M  V30 8313 H 795.67 3.0246 -2.58384 0
M  V30 8314 H 792.409 3.4976 -5.5439 0
M  V30 8315 H 791.929 4.39288 -4.08395 0
M  V30 8316 H 793.608 4.47523 -4.6726 0
M  V30 8317 N 793.74 1.17359 1.05189 0
M  V30 8318 C 795.017 0.871914 1.75091 0
M  V30 8319 C 795.397 -0.627821 2.01548 0
M  V30 8320 O 794.745 -1.5791 1.65156 0
M  V30 8321 C 794.955 1.70687 3.04413 0
M  V30 8322 C 796.303 1.92684 3.78362 0
M  V30 8323 O 797.327 1.67645 3.14282 0
M  V30 8324 O 796.186 2.34765 4.93505 0
M  V30 8325 H 793.28 0.322831 0.761386 0
M  V30 8326 H 795.826 1.28054 1.11357 0
M  V30 8327 H 794.598 2.72405 2.80911 0
M  V30 8328 H 794.221 1.29602 3.75884 0
M  V30 8329 N 795.218 -1.23913 0.973828 0
M  V30 8330 C 796.148 -2.27453 0.527969 0
M  V30 8331 C 797.129 -1.6443 -0.435513 0
M  V30 8332 O 798.314 -1.9137 -0.330306 0
M  V30 8333 C 795.444 -3.4685 -0.176757 0
M  V30 8334 C 794.398 -4.22181 0.703352 0
M  V30 8335 C 793.724 -5.34534 -0.133215 0
M  V30 8336 C 795.024 -4.82865 1.99096 0
M  V30 8337 H 796.718 -2.65 1.3934 0
M  V30 8338 H 794.264 -1.27388 0.671446 0
M  V30 8339 H 796.217 -4.18424 -0.499934 0
M  V30 8340 H 794.941 -3.08346 -1.07659 0
M  V30 8341 H 793.6 -3.52416 1.00989 0
M  V30 8342 H 793.248 -4.92271 -1.03338 0
M  V30 8343 H 792.948 -5.85855 0.452494 0
M  V30 8344 H 794.472 -6.08933 -0.450924 0
M  V30 8345 H 795.886 -5.46481 1.73297 0
M  V30 8346 H 794.283 -5.44444 2.52389 0
M  V30 8347 H 795.353 -4.03977 2.68199 0
M  V30 8348 N 796.696 -0.74468 -1.38897 0
M  V30 8349 C 797.626 -0.126355 -2.33158 0
M  V30 8350 C 798.607 0.713517 -1.54412 0
M  V30 8351 O 799.792 0.656523 -1.82766 0
M  V30 8352 C 796.922 0.774375 -3.38557 0
M  V30 8353 C 795.876 0.0379214 -4.27983 0
M  V30 8354 C 795.202 1.05631 -5.24162 0
M  V30 8355 C 796.502 -1.12523 -5.10035 0
M  V30 8356 H 798.196 -0.913744 -2.85116 0
M  V30 8357 H 795.742 -0.440847 -1.37086 0
M  V30 8358 H 797.695 1.21655 -4.03458 0
M  V30 8359 H 796.419 1.59399 -2.85061 0
M  V30 8360 H 795.078 -0.384733 -3.64576 0
M  V30 8361 H 794.726 1.86975 -4.66958 0
M  V30 8362 H 794.426 0.568261 -5.84846 0
M  V30 8363 H 795.95 1.49799 -5.9194 0
M  V30 8364 H 797.364 -0.761037 -5.68226 0
M  V30 8365 H 795.761 -1.54355 -5.79909 0
M  V30 8366 H 796.831 -1.94237 -4.44297 0
M  V30 8367 N 798.174 1.49689 -0.493057 0
M  V30 8368 C 799.122 2.30613 0.303383 0
M  V30 8369 C 800.116 1.38867 0.970165 0
M  V30 8370 O 801.322 1.55956 0.898761 0
M  V30 8371 H 797.697 0.742891 0.116691 0
M  V30 8372 H 799.668 2.95717 -0.39924 0
M  V30 8373 C 798.417 3.20008 1.35978 0
M  V30 8374 H 797.74 3.90526 0.856103 0
M  V30 8375 H 799.18 3.79586 1.88919 0
M  V30 8376 C 797.639 2.39079 2.37367 0
M  V30 8377 O 798.169 2.08933 3.43089 0
M  V30 8378 N 796.375 2.0125 2.09635 0
M  V30 8379 H 795.922 2.25966 1.23682 0
M  V30 8380 H 795.88 1.47408 2.77702 0
M  V30 8381 N 799.652 0.226554 1.55963 0
M  V30 8382 C 800.899 -0.403789 1.98433 0
M  V30 8383 C 801.227 -1.59416 1.1143 0
M  V30 8384 O 800.482 -1.95042 0.160389 0
M  V30 8385 C 800.781 -0.87642 3.46488 0
M  V30 8386 C 800.447 0.203973 4.50438 0
M  V30 8387 C 799.109 0.500754 4.78587 0
M  V30 8388 C 801.461 0.934396 5.12756 0
M  V30 8389 C 798.789 1.53239 5.66334 0
M  V30 8390 C 801.141 1.9554 6.0162 0
M  V30 8391 C 799.805 2.25905 6.28111 0
M  V30 8392 H 799.075 -0.147757 0.726119 0
M  V30 8393 H 801.722 0.330121 1.88633 0
M  V30 8394 H 800.027 -1.68918 3.53517 0
M  V30 8395 H 801.724 -1.37407 3.76723 0
M  V30 8396 H 798.314 -0.0374917 4.28584 0
M  V30 8397 H 802.498 0.718355 4.91074 0
M  V30 8398 H 797.754 1.77321 5.85122 0
M  V30 8399 H 801.928 2.52642 6.48957 0
M  V30 8400 H 799.555 3.05985 6.959 0
M  V30 8401 N 801.13 -1.57531 -0.0467866 0
M  V30 8402 C 802.376 -1.8873 -0.742218 0
M  V30 8403 C 802.709 -0.822084 -1.75941 0
M  V30 8404 O 801.984 0.164922 -1.938 0
M  V30 8405 C 802.267 -3.30586 -1.42776 0
M  V30 8406 C 802.12 -4.47785 -0.425285 0
M  V30 8407 C 803.439 -3.71068 -2.36636 0
M  V30 8408 H 800.558 -0.686406 -0.268359 0
M  V30 8409 H 803.2 -1.89999 -0.00511341 0
M  V30 8410 H 801.35 -3.29634 -2.05605 0
M  V30 8411 H 803.022 -4.60867 0.199721 0
M  V30 8412 H 801.265 -4.33037 0.25713 0
M  V30 8413 H 801.936 -5.43884 -0.943086 0
M  V30 8414 H 804.412 -3.73273 -1.83866 0
M  V30 8415 H 803.288 -4.71165 -2.81593 0
M  V30 8416 H 803.549 -3.02355 -3.22542 0
M  V30 8417 N 802.608 0.318715 -1.54344 0
M  V30 8418 C 803.571 1.37545 -1.83342 0
M  V30 8419 C 804.571 1.445 -0.705444 0
M  V30 8420 O 805.761 1.44443 -0.973752 0
M  V30 8421 C 802.893 2.76225 -1.99781 0
M  V30 8422 H 804.086 1.13084 -2.77762 0
M  V30 8423 H 801.639 0.554457 -1.46135 0
M  V30 8424 H 802.374 3.05934 -1.07588 0
M  V30 8425 H 802.159 2.7257 -2.81865 0
M  V30 8426 H 803.649 3.52664 -2.23647 0
M  V30 8427 N 804.086 1.46499 0.581025 0
M  V30 8428 C 805.049 1.5677 1.672 0
M  V30 8429 C 806.049 0.444716 1.54528 0
M  V30 8430 O 807.239 0.709074 1.59116 0
M  V30 8431 C 804.371 1.4896 3.06633 0
M  V30 8432 H 805.564 2.54 1.5945 0
M  V30 8433 H 803.117 1.34334 0.799003 0
M  V30 8434 H 803.852 0.530168 3.19937 0
M  V30 8435 H 803.637 2.30439 3.17239 0
M  V30 8436 H 805.127 1.59237 3.86048 0
M  V30 8437 N 805.565 -0.825799 1.34232 0
M  V30 8438 C 806.497 -1.94401 1.21413 0
M  V30 8439 C 807.51 -1.6218 0.141902 0
M  V30 8440 O 808.699 -1.74109 0.3935 0
M  V30 8441 C 805.799 -3.28257 0.842635 0
M  V30 8442 C 804.972 -3.88521 2.00924 0
M  V30 8443 C 804.031 -5.00752 1.61661 0
M  V30 8444 O 803.057 -5.19201 2.33279 0
M  V30 8445 N 804.259 -5.78084 0.52911 0
M  V30 8446 H 807.024 -2.05931 2.17744 0
M  V30 8447 H 804.585 -1.00223 1.27149 0
M  V30 8448 H 806.577 -4.00781 0.561822 0
M  V30 8449 H 805.147 -3.12585 -0.0304029 0
M  V30 8450 H 804.367 -3.08425 2.45495 0
M  V30 8451 H 805.655 -4.25516 2.78951 0
M  V30 8452 H 805.053 -5.65661 -0.0663322 0
M  V30 8453 H 803.61 -6.51072 0.308017 0
M  V30 8454 N 807.043 -1.17915 -1.04565 0
M  V30 8455 C 807.953 -0.916449 -2.15959 0
M  V30 8456 C 808.969 0.117655 -1.73602 0
M  V30 8457 O 810.145 -0.063089 -2.01301 0
M  V30 8458 C 807.21 -0.440262 -3.43893 0
M  V30 8459 C 806.271 -1.54172 -4.00661 0
M  V30 8460 C 805.504 -1.08816 -5.22489 0
M  V30 8461 O 805.727 0.0551547 -5.70373 0
M  V30 8462 O 804.661 -1.88383 -5.7166 0
M  V30 8463 H 808.487 -1.8484 -2.40972 0
M  V30 8464 H 806.072 -0.960552 -1.14428 0
M  V30 8465 H 807.954 -0.182537 -4.21004 0
M  V30 8466 H 806.629 0.46346 -3.20365 0
M  V30 8467 H 805.536 -1.85341 -3.24961 0
M  V30 8468 H 806.869 -2.42139 -4.2852 0
M  V30 8469 N 808.521 1.23394 -0.980386 0
M  V30 8470 C 809.937 1.43961 -0.689008 0
M  V30 8471 C 810.137 1.87229 0.744809 0
M  V30 8472 O 809.193 2.01831 1.51725 0
M  V30 8473 C 810.506 2.49128 -1.68392 0
M  V30 8474 C 812.054 2.62941 -1.69796 0
M  V30 8475 C 812.529 3.71317 -2.68118 0
M  V30 8476 N 814.02 3.7876 -2.66636 0
M  V30 8477 C 814.755 4.62176 -3.39383 0
M  V30 8478 N 814.251 5.49682 -4.21688 0
M  V30 8479 N 816.044 4.56372 -3.28147 0
M  V30 8480 H 808.195 0.936106 -1.90659 0
M  V30 8481 H 810.458 0.473023 -0.821555 0
M  V30 8482 H 810.164 2.24252 -2.70931 0
M  V30 8483 H 810.038 3.47514 -1.46675 0
M  V30 8484 H 812.425 2.87168 -0.679617 0
M  V30 8485 H 812.506 1.64871 -1.95579 0
M  V30 8486 H 812.15 3.4784 -3.70095 0
M  V30 8487 H 812.08 4.68929 -2.3961 0
M  V30 8488 H 814.571 3.16226 -2.06904 0
M  V30 8489 H 814.884 6.10323 -4.74053 0
M  V30 8490 H 813.229 5.49306 -4.25779 0
M  V30 8491 H 816.42 3.87029 -2.63299 0
M  V30 8492 H 816.593 5.21153 -3.85102 0
M  V30 8493 N 809.999 0.752036 1.385 0
M  V30 8494 C 811.276 0.233075 1.94206 0
M  V30 8495 C 811.656 -1.26838 1.68746 0
M  V30 8496 O 811.004 -2.04214 1.02513 0
M  V30 8497 C 811.214 0.58509 3.44061 0
M  V30 8498 C 812.562 0.543871 4.21102 0
M  V30 8499 O 813.586 0.523291 3.52335 0
M  V30 8500 O 812.445 0.553436 5.4369 0
M  V30 8501 H 809.539 0.0483049 0.825588 0
M  V30 8502 H 812.085 0.832053 1.47902 0
M  V30 8503 H 810.857 1.62212 3.56094 0
M  V30 8504 H 810.48 -0.0419738 3.97578 0
M  V30 8505 N 811.477 -1.49425 0.500989 0
M  V30 8506 C 812.409 -2.27037 -0.314159 0
M  V30 8507 C 813.422 -1.33578 -0.930626 0
M  V30 8508 O 814.611 -1.58861 -0.813968 0
M  V30 8509 C 811.711 -3.05968 -1.45729 0
M  V30 8510 C 810.884 -4.27 -0.948135 0
M  V30 8511 C 809.943 -4.87977 -1.96888 0
M  V30 8512 O 808.969 -5.48044 -1.53743 0
M  V30 8513 N 810.171 -4.77627 -3.29928 0
M  V30 8514 H 812.936 -2.97634 0.351336 0
M  V30 8515 H 810.497 -1.58427 0.333536 0
M  V30 8516 H 812.489 -3.43634 -2.1377 0
M  V30 8517 H 811.059 -2.37978 -2.02695 0
M  V30 8518 H 810.279 -3.94091 -0.0926311 0
M  V30 8519 H 811.567 -5.0541 -0.586362 0
M  V30 8520 H 810.965 -4.29926 -3.67669 0
M  V30 8521 H 809.522 -5.19478 -3.93682 0
M  V30 8522 N 812.955 -0.234822 -1.55841 0
M  V30 8523 C 813.902 0.6698 -2.20867 0
M  V30 8524 C 814.872 1.18042 -1.16856 0
M  V30 8525 O 816.057 1.23709 -1.45261 0
M  V30 8526 C 813.197 1.86646 -2.90271 0
M  V30 8527 C 812.31 1.39351 -4.08908 0
M  V30 8528 C 811.445 2.54878 -4.66059 0
M  V30 8529 C 810.484 2.04384 -5.76969 0
M  V30 8530 N 809.621 3.13233 -6.28355 0
M  V30 8531 H 814.461 0.10858 -2.97802 0
M  V30 8532 H 811.998 0.041836 -1.4704 0
M  V30 8533 H 813.956 2.56926 -3.28702 0
M  V30 8534 H 812.586 2.40035 -2.15831 0
M  V30 8535 H 811.638 0.585173 -3.75872 0
M  V30 8536 H 812.95 0.983356 -4.89011 0
M  V30 8537 H 812.104 3.33219 -5.07001 0
M  V30 8538 H 810.843 2.99188 -3.85146 0
M  V30 8539 H 809.848 1.24509 -5.35516 0
M  V30 8540 H 811.073 1.61057 -6.59725 0
M  V30 8541 H 809.019 3.57 -5.50352 0
M  V30 8542 H 808.936 2.76511 -7.03618 0
M  V30 8543 H 810.204 3.91669 -6.73955 0
M  V30 8544 O 814.472 1.61196 -0.0990213 0
M  V30 8545 H 815.163 1.87057 0.50292 0
M  V30 END ATOM
M  V30 BEGIN BOND
M  V30 END BOND
M  V30 END CTAB
M  END
$$$$
